data_POSCAR
  _audit_creation_date              2014-09-24
  _audit_creation_method            'ToBaCCo'
  _symmetry_space_group_name_H-M    'P1'
  _symmetry_Int_Tables_number       1
  _symmetry_cell_setting            triclinic
  loop_
  _symmetry_equiv_pos_as_xyz
 x,y,z
_cell_length_a 62.6769
_cell_length_b 62.6769
_cell_length_c 62.6441
_cell_angle_alpha 89.997700
_cell_angle_beta 89.991000
_cell_angle_gamma 89.981600
loop_
  _atom_site_label
  _atom_site_type_symbol
  _atom_site_fract_x
  _atom_site_fract_y
  _atom_site_fract_z
C1 C 0.33935 1.36791 0.33951
 C2 C 0.34848 1.37684 0.32112
 C3 C 0.36668 1.36761 0.31194
 C4 C 0.37594 1.34945 0.32116
 C5 C 0.36700 1.34032 0.33955
 C6 C 0.34861 1.34956 0.34879
 C7 C 0.32095 1.37683 0.34864
 C8 C 0.31176 1.36759 0.36683
 C9 C 0.32097 1.34943 0.37609
 C10 C 0.33937 1.34031 0.36716
 C11 C 0.34853 1.32195 0.37611
 C12 C 0.36670 1.31278 0.36688
 C13 C 0.37595 1.32196 0.34871
 H14 H 0.34134 1.39084 0.31385
 H15 H 0.38997 1.34232 0.31392
 H16 H 0.31368 1.39083 0.34150
 H17 H 0.31373 1.34230 0.39012
 H18 H 0.34144 1.31466 0.39013
 H19 H 0.38997 1.31468 0.34163
 C20 C 0.33899 0.86755 0.83996
 C21 C 0.34816 0.87648 0.82159
 C22 C 0.36634 0.86723 0.81243
 C23 C 0.37557 0.84907 0.82161
 C24 C 0.36662 0.83993 0.83999
 C25 C 0.34824 0.84918 0.84922
 C26 C 0.32060 0.87648 0.84909
 C27 C 0.31139 0.86723 0.86726
 C28 C 0.32058 0.84905 0.87651
 C29 C 0.33897 0.83992 0.86759
 C30 C 0.34811 0.82154 0.87652
 C31 C 0.36628 0.81237 0.86729
 C32 C 0.37554 0.82155 0.84913
 H33 H 0.34108 0.89049 0.81429
 H34 H 0.38959 0.84198 0.81434
 H35 H 0.31336 0.89050 0.84195
 H36 H 0.31332 0.84191 0.89053
 H37 H 0.34101 0.81424 0.89053
 H38 H 0.38956 0.81427 0.84205
 C39 C 0.83972 1.36759 0.83903
 C40 C 0.84883 1.37651 0.82062
 C41 C 0.86701 1.36726 0.81142
 C42 C 0.87628 1.34911 0.82064
 C43 C 0.86737 1.34000 0.83905
 C44 C 0.84900 1.34925 0.84830
 C45 C 0.82134 1.37652 0.84819
 C46 C 0.81220 1.36729 0.86639
 C47 C 0.82141 1.34915 0.87565
 C48 C 0.83978 1.34002 0.86671
 C49 C 0.84895 1.32166 0.87566
 C50 C 0.86711 1.31248 0.86641
 C51 C 0.87633 1.32164 0.84821
 H52 H 0.84168 1.39051 0.81336
 H53 H 0.89031 1.34198 0.81339
 H54 H 0.81403 1.39051 0.84109
 H55 H 0.81415 1.34208 0.88968
 H56 H 0.84188 1.31439 0.88969
 H57 H 0.89034 1.31435 0.84112
 C58 C 0.84004 0.86762 0.33929
 C59 C 0.84917 0.87656 0.32090
 C60 C 0.86735 0.86732 0.31169
 C61 C 0.87660 0.84914 0.32089
 C62 C 0.86767 0.84001 0.33928
 C63 C 0.84930 0.84926 0.34854
 C64 C 0.82166 0.87654 0.34844
 C65 C 0.81249 0.86730 0.36661
 C66 C 0.82167 0.84914 0.37586
 C67 C 0.84005 0.84000 0.36692
 C68 C 0.84920 0.82163 0.37585
 C69 C 0.86736 0.81245 0.36660
 C70 C 0.87661 0.82163 0.34843
 H71 H 0.84203 0.89057 0.31365
 H72 H 0.89062 0.84201 0.31364
 H73 H 0.81436 0.89055 0.34135
 H74 H 0.81439 0.84205 0.38987
 H75 H 0.84211 0.81434 0.38987
 H76 H 0.89062 0.81434 0.34134
 C77 C 0.66015 0.63249 0.33921
 C78 C 0.65100 0.62356 0.32083
 C79 C 0.63281 0.63280 0.31166
 C80 C 0.62357 0.65098 0.32087
 C81 C 0.63252 0.66011 0.33924
 C82 C 0.65090 0.65086 0.34847
 C83 C 0.67854 0.62357 0.34834
 C84 C 0.68773 0.63281 0.36649
 C85 C 0.67856 0.65098 0.37575
 C86 C 0.66017 0.66011 0.36684
 C87 C 0.65104 0.67849 0.37578
 C88 C 0.63287 0.68767 0.36656
 C89 C 0.62360 0.67849 0.34840
 H90 H 0.65812 0.60954 0.31358
 H91 H 0.60954 0.65811 0.31364
 H92 H 0.68582 0.60956 0.34124
 H93 H 0.68586 0.65806 0.38976
 H94 H 0.65814 0.68578 0.38979
 H95 H 0.60959 0.68578 0.34133
 C96 C 0.66102 0.13256 0.83992
 C97 C 0.65187 0.12363 0.82153
 C98 C 0.63367 0.13286 0.81239
 C99 C 0.62441 0.15099 0.82161
 C100 C 0.63334 0.16012 0.83999
 C101 C 0.65175 0.15090 0.84921
 C102 C 0.67943 0.12364 0.84902
 C103 C 0.68863 0.13288 0.86720
 C104 C 0.67941 0.15103 0.87648
 C105 C 0.66100 0.16014 0.86758
 C106 C 0.65183 0.17850 0.87654
 C107 C 0.63363 0.18765 0.86733
 C108 C 0.62438 0.17847 0.84917
 H109 H 0.65897 0.10965 0.81421
 H110 H 0.61037 0.15806 0.81436
 H111 H 0.68670 0.10965 0.84186
 H112 H 0.68665 0.15816 0.89051
 H113 H 0.65891 0.18578 0.89056
 H114 H 0.61035 0.18573 0.84211
 C115 C 1.16082 0.63231 0.84008
 C116 C 1.15168 0.62338 0.82170
 C117 C 1.13351 0.63261 0.81252
 C118 C 1.12426 0.65078 0.82169
 C119 C 1.13319 0.65993 0.84007
 C120 C 1.15156 0.65068 0.84933
 C121 C 1.17920 0.62338 0.84922
 C122 C 1.18839 0.63264 0.86740
 C123 C 1.17919 0.65082 0.87664
 C124 C 1.16081 0.65995 0.86770
 C125 C 1.15165 0.67833 0.87662
 C126 C 1.13349 0.68750 0.86737
 C127 C 1.12425 0.67830 0.84920
 H128 H 1.15876 0.60937 0.81441
 H129 H 1.11025 0.65786 0.81441
 H130 H 1.18645 0.60936 0.84209
 H131 H 1.18643 0.65796 0.89066
 H132 H 1.15873 0.68563 0.89063
 H133 H 1.11024 0.68558 0.84211
 C134 C 1.16102 0.13243 0.33901
 C135 C 1.15188 0.12350 0.32062
 C136 C 1.13369 0.13274 0.31144
 C137 C 1.12444 0.15091 0.32065
 C138 C 1.13338 0.16003 0.33904
 C139 C 1.15176 0.15079 0.34827
 C140 C 1.17941 0.12350 0.34814
 C141 C 1.18859 0.13274 0.36634
 C142 C 1.17938 0.15090 0.37559
 C143 C 1.16100 0.16003 0.36666
 C144 C 1.15184 0.17839 0.37561
 C145 C 1.13367 0.18757 0.36638
 C146 C 1.12443 0.17840 0.34820
 H147 H 1.15901 0.10949 0.31336
 H148 H 1.11040 0.15803 0.31343
 H149 H 1.18666 0.10948 0.34101
 H150 H 1.18661 0.15803 0.38962
 H151 H 1.15892 0.18567 0.38963
 H152 H 1.11041 0.18568 0.34113
 C153 C 0.66110 1.36759 0.66018
 C154 C 0.65194 1.37653 0.67856
 C155 C 0.63375 1.36732 0.68771
 C156 C 0.62448 1.34919 0.67850
 C157 C 0.63342 1.34004 0.66013
 C158 C 0.65183 1.34924 0.65090
 C159 C 0.67951 1.37648 0.65107
 C160 C 0.68871 1.36722 0.63289
 C161 C 0.67949 1.34907 0.62362
 C162 C 0.66108 1.33997 0.63254
 C163 C 0.65191 1.32162 0.62359
 C164 C 0.63371 1.31249 0.63281
 C165 C 0.62447 1.32169 0.65097
 H166 H 0.65904 1.39052 0.68587
 H167 H 0.61045 1.34213 0.68577
 H168 H 0.68677 1.39048 0.65821
 H169 H 0.68674 1.34192 0.60960
 H170 H 0.65900 1.31432 0.60958
 H171 H 0.61043 1.31444 0.65804
 C172 C 0.66003 0.86758 1.16086
 C173 C 0.65090 0.87653 1.17924
 C174 C 0.63272 0.86731 1.18845
 C175 C 0.62346 0.84913 1.17926
 C176 C 0.63240 0.83998 1.16088
 C177 C 0.65077 0.84921 1.15162
 C178 C 0.67841 0.87648 1.15170
 C179 C 0.68758 0.86722 1.13353
 C180 C 0.67839 0.84906 1.12430
 C181 C 0.66001 0.83995 1.13324
 C182 C 0.65086 0.82157 1.12432
 C183 C 0.63270 0.81241 1.13357
 C184 C 0.62346 0.82161 1.15174
 H185 H 0.65804 0.89055 1.18648
 H186 H 0.60944 0.84202 1.18652
 H187 H 0.68570 0.89049 1.15878
 H188 H 0.68567 0.84196 1.11029
 H189 H 0.65795 0.81428 1.11031
 H190 H 0.60945 0.81433 1.15884
 C191 C 1.16030 1.36808 1.15935
 C192 C 1.15115 1.37701 1.17773
 C193 C 1.13297 1.36778 1.18689
 C194 C 1.12371 1.34965 1.17769
 C195 C 1.13265 1.34051 1.15931
 C196 C 1.15105 1.34973 1.15008
 C197 C 1.17871 1.37698 1.15025
 C198 C 1.18793 1.36771 1.13209
 C199 C 1.17873 1.34956 1.12282
 C200 C 1.16032 1.34046 1.13172
 C201 C 1.15117 1.32209 1.12278
 C202 C 1.13299 1.31294 1.13202
 C203 C 1.12372 1.32214 1.15016
 H204 H 1.15825 1.39099 1.18505
 H205 H 1.10970 1.34257 1.18496
 H206 H 1.18597 1.39097 1.15741
 H207 H 1.18600 1.34241 1.10881
 H208 H 1.15828 1.31477 1.10879
 H209 H 1.10970 1.31487 1.15725
 C210 C 1.16096 0.86752 0.65993
 C211 C 1.15180 0.87645 0.67831
 C212 C 1.13363 0.86721 0.68748
 C213 C 1.12440 0.84905 0.67828
 C214 C 1.13335 0.83991 0.65991
 C215 C 1.15173 0.84916 0.65067
 C216 C 1.17935 0.87645 0.65081
 C217 C 1.18857 0.86721 0.63264
 C218 C 1.17939 0.84903 0.62338
 C219 C 1.16100 0.83990 0.63230
 C220 C 1.15186 0.82152 0.62337
 C221 C 1.13369 0.81236 0.63260
 C222 C 1.12443 0.82154 0.65076
 H223 H 1.15888 0.89046 0.68561
 H224 H 1.11038 0.84197 0.68556
 H225 H 1.18659 0.89047 0.65795
 H226 H 1.18665 0.84190 0.60936
 H227 H 1.15896 0.81423 0.60936
 H228 H 1.11041 0.81427 0.65784
 C229 C 0.34081 0.63171 0.65920
 C230 C 0.34992 0.62280 0.67760
 C231 C 0.36805 0.63207 0.68681
 C232 C 0.37729 0.65023 0.67764
 C233 C 0.36839 0.65935 0.65923
 C234 C 0.35005 0.65008 0.64995
 C235 C 0.32245 0.62278 0.65005
 C236 C 0.31327 0.63203 0.63189
 C237 C 0.32243 0.65019 0.62263
 C238 C 0.34080 0.65933 0.63157
 C239 C 0.34991 0.67773 0.62267
 C240 C 0.36804 0.68693 0.63195
 C241 C 0.37729 0.67775 0.65011
 H242 H 0.34283 0.60880 0.68490
 H243 H 0.39127 0.65735 0.68496
 H244 H 0.31515 0.60878 0.65715
 H245 H 0.31514 0.65729 0.60863
 H246 H 0.34282 0.68503 0.60866
 H247 H 0.39126 0.68507 0.65723
 C248 C 0.34019 0.13198 1.16052
 C249 C 0.34930 0.12307 1.17893
 C250 C 0.36746 0.13233 1.18814
 C251 C 0.37672 0.15049 1.17892
 C252 C 0.36781 0.15959 1.16051
 C253 C 0.34946 0.15033 1.15125
 C254 C 0.32182 0.12305 1.15137
 C255 C 0.31266 0.13229 1.13318
 C256 C 0.32186 0.15043 1.12391
 C257 C 0.34023 0.15956 1.13285
 C258 C 0.34937 0.17793 1.12391
 C259 C 0.36751 0.18712 1.13317
 C260 C 0.37674 0.17796 1.15135
 H261 H 0.34216 0.10907 1.18620
 H262 H 0.39072 0.15763 1.18618
 H263 H 0.31452 0.10906 1.15847
 H264 H 0.31458 0.15751 1.10989
 H265 H 0.34229 0.18521 1.10988
 H266 H 0.39073 0.18526 1.15845
 C267 C 0.84063 0.63172 1.15925
 C268 C 0.84979 0.62278 1.17762
 C269 C 0.86796 0.63202 1.18678
 C270 C 0.87720 0.65018 1.17759
 C271 C 0.86824 0.65933 1.15922
 C272 C 0.84986 0.65009 1.14999
 C273 C 0.82222 0.62281 1.15016
 C274 C 0.81299 0.63209 1.13203
 C275 C 0.82215 0.65026 1.12277
 C276 C 0.84056 0.65937 1.13166
 C277 C 0.84966 0.67777 1.12274
 C278 C 0.86783 0.68694 1.13197
 C279 C 0.87713 0.67773 1.15010
 H280 H 0.84271 0.60878 1.18493
 H281 H 0.89120 0.65727 1.18487
 H282 H 0.81494 0.60881 1.15726
 H283 H 0.81482 0.65737 1.10880
 H284 H 0.84253 0.68509 1.10877
 H285 H 0.89114 0.68502 1.15718
 C286 C 0.83830 0.13309 0.66156
 C287 C 0.84745 0.12415 0.67995
 C288 C 0.86566 0.13336 0.68911
 C289 C 0.87492 0.15151 0.67988
 C290 C 0.86597 0.16065 0.66150
 C291 C 0.84758 0.15143 0.65228
 C292 C 0.81991 0.12417 0.65243
 C293 C 0.81074 0.13340 0.63422
 C294 C 0.81995 0.15156 0.62496
 C295 C 0.83834 0.16067 0.63389
 C296 C 0.84752 0.17901 0.62491
 C297 C 0.86572 0.18815 0.63413
 C298 C 0.87494 0.17899 0.65231
 H299 H 0.84032 0.11014 0.68722
 H300 H 0.88897 0.15861 0.68709
 H301 H 0.81266 0.11016 0.65957
 H302 H 0.81273 0.15867 0.61091
 H303 H 0.84046 0.18628 0.61088
 H304 H 0.88898 0.18624 0.65937
 C305 C 1.36723 0.33865 0.66151
 C306 C 1.37615 0.34777 0.67992
 C307 C 1.36691 0.36597 0.68910
 C308 C 1.34876 0.37523 0.67988
 C309 C 1.33965 0.36631 0.66148
 C310 C 1.34889 0.34793 0.65223
 C311 C 1.37616 0.32027 0.65236
 C312 C 1.36695 0.31111 0.63414
 C313 C 1.34880 0.32034 0.62488
 C314 C 1.33966 0.33872 0.63383
 C315 C 1.32132 0.34790 0.62486
 C316 C 1.31215 0.36607 0.63410
 C317 C 1.32130 0.37528 0.65230
 H318 H 1.39015 0.34063 0.68718
 H319 H 1.34164 0.38927 0.68711
 H320 H 1.39017 0.31300 0.65950
 H321 H 1.34169 0.31313 0.61083
 H322 H 1.31406 0.34084 0.61082
 H323 H 1.31403 0.38930 0.65937
 C324 C 1.36784 0.83939 1.15972
 C325 C 1.37679 0.84857 1.17808
 C326 C 1.36758 0.86678 1.18720
 C327 C 1.34945 0.87604 1.17800
 C328 C 1.34029 0.86708 1.15965
 C329 C 1.34949 0.84866 1.15045
 C330 C 1.37673 0.82096 1.15065
 C331 C 1.36745 0.81172 1.13250
 C332 C 1.34929 0.82094 1.12323
 C333 C 1.34021 0.83937 1.13211
 C334 C 1.32184 0.84852 1.12317
 C335 C 1.31271 0.86673 1.13237
 C336 C 1.32192 0.87602 1.15050
 H337 H 1.39078 0.84147 1.18540
 H338 H 1.34238 0.89009 1.18525
 H339 H 1.39073 0.81370 1.15780
 H340 H 1.34213 0.81366 1.10924
 H341 H 1.31451 0.84141 1.10919
 H342 H 1.31467 0.89006 1.15755
 C343 C 0.86763 0.33920 1.15987
 C344 C 0.87660 0.34836 1.17823
 C345 C 0.86739 0.36654 1.18741
 C346 C 0.84921 0.37579 1.17826
 C347 C 0.84003 0.36684 1.15990
 C348 C 0.84925 0.34845 1.15065
 C349 C 0.87653 0.32080 1.15074
 C350 C 0.86724 0.31159 1.13259
 C351 C 0.84905 0.32079 1.12337
 C352 C 0.83995 0.33919 1.13231
 C353 C 0.82155 0.34834 1.12342
 C354 C 0.81241 0.36652 1.13267
 C355 C 0.82164 0.37578 1.15080
 H356 H 0.89062 0.34127 1.18550
 H357 H 0.84215 0.38981 1.18555
 H358 H 0.89056 0.31356 1.15785
 H359 H 0.84188 0.31353 1.10938
 H360 H 0.81422 0.34124 1.10943
 H361 H 0.81438 0.38980 1.15789
 C362 C 0.86813 0.84051 0.65939
 C363 C 0.87704 0.84965 0.67778
 C364 C 0.86778 0.86781 0.68696
 C365 C 0.84963 0.87706 0.67777
 C366 C 0.84050 0.86813 0.65938
 C367 C 0.84976 0.84976 0.65013
 C368 C 0.87705 0.82212 0.65027
 C369 C 0.86780 0.81293 0.63211
 C370 C 0.84965 0.82211 0.62285
 C371 C 0.84051 0.84050 0.63176
 C372 C 0.82213 0.84962 0.62284
 C373 C 0.81294 0.86778 0.63209
 C374 C 0.82212 0.87704 0.65024
 H375 H 0.89104 0.84255 0.68509
 H376 H 0.84253 0.89106 0.68506
 H377 H 0.89105 0.81483 0.65737
 H378 H 0.84255 0.81480 0.60885
 H379 H 0.81483 0.84252 0.60884
 H380 H 0.81482 0.89105 0.65734
 C381 C 0.63215 0.65978 0.65976
 C382 C 0.62321 0.65066 0.67815
 C383 C 0.63245 0.63250 0.68734
 C384 C 0.65062 0.62324 0.67816
 C385 C 0.65976 0.63216 0.65977
 C386 C 0.65051 0.65052 0.65051
 C387 C 0.62323 0.67817 0.65062
 C388 C 0.63249 0.68735 0.63246
 C389 C 0.65065 0.67816 0.62321
 C390 C 0.65978 0.65977 0.63214
 C391 C 0.67817 0.65063 0.62322
 C392 C 0.68734 0.63247 0.63248
 C393 C 0.67815 0.62323 0.65065
 H394 H 0.60921 0.65775 0.68544
 H395 H 0.65770 0.60923 0.68546
 H396 H 0.60923 0.68547 0.65771
 H397 H 0.65776 0.68545 0.60921
 H398 H 0.68547 0.65772 0.60922
 H399 H 0.68544 0.60922 0.65775
 C400 C 0.63214 1.16072 1.15970
 C401 C 0.62319 1.15155 1.17806
 C402 C 0.63242 1.13337 1.18722
 C403 C 0.65059 1.12413 1.17804
 C404 C 0.65975 1.13309 1.15968
 C405 C 0.65052 1.15148 1.15045
 C406 C 0.62323 1.17912 1.15059
 C407 C 0.63251 1.18835 1.13244
 C408 C 0.65070 1.17917 1.12320
 C409 C 0.65981 1.16076 1.13211
 C410 C 0.67820 1.15163 1.12319
 C411 C 0.68735 1.13344 1.13242
 C412 C 0.67814 1.12417 1.15055
 H413 H 0.60918 1.15863 1.18535
 H414 H 0.65766 1.11010 1.18531
 H415 H 0.60921 1.18637 1.15773
 H416 H 0.65785 1.18644 1.10920
 H417 H 0.68552 1.15874 1.10920
 H418 H 0.68541 1.11014 1.15763
 C419 C 0.13251 0.66129 1.16116
 C420 C 0.12358 0.65214 1.17955
 C421 C 0.13280 0.63393 1.18871
 C422 C 0.15095 0.62466 1.17947
 C423 C 0.16007 0.63361 1.16108
 C424 C 0.15085 0.65201 1.15187
 C425 C 0.12359 0.67970 1.15205
 C426 C 0.13282 0.68889 1.13385
 C427 C 0.15097 0.67966 1.12457
 C428 C 0.16009 0.66126 1.13349
 C429 C 0.17843 0.65208 1.12451
 C430 C 0.18758 0.63388 1.13372
 C431 C 0.17841 0.62465 1.15190
 H432 H 0.10958 0.65929 1.18683
 H433 H 0.15806 0.61061 1.18668
 H434 H 0.10959 0.68696 1.15920
 H435 H 0.15809 0.68689 1.11053
 H436 H 0.18571 0.65916 1.11049
 H437 H 0.18568 0.61061 1.15895
 C438 C 0.13171 1.15941 0.66039
 C439 C 0.12281 1.15031 0.67881
 C440 C 0.13208 1.13215 0.68802
 C441 C 0.15023 1.12288 0.67880
 C442 C 0.15933 1.13178 0.66038
 C443 C 0.15006 1.15013 0.65111
 C444 C 0.12278 1.17779 0.65124
 C445 C 0.13201 1.18694 0.63304
 C446 C 0.15014 1.17773 0.62377
 C447 C 0.15928 1.15936 0.63271
 C448 C 0.17765 1.15021 0.62376
 C449 C 0.18685 1.13207 0.63302
 C450 C 0.17770 1.12285 0.65122
 H451 H 0.10882 1.15747 0.68608
 H452 H 0.15739 1.10888 0.68606
 H453 H 0.10880 1.18511 0.65834
 H454 H 0.15722 1.18500 0.60974
 H455 H 0.18492 1.15729 0.60973
 H456 H 0.18501 1.10886 0.65832
 C457 C 1.36744 0.66138 0.33908
 C458 C 1.37637 0.65222 0.32070
 C459 C 1.36716 0.63400 0.31155
 C460 C 1.34902 0.62475 0.32080
 C461 C 1.33988 0.63371 0.33917
 C462 C 1.34910 0.65211 0.34838
 C463 C 1.37634 0.67979 0.34818
 C464 C 1.36710 0.68899 0.36637
 C465 C 1.34896 0.67978 0.37565
 C466 C 1.33985 0.66137 0.36675
 C467 C 1.32151 0.65220 0.37573
 C468 C 1.31237 0.63400 0.36653
 C469 C 1.32154 0.62475 0.34836
 H470 H 1.39037 0.65935 0.31341
 H471 H 1.34191 0.61069 0.31360
 H472 H 1.39034 0.68705 0.34103
 H473 H 1.34183 0.68702 0.38968
 H474 H 1.31422 0.65929 0.38975
 H475 H 1.31429 0.61071 0.34131
 C476 C 1.36769 1.16083 0.84020
 C477 C 1.37663 1.15169 0.82181
 C478 C 1.36740 1.13351 0.81264
 C479 C 1.34926 1.12425 0.82184
 C480 C 1.34012 1.13317 0.84023
 C481 C 1.34935 1.15156 0.84947
 C482 C 1.37660 1.17922 0.84933
 C483 C 1.36735 1.18841 0.86752
 C484 C 1.34919 1.17919 0.87678
 C485 C 1.34009 1.16080 0.86785
 C486 C 1.32172 1.15164 0.87679
 C487 C 1.31257 1.13346 0.86755
 C488 C 1.32177 1.12422 0.84938
 H489 H 1.39062 1.15879 0.81450
 H490 H 1.34219 1.11023 0.81456
 H491 H 1.39060 1.18648 0.84218
 H492 H 1.34205 1.18644 0.89080
 H493 H 1.31442 1.15872 0.89081
 H494 H 1.31450 1.11021 0.84230
 C495 C 0.86762 0.65983 0.84024
 C496 C 0.87656 0.65068 0.82186
 C497 C 0.86731 0.63253 0.81268
 C498 C 0.84915 0.62329 0.82187
 C499 C 0.84000 0.63223 0.84025
 C500 C 0.84925 0.65059 0.84950
 C501 C 0.87654 0.67822 0.84937
 C502 C 0.86728 0.68742 0.86752
 C503 C 0.84912 0.67825 0.87678
 C504 C 0.83999 0.65986 0.86786
 C505 C 0.82160 0.65075 0.87678
 C506 C 0.81242 0.63259 0.86754
 C507 C 0.82161 0.62332 0.84938
 H508 H 0.89057 0.65776 0.81457
 H509 H 0.84206 0.60929 0.81457
 H510 H 0.89055 0.68550 0.84228
 H511 H 0.84202 0.68556 0.89078
 H512 H 0.81430 0.65785 0.89078
 H513 H 0.81432 0.60932 0.84229
 C514 C 0.86796 1.15966 0.33967
 C515 C 0.87687 1.15054 0.32127
 C516 C 0.86760 1.13239 0.31204
 C517 C 0.84941 1.12317 0.32124
 C518 C 0.84030 1.13210 0.33964
 C519 C 0.84958 1.15043 0.34891
 C520 C 0.87690 1.17802 0.34882
 C521 C 0.86766 1.18720 0.36700
 C522 C 0.84949 1.17804 0.37624
 C523 C 0.84034 1.15969 0.36730
 C524 C 0.82194 1.15058 0.37622
 C525 C 0.81273 1.13245 0.36695
 C526 C 0.82190 1.12320 0.34877
 H527 H 0.89090 1.15765 0.31402
 H528 H 0.84226 1.10918 0.31397
 H529 H 0.89092 1.18530 0.34174
 H530 H 0.84241 1.18533 0.39026
 H531 H 0.81466 1.15768 0.39023
 H532 H 0.81458 1.10922 0.34167
 C533 C 0.63218 0.34041 0.33971
 C534 C 0.62324 0.34955 0.32133
 C535 C 0.63249 0.36770 0.31210
 C536 C 0.65068 0.37693 0.32128
 C537 C 0.65982 0.36799 0.33967
 C538 C 0.65056 0.34965 0.34894
 C539 C 0.62324 0.32205 0.34887
 C540 C 0.63250 0.31286 0.36703
 C541 C 0.65068 0.32202 0.37626
 C542 C 0.65982 0.34039 0.36731
 C543 C 0.67822 0.34950 0.37621
 C544 C 0.68741 0.36764 0.36694
 C545 C 0.67822 0.37689 0.34878
 H546 H 0.60921 0.34243 0.31409
 H547 H 0.65783 0.39093 0.31401
 H548 H 0.60923 0.31477 0.34180
 H549 H 0.65778 0.31473 0.39026
 H550 H 0.68552 0.34240 0.39022
 H551 H 0.68553 0.39088 0.34168
 C552 C 0.63199 0.84037 0.84042
 C553 C 0.62308 0.84950 0.82203
 C554 C 0.63234 0.86765 0.81284
 C555 C 0.65050 0.87689 0.82203
 C556 C 0.65962 0.86796 0.84043
 C557 C 0.65036 0.84960 0.84968
 C558 C 0.62306 0.82199 0.84955
 C559 C 0.63230 0.81280 0.86772
 C560 C 0.65046 0.82197 0.87698
 C561 C 0.65960 0.84034 0.86806
 C562 C 0.67798 0.84946 0.87699
 C563 C 0.68717 0.86761 0.86773
 C564 C 0.67800 0.87687 0.84957
 H565 H 0.60908 0.84242 0.81472
 H566 H 0.65760 0.89089 0.81474
 H567 H 0.60906 0.81471 0.84245
 H568 H 0.65754 0.81466 0.89099
 H569 H 0.68527 0.84236 0.89099
 H570 H 0.68530 0.89087 0.84247
 C571 C 0.13221 0.33910 0.84019
 C572 C 0.12329 0.34826 0.82180
 C573 C 0.13253 0.36644 0.81265
 C574 C 0.15066 0.37570 0.82187
 C575 C 0.15978 0.36676 0.84025
 C576 C 0.15055 0.34837 0.84948
 C577 C 0.12329 0.32070 0.84929
 C578 C 0.13253 0.31150 0.86748
 C579 C 0.15068 0.32070 0.87676
 C580 C 0.15979 0.33911 0.86785
 C581 C 0.17815 0.34826 0.87681
 C582 C 0.18730 0.36644 0.86759
 C583 C 0.17813 0.37570 0.84942
 H584 H 0.10931 0.34116 0.81447
 H585 H 0.15773 0.38972 0.81460
 H586 H 0.10930 0.31344 0.84213
 H587 H 0.15781 0.31345 0.89078
 H588 H 0.18543 0.34117 0.89082
 H589 H 0.18540 0.38972 0.84235
 C590 C 0.13276 0.83869 0.33889
 C591 C 0.12379 0.84783 0.32051
 C592 C 0.13298 0.86605 0.31134
 C593 C 0.15113 0.87532 0.32055
 C594 C 0.16029 0.86638 0.33892
 C595 C 0.15110 0.84797 0.34815
 C596 C 0.12387 0.82028 0.34802
 C597 C 0.13314 0.81110 0.36621
 C598 C 0.15129 0.82033 0.37545
 C599 C 0.16037 0.83873 0.36652
 C600 C 0.17872 0.84792 0.37547
 C601 C 0.18784 0.86612 0.36624
 C602 C 0.17863 0.87535 0.34808
 H603 H 0.10979 0.84068 0.31326
 H604 H 0.15821 0.88937 0.31332
 H605 H 0.10987 0.81301 0.34089
 H606 H 0.15843 0.81310 0.38948
 H607 H 0.18602 0.84085 0.38948
 H608 H 0.18587 0.88940 0.34101
 O609 O 0.97931 0.92309 0.89378
 O610 O 0.97924 0.89828 0.86882
 C611 C 0.97201 0.91565 0.87640
 C612 C 0.95460 0.92707 0.86521
 C613 C 0.94732 0.92004 0.84519
 H614 H 0.95483 0.90652 0.83745
 O615 O 1.02080 1.07704 0.89363
 O616 O 1.02090 1.10186 0.86867
 C617 C 1.02813 1.08449 0.87626
 C618 C 1.04557 1.07309 0.86510
 C619 C 1.05290 1.08013 0.84511
 H620 H 1.04539 1.09364 0.83734
 O621 O 0.89378 0.97948 0.92293
 O622 O 0.86881 0.97940 0.89813
 C623 C 0.87640 0.97217 0.91549
 C624 C 0.86522 0.95476 0.92692
 C625 C 0.84523 0.94747 0.91989
 H626 H 0.83748 0.95496 0.90636
 O627 O 1.10638 1.02077 0.92298
 O628 O 1.13135 1.02079 0.89818
 C629 C 1.12376 1.02805 0.91553
 C630 C 1.13493 1.04548 0.92694
 C631 C 1.15489 1.05283 0.91986
 H632 H 1.16264 1.04536 0.90631
 O633 O 0.92296 0.89396 0.97930
 O634 O 0.89814 0.86902 0.97927
 C635 C 0.91550 0.87658 0.97200
 C636 C 0.92688 0.86539 0.95457
 C637 C 0.91981 0.84541 0.94726
 H638 H 0.90627 0.83769 0.95477
 O639 O 1.07706 1.10621 0.97924
 O640 O 1.10188 1.13115 0.97923
 C641 C 1.08454 1.12358 0.97194
 C642 C 1.07319 1.13476 0.95447
 C643 C 1.08030 1.15472 0.94714
 H644 H 1.09383 1.16243 0.95465
 O645 O 0.92291 1.02108 0.89360
 O646 O 0.89808 1.02106 0.86866
 C647 C 0.91543 1.02835 0.87622
 C648 C 0.92676 1.04582 0.86503
 C649 C 0.91953 1.05328 0.84515
 H650 H 0.90592 1.04586 0.83748
 O651 O 1.07718 0.97918 0.89373
 O652 O 1.10201 0.97914 0.86879
 C653 C 1.08465 0.97189 0.87636
 C654 C 1.07328 0.95445 0.86517
 C655 C 1.08039 0.94710 0.84521
 H656 H 1.09394 0.95457 0.83749
 O657 O 1.02088 0.89378 0.92299
 O658 O 1.02087 0.86882 0.89817
 C659 C 1.02814 0.87638 0.91553
 C660 C 1.04556 0.86518 0.92693
 C661 C 1.05291 0.84522 0.91982
 H662 H 1.04545 0.83751 0.90625
 O663 O 0.97923 1.10634 0.92285
 O664 O 0.97926 1.13131 0.89805
 C665 C 0.97198 1.12374 0.91540
 C666 C 0.95456 1.13494 0.92680
 C667 C 0.94721 1.15489 0.91968
 H668 H 0.95467 1.16259 0.90610
 O669 O 0.89379 1.07730 0.97922
 O670 O 0.86885 1.10214 0.97922
 C671 C 0.87642 1.08479 0.97193
 C672 C 0.86523 1.07343 0.95447
 C673 C 0.84529 1.08056 0.94711
 H674 H 0.83758 1.09412 0.95459
 O675 O 1.10627 0.92285 0.97934
 O676 O 1.13122 0.89804 0.97932
 C677 C 1.12365 0.91539 0.97204
 C678 C 1.13483 0.92676 0.95458
 C679 C 1.15477 0.91964 0.94722
 H680 H 1.16249 0.90608 0.95470
 O681 O 0.97917 1.07722 0.89352
 O682 O 0.97921 1.10205 0.86858
 C683 C 0.97189 1.08472 0.87614
 C684 C 0.95439 1.07341 0.86498
 C685 C 0.94692 1.08063 0.84510
 H686 H 0.95434 1.09422 0.83740
 O687 O 1.02092 0.92297 0.89373
 O688 O 1.02091 0.89816 0.86877
 C689 C 1.02820 0.91550 0.87635
 C690 C 1.04565 0.92685 0.86517
 C691 C 1.05301 0.91974 0.84520
 H692 H 1.04554 0.90620 0.83748
 O693 O 1.10633 0.97915 0.92302
 O694 O 1.13130 0.97911 0.89822
 C695 C 1.12370 0.97185 0.91557
 C696 C 1.13485 0.95439 0.92695
 C697 C 1.15480 0.94701 0.91985
 H698 H 1.16253 0.95448 0.90630
 O699 O 0.89378 1.02109 0.92291
 O700 O 0.86881 1.02108 0.89811
 C701 C 0.87639 1.02836 0.91545
 C702 C 0.86522 1.04582 0.92683
 C703 C 0.84528 1.05320 0.91972
 H704 H 0.83756 1.04573 0.90616
 O705 O 0.92305 1.10646 0.97923
 O706 O 0.89826 1.13144 0.97922
 C707 C 0.91560 1.12385 0.97194
 C708 C 0.92697 1.13500 0.95447
 C709 C 0.91987 1.15495 0.94709
 H710 H 0.90633 1.16269 0.95458
 O711 O 1.07703 0.89367 0.97936
 O712 O 1.10184 0.86871 0.97934
 C713 C 1.08449 0.87629 0.97207
 C714 C 1.07313 0.86513 0.95461
 C715 C 1.08023 0.84518 0.94725
 H716 H 1.09376 0.83744 0.95475
 O717 O 1.07715 1.02079 0.89376
 O718 O 1.10198 1.02081 0.86881
 C719 C 1.08462 1.02807 0.87637
 C720 C 1.07322 1.04549 0.86516
 C721 C 1.08030 1.05278 0.84517
 H722 H 1.09384 1.04529 0.83745
 O723 O 0.92303 0.97946 0.89373
 O724 O 0.89822 0.97938 0.86878
 C725 C 0.91558 0.97215 0.87636
 C726 C 0.92699 0.95471 0.86519
 C727 C 0.91997 0.94743 0.84518
 H728 H 0.90646 0.95495 0.83742
 O729 O 1.02084 1.10628 0.92283
 O730 O 1.02093 1.13125 0.89802
 C731 C 1.02817 1.12365 0.91539
 C732 C 1.04561 1.13479 0.92680
 C733 C 1.05297 1.15475 0.91972
 H734 H 1.04551 1.16249 0.90617
 O735 O 0.97926 0.89386 0.92299
 O736 O 0.97920 0.86890 0.89817
 C737 C 0.97195 0.87649 0.91553
 C738 C 0.95451 0.86534 0.92694
 C739 C 0.94718 0.84537 0.91989
 H740 H 0.95468 0.83761 0.90635
 O741 O 1.10630 1.07701 0.97929
 O742 O 1.13125 1.10181 0.97929
 C743 C 1.12369 1.08446 0.97202
 C744 C 1.13489 1.07308 0.95459
 C745 C 1.15485 1.08017 0.94727
 H746 H 1.16256 1.09372 0.95477
 O747 O 0.89379 0.92323 0.97931
 O748 O 0.86883 0.89843 0.97929
 C749 C 0.87641 0.91578 0.97203
 C750 C 0.86523 0.92717 0.95459
 C751 C 0.84523 0.92013 0.94730
 H752 H 0.83749 0.90662 0.95483
 Cu753 Cu 1.00010 0.91091 0.91086
 Cu754 Cu 1.00005 0.88104 0.88098
 Cu755 Cu 1.00000 1.08923 0.91069
 Cu756 Cu 1.00009 1.11912 0.88083
 Cu757 Cu 0.91086 1.00028 0.91078
 Cu758 Cu 0.88098 1.00022 0.88092
 Cu759 Cu 1.08927 0.99998 0.91086
 Cu760 Cu 1.11917 0.99996 0.88100
 C761 C 0.94445 0.94456 0.87497
 H762 H 0.94978 0.94988 0.89053
 C763 C 0.93012 0.93021 0.83522
 C764 C 1.05571 1.05562 0.87490
 H765 H 1.05035 1.05029 0.89044
 C766 C 1.07015 1.06999 0.83518
 C767 C 0.87499 0.94464 0.94442
 H768 H 0.89054 0.94998 0.94975
 C769 C 0.83527 0.93026 0.93007
 C770 C 1.12516 1.05559 0.94445
 H771 H 1.10964 1.05021 0.94981
 C772 C 1.16482 1.07007 0.93002
 C773 C 0.94438 0.87512 0.94442
 H774 H 0.94974 0.89066 0.94977
 C775 C 0.92995 0.83544 0.93004
 C776 C 1.05570 1.12503 0.94432
 H777 H 1.05030 1.10951 0.94969
 C778 C 1.07020 1.16467 0.92988
 C779 C 0.94433 1.05587 0.87470
 H780 H 0.94981 1.05040 0.89016
 C781 C 0.92959 1.07057 0.83522
 C782 C 1.05577 0.94435 0.87491
 H783 H 1.05038 0.94974 0.89043
 C784 C 1.07027 0.92986 0.83527
 C785 C 1.05565 0.87490 0.94446
 H786 H 1.05027 0.89041 0.94985
 C787 C 1.07013 0.83526 0.92997
 C788 C 0.94446 1.12523 0.94434
 H789 H 0.94984 1.10972 0.94973
 C790 C 0.92998 1.16486 0.92981
 C791 C 0.87496 1.05592 0.94435
 H792 H 0.89047 1.05051 0.94974
 C793 C 0.83535 1.07045 0.92985
 C794 C 1.12510 0.94428 0.94447
 H795 H 1.10959 0.94968 0.94986
 C796 C 1.16472 0.92975 0.92997
 O797 O 1.02088 0.92295 1.10665
 O798 O 1.02083 0.89811 1.13159
 C799 C 1.02813 0.91545 1.12404
 C800 C 1.04559 0.92678 1.13523
 C801 C 1.05301 0.91958 1.15514
 H802 H 1.04556 0.90600 1.16282
 O803 O 0.97925 1.07714 1.10658
 O804 O 0.97923 1.10197 1.13153
 C805 C 0.97196 1.08461 1.12396
 C806 C 0.95452 1.07324 1.13514
 C807 C 0.94719 1.08032 1.15513
 H808 H 0.95469 1.09384 1.16287
 O809 O 0.89380 1.02099 1.07725
 O810 O 0.86883 1.02104 1.10205
 C811 C 0.87643 1.02829 1.08469
 C812 C 0.86527 1.04573 1.07328
 C813 C 0.84529 1.05307 1.08034
 H814 H 0.83754 1.04560 1.09388
 O815 O 1.10619 0.97914 1.07738
 O816 O 1.13119 0.97912 1.10215
 C817 C 1.12359 0.97186 1.08481
 C818 C 1.13476 0.95444 1.07338
 C819 C 1.15476 0.94712 1.08042
 H820 H 1.16250 0.95460 1.09396
 O821 O 1.07708 0.89363 1.02102
 O822 O 1.10191 0.86869 1.02105
 C823 C 1.08456 0.87627 1.02833
 C824 C 1.07322 0.86512 1.04583
 C825 C 1.08037 0.84521 1.05326
 H826 H 1.09394 0.83749 1.04580
 O827 O 0.92305 1.10644 1.02088
 O828 O 0.89825 1.13141 1.02093
 C829 C 0.91559 1.12381 1.02820
 C830 C 0.92696 1.13496 1.04568
 C831 C 0.91986 1.15491 1.05303
 H832 H 0.90633 1.16266 1.04552
 O833 O 0.92296 0.97933 1.10650
 O834 O 0.89813 0.97932 1.13145
 C835 C 0.91548 0.97204 1.12387
 C836 C 0.92684 0.95458 1.13506
 C837 C 0.91972 0.94722 1.15501
 H838 H 0.90616 0.95471 1.16273
 O839 O 1.07703 1.02078 1.10665
 O840 O 1.10188 1.02081 1.13157
 C841 C 1.08453 1.02809 1.12401
 C842 C 1.07319 1.04558 1.13517
 C843 C 1.08036 1.05299 1.15509
 H844 H 1.09392 1.04551 1.16280
 O845 O 0.97929 0.89385 1.07729
 O846 O 0.97919 0.86887 1.10208
 C847 C 0.97197 0.87647 1.08471
 C848 C 0.95456 0.86532 1.07326
 C849 C 0.94729 0.84530 1.08023
 H850 H 0.95480 0.83751 1.09374
 O851 O 1.02084 1.10631 1.07730
 O852 O 1.02087 1.13130 1.10208
 C853 C 1.02812 1.12370 1.08472
 C854 C 1.04553 1.13487 1.07328
 C855 C 1.05282 1.15487 1.08029
 H856 H 1.04534 1.16263 1.09382
 O857 O 0.89373 0.92315 1.02096
 O858 O 0.86878 0.89834 1.02098
 C859 C 0.87635 0.91569 1.02825
 C860 C 0.86518 0.92706 1.04571
 C861 C 0.84523 0.91995 1.05308
 H862 H 0.83751 0.90640 1.04559
 O863 O 1.10621 1.07699 1.02094
 O864 O 1.13117 1.10179 1.02098
 C865 C 1.12358 1.08444 1.02824
 C866 C 1.13474 1.07305 1.04570
 C867 C 1.15473 1.08010 1.05301
 H868 H 1.16247 1.09362 1.04549
 O869 O 1.02087 1.07716 1.10660
 O870 O 1.02091 1.10200 1.13153
 C871 C 1.02817 1.08464 1.12397
 C872 C 1.04563 1.07326 1.13515
 C873 C 1.05305 1.08042 1.15507
 H874 H 1.04562 1.09402 1.16276
 O875 O 0.97925 0.92302 1.10656
 O876 O 0.97914 0.89819 1.13150
 C877 C 0.97192 0.91555 1.12392
 C878 C 0.95446 0.92694 1.13508
 C879 C 0.94708 0.91984 1.15503
 H880 H 0.95454 0.90629 1.16276
 O881 O 1.10618 1.02075 1.07736
 O882 O 1.13118 1.02078 1.10213
 C883 C 1.12357 1.02803 1.08478
 C884 C 1.13474 1.04545 1.07336
 C885 C 1.15472 1.05276 1.08040
 H886 H 1.16246 1.04527 1.09394
 O887 O 0.89373 0.97937 1.07729
 O888 O 0.86876 0.97937 1.10210
 C889 C 0.87634 0.97210 1.08474
 C890 C 0.86517 0.95466 1.07335
 C891 C 0.84522 0.94731 1.08046
 H892 H 0.83750 0.95478 1.09403
 O893 O 1.07703 1.10625 1.02089
 O894 O 1.10185 1.13119 1.02092
 C895 C 1.08449 1.12363 1.02817
 C896 C 1.07310 1.13483 1.04560
 C897 C 1.08014 1.15484 1.05285
 H898 H 1.09365 1.16257 1.04531
 O899 O 0.92301 0.89399 1.02093
 O900 O 0.89821 0.86904 1.02094
 C901 C 0.91556 0.87660 1.02821
 C902 C 0.92696 0.86539 1.04561
 C903 C 0.91995 0.84536 1.05284
 H904 H 0.90644 0.83763 1.04530
 O905 O 1.07706 0.97915 1.10671
 O906 O 1.10192 0.97912 1.13163
 C907 C 1.08456 0.97185 1.12408
 C908 C 1.07322 0.95438 1.13526
 C909 C 1.08039 0.94693 1.15516
 H910 H 1.09398 0.95436 1.16287
 O911 O 0.92296 1.02095 1.10654
 O912 O 0.89813 1.02100 1.13149
 C913 C 0.91549 1.02824 1.12393
 C914 C 0.92689 1.04565 1.13512
 C915 C 0.91981 1.05298 1.15511
 H916 H 0.90626 1.04550 1.16283
 O917 O 0.97923 1.10634 1.07733
 O918 O 0.97921 1.13131 1.10213
 C919 C 0.97194 1.12373 1.08478
 C920 C 0.95452 1.13491 1.07337
 C921 C 0.94716 1.15487 1.08047
 H922 H 0.95461 1.16258 1.09404
 O923 O 1.02091 0.89376 1.07739
 O924 O 1.02086 0.86879 1.10219
 C925 C 1.02816 0.87637 1.08485
 C926 C 1.04562 0.86518 1.07349
 C927 C 1.05302 0.84527 1.08067
 H928 H 1.04558 0.83759 1.09426
 O929 O 1.10621 0.92292 1.02098
 O930 O 1.13118 0.89811 1.02101
 C931 C 1.12360 0.91547 1.02827
 C932 C 1.13477 0.92685 1.04571
 C933 C 1.15476 0.91980 1.05300
 H934 H 1.16250 0.90628 1.04547
 O935 O 0.89384 1.07723 1.02087
 O936 O 0.86890 1.10206 1.02091
 C937 C 0.87647 1.08470 1.02817
 C938 C 0.86529 1.07332 1.04562
 C939 C 0.84531 1.08041 1.05293
 H940 H 0.83758 1.09394 1.04541
 Cu941 Cu 1.00009 0.91089 1.08949
 Cu942 Cu 0.99999 0.88099 1.11934
 Cu943 Cu 1.00005 1.08925 1.08947
 Cu944 Cu 1.00005 1.11915 1.11932
 Cu945 Cu 0.91085 0.91107 1.00013
 Cu946 Cu 0.88099 0.88121 1.00012
 Cu947 Cu 1.08916 0.91075 1.00017
 Cu948 Cu 1.11904 0.88089 1.00018
 Cu949 Cu 0.91092 1.08937 1.00004
 Cu950 Cu 0.88107 1.11927 1.00007
 Cu951 Cu 1.08916 1.08913 1.00009
 Cu952 Cu 1.11904 1.11898 1.00011
 Cu953 Cu 0.91085 1.00016 1.08941
 Cu954 Cu 0.88096 1.00019 1.11927
 Cu955 Cu 1.08912 0.99995 1.08955
 Cu956 Cu 1.11905 0.99996 1.11937
 C957 C 1.05567 0.94433 1.12554
 H958 H 1.05024 0.94978 1.11005
 C959 C 1.07030 0.92964 1.16507
 C960 C 0.94439 1.05576 1.12538
 H961 H 0.94976 1.05040 1.10984
 C962 C 0.92995 1.07019 1.16507
 C963 C 0.87503 1.05584 1.05577
 H964 H 0.89057 1.05047 1.05042
 C965 C 0.83535 1.07030 1.07017
 C966 C 1.12500 0.94432 1.05588
 H967 H 1.10946 0.94967 1.05054
 C968 C 1.16472 0.92991 1.07024
 C969 C 1.05570 0.87487 1.05593
 H970 H 1.05027 0.89035 1.05048
 C971 C 1.07029 0.83532 1.07057
 C972 C 0.94443 1.12519 1.05583
 H973 H 0.94982 1.10967 1.05044
 C974 C 0.92994 1.16483 1.07031
 C975 C 0.94436 0.94446 1.12533
 H976 H 0.94976 0.94984 1.10981
 C977 C 0.92982 0.92997 1.16496
 C978 C 1.05568 1.05570 1.12544
 H979 H 1.05025 1.05027 1.10995
 C980 C 1.07031 1.07030 1.16500
 C981 C 0.94442 0.87514 1.05580
 H982 H 0.94974 0.89071 1.05051
 C983 C 0.93010 0.83536 1.07003
 C984 C 1.05564 1.12508 1.05579
 H985 H 1.05030 1.10953 1.05047
 C986 C 1.07002 1.16482 1.07008
 C987 C 0.87491 0.94456 1.05583
 H988 H 0.89042 0.94994 1.05044
 C989 C 0.83529 0.93006 1.07034
 C990 C 1.12498 1.05558 1.05585
 H991 H 1.10944 1.05023 1.05051
 C992 C 1.16468 1.06997 1.07024
 O993 O 1.07725 0.52058 0.60625
 O994 O 1.10205 0.52061 0.63122
 C995 C 1.08470 0.52787 0.62363
 C996 C 1.07332 0.54532 0.63480
 C997 C 1.08042 0.55266 0.65477
 H998 H 1.09396 0.54517 0.66250
 O999 O 0.92302 0.47898 0.60623
 O1000 O 0.89820 0.47901 0.63119
 C1001 C 0.91555 0.47172 0.62362
 C1002 C 0.92690 0.45426 0.63481
 C1003 C 0.91977 0.44689 0.65476
 H1004 H 0.90621 0.45437 0.66247
 O1005 O 1.02105 0.60614 0.57700
 O1006 O 1.02104 0.63108 0.60183
 C1007 C 1.02833 0.62352 0.58447
 C1008 C 1.04577 0.63470 0.57310
 C1009 C 1.05311 0.65466 0.58021
 H1010 H 1.04563 0.66237 0.59377
 O1011 O 0.97922 0.39345 0.57706
 O1012 O 0.97923 0.36851 0.60189
 C1013 C 0.97194 0.37608 0.58455
 C1014 C 0.95446 0.36492 0.57321
 C1015 C 0.94700 0.34504 0.58042
 H1016 H 0.95443 0.33735 0.59402
 O1017 O 1.10644 0.57695 0.52063
 O1018 O 1.13142 0.60171 0.52074
 C1019 C 1.12381 0.58436 0.52795
 C1020 C 1.13497 0.57290 0.54537
 C1021 C 1.15500 0.57988 0.55263
 H1022 H 1.16277 0.59338 0.54512
 O1023 O 0.89382 0.42272 0.52077
 O1024 O 0.86886 0.39793 0.52074
 C1025 C 0.87643 0.41527 0.52804
 C1026 C 0.86525 0.42664 0.54549
 C1027 C 0.84531 0.41953 0.55288
 H1028 H 0.83760 0.40596 0.54541
 O1029 O 0.97941 0.57689 0.60616
 O1030 O 0.97935 0.60169 0.63114
 C1031 C 0.97210 0.58434 0.62354
 C1032 C 0.95466 0.57295 0.63472
 C1033 C 0.94734 0.58002 0.65471
 H1034 H 0.95483 0.59355 0.66245
 O1035 O 1.02085 0.42271 0.60622
 O1036 O 1.02092 0.39790 0.63118
 C1037 C 1.02816 0.41526 0.62360
 C1038 C 1.04560 0.42664 0.63477
 C1039 C 1.05293 0.41956 0.65475
 H1040 H 1.04543 0.40603 0.66249
 O1041 O 1.10651 0.47893 0.57707
 O1042 O 1.13144 0.47892 0.60191
 C1043 C 1.12388 0.47164 0.58456
 C1044 C 1.13507 0.45419 0.57321
 C1045 C 1.15498 0.44678 0.58040
 H1046 H 1.16265 0.45422 0.59399
 O1047 O 0.89388 0.52061 0.57693
 O1048 O 0.86892 0.52070 0.60175
 C1049 C 0.87651 0.52793 0.58438
 C1050 C 0.86535 0.54537 0.57297
 C1051 C 0.84536 0.55268 0.58001
 H1052 H 0.83760 0.54518 0.59354
 O1053 O 0.92317 0.60615 0.52063
 O1054 O 0.89836 0.63112 0.52067
 C1055 C 0.91571 0.62353 0.52793
 C1056 C 0.92711 0.63470 0.54536
 C1057 C 0.92009 0.65471 0.55264
 H1058 H 0.90658 0.66247 0.54512
 O1059 O 1.07731 0.39361 0.52072
 O1060 O 1.10210 0.36863 0.52077
 C1061 C 1.08474 0.37622 0.52801
 C1062 C 1.07330 0.36503 0.54542
 C1063 C 1.08032 0.34503 0.55272
 H1064 H 1.09386 0.33729 0.54524
 O1065 O 0.92309 0.52060 0.60616
 O1066 O 0.89827 0.52069 0.63113
 C1067 C 0.91563 0.52792 0.62354
 C1068 C 0.92703 0.54535 0.63471
 C1069 C 0.91997 0.55266 0.65470
 H1070 H 0.90643 0.54518 0.66244
 O1071 O 1.07718 0.47895 0.60620
 O1072 O 1.10197 0.47894 0.63118
 C1073 C 1.08463 0.47168 0.62359
 C1074 C 1.07323 0.45424 0.63477
 C1075 C 1.08030 0.44691 0.65475
 H1076 H 1.09385 0.45438 0.66249
 O1077 O 1.02085 0.39355 0.57694
 O1078 O 1.02092 0.36859 0.60176
 C1079 C 1.02816 0.37618 0.58440
 C1080 C 1.04561 0.36501 0.57300
 C1081 C 1.05289 0.34501 0.58003
 H1082 H 1.04535 0.33726 0.59354
 O1083 O 0.97944 0.60613 0.57695
 O1084 O 0.97938 0.63107 0.60178
 C1085 C 0.97214 0.62350 0.58441
 C1086 C 0.95472 0.63469 0.57299
 C1087 C 0.94745 0.65470 0.58002
 H1088 H 0.95496 0.66245 0.59354
 O1089 O 0.89395 0.57694 0.52063
 O1090 O 0.86900 0.60176 0.52067
 C1091 C 0.87657 0.58440 0.52792
 C1092 C 0.86538 0.57300 0.54535
 C1093 C 0.84539 0.58006 0.55265
 H1094 H 0.83766 0.59360 0.54514
 O1095 O 1.10662 0.42271 0.52077
 O1096 O 1.13156 0.39788 0.52082
 C1097 C 1.12398 0.41523 0.52808
 C1098 C 1.13513 0.42658 0.54557
 C1099 C 1.15503 0.41942 0.55301
 H1100 H 1.16275 0.40584 0.54556
 O1101 O 0.97923 0.42271 0.60625
 O1102 O 0.97925 0.39790 0.63122
 C1103 C 0.97196 0.41525 0.62364
 C1104 C 0.95451 0.42662 0.63482
 C1105 C 0.94712 0.41950 0.65477
 H1106 H 0.95458 0.40594 0.66249
 O1107 O 1.02103 0.57691 0.60621
 O1108 O 1.02102 0.60171 0.63119
 C1109 C 1.02829 0.58436 0.62361
 C1110 C 1.04572 0.57297 0.63480
 C1111 C 1.05307 0.58006 0.65477
 H1112 H 1.04560 0.59361 0.66249
 O1113 O 0.89381 0.47899 0.57700
 O1114 O 0.86885 0.47902 0.60182
 C1115 C 0.87642 0.47173 0.58447
 C1116 C 0.86524 0.45427 0.57311
 C1117 C 0.84531 0.44691 0.58025
 H1118 H 0.83759 0.45438 0.59381
 O1119 O 1.10639 0.52055 0.57694
 O1120 O 1.13133 0.52059 0.60176
 C1121 C 1.12376 0.52784 0.58439
 C1122 C 1.13495 0.54525 0.57298
 C1123 C 1.15497 0.55249 0.57999
 H1124 H 1.16273 0.54495 0.59350
 O1125 O 0.92300 0.39347 0.52081
 O1126 O 0.89818 0.36854 0.52078
 C1127 C 0.91552 0.37610 0.52809
 C1128 C 0.92684 0.36493 0.54558
 C1129 C 0.91964 0.34505 0.55303
 H1130 H 0.90604 0.33738 0.54560
 O1131 O 1.07729 0.60624 0.52064
 O1132 O 1.10213 0.63115 0.52075
 C1133 C 1.08476 0.62359 0.52798
 C1134 C 1.07337 0.63474 0.54545
 C1135 C 1.08046 0.65469 0.55281
 H1136 H 1.09400 0.66242 0.54532
 Cu1137 Cu 1.08935 0.49975 0.58912
 Cu1138 Cu 1.11920 0.49977 0.61902
 Cu1139 Cu 0.91093 0.49979 0.58909
 Cu1140 Cu 0.88106 0.49987 0.61897
 Cu1141 Cu 1.00023 0.58903 0.58909
 Cu1142 Cu 1.00019 0.61889 0.61899
 Cu1143 Cu 1.00003 0.41059 0.58913
 Cu1144 Cu 1.00009 0.38072 0.61902
 C1145 C 1.05583 0.55545 0.62505
 H1146 H 1.05046 0.55008 0.60952
 C1147 C 1.07030 0.56992 0.66472
 C1148 C 0.94442 0.44414 0.62508
 H1149 H 0.94983 0.44954 0.60957
 C1150 C 0.92986 0.42963 0.66470
 C1151 C 1.05588 0.62498 0.55557
 H1152 H 1.05051 0.60947 0.55017
 C1153 C 1.07034 0.66461 0.57008
 C1154 C 0.94440 0.37462 0.55564
 H1155 H 0.94987 0.39008 0.55018
 C1156 C 0.92970 0.33515 0.57035
 C1157 C 1.12518 0.55544 0.55552
 H1158 H 1.10961 0.55015 0.55020
 C1159 C 1.16496 0.56968 0.56983
 C1160 C 0.87497 0.44416 0.55559
 H1161 H 0.89048 0.44955 0.55018
 C1162 C 0.83538 0.42965 0.57014
 C1163 C 0.94453 0.55547 0.62495
 H1164 H 0.94988 0.55011 0.60941
 C1165 C 0.93010 0.56989 0.66466
 C1166 C 1.05573 0.44413 0.62502
 H1167 H 1.05037 0.44950 0.60948
 C1168 C 1.07016 0.42968 0.66470
 C1169 C 1.12539 0.44411 0.55565
 H1170 H 1.10991 0.44954 0.55020
 C1171 C 1.16492 0.42950 0.57031
 C1172 C 0.87513 0.55551 0.55549
 H1173 H 0.89067 0.55015 0.55015
 C1174 C 0.83542 0.56991 0.56986
 C1175 C 0.94458 0.62493 0.55551
 H1176 H 0.94991 0.60937 0.55019
 C1177 C 0.93025 0.66467 0.56985
 C1178 C 1.05579 0.37479 0.55554
 H1179 H 1.05046 0.39035 0.55020
 C1180 C 1.07012 0.33506 0.56991
 O1181 O 1.07738 0.47919 0.39366
 O1182 O 1.10218 0.47911 0.36867
 C1183 C 1.08482 0.47188 0.37627
 C1184 C 1.07341 0.45446 0.36510
 C1185 C 1.08043 0.44718 0.34508
 H1186 H 1.09394 0.45469 0.33732
 O1187 O 0.92331 0.52067 0.39367
 O1188 O 0.89855 0.52069 0.36866
 C1189 C 0.91589 0.52794 0.37626
 C1190 C 0.92731 0.54535 0.36507
 C1191 C 0.92030 0.55260 0.34504
 H1192 H 0.90680 0.54508 0.33728
 O1193 O 0.97956 0.60627 0.42280
 O1194 O 0.97948 0.63119 0.39795
 C1195 C 0.97223 0.62362 0.41532
 C1196 C 0.95477 0.63478 0.42669
 C1197 C 0.94741 0.65474 0.41959
 H1198 H 0.95491 0.66247 0.40605
 O1199 O 1.02114 0.39353 0.42286
 O1200 O 1.02119 0.36861 0.39801
 C1201 C 1.02845 0.37617 0.41537
 C1202 C 1.04591 0.36499 0.42674
 C1203 C 1.05328 0.34506 0.41960
 H1204 H 1.04581 0.33735 0.40604
 O1205 O 1.10659 0.42281 0.47912
 O1206 O 1.13154 0.39799 0.47911
 C1207 C 1.12397 0.41535 0.47183
 C1208 C 1.13515 0.42673 0.45438
 C1209 C 1.15510 0.41962 0.44701
 H1210 H 1.16282 0.40606 0.45448
 O1211 O 0.89394 0.57699 0.47899
 O1212 O 0.86898 0.60181 0.47897
 C1213 C 0.87656 0.58446 0.47170
 C1214 C 0.86539 0.57308 0.45425
 C1215 C 0.84545 0.58019 0.44687
 H1216 H 0.83772 0.59374 0.45434
 O1217 O 1.02123 0.57708 0.39359
 O1218 O 1.02121 0.60186 0.36860
 C1219 C 1.02850 0.58454 0.37620
 C1220 C 1.04597 0.57318 0.36502
 C1221 C 1.05337 0.58033 0.34510
 H1222 H 1.04590 0.59391 0.33740
 O1223 O 0.97951 0.42277 0.39366
 O1224 O 0.97950 0.39797 0.36868
 C1225 C 0.97223 0.41531 0.37627
 C1226 C 0.95479 0.42669 0.36508
 C1227 C 0.94747 0.41959 0.34511
 H1228 H 0.95495 0.40604 0.33739
 O1229 O 1.10668 0.52078 0.42281
 O1230 O 1.13163 0.52076 0.39798
 C1231 C 1.12405 0.52805 0.41533
 C1232 C 1.13521 0.54552 0.42669
 C1233 C 1.15513 0.55293 0.41954
 H1234 H 1.16285 0.54547 0.40597
 O1235 O 0.89401 0.47908 0.42285
 O1236 O 0.86910 0.47906 0.39799
 C1237 C 0.87665 0.47180 0.41537
 C1238 C 0.86544 0.45437 0.42675
 C1239 C 0.84546 0.44709 0.41966
 H1240 H 0.83775 0.45461 0.40612
 O1241 O 1.07737 0.60633 0.47900
 O1242 O 1.10221 0.63125 0.47905
 C1243 C 1.08486 0.62370 0.47174
 C1244 C 1.07353 0.63489 0.45426
 C1245 C 1.08070 0.65479 0.44683
 H1246 H 1.09428 0.66248 0.45428
 O1247 O 0.92313 0.39355 0.47917
 O1248 O 0.89833 0.36861 0.47907
 C1249 C 0.91569 0.37618 0.47185
 C1250 C 0.92713 0.36502 0.45442
 C1251 C 0.92009 0.34504 0.44709
 H1252 H 0.90655 0.33730 0.45456
 O1253 O 0.92322 0.47905 0.39361
 O1254 O 0.89845 0.47903 0.36861
 C1255 C 0.91578 0.47176 0.37622
 C1256 C 0.92717 0.45431 0.36505
 C1257 C 0.92010 0.44696 0.34508
 H1258 H 0.90655 0.45444 0.33734
 O1259 O 1.07748 0.52081 0.39357
 O1260 O 1.10229 0.52079 0.36860
 C1261 C 1.08495 0.52808 0.37618
 C1262 C 1.07360 0.54556 0.36501
 C1263 C 1.08075 0.55297 0.34508
 H1264 H 1.09432 0.54552 0.33736
 O1265 O 0.97952 0.39359 0.42293
 O1266 O 0.97951 0.36865 0.39809
 C1267 C 0.97224 0.37621 0.41545
 C1268 C 0.95480 0.36503 0.42683
 C1269 C 0.94750 0.34505 0.41975
 H1270 H 0.95503 0.33732 0.40622
 O1271 O 1.02119 0.60634 0.42277
 O1272 O 1.02117 0.63126 0.39792
 C1273 C 1.02845 0.62371 0.41528
 C1274 C 1.04591 0.63489 0.42663
 C1275 C 1.05333 0.65479 0.41945
 H1276 H 1.04588 0.66249 0.40586
 O1277 O 0.89390 0.42276 0.47914
 O1278 O 0.86894 0.39796 0.47904
 C1279 C 0.87653 0.41532 0.47181
 C1280 C 0.86538 0.42673 0.45436
 C1281 C 0.84540 0.41971 0.44702
 H1282 H 0.83764 0.40618 0.45450
 O1283 O 1.10656 0.57708 0.47899
 O1284 O 1.13154 0.60186 0.47905
 C1285 C 1.12396 0.58453 0.47174
 C1286 C 1.13516 0.57317 0.45429
 C1287 C 1.15507 0.58032 0.44690
 H1288 H 1.16276 0.59390 0.45435
 O1289 O 1.02112 0.42284 0.39372
 O1290 O 1.02116 0.39805 0.36873
 C1291 C 1.02841 0.41541 0.37632
 C1292 C 1.04582 0.42682 0.36513
 C1293 C 1.05309 0.41980 0.34511
 H1294 H 1.04559 0.40628 0.33736
 O1295 O 0.97961 0.57699 0.39363
 O1296 O 0.97954 0.60177 0.36863
 C1297 C 0.97231 0.58441 0.37623
 C1298 C 0.95491 0.57298 0.36506
 C1299 C 0.94765 0.57997 0.34503
 H1300 H 0.95516 0.59348 0.33726
 O1301 O 0.89397 0.52070 0.42278
 O1302 O 0.86906 0.52073 0.39791
 C1303 C 0.87661 0.52800 0.41528
 C1304 C 0.86542 0.54545 0.42663
 C1305 C 0.84547 0.55280 0.41951
 H1306 H 0.83776 0.54532 0.40595
 O1307 O 1.10663 0.47915 0.42285
 O1308 O 1.13158 0.47908 0.39801
 C1309 C 1.12400 0.47183 0.41538
 C1310 C 1.13516 0.45437 0.42676
 C1311 C 1.15511 0.44701 0.41965
 H1312 H 1.16283 0.45449 0.40610
 O1313 O 1.07744 0.39354 0.47909
 O1314 O 1.10225 0.36857 0.47908
 C1315 C 1.08491 0.37616 0.47180
 C1316 C 1.07354 0.36499 0.45434
 C1317 C 1.08066 0.34505 0.44696
 H1318 H 1.09423 0.33734 0.45442
 O1319 O 0.92317 0.60618 0.47900
 O1320 O 0.89836 0.63114 0.47898
 C1321 C 0.91571 0.62356 0.47172
 C1322 C 0.92710 0.63475 0.45428
 C1323 C 0.92000 0.65471 0.44693
 H1324 H 0.90644 0.66242 0.45440
 Cu1325 Cu 1.08956 0.49999 0.41071
 Cu1326 Cu 1.11942 0.49992 0.38081
 Cu1327 Cu 0.91111 0.49987 0.41072
 Cu1328 Cu 0.88129 0.49988 0.38079
 Cu1329 Cu 1.08942 0.58917 0.49980
 Cu1330 Cu 1.11932 0.61899 0.49991
 Cu1331 Cu 1.08951 0.41066 0.49992
 Cu1332 Cu 1.11936 0.38077 0.49994
 Cu1333 Cu 0.91104 0.58908 0.49981
 Cu1334 Cu 0.88117 0.61896 0.49983
 Cu1335 Cu 0.91095 0.41061 0.49998
 Cu1336 Cu 0.88107 0.38076 0.49989
 Cu1337 Cu 1.00040 0.58919 0.41069
 Cu1338 Cu 1.00034 0.61902 0.38077
 Cu1339 Cu 1.00032 0.41066 0.41078
 Cu1340 Cu 1.00034 0.38082 0.38088
 C1341 C 1.05595 0.44430 0.37489
 H1342 H 1.05063 0.44963 0.39046
 C1343 C 1.07028 0.42997 0.33513
 C1344 C 0.94477 0.55552 0.37485
 H1345 H 0.95008 0.55021 0.39043
 C1346 C 0.93046 0.56980 0.33506
 C1347 C 0.94463 0.62502 0.44418
 H1348 H 0.95002 0.60950 0.44956
 C1349 C 0.93015 0.66466 0.42969
 C1350 C 1.05601 0.37472 0.44425
 H1351 H 1.05061 0.39023 0.44966
 C1352 C 1.07055 0.33513 0.42970
 C1353 C 1.12541 0.44425 0.44428
 H1354 H 1.10990 0.44965 0.44966
 C1355 C 1.16504 0.42975 0.42976
 C1356 C 0.87514 0.55557 0.44415
 H1357 H 0.89065 0.55018 0.44955
 C1358 C 0.83552 0.57006 0.42962
 C1359 C 1.05606 0.55564 0.37474
 H1360 H 1.05065 0.55022 0.39024
 C1361 C 1.07064 0.57025 0.33516
 C1362 C 0.94467 0.44420 0.37482
 H1363 H 0.95004 0.44958 0.39034
 C1364 C 0.93023 0.42971 0.33515
 C1365 C 1.12546 0.55562 0.44421
 H1366 H 1.10997 0.55020 0.44962
 C1367 C 1.16502 0.57022 0.42963
 C1368 C 0.87517 0.44422 0.44424
 H1369 H 0.89071 0.44955 0.44962
 C1370 C 0.83548 0.42987 0.42978
 C1371 C 1.05599 0.62518 0.44418
 H1372 H 1.05055 0.60971 0.44962
 C1373 C 1.07061 0.66471 0.42953
 C1374 C 0.94463 0.37478 0.44432
 H1375 H 0.94997 0.39031 0.44969
 C1376 C 0.93027 0.33509 0.42987
 O1377 O 0.47904 0.92315 0.39361
 O1378 O 0.47902 0.89838 0.36860
 C1379 C 0.47176 0.91572 0.37621
 C1380 C 0.45432 0.92712 0.36505
 C1381 C 0.44701 0.92007 0.34506
 H1382 H 0.45452 0.90655 0.33731
 O1383 O 0.52058 1.07732 0.39370
 O1384 O 0.52060 1.10213 0.36874
 C1385 C 0.52786 1.08477 0.37631
 C1386 C 0.54527 1.07338 0.36510
 C1387 C 0.55257 1.08047 0.34511
 H1388 H 0.54507 1.09401 0.33739
 O1389 O 0.39339 0.97939 0.42284
 O1390 O 0.36848 0.97939 0.39798
 C1391 C 0.37603 0.97210 0.41534
 C1392 C 0.36487 0.95462 0.42668
 C1393 C 0.34497 0.94720 0.41951
 H1394 H 0.33726 0.95466 0.40593
 O1395 O 0.60612 1.02100 0.42278
 O1396 O 0.63105 1.02106 0.39793
 C1397 C 0.62349 1.02829 0.41531
 C1398 C 0.63469 1.04570 0.42671
 C1399 C 0.65467 1.05300 0.41964
 H1400 H 0.66239 1.04550 0.40608
 O1401 O 0.42269 0.89386 0.47894
 O1402 O 0.39790 0.86889 0.47896
 C1403 C 0.41523 0.87648 0.47166
 C1404 C 0.42660 0.86531 0.45418
 C1405 C 0.41946 0.84540 0.44676
 H1406 H 0.40588 0.83770 0.45421
 O1407 O 0.57704 1.10646 0.47918
 O1408 O 0.60183 1.13143 0.47909
 C1409 C 0.58447 1.12384 0.47186
 C1410 C 0.57304 1.13501 0.45444
 C1411 C 0.58009 1.15499 0.44711
 H1412 H 0.59363 1.16272 0.45457
 O1413 O 0.42268 1.02102 0.39370
 O1414 O 0.39790 1.02108 0.36870
 C1415 C 0.41524 1.02833 0.37631
 C1416 C 0.42664 1.04577 0.36515
 C1417 C 0.41959 1.05309 0.34516
 H1418 H 0.40607 1.04560 0.33740
 O1419 O 0.57691 0.97939 0.39354
 O1420 O 0.60169 0.97940 0.36855
 C1421 C 0.58436 0.97212 0.37614
 C1422 C 0.57299 0.95466 0.36497
 C1423 C 0.58011 0.94730 0.34502
 H1424 H 0.59367 0.95477 0.33729
 O1425 O 0.52065 0.89387 0.42277
 O1426 O 0.52068 0.86894 0.39792
 C1427 C 0.52795 0.87650 0.41529
 C1428 C 0.54541 0.86532 0.42665
 C1429 C 0.55276 0.84537 0.41955
 H1430 H 0.54527 0.83764 0.40600
 O1431 O 0.47898 1.10657 0.42295
 O1432 O 0.47896 1.13152 0.39813
 C1433 C 0.47170 1.12395 0.41549
 C1434 C 0.45426 1.13514 0.42688
 C1435 C 0.44691 1.15510 0.41978
 H1436 H 0.45440 1.16282 0.40623
 O1437 O 0.39347 1.07738 0.47914
 O1438 O 0.36850 1.10218 0.47913
 C1439 C 0.37609 1.08484 0.47185
 C1440 C 0.36493 1.07347 0.45438
 C1441 C 0.34500 1.08061 0.44697
 H1442 H 0.33729 1.09419 0.45442
 O1443 O 0.60620 0.92311 0.47894
 O1444 O 0.63117 0.89830 0.47892
 C1445 C 0.62358 0.91565 0.47165
 C1446 C 0.63475 0.92703 0.45420
 C1447 C 0.65471 0.91994 0.44684
 H1448 H 0.66244 0.90639 0.45432
 O1449 O 0.47896 1.07732 0.39376
 O1450 O 0.47893 1.10213 0.36879
 C1451 C 0.47167 1.08478 0.37637
 C1452 C 0.45425 1.07339 0.36518
 C1453 C 0.44694 1.08046 0.34519
 H1454 H 0.45444 1.09400 0.33746
 O1455 O 0.52066 0.92309 0.39355
 O1456 O 0.52069 0.89831 0.36855
 C1457 C 0.52795 0.91564 0.37615
 C1458 C 0.54540 0.92703 0.36498
 C1459 C 0.55277 0.91992 0.34502
 H1460 H 0.54531 0.90636 0.33730
 O1461 O 0.60616 0.97939 0.42272
 O1462 O 0.63109 0.97939 0.39787
 C1463 C 0.62354 0.97211 0.41523
 C1464 C 0.63473 0.95466 0.42659
 C1465 C 0.65469 0.94733 0.41948
 H1466 H 0.66241 0.95482 0.40593
 O1467 O 0.39345 1.02102 0.42291
 O1468 O 0.36853 1.02108 0.39806
 C1469 C 0.37609 1.02834 0.41542
 C1470 C 0.36493 1.04581 0.42678
 C1471 C 0.34501 1.05320 0.41963
 H1472 H 0.33730 1.04572 0.40607
 O1473 O 0.42269 1.10658 0.47921
 O1474 O 0.39787 1.13153 0.47920
 C1475 C 0.41523 1.12396 0.47193
 C1476 C 0.42662 1.13514 0.45450
 C1477 C 0.41953 1.15510 0.44715
 H1478 H 0.40598 1.16283 0.45462
 O1479 O 0.57699 0.89391 0.47896
 O1480 O 0.60180 0.86895 0.47895
 C1481 C 0.58445 0.87653 0.47168
 C1482 C 0.57306 0.86534 0.45425
 C1483 C 0.58016 0.84539 0.44689
 H1484 H 0.59372 0.83767 0.45435
 O1485 O 0.57688 1.02101 0.39358
 O1486 O 0.60166 1.02108 0.36858
 C1487 C 0.58431 1.02832 0.37619
 C1488 C 0.57290 1.04576 0.36504
 C1489 C 0.57994 1.05310 0.34505
 H1490 H 0.59347 1.04561 0.33729
 O1491 O 0.42269 0.97940 0.39367
 O1492 O 0.39791 0.97941 0.36868
 C1493 C 0.41526 0.97214 0.37627
 C1494 C 0.42667 0.95472 0.36507
 C1495 C 0.41961 0.94741 0.34508
 H1496 H 0.40606 0.95489 0.33735
 O1497 O 0.52061 1.10649 0.42297
 O1498 O 0.52063 1.13145 0.39815
 C1499 C 0.52790 1.12386 0.41550
 C1500 C 0.54536 1.13502 0.42687
 C1501 C 0.55266 1.15500 0.41979
 H1502 H 0.54514 1.16275 0.40627
 O1503 O 0.47902 0.89384 0.42273
 O1504 O 0.47900 0.86893 0.39787
 C1505 C 0.47173 0.87648 0.41523
 C1506 C 0.45425 0.86531 0.42658
 C1507 C 0.44686 0.84540 0.41941
 H1508 H 0.45433 0.83770 0.40584
 O1509 O 0.60624 1.07722 0.47917
 O1510 O 0.63118 1.10204 0.47908
 C1511 C 0.62360 1.08468 0.47184
 C1512 C 0.63475 1.07329 0.45438
 C1513 C 0.65473 1.08033 0.44705
 H1514 H 0.66249 1.09384 0.45455
 O1515 O 0.39347 0.92308 0.47900
 O1516 O 0.36854 0.89825 0.47902
 C1517 C 0.37609 0.91561 0.47173
 C1518 C 0.36490 0.92697 0.45428
 C1519 C 0.34500 0.91980 0.44686
 H1520 H 0.33731 0.90621 0.45430
 Cu1521 Cu 0.49985 0.91096 0.41066
 Cu1522 Cu 0.49985 0.88114 0.38073
 Cu1523 Cu 0.49978 1.08944 0.41084
 Cu1524 Cu 0.49978 1.11931 0.38095
 Cu1525 Cu 0.41053 1.00020 0.41077
 Cu1526 Cu 0.38071 1.00024 0.38085
 Cu1527 Cu 0.58903 1.00020 0.41064
 Cu1528 Cu 0.61887 1.00024 0.38072
 C1529 C 0.44417 0.94460 0.37482
 H1530 H 0.44952 0.94994 0.39037
 C1531 C 0.42977 0.93019 0.33511
 C1532 C 0.55541 1.05588 0.37483
 H1533 H 0.55008 1.05051 0.39037
 C1534 C 0.56979 1.07034 0.33512
 C1535 C 0.37459 0.94453 0.44421
 H1536 H 0.39007 0.94996 0.44965
 C1537 C 0.33507 0.92990 0.42958
 C1538 C 0.62496 1.05583 0.44423
 H1539 H 0.60943 1.05049 0.44960
 C1540 C 0.66465 1.07019 0.42979
 C1541 C 0.44414 0.87503 0.44411
 H1542 H 0.44956 0.89052 0.44954
 C1543 C 0.42957 0.83548 0.42949
 C1544 C 0.55553 1.12526 0.44434
 H1545 H 0.55019 1.10972 0.44971
 C1546 C 0.56991 1.16495 0.42990
 C1547 C 0.44412 1.05590 0.37493
 H1548 H 0.44946 1.05053 0.39047
 C1549 C 0.42973 1.07033 0.33522
 C1550 C 0.55549 0.94455 0.37472
 H1551 H 0.55009 0.94994 0.39023
 C1552 C 0.57002 0.93004 0.33508
 C1553 C 0.55553 0.87507 0.44415
 H1554 H 0.55015 0.89059 0.44954
 C1555 C 0.57002 0.83544 0.42965
 C1556 C 0.44413 1.12540 0.44438
 H1557 H 0.44951 1.10988 0.44976
 C1558 C 0.42966 1.16505 0.42990
 C1559 C 0.37465 1.05593 0.44430
 H1560 H 0.39015 1.05051 0.44972
 C1561 C 0.33508 1.07049 0.42971
 C1562 C 0.62500 0.94454 0.44410
 H1563 H 0.60948 0.94991 0.44949
 C1564 C 0.66464 0.93008 0.42959
 O1565 O 0.52070 0.92320 0.60612
 O1566 O 0.52075 0.89838 0.63108
 C1567 C 0.52800 0.91574 0.62350
 C1568 C 0.54542 0.92714 0.63468
 C1569 C 0.55271 0.92009 0.65469
 H1570 H 0.54520 0.90657 0.66243
 O1571 O 0.47908 1.07728 0.60619
 O1572 O 0.47905 1.10206 0.63118
 C1573 C 0.47180 1.08471 0.62359
 C1574 C 0.45436 1.07332 0.63476
 C1575 C 0.44703 1.08039 0.65474
 H1576 H 0.45452 1.09393 0.66248
 O1577 O 0.39356 1.02094 0.57701
 O1578 O 0.36862 1.02096 0.60184
 C1579 C 0.37618 1.02821 0.58447
 C1580 C 0.36497 1.04563 0.57308
 C1581 C 0.34497 1.05288 0.58013
 H1582 H 0.33723 1.04535 0.59365
 O1583 O 0.60623 0.97949 0.57687
 O1584 O 0.63116 0.97940 0.60171
 C1585 C 0.62359 0.97217 0.58433
 C1586 C 0.63476 0.95475 0.57291
 C1587 C 0.65477 0.94746 0.57994
 H1588 H 0.66252 0.95497 0.59345
 O1589 O 0.57699 0.89393 0.52060
 O1590 O 0.60180 0.86898 0.52064
 C1591 C 0.58445 0.87656 0.52790
 C1592 C 0.57306 0.86538 0.54534
 C1593 C 0.58011 0.84539 0.55264
 H1594 H 0.59364 0.83765 0.54513
 O1595 O 0.42264 1.10656 0.52085
 O1596 O 0.39781 1.13149 0.52091
 C1597 C 0.41516 1.12392 0.52817
 C1598 C 0.42653 1.13507 0.54564
 C1599 C 0.41935 1.15497 0.55311
 H1600 H 0.40575 1.16266 0.54570
 O1601 O 0.42281 0.97934 0.60625
 O1602 O 0.39801 0.97932 0.63123
 C1603 C 0.41535 0.97206 0.62364
 C1604 C 0.42674 0.95462 0.63482
 C1605 C 0.41963 0.94725 0.65477
 H1606 H 0.40608 0.95472 0.66250
 O1607 O 0.57702 1.02109 0.60614
 O1608 O 0.60180 1.02105 0.63113
 C1609 C 0.58446 1.02835 0.62354
 C1610 C 0.57308 1.04579 0.63473
 C1611 C 0.58020 1.05313 0.65469
 H1612 H 0.59376 1.04565 0.66240
 O1613 O 0.47911 0.89398 0.57689
 O1614 O 0.47911 0.86901 0.60169
 C1615 C 0.47184 0.87659 0.58434
 C1616 C 0.45445 0.86539 0.57292
 C1617 C 0.44722 0.84536 0.57993
 H1618 H 0.45475 0.83761 0.59345
 O1619 O 0.52067 1.10656 0.57699
 O1620 O 0.52070 1.13149 0.60183
 C1621 C 0.52797 1.12393 0.58447
 C1622 C 0.54543 1.13509 0.57310
 C1623 C 0.55280 1.15503 0.58022
 H1624 H 0.54532 1.16276 0.59377
 O1625 O 0.39354 0.92308 0.52065
 O1626 O 0.36862 0.89825 0.52073
 C1627 C 0.37619 0.91560 0.52798
 C1628 C 0.36504 0.92697 0.54547
 C1629 C 0.34511 0.91985 0.55286
 H1630 H 0.33738 0.90630 0.54538
 O1631 O 0.60637 1.07735 0.52082
 O1632 O 0.63129 1.10218 0.52080
 C1633 C 0.62374 1.08484 0.52810
 C1634 C 0.63491 1.07351 0.54559
 C1635 C 0.65478 1.08071 0.55308
 H1636 H 0.66246 1.09432 0.54566
 O1637 O 0.52071 1.07734 0.60622
 O1638 O 0.52072 1.10213 0.63121
 C1639 C 0.52800 1.08479 0.62361
 C1640 C 0.54546 1.07341 0.63477
 C1641 C 0.55283 1.08051 0.65473
 H1642 H 0.54536 1.09406 0.66246
 O1643 O 0.47908 0.92311 0.60621
 O1644 O 0.47908 0.89828 0.63116
 C1645 C 0.47180 0.91563 0.62360
 C1646 C 0.45436 0.92699 0.63479
 C1647 C 0.44700 0.91987 0.65475
 H1648 H 0.45448 0.90631 0.66247
 O1649 O 0.60634 1.02112 0.57702
 O1650 O 0.63126 1.02108 0.60187
 C1651 C 0.62371 1.02839 0.58452
 C1652 C 0.63489 1.04587 0.57321
 C1653 C 0.65476 1.05332 0.58044
 H1654 H 0.66242 1.04588 0.59405
 O1655 O 0.39360 0.97932 0.57702
 O1656 O 0.36866 0.97929 0.60186
 C1657 C 0.37623 0.97202 0.58449
 C1658 C 0.36506 0.95457 0.57312
 C1659 C 0.34513 0.94720 0.58025
 H1660 H 0.33742 0.95466 0.59383
 O1661 O 0.57705 1.10646 0.52081
 O1662 O 0.60183 1.13144 0.52078
 C1663 C 0.58449 1.12386 0.52807
 C1664 C 0.57310 1.13504 0.54551
 C1665 C 0.58021 1.15498 0.55287
 H1666 H 0.59378 1.16268 0.54541
 O1667 O 0.42281 0.89391 0.52058
 O1668 O 0.39803 0.86893 0.52065
 C1669 C 0.41539 0.87652 0.52788
 C1670 C 0.42682 0.86535 0.54530
 C1671 C 0.41985 0.84533 0.55256
 H1672 H 0.40636 0.83755 0.54504
 O1673 O 0.57703 0.97948 0.60613
 O1674 O 0.60182 0.97939 0.63112
 C1675 C 0.58446 0.97216 0.62352
 C1676 C 0.57305 0.95474 0.63469
 C1677 C 0.58008 0.94743 0.65469
 H1678 H 0.59360 0.95493 0.66245
 O1679 O 0.42281 1.02097 0.60621
 O1680 O 0.39801 1.02100 0.63119
 C1681 C 0.41536 1.02826 0.62359
 C1682 C 0.42674 1.04570 0.63477
 C1683 C 0.41966 1.05304 0.65475
 H1684 H 0.40612 1.04556 0.66249
 O1685 O 0.47903 1.10656 0.57703
 O1686 O 0.47900 1.13148 0.60188
 C1687 C 0.47172 1.12392 0.58453
 C1688 C 0.45422 1.13507 0.57321
 C1689 C 0.44679 1.15497 0.58041
 H1690 H 0.45426 1.16266 0.59399
 O1691 O 0.52072 0.89395 0.57693
 O1692 O 0.52077 0.86898 0.60175
 C1693 C 0.52802 0.87657 0.58438
 C1694 C 0.54545 0.86539 0.57298
 C1695 C 0.55275 0.84540 0.58003
 H1696 H 0.54525 0.83766 0.59356
 O1697 O 0.60618 0.92316 0.52058
 O1698 O 0.63114 0.89836 0.52061
 C1699 C 0.62356 0.91571 0.52787
 C1700 C 0.63475 0.92712 0.54529
 C1701 C 0.65475 0.92009 0.55256
 H1702 H 0.66249 0.90656 0.54505
 O1703 O 0.39349 1.07729 0.52078
 O1704 O 0.36851 1.10208 0.52083
 C1705 C 0.37610 1.08472 0.52807
 C1706 C 0.36493 1.07328 0.54549
 C1707 C 0.34492 1.08029 0.55279
 H1708 H 0.33716 1.09381 0.54530
 Cu1709 Cu 0.49990 0.91105 0.58906
 Cu1710 Cu 0.49993 0.88116 0.61892
 Cu1711 Cu 0.49988 1.08946 0.58911
 Cu1712 Cu 0.49987 1.11929 0.61903
 Cu1713 Cu 0.41061 0.91097 0.49978
 Cu1714 Cu 0.38077 0.88108 0.49985
 Cu1715 Cu 0.58910 0.91101 0.49977
 Cu1716 Cu 0.61898 0.88115 0.49978
 Cu1717 Cu 0.41056 1.08947 0.49999
 Cu1718 Cu 0.38067 1.11932 0.50002
 Cu1719 Cu 0.58920 1.08938 0.50000
 Cu1720 Cu 0.61903 1.11927 0.49993
 Cu1721 Cu 0.41068 1.00014 0.58913
 Cu1722 Cu 0.38083 1.00015 0.61903
 Cu1723 Cu 0.58917 1.00030 0.58905
 Cu1724 Cu 0.61901 1.00021 0.61896
 C1725 C 0.55557 0.94461 0.62491
 H1726 H 0.55024 0.94995 0.60936
 C1727 C 0.56992 0.93022 0.66465
 C1728 C 0.44424 1.05582 0.62501
 H1729 H 0.44960 1.05046 0.60947
 C1730 C 0.42980 1.07027 0.66470
 C1731 C 0.37472 1.05580 0.55561
 H1732 H 0.39028 1.05049 0.55026
 C1733 C 0.33498 1.07009 0.57000
 C1734 C 0.62499 0.94460 0.55544
 H1735 H 0.60943 0.94994 0.55012
 C1736 C 0.66472 0.93024 0.56977
 C1737 C 0.55558 0.87515 0.55549
 H1738 H 0.55023 0.89069 0.55014
 C1739 C 0.56997 0.83544 0.56987
 C1740 C 0.44411 1.12537 0.55568
 H1741 H 0.44955 1.10989 0.55022
 C1742 C 0.42947 1.16487 0.57038
 C1743 C 0.44425 0.94451 0.62507
 H1744 H 0.44963 0.94991 0.60955
 C1745 C 0.42975 0.92999 0.66470
 C1746 C 0.55557 1.05590 0.62501
 H1747 H 0.55017 1.05053 0.60949
 C1748 C 0.57009 1.07038 0.66465
 C1749 C 0.44427 0.87515 0.55545
 H1750 H 0.44956 0.89072 0.55014
 C1751 C 0.43004 0.83537 0.56976
 C1752 C 0.55556 1.12533 0.55560
 H1753 H 0.55016 1.10983 0.55021
 C1754 C 0.57008 1.16494 0.57012
 C1755 C 0.37478 0.94447 0.55558
 H1756 H 0.39029 0.94987 0.55017
 C1757 C 0.33519 0.92995 0.57014
 C1758 C 0.62521 1.05594 0.55564
 H1759 H 0.60975 1.05048 0.55016
 C1760 C 0.66466 1.07063 0.57040
 O1761 O 0.47896 0.42274 0.89384
 O1762 O 0.47897 0.39790 0.86890
 C1763 C 0.47167 0.41525 0.87647
 C1764 C 0.45418 0.42657 0.86530
 C1765 C 0.44676 0.41938 0.84540
 H1766 H 0.45423 0.40581 0.83770
 O1767 O 0.52048 0.57701 0.89397
 O1768 O 0.52048 0.60180 0.86899
 C1769 C 0.52775 0.58446 0.87658
 C1770 C 0.54519 0.57307 0.86539
 C1771 C 0.55250 0.58014 0.84540
 H1772 H 0.54500 0.59367 0.83766
 O1773 O 0.39346 0.47897 0.92315
 O1774 O 0.36850 0.47894 0.89835
 C1775 C 0.37608 0.47168 0.91570
 C1776 C 0.36492 0.45425 0.92712
 C1777 C 0.34496 0.44690 0.92005
 H1778 H 0.33722 0.45436 0.90650
 O1779 O 0.60595 0.52073 0.92317
 O1780 O 0.63091 0.52079 0.89835
 C1781 C 0.62332 0.52804 0.91571
 C1782 C 0.63447 0.54549 0.92710
 C1783 C 0.65445 0.55280 0.92004
 H1784 H 0.66220 0.54530 0.90652
 O1785 O 0.42281 0.39358 0.97947
 O1786 O 0.39802 0.36862 0.97949
 C1787 C 0.41535 0.37620 0.97220
 C1788 C 0.42672 0.36502 0.95473
 C1789 C 0.41962 0.34507 0.94738
 H1790 H 0.40607 0.33735 0.95488
 O1791 O 0.57665 0.60629 0.97948
 O1792 O 0.60145 0.63124 0.97944
 C1793 C 0.58409 0.62366 0.97219
 C1794 C 0.57269 0.63484 0.95475
 C1795 C 0.57973 0.65483 0.94744
 H1796 H 0.59325 0.66257 0.95494
 O1797 O 0.42269 0.52054 0.89391
 O1798 O 0.39789 0.52058 0.86894
 C1799 C 0.41524 0.52783 0.87652
 C1800 C 0.42665 0.54525 0.86534
 C1801 C 0.41966 0.55249 0.84530
 H1802 H 0.40618 0.54495 0.83752
 O1803 O 0.57680 0.47909 0.89392
 O1804 O 0.60162 0.47911 0.86895
 C1805 C 0.58428 0.47182 0.87653
 C1806 C 0.57293 0.45437 0.86533
 C1807 C 0.58007 0.44703 0.84538
 H1808 H 0.59362 0.45452 0.83767
 O1809 O 0.52063 0.39361 0.92310
 O1810 O 0.52070 0.36864 0.89830
 C1811 C 0.52795 0.37624 0.91565
 C1812 C 0.54540 0.36509 0.92706
 C1813 C 0.55280 0.34515 0.91997
 H1814 H 0.54535 0.33741 0.90640
 O1815 O 0.47880 0.60619 0.92316
 O1816 O 0.47874 0.63112 0.89832
 C1817 C 0.47148 0.62355 0.91568
 C1818 C 0.45402 0.63471 0.92706
 C1819 C 0.44666 0.65467 0.91996
 H1820 H 0.45413 0.66239 0.90641
 O1821 O 0.39338 0.57687 0.97946
 O1822 O 0.36841 0.60167 0.97942
 C1823 C 0.37600 0.58432 0.97215
 C1824 C 0.36486 0.57294 0.95468
 C1825 C 0.34491 0.58005 0.94731
 H1826 H 0.33718 0.59360 0.95478
 O1827 O 0.60610 0.42289 0.97945
 O1828 O 0.63107 0.39809 0.97944
 C1829 C 0.62348 0.41543 0.97216
 C1830 C 0.63465 0.42680 0.95469
 C1831 C 0.65459 0.41969 0.94730
 H1832 H 0.66233 0.40614 0.95478
 O1833 O 0.47887 0.57692 0.89398
 O1834 O 0.47882 0.60171 0.86899
 C1835 C 0.47159 0.58435 0.87658
 C1836 C 0.45421 0.57291 0.86537
 C1837 C 0.44698 0.57990 0.84533
 H1838 H 0.45449 0.59341 0.83758
 O1839 O 0.52059 0.42280 0.89384
 O1840 O 0.52066 0.39797 0.86889
 C1841 C 0.52790 0.41533 0.87646
 C1842 C 0.54534 0.42673 0.86529
 C1843 C 0.55274 0.41963 0.84534
 H1844 H 0.54529 0.40607 0.83760
 O1845 O 0.60602 0.47911 0.92314
 O1846 O 0.63098 0.47912 0.89832
 C1847 C 0.62341 0.47184 0.91567
 C1848 C 0.63460 0.45441 0.92705
 C1849 C 0.65455 0.44706 0.91992
 H1850 H 0.66225 0.45453 0.90635
 O1851 O 0.39345 0.52058 0.92311
 O1852 O 0.36849 0.52062 0.89829
 C1853 C 0.37607 0.52789 0.91565
 C1854 C 0.36489 0.54534 0.92703
 C1855 C 0.34495 0.55270 0.91991
 H1856 H 0.33724 0.54524 0.90634
 O1857 O 0.42252 0.60615 0.97946
 O1858 O 0.39769 0.63108 0.97942
 C1859 C 0.41505 0.62352 0.97216
 C1860 C 0.42641 0.63470 0.95470
 C1861 C 0.41930 0.65465 0.94735
 H1862 H 0.40575 0.66237 0.95484
 O1863 O 0.57687 0.39370 0.97945
 O1864 O 0.60170 0.36875 0.97945
 C1865 C 0.58435 0.37632 0.97217
 C1866 C 0.57299 0.36513 0.95472
 C1867 C 0.58013 0.34519 0.94737
 H1868 H 0.59368 0.33748 0.95487
 O1869 O 0.57675 0.52071 0.89393
 O1870 O 0.60157 0.52077 0.86897
 C1871 C 0.58421 0.52802 0.87655
 C1872 C 0.57281 0.54545 0.86537
 C1873 C 0.57986 0.55276 0.84538
 H1874 H 0.59339 0.54526 0.83763
 O1875 O 0.42262 0.47892 0.89386
 O1876 O 0.39780 0.47889 0.86891
 C1877 C 0.41515 0.47162 0.87648
 C1878 C 0.42651 0.45415 0.86531
 C1879 C 0.41934 0.44670 0.84540
 H1880 H 0.40574 0.45413 0.83770
 O1881 O 0.52041 0.60623 0.92319
 O1882 O 0.52041 0.63117 0.89835
 C1883 C 0.52767 0.62361 0.91572
 C1884 C 0.54508 0.63482 0.92712
 C1885 C 0.55237 0.65480 0.92005
 H1886 H 0.54487 0.66253 0.90651
 O1887 O 0.47902 0.39358 0.92311
 O1888 O 0.47903 0.36859 0.89832
 C1889 C 0.47175 0.37618 0.91567
 C1890 C 0.45432 0.36501 0.92707
 C1891 C 0.44696 0.34506 0.91998
 H1892 H 0.45443 0.33734 0.90641
 O1893 O 0.60587 0.57707 0.97945
 O1894 O 0.63081 0.60188 0.97940
 C1895 C 0.62324 0.58452 0.97215
 C1896 C 0.63443 0.57313 0.95471
 C1897 C 0.65441 0.58019 0.94740
 H1898 H 0.66213 0.59373 0.95489
 O1899 O 0.39356 0.42278 0.97948
 O1900 O 0.36863 0.39795 0.97951
 C1901 C 0.37618 0.41530 0.97222
 C1902 C 0.36498 0.42666 0.95478
 C1903 C 0.34501 0.41956 0.94746
 H1904 H 0.33731 0.40601 0.95497
 Cu1905 Cu 0.49980 0.41067 0.91095
 Cu1906 Cu 0.49985 0.38077 0.88110
 Cu1907 Cu 0.49964 0.58911 0.91107
 Cu1908 Cu 0.49961 0.61895 0.88116
 Cu1909 Cu 0.41054 0.49975 0.91099
 Cu1910 Cu 0.38067 0.49976 0.88112
 Cu1911 Cu 0.58889 0.49991 0.91103
 Cu1912 Cu 0.61877 0.49995 0.88114
 C1913 C 0.44407 0.44410 0.87502
 H1914 H 0.44951 0.44955 0.89050
 C1915 C 0.42945 0.42943 0.83548
 C1916 C 0.55532 0.55558 0.87514
 H1917 H 0.54998 0.55023 0.89069
 C1918 C 0.56972 0.56999 0.83543
 C1919 C 0.37469 0.44416 0.94463
 H1920 H 0.39022 0.44954 0.94998
 C1921 C 0.33504 0.42966 0.93022
 C1922 C 0.62469 0.55563 0.94458
 H1923 H 0.60916 0.55027 0.94994
 C1924 C 0.66438 0.57004 0.93018
 C1925 C 0.44422 0.37475 0.94460
 H1926 H 0.44961 0.39027 0.94998
 C1927 C 0.42972 0.33513 0.93012
 C1928 C 0.55522 0.62507 0.94462
 H1929 H 0.54988 0.60953 0.94997
 C1930 C 0.56959 0.66477 0.93020
 C1931 C 0.44407 0.55543 0.87514
 H1932 H 0.44937 0.55013 0.89072
 C1933 C 0.42982 0.56970 0.83533
 C1934 C 0.55542 0.44424 0.87505
 H1935 H 0.55001 0.44962 0.89057
 C1936 C 0.56999 0.42977 0.83542
 C1937 C 0.55548 0.37485 0.94458
 H1938 H 0.55007 0.39036 0.94996
 C1939 C 0.57005 0.33523 0.93011
 C1940 C 0.44392 0.62497 0.94458
 H1941 H 0.44932 0.60945 0.94996
 C1942 C 0.42941 0.66460 0.93010
 C1943 C 0.37461 0.55544 0.94457
 H1944 H 0.39012 0.55005 0.94997
 C1945 C 0.33500 0.56995 0.93003
 C1946 C 0.62489 0.44430 0.94458
 H1947 H 0.60938 0.44969 0.94999
 C1948 C 0.66451 0.42981 0.93003
 O1949 O 0.52061 0.42295 1.10678
 O1950 O 0.52066 0.39813 1.13174
 C1951 C 0.52791 0.41549 1.12417
 C1952 C 0.54533 0.42688 1.13534
 C1953 C 0.55268 0.41981 1.15532
 H1954 H 0.54521 0.40626 1.16306
 O1955 O 0.47885 0.57706 1.10673
 O1956 O 0.47880 0.60190 1.13166
 C1957 C 0.47155 0.58454 1.12411
 C1958 C 0.45409 0.57319 1.13529
 C1959 C 0.44669 0.58036 1.15521
 H1960 H 0.45414 0.59393 1.16290
 O1961 O 0.39342 0.52078 1.07753
 O1962 O 0.36845 0.52077 1.10233
 C1963 C 0.37603 0.52805 1.08498
 C1964 C 0.36483 0.54548 1.07358
 C1965 C 0.34490 0.55287 1.08072
 H1966 H 0.33721 0.54544 1.09432
 O1967 O 0.60601 0.47917 1.07746
 O1968 O 0.63099 0.47917 1.10225
 C1969 C 0.62340 0.47189 1.08491
 C1970 C 0.63458 0.45445 1.07351
 C1971 C 0.65455 0.44711 1.08059
 H1972 H 0.66228 0.45458 1.09415
 O1973 O 0.57687 0.39372 1.02110
 O1974 O 0.60169 0.36877 1.02115
 C1975 C 0.58434 0.37635 1.02841
 C1976 C 0.57297 0.36519 1.04588
 C1977 C 0.58005 0.34522 1.05320
 H1978 H 0.59357 0.33748 1.04569
 O1979 O 0.42256 0.60612 1.02110
 O1980 O 0.39773 0.63106 1.02111
 C1981 C 0.41509 0.62350 1.02838
 C1982 C 0.42646 0.63469 1.04582
 C1983 C 0.41938 0.65467 1.05313
 H1984 H 0.40584 0.66239 1.04563
 O1985 O 0.42269 0.47919 1.10676
 O1986 O 0.39785 0.47913 1.13170
 C1987 C 0.41522 0.47188 1.12414
 C1988 C 0.42661 0.45444 1.13531
 C1989 C 0.41950 0.44708 1.15527
 H1990 H 0.40594 0.45455 1.16299
 O1991 O 0.57680 0.52082 1.10667
 O1992 O 0.60164 0.52088 1.13161
 C1993 C 0.58428 0.52813 1.12404
 C1994 C 0.57290 0.54559 1.13521
 C1995 C 0.58003 0.55298 1.15515
 H1996 H 0.59361 0.54553 1.16286
 O1997 O 0.47905 0.39373 1.07751
 O1998 O 0.47904 0.36876 1.10232
 C1999 C 0.47178 0.37634 1.08496
 C2000 C 0.45439 0.36514 1.07354
 C2001 C 0.44711 0.34514 1.08060
 H2002 H 0.45461 0.33742 1.09414
 O2003 O 0.52045 0.60627 1.07747
 O2004 O 0.52045 0.63125 1.10226
 C2005 C 0.52773 0.62366 1.08491
 C2006 C 0.54517 0.63483 1.07352
 C2007 C 0.55252 0.65478 1.08062
 H2008 H 0.54504 0.66250 1.09418
 O2009 O 0.39363 0.42284 1.02113
 O2010 O 0.36870 0.39802 1.02120
 C2011 C 0.37626 0.41539 1.02844
 C2012 C 0.36507 0.42679 1.04587
 C2013 C 0.34508 0.41974 1.05315
 H2014 H 0.33735 0.40621 1.04564
 O2015 O 0.60589 0.57705 1.02108
 O2016 O 0.63085 0.60185 1.02108
 C2017 C 0.62328 0.58450 1.02835
 C2018 C 0.63449 0.57309 1.04575
 C2019 C 0.65452 0.58009 1.05297
 H2020 H 0.66227 0.59359 1.04543
 O2021 O 0.52048 0.57705 1.10669
 O2022 O 0.52049 0.60188 1.13163
 C2023 C 0.52777 0.58453 1.12406
 C2024 C 0.54525 0.57318 1.13523
 C2025 C 0.55263 0.58032 1.15517
 H2026 H 0.54515 0.59388 1.16289
 O2027 O 0.47899 0.42293 1.10676
 O2028 O 0.47898 0.39811 1.13172
 C2029 C 0.47170 0.41546 1.12414
 C2030 C 0.45424 0.42682 1.13532
 C2031 C 0.44687 0.41971 1.15527
 H2032 H 0.45435 0.40616 1.16300
 O2033 O 0.60598 0.52078 1.07740
 O2034 O 0.63097 0.52083 1.10219
 C2035 C 0.62337 0.52807 1.08483
 C2036 C 0.63454 0.54548 1.07339
 C2037 C 0.65457 0.55273 1.08036
 H2038 H 0.66235 0.54521 1.09386
 O2039 O 0.39354 0.47917 1.07748
 O2040 O 0.36855 0.47910 1.10227
 C2041 C 0.37616 0.47185 1.08492
 C2042 C 0.36502 0.45441 1.07350
 C2043 C 0.34502 0.44711 1.08053
 H2044 H 0.33726 0.45461 1.09405
 O2045 O 0.57669 0.60629 1.02112
 O2046 O 0.60149 0.63123 1.02114
 C2047 C 0.58415 0.62366 1.02842
 C2048 C 0.57278 0.63483 1.04588
 C2049 C 0.57988 0.65478 1.05324
 H2050 H 0.59343 0.66250 1.04575
 O2051 O 0.42285 0.39362 1.02112
 O2052 O 0.39806 0.36865 1.02119
 C2053 C 0.41541 0.37624 1.02843
 C2054 C 0.42681 0.36509 1.04588
 C2055 C 0.41978 0.34509 1.05319
 H2056 H 0.40628 0.33733 1.04567
 O2057 O 0.57683 0.47920 1.10672
 O2058 O 0.60166 0.47921 1.13166
 C2059 C 0.58430 0.47193 1.12411
 C2060 C 0.57294 0.45451 1.13532
 C2061 C 0.58003 0.44718 1.15529
 H2062 H 0.59358 0.45467 1.16301
 O2063 O 0.42262 0.52082 1.10677
 O2064 O 0.39779 0.52081 1.13172
 C2065 C 0.41513 0.52810 1.12415
 C2066 C 0.42648 0.54558 1.13532
 C2067 C 0.41932 0.55300 1.15524
 H2068 H 0.40574 0.54556 1.16295
 O2069 O 0.47883 0.60620 1.07743
 O2070 O 0.47878 0.63118 1.10221
 C2071 C 0.47153 0.62358 1.08486
 C2072 C 0.45408 0.63473 1.07346
 C2073 C 0.44674 0.65471 1.08051
 H2074 H 0.45423 0.66246 1.09404
 O2075 O 0.52066 0.39376 1.07752
 O2076 O 0.52070 0.36880 1.10234
 C2077 C 0.52796 0.37639 1.08498
 C2078 C 0.54539 0.36521 1.07356
 C2079 C 0.55273 0.34524 1.08064
 H2080 H 0.54526 0.33751 1.09420
 O2081 O 0.60606 0.42294 1.02109
 O2082 O 0.63102 0.39814 1.02113
 C2083 C 0.62344 0.41549 1.02839
 C2084 C 0.63460 0.42686 1.04585
 C2085 C 0.65457 0.41978 1.05318
 H2086 H 0.66230 0.40625 1.04567
 O2087 O 0.39333 0.57693 1.02111
 O2088 O 0.36836 0.60173 1.02113
 C2089 C 0.37595 0.58439 1.02841
 C2090 C 0.36479 0.57304 1.04589
 C2091 C 0.34487 0.58018 1.05328
 H2092 H 0.33714 0.59373 1.04580
 Cu2093 Cu 0.49983 0.41083 1.08966
 Cu2094 Cu 0.49985 0.38095 1.11953
 Cu2095 Cu 0.49966 0.58915 1.08960
 Cu2096 Cu 0.49963 0.61906 1.11944
 Cu2097 Cu 0.41070 0.41069 1.00029
 Cu2098 Cu 0.38085 0.38081 1.00036
 Cu2099 Cu 0.58899 0.41080 1.00027
 Cu2100 Cu 0.61887 0.38093 1.00030
 Cu2101 Cu 0.41043 0.58903 1.00028
 Cu2102 Cu 0.38054 0.61888 1.00027
 Cu2103 Cu 0.58878 0.58919 1.00029
 Cu2104 Cu 0.61865 0.61905 1.00026
 Cu2105 Cu 0.41056 0.50000 1.08965
 Cu2106 Cu 0.38066 0.49995 1.11951
 Cu2107 Cu 0.58892 0.49999 1.08958
 Cu2108 Cu 0.61882 0.50003 1.11943
 C2109 C 0.55544 0.44438 1.12558
 H2110 H 0.55006 0.44974 1.11005
 C2111 C 0.56992 0.42994 1.16525
 C2112 C 0.44401 0.55565 1.12558
 H2113 H 0.44944 0.55022 1.11009
 C2114 C 0.42941 0.57028 1.16515
 C2115 C 0.37454 0.55554 1.05602
 H2116 H 0.39004 0.55013 1.05061
 C2117 C 0.33496 0.57011 1.07059
 C2118 C 0.62484 0.44435 1.05599
 H2119 H 0.60932 0.44972 1.05062
 C2120 C 0.66451 0.42988 1.07043
 C2121 C 0.55549 0.37495 1.05604
 H2122 H 0.55012 0.39048 1.05068
 C2123 C 0.56995 0.33528 1.07047
 C2124 C 0.44396 0.62496 1.05597
 H2125 H 0.44933 0.60942 1.05062
 C2126 C 0.42950 0.66464 1.07036
 C2127 C 0.44413 0.44433 1.12557
 H2128 H 0.44952 0.44973 1.11006
 C2129 C 0.42961 0.42983 1.16521
 C2130 C 0.55536 0.55567 1.12549
 H2131 H 0.54996 0.55026 1.10999
 C2132 C 0.56991 0.57023 1.16509
 C2133 C 0.44426 0.37488 1.05604
 H2134 H 0.44958 0.39042 1.05069
 C2135 C 0.42993 0.33516 1.07043
 C2136 C 0.55527 0.62509 1.05600
 H2137 H 0.54989 0.60958 1.05061
 C2138 C 0.56976 0.66472 1.07050
 C2139 C 0.37481 0.44427 1.05602
 H2140 H 0.39036 0.44962 1.05069
 C2141 C 0.33509 0.42989 1.07037
 C2142 C 0.62473 0.55563 1.05593
 H2143 H 0.60916 0.55033 1.05065
 C2144 C 0.66452 0.56992 1.07016
 C2145 C 1.10913 1.10848 1.25708
 C2146 C 1.11838 1.11908 1.23703
 C2147 C 1.11031 1.11117 1.21846
 C2148 C 1.09375 1.09343 1.22175
 C2149 C 1.07678 1.10322 1.23645
 C2150 C 1.08486 1.11113 1.25504
 C2151 C 1.11319 1.08451 1.25405
 C2152 C 1.10511 1.07660 1.23547
 C2153 C 1.11790 1.11708 1.27701
 C2154 C 1.12525 1.12434 1.29324
 C2155 C 1.08514 1.08499 1.20168
 C2156 C 1.07827 1.07821 1.18504
 H2157 H 1.13025 1.13169 1.23738
 H2158 H 1.11525 1.11701 1.20292
 H2159 H 1.05990 1.10387 1.23262
 H2160 H 1.07491 1.11856 1.26712
 H2161 H 1.12166 1.07463 1.26549
 H2162 H 1.10665 1.05994 1.23099
 C2163 C 1.10866 0.60792 0.75705
 C2164 C 1.09218 0.59008 0.76025
 C2165 C 1.08419 0.58218 0.74161
 C2166 C 1.09347 0.59291 0.72163
 C2167 C 1.11773 0.59037 0.72374
 C2168 C 1.12572 0.59826 0.74236
 C2169 C 1.09726 0.62472 0.74336
 C2170 C 1.08927 0.61684 0.72473
 C2171 C 1.11734 0.61650 0.77703
 C2172 C 1.12463 0.62374 0.79329
 C2173 C 1.08496 0.58450 0.70151
 C2174 C 1.07817 0.57776 0.68482
 H2175 H 1.08723 0.58417 0.77577
 H2176 H 1.07240 0.56951 0.74116
 H2177 H 1.12777 0.58302 0.71167
 H2178 H 1.14259 0.59766 0.74625
 H2179 H 1.09559 0.64136 0.74789
 H2180 H 1.08076 0.62671 0.71332
 C2181 C 0.60871 1.10825 0.75693
 C2182 C 0.61805 1.11887 0.73693
 C2183 C 0.61001 1.11102 0.71832
 C2184 C 0.59340 1.09332 0.72152
 C2185 C 0.57640 1.10312 0.73620
 C2186 C 0.58445 1.11097 0.75482
 C2187 C 0.61272 1.08429 0.75386
 C2188 C 0.60467 1.07643 0.73524
 C2189 C 0.61744 1.11679 0.77690
 C2190 C 0.62477 1.12401 0.79316
 C2191 C 0.58483 1.08495 0.70141
 C2192 C 0.57799 1.07823 0.68474
 H2193 H 0.62995 1.13145 0.73735
 H2194 H 0.61501 1.11688 0.70280
 H2195 H 0.55954 1.10382 0.73231
 H2196 H 0.57448 1.11840 0.76689
 H2197 H 0.62113 1.07436 0.76530
 H2198 H 0.60618 1.05977 0.73073
 C2199 C 0.60838 0.60850 1.25727
 C2200 C 0.61769 0.61909 1.23725
 C2201 C 0.60969 0.61115 1.21866
 C2202 C 0.59315 0.59339 1.22190
 C2203 C 0.57611 0.60316 1.23654
 C2204 C 0.58411 0.61111 1.25514
 C2205 C 0.61249 0.58454 1.25428
 C2206 C 0.60449 0.57659 1.23568
 C2207 C 0.61707 0.61713 1.27722
 C2208 C 0.62438 0.62441 1.29346
 C2209 C 0.58463 0.58492 1.20181
 C2210 C 0.57782 0.57813 1.18515
 H2211 H 0.62953 0.63173 1.23763
 H2212 H 0.61468 0.61699 1.20312
 H2213 H 0.55924 0.60378 1.23264
 H2214 H 0.57410 0.61854 1.26718
 H2215 H 0.62094 0.57468 1.26576
 H2216 H 0.60607 0.55993 1.23122
 C2217 C 0.89162 0.89167 1.25725
 C2218 C 0.89646 0.91567 1.25814
 C2219 C 0.90440 0.92364 1.23952
 C2220 C 0.90671 0.90683 1.22184
 C2221 C 0.88444 0.89691 1.21956
 C2222 C 0.87651 0.88894 1.23817
 C2223 C 0.91263 0.88119 1.25026
 C2224 C 0.92056 0.88916 1.23164
 C2225 C 0.88300 0.88301 1.27722
 C2226 C 0.87573 0.87572 1.29348
 C2227 C 0.91516 0.91532 1.20173
 C2228 C 0.92194 0.92210 1.18505
 H2229 H 0.89388 0.92552 1.27216
 H2230 H 0.90862 0.94032 1.23758
 H2231 H 0.87566 0.89621 1.20463
 H2232 H 0.86094 0.88142 1.23918
 H2233 H 0.92058 0.86863 1.25916
 H2234 H 0.93531 0.88343 1.22459
 C2235 C 0.89139 0.39150 0.75696
 C2236 C 0.88747 0.41550 0.75403
 C2237 C 0.89548 0.42342 0.73541
 C2238 C 0.90661 0.40656 0.72156
 C2239 C 0.88991 0.38894 0.71835
 C2240 C 0.88191 0.38103 0.73695
 C2241 C 0.91562 0.38869 0.75473
 C2242 C 0.92363 0.39660 0.73611
 C2243 C 0.88270 0.38290 0.77693
 C2244 C 0.87541 0.37565 0.79319
 C2245 C 0.91514 0.41499 0.70145
 C2246 C 0.92195 0.42176 0.68478
 H2247 H 0.87916 0.42541 0.76556
 H2248 H 0.89402 0.44011 0.73099
 H2249 H 0.88481 0.38318 0.70282
 H2250 H 0.86996 0.36850 0.73736
 H2251 H 0.92561 0.38115 0.76671
 H2252 H 0.94047 0.39585 0.73214
 C2253 C 0.39127 0.89193 0.75698
 C2254 C 0.39123 0.87573 0.73861
 C2255 C 0.39925 0.88362 0.72000
 C2256 C 0.40652 0.90695 0.72158
 C2257 C 0.42253 0.90737 0.74012
 C2258 C 0.41451 0.89947 0.75874
 C2259 C 0.37893 0.91128 0.74841
 C2260 C 0.38695 0.91917 0.72980
 C2261 C 0.38256 0.88334 0.77695
 C2262 C 0.37524 0.87610 0.79320
 C2263 C 0.41506 0.91537 0.70147
 C2264 C 0.42187 0.92212 0.68479
 H2265 H 0.38543 0.85947 0.74009
 H2266 H 0.40031 0.87413 0.70555
 H2267 H 0.43873 0.91335 0.73875
 H2268 H 0.42383 0.89869 0.77333
 H2269 H 0.36512 0.91817 0.75628
 H2270 H 0.38000 0.93284 0.72172
 C2271 C 0.39112 0.39181 1.25750
 C2272 C 0.37625 0.40782 1.24642
 C2273 C 0.38427 0.41571 1.22781
 C2274 C 0.40637 0.40681 1.22209
 C2275 C 0.40361 0.38248 1.22205
 C2276 C 0.39559 0.37460 1.24066
 C2277 C 0.41236 0.40369 1.26024
 C2278 C 0.42038 0.41158 1.24162
 C2279 C 0.38241 0.38323 1.27747
 C2280 C 0.37509 0.37599 1.29373
 C2281 C 0.41491 0.41522 1.20198
 C2282 C 0.42172 0.42197 1.18530
 H2283 H 0.36080 0.41256 1.25266
 H2284 H 0.37569 0.42721 1.21810
 H2285 H 0.40762 0.37233 1.20859
 H2286 H 0.39273 0.35769 1.24314
 H2287 H 0.42038 0.40573 1.27546
 H2288 H 0.43528 0.42038 1.24088
 C2289 C 0.89040 1.10898 0.74336
 C2290 C 0.90725 1.09152 0.73994
 C2291 C 0.91541 1.08356 0.75848
 C2292 C 0.90593 1.09385 0.77860
 C2293 C 0.88172 1.09085 0.77646
 C2294 C 0.87356 1.09880 0.75794
 C2295 C 0.90145 1.12585 0.75726
 C2296 C 0.90962 1.11790 0.77578
 C2297 C 0.88155 1.11763 0.72348
 C2298 C 0.87414 1.12492 0.70728
 C2299 C 0.91463 1.08536 0.79862
 C2300 C 0.92157 1.07854 0.81522
 H2301 H 0.91231 1.08590 0.72435
 H2302 H 0.92748 1.07113 0.75877
 H2303 H 0.87185 1.08314 0.78844
 H2304 H 0.85670 1.09791 0.75405
 H2305 H 0.90277 1.14257 0.75292
 H2306 H 0.91792 1.12780 0.78731
 C2307 C 0.89262 0.60747 0.24239
 C2308 C 0.88358 0.61856 0.26227
 C2309 C 0.89145 0.61073 0.28096
 C2310 C 0.90760 0.59256 0.27794
 C2311 C 0.92482 0.60175 0.26313
 C2312 C 0.91693 0.60959 0.24442
 C2313 C 0.88801 0.58365 0.24575
 C2314 C 0.89589 0.57581 0.26445
 C2315 C 0.88404 0.61599 0.22235
 C2316 C 0.87681 0.62320 0.20604
 C2317 C 0.91599 0.58422 0.29814
 C2318 C 0.92269 0.57755 0.31489
 H2319 H 0.87200 0.63144 0.26173
 H2320 H 0.88662 0.61690 0.29642
 H2321 H 0.94170 0.60206 0.26698
 H2322 H 0.92706 0.61662 0.23225
 H2323 H 0.87933 0.57381 0.23444
 H2324 H 0.89397 0.55925 0.26916
 C2325 C 0.39168 1.10821 0.24270
 C2326 C 0.38754 1.12271 0.26201
 C2327 C 0.39546 1.11484 0.28067
 C2328 C 0.40675 1.09325 0.27820
 C2329 C 0.42386 1.09693 0.26106
 C2330 C 0.41593 1.10480 0.24239
 C2331 C 0.38228 1.08648 0.24896
 C2332 C 0.39021 1.07861 0.26763
 C2333 C 0.38307 1.11677 0.22269
 C2334 C 0.37582 1.12399 0.20639
 C2335 C 0.41518 1.08486 0.29837
 C2336 C 0.42192 1.07814 0.31509
 H2337 H 0.37914 1.13783 0.26111
 H2338 H 0.39384 1.12323 0.29575
 H2339 H 0.44071 1.09364 0.26338
 H2340 H 0.42599 1.10825 0.22871
 H2341 H 0.37046 1.07801 0.23955
 H2342 H 0.38517 1.06340 0.27421
 C2343 C 0.39243 0.60749 0.74253
 C2344 C 0.38496 0.61993 0.76226
 C2345 C 0.39272 0.61206 0.78098
 C2346 C 0.40720 0.59251 0.77814
 C2347 C 0.42466 0.59974 0.76255
 C2348 C 0.41689 0.60762 0.74381
 C2349 C 0.38596 0.58427 0.74683
 C2350 C 0.39373 0.57639 0.76556
 C2351 C 0.38398 0.61605 0.72245
 C2352 C 0.37683 0.62326 0.70611
 C2353 C 0.41547 0.58413 0.79837
 C2354 C 0.42210 0.57744 0.81514
 H2355 H 0.37449 0.63372 0.76160
 H2356 H 0.38890 0.61911 0.79635
 H2357 H 0.44162 0.59875 0.76592
 H2358 H 0.42720 0.61338 0.73113
 H2359 H 0.37615 0.57484 0.73611
 H2360 H 0.39058 0.56021 0.77089
 C2361 C 1.10872 0.89187 0.74294
 C2362 C 1.10964 0.87596 0.76155
 C2363 C 1.10164 0.88384 0.78016
 C2364 C 1.09348 0.90686 0.77837
 C2365 C 1.07718 0.90643 0.76009
 C2366 C 1.08519 0.89854 0.74145
 C2367 C 1.12047 0.91178 0.75102
 C2368 C 1.11246 0.91966 0.76965
 C2369 C 1.11742 0.88330 0.72297
 C2370 C 1.12473 0.87607 0.70671
 C2371 C 1.08495 0.91526 0.79849
 C2372 C 1.07815 0.92200 0.81517
 H2373 H 1.11602 0.85991 0.76021
 H2374 H 1.10116 0.87453 0.79477
 H2375 H 1.06079 0.91184 0.76164
 H2376 H 1.07567 0.89720 0.72704
 H2377 H 1.13389 0.91905 0.74283
 H2378 H 1.11902 0.93369 0.77741
 C2379 C 1.10827 0.39231 0.24249
 C2380 C 1.10934 0.37636 0.26106
 C2381 C 1.10143 0.38418 0.27974
 C2382 C 1.09321 0.40719 0.27804
 C2383 C 1.07680 0.40676 0.25985
 C2384 C 1.08472 0.39893 0.24115
 C2385 C 1.12002 0.41222 0.25055
 C2386 C 1.11211 0.42005 0.26924
 C2387 C 1.11687 0.38380 0.22246
 C2388 C 1.12412 0.37660 0.20616
 C2389 C 1.08479 0.41552 0.29822
 C2390 C 1.07807 0.42220 0.31496
 H2391 H 1.11574 0.36032 0.25965
 H2392 H 1.10105 0.37484 0.29433
 H2393 H 1.06041 0.41213 0.26151
 H2394 H 1.07512 0.39760 0.22679
 H2395 H 1.13338 0.41955 0.24229
 H2396 H 1.11868 0.43407 0.27699
 C2397 C 0.60837 0.89170 0.24285
 C2398 C 0.59984 0.91458 0.24085
 C2399 C 0.59187 0.92256 0.25946
 C2400 C 0.59321 0.90687 0.27824
 C2401 C 0.61683 0.90057 0.27959
 C2402 C 0.62480 0.89260 0.26099
 C2403 C 0.58966 0.87872 0.25188
 C2404 C 0.58169 0.88669 0.27048
 C2405 C 0.61703 0.88303 0.22290
 C2406 C 0.62431 0.87573 0.20665
 C2407 C 0.58471 0.91536 0.29833
 C2408 C 0.57791 0.92215 0.31500
 H2409 H 0.60005 0.92370 0.22612
 H2410 H 0.58524 0.93852 0.26068
 H2411 H 0.62647 0.90223 0.29389
 H2412 H 0.64126 0.88744 0.25937
 H2413 H 0.58324 0.86452 0.24432
 H2414 H 0.56844 0.87932 0.27886
 C2415 C 0.60873 0.39195 0.74315
 C2416 C 0.60023 0.41485 0.74126
 C2417 C 0.59215 0.42269 0.75989
 C2418 C 0.59337 0.40686 0.77855
 C2419 C 0.61699 0.40054 0.77999
 C2420 C 0.62506 0.39270 0.76139
 C2421 C 0.58997 0.37891 0.75197
 C2422 C 0.58189 0.38675 0.77059
 C2423 C 0.61749 0.38341 0.72319
 C2424 C 0.62484 0.37619 0.70693
 C2425 C 0.58477 0.41522 0.79866
 C2426 C 0.57791 0.42194 0.81533
 H2427 H 0.60053 0.42408 0.72660
 H2428 H 0.58553 0.43865 0.76118
 H2429 H 0.62654 0.40210 0.79437
 H2430 H 0.64152 0.38755 0.75982
 H2431 H 0.58357 0.36477 0.74427
 H2432 H 0.56858 0.37933 0.77883
 C2433 C 1.25714 1.10772 1.10841
 C2434 C 1.25905 1.08492 1.09963
 C2435 C 1.24038 1.07708 1.09168
 C2436 C 1.22167 1.09281 1.09328
 C2437 C 1.22940 1.11308 1.08193
 C2438 C 1.24805 1.12092 1.08988
 C2439 C 1.23910 1.10669 1.12494
 C2440 C 1.22046 1.09885 1.11699
 C2441 C 1.27714 1.11625 1.11705
 C2442 C 1.29342 1.12345 1.12432
 C2443 C 1.20152 1.08446 1.08482
 C2444 C 1.18481 1.07776 1.07806
 H2445 H 1.27375 1.07576 1.09966
 H2446 H 1.23909 1.06120 1.08489
 H2447 H 1.22098 1.12061 1.06879
 H2448 H 1.25561 1.13517 1.08355
 H2449 H 1.24082 1.11167 1.14145
 H2450 H 1.20621 1.09712 1.12670
 C2451 C 1.25765 0.60742 0.60739
 C2452 C 1.24021 0.60490 0.62441
 C2453 C 1.22152 0.59703 0.61661
 C2454 C 1.22208 0.59246 0.59255
 C2455 C 1.24114 0.57739 0.58938
 C2456 C 1.25985 0.58526 0.59719
 C2457 C 1.24759 0.62146 0.59001
 C2458 C 1.22889 0.61359 0.58221
 C2459 C 1.27769 0.61598 0.61589
 C2460 C 1.29400 0.62320 0.62307
 C2461 C 1.20189 0.58408 0.58423
 C2462 C 1.18513 0.57741 0.57758
 H2463 H 1.24236 0.60892 0.64113
 H2464 H 1.20766 0.59431 0.62664
 H2465 H 1.24003 0.56191 0.58168
 H2466 H 1.27478 0.57653 0.59618
 H2467 H 1.25456 0.63627 0.58433
 H2468 H 1.21983 0.62165 0.56983
 C2469 C 0.75649 1.10904 0.60954
 C2470 C 0.73712 1.11236 0.62417
 C2471 C 0.71861 1.10440 0.61603
 C2472 C 0.72125 1.09391 0.59405
 C2473 C 0.73868 1.07697 0.59715
 C2474 C 0.75721 1.08493 0.60530
 C2475 C 0.75008 1.11907 0.58812
 C2476 C 0.73155 1.11111 0.57998
 C2477 C 0.77637 1.11769 0.61837
 C2478 C 0.79257 1.12498 0.62576
 C2479 C 0.70124 1.08542 0.58536
 C2480 C 0.68465 1.07860 0.57843
 H2481 H 0.73788 1.12025 0.63958
 H2482 H 0.70351 1.10549 0.62446
 H2483 H 0.73664 1.06021 0.59329
 H2484 H 0.77105 1.07498 0.60842
 H2485 H 0.75928 1.13133 0.58006
 H2486 H 0.72489 1.11656 0.56493
 C2487 C 0.75730 0.60758 1.10762
 C2488 C 0.76011 0.58779 1.09344
 C2489 C 0.74138 0.57995 1.08565
 C2490 C 0.72170 0.59267 1.09280
 C2491 C 0.72623 0.61576 1.08600
 C2492 C 0.74495 0.62359 1.09379
 C2493 C 0.74152 0.60073 1.12506
 C2494 C 0.72281 0.59290 1.11727
 C2495 C 0.77737 0.61610 1.11609
 C2496 C 0.79370 0.62329 1.12325
 C2497 C 0.70148 0.58432 1.08450
 C2498 C 0.68471 0.57766 1.07787
 H2499 H 0.77545 0.58058 1.08985
 H2500 H 0.74066 0.56602 1.07537
 H2501 H 0.71568 0.62512 1.07594
 H2502 H 0.75043 0.63967 1.09041
 H2503 H 0.74477 0.60192 1.14204
 H2504 H 0.71003 0.58738 1.12758
 C2505 C 1.25697 0.89153 0.89162
 C2506 C 1.24155 0.87426 0.89958
 C2507 C 1.22295 0.88219 0.90755
 C2508 C 1.22158 0.90663 0.90680
 C2509 C 1.22549 0.91249 0.88333
 C2510 C 1.24410 0.90456 0.87536
 C2511 C 1.26011 0.90653 0.91074
 C2512 C 1.24149 0.91448 0.91873
 C2513 C 1.27693 0.88290 0.88295
 C2514 C 1.29318 0.87563 0.87566
 C2515 C 1.20148 0.91509 0.91530
 C2516 C 1.18481 0.92187 0.92209
 H2517 H 1.24495 0.85728 0.89901
 H2518 H 1.21041 0.87201 0.91382
 H2519 H 1.21461 0.92205 0.87382
 H2520 H 1.24916 0.90732 0.85901
 H2521 H 1.27557 0.91056 0.91742
 H2522 H 1.24100 0.92531 0.93224
 C2523 C 1.25731 0.39176 0.39125
 C2524 C 1.25591 0.41621 0.39058
 C2525 C 1.23729 0.42409 0.39860
 C2526 C 1.22190 0.40674 0.40651
 C2527 C 1.23481 0.39369 0.42273
 C2528 C 1.25343 0.38581 0.41471
 C2529 C 1.23741 0.38393 0.37933
 C2530 C 1.21880 0.39181 0.38735
 C2531 C 1.27728 0.38319 0.38254
 C2532 C 1.29354 0.37596 0.37523
 C2533 C 1.20180 0.41514 0.41505
 C2534 C 1.18512 0.42188 0.42187
 H2535 H 1.26844 0.42642 0.38436
 H2536 H 1.23386 0.44106 0.39926
 H2537 H 1.22978 0.39089 0.43908
 H2538 H 1.26435 0.37626 0.42418
 H2539 H 1.23788 0.37315 0.36577
 H2540 H 1.20334 0.38777 0.38066
 C2541 C 0.75700 0.89201 0.39139
 C2542 C 0.74159 0.87471 0.39932
 C2543 C 0.72296 0.88263 0.40726
 C2544 C 0.72156 0.90706 0.40649
 C2545 C 0.72550 0.91292 0.38303
 C2546 C 0.74413 0.90501 0.37509
 C2547 C 0.76008 0.90702 0.41050
 C2548 C 0.74144 0.91494 0.41845
 C2549 C 0.77698 0.88340 0.38275
 C2550 C 0.79325 0.87615 0.37548
 C2551 C 0.70144 0.91550 0.41496
 C2552 C 0.68474 0.92224 0.42173
 H2553 H 0.74501 0.85774 0.39877
 H2554 H 0.71043 0.87243 0.41351
 H2555 H 0.71463 0.92246 0.37350
 H2556 H 0.74921 0.90777 0.35875
 H2557 H 0.77553 0.91108 0.41720
 H2558 H 0.74091 0.92578 0.43196
 C2559 C 0.75675 0.39191 0.89137
 C2560 C 0.75539 0.41636 0.89084
 C2561 C 0.73677 0.42422 0.89890
 C2562 C 0.72136 0.40685 0.90669
 C2563 C 0.73423 0.39368 0.92284
 C2564 C 0.75285 0.38582 0.91478
 C2565 C 0.73685 0.38418 0.87938
 C2566 C 0.71825 0.39203 0.88743
 C2567 C 0.77671 0.38336 0.88262
 C2568 C 0.79297 0.37614 0.87529
 C2569 C 0.70125 0.41523 0.91527
 C2570 C 0.68458 0.42196 0.92211
 H2571 H 0.76794 0.42659 0.88469
 H2572 H 0.73337 0.44119 0.89966
 H2573 H 0.72918 0.39079 0.93917
 H2574 H 0.76375 0.37620 0.92421
 H2575 H 0.73732 0.37348 0.86576
 H2576 H 0.70278 0.38806 0.88071
 C2577 C 0.74303 0.89193 1.10868
 C2578 C 0.74219 0.89662 1.08464
 C2579 C 0.76081 0.90454 1.07666
 C2580 C 0.77843 0.90699 1.09351
 C2581 C 0.78073 0.88479 1.10358
 C2582 C 0.76213 0.87687 1.11155
 C2583 C 0.74994 0.91301 1.11904
 C2584 C 0.76855 0.92093 1.11107
 C2585 C 0.72306 0.88332 1.11735
 C2586 C 0.70681 0.87608 1.12464
 C2587 C 0.79853 0.91543 1.08501
 C2588 C 0.81521 0.92219 1.07822
 H2589 H 0.72821 0.89396 1.07476
 H2590 H 0.76279 0.90867 1.05994
 H2591 H 0.79567 0.87604 1.10438
 H2592 H 0.76113 0.86134 1.11918
 H2593 H 0.74099 0.92103 1.13154
 H2594 H 0.77555 0.93573 1.11673
 C2595 C 0.74315 0.39146 0.60853
 C2596 C 0.74209 0.39681 0.58464
 C2597 C 0.76071 0.40474 0.57665
 C2598 C 0.77854 0.40654 0.59335
 C2599 C 0.78071 0.38405 0.60280
 C2600 C 0.76211 0.37613 0.61078
 C2601 C 0.75041 0.41219 0.61937
 C2602 C 0.76902 0.42012 0.61139
 C2603 C 0.72319 0.38284 0.61720
 C2604 C 0.70693 0.37559 0.62449
 C2605 C 0.79864 0.41500 0.58485
 C2606 C 0.81530 0.42177 0.57804
 H2607 H 0.72797 0.39456 0.57485
 H2608 H 0.76253 0.40929 0.56003
 H2609 H 0.79556 0.37513 0.60318
 H2610 H 0.76103 0.36041 0.61799
 H2611 H 0.74170 0.41996 0.63218
 H2612 H 0.77625 0.43468 0.61736
 C2613 C 0.24297 0.89158 0.60835
 C2614 C 0.25886 0.89846 0.62568
 C2615 C 0.27746 0.90644 0.61775
 C2616 C 0.27836 0.90677 0.59326
 C2617 C 0.25853 0.91939 0.58634
 C2618 C 0.23992 0.91140 0.59428
 C2619 C 0.25530 0.87569 0.59436
 C2620 C 0.27390 0.88368 0.58643
 C2621 C 0.22302 0.88291 0.61698
 C2622 C 0.20677 0.87561 0.62425
 C2623 C 0.29845 0.91527 0.58480
 C2624 C 0.31512 0.92207 0.57803
 H2625 H 0.25577 0.89719 0.64268
 H2626 H 0.29030 0.91201 0.62796
 H2627 H 0.25907 0.93336 0.57611
 H2628 H 0.22451 0.91853 0.59085
 H2629 H 0.24989 0.85959 0.59097
 H2630 H 0.28442 0.87441 0.57624
 C2631 C 0.24252 0.39189 1.10804
 C2632 C 0.26009 0.39408 1.12496
 C2633 C 0.27876 0.40198 1.11714
 C2634 C 0.27804 0.40693 1.09315
 C2635 C 0.25903 0.42213 1.09036
 C2636 C 0.24034 0.41422 1.09819
 C2637 C 0.25238 0.37808 1.09037
 C2638 C 0.27106 0.38599 1.08254
 C2639 C 0.22249 0.38329 1.11656
 C2640 C 0.20619 0.37605 1.12376
 C2641 C 0.29822 0.41535 1.08481
 C2642 C 0.31495 0.42208 1.07813
 H2643 H 0.25805 0.38980 1.14163
 H2644 H 0.29271 0.40448 1.12710
 H2645 H 0.26015 0.43772 1.08289
 H2646 H 0.22544 0.42303 1.09744
 H2647 H 0.24531 0.36339 1.08451
 H2648 H 0.27999 0.37808 1.06997
 C2649 C 0.74308 1.10863 0.89153
 C2650 C 0.75811 1.09974 0.87434
 C2651 C 0.77672 1.09182 0.88231
 C2652 C 0.77849 1.09355 0.90669
 C2653 C 0.75854 1.08227 0.91534
 C2654 C 0.73991 1.09020 0.90736
 C2655 C 0.75639 1.12521 0.90367
 C2656 C 0.77501 1.11728 0.91164
 C2657 C 0.72311 1.11724 0.88287
 C2658 C 0.70685 1.12450 0.87559
 C2659 C 0.79859 1.08510 0.91518
 C2660 C 0.81527 1.07833 0.92197
 H2661 H 0.75445 1.09966 0.85740
 H2662 H 0.78900 1.08495 0.87220
 H2663 H 0.75900 1.06921 0.92671
 H2664 H 0.72442 1.08393 0.91191
 H2665 H 0.75162 1.14172 0.90584
 H2666 H 0.78617 1.12701 0.92063
 C2667 C 0.74322 0.60811 0.39129
 C2668 C 0.74313 0.60549 0.41566
 C2669 C 0.76176 0.59759 0.42363
 C2670 C 0.77864 0.59308 0.40645
 C2671 C 0.78130 0.61426 0.39444
 C2672 C 0.76269 0.62216 0.38647
 C2673 C 0.74903 0.58599 0.38253
 C2674 C 0.76765 0.57808 0.39050
 C2675 C 0.72324 0.61671 0.38263
 C2676 C 0.70697 0.62395 0.37536
 C2677 C 0.79876 0.58466 0.41494
 C2678 C 0.81544 0.57791 0.42173
 H2679 H 0.72963 0.60949 0.42575
 H2680 H 0.76422 0.59481 0.44056
 H2681 H 0.79648 0.62235 0.39238
 H2682 H 0.76192 0.63701 0.37759
 H2683 H 0.73936 0.57729 0.37108
 H2684 H 0.77394 0.56261 0.38588
 C2685 C 0.24295 1.10852 0.39090
 C2686 C 0.24032 1.08706 0.40242
 C2687 C 0.25891 1.07917 0.41052
 C2688 C 0.27830 1.09353 0.40628
 C2689 C 0.27213 1.11540 0.41541
 C2690 C 0.25355 1.12328 0.40732
 C2691 C 0.26014 1.10454 0.37390
 C2692 C 0.27871 1.09666 0.38198
 C2693 C 0.22302 1.11709 0.38212
 C2694 C 0.20678 1.12434 0.37477
 C2695 C 0.29838 1.08512 0.41490
 C2696 C 0.31503 1.07837 0.42177
 H2697 H 0.22519 1.07879 0.40408
 H2698 H 0.25971 1.06415 0.41911
 H2699 H 0.28152 1.12394 0.42720
 H2700 H 0.24702 1.13858 0.41219
 H2701 H 0.25791 1.10762 0.35699
 H2702 H 0.29240 1.09300 0.37200
 C2703 C 0.24278 0.60828 0.89174
 C2704 C 0.25776 0.59931 0.87455
 C2705 C 0.27635 0.59134 0.88251
 C2706 C 0.27816 0.59312 0.90688
 C2707 C 0.25819 0.58192 0.91558
 C2708 C 0.23958 0.58989 0.90762
 C2709 C 0.25617 0.62484 0.90383
 C2710 C 0.27477 0.61687 0.91179
 C2711 C 0.22284 0.61695 0.88309
 C2712 C 0.20659 0.62424 0.87581
 C2713 C 0.29826 0.58462 0.91536
 C2714 C 0.31492 0.57783 0.92214
 H2715 H 0.25407 0.59922 0.85762
 H2716 H 0.28860 0.58442 0.87239
 H2717 H 0.25862 0.56888 0.92698
 H2718 H 0.22407 0.58369 0.91220
 H2719 H 0.25146 0.64137 0.90598
 H2720 H 0.28598 0.62657 0.92075
 C2721 C 1.10821 1.25738 1.10755
 C2722 C 1.12336 1.24595 1.09205
 C2723 C 1.11539 1.22728 1.08427
 C2724 C 1.09306 1.22186 1.09275
 C2725 C 1.07929 1.24140 1.08735
 C2726 C 1.08726 1.26008 1.09514
 C2727 C 1.10323 1.24085 1.12493
 C2728 C 1.09527 1.22218 1.11715
 C2729 C 1.11686 1.27740 1.11602
 C2730 C 1.12414 1.29369 1.12320
 C2731 C 1.08459 1.20170 1.08447
 C2732 C 1.07783 1.18497 1.07782
 H2733 H 1.13896 1.25200 1.08757
 H2734 H 1.12417 1.21733 1.07312
 H2735 H 1.06459 1.24062 1.07822
 H2736 H 1.07939 1.27531 1.09268
 H2737 H 1.10572 1.24357 1.14186
 H2738 H 1.09094 1.20892 1.12742
 C2739 C 1.10879 0.75691 0.60797
 C2740 C 1.09564 0.74424 0.62430
 C2741 C 1.08762 0.72563 0.61644
 C2742 C 1.09354 0.72149 0.59303
 C2743 C 1.11800 0.72270 0.59235
 C2744 C 1.12601 0.74131 0.60020
 C2745 C 1.09388 0.75998 0.58877
 C2746 C 1.08586 0.74135 0.58091
 C2747 C 1.11750 0.77687 0.61652
 C2748 C 1.12481 0.79313 0.62374
 C2749 C 1.08501 0.70138 0.58465
 C2750 C 1.07820 0.68470 0.57793
 H2751 H 1.09285 0.74944 0.64059
 H2752 H 1.07796 0.71488 0.62601
 H2753 H 1.12813 0.71005 0.58622
 H2754 H 1.14301 0.74460 0.60080
 H2755 H 1.08997 0.77542 0.58196
 H2756 H 1.07507 0.74083 0.56737
 C2757 C 0.60871 1.25711 0.60813
 C2758 C 0.61582 1.25229 0.58518
 C2759 C 0.60776 1.23369 0.57729
 C2760 C 0.59340 1.22175 0.59314
 C2761 C 0.57618 1.23794 0.59958
 C2762 C 0.58423 1.25654 0.60747
 C2763 C 0.61519 1.23735 0.62107
 C2764 C 0.60714 1.21877 0.61320
 C2765 C 0.61746 1.27705 0.61670
 C2766 C 0.62480 1.29329 0.62394
 C2767 C 0.58482 1.20166 0.58474
 C2768 C 0.57798 1.18500 0.57799
 H2769 H 0.62624 1.26258 0.57593
 H2770 H 0.61129 1.22805 0.56129
 H2771 H 0.55917 1.23505 0.59808
 H2772 H 0.57412 1.26959 0.61272
 H2773 H 0.62521 1.23791 0.63519
 H2774 H 0.61027 1.20341 0.62057
 C2775 C 0.60793 0.75698 1.10877
 C2776 C 0.59440 0.74442 1.12487
 C2777 C 0.58647 0.72581 1.11691
 C2778 C 0.59284 0.72158 1.09363
 C2779 C 0.61730 0.72269 1.09344
 C2780 C 0.62523 0.74129 1.10140
 C2781 C 0.59341 0.76006 1.08927
 C2782 C 0.58547 0.74144 1.08131
 C2783 C 0.61655 0.77694 1.11742
 C2784 C 0.62382 0.79319 1.12470
 C2785 C 0.58439 0.70148 1.08515
 C2786 C 0.57762 0.68480 1.07837
 H2787 H 0.59130 0.74968 1.14109
 H2788 H 0.57658 0.71513 1.12631
 H2789 H 0.62750 0.70998 1.08755
 H2790 H 0.64222 0.74452 1.10233
 H2791 H 0.58969 0.77549 1.08234
 H2792 H 0.57496 0.74092 1.06755
 C2793 C 0.89187 1.25708 0.89132
 C2794 C 0.88550 1.25293 0.91462
 C2795 C 0.89342 1.23433 0.92264
 C2796 C 0.90692 1.22170 0.90656
 C2797 C 0.92425 1.23733 0.89913
 C2798 C 0.91633 1.25594 0.89112
 C2799 C 0.88448 1.23720 0.87908
 C2800 C 0.89239 1.21861 0.88708
 C2801 C 0.88326 1.27703 0.88262
 C2802 C 0.87600 1.29327 0.87531
 C2803 C 0.91536 1.20160 0.91509
 C2804 C 0.92211 1.18493 0.92191
 H2805 H 0.87565 1.26367 0.92400
 H2806 H 0.89035 1.22912 0.93888
 H2807 H 0.94124 1.23407 0.90009
 H2808 H 0.92654 1.26863 0.88521
 H2809 H 0.87396 1.23768 0.86532
 H2810 H 0.88865 1.20317 0.88018
 C2811 C 0.89208 0.75699 0.39142
 C2812 C 0.90374 0.74335 0.37473
 C2813 C 0.91164 0.72473 0.38269
 C2814 C 0.90712 0.72156 0.40657
 C2815 C 0.88282 0.72364 0.40876
 C2816 C 0.87491 0.74226 0.40080
 C2817 C 0.90830 0.76016 0.40950
 C2818 C 0.91621 0.74152 0.41748
 C2819 C 0.88348 0.77696 0.38276
 C2820 C 0.87623 0.79322 0.37548
 C2821 C 0.91555 0.70144 0.41505
 C2822 C 0.92230 0.68476 0.42183
 H2823 H 0.90563 0.74793 0.35812
 H2824 H 0.92031 0.71336 0.37291
 H2825 H 0.87271 0.71155 0.41596
 H2826 H 0.85803 0.74612 0.40117
 H2827 H 0.91314 0.77566 0.41552
 H2828 H 0.92783 0.74106 0.43032
 C2829 C 0.39148 1.25734 0.39167
 C2830 C 0.38581 1.25351 0.41521
 C2831 C 0.39375 1.23489 0.42316
 C2832 C 0.40658 1.22193 0.40679
 C2833 C 0.42386 1.23727 0.39865
 C2834 C 0.41592 1.25589 0.39070
 C2835 C 0.38347 1.23743 0.37988
 C2836 C 0.39141 1.21882 0.38782
 C2837 C 0.38285 1.27731 0.38304
 C2838 C 0.37558 1.29356 0.37576
 C2839 C 0.41504 1.20182 0.41526
 C2840 C 0.42181 1.18514 0.42203
 H2841 H 0.37640 1.26446 0.42478
 H2842 H 0.39114 1.22988 0.43954
 H2843 H 0.44083 1.23381 0.39910
 H2844 H 0.42608 1.26839 0.38434
 H2845 H 0.37252 1.23791 0.36645
 H2846 H 0.38726 1.20336 0.38120
 C2847 C 0.39110 0.75690 0.89202
 C2848 C 0.37486 0.74406 0.90511
 C2849 C 0.38283 0.72544 0.91302
 C2850 C 0.40625 0.72148 0.90707
 C2851 C 0.41824 0.74137 0.91488
 C2852 C 0.41026 0.76000 0.90696
 C2853 C 0.39896 0.74146 0.87470
 C2854 C 0.40693 0.72285 0.88261
 C2855 C 0.38244 0.77687 0.88342
 C2856 C 0.37516 0.79314 0.87616
 C2857 C 0.41474 0.70137 0.91550
 C2858 C 0.42153 0.68469 0.92225
 H2859 H 0.35854 0.74915 0.90793
 H2860 H 0.37333 0.71458 0.92261
 H2861 H 0.43178 0.74086 0.92567
 H2862 H 0.41697 0.77546 0.91097
 H2863 H 0.39834 0.74486 0.85772
 H2864 H 0.41313 0.71030 0.87240
 C2865 C 1.10858 0.74296 0.89201
 C2866 C 1.10549 0.76028 0.87497
 C2867 C 1.09748 0.77890 0.88285
 C2868 C 1.09334 0.77837 0.90699
 C2869 C 1.11476 0.77190 0.91697
 C2870 C 1.12277 0.75328 0.90910
 C2871 C 1.08664 0.74048 0.90262
 C2872 C 1.07862 0.75912 0.91050
 C2873 C 1.11728 0.72299 0.88345
 C2874 C 1.12459 0.70673 0.87622
 C2875 C 1.08481 0.79848 0.91539
 C2876 C 1.07801 0.81517 0.92212
 H2877 H 1.10925 0.75812 0.85819
 H2878 H 1.09438 0.79268 0.87281
 H2879 H 1.12290 0.78113 0.92917
 H2880 H 1.13777 0.74656 0.91455
 H2881 H 1.07815 0.72544 0.90384
 H2882 H 1.06326 0.76003 0.91847
 C2883 C 1.10885 0.24295 0.39127
 C2884 C 1.10453 0.24222 0.41538
 C2885 C 1.09657 0.26082 0.42338
 C2886 C 1.09371 0.27832 0.40647
 C2887 C 1.07959 0.26823 0.38918
 C2888 C 1.08754 0.24964 0.38119
 C2889 C 1.12369 0.26216 0.38805
 C2890 C 1.11574 0.28074 0.39604
 C2891 C 1.11750 0.22301 0.38258
 C2892 C 1.12478 0.20677 0.37528
 C2893 C 1.08523 0.29841 0.41498
 C2894 C 1.07844 0.31506 0.42179
 H2895 H 1.10747 0.22832 0.42530
 H2896 H 1.09269 0.26286 0.44014
 H2897 H 1.06464 0.27509 0.38371
 H2898 H 1.07942 0.24056 0.36887
 H2899 H 1.13911 0.26124 0.38019
 H2900 H 1.12434 0.29574 0.39502
 C2901 C 0.60815 0.74313 0.39138
 C2902 C 0.60370 0.74240 0.41547
 C2903 C 0.59577 0.76103 0.42343
 C2904 C 0.59308 0.77855 0.40652
 C2905 C 0.57901 0.76854 0.38915
 C2906 C 0.58693 0.74992 0.38119
 C2907 C 0.62310 0.76228 0.38826
 C2908 C 0.61518 0.78089 0.39621
 C2909 C 0.61676 0.72316 0.38273
 C2910 C 0.62401 0.70690 0.37544
 C2911 C 0.58464 0.79867 0.41500
 C2912 C 0.57788 0.81535 0.42178
 H2913 H 0.60651 0.72848 0.42539
 H2914 H 0.59180 0.76307 0.44018
 H2915 H 0.56413 0.77546 0.38360
 H2916 H 0.57884 0.74088 0.36882
 H2917 H 0.63855 0.76130 0.38048
 H2918 H 0.62385 0.79585 0.39526
 C2919 C 0.60866 0.24303 0.89208
 C2920 C 0.60423 0.24235 0.91617
 C2921 C 0.59619 0.26096 0.92407
 C2922 C 0.59337 0.27841 0.90710
 C2923 C 0.57935 0.26824 0.88978
 C2924 C 0.58739 0.24964 0.88188
 C2925 C 0.62348 0.26226 0.88888
 C2926 C 0.61545 0.28085 0.89677
 C2927 C 0.61739 0.22309 0.88348
 C2928 C 0.62472 0.20685 0.87623
 C2929 C 0.58481 0.29850 0.91552
 C2930 C 0.57797 0.31516 0.92226
 H2931 H 0.60715 0.22849 0.92614
 H2932 H 0.59222 0.26303 0.94082
 H2933 H 0.56442 0.27504 0.88422
 H2934 H 0.57935 0.24051 0.86955
 H2935 H 0.63894 0.26135 0.88110
 H2936 H 0.62402 0.29586 0.89576
 C2937 C 0.89235 0.74262 1.10751
 C2938 C 0.88952 0.74511 1.08330
 C2939 C 0.89738 0.76383 1.07550
 C2940 C 0.90729 0.77821 1.09268
 C2941 C 0.92420 0.76429 1.10365
 C2942 C 0.91634 0.74557 1.11145
 C2943 C 0.88182 0.76248 1.11723
 C2944 C 0.88967 0.78118 1.10944
 C2945 C 0.88381 0.72256 1.11600
 C2946 C 0.87662 0.70623 1.12317
 C2947 C 0.91565 0.79842 1.08438
 C2948 C 0.92234 0.81518 1.07774
 H2949 H 0.88202 0.73323 1.07317
 H2950 H 0.89661 0.76799 1.05869
 H2951 H 0.94087 0.76873 1.10515
 H2952 H 0.92628 0.73398 1.11964
 H2953 H 0.86929 0.76191 1.12919
 H2954 H 0.88386 0.79663 1.11472
 C2955 C 0.89082 0.24334 0.60908
 C2956 C 0.87377 0.26031 0.60445
 C2957 C 0.88184 0.27881 0.59641
 C2958 C 0.90619 0.27856 0.59378
 C2959 C 0.91089 0.25896 0.57985
 C2960 C 0.90280 0.24044 0.58790
 C2961 C 0.90683 0.25434 0.62400
 C2962 C 0.91491 0.27286 0.61595
 C2963 C 0.88204 0.22348 0.61782
 C2964 C 0.87468 0.20730 0.62516
 C2965 C 0.91481 0.29857 0.58520
 C2966 C 0.92170 0.31516 0.57833
 H2967 H 0.85683 0.25798 0.60723
 H2968 H 0.87182 0.29234 0.59230
 H2969 H 0.91978 0.25957 0.56499
 H2970 H 0.90477 0.22518 0.57993
 H2971 H 0.91143 0.24813 0.63950
 H2972 H 0.92643 0.28250 0.62457
 C2973 C 0.39250 0.74262 0.60743
 C2974 C 0.41372 0.74940 0.61761
 C2975 C 0.42153 0.76812 0.60978
 C2976 C 0.40736 0.77821 0.59253
 C2977 C 0.38529 0.78038 0.60292
 C2978 C 0.37748 0.76167 0.61075
 C2979 C 0.39688 0.74209 0.58333
 C2980 C 0.40469 0.76082 0.57549
 C2981 C 0.38400 0.72255 0.61596
 C2982 C 0.37683 0.70623 0.62315
 C2983 C 0.41567 0.79842 0.58419
 C2984 C 0.42232 0.81519 0.57751
 H2985 H 0.42189 0.74030 0.62988
 H2986 H 0.43640 0.77505 0.61533
 H2987 H 0.37655 0.79530 0.60403
 H2988 H 0.36205 0.76057 0.61857
 H2989 H 0.39409 0.72824 0.57330
 H2990 H 0.40861 0.76301 0.55875
 C2991 C 0.39212 0.24265 1.10845
 C2992 C 0.37516 0.25667 1.09770
 C2993 C 0.38302 0.27533 1.08979
 C2994 C 0.40708 0.27814 1.09340
 C2995 C 0.41737 0.25821 1.08354
 C2996 C 0.40950 0.23954 1.09146
 C2997 C 0.40235 0.25698 1.12548
 C2998 C 0.41021 0.27563 1.11757
 C2999 C 0.38357 0.22265 1.11706
 C3000 C 0.37635 0.20636 1.12431
 C3001 C 0.41545 0.29830 1.08498
 C3002 C 0.42215 0.31502 1.07824
 H3003 H 0.35845 0.25233 1.09640
 H3004 H 0.37304 0.28696 1.08171
 H3005 H 0.42974 0.25872 1.07142
 H3006 H 0.41513 0.22405 1.08612
 H3007 H 0.40334 0.25283 1.14228
 H3008 H 0.41794 0.28746 1.12759
 C3009 C 1.10799 1.10797 0.74262
 C3010 C 1.11115 1.08381 0.74513
 C3011 C 1.10329 1.07590 0.76381
 C3012 C 1.09305 1.09293 0.77814
 C3013 C 1.07607 1.10367 0.76412
 C3014 C 1.08393 1.11158 0.74543
 C3015 C 1.11826 1.11783 0.76256
 C3016 C 1.11041 1.10992 0.78122
 C3017 C 1.11654 1.11657 0.72259
 C3018 C 1.12375 1.12381 0.70629
 C3019 C 1.08467 1.08451 0.79831
 C3020 C 1.07796 1.07779 0.81504
 H3021 H 1.11888 1.07380 0.73328
 H3022 H 1.10428 1.05911 0.76797
 H3023 H 1.05935 1.10493 0.76847
 H3024 H 1.07394 1.11962 0.73378
 H3025 H 1.13062 1.12995 0.76206
 H3026 H 1.11604 1.11528 0.79671
 C3027 C 1.10862 0.60925 0.24306
 C3028 C 1.09829 0.62608 0.25755
 C3029 C 1.09043 0.61794 0.27613
 C3030 C 1.09367 0.59377 0.27839
 C3031 C 1.11774 0.59029 0.27557
 C3032 C 1.12560 0.59842 0.25700
 C3033 C 1.09132 0.59223 0.23975
 C3034 C 1.08345 0.58409 0.25833
 C3035 C 1.11717 0.61808 0.22313
 C3036 C 1.12441 0.62547 0.20690
 C3037 C 1.08528 0.58511 0.29846
 C3038 C 1.07853 0.57820 0.31511
 H3039 H 1.09723 0.64291 0.25357
 H3040 H 1.08263 0.62780 0.28806
 H3041 H 1.12774 0.58213 0.28714
 H3042 H 1.14233 0.59723 0.25266
 H3043 H 1.08574 0.58704 0.22419
 H3044 H 1.07114 0.57192 0.25870
 C3045 C 0.60772 1.10856 0.24270
 C3046 C 0.60033 1.12584 0.25841
 C3047 C 0.59245 1.11789 0.27705
 C3048 C 0.59271 1.09343 0.27816
 C3049 C 0.61598 1.08711 0.27387
 C3050 C 0.62387 1.09507 0.25523
 C3051 C 0.58826 1.09399 0.23967
 C3052 C 0.58036 1.08603 0.25833
 C3053 C 0.61630 1.11720 0.22271
 C3054 C 0.62355 1.12448 0.20644
 C3055 C 0.58431 1.08496 0.29829
 C3056 C 0.57759 1.07819 0.31500
 H3057 H 0.60121 1.14284 0.25517
 H3058 H 0.58656 1.12807 0.28977
 H3059 H 0.62543 1.07725 0.28453
 H3060 H 0.64008 1.09201 0.24992
 H3061 H 0.58130 1.09026 0.22425
 H3062 H 0.56664 1.07548 0.25889
 C3063 C 0.60775 0.60788 0.74290
 C3064 C 0.59880 0.58516 0.74094
 C3065 C 0.59088 0.57728 0.75962
 C3066 C 0.59269 0.59290 0.77841
 C3067 C 0.58146 0.61330 0.77083
 C3068 C 0.58937 0.62118 0.75216
 C3069 C 0.62435 0.60663 0.76087
 C3070 C 0.61644 0.59876 0.77952
 C3071 C 0.61635 0.61644 0.72289
 C3072 C 0.62360 0.62366 0.70660
 C3073 C 0.58427 0.58451 0.79857
 C3074 C 0.57753 0.57780 0.81529
 H3075 H 0.59869 0.57607 0.72619
 H3076 H 0.58399 0.56144 0.76087
 H3077 H 0.56842 0.62089 0.77936
 H3078 H 0.58312 0.63551 0.74470
 H3079 H 0.64088 0.61149 0.75908
 H3080 H 0.62620 0.59688 0.79372
 C3081 C 0.89235 0.89240 0.74258
 C3082 C 0.88510 0.91530 0.74740
 C3083 C 0.89296 0.92317 0.76609
 C3084 C 0.90729 0.90736 0.77813
 C3085 C 0.92468 0.90104 0.76206
 C3086 C 0.91682 0.89317 0.74337
 C3087 C 0.88577 0.87939 0.76226
 C3088 C 0.89362 0.88725 0.78094
 C3089 C 0.88381 0.88385 0.72254
 C3090 C 0.87660 0.87664 0.70623
 C3091 C 0.91566 0.91574 0.79832
 C3092 C 0.92235 0.92243 0.81506
 H3093 H 0.87472 0.92453 0.73703
 H3094 H 0.88931 0.93913 0.77175
 H3095 H 0.94166 0.90261 0.76510
 H3096 H 0.92707 0.88800 0.73038
 H3097 H 0.87581 0.86523 0.76158
 H3098 H 0.89039 0.87982 0.79627
 C3099 C 0.89216 0.39138 0.24284
 C3100 C 0.87781 0.40835 0.25313
 C3101 C 0.88572 0.41633 0.27175
 C3102 C 0.90722 0.40655 0.27825
 C3103 C 0.92193 0.41015 0.25899
 C3104 C 0.91401 0.40217 0.24036
 C3105 C 0.89539 0.37441 0.26021
 C3106 C 0.90330 0.38239 0.27882
 C3107 C 0.88355 0.38271 0.22287
 C3108 C 0.87629 0.37542 0.20662
 C3109 C 0.91565 0.41505 0.29837
 C3110 C 0.92239 0.42184 0.31505
 H3111 H 0.86276 0.41365 0.24638
 H3112 H 0.87745 0.42847 0.28095
 H3113 H 0.93721 0.41825 0.25990
 H3114 H 0.92251 0.40343 0.22531
 H3115 H 0.89179 0.35760 0.25808
 H3116 H 0.90647 0.37241 0.29263
 C3117 C 0.39213 0.89174 0.24268
 C3118 C 0.40364 0.87509 0.25648
 C3119 C 0.41144 0.88312 0.27512
 C3120 C 0.40697 0.90701 0.27814
 C3121 C 0.38269 0.90927 0.27590
 C3122 C 0.37489 0.90124 0.25727
 C3123 C 0.40842 0.90975 0.23952
 C3124 C 0.41623 0.91778 0.25817
 C3125 C 0.38363 0.88302 0.22270
 C3126 C 0.37643 0.87569 0.20643
 C3127 C 0.41529 0.91555 0.29828
 C3128 C 0.42197 0.92235 0.31499
 H3129 H 0.40551 0.85846 0.25200
 H3130 H 0.42000 0.87337 0.28660
 H3131 H 0.37252 0.91656 0.28790
 H3132 H 0.35803 0.90165 0.25329
 H3133 H 0.41338 0.91567 0.22401
 H3134 H 0.42789 0.93059 0.25864
 C3135 C 0.39121 0.39054 0.74344
 C3136 C 0.37661 0.40719 0.75392
 C3137 C 0.38453 0.41529 0.77248
 C3138 C 0.40629 0.40593 0.77876
 C3139 C 0.42074 0.40988 0.75937
 C3140 C 0.41281 0.40178 0.74079
 C3141 C 0.39494 0.37360 0.76074
 C3142 C 0.40287 0.38169 0.77930
 C3143 C 0.38259 0.38175 0.72353
 C3144 C 0.37532 0.37440 0.70730
 C3145 C 0.41474 0.41456 0.79882
 C3146 C 0.42153 0.42145 0.81545
 H3147 H 0.36139 0.41220 0.74733
 H3148 H 0.37611 0.42722 0.78179
 H3149 H 0.43586 0.41829 0.76015
 H3150 H 0.42113 0.40326 0.72566
 H3151 H 0.39167 0.35673 0.75860
 H3152 H 0.40638 0.37175 0.79305
 C3153 C 1.10860 0.89067 1.25705
 C3154 C 1.12254 0.90828 1.24727
 C3155 C 1.11460 0.91639 1.22872
 C3156 C 1.09349 0.90610 1.22176
 C3157 C 1.07845 0.90886 1.24091
 C3158 C 1.08640 0.90074 1.25947
 C3159 C 1.10611 0.87397 1.23930
 C3160 C 1.09817 0.88208 1.22076
 C3161 C 1.11724 0.88187 1.27695
 C3162 C 1.12454 0.87450 1.29317
 C3163 C 1.08502 0.91475 1.20172
 C3164 C 1.07823 0.92165 1.18509
 H3165 H 1.13734 0.91390 1.25431
 H3166 H 1.12259 0.92896 1.21987
 H3167 H 1.06294 0.91651 1.23998
 H3168 H 1.07770 0.90144 1.27444
 H3169 H 1.11021 0.85724 1.24115
 H3170 H 1.09547 0.87230 1.20672
 C3171 C 1.10796 0.39131 0.75713
 C3172 C 1.09145 0.37676 0.74639
 C3173 C 1.08360 0.38476 0.72775
 C3174 C 1.09304 0.40652 0.72167
 C3175 C 1.11729 0.40309 0.72143
 C3176 C 1.12513 0.39509 0.74007
 C3177 C 1.09668 0.41291 0.75970
 C3178 C 1.08884 0.42091 0.74105
 C3179 C 1.11649 0.38263 0.77712
 C3180 C 1.12369 0.37533 0.79340
 C3181 C 1.08468 0.41503 0.70153
 C3182 C 1.07798 0.42182 0.68482
 H3183 H 1.08635 0.36153 0.75287
 H3184 H 1.07179 0.37637 0.71825
 H3185 H 1.12742 0.40664 0.70783
 H3186 H 1.14197 0.39180 0.74243
 H3187 H 1.09501 0.42119 0.77484
 H3188 H 1.08044 0.43604 0.74020
 C3189 C 0.60775 0.89230 0.75724
 C3190 C 0.58615 0.88269 0.75086
 C3191 C 0.57828 0.89058 0.73218
 C3192 C 0.59279 0.90731 0.72171
 C3193 C 0.61452 0.89627 0.71931
 C3194 C 0.62238 0.88838 0.73799
 C3195 C 0.60407 0.91652 0.75761
 C3196 C 0.59620 0.92441 0.73892
 C3197 C 0.61631 0.88373 0.77727
 C3198 C 0.62352 0.87650 0.79357
 C3199 C 0.58441 0.91571 0.70154
 C3200 C 0.57771 0.92242 0.68480
 H3201 H 0.57777 0.87075 0.76021
 H3202 H 0.56316 0.88540 0.72552
 H3203 H 0.62299 0.89478 0.70427
 H3204 H 0.63759 0.88014 0.73893
 H3205 H 0.60735 0.92658 0.77133
 H3206 H 0.59274 0.94123 0.73663
 C3207 C 0.60817 0.39192 1.25763
 C3208 C 0.61756 0.41367 1.25140
 C3209 C 0.60960 0.42157 1.23276
 C3210 C 0.59303 0.40695 1.22219
 C3211 C 0.57595 0.40324 1.23936
 C3212 C 0.58391 0.39534 1.25800
 C3213 C 0.61226 0.37746 1.23829
 C3214 C 0.60431 0.38536 1.21966
 C3215 C 0.61682 0.38333 1.27761
 C3216 C 0.62410 0.37608 1.29388
 C3217 C 0.58456 0.41537 1.20206
 C3218 C 0.57778 0.42211 1.18536
 H3219 H 0.62940 0.42212 1.26080
 H3220 H 0.61462 0.43679 1.22619
 H3221 H 0.55910 0.40654 1.23708
 H3222 H 0.57388 0.39186 1.27170
 H3223 H 0.62067 0.36233 1.23914
 H3224 H 0.60590 0.37700 1.20456
 C3225 C 0.89184 1.10819 1.25752
 C3226 C 0.89221 1.08371 1.25662
 C3227 C 0.90014 1.07581 1.23796
 C3228 C 0.90691 1.09317 1.22205
 C3229 C 0.92283 1.10717 1.23432
 C3230 C 0.91490 1.11507 1.25297
 C3231 C 0.87913 1.11509 1.23775
 C3232 C 0.88706 1.10720 1.21910
 C3233 C 0.88322 1.11678 1.27752
 C3234 C 0.87597 1.12402 1.29381
 C3235 C 0.91536 1.08475 1.20190
 C3236 C 0.92211 1.07802 1.18519
 H3237 H 0.88674 1.07349 1.26949
 H3238 H 0.90146 1.05882 1.23485
 H3239 H 0.93891 1.11057 1.22884
 H3240 H 0.92418 1.12524 1.26348
 H3241 H 0.86514 1.12529 1.23834
 H3242 H 0.87984 1.11063 1.20372
 C3243 C 0.89203 0.60785 0.75714
 C3244 C 0.89205 0.58338 0.75608
 C3245 C 0.89998 0.57548 0.73741
 C3246 C 0.90709 0.59284 0.72165
 C3247 C 0.92314 0.60653 0.73410
 C3248 C 0.91521 0.61443 0.75277
 C3249 C 0.87954 0.61506 0.73734
 C3250 C 0.88746 0.60717 0.71869
 C3251 C 0.88342 0.61643 0.77715
 C3252 C 0.87617 0.62367 0.79343
 C3253 C 0.91553 0.58443 0.70150
 C3254 C 0.92228 0.57771 0.68479
 H3255 H 0.88636 0.57316 0.76886
 H3256 H 0.90108 0.55850 0.73420
 H3257 H 0.93929 0.60974 0.72874
 H3258 H 0.92458 0.62439 0.76339
 H3259 H 0.86569 0.62545 0.73791
 H3260 H 0.88039 0.61081 0.70329
 C3261 C 0.39199 1.10865 0.75712
 C3262 C 0.40012 1.08562 0.75899
 C3263 C 0.40797 1.07761 0.74034
 C3264 C 0.40691 1.09344 0.72166
 C3265 C 0.41876 1.11337 0.72953
 C3266 C 0.41092 1.12137 0.74818
 C3267 C 0.37555 1.10814 0.73897
 C3268 C 0.38339 1.10015 0.72033
 C3269 C 0.38346 1.11734 0.77712
 C3270 C 0.37625 1.12464 0.79340
 C3271 C 0.41527 1.08492 0.70152
 C3272 C 0.42198 1.07813 0.68481
 H3273 H 0.39975 1.07641 0.77367
 H3274 H 0.41432 1.06155 0.73903
 H3275 H 0.43215 1.12055 0.72121
 H3276 H 0.41759 1.13541 0.75583
 H3277 H 0.35919 1.11358 0.74061
 H3278 H 0.37374 1.09873 0.70601
 C3279 C 0.39137 0.60931 1.25722
 C3280 C 0.39885 0.58606 1.25910
 C3281 C 0.40673 0.57791 1.24052
 C3282 C 0.40635 0.59383 1.22189
 C3283 C 0.41862 0.61340 1.23001
 C3284 C 0.41075 0.62154 1.24858
 C3285 C 0.37517 0.60931 1.23885
 C3286 C 0.38304 0.60117 1.22028
 C3287 C 0.38280 0.61814 1.27714
 C3288 C 0.37556 0.62553 1.29337
 C3289 C 0.41475 0.58516 1.20183
 C3290 C 0.42151 0.57825 1.18519
 H3291 H 0.39803 0.57681 1.27373
 H3292 H 0.41266 0.56169 1.23923
 H3293 H 0.43231 0.62026 1.22190
 H3294 H 0.41769 0.63537 1.25638
 H3295 H 0.35893 0.61517 1.24029
 H3296 H 0.37355 0.60007 1.20583
 C3297 C 1.10830 1.25702 0.89174
 C3298 C 1.09294 1.26013 0.91058
 C3299 C 1.08503 1.24149 0.91852
 C3300 C 1.09325 1.22158 0.90683
 C3301 C 1.11766 1.22315 0.90800
 C3302 C 1.12557 1.24178 0.90007
 C3303 C 1.09568 1.24396 0.87531
 C3304 C 1.08777 1.22533 0.88325
 C3305 C 1.11691 1.27700 0.88311
 C3306 C 1.12416 1.29327 0.87585
 C3307 C 1.08482 1.20146 0.91529
 C3308 C 1.07806 1.18477 0.92204
 H3309 H 1.08867 1.27560 0.91710
 H3310 H 1.07396 1.24098 0.93185
 H3311 H 1.12784 1.21073 0.91450
 H3312 H 1.14253 1.24531 0.89977
 H3313 H 1.09316 1.24891 0.85890
 H3314 H 1.07847 1.21432 0.87363
 C3315 C 1.10889 0.75674 0.39075
 C3316 C 1.12313 0.73729 0.38644
 C3317 C 1.11521 0.71873 0.39451
 C3318 C 1.09380 0.72142 0.40610
 C3319 C 1.07903 0.73212 0.38975
 C3320 C 1.08696 0.75069 0.38168
 C3321 C 1.10583 0.75712 0.41507
 C3322 C 1.09789 0.73855 0.42314
 C3323 C 1.11750 0.77666 0.38199
 C3324 C 1.12476 0.79290 0.37464
 C3325 C 1.08534 0.70137 0.41470
 C3326 C 1.07854 0.68474 0.42157
 H3327 H 1.13814 0.73803 0.37781
 H3328 H 1.12342 0.70358 0.39279
 H3329 H 1.06368 0.72569 0.38494
 H3330 H 1.07841 0.76017 0.36995
 H3331 H 1.10956 0.77077 0.42506
 H3332 H 1.09483 0.73628 0.44005
 C3333 C 0.60783 1.25737 0.39178
 C3334 C 0.58963 1.26049 0.40789
 C3335 C 0.58174 1.24183 0.41583
 C3336 C 0.59283 1.22191 0.40686
 C3337 C 0.61664 1.22524 0.41152
 C3338 C 0.62452 1.24388 0.40359
 C3339 C 0.59866 1.24252 0.37460
 C3340 C 0.59077 1.22388 0.38253
 C3341 C 0.61641 1.27736 0.38317
 C3342 C 0.62365 1.29363 0.37590
 C3343 C 0.58443 1.20177 0.41531
 C3344 C 0.57771 1.18506 0.42206
 H3345 H 0.58349 1.27597 0.41265
 H3346 H 0.56883 1.24134 0.42738
 H3347 H 0.62644 1.21396 0.42029
 H3348 H 0.64108 1.24857 0.40557
 H3349 H 0.59837 1.24632 0.35769
 H3350 H 0.58372 1.21171 0.37241
 C3351 C 0.60759 0.75726 0.89233
 C3352 C 0.60960 0.73843 0.87678
 C3353 C 0.60169 0.71978 0.88465
 C3354 C 0.59254 0.72177 0.90729
 C3355 C 0.57587 0.73966 0.90586
 C3356 C 0.58378 0.75833 0.89799
 C3357 C 0.61868 0.74977 0.91285
 C3358 C 0.61077 0.73111 0.92072
 C3359 C 0.61620 0.77726 0.88377
 C3360 C 0.62345 0.79355 0.87655
 C3361 C 0.58411 0.70161 0.91567
 C3362 C 0.57738 0.68490 0.92239
 H3363 H 0.61661 0.73964 0.86098
 H3364 H 0.60192 0.70502 0.87558
 H3365 H 0.55931 0.73783 0.91062
 H3366 H 0.57401 0.77249 0.89600
 H3367 H 0.63160 0.75837 0.92054
 H3368 H 0.61691 0.72373 0.93515
 C3369 C 0.89158 1.25714 1.10835
 C3370 C 0.87514 1.23901 1.10747
 C3371 C 0.88312 1.22040 1.09958
 C3372 C 0.90676 1.22172 1.09333
 C3373 C 0.91823 1.22953 1.11352
 C3374 C 0.91025 1.24815 1.12142
 C3375 C 0.90015 1.25906 1.08547
 C3376 C 0.90814 1.24043 1.07757
 C3377 C 0.88290 1.27711 1.11695
 C3378 C 0.87562 1.29337 1.12420
 C3379 C 0.91527 1.20160 1.08491
 C3380 C 0.92207 1.18492 1.07816
 H3381 H 0.85867 1.24066 1.11259
 H3382 H 0.87349 1.20610 1.09793
 H3383 H 0.93147 1.22118 1.12094
 H3384 H 0.91665 1.25575 1.13561
 H3385 H 0.89997 1.27376 1.07630
 H3386 H 0.91480 1.23916 1.06162
 C3387 C 0.89242 0.75731 0.60757
 C3388 C 0.89673 0.74048 0.62484
 C3389 C 0.90460 0.72179 0.61700
 C3390 C 0.90739 0.72176 0.59266
 C3391 C 0.92158 0.74114 0.58785
 C3392 C 0.91370 0.75985 0.59570
 C3393 C 0.87749 0.74633 0.59156
 C3394 C 0.88536 0.72764 0.58372
 C3395 C 0.88386 0.77735 0.61610
 C3396 C 0.87663 0.79366 0.62330
 C3397 C 0.91578 0.70157 0.58430
 C3398 C 0.92247 0.68483 0.57762
 H3399 H 0.89387 0.74302 0.64174
 H3400 H 0.90848 0.70833 0.62719
 H3401 H 0.93648 0.74026 0.57906
 H3402 H 0.92185 0.77499 0.59363
 H3403 H 0.86209 0.75268 0.58679
 H3404 H 0.87671 0.71798 0.57223
 C3405 C 0.39124 1.25682 0.60947
 C3406 C 0.38488 1.25283 0.58614
 C3407 C 0.39280 1.23428 0.57800
 C3408 C 0.40630 1.22154 0.59398
 C3409 C 0.39177 1.21832 0.61344
 C3410 C 0.38385 1.23686 0.62158
 C3411 C 0.41571 1.25568 0.60967
 C3412 C 0.42363 1.23712 0.60152
 C3413 C 0.38263 1.27672 0.61830
 C3414 C 0.37536 1.29293 0.62568
 C3415 C 0.41475 1.20150 0.58531
 C3416 C 0.42154 1.18489 0.57839
 H3417 H 0.37504 1.26364 0.57683
 H3418 H 0.38974 1.22919 0.56172
 H3419 H 0.38802 1.20283 0.62024
 H3420 H 0.37333 1.23724 0.63534
 H3421 H 0.42591 1.26832 0.61566
 H3422 H 0.44062 1.23388 0.60055
 C3423 C 0.39156 0.75714 1.10835
 C3424 C 0.38809 0.75445 1.08424
 C3425 C 0.39597 0.73578 1.07633
 C3426 C 0.40655 0.72164 1.09332
 C3427 C 0.38944 0.71855 1.11058
 C3428 C 0.38157 0.73721 1.11848
 C3429 C 0.41569 0.75451 1.11163
 C3430 C 0.42357 0.73584 1.10372
 C3431 C 0.38300 0.77716 1.11694
 C3432 C 0.37578 0.79346 1.12417
 C3433 C 0.41494 0.70148 1.08490
 C3434 C 0.42167 0.68476 1.07817
 H3435 H 0.38015 0.76618 1.07426
 H3436 H 0.39479 0.73151 1.05958
 H3437 H 0.38399 0.70307 1.11612
 H3438 H 0.36937 0.73771 1.13078
 H3439 H 0.42571 0.76627 1.11946
 H3440 H 0.44034 0.73161 1.10478
 C3441 C 0.89194 0.74296 0.89215
 C3442 C 0.91641 0.74360 0.89312
 C3443 C 0.92432 0.76227 0.90100
 C3444 C 0.90697 0.77845 0.90713
 C3445 C 0.89244 0.76656 0.92286
 C3446 C 0.88453 0.74790 0.91498
 C3447 C 0.88559 0.76263 0.87901
 C3448 C 0.89349 0.78128 0.88688
 C3449 C 0.88336 0.72296 0.88358
 C3450 C 0.87612 0.70667 0.87636
 C3451 C 0.91539 0.79860 0.91552
 C3452 C 0.92213 0.81532 0.92224
 H3453 H 0.92662 0.73055 0.88807
 H3454 H 0.94130 0.76521 0.90271
 H3455 H 0.88869 0.77228 0.93878
 H3456 H 0.87402 0.73763 0.92415
 H3457 H 0.87575 0.76197 0.86476
 H3458 H 0.89041 0.79659 0.87938
 C3459 C 0.89235 0.24268 0.39175
 C3460 C 0.90455 0.25599 0.37519
 C3461 C 0.91243 0.27463 0.38311
 C3462 C 0.90736 0.27814 0.40683
 C3463 C 0.91599 0.25822 0.41820
 C3464 C 0.90809 0.23957 0.41027
 C3465 C 0.87510 0.25769 0.40052
 C3466 C 0.88299 0.27633 0.40845
 C3467 C 0.88377 0.22269 0.38313
 C3468 C 0.87653 0.20643 0.37587
 C3469 C 0.91576 0.29827 0.41527
 C3470 C 0.92247 0.31498 0.42203
 H3471 H 0.90680 0.25119 0.35869
 H3472 H 0.92145 0.28579 0.37341
 H3473 H 0.92729 0.25873 0.43132
 H3474 H 0.91263 0.22409 0.41659
 H3475 H 0.85818 0.25401 0.40052
 H3476 H 0.87282 0.28861 0.41524
 C3477 C 0.39137 0.74337 0.39083
 C3478 C 0.37536 0.76190 0.39033
 C3479 C 0.38328 0.78048 0.39837
 C3480 C 0.40644 0.77872 0.40612
 C3481 C 0.41896 0.77023 0.38684
 C3482 C 0.41104 0.75165 0.37880
 C3483 C 0.39844 0.74171 0.41423
 C3484 C 0.40636 0.76030 0.42228
 C3485 C 0.38275 0.72344 0.38210
 C3486 C 0.37549 0.70720 0.37478
 C3487 C 0.41489 0.79879 0.41469
 C3488 C 0.42167 0.81544 0.42154
 H3489 H 0.35921 0.76055 0.38421
 H3490 H 0.37391 0.79503 0.39913
 H3491 H 0.43284 0.77811 0.38011
 H3492 H 0.41813 0.74361 0.36518
 H3493 H 0.39732 0.72721 0.42365
 H3494 H 0.41204 0.76173 0.43859
 C3495 C 0.39158 0.24285 0.89184
 C3496 C 0.41604 0.24342 0.89292
 C3497 C 0.42397 0.26204 0.90089
 C3498 C 0.40665 0.27826 0.90699
 C3499 C 0.39201 0.26637 0.92262
 C3500 C 0.38408 0.24775 0.91465
 C3501 C 0.38534 0.26257 0.87873
 C3502 C 0.39325 0.28118 0.88668
 C3503 C 0.38297 0.22289 0.88319
 C3504 C 0.37572 0.20663 0.87591
 C3505 C 0.41509 0.29837 0.91547
 C3506 C 0.42185 0.31504 0.92225
 H3507 H 0.42624 0.23035 0.88789
 H3508 H 0.44095 0.26493 0.90267
 H3509 H 0.38821 0.27206 0.93854
 H3510 H 0.37350 0.23749 0.92375
 H3511 H 0.37556 0.26198 0.86443
 H3512 H 0.39026 0.29652 0.87921
 C3513 C 1.10854 0.74325 1.10934
 C3514 C 1.08809 0.75085 1.12049
 C3515 C 1.08016 0.76942 1.11243
 C3516 C 1.09345 0.77858 1.09400
 C3517 C 1.09477 0.76051 1.07750
 C3518 C 1.10271 0.74193 1.08557
 C3519 C 1.12407 0.76210 1.11103
 C3520 C 1.11614 0.78067 1.10297
 C3521 C 1.11716 0.72332 1.11809
 C3522 C 1.12442 0.70709 1.12543
 C3523 C 1.08499 0.79864 1.08540
 C3524 C 1.07820 0.81528 1.07853
 H3525 H 1.08050 0.74237 1.13357
 H3526 H 1.06578 0.77686 1.11859
 H3527 H 1.08991 0.76217 1.06095
 H3528 H 1.10464 0.72766 1.07593
 H3529 H 1.13991 0.76097 1.11794
 H3530 H 1.12519 0.79543 1.10298
 C3531 C 1.10757 0.24250 0.60820
 C3532 C 1.09242 0.25416 0.62351
 C3533 C 1.08465 0.27283 0.61552
 C3534 C 1.09280 0.27801 0.59300
 C3535 C 1.08703 0.25842 0.57947
 C3536 C 1.09480 0.23974 0.58747
 C3537 C 1.12498 0.25885 0.60279
 C3538 C 1.11721 0.27752 0.59481
 C3539 C 1.11602 0.22248 0.61688
 C3540 C 1.12319 0.20619 0.62417
 C3541 C 1.08452 0.29818 0.58450
 C3542 C 1.07788 0.31491 0.57773
 H3543 H 1.08815 0.24827 0.63924
 H3544 H 1.07373 0.28294 0.62441
 H3545 H 1.07767 0.25916 0.56491
 H3546 H 1.09210 0.22446 0.57976
 H3547 H 1.14192 0.25601 0.60503
 H3548 H 1.12750 0.29067 0.59020
 C3549 C 0.60787 0.74291 0.60779
 C3550 C 0.59328 0.73995 0.58833
 C3551 C 0.58539 0.75863 0.58044
 C3552 C 0.59288 0.77841 0.59279
 C3553 C 0.61733 0.77720 0.59251
 C3554 C 0.62521 0.75853 0.60040
 C3555 C 0.59444 0.75550 0.62396
 C3556 C 0.58656 0.77416 0.61608
 C3557 C 0.61644 0.72289 0.61637
 C3558 C 0.62366 0.70660 0.62361
 C3559 C 0.58448 0.79858 0.58439
 C3560 C 0.57777 0.81530 0.57767
 H3561 H 0.58948 0.72455 0.58137
 H3562 H 0.57483 0.75923 0.56671
 H3563 H 0.62757 0.78987 0.58662
 H3564 H 0.64220 0.75522 0.60127
 H3565 H 0.59138 0.75021 0.64018
 H3566 H 0.57675 0.78486 0.62554
 C3567 C 0.60820 0.24286 1.10832
 C3568 C 0.59342 0.23985 1.08901
 C3569 C 0.58545 0.25850 1.08115
 C3570 C 0.59305 0.27832 1.09337
 C3571 C 0.61751 0.27711 1.09285
 C3572 C 0.62547 0.25847 1.10071
 C3573 C 0.59494 0.25549 1.12459
 C3574 C 0.58697 0.27413 1.11673
 C3575 C 0.61686 0.22287 1.11687
 C3576 C 0.62413 0.20659 1.12409
 C3577 C 0.58457 0.29846 1.08499
 C3578 C 0.57780 0.31517 1.07828
 H3579 H 0.58955 0.22443 1.08213
 H3580 H 0.57475 0.25907 1.06753
 H3581 H 0.62768 0.28977 1.08682
 H3582 H 0.64246 0.25516 1.10141
 H3583 H 0.59204 0.25024 1.14085
 H3584 H 0.57725 0.28485 1.12626
 C3585 C 1.25713 1.10855 0.89217
 C3586 C 1.25199 1.08600 0.88410
 C3587 C 1.23337 1.07798 0.89195
 C3588 C 1.22171 1.09330 0.90711
 C3589 C 1.21886 1.11397 0.89429
 C3590 C 1.23747 1.12198 0.88644
 C3591 C 1.25673 1.10680 0.91662
 C3592 C 1.23810 1.09878 0.92447
 C3593 C 1.27710 1.11726 0.88363
 C3594 C 1.29335 1.12457 0.87641
 C3595 C 1.20160 1.08476 0.91548
 C3596 C 1.18491 1.07794 0.92219
 H3597 H 1.26210 1.07712 0.87318
 H3598 H 1.22752 1.06223 0.88776
 H3599 H 1.20356 1.12165 0.89162
 H3600 H 1.23811 1.13653 0.87705
 H3601 H 1.26992 1.11144 0.92685
 H3602 H 1.23533 1.09655 0.94144
 C3603 C 1.25706 0.60897 0.39137
 C3604 C 1.25195 0.58640 0.38333
 C3605 C 1.23339 0.57833 0.39127
 C3606 C 1.22175 0.59362 0.40647
 C3607 C 1.21878 0.61428 0.39365
 C3608 C 1.23734 0.62235 0.38572
 C3609 C 1.25677 0.60724 0.41582
 C3610 C 1.23820 0.59917 0.42376
 C3611 C 1.27697 0.61773 0.38274
 C3612 C 1.29319 0.62507 0.37545
 C3613 C 1.20170 0.58503 0.41494
 C3614 C 1.18506 0.57816 0.42173
 H3615 H 1.26204 0.57754 0.37238
 H3616 H 1.22757 0.56256 0.38712
 H3617 H 1.20345 0.62191 0.39104
 H3618 H 1.23790 0.63688 0.37631
 H3619 H 1.26999 0.61193 0.42599
 H3620 H 1.23551 0.59694 0.44073
 C3621 C 0.75716 1.10793 0.39167
 C3622 C 0.75585 1.08347 0.39127
 C3623 C 0.73718 1.07563 0.39921
 C3624 C 0.72166 1.09302 0.40675
 C3625 C 0.71869 1.10772 0.38738
 C3626 C 0.73734 1.11555 0.37945
 C3627 C 0.75303 1.11414 0.41501
 C3628 C 0.73436 1.10630 0.42294
 C3629 C 0.77717 1.11645 0.38305
 C3630 C 0.79347 1.12364 0.37580
 C3631 C 0.70150 1.08466 0.41520
 C3632 C 0.68478 1.07798 0.42195
 H3633 H 0.76848 1.07322 0.38530
 H3634 H 0.73381 1.05866 0.40003
 H3635 H 0.70328 1.11163 0.38049
 H3636 H 0.73791 1.12617 0.36578
 H3637 H 0.76382 1.12384 0.42447
 H3638 H 0.72915 1.10928 0.43920
 C3639 C 0.75686 0.60797 0.89220
 C3640 C 0.75167 0.58537 0.88433
 C3641 C 0.73301 0.57748 0.89223
 C3642 C 0.72137 0.59298 0.90723
 C3643 C 0.71861 0.61354 0.89421
 C3644 C 0.73726 0.62142 0.88631
 C3645 C 0.75642 0.60646 0.91666
 C3646 C 0.73775 0.59857 0.92456
 C3647 C 0.77687 0.61654 0.88362
 C3648 C 0.79316 0.62376 0.87638
 C3649 C 0.70122 0.58458 0.91564
 C3650 C 0.68450 0.57786 0.92237
 H3651 H 0.76176 0.57635 0.87352
 H3652 H 0.72711 0.56171 0.88818
 H3653 H 0.70334 0.62124 0.89144
 H3654 H 0.73796 0.63587 0.87678
 H3655 H 0.76960 0.61115 0.92687
 H3656 H 0.73494 0.59651 0.94154
 C3657 C 1.25719 0.89159 1.10784
 C3658 C 1.24055 0.87438 1.10267
 C3659 C 1.22190 0.88237 1.09487
 C3660 C 1.22171 0.90679 1.09300
 C3661 C 1.24123 0.91226 1.07924
 C3662 C 1.25989 0.90427 1.08705
 C3663 C 1.24589 0.90694 1.12324
 C3664 C 1.22724 0.91493 1.11543
 C3665 C 1.27719 0.88290 1.11634
 C3666 C 1.29347 0.87561 1.12353
 C3667 C 1.20156 0.91530 1.08468
 C3668 C 1.18484 0.92208 1.07801
 H3669 H 1.24319 0.85741 1.10493
 H3670 H 1.20857 0.87225 1.09044
 H3671 H 1.24046 0.92159 1.06466
 H3672 H 1.27512 0.90674 1.07916
 H3673 H 1.25201 0.91117 1.13889
 H3674 H 1.21738 0.92601 1.12440
 C3675 C 1.25688 0.39101 0.60906
 C3676 C 1.24870 0.37891 0.58940
 C3677 C 1.23015 0.38690 0.58134
 C3678 C 1.22160 0.40622 0.59374
 C3679 C 1.24001 0.42238 0.59383
 C3680 C 1.25857 0.41438 0.60189
 C3681 C 1.23828 0.39059 0.62500
 C3682 C 1.21974 0.39858 0.61694
 C3683 C 1.27678 0.38232 0.61781
 C3684 C 1.29298 0.37501 0.62516
 C3685 C 1.20156 0.41474 0.58515
 C3686 C 1.18494 0.42157 0.57828
 H3687 H 1.25678 0.36527 0.58241
 H3688 H 1.22234 0.38011 0.56745
 H3689 H 1.23859 0.43865 0.58807
 H3690 H 1.27305 0.42380 0.60303
 H3691 H 1.23956 0.38454 0.64119
 H3692 H 1.20514 0.39938 0.62624
 C3693 C 0.75733 0.89238 0.60751
 C3694 C 0.75048 0.91350 0.61786
 C3695 C 0.73179 0.92138 0.61001
 C3696 C 0.72179 0.90736 0.59258
 C3697 C 0.71960 0.88519 0.60276
 C3698 C 0.73827 0.87732 0.61061
 C3699 C 0.75797 0.89698 0.58345
 C3700 C 0.73927 0.90486 0.57559
 C3701 C 0.77736 0.88382 0.61605
 C3702 C 0.79367 0.87660 0.62326
 C3703 C 0.70161 0.91575 0.58422
 C3704 C 0.68487 0.92246 0.57754
 H3705 H 0.75951 0.92157 0.63024
 H3706 H 0.72481 0.93619 0.61567
 H3707 H 0.70468 0.87644 0.60371
 H3708 H 0.73935 0.86183 0.61828
 H3709 H 0.77187 0.89429 0.57346
 H3710 H 0.73716 0.90892 0.55888
 C3711 C 0.75690 0.39143 1.10816
 C3712 C 0.74577 0.37657 1.09218
 C3713 C 0.72713 0.38459 1.08436
 C3714 C 0.72144 0.40668 1.09328
 C3715 C 0.74093 0.42070 1.08844
 C3716 C 0.75958 0.41268 1.09626
 C3717 C 0.74012 0.39590 1.12545
 C3718 C 0.72149 0.40391 1.11763
 C3719 C 0.77688 0.38272 1.11666
 C3720 C 0.79316 0.37541 1.12385
 C3721 C 0.70131 0.41522 1.08495
 C3722 C 0.68461 0.42202 1.07825
 H3723 H 0.75199 0.36112 1.08741
 H3724 H 0.71739 0.37601 1.07290
 H3725 H 0.74016 0.43560 1.07964
 H3726 H 0.77478 0.42071 1.09416
 H3727 H 0.74266 0.39303 1.14235
 H3728 H 0.70807 0.40791 1.12784
 C3729 C 0.74289 1.10862 1.10787
 C3730 C 0.75561 1.09558 1.12425
 C3731 C 0.77426 1.08760 1.11643
 C3732 C 0.77837 1.09344 1.09299
 C3733 C 0.77706 1.11788 1.09220
 C3734 C 0.75841 1.12586 1.10003
 C3735 C 0.73988 1.09361 1.08874
 C3736 C 0.75854 1.08562 1.08091
 C3737 C 0.72289 1.11729 1.11639
 C3738 C 0.70661 1.12458 1.12359
 C3739 C 0.79852 1.08494 1.08465
 C3740 C 0.81523 1.07815 1.07796
 H3741 H 0.75042 1.09285 1.14056
 H3742 H 0.78505 1.07803 1.12603
 H3743 H 0.78967 1.12803 1.08603
 H3744 H 0.75505 1.14285 1.10055
 H3745 H 0.72446 1.08961 1.08195
 H3746 H 0.75911 1.07478 1.06741
 C3747 C 0.74290 0.60782 0.60782
 C3748 C 0.75918 0.60195 0.62516
 C3749 C 0.77784 0.59407 0.61726
 C3750 C 0.77840 0.59283 0.59280
 C3751 C 0.77333 0.61555 0.58516
 C3752 C 0.75467 0.62343 0.59306
 C3753 C 0.74010 0.58742 0.59455
 C3754 C 0.75877 0.57954 0.58665
 C3755 C 0.72289 0.61640 0.61641
 C3756 C 0.70660 0.62363 0.62364
 C3757 C 0.79856 0.58444 0.58439
 C3758 C 0.81528 0.57772 0.57766
 H3759 H 0.75629 0.60380 0.64215
 H3760 H 0.79094 0.58918 0.62749
 H3761 H 0.78350 0.62464 0.57447
 H3762 H 0.74885 0.63927 0.58914
 H3763 H 0.72480 0.57984 0.59162
 H3764 H 0.75948 0.56520 0.57695
 C3765 C 0.24241 1.10759 0.60822
 C3766 C 0.25539 1.09470 0.62451
 C3767 C 0.27407 1.08691 0.61654
 C3768 C 0.27793 1.09278 0.59306
 C3769 C 0.27635 1.11720 0.59228
 C3770 C 0.25769 1.12499 0.60024
 C3771 C 0.23940 1.09254 0.58912
 C3772 C 0.25809 1.08474 0.58115
 C3773 C 0.22239 1.11607 0.61688
 C3774 C 0.20610 1.12325 0.62416
 C3775 C 0.29810 1.08448 0.58458
 C3776 C 0.31483 1.07784 0.57782
 H3777 H 0.25036 1.09191 0.64085
 H3778 H 0.28503 1.07746 0.62606
 H3779 H 0.28880 1.12748 0.58600
 H3780 H 0.25414 1.14194 0.60079
 H3781 H 0.22397 1.08837 0.58245
 H3782 H 0.25867 1.07390 0.56765
 C3783 C 0.24289 0.60883 1.10886
 C3784 C 0.25743 0.59902 1.12597
 C3785 C 0.27599 0.59096 1.11802
 C3786 C 0.27821 0.59349 1.09375
 C3787 C 0.27534 0.61745 1.08957
 C3788 C 0.25677 0.62552 1.09752
 C3789 C 0.23959 0.59104 1.09235
 C3790 C 0.25816 0.58297 1.08440
 C3791 C 0.22298 0.61759 1.11751
 C3792 C 0.20676 0.62494 1.12479
 C3793 C 0.29827 0.58490 1.08528
 C3794 C 0.31491 0.57805 1.07849
 H3795 H 0.25349 0.59844 1.14283
 H3796 H 0.28795 0.58347 1.12808
 H3797 H 0.28686 0.62723 1.08111
 H3798 H 0.25240 0.64220 1.09585
 H3799 H 0.22403 0.58529 1.08734
 H3800 H 0.25853 0.57030 1.07258
 C3801 C 0.74274 0.89227 0.89232
 C3802 C 0.73991 0.90585 0.91253
 C3803 C 0.75858 0.91376 0.92038
 C3804 C 0.77824 0.90732 0.90725
 C3805 C 0.77332 0.91464 0.88439
 C3806 C 0.75466 0.90673 0.87654
 C3807 C 0.75890 0.87495 0.89852
 C3808 C 0.77756 0.88285 0.90637
 C3809 C 0.72272 0.88368 0.88378
 C3810 C 0.70643 0.87644 0.87657
 C3811 C 0.79841 0.91574 0.91561
 C3812 C 0.81513 0.92246 0.92230
 H3813 H 0.72459 0.90898 0.92000
 H3814 H 0.75927 0.92367 0.93458
 H3815 H 0.78359 0.92513 0.87519
 H3816 H 0.74893 0.91045 0.86062
 H3817 H 0.75594 0.85796 0.89691
 H3818 H 0.79058 0.87263 0.91148
 C3819 C 0.74298 0.39218 0.39164
 C3820 C 0.74137 0.41536 0.39938
 C3821 C 0.76004 0.42320 0.40731
 C3822 C 0.77848 0.40708 0.40673
 C3823 C 0.77997 0.39997 0.38333
 C3824 C 0.76132 0.39214 0.37540
 C3825 C 0.75150 0.37963 0.41089
 C3826 C 0.77016 0.38747 0.41882
 C3827 C 0.72297 0.38365 0.38303
 C3828 C 0.70667 0.37646 0.37578
 C3829 C 0.79864 0.41542 0.41518
 C3830 C 0.81535 0.42211 0.42194
 H3831 H 0.72685 0.42479 0.39869
 H3832 H 0.76152 0.43935 0.41342
 H3833 H 0.79442 0.40101 0.37382
 H3834 H 0.75978 0.38647 0.35910
 H3835 H 0.74356 0.36582 0.41770
 H3836 H 0.77822 0.38037 0.43242
 C3837 C 0.24311 0.89118 0.39112
 C3838 C 0.26290 0.88504 0.37805
 C3839 C 0.28144 0.89309 0.38603
 C3840 C 0.27839 0.90650 0.40630
 C3841 C 0.26656 0.89181 0.42194
 C3842 C 0.24801 0.88376 0.41395
 C3843 C 0.24352 0.91565 0.39216
 C3844 C 0.26207 0.92371 0.40015
 C3845 C 0.22321 0.88243 0.38245
 C3846 C 0.20701 0.87508 0.37515
 C3847 C 0.29843 0.91509 0.41482
 C3848 C 0.31505 0.92195 0.42164
 H3849 H 0.26239 0.87523 0.36378
 H3850 H 0.29681 0.89018 0.37859
 H3851 H 0.27225 0.88808 0.43788
 H3852 H 0.23781 0.87312 0.42305
 H3853 H 0.23039 0.92575 0.38709
 H3854 H 0.26484 0.94072 0.40191
 C3855 C 0.24273 0.39129 0.89229
 C3856 C 0.23980 0.40491 0.91246
 C3857 C 0.25843 0.41290 0.92034
 C3858 C 0.27815 0.40648 0.90728
 C3859 C 0.27327 0.41374 0.88440
 C3860 C 0.25465 0.40575 0.87651
 C3861 C 0.25893 0.37403 0.89858
 C3862 C 0.27755 0.38201 0.90646
 C3863 C 0.22277 0.38262 0.88372
 C3864 C 0.20652 0.37533 0.87647
 C3865 C 0.29826 0.41499 0.91568
 C3866 C 0.31495 0.42178 0.92240
 H3867 H 0.22446 0.40800 0.91988
 H3868 H 0.25905 0.42284 0.93452
 H3869 H 0.28353 0.42424 0.87519
 H3870 H 0.24896 0.40941 0.86056
 H3871 H 0.25603 0.35703 0.89700
 H3872 H 0.29059 0.37185 0.91163
   
