data_POSCAR
  _audit_creation_date              2014-09-24
  _audit_creation_method            'ToBaCCo'
  _symmetry_space_group_name_H-M    'P1'
  _symmetry_Int_Tables_number       1
  _symmetry_cell_setting            triclinic
  loop_
  _symmetry_equiv_pos_as_xyz
 x,y,z
_cell_length_a 60.1038
_cell_length_b 60.0749
_cell_length_c 61.9812
_cell_angle_alpha 89.939600
_cell_angle_beta 90.063300
_cell_angle_gamma 90.232700
loop_
  _atom_site_label
  _atom_site_type_symbol
  _atom_site_fract_x
  _atom_site_fract_y
  _atom_site_fract_z
C1 C 0.36065 0.29251 -0.01855
 C2 C 0.36985 0.28550 0.00116
 C3 C 0.36372 0.29500 0.02079
 C4 C 0.34744 0.31185 0.02122
 C5 C 0.33722 0.31876 0.00166
 C6 C 0.34364 0.30896 -0.01825
 C7 C 0.33137 0.31430 -0.03689
 C8 C 0.31446 0.33000 -0.03640
 C9 C 0.30887 0.34115 -0.01723
 C10 C 0.31985 0.33481 0.00218
 C11 C 0.34052 0.32132 0.04079
 C12 C 0.32355 0.33695 0.04129
 C13 C 0.31286 0.34374 0.02224
 C14 C 0.29476 0.35858 0.02283
 C15 C 0.28415 0.36470 0.00371
 C16 C 0.29116 0.35685 -0.01651
 H17 H 0.33400 0.30571 -0.05198
 H18 H 0.30517 0.33250 -0.05113
 H19 H 0.34784 0.31635 0.05600
 H20 H 0.31857 0.34333 0.05687
 H21 H 0.38293 0.27310 0.00128
 H22 H 0.27079 0.37675 0.00467
 C23 C 0.63603 0.69857 -0.01190
 C24 C 0.62670 0.70415 0.00818
 C25 C 0.63636 0.69768 0.02768
 C26 C 0.65555 0.68425 0.02754
 C27 C 0.66500 0.67769 0.00757
 C28 C 0.65525 0.68472 -0.01222
 C29 C 0.66421 0.67651 -0.03164
 C30 C 0.68339 0.66362 -0.03178
 C31 C 0.69373 0.65722 -0.01245
 C32 C 0.68417 0.66388 0.00743
 C33 C 0.66525 0.67686 0.04689
 C34 C 0.68401 0.66340 0.04672
 C35 C 0.69369 0.65665 0.02719
 C36 C 0.71278 0.64299 0.02689
 C37 C 0.72261 0.63747 0.00720
 C38 C 0.71333 0.64425 -0.01242
 H39 H 0.65635 0.67961 -0.04703
 H40 H 0.68985 0.65847 -0.04727
 H41 H 0.65831 0.68126 0.06241
 H42 H 0.69093 0.65843 0.06211
 H43 H 0.61253 0.71526 0.00886
 H44 H 0.73735 0.62710 0.00711
 C45 C 0.70650 0.37003 0.96107
 C46 C 0.71371 0.38123 0.97955
 C47 C 0.70806 0.37413 1.00045
 C48 C 0.69346 0.35550 1.00264
 C49 C 0.68630 0.34369 0.98393
 C50 C 0.69299 0.35090 0.96311
 C51 C 0.68543 0.33921 0.94485
 C52 C 0.67178 0.32060 0.94693
 C53 C 0.66458 0.31335 0.96730
 C54 C 0.67184 0.32500 0.98599
 C55 C 0.68435 0.34940 1.02273
 C56 C 0.67020 0.33114 1.02473
 C57 C 0.66418 0.31837 1.00667
 C58 C 0.64987 0.29972 1.00857
 C59 C 0.64336 0.28812 0.99004
 C60 C 0.65021 0.29479 0.96950
 H61 H 0.68987 0.34440 0.92871
 H62 H 0.66676 0.31206 0.93234
 H63 H 0.68745 0.35909 1.03711
 H64 H 0.66370 0.32743 1.04060
 H65 H 0.72509 0.39512 0.97741
 H66 H 0.63223 0.27394 0.99159
 C67 C 0.27138 0.65434 0.98328
 C68 C 0.26027 0.64860 1.00225
 C69 C 0.26747 0.65606 1.02258
 C70 C 0.28574 0.67124 1.02350
 C71 C 0.29720 0.67722 1.00423
 C72 C 0.29019 0.66840 0.98412
 C73 C 0.30180 0.67427 0.96529
 C74 C 0.31968 0.68898 0.96604
 C75 C 0.32631 0.69883 0.98557
 C76 C 0.31530 0.69257 1.00496
 C77 C 0.29160 0.68216 1.04274
 C78 C 0.30923 0.69720 1.04346
 C79 C 0.32197 0.70202 1.02498
 C80 C 0.33996 0.71747 1.02558
 C81 C 0.35000 0.72388 1.00607
 C82 C 0.34367 0.71477 0.98625
 H83 H 0.29702 0.66770 0.94970
 H84 H 0.32810 0.69271 0.95104
 H85 H 0.28205 0.67991 1.05736
 H86 H 0.31218 0.70561 1.05860
 H87 H 0.24650 0.63693 1.00107
 H88 H 0.36376 0.73563 1.00627
 C89 C 0.01835 0.27012 0.34796
 C90 C -0.00187 0.26055 0.35403
 C91 C -0.02233 0.26833 0.34615
 C92 C -0.02219 0.28571 0.33048
 C93 C -0.00164 0.29562 0.32413
 C94 C 0.01866 0.28793 0.33313
 C95 C 0.03881 0.29767 0.32647
 C96 C 0.03915 0.31439 0.31095
 C97 C 0.01936 0.32194 0.30141
 C98 C -0.00128 0.31263 0.30811
 C99 C -0.04166 0.29202 0.31949
 C100 C -0.04129 0.30853 0.30375
 C101 C -0.02145 0.31965 0.29822
 C102 C -0.02085 0.33609 0.28166
 C103 C -0.00011 0.34441 0.27494
 C104 C 0.01976 0.33794 0.28471
 H105 H 0.05460 0.29212 0.33289
 H106 H 0.05518 0.32096 0.30610
 H107 H -0.05732 0.28358 0.32221
 H108 H -0.05671 0.31177 0.29535
 H109 H -0.00156 0.24749 0.36614
 H110 H 0.00063 0.35718 0.26255
 C111 C 0.02803 0.64222 0.69449
 C112 C 0.00691 0.63921 0.70342
 C113 C -0.01246 0.64626 0.69282
 C114 C -0.01043 0.65792 0.67293
 C115 C 0.01105 0.66241 0.66435
 C116 C 0.03031 0.65415 0.67496
 C117 C 0.05127 0.65768 0.66556
 C118 C 0.05349 0.67012 0.64679
 C119 C 0.03481 0.67937 0.63655
 C120 C 0.01332 0.67516 0.64508
 C121 C -0.02913 0.66607 0.66182
 C122 C -0.02691 0.67780 0.64261
 C123 C -0.00585 0.68365 0.63442
 C124 C -0.00336 0.69669 0.61529
 C125 C 0.01821 0.70022 0.60715
 C126 C 0.03714 0.69237 0.61773
 H127 H 0.06625 0.65092 0.67262
 H128 H 0.07004 0.67224 0.64023
 H129 H -0.04582 0.66366 0.66785
 H130 H -0.04208 0.68207 0.63426
 H131 H 0.00552 0.62989 0.71839
 H132 H 0.02061 0.71095 0.59325
 C133 C 1.01821 0.71379 0.35461
 C134 C 0.99787 0.72287 0.36096
 C135 C 0.97763 0.71285 0.35541
 C136 C 0.97754 0.69364 0.34221
 C137 C 0.99803 0.68440 0.33526
 C138 C 1.01844 0.69429 0.34181
 C139 C 1.03849 0.68437 0.33547
 C140 C 1.03858 0.66511 0.32305
 C141 C 1.01866 0.65559 0.31531
 C142 C 0.99810 0.66508 0.32197
 C143 C 0.95753 0.68352 0.33571
 C144 C 0.95756 0.66450 0.32294
 C145 C 0.97760 0.65510 0.31574
 C146 C 0.97772 0.63565 0.30294
 C147 C 0.99801 0.62635 0.29686
 C148 C 1.01857 0.63601 0.30235
 H149 H 1.05440 0.69123 0.34028
 H150 H 1.05457 0.65762 0.31998
 H151 H 0.94158 0.69022 0.34042
 H152 H 0.94165 0.65710 0.31896
 H153 H 0.99783 0.73750 0.37121
 H154 H 0.99763 0.61193 0.28633
 C155 C 1.01531 0.36259 0.70201
 C156 C 0.99520 0.37272 0.70741
 C157 C 0.97487 0.36525 0.69912
 C158 C 0.97451 0.34691 0.68479
 C159 C 0.99484 0.33660 0.67881
 C160 C 1.01531 0.34451 0.68739
 C161 C 1.03518 0.33421 0.68107
 C162 C 1.03502 0.31624 0.66698
 C163 C 1.01507 0.30834 0.65778
 C164 C 0.99470 0.31832 0.66424
 C165 C 0.95448 0.33881 0.67606
 C166 C 0.95427 0.32040 0.66247
 C167 C 0.97415 0.30987 0.65644
 C168 C 0.97400 0.29084 0.64312
 C169 C 0.99406 0.28097 0.63715
 C170 C 1.01475 0.28985 0.64340
 H171 H 1.05115 0.33986 0.68699
 H172 H 1.05079 0.30832 0.66384
 H173 H 0.93871 0.34651 0.67976
 H174 H 0.93830 0.31448 0.65673
 H175 H 0.99530 0.38646 0.71878
 H176 H 0.99340 0.26695 0.62615
 C177 C 0.38528 -0.00656 0.30519
 C178 C 0.39283 0.01453 0.29856
 C179 C 0.38382 0.03423 0.30658
 C180 C 0.36660 0.03328 0.32198
 C181 C 0.35858 0.01228 0.32915
 C182 C 0.36823 -0.00768 0.32114
 C183 C 0.36206 -0.02794 0.33088
 C184 C 0.34535 -0.02889 0.34635
 C185 C 0.33391 -0.00966 0.35287
 C186 C 0.34148 0.01130 0.34502
 C187 C 0.35790 0.05279 0.33108
 C188 C 0.34132 0.05182 0.34662
 C189 C 0.33268 0.03132 0.35365
 C190 C 0.31617 0.03029 0.36980
 C191 C 0.30846 0.00960 0.37690
 C192 C 0.31661 -0.01053 0.36858
 H193 H 0.37066 -0.04325 0.32730
 H194 H 0.34219 -0.04490 0.35373
 H195 H 0.36417 0.06906 0.32664
 H196 H 0.33568 0.06741 0.35336
 H197 H 0.40532 0.01585 0.28600
 H198 H 0.29500 0.00938 0.38854
 C199 C 0.63935 -0.02184 0.70866
 C200 C 0.62854 -0.00169 0.71319
 C201 C 0.63220 0.01757 0.70106
 C202 C 0.64778 0.01729 0.68406
 C203 C 0.65955 -0.00260 0.67949
 C204 C 0.65533 -0.02228 0.69170
 C205 C 0.66838 -0.04122 0.68760
 C206 C 0.68418 -0.04133 0.67119
 C207 C 0.68794 -0.02238 0.65839
 C208 C 0.67580 -0.00270 0.66282
 C209 C 0.65177 0.03634 0.67143
 C210 C 0.66771 0.03623 0.65519
 C211 C 0.68015 0.01702 0.65084
 C212 C 0.69671 0.01696 0.63467
 C213 C 0.70819 -0.00267 0.63021
 C214 C 0.70406 -0.02229 0.64175
 H215 H 0.66699 -0.05605 0.69741
 H216 H 0.69376 -0.05635 0.66893
 H217 H 0.64264 0.05158 0.67400
 H218 H 0.67014 0.05138 0.64601
 H219 H 0.61613 -0.00111 0.72588
 H220 H 0.72077 -0.00261 0.61767
 C221 C 0.29896 0.97360 0.63871
 C222 C 0.29055 0.99343 0.63027
 C223 C 0.29384 1.01400 0.64058
 C224 C 0.30744 1.01482 0.65940
 C225 C 0.31662 0.99481 0.66782
 C226 C 0.31222 0.97415 0.65754
 C227 C 0.32177 0.95465 0.66591
 C228 C 0.33529 0.95532 0.68413
 C229 C 0.33978 0.97551 0.69472
 C230 C 0.33060 0.99551 0.68635
 C231 C 0.31343 1.03517 0.66916
 C232 C 0.32704 1.03583 0.68732
 C233 C 0.33584 1.01624 0.69615
 C234 C 0.34995 1.01681 0.71442
 C235 C 0.35844 0.99695 0.72267
 C236 C 0.35382 0.97642 0.71304
 H237 H 0.31921 0.93869 0.65821
 H238 H 0.34245 0.93983 0.68962
 H239 H 0.30817 1.05095 0.66257
 H240 H 0.33076 1.05194 0.69427
 H241 H 0.27983 0.99248 0.61620
 H242 H 0.36942 0.99754 0.73657
 C243 C 0.61753 0.97478 0.31018
 C244 C 0.61006 0.99462 0.30101
 C245 C 0.61865 1.01552 0.30703
 C246 C 0.63500 1.01632 0.32370
 C247 C 0.64335 0.99618 0.33267
 C248 C 0.63448 0.97536 0.32593
 C249 C 0.64209 0.95575 0.33577
 C250 C 0.65853 0.95638 0.35149
 C251 C 0.66788 0.97668 0.35822
 C252 C 0.65995 0.99686 0.34908
 C253 C 0.64167 1.03656 0.33313
 C254 C 0.65759 1.03721 0.34941
 C255 C 0.66791 1.01769 0.35692
 C256 C 0.68439 1.01820 0.37347
 C257 C 0.69199 0.99790 0.38195
 C258 C 0.68423 0.97736 0.37458
 H259 H 0.63516 0.93965 0.33169
 H260 H 0.66341 0.94075 0.35872
 H261 H 0.63396 1.05213 0.32869
 H262 H 0.66106 1.05326 0.35654
 H263 H 0.59796 0.99346 0.28806
 H264 H 0.70514 0.99792 0.39397
 O265 O 0.85450 0.83150 0.48011
 O266 O 0.82443 0.85390 0.52685
 O267 O 0.85695 0.82579 0.52144
 O268 O 0.82209 0.85966 0.48565
 O269 O 0.79808 0.83196 0.48258
 O270 O 0.83230 0.79852 0.52001
 O271 O 0.79957 0.82693 0.52412
 O272 O 0.83068 0.80355 0.47819
 Cu273 Cu 0.84194 0.84542 0.50374
 Cu274 Cu 0.81276 0.81242 0.50100
 C275 C 0.84795 0.81354 0.47130
 C276 C 0.80657 0.84460 0.53318
 C277 C 0.85069 0.80637 0.52682
 C278 C 0.80404 0.85177 0.47814
 O279 O 0.14637 0.17052 0.48136
 O280 O 0.17597 0.14280 0.52593
 O281 O 0.14306 0.17053 0.52315
 O282 O 0.17846 0.14157 0.48447
 O283 O 0.20251 0.16941 0.48486
 O284 O 0.16704 0.19836 0.52481
 O285 O 0.20043 0.17030 0.52655
 O286 O 0.17022 0.19847 0.48277
 Cu287 Cu 0.15850 0.15366 0.50358
 Cu288 Cu 0.18740 0.18701 0.50487
 C289 C 0.15313 0.18933 0.47454
 C290 C 0.19360 0.15158 0.53348
 C291 C 0.14885 0.18929 0.53070
 C292 C 0.19669 0.15018 0.47831
 O293 O 0.16622 0.81249 0.51047
 O294 O 0.19048 0.85096 0.47091
 O295 O 0.16136 0.81865 0.46938
 O296 O 0.19471 0.84496 0.51207
 O297 O 0.22207 0.82145 0.50588
 O298 O 0.18827 0.79462 0.46326
 O299 O 0.21752 0.82716 0.46453
 O300 O 0.19319 0.78849 0.50440
 Cu301 Cu 0.17549 0.83414 0.49126
 Cu302 Cu 0.20801 0.80554 0.48389
 C303 C 0.17537 0.79384 0.51407
 C304 C 0.20832 0.84586 0.46118
 C305 C 0.16887 0.80192 0.45926
 C306 C 0.21415 0.83793 0.51617
 O307 O 0.84638 0.17935 0.52060
 O308 O 0.81716 0.14448 0.48109
 O309 O 0.84699 0.17584 0.47881
 O310 O 0.81694 0.14780 0.52267
 O311 O 0.78970 0.17217 0.51991
 O312 O 0.82078 0.20135 0.47674
 O313 O 0.79076 0.16969 0.47811
 O314 O 0.81958 0.20424 0.51881
 Cu315 Cu 0.83456 0.15943 0.50099
 Cu316 Cu 0.80256 0.18944 0.49818
 C317 C 0.83802 0.19771 0.52657
 C318 C 0.79889 0.15094 0.47296
 C319 C 0.83921 0.19342 0.47033
 C320 C 0.79803 0.15490 0.52858
 O321 O 0.47899 0.86460 0.84201
 O322 O 0.52080 0.83372 0.87287
 O323 O 0.52203 0.86369 0.84255
 O324 O 0.47807 0.83468 0.87258
 O325 O 0.47741 0.80798 0.84818
 O326 O 0.52154 0.83756 0.81760
 O327 O 0.52073 0.80724 0.84824
 O328 O 0.47813 0.83805 0.81748
 Cu329 Cu 0.50000 0.85185 0.85989
 Cu330 Cu 0.49942 0.82005 0.83037
 C331 C 0.47152 0.85679 0.82440
 C332 C 0.52767 0.81504 0.86609
 C333 C 0.52920 0.85585 0.82487
 C334 C 0.47051 0.81618 0.86585
 O335 O 0.53657 0.17704 0.13799
 O336 O 0.49618 0.14801 0.17207
 O337 O 0.49356 0.17579 0.14001
 O338 O 0.53876 0.14932 0.17043
 O339 O 0.53903 0.17724 0.19351
 O340 O 0.49401 0.20426 0.16245
 O341 O 0.49597 0.17624 0.19482
 O342 O 0.53744 0.20519 0.16079
 Cu343 Cu 0.51629 0.15981 0.15278
 Cu344 Cu 0.51670 0.19365 0.18012
 C345 C 0.54376 0.19614 0.14333
 C346 C 0.48945 0.15686 0.18945
 C347 C 0.48609 0.19457 0.14589
 C348 C 0.54614 0.15831 0.18755
 O349 O 0.52027 0.14918 0.81525
 O350 O 0.47984 0.17607 0.85047
 O351 O 0.47743 0.14811 0.81864
 O352 O 0.52266 0.17817 0.84648
 O353 O 0.51963 0.20579 0.82322
 O354 O 0.47446 0.17568 0.79531
 O355 O 0.47654 0.20395 0.82753
 O356 O 0.51770 0.17671 0.79180
 Cu357 Cu 0.50039 0.16015 0.83502
 Cu358 Cu 0.49678 0.19332 0.80712
 C359 C 0.52577 0.15803 0.79743
 C360 C 0.47133 0.19459 0.84526
 C361 C 0.46832 0.15666 0.80209
 C362 C 0.52874 0.19724 0.83975
 O363 O 0.47507 0.82086 0.15191
 O364 O 0.51964 0.84311 0.18574
 O365 O 0.51758 0.81402 0.15475
 O366 O 0.47742 0.84926 0.18339
 O367 O 0.47154 0.82241 0.20704
 O368 O 0.51171 0.78696 0.17817
 O369 O 0.51428 0.81632 0.20956
 O370 O 0.46899 0.79380 0.17526
 Cu371 Cu 0.49802 0.83442 0.16654
 Cu372 Cu 0.49109 0.80210 0.19486
 C373 C 0.46438 0.80359 0.15762
 C374 C 0.52434 0.83396 0.20362
 C375 C 0.52140 0.79440 0.16143
 C376 C 0.46785 0.84204 0.20029
 O377 O 0.86001 0.54005 0.82004
 O378 O 0.83024 0.49530 0.84794
 O379 O 0.86115 0.49710 0.81837
 O380 O 0.82931 0.53807 0.84938
 O381 O 0.80339 0.53836 0.82417
 O382 O 0.83531 0.49690 0.79305
 O383 O 0.80439 0.49518 0.82263
 O384 O 0.83455 0.54032 0.79439
 Cu385 Cu 0.84778 0.51756 0.83642
 Cu386 Cu 0.81683 0.51775 0.80596
 C387 C 0.85260 0.54775 0.80238
 C388 C 0.81203 0.48788 0.84039
 C389 C 0.85386 0.49012 0.80035
 C390 C 0.81075 0.54500 0.84231
 O391 O 0.16648 0.47719 0.14116
 O392 O 0.13437 0.51686 0.17333
 O393 O 0.16512 0.52033 0.14390
 O394 O 0.13583 0.47402 0.17033
 O395 O 0.16126 0.47323 0.19599
 O396 O 0.19132 0.51930 0.16882
 O397 O 0.16034 0.51661 0.19851
 O398 O 0.19227 0.47592 0.16647
 Cu399 Cu 0.14793 0.49725 0.15464
 Cu400 Cu 0.17891 0.49622 0.18499
 C401 C 0.18477 0.46962 0.14827
 C402 C 0.14166 0.52338 0.19149
 C403 C 0.18331 0.52764 0.15163
 C404 C 0.14335 0.46575 0.18772
 O405 O 0.83712 0.51842 0.14214
 O406 O 0.86366 0.46981 0.16638
 O407 O 0.83339 0.47577 0.13700
 O408 O 0.86639 0.51227 0.17253
 O409 O 0.83937 0.51175 0.19660
 O410 O 0.80743 0.47319 0.16202
 O411 O 0.83807 0.46860 0.19183
 O412 O 0.80987 0.51644 0.16588
 Cu413 Cu 0.85275 0.49424 0.15207
 Cu414 Cu 0.82099 0.49233 0.18155
 C415 C 0.81885 0.52562 0.14953
 C416 C 0.85579 0.46107 0.18339
 C417 C 0.81479 0.46815 0.14345
 C418 C 0.85853 0.51828 0.19063
 O419 O 0.16778 0.52217 0.85998
 O420 O 0.13538 0.47878 0.83251
 O421 O 0.16553 0.47907 0.86284
 O422 O 0.13716 0.52135 0.83048
 O423 O 0.16314 0.51900 0.80547
 O424 O 0.19198 0.47638 0.83836
 O425 O 0.16161 0.47581 0.80780
 O426 O 0.19403 0.51967 0.83527
 Cu427 Cu 0.14896 0.50054 0.84902
 Cu428 Cu 0.18038 0.49740 0.81927
 C429 C 0.18640 0.52841 0.85237
 C430 C 0.14266 0.47026 0.81516
 C431 C 0.18364 0.47058 0.85637
 C432 C 0.14496 0.52717 0.81230
 C433 C 0.29744 0.38534 0.05362
 C434 C 0.28754 0.39646 0.07093
 C435 C 0.26598 0.39070 0.07773
 C436 C 0.25513 0.37255 0.06785
 C437 C 0.26500 0.36152 0.05053
 C438 C 0.28600 0.36812 0.04307
 C439 C 0.25491 0.40449 0.09436
 C440 C 0.23278 0.40739 0.09464
 C441 C 0.22108 0.42308 0.10912
 C442 C 0.19987 0.43039 0.10296
 C443 C 0.18816 0.44543 0.11570
 C444 C 0.19730 0.45342 0.13509
 C445 C 0.21839 0.44582 0.14154
 C446 C 0.23019 0.43077 0.12869
 H447 H 0.31365 0.39067 0.04794
 H448 H 0.29633 0.41021 0.07841
 H449 H 0.23888 0.36704 0.07318
 H450 H 0.25602 0.34819 0.04256
 H451 H 0.26541 0.41413 0.10506
 H452 H 0.22270 0.39926 0.08247
 H453 H 0.19239 0.42463 0.08805
 H454 H 0.17191 0.45082 0.11030
 H455 H 0.22580 0.45155 0.15648
 H456 H 0.24623 0.42508 0.13429
 C457 C 0.71071 0.61654 0.05789
 C458 C 0.72066 0.60552 0.07524
 C459 C 0.74251 0.61078 0.08158
 C460 C 0.75375 0.62824 0.07089
 C461 C 0.74383 0.63913 0.05344
 C462 C 0.72238 0.63315 0.04668
 C463 C 0.75315 0.59702 0.09860
 C464 C 0.77529 0.59482 0.10046
 C465 C 0.78626 0.57824 0.11465
 C466 C 0.80810 0.57200 0.10965
 C467 C 0.81877 0.55532 0.12133
 C468 C 0.80792 0.54452 0.13849
 C469 C 0.78638 0.55138 0.14419
 C470 C 0.77564 0.56812 0.13242
 H471 H 0.69415 0.61167 0.05279
 H472 H 0.71155 0.59230 0.08325
 H473 H 0.77024 0.63348 0.07573
 H474 H 0.75298 0.65203 0.04499
 H475 H 0.74229 0.58667 0.10828
 H476 H 0.78605 0.60386 0.08954
 H477 H 0.81679 0.57963 0.09621
 H478 H 0.83545 0.55060 0.11661
 H479 H 0.77767 0.54352 0.15748
 H480 H 0.75907 0.57294 0.13728
 C481 C 0.72855 0.36718 0.92681
 C482 C 0.73842 0.37747 0.90892
 C483 C 0.73422 0.39996 0.90450
 C484 C 0.71867 0.41153 0.91710
 C485 C 0.70860 0.40119 0.93471
 C486 C 0.71390 0.37915 0.94005
 C487 C 0.74764 0.41187 0.88823
 C488 C 0.75734 0.43125 0.89334
 C489 C 0.77233 0.44365 0.87885
 C490 C 0.78976 0.45592 0.88808
 C491 C 0.80324 0.46946 0.87532
 C492 C 0.79921 0.47147 0.85308
 C493 C 0.78193 0.45892 0.84370
 C494 C 0.76868 0.44493 0.85648
 H495 H 0.73308 0.35026 0.93089
 H496 H 0.75038 0.36833 0.89938
 H497 H 0.71497 0.42883 0.91376
 H498 H 0.69740 0.41068 0.94479
 H499 H 0.75133 0.40378 0.87305
 H500 H 0.75534 0.43773 0.90955
 H501 H 0.79276 0.45524 0.90531
 H502 H 0.81629 0.47906 0.88305
 H503 H 0.77844 0.46023 0.82660
 H504 H 0.75508 0.43589 0.84904
 C505 C 0.24208 0.65179 0.95502
 C506 C 0.23216 0.64066 0.93773
 C507 C 0.24262 0.62227 0.92819
 C508 C 0.26373 0.61577 0.93582
 C509 C 0.27368 0.62701 0.95308
 C510 C 0.26271 0.64481 0.96298
 C511 C 0.22982 0.60905 0.91222
 C512 C 0.23846 0.59294 0.89988
 C513 C 0.22441 0.57761 0.88698
 C514 C 0.23350 0.56704 0.86887
 C515 C 0.22104 0.55137 0.85727
 C516 C 0.19933 0.54577 0.86379
 C517 C 0.19024 0.55641 0.88190
 C518 C 0.20263 0.57208 0.89340
 H519 H 0.23332 0.66536 0.96269
 H520 H 0.21586 0.64593 0.93232
 H521 H 0.27220 0.60141 0.92938
 H522 H 0.28947 0.62124 0.95935
 H523 H 0.21217 0.61245 0.91109
 H524 H 0.25628 0.59061 0.89916
 H525 H 0.25034 0.57079 0.86378
 H526 H 0.22855 0.54336 0.84345
 H527 H 0.17362 0.55237 0.88744
 H528 H 0.19530 0.57921 0.90774
 C529 C 0.04506 0.23900 0.35324
 C530 C 0.06203 0.22882 0.36500
 C531 C 0.07288 0.24024 0.38178
 C532 C 0.06683 0.26247 0.38604
 C533 C 0.04989 0.27267 0.37416
 C534 C 0.03868 0.26087 0.35794
 C535 C 0.08862 0.22761 0.39558
 C536 C 0.10250 0.23695 0.40995
 C537 C 0.11599 0.22378 0.42538
 C538 C 0.13507 0.23349 0.43449
 C539 C 0.14741 0.22214 0.45012
 C540 C 0.14077 0.20087 0.45716
 C541 C 0.12173 0.19108 0.44797
 C542 C 0.10942 0.20241 0.43233
 H543 H 0.03634 0.22958 0.34094
 H544 H 0.06620 0.21169 0.36144
 H545 H 0.07426 0.27178 0.39911
 H546 H 0.04481 0.28943 0.37825
 H547 H 0.08848 0.20968 0.39386
 H548 H 0.10435 0.25485 0.41052
 H549 H 0.14035 0.25001 0.42961
 H550 H 0.16195 0.23020 0.45694
 H551 H 0.11607 0.17480 0.45317
 H552 H 0.09440 0.19463 0.42631
 C553 C 0.07184 0.71466 0.62293
 C554 C 0.09073 0.72515 0.61459
 C555 C 0.09717 0.72164 0.59311
 C556 C 0.08467 0.70682 0.58027
 C557 C 0.06571 0.69638 0.58862
 C558 C 0.05901 0.70047 0.60991
 C559 C 0.11502 0.73583 0.58397
 C560 C 0.12612 0.73101 0.56584
 C561 C 0.14042 0.74750 0.55468
 C562 C 0.15758 0.74011 0.54116
 C563 C 0.16973 0.75527 0.52864
 C564 C 0.16458 0.77806 0.52911
 C565 C 0.14771 0.78549 0.54297
 C566 C 0.13577 0.77042 0.55562
 H567 H 0.06666 0.71835 0.63927
 H568 H 0.09988 0.73668 0.62472
 H569 H 0.08867 0.70417 0.56346
 H570 H 0.05577 0.68577 0.57825
 H571 H 0.11860 0.75130 0.59227
 H572 H 0.12437 0.71473 0.55855
 H573 H 0.16129 0.72252 0.53998
 H574 H 0.18253 0.74905 0.51798
 H575 H 0.14331 0.80294 0.54363
 H576 H 0.12222 0.77670 0.56531
 C577 C 0.94495 0.70999 0.38018
 C578 C 0.92724 0.71978 0.39120
 C579 C 0.92162 0.74213 0.38750
 C580 C 0.93335 0.75416 0.37160
 C581 C 0.95109 0.74435 0.36061
 C582 C 0.95717 0.72229 0.36500
 C583 C 0.90404 0.75236 0.40101
 C584 C 0.90312 0.77428 0.40511
 C585 C 0.88774 0.78438 0.42103
 C586 C 0.89347 0.80509 0.42995
 C587 C 0.88031 0.81474 0.44593
 C588 C 0.86096 0.80397 0.45328
 C589 C 0.85471 0.78363 0.44380
 C590 C 0.86790 0.77395 0.42779
 H591 H 0.94958 0.69302 0.38396
 H592 H 0.91842 0.71009 0.40323
 H593 H 0.92907 0.77116 0.36769
 H594 H 0.96036 0.75408 0.34893
 H595 H 0.89297 0.74112 0.40947
 H596 H 0.91550 0.78523 0.39810
 H597 H 0.90852 0.81360 0.42492
 H598 H 0.88555 0.83049 0.45278
 H599 H 0.83976 0.77503 0.44895
 H600 H 0.86246 0.75836 0.42082
 C601 C 0.94675 0.25958 0.64114
 C602 C 0.92919 0.24864 0.63082
 C603 C 0.91799 0.25868 0.61346
 C604 C 0.92427 0.28038 0.60716
 C605 C 0.94180 0.29135 0.61759
 C606 C 0.95334 0.28086 0.63440
 C607 C 0.90174 0.24500 0.60116
 C608 C 0.88792 0.25294 0.58600
 C609 C 0.87456 0.23815 0.57183
 C610 C 0.85495 0.24620 0.56235
 C611 C 0.84275 0.23299 0.54794
 C612 C 0.85015 0.21154 0.54250
 C613 C 0.86979 0.20352 0.55199
 C614 C 0.88189 0.21666 0.56640
 H615 H 0.95569 0.25118 0.65394
 H616 H 0.92486 0.23193 0.63593
 H617 H 0.91653 0.28860 0.59360
 H618 H 0.94701 0.30764 0.61197
 H619 H 0.90163 0.22731 0.60454
 H620 H 0.88619 0.27068 0.58369
 H621 H 0.84912 0.26281 0.56604
 H622 H 0.82775 0.23969 0.54080
 H623 H 0.87606 0.18715 0.54804
 H624 H 0.89734 0.21013 0.57268
 C625 C 0.37949 0.06978 0.28571
 C626 C 0.38900 0.08788 0.27483
 C627 C 0.41207 0.09138 0.27555
 C628 C 0.42528 0.07762 0.28864
 C629 C 0.41577 0.05976 0.29969
 C630 C 0.39292 0.05537 0.29789
 C631 C 0.42244 0.10805 0.26118
 C632 C 0.44046 0.10271 0.24966
 C633 C 0.45090 0.11748 0.23358
 C634 C 0.46148 0.10767 0.21588
 C635 C 0.47312 0.12068 0.20109
 C636 C 0.47487 0.14382 0.20393
 C637 C 0.46398 0.15378 0.22149
 C638 C 0.45192 0.14072 0.23616
 H639 H 0.36186 0.06647 0.28394
 H640 H 0.37856 0.09834 0.26484
 H641 H 0.44308 0.08027 0.28975
 H642 H 0.42637 0.04881 0.30901
 H643 H 0.41402 0.12370 0.25841
 H644 H 0.44709 0.08600 0.25099
 H645 H 0.46097 0.08978 0.21365
 H646 H 0.48145 0.11247 0.18783
 H647 H 0.46515 0.17157 0.22411
 H648 H 0.44421 0.14866 0.24990
 C649 C 0.59552 0.03611 0.70530
 C650 C 0.58239 0.05310 0.71370
 C651 C 0.59223 0.07175 0.72349
 C652 C 0.61560 0.07348 0.72403
 C653 C 0.62877 0.05632 0.71574
 C654 C 0.61877 0.03737 0.70665
 C655 C 0.57767 0.08725 0.73539
 C656 C 0.58315 0.10821 0.74062
 C657 C 0.56892 0.12132 0.75528
 C658 C 0.56532 0.14407 0.75158
 C659 C 0.55131 0.15624 0.76524
 C660 C 0.54119 0.14589 0.78311
 C661 C 0.54550 0.12330 0.78712
 C662 C 0.55913 0.11116 0.77336
 H663 H 0.58753 0.02151 0.69851
 H664 H 0.56445 0.05129 0.71325
 H665 H 0.62373 0.08735 0.73194
 H666 H 0.64670 0.05735 0.71726
 H667 H 0.56164 0.08080 0.74051
 H668 H 0.59798 0.11592 0.73405
 H669 H 0.57294 0.15227 0.73787
 H670 H 0.54839 0.17367 0.76185
 H671 H 0.53806 0.11482 0.80076
 H672 H 0.56214 0.09378 0.77698
 C673 C 0.35299 0.93951 0.73218
 C674 C 0.36411 0.92248 0.74319
 C675 C 0.38741 0.92278 0.74480
 C676 C 0.39949 0.93947 0.73399
 C677 C 0.38843 0.95627 0.72284
 C678 C 0.36512 0.95668 0.72219
 C679 C 0.39893 0.90626 0.75847
 C680 C 0.41602 0.91236 0.77106
 C681 C 0.42830 0.89706 0.78539
 C682 C 0.43894 0.90598 0.80358
 C683 C 0.45229 0.89265 0.81664
 C684 C 0.45565 0.87013 0.81157
 C685 C 0.44473 0.86104 0.79352
 C686 C 0.43107 0.87437 0.78056
 H687 H 0.33497 0.93971 0.73201
 H688 H 0.35452 0.90968 0.75130
 H689 H 0.41750 0.93976 0.73449
 H690 H 0.39805 0.96936 0.71519
 H691 H 0.39231 0.88949 0.75932
 H692 H 0.42079 0.92978 0.77163
 H693 H 0.43715 0.92344 0.80754
 H694 H 0.46055 0.90020 0.83036
 H695 H 0.44706 0.84375 0.78917
 H696 H 0.42345 0.86710 0.76638
 C697 C 0.58378 0.95148 0.30393
 C698 C 0.57303 0.93378 0.29374
 C699 C 0.58524 0.91797 0.28215
 C700 C 0.60857 0.91979 0.28143
 C701 C 0.61932 0.93778 0.29137
 C702 C 0.60694 0.95390 0.30246
 C703 C 0.57295 0.90197 0.26855
 C704 C 0.58056 0.88191 0.26285
 C705 C 0.56815 0.86853 0.24691
 C706 C 0.56242 0.84630 0.25116
 C707 C 0.54858 0.83460 0.23684
 C708 C 0.54084 0.84488 0.21787
 C709 C 0.54778 0.86672 0.21317
 C710 C 0.56117 0.87843 0.22758
 H711 H 0.57393 0.96387 0.31224
 H712 H 0.55503 0.93283 0.29429
 H713 H 0.61835 0.90816 0.27212
 H714 H 0.63717 0.93964 0.28965
 H715 H 0.55679 0.90719 0.26261
 H716 H 0.59557 0.87523 0.26999
 H717 H 0.56782 0.83837 0.26596
 H718 H 0.54358 0.81775 0.24081
 H719 H 0.54221 0.87514 0.19870
 H720 H 0.56576 0.89546 0.22381
 C721 C 0.37557 0.29633 0.94458
 C722 C 0.38589 0.28687 0.92656
 C723 C 0.39032 0.26397 0.92589
 C724 C 0.38320 0.25052 0.94316
 C725 C 0.37314 0.25994 0.96120
 C726 C 0.36919 0.28300 0.96228
 C727 C 0.40259 0.25460 0.90723
 C728 C 0.41521 0.23631 0.90909
 C729 C 0.42820 0.22603 0.89142
 C730 C 0.43608 0.20437 0.89472
 C731 C 0.44955 0.19410 0.87946
 C732 C 0.45565 0.20528 0.86044
 C733 C 0.44746 0.22686 0.85680
 C734 C 0.43386 0.23720 0.87217
 H735 H 0.37354 0.31423 0.94507
 H736 H 0.39111 0.29758 0.91342
 H737 H 0.38528 0.23265 0.94288
 H738 H 0.36805 0.24904 0.97425
 H739 H 0.40168 0.26344 0.89206
 H740 H 0.41640 0.22818 0.92463
 H741 H 0.43201 0.19536 0.90936
 H742 H 0.45549 0.17745 0.88279
 H743 H 0.45198 0.23593 0.84234
 H744 H 0.42848 0.25405 0.86912
 C745 C 0.63958 0.71862 0.95345
 C746 C 0.62972 0.73024 0.93636
 C747 C 0.60655 0.73234 0.93522
 C748 C 0.59329 0.72158 0.95069
 C749 C 0.60306 0.70976 0.96756
 C750 C 0.62639 0.70823 0.96942
 C751 C 0.59636 0.74649 0.91841
 C752 C 0.57954 0.76015 0.92325
 C753 C 0.56853 0.77495 0.90753
 C754 C 0.55864 0.79447 0.91518
 C755 C 0.54622 0.80795 0.90142
 C756 C 0.54302 0.80195 0.87973
 C757 C 0.55331 0.78260 0.87188
 C758 C 0.56607 0.76924 0.88565
 H759 H 0.65755 0.71888 0.95477
 H760 H 0.64023 0.73852 0.92463
 H761 H 0.57532 0.72248 0.94986
 H762 H 0.59225 0.70175 0.97922
 H763 H 0.60372 0.74680 0.90247
 H764 H 0.57404 0.76125 0.93988
 H765 H 0.56022 0.79913 0.93200
 H766 H 0.53843 0.82267 0.90802
 H767 H 0.55107 0.77752 0.85526
 H768 H 0.57316 0.75403 0.87938
 C769 C 0.35448 0.71247 0.06244
 C770 C 0.36578 0.72107 0.08036
 C771 C 0.37196 0.74360 0.08108
 C772 C 0.36541 0.75768 0.06411
 C773 C 0.35438 0.74911 0.04615
 C774 C 0.34891 0.72634 0.04489
 C775 C 0.38577 0.75184 0.09927
 C776 C 0.40016 0.76878 0.09681
 C777 C 0.41525 0.77751 0.11376
 C778 C 0.42578 0.79798 0.10983
 C779 C 0.44128 0.80656 0.12433
 C780 C 0.44678 0.79484 0.14320
 C781 C 0.43598 0.77451 0.14747
 C782 C 0.42036 0.76586 0.13287
 H783 H 0.35121 0.69474 0.06181
 H784 H 0.37053 0.70991 0.09329
 H785 H 0.36886 0.77536 0.06451
 H786 H 0.34992 0.76041 0.03323
 H787 H 0.38466 0.74305 0.11446
 H788 H 0.40144 0.77677 0.08120
 H789 H 0.42220 0.80732 0.09527
 H790 H 0.44922 0.82230 0.12054
 H791 H 0.43995 0.76505 0.16184
 H792 H 0.41294 0.74986 0.13639
 C793 C 0.65410 0.28383 0.04587
 C794 C 0.64464 0.27439 0.06440
 C795 C 0.62145 0.27265 0.06634
 C796 C 0.60782 0.28181 0.05019
 C797 C 0.61723 0.29143 0.03188
 C798 C 0.64040 0.29213 0.02937
 C799 C 0.61156 0.26025 0.08456
 C800 C 0.59467 0.24608 0.08117
 C801 C 0.58392 0.23272 0.09823
 C802 C 0.57391 0.21252 0.09235
 C803 C 0.56169 0.20026 0.10732
 C804 C 0.55883 0.20815 0.12846
 C805 C 0.56924 0.22819 0.13455
 C806 C 0.58180 0.24036 0.11956
 H807 H 0.67202 0.28407 0.04409
 H808 H 0.65540 0.26751 0.07673
 H809 H 0.58987 0.28113 0.05156
 H810 H 0.60642 0.29783 0.01934
 H811 H 0.61920 0.26153 0.10034
 H812 H 0.58892 0.24337 0.06479
 H813 H 0.57524 0.20638 0.07597
 H814 H 0.55382 0.18494 0.10206
 H815 H 0.56726 0.23470 0.15071
 H816 H 0.58900 0.25611 0.12444
 C817 C 0.26933 0.04629 0.64543
 C818 C 0.25657 0.06347 0.63658
 C819 C 0.25707 0.06771 0.61435
 C820 C 0.27023 0.05424 0.60101
 C821 C 0.28258 0.03680 0.60974
 C822 C 0.28255 0.03270 0.63212
 C823 C 0.24257 0.08509 0.60506
 C824 C 0.24883 0.09734 0.58805
 C825 C 0.23376 0.11276 0.57662
 C826 C 0.24288 0.13108 0.56567
 C827 C 0.22953 0.14444 0.55255
 C828 C 0.20687 0.13938 0.54970
 C829 C 0.19759 0.12136 0.56109
 C830 C 0.21088 0.10824 0.57452
 H831 H 0.26805 0.04299 0.66258
 H832 H 0.24616 0.07336 0.64709
 H833 H 0.27044 0.05670 0.58370
 H834 H 0.29238 0.02660 0.59896
 H835 H 0.22652 0.08787 0.61249
 H836 H 0.26573 0.09600 0.58210
 H837 H 0.26050 0.13475 0.56690
 H838 H 0.23718 0.15810 0.54385
 H839 H 0.18019 0.11704 0.55914
 H840 H 0.20344 0.09392 0.58235
 C841 C 0.70198 0.05506 0.36805
 C842 C 0.71371 0.07330 0.37648
 C843 C 0.71832 0.07453 0.39862
 C844 C 0.70989 0.05799 0.41239
 C845 C 0.69806 0.03997 0.40408
 C846 C 0.69411 0.03798 0.38174
 C847 C 0.73235 0.09272 0.40728
 C848 C 0.74752 0.08863 0.42263
 C849 C 0.76149 0.10582 0.43307
 C850 C 0.78142 0.09912 0.44282
 C851 C 0.79399 0.11407 0.45501
 C852 C 0.78671 0.13604 0.45803
 C853 C 0.76703 0.14299 0.44778
 C854 C 0.75452 0.12802 0.43535
 H855 H 0.70014 0.05379 0.35071
 H856 H 0.72007 0.08592 0.36560
 H857 H 0.71259 0.05889 0.42965
 H858 H 0.69191 0.02751 0.41526
 H859 H 0.73088 0.10917 0.40029
 H860 H 0.75017 0.07157 0.42770
 H861 H 0.78706 0.08208 0.44138
 H862 H 0.80904 0.10815 0.46269
 H863 H 0.76097 0.15980 0.44985
 H864 H 0.73899 0.13360 0.42841
 C865 C 0.74049 0.95851 0.63735
 C866 C 0.75326 0.94103 0.62930
 C867 C 0.74308 0.92267 0.61928
 C868 C 0.71964 0.92159 0.61860
 C869 C 0.70686 0.93912 0.62669
 C870 C 0.71723 0.95784 0.63580
 C871 C 0.75766 0.90592 0.60886
 C872 C 0.75086 0.89184 0.59337
 C873 C 0.76638 0.87835 0.58022
 C874 C 0.75826 0.85932 0.56965
 C875 C 0.77165 0.84768 0.55510
 C876 C 0.79338 0.85506 0.55057
 C877 C 0.80172 0.87375 0.56159
 C878 C 0.78840 0.88529 0.57621
 H879 H 0.74877 0.97287 0.64428
 H880 H 0.77122 0.94229 0.63018
 H881 H 0.71102 0.90750 0.61164
 H882 H 0.68891 0.93839 0.62530
 H883 H 0.77513 0.90645 0.61310
 H884 H 0.73343 0.89071 0.58919
 H885 H 0.74132 0.85374 0.57229
 H886 H 0.76468 0.83341 0.54679
 H887 H 0.81834 0.87993 0.55838
 H888 H 0.79511 0.90025 0.58345
 C889 C 0.30043 0.95226 0.36162
 C890 C 0.28900 0.93338 0.36903
 C891 C 0.28298 0.93152 0.39080
 C892 C 0.28950 0.94830 0.40525
 C893 C 0.30105 0.96697 0.39796
 C894 C 0.30665 0.96941 0.37599
 C895 C 0.26993 0.91210 0.39833
 C896 C 0.25416 0.91432 0.41344
 C897 C 0.24151 0.89560 0.42299
 C898 C 0.25005 0.87385 0.42407
 C899 C 0.23882 0.85736 0.43579
 C900 C 0.21889 0.86230 0.44660
 C901 C 0.20998 0.88381 0.44473
 C902 C 0.22125 0.90027 0.43318
 H903 H 0.30349 0.95383 0.34447
 H904 H 0.28414 0.92061 0.35762
 H905 H 0.28575 0.94695 0.42229
 H906 H 0.30592 0.97944 0.40969
 H907 H 0.27279 0.89614 0.39077
 H908 H 0.25010 0.93087 0.41913
 H909 H 0.26587 0.86977 0.41680
 H910 H 0.24614 0.84096 0.43698
 H911 H 0.19467 0.88819 0.45286
 H912 H 0.21439 0.91691 0.43266
 C913 C 0.04091 0.39411 0.71071
 C914 C 0.05828 0.40328 0.72275
 C915 C 0.07085 0.38985 0.73673
 C916 C 0.06639 0.36695 0.73778
 C917 C 0.04869 0.35783 0.72601
 C918 C 0.03574 0.37138 0.71248
 C919 C 0.08787 0.39980 0.75098
 C920 C 0.08359 0.41854 0.76182
 C921 C 0.09953 0.42937 0.77663
 C922 C 0.09112 0.44164 0.79399
 C923 C 0.10536 0.45398 0.80716
 C924 C 0.12831 0.45473 0.80292
 C925 C 0.13685 0.44204 0.78580
 C926 C 0.12258 0.42932 0.77282
 H927 H 0.03108 0.40485 0.70042
 H928 H 0.06168 0.42095 0.72141
 H929 H 0.07591 0.35636 0.74847
 H930 H 0.04468 0.34034 0.72792
 H931 H 0.10320 0.39083 0.75377
 H932 H 0.06719 0.42590 0.76052
 H933 H 0.07339 0.44199 0.79713
 H934 H 0.09823 0.46370 0.82011
 H935 H 0.15446 0.44238 0.78212
 H936 H 0.12948 0.42032 0.75928
 C937 C 0.05445 0.63862 0.28306
 C938 C 0.07193 0.62811 0.27220
 C939 C 0.07297 0.60482 0.27131
 C940 C 0.05714 0.59219 0.28263
 C941 C 0.03987 0.60260 0.29360
 C942 C 0.03797 0.62598 0.29377
 C943 C 0.08989 0.59381 0.25774
 C944 C 0.08446 0.57615 0.24562
 C945 C 0.10009 0.56447 0.23121
 C946 C 0.09142 0.55361 0.21304
 C947 C 0.10515 0.54091 0.19981
 C948 C 0.12782 0.53838 0.20473
 C949 C 0.13662 0.54943 0.22284
 C950 C 0.12289 0.56250 0.23593
 H951 H 0.05314 0.65656 0.28193
 H952 H 0.08397 0.63815 0.26352
 H953 H 0.05792 0.57418 0.28272
 H954 H 0.02781 0.59225 0.30194
 H955 H 0.10628 0.60124 0.25650
 H956 H 0.06730 0.57050 0.24540
 H957 H 0.07388 0.55478 0.20918
 H958 H 0.09781 0.53251 0.18607
 H959 H 0.15403 0.54773 0.22704
 H960 H 0.12995 0.57033 0.25010
 C961 C 0.94206 0.35324 0.28410
 C962 C 0.92454 0.36469 0.27419
 C963 C 0.92452 0.36832 0.25181
 C964 C 0.94168 0.35901 0.23936
 C965 C 0.95929 0.34792 0.24923
 C966 C 0.95992 0.34504 0.27176
 C967 C 0.90696 0.38245 0.24201
 C968 C 0.91053 0.39412 0.22384
 C969 C 0.89451 0.40962 0.21362
 C970 C 0.89922 0.41685 0.19260
 C971 C 0.88615 0.43296 0.18264
 C972 C 0.86799 0.44239 0.19348
 C973 C 0.86270 0.43470 0.21430
 C974 C 0.87588 0.41848 0.22435
 H975 H 0.94224 0.35194 0.30153
 H976 H 0.91145 0.37155 0.28414
 H977 H 0.94176 0.36035 0.22196
 H978 H 0.97245 0.34141 0.23914
 H979 H 0.89138 0.38399 0.25057
 H980 H 0.92651 0.39286 0.21595
 H981 H 0.91341 0.41032 0.18392
 H982 H 0.89064 0.43838 0.16655
 H983 H 0.84885 0.44173 0.22309
 H984 H 0.87183 0.41364 0.24068
 C985 C 0.95078 0.62834 0.69108
 C986 C 0.93190 0.62016 0.70170
 C987 C 0.92883 0.62397 0.72385
 C988 C 0.94442 0.63733 0.73487
 C989 C 0.96345 0.64509 0.72440
 C990 C 0.96699 0.64062 0.70241
 C991 C 0.90998 0.61278 0.73505
 C992 C 0.91004 0.60876 0.75638
 C993 C 0.89357 0.59468 0.76796
 C994 C 0.89868 0.58841 0.78921
 C995 C 0.88498 0.57375 0.80052
 C996 C 0.86568 0.56499 0.79091
 C997 C 0.85992 0.57195 0.76999
 C998 C 0.87370 0.58670 0.75859
 H999 H 0.95330 0.62395 0.67431
 H1000 H 0.92015 0.61000 0.69278
 H1001 H 0.94230 0.64169 0.75165
 H1002 H 0.97549 0.65472 0.73353
 H1003 H 0.89691 0.60596 0.72503
 H1004 H 0.92398 0.61445 0.76594
 H1005 H 0.91371 0.59440 0.79696
 H1006 H 0.88984 0.56889 0.81668
 H1007 H 0.84505 0.56560 0.76222
 H1008 H 0.86875 0.59148 0.74249
 C1009 C 0.74585 0.64570 0.96271
 C1010 C 0.75774 0.63754 0.94508
 C1011 C 0.74877 0.62065 0.93199
 C1012 C 0.72736 0.61234 0.93677
 C1013 C 0.71546 0.62057 0.95443
 C1014 C 0.72471 0.63719 0.96757
 C1015 C 0.76311 0.61094 0.91495
 C1016 C 0.75567 0.59793 0.89887
 C1017 C 0.77073 0.58617 0.88373
 C1018 C 0.76241 0.57891 0.86375
 C1019 C 0.77561 0.56619 0.84987
 C1020 C 0.79738 0.56027 0.85582
 C1021 C 0.80581 0.56784 0.87567
 C1022 C 0.79266 0.58054 0.88949
 H1023 H 0.75333 0.65835 0.97287
 H1024 H 0.77424 0.64410 0.94195
 H1025 H 0.72004 0.59890 0.92758
 H1026 H 0.69932 0.61354 0.95825
 H1027 H 0.78070 0.61474 0.91591
 H1028 H 0.73797 0.59569 0.89651
 H1029 H 0.74552 0.58281 0.85900
 H1030 H 0.76857 0.56051 0.83475
 H1031 H 0.82243 0.56343 0.88085
 H1032 H 0.79953 0.58509 0.90501
 C1033 C 0.29264 0.37350 0.94712
 C1034 C 0.28190 0.38417 0.92992
 C1035 C 0.25877 0.38728 0.93018
 C1036 C 0.24643 0.37842 0.94746
 C1037 C 0.25711 0.36799 0.96468
 C1038 C 0.28041 0.36546 0.96491
 C1039 C 0.24805 0.40011 0.91251
 C1040 C 0.22913 0.41153 0.91551
 C1041 C 0.21778 0.42539 0.89900
 C1042 C 0.19638 0.43317 0.90385
 C1043 C 0.18520 0.44735 0.88976
 C1044 C 0.19515 0.45424 0.87037
 C1045 C 0.21640 0.44616 0.86517
 C1046 C 0.22767 0.43189 0.87935
 H1047 H 0.31063 0.37259 0.94696
 H1048 H 0.29180 0.39073 0.91676
 H1049 H 0.22848 0.37946 0.94783
 H1050 H 0.24702 0.36158 0.97778
 H1051 H 0.25655 0.40077 0.89716
 H1052 H 0.22143 0.41120 0.93127
 H1053 H 0.18832 0.42847 0.91882
 H1054 H 0.16884 0.45319 0.89428
 H1055 H 0.22454 0.45125 0.85038
 H1056 H 0.24422 0.42660 0.87502
 C1057 C 0.23333 0.64450 0.04119
 C1058 C 0.22267 0.63334 0.05802
 C1059 C 0.23492 0.62404 0.07502
 C1060 C 0.25814 0.62725 0.07544
 C1061 C 0.26885 0.63867 0.05864
 C1062 C 0.25664 0.64719 0.04105
 C1063 C 0.22270 0.61051 0.09124
 C1064 C 0.23203 0.59458 0.10344
 C1065 C 0.21872 0.57871 0.11660
 C1066 C 0.22860 0.56827 0.13446
 C1067 C 0.21697 0.55207 0.14625
 C1068 C 0.19530 0.54574 0.14018
 C1069 C 0.18540 0.55628 0.12236
 C1070 C 0.19695 0.57251 0.11069
 H1071 H 0.22323 0.65110 0.02820
 H1072 H 0.20476 0.63133 0.05736
 H1073 H 0.26817 0.62076 0.08847
 H1074 H 0.28684 0.63971 0.05888
 H1075 H 0.20486 0.61280 0.09194
 H1076 H 0.24986 0.59230 0.10331
 H1077 H 0.24544 0.57253 0.13920
 H1078 H 0.22512 0.54417 0.15982
 H1079 H 0.16880 0.55171 0.11714
 H1080 H 0.18899 0.57949 0.09658
 C1081 C 0.72067 0.40885 0.01750
 C1082 C 0.73270 0.42003 0.03343
 C1083 C 0.74238 0.40835 0.05058
 C1084 C 0.73957 0.38513 0.05164
 C1085 C 0.72764 0.37383 0.03555
 C1086 C 0.71802 0.38550 0.01813
 C1087 C 0.75663 0.42083 0.06592
 C1088 C 0.76060 0.41442 0.08628
 C1089 C 0.77502 0.42764 0.10089
 C1090 C 0.76995 0.42877 0.12295
 C1091 C 0.78290 0.44184 0.13686
 C1092 C 0.80147 0.45365 0.12902
 C1093 C 0.80696 0.45186 0.10707
 C1094 C 0.79387 0.43905 0.09314
 H1095 H 0.71334 0.41860 0.00463
 H1096 H 0.73465 0.43792 0.03221
 H1097 H 0.74744 0.37551 0.06427
 H1098 H 0.72709 0.35582 0.03614
 H1099 H 0.76345 0.43654 0.06034
 H1100 H 0.75212 0.39999 0.09283
 H1101 H 0.75565 0.41993 0.12932
 H1102 H 0.77834 0.44275 0.15373
 H1103 H 0.82122 0.46063 0.10054
 H1104 H 0.79862 0.43798 0.07633
 C1105 C 0.97812 0.70861 0.58194
 C1106 C 0.96191 0.72103 0.57125
 C1107 C 0.94578 0.73269 0.58289
 C1108 C 0.94621 0.73186 0.60554
 C1109 C 0.96268 0.71973 0.61629
 C1110 C 0.97880 0.70764 0.60468
 C1111 C 0.92997 0.74693 0.57097
 C1112 C 0.90923 0.75111 0.57770
 C1113 C 0.89415 0.76570 0.56526
 C1114 C 0.87145 0.76038 0.56368
 C1115 C 0.85718 0.77360 0.55125
 C1116 C 0.86531 0.79268 0.54067
 C1117 C 0.88789 0.79838 0.54294
 C1118 C 0.90218 0.78499 0.55501
 H1119 H 0.99011 0.69960 0.57230
 H1120 H 0.96203 0.72159 0.55378
 H1121 H 0.93448 0.74141 0.61497
 H1122 H 0.96341 0.72076 0.63372
 H1123 H 0.93540 0.75349 0.55554
 H1124 H 0.90277 0.74280 0.59190
 H1125 H 0.86489 0.74570 0.57163
 H1126 H 0.83983 0.76890 0.54990
 H1127 H 0.89466 0.81300 0.53504
 H1128 H 0.91950 0.78980 0.55641
 C1129 C 0.95668 0.23557 0.35815
 C1130 C 0.93869 0.22609 0.36902
 C1131 C 0.92170 0.23943 0.37739
 C1132 C 0.92247 0.26254 0.37359
 C1133 C 0.94044 0.27207 0.36246
 C1134 C 0.95802 0.25874 0.35484
 C1135 C 0.90429 0.22841 0.39064
 C1136 C 0.89174 0.23881 0.40539
 C1137 C 0.87761 0.22648 0.42102
 C1138 C 0.85876 0.23679 0.42980
 C1139 C 0.84593 0.22594 0.44551
 C1140 C 0.85197 0.20470 0.45301
 C1141 C 0.87087 0.19445 0.44424
 C1142 C 0.88356 0.20519 0.42849
 H1143 H 0.96963 0.22465 0.35228
 H1144 H 0.93846 0.20823 0.37151
 H1145 H 0.90950 0.27340 0.37940
 H1146 H 0.94113 0.29002 0.36088
 H1147 H 0.90299 0.21048 0.38922
 H1148 H 0.89228 0.25674 0.40682
 H1149 H 0.85401 0.25331 0.42454
 H1150 H 0.83153 0.23434 0.45206
 H1151 H 0.87609 0.17817 0.44974
 H1152 H 0.89843 0.19702 0.42277
 C1153 C 0.05080 0.29394 0.62486
 C1154 C 0.06876 0.28442 0.61392
 C1155 C 0.07035 0.26125 0.61173
 C1156 C 0.05419 0.24770 0.62166
 C1157 C 0.03621 0.25717 0.63245
 C1158 C 0.03414 0.28044 0.63421
 C1159 C 0.08873 0.25171 0.59875
 C1160 C 0.08651 0.23234 0.58816
 C1161 C 0.10371 0.22192 0.57431
 C1162 C 0.09955 0.20025 0.56689
 C1163 C 0.11440 0.18968 0.55309
 C1164 C 0.13389 0.20052 0.54621
 C1165 C 0.13836 0.22213 0.55380
 C1166 C 0.12340 0.23278 0.56770
 H1167 H 0.04941 0.31191 0.62506
 H1168 H 0.08101 0.29523 0.60646
 H1169 H 0.05531 0.22975 0.62120
 H1170 H 0.02400 0.24618 0.63974
 H1171 H 0.10382 0.26143 0.59727
 H1172 H 0.07084 0.22348 0.58928
 H1173 H 0.08458 0.19143 0.57167
 H1174 H 0.11042 0.17301 0.54763
 H1175 H 0.15322 0.23093 0.54872
 H1176 H 0.12724 0.24956 0.57276
 C1177 C 0.04338 0.74691 0.35635
 C1178 C 0.06132 0.75838 0.36551
 C1179 C 0.07496 0.74810 0.38097
 C1180 C 0.07039 0.72589 0.38691
 C1181 C 0.05239 0.71445 0.37775
 C1182 C 0.03872 0.72491 0.36248
 C1183 C 0.09230 0.76170 0.39186
 C1184 C 0.10959 0.75311 0.40272
 C1185 C 0.12528 0.76687 0.41562
 C1186 C 0.14646 0.75843 0.42045
 C1187 C 0.16098 0.77014 0.43402
 C1188 C 0.15450 0.79047 0.44326
 C1189 C 0.13343 0.79908 0.43816
 C1190 C 0.11896 0.78742 0.42457
 H1191 H 0.03280 0.75535 0.34482
 H1192 H 0.06428 0.77551 0.36082
 H1193 H 0.07998 0.71756 0.39925
 H1194 H 0.04870 0.69765 0.38305
 H1195 H 0.09063 0.77960 0.39075
 H1196 H 0.11261 0.73538 0.40217
 H1197 H 0.15165 0.74255 0.41396
 H1198 H 0.17705 0.76298 0.43773
 H1199 H 0.12784 0.81460 0.44513
 H1200 H 0.10256 0.79421 0.42186
 C1201 C 0.62628 0.93925 0.71105
 C1202 C 0.61652 0.92211 0.72322
 C1203 C 0.61317 0.92460 0.74552
 C1204 C 0.62123 0.94398 0.75563
 C1205 C 0.63061 0.96117 0.74350
 C1206 C 0.63299 0.95929 0.72098
 C1207 C 0.60066 0.90718 0.75765
 C1208 C 0.58933 0.91179 0.77579
 C1209 C 0.57557 0.89573 0.78825
 C1210 C 0.56918 0.90186 0.80918
 C1211 C 0.55473 0.88854 0.82119
 C1212 C 0.54610 0.86869 0.81256
 C1213 C 0.55288 0.86213 0.79180
 C1214 C 0.56746 0.87553 0.77971
 H1215 H 0.62721 0.93737 0.69369
 H1216 H 0.61067 0.90728 0.71504
 H1217 H 0.62017 0.94617 0.77291
 H1218 H 0.63603 0.97611 0.75180
 H1219 H 0.60006 0.89061 0.75087
 H1220 H 0.58963 0.92862 0.78197
 H1221 H 0.57512 0.91730 0.81619
 H1222 H 0.54995 0.89412 0.83713
 H1223 H 0.54644 0.84697 0.78466
 H1224 H 0.57163 0.87033 0.76353
 C1225 C 0.41773 0.97406 0.29053
 C1226 C 0.42698 0.95694 0.27840
 C1227 C 0.41366 0.93965 0.27037
 C1228 C 0.39075 0.93965 0.27502
 C1229 C 0.38139 0.95695 0.28711
 C1230 C 0.39473 0.97454 0.29500
 C1231 C 0.42414 0.92310 0.25595
 C1232 C 0.41630 0.90249 0.25252
 C1233 C 0.42805 0.88678 0.23811
 C1234 C 0.42881 0.86407 0.24335
 C1235 C 0.44131 0.84932 0.23081
 C1236 C 0.45296 0.85699 0.21257
 C1237 C 0.45122 0.87954 0.20675
 C1238 C 0.43891 0.89425 0.21936
 H1239 H 0.42871 0.98702 0.29650
 H1240 H 0.44467 0.95735 0.27504
 H1241 H 0.37986 0.92693 0.26852
 H1242 H 0.36350 0.95717 0.28921
 H1243 H 0.43973 0.92795 0.24849
 H1244 H 0.40204 0.89646 0.26147
 H1245 H 0.42035 0.85789 0.25759
 H1246 H 0.44219 0.83202 0.23563
 H1247 H 0.45981 0.88597 0.19270
 H1248 H 0.43804 0.91154 0.21448
 C1249 C 0.58839 0.03599 0.28946
 C1250 C 0.58106 0.05273 0.27564
 C1251 C 0.59592 0.06866 0.26754
 C1252 C 0.61833 0.06789 0.27398
 C1253 C 0.62581 0.05091 0.28772
 C1254 C 0.61097 0.03448 0.29550
 C1255 C 0.58763 0.08433 0.25098
 C1256 C 0.59617 0.10460 0.24719
 C1257 C 0.58616 0.11922 0.23059
 C1258 C 0.58255 0.14182 0.23500
 C1259 C 0.57038 0.15500 0.22055
 C1260 C 0.56201 0.14584 0.20127
 C1261 C 0.56712 0.12363 0.19624
 C1262 C 0.57901 0.11046 0.21074
 H1263 H 0.57626 0.02408 0.29536
 H1264 H 0.56369 0.05299 0.27095
 H1265 H 0.63033 0.07962 0.26754
 H1266 H 0.64345 0.04988 0.29109
 H1267 H 0.57299 0.07916 0.24201
 H1268 H 0.60928 0.11118 0.25737
 H1269 H 0.58813 0.14895 0.25012
 H1270 H 0.56682 0.17208 0.22485
 H1271 H 0.56111 0.11606 0.18148
 H1272 H 0.58211 0.09322 0.20668
 C1273 C 0.35240 0.04161 0.74662
 C1274 C 0.36270 0.05901 0.75779
 C1275 C 0.37841 0.07279 0.74754
 C1276 C 0.38290 0.06928 0.72547
 C1277 C 0.37250 0.05188 0.71429
 C1278 C 0.35749 0.03769 0.72490
 C1279 C 0.39125 0.08881 0.76098
 C1280 C 0.40427 0.10508 0.75307
 C1281 C 0.41931 0.11876 0.76676
 C1282 C 0.42651 0.13959 0.75917
 C1283 C 0.44198 0.15220 0.77088
 C1284 C 0.45081 0.14409 0.79037
 C1285 C 0.44346 0.12332 0.79808
 C1286 C 0.42796 0.11077 0.78641
 H1287 H 0.34111 0.03060 0.75515
 H1288 H 0.35901 0.06119 0.77476
 H1289 H 0.39523 0.07904 0.71698
 H1290 H 0.37700 0.04876 0.69765
 H1291 H 0.39010 0.08673 0.77830
 H1292 H 0.40407 0.10873 0.73598
 H1293 H 0.42032 0.14604 0.74398
 H1294 H 0.44736 0.16809 0.76443
 H1295 H 0.45005 0.11650 0.81294
 H1296 H 0.42347 0.09448 0.79251
 C1297 C 0.63845 0.72285 0.05968
 C1298 C 0.62819 0.73395 0.07678
 C1299 C 0.60601 0.72922 0.08230
 C1300 C 0.59438 0.71282 0.07056
 C1301 C 0.60462 0.70182 0.05338
 C1302 C 0.62664 0.70690 0.04772
 C1303 C 0.59493 0.74325 0.09872
 C1304 C 0.57674 0.73690 0.10965
 C1305 C 0.56417 0.75214 0.12390
 C1306 C 0.55125 0.74321 0.14068
 C1307 C 0.53788 0.75701 0.15335
 C1308 C 0.53685 0.77999 0.14922
 C1309 C 0.54994 0.78895 0.13254
 C1310 C 0.56345 0.77521 0.12002
 H1311 H 0.65532 0.72728 0.05525
 H1312 H 0.63743 0.74668 0.08538
 H1313 H 0.57707 0.70918 0.07385
 H1314 H 0.59514 0.68986 0.04403
 H1315 H 0.60211 0.75951 0.10180
 H1316 H 0.57076 0.71993 0.10829
 H1317 H 0.55134 0.72547 0.14384
 H1318 H 0.52788 0.74957 0.16600
 H1319 H 0.54944 0.80658 0.12887
 H1320 H 0.57263 0.78262 0.10682
 C1321 C 0.39127 0.29931 0.05083
 C1322 C 0.40371 0.29015 0.06773
 C1323 C 0.40012 0.26803 0.07435
 C1324 C 0.38289 0.25569 0.06453
 C1325 C 0.37057 0.26483 0.04759
 C1326 C 0.37489 0.28655 0.04045
 C1327 C 0.41503 0.25826 0.09097
 C1328 C 0.41915 0.23633 0.09220
 C1329 C 0.43577 0.22612 0.10690
 C1330 C 0.44337 0.20464 0.10204
 C1331 C 0.45946 0.19438 0.11485
 C1332 C 0.46830 0.20528 0.13299
 C1333 C 0.46034 0.22658 0.13825
 C1334 C 0.44420 0.23690 0.12538
 H1335 H 0.39487 0.31608 0.04540
 H1336 H 0.41670 0.30009 0.07514
 H1337 H 0.37896 0.23894 0.06969
 H1338 H 0.35790 0.25481 0.03976
 H1339 H 0.42426 0.26972 0.10105
 H1340 H 0.41126 0.22526 0.08073
 H1341 H 0.43708 0.19585 0.08804
 H1342 H 0.46511 0.17793 0.11036
 H1343 H 0.46670 0.23535 0.15222
 H1344 H 0.43836 0.25318 0.13009
 C1345 C 0.64571 0.25982 0.94817
 C1346 C 0.63464 0.24731 0.93244
 C1347 C 0.61840 0.25711 0.91920
 C1348 C 0.61388 0.27999 0.92173
 C1349 C 0.62507 0.29249 0.93742
 C1350 C 0.64088 0.28244 0.95088
 C1351 C 0.60540 0.24247 0.90446
 C1352 C 0.59197 0.24991 0.88871
 C1353 C 0.57719 0.23523 0.87571
 C1354 C 0.56851 0.24340 0.85622
 C1355 C 0.55321 0.23087 0.84427
 C1356 C 0.54613 0.20985 0.85160
 C1357 C 0.55504 0.20150 0.87093
 C1358 C 0.57029 0.21405 0.88292
 H1359 H 0.65764 0.25171 0.95864
 H1360 H 0.63835 0.22974 0.93102
 H1361 H 0.60113 0.28820 0.91241
 H1362 H 0.62078 0.30984 0.93965
 H1363 H 0.60705 0.22473 0.90691
 H1364 H 0.59169 0.26747 0.88490
 H1365 H 0.57336 0.25971 0.85036
 H1366 H 0.54665 0.23783 0.82946
 H1367 H 0.54978 0.18546 0.87714
 H1368 H 0.57593 0.20735 0.89815
 C1369 C 0.34524 0.73407 0.95020
 C1370 C 0.35756 0.74366 0.93338
 C1371 C 0.38088 0.74234 0.93330
 C1372 C 0.39158 0.73006 0.94958
 C1373 C 0.37928 0.72024 0.96617
 C1374 C 0.35605 0.72246 0.96685
 C1375 C 0.39386 0.75454 0.91673
 C1376 C 0.41268 0.76534 0.92190
 C1377 C 0.42585 0.77890 0.90656
 C1378 C 0.43800 0.79701 0.91467
 C1379 C 0.45184 0.80949 0.90121
 C1380 C 0.45426 0.80385 0.87934
 C1381 C 0.44198 0.78577 0.87109
 C1382 C 0.42775 0.77347 0.88456
 H1383 H 0.32737 0.73627 0.95059
 H1384 H 0.34898 0.75297 0.92095
 H1385 H 0.40950 0.72831 0.94966
 H1386 H 0.38794 0.71137 0.97886
 H1387 H 0.38691 0.75619 0.90068
 H1388 H 0.41807 0.76543 0.93860
 H1389 H 0.43692 0.80143 0.93158
 H1390 H 0.46117 0.82319 0.90813
 H1391 H 0.44359 0.78098 0.85433
 H1392 H 0.41890 0.75932 0.87794
 C1393 C 0.70615 0.94195 0.37160
 C1394 C 0.71795 0.92454 0.38129
 C1395 C 0.71852 0.92248 0.40384
 C1396 C 0.70595 0.93721 0.41648
 C1397 C 0.69395 0.95437 0.40680
 C1398 C 0.69425 0.95714 0.38432
 C1399 C 0.73298 0.90554 0.41395
 C1400 C 0.74476 0.91019 0.43177
 C1401 C 0.76044 0.89452 0.44206
 C1402 C 0.77849 0.90331 0.45362
 C1403 C 0.79303 0.88931 0.46470
 C1404 C 0.78957 0.86617 0.46482
 C1405 C 0.77156 0.85728 0.45311
 C1406 C 0.75716 0.87132 0.44172
 H1407 H 0.70687 0.94399 0.35425
 H1408 H 0.72745 0.91331 0.37126
 H1409 H 0.70565 0.93566 0.43389
 H1410 H 0.68488 0.96591 0.41689
 H1411 H 0.73540 0.88988 0.40565
 H1412 H 0.74391 0.92681 0.43851
 H1413 H 0.78127 0.92113 0.45422
 H1414 H 0.80663 0.89672 0.47368
 H1415 H 0.76843 0.83951 0.45300
 H1416 H 0.74312 0.86408 0.43329
 C1417 C 0.27755 0.93786 0.63854
 C1418 C 0.26830 0.91981 0.62742
 C1419 C 0.27347 0.91611 0.60563
 C1420 C 0.28856 0.93060 0.59528
 C1421 C 0.29769 0.94872 0.60639
 C1422 C 0.29206 0.95261 0.62801
 C1423 C 0.26098 0.89872 0.59365
 C1424 C 0.26808 0.88950 0.57521
 C1425 C 0.25386 0.87480 0.56175
 C1426 C 0.26385 0.85931 0.54789
 C1427 C 0.25091 0.84664 0.53362
 C1428 C 0.22774 0.84956 0.53265
 C1429 C 0.21773 0.86485 0.54673
 C1430 C 0.23060 0.87730 0.56113
 H1431 H 0.27269 0.94085 0.65510
 H1432 H 0.25653 0.90909 0.63568
 H1433 H 0.29247 0.92873 0.57835
 H1434 H 0.30856 0.96019 0.59791
 H1435 H 0.24510 0.89357 0.60027
 H1436 H 0.28481 0.89285 0.56958
 H1437 H 0.28174 0.85725 0.54790
 H1438 H 0.25912 0.83511 0.52286
 H1439 H 0.19992 0.86755 0.54633
 H1440 H 0.22234 0.88953 0.57107
 C1441 C 0.29366 0.06544 0.36774
 C1442 C 0.28220 0.08272 0.37796
 C1443 C 0.28269 0.08469 0.40051
 C1444 C 0.29598 0.07002 0.41258
 C1445 C 0.30762 0.05298 0.40237
 C1446 C 0.30626 0.05030 0.37993
 C1447 C 0.26834 0.10119 0.41135
 C1448 C 0.25706 0.09573 0.42922
 C1449 C 0.24110 0.11059 0.44009
 C1450 C 0.22304 0.10087 0.45085
 C1451 C 0.20825 0.11394 0.46255
 C1452 C 0.21148 0.13706 0.46419
 C1453 C 0.22952 0.14692 0.45328
 C1454 C 0.24415 0.13380 0.44116
 H1455 H 0.29218 0.06345 0.35043
 H1456 H 0.27210 0.09388 0.36837
 H1457 H 0.29704 0.07147 0.42996
 H1458 H 0.31724 0.04147 0.41204
 H1459 H 0.26544 0.11705 0.40353
 H1460 H 0.25835 0.07891 0.43544
 H1461 H 0.22044 0.08302 0.45033
 H1462 H 0.19465 0.10578 0.47089
 H1463 H 0.23245 0.16468 0.45435
 H1464 H 0.25821 0.14168 0.43332
 C1465 C 0.69926 0.03876 0.60038
 C1466 C 0.70739 0.05691 0.58858
 C1467 C 0.72015 0.07351 0.59872
 C1468 C 0.72362 0.07225 0.62116
 C1469 C 0.71528 0.05421 0.63298
 C1470 C 0.70332 0.03722 0.62260
 C1471 C 0.73012 0.09143 0.58537
 C1472 C 0.75004 0.10045 0.58988
 C1473 C 0.76183 0.11570 0.57493
 C1474 C 0.78512 0.11487 0.57405
 C1475 C 0.79686 0.12791 0.55925
 C1476 C 0.78558 0.14248 0.54532
 C1477 C 0.76231 0.14410 0.54684
 C1478 C 0.75050 0.13072 0.56143
 H1479 H 0.69014 0.02572 0.59212
 H1480 H 0.70439 0.05757 0.57136
 H1481 H 0.73290 0.08506 0.62957
 H1482 H 0.71859 0.05321 0.65013
 H1483 H 0.72201 0.09547 0.57026
 H1484 H 0.75920 0.09462 0.60383
 H1485 H 0.79423 0.10357 0.58441
 H1486 H 0.81480 0.12643 0.55856
 H1487 H 0.75320 0.15522 0.53632
 H1488 H 0.73257 0.13214 0.56210
 C1489 C 0.94283 0.63627 0.28053
 C1490 C 0.92585 0.62489 0.26960
 C1491 C 0.92352 0.60176 0.27188
 C1492 C 0.93732 0.59042 0.28649
 C1493 C 0.95399 0.60183 0.29769
 C1494 C 0.95726 0.62475 0.29443
 C1495 C 0.90749 0.58954 0.25811
 C1496 C 0.91307 0.57026 0.24872
 C1497 C 0.89848 0.55812 0.23348
 C1498 C 0.90835 0.54580 0.21687
 C1499 C 0.89529 0.53336 0.20263
 C1500 C 0.87207 0.53253 0.20504
 C1501 C 0.86213 0.54481 0.22174
 C1502 C 0.87521 0.55765 0.23575
 H1503 H 0.94532 0.65385 0.27744
 H1504 H 0.91533 0.63394 0.25846
 H1505 H 0.93555 0.57265 0.28889
 H1506 H 0.96498 0.59261 0.30826
 H1507 H 0.89188 0.59748 0.25406
 H1508 H 0.92971 0.56381 0.25110
 H1509 H 0.92626 0.54580 0.21491
 H1510 H 0.90343 0.52393 0.19004
 H1511 H 0.84427 0.54442 0.22400
 H1512 H 0.86718 0.56665 0.24868
 C1513 C 0.93831 0.36629 0.71874
 C1514 C 0.92111 0.37846 0.72827
 C1515 C 0.92038 0.40170 0.72606
 C1516 C 0.93617 0.41240 0.71289
 C1517 C 0.95312 0.40022 0.70314
 C1518 C 0.95462 0.37715 0.70634
 C1519 C 0.90389 0.41468 0.73843
 C1520 C 0.90971 0.43373 0.74821
 C1521 C 0.89458 0.44680 0.76201
 C1522 C 0.90379 0.45914 0.77902
 C1523 C 0.89039 0.47266 0.79183
 C1524 C 0.86751 0.47454 0.78757
 C1525 C 0.85822 0.46216 0.77052
 C1526 C 0.87162 0.44827 0.75792
 H1527 H 0.93939 0.34855 0.72169
 H1528 H 0.90904 0.36990 0.73829
 H1529 H 0.93569 0.43025 0.71052
 H1530 H 0.96558 0.40891 0.69369
 H1531 H 0.88756 0.40753 0.74113
 H1532 H 0.92684 0.43934 0.74724
 H1533 H 0.92147 0.45838 0.78238
 H1534 H 0.89808 0.48211 0.80472
 H1535 H 0.84065 0.46336 0.76684
 H1536 H 0.86413 0.43927 0.74463
 C1537 C 0.06413 0.64346 0.71519
 C1538 C 0.08076 0.63261 0.72703
 C1539 C 0.07999 0.60942 0.72982
 C1540 C 0.06305 0.59713 0.71962
 C1541 C 0.04667 0.60790 0.70763
 C1542 C 0.04690 0.63114 0.70552
 C1543 C 0.09647 0.59824 0.74385
 C1544 C 0.09028 0.58171 0.75710
 C1545 C 0.10554 0.56979 0.77178
 C1546 C 0.09669 0.56051 0.79066
 C1547 C 0.10982 0.54742 0.80414
 C1548 C 0.13207 0.54288 0.79882
 C1549 C 0.14112 0.55243 0.78004
 C1550 C 0.12800 0.56590 0.76666
 H1551 H 0.06444 0.66144 0.71389
 H1552 H 0.09374 0.64237 0.73468
 H1553 H 0.06236 0.57917 0.72104
 H1554 H 0.03353 0.59813 0.70024
 H1555 H 0.11335 0.60460 0.74430
 H1556 H 0.07281 0.57724 0.75802
 H1557 H 0.07941 0.56316 0.79487
 H1558 H 0.10226 0.54024 0.81841
 H1559 H 0.15819 0.54916 0.77549
 H1560 H 0.13516 0.57249 0.75195
 C1561 C 0.05142 0.36470 0.28958
 C1562 C 0.06868 0.37755 0.28082
 C1563 C 0.07504 0.37486 0.25917
 C1564 C 0.06484 0.35790 0.24691
 C1565 C 0.04755 0.34516 0.25565
 C1566 C 0.04044 0.34876 0.27689
 C1567 C 0.09155 0.39054 0.24967
 C1568 C 0.09155 0.39586 0.22861
 C1569 C 0.10576 0.41339 0.21869
 C1570 C 0.09939 0.42182 0.19849
 C1571 C 0.11169 0.43863 0.18848
 C1572 C 0.13087 0.44742 0.19833
 C1573 C 0.13762 0.43871 0.21837
 C1574 C 0.12521 0.42184 0.22846
 H1575 H 0.04600 0.36781 0.30596
 H1576 H 0.07640 0.39031 0.29068
 H1577 H 0.06985 0.35465 0.23047
 H1578 H 0.03926 0.33289 0.24565
 H1579 H 0.10238 0.39939 0.26069
 H1580 H 0.07926 0.38827 0.21815
 H1581 H 0.08460 0.41556 0.19049
 H1582 H 0.10605 0.44484 0.17301
 H1583 H 0.15241 0.44502 0.22630
 H1584 H 0.13106 0.41543 0.24374
   
