data_POSCAR
  _audit_creation_date              2014-09-24
  _audit_creation_method            'ToBaCCo'
  _symmetry_space_group_name_H-M    'P1'
  _symmetry_Int_Tables_number       1
  _symmetry_cell_setting            triclinic
  loop_
  _symmetry_equiv_pos_as_xyz
 x,y,z
_cell_length_a 39.6208
_cell_length_b 43.7300
_cell_length_c 48.3978
_cell_angle_alpha 90.299600
_cell_angle_beta 89.691100
_cell_angle_gamma 89.862700
loop_
  _atom_site_label
  _atom_site_type_symbol
  _atom_site_fract_x
  _atom_site_fract_y
  _atom_site_fract_z
B1 B 0.26425 0.23674 0.27960
 B2 B 0.22471 0.22670 0.27131
 B3 B 0.23244 0.26238 0.28241
 B4 B 0.27045 0.27339 0.26997
 B5 B 0.28591 0.24387 0.25054
 B6 B 0.25730 0.21473 0.25140
 B7 B 0.22695 0.26371 0.22699
 B8 B 0.26650 0.27377 0.23530
 B9 B 0.25879 0.23810 0.22419
 B10 B 0.22077 0.22706 0.23662
 B11 B 0.20529 0.25659 0.25606
 B12 B 0.23392 0.28573 0.25517
 B13 B 0.73590 0.76863 0.21683
 B14 B 0.72784 0.73203 0.22467
 B15 B 0.76789 0.74308 0.21944
 B16 B 0.77251 0.77891 0.23217
 B17 B 0.73443 0.78953 0.24580
 B18 B 0.70646 0.76030 0.24109
 B19 B 0.75714 0.73967 0.27436
 B20 B 0.76514 0.77628 0.26653
 B21 B 0.72510 0.76513 0.27175
 B22 B 0.72052 0.72936 0.25902
 B23 B 0.75858 0.71877 0.24543
 B24 B 0.78654 0.74798 0.25010
 B25 B 0.74337 0.23404 -0.22612
 B26 B 0.72870 0.26916 -0.23367
 B27 B 0.77002 0.26398 -0.22676
 B28 B 0.78224 0.22988 -0.24022
 B29 B 0.74785 0.21437 -0.25592
 B30 B 0.71448 0.23858 -0.25145
 B31 B 0.76259 0.26804 -0.28201
 B32 B 0.77689 0.23287 -0.27483
 B33 B 0.73571 0.23808 -0.28144
 B34 B 0.72349 0.27208 -0.26799
 B35 B 0.75803 0.28767 -0.25256
 B36 B 0.79139 0.26316 -0.25671
 B37 B 0.27128 0.75994 -0.27394
 B38 B 0.23175 0.76771 -0.26337
 B39 B 0.24150 0.73231 -0.27429
 B40 B 0.28119 0.72402 -0.26409
 B41 B 0.29565 0.75496 -0.24616
 B42 B 0.26473 0.78225 -0.24578
 B43 B 0.24049 0.73217 -0.21867
 B44 B 0.28005 0.72438 -0.22923
 B45 B 0.27021 0.75978 -0.21829
 B46 B 0.23057 0.76808 -0.22858
 B47 B 0.21615 0.73714 -0.24642
 B48 B 0.24704 0.70982 -0.24680
 B49 B 1.23590 1.26863 0.71683
 B50 B 1.22784 1.23203 0.72467
 B51 B 1.26788 1.24308 0.71944
 B52 B 1.27251 1.27891 0.73217
 B53 B 1.23443 1.28953 0.74580
 B54 B 1.20646 1.26030 0.74109
 B55 B 1.25714 1.23967 0.77436
 B56 B 1.26514 1.27628 0.76653
 B57 B 1.22510 1.26513 0.77175
 B58 B 1.22052 1.22936 0.75902
 B59 B 1.25858 1.21877 0.74543
 B60 B 1.28654 1.24798 0.75010
 B61 B 0.76425 0.73674 0.77960
 B62 B 0.72471 0.72670 0.77131
 B63 B 0.73244 0.76238 0.78241
 B64 B 0.77045 0.77339 0.76997
 B65 B 0.78591 0.74387 0.75054
 B66 B 0.75730 0.71473 0.75140
 B67 B 0.72695 0.76371 0.72699
 B68 B 0.76650 0.77377 0.73530
 B69 B 0.75879 0.73810 0.72419
 B70 B 0.72077 0.72706 0.73662
 B71 B 0.70529 0.75659 0.75606
 B72 B 0.73392 0.78573 0.75517
 B73 B 1.24337 0.73404 0.27388
 B74 B 1.22870 0.76916 0.26633
 B75 B 1.27002 0.76398 0.27324
 B76 B 1.28224 0.72988 0.25978
 B77 B 1.24785 0.71437 0.24408
 B78 B 1.21448 0.73858 0.24855
 B79 B 1.26259 0.76804 0.21799
 B80 B 1.27689 0.73287 0.22517
 B81 B 1.23571 0.73807 0.21856
 B82 B 1.22349 0.77208 0.23201
 B83 B 1.25803 0.78767 0.24744
 B84 B 1.29139 0.76316 0.24329
 B85 B 0.77128 1.25994 0.22606
 B86 B 0.73175 1.26771 0.23663
 B87 B 0.74150 1.23231 0.22571
 B88 B 0.78119 1.22402 0.23591
 B89 B 0.79565 1.25496 0.25384
 B90 B 0.76473 1.28225 0.25422
 B91 B 0.74049 1.23217 0.28133
 B92 B 0.78005 1.22438 0.27077
 B93 B 0.77021 1.25978 0.28171
 B94 B 0.73057 1.26808 0.27142
 B95 B 0.71615 1.23714 0.25358
 B96 B 0.74704 1.20982 0.25320
 N97 N 0.55747 1.03966 0.02765
 N98 N 0.58159 1.05932 0.03349
 N99 N 0.53444 0.97528 0.04679
 N100 N 0.54251 0.95538 0.06619
 N101 N 0.55768 0.97552 0.02733
 N102 N 0.58192 0.95581 0.03288
 N103 N 0.53434 1.03961 0.04720
 N104 N 0.54231 1.05930 0.06692
 C105 C 0.57167 1.07173 0.05785
 C106 C 0.57204 0.94310 0.05700
 N107 N 0.43809 0.97577 0.02696
 N108 N 0.41335 0.95668 0.03265
 N109 N 0.46111 1.03980 0.04690
 N110 N 0.45344 1.06027 0.06613
 N111 N 0.43827 1.03987 0.02733
 N112 N 0.41460 1.06032 0.03267
 N113 N 0.46083 0.97551 0.04662
 N114 N 0.45185 0.95623 0.06631
 Mn115 Mn 0.49767 1.00752 0.04719
 C116 C 0.42236 0.94431 0.05705
 C117 C 0.42451 1.07314 0.05677
 N118 N 0.55810 0.97568 -0.03197
 N119 N 0.58097 0.95428 -0.03647
 N120 N 0.53518 1.03999 -0.05131
 N121 N 0.54280 1.06064 -0.07020
 N122 N 0.55798 1.03988 -0.03171
 N123 N 0.58153 1.06041 -0.03667
 N124 N 0.53528 0.97556 -0.05152
 N125 N 0.54214 0.95397 -0.06996
 Mn126 Mn 0.55798 1.00770 -0.00220
 C127 C 0.57064 0.94073 -0.06011
 C128 C 0.57164 1.07347 -0.06058
 N129 N 0.43870 1.03993 -0.03208
 N130 N 0.41419 1.05924 -0.03793
 N131 N 0.46219 0.97557 -0.05171
 N132 N 0.45584 0.95402 -0.07021
 N133 N 0.43888 0.97575 -0.03233
 N134 N 0.41616 0.95442 -0.03704
 N135 N 0.46181 1.03991 -0.05165
 N136 N 0.45338 1.05925 -0.07140
 Mn137 Mn 0.43833 1.00785 -0.00253
 Mn138 Mn 0.49864 1.00776 -0.05189
 Cl139 Cl 0.49815 1.00772 -0.00234
 C140 C 0.42379 1.07148 -0.06231
 C141 C 0.42712 0.94086 -0.06062
 N142 N 1.05747 0.53966 0.52765
 N143 N 1.08159 0.55932 0.53349
 N144 N 1.03444 0.47528 0.54679
 N145 N 1.04251 0.45538 0.56619
 N146 N 1.05768 0.47552 0.52733
 N147 N 1.08192 0.45581 0.53288
 N148 N 1.03434 0.53960 0.54720
 N149 N 1.04231 0.55930 0.56692
 C150 C 1.07167 0.57173 0.55785
 C151 C 1.07204 0.44310 0.55700
 N152 N 0.93809 0.47577 0.52696
 N153 N 0.91335 0.45668 0.53265
 N154 N 0.96111 0.53980 0.54690
 N155 N 0.95344 0.56027 0.56613
 N156 N 0.93827 0.53987 0.52733
 N157 N 0.91460 0.56032 0.53267
 N158 N 0.96083 0.47551 0.54662
 N159 N 0.95185 0.45623 0.56631
 Mn160 Mn 0.99767 0.50752 0.54719
 C161 C 0.92236 0.44431 0.55705
 C162 C 0.92451 0.57313 0.55677
 N163 N 1.05810 0.47568 0.46803
 N164 N 1.08097 0.45428 0.46353
 N165 N 1.03518 0.53999 0.44869
 N166 N 1.04280 0.56064 0.42980
 N167 N 1.05798 0.53988 0.46829
 N168 N 1.08153 0.56042 0.46333
 N169 N 1.03528 0.47556 0.44847
 N170 N 1.04214 0.45397 0.43004
 Mn171 Mn 1.05798 0.50770 0.49780
 C172 C 1.07064 0.44073 0.43989
 C173 C 1.07164 0.57347 0.43942
 N174 N 0.93870 0.53993 0.46792
 N175 N 0.91419 0.55924 0.46207
 N176 N 0.96219 0.47557 0.44829
 N177 N 0.95584 0.45402 0.42979
 N178 N 0.93888 0.47575 0.46767
 N179 N 0.91616 0.45442 0.46296
 N180 N 0.96181 0.53991 0.44835
 N181 N 0.95338 0.55925 0.42860
 Mn182 Mn 0.93833 0.50785 0.49747
 Mn183 Mn 0.99864 0.50776 0.44811
 Cl184 Cl 0.99815 0.50772 0.49766
 C185 C 0.92379 0.57148 0.43768
 C186 C 0.92712 0.44086 0.43938
 N187 N 1.05834 0.53002 0.03068
 N188 N 1.08087 0.55178 0.03495
 N189 N 1.03259 0.46660 0.05020
 N190 N 1.03732 0.44483 0.06859
 N191 N 1.05613 0.46551 0.03102
 N192 N 1.07758 0.44300 0.03594
 N193 N 1.03465 0.53106 0.04974
 N194 N 1.04042 0.55351 0.06744
 C195 C 1.06928 0.56638 0.05792
 C196 C 1.06537 0.43012 0.05938
 N197 N 0.93639 0.46874 0.03138
 N198 N 0.91427 0.44670 0.03598
 N199 N 0.96183 0.53311 0.04987
 N200 N 0.95809 0.55649 0.06701
 N201 N 0.93818 0.53336 0.03097
 N202 N 0.91772 0.55697 0.03478
 N203 N 0.95993 0.46858 0.05037
 N204 N 0.95456 0.44644 0.06827
 Mn205 Mn 0.99723 0.49987 0.05032
 C206 C 0.92604 0.43286 0.05905
 C207 C 0.93050 0.57128 0.05735
 N208 N 1.05623 0.46479 -0.02885
 N209 N 1.07716 0.44169 -0.03347
 N210 N 1.03494 0.53002 -0.04795
 N211 N 1.04135 0.55170 -0.06613
 N212 N 1.05848 0.52929 -0.02896
 N213 N 1.08146 0.55048 -0.03370
 N214 N 1.03269 0.46554 -0.04784
 N215 N 1.03686 0.44296 -0.06573
 Mn216 Mn 1.05769 0.49735 0.00097
 C217 C 1.06461 0.42812 -0.05651
 C218 C 1.07038 0.56445 -0.05690
 N219 N 0.93821 0.53260 -0.02868
 N220 N 0.91668 0.55509 -0.03335
 N221 N 0.96011 0.46751 -0.04766
 N222 N 0.95473 0.44512 -0.06547
 N223 N 0.93646 0.46804 -0.02854
 N224 N 0.91423 0.44604 -0.03301
 N225 N 0.96194 0.53202 -0.04774
 N226 N 0.95714 0.55407 -0.06586
 Mn227 Mn 0.93688 0.50065 0.00130
 Mn228 Mn 0.99742 0.49883 -0.04807
 Cl229 Cl 0.99730 0.49917 0.00112
 C230 C 0.92890 0.56844 -0.05655
 C231 C 0.92609 0.43178 -0.05610
 N232 N 0.55834 1.03002 0.53068
 N233 N 0.58087 1.05178 0.53495
 N234 N 0.53259 0.96660 0.55020
 N235 N 0.53732 0.94483 0.56859
 N236 N 0.55613 0.96551 0.53102
 N237 N 0.57758 0.94300 0.53594
 N238 N 0.53464 1.03106 0.54974
 N239 N 0.54042 1.05351 0.56744
 C240 C 0.56928 1.06638 0.55792
 C241 C 0.56537 0.93012 0.55938
 N242 N 0.43639 0.96874 0.53138
 N243 N 0.41427 0.94670 0.53597
 N244 N 0.46183 1.03311 0.54987
 N245 N 0.45809 1.05649 0.56701
 N246 N 0.43818 1.03336 0.53097
 N247 N 0.41772 1.05697 0.53478
 N248 N 0.45993 0.96858 0.55037
 N249 N 0.45456 0.94644 0.56827
 Mn250 Mn 0.49723 0.99987 0.55032
 C251 C 0.42604 0.93286 0.55905
 C252 C 0.43050 1.07128 0.55735
 N253 N 0.55623 0.96479 0.47115
 N254 N 0.57716 0.94169 0.46653
 N255 N 0.53494 1.03002 0.45205
 N256 N 0.54135 1.05170 0.43387
 N257 N 0.55848 1.02929 0.47104
 N258 N 0.58146 1.05048 0.46630
 N259 N 0.53269 0.96554 0.45216
 N260 N 0.53686 0.94296 0.43427
 Mn261 Mn 0.55769 0.99735 0.50097
 C262 C 0.56461 0.92812 0.44349
 C263 C 0.57038 1.06445 0.44310
 N264 N 0.43821 1.03260 0.47132
 N265 N 0.41668 1.05509 0.46665
 N266 N 0.46011 0.96751 0.45234
 N267 N 0.45473 0.94512 0.43453
 N268 N 0.43646 0.96804 0.47146
 N269 N 0.41423 0.94604 0.46699
 N270 N 0.46194 1.03202 0.45226
 N271 N 0.45714 1.05407 0.43414
 Mn272 Mn 0.43688 1.00065 0.50130
 Mn273 Mn 0.49742 0.99883 0.45193
 Cl274 Cl 0.49730 0.99917 0.50112
 C275 C 0.42890 1.06844 0.44345
 C276 C 0.42609 0.93178 0.44390
 N277 N 1.06745 1.02507 0.52481
 N278 N 1.09305 1.04397 0.52868
 N279 N 1.03752 0.96890 0.55443
 N280 N 1.04124 0.95267 0.57700
 N281 N 1.06153 0.96268 0.53647
 N282 N 1.08241 0.94197 0.54646
 N283 N 1.04298 1.03124 0.54234
 N284 N 1.05073 1.05471 0.55806
 C285 C 1.08172 1.06274 0.54916
 C286 C 1.06910 0.93578 0.57170
 N287 N 0.94154 0.97157 0.53574
 N288 N 0.91700 0.95417 0.54543
 N289 N 0.97181 1.03663 0.54201
 N290 N 0.96724 1.06050 0.55818
 N291 N 0.94713 1.03408 0.52420
 N292 N 0.92460 1.05605 0.52830
 N293 N 0.96566 0.97433 0.55406
 N294 N 0.95838 0.95892 0.57657
 Mn295 Mn 1.00450 1.00276 0.54834
 C296 C 0.92814 0.94627 0.57089
 C297 C 0.93806 1.07274 0.54925
 N298 N 1.06160 0.94872 0.47801
 N299 N 1.08396 0.92650 0.47454
 N300 N 1.04282 1.00813 0.44782
 N301 N 1.04909 1.02468 0.42580
 N302 N 1.06686 1.01125 0.46615
 N303 N 1.09035 1.03013 0.45697
 N304 N 1.03697 0.94585 0.46017
 N305 N 1.04151 0.92151 0.44452
 Mn306 Mn 1.06488 0.98692 0.50135
 C307 C 1.07057 0.90935 0.45391
 C308 C 1.07868 1.03837 0.43175
 N309 N 0.94729 1.02023 0.46560
 N310 N 0.92701 1.04166 0.45607
 N311 N 0.96545 0.95126 0.45969
 N312 N 0.95637 0.92945 0.44255
 N313 N 0.94085 0.95792 0.47700
 N314 N 0.91398 0.94110 0.47144
 N315 N 0.97091 1.01364 0.44740
 N316 N 0.96748 1.03040 0.42506
 Mn317 Mn 0.94373 0.99599 0.50063
 Mn318 Mn 1.00405 0.97967 0.45363
 Cl319 Cl 1.00428 0.99131 0.50098
 C320 C 0.94017 1.04791 0.43081
 C321 C 0.92451 0.92289 0.45030
 N322 N 0.56745 0.52507 0.02480
 N323 N 0.59305 0.54397 0.02868
 N324 N 0.53752 0.46891 0.05443
 N325 N 0.54124 0.45267 0.07700
 N326 N 0.56153 0.46268 0.03647
 N327 N 0.58241 0.44197 0.04646
 N328 N 0.54299 0.53124 0.04234
 N329 N 0.55073 0.55471 0.05806
 C330 C 0.58172 0.56274 0.04916
 C331 C 0.56910 0.43578 0.07170
 N332 N 0.44154 0.47157 0.03574
 N333 N 0.41700 0.45417 0.04543
 N334 N 0.47181 0.53663 0.04201
 N335 N 0.46724 0.56050 0.05818
 N336 N 0.44713 0.53408 0.02420
 N337 N 0.42460 0.55605 0.02830
 N338 N 0.46566 0.47433 0.05406
 N339 N 0.45838 0.45893 0.07657
 Mn340 Mn 0.50450 0.50276 0.04834
 C341 C 0.42814 0.44627 0.07089
 C342 C 0.43806 0.57274 0.04925
 N343 N 0.56160 0.44872 -0.02199
 N344 N 0.58396 0.42650 -0.02545
 N345 N 0.54282 0.50813 -0.05218
 N346 N 0.54909 0.52468 -0.07420
 N347 N 0.56686 0.51125 -0.03385
 N348 N 0.59035 0.53013 -0.04303
 N349 N 0.53697 0.44584 -0.03983
 N350 N 0.54151 0.42151 -0.05548
 Mn351 Mn 0.56488 0.48692 0.00135
 C352 C 0.57057 0.40935 -0.04609
 C353 C 0.57868 0.53837 -0.06825
 N354 N 0.44729 0.52023 -0.03440
 N355 N 0.42701 0.54166 -0.04393
 N356 N 0.46545 0.45126 -0.04031
 N357 N 0.45637 0.42945 -0.05745
 N358 N 0.44085 0.45792 -0.02300
 N359 N 0.41398 0.44110 -0.02856
 N360 N 0.47091 0.51364 -0.05261
 N361 N 0.46748 0.53040 -0.07494
 Mn362 Mn 0.44373 0.49599 0.00063
 Mn363 Mn 0.50405 0.47967 -0.04637
 Cl364 Cl 0.50428 0.49131 0.00098
 C365 C 0.44017 0.54791 -0.06919
 C366 C 0.42451 0.42289 -0.04970
 C367 C 0.30664 1.19161 0.15308
 C368 C 0.27244 1.18652 0.15882
 C369 C 0.25636 1.20262 0.18030
 C370 C 0.27438 1.22399 0.19630
 C371 C 0.30856 1.22937 0.18964
 C372 C 0.32437 1.21352 0.16815
 C373 C 0.32492 1.17245 0.13391
 C374 C 0.34185 1.15620 0.11915
 C375 C 0.36325 1.13651 0.10279
 C376 C 0.35298 1.12654 0.07666
 C377 C 0.37335 1.10640 0.06141
 C378 C 0.40420 1.09596 0.07218
 C379 C 0.41462 1.10652 0.09822
 C380 C 0.39422 1.12668 0.11342
 H381 H 0.25857 1.16927 0.14746
 H382 H 0.23039 1.19717 0.18514
 H383 H 0.32371 1.24503 0.20168
 H384 H 0.35094 1.21743 0.16410
 H385 H 0.32908 1.13401 0.06823
 H386 H 0.36469 1.09864 0.04139
 H387 H 0.43822 1.09886 0.10701
 H388 H 0.40240 1.13429 0.13365
 C389 C 0.80664 0.69161 0.65308
 C390 C 0.77244 0.68652 0.65882
 C391 C 0.75636 0.70262 0.68030
 C392 C 0.77438 0.72399 0.69630
 C393 C 0.80856 0.72937 0.68964
 C394 C 0.82437 0.71352 0.66815
 C395 C 0.82492 0.67245 0.63391
 C396 C 0.84185 0.65620 0.61915
 C397 C 0.86325 0.63651 0.60279
 C398 C 0.85298 0.62654 0.57666
 C399 C 0.87335 0.60640 0.56141
 C400 C 0.90420 0.59596 0.57218
 C401 C 0.91462 0.60652 0.59822
 C402 C 0.89422 0.62668 0.61342
 H403 H 0.75857 0.66927 0.64746
 H404 H 0.73039 0.69717 0.68514
 H405 H 0.82371 0.74503 0.70168
 H406 H 0.85094 0.71743 0.66410
 H407 H 0.82908 0.63401 0.56823
 H408 H 0.86469 0.59864 0.54139
 H409 H 0.93823 0.59886 0.60701
 H410 H 0.90240 0.63429 0.63365
 C411 C 0.69096 0.82263 0.14952
 C412 C 0.67339 0.79819 0.16109
 C413 C 0.68855 0.77993 0.18101
 C414 C 0.72200 0.78536 0.18966
 C415 C 0.74007 0.80924 0.17697
 C416 C 0.72461 0.82779 0.15706
 C417 C 0.67297 0.84357 0.13193
 C418 C 0.65610 0.86074 0.11819
 C419 C 0.63473 0.88101 0.10258
 C420 C 0.60376 0.89084 0.11367
 C421 C 0.58299 0.91069 0.09873
 C422 C 0.59297 0.92097 0.07248
 C423 C 0.62394 0.91072 0.06137
 C424 C 0.64465 0.89089 0.07632
 H425 H 0.64731 0.79403 0.15560
 H426 H 0.67329 0.76234 0.19048
 H427 H 0.76551 0.81464 0.18336
 H428 H 0.73844 0.84682 0.14837
 H429 H 0.59574 0.88328 0.13395
 H430 H 0.55934 0.91821 0.10783
 H431 H 0.63233 0.91823 0.04119
 H432 H 0.66846 0.88341 0.06746
 C433 C 1.19096 0.32263 0.64952
 C434 C 1.17339 0.29819 0.66109
 C435 C 1.18855 0.27993 0.68101
 C436 C 1.22200 0.28536 0.68966
 C437 C 1.24007 0.30924 0.67697
 C438 C 1.22460 0.32779 0.65706
 C439 C 1.17297 0.34357 0.63193
 C440 C 1.15610 0.36074 0.61819
 C441 C 1.13473 0.38101 0.60258
 C442 C 1.10376 0.39084 0.61367
 C443 C 1.08298 0.41069 0.59873
 C444 C 1.09297 0.42097 0.57248
 C445 C 1.12394 0.41072 0.56137
 C446 C 1.14465 0.39089 0.57632
 H447 H 1.14731 0.29403 0.65561
 H448 H 1.17329 0.26234 0.69048
 H449 H 1.26551 0.31464 0.68336
 H450 H 1.23844 0.34682 0.64837
 H451 H 1.09574 0.38328 0.63395
 H452 H 1.05934 0.41821 0.60782
 H453 H 1.13233 0.41823 0.54119
 H454 H 1.16846 0.38341 0.56746
 C455 C 0.69730 1.18377 -0.15661
 C456 C 0.70670 1.16841 -0.18081
 C457 C 0.72365 1.18383 -0.20183
 C458 C 0.73144 1.21521 -0.19925
 C459 C 0.72427 1.22977 -0.17380
 C460 C 0.70696 1.21428 -0.15277
 C461 C 0.67567 1.16844 -0.13706
 C462 C 0.65679 1.15439 -0.12216
 C463 C 0.63399 1.13633 -0.10564
 C464 C 0.60325 1.12651 -0.11677
 C465 C 0.58235 1.10672 -0.10182
 C466 C 0.59205 1.09642 -0.07557
 C467 C 0.62252 1.10706 -0.06425
 C468 C 0.64337 1.12683 -0.07921
 H469 H 0.69967 1.14472 -0.18395
 H470 H 0.72905 1.17121 -0.22062
 H471 H 0.73026 1.25362 -0.17059
 H472 H 0.70003 1.22642 -0.13401
 H473 H 0.59579 1.13360 -0.13727
 H474 H 0.55906 1.09891 -0.11107
 H475 H 0.63065 1.09957 -0.04405
 H476 H 0.66713 1.13413 -0.07042
 C477 C 1.19730 0.68378 0.34339
 C478 C 1.20670 0.66841 0.31920
 C479 C 1.22365 0.68383 0.29817
 C480 C 1.23144 0.71521 0.30075
 C481 C 1.22427 0.72977 0.32620
 C482 C 1.20696 0.71428 0.34723
 C483 C 1.17567 0.66844 0.36294
 C484 C 1.15679 0.65439 0.37784
 C485 C 1.13399 0.63633 0.39436
 C486 C 1.10325 0.62651 0.38323
 C487 C 1.08235 0.60672 0.39818
 C488 C 1.09205 0.59642 0.42443
 C489 C 1.12252 0.60706 0.43575
 C490 C 1.14336 0.62683 0.42079
 H491 H 1.19967 0.64472 0.31605
 H492 H 1.22905 0.67121 0.27938
 H493 H 1.23026 0.75362 0.32941
 H494 H 1.20003 0.72642 0.36599
 H495 H 1.09579 0.63360 0.36273
 H496 H 1.05906 0.59891 0.38893
 H497 H 1.13065 0.59957 0.45595
 H498 H 1.16713 0.63413 0.42958
 C499 C 0.31813 0.81103 -0.15048
 C500 C 0.28305 0.81245 -0.15371
 C501 C 0.26726 0.79475 -0.17409
 C502 C 0.28644 0.77551 -0.19156
 C503 C 0.32158 0.77362 -0.18732
 C504 C 0.33717 0.79107 -0.16692
 C505 C 0.33541 0.83195 -0.13242
 C506 C 0.35122 0.84985 -0.11861
 C507 C 0.37099 0.87165 -0.10333
 C508 C 0.35940 0.88302 -0.07793
 C509 C 0.37804 0.90519 -0.06380
 C510 C 0.40849 0.91629 -0.07496
 C511 C 0.42022 0.90440 -0.10027
 C512 C 0.40154 0.88221 -0.11436
 H513 H 0.26809 0.82807 -0.14121
 H514 H 0.24034 0.79729 -0.17692
 H515 H 0.33746 0.75943 -0.20041
 H516 H 0.36435 0.78990 -0.16475
 H517 H 0.33579 0.87504 -0.06921
 H518 H 0.36839 0.91392 -0.04432
 H519 H 0.44357 0.91252 -0.10934
 H520 H 0.41073 0.87357 -0.13404
 C521 C 0.81813 0.31103 0.34952
 C522 C 0.78305 0.31245 0.34629
 C523 C 0.76726 0.29475 0.32591
 C524 C 0.78644 0.27551 0.30844
 C525 C 0.82158 0.27361 0.31268
 C526 C 0.83717 0.29107 0.33308
 C527 C 0.83541 0.33195 0.36758
 C528 C 0.85122 0.34985 0.38139
 C529 C 0.87099 0.37165 0.39667
 C530 C 0.85940 0.38302 0.42207
 C531 C 0.87804 0.40519 0.43620
 C532 C 0.90849 0.41629 0.42504
 C533 C 0.92022 0.40440 0.39973
 C534 C 0.90154 0.38221 0.38564
 H535 H 0.76809 0.32807 0.35879
 H536 H 0.74034 0.29729 0.32308
 H537 H 0.83746 0.25943 0.29959
 H538 H 0.86435 0.28990 0.33525
 H539 H 0.83579 0.37504 0.43079
 H540 H 0.86839 0.41392 0.45568
 H541 H 0.94357 0.41252 0.39066
 H542 H 0.91073 0.37357 0.36596
 C543 C 1.17010 0.30809 0.15941
 C544 C 1.17090 0.27608 0.16110
 C545 C 1.18927 0.26170 0.18216
 C546 C 1.20710 0.27918 0.20176
 C547 C 1.20595 0.31134 0.19964
 C548 C 1.18785 0.32552 0.17868
 C549 C 1.15041 0.32383 0.13884
 C550 C 1.13430 0.33913 0.12286
 C551 C 1.11544 0.35941 0.10519
 C552 C 1.08405 0.37068 0.11400
 C553 C 1.06736 0.39309 0.09867
 C554 C 1.08188 0.40466 0.07430
 C555 C 1.11295 0.39260 0.06511
 C556 C 1.12966 0.37018 0.08052
 H557 H 1.15705 0.26228 0.14639
 H558 H 1.18900 0.23702 0.18332
 H559 H 1.21910 0.32586 0.21418
 H560 H 1.18740 0.35027 0.17771
 H561 H 1.07288 0.36276 0.13314
 H562 H 1.04343 0.40186 0.10624
 H563 H 1.12474 0.40104 0.04643
 H564 H 1.15407 0.36187 0.07359
 C565 C 0.67010 0.80809 0.65941
 C566 C 0.67091 0.77608 0.66110
 C567 C 0.68927 0.76170 0.68216
 C568 C 0.70710 0.77918 0.70176
 C569 C 0.70595 0.81134 0.69964
 C570 C 0.68785 0.82552 0.67868
 C571 C 0.65041 0.82383 0.63884
 C572 C 0.63430 0.83913 0.62286
 C573 C 0.61544 0.85940 0.60519
 C574 C 0.58405 0.87068 0.61399
 C575 C 0.56736 0.89309 0.59867
 C576 C 0.58188 0.90466 0.57430
 C577 C 0.61295 0.89260 0.56511
 C578 C 0.62966 0.87018 0.58052
 H579 H 0.65705 0.76228 0.64639
 H580 H 0.68900 0.73702 0.68332
 H581 H 0.71910 0.82586 0.71417
 H582 H 0.68740 0.85027 0.67771
 H583 H 0.57288 0.86276 0.63314
 H584 H 0.54343 0.90186 0.60624
 H585 H 0.62474 0.90104 0.54643
 H586 H 0.65407 0.86187 0.57359
 C587 C 1.18538 0.68596 -0.15102
 C588 C 1.20762 0.66961 -0.16805
 C589 C 1.22608 0.68456 -0.18851
 C590 C 1.22307 0.71643 -0.19229
 C591 C 1.20132 0.73289 -0.17447
 C592 C 1.18259 0.71774 -0.15399
 C593 C 1.16416 0.66931 -0.13198
 C594 C 1.14665 0.65368 -0.11720
 C595 C 1.12613 0.63342 -0.10069
 C596 C 1.09484 0.62346 -0.11058
 C597 C 1.07630 0.60153 -0.09601
 C598 C 1.08888 0.58915 -0.07135
 C599 C 1.11994 0.59981 -0.06118
 C600 C 1.13845 0.62173 -0.07580
 H601 H 1.20994 0.64502 -0.16610
 H602 H 1.24208 0.67081 -0.20186
 H603 H 1.19774 0.75725 -0.17696
 H604 H 1.16527 0.73067 -0.14104
 H605 H 1.08510 0.63213 -0.12990
 H606 H 1.05246 0.59382 -0.10434
 H607 H 1.13026 0.59074 -0.04224
 H608 H 1.16272 0.62905 -0.06800
 C609 C 0.68538 1.18596 0.34899
 C610 C 0.70762 1.16961 0.33195
 C611 C 0.72608 1.18456 0.31149
 C612 C 0.72307 1.21643 0.30771
 C613 C 0.70132 1.23289 0.32553
 C614 C 0.68259 1.21774 0.34601
 C615 C 0.66416 1.16931 0.36802
 C616 C 0.64665 1.15368 0.38280
 C617 C 0.62613 1.13342 0.39931
 C618 C 0.59484 1.12346 0.38942
 C619 C 0.57630 1.10153 0.40399
 C620 C 0.58888 1.08915 0.42865
 C621 C 0.61994 1.09981 0.43882
 C622 C 0.63845 1.12173 0.42420
 H623 H 0.70994 1.14502 0.33390
 H624 H 0.74208 1.17081 0.29814
 H625 H 0.69774 1.25725 0.32304
 H626 H 0.66528 1.23067 0.35896
 H627 H 0.58510 1.13213 0.37010
 H628 H 0.55246 1.09382 0.39566
 H629 H 0.63026 1.09074 0.45776
 H630 H 0.66272 1.12905 0.43200
 C631 C 0.82954 0.70163 0.15201
 C632 C 0.81178 0.68350 0.17065
 C633 C 0.79250 0.69682 0.19156
 C634 C 0.79011 0.72893 0.19445
 C635 C 0.80793 0.74723 0.17547
 C636 C 0.82759 0.73363 0.15435
 C637 C 0.84994 0.68617 0.13135
 C638 C 0.86607 0.67012 0.11567
 C639 C 0.88435 0.64825 0.09875
 C640 C 0.86952 0.63581 0.07499
 C641 C 0.88500 0.61134 0.06097
 C642 C 0.91542 0.59879 0.07067
 C643 C 0.93067 0.61203 0.09401
 C644 C 0.91521 0.63651 0.10795
 H645 H 0.81297 0.65878 0.16915
 H646 H 0.77922 0.68153 0.20531
 H647 H 0.80692 0.77190 0.17707
 H648 H 0.84135 0.74799 0.14005
 H649 H 0.84544 0.64437 0.06782
 H650 H 0.87267 0.60167 0.04303
 H651 H 0.95414 0.60297 0.10195
 H652 H 0.92679 0.64560 0.12648
 C653 C 0.32954 1.20163 0.65201
 C654 C 0.31178 1.18350 0.67065
 C655 C 0.29250 1.19682 0.69156
 C656 C 0.29011 1.22893 0.69445
 C657 C 0.30793 1.24723 0.67547
 C658 C 0.32759 1.23363 0.65435
 C659 C 0.34994 1.18617 0.63135
 C660 C 0.36607 1.17012 0.61567
 C661 C 0.38435 1.14825 0.59875
 C662 C 0.36952 1.13581 0.57499
 C663 C 0.38500 1.11134 0.56097
 C664 C 0.41542 1.09879 0.57067
 C665 C 0.43067 1.11203 0.59402
 C666 C 0.41521 1.13651 0.60795
 H667 H 0.31297 1.15878 0.66915
 H668 H 0.27922 1.18153 0.70531
 H669 H 0.30692 1.27190 0.67707
 H670 H 0.34135 1.24799 0.64005
 H671 H 0.34544 1.14437 0.56782
 H672 H 0.37267 1.10167 0.54303
 H673 H 0.45414 1.10296 0.60195
 H674 H 0.42679 1.14560 0.62648
 C675 C 0.82410 0.30770 -0.15663
 C676 C 0.81605 0.27649 -0.15539
 C677 C 0.79906 0.26228 -0.17747
 C678 C 0.78927 0.27924 -0.20082
 C679 C 0.79884 0.31030 -0.20196
 C680 C 0.81558 0.32432 -0.18010
 C681 C 0.84200 0.32340 -0.13479
 C682 C 0.85717 0.33897 -0.11827
 C683 C 0.87565 0.35970 -0.10054
 C684 C 0.86036 0.37284 -0.07711
 C685 C 0.87708 0.39573 -0.06205
 C686 C 0.90919 0.40593 -0.07041
 C687 C 0.92467 0.39203 -0.09350
 C688 C 0.90802 0.36915 -0.10842
 H689 H 0.82312 0.26312 -0.13755
 H690 H 0.79385 0.23805 -0.17632
 H691 H 0.79361 0.32422 -0.21984
 H692 H 0.82218 0.34829 -0.18166
 H693 H 0.83518 0.36602 -0.07091
 H694 H 0.86452 0.40600 -0.04436
 H695 H 0.94941 0.39927 -0.10043
 H696 H 0.92006 0.35944 -0.12662
 C697 C 0.32410 0.80770 0.34337
 C698 C 0.31605 0.77649 0.34461
 C699 C 0.29906 0.76228 0.32253
 C700 C 0.28927 0.77924 0.29918
 C701 C 0.29884 0.81030 0.29804
 C702 C 0.31558 0.82432 0.31990
 C703 C 0.34200 0.82340 0.36521
 C704 C 0.35717 0.83897 0.38173
 C705 C 0.37565 0.85970 0.39946
 C706 C 0.36036 0.87284 0.42289
 C707 C 0.37708 0.89573 0.43795
 C708 C 0.40919 0.90593 0.42959
 C709 C 0.42467 0.89203 0.40650
 C710 C 0.40803 0.86915 0.39158
 H711 H 0.32312 0.76312 0.36245
 H712 H 0.29385 0.73805 0.32368
 H713 H 0.29361 0.82422 0.28016
 H714 H 0.32218 0.84829 0.31834
 H715 H 0.33518 0.86602 0.42909
 H716 H 0.36452 0.90600 0.45564
 H717 H 0.44941 0.89927 0.39957
 H718 H 0.42006 0.85944 0.37338
 C719 C 1.17226 1.15870 0.32282
 C720 C 1.16837 1.15793 0.29411
 C721 C 1.18446 1.17979 0.27767
 C722 C 1.20458 1.20264 0.28984
 C723 C 1.20783 1.20308 0.31884
 C724 C 1.19183 1.18136 0.33510
 C725 C 1.15642 1.13646 0.34014
 C726 C 1.14351 1.11855 0.35565
 C727 C 1.12791 1.09788 0.37465
 C728 C 1.09689 1.08477 0.36803
 C729 C 1.08099 1.06542 0.38676
 C730 C 1.09597 1.05896 0.41237
 C731 C 1.12721 1.07215 0.41890
 C732 C 1.14312 1.09158 0.40007
 H733 H 1.15313 1.14038 0.28445
 H734 H 1.18138 1.17852 0.25548
 H735 H 1.22316 1.21991 0.32925
 H736 H 1.19497 1.18214 0.35733
 H737 H 1.08489 1.08966 0.34847
 H738 H 1.05690 1.05559 0.38118
 H739 H 1.13923 1.06750 0.43848
 H740 H 1.16713 1.10182 0.40536
 C741 C 0.67226 0.65870 -0.17718
 C742 C 0.66837 0.65793 -0.20589
 C743 C 0.68446 0.67979 -0.22233
 C744 C 0.70458 0.70264 -0.21016
 C745 C 0.70783 0.70308 -0.18116
 C746 C 0.69183 0.68136 -0.16490
 C747 C 0.65642 0.63646 -0.15986
 C748 C 0.64351 0.61855 -0.14435
 C749 C 0.62791 0.59788 -0.12535
 C750 C 0.59689 0.58477 -0.13197
 C751 C 0.58099 0.56542 -0.11324
 C752 C 0.59597 0.55896 -0.08763
 C753 C 0.62721 0.57215 -0.08110
 C754 C 0.64312 0.59158 -0.09993
 H755 H 0.65313 0.64038 -0.21555
 H756 H 0.68138 0.67852 -0.24452
 H757 H 0.72316 0.71992 -0.17075
 H758 H 0.69497 0.68214 -0.14267
 H759 H 0.58489 0.58966 -0.15153
 H760 H 0.55690 0.55559 -0.11882
 H761 H 0.63923 0.56750 -0.06152
 H762 H 0.66713 0.60182 -0.09464
 C763 C 0.83802 1.18133 0.66423
 C764 C 0.81305 1.20144 0.65552
 C765 C 0.79420 1.21779 0.67479
 C766 C 0.79988 1.21451 0.70339
 C767 C 0.82537 1.19427 0.71202
 C768 C 0.84436 1.17772 0.69249
 C769 C 0.85630 1.16432 0.64367
 C770 C 0.87059 1.15057 0.62550
 C771 C 0.88740 1.13412 0.60375
 C772 C 0.86871 1.11807 0.58392
 C773 C 0.88528 1.09955 0.56445
 C774 C 0.92057 1.09691 0.56496
 C775 C 0.93912 1.11451 0.58392
 C776 C 0.92259 1.13300 0.60322
 H777 H 0.80792 1.20435 0.63371
 H778 H 0.77496 1.23288 0.66692
 H779 H 0.83048 1.19100 0.73375
 H780 H 0.86373 1.16205 0.69938
 H781 H 0.84139 1.11899 0.58416
 H782 H 0.87049 1.08603 0.55017
 H783 H 0.96639 1.11292 0.58463
 H784 H 0.93722 1.14552 0.61836
 C785 C 0.33801 0.68133 0.16423
 C786 C 0.34435 0.67772 0.19249
 C787 C 0.32537 0.69427 0.21202
 C788 C 0.29988 0.71451 0.20339
 C789 C 0.29420 0.71778 0.17479
 C790 C 0.31305 0.70144 0.15552
 C791 C 0.35630 0.66432 0.14367
 C792 C 0.37059 0.65057 0.12550
 C793 C 0.38739 0.63412 0.10375
 C794 C 0.36871 0.61807 0.08392
 C795 C 0.38528 0.59955 0.06445
 C796 C 0.42057 0.59691 0.06496
 C797 C 0.43912 0.61451 0.08392
 C798 C 0.42259 0.63300 0.10322
 H799 H 0.36373 0.66205 0.19939
 H800 H 0.33048 0.69100 0.23375
 H801 H 0.27496 0.73288 0.16692
 H802 H 0.30792 0.70435 0.13371
 H803 H 0.34139 0.61899 0.08416
 H804 H 0.37049 0.58603 0.05017
 H805 H 0.46639 0.61292 0.08463
 H806 H 0.43722 0.64552 0.11836
 C807 C 1.16650 0.82758 0.68713
 C808 C 1.18881 0.80740 0.67421
 C809 C 1.20922 0.78855 0.68989
 C810 C 1.20776 0.78940 0.71898
 C811 C 1.18499 0.80982 0.73189
 C812 C 1.16444 0.82888 0.71598
 C813 C 1.14666 0.84708 0.67006
 C814 C 1.13166 0.86257 0.65382
 C815 C 1.11538 0.88030 0.63304
 C816 C 1.08421 0.89408 0.63844
 C817 C 1.06881 0.91166 0.61812
 C818 C 1.08453 0.91560 0.59225
 C819 C 1.11559 0.90125 0.58684
 C820 C 1.13095 0.88367 0.60721
 H821 H 1.19061 0.80633 0.65186
 H822 H 1.22620 0.77339 0.67891
 H823 H 1.18308 0.81123 0.75417
 H824 H 1.14717 0.84462 0.72612
 H825 H 1.07197 0.89142 0.65836
 H826 H 1.04481 0.92246 0.62279
 H827 H 1.12818 0.90398 0.56710
 H828 H 1.15509 0.87290 0.60290
 C829 C 0.66650 0.32758 0.18713
 C830 C 0.68881 0.30740 0.17421
 C831 C 0.70922 0.28855 0.18989
 C832 C 0.70776 0.28940 0.21898
 C833 C 0.68499 0.30982 0.23189
 C834 C 0.66444 0.32888 0.21598
 C835 C 0.64666 0.34709 0.17006
 C836 C 0.63166 0.36257 0.15382
 C837 C 0.61538 0.38030 0.13304
 C838 C 0.58421 0.39408 0.13844
 C839 C 0.56881 0.41166 0.11812
 C840 C 0.58453 0.41560 0.09225
 C841 C 0.61559 0.40125 0.08684
 C842 C 0.63095 0.38367 0.10721
 H843 H 0.69061 0.30633 0.15186
 H844 H 0.72620 0.27339 0.17891
 H845 H 0.68308 0.31123 0.25417
 H846 H 0.64717 0.34462 0.22612
 H847 H 0.57197 0.39142 0.15836
 H848 H 0.54481 0.42246 0.12279
 H849 H 0.62818 0.40398 0.06710
 H850 H 0.65509 0.37290 0.10290
 C851 C 0.81404 0.83583 0.32822
 C852 C 0.79081 0.81387 0.33646
 C853 C 0.77545 0.79536 0.31694
 C854 C 0.78276 0.79844 0.28852
 C855 C 0.80590 0.82107 0.28031
 C856 C 0.82160 0.83962 0.30014
 C857 C 0.83152 0.85241 0.34928
 C858 C 0.84616 0.86438 0.36809
 C859 C 0.86459 0.87705 0.39076
 C860 C 0.84883 0.89637 0.41009
 C861 C 0.86781 0.90981 0.43120
 C862 C 0.90261 0.90401 0.43284
 C863 C 0.91770 0.88330 0.41422
 C864 C 0.89877 0.86989 0.39331
 H865 H 0.78511 0.81050 0.35817
 H866 H 0.75841 0.77812 0.32456
 H867 H 0.81224 0.82419 0.25873
 H868 H 0.83992 0.85650 0.29363
 H869 H 0.82221 0.90172 0.40838
 H870 H 0.85576 0.92594 0.44518
 H871 H 0.94450 0.87845 0.41512
 H872 H 0.91103 0.85463 0.37865
 C873 C 0.31404 0.33583 -0.17178
 C874 C 0.29081 0.31387 -0.16354
 C875 C 0.27546 0.29536 -0.18306
 C876 C 0.28276 0.29844 -0.21148
 C877 C 0.30591 0.32107 -0.21969
 C878 C 0.32160 0.33962 -0.19987
 C879 C 0.33152 0.35241 -0.15072
 C880 C 0.34617 0.36438 -0.13192
 C881 C 0.36459 0.37705 -0.10925
 C882 C 0.34883 0.39637 -0.08991
 C883 C 0.36781 0.40981 -0.06880
 C884 C 0.40262 0.40401 -0.06716
 C885 C 0.41770 0.38330 -0.08578
 C886 C 0.39878 0.36989 -0.10669
 H887 H 0.28511 0.31050 -0.14183
 H888 H 0.25841 0.27812 -0.17544
 H889 H 0.31224 0.32419 -0.24127
 H890 H 0.33992 0.35650 -0.20637
 H891 H 0.32221 0.40172 -0.09162
 H892 H 0.35576 0.42594 -0.05482
 H893 H 0.44450 0.37845 -0.08489
 H894 H 0.41103 0.35463 -0.12135
 C895 C 1.16515 0.30478 -0.15902
 C896 C 1.18039 0.32346 -0.17870
 C897 C 1.19883 0.31074 -0.20045
 C898 C 1.20280 0.27876 -0.20312
 C899 C 1.18721 0.25994 -0.18328
 C900 C 1.16849 0.27289 -0.16132
 C901 C 1.14592 0.31936 -0.13717
 C902 C 1.13033 0.33437 -0.12034
 C903 C 1.11213 0.35484 -0.10201
 C904 C 1.12762 0.36678 -0.07832
 C905 C 1.11172 0.38997 -0.06286
 C906 C 1.08025 0.40168 -0.07107
 C907 C 1.06443 0.38886 -0.09435
 C908 C 1.08027 0.36568 -0.10969
 H909 H 1.17803 0.34812 -0.17726
 H910 H 1.21040 0.32638 -0.21489
 H911 H 1.18943 0.23533 -0.18469
 H912 H 1.15665 0.25811 -0.14625
 H913 H 1.15244 0.35889 -0.07231
 H914 H 1.12451 0.39938 -0.04503
 H915 H 1.04014 0.39730 -0.10115
 H916 H 1.06813 0.35693 -0.12810
 C917 C 0.66515 0.80478 0.34098
 C918 C 0.68039 0.82346 0.32130
 C919 C 0.69883 0.81074 0.29955
 C920 C 0.70280 0.77876 0.29688
 C921 C 0.68720 0.75994 0.31672
 C922 C 0.66849 0.77289 0.33868
 C923 C 0.64592 0.81936 0.36283
 C924 C 0.63033 0.83437 0.37966
 C925 C 0.61213 0.85484 0.39799
 C926 C 0.62761 0.86678 0.42168
 C927 C 0.61172 0.88997 0.43714
 C928 C 0.58025 0.90168 0.42893
 C929 C 0.56443 0.88886 0.40565
 C930 C 0.58027 0.86568 0.39031
 H931 H 0.67803 0.84812 0.32274
 H932 H 0.71040 0.82638 0.28511
 H933 H 0.68942 0.73533 0.31531
 H934 H 0.65665 0.75810 0.35375
 H935 H 0.65244 0.85889 0.42769
 H936 H 0.62451 0.89938 0.45497
 H937 H 0.54014 0.89730 0.39885
 H938 H 0.56813 0.85693 0.37190
 C939 C 0.82209 0.69200 -0.15358
 C940 C 0.80369 0.67471 -0.17252
 C941 C 0.78512 0.68902 -0.19312
 C942 C 0.78413 0.72119 -0.19521
 C943 C 0.80244 0.73855 -0.17583
 C944 C 0.82132 0.72403 -0.15513
 C945 C 0.84243 0.67607 -0.13355
 C946 C 0.85898 0.66054 -0.11806
 C947 C 0.87821 0.63996 -0.10093
 C948 C 0.90932 0.62862 -0.11036
 C949 C 0.92625 0.60592 -0.09553
 C950 C 0.91224 0.59413 -0.07105
 C951 C 0.88146 0.60624 -0.06126
 C952 C 0.86453 0.62894 -0.07616
 H953 H 0.80407 0.64995 -0.17165
 H954 H 0.77160 0.67457 -0.20750
 H955 H 0.80278 0.76324 -0.17694
 H956 H 0.83564 0.73772 -0.14066
 H957 H 0.92007 0.63672 -0.12960
 H958 H 0.94992 0.59710 -0.10357
 H959 H 0.87005 0.59765 -0.04247
 H960 H 0.84034 0.63729 -0.06874
 C961 C 0.32209 1.19200 0.34642
 C962 C 0.30369 1.17471 0.32748
 C963 C 0.28512 1.18902 0.30688
 C964 C 0.28413 1.22119 0.30479
 C965 C 0.30244 1.23855 0.32417
 C966 C 0.32132 1.22403 0.34487
 C967 C 0.34243 1.17607 0.36645
 C968 C 0.35898 1.16054 0.38194
 C969 C 0.37821 1.13996 0.39907
 C970 C 0.40932 1.12862 0.38964
 C971 C 0.42625 1.10592 0.40447
 C972 C 0.41224 1.09413 0.42895
 C973 C 0.38146 1.10624 0.43874
 C974 C 0.36453 1.12894 0.42384
 H975 H 0.30407 1.14995 0.32835
 H976 H 0.27160 1.17457 0.29250
 H977 H 0.30278 1.26324 0.32306
 H978 H 0.33563 1.23772 0.35935
 H979 H 0.42007 1.13672 0.37040
 H980 H 0.44992 1.09710 0.39643
 H981 H 0.37005 1.09765 0.45753
 H982 H 0.34034 1.13729 0.43126
 C983 C 1.17923 0.69244 0.15119
 C984 C 1.20298 0.67636 0.16663
 C985 C 1.22150 0.69116 0.18710
 C986 C 1.21704 0.72266 0.19255
 C987 C 1.19371 0.73896 0.17636
 C988 C 1.17488 0.72391 0.15585
 C989 C 1.15840 0.67560 0.13199
 C990 C 1.14156 0.65947 0.11710
 C991 C 1.12200 0.63836 0.10060
 C992 C 1.13564 0.62560 0.07635
 C993 C 1.11815 0.60268 0.06203
 C994 C 1.08684 0.59208 0.07187
 C995 C 1.07295 0.60554 0.09584
 C996 C 1.09044 0.62845 0.11009
 H997 H 1.20661 0.65204 0.16334
 H998 H 1.23902 0.67754 0.19894
 H999 H 1.18927 0.76306 0.18004
 H1000 H 1.15643 0.73665 0.14411
 H1001 H 1.16016 0.63283 0.06888
 H1002 H 1.12948 0.59279 0.04362
 H1003 H 1.04886 0.59793 0.10391
 H1004 H 1.07968 0.63790 0.12893
 C1005 C 0.67923 1.19244 0.65119
 C1006 C 0.67488 1.22391 0.65585
 C1007 C 0.69371 1.23896 0.67636
 C1008 C 0.71704 1.22266 0.69255
 C1009 C 0.72150 1.19116 0.68709
 C1010 C 0.70298 1.17636 0.66663
 C1011 C 0.65840 1.17560 0.63199
 C1012 C 0.64156 1.15947 0.61710
 C1013 C 0.62200 1.13836 0.60060
 C1014 C 0.59044 1.12845 0.61010
 C1015 C 0.57295 1.10554 0.59584
 C1016 C 0.58684 1.09208 0.57187
 C1017 C 0.61815 1.10268 0.56203
 C1018 C 0.63564 1.12560 0.57635
 H1019 H 0.65643 1.23665 0.64411
 H1020 H 0.68927 1.26306 0.68004
 H1021 H 0.73902 1.17754 0.69894
 H1022 H 0.70661 1.15204 0.66334
 H1023 H 0.57968 1.13790 0.62893
 H1024 H 0.54886 1.09793 0.60391
 H1025 H 0.62948 1.09279 0.54362
 H1026 H 0.66016 1.13283 0.56888
 C1027 C 0.82230 0.30671 0.15639
 C1028 C 0.80196 0.32301 0.17495
 C1029 C 0.78532 0.30798 0.19634
 C1030 C 0.78819 0.27602 0.19958
 C1031 C 0.80832 0.25962 0.18050
 C1032 C 0.82528 0.27488 0.15904
 C1033 C 0.84134 0.32356 0.13599
 C1034 C 0.85701 0.33969 0.12029
 C1035 C 0.87561 0.36079 0.10311
 C1036 C 0.86101 0.37312 0.07929
 C1037 C 0.87774 0.39606 0.06444
 C1038 C 0.90919 0.40712 0.07337
 C1039 C 0.92400 0.39408 0.09691
 C1040 C 0.90731 0.37115 0.11165
 H1041 H 0.79955 0.34763 0.17329
 H1042 H 0.77044 0.32172 0.21055
 H1043 H 0.81176 0.23519 0.18254
 H1044 H 0.84123 0.26198 0.14494
 H1045 H 0.83636 0.36553 0.07258
 H1046 H 0.86572 0.40565 0.04640
 H1047 H 0.94822 0.40202 0.10427
 H1048 H 0.91879 0.36203 0.13014
 C1049 C 0.32230 0.80671 0.65639
 C1050 C 0.30196 0.82301 0.67495
 C1051 C 0.28532 0.80798 0.69634
 C1052 C 0.28819 0.77602 0.69958
 C1053 C 0.30832 0.75962 0.68050
 C1054 C 0.32528 0.77488 0.65904
 C1055 C 0.34134 0.82356 0.63599
 C1056 C 0.35701 0.83969 0.62029
 C1057 C 0.37561 0.86079 0.60311
 C1058 C 0.36101 0.87311 0.57929
 C1059 C 0.37774 0.89606 0.56444
 C1060 C 0.40919 0.90712 0.57337
 C1061 C 0.42400 0.89408 0.59691
 C1062 C 0.40731 0.87114 0.61165
 H1063 H 0.29955 0.84763 0.67329
 H1064 H 0.27044 0.82172 0.71055
 H1065 H 0.31176 0.73519 0.68254
 H1066 H 0.34123 0.76198 0.64494
 H1067 H 0.33636 0.86553 0.57257
 H1068 H 0.36572 0.90564 0.54640
 H1069 H 0.44822 0.90202 0.60427
 H1070 H 0.41879 0.86203 0.63014
 C1071 C 0.30241 1.18680 -0.15771
 C1072 C 0.31964 1.21138 -0.16934
 C1073 C 0.30441 1.22912 -0.18958
 C1074 C 0.27117 1.22311 -0.19844
 C1075 C 0.25350 1.19891 -0.18585
 C1076 C 0.26905 1.18086 -0.16562
 C1077 C 0.32057 1.16653 -0.13964
 C1078 C 0.33771 1.15004 -0.12549
 C1079 C 0.35955 1.13072 -0.10939
 C1080 C 0.39072 1.12115 -0.12028
 C1081 C 0.41202 1.10228 -0.10484
 C1082 C 0.40237 1.09274 -0.07828
 C1083 C 0.37120 1.10275 -0.06737
 C1084 C 0.34996 1.12160 -0.08283
 H1085 H 0.34554 1.21606 -0.16363
 H1086 H 0.31951 1.24680 -0.19909
 H1087 H 0.22835 1.19290 -0.19254
 H1088 H 0.25553 1.16165 -0.15694
 H1089 H 0.39848 1.12816 -0.14079
 H1090 H 0.43581 1.09491 -0.11379
 H1091 H 0.36306 1.09578 -0.04696
 H1092 H 0.32601 1.12893 -0.07411
 C1093 C 0.80240 0.68679 0.34229
 C1094 C 0.81964 0.71138 0.33066
 C1095 C 0.80441 0.72912 0.31042
 C1096 C 0.77117 0.72311 0.30156
 C1097 C 0.75350 0.69891 0.31415
 C1098 C 0.76905 0.68086 0.33438
 C1099 C 0.82057 0.66653 0.36036
 C1100 C 0.83771 0.65004 0.37451
 C1101 C 0.85955 0.63071 0.39061
 C1102 C 0.89072 0.62115 0.37972
 C1103 C 0.91202 0.60228 0.39516
 C1104 C 0.90236 0.59274 0.42172
 C1105 C 0.87120 0.60275 0.43263
 C1106 C 0.84996 0.62160 0.41717
 H1107 H 0.84554 0.71606 0.33637
 H1108 H 0.81951 0.74680 0.30091
 H1109 H 0.72835 0.69290 0.30746
 H1110 H 0.75553 0.66165 0.34306
 H1111 H 0.89848 0.62816 0.35921
 H1112 H 0.93581 0.59491 0.38621
 H1113 H 0.86306 0.59578 0.45304
 H1114 H 0.82601 0.62893 0.42589
 C1115 C 0.69192 1.18415 0.15665
 C1116 C 0.72697 1.18168 0.15979
 C1117 C 0.74330 1.19800 0.18087
 C1118 C 0.72468 1.21691 0.19904
 C1119 C 0.68951 1.21944 0.19514
 C1120 C 0.67345 1.20344 0.17410
 C1121 C 0.67384 1.16547 0.13718
 C1122 C 0.65673 1.14990 0.12218
 C1123 C 0.63487 1.13127 0.10547
 C1124 C 0.64480 1.12213 0.07892
 C1125 C 0.62381 1.10328 0.06319
 C1126 C 0.59262 1.09331 0.07387
 C1127 C 0.58256 1.10303 0.10037
 C1128 C 0.60360 1.12190 0.11607
 H1129 H 0.74149 1.16652 0.14651
 H1130 H 0.77017 1.19488 0.18351
 H1131 H 0.67397 1.23332 0.20875
 H1132 H 0.64630 1.20539 0.17201
 H1133 H 0.66889 1.12929 0.07049
 H1134 H 0.63222 1.09615 0.04282
 H1135 H 0.55873 1.09569 0.10911
 H1136 H 0.59564 1.12891 0.13660
 C1137 C 1.19192 0.68415 0.65665
 C1138 C 1.22697 0.68168 0.65980
 C1139 C 1.24330 0.69800 0.68087
 C1140 C 1.22468 0.71691 0.69904
 C1141 C 1.18951 0.71944 0.69514
 C1142 C 1.17345 0.70344 0.67410
 C1143 C 1.17384 0.66547 0.63718
 C1144 C 1.15673 0.64990 0.62218
 C1145 C 1.13487 0.63126 0.60547
 C1146 C 1.14480 0.62213 0.57892
 C1147 C 1.12380 0.60328 0.56319
 C1148 C 1.09262 0.59331 0.57387
 C1149 C 1.08256 0.60303 0.60037
 C1150 C 1.10360 0.62189 0.61607
 H1151 H 1.24149 0.66652 0.64651
 H1152 H 1.27017 0.69488 0.68351
 H1153 H 1.17397 0.73332 0.70875
 H1154 H 1.14631 0.70539 0.67202
 H1155 H 1.16889 0.62929 0.57049
 H1156 H 1.13222 0.59615 0.54282
 H1157 H 1.05873 0.59569 0.60911
 H1158 H 1.09564 0.62891 0.63660
 C1159 C 0.68424 0.81151 -0.14830
 C1160 C 0.71864 0.81592 -0.15373
 C1161 C 0.73492 0.79867 -0.17433
 C1162 C 0.71691 0.77684 -0.18984
 C1163 C 0.68264 0.77185 -0.18322
 C1164 C 0.66660 0.78889 -0.16258
 C1165 C 0.66584 0.83223 -0.13059
 C1166 C 0.64920 0.84998 -0.11707
 C1167 C 0.62861 0.87162 -0.10208
 C1168 C 0.63905 0.88275 -0.07638
 C1169 C 0.61976 0.90485 -0.06252
 C1170 C 0.58980 0.91614 -0.07423
 C1171 C 0.57916 0.90446 -0.09982
 C1172 C 0.59851 0.88233 -0.11367
 H1173 H 0.73247 0.83363 -0.14295
 H1174 H 0.76102 0.80372 -0.17908
 H1175 H 0.66756 0.75576 -0.19486
 H1176 H 0.63991 0.78544 -0.15873
 H1177 H 0.66229 0.87465 -0.06724
 H1178 H 0.62856 0.91340 -0.04280
 H1179 H 0.55622 0.91273 -0.10930
 H1180 H 0.59023 0.87387 -0.13358
 C1181 C 1.18424 0.31151 0.35170
 C1182 C 1.21864 0.31592 0.34627
 C1183 C 1.23492 0.29867 0.32567
 C1184 C 1.21691 0.27684 0.31016
 C1185 C 1.18264 0.27185 0.31678
 C1186 C 1.16660 0.28889 0.33742
 C1187 C 1.16584 0.33223 0.36941
 C1188 C 1.14920 0.34998 0.38293
 C1189 C 1.12861 0.37162 0.39792
 C1190 C 1.13905 0.38275 0.42362
 C1191 C 1.11976 0.40485 0.43748
 C1192 C 1.08980 0.41614 0.42577
 C1193 C 1.07916 0.40446 0.40018
 C1194 C 1.09851 0.38233 0.38633
 H1195 H 1.23247 0.33363 0.35705
 H1196 H 1.26102 0.30372 0.32092
 H1197 H 1.16756 0.25576 0.30514
 H1198 H 1.13991 0.28543 0.34127
 H1199 H 1.16229 0.37465 0.43276
 H1200 H 1.12856 0.41340 0.45720
 H1201 H 1.05622 0.41273 0.39070
 H1202 H 1.09023 0.37386 0.36642
 C1203 C 0.30301 0.82632 0.15130
 C1204 C 0.26825 0.82687 0.15708
 C1205 C 0.25462 0.80724 0.17718
 C1206 C 0.27569 0.78701 0.19173
 C1207 C 0.31044 0.78654 0.18509
 C1208 C 0.32376 0.80570 0.16504
 C1209 C 0.31890 0.84790 0.13301
 C1210 C 0.33519 0.86522 0.11895
 C1211 C 0.35691 0.88516 0.10330
 C1212 C 0.34794 0.89452 0.07674
 C1213 C 0.36953 0.91343 0.06159
 C1214 C 0.40044 0.92322 0.07280
 C1215 C 0.40940 0.91353 0.09939
 C1216 C 0.38775 0.89461 0.11452
 H1217 H 0.25193 0.84299 0.14668
 H1218 H 0.22796 0.80875 0.18201
 H1219 H 0.32794 0.77191 0.19592
 H1220 H 0.35068 0.80514 0.16093
 H1221 H 0.32428 0.88722 0.06776
 H1222 H 0.36192 0.92054 0.04115
 H1223 H 0.43297 0.92074 0.10856
 H1224 H 0.39507 0.88735 0.13501
 C1225 C 0.80301 0.32632 0.65130
 C1226 C 0.76825 0.32687 0.65708
 C1227 C 0.75462 0.30724 0.67718
 C1228 C 0.77569 0.28701 0.69173
 C1229 C 0.81044 0.28655 0.68509
 C1230 C 0.82376 0.30570 0.66504
 C1231 C 0.81889 0.34790 0.63301
 C1232 C 0.83519 0.36522 0.61895
 C1233 C 0.85691 0.38517 0.60330
 C1234 C 0.84794 0.39452 0.57674
 C1235 C 0.86953 0.41343 0.56159
 C1236 C 0.90044 0.42322 0.57280
 C1237 C 0.90940 0.41353 0.59939
 C1238 C 0.88775 0.39461 0.61452
 H1239 H 0.75193 0.34299 0.64668
 H1240 H 0.72796 0.30875 0.68201
 H1241 H 0.82794 0.27191 0.69592
 H1242 H 0.85068 0.30514 0.66093
 H1243 H 0.82428 0.38722 0.56776
 H1244 H 0.86192 0.42054 0.54114
 H1245 H 0.93297 0.42074 0.60856
 H1246 H 0.89506 0.38735 0.63501
 C1247 C 1.18227 1.16978 0.66348
 C1248 C 1.20318 1.19343 0.65493
 C1249 C 1.21708 1.21314 0.67426
 C1250 C 1.21045 1.20966 0.70275
 C1251 C 1.18930 1.18561 0.71122
 C1252 C 1.17519 1.16579 0.69162
 C1253 C 1.16714 1.15085 0.64281
 C1254 C 1.15417 1.13637 0.62461
 C1255 C 1.13731 1.12022 0.60296
 C1256 C 1.15478 1.09960 0.58580
 C1257 C 1.13712 1.08218 0.56633
 C1258 C 1.10195 1.08527 0.56425
 C1259 C 1.08507 1.10727 0.58048
 C1260 C 1.10267 1.12465 0.59970
 H1261 H 1.20861 1.19682 0.63318
 H1262 H 1.23318 1.23108 0.66654
 H1263 H 1.18368 1.18204 0.73287
 H1264 H 1.15872 1.14752 0.69837
 H1265 H 1.18172 1.09626 0.58813
 H1266 H 1.15052 1.06513 0.55420
 H1267 H 1.05795 1.11006 0.57915
 H1268 H 1.08905 1.14078 0.61270
 C1269 C 0.68227 0.66978 0.16348
 C1270 C 0.70318 0.69343 0.15493
 C1271 C 0.71709 0.71314 0.17426
 C1272 C 0.71045 0.70966 0.20275
 C1273 C 0.68930 0.68561 0.21122
 C1274 C 0.67519 0.66579 0.19162
 C1275 C 0.66714 0.65085 0.14281
 C1276 C 0.65417 0.63637 0.12461
 C1277 C 0.63731 0.62022 0.10295
 C1278 C 0.65478 0.59960 0.08580
 C1279 C 0.63712 0.58218 0.06633
 C1280 C 0.60195 0.58527 0.06425
 C1281 C 0.58507 0.60727 0.08048
 C1282 C 0.60267 0.62465 0.09970
 H1283 H 0.70861 0.69682 0.13318
 H1284 H 0.73318 0.73108 0.16654
 H1285 H 0.68368 0.68204 0.23287
 H1286 H 0.65872 0.64752 0.19836
 H1287 H 0.68172 0.59626 0.08813
 H1288 H 0.65052 0.56513 0.05420
 H1289 H 0.55795 0.61006 0.07915
 H1290 H 0.58905 0.64078 0.11270
 C1291 C 1.16833 0.81255 0.33179
 C1292 C 1.19586 0.82809 0.32049
 C1293 C 1.21345 0.81556 0.29810
 C1294 C 1.20422 0.78694 0.28717
 C1295 C 1.17455 0.77293 0.29709
 C1296 C 1.15698 0.78550 0.31952
 C1297 C 1.15220 0.82419 0.35624
 C1298 C 1.13876 0.83455 0.37655
 C1299 C 1.12207 0.84830 0.39985
 C1300 C 1.14055 0.86484 0.41946
 C1301 C 1.12370 0.88297 0.43906
 C1302 C 1.08832 0.88484 0.43882
 C1303 C 1.07003 0.86641 0.42037
 C1304 C 1.08685 0.84824 0.40097
 H1305 H 1.20426 0.84951 0.32942
 H1306 H 1.23484 0.82791 0.29004
 H1307 H 1.16611 0.75123 0.28884
 H1308 H 1.13527 0.77360 0.32784
 H1309 H 1.16788 0.86506 0.41863
 H1310 H 1.13830 0.89713 0.45297
 H1311 H 1.04272 0.86741 0.41988
 H1312 H 1.07237 0.83553 0.38587
 C1313 C 0.66833 0.31254 -0.16821
 C1314 C 0.69586 0.32809 -0.17951
 C1315 C 0.71345 0.31556 -0.20190
 C1316 C 0.70422 0.28694 -0.21282
 C1317 C 0.67455 0.27293 -0.20290
 C1318 C 0.65698 0.28550 -0.18048
 C1319 C 0.65219 0.32418 -0.14376
 C1320 C 0.63876 0.33455 -0.12345
 C1321 C 0.62207 0.34830 -0.10015
 C1322 C 0.64055 0.36484 -0.08054
 C1323 C 0.62370 0.38297 -0.06094
 C1324 C 0.58832 0.38484 -0.06118
 C1325 C 0.57003 0.36641 -0.07963
 C1326 C 0.58685 0.34824 -0.09903
 H1327 H 0.70426 0.34951 -0.17058
 H1328 H 0.73484 0.32791 -0.20996
 H1329 H 0.66611 0.25122 -0.21116
 H1330 H 0.63527 0.27359 -0.17216
 H1331 H 0.66788 0.36506 -0.08137
 H1332 H 0.63830 0.39713 -0.04703
 H1333 H 0.54272 0.36741 -0.08012
 H1334 H 0.57237 0.33553 -0.11413
 C1335 C 0.84523 1.16384 0.31978
 C1336 C 0.82330 1.18425 0.33292
 C1337 C 0.80296 1.20341 0.31740
 C1338 C 0.80414 1.20264 0.28831
 C1339 C 0.82660 1.18208 0.27522
 C1340 C 0.84703 1.16273 0.29092
 C1341 C 0.86471 1.14358 0.33651
 C1342 C 0.87950 1.12713 0.35213
 C1343 C 0.89550 1.10794 0.37204
 C1344 C 0.88064 1.10442 0.39813
 C1345 C 0.89548 1.08523 0.41756
 C1346 C 0.92532 1.06938 0.41099
 C1347 C 0.94036 1.07339 0.38487
 C1348 C 0.92547 1.09260 0.36546
 H1349 H 0.82164 1.18514 0.35527
 H1350 H 0.78609 1.21863 0.32848
 H1351 H 0.82829 1.18071 0.25292
 H1352 H 0.86394 1.14681 0.28060
 H1353 H 0.85743 1.11631 0.40336
 H1354 H 0.88341 1.08251 0.43752
 H1355 H 0.96341 1.06145 0.37931
 H1356 H 0.93713 1.09528 0.34532
 C1357 C 0.34523 0.66384 -0.18022
 C1358 C 0.34703 0.66273 -0.20908
 C1359 C 0.32660 0.68208 -0.22478
 C1360 C 0.30414 0.70264 -0.21169
 C1361 C 0.30296 0.70341 -0.18260
 C1362 C 0.32330 0.68425 -0.16708
 C1363 C 0.36471 0.64359 -0.16349
 C1364 C 0.37950 0.62713 -0.14787
 C1365 C 0.39550 0.60794 -0.12796
 C1366 C 0.42547 0.59260 -0.13454
 C1367 C 0.44036 0.57339 -0.11513
 C1368 C 0.42532 0.56938 -0.08901
 C1369 C 0.39548 0.58523 -0.08244
 C1370 C 0.38064 0.60442 -0.10187
 H1371 H 0.36394 0.64681 -0.21940
 H1372 H 0.32829 0.68071 -0.24708
 H1373 H 0.28609 0.71863 -0.17152
 H1374 H 0.32164 0.68514 -0.14472
 H1375 H 0.43713 0.59528 -0.15468
 H1376 H 0.46341 0.56145 -0.12069
 H1377 H 0.38341 0.58251 -0.06248
 H1378 H 0.35743 0.61632 -0.09664
 C1379 C 0.82237 0.83946 0.68369
 C1380 C 0.80083 0.81825 0.67152
 C1381 C 0.78334 0.79757 0.68784
 C1382 C 0.78699 0.79762 0.71680
 C1383 C 0.80876 0.81923 0.72891
 C1384 C 0.82641 0.84003 0.71239
 C1385 C 0.84064 0.85990 0.66616
 C1386 C 0.85554 0.87599 0.65022
 C1387 C 0.87328 0.89419 0.63043
 C1388 C 0.85887 0.90014 0.60465
 C1389 C 0.87673 0.91700 0.58498
 C1390 C 0.90915 0.92794 0.59103
 C1391 C 0.92338 0.92178 0.61698
 C1392 C 0.90552 0.90498 0.63656
 H1393 H 0.79765 0.81758 0.64929
 H1394 H 0.76708 0.78146 0.67745
 H1395 H 0.81228 0.82012 0.75105
 H1396 H 0.84322 0.85642 0.72196
 H1397 H 0.83394 0.89164 0.59972
 H1398 H 0.86523 0.92148 0.56516
 H1399 H 0.94835 0.92994 0.62219
 H1400 H 0.91693 0.90028 0.65640
 C1401 C 0.32237 0.33946 0.18369
 C1402 C 0.30083 0.31826 0.17152
 C1403 C 0.28334 0.29757 0.18784
 C1404 C 0.28699 0.29762 0.21680
 C1405 C 0.30876 0.31923 0.22891
 C1406 C 0.32641 0.34003 0.21239
 C1407 C 0.34064 0.35990 0.16616
 C1408 C 0.35554 0.37599 0.15022
 C1409 C 0.37328 0.39419 0.13043
 C1410 C 0.35887 0.40014 0.10465
 C1411 C 0.37673 0.41700 0.08498
 C1412 C 0.40915 0.42794 0.09103
 C1413 C 0.42338 0.42178 0.11698
 C1414 C 0.40552 0.40498 0.13656
 H1415 H 0.29765 0.31758 0.14929
 H1416 H 0.26708 0.28146 0.17745
 H1417 H 0.31228 0.32012 0.25105
 H1418 H 0.34322 0.35642 0.22196
 H1419 H 0.33394 0.39164 0.09972
 H1420 H 0.36523 0.42148 0.06516
 H1421 H 0.44835 0.42994 0.12219
 H1422 H 0.41692 0.40028 0.15640
   
