data_POSCAR
  _audit_creation_date              2014-09-24
  _audit_creation_method            'ToBaCCo'
  _symmetry_space_group_name_H-M    'P1'
  _symmetry_Int_Tables_number       1
  _symmetry_cell_setting            triclinic
  loop_
  _symmetry_equiv_pos_as_xyz
 x,y,z
_cell_length_a 55.6016
_cell_length_b 54.5821
_cell_length_c 54.4845
_cell_angle_alpha 90.153400
_cell_angle_beta 90.013700
_cell_angle_gamma 90.078400
loop_
  _atom_site_label
  _atom_site_type_symbol
  _atom_site_fract_x
  _atom_site_fract_y
  _atom_site_fract_z
C1 C 0.36334 0.26084 0.01372
 C2 C 0.36350 0.26161 -0.01143
 C3 C 0.35731 0.28534 -0.01798
 N4 N 0.35277 0.29889 0.00224
 C5 C 0.35670 0.28399 0.02161
 C6 C 0.35875 0.29519 -0.04195
 C7 C 0.34514 0.31627 -0.04818
 C8 C 0.34999 0.33203 -0.06751
 C9 C 0.33248 0.34980 -0.06712
 C10 C 0.31740 0.34452 -0.04753
 N11 N 0.32542 0.32422 -0.03591
 C12 C 0.29668 0.35817 -0.04080
 C13 C 0.28775 0.35738 -0.01638
 C14 C 0.26499 0.36476 -0.00898
 C15 C 0.26484 0.36430 0.01616
 C16 C 0.28719 0.35574 0.02335
 N17 N 0.30117 0.35146 0.00344
 C18 C 0.29539 0.35433 0.04783
 C19 C 0.31606 0.34091 0.05434
 C20 C 0.32828 0.34255 0.07649
 C21 C 0.34605 0.32499 0.07591
 C22 C 0.34380 0.31283 0.05365
 N23 N 0.32554 0.32269 0.04065
 C24 C 0.35709 0.29209 0.04619
 H25 H 0.36800 0.24522 0.02495
 H26 H 0.36832 0.24664 -0.02353
 H27 H 0.31818 0.31559 0.02454
 H28 H 0.36491 0.33125 -0.08022
 H29 H 0.33135 0.36520 -0.07953
 H30 H 0.25012 0.37040 -0.02046
 H31 H 0.24997 0.36980 0.02770
 H32 H 0.35885 0.32142 0.09041
 H33 H 0.31682 0.31522 -0.02150
 H34 H 0.32469 0.35483 0.09165
 C35 C 0.70747 0.60675 0.01573
 C36 C 0.70740 0.60727 -0.00942
 C37 C 0.69719 0.62942 -0.01613
 N38 N 0.69096 0.64241 0.00402
 C39 C 0.69731 0.62860 0.02352
 C40 C 0.69626 0.63848 -0.04034
 C41 C 0.68260 0.65923 -0.04698
 C42 C 0.68540 0.67217 -0.06864
 C43 C 0.66846 0.69049 -0.06841
 C44 C 0.65555 0.68808 -0.04672
 N45 N 0.66434 0.66896 -0.03375
 C46 C 0.63606 0.70321 -0.03943
 C47 C 0.62827 0.70432 -0.01464
 C48 C 0.60635 0.71370 -0.00685
 C49 C 0.60663 0.71327 0.01826
 C50 C 0.62850 0.70328 0.02506
 N51 N 0.64172 0.69770 0.00495
 C52 C 0.63665 0.70129 0.04952
 C53 C 0.65610 0.68620 0.05633
 C54 C 0.66779 0.68695 0.07880
 C55 C 0.68466 0.66850 0.07845
 C56 C 0.68272 0.65703 0.05579
 N57 N 0.66515 0.66782 0.04252
 C58 C 0.69632 0.63655 0.04819
 H59 H 0.71464 0.59218 0.02700
 H60 H 0.71452 0.59319 -0.02140
 H61 H 0.65808 0.66151 0.02599
 H62 H 0.69847 0.66894 -0.08299
 H63 H 0.66617 0.70422 -0.08250
 H64 H 0.59168 0.72025 -0.01810
 H65 H 0.59234 0.71958 0.03019
 H66 H 0.69691 0.66403 0.09321
 H67 H 0.65691 0.66163 -0.01783
 H68 H 0.66449 0.69943 0.09389
 C69 C 0.60976 0.28573 1.00845
 C70 C 0.60999 0.28627 0.98332
 C71 C 0.63247 0.29481 0.97650
 N72 N 0.64609 0.29936 0.99659
 C73 C 0.63229 0.29357 1.01621
 C74 C 0.64059 0.29676 0.95201
 C75 C 0.66089 0.31082 0.94542
 C76 C 0.67252 0.30980 0.92293
 C77 C 0.69001 0.32769 0.92333
 C78 C 0.68852 0.33910 0.94605
 N79 N 0.67070 0.32874 0.95936
 C80 C 0.70244 0.35944 0.95354
 C81 C 0.70372 0.36727 0.97821
 C82 C 0.71360 0.38927 0.98603
 C83 C 0.71343 0.38878 1.01119
 C84 C 0.70352 0.36644 1.01786
 N85 N 0.69754 0.35335 0.99769
 C86 C 0.70218 0.35744 1.04207
 C87 C 0.68851 0.33654 1.04828
 C88 C 0.69113 0.32328 1.06975
 C89 C 0.67369 0.30541 1.06944
 C90 C 0.66065 0.30846 1.04791
 N91 N 0.66998 0.32736 1.03501
 C92 C 0.64015 0.29452 1.04100
 H93 H 0.59464 0.28031 1.01969
 H94 H 0.59521 0.28116 0.97142
 H95 H 0.66251 0.33520 1.01936
 H96 H 0.66866 0.29761 0.90774
 H97 H 0.70227 0.33195 0.90851
 H98 H 0.72046 0.40403 0.97478
 H99 H 0.72013 0.40308 1.02317
 H100 H 0.67096 0.29171 1.08349
 H101 H 0.66381 0.33526 0.97588
 H102 H 0.70429 0.32614 1.08412
 C103 C 0.36604 0.73567 0.98416
 C104 C 0.36577 0.73536 1.00931
 C105 C 0.35951 0.71171 1.01618
 N106 N 0.35522 0.69782 0.99611
 C107 C 0.35942 0.71241 0.97657
 C108 C 0.36066 0.70223 1.04032
 C109 C 0.34720 0.68102 1.04656
 C110 C 0.35204 0.66545 1.06603
 C111 C 0.33472 0.64743 1.06558
 C112 C 0.31975 0.65239 1.04582
 N113 N 0.32767 0.67272 1.03415
 C114 C 0.29914 0.63850 1.03907
 C115 C 0.29032 0.63907 1.01459
 C116 C 0.26759 0.63154 1.00714
 C117 C 0.26748 0.63199 0.98201
 C118 C 0.28981 0.64065 0.97484
 N119 N 0.30376 0.64503 0.99478
 C120 C 0.29799 0.64210 0.95033
 C121 C 0.31874 0.65546 0.94382
 C122 C 0.33103 0.65371 0.92172
 C123 C 0.34898 0.67114 0.92235
 C124 C 0.34675 0.68336 0.94458
 N125 N 0.32831 0.67367 0.95748
 C126 C 0.36030 0.70390 0.95215
 H127 H 0.37095 0.75107 0.97272
 H128 H 0.37041 0.75055 1.02122
 H129 H 0.32097 0.68080 0.97356
 H130 H 0.36684 0.66653 1.07888
 H131 H 0.33363 0.63210 1.07808
 H132 H 0.25271 0.62587 1.01860
 H133 H 0.25263 0.62640 0.97046
 H134 H 0.36188 0.67460 0.90791
 H135 H 0.31909 0.68153 1.01961
 H136 H 0.32740 0.64138 0.90659
 C137 C -0.01010 0.27305 0.37957
 C138 C 0.01451 0.27319 0.38008
 C139 C 0.02187 0.29309 0.36626
 N140 N 0.00246 0.30517 0.35739
 C141 C -0.01722 0.29278 0.36521
 C142 C 0.04605 0.30101 0.36409
 C143 C 0.05314 0.32117 0.34959
 C144 C 0.07500 0.33337 0.35135
 C145 C 0.07515 0.35097 0.33330
 C146 C 0.05365 0.34860 0.32064
 N147 N 0.04038 0.33042 0.33069
 C148 C 0.04715 0.36183 0.29941
 C149 C 0.02366 0.36080 0.28978
 C150 C 0.01749 0.36691 0.26596
 C151 C -0.00712 0.36642 0.26490
 C152 C -0.01514 0.36053 0.28829
 N153 N 0.00374 0.35676 0.30340
 C154 C -0.03943 0.36113 0.29612
 C155 C -0.04682 0.34802 0.31736
 C156 C -0.06829 0.35140 0.32985
 C157 C -0.06904 0.33420 0.34816
 C158 C -0.04748 0.32135 0.34732
 N159 N -0.03417 0.32982 0.32829
 C160 C -0.04136 0.30093 0.36228
 H161 H -0.02126 0.26039 0.38969
 H162 H 0.02561 0.26060 0.39037
 H163 H -0.01849 0.32188 0.32152
 H164 H 0.08942 0.33002 0.36423
 H165 H 0.08963 0.36373 0.32975
 H166 H 0.02951 0.37151 0.25103
 H167 H -0.01792 0.37051 0.24891
 H168 H -0.08407 0.33170 0.36043
 H169 H 0.02470 0.32295 0.32339
 H170 H -0.08217 0.36478 0.32627
 C171 C 0.01636 0.71017 0.60767
 C172 C -0.00825 0.71084 0.60719
 C173 C -0.01609 0.70266 0.62993
 N174 N 0.00290 0.69654 0.64411
 C175 C 0.02274 0.70127 0.63053
 C176 C -0.04033 0.70251 0.63796
 C177 C -0.04770 0.68800 0.65819
 C178 C -0.06843 0.69178 0.67186
 C179 C -0.06917 0.67371 0.68935
 C180 C -0.04890 0.65928 0.68594
 N181 N -0.03577 0.66827 0.66704
 C182 C -0.04309 0.63820 0.69995
 C183 C -0.01924 0.62906 0.70091
 C184 C -0.01279 0.60573 0.70858
 C185 C 0.01184 0.60503 0.70887
 C186 C 0.01965 0.62780 0.70105
 N187 N 0.00066 0.64246 0.69606
 C188 C 0.04393 0.63534 0.70027
 C189 C 0.05136 0.65635 0.68732
 C190 C 0.07354 0.66777 0.68970
 C191 C 0.07429 0.68602 0.67231
 C192 C 0.05255 0.68515 0.65988
 N193 N 0.03869 0.66708 0.66916
 C194 C 0.04655 0.69941 0.63926
 H195 H 0.02821 0.71563 0.59290
 H196 H -0.01914 0.71683 0.59187
 H197 H 0.02273 0.66053 0.66159
 H198 H -0.08146 0.70632 0.66977
 H199 H -0.08290 0.67172 0.70327
 H200 H -0.02461 0.59078 0.71354
 H201 H 0.02275 0.58952 0.71420
 H202 H 0.08926 0.69826 0.66897
 H203 H -0.02059 0.66016 0.65930
 H204 H 0.08782 0.66321 0.70239
 C205 C 0.98744 0.60842 0.28307
 C206 C 1.01206 0.60842 0.28280
 C207 C 1.01940 0.63074 0.29255
 N208 N 1.00002 0.64418 0.29921
 C209 C 0.98049 0.63054 0.29331
 C210 C 1.04362 0.63887 0.29407
 C211 C 1.05042 0.65855 0.30970
 C212 C 1.07166 0.67185 0.30786
 C213 C 1.07158 0.68872 0.32663
 C214 C 1.05019 0.68552 0.33927
 N215 N 1.03741 0.66708 0.32890
 C216 C 1.04339 0.69893 0.36036
 C217 C 1.01951 0.69978 0.36907
 C218 C 1.01253 0.70981 0.39137
 C219 C 0.98788 0.70985 0.39150
 C220 C 0.98063 0.69979 0.36932
 N221 N 0.99999 0.69360 0.35564
 C222 C 0.95659 0.69866 0.36104
 C223 C 0.94955 0.68507 0.34016
 C224 C 0.92748 0.68701 0.32846
 C225 C 0.92746 0.67002 0.30974
 C226 C 0.94953 0.65825 0.31056
 N227 N 0.96281 0.66741 0.32921
 C228 C 0.95644 0.63854 0.29534
 H229 H 0.97594 0.59378 0.27653
 H230 H 1.02327 0.59363 0.27617
 H231 H 0.97895 0.66022 0.33562
 H232 H 1.08568 0.66983 0.29424
 H233 H 1.08558 0.70202 0.33037
 H234 H 1.02402 0.71682 0.40581
 H235 H 0.97658 0.71686 0.40608
 H236 H 0.91284 0.66665 0.29706
 H237 H 1.02175 0.65928 0.33590
 H238 H 0.91287 0.69930 0.33299
 C239 C 1.01135 0.38934 0.71705
 C240 C 0.98674 0.39083 0.71643
 C241 C 0.97857 0.36899 0.70641
 N242 N 0.99732 0.35425 0.70084
 C243 C 1.01737 0.36666 0.70735
 C244 C 0.95415 0.36212 0.70427
 C245 C 0.94667 0.34158 0.69044
 C246 C 0.92411 0.33077 0.69171
 C247 C 0.92356 0.31267 0.67408
 C248 C 0.94581 0.31297 0.66260
 N249 N 0.95977 0.33059 0.67268
 C250 C 0.95223 0.29859 0.64211
 C251 C 0.97633 0.29580 0.63448
 C252 C 0.98334 0.28679 0.61181
 C253 C 1.00791 0.28523 0.61238
 C254 C 1.01511 0.29303 0.63552
 N255 N 0.99574 0.29973 0.64896
 C256 C 1.03912 0.29279 0.64434
 C257 C 1.04616 0.30716 0.66489
 C258 C 1.06700 0.30382 0.67854
 C259 C 1.06747 0.32200 0.69608
 C260 C 1.04678 0.33573 0.69292
 N261 N 1.03388 0.32661 0.67390
 C262 C 1.04084 0.35686 0.70666
 H263 H 1.02342 0.40327 0.72408
 H264 H 0.97609 0.40615 0.72283
 H265 H 1.01879 0.33466 0.66601
 H266 H 0.90947 0.33559 0.70389
 H267 H 0.90843 0.30085 0.66998
 H268 H 0.97195 0.28193 0.59644
 H269 H 1.01919 0.27909 0.59740
 H270 H 1.08140 0.32469 0.70971
 H271 H 0.97619 0.33666 0.66583
 H272 H 1.08044 0.28969 0.67625
 C273 C 0.39133 -0.01112 0.29195
 C274 C 0.39166 0.01396 0.29166
 C275 C 0.36928 0.02156 0.29978
 N276 N 0.35521 0.00199 0.30496
 C277 C 0.36860 -0.01806 0.29991
 C278 C 0.36158 0.04619 0.30068
 C279 C 0.34117 0.05359 0.31414
 C280 C 0.32985 0.07612 0.31214
 C281 C 0.31222 0.07671 0.32989
 C282 C 0.31333 0.05451 0.34213
 N283 N 0.33099 0.04055 0.33242
 C284 C 0.29947 0.04814 0.36282
 C285 C 0.29783 0.02383 0.37139
 C286 C 0.28894 0.01716 0.39414
 C287 C 0.28850 -0.00793 0.39448
 C288 C 0.29681 -0.01576 0.37176
 N289 N 0.30276 0.00371 0.35773
 C290 C 0.29724 -0.04044 0.36361
 C291 C 0.31144 -0.04775 0.34323
 C292 C 0.30785 -0.06893 0.32956
 C293 C 0.32548 -0.06948 0.31192
 C294 C 0.33945 -0.04864 0.31524
 N295 N 0.33062 -0.03534 0.33423
 C296 C 0.36002 -0.04251 0.30108
 H297 H 0.40614 -0.02292 0.28683
 H298 H 0.40668 0.02532 0.28614
 H299 H 0.33848 -0.01978 0.34194
 H300 H 0.33406 0.09074 0.29945
 H301 H 0.30019 0.09185 0.33354
 H302 H 0.28331 0.02913 0.40893
 H303 H 0.28256 -0.01913 0.40969
 H304 H 0.32750 -0.08347 0.29796
 H305 H 0.33757 0.02428 0.33972
 H306 H 0.29373 -0.08240 0.33175
 C307 C 0.71084 -0.00832 0.60275
 C308 C 0.71019 0.01674 0.60305
 C309 C 0.70001 0.02344 0.62526
 N310 N 0.69451 0.00335 0.63864
 C311 C 0.70140 -0.01615 0.62498
 C312 C 0.69789 0.04781 0.63368
 C313 C 0.68262 0.05451 0.65323
 C314 C 0.68307 0.07685 0.66539
 C315 C 0.66455 0.07639 0.68217
 C316 C 0.65338 0.05378 0.67972
 N317 N 0.66439 0.04065 0.66192
 C318 C 0.63298 0.04607 0.69306
 C319 C 0.62538 0.02139 0.69382
 C320 C 0.60377 0.01342 0.70367
 C321 C 0.60455 -0.01167 0.70359
 C322 C 0.62661 -0.01818 0.69369
 N323 N 0.63929 0.00204 0.68764
 C324 C 0.63582 -0.04225 0.69305
 C325 C 0.65651 -0.04878 0.67950
 C326 C 0.66943 -0.07023 0.68268
 C327 C 0.68778 -0.06987 0.66577
 C328 C 0.68541 -0.04832 0.65249
 N329 N 0.66626 -0.03558 0.66101
 C330 C 0.70067 -0.04086 0.63299
 H331 H 0.71766 -0.01952 0.58788
 H332 H 0.71653 0.02870 0.58861
 H333 H 0.65905 -0.01979 0.65327
 H334 H 0.69539 0.09193 0.66245
 H335 H 0.65987 0.09103 0.69472
 H336 H 0.58919 0.02455 0.71067
 H337 H 0.59070 -0.02375 0.71055
 H338 H 0.70151 -0.08376 0.66380
 H339 H 0.65839 0.02419 0.65442
 H340 H 0.66618 -0.08451 0.69603
 C341 C 0.25957 0.98259 0.64346
 C342 C 0.25866 1.00767 0.64349
 C343 C 0.28178 1.01587 0.64860
 N344 N 0.29663 0.99668 0.65224
 C345 C 0.28309 0.97636 0.64891
 C346 C 0.28955 1.04053 0.64715
 C347 C 0.31042 1.04843 0.66010
 C348 C 0.32253 1.07036 0.65650
 C349 C 0.34058 1.07142 0.67368
 C350 C 0.33996 1.04955 0.68666
 N351 N 0.32135 1.03579 0.67838
 C352 C 0.35488 1.04346 0.70694
 C353 C 0.35849 1.01886 0.71470
 C354 C 0.37337 1.01178 0.73391
 C355 C 0.37466 0.98677 0.73330
 C356 C 0.36060 0.97910 0.71374
 N357 N 0.35094 0.99876 0.70224
 C358 C 0.35894 0.95454 0.70539
 C359 C 0.34374 0.94711 0.68595
 C360 C 0.34529 0.92499 0.67340
 C361 C 0.32672 0.92456 0.65671
 C362 C 0.31401 0.94614 0.65992
 N363 N 0.32447 0.95973 0.67779
 C364 C 0.29255 0.95247 0.64763
 H365 H 0.24478 0.97031 0.63941
 H366 H 0.24295 1.01867 0.63953
 H367 H 0.31738 0.97550 0.68572
 H368 H 0.31891 1.08433 0.64298
 H369 H 0.35263 1.08678 0.67601
 H370 H 0.38337 1.02332 0.74644
 H371 H 0.38556 0.97567 0.74537
 H372 H 0.32295 0.90986 0.64392
 H373 H 0.31495 1.01980 0.68648
 H374 H 0.35833 0.91054 0.67592
 C375 C 0.63292 1.00954 0.26488
 C376 C 0.63209 0.98441 0.26514
 C377 C 0.64096 0.97720 0.28775
 N378 N 0.64713 0.99698 0.30131
 C379 C 0.64202 1.01676 0.28747
 C380 C 0.64052 0.95304 0.29684
 C381 C 0.65486 0.94581 0.31699
 C382 C 0.65295 0.92376 0.32942
 C383 C 0.67129 0.92335 0.34642
 C384 C 0.68351 0.94542 0.34426
 N385 N 0.67355 0.95883 0.32614
 C386 C 0.70448 0.95208 0.35728
 C387 C 0.71273 0.97655 0.35864
 C388 C 0.73512 0.98373 0.36721
 C389 C 0.73515 1.00883 0.36752
 C390 C 0.71246 1.01626 0.35998
 N391 N 0.69889 0.99646 0.35421
 C392 C 0.70393 1.04081 0.35997
 C393 C 0.68329 1.04733 0.34610
 C394 C 0.66907 1.06789 0.35005
 C395 C 0.65182 1.06803 0.33196
 C396 C 0.65570 1.04738 0.31768
 N397 N 0.67479 1.03478 0.32647
 C398 C 0.64243 1.04101 0.29649
 H399 H 0.62682 1.02116 0.25008
 H400 H 0.62526 0.97278 0.25060
 H401 H 0.68295 1.01973 0.31812
 H402 H 0.63998 0.90928 0.32641
 H403 H 0.67516 0.90840 0.35879
 H404 H 0.74995 0.97223 0.37279
 H405 H 0.75014 1.02026 0.37298
 H406 H 0.63784 1.08163 0.32977
 H407 H 0.68076 0.97482 0.31877
 H408 H 0.67079 1.08134 0.36457
 O409 O 0.85442 0.81936 0.47585
 O410 O 0.82179 0.85425 0.52265
 O411 O 0.85560 0.82132 0.52334
 O412 O 0.82069 0.85170 0.47500
 O413 O 0.79276 0.82301 0.47775
 O414 O 0.82855 0.79182 0.52539
 O415 O 0.79448 0.82502 0.52526
 O416 O 0.82722 0.78995 0.47760
 Cu417 Cu 0.84084 0.83958 0.49908
 Cu418 Cu 0.80801 0.80446 0.50170
 C419 C 0.84652 0.79873 0.46867
 C420 C 0.80250 0.84584 0.53186
 C421 C 0.84830 0.80124 0.53243
 C422 C 0.80069 0.84267 0.46830
 O423 O 0.17810 0.14413 0.52467
 O424 O 0.14686 0.18170 0.47909
 O425 O 0.18014 0.14893 0.47781
 O426 O 0.14434 0.17749 0.52668
 O427 O 0.17162 0.20655 0.53103
 O428 O 0.20803 0.17737 0.48239
 O429 O 0.17401 0.21095 0.48366
 O430 O 0.20527 0.17321 0.53005
 Cu431 Cu 0.15952 0.16025 0.50177
 Cu432 Cu 0.19252 0.19493 0.50719
 C433 C 0.19715 0.15198 0.53485
 C434 C 0.15506 0.20267 0.47353
 C435 C 0.20033 0.15804 0.47188
 C436 C 0.15163 0.19702 0.53705
 O437 O 0.18016 0.85162 0.47525
 O438 O 0.14977 0.81720 0.52387
 O439 O 0.18292 0.85111 0.52230
 O440 O 0.14759 0.81777 0.47619
 O441 O 0.17580 0.78947 0.47380
 O442 O 0.21040 0.82190 0.52185
 O443 O 0.17716 0.78810 0.52144
 O444 O 0.20896 0.82390 0.47391
 Cu445 Cu 0.16224 0.83719 0.49966
 Cu446 Cu 0.19594 0.80297 0.49752
 C447 C 0.19994 0.84399 0.46653
 C448 C 0.15797 0.79664 0.53078
 C449 C 0.20268 0.84231 0.52984
 C450 C 0.15561 0.79799 0.46701
 O451 O 0.81608 0.15134 0.47409
 O452 O 0.84950 0.18691 0.51991
 O453 O 0.81718 0.15310 0.52113
 O454 O 0.84914 0.18588 0.47206
 O455 O 0.82166 0.21502 0.47304
 O456 O 0.78796 0.18040 0.51977
 O457 O 0.82075 0.21474 0.52051
 O458 O 0.78852 0.18037 0.47199
 Cu459 Cu 0.83591 0.16656 0.49660
 Cu460 Cu 0.80185 0.20048 0.49615
 C461 C 0.79641 0.15947 0.46560
 C462 C 0.84076 0.20668 0.52836
 C463 C 0.79693 0.16089 0.52857
 C464 C 0.84130 0.20647 0.46480
 O465 O 0.47857 0.85123 0.81664
 O466 O 0.52737 0.82158 0.85079
 O467 O 0.52547 0.85385 0.81611
 O468 O 0.48141 0.81828 0.85122
 O469 O 0.48110 0.78980 0.82230
 O470 O 0.52783 0.82420 0.78860
 O471 O 0.52801 0.79141 0.82378
 O472 O 0.48133 0.82308 0.78758
 Cu473 Cu 0.50296 0.83927 0.83637
 Cu474 Cu 0.50469 0.80413 0.80275
 C475 C 0.47201 0.84258 0.79605
 C476 C 0.53566 0.80115 0.84354
 C477 C 0.53437 0.84511 0.79649
 C478 C 0.47393 0.79792 0.84291
 O479 O 0.52691 0.17976 0.14990
 O480 O 0.47769 0.14929 0.18292
 O481 O 0.48062 0.18243 0.14870
 O482 O 0.52394 0.14675 0.18463
 O483 O 0.52673 0.17691 0.21164
 O484 O 0.47946 0.21045 0.17803
 O485 O 0.47992 0.17714 0.21226
 O486 O 0.52643 0.20993 0.17690
 Cu487 Cu 0.50227 0.16164 0.16371
 Cu488 Cu 0.50326 0.19658 0.19753
 C489 C 0.53464 0.20040 0.15731
 C490 C 0.47076 0.15762 0.20353
 C491 C 0.47248 0.20236 0.15734
 C492 C 0.53271 0.15571 0.20421
 O493 O 0.51934 0.14848 0.81502
 O494 O 0.47666 0.18402 0.85163
 O495 O 0.47254 0.14983 0.81821
 O496 O 0.52261 0.18229 0.84805
 O497 O 0.52064 0.21130 0.81999
 O498 O 0.47247 0.17706 0.78832
 O499 O 0.47379 0.21159 0.82218
 O500 O 0.51910 0.17693 0.78633
 Cu501 Cu 0.49776 0.16324 0.83602
 Cu502 Cu 0.49631 0.19706 0.80126
 C503 C 0.52684 0.15665 0.79462
 C504 C 0.46822 0.20398 0.84347
 C505 C 0.46433 0.15756 0.79791
 C506 C 0.52991 0.20258 0.83943
 O507 O 0.47532 0.81605 0.14908
 O508 O 0.51613 0.85180 0.18798
 O509 O 0.52140 0.81902 0.15370
 O510 O 0.47018 0.84926 0.18348
 O511 O 0.47025 0.82122 0.21254
 O512 O 0.51904 0.78856 0.18013
 O513 O 0.51716 0.82160 0.21491
 O514 O 0.47223 0.78772 0.17777
 Cu515 Cu 0.49578 0.83692 0.16575
 Cu516 Cu 0.49449 0.80182 0.19918
 C517 C 0.46688 0.79581 0.15662
 C518 C 0.52374 0.84277 0.20794
 C519 C 0.52865 0.79838 0.16140
 C520 C 0.46200 0.84098 0.20357
 O521 O 0.81770 0.48058 0.85284
 O522 O 0.85033 0.52838 0.81935
 O523 O 0.81744 0.52822 0.85335
 O524 O 0.85033 0.48100 0.81906
 O525 O 0.82231 0.48122 0.79037
 O526 O 0.78888 0.52818 0.82524
 O527 O 0.82211 0.52880 0.79091
 O528 O 0.78924 0.48052 0.82460
 Cu529 Cu 0.83672 0.50461 0.83902
 Cu530 Cu 0.80276 0.50474 0.80493
 C531 C 0.79795 0.47231 0.84453
 C532 C 0.84210 0.53654 0.79923
 C533 C 0.79743 0.53610 0.84539
 C534 C 0.84211 0.47315 0.79876
 O535 O 0.18341 0.47388 0.15075
 O536 O 0.15225 0.52689 0.17735
 O537 O 0.18687 0.52093 0.14532
 O538 O 0.14970 0.48028 0.18324
 O539 O 0.17821 0.47959 0.21151
 O540 O 0.21248 0.52549 0.17599
 O541 O 0.17774 0.52726 0.20837
 O542 O 0.21237 0.47794 0.17823
 Cu543 Cu 0.16540 0.50034 0.16115
 Cu544 Cu 0.19796 0.50274 0.19653
 C545 C 0.20358 0.46738 0.15944
 C546 C 0.15902 0.53555 0.19788
 C547 C 0.20588 0.53034 0.15422
 C548 C 0.15767 0.47290 0.20375
 O549 O 0.81755 0.51992 0.14590
 O550 O 0.85434 0.47544 0.17911
 O551 O 0.81946 0.47223 0.14678
 O552 O 0.85168 0.52232 0.17776
 O553 O 0.82566 0.52096 0.20830
 O554 O 0.79213 0.47219 0.17611
 O555 O 0.82707 0.47328 0.20851
 O556 O 0.79083 0.51984 0.17585
 Cu557 Cu 0.83834 0.49735 0.15930
 Cu558 Cu 0.80619 0.49643 0.19518
 C559 C 0.79812 0.52780 0.15522
 C560 C 0.84732 0.46714 0.19962
 C561 C 0.80003 0.46396 0.15583
 C562 C 0.84443 0.52997 0.19850
 O563 O 0.14978 0.47236 0.82171
 O564 O 0.18319 0.52365 0.84925
 O565 O 0.14912 0.51974 0.81733
 O566 O 0.18474 0.47659 0.85385
 O567 O 0.21041 0.47221 0.82322
 O568 O 0.17650 0.51849 0.78806
 O569 O 0.21128 0.51973 0.82083
 O570 O 0.17559 0.47100 0.79100
 Cu571 Cu 0.16399 0.49817 0.83850
 Cu572 Cu 0.19614 0.49514 0.80275
 C573 C 0.15654 0.46334 0.80133
 C574 C 0.20319 0.53006 0.84007
 C575 C 0.15679 0.52673 0.79654
 C576 C 0.20366 0.46712 0.84488
 C577 C 0.25630 0.39707 0.10097
 C578 C 0.27981 0.40405 0.09383
 C579 C 0.29246 0.38997 0.07656
 C580 C 0.28245 0.36838 0.06706
 C581 C 0.25991 0.36054 0.07540
 C582 C 0.24685 0.37478 0.09203
 C583 C 0.24249 0.41387 0.11756
 C584 C 0.21783 0.41064 0.12262
 C585 C 0.20534 0.42776 0.13678
 C586 C 0.21726 0.44807 0.14679
 C587 C 0.24190 0.45117 0.14246
 C588 C 0.25440 0.43470 0.12730
 C589 C 0.29051 0.42501 0.10394
 C590 C 0.27827 0.43968 0.12078
 H591 H 0.30867 0.43012 0.09881
 H592 H 0.28734 0.45571 0.12809
 H593 H 0.31010 0.39579 0.07038
 H594 H 0.25219 0.34363 0.06853
 H595 H 0.18622 0.42529 0.13973
 H596 H 0.25097 0.46729 0.14962
 H597 H 0.22947 0.36804 0.09767
 H598 H 0.20768 0.39555 0.11506
 C599 C 0.74212 0.59613 0.09719
 C600 C 0.71695 0.59661 0.10120
 C601 C 0.70203 0.61048 0.08570
 C602 C 0.71194 0.62391 0.06627
 C603 C 0.73691 0.62439 0.06311
 C604 C 0.75187 0.61074 0.07835
 C605 C 0.75723 0.57964 0.11282
 C606 C 0.78205 0.57638 0.10887
 C607 C 0.79515 0.55985 0.12295
 C608 C 0.78403 0.54625 0.14157
 C609 C 0.75942 0.54974 0.14614
 C610 C 0.74589 0.56601 0.13166
 C611 C 0.70685 0.58291 0.12032
 C612 C 0.72104 0.56814 0.13537
 H613 H 0.68763 0.58345 0.12358
 H614 H 0.71231 0.55775 0.14978
 H615 H 0.68269 0.61031 0.08824
 H616 H 0.74481 0.63498 0.04837
 H617 H 0.81414 0.55759 0.11912
 H618 H 0.75061 0.53914 0.16034
 H619 H 0.77091 0.61169 0.07481
 H620 H 0.79168 0.58599 0.09467
 C621 C 0.74596 0.40154 0.90370
 C622 C 0.72077 0.39995 0.90011
 C623 C 0.70667 0.38548 0.91587
 C624 C 0.71738 0.37253 0.93516
 C625 C 0.74240 0.37316 0.93792
 C626 C 0.75657 0.38742 0.92242
 C627 C 0.76013 0.41867 0.88779
 C628 C 0.78489 0.42301 0.89125
 C629 C 0.79705 0.44011 0.87690
 C630 C 0.78501 0.45321 0.85853
 C631 C 0.76047 0.44862 0.85448
 C632 C 0.74791 0.43176 0.86918
 C633 C 0.70980 0.41315 0.88116
 C634 C 0.72311 0.42854 0.86589
 H635 H 0.69056 0.41176 0.87824
 H636 H 0.71372 0.43852 0.85165
 H637 H 0.68729 0.38484 0.91364
 H638 H 0.75093 0.36297 0.95257
 H639 H 0.81600 0.44322 0.88036
 H640 H 0.75095 0.45881 0.84046
 H641 H 0.77569 0.38735 0.92566
 H642 H 0.79515 0.41381 0.90525
 C643 C 0.25788 0.59984 0.89753
 C644 C 0.28136 0.59257 0.90443
 C645 C 0.29442 0.60655 0.92151
 C646 C 0.28482 0.62829 0.93107
 C647 C 0.26235 0.63642 0.92289
 C648 C 0.24890 0.62231 0.90643
 C649 C 0.24359 0.58312 0.88123
 C650 C 0.21891 0.58666 0.87652
 C651 C 0.20595 0.56964 0.86262
 C652 C 0.21740 0.54912 0.85255
 C653 C 0.24205 0.54568 0.85655
 C654 C 0.25502 0.56207 0.87145
 C655 C 0.29159 0.57140 0.89429
 C656 C 0.27890 0.55680 0.87769
 H657 H 0.30972 0.56606 0.89923
 H658 H 0.28762 0.54061 0.87036
 H659 H 0.31201 0.60049 0.92756
 H660 H 0.25494 0.65344 0.92981
 H661 H 0.18684 0.57237 0.85992
 H662 H 0.25075 0.52941 0.84934
 H663 H 0.23157 0.62927 0.90095
 H664 H 0.20910 0.60192 0.88414
 C665 C 0.09729 0.25933 0.40593
 C666 C 0.09149 0.28356 0.41314
 C667 C 0.07492 0.29726 0.39936
 C668 C 0.06478 0.28745 0.37792
 C669 C 0.07164 0.26407 0.37001
 C670 C 0.08763 0.25009 0.38384
 C671 C 0.11332 0.24452 0.42228
 C672 C 0.11734 0.21930 0.41859
 C673 C 0.13128 0.20594 0.43509
 C674 C 0.14202 0.21745 0.45531
 C675 C 0.13861 0.24264 0.45896
 C676 C 0.12377 0.25608 0.44302
 C677 C 0.10222 0.29388 0.43402
 C678 C 0.11842 0.28061 0.44832
 H679 H 0.09809 0.31255 0.43934
 H680 H 0.12626 0.28945 0.46427
 H681 H 0.06975 0.31547 0.40533
 H682 H 0.06411 0.25642 0.35333
 H683 H 0.13358 0.18645 0.43212
 H684 H 0.14642 0.25144 0.47496
 H685 H 0.09215 0.23214 0.37694
 H686 H 0.10927 0.20936 0.40356
 C687 C 0.09967 0.73950 0.59803
 C688 C 0.08028 0.75185 0.60949
 C689 C 0.06371 0.73877 0.62376
 C690 C 0.06571 0.71333 0.62636
 C691 C 0.08510 0.70111 0.61546
 C692 C 0.10197 0.71400 0.60152
 C693 C 0.11625 0.75403 0.58190
 C694 C 0.13608 0.74361 0.56958
 C695 C 0.15004 0.75763 0.55354
 C696 C 0.14460 0.78235 0.54936
 C697 C 0.12548 0.79311 0.56226
 C698 C 0.11137 0.77924 0.57843
 C699 C 0.07706 0.77704 0.60605
 C700 C 0.09218 0.79040 0.59074
 H701 H 0.06226 0.78647 0.61490
 H702 H 0.08860 0.80976 0.58825
 H703 H 0.04870 0.74822 0.63226
 H704 H 0.08682 0.68143 0.61725
 H705 H 0.16477 0.74889 0.54393
 H706 H 0.12127 0.81229 0.55942
 H707 H 0.11628 0.70358 0.59321
 H708 H 0.14093 0.72462 0.57179
 C709 C 0.90660 0.74372 0.40116
 C710 C 0.90352 0.71796 0.40053
 C711 C 0.91943 0.70329 0.38685
 C712 C 0.93847 0.71401 0.37385
 C713 C 0.94097 0.73952 0.37377
 C714 C 0.92527 0.75424 0.38718
 C715 C 0.89026 0.75860 0.41720
 C716 C 0.89279 0.78412 0.42010
 C717 C 0.87817 0.79699 0.43637
 C718 C 0.86042 0.78492 0.45008
 C719 C 0.85714 0.75962 0.44677
 C720 C 0.87209 0.74636 0.43069
 C721 C 0.88490 0.70700 0.41392
 C722 C 0.86946 0.72090 0.42858
 H723 H 0.88240 0.68731 0.41331
 H724 H 0.85554 0.71149 0.43882
 H725 H 0.91746 0.68353 0.38677
 H726 H 0.95547 0.74802 0.36358
 H727 H 0.88098 0.81653 0.43843
 H728 H 0.84355 0.75009 0.45737
 H729 H 0.92832 0.77373 0.38655
 H730 H 0.90624 0.79450 0.41038
 C731 C 0.89934 0.26105 0.59795
 C732 C 0.91799 0.24787 0.60972
 C733 C 0.93443 0.26012 0.62494
 C734 C 0.93313 0.28555 0.62811
 C735 C 0.91453 0.29862 0.61679
 C736 C 0.89774 0.28654 0.60197
 C737 C 0.88280 0.24735 0.58099
 C738 C 0.86343 0.25853 0.56860
 C739 C 0.84939 0.24518 0.55198
 C740 C 0.85436 0.22045 0.54722
 C741 C 0.87305 0.20897 0.56008
 C742 C 0.88714 0.22211 0.57692
 C743 C 0.92066 0.22270 0.60564
 C744 C 0.90569 0.21014 0.58943
 H745 H 0.93492 0.21264 0.61468
 H746 H 0.90884 0.19076 0.58648
 H747 H 0.94882 0.25002 0.63373
 H748 H 0.91337 0.31831 0.61899
 H749 H 0.83496 0.25442 0.54239
 H750 H 0.87681 0.18974 0.55683
 H751 H 0.88406 0.29758 0.59339
 H752 H 0.85896 0.27756 0.57130
 C753 C 0.40427 0.09858 0.26055
 C754 C 0.39335 0.07852 0.24831
 C755 C 0.37884 0.06205 0.26138
 C756 C 0.37543 0.06485 0.28671
 C757 C 0.38602 0.08478 0.29883
 C758 C 0.40020 0.10153 0.28595
 C759 C 0.42034 0.11525 0.24603
 C760 C 0.43195 0.13584 0.25631
 C761 C 0.44777 0.14998 0.24231
 C762 C 0.45244 0.14397 0.21772
 C763 C 0.44031 0.12403 0.20708
 C764 C 0.42435 0.10974 0.22095
 C765 C 0.39742 0.07462 0.22326
 C766 C 0.41271 0.08979 0.20991
 H767 H 0.38902 0.05928 0.21391
 H768 H 0.41564 0.08570 0.19066
 H769 H 0.37061 0.04662 0.25200
 H770 H 0.38363 0.08712 0.31843
 H771 H 0.45679 0.16533 0.25096
 H772 H 0.44357 0.11935 0.18802
 H773 H 0.40814 0.11633 0.29631
 H774 H 0.42930 0.14120 0.27518
 C775 C 0.59266 0.09566 0.73881
 C776 C 0.59379 0.09951 0.71313
 C777 C 0.60746 0.08369 0.69825
 C778 C 0.62006 0.06409 0.70869
 C779 C 0.61974 0.06093 0.73417
 C780 C 0.60626 0.07647 0.74909
 C781 C 0.57668 0.11190 0.75387
 C782 C 0.57311 0.10842 0.77921
 C783 C 0.55721 0.12323 0.79226
 C784 C 0.54455 0.14208 0.78056
 C785 C 0.54832 0.14611 0.75541
 C786 C 0.56401 0.13097 0.74195
 C787 C 0.58100 0.11886 0.70248
 C788 C 0.56659 0.13436 0.71660
 H789 H 0.58200 0.12196 0.68286
 H790 H 0.55694 0.14895 0.70743
 H791 H 0.60789 0.08622 0.67852
 H792 H 0.62968 0.04604 0.74248
 H793 H 0.55473 0.11977 0.81167
 H794 H 0.53847 0.16051 0.74615
 H795 H 0.60662 0.07295 0.76853
 H796 H 0.58203 0.09411 0.78929
 C797 C 0.40573 0.90241 0.74054
 C798 C 0.38585 0.91244 0.75331
 C799 C 0.37006 0.92846 0.74130
 C800 C 0.37459 0.93590 0.71714
 C801 C 0.39476 0.92674 0.70479
 C802 C 0.41001 0.90993 0.71618
 C803 C 0.42211 0.88530 0.75400
 C804 C 0.44079 0.87228 0.74236
 C805 C 0.45639 0.85759 0.75599
 C806 C 0.45394 0.85588 0.78151
 C807 C 0.43483 0.86792 0.79316
 C808 C 0.41858 0.88210 0.77952
 C809 C 0.38248 0.90729 0.77824
 C810 C 0.39885 0.89296 0.79122
 H811 H 0.36739 0.91514 0.78809
 H812 H 0.39590 0.89018 0.81068
 H813 H 0.35474 0.93603 0.75102
 H814 H 0.39876 0.93276 0.68631
 H815 H 0.47094 0.84823 0.74667
 H816 H 0.43258 0.86616 0.81285
 H817 H 0.42541 0.90364 0.70593
 H818 H 0.44363 0.87320 0.72279
 C819 C 0.58815 0.90492 0.26356
 C820 C 0.61230 0.89710 0.26602
 C821 C 0.62946 0.91271 0.27687
 C822 C 0.62262 0.93568 0.28616
 C823 C 0.59837 0.94259 0.28510
 C824 C 0.58137 0.92754 0.27387
 C825 C 0.57081 0.88874 0.25011
 C826 C 0.54752 0.89652 0.24360
 C827 C 0.53232 0.88125 0.23016
 C828 C 0.53970 0.85772 0.22337
 C829 C 0.56270 0.84954 0.22986
 C830 C 0.57858 0.86519 0.24257
 C831 C 0.61903 0.87375 0.25776
 C832 C 0.60239 0.85791 0.24682
 H833 H 0.63741 0.86754 0.25997
 H834 H 0.60846 0.83999 0.24088
 H835 H 0.64813 0.90711 0.27798
 H836 H 0.59263 0.95997 0.29275
 H837 H 0.51468 0.88787 0.22495
 H838 H 0.56859 0.83152 0.22398
 H839 H 0.56302 0.93392 0.27360
 H840 H 0.54095 0.91458 0.24802
 C841 C 0.40810 0.26053 0.90933
 C842 C 0.38635 0.27016 0.90005
 C843 C 0.37006 0.28192 0.91600
 C844 C 0.37546 0.28482 0.94116
 C845 C 0.39814 0.27693 0.94951
 C846 C 0.41410 0.26493 0.93399
 C847 C 0.42399 0.24617 0.89248
 C848 C 0.44394 0.23284 0.90104
 C849 C 0.45797 0.21922 0.88489
 C850 C 0.45278 0.21875 0.85975
 C851 C 0.43292 0.23189 0.85088
 C852 C 0.41806 0.24501 0.86724
 C853 C 0.38111 0.26794 0.87495
 C854 C 0.39693 0.25618 0.85879
 H855 H 0.36465 0.27561 0.86763
 H856 H 0.39216 0.25516 0.83953
 H857 H 0.35282 0.28793 0.90895
 H858 H 0.40374 0.28021 0.96828
 H859 H 0.47316 0.20912 0.89211
 H860 H 0.42856 0.23112 0.83149
 H861 H 0.43114 0.25945 0.94167
 H862 H 0.44871 0.23218 0.92021
 C863 C 0.59921 0.74834 0.90923
 C864 C 0.60434 0.72361 0.90340
 C865 C 0.61720 0.70895 0.92005
 C866 C 0.62460 0.71836 0.94293
 C867 C 0.61990 0.74311 0.94826
 C868 C 0.60750 0.75787 0.93174
 C869 C 0.58444 0.76303 0.89158
 C870 C 0.57816 0.78766 0.89592
 C871 C 0.56298 0.80007 0.87986
 C872 C 0.55370 0.78842 0.85891
 C873 C 0.56067 0.76421 0.85380
 C874 C 0.57585 0.75145 0.87000
 C875 C 0.59602 0.71347 0.88132
 C876 C 0.58201 0.72705 0.86503
 H877 H 0.59999 0.69456 0.87676
 H878 H 0.57562 0.71818 0.84843
 H879 H 0.62038 0.68983 0.91569
 H880 H 0.62602 0.75120 0.96534
 H881 H 0.55813 0.81880 0.88418
 H882 H 0.55370 0.75501 0.83763
 H883 H 0.60436 0.77659 0.93718
 H884 H 0.58440 0.79763 0.91179
 C885 C 0.40844 0.73852 0.08964
 C886 C 0.38679 0.72834 0.09861
 C887 C 0.37101 0.71608 0.08246
 C888 C 0.37689 0.71312 0.05742
 C889 C 0.39958 0.72146 0.04945
 C890 C 0.41498 0.73407 0.06514
 C891 C 0.42374 0.75337 0.10668
 C892 C 0.44341 0.76735 0.09839
 C893 C 0.45701 0.78121 0.11478
 C894 C 0.45166 0.78124 0.13989
 C895 C 0.43197 0.76759 0.14845
 C896 C 0.41752 0.75426 0.13185
 C897 C 0.38116 0.73045 0.12363
 C898 C 0.39653 0.74255 0.14001
 H899 H 0.36477 0.72236 0.13071
 H900 H 0.39153 0.74339 0.15921
 H901 H 0.35379 0.70969 0.08925
 H902 H 0.40562 0.71811 0.03084
 H903 H 0.47205 0.79174 0.10781
 H904 H 0.42746 0.76803 0.16780
 H905 H 0.43204 0.73993 0.05777
 H906 H 0.44829 0.76826 0.07926
 C907 C 0.59984 0.25503 0.09447
 C908 C 0.60619 0.24390 0.07190
 C909 C 0.61992 0.25682 0.05463
 C910 C 0.62742 0.28106 0.05914
 C911 C 0.62160 0.29176 0.08190
 C912 C 0.60804 0.27901 0.09928
 C913 C 0.58421 0.24093 0.11194
 C914 C 0.57628 0.25052 0.13458
 C915 C 0.56072 0.23711 0.14957
 C916 C 0.55272 0.21375 0.14247
 C917 C 0.56113 0.20374 0.12032
 C918 C 0.57662 0.21711 0.10504
 C919 C 0.59853 0.22004 0.06648
 C920 C 0.58407 0.20694 0.08269
 H921 H 0.60352 0.21146 0.04926
 H922 H 0.57835 0.18867 0.07746
 H923 H 0.62492 0.24788 0.03757
 H924 H 0.62678 0.31048 0.08596
 H925 H 0.55459 0.24528 0.16659
 H926 H 0.55515 0.18569 0.11460
 H927 H 0.60387 0.28844 0.11616
 H928 H 0.58154 0.26848 0.14091
 C929 C 0.25082 0.08706 0.59838
 C930 C 0.25961 0.09656 0.62083
 C931 C 0.27205 0.08120 0.63722
 C932 C 0.27708 0.05662 0.63099
 C933 C 0.26948 0.04801 0.60784
 C934 C 0.25646 0.06281 0.59193
 C935 C 0.23644 0.10342 0.58204
 C936 C 0.22409 0.09461 0.56124
 C937 C 0.21111 0.11051 0.54637
 C938 C 0.21035 0.13564 0.55157
 C939 C 0.22215 0.14465 0.57251
 C940 C 0.23460 0.12856 0.58818
 C941 C 0.25626 0.12141 0.62648
 C942 C 0.24462 0.13721 0.61018
 H943 H 0.26322 0.12888 0.64351
 H944 H 0.24296 0.15637 0.61515
 H945 H 0.27738 0.08831 0.65500
 H946 H 0.27398 0.02968 0.60171
 H947 H 0.20194 0.10318 0.53040
 H948 H 0.22110 0.16400 0.57692
 H949 H 0.25145 0.05505 0.57443
 H950 H 0.22392 0.07545 0.55635
 C951 C 0.74084 0.09430 0.40332
 C952 C 0.73751 0.07016 0.41207
 C953 C 0.72444 0.05308 0.39818
 C954 C 0.71577 0.05886 0.37461
 C955 C 0.71957 0.08283 0.36583
 C956 C 0.73172 0.10032 0.37999
 C957 C 0.75467 0.11206 0.41900
 C958 C 0.75692 0.13721 0.41342
 C959 C 0.77027 0.15285 0.42865
 C960 C 0.78211 0.14359 0.44932
 C961 C 0.77968 0.11876 0.45522
 C962 C 0.76561 0.10315 0.44067
 C963 C 0.74783 0.06289 0.43433
 C964 C 0.76206 0.07886 0.44802
 H965 H 0.74542 0.04434 0.44094
 H966 H 0.77015 0.07217 0.46481
 H967 H 0.72106 0.03509 0.40585
 H968 H 0.71383 0.08792 0.34754
 H969 H 0.77169 0.17210 0.42408
 H970 H 0.78824 0.11174 0.47165
 H971 H 0.73441 0.11821 0.37207
 H972 H 0.74825 0.14516 0.39761
 C973 C 0.74741 0.90941 0.59625
 C974 C 0.72330 0.90266 0.60116
 C975 C 0.70809 0.91875 0.61408
 C976 C 0.71638 0.94190 0.62182
 C977 C 0.74061 0.94799 0.61761
 C978 C 0.75588 0.93208 0.60512
 C979 C 0.76264 0.89247 0.58113
 C980 C 0.78654 0.89802 0.57456
 C981 C 0.79949 0.88250 0.55913
 C982 C 0.78914 0.86092 0.54990
 C983 C 0.76563 0.85472 0.55704
 C984 C 0.75229 0.87039 0.57240
 C985 C 0.71434 0.88021 0.59257
 C986 C 0.72852 0.86443 0.57852
 H987 H 0.69593 0.87493 0.59642
 H988 H 0.72060 0.84747 0.57197
 H989 H 0.68941 0.91375 0.61696
 H990 H 0.74786 0.96527 0.62412
 H991 H 0.81764 0.88768 0.55411
 H992 H 0.75741 0.83809 0.55003
 H993 H 0.77414 0.93810 0.60239
 H994 H 0.79550 0.91443 0.58072
 C995 C 0.25243 0.90897 0.40156
 C996 C 0.27638 0.90257 0.39556
 C997 C 0.29091 0.91896 0.38227
 C998 C 0.28218 0.94217 0.37540
 C999 C 0.25819 0.94807 0.38098
 C1000 C 0.24354 0.93180 0.39375
 C1001 C 0.23785 0.89155 0.41673
 C1002 C 0.21394 0.89641 0.42371
 C1003 C 0.20163 0.88053 0.43923
 C1004 C 0.21266 0.85925 0.44820
 C1005 C 0.23613 0.85363 0.44052
 C1006 C 0.24879 0.86964 0.42494
 C1007 C 0.28588 0.88018 0.40350
 C1008 C 0.27244 0.86414 0.41797
 H1009 H 0.30420 0.87519 0.39888
 H1010 H 0.28081 0.84729 0.42406
 H1011 H 0.30945 0.91416 0.37838
 H1012 H 0.25059 0.96541 0.37524
 H1013 H 0.18345 0.88524 0.44459
 H1014 H 0.24482 0.83719 0.44722
 H1015 H 0.22543 0.93770 0.39756
 H1016 H 0.20445 0.91252 0.41773
 C1017 C 0.09299 0.39553 0.75068
 C1018 C 0.09668 0.39256 0.72511
 C1019 C 0.08005 0.37921 0.71095
 C1020 C 0.05970 0.36878 0.72193
 C1021 C 0.05664 0.37074 0.74737
 C1022 C 0.07304 0.38391 0.76162
 C1023 C 0.11011 0.41150 0.76479
 C1024 C 0.10705 0.41702 0.78989
 C1025 C 0.12252 0.43332 0.80182
 C1026 C 0.14160 0.44438 0.78917
 C1027 C 0.14532 0.43837 0.76439
 C1028 C 0.12960 0.42234 0.75208
 C1029 C 0.11662 0.40336 0.71375
 C1030 C 0.13281 0.41779 0.72697
 H1031 H 0.11959 0.40090 0.69424
 H1032 H 0.14777 0.42602 0.71724
 H1033 H 0.08249 0.37754 0.69127
 H1034 H 0.04115 0.36247 0.75614
 H1035 H 0.11927 0.43756 0.82096
 H1036 H 0.15992 0.44692 0.75436
 H1037 H 0.06953 0.38504 0.78104
 H1038 H 0.09252 0.40943 0.80055
 C1039 C 0.09474 0.60170 0.24930
 C1040 C 0.10005 0.60691 0.27418
 C1041 C 0.08350 0.61995 0.28870
 C1042 C 0.06122 0.62745 0.27901
 C1043 C 0.05643 0.62274 0.25409
 C1044 C 0.07287 0.61017 0.23946
 C1045 C 0.11221 0.58653 0.23481
 C1046 C 0.10833 0.58003 0.21008
 C1047 C 0.12408 0.56425 0.19796
 C1048 C 0.14423 0.55461 0.21003
 C1049 C 0.14894 0.56194 0.23429
 C1050 C 0.13306 0.57769 0.24676
 C1051 C 0.12148 0.59841 0.28465
 C1052 C 0.13758 0.58404 0.27127
 H1053 H 0.12564 0.60247 0.30366
 H1054 H 0.15363 0.57746 0.28039
 H1055 H 0.08743 0.62312 0.30795
 H1056 H 0.03981 0.62894 0.24579
 H1057 H 0.12008 0.55912 0.17918
 H1058 H 0.16450 0.55470 0.24382
 H1059 H 0.06786 0.60699 0.22061
 H1060 H 0.09303 0.58649 0.19984
 C1061 C 0.91298 0.40753 0.25619
 C1062 C 0.90456 0.38487 0.26530
 C1063 C 0.92030 0.36929 0.27816
 C1064 C 0.94415 0.37655 0.28331
 C1065 C 0.95160 0.39997 0.27555
 C1066 C 0.93645 0.41508 0.26208
 C1067 C 0.89634 0.42290 0.24117
 C1068 C 0.90427 0.44368 0.22821
 C1069 C 0.88818 0.45756 0.21452
 C1070 C 0.86375 0.45140 0.21369
 C1071 C 0.85560 0.43051 0.22614
 C1072 C 0.87193 0.41577 0.23924
 C1073 C 0.88042 0.37820 0.26186
 C1074 C 0.86429 0.39366 0.24975
 H1075 H 0.87376 0.36102 0.26912
 H1076 H 0.84570 0.38792 0.24802
 H1077 H 0.91404 0.35133 0.28372
 H1078 H 0.96929 0.40691 0.28024
 H1079 H 0.89481 0.47352 0.20483
 H1080 H 0.83678 0.42538 0.22500
 H1081 H 0.94330 0.43283 0.25691
 H1082 H 0.92289 0.44926 0.22805
 C1083 C 0.90371 0.60049 0.74170
 C1084 C 0.92630 0.60641 0.75213
 C1085 C 0.94343 0.61935 0.73844
 C1086 C 0.93878 0.62650 0.71411
 C1087 C 0.91596 0.62139 0.70415
 C1088 C 0.89871 0.60854 0.71767
 C1089 C 0.88646 0.58540 0.75658
 C1090 C 0.86388 0.57759 0.74768
 C1091 C 0.84915 0.56232 0.76179
 C1092 C 0.85647 0.55455 0.78514
 C1093 C 0.87853 0.56295 0.79447
 C1094 C 0.89354 0.57807 0.78042
 C1095 C 0.93189 0.59910 0.77606
 C1096 C 0.91586 0.58527 0.78991
 H1097 H 0.94913 0.60383 0.78410
 H1098 H 0.92121 0.57975 0.80821
 H1099 H 0.96055 0.62396 0.74684
 H1100 H 0.91175 0.62647 0.68542
 H1101 H 0.83220 0.55616 0.75413
 H1102 H 0.88442 0.55717 0.81252
 H1103 H 0.88175 0.60478 0.70882
 H1104 H 0.85746 0.58264 0.72972
 C1105 C 0.74219 0.60108 0.90816
 C1106 C 0.71703 0.60204 0.90408
 C1107 C 0.70213 0.61488 0.92051
 C1108 C 0.71200 0.62678 0.94099
 C1109 C 0.73695 0.62675 0.94439
 C1110 C 0.75191 0.61411 0.92822
 C1111 C 0.75726 0.58573 0.89128
 C1112 C 0.78212 0.58220 0.89485
 C1113 C 0.79512 0.56653 0.87958
 C1114 C 0.78382 0.55414 0.86016
 C1115 C 0.75922 0.55809 0.85594
 C1116 C 0.74584 0.57347 0.87152
 C1117 C 0.70690 0.58983 0.88394
 C1118 C 0.72101 0.57600 0.86791
 H1119 H 0.68769 0.59074 0.88066
 H1120 H 0.71224 0.56667 0.85276
 H1121 H 0.68281 0.61510 0.91780
 H1122 H 0.74483 0.63618 0.95997
 H1123 H 0.81410 0.56389 0.88319
 H1124 H 0.75025 0.54846 0.84110
 H1125 H 0.77093 0.61455 0.93199
 H1126 H 0.79183 0.59088 0.90963
 C1127 C 0.26040 0.40361 0.90738
 C1128 C 0.26361 0.41141 0.93193
 C1129 C 0.27663 0.39692 0.94844
 C1130 C 0.28535 0.37365 0.94163
 C1131 C 0.28203 0.36599 0.91715
 C1132 C 0.26989 0.38075 0.90025
 C1133 C 0.24632 0.41975 0.89037
 C1134 C 0.24380 0.41493 0.86503
 C1135 C 0.23014 0.43045 0.85013
 C1136 C 0.21829 0.45072 0.86025
 C1137 C 0.22096 0.45589 0.88529
 C1138 C 0.23528 0.44097 0.90023
 C1139 C 0.25320 0.43327 0.94019
 C1140 C 0.23890 0.44745 0.92483
 H1141 H 0.25556 0.43916 0.95905
 H1142 H 0.23074 0.46389 0.93226
 H1143 H 0.27982 0.40383 0.96683
 H1144 H 0.28802 0.34806 0.91119
 H1145 H 0.22850 0.42638 0.83073
 H1146 H 0.21235 0.47197 0.89303
 H1147 H 0.26747 0.37361 0.88194
 H1148 H 0.25244 0.39948 0.85638
 C1149 C 0.26281 0.59332 0.09120
 C1150 C 0.26605 0.58534 0.06672
 C1151 C 0.27906 0.59975 0.05010
 C1152 C 0.28776 0.62311 0.05672
 C1153 C 0.28435 0.63098 0.08113
 C1154 C 0.27222 0.61630 0.09813
 C1155 C 0.24877 0.57725 0.10835
 C1156 C 0.24626 0.58227 0.13364
 C1157 C 0.23257 0.56686 0.14867
 C1158 C 0.22070 0.54648 0.13872
 C1159 C 0.22341 0.54108 0.11373
 C1160 C 0.23775 0.55591 0.09867
 C1161 C 0.25567 0.56336 0.05865
 C1162 C 0.24139 0.54924 0.07413
 H1163 H 0.25806 0.55731 0.03984
 H1164 H 0.23325 0.53270 0.06683
 H1165 H 0.28228 0.59270 0.03177
 H1166 H 0.29026 0.64900 0.08694
 H1167 H 0.23091 0.57112 0.16803
 H1168 H 0.21478 0.52492 0.10613
 H1169 H 0.26975 0.62360 0.11637
 H1170 H 0.25490 0.59782 0.14218
 C1171 C 0.74314 0.39734 0.09626
 C1172 C 0.75470 0.38665 0.07570
 C1173 C 0.74141 0.37273 0.05878
 C1174 C 0.71649 0.36995 0.06148
 C1175 C 0.70507 0.38014 0.08200
 C1176 C 0.71819 0.39358 0.09927
 C1177 C 0.75781 0.41306 0.11324
 C1178 C 0.74819 0.42431 0.13438
 C1179 C 0.76218 0.44015 0.14863
 C1180 C 0.78609 0.44524 0.14219
 C1181 C 0.79615 0.43331 0.12180
 C1182 C 0.78229 0.41726 0.10741
 C1183 C 0.77926 0.39062 0.07163
 C1184 C 0.79270 0.40578 0.08702
 H1185 H 0.78810 0.38240 0.05592
 H1186 H 0.81151 0.40877 0.08271
 H1187 H 0.75027 0.36474 0.04294
 H1188 H 0.68582 0.37815 0.08432
 H1189 H 0.75400 0.44899 0.16437
 H1190 H 0.81472 0.43684 0.11684
 H1191 H 0.70836 0.40138 0.11444
 H1192 H 0.72984 0.42139 0.14007
 C1193 C 0.91106 0.74840 0.59901
 C1194 C 0.90419 0.72430 0.60554
 C1195 C 0.91991 0.70947 0.61921
 C1196 C 0.94284 0.71805 0.62608
 C1197 C 0.94909 0.74233 0.62024
 C1198 C 0.93352 0.75727 0.60701
 C1199 C 0.89445 0.76315 0.58319
 C1200 C 0.90000 0.78702 0.57518
 C1201 C 0.88470 0.79944 0.55924
 C1202 C 0.86335 0.78854 0.55087
 C1203 C 0.85720 0.76508 0.55940
 C1204 C 0.87261 0.75231 0.57534
 C1205 C 0.88198 0.71492 0.59777
 C1206 C 0.86655 0.72860 0.58299
 H1207 H 0.87661 0.69652 0.60284
 H1208 H 0.84976 0.72032 0.57713
 H1209 H 0.91478 0.69075 0.62335
 H1210 H 0.96621 0.74989 0.62605
 H1211 H 0.88986 0.81757 0.55313
 H1212 H 0.84073 0.75645 0.55312
 H1213 H 0.93964 0.77557 0.60302
 H1214 H 0.91624 0.79636 0.58065
 C1215 C 0.90511 0.26379 0.40361
 C1216 C 0.91858 0.25119 0.38554
 C1217 C 0.93550 0.26387 0.37125
 C1218 C 0.94029 0.28882 0.37555
 C1219 C 0.92769 0.30094 0.39430
 C1220 C 0.91011 0.28875 0.40792
 C1221 C 0.88707 0.24965 0.41831
 C1222 C 0.87099 0.26091 0.43481
 C1223 C 0.85544 0.24680 0.44910
 C1224 C 0.85575 0.22116 0.44752
 C1225 C 0.87093 0.20980 0.43039
 C1226 C 0.88615 0.22388 0.41541
 C1227 C 0.91576 0.22584 0.38250
 C1228 C 0.90036 0.21239 0.39755
 H1229 H 0.92622 0.21612 0.36882
 H1230 H 0.89940 0.19271 0.39501
 H1231 H 0.94546 0.25419 0.35712
 H1232 H 0.93185 0.31982 0.39885
 H1233 H 0.84373 0.25595 0.46209
 H1234 H 0.87086 0.19000 0.42873
 H1235 H 0.90123 0.29895 0.42227
 H1236 H 0.87017 0.28054 0.43695
 C1237 C 0.08823 0.24774 0.60488
 C1238 C 0.09501 0.27169 0.61216
 C1239 C 0.07913 0.28622 0.62602
 C1240 C 0.05617 0.27744 0.63248
 C1241 C 0.05004 0.25325 0.62600
 C1242 C 0.06576 0.23863 0.61250
 C1243 C 0.10496 0.23344 0.58870
 C1244 C 0.09939 0.20989 0.57965
 C1245 C 0.11484 0.19796 0.56340
 C1246 C 0.13634 0.20904 0.55579
 C1247 C 0.14246 0.23216 0.56532
 C1248 C 0.12691 0.24446 0.58151
 C1249 C 0.11730 0.28127 0.60496
 C1250 C 0.13291 0.26794 0.59001
 H1251 H 0.12259 0.29954 0.61064
 H1252 H 0.14977 0.27635 0.58463
 H1253 H 0.08415 0.30489 0.63059
 H1254 H 0.03287 0.24557 0.63142
 H1255 H 0.10969 0.18009 0.55647
 H1256 H 0.15903 0.24095 0.55960
 H1257 H 0.05975 0.22039 0.60800
 H1258 H 0.08302 0.20048 0.58450
 C1259 C 0.09377 0.74414 0.40004
 C1260 C 0.09767 0.71857 0.39801
 C1261 C 0.08157 0.70393 0.38449
 C1262 C 0.06163 0.71447 0.37290
 C1263 C 0.05844 0.73989 0.37394
 C1264 C 0.07425 0.75459 0.38731
 C1265 C 0.11029 0.75886 0.41609
 C1266 C 0.10677 0.78399 0.42081
 C1267 C 0.12180 0.79663 0.43695
 C1268 C 0.14092 0.78470 0.44866
 C1269 C 0.14503 0.75982 0.44362
 C1270 C 0.12968 0.74676 0.42776
 C1271 C 0.11736 0.70775 0.40979
 C1272 C 0.13314 0.72159 0.42415
 H1273 H 0.12051 0.68824 0.40805
 H1274 H 0.14798 0.71230 0.43305
 H1275 H 0.08416 0.68426 0.38346
 H1276 H 0.04331 0.74832 0.36471
 H1277 H 0.11827 0.81584 0.44046
 H1278 H 0.15963 0.75036 0.45276
 H1279 H 0.07069 0.77399 0.38761
 H1280 H 0.09222 0.79418 0.41268
 C1281 C 0.59876 0.90694 0.74011
 C1282 C 0.60027 0.90231 0.71455
 C1283 C 0.61304 0.91848 0.69928
 C1284 C 0.62437 0.93921 0.70920
 C1285 C 0.62389 0.94307 0.73461
 C1286 C 0.61129 0.92718 0.74992
 C1287 C 0.58341 0.89041 0.75550
 C1288 C 0.57917 0.89471 0.78064
 C1289 C 0.56362 0.87967 0.79389
 C1290 C 0.55208 0.85978 0.78258
 C1291 C 0.55665 0.85490 0.75771
 C1292 C 0.57189 0.87026 0.74403
 C1293 C 0.58869 0.88186 0.70439
 C1294 C 0.57499 0.86605 0.71885
 H1295 H 0.59003 0.87815 0.68488
 H1296 H 0.56620 0.85063 0.71004
 H1297 H 0.61363 0.91539 0.67962
 H1298 H 0.63290 0.95882 0.74254
 H1299 H 0.56046 0.88380 0.81308
 H1300 H 0.54761 0.83971 0.74873
 H1301 H 0.61139 0.93130 0.76927
 H1302 H 0.58720 0.90987 0.79036
 C1303 C 0.39758 0.90321 0.25979
 C1304 C 0.39159 0.92602 0.24913
 C1305 C 0.37874 0.94352 0.26267
 C1306 C 0.37174 0.93902 0.28707
 C1307 C 0.37697 0.91597 0.29726
 C1308 C 0.38972 0.89836 0.28389
 C1309 C 0.41257 0.88561 0.24509
 C1310 C 0.42039 0.86282 0.25425
 C1311 C 0.43572 0.84789 0.24041
 C1312 C 0.44354 0.85522 0.21707
 C1313 C 0.43501 0.87738 0.20741
 C1314 C 0.41984 0.89262 0.22122
 C1315 C 0.39878 0.93148 0.22514
 C1316 C 0.41258 0.91513 0.21148
 H1317 H 0.39402 0.94887 0.21692
 H1318 H 0.41804 0.92042 0.19314
 H1319 H 0.37407 0.96079 0.25409
 H1320 H 0.37203 0.91187 0.31604
 H1321 H 0.44197 0.83087 0.24832
 H1322 H 0.44083 0.88327 0.18937
 H1323 H 0.39356 0.88126 0.29293
 H1324 H 0.41535 0.85641 0.27223
 C1325 C 0.59696 0.09379 0.26005
 C1326 C 0.58782 0.07063 0.26711
 C1327 C 0.60239 0.05423 0.28007
 C1328 C 0.62665 0.05965 0.28468
 C1329 C 0.63587 0.08240 0.27731
 C1330 C 0.62118 0.09940 0.26535
 C1331 C 0.58064 0.11081 0.24633
 C1332 C 0.58687 0.13524 0.24071
 C1333 C 0.57111 0.15010 0.22736
 C1334 C 0.54919 0.14070 0.21889
 C1335 C 0.54260 0.11668 0.22478
 C1336 C 0.55780 0.10194 0.23895
 C1337 C 0.56453 0.06354 0.26039
 C1338 C 0.55007 0.07861 0.24607
 H1339 H 0.55764 0.04572 0.26563
 H1340 H 0.53242 0.07201 0.24075
 H1341 H 0.59509 0.03674 0.28587
 H1342 H 0.65460 0.08687 0.28055
 H1343 H 0.57624 0.16879 0.22321
 H1344 H 0.52529 0.10968 0.21877
 H1345 H 0.62927 0.11648 0.25978
 H1346 H 0.60365 0.14322 0.24668
 C1347 C 0.39576 0.09603 0.74644
 C1348 C 0.39967 0.09264 0.72098
 C1349 C 0.38591 0.07546 0.70782
 C1350 C 0.36746 0.06223 0.71942
 C1351 C 0.36277 0.06670 0.74435
 C1352 C 0.37670 0.08330 0.75772
 C1353 C 0.41232 0.11278 0.76029
 C1354 C 0.41215 0.11473 0.78610
 C1355 C 0.42884 0.12956 0.79825
 C1356 C 0.44571 0.14324 0.78499
 C1357 C 0.44579 0.14182 0.75929
 C1358 C 0.42973 0.12620 0.74693
 C1359 C 0.41740 0.10627 0.70888
 C1360 C 0.43174 0.12310 0.72148
 H1361 H 0.42019 0.10397 0.68932
 H1362 H 0.44517 0.13324 0.71125
 H1363 H 0.39009 0.07181 0.68872
 H1364 H 0.34847 0.05689 0.75363
 H1365 H 0.42864 0.13028 0.81813
 H1366 H 0.45922 0.15192 0.74899
 H1367 H 0.37231 0.08584 0.77684
 H1368 H 0.39978 0.10439 0.79728
 C1369 C 0.59753 0.74561 0.10136
 C1370 C 0.59839 0.71983 0.10422
 C1371 C 0.61193 0.70546 0.08784
 C1372 C 0.62457 0.71646 0.06854
 C1373 C 0.62456 0.74200 0.06635
 C1374 C 0.61128 0.75645 0.08254
 C1375 C 0.58136 0.76010 0.11795
 C1376 C 0.57804 0.78557 0.11550
 C1377 C 0.56145 0.79797 0.13013
 C1378 C 0.54788 0.78545 0.14780
 C1379 C 0.55172 0.76025 0.15110
 C1380 C 0.56807 0.74747 0.13613
 C1381 C 0.58526 0.70852 0.12299
 C1382 C 0.57053 0.72206 0.13868
 H1383 H 0.58608 0.68883 0.12534
 H1384 H 0.56044 0.71238 0.15265
 H1385 H 0.61202 0.68567 0.08955
 H1386 H 0.63445 0.75074 0.05164
 H1387 H 0.55895 0.81743 0.12728
 H1388 H 0.54123 0.75035 0.16462
 H1389 H 0.61174 0.77598 0.07970
 H1390 H 0.58761 0.79622 0.10202
 C1391 C 0.40454 0.25502 0.09677
 C1392 C 0.41259 0.26193 0.07314
 C1393 C 0.39724 0.27469 0.05732
 C1394 C 0.37330 0.27941 0.06390
 C1395 C 0.36497 0.27159 0.08688
 C1396 C 0.38045 0.25980 0.10328
 C1397 C 0.42186 0.24210 0.11339
 C1398 C 0.41686 0.23713 0.13827
 C1399 C 0.43357 0.22467 0.15282
 C1400 C 0.45525 0.21646 0.14268
 C1401 C 0.46062 0.22172 0.11817
 C1402 C 0.44445 0.23504 0.10370
 C1403 C 0.43565 0.25546 0.06512
 C1404 C 0.45100 0.24173 0.07984
 H1405 H 0.44169 0.26053 0.04691
 H1406 H 0.46844 0.23663 0.07257
 H1407 H 0.40379 0.28055 0.03952
 H1408 H 0.34641 0.27457 0.09212
 H1409 H 0.42936 0.22095 0.17186
 H1410 H 0.47771 0.21587 0.11056
 H1411 H 0.37312 0.25406 0.12068
 H1412 H 0.40033 0.24296 0.14684
 C1413 C 0.59824 0.25792 0.89815
 C1414 C 0.60958 0.24518 0.91759
 C1415 C 0.62416 0.25784 0.93438
 C1416 C 0.62720 0.28325 0.93259
 C1417 C 0.61636 0.29587 0.91317
 C1418 C 0.60212 0.28339 0.89607
 C1419 C 0.58184 0.24384 0.88134
 C1420 C 0.56966 0.25466 0.86142
 C1421 C 0.55339 0.24106 0.84732
 C1422 C 0.54882 0.21637 0.85272
 C1423 C 0.56159 0.20521 0.87188
 C1424 C 0.57799 0.21866 0.88612
 C1425 C 0.60574 0.22003 0.92065
 C1426 C 0.59017 0.20708 0.90535
 H1427 H 0.61448 0.21029 0.93548
 H1428 H 0.58738 0.18775 0.90885
 H1429 H 0.63259 0.24809 0.94941
 H1430 H 0.61848 0.31553 0.91160
 H1431 H 0.54387 0.25010 0.83256
 H1432 H 0.55844 0.18605 0.87605
 H1433 H 0.59390 0.29411 0.88175
 H1434 H 0.57216 0.27364 0.85662
 C1435 C 0.41092 0.74094 0.90502
 C1436 C 0.38731 0.73626 0.89650
 C1437 C 0.37066 0.72426 0.91180
 C1438 C 0.37766 0.71582 0.93507
 C1439 C 0.40158 0.71901 0.94260
 C1440 C 0.41797 0.73151 0.92793
 C1441 C 0.42757 0.75547 0.88915
 C1442 C 0.44987 0.76432 0.89767
 C1443 C 0.46465 0.77817 0.88243
 C1444 C 0.45783 0.78313 0.85825
 C1445 C 0.43565 0.77460 0.84946
 C1446 C 0.42012 0.76145 0.86505
 C1447 C 0.38067 0.74334 0.87273
 C1448 C 0.39695 0.75506 0.85710
 H1449 H 0.36273 0.73945 0.86598
 H1450 H 0.39106 0.75986 0.83877
 H1451 H 0.35229 0.72155 0.90570
 H1452 H 0.40755 0.71203 0.96017
 H1453 H 0.48165 0.78490 0.88950
 H1454 H 0.43014 0.77902 0.83090
 H1455 H 0.43609 0.73338 0.93475
 H1456 H 0.45599 0.76127 0.91620
 C1457 C 0.74525 0.90008 0.39942
 C1458 C 0.72181 0.90686 0.40694
 C1459 C 0.70852 0.92367 0.39299
 C1460 C 0.71782 0.93299 0.37101
 C1461 C 0.74023 0.92484 0.36262
 C1462 C 0.75393 0.90871 0.37671
 C1463 C 0.75981 0.88411 0.41608
 C1464 C 0.78451 0.87966 0.41235
 C1465 C 0.79766 0.86587 0.42919
 C1466 C 0.78638 0.85564 0.44973
 C1467 C 0.76175 0.85952 0.45345
 C1468 C 0.74860 0.87433 0.43725
 C1469 C 0.71184 0.89685 0.42828
 C1470 C 0.72473 0.88043 0.44277
 H1471 H 0.69373 0.90169 0.43381
 H1472 H 0.71619 0.87312 0.45907
 H1473 H 0.69098 0.92969 0.39926
 H1474 H 0.74741 0.93158 0.34543
 H1475 H 0.81675 0.86325 0.42625
 H1476 H 0.75319 0.85217 0.46974
 H1477 H 0.77120 0.90324 0.36956
 H1478 H 0.79416 0.88737 0.39702
 C1479 C 0.25639 0.90176 0.59892
 C1480 C 0.26245 0.92570 0.59113
 C1481 C 0.27506 0.94147 0.60683
 C1482 C 0.28053 0.93451 0.63096
 C1483 C 0.27382 0.91110 0.63903
 C1484 C 0.26214 0.89476 0.62314
 C1485 C 0.24328 0.88536 0.58126
 C1486 C 0.23877 0.86034 0.58588
 C1487 C 0.22601 0.84606 0.56890
 C1488 C 0.21707 0.85660 0.54736
 C1489 C 0.22187 0.88124 0.54234
 C1490 C 0.23541 0.89546 0.55873
 C1491 C 0.25520 0.93413 0.56805
 C1492 C 0.24144 0.91955 0.55246
 H1493 H 0.25965 0.95256 0.56223
 H1494 H 0.23571 0.92713 0.53504
 H1495 H 0.28010 0.95959 0.60050
 H1496 H 0.27748 0.90553 0.65772
 H1497 H 0.22264 0.82691 0.57283
 H1498 H 0.21544 0.88918 0.52533
 H1499 H 0.25720 0.87704 0.63029
 H1500 H 0.24514 0.85149 0.60232
 C1501 C 0.25882 0.10127 0.40423
 C1502 C 0.24710 0.08174 0.39188
 C1503 C 0.26041 0.06519 0.37762
 C1504 C 0.28544 0.06740 0.37577
 C1505 C 0.29706 0.08701 0.38743
 C1506 C 0.28394 0.10383 0.40146
 C1507 C 0.24402 0.11768 0.42044
 C1508 C 0.25381 0.13747 0.43387
 C1509 C 0.23948 0.15113 0.44997
 C1510 C 0.21507 0.14541 0.45309
 C1511 C 0.20498 0.12641 0.43904
 C1512 C 0.21916 0.11259 0.42288
 C1513 C 0.22228 0.07833 0.39439
 C1514 C 0.20863 0.09336 0.40962
 H1515 H 0.21332 0.06345 0.38483
 H1516 H 0.18955 0.08962 0.41135
 H1517 H 0.25144 0.05003 0.36851
 H1518 H 0.31641 0.08892 0.38617
 H1519 H 0.24770 0.16576 0.46051
 H1520 H 0.18607 0.12198 0.44107
 H1521 H 0.29386 0.11832 0.41038
 H1522 H 0.27254 0.14244 0.43253
 C1523 C 0.74277 0.09956 0.59558
 C1524 C 0.71749 0.10279 0.59604
 C1525 C 0.70291 0.08639 0.60923
 C1526 C 0.71321 0.06677 0.62197
 C1527 C 0.73826 0.06425 0.62242
 C1528 C 0.75291 0.08041 0.60946
 C1529 C 0.75754 0.11621 0.57975
 C1530 C 0.78254 0.11332 0.57665
 C1531 C 0.79527 0.12824 0.56048
 C1532 C 0.78355 0.14662 0.54714
 C1533 C 0.75879 0.15022 0.55066
 C1534 C 0.74569 0.13497 0.56655
 C1535 C 0.70692 0.12200 0.58293
 C1536 C 0.72073 0.13786 0.56865
 H1537 H 0.68761 0.12464 0.58346
 H1538 H 0.71164 0.15224 0.55860
 H1539 H 0.68351 0.08839 0.60899
 H1540 H 0.74646 0.04930 0.63244
 H1541 H 0.81438 0.12513 0.55819
 H1542 H 0.74952 0.16426 0.54029
 H1543 H 0.77203 0.07732 0.61031
 H1544 H 0.79257 0.09932 0.58607
 C1545 C 0.90538 0.59858 0.25120
 C1546 C 0.90259 0.59970 0.27702
 C1547 C 0.91883 0.61339 0.29132
 C1548 C 0.93789 0.62599 0.28021
 C1549 C 0.94007 0.62569 0.25461
 C1550 C 0.92405 0.61222 0.24023
 C1551 C 0.88878 0.58236 0.23677
 C1552 C 0.89110 0.57876 0.21126
 C1553 C 0.87626 0.56223 0.19889
 C1554 C 0.85852 0.54901 0.21149
 C1555 C 0.85546 0.55306 0.23675
 C1556 C 0.87062 0.56934 0.24949
 C1557 C 0.88394 0.58676 0.28844
 C1558 C 0.86821 0.57203 0.27496
 H1559 H 0.88165 0.58778 0.30817
 H1560 H 0.85428 0.56214 0.28471
 H1561 H 0.91711 0.61371 0.31114
 H1562 H 0.95458 0.63558 0.24578
 H1563 H 0.87894 0.55956 0.17938
 H1564 H 0.84190 0.54281 0.24670
 H1565 H 0.92684 0.61250 0.22067
 H1566 H 0.90458 0.58807 0.20055
 C1567 C 0.90205 0.40626 0.74283
 C1568 C 0.92086 0.39448 0.75575
 C1569 C 0.93728 0.37956 0.74316
 C1570 C 0.93575 0.37669 0.71765
 C1571 C 0.91713 0.38825 0.70483
 C1572 C 0.90040 0.40279 0.71722
 C1573 C 0.88525 0.42254 0.75694
 C1574 C 0.86556 0.43463 0.74605
 C1575 C 0.85117 0.45054 0.75979
 C1576 C 0.85609 0.45487 0.78467
 C1577 C 0.87514 0.44230 0.79586
 C1578 C 0.88958 0.42615 0.78230
 C1579 C 0.92359 0.39814 0.78103
 C1580 C 0.90843 0.41381 0.79398
 H1581 H 0.93800 0.38912 0.79090
 H1582 H 0.91160 0.41641 0.81344
 H1583 H 0.95167 0.37056 0.75309
 H1584 H 0.91578 0.38626 0.68508
 H1585 H 0.83650 0.45991 0.75074
 H1586 H 0.87890 0.44524 0.81518
 H1587 H 0.88665 0.41148 0.70635
 H1588 H 0.86106 0.43222 0.72695
 C1589 C 0.09579 0.59160 0.73950
 C1590 C 0.07604 0.60230 0.75195
 C1591 C 0.05960 0.61696 0.73914
 C1592 C 0.06217 0.62081 0.71387
 C1593 C 0.08171 0.61033 0.70151
 C1594 C 0.09839 0.59595 0.71412
 C1595 C 0.11265 0.57563 0.75384
 C1596 C 0.13305 0.56434 0.74339
 C1597 C 0.14765 0.54889 0.75736
 C1598 C 0.14229 0.54425 0.78207
 C1599 C 0.12238 0.55590 0.79278
 C1600 C 0.10767 0.57152 0.77897
 C1601 C 0.07252 0.59799 0.77701
 C1602 C 0.08791 0.58281 0.79019
 H1603 H 0.05741 0.60620 0.78652
 H1604 H 0.08420 0.57978 0.80947
 H1605 H 0.04448 0.62512 0.74872
 H1606 H 0.08388 0.61306 0.68195
 H1607 H 0.16294 0.54021 0.74865
 H1608 H 0.11817 0.55268 0.81194
 H1609 H 0.11293 0.58817 0.70361
 H1610 H 0.13797 0.56704 0.72444
 C1611 C 0.09500 0.41172 0.26220
 C1612 C 0.10284 0.38767 0.26757
 C1613 C 0.08736 0.37128 0.27975
 C1614 C 0.06454 0.37899 0.28766
 C1615 C 0.05766 0.40340 0.28383
 C1616 C 0.07254 0.41952 0.27117
 C1617 C 0.11104 0.42799 0.24738
 C1618 C 0.10323 0.45057 0.23783
 C1619 C 0.11857 0.46490 0.22363
 C1620 C 0.14217 0.45737 0.21903
 C1621 C 0.15027 0.43491 0.22831
 C1622 C 0.13458 0.41980 0.24181
 C1623 C 0.12611 0.38031 0.26092
 C1624 C 0.14186 0.39627 0.24891
 H1625 H 0.13234 0.36205 0.26535
 H1626 H 0.15976 0.38982 0.24444
 H1627 H 0.09294 0.35253 0.28295
 H1628 H 0.04040 0.40990 0.29035
 H1629 H 0.11203 0.48210 0.21633
 H1630 H 0.16838 0.42882 0.22418
 H1631 H 0.06621 0.43802 0.26875
 H1632 H 0.08517 0.45722 0.24058
   
