data_POSCAR
  _audit_creation_date              2014-09-24
  _audit_creation_method            'ToBaCCo'
  _symmetry_space_group_name_H-M    'P1'
  _symmetry_Int_Tables_number       1
  _symmetry_cell_setting            triclinic
  loop_
  _symmetry_equiv_pos_as_xyz
 x,y,z
_cell_length_a 55.2274
_cell_length_b 55.1174
_cell_length_c 55.0663
_cell_angle_alpha 89.991500
_cell_angle_beta 90.030700
_cell_angle_gamma 89.851100
loop_
  _atom_site_label
  _atom_site_type_symbol
  _atom_site_fract_x
  _atom_site_fract_y
  _atom_site_fract_z
N1 N 0.36515 1.35841 0.30551
 N2 N 0.34344 1.36489 0.29839
 C3 C 0.34501 1.37716 0.27743
 C4 C 0.36937 1.38028 0.27151
 C5 C 0.38151 1.36750 0.28986
 H6 H 0.32919 1.38232 0.26718
 H7 H 0.40077 1.36473 0.29185
 Cu8 Cu 0.31544 1.35989 0.31877
 Cu9 Cu 0.36969 1.33732 0.33379
 Cu10 Cu 0.31687 1.31744 0.36176
 N11 N 0.29358 1.36122 0.34634
 N12 N 0.29300 1.34366 0.36245
 C13 C 0.27592 1.34873 0.37914
 C14 C 0.26611 1.37135 0.37387
 C15 C 0.27750 1.37848 0.35260
 H16 H 0.27207 1.33754 0.39481
 H17 H 0.27402 1.39473 0.34212
 N18 N 0.34827 1.30127 0.36624
 N19 N 0.36849 1.30898 0.35602
 C20 C 0.38648 1.29335 0.36155
 C21 C 0.37702 1.27517 0.37600
 C22 C 0.35284 1.28081 0.37873
 H23 H 0.40481 1.29450 0.35476
 H24 H 0.33939 1.27028 0.38833
 H25 H 0.33631 1.32228 0.32873
 H26 H 0.33880 1.34528 0.35346
 N27 N 0.36185 0.84692 0.79570
 N28 N 0.34465 0.86344 0.79627
 C29 C 0.34673 0.87787 0.77664
 C30 C 0.36628 0.86989 0.76313
 C31 C 0.37561 0.85041 0.77585
 H32 H 0.33539 0.89343 0.77280
 H33 H 0.39145 0.83984 0.77115
 Cu34 Cu 0.32207 0.86562 0.82326
 Cu35 Cu 0.36570 0.82270 0.82108
 Cu36 Cu 0.32172 0.82142 0.86566
 N37 N 0.29567 0.86218 0.84632
 N38 N 0.29528 0.84457 0.86243
 C39 C 0.27516 0.84666 0.87606
 C40 C 0.26231 0.86663 0.86802
 C41 C 0.27591 0.87623 0.84932
 H42 H 0.27056 0.83506 0.89120
 H43 H 0.27181 0.89236 0.83891
 N44 N 0.34993 0.79954 0.86571
 N45 N 0.36642 0.79965 0.84835
 C46 C 0.38309 0.78242 0.85316
 C47 C 0.37699 0.77134 0.87476
 C48 C 0.35584 0.78246 0.88218
 H49 H 0.39869 0.77836 0.84201
 H50 H 0.34551 0.77823 0.89830
 H51 H 0.32901 0.82241 0.82879
 H52 H 0.34876 0.84129 0.84895
 N53 N 0.86614 1.35525 0.80602
 N54 N 0.84428 1.36020 0.79816
 C55 C 0.84573 1.37208 0.77695
 C56 C 0.87004 1.37654 0.77162
 C57 C 0.88236 1.36492 0.79058
 H58 H 0.82994 1.37612 0.76616
 H59 H 0.90168 1.36343 0.79321
 Cu60 Cu 0.81601 1.35411 0.81804
 Cu61 Cu 0.87139 1.33529 0.83495
 Cu62 Cu 0.81972 1.31553 0.86460
 N63 N 0.79325 1.35571 0.84498
 N64 N 0.79444 1.34022 0.86311
 C65 C 0.77719 1.34571 0.87949
 C66 C 0.76494 1.36605 0.87139
 C67 C 0.77540 1.37181 0.84932
 H68 H 0.77442 1.33623 0.89646
 H69 H 0.77073 1.38687 0.83759
 N70 N 0.85160 1.30082 0.86996
 N71 N 0.87141 1.30827 0.85880
 C72 C 0.88993 1.29362 0.86521
 C73 C 0.88128 1.27658 0.88144
 C74 C 0.85697 1.28161 0.88402
 H75 H 0.90815 1.29481 0.85812
 H76 H 0.84401 1.27154 0.89473
 H77 H 0.83866 1.31853 0.83107
 H78 H 0.84005 1.34376 0.85371
 N79 N 0.86311 0.84645 0.29672
 N80 N 0.84399 0.86061 0.29509
 C81 C 0.84601 0.87451 0.27508
 C82 C 0.86758 0.86869 0.26351
 C83 C 0.87819 0.85120 0.27818
 H84 H 0.83326 0.88847 0.26981
 H85 H 0.89510 0.84180 0.27495
 Cu86 Cu 0.81920 0.85991 0.32018
 Cu87 Cu 0.86559 0.82107 0.32120
 Cu88 Cu 0.82376 0.82257 0.36814
 N89 N 0.79447 0.85944 0.34529
 N90 N 0.79699 0.84543 0.36448
 C91 C 0.77832 0.84923 0.37969
 C92 C 0.76313 0.86626 0.36933
 C93 C 0.77398 0.87256 0.34762
 H94 H 0.77588 0.84028 0.39699
 H95 H 0.76765 0.88608 0.33487
 N96 N 0.85194 0.80049 0.36777
 N97 N 0.86761 0.79958 0.34967
 C98 C 0.88305 0.78102 0.35347
 C99 C 0.87664 0.76970 0.37485
 C100 C 0.85708 0.78258 0.38361
 H101 H 0.89728 0.77544 0.34118
 H102 H 0.84660 0.77828 0.39961
 H103 H 0.82941 0.81842 0.33167
 H104 H 0.84858 0.84141 0.34738
 N105 N 0.63970 0.65655 0.29410
 N106 N 0.65798 0.64126 0.29274
 C107 C 0.65532 0.62746 0.27272
 C108 C 0.63432 0.63461 0.26102
 C109 C 0.62475 0.65290 0.27518
 H110 H 0.66728 0.61285 0.26736
 H111 H 0.60805 0.66269 0.27196
 Cu112 Cu 0.68243 0.63994 0.31824
 Cu113 Cu 0.63669 0.68032 0.31996
 Cu114 Cu 0.68047 0.67912 0.36503
 N115 N 0.70656 0.63913 0.34406
 N116 N 0.70529 0.65417 0.36256
 C117 C 0.72365 0.64955 0.37797
 C118 C 0.73734 0.63088 0.36846
 C119 C 0.72594 0.62451 0.34703
 H120 H 0.72703 0.65925 0.39470
 H121 H 0.73137 0.61024 0.33469
 N122 N 0.65393 0.70298 0.36433
 N123 N 0.63690 0.70304 0.34749
 C124 C 0.62163 0.72165 0.35170
 C125 C 0.62971 0.73402 0.37186
 C126 C 0.65007 0.72169 0.37958
 H127 H 0.60619 0.72638 0.34057
 H128 H 0.66131 0.72628 0.39498
 H129 H 0.67314 0.68199 0.32828
 H130 H 0.65447 0.66004 0.34604
 N131 N 0.63208 0.14741 0.80160
 N132 N 0.65228 0.13526 0.79812
 C133 C 0.65091 0.12342 0.77677
 C134 C 0.62862 0.12844 0.76624
 C135 C 0.61695 0.14325 0.78291
 H136 H 0.66475 0.11140 0.76976
 H137 H 0.59925 0.15146 0.78092
 Cu138 Cu 0.67802 0.13570 0.82224
 Cu139 Cu 0.62804 0.17016 0.82839
 Cu140 Cu 0.67565 0.17424 0.86934
 N141 N 0.70388 0.13695 0.84624
 N142 N 0.70311 0.15259 0.86426
 C143 C 0.72294 0.14974 0.87820
 C144 C 0.73682 0.13132 0.86840
 C145 C 0.72413 0.12340 0.84829
 H146 H 0.72667 0.15976 0.89466
 H147 H 0.72923 0.10874 0.83628
 N148 N 0.64627 0.19444 0.87159
 N149 N 0.62783 0.19239 0.85646
 C150 C 0.61080 0.20887 0.86250
 C151 C 0.61884 0.22171 0.88249
 C152 C 0.64146 0.21228 0.88759
 H153 H 0.59421 0.21207 0.85255
 H154 H 0.65363 0.21836 0.90171
 H155 H 0.66447 0.17631 0.83332
 H156 H 0.65033 0.15229 0.85252
 N157 N 1.14221 0.66323 0.78976
 N158 N 1.16174 0.64965 0.78795
 C159 C 1.15970 0.63524 0.76829
 C160 C 1.13782 0.64031 0.75721
 C161 C 1.12713 0.65810 0.77127
 H162 H 1.17277 0.62161 0.76292
 H163 H 1.10938 0.66605 0.76874
 Cu164 Cu 1.18727 0.65102 0.81235
 Cu165 Cu 1.13761 0.68548 0.81685
 Cu166 Cu 1.16736 0.66549 0.86836
 N167 N 1.20588 0.64346 0.84127
 N168 N 1.19684 0.64649 0.86309
 C169 C 1.21171 0.63593 0.87938
 C170 C 1.23143 0.62586 0.86716
 C171 C 1.22729 0.63199 0.84298
 H172 H 1.20838 0.63581 0.89871
 H173 H 1.23889 0.62879 0.82754
 N174 N 1.14214 0.69118 0.86901
 N175 N 1.13088 0.69867 0.84922
 C176 C 1.11631 0.71739 0.85485
 C177 C 1.11844 0.72211 0.87941
 C178 C 1.13519 0.70528 0.88780
 H179 H 1.10566 0.72755 0.84184
 H180 H 1.14279 0.70431 0.90588
 H181 H 1.17080 0.68412 0.83633
 H182 H 1.15051 0.65690 0.83587
 N183 N 1.13427 0.15168 0.29929
 N184 N 1.15255 0.13643 0.29798
 C185 C 1.14760 0.11941 0.28118
 C186 C 1.12487 0.12415 0.27171
 C187 C 1.11708 0.14497 0.28336
 H188 H 1.15966 0.10479 0.27606
 H189 H 1.10037 0.15475 0.28016
 Cu190 Cu 1.18138 0.14071 0.31775
 Cu191 Cu 1.13469 0.17965 0.32072
 Cu192 Cu 1.17694 0.17645 0.36720
 N193 N 1.20540 0.13980 0.34347
 N194 N 1.20345 0.15362 0.36282
 C195 C 1.22229 0.14929 0.37768
 C196 C 1.23697 0.13198 0.36701
 C197 C 1.22549 0.12606 0.34545
 H198 H 1.22520 0.15810 0.39498
 H199 H 1.23113 0.11249 0.33243
 N200 N 1.14893 0.19856 0.36785
 N201 N 1.13335 0.20034 0.34975
 C202 C 1.11695 0.21764 0.35505
 C203 C 1.12231 0.22696 0.37768
 C204 C 1.14284 0.21470 0.38517
 H205 H 1.10215 0.22307 0.34336
 H206 H 1.15285 0.21780 0.40176
 H207 H 1.17107 0.18210 0.33111
 H208 H 1.15207 0.15820 0.34559
 N209 N 0.62907 1.35535 0.69506
 N210 N 0.64638 1.37164 0.69598
 C211 C 0.64109 1.38789 0.71348
 C212 C 0.61913 1.38161 0.72371
 C213 C 0.61211 1.36076 0.71176
 H214 H 0.65251 1.40288 0.71882
 H215 H 0.59635 1.34982 0.71566
 Cu216 Cu 0.67455 1.36954 0.67485
 Cu217 Cu 0.63073 1.32728 0.67376
 Cu218 Cu 0.68189 1.32147 0.63779
 N219 N 0.70306 1.36608 0.65437
 N220 N 0.70599 1.34708 0.64024
 C221 C 0.72691 1.34936 0.62792
 C222 C 0.73774 1.37085 0.63485
 C223 C 0.72201 1.38115 0.65144
 H224 H 0.73346 1.33672 0.61440
 H225 H 0.72417 1.39845 0.66043
 N226 N 0.65543 1.29756 0.63784
 N227 N 0.63572 1.30009 0.65118
 C228 C 0.62074 1.28139 0.64670
 C229 C 0.63167 1.26622 0.63005
 C230 C 0.65352 1.27709 0.62460
 H231 H 0.60314 1.27887 0.65489
 H232 H 0.66675 1.27072 0.61160
 H233 H 0.66821 1.32586 0.67242
 H234 H 0.65262 1.34266 0.64740
 N235 N 0.63853 0.84522 1.20426
 N236 N 0.65416 0.86313 1.20315
 C237 C 0.64853 0.87975 1.22017
 C238 C 0.62816 0.87185 1.23240
 C239 C 0.62250 0.84974 1.22209
 H240 H 0.65830 0.89645 1.22325
 H241 H 0.60741 0.83820 1.22680
 Cu242 Cu 0.67992 0.86354 1.17919
 Cu243 Cu 0.63910 0.81832 1.18142
 Cu244 Cu 0.67855 0.82365 1.13290
 N245 N 0.69943 0.86808 1.15025
 N246 N 0.69854 0.85276 1.13197
 C247 C 0.71430 0.85993 1.11476
 C248 C 0.72552 0.88091 1.12266
 C249 C 0.71583 0.88542 1.14536
 H250 H 0.71809 0.85011 1.09818
 H251 H 0.72075 0.89998 1.15755
 N252 N 0.65697 0.79550 1.13736
 N253 N 0.64236 0.79324 1.15619
 C254 C 0.62988 0.77240 1.15406
 C255 C 0.63712 0.76087 1.13299
 C256 C 0.65409 0.77614 1.12271
 H257 H 0.61587 0.76642 1.16637
 H258 H 0.66330 0.77346 1.10560
 H259 H 0.67489 0.82055 1.17005
 H260 H 0.65239 0.84029 1.15396
 N261 N 1.13642 1.34498 1.20237
 N262 N 1.15588 1.35838 1.20520
 C263 C 1.15365 1.37138 1.22581
 C264 C 1.13178 1.36551 1.23654
 C265 C 1.12122 1.34894 1.22103
 H266 H 1.16663 1.38453 1.23233
 H267 H 1.10366 1.34056 1.22312
 Cu268 Cu 1.18145 1.35815 1.18087
 Cu269 Cu 1.13200 1.32348 1.17468
 Cu270 Cu 1.17765 1.32282 1.13140
 N271 N 1.20703 1.35783 1.15656
 N272 N 1.20504 1.34437 1.13694
 C273 C 1.22405 1.34861 1.12229
 C274 C 1.23891 1.36536 1.13344
 C275 C 1.22751 1.37101 1.15508
 H276 H 1.22665 1.34054 1.10458
 H277 H 1.23332 1.38437 1.16822
 N278 N 1.14850 1.30235 1.12919
 N279 N 1.13095 1.30291 1.14546
 C280 C 1.11398 1.28652 1.13928
 C281 C 1.12117 1.27520 1.11811
 C282 C 1.14322 1.28544 1.11235
 H283 H 1.09805 1.28231 1.14986
 H284 H 1.15476 1.28046 1.09729
 H285 H 1.16836 1.31818 1.16741
 H286 H 1.15287 1.34325 1.15066
 N287 N 1.13741 0.84655 0.70316
 N288 N 1.15590 0.86135 0.70542
 C289 C 1.15298 0.87470 0.72572
 C290 C 1.13166 0.86761 0.73678
 C291 C 1.12209 0.84998 0.72183
 H292 H 1.16531 0.88855 0.73203
 H293 H 1.10537 0.84019 0.72455
 Cu294 Cu 1.18203 0.86115 0.68177
 Cu295 Cu 1.13486 0.82329 0.67677
 Cu296 Cu 1.18227 0.82142 0.63549
 N297 N 1.20779 0.86105 0.65772
 N298 N 1.20830 0.84469 0.64033
 C299 C 1.22796 0.84836 0.62640
 C300 C 1.24031 0.86809 0.63552
 C301 C 1.22696 0.87591 0.65522
 H302 H 1.23249 0.83808 0.61030
 H303 H 1.23086 0.89139 0.66662
 N304 N 1.15403 0.79971 0.63365
 N305 N 1.13567 0.80096 0.64896
 C306 C 1.11891 0.78449 0.64251
 C307 C 1.12703 0.77249 0.62209
 C308 C 1.14946 0.78230 0.61712
 H309 H 1.10216 0.78114 0.65208
 H310 H 1.16140 0.77718 0.60243
 H311 H 1.17171 0.81946 0.67136
 H312 H 1.15576 0.84213 0.65184
 N313 N 0.36965 0.64725 0.69862
 N314 N 0.35188 0.63144 0.69951
 C315 C 0.35664 0.61510 0.71709
 C316 C 0.37868 0.62088 0.72748
 C317 C 0.38631 0.64153 0.71553
 H318 H 0.34503 0.60014 0.72208
 H319 H 0.40253 0.65186 0.71919
 Cu320 Cu 0.32462 0.63405 0.67725
 Cu321 Cu 0.36935 0.67476 0.67641
 Cu322 Cu 0.32357 0.67588 0.63312
 N323 N 0.29749 0.63617 0.65481
 N324 N 0.29755 0.65230 0.63719
 C325 C 0.27775 0.64915 0.62331
 C326 C 0.26440 0.63028 0.63291
 C327 C 0.27755 0.62227 0.65275
 H328 H 0.27346 0.65958 0.60723
 H329 H 0.27322 0.60698 0.66425
 N330 N 0.35147 0.69822 0.63255
 N331 N 0.36893 0.69766 0.64895
 C332 C 0.38537 0.71484 0.64353
 C333 C 0.37789 0.72671 0.62275
 C334 C 0.35623 0.71597 0.61643
 H335 H 0.40147 0.71868 0.65401
 H336 H 0.34486 0.72080 0.60118
 H337 H 0.33239 0.67686 0.66907
 H338 H 0.35098 0.65612 0.64983
 N339 N 0.36119 0.15382 1.20515
 N340 N 0.34560 0.13585 1.20401
 C341 C 0.34963 0.12061 1.22271
 C342 C 0.36847 0.12983 1.23631
 C343 C 0.37547 0.15082 1.22471
 H344 H 0.33955 0.10423 1.22640
 H345 H 0.39001 0.16280 1.23001
 Cu346 Cu 0.32104 0.13501 1.17874
 Cu347 Cu 0.36230 0.17950 1.18098
 Cu348 Cu 0.31892 0.17780 1.13538
 N349 N 0.29672 0.13415 1.15325
 N350 N 0.29612 0.15089 1.13622
 C351 C 0.27731 0.14654 1.12130
 C352 C 0.26533 0.12627 1.12969
 C353 C 0.27817 0.11871 1.14986
 H354 H 0.27228 0.15764 1.10590
 H355 H 0.27398 0.10336 1.16133
 N356 N 0.34364 0.20342 1.13777
 N357 N 0.36041 0.20376 1.15488
 C358 C 0.37497 0.22297 1.15128
 C359 C 0.36669 0.23548 1.13126
 C360 C 0.34693 0.22262 1.12300
 H361 H 0.39042 0.22766 1.16237
 H362 H 0.33605 0.22683 1.10721
 H363 H 0.32590 0.17847 1.17224
 H364 H 0.34678 0.16000 1.15299
 N365 N 0.86901 0.64559 1.19673
 N366 N 0.84955 0.63256 1.20088
 C367 C 0.85401 0.61737 1.21954
 C368 C 0.87763 0.62084 1.22717
 C369 C 0.88649 0.63911 1.21250
 H370 H 0.84111 0.60474 1.22711
 H371 H 0.90420 0.64738 1.21360
 Cu372 Cu 0.82029 0.63644 1.18142
 Cu373 Cu 0.86999 0.67054 1.17190
 Cu374 Cu 0.81889 0.67793 1.13624
 N375 N 0.79278 0.63937 1.15940
 N376 N 0.79191 0.65613 1.14243
 C377 C 0.77142 0.65341 1.12945
 C378 C 0.75886 0.63384 1.13869
 C379 C 0.77302 0.62518 1.15752
 H380 H 0.76670 0.66387 1.11350
 H381 H 0.76958 0.60921 1.16837
 N382 N 0.84811 0.69808 1.13263
 N383 N 0.86771 0.69496 1.14599
 C384 C 0.88459 0.71115 1.13913
 C385 C 0.87532 0.72488 1.12030
 C386 C 0.85204 0.71636 1.11687
 H387 H 0.90218 0.71322 1.14748
 H388 H 0.83900 0.72308 1.10384
 H389 H 0.83317 0.67752 1.17092
 H390 H 0.84481 0.65415 1.14922
 N391 N 0.86655 0.14950 0.69981
 N392 N 0.84875 0.13372 0.70040
 C393 C 0.85308 0.11746 0.71816
 C394 C 0.87478 0.12345 0.72913
 C395 C 0.88269 0.14399 0.71726
 H396 H 0.84145 0.10236 0.72269
 H397 H 0.89926 0.15381 0.72075
 Cu398 Cu 0.82181 0.13584 0.67777
 Cu399 Cu 0.86847 0.17494 0.67550
 Cu400 Cu 0.82469 0.17453 0.63052
 N401 N 0.79953 0.13359 0.65056
 N402 N 0.80083 0.14868 0.63211
 C403 C 0.78388 0.14273 0.61561
 C404 C 0.77147 0.12272 0.62410
 C405 C 0.78162 0.11757 0.64646
 H406 H 0.78080 0.15217 0.59866
 H407 H 0.77658 0.10300 0.65861
 N408 N 0.85045 0.19909 0.63220
 N409 N 0.86728 0.19906 0.64925
 C410 C 0.88305 0.21708 0.64477
 C411 C 0.87585 0.22884 0.62387
 C412 C 0.85498 0.21727 0.61652
 H413 H 0.89883 0.22121 0.65563
 H414 H 0.84435 0.22142 0.60055
 H415 H 0.83198 0.17764 0.66720
 H416 H 0.85005 0.15477 0.64980
 N417 N 1.34675 0.36383 0.70248
 N418 N 1.36055 0.34448 0.70460
 C419 C 1.37728 0.34854 0.72196
 C420 C 1.37388 0.37181 0.73083
 C421 C 1.35412 0.38081 0.71834
 H422 H 1.39097 0.33564 0.72759
 H423 H 1.34561 0.39835 0.72074
 Cu424 Cu 1.35540 0.31596 0.68429
 Cu425 Cu 1.31990 0.36535 0.67984
 Cu426 Cu 1.32421 0.32455 0.63232
 N427 N 1.35729 0.29305 0.65746
 N428 N 1.34672 0.29766 0.63658
 C429 C 1.35247 0.28011 0.62063
 C430 C 1.36678 0.26299 0.63229
 C431 C 1.36970 0.27204 0.65567
 H432 H 1.34586 0.27928 0.60215
 H433 H 1.38101 0.26460 0.66990
 N434 N 1.30208 0.35267 0.63196
 N435 N 1.30038 0.36812 0.65019
 C436 C 1.28307 0.38461 0.64514
 C437 C 1.27338 0.37917 0.62269
 C438 C 1.28559 0.35870 0.61496
 H439 H 1.27736 0.39902 0.65720
 H440 H 1.28220 0.34865 0.59845
 H441 H 1.31603 0.32935 0.66821
 H442 H 1.34204 0.34733 0.65626
 N443 N 1.34879 0.86420 1.20227
 N444 N 1.36733 0.84945 1.19969
 C445 C 1.38502 0.85613 1.21513
 C446 C 1.37712 0.87619 1.22824
 C447 C 1.35372 0.88031 1.21991
 H448 H 1.40188 0.84636 1.21744
 H449 H 1.34150 0.89459 1.22560
 Cu450 Cu 1.36586 0.82209 1.17739
 Cu451 Cu 1.32015 0.86193 1.18174
 Cu452 Cu 1.32834 0.82721 1.12967
 N453 N 1.36905 0.80127 1.14911
 N454 N 1.35520 0.80432 1.12996
 C455 C 1.36194 0.78854 1.11258
 C456 C 1.38119 0.77479 1.12122
 C457 C 1.38481 0.78312 1.14476
 H458 H 1.35258 0.78628 1.09547
 H459 H 1.39839 0.77693 1.15751
 N460 N 1.30210 0.85118 1.13320
 N461 N 1.29893 0.86432 1.15301
 C462 C 1.28011 0.87954 1.14950
 C463 C 1.27104 0.87560 1.12647
 C464 C 1.28514 0.85737 1.11674
 H465 H 1.27364 0.89267 1.16259
 H466 H 1.28332 0.84953 1.09884
 H467 H 1.32290 0.82740 1.16631
 H468 H 1.34290 0.85180 1.15435
 N469 N 0.84968 0.36711 1.20073
 N470 N 0.86766 0.35154 1.19933
 C471 C 0.88156 0.35361 1.21928
 C472 C 0.87125 0.37085 1.23449
 C473 C 0.85115 0.37924 1.22188
 H474 H 0.89766 0.34292 1.22276
 H475 H 0.83930 0.39405 1.22699
 Cu476 Cu 0.87098 0.32950 1.17189
 Cu477 Cu 0.82769 0.37218 1.17362
 Cu478 Cu 0.82025 0.32075 1.13870
 N479 N 0.86745 0.30196 1.15016
 N480 N 0.84745 0.29828 1.13774
 C481 C 0.84955 0.27742 1.12521
 C482 C 0.87199 0.26741 1.13023
 C483 C 0.88302 0.28362 1.14586
 H484 H 0.83589 0.27018 1.11316
 H485 H 0.90086 0.28194 1.15380
 N486 N 0.79845 0.34910 1.13664
 N487 N 0.80154 0.36886 1.14979
 C488 C 0.78477 0.38544 1.14347
 C489 C 0.77071 0.37578 1.12511
 C490 C 0.77962 0.35260 1.12148
 H491 H 0.78299 0.40325 1.15151
 H492 H 0.77323 0.33954 1.10831
 H493 H 0.82732 0.33554 1.17279
 H494 H 0.84184 0.35001 1.14567
 N495 N 0.83836 0.85862 0.71136
 N496 N 0.84989 0.83785 0.71380
 C497 C 0.86374 0.83865 0.73392
 C498 C 0.86041 0.86100 0.74474
 C499 C 0.84423 0.87328 0.72999
 H500 H 0.87576 0.82431 0.73988
 H501 H 0.83794 0.89175 0.73221
 Cu502 Cu 0.84688 0.81204 0.68972
 Cu503 Cu 0.81805 0.86482 0.68316
 Cu504 Cu 0.83503 0.83517 0.63269
 N505 N 0.85536 0.79499 0.65972
 N506 N 0.85427 0.80539 0.63821
 C507 C 0.86551 0.79097 0.62198
 C508 C 0.87391 0.77024 0.63385
 C509 C 0.86610 0.77324 0.65764
 H510 H 0.86705 0.79517 0.60287
 H511 H 0.86773 0.76067 0.67259
 N512 N 0.80658 0.85650 0.63317
 N513 N 0.79997 0.86799 0.65307
 C514 C 0.77924 0.88011 0.64887
 C515 C 0.77252 0.87599 0.62512
 C516 C 0.79021 0.86100 0.61556
 H517 H 0.76928 0.89040 0.66230
 H518 H 0.79067 0.85327 0.59750
 H519 H 0.82145 0.82501 0.66438
 H520 H 0.85128 0.84070 0.66647
 N521 N 0.65406 0.63407 0.70358
 N522 N 0.63889 0.65240 0.70515
 C523 C 0.62501 0.64952 0.72509
 C524 C 0.63194 0.62823 0.73634
 C525 C 0.65023 0.61875 0.72220
 H526 H 0.61059 0.66157 0.73069
 H527 H 0.65996 0.60197 0.72526
 Cu528 Cu 0.63768 0.67702 0.67988
 Cu529 Cu 0.67791 0.63144 0.67773
 Cu530 Cu 0.67752 0.67672 0.63390
 N531 N 0.63674 0.70173 0.65469
 N532 N 0.65271 0.70177 0.63702
 C533 C 0.64755 0.71996 0.62154
 C534 C 0.62702 0.73166 0.62976
 C535 C 0.62066 0.71982 0.65093
 H536 H 0.65738 0.72384 0.60500
 H537 H 0.60520 0.72376 0.66230
 N538 N 0.70096 0.64966 0.63392
 N539 N 0.70069 0.63215 0.65029
 C540 C 0.71806 0.61586 0.64485
 C541 C 0.72958 0.62335 0.62393
 C542 C 0.71858 0.64498 0.61766
 H543 H 0.72217 0.59975 0.65529
 H544 H 0.72291 0.65619 0.60216
 H545 H 0.67979 0.66809 0.67030
 H546 H 0.65826 0.64999 0.65158
 N547 N 0.64842 1.12948 1.19875
 N548 N 0.62888 1.14265 1.19524
 C549 C 0.61187 1.13606 1.21143
 C550 C 0.62111 1.11754 1.22579
 C551 C 0.64464 1.11434 1.21753
 H552 H 0.59437 1.14471 1.21324
 H553 H 0.65761 1.10108 1.22393
 Cu554 Cu 0.62740 1.16748 1.17019
 Cu555 Cu 0.67604 1.13083 1.17688
 Cu556 Cu 0.67522 1.17571 1.13301
 N557 N 0.62865 1.19406 1.14701
 N558 N 0.64746 1.19739 1.13279
 C559 C 0.64329 1.21668 1.11838
 C560 C 0.62056 1.22573 1.12367
 C561 C 0.61192 1.21122 1.14219
 H562 H 0.65564 1.22341 1.10475
 H563 H 0.59471 1.21306 1.15136
 N564 N 0.70167 1.15196 1.13596
 N565 N 0.70202 1.13485 1.15272
 C566 C 0.72085 1.11988 1.14840
 C567 C 0.73272 1.12789 1.12785
 C568 C 0.72033 1.14842 1.12060
 H569 H 0.72493 1.10362 1.15862
 H570 H 0.72385 1.15905 1.10449
 H571 H 0.67144 1.16731 1.16947
 H572 H 0.65811 1.14535 1.14727
 N573 N 0.16038 0.63732 1.20715
 N574 N 0.14535 0.65579 1.20845
 C575 C 0.13173 0.65360 1.22857
 C576 C 0.13924 0.63310 1.24113
 C577 C 0.15737 0.62312 1.22680
 H578 H 0.11762 0.66619 1.23384
 H579 H 0.16652 0.60597 1.22961
 Cu580 Cu 0.14501 0.68120 1.18402
 Cu581 Cu 0.18080 0.63194 1.17888
 Cu582 Cu 0.16548 0.66603 1.12848
 N583 N 0.13728 0.70033 1.15551
 N584 N 0.14325 0.69325 1.13359
 C585 C 0.13327 0.70858 1.11735
 C586 C 0.12025 0.72655 1.12972
 C587 C 0.12421 0.72083 1.15409
 H588 H 0.13577 0.70680 1.09798
 H589 H 0.11921 0.73107 1.16998
 N590 N 0.19224 0.64208 1.12845
 N591 N 0.19781 0.62893 1.14772
 C592 C 0.21760 0.61552 1.14287
 C593 C 0.22500 0.62065 1.11956
 C594 C 0.20867 0.63764 1.11088
 H595 H 0.22674 0.60383 1.15573
 H596 H 0.20945 0.64690 1.09358
 H597 H 0.18027 0.66652 1.16294
 H598 H 0.15295 0.64647 1.15859
 N599 N 0.14794 1.12790 0.69656
 N600 N 0.12982 1.14333 0.69511
 C601 C 0.11285 1.13716 0.71155
 C602 C 0.12075 1.11670 0.72402
 C603 C 0.14338 1.11171 0.71425
 H604 H 0.09659 1.14753 0.71513
 H605 H 0.15534 1.09692 0.71914
 Cu606 Cu 0.13127 1.17109 0.67318
 Cu607 Cu 0.17509 1.12885 0.67400
 Cu608 Cu 0.18346 1.18379 0.64464
 N609 N 0.13392 1.19854 0.65096
 N610 N 0.15474 1.20392 0.64079
 C611 C 0.15264 1.22512 0.62888
 C612 C 0.12924 1.23384 0.63191
 C613 C 0.11771 1.21603 0.64550
 H614 H 0.16702 1.23326 0.61836
 H615 H 0.09930 1.21658 0.65216
 N616 N 0.20732 1.15715 0.64354
 N617 N 0.20425 1.13627 0.65489
 C618 C 0.22310 1.12156 0.64981
 C619 C 0.23857 1.13375 0.63441
 C620 C 0.22803 1.15615 0.63065
 H621 H 0.22506 1.10307 0.65610
 H622 H 0.23462 1.17037 0.61886
 H623 H 0.17505 1.16534 0.67685
 H624 H 0.16263 1.15342 0.64764
 N625 N 1.34895 0.63290 0.29990
 N626 N 1.36686 0.64841 0.30208
 C627 C 1.38370 0.64348 0.28506
 C628 C 1.37612 0.62352 0.27198
 C629 C 1.35395 0.61733 0.28173
 H630 H 1.40032 0.65346 0.28242
 H631 H 1.34222 0.60280 0.27577
 Cu632 Cu 1.36652 0.67336 0.32705
 Cu633 Cu 1.32028 0.63442 0.32038
 Cu634 Cu 1.31756 0.68114 0.36260
 N635 N 1.36515 0.69884 0.35143
 N636 N 1.34551 0.70271 0.36432
 C637 C 1.34948 0.72139 0.37960
 C638 C 1.37321 0.72915 0.37676
 C639 C 1.38234 0.71472 0.35825
 H640 H 1.33651 0.72792 0.39281
 H641 H 1.40004 0.71605 0.35000
 N642 N 1.29136 0.65714 0.35828
 N643 N 1.29271 0.63906 0.34258
 C644 C 1.27340 0.62449 0.34559
 C645 C 1.25922 0.63392 0.36389
 C646 C 1.27112 0.65447 0.37170
 H647 H 1.27034 0.60766 0.33599
 H648 H 1.26600 0.66584 0.38686
 H649 H 1.32238 0.67140 0.32660
 H650 H 1.33610 0.65114 0.35006
 N651 N 1.34830 1.13389 0.79855
 N652 N 1.36229 1.15306 0.79672
 C653 C 1.37889 1.14913 0.77924
 C654 C 1.37529 1.12612 0.76990
 C655 C 1.35550 1.11712 0.78231
 H656 H 1.39271 1.16191 0.77385
 H657 H 1.34697 1.09968 0.77965
 Cu658 Cu 1.35774 1.18126 0.81745
 Cu659 Cu 1.32216 1.13188 0.82206
 Cu660 Cu 1.31973 1.17738 0.86520
 N661 N 1.35821 1.20489 0.84366
 N662 N 1.34383 1.20292 0.86257
 C663 C 1.34815 1.22139 0.87795
 C664 C 1.36593 1.23587 0.86796
 C665 C 1.37212 1.22474 0.84631
 H666 H 1.33890 1.22428 0.89501
 H667 H 1.38589 1.23054 0.83363
 N668 N 1.29676 1.15012 0.86446
 N669 N 1.29725 1.13317 0.84753
 C670 C 1.27846 1.11803 0.85092
 C671 C 1.26554 1.12595 0.87085
 C672 C 1.27771 1.14612 0.87918
 H673 H 1.27430 1.10250 0.83968
 H674 H 1.27261 1.15738 0.89444
 H675 H 1.31698 1.16863 0.82877
 H676 H 1.34121 1.15283 0.84667
 N677 N 0.84799 0.63652 0.79886
 N678 N 0.85991 0.65687 0.79553
 C679 C 0.87291 0.65520 0.77493
 C680 C 0.86884 0.63264 0.76484
 C681 C 0.85321 0.62109 0.78064
 H682 H 0.88494 0.66904 0.76805
 H683 H 0.84623 0.60284 0.77903
 Cu684 Cu 0.85875 0.68272 0.81944
 Cu685 Cu 0.82723 0.63135 0.82696
 Cu686 Cu 0.81447 0.68294 0.86090
 N687 N 0.85667 0.70793 0.84397
 N688 N 0.83966 0.70754 0.86066
 C689 C 0.84253 0.72664 0.87559
 C690 C 0.86218 0.73984 0.86757
 C691 C 0.87089 0.72739 0.84762
 H692 H 0.83116 0.73066 0.89108
 H693 H 0.88663 0.73200 0.83692
 N694 N 0.79556 0.65289 0.86339
 N695 N 0.80036 0.63327 0.85048
 C696 C 0.78350 0.61632 0.85529
 C697 C 0.76759 0.62577 0.87215
 C698 C 0.77578 0.64885 0.87705
 H699 H 0.78252 0.59866 0.84678
 H700 H 0.76753 0.66190 0.88918
 H701 H 0.81817 0.66708 0.82638
 H702 H 0.83966 0.65812 0.85100
 N703 N 0.84573 1.13832 0.29758
 N704 N 0.85933 1.15774 0.29548
 C705 C 0.87220 1.15620 0.27477
 C706 C 0.86617 1.13472 0.26328
 C707 C 0.84955 1.12370 0.27842
 H708 H 0.88574 1.16912 0.26901
 H709 H 0.84136 1.10607 0.27598
 Cu710 Cu 0.86058 1.18190 0.32113
 Cu711 Cu 0.82574 1.13244 0.32599
 Cu712 Cu 0.81707 1.18228 0.36352
 N713 N 0.86286 1.20243 0.34974
 N714 N 0.84545 1.20300 0.36601
 C715 C 0.85078 1.21971 0.38299
 C716 C 0.87299 1.22971 0.37733
 C717 C 0.88005 1.21853 0.35599
 H718 H 0.83934 1.22426 0.39828
 H719 H 0.89618 1.22231 0.34554
 N720 N 0.79658 1.15317 0.36477
 N721 N 0.80006 1.13410 0.35067
 C722 C 0.78354 1.11705 0.35615
 C723 C 0.76938 1.12567 0.37489
 C724 C 0.77799 1.14863 0.37988
 H725 H 0.78206 1.09955 0.34739
 H726 H 0.77136 1.16096 0.39365
 H727 H 0.81884 1.16853 0.32783
 H728 H 0.84026 1.15677 0.35128
 N729 N 0.64727 0.37088 0.30345
 N730 N 0.62819 0.35743 0.30792
 C731 C 0.61058 0.36308 0.29192
 C732 C 0.61905 0.38121 0.27660
 C733 C 0.64264 0.38524 0.28426
 H734 H 0.59338 0.35381 0.29081
 H735 H 0.65520 0.39839 0.27698
 Cu736 Cu 0.62837 0.33302 0.33350
 Cu737 Cu 0.67576 0.37042 0.32419
 Cu738 Cu 0.68058 0.32228 0.36375
 N739 N 0.63386 0.30321 0.35170
 N740 N 0.65461 0.29857 0.36243
 C741 C 0.65354 0.27658 0.37297
 C742 C 0.63088 0.26668 0.36854
 C743 C 0.61875 0.28445 0.35535
 H744 H 0.66771 0.26902 0.38426
 H745 H 0.60045 0.28355 0.34841
 N746 N 0.70469 0.34846 0.36233
 N747 N 0.70288 0.36684 0.34707
 C748 C 0.72056 0.38290 0.35190
 C749 C 0.73390 0.37432 0.37133
 C750 C 0.72362 0.35229 0.37727
 H751 H 0.72293 0.40010 0.34277
 H752 H 0.72877 0.34064 0.39222
 H753 H 0.67190 0.33330 0.32895
 H754 H 0.66124 0.35330 0.35454
 N755 N 0.65209 0.86398 0.79868
 N756 N 0.63628 0.84618 0.79830
 C757 C 0.62075 0.84982 0.77977
 C758 C 0.62736 0.87091 0.76796
 C759 C 0.64710 0.87959 0.78056
 H760 H 0.60611 0.83781 0.77480
 H761 H 0.65762 0.89553 0.77620
 Cu762 Cu 0.63845 0.81940 0.82121
 Cu763 Cu 0.67937 0.86440 0.82100
 Cu764 Cu 0.68471 0.81589 0.86083
 N765 N 0.64108 0.79283 0.84433
 N766 N 0.65947 0.79129 0.85943
 C767 C 0.65695 0.77129 0.87323
 C768 C 0.63596 0.75959 0.86626
 C769 C 0.62618 0.77390 0.84811
 H770 H 0.66913 0.76593 0.88767
 H771 H 0.60937 0.77074 0.83855
 N772 N 0.70824 0.84270 0.85949
 N773 N 0.70580 0.86146 0.84477
 C774 C 0.72416 0.87701 0.84867
 C775 C 0.73901 0.86741 0.86638
 C776 C 0.72831 0.84579 0.87305
 H777 H 0.72665 0.89409 0.83935
 H778 H 0.73449 0.83354 0.88710
 H779 H 0.68172 0.82717 0.82515
 H780 H 0.66340 0.84398 0.84817
 N781 N 0.14749 0.36901 0.80398
 N782 N 0.12799 0.35606 0.80827
 C783 C 0.11050 0.36271 0.79252
 C784 C 0.11946 0.38102 0.77786
 C785 C 0.14307 0.38433 0.78548
 H786 H 0.09285 0.35437 0.79122
 H787 H 0.15617 0.39670 0.77779
 Cu788 Cu 0.12778 0.33116 0.83341
 Cu789 Cu 0.17760 0.36397 0.82158
 Cu790 Cu 0.17776 0.32074 0.86707
 N791 N 0.12892 0.30539 0.85762
 N792 N 0.14880 0.30091 0.86998
 C793 C 0.14498 0.28195 0.88484
 C794 C 0.12115 0.27444 0.88229
 C795 C 0.11166 0.28959 0.86449
 H796 H 0.15833 0.27469 0.89726
 H797 H 0.09390 0.28844 0.85631
 N798 N 0.20515 0.34282 0.86127
 N799 N 0.20478 0.35977 0.84432
 C800 C 0.22477 0.37354 0.84649
 C801 C 0.23856 0.36453 0.86540
 C802 C 0.22556 0.34518 0.87447
 H803 H 0.22864 0.38948 0.83574
 H804 H 0.23005 0.33454 0.89035
 H805 H 0.17167 0.32777 0.83119
 H806 H 0.16135 0.35160 0.85313
 N807 N 0.14694 0.86970 0.30387
 N808 N 0.12864 0.85491 0.30739
 C809 C 0.11144 0.85943 0.29063
 C810 C 0.11930 0.87829 0.27605
 C811 C 0.14201 0.88414 0.28479
 H812 H 0.09469 0.84945 0.28887
 H813 H 0.15408 0.89782 0.27766
 Cu814 Cu 0.12910 0.83075 0.33312
 Cu815 Cu 0.17582 0.86902 0.32413
 Cu816 Cu 0.18126 0.82032 0.36320
 N817 N 0.13448 0.80111 0.35151
 N818 N 0.15501 0.79693 0.36281
 C819 C 0.15387 0.77523 0.37390
 C820 C 0.13149 0.76487 0.36903
 C821 C 0.11953 0.78222 0.35509
 H822 H 0.16783 0.76820 0.38575
 H823 H 0.10145 0.78099 0.34764
 N824 N 0.20573 0.84608 0.36098
 N825 N 0.20354 0.86486 0.34627
 C826 C 0.22251 0.87978 0.34966
 C827 C 0.23748 0.86968 0.36705
 C828 C 0.22619 0.84847 0.37403
 H829 H 0.22518 0.89688 0.34041
 H830 H 0.23217 0.83612 0.38808
 H831 H 0.17271 0.83186 0.32844
 H832 H 0.16194 0.85132 0.35424
 O833 O 1.08597 1.02191 1.12232
 O834 O 1.11393 1.02155 1.15093
 C835 C 1.09448 1.03017 1.14210
 C836 C 1.08215 1.05057 1.15450
 C837 C 1.09095 1.05937 1.17674
 H838 H 1.10617 1.05054 1.18552
 O839 O 0.91266 0.97803 1.12168
 O840 O 0.88421 0.97849 1.14976
 C841 C 0.90372 0.96967 1.14119
 C842 C 0.91534 0.94859 1.15323
 C843 C 0.90456 0.93791 1.17370
 H844 H 0.88888 0.94631 1.18205
 O845 O 1.02422 1.12111 1.08814
 O846 O 1.02464 1.14978 1.11606
 C847 C 1.03265 1.14089 1.09636
 C848 C 1.05232 1.15330 1.08306
 C849 C 1.06074 1.17612 1.09061
 H850 H 1.05264 1.18500 1.10619
 O851 O 0.97406 0.87753 1.08792
 O852 O 0.97364 0.84917 1.11619
 C853 C 0.96553 0.85790 1.09645
 C854 C 0.94550 0.84565 1.08355
 C855 C 0.93675 0.82309 1.09148
 H856 H 0.94507 0.81407 1.10686
 O857 O 1.11966 1.08564 1.02419
 O858 O 1.14837 1.11336 1.02431
 C859 C 1.13929 1.09396 1.03280
 C860 C 1.15115 1.08156 1.05353
 C861 C 1.17180 1.09171 1.06438
 H862 H 1.17969 1.10813 1.05704
 O863 O 0.87776 0.91430 1.02516
 O864 O 0.84877 0.88686 1.02523
 C865 C 0.85784 0.90636 1.03346
 C866 C 0.84544 0.91967 1.05323
 C867 C 0.82278 0.91196 1.06181
 H868 H 0.81401 0.89637 1.05370
 O869 O 0.97682 1.08878 1.12175
 O870 O 0.97722 1.11731 1.14983
 C871 C 0.96854 1.09777 1.14130
 C872 C 0.94780 1.08602 1.15352
 C873 C 0.93655 1.09730 1.17341
 H874 H 0.94396 1.11387 1.18095
 O875 O 1.02138 0.91043 1.12116
 O876 O 1.02084 0.88241 1.14974
 C877 C 1.02942 0.90194 1.14105
 C878 C 1.04935 0.91463 1.15381
 C879 C 1.05797 0.90609 1.17626
 H880 H 1.04977 0.89035 1.18467
 O881 O 1.11921 0.97425 1.08937
 O882 O 1.14730 0.97419 1.11784
 C883 C 1.13891 0.96598 1.09802
 C884 C 1.15193 0.94634 1.08512
 C885 C 1.17419 0.93761 1.09390
 H886 H 1.18204 0.94534 1.11018
 O887 O 0.88053 1.02596 1.08807
 O888 O 0.85209 1.02662 1.11617
 C889 C 0.86097 1.03471 1.09647
 C890 C 0.84874 1.05489 1.08357
 C891 C 0.82704 1.06463 1.09259
 H892 H 0.81884 1.05707 1.10877
 O893 O 0.91416 1.12188 1.02318
 O894 O 0.88588 1.15020 1.02288
 C895 C 0.90536 1.14147 1.03160
 C896 C 0.91728 1.15360 1.05243
 C897 C 0.90667 1.17412 1.06326
 H898 H 0.89030 1.18197 1.05572
 O899 O 1.08779 0.87751 1.02682
 O900 O 1.11624 0.84938 1.02753
 C901 C 1.09664 0.85820 1.03584
 C902 C 1.08394 0.84617 1.05626
 C903 C 1.09367 0.82537 1.06753
 H904 H 1.11101 0.81834 1.06160
 O905 O 0.91283 1.02562 1.12201
 O906 O 0.88442 1.02615 1.15012
 C907 C 0.90406 1.03436 1.14147
 C908 C 0.91616 1.05507 1.15349
 C909 C 0.90503 1.06682 1.17320
 H910 H 0.88812 1.06003 1.18046
 O911 O 1.08516 0.97442 1.12184
 O912 O 1.11318 0.97415 1.15039
 C913 C 1.09351 0.96600 1.14163
 C914 C 1.08056 0.94608 1.15416
 C915 C 1.08870 0.93743 1.17673
 H916 H 1.10401 0.94594 1.18560
 O917 O 1.02128 0.87742 1.08764
 O918 O 1.02082 0.84928 1.11611
 C919 C 1.02935 0.85768 1.09641
 C920 C 1.04986 0.84511 1.08446
 C921 C 1.05859 0.82311 1.09378
 H922 H 1.04812 0.81371 1.10746
 O923 O 0.97699 1.12131 1.08806
 O924 O 0.97730 1.14986 1.11613
 C925 C 0.96873 1.14107 1.09660
 C926 C 0.94828 1.15336 1.08424
 C927 C 0.93735 1.17384 1.09477
 H928 H 0.94449 1.18141 1.11146
 O929 O 0.88086 1.08906 1.02288
 O930 O 0.85255 1.11734 1.02227
 C931 C 0.86114 1.09779 1.03101
 C932 C 0.84864 1.08557 1.05143
 C933 C 0.82680 1.09492 1.06067
 H934 H 0.81835 1.11055 1.05221
 O935 O 1.12057 0.91081 1.02508
 O936 O 1.14918 0.88281 1.02527
 C937 C 1.14049 0.90263 1.03326
 C938 C 1.15304 0.91578 1.05300
 C939 C 1.17559 0.90772 1.06165
 H940 H 1.18465 0.89262 1.05288
 O941 O 0.97403 0.91140 1.12038
 O942 O 0.97338 0.88309 1.14868
 C943 C 0.96527 0.90283 1.13990
 C944 C 0.94491 0.91547 1.15207
 C945 C 0.93322 0.90462 1.17191
 H946 H 0.93945 0.88722 1.17867
 O947 O 1.02403 1.08789 1.12146
 O948 O 1.02457 1.11637 1.14957
 C949 C 1.03249 1.09642 1.14111
 C950 C 1.05210 1.08322 1.15390
 C951 C 1.06134 1.09189 1.17601
 H952 H 1.05387 1.10818 1.18414
 O953 O 0.87904 0.97868 1.08878
 O954 O 0.85056 0.97941 1.11684
 C955 C 0.85906 0.97092 1.09717
 C956 C 0.84596 0.95136 1.08428
 C957 C 0.82318 0.94353 1.09244
 H958 H 0.81461 0.95240 1.10777
 O959 O 1.11862 1.02157 1.08866
 O960 O 1.14662 1.02154 1.11723
 C961 C 1.13817 1.02990 1.09742
 C962 C 1.15068 1.05017 1.08501
 C963 C 1.17153 1.06044 1.09532
 H964 H 1.17935 1.05274 1.11166
 O965 O 0.90997 0.87986 1.02499
 O966 O 0.88110 0.85228 1.02493
 C967 C 0.90109 0.86022 1.03307
 C968 C 0.91391 0.84683 1.05250
 C969 C 0.90553 0.82417 1.06049
 H970 H 0.88997 0.81588 1.05186
 O971 O 1.08729 1.11971 1.02366
 O972 O 1.11595 1.14751 1.02371
 C973 C 1.09602 1.13940 1.03180
 C974 C 1.08315 1.15264 1.05128
 C975 C 1.09106 1.17562 1.05881
 H976 H 1.10615 1.18424 1.04969
 Cu977 Cu 1.09940 0.99799 1.10272
 Cu978 Cu 1.13306 0.99780 1.13696
 Cu979 Cu 0.89917 1.00196 1.10238
 Cu980 Cu 0.86504 1.00270 1.13612
 Cu981 Cu 1.00056 1.10191 1.10204
 Cu982 Cu 1.00106 1.13621 1.13573
 Cu983 Cu 0.99775 0.89702 1.10143
 Cu984 Cu 0.99717 0.86319 1.13558
 C985 C 1.06250 1.06241 1.14340
 H986 H 1.05580 1.05587 1.12611
 C987 C 1.08054 1.07987 1.18764
 C988 C 0.93578 0.93743 1.14279
 H989 H 0.94411 0.94543 1.12689
 C990 C 0.91281 0.91547 1.18252
 C991 C 1.06353 1.14181 1.06326
 H992 H 1.05747 1.12400 1.05765
 C993 C 1.07983 1.18753 1.07831
 C994 C 0.93410 0.85723 1.06391
 H995 H 0.94048 0.87483 1.05798
 C996 C 0.91700 0.81213 1.07979
 C997 C 1.14076 1.06071 1.06394
 H998 H 1.12445 1.05315 1.05609
 C999 C 1.18175 1.08150 1.08545
 C1000 C 0.85677 0.93953 1.06445
 H1001 H 0.87444 0.94530 1.05822
 C1002 C 0.81143 0.92400 1.08117
 C1003 C 0.93762 1.06475 1.14385
 H1004 H 0.94594 1.05620 1.12822
 C1005 C 0.91490 1.08811 1.18289
 C1006 C 1.06066 0.93476 1.14301
 H1007 H 1.05440 0.94119 1.12551
 C1008 C 1.07737 0.91762 1.18795
 C1009 C 1.14159 0.93541 1.06457
 H1010 H 1.12411 0.94163 1.05810
 C1011 C 1.18634 0.91862 1.08201
 C1012 C 0.85932 1.06538 1.06287
 H1013 H 0.87632 1.05825 1.05608
 C1014 C 0.81585 1.08439 1.08108
 C1015 C 0.93822 1.14349 1.06295
 H1016 H 0.94625 1.12739 1.05501
 C1017 C 0.91644 1.18403 1.08456
 C1018 C 1.06230 0.85618 1.06526
 H1019 H 1.05539 0.87296 1.05768
 C1020 C 1.08126 0.81384 1.08667
 O1021 O 1.08584 0.97370 0.88014
 O1022 O 1.11429 0.97294 0.85205
 C1023 C 1.09467 0.96475 0.86082
 C1024 C 1.08278 0.94374 0.84914
 C1025 C 1.09351 0.93263 0.82891
 H1026 H 1.10962 0.94032 0.82078
 O1027 O 0.91523 1.02246 0.87817
 O1028 O 0.88731 1.02246 0.84953
 C1029 C 0.90690 1.03072 0.85831
 C1030 C 0.91953 1.05081 0.84579
 C1031 C 0.91045 1.06002 0.82383
 H1032 H 0.89453 1.05199 0.81562
 O1033 O 0.97831 1.12084 0.91142
 O1034 O 0.97857 1.14915 0.88312
 C1035 C 0.97031 1.14074 0.90293
 C1036 C 0.95083 1.15386 0.91603
 C1037 C 0.94320 1.17694 0.90832
 H1038 H 0.95217 1.18572 0.89320
 O1039 O 1.02286 0.87545 0.91577
 O1040 O 1.02264 0.84655 0.88808
 C1041 C 1.03092 0.85539 0.90769
 C1042 C 1.05068 0.84267 0.92081
 C1043 C 1.05950 0.82022 0.91250
 H1044 H 1.05126 0.81153 0.89691
 O1045 O 1.11939 0.90957 0.97771
 O1046 O 1.14765 0.88124 0.97775
 C1047 C 1.13877 0.90069 0.96902
 C1048 C 1.15055 0.91258 0.94799
 C1049 C 1.17071 0.90173 0.93680
 H1050 H 1.17845 0.88520 0.94416
 O1051 O 0.88169 1.08849 0.97529
 O1052 O 0.85366 1.11703 0.97464
 C1053 C 0.86232 1.09727 0.96645
 C1054 C 0.85036 1.08505 0.94567
 C1055 C 0.82991 1.09561 0.93472
 H1056 H 0.82185 1.11182 0.94242
 O1057 O 1.02545 1.08721 0.87846
 O1058 O 1.02575 1.11522 0.84987
 C1059 C 1.03387 1.09550 0.85868
 C1060 C 1.05345 1.08208 0.84607
 C1061 C 1.06220 1.08990 0.82344
 H1062 H 1.05482 1.10616 0.81517
 O1063 O 0.97612 0.90893 0.88159
 O1064 O 0.97608 0.88011 0.85380
 C1065 C 0.96760 0.89987 0.86216
 C1066 C 0.94679 0.91169 0.84988
 C1067 C 0.93431 0.89941 0.83136
 H1068 H 0.94053 0.88174 0.82531
 O1069 O 1.11924 1.02118 0.91287
 O1070 O 1.14746 1.02070 0.88457
 C1071 C 1.13890 1.02931 0.90419
 C1072 C 1.15136 1.04971 0.91640
 C1073 C 1.17212 1.06001 0.90596
 H1074 H 1.17999 1.05214 0.88974
 O1075 O 0.88073 0.97641 0.91192
 O1076 O 0.85268 0.97675 0.88339
 C1077 C 0.86101 0.96836 0.90320
 C1078 C 0.84827 0.94824 0.91555
 C1079 C 0.82858 0.93680 0.90417
 H1080 H 0.82194 0.94334 0.88684
 O1081 O 1.08761 1.11968 0.97648
 O1082 O 1.11623 1.14753 0.97666
 C1083 C 1.09640 1.13936 0.96836
 C1084 C 1.08375 1.15245 0.94859
 C1085 C 1.09150 1.17550 0.94112
 H1086 H 1.10622 1.18437 0.95061
 O1087 O 0.91006 0.88030 0.97771
 O1088 O 0.88100 0.85290 0.97762
 C1089 C 0.90081 0.86102 0.96919
 C1090 C 0.91266 0.84845 0.94863
 C1091 C 0.90081 0.82929 0.93681
 H1092 H 0.88337 0.82303 0.94327
 O1093 O 0.91405 0.97476 0.87893
 O1094 O 0.88591 0.97481 0.85051
 C1095 C 0.90515 0.96591 0.85957
 C1096 C 0.91647 0.94416 0.84835
 C1097 C 0.90463 0.93181 0.82944
 H1098 H 0.88815 0.93919 0.82168
 O1099 O 1.08676 1.02115 0.87870
 O1100 O 1.11496 1.02027 0.85038
 C1101 C 1.09537 1.02896 0.85877
 C1102 C 1.08294 1.04896 0.84575
 C1103 C 1.09076 1.05643 0.82264
 H1104 H 1.10513 1.04655 0.81357
 O1105 O 0.97544 0.87677 0.91547
 O1106 O 0.97522 0.84802 0.88761
 C1107 C 0.96658 0.85735 0.90686
 C1108 C 0.94508 0.84635 0.91846
 C1109 C 0.93309 0.82696 0.90714
 H1110 H 0.94052 0.81882 0.89085
 O1111 O 1.02540 1.12041 0.91151
 O1112 O 1.02582 1.14867 0.88315
 C1113 C 1.03386 1.14005 0.90299
 C1114 C 1.05348 1.15262 0.91623
 C1115 C 1.06192 1.17538 0.90856
 H1116 H 1.05403 1.18401 0.89272
 O1117 O 0.87789 0.91424 0.97766
 O1118 O 0.84891 0.88678 0.97774
 C1119 C 0.85820 0.90599 0.96911
 C1120 C 0.84672 0.91798 0.94800
 C1121 C 0.82688 0.90705 0.93648
 H1122 H 0.81884 0.89078 0.94400
 O1123 O 1.11994 1.08560 0.97653
 O1124 O 1.14861 1.11336 0.97652
 C1125 C 1.13961 1.09393 0.96804
 C1126 C 1.15160 1.08145 0.94746
 C1127 C 1.17210 1.09170 0.93645
 H1128 H 1.17981 1.10831 0.94356
 O1129 O 1.02353 0.90849 0.88212
 O1130 O 1.02360 0.87964 0.85439
 C1131 C 1.03202 0.89939 0.86272
 C1132 C 1.05245 0.91149 0.85025
 C1133 C 1.06367 0.90050 0.83014
 H1134 H 1.05688 0.88348 0.82304
 O1135 O 0.97828 1.08723 0.87844
 O1136 O 0.97836 1.11531 0.84991
 C1137 C 0.97010 1.09562 0.85859
 C1138 C 0.95035 1.08261 0.84589
 C1139 C 0.94122 1.09128 0.82369
 H1140 H 0.94925 1.10707 0.81520
 O1141 O 0.88192 1.02391 0.91114
 O1142 O 0.85400 1.02425 0.88251
 C1143 C 0.86267 1.03280 0.90211
 C1144 C 0.85075 1.05386 0.91398
 C1145 C 0.83063 1.06511 0.90304
 H1146 H 0.82328 1.05798 0.88625
 O1147 O 1.11906 0.97363 0.91302
 O1148 O 1.14745 0.97321 0.88487
 C1149 C 1.13856 0.96487 0.90443
 C1150 C 1.15046 0.94401 0.91656
 C1151 C 1.17052 0.93275 0.90564
 H1152 H 1.17801 0.93994 0.88894
 O1153 O 1.08676 0.87602 0.97948
 O1154 O 1.11491 0.84758 0.97999
 C1155 C 1.09512 0.85599 0.97170
 C1156 C 1.08208 0.84289 0.95220
 C1157 C 1.09058 0.82041 0.94365
 H1158 H 1.10628 0.81194 0.95191
 O1159 O 0.91461 1.12192 0.97563
 O1160 O 0.88664 1.15054 0.97532
 C1161 C 0.90632 1.14173 0.96719
 C1162 C 0.91942 1.15427 0.94734
 C1163 C 0.91174 1.17713 0.93903
 H1164 H 0.89623 1.18590 0.94732
 Cu1165 Cu 1.09988 0.99760 0.89901
 Cu1166 Cu 1.13391 0.99680 0.86517
 Cu1167 Cu 0.90082 0.99936 0.89786
 Cu1168 Cu 0.86720 0.99963 0.86361
 Cu1169 Cu 1.10080 1.09981 1.00020
 Cu1170 Cu 1.13531 1.13310 1.00033
 Cu1171 Cu 1.10079 0.89629 1.00226
 Cu1172 Cu 1.13488 0.86244 1.00265
 Cu1173 Cu 0.90064 1.10250 0.99927
 Cu1174 Cu 0.86684 1.13660 0.99868
 Cu1175 Cu 0.89680 0.89997 1.00152
 Cu1176 Cu 0.86199 0.86698 1.00150
 Cu1177 Cu 1.00182 1.10111 0.89779
 Cu1178 Cu 1.00210 1.13491 0.86362
 Cu1179 Cu 0.99962 0.89529 0.90152
 Cu1180 Cu 0.99949 0.86070 0.86818
 C1181 C 1.06210 0.93319 0.85956
 H1182 H 1.05399 0.94144 0.87546
 C1183 C 1.08439 0.91080 0.81973
 C1184 C 0.93961 1.06211 0.85660
 H1185 H 0.94636 1.05545 0.87383
 C1186 C 0.92141 1.07995 0.81250
 C1187 C 0.93909 1.14287 0.93581
 H1188 H 0.94481 1.12503 0.94178
 C1189 C 0.92384 1.18880 0.91988
 C1190 C 1.06192 0.85369 0.94086
 H1191 H 1.05551 0.87120 0.94710
 C1192 C 1.07927 0.80898 0.92393
 C1193 C 1.14063 0.93384 0.93781
 H1194 H 1.12480 0.94209 0.94602
 C1195 C 1.18040 0.91148 0.91542
 C1196 C 0.86049 1.06400 0.93532
 H1197 H 0.87643 1.05591 0.94347
 C1198 C 0.82044 1.08619 0.91305
 C1199 C 1.06394 1.06159 0.85703
 H1200 H 1.05777 1.05587 0.87480
 C1201 C 1.08035 1.07676 0.81121
 C1202 C 0.93772 0.93405 0.85827
 H1203 H 0.94675 0.94321 0.87312
 C1204 C 0.91298 0.90907 0.82147
 C1205 C 1.14139 1.06039 0.93733
 H1206 H 1.12517 1.05277 0.94529
 C1207 C 1.18213 1.08132 0.91550
 C1208 C 0.85716 0.93876 0.93754
 H1209 H 0.87280 0.94700 0.94605
 C1210 C 0.81820 0.91600 0.91434
 C1211 C 1.06444 1.14138 0.93632
 H1212 H 1.05842 1.12357 0.94200
 C1213 C 1.08055 1.18719 0.92126
 C1214 C 0.93483 0.85684 0.93936
 H1215 H 0.94371 0.87210 0.94794
 C1216 C 0.91071 0.81884 0.91587
 O1217 O 0.97615 0.41117 0.38041
 O1218 O 0.97574 0.38235 0.35264
 C1219 C 0.96754 0.40222 0.36101
 C1220 C 0.94718 0.41459 0.34863
 C1221 C 0.93565 0.40362 0.32875
 H1222 H 0.94209 0.38628 0.32204
 O1223 O 1.02626 0.58786 0.37959
 O1224 O 1.02630 0.61641 0.35152
 C1225 C 1.03487 0.59682 0.36018
 C1226 C 1.05560 0.58473 0.34808
 C1227 C 1.06875 0.59677 0.32988
 H1228 H 1.06356 0.61499 0.32462
 O1229 O 0.88119 0.47692 0.41288
 O1230 O 0.85291 0.47735 0.38459
 C1231 C 0.86144 0.46885 0.40428
 C1232 C 0.84868 0.44888 0.41690
 C1233 C 0.82724 0.43922 0.40723
 H1234 H 0.81945 0.44679 0.39082
 O1235 O 1.11977 0.52251 0.41120
 O1236 O 1.14804 0.52186 0.38294
 C1237 C 1.13930 0.53082 0.40232
 C1238 C 1.15144 0.55176 0.41404
 C1239 C 1.17087 0.56338 0.40239
 H1240 H 1.17770 0.55658 0.38523
 O1241 O 0.91201 0.38027 0.47786
 O1242 O 0.88340 0.35242 0.47813
 C1243 C 0.90318 0.36061 0.46974
 C1244 C 0.91568 0.34753 0.44988
 C1245 C 0.90673 0.32530 0.44131
 H1246 H 0.89110 0.31708 0.44986
 O1247 O 1.08959 0.62044 0.47646
 O1248 O 1.11847 0.64801 0.47626
 C1249 C 1.09855 0.63994 0.46808
 C1250 C 1.08634 0.65256 0.44774
 C1251 C 1.09687 0.67314 0.43706
 H1252 H 1.11275 0.68130 0.44520
 O1253 O 0.91498 0.52386 0.37974
 O1254 O 0.88684 0.52413 0.35131
 C1255 C 0.90655 0.53224 0.35997
 C1256 C 0.91937 0.55211 0.34732
 C1257 C 0.91072 0.56089 0.32502
 H1258 H 0.89515 0.55252 0.31648
 O1259 O 1.08665 0.47441 0.37884
 O1260 O 1.11510 0.47365 0.35076
 C1261 C 1.09546 0.46549 0.35949
 C1262 C 1.08344 0.44462 0.34769
 C1263 C 1.09419 0.43333 0.32755
 H1264 H 1.11054 0.44073 0.31962
 O1265 O 1.02282 0.37794 0.41440
 O1266 O 1.02256 0.34905 0.38669
 C1267 C 1.03087 0.35792 0.40628
 C1268 C 1.05067 0.34531 0.41929
 C1269 C 1.05938 0.32290 0.41091
 H1270 H 1.05085 0.31414 0.39551
 O1271 O 0.97891 0.62057 0.41345
 O1272 O 0.97855 0.64889 0.38518
 C1273 C 0.97041 0.64025 0.40496
 C1274 C 0.95028 0.65277 0.41768
 C1275 C 0.94018 0.67399 0.40781
 H1276 H 0.94773 0.68191 0.39148
 O1277 O 0.88127 0.58913 0.47720
 O1278 O 0.85289 0.61734 0.47667
 C1279 C 0.86182 0.59779 0.46832
 C1280 C 0.84999 0.58553 0.44749
 C1281 C 0.82958 0.59603 0.43636
 H1282 H 0.82183 0.61265 0.44349
 O1283 O 1.11966 0.41180 0.47780
 O1284 O 1.14808 0.38362 0.47792
 C1285 C 1.13940 0.40329 0.46953
 C1286 C 1.15195 0.41586 0.44936
 C1287 C 1.17424 0.40711 0.44070
 H1288 H 1.18308 0.39211 0.44987
 O1289 O 0.97887 0.58782 0.37952
 O1290 O 0.97876 0.61604 0.35114
 C1291 C 0.97054 0.59633 0.35976
 C1292 C 0.95059 0.58352 0.34715
 C1293 C 0.94160 0.59207 0.32483
 H1294 H 0.94969 0.60776 0.31622
 O1295 O 1.02349 0.41020 0.38026
 O1296 O 1.02330 0.38139 0.35248
 C1297 C 1.03191 0.40104 0.36084
 C1298 C 1.05254 0.41289 0.34845
 C1299 C 1.06376 0.40174 0.32842
 H1300 H 1.05679 0.38482 0.32128
 O1301 O 1.11957 0.47486 0.41219
 O1302 O 1.14803 0.47421 0.38413
 C1303 C 1.13918 0.46614 0.40383
 C1304 C 1.15149 0.44603 0.41681
 C1305 C 1.17312 0.43614 0.40771
 H1306 H 1.18078 0.44314 0.39101
 O1307 O 0.88181 0.52443 0.41293
 O1308 O 0.85367 0.52481 0.38451
 C1309 C 0.86236 0.53315 0.40417
 C1310 C 0.85023 0.55387 0.41631
 C1311 C 0.82974 0.56460 0.40562
 H1312 H 0.82203 0.55704 0.38919
 O1313 O 0.91510 0.62144 0.47828
 O1314 O 0.88677 0.64971 0.47785
 C1315 C 0.90655 0.64104 0.46972
 C1316 C 0.91915 0.65325 0.44937
 C1317 C 0.90933 0.67441 0.43908
 H1318 H 0.89313 0.68254 0.44668
 O1319 O 1.08673 0.37832 0.47816
 O1320 O 1.11506 0.35005 0.47827
 C1321 C 1.09531 0.35855 0.46998
 C1322 C 1.08243 0.34570 0.45023
 C1323 C 1.09109 0.32342 0.44136
 H1324 H 1.10708 0.31515 0.44927
 O1325 O 1.08686 0.52181 0.37772
 O1326 O 1.11522 0.52106 0.34954
 C1327 C 1.09568 0.52985 0.35800
 C1328 C 1.08422 0.55097 0.34595
 C1329 C 1.09572 0.56227 0.32625
 H1330 H 1.11092 0.55340 0.31752
 O1331 O 0.91418 0.47645 0.37939
 O1332 O 0.88587 0.47680 0.35113
 C1333 C 0.90541 0.46815 0.35974
 C1334 C 0.91728 0.44733 0.34754
 C1335 C 0.90674 0.43669 0.32691
 H1336 H 0.89113 0.44512 0.31843
 O1337 O 1.02630 0.62086 0.41264
 O1338 O 1.02599 0.64934 0.38450
 C1339 C 1.03472 0.64043 0.40390
 C1340 C 1.05556 0.65233 0.41586
 C1341 C 1.06717 0.67203 0.40470
 H1342 H 1.06044 0.67898 0.38757
 O1343 O 0.97563 0.37835 0.41382
 O1344 O 0.97537 0.34947 0.38610
 C1345 C 0.96708 0.35862 0.40557
 C1346 C 0.94684 0.34662 0.41840
 C1347 C 0.93738 0.32459 0.40984
 H1348 H 0.94516 0.31597 0.39395
 O1349 O 1.12169 0.58621 0.47604
 O1350 O 1.15053 0.61379 0.47596
 C1351 C 1.14123 0.59459 0.46729
 C1352 C 1.15254 0.58271 0.44595
 C1353 C 1.17204 0.59389 0.43404
 H1354 H 1.17973 0.61052 0.44112
 O1355 O 0.87949 0.41415 0.47797
 O1356 O 0.85083 0.38639 0.47823
 C1357 C 0.85978 0.40577 0.46961
 C1358 C 0.84774 0.41816 0.44898
 C1359 C 0.82626 0.40883 0.43905
 H1360 H 0.81768 0.39314 0.44717
 Cu1361 Cu 0.99957 0.39733 0.39998
 Cu1362 Cu 0.99925 0.36271 0.36662
 Cu1363 Cu 1.00252 0.60143 0.39911
 Cu1364 Cu 1.00222 0.63554 0.36526
 Cu1365 Cu 0.90087 0.50034 0.39908
 Cu1366 Cu 0.86697 0.50084 0.36507
 Cu1367 Cu 1.10038 0.49847 0.39782
 Cu1368 Cu 1.13446 0.49759 0.36404
 C1369 C 0.93781 0.43640 0.35794
 H1370 H 0.94601 0.44445 0.37389
 C1371 C 0.91519 0.41432 0.31802
 C1372 C 1.06373 0.56200 0.35626
 H1373 H 1.05463 0.55329 0.37133
 C1374 C 1.08919 0.58588 0.31912
 C1375 C 0.85868 0.43835 0.43791
 H1376 H 0.87546 0.44540 0.44520
 C1377 C 0.81591 0.41935 0.41831
 C1378 C 1.14245 0.56153 0.43589
 H1379 H 1.12710 0.55306 0.44468
 C1380 C 1.18102 0.58444 0.41226
 C1381 C 0.93597 0.35785 0.43854
 H1382 H 0.94286 0.37509 0.44495
 C1383 C 0.91759 0.31366 0.42144
 C1384 C 1.06537 0.64263 0.43730
 H1385 H 1.05715 0.62676 0.44542
 C1386 C 1.08807 0.68229 0.41495
 C1387 C 0.93947 0.56337 0.35812
 H1388 H 0.94600 0.55691 0.37552
 C1389 C 0.92182 0.58068 0.31364
 C1390 C 1.06246 0.43441 0.35787
 H1391 H 1.05432 0.44279 0.37369
 C1392 C 1.08477 0.41168 0.31823
 C1393 C 1.06207 0.35639 0.43920
 H1394 H 1.05559 0.37382 0.44560
 C1395 C 1.07945 0.31184 0.42191
 C1396 C 0.93977 0.64264 0.43863
 H1397 H 0.94712 0.62598 0.44608
 C1398 C 0.91956 0.68456 0.41819
 C1399 C 0.86013 0.56435 0.43739
 H1400 H 0.87619 0.55645 0.44549
 C1401 C 0.81970 0.58587 0.41526
 C1402 C 1.14101 0.43572 0.43765
 H1403 H 1.12388 0.44266 0.44429
 C1404 C 1.18502 0.41715 0.41990
 O1405 O 1.02258 0.41268 0.62309
 O1406 O 1.02236 0.38463 0.65165
 C1407 C 1.03056 0.40439 0.64306
 C1408 C 1.05003 0.41759 0.65596
 C1409 C 1.05841 0.40958 0.67868
 H1410 H 1.05020 0.39397 0.68732
 O1411 O 0.97790 0.59115 0.62026
 O1412 O 0.97821 0.61976 0.64825
 C1413 C 0.96955 0.60016 0.63977
 C1414 C 0.94902 0.58815 0.65219
 C1415 C 0.93808 0.59900 0.67252
 H1416 H 0.94512 0.61582 0.67983
 O1417 O 0.88167 0.52473 0.58945
 O1418 O 0.85333 0.52526 0.61765
 C1419 C 0.86184 0.53307 0.59772
 C1420 C 0.84895 0.55251 0.58436
 C1421 C 0.82654 0.56126 0.59268
 H1422 H 0.81828 0.55347 0.60873
 O1423 O 1.11914 0.47567 0.58980
 O1424 O 1.14739 0.47535 0.61812
 C1425 C 1.13873 0.46712 0.59841
 C1426 C 1.15137 0.44722 0.58550
 C1427 C 1.17393 0.43872 0.59373
 H1428 H 1.18224 0.44671 0.60965
 O1429 O 1.08688 0.37860 0.52560
 O1430 O 1.11537 0.35050 0.52578
 C1431 C 1.09571 0.35908 0.53417
 C1432 C 1.08361 0.34687 0.55484
 C1433 C 1.09399 0.32613 0.56548
 H1434 H 1.11010 0.31803 0.55765
 O1435 O 0.91262 0.62262 0.52574
 O1436 O 0.88406 0.65063 0.52557
 C1437 C 0.90360 0.64209 0.53426
 C1438 C 0.91590 0.65452 0.55472
 C1439 C 0.90511 0.67440 0.56669
 H1440 H 0.88738 0.68068 0.56106
 O1441 O 0.91522 0.47844 0.62404
 O1442 O 0.88712 0.47936 0.65246
 C1443 C 0.90661 0.47056 0.64392
 C1444 C 0.91833 0.44974 0.65627
 C1445 C 0.90823 0.44011 0.67754
 H1446 H 0.89403 0.45006 0.68677
 O1447 O 1.08715 0.52453 0.62220
 O1448 O 1.11545 0.52430 0.65047
 C1449 C 1.09621 0.53327 0.64152
 C1450 C 1.08500 0.55488 0.65294
 C1451 C 1.09682 0.56681 0.67212
 H1452 H 1.11351 0.55954 0.67954
 O1453 O 0.97639 0.37923 0.58905
 O1454 O 0.97629 0.35067 0.61711
 C1455 C 0.96811 0.35946 0.59738
 C1456 C 0.94822 0.34709 0.58436
 C1457 C 0.93911 0.32489 0.59282
 H1458 H 0.94704 0.31630 0.60865
 O1459 O 1.02557 0.62318 0.58678
 O1460 O 1.02601 0.65192 0.61465
 C1461 C 1.03418 0.64284 0.59509
 C1462 C 1.05437 0.65479 0.58222
 C1463 C 1.06363 0.67699 0.59050
 H1464 H 1.05563 0.68588 0.60612
 O1465 O 0.87997 0.41405 0.52573
 O1466 O 0.85141 0.38618 0.52608
 C1467 C 0.86053 0.40555 0.53458
 C1468 C 0.84909 0.41760 0.55574
 C1469 C 0.82898 0.40703 0.56717
 H1470 H 0.82087 0.39075 0.55977
 O1471 O 1.12190 0.58634 0.52399
 O1472 O 1.15065 0.61401 0.52400
 C1473 C 1.14145 0.59476 0.53268
 C1474 C 1.15300 0.58273 0.55384
 C1475 C 1.17279 0.59364 0.56555
 H1476 H 1.18026 0.61041 0.55857
 O1477 O 1.02535 0.59052 0.62039
 O1478 O 1.02579 0.61924 0.64827
 C1479 C 1.03403 0.59944 0.63980
 C1480 C 1.05468 0.58731 0.65199
 C1481 C 1.06684 0.59896 0.67112
 H1482 H 1.06048 0.61634 0.67782
 O1483 O 0.97540 0.41155 0.62293
 O1484 O 0.97497 0.38311 0.65110
 C1485 C 0.96665 0.40276 0.64238
 C1486 C 0.94638 0.41547 0.65464
 C1487 C 0.93463 0.40506 0.67478
 H1488 H 0.94030 0.38741 0.68132
 O1489 O 1.12007 0.52300 0.58899
 O1490 O 1.14829 0.52264 0.61735
 C1491 C 1.13983 0.53106 0.59759
 C1492 C 1.15243 0.55132 0.58526
 C1493 C 1.17269 0.56214 0.59621
 H1494 H 1.18030 0.55448 0.61267
 O1495 O 0.88228 0.47739 0.59059
 O1496 O 0.85421 0.47797 0.61907
 C1497 C 0.86278 0.46912 0.59956
 C1498 C 0.85038 0.44847 0.58768
 C1499 C 0.83034 0.43750 0.59886
 H1500 H 0.82333 0.44459 0.61583
 O1501 O 1.08964 0.62046 0.52353
 O1502 O 1.11837 0.64818 0.52328
 C1503 C 1.09848 0.64015 0.53153
 C1504 C 1.08581 0.65347 0.55107
 C1505 C 1.09466 0.67582 0.55941
 H1506 H 1.11038 0.68394 0.55093
 O1507 O 0.91268 0.38042 0.52503
 O1508 O 0.88415 0.35248 0.52523
 C1509 C 0.90406 0.36073 0.53327
 C1510 C 0.91695 0.34771 0.55291
 C1511 C 0.90835 0.32534 0.56140
 H1512 H 0.89279 0.31694 0.55287
 O1513 O 1.08586 0.47695 0.62311
 O1514 O 1.11400 0.47675 0.65153
 C1515 C 1.09417 0.46876 0.64301
 C1516 C 1.08107 0.44920 0.65594
 C1517 C 1.08910 0.44099 0.67872
 H1518 H 1.10439 0.44962 0.68749
 O1519 O 0.91521 0.52601 0.62229
 O1520 O 0.88688 0.52685 0.65048
 C1521 C 0.90640 0.53512 0.64155
 C1522 C 0.91833 0.55620 0.65311
 C1523 C 0.90782 0.56725 0.67352
 H1524 H 0.89158 0.55974 0.68158
 O1525 O 0.97843 0.62413 0.58674
 O1526 O 0.97892 0.65275 0.61473
 C1527 C 0.97042 0.64406 0.59515
 C1528 C 0.94982 0.65635 0.58309
 C1529 C 0.94001 0.67754 0.59313
 H1530 H 0.94980 0.68687 0.60737
 O1531 O 1.02366 0.37912 0.59022
 O1532 O 1.02375 0.35091 0.61862
 C1533 C 1.03225 0.35960 0.59903
 C1534 C 1.05285 0.34737 0.58682
 C1535 C 1.06385 0.32695 0.59744
 H1536 H 1.05684 0.31960 0.61427
 O1537 O 1.11967 0.41203 0.52520
 O1538 O 1.14824 0.38399 0.52526
 C1539 C 1.13947 0.40367 0.53349
 C1540 C 1.15197 0.41658 0.55342
 C1541 C 1.17476 0.40870 0.56159
 H1542 H 1.18381 0.39373 0.55258
 O1543 O 0.88116 0.58791 0.52463
 O1544 O 0.85247 0.61581 0.52413
 C1545 C 0.86119 0.59614 0.53251
 C1546 C 0.84848 0.58316 0.55225
 C1547 C 0.82591 0.59137 0.56060
 H1548 H 0.81706 0.60658 0.55179
 Cu1549 Cu 0.99953 0.39847 0.60350
 Cu1550 Cu 0.99938 0.36444 0.63743
 Cu1551 Cu 1.00175 0.60434 0.60076
 Cu1552 Cu 1.00225 0.63874 0.63435
 Cu1553 Cu 0.89882 0.40011 0.50160
 Cu1554 Cu 0.86445 0.36668 0.50194
 Cu1555 Cu 1.10037 0.39799 0.50165
 Cu1556 Cu 1.13453 0.36420 0.50178
 Cu1557 Cu 0.90039 0.60252 0.50157
 Cu1558 Cu 0.86621 0.63621 0.50102
 Cu1559 Cu 1.10292 0.60048 0.50004
 Cu1560 Cu 1.13757 0.63361 0.49990
 Cu1561 Cu 0.90147 0.50159 0.60379
 Cu1562 Cu 0.86761 0.50246 0.63781
 Cu1563 Cu 1.10017 0.49996 0.60323
 Cu1564 Cu 1.13407 0.49961 0.63725
 C1565 C 1.06132 0.43758 0.64487
 H1566 H 1.05527 0.44358 0.62714
 C1567 C 1.07774 0.42136 0.69022
 C1568 C 0.93906 0.56667 0.64267
 H1569 H 0.94699 0.55850 0.62664
 C1570 C 0.91738 0.58873 0.68300
 C1571 C 0.85967 0.56344 0.56399
 H1572 H 0.87722 0.55716 0.55781
 C1573 C 0.81479 0.58043 0.58068
 C1574 C 1.14060 0.43611 0.56525
 H1575 H 1.12298 0.44223 0.55910
 C1576 C 1.18592 0.41981 0.58157
 C1577 C 1.06283 0.35716 0.56547
 H1578 H 1.05488 0.37331 0.55756
 C1579 C 1.08462 0.31652 0.58711
 C1580 C 0.93804 0.64539 0.56342
 H1581 H 0.94579 0.62923 0.55533
 C1582 C 0.91686 0.68576 0.58637
 C1583 C 0.93780 0.43761 0.64531
 H1584 H 0.94585 0.44508 0.62902
 C1585 C 0.91517 0.41708 0.68617
 C1586 C 1.06381 0.56518 0.64313
 H1587 H 1.05489 0.55639 0.62799
 C1588 C 1.08799 0.58893 0.68096
 C1589 C 0.93714 0.35826 0.56425
 H1590 H 0.94370 0.37565 0.55795
 C1591 C 0.91942 0.31380 0.58120
 C1592 C 1.06545 0.64328 0.56236
 H1593 H 1.05869 0.62592 0.55617
 C1594 C 1.08354 0.68772 0.57896
 C1595 C 0.85956 0.43846 0.56604
 H1596 H 0.87534 0.44648 0.55761
 C1597 C 0.81987 0.41663 0.58890
 C1598 C 1.14290 0.56156 0.56388
 H1599 H 1.12709 0.55352 0.55551
 C1600 C 1.18239 0.58373 0.58697
 O1601 O 0.47554 0.91154 0.37943
 O1602 O 0.47553 0.88318 0.35119
 C1603 C 0.46740 0.90304 0.35962
 C1604 C 0.44797 0.91624 0.34660
 C1605 C 0.43907 0.90770 0.32430
 H1606 H 0.44646 0.89125 0.31645
 O1607 O 0.52491 1.08809 0.37951
 O1608 O 0.52498 1.11560 0.35042
 C1609 C 0.53305 1.09595 0.35943
 C1610 C 0.55248 1.08234 0.34680
 C1611 C 0.56123 1.09021 0.32418
 H1612 H 0.55367 1.10631 0.31577
 O1613 O 0.38101 0.97632 0.41227
 O1614 O 0.35307 0.97643 0.38364
 C1615 C 0.36158 0.96789 0.40332
 C1616 C 0.34925 0.94734 0.41538
 C1617 C 0.32922 0.93625 0.40430
 H1618 H 0.32211 0.94327 0.38734
 O1619 O 0.62053 1.02226 0.41262
 O1620 O 0.64868 1.02187 0.38423
 C1621 C 0.64020 1.03041 0.40390
 C1622 C 0.65288 1.05053 0.41639
 C1623 C 0.67504 1.05929 0.40750
 H1624 H 0.68357 1.05067 0.39201
 O1625 O 0.41213 0.87899 0.47700
 O1626 O 0.38362 0.85105 0.47732
 C1627 C 0.40334 0.85930 0.46887
 C1628 C 0.41574 0.84640 0.44881
 C1629 C 0.40690 0.82413 0.44020
 H1630 H 0.39168 0.81558 0.44915
 O1631 O 0.58926 1.12197 0.47559
 O1632 O 0.61818 1.14949 0.47566
 C1633 C 0.59844 1.14133 0.46714
 C1634 C 0.58662 1.15368 0.44638
 C1635 C 0.59732 1.17406 0.43545
 H1636 H 0.61344 1.18204 0.44328
 O1637 O 0.41414 1.02435 0.38001
 O1638 O 0.38591 1.02472 0.35167
 C1639 C 0.40540 1.03312 0.36056
 C1640 C 0.41732 1.05398 0.34868
 C1641 C 0.40662 1.06478 0.32823
 H1642 H 0.39024 1.05726 0.32044
 O1643 O 0.58717 0.97453 0.38009
 O1644 O 0.61525 0.97422 0.35163
 C1645 C 0.59570 0.96594 0.36046
 C1646 C 0.58315 0.94566 0.34813
 C1647 C 0.59247 0.93600 0.32647
 H1648 H 0.60860 0.94369 0.31836
 O1649 O 0.52222 0.87840 0.41350
 O1650 O 0.52248 0.85002 0.38528
 C1651 C 0.53078 0.85880 0.40493
 C1652 C 0.55131 0.84671 0.41732
 C1653 C 0.56246 0.82639 0.40670
 H1654 H 0.55544 0.81883 0.38996
 O1655 O 0.47912 1.12327 0.41285
 O1656 O 0.47944 1.15114 0.38411
 C1657 C 0.47120 1.14307 0.40407
 C1658 C 0.45122 1.15605 0.41649
 C1659 C 0.44221 1.17795 0.40707
 H1660 H 0.45152 1.18675 0.39218
 O1661 O 0.38113 1.08985 0.47476
 O1662 O 0.35297 1.11828 0.47422
 C1663 C 0.36164 1.09850 0.46606
 C1664 C 0.34945 1.08590 0.44567
 C1665 C 0.32935 1.09655 0.43416
 H1666 H 0.32219 1.11370 0.44062
 O1667 O 0.62004 0.91121 0.47739
 O1668 O 0.64788 0.88244 0.47730
 C1669 C 0.63942 0.90216 0.46883
 C1670 C 0.65162 0.91410 0.44811
 C1671 C 0.67166 0.90303 0.43694
 H1672 H 0.67905 0.88627 0.44414
 O1673 O 0.47757 1.08942 0.38027
 O1674 O 0.47758 1.11724 0.35149
 C1675 C 0.46894 1.09796 0.36066
 C1676 C 0.44814 1.08582 0.34882
 C1677 C 0.43699 1.09640 0.32844
 H1678 H 0.44398 1.11308 0.32076
 O1679 O 0.52273 0.91096 0.37982
 O1680 O 0.52280 0.88264 0.35152
 C1681 C 0.53121 0.90225 0.36022
 C1682 C 0.55157 0.91462 0.34789
 C1683 C 0.56106 0.90538 0.32609
 H1684 H 0.55289 0.88967 0.31759
 O1685 O 0.62030 0.97481 0.41320
 O1686 O 0.64836 0.97439 0.38472
 C1687 C 0.63976 0.96614 0.40445
 C1688 C 0.65183 0.94548 0.41668
 C1689 C 0.67192 0.93417 0.40587
 H1690 H 0.67957 0.94136 0.38924
 O1691 O 0.38047 1.02385 0.41250
 O1692 O 0.35229 1.02389 0.38411
 C1693 C 0.36089 1.03231 0.40376
 C1694 C 0.34874 1.05311 0.41571
 C1695 C 0.32825 1.06372 0.40495
 H1696 H 0.32011 1.05555 0.38902
 O1697 O 0.41384 1.12353 0.47485
 O1698 O 0.38574 1.15201 0.47445
 C1699 C 0.40541 1.14323 0.46628
 C1700 C 0.41830 1.15561 0.44616
 C1701 C 0.40875 1.17677 0.43551
 H1702 H 0.39193 1.18436 0.44223
 O1703 O 0.58630 0.87872 0.47780
 O1704 O 0.61418 0.85001 0.47784
 C1705 C 0.59466 0.85893 0.46946
 C1706 C 0.58235 0.84672 0.44901
 C1707 C 0.59296 0.82620 0.43829
 H1708 H 0.60932 0.81837 0.44589
 O1709 O 0.58697 1.02193 0.37959
 O1710 O 0.61502 1.02152 0.35110
 C1711 C 0.59535 1.02991 0.35966
 C1712 C 0.58255 1.04970 0.34672
 C1713 C 0.59043 1.05732 0.32372
 H1714 H 0.60511 1.04780 0.31476
 O1715 O 0.41376 0.97692 0.37846
 O1716 O 0.38580 0.97741 0.34986
 C1717 C 0.40541 0.96897 0.35847
 C1718 C 0.41812 0.94900 0.34570
 C1719 C 0.41002 0.94072 0.32297
 H1720 H 0.39525 0.95000 0.31389
 O1721 O 0.52632 1.12206 0.41180
 O1722 O 0.52671 1.14963 0.38277
 C1723 C 0.53513 1.14120 0.40252
 C1724 C 0.55591 1.15324 0.41441
 C1725 C 0.56720 1.17321 0.40342
 H1726 H 0.56024 1.18039 0.38647
 O1727 O 0.47486 0.87820 0.41251
 O1728 O 0.47494 0.84969 0.38443
 C1729 C 0.46645 0.85853 0.40396
 C1730 C 0.44626 0.84623 0.41667
 C1731 C 0.43666 0.82434 0.40784
 H1732 H 0.44414 0.81614 0.39160
 O1733 O 0.62088 1.08735 0.47570
 O1734 O 0.64985 1.11481 0.47575
 C1735 C 0.64072 1.09541 0.46734
 C1736 C 0.65295 1.08244 0.44724
 C1737 C 0.67483 1.09118 0.43779
 H1738 H 0.68304 1.10732 0.44541
 O1739 O 0.37973 0.91293 0.47671
 O1740 O 0.35118 0.88503 0.47690
 C1741 C 0.36013 0.90441 0.46824
 C1742 C 0.34833 0.91648 0.44730
 C1743 C 0.32816 0.90582 0.43605
 H1744 H 0.32019 0.88951 0.44352
 Cu1745 Cu 0.49875 0.89759 0.39917
 Cu1746 Cu 0.49892 0.86347 0.36531
 Cu1747 Cu 0.50196 1.10294 0.39900
 Cu1748 Cu 0.50218 1.13617 0.36427
 Cu1749 Cu 0.40016 1.00023 0.39868
 Cu1750 Cu 0.36642 1.00060 0.36450
 Cu1751 Cu 0.60094 0.99849 0.39925
 Cu1752 Cu 0.63467 0.99804 0.36509
 C1753 C 0.43745 0.93695 0.35708
 H1754 H 0.44376 0.94322 0.37461
 C1755 C 0.42048 0.92014 0.31205
 C1756 C 0.56322 1.06200 0.35788
 H1757 H 0.55707 1.05622 0.37563
 C1758 C 0.57978 1.07744 0.31225
 C1759 C 0.35860 0.93740 0.43696
 H1760 H 0.37442 0.94548 0.44528
 C1761 C 0.31893 0.91532 0.41431
 C1762 C 0.64217 1.06201 0.43651
 H1763 H 0.62500 1.05548 0.44337
 C1764 C 0.68620 1.07948 0.41824
 C1765 C 0.43570 0.85704 0.43721
 H1766 H 0.44258 0.87422 0.44377
 C1767 C 0.41733 0.81287 0.41983
 C1768 C 0.56570 1.14367 0.43591
 H1769 H 0.55748 1.12783 0.44408
 C1770 C 0.58806 1.18350 0.41363
 C1771 C 0.43822 1.06451 0.35876
 H1772 H 0.44636 1.05652 0.37479
 C1773 C 0.41621 1.08601 0.31832
 C1774 C 0.56259 0.93496 0.35862
 H1775 H 0.55558 0.94202 0.37558
 C1776 C 0.58135 0.91611 0.31524
 C1777 C 0.56134 0.85673 0.43856
 H1778 H 0.55332 0.87285 0.44646
 C1779 C 0.58348 0.81643 0.41688
 C1780 C 0.43946 1.14533 0.43639
 H1781 H 0.44634 1.12845 0.44375
 C1782 C 0.42039 1.18786 0.41570
 C1783 C 0.35903 1.06415 0.43629
 H1784 H 0.37505 1.05626 0.44449
 C1785 C 0.31902 1.08580 0.41354
 C1786 C 0.64197 0.93546 0.43796
 H1787 H 0.62618 0.94381 0.44615
 C1788 C 0.68157 0.91278 0.41568
 O1789 O 0.52251 0.91346 0.62177
 O1790 O 0.52211 0.88556 0.65047
 C1791 C 0.53065 0.90504 0.64163
 C1792 C 0.55110 0.91730 0.65392
 C1793 C 0.56141 0.90708 0.67486
 H1794 H 0.55352 0.89105 0.68301
 O1795 O 0.47787 1.08912 0.61989
 O1796 O 0.47822 1.11714 0.64847
 C1797 C 0.46980 1.09755 0.63978
 C1798 C 0.44981 1.08495 0.65243
 C1799 C 0.44101 1.09372 0.67470
 H1800 H 0.44958 1.10913 0.68335
 O1801 O 0.37997 1.02656 0.58642
 O1802 O 0.35185 1.02718 0.61482
 C1803 C 0.36057 1.03541 0.59514
 C1804 C 0.34864 1.05626 0.58301
 C1805 C 0.32882 1.06780 0.59409
 H1806 H 0.32124 1.06055 0.61072
 O1807 O 0.62125 0.97492 0.58837
 O1808 O 0.64942 0.97493 0.61677
 C1809 C 0.64072 0.96632 0.59725
 C1810 C 0.65275 0.94553 0.58517
 C1811 C 0.67361 0.93482 0.59521
 H1812 H 0.68169 0.94229 0.61150
 O1813 O 0.58692 0.87875 0.52528
 O1814 O 0.61476 0.84999 0.52525
 C1815 C 0.59536 0.85902 0.53376
 C1816 C 0.58295 0.84697 0.55429
 C1817 C 0.59217 0.82533 0.56412
 H1818 H 0.60791 0.81674 0.55607
 O1819 O 0.41385 1.12310 0.52245
 O1820 O 0.38562 1.15147 0.52221
 C1821 C 0.40501 1.14260 0.53100
 C1822 C 0.41671 1.15436 0.55218
 C1823 C 0.40529 1.17386 0.56400
 H1824 H 0.38843 1.18113 0.55697
 O1825 O 0.41241 0.97869 0.62012
 O1826 O 0.38411 0.97937 0.64837
 C1827 C 0.40353 0.97048 0.63976
 C1828 C 0.41511 0.94954 0.65202
 C1829 C 0.40385 0.93865 0.67212
 H1830 H 0.38754 0.94652 0.67976
 O1831 O 0.58828 1.02340 0.62031
 O1832 O 0.61648 1.02354 0.64868
 C1833 C 0.59699 1.03206 0.63982
 C1834 C 0.58498 1.05299 0.65169
 C1835 C 0.59533 1.06364 0.67241
 H1836 H 0.61123 1.05562 0.68074
 O1837 O 0.47587 0.87956 0.58843
 O1838 O 0.47566 0.85143 0.61692
 C1839 C 0.46757 0.85987 0.59704
 C1840 C 0.44780 0.84715 0.58412
 C1841 C 0.43907 0.82476 0.59256
 H1842 H 0.44719 0.81627 0.60835
 O1843 O 0.52477 1.12248 0.58640
 O1844 O 0.52490 1.15070 0.61479
 C1845 C 0.53328 1.14202 0.59514
 C1846 C 0.55393 1.15404 0.58299
 C1847 C 0.56504 1.17431 0.59366
 H1848 H 0.55778 1.18207 0.61021
 O1849 O 0.37967 0.91327 0.52428
 O1850 O 0.35119 0.88530 0.52465
 C1851 C 0.36008 0.90488 0.53292
 C1852 C 0.34815 0.91735 0.55355
 C1853 C 0.32855 0.90638 0.56546
 H1854 H 0.32116 0.88946 0.55875
 O1855 O 0.62118 1.08757 0.52316
 O1856 O 0.65017 1.11501 0.52321
 C1857 C 0.64108 1.09555 0.53152
 C1858 C 0.65343 1.08247 0.55155
 C1859 C 0.67548 1.09109 0.56085
 H1860 H 0.68388 1.10704 0.55306
 O1861 O 0.52522 1.08893 0.61916
 O1862 O 0.52550 1.11717 0.64752
 C1863 C 0.53387 1.09756 0.63870
 C1864 C 0.55444 1.08523 0.65087
 C1865 C 0.56546 1.09587 0.67124
 H1866 H 0.55851 1.11278 0.67850
 O1867 O 0.47515 0.91339 0.62096
 O1868 O 0.47463 0.88532 0.64950
 C1869 C 0.46632 0.90486 0.64045
 C1870 C 0.44556 0.91724 0.65216
 C1871 C 0.43377 0.90645 0.67199
 H1872 H 0.44040 0.88947 0.67940
 O1873 O 0.62110 1.02238 0.58682
 O1874 O 0.64936 1.02243 0.61512
 C1875 C 0.64080 1.03064 0.59531
 C1876 C 0.65340 1.05062 0.58254
 C1877 C 0.67554 1.05944 0.59140
 H1878 H 0.68407 1.05094 0.60696
 O1879 O 0.37959 0.97889 0.58677
 O1880 O 0.35139 0.97954 0.61511
 C1881 C 0.36009 0.97061 0.59570
 C1882 C 0.34814 0.94950 0.58421
 C1883 C 0.32867 0.93807 0.59593
 H1884 H 0.32153 0.94539 0.61274
 O1885 O 0.58858 1.12145 0.52301
 O1886 O 0.61752 1.14894 0.52321
 C1887 C 0.59765 1.14082 0.53148
 C1888 C 0.58550 1.15340 0.55186
 C1889 C 0.59626 1.17373 0.56274
 H1890 H 0.61288 1.18117 0.55544
 O1891 O 0.41245 0.87956 0.52431
 O1892 O 0.38402 0.85154 0.52456
 C1893 C 0.40383 0.85994 0.53270
 C1894 C 0.41665 0.84718 0.55257
 C1895 C 0.40835 0.82468 0.56109
 H1896 H 0.39298 0.81602 0.55249
 O1897 O 0.58749 0.97598 0.62089
 O1898 O 0.61564 0.97604 0.64931
 C1899 C 0.59595 0.96777 0.64071
 C1900 C 0.58327 0.94775 0.65334
 C1901 C 0.59347 0.93702 0.67413
 H1902 H 0.61023 0.94394 0.68163
 O1903 O 0.41318 1.02610 0.61978
 O1904 O 0.38503 1.02666 0.64816
 C1905 C 0.40480 1.03459 0.63952
 C1906 C 0.41785 1.05433 0.65217
 C1907 C 0.40918 1.06354 0.67431
 H1908 H 0.39313 1.05586 0.68259
 O1909 O 0.47731 1.12240 0.58667
 O1910 O 0.47737 1.15042 0.61525
 C1911 C 0.46878 1.14188 0.59563
 C1912 C 0.44793 1.15405 0.58375
 C1913 C 0.43636 1.17376 0.59510
 H1914 H 0.44351 1.18111 0.61188
 O1915 O 0.52315 0.87980 0.58910
 O1916 O 0.52294 0.85185 0.61776
 C1917 C 0.53152 0.86028 0.59810
 C1918 C 0.55186 0.84768 0.58590
 C1919 C 0.56150 0.82614 0.59558
 H1920 H 0.55374 0.81826 0.61183
 O1921 O 0.62042 0.91133 0.52486
 O1922 O 0.64827 0.88257 0.52476
 C1923 C 0.63992 0.90232 0.53319
 C1924 C 0.65241 0.91436 0.55362
 C1925 C 0.67335 0.90403 0.56377
 H1926 H 0.68133 0.88792 0.55577
 O1927 O 0.38038 1.09061 0.52230
 O1928 O 0.35216 1.11899 0.52189
 C1929 C 0.36082 1.09950 0.53067
 C1930 C 0.34876 1.08770 0.55161
 C1931 C 0.32909 1.09910 0.56320
 H1932 H 0.32190 1.11601 0.55619
 Cu1933 Cu 0.49919 0.89936 0.60220
 Cu1934 Cu 0.49880 0.86578 0.63660
 Cu1935 Cu 0.50123 1.10294 0.60014
 Cu1936 Cu 0.50149 1.13671 0.63433
 Cu1937 Cu 0.39882 0.89902 0.50056
 Cu1938 Cu 0.36454 0.86552 0.50092
 Cu1939 Cu 0.60062 0.89791 0.50135
 Cu1940 Cu 0.63407 0.86336 0.50126
 Cu1941 Cu 0.40012 1.10395 0.49854
 Cu1942 Cu 0.36631 1.13804 0.49807
 Cu1943 Cu 0.60205 1.10186 0.49937
 Cu1944 Cu 0.63683 1.13483 0.49951
 Cu1945 Cu 0.39909 1.00257 0.60039
 Cu1946 Cu 0.36520 1.00334 0.63438
 Cu1947 Cu 0.60173 0.99913 0.60124
 Cu1948 Cu 0.63554 0.99928 0.63533
 C1949 C 0.56199 0.93782 0.64344
 H1950 H 0.55441 0.94552 0.62701
 C1951 C 0.58283 0.91650 0.68465
 C1952 C 0.43832 1.06502 0.64149
 H1953 H 0.44483 1.05833 0.62418
 C1954 C 0.42086 1.08299 0.68578
 C1955 C 0.35835 1.06623 0.56163
 H1956 H 0.37394 1.05771 0.55324
 C1957 C 0.31941 1.08948 0.58466
 C1958 C 0.64243 0.93525 0.56426
 H1959 H 0.62612 0.94314 0.55663
 C1960 C 0.68385 0.91400 0.58465
 C1961 C 0.56264 0.85787 0.56516
 H1962 H 0.55562 0.87474 0.55788
 C1963 C 0.58145 0.81477 0.58462
 C1964 C 0.43808 1.14463 0.56217
 H1965 H 0.44663 1.12916 0.55355
 C1966 C 0.41476 1.18334 0.58563
 C1967 C 0.43612 0.93883 0.64232
 H1968 H 0.44469 0.94690 0.62659
 C1969 C 0.41272 0.91682 0.68172
 C1970 C 0.56434 1.06376 0.64121
 H1971 H 0.55641 1.05584 0.62507
 C1972 C 0.58607 1.08540 0.68183
 C1973 C 0.43660 0.85808 0.56398
 H1974 H 0.44292 0.87556 0.55765
 C1975 C 0.41960 0.81329 0.58090
 C1976 C 0.56418 1.14385 0.56196
 H1977 H 0.55605 1.12787 0.55397
 C1978 C 0.58634 1.18393 0.58382
 C1979 C 0.35770 0.93906 0.56294
 H1980 H 0.37315 0.94737 0.55418
 C1981 C 0.31918 0.91634 0.58691
 C1982 C 0.64263 1.06206 0.56238
 H1983 H 0.62541 1.05556 0.55561
 C1984 C 0.68670 1.07950 0.58055
 O1985 O 0.58643 0.52315 1.12166
 O1986 O 0.61443 0.52279 1.15024
 C1987 C 0.59521 0.53171 1.14118
 C1988 C 0.58372 0.55308 1.15272
 C1989 C 0.59510 0.56470 1.17232
 H1990 H 0.61154 0.55722 1.18007
 O1991 O 0.41288 0.47865 1.12103
 O1992 O 0.38468 0.47948 1.14937
 C1993 C 0.40439 0.47094 1.14103
 C1994 C 0.41655 0.45067 1.15388
 C1995 C 0.40698 0.44187 1.17573
 H1996 H 0.39324 0.45238 1.18502
 O1997 O 0.52447 0.62171 1.08678
 O1998 O 0.52443 0.65017 1.11493
 C1999 C 0.53308 0.64120 1.09553
 C2000 C 0.55430 0.65267 1.08386
 C2001 C 0.56613 0.67217 1.09520
 H2002 H 0.55869 0.68014 1.11157
 O2003 O 0.47456 0.37881 1.08879
 O2004 O 0.47420 0.35069 1.11728
 C2005 C 0.46605 0.35927 1.09748
 C2006 C 0.44575 0.34701 1.08500
 C2007 C 0.43448 0.32688 1.09574
 H2008 H 0.44127 0.31953 1.11269
 O2009 O 0.62185 0.58549 1.02485
 O2010 O 0.65045 0.61335 1.02470
 C2011 C 0.64139 0.59407 1.03344
 C2012 C 0.65289 0.58232 1.05474
 C2013 C 0.67211 0.59380 1.06687
 H2014 H 0.67971 0.61044 1.05972
 O2015 O 0.37923 0.41227 1.02425
 O2016 O 0.35091 0.38414 1.02466
 C2017 C 0.35986 0.40362 1.03311
 C2018 C 0.34827 0.41562 1.05423
 C2019 C 0.32870 0.40449 1.06604
 H2020 H 0.32125 0.38770 1.05908
 O2021 O 0.47694 0.58893 1.11994
 O2022 O 0.47686 0.61734 1.14814
 C2023 C 0.46859 0.59762 1.13961
 C2024 C 0.44852 0.58506 1.15218
 C2025 C 0.44004 0.59341 1.17475
 H2026 H 0.44891 0.60850 1.18366
 O2027 O 0.52143 0.41202 1.12244
 O2028 O 0.52104 0.38407 1.15108
 C2029 C 0.52954 0.40360 1.14233
 C2030 C 0.54943 0.41640 1.15501
 C2031 C 0.55803 0.40810 1.17758
 H2032 H 0.55006 0.39220 1.18591
 O2033 O 0.61904 0.47490 1.08905
 O2034 O 0.64704 0.47443 1.11759
 C2035 C 0.63855 0.46630 1.09775
 C2036 C 0.65112 0.44627 1.08495
 C2037 C 0.67341 0.43739 1.09351
 H2038 H 0.68189 0.44553 1.10927
 O2039 O 0.37895 0.52462 1.08624
 O2040 O 0.35060 0.52517 1.11441
 C2041 C 0.35916 0.53303 1.09450
 C2042 C 0.34644 0.55273 1.08124
 C2043 C 0.32458 0.56237 1.09014
 H2044 H 0.31639 0.55485 1.10635
 O2045 O 0.41184 0.62118 1.02318
 O2046 O 0.38376 0.64969 1.02298
 C2047 C 0.40318 0.64081 1.03166
 C2048 C 0.41587 0.65325 1.05187
 C2049 C 0.40742 0.67559 1.06088
 H2050 H 0.39117 0.68370 1.05336
 O2051 O 0.58585 0.37801 1.02510
 O2052 O 0.61382 0.34938 1.02571
 C2053 C 0.59418 0.35832 1.03377
 C2054 C 0.58127 0.34607 1.05386
 C2055 C 0.58961 0.32371 1.06280
 H2056 H 0.60503 0.31484 1.05442
 O2057 O 0.41216 0.52592 1.11963
 O2058 O 0.38386 0.52661 1.14785
 C2059 C 0.40356 0.53467 1.13915
 C2060 C 0.41642 0.55460 1.15168
 C2061 C 0.40796 0.56350 1.17401
 H2062 H 0.39195 0.55571 1.18227
 O2063 O 0.58560 0.47572 1.12233
 O2064 O 0.61349 0.47536 1.15099
 C2065 C 0.59370 0.46748 1.14230
 C2066 C 0.58041 0.44801 1.15517
 C2067 C 0.58814 0.44001 1.17811
 H2068 H 0.60311 0.44900 1.18707
 O2069 O 0.52173 0.37892 1.08918
 O2070 O 0.52152 0.35076 1.11763
 C2071 C 0.52998 0.35926 1.09792
 C2072 C 0.55001 0.34654 1.08533
 C2073 C 0.55879 0.32428 1.09411
 H2074 H 0.55060 0.31594 1.10992
 O2075 O 0.47701 0.62167 1.08618
 O2076 O 0.47698 0.65022 1.11423
 C2077 C 0.46867 0.64145 1.09458
 C2078 C 0.44852 0.65392 1.08190
 C2079 C 0.44043 0.67671 1.08989
 H2080 H 0.44989 0.68586 1.10448
 O2081 O 0.37907 0.58776 1.02140
 O2082 O 0.35080 0.61608 1.02104
 C2083 C 0.35919 0.59623 1.02931
 C2084 C 0.34632 0.58341 1.04909
 C2085 C 0.32428 0.59246 1.05801
 H2086 H 0.31577 0.60799 1.04943
 O2087 O 0.61922 0.41086 1.02478
 O2088 O 0.64730 0.38235 1.02532
 C2089 C 0.63877 0.40222 1.03335
 C2090 C 0.65129 0.41505 1.05336
 C2091 C 0.67360 0.40651 1.06216
 H2092 H 0.68228 0.39099 1.05373
 O2093 O 0.47401 0.41211 1.12169
 O2094 O 0.47342 0.38405 1.15022
 C2095 C 0.46514 0.40361 1.14118
 C2096 C 0.44476 0.41651 1.15308
 C2097 C 0.43306 0.40659 1.17350
 H2098 H 0.43872 0.38905 1.18034
 O2099 O 0.52424 0.58867 1.11992
 O2100 O 0.52422 0.61719 1.14801
 C2101 C 0.53270 0.59752 1.13946
 C2102 C 0.55330 0.58542 1.15174
 C2103 C 0.56510 0.59683 1.17123
 H2104 H 0.55854 0.61408 1.17807
 O2105 O 0.37970 0.47701 1.08790
 O2106 O 0.35154 0.47752 1.11626
 C2107 C 0.36036 0.46847 1.09697
 C2108 C 0.34858 0.44718 1.08553
 C2109 C 0.32902 0.43567 1.09706
 H2110 H 0.32171 0.44291 1.11383
 O2111 O 0.62002 0.52240 1.08929
 O2112 O 0.64793 0.52192 1.11796
 C2113 C 0.63952 0.53065 1.09833
 C2114 C 0.65183 0.55144 1.08662
 C2115 C 0.67086 0.56338 1.09861
 H2116 H 0.67739 0.55671 1.11594
 O2117 O 0.41181 0.37854 1.02377
 O2118 O 0.38344 0.35045 1.02395
 C2119 C 0.40310 0.35898 1.03225
 C2120 C 0.41517 0.34674 1.05288
 C2121 C 0.40440 0.32641 1.06372
 H2122 H 0.38812 0.31860 1.05602
 O2123 O 0.58931 0.61922 1.02440
 O2124 O 0.61799 0.64699 1.02420
 C2125 C 0.59832 0.63869 1.03275
 C2126 C 0.58646 0.65116 1.05338
 C2127 C 0.59820 0.67038 1.06525
 H2128 H 0.61551 0.67685 1.05868
 Cu2129 Cu 0.59998 0.49895 1.10270
 Cu2130 Cu 0.63352 0.49840 1.13707
 Cu2131 Cu 0.39870 0.50156 1.10081
 Cu2132 Cu 0.36478 0.50232 1.13474
 Cu2133 Cu 0.50061 0.60241 1.10036
 Cu2134 Cu 0.50050 0.63662 1.13413
 Cu2135 Cu 0.49799 0.39832 1.10272
 Cu2136 Cu 0.49758 0.36458 1.13695
 C2137 C 0.56269 0.56348 1.14267
 H2138 H 0.55409 0.55489 1.12724
 C2139 C 0.58615 0.58675 1.18127
 C2140 C 0.43594 0.43827 1.14308
 H2141 H 0.44372 0.44524 1.12643
 C2142 C 0.41379 0.41900 1.18483
 C2143 C 0.56447 0.64249 1.06278
 H2144 H 0.55568 0.62720 1.05415
 C2145 C 0.58835 0.68065 1.08634
 C2146 C 0.43604 0.35675 1.06348
 H2147 H 0.44417 0.37272 1.05548
 C2148 C 0.41360 0.31686 1.08541
 C2149 C 0.64304 0.56101 1.06464
 H2150 H 0.62791 0.55232 1.05566
 C2151 C 0.68072 0.58476 1.08907
 C2152 C 0.35801 0.43706 1.06404
 H2153 H 0.37341 0.44550 1.05531
 C2154 C 0.31930 0.41421 1.08756
 C2155 C 0.43682 0.56539 1.14099
 H2156 H 0.44318 0.55892 1.12354
 C2157 C 0.41994 0.58255 1.18586
 C2158 C 0.56073 0.43641 1.14400
 H2159 H 0.55469 0.44248 1.12629
 C2160 C 0.57699 0.42017 1.18953
 C2161 C 0.64033 0.43512 1.06470
 H2162 H 0.62296 0.44160 1.05821
 C2163 C 0.68478 0.41770 1.08205
 C2164 C 0.35708 0.56331 1.06060
 H2165 H 0.37427 0.55645 1.05404
 C2166 C 0.31364 0.58239 1.07880
 C2167 C 0.43640 0.64254 1.06259
 H2168 H 0.44263 0.62499 1.05627
 C2169 C 0.42001 0.68776 1.07942
 C2170 C 0.56125 0.35721 1.06506
 H2171 H 0.55487 0.37458 1.05841
 C2172 C 0.57835 0.31268 1.08273
 O2173 O 0.58692 0.47430 0.88014
 O2174 O 0.61492 0.47403 0.85160
 C2175 C 0.59511 0.46614 0.86020
 C2176 C 0.58186 0.44677 0.84726
 C2177 C 0.58939 0.43914 0.82416
 H2178 H 0.60432 0.44821 0.81520
 O2179 O 0.41292 0.52222 0.88027
 O2180 O 0.38509 0.52259 0.85154
 C2181 C 0.40469 0.53071 0.86047
 C2182 C 0.41765 0.55065 0.84803
 C2183 C 0.40945 0.55921 0.82545
 H2184 H 0.39417 0.55062 0.81661
 O2185 O 0.47799 0.62067 0.91302
 O2186 O 0.47831 0.64865 0.88440
 C2187 C 0.47001 0.64048 0.90427
 C2188 C 0.45032 0.65365 0.91690
 C2189 C 0.44167 0.67587 0.90787
 H2190 H 0.45005 0.68407 0.89209
 O2191 O 0.52291 0.37716 0.91333
 O2192 O 0.52302 0.34874 0.88515
 C2193 C 0.53115 0.35733 0.90494
 C2194 C 0.55075 0.34453 0.91812
 C2195 C 0.55914 0.32179 0.91019
 H2196 H 0.55099 0.31319 0.89450
 O2197 O 0.61967 0.40992 0.97733
 O2198 O 0.64763 0.38129 0.97782
 C2199 C 0.63924 0.40093 0.96913
 C2200 C 0.65182 0.41303 0.94872
 C2201 C 0.67335 0.40332 0.93917
 H2202 H 0.68157 0.38748 0.94746
 O2203 O 0.38015 0.58918 0.97400
 O2204 O 0.35205 0.61767 0.97340
 C2205 C 0.36088 0.59808 0.96500
 C2206 C 0.34891 0.58557 0.94440
 C2207 C 0.32880 0.59604 0.93261
 H2208 H 0.32228 0.61367 0.93835
 O2209 O 0.52451 0.58609 0.87995
 O2210 O 0.52465 0.61400 0.85124
 C2211 C 0.53295 0.59444 0.86019
 C2212 C 0.55340 0.58195 0.84810
 C2213 C 0.56435 0.59233 0.82758
 H2214 H 0.55719 0.60892 0.81977
 O2215 O 0.47614 0.41076 0.87978
 O2216 O 0.47629 0.38256 0.85136
 C2217 C 0.46798 0.40228 0.85997
 C2218 C 0.44810 0.41508 0.84725
 C2219 C 0.43904 0.40610 0.82521
 H2220 H 0.44724 0.39028 0.81687
 O2221 O 0.62114 0.52065 0.91361
 O2222 O 0.64931 0.52014 0.88524
 C2223 C 0.64085 0.52870 0.90492
 C2224 C 0.65338 0.54905 0.91711
 C2225 C 0.67403 0.55944 0.90653
 H2226 H 0.68189 0.55154 0.89032
 O2227 O 0.37905 0.47471 0.91245
 O2228 O 0.35133 0.47486 0.88361
 C2229 C 0.35971 0.46627 0.90331
 C2230 C 0.34749 0.44555 0.91515
 C2231 C 0.32819 0.43371 0.90353
 H2232 H 0.32139 0.44040 0.88632
 O2233 O 0.58922 0.61869 0.97688
 O2234 O 0.61789 0.64648 0.97665
 C2235 C 0.59820 0.63805 0.96823
 C2236 C 0.58636 0.65015 0.94733
 C2237 C 0.59762 0.66989 0.93589
 H2238 H 0.61415 0.67744 0.94332
 O2239 O 0.41147 0.37871 0.97630
 O2240 O 0.38301 0.35071 0.97651
 C2241 C 0.40256 0.35922 0.96787
 C2242 C 0.41446 0.34694 0.94711
 C2243 C 0.40332 0.32706 0.93576
 H2244 H 0.38644 0.31993 0.94277
 O2245 O 0.41236 0.47480 0.87947
 O2246 O 0.38461 0.47526 0.85066
 C2247 C 0.40406 0.46667 0.85953
 C2248 C 0.41675 0.44651 0.84702
 C2249 C 0.40784 0.43712 0.82502
 H2250 H 0.39191 0.44502 0.81664
 O2251 O 0.58801 0.52154 0.88040
 O2252 O 0.61623 0.52119 0.85207
 C2253 C 0.59675 0.52987 0.86078
 C2254 C 0.58468 0.55045 0.84844
 C2255 C 0.59527 0.56108 0.82786
 H2256 H 0.61181 0.55366 0.82028
 O2257 O 0.47557 0.37760 0.91287
 O2258 O 0.47554 0.34935 0.88451
 C2259 C 0.46698 0.35815 0.90405
 C2260 C 0.44608 0.34632 0.91600
 C2261 C 0.43476 0.32631 0.90508
 H2262 H 0.44211 0.31851 0.88858
 O2263 O 0.52534 0.61927 0.91293
 O2264 O 0.52572 0.64713 0.88419
 C2265 C 0.53421 0.63846 0.90383
 C2266 C 0.55529 0.65017 0.91562
 C2267 C 0.56714 0.66962 0.90422
 H2268 H 0.56032 0.67679 0.88721
 O2269 O 0.37824 0.41179 0.97657
 O2270 O 0.34985 0.38373 0.97696
 C2271 C 0.35862 0.40312 0.96823
 C2272 C 0.34674 0.41486 0.94718
 C2273 C 0.32724 0.40347 0.93546
 H2274 H 0.31960 0.38696 0.94286
 O2275 O 0.62196 0.58503 0.97721
 O2276 O 0.65059 0.61284 0.97702
 C2277 C 0.64162 0.59335 0.96866
 C2278 C 0.65359 0.58087 0.94807
 C2279 C 0.67396 0.59123 0.93690
 H2280 H 0.68161 0.60789 0.94394
 O2281 O 0.52325 0.41031 0.87991
 O2282 O 0.52344 0.38208 0.85154
 C2283 C 0.53156 0.40184 0.86014
 C2284 C 0.55110 0.41498 0.84733
 C2285 C 0.55920 0.40731 0.82438
 H2286 H 0.55100 0.39171 0.81571
 O2287 O 0.47713 0.58654 0.88056
 O2288 O 0.47731 0.61443 0.85184
 C2289 C 0.46881 0.59495 0.86075
 C2290 C 0.44875 0.58220 0.84824
 C2291 C 0.44000 0.59068 0.82582
 H2292 H 0.44808 0.60647 0.81738
 O2293 O 0.37913 0.52220 0.91296
 O2294 O 0.35122 0.52238 0.88431
 C2295 C 0.35962 0.53069 0.90412
 C2296 C 0.34741 0.55151 0.91604
 C2297 C 0.32602 0.56108 0.90616
 H2298 H 0.31668 0.55107 0.89208
 O2299 O 0.62037 0.47318 0.91310
 O2300 O 0.64845 0.47262 0.88466
 C2301 C 0.63975 0.46436 0.90433
 C2302 C 0.65189 0.44388 0.91681
 C2303 C 0.67317 0.43365 0.90728
 H2304 H 0.68111 0.44100 0.89087
 O2305 O 0.58610 0.37722 0.97773
 O2306 O 0.61397 0.34849 0.97835
 C2307 C 0.59443 0.35722 0.96982
 C2308 C 0.58158 0.34440 0.95002
 C2309 C 0.58952 0.32154 0.94201
 H2310 H 0.60463 0.31267 0.95093
 O2311 O 0.41356 0.62186 0.97586
 O2312 O 0.38559 0.65048 0.97550
 C2313 C 0.40541 0.64179 0.96761
 C2314 C 0.41872 0.65438 0.94800
 C2315 C 0.41037 0.67662 0.93873
 H2316 H 0.39457 0.68530 0.94657
 Cu2317 Cu 0.60132 0.49742 0.89971
 Cu2318 Cu 0.63510 0.49690 0.86557
 Cu2319 Cu 0.39863 0.49844 0.89919
 Cu2320 Cu 0.36523 0.49889 0.86469
 Cu2321 Cu 0.60273 0.59930 1.00084
 Cu2322 Cu 0.63711 0.63268 1.00058
 Cu2323 Cu 0.59993 0.39689 1.00115
 Cu2324 Cu 0.63351 0.36252 1.00188
 Cu2325 Cu 0.39895 0.60216 0.99865
 Cu2326 Cu 0.36518 0.63632 0.99823
 Cu2327 Cu 0.39800 0.39818 1.00018
 Cu2328 Cu 0.36392 0.36448 1.00057
 Cu2329 Cu 0.50113 0.60035 0.89950
 Cu2330 Cu 0.50141 0.63387 0.86505
 Cu2331 Cu 0.49954 0.39675 0.89935
 Cu2332 Cu 0.49966 0.36278 0.86534
 C2333 C 0.56243 0.43486 0.85852
 H2334 H 0.55664 0.44058 0.87642
 C2335 C 0.57808 0.41957 0.81256
 C2336 C 0.43753 0.56206 0.85914
 H2337 H 0.44385 0.55567 0.87664
 C2338 C 0.42062 0.57905 0.81420
 C2339 C 0.43893 0.64323 0.93717
 H2340 H 0.44523 0.62587 0.94394
 C2341 C 0.42186 0.68747 0.91880
 C2342 C 0.56197 0.35558 0.93817
 H2343 H 0.55590 0.37331 0.94411
 C2344 C 0.57825 0.31007 0.92228
 C2345 C 0.64146 0.43354 0.93763
 H2346 H 0.62476 0.44102 0.94478
 C2347 C 0.68419 0.41363 0.91856
 C2348 C 0.35838 0.56355 0.93559
 H2349 H 0.37471 0.55608 0.94356
 C2350 C 0.31740 0.58410 0.91311
 C2351 C 0.56359 0.56088 0.85831
 H2352 H 0.55560 0.55309 0.87447
 C2353 C 0.58534 0.58209 0.81765
 C2354 C 0.43704 0.43548 0.85785
 H2355 H 0.44375 0.44231 0.87502
 C2356 C 0.41905 0.41707 0.81397
 C2357 C 0.64346 0.55972 0.93807
 H2358 H 0.62732 0.55204 0.94612
 C2359 C 0.68397 0.58084 0.91595
 C2360 C 0.35655 0.43605 0.93704
 H2361 H 0.37187 0.44468 0.94574
 C2362 C 0.31832 0.41247 0.91337
 C2363 C 0.56504 0.64058 0.93721
 H2364 H 0.55645 0.62512 0.94571
 C2365 C 0.58851 0.67922 0.91402
 C2366 C 0.43592 0.35636 0.93716
 H2367 H 0.44429 0.37207 0.94544
 C2368 C 0.41315 0.31699 0.91458
 C2369 C 1.08819 1.10372 1.25269
 C2370 C 1.11272 1.11130 1.25155
 C2371 C 1.12612 1.10703 1.23040
 C2372 C 1.11542 1.09653 1.21013
 C2373 C 1.09099 1.08977 1.21036
 C2374 C 1.07725 1.09283 1.23191
 C2375 C 1.07450 1.10596 1.27423
 C2376 C 1.05054 1.09809 1.27516
 C2377 C 1.03988 1.08749 1.25489
 C2378 C 1.05308 1.08466 1.23351
 H2379 H 1.08221 1.11332 1.29069
 H2380 H 1.04029 1.09995 1.29181
 H2381 H 1.02137 1.08115 1.25583
 H2382 H 1.04428 1.07568 1.21846
 H2383 H 1.14491 1.11255 1.22930
 H2384 H 1.12619 1.09412 1.19387
 C2385 C 1.12805 0.63591 0.71256
 C2386 C 1.12660 0.62732 0.73674
 C2387 C 1.11341 0.60629 0.74186
 C2388 C 1.10127 0.59394 0.72349
 C2389 C 1.10181 0.60242 0.69955
 C2390 C 1.11543 0.62342 0.69378
 C2391 C 1.14188 0.65655 0.70660
 C2392 C 1.14330 0.66468 0.68265
 C2393 C 1.13093 0.65253 0.66429
 C2394 C 1.11711 0.63209 0.66970
 H2395 H 1.15184 0.66641 0.72035
 H2396 H 1.15411 0.68045 0.67830
 H2397 H 1.13220 0.65888 0.64573
 H2398 H 1.10809 0.62299 0.65484
 H2399 H 1.11227 0.59957 0.76031
 H2400 H 1.09102 0.57783 0.72804
 C2401 C 0.63339 1.11614 0.72279
 C2402 C 0.61915 1.11963 0.74415
 C2403 C 0.59439 1.11388 0.74335
 C2404 C 0.58422 1.10279 0.72313
 C2405 C 0.59815 1.09764 0.70256
 C2406 C 0.62276 1.10504 0.70189
 C2407 C 0.65719 1.12542 0.72080
 C2408 C 0.67055 1.12264 0.69952
 C2409 C 0.66037 1.11130 0.67946
 C2410 C 0.63665 1.10287 0.68042
 H2411 H 0.66545 1.13592 0.73508
 H2412 H 0.68872 1.12988 0.69839
 H2413 H 0.67069 1.10964 0.66285
 H2414 H 0.62920 1.09534 0.66393
 H2415 H 0.58291 1.11665 0.75906
 H2416 H 0.56529 1.09772 0.72372
 C2417 C 0.63481 0.62124 1.21689
 C2418 C 0.62289 0.62334 1.23958
 C2419 C 0.59929 0.61451 1.24217
 C2420 C 0.58768 0.60290 1.22302
 C2421 C 0.59930 0.59981 1.20067
 C2422 C 0.62292 0.60932 1.19725
 C2423 C 0.65794 0.63141 1.21300
 C2424 C 0.66926 0.62948 1.19046
 C2425 C 0.65778 0.61758 1.17141
 C2426 C 0.63475 0.60783 1.17456
 H2427 H 0.66733 0.64119 1.22716
 H2428 H 0.68699 0.63735 1.18769
 H2429 H 0.66670 0.61600 1.15406
 H2430 H 0.62626 0.59945 1.15898
 H2431 H 0.58990 0.61620 1.25936
 H2432 H 0.56957 0.59591 1.22577
 C2433 C 0.86334 0.88549 1.22158
 C2434 C 0.87747 0.87898 1.24230
 C2435 C 0.90257 0.88295 1.24173
 C2436 C 0.91341 0.89500 1.22246
 C2437 C 0.89982 0.90278 1.20246
 C2438 C 0.87469 0.89731 1.20146
 C2439 C 0.83878 0.87853 1.21927
 C2440 C 0.82549 0.88411 1.19849
 C2441 C 0.83647 0.89589 1.17916
 C2442 C 0.86086 0.90206 1.18035
 H2443 H 0.82973 0.86775 1.23284
 H2444 H 0.80673 0.87865 1.19712
 H2445 H 0.82620 0.89967 1.16287
 H2446 H 0.86877 0.90990 1.16424
 H2447 H 0.91390 0.87792 1.25701
 H2448 H 0.93267 0.89858 1.22333
 C2449 C 0.86648 0.40209 0.73368
 C2450 C 0.88032 0.38864 0.75111
 C2451 C 0.90537 0.38610 0.74671
 C2452 C 0.91615 0.39521 0.72576
 C2453 C 0.90230 0.40589 0.70732
 C2454 C 0.87684 0.40773 0.71062
 C2455 C 0.84317 0.41149 0.73865
 C2456 C 0.82865 0.42081 0.72011
 C2457 C 0.83735 0.42167 0.69644
 C2458 C 0.86133 0.41543 0.69169
 H2459 H 0.83642 0.41299 0.75696
 H2460 H 0.81059 0.42733 0.72413
 H2461 H 0.82582 0.42818 0.68191
 H2462 H 0.86767 0.41694 0.67316
 H2463 H 0.91716 0.37689 0.75937
 H2464 H 0.93563 0.39379 0.72400
 C2465 C 0.36384 0.88490 0.71955
 C2466 C 0.37693 0.88145 0.74145
 C2467 C 0.40111 0.88887 0.74288
 C2468 C 0.41226 0.90027 0.72336
 C2469 C 0.39969 0.90439 0.70167
 C2470 C 0.37539 0.89626 0.69937
 C2471 C 0.33984 0.87651 0.71693
 C2472 C 0.32746 0.87932 0.69501
 C2473 C 0.33878 0.89020 0.67527
 C2474 C 0.36255 0.89842 0.67726
 H2475 H 0.33054 0.86740 0.73158
 H2476 H 0.30909 0.87276 0.69325
 H2477 H 0.32915 0.89212 0.65826
 H2478 H 0.37078 0.90609 0.66121
 H2479 H 0.41135 0.88616 0.75945
 H2480 H 0.43088 0.90614 0.72528
 C2481 C 0.36603 0.40643 1.23405
 C2482 C 0.37969 0.39212 1.25090
 C2483 C 0.40442 0.38835 1.24570
 C2484 C 0.41496 0.39706 1.22446
 C2485 C 0.40106 0.40843 1.20644
 C2486 C 0.37582 0.41151 1.21063
 C2487 C 0.34350 0.41712 1.23992
 C2488 C 0.32876 0.42714 1.22194
 C2489 C 0.33653 0.42741 1.19794
 C2490 C 0.35996 0.41989 1.19228
 H2491 H 0.33758 0.41899 1.25850
 H2492 H 0.31125 0.43463 1.22664
 H2493 H 0.32476 0.43436 1.18382
 H2494 H 0.36554 0.42084 1.17348
 H2495 H 0.41612 0.37848 1.25795
 H2496 H 0.43430 0.39473 1.22216
 C2497 C 0.89459 1.08653 0.74846
 C2498 C 0.88703 1.11112 0.74953
 C2499 C 0.89205 1.12489 0.77026
 C2500 C 0.90353 1.11455 0.79021
 C2501 C 0.91078 1.09017 0.78994
 C2502 C 0.90686 1.07605 0.76873
 C2503 C 0.89099 1.07234 0.72742
 C2504 C 0.89917 1.04841 0.72640
 C2505 C 0.91146 1.03831 0.74601
 C2506 C 0.91550 1.05198 0.76691
 H2507 H 0.88217 1.07959 0.71147
 H2508 H 0.89624 1.03774 0.71016
 H2509 H 0.91811 1.01985 0.74495
 H2510 H 0.92578 1.04360 0.78139
 H2511 H 0.88658 1.14377 0.77118
 H2512 H 0.90639 1.12559 0.80623
 C2513 C 0.91376 0.59979 0.24708
 C2514 C 0.88984 0.60932 0.24820
 C2515 C 0.87709 0.60832 0.27015
 C2516 C 0.88780 0.59898 0.29101
 C2517 C 0.91163 0.59025 0.29065
 C2518 C 0.92476 0.59027 0.26854
 C2519 C 0.92668 0.59860 0.22498
 C2520 C 0.95001 0.58888 0.22414
 C2521 C 0.96079 0.57984 0.24512
 C2522 C 0.94830 0.58031 0.26709
 H2523 H 0.91881 0.60459 0.20804
 H2524 H 0.95967 0.58810 0.20706
 H2525 H 0.97881 0.57210 0.24429
 H2526 H 0.95715 0.57248 0.28278
 H2527 H 0.85878 0.61534 0.27131
 H2528 H 0.87747 0.59880 0.30773
 C2529 C 0.37717 1.12984 0.28136
 C2530 C 0.37955 1.11911 0.25811
 C2531 C 0.39315 1.09786 0.25530
 C2532 C 0.40502 1.08748 0.27503
 C2533 C 0.40350 1.09804 0.29807
 C2534 C 0.38920 1.11914 0.30158
 C2535 C 0.36258 1.15058 0.28508
 C2536 C 0.35969 1.16034 0.30827
 C2537 C 0.37125 1.14972 0.32808
 C2538 C 0.38607 1.12946 0.32484
 H2539 H 0.35299 1.15916 0.27023
 H2540 H 0.34829 1.17613 0.31091
 H2541 H 0.36875 1.15725 0.34606
 H2542 H 0.39461 1.12172 0.34076
 H2543 H 0.39489 1.08945 0.23760
 H2544 H 0.41560 1.07112 0.27230
 C2545 C 0.41490 0.60121 0.74829
 C2546 C 0.39036 0.60892 0.74849
 C2547 C 0.37640 0.60551 0.76940
 C2548 C 0.38651 0.59562 0.79031
 C2549 C 0.41089 0.58855 0.79094
 C2550 C 0.42522 0.59081 0.76967
 C2551 C 0.42921 0.60280 0.72710
 C2552 C 0.45314 0.59467 0.72704
 C2553 C 0.46316 0.58446 0.74785
 C2554 C 0.44936 0.58231 0.76893
 H2555 H 0.42200 0.60987 0.71027
 H2556 H 0.46387 0.59603 0.71065
 H2557 H 0.48165 0.57790 0.74759
 H2558 H 0.45770 0.57359 0.78441
 H2559 H 0.35760 0.61118 0.76977
 H2560 H 0.37528 0.59387 0.80634
 C2561 C 1.13314 0.87931 0.78146
 C2562 C 1.12051 0.87751 0.75907
 C2563 C 1.09633 0.88512 0.75770
 C2564 C 1.08485 0.89543 0.77766
 C2565 C 1.09715 0.89834 0.79967
 C2566 C 1.12132 0.88979 0.80196
 C2567 C 1.15692 0.87019 0.78423
 C2568 C 1.16891 0.87179 0.80647
 C2569 C 1.15741 0.88210 0.82643
 C2570 C 1.13379 0.89083 0.82436
 H2571 H 1.16634 0.86134 0.76949
 H2572 H 1.18714 0.86474 0.80830
 H2573 H 1.16675 0.88310 0.84369
 H2574 H 1.12534 0.89801 0.84056
 H2575 H 1.08638 0.88358 0.74081
 H2576 H 1.06632 0.90167 0.77579
 C2577 C 1.13301 0.37799 0.28106
 C2578 C 1.12070 0.37633 0.25848
 C2579 C 1.09694 0.38510 0.25655
 C2580 C 1.08557 0.39621 0.27616
 C2581 C 1.09756 0.39886 0.29837
 C2582 C 1.12132 0.38937 0.30118
 C2583 C 1.15628 0.36784 0.28442
 C2584 C 1.16797 0.36933 0.30682
 C2585 C 1.15663 0.38054 0.32639
 C2586 C 1.13347 0.39029 0.32376
 H2587 H 1.16552 0.35824 0.27003
 H2588 H 1.18582 0.36148 0.30909
 H2589 H 1.16571 0.38141 0.34381
 H2590 H 1.12511 0.39817 0.33967
 H2591 H 1.08722 0.38379 0.23950
 H2592 H 1.06735 0.40319 0.27387
 C2593 C 0.60652 0.90830 0.25075
 C2594 C 0.61521 0.88409 0.25246
 C2595 C 0.61134 0.87087 0.27380
 C2596 C 0.60000 0.88146 0.29372
 C2597 C 0.59196 0.90556 0.29287
 C2598 C 0.59476 0.91911 0.27113
 C2599 C 0.60847 0.92176 0.22901
 C2600 C 0.59952 0.94539 0.22753
 C2601 C 0.58810 0.95593 0.24742
 C2602 C 0.58550 0.94292 0.26897
 H2603 H 0.61648 0.91413 0.21282
 H2604 H 0.60120 0.95548 0.21075
 H2605 H 0.58094 0.97418 0.24606
 H2606 H 0.57585 0.95160 0.28369
 H2607 H 0.61767 0.85230 0.27527
 H2608 H 0.59791 0.87087 0.31017
 C2609 C 0.58283 0.39954 0.74586
 C2610 C 0.60758 0.39259 0.74530
 C2611 C 0.62188 0.39565 0.76604
 C2612 C 0.61194 0.40450 0.78746
 C2613 C 0.58741 0.41088 0.78883
 C2614 C 0.57268 0.40891 0.76778
 C2615 C 0.56813 0.39818 0.72492
 C2616 C 0.54399 0.40562 0.72559
 C2617 C 0.53413 0.41488 0.74692
 C2618 C 0.54830 0.41673 0.76779
 H2619 H 0.57518 0.39182 0.70775
 H2620 H 0.53296 0.40450 0.70937
 H2621 H 0.51546 0.42091 0.74722
 H2622 H 0.54005 0.42469 0.78372
 H2623 H 0.64083 0.39050 0.76587
 H2624 H 0.62348 0.40603 0.80331
 C2625 C 1.22137 1.11347 1.13283
 C2626 C 1.24321 1.11537 1.11943
 C2627 C 1.24405 1.10712 1.09542
 C2628 C 1.22398 1.09624 1.08478
 C2629 C 1.20234 1.09355 1.09773
 C2630 C 1.20066 1.10270 1.12179
 C2631 C 1.21936 1.12285 1.15662
 C2632 C 1.19754 1.12156 1.16927
 C2633 C 1.17725 1.11133 1.15840
 C2634 C 1.17865 1.10214 1.13486
 H2635 H 1.23440 1.13162 1.16555
 H2636 H 1.19627 1.12885 1.18748
 H2637 H 1.16027 1.11075 1.16817
 H2638 H 1.16221 1.09502 1.12696
 H2639 H 1.26057 1.10875 1.08494
 H2640 H 1.22539 1.08964 1.06630
 C2641 C 1.22100 0.61511 0.63592
 C2642 C 1.24243 0.61919 0.62232
 C2643 C 1.24318 0.61254 0.59781
 C2644 C 1.22357 0.60119 0.58682
 C2645 C 1.20238 0.59632 0.59988
 C2646 C 1.20072 0.60376 0.62457
 C2647 C 1.21895 0.62283 0.66030
 C2648 C 1.19768 0.61903 0.67337
 C2649 C 1.17793 0.60799 0.66233
 C2650 C 1.17916 0.60084 0.63809
 H2651 H 1.23354 0.63213 0.66944
 H2652 H 1.19641 0.62494 0.69207
 H2653 H 1.16146 0.60518 0.67256
 H2654 H 1.16296 0.59332 0.63012
 H2655 H 1.25936 0.61569 0.58715
 H2656 H 1.22507 0.59584 0.56794
 C2657 C 0.75219 1.10132 0.58809
 C2658 C 0.75099 1.11020 0.61226
 C2659 C 0.72956 1.10756 0.62553
 C2660 C 0.70910 1.09735 0.61498
 C2661 C 0.70945 1.08929 0.59086
 C2662 C 0.73121 1.09080 0.57729
 C2663 C 0.77398 1.10186 0.57467
 C2664 C 0.77496 1.09269 0.55109
 C2665 C 0.75446 1.08253 0.54055
 C2666 C 0.73281 1.08143 0.55347
 H2667 H 0.79056 1.10884 0.58235
 H2668 H 0.79180 1.09318 0.54106
 H2669 H 0.75544 1.07514 0.52238
 H2670 H 0.71754 1.07281 0.54476
 H2671 H 0.72845 1.11407 0.64407
 H2672 H 0.69264 1.09612 0.62559
 C2673 C 0.71524 0.63416 1.12396
 C2674 C 0.73756 0.62193 1.12765
 C2675 C 0.74015 0.59789 1.11984
 C2676 C 0.72147 0.58618 1.10761
 C2677 C 0.69957 0.59811 1.10282
 C2678 C 0.69607 0.62217 1.11142
 C2679 C 0.71126 0.65773 1.13318
 C2680 C 0.68898 0.66929 1.13007
 C2681 C 0.67032 0.65767 1.11775
 C2682 C 0.67368 0.63434 1.10858
 H2683 H 0.72513 0.66724 1.14325
 H2684 H 0.68609 0.68728 1.13743
 H2685 H 0.65304 0.66667 1.11553
 H2686 H 0.65836 0.62575 1.09994
 H2687 H 0.75706 0.58829 1.12264
 H2688 H 0.72430 0.56774 1.10138
 C2689 C 1.21824 0.86442 0.88081
 C2690 C 1.24039 0.87724 0.87910
 C2691 C 1.24199 0.90081 0.88838
 C2692 C 1.22238 0.91152 0.90007
 C2693 C 1.20048 0.89905 0.90264
 C2694 C 1.19802 0.87550 0.89252
 C2695 C 1.21547 0.84117 0.87042
 C2696 C 1.19332 0.82913 0.87155
 C2697 C 1.17352 0.84001 0.88280
 C2698 C 1.17572 0.86299 0.89312
 H2699 H 1.23020 0.83227 0.86103
 H2700 H 1.19143 0.81135 0.86343
 H2701 H 1.15630 0.83068 0.88336
 H2702 H 1.15970 0.87096 0.90113
 H2703 H 1.25879 0.91084 0.88702
 H2704 H 1.22437 0.92964 0.90742
 C2705 C 1.24796 0.40944 0.39056
 C2706 C 1.24802 0.38378 0.38701
 C2707 C 1.22904 0.37006 0.39684
 C2708 C 1.20910 0.38120 0.40747
 C2709 C 1.20777 0.40648 0.40988
 C2710 C 1.22783 0.42075 0.40241
 C2711 C 1.26827 0.42391 0.38467
 C2712 C 1.26836 0.44878 0.38921
 C2713 C 1.24873 0.45971 0.40057
 C2714 C 1.22886 0.44587 0.40753
 H2715 H 1.28476 0.41623 0.37750
 H2716 H 1.28406 0.45951 0.38449
 H2717 H 1.24916 0.47893 0.40459
 H2718 H 1.21474 0.45500 0.41759
 H2719 H 1.22872 0.35050 0.39480
 H2720 H 1.19417 0.36987 0.41324
 C2721 C 0.71855 0.87780 0.36831
 C2722 C 0.74125 0.87704 0.38037
 C2723 C 0.74339 0.88683 0.40374
 C2724 C 0.72381 0.89815 0.41490
 C2725 C 0.70146 0.89994 0.40308
 C2726 C 0.69846 0.88933 0.37979
 C2727 C 0.71512 0.86662 0.34549
 C2728 C 0.69254 0.86707 0.33413
 C2729 C 0.67295 0.87839 0.34530
 C2730 C 0.67575 0.88932 0.36795
 H2731 H 0.72963 0.85708 0.33639
 H2732 H 0.69018 0.85838 0.31667
 H2733 H 0.65542 0.87846 0.33649
 H2734 H 0.65987 0.89734 0.37621
 H2735 H 0.76056 0.88616 0.41325
 H2736 H 0.72621 0.90592 0.43281
 C2737 C 0.74748 0.40386 0.89122
 C2738 C 0.74539 0.37919 0.88416
 C2739 C 0.72428 0.36639 0.88970
 C2740 C 0.70489 0.37780 0.90112
 C2741 C 0.70610 0.40233 0.90772
 C2742 C 0.72774 0.41547 0.90329
 C2743 C 0.76902 0.41705 0.88729
 C2744 C 0.77103 0.44109 0.89489
 C2745 C 0.75188 0.45233 0.90686
 C2746 C 0.73050 0.43967 0.91125
 H2747 H 0.78463 0.40890 0.87870
 H2748 H 0.78766 0.45095 0.89175
 H2749 H 0.75369 0.47089 0.91302
 H2750 H 0.71641 0.44893 0.92126
 H2751 H 0.72258 0.34747 0.88463
 H2752 H 0.68856 0.36747 0.90444
 C2753 C 0.74578 0.90175 1.08676
 C2754 C 0.74616 0.89357 1.11120
 C2755 C 0.76697 0.89712 1.12526
 C2756 C 0.78763 0.90747 1.11529
 C2757 C 0.78815 0.91484 1.09097
 C2758 C 0.76692 0.91260 1.07660
 C2759 C 0.72466 0.90012 1.07240
 C2760 C 0.72442 0.90873 1.04858
 C2761 C 0.74500 0.91939 1.03872
 C2762 C 0.76603 0.92150 1.05257
 H2763 H 0.70804 0.89263 1.07950
 H2764 H 0.70807 0.90739 1.03781
 H2765 H 0.74458 0.92631 1.02033
 H2766 H 0.78136 0.93052 1.04439
 H2767 H 0.76752 0.89112 1.14400
 H2768 H 0.80363 0.90918 1.12651
 C2769 C 0.78227 0.36923 0.62305
 C2770 C 0.75989 0.38187 0.62459
 C2771 C 0.75826 0.40565 0.61575
 C2772 C 0.77794 0.41664 0.60450
 C2773 C 0.79991 0.40425 0.60183
 C2774 C 0.80247 0.38055 0.61162
 C2775 C 0.78531 0.34594 0.63333
 C2776 C 0.80755 0.33396 0.63206
 C2777 C 0.82724 0.34500 0.62090
 C2778 C 0.82487 0.36812 0.61090
 H2779 H 0.77078 0.33694 0.64285
 H2780 H 0.80960 0.31612 0.64005
 H2781 H 0.84453 0.33573 0.62024
 H2782 H 0.84083 0.37623 0.60299
 H2783 H 0.74136 0.41561 0.61699
 H2784 H 0.77587 0.43486 0.59739
 C2785 C 0.28428 0.86800 0.62252
 C2786 C 0.26163 0.87992 0.62470
 C2787 C 0.25887 0.90355 0.61582
 C2788 C 0.27779 0.91511 0.60386
 C2789 C 0.30011 0.90344 0.60064
 C2790 C 0.30379 0.87995 0.61059
 C2791 C 0.28818 0.84474 0.63256
 C2792 C 0.31081 0.83357 0.63101
 C2793 C 0.32996 0.84535 0.61964
 C2794 C 0.32661 0.86833 0.60957
 H2795 H 0.27394 0.83517 0.64201
 H2796 H 0.31357 0.81579 0.63889
 H2797 H 0.34756 0.83673 0.61879
 H2798 H 0.34216 0.87701 0.60144
 H2799 H 0.24167 0.91290 0.61757
 H2800 H 0.27488 0.93317 0.59665
 C2801 C 0.28317 0.37800 1.13467
 C2802 C 0.26040 0.37721 1.12276
 C2803 C 0.25783 0.38782 1.09980
 C2804 C 0.27709 0.39977 1.08883
 C2805 C 0.29958 0.40139 1.10040
 C2806 C 0.30298 0.39011 1.12333
 C2807 C 0.28700 0.36619 1.15711
 C2808 C 0.30976 0.36628 1.16809
 C2809 C 0.32911 0.37790 1.15693
 C2810 C 0.32585 0.38981 1.13483
 H2811 H 0.27267 0.35638 1.16613
 H2812 H 0.31247 0.35703 1.18522
 H2813 H 0.34682 0.37745 1.16532
 H2814 H 0.34150 0.39826 1.12664
 H2815 H 0.24061 0.38716 1.09038
 H2816 H 0.27438 0.40799 1.07115
 C2817 C 0.78050 1.13454 0.88241
 C2818 C 0.75919 1.12073 0.87868
 C2819 C 0.75892 1.09617 0.88511
 C2820 C 0.77896 1.08536 0.89603
 C2821 C 0.80007 1.09866 0.90054
 C2822 C 0.80124 1.12334 0.89311
 C2823 C 0.78192 1.15903 0.87500
 C2824 C 0.80321 1.17220 0.87807
 C2825 C 0.82357 1.16121 0.88815
 C2826 C 0.82275 1.13699 0.89542
 H2827 H 0.76678 1.16813 0.86645
 H2828 H 0.80403 1.19095 0.87228
 H2829 H 0.84016 1.17143 0.89014
 H2830 H 0.83926 1.12908 0.90243
 H2831 H 0.74278 1.08540 0.88222
 H2832 H 0.77783 1.06648 0.90139
 C2833 C 0.78184 0.61916 0.36725
 C2834 C 0.75920 0.61988 0.37939
 C2835 C 0.75729 0.61048 0.40294
 C2836 C 0.77710 0.59969 0.41428
 C2837 C 0.79950 0.59816 0.40250
 C2838 C 0.80220 0.60831 0.37896
 C2839 C 0.78495 0.62975 0.34410
 C2840 C 0.80749 0.62951 0.33270
 C2841 C 0.82738 0.61902 0.34417
 C2842 C 0.82489 0.60861 0.36710
 H2843 H 0.77021 0.63867 0.33475
 H2844 H 0.80960 0.63775 0.31499
 H2845 H 0.84489 0.61918 0.33535
 H2846 H 0.84097 0.60119 0.37554
 H2847 H 0.74016 0.61117 0.41250
 H2848 H 0.77489 0.59219 0.43234
 C2849 C 0.28068 1.11707 0.36433
 C2850 C 0.25900 1.12090 0.37768
 C2851 C 0.25805 1.11410 0.40218
 C2852 C 0.27769 1.10294 0.41338
 C2853 C 0.29899 1.09816 0.40050
 C2854 C 0.30081 1.10548 0.37581
 C2855 C 0.28322 1.12526 0.34014
 C2856 C 0.30453 1.12112 0.32721
 C2857 C 0.32394 1.10942 0.33825
 C2858 C 0.32242 1.10217 0.36243
 H2859 H 0.26906 1.13527 0.33103
 H2860 H 0.30609 1.12728 0.30861
 H2861 H 0.34039 1.10622 0.32810
 H2862 H 0.33843 1.09422 0.37046
 H2863 H 0.24173 1.11704 0.41269
 H2864 H 0.27611 1.09763 0.43227
 C2865 C 0.26988 0.59934 0.86428
 C2866 C 0.25291 0.61312 0.87810
 C2867 C 0.25754 0.61637 0.90300
 C2868 C 0.27828 0.60690 0.91391
 C2869 C 0.29631 0.59539 0.90014
 C2870 C 0.29278 0.59322 0.87462
 C2871 C 0.26469 0.59072 0.84070
 C2872 C 0.28287 0.58083 0.82616
 C2873 C 0.30642 0.57903 0.83494
 C2874 C 0.31140 0.58507 0.85899
 H2875 H 0.24647 0.59056 0.83364
 H2876 H 0.27871 0.57475 0.80794
 H2877 H 0.32071 0.57218 0.82334
 H2878 H 0.32989 0.58322 0.86520
 H2879 H 0.24505 0.62628 0.91441
 H2880 H 0.28018 0.60869 0.93340
 C2881 C 1.08498 1.25384 1.09922
 C2882 C 1.10967 1.25404 1.10637
 C2883 C 1.12390 1.23330 1.10286
 C2884 C 1.11391 1.21217 1.09347
 C2885 C 1.08941 1.21113 1.08698
 C2886 C 1.07480 1.23225 1.08927
 C2887 C 1.07038 1.27483 1.10100
 C2888 C 1.04630 1.27452 1.09339
 C2889 C 1.03642 1.25352 1.08353
 C2890 C 1.05050 1.23261 1.08127
 H2891 H 1.07747 1.29176 1.10785
 H2892 H 1.03534 1.29077 1.09485
 H2893 H 1.01781 1.25351 1.07735
 H2894 H 1.04225 1.21696 1.07285
 H2895 H 1.14280 1.23321 1.10815
 H2896 H 1.12535 1.19626 1.09175
 C2897 C 1.09099 0.75332 0.60087
 C2898 C 1.11518 0.75209 0.60950
 C2899 C 1.12849 0.73066 0.60662
 C2900 C 1.11797 0.71020 0.59638
 C2901 C 1.09388 0.71058 0.58845
 C2902 C 1.08027 0.73239 0.59017
 C2903 C 1.07745 0.77507 0.60193
 C2904 C 1.05383 0.77607 0.59303
 C2905 C 1.04338 0.75565 0.58256
 C2906 C 1.05646 0.73405 0.58091
 H2907 H 1.08503 0.79160 0.60920
 H2908 H 1.04367 0.79287 0.59399
 H2909 H 1.02513 0.75663 0.57543
 H2910 H 1.04785 0.71887 0.57200
 H2911 H 1.14701 0.72952 0.61303
 H2912 H 1.12860 0.69369 0.59512
 C2913 C 0.63324 1.22153 0.61859
 C2914 C 0.62109 1.24425 0.61897
 C2915 C 0.59794 1.24626 0.60878
 C2916 C 0.58701 1.22651 0.59756
 C2917 C 0.59885 1.20409 0.59629
 C2918 C 0.62198 1.20125 0.60719
 C2919 C 0.65590 1.21822 0.63006
 C2920 C 0.66731 1.19562 0.63002
 C2921 C 0.65633 1.17584 0.61888
 C2922 C 0.63383 1.17849 0.60769
 H2923 H 0.66482 1.23284 0.63955
 H2924 H 0.68465 1.19337 0.63893
 H2925 H 0.66517 1.15829 0.61915
 H2926 H 0.62573 1.16248 0.59981
 H2927 H 0.58836 1.26344 0.60914
 H2928 H 0.56923 1.22881 0.58955
 C2929 C 0.62229 0.71714 1.13505
 C2930 C 0.62624 0.73896 1.12193
 C2931 C 0.61890 0.74046 1.09763
 C2932 C 0.60684 0.72135 1.08653
 C2933 C 0.60171 0.70003 1.09930
 C2934 C 0.60983 0.69752 1.12367
 C2935 C 0.63118 0.71400 1.15891
 C2936 C 0.62742 0.69236 1.17146
 C2937 C 0.61510 0.67334 1.16046
 C2938 C 0.60658 0.67569 1.13675
 H2939 H 0.64152 0.72797 1.16794
 H2940 H 0.63431 0.69025 1.18975
 H2941 H 0.61236 0.65656 1.17027
 H2942 H 0.59790 0.66008 1.12871
 H2943 H 0.62193 0.75690 1.08729
 H2944 H 0.60103 0.72339 1.06784
 C2945 C 0.90102 1.25465 0.91663
 C2946 C 0.89429 1.25564 0.89185
 C2947 C 0.89881 1.23573 0.87679
 C2948 C 0.90893 1.21453 0.88612
 C2949 C 0.91513 1.21268 0.91076
 C2950 C 0.91194 1.23317 0.92611
 C2951 C 0.89742 1.27472 0.93214
 C2952 C 0.90478 1.27382 0.95635
 C2953 C 0.91602 1.25310 0.96547
 C2954 C 0.91972 1.23299 0.95055
 H2955 H 0.88915 1.29132 0.92563
 H2956 H 0.90199 1.28937 0.96803
 H2957 H 0.92200 1.25265 0.98418
 H2958 H 0.92904 1.21753 0.95826
 H2959 H 0.89370 1.23632 0.85779
 H2960 H 0.91128 1.19914 0.87410
 C2961 C 0.88618 0.72476 0.37238
 C2962 C 0.88685 0.74717 0.38505
 C2963 C 0.89706 0.74821 0.40828
 C2964 C 0.90746 0.72770 0.41875
 C2965 C 0.90778 0.70555 0.40634
 C2966 C 0.89668 0.70373 0.38318
 C2967 C 0.87459 0.72256 0.34960
 C2968 C 0.87359 0.70026 0.33769
 C2969 C 0.88380 0.67972 0.34826
 C2970 C 0.89513 0.68131 0.37083
 H2971 H 0.86584 0.73785 0.34096
 H2972 H 0.86461 0.69887 0.32026
 H2973 H 0.88272 0.66240 0.33904
 H2974 H 0.90229 0.66475 0.37859
 H2975 H 0.89733 0.76516 0.41824
 H2976 H 0.91558 0.72917 0.43660
 C2977 C 0.39605 1.23391 0.36879
 C2978 C 0.38917 1.25292 0.38469
 C2979 C 0.39239 1.25014 0.40970
 C2980 C 0.40268 1.22911 0.41920
 C2981 C 0.40957 1.20981 0.40406
 C2982 C 0.40584 1.21195 0.37852
 C2983 C 0.39266 1.23594 0.34343
 C2984 C 0.39895 1.21696 0.32796
 C2985 C 0.40804 1.19541 0.33740
 C2986 C 0.41084 1.19259 0.36240
 H2987 H 0.38507 1.25211 0.33531
 H2988 H 0.39642 1.21885 0.30855
 H2989 H 0.41258 1.18062 0.32530
 H2990 H 0.41659 1.17498 0.36877
 H2991 H 0.38698 1.26450 0.42202
 H2992 H 0.40532 1.22791 0.43866
 C2993 C 0.39949 0.75285 0.91044
 C2994 C 0.38973 0.75103 0.88669
 C2995 C 0.39205 0.72928 0.87380
 C2996 C 0.40286 0.70907 0.88441
 C2997 C 0.41193 0.71007 0.90814
 C2998 C 0.41085 0.73222 0.92120
 C2999 C 0.39890 0.77491 0.92346
 C3000 C 0.40935 0.77663 0.94645
 C3001 C 0.42067 0.75656 0.95683
 C3002 C 0.42145 0.73453 0.94442
 H3003 H 0.39081 0.79111 0.91586
 H3004 H 0.40893 0.79371 0.95615
 H3005 H 0.42914 0.75815 0.97447
 H3006 H 0.43082 0.71952 0.95296
 H3007 H 0.38487 0.72776 0.85554
 H3008 H 0.40373 0.69231 0.87416
 C3009 C 1.09735 0.74213 0.91570
 C3010 C 1.10824 0.74346 0.89235
 C3011 C 1.10917 0.76590 0.88037
 C3012 C 1.09979 0.78677 0.89098
 C3013 C 1.08919 0.78604 0.91401
 C3014 C 1.08791 0.76367 0.92666
 C3015 C 1.09474 0.71984 0.92806
 C3016 C 1.08381 0.71888 0.95087
 C3017 C 1.07493 0.73993 0.96165
 C3018 C 1.07675 0.76211 0.94966
 H3019 H 1.10067 0.70291 0.92018
 H3020 H 1.08201 0.70166 0.96014
 H3021 H 1.06630 0.73901 0.97928
 H3022 H 1.06912 0.77793 0.95846
 H3023 H 1.11744 0.76737 0.86260
 H3024 H 1.10092 0.80376 0.88114
 C3025 C 1.10239 0.24645 0.41451
 C3026 C 1.11021 0.24748 0.38998
 C3027 C 1.10673 0.26878 0.37660
 C3028 C 1.09660 0.28925 0.38728
 C3029 C 1.08939 0.28905 0.41166
 C3030 C 1.09183 0.26743 0.42543
 C3031 C 1.10403 0.22484 0.42820
 C3032 C 1.09586 0.22402 0.45214
 C3033 C 1.08556 0.24448 0.46278
 C3034 C 1.08335 0.26595 0.44957
 H3035 H 1.11117 0.20828 0.42050
 H3036 H 1.09724 0.20731 0.46240
 H3037 H 1.07899 0.24363 0.48127
 H3038 H 1.07461 0.28117 0.45836
 H3039 H 1.11248 0.26979 0.35781
 H3040 H 1.09472 0.30560 0.37649
 C3041 C 0.63159 0.77822 0.38440
 C3042 C 0.61888 0.75596 0.38262
 C3043 C 0.59502 0.75445 0.39099
 C3044 C 0.58386 0.77429 0.40187
 C3045 C 0.59617 0.79628 0.40451
 C3046 C 0.62008 0.79863 0.39534
 C3047 C 0.65517 0.78090 0.37484
 C3048 C 0.66720 0.80307 0.37623
 C3049 C 0.65595 0.82302 0.38686
 C3050 C 0.63257 0.82098 0.39616
 H3051 H 0.66440 0.76607 0.36588
 H3052 H 0.68525 0.80486 0.36880
 H3053 H 0.66532 0.84022 0.38773
 H3054 H 0.62434 0.83716 0.40363
 H3055 H 0.58509 0.73759 0.38947
 H3056 H 0.56554 0.77238 0.40862
 C3057 C 0.58298 0.24356 0.90184
 C3058 C 0.60741 0.24323 0.89384
 C3059 C 0.62161 0.26407 0.89652
 C3060 C 0.61186 0.28533 0.90599
 C3061 C 0.58760 0.28646 0.91330
 C3062 C 0.57301 0.26536 0.91170
 C3063 C 0.56845 0.22252 0.90108
 C3064 C 0.54463 0.22302 0.90944
 C3065 C 0.53492 0.24426 0.91904
 C3066 C 0.54895 0.26521 0.92038
 H3067 H 0.57541 0.20540 0.89452
 H3068 H 0.53374 0.20674 0.90875
 H3069 H 0.51651 0.24444 0.92576
 H3070 H 0.54086 0.28107 0.92863
 H3071 H 0.64033 0.26409 0.89065
 H3072 H 0.62328 0.30124 0.90723
 C3073 C 0.91088 0.74549 1.09923
 C3074 C 0.88678 0.74596 1.10827
 C3075 C 0.87316 0.76734 1.10642
 C3076 C 0.88323 0.78837 1.09687
 C3077 C 0.90724 0.78874 1.08874
 C3078 C 0.92119 0.76710 1.08942
 C3079 C 0.92471 0.72390 1.09891
 C3080 C 0.94825 0.72371 1.08978
 C3081 C 0.95833 0.74481 1.08036
 C3082 C 0.94493 0.76627 1.07993
 H3083 H 0.91740 0.70685 1.10518
 H3084 H 0.95863 0.70702 1.08972
 H3085 H 0.97652 0.74447 1.07306
 H3086 H 0.95325 0.78201 1.07175
 H3087 H 0.85472 0.76798 1.11308
 H3088 H 0.87229 0.80471 1.09631
 C3089 C 0.91231 0.24844 0.60398
 C3090 C 0.88787 0.24944 0.61185
 C3091 C 0.87435 0.27063 0.60834
 C3092 C 0.88487 0.29110 0.59813
 C3093 C 0.90919 0.29095 0.59087
 C3094 C 0.92304 0.26937 0.59327
 C3095 C 0.92611 0.22689 0.60574
 C3096 C 0.94995 0.22608 0.59747
 C3097 C 0.96039 0.24647 0.58696
 C3098 C 0.94708 0.26787 0.58465
 H3099 H 0.91857 0.21038 0.61310
 H3100 H 0.96029 0.20943 0.59896
 H3101 H 0.97881 0.24563 0.58030
 H3102 H 0.95572 0.28302 0.57571
 H3103 H 0.85561 0.27153 0.61411
 H3104 H 0.87404 0.30742 0.59627
 C3105 C 0.41395 0.74743 0.60298
 C3106 C 0.38950 0.74774 0.61091
 C3107 C 0.37554 0.76871 0.60765
 C3108 C 0.38559 0.78957 0.59768
 C3109 C 0.40988 0.79008 0.59039
 C3110 C 0.42418 0.76874 0.59248
 C3111 C 0.42824 0.72619 0.60445
 C3112 C 0.45202 0.72598 0.59597
 C3113 C 0.46191 0.74670 0.58555
 C3114 C 0.44817 0.76786 0.58366
 H3115 H 0.42112 0.70944 0.61170
 H3116 H 0.46273 0.70954 0.59716
 H3117 H 0.48022 0.74629 0.57861
 H3118 H 0.45641 0.78329 0.57482
 H3119 H 0.35679 0.76915 0.61344
 H3120 H 0.37437 0.80564 0.59601
 C3121 C 0.36500 0.27943 1.11784
 C3122 C 0.37768 0.25717 1.12026
 C3123 C 0.40168 0.25540 1.11230
 C3124 C 0.41300 0.27498 1.10120
 C3125 C 0.40072 0.29698 1.09795
 C3126 C 0.37668 0.29960 1.10675
 C3127 C 0.34126 0.28235 1.12695
 C3128 C 0.32927 0.30457 1.12503
 C3129 C 0.34070 0.32430 1.11429
 C3130 C 0.36423 0.32200 1.10540
 H3131 H 0.33189 0.26767 1.13593
 H3132 H 0.31110 0.30656 1.13214
 H3133 H 0.33135 0.34152 1.11299
 H3134 H 0.37259 0.33803 1.09784
 H3135 H 0.41160 0.23853 1.11430
 H3136 H 0.43143 0.27285 1.09479
 C3137 C 1.08401 1.10130 0.74566
 C3138 C 1.10954 1.10486 0.74379
 C3139 C 1.12442 1.09652 0.76276
 C3140 C 1.11461 1.08740 0.78413
 C3141 C 1.08953 1.08514 0.78713
 C3142 C 1.07404 1.09109 0.76736
 C3143 C 1.06832 1.10560 0.72577
 C3144 C 1.04357 1.10109 0.72750
 C3145 C 1.03394 1.09135 0.74864
 C3146 C 1.04898 1.08600 0.76822
 H3147 H 1.07495 1.11146 0.70831
 H3148 H 1.03189 1.10455 0.71208
 H3149 H 1.01478 1.08735 0.74965
 H3150 H 1.04079 1.07715 0.78367
 H3151 H 1.14390 1.09859 0.76187
 H3152 H 1.12684 1.08273 0.79881
 C3153 C 1.14206 0.61123 0.28075
 C3154 C 1.12857 0.62305 0.26208
 C3155 C 1.10328 0.62435 0.26418
 C3156 C 1.09114 0.61219 0.28258
 C3157 C 1.10373 0.59938 0.30061
 C3158 C 1.12956 0.59988 0.30046
 C3159 C 1.16767 0.61221 0.28147
 C3160 C 1.18065 0.60139 0.30028
 C3161 C 1.16853 0.59040 0.31939
 C3162 C 1.14332 0.59035 0.31997
 H3163 H 1.17802 0.62205 0.26811
 H3164 H 1.20023 0.60227 0.30045
 H3165 H 1.17871 0.58274 0.33436
 H3166 H 1.13496 0.58347 0.33627
 H3167 H 1.09249 0.63338 0.25042
 H3168 H 1.07153 0.61234 0.28229
 C3169 C 0.58457 1.10017 0.24626
 C3170 C 0.60986 1.10550 0.24540
 C3171 C 0.62439 1.09895 0.26530
 C3172 C 0.61427 1.08982 0.28649
 C3173 C 0.58930 1.08606 0.28850
 C3174 C 0.57428 1.09046 0.26802
 C3175 C 0.56960 1.10218 0.22548
 C3176 C 0.54506 1.09646 0.22649
 C3177 C 0.53499 1.08770 0.24786
 C3178 C 0.54945 1.08428 0.26830
 H3179 H 0.57671 1.10706 0.20791
 H3180 H 0.53392 1.09827 0.21042
 H3181 H 0.51601 1.08288 0.24840
 H3182 H 0.54104 1.07608 0.28398
 H3183 H 0.64370 1.10235 0.26522
 H3184 H 0.62610 1.08628 0.30180
 C3185 C 0.62326 0.62729 0.78142
 C3186 C 0.62096 0.61705 0.75794
 C3187 C 0.60795 0.59553 0.75479
 C3188 C 0.59658 0.58440 0.77438
 C3189 C 0.59803 0.59447 0.79764
 C3190 C 0.61169 0.61587 0.80148
 C3191 C 0.63730 0.64826 0.78552
 C3192 C 0.63982 0.65778 0.80886
 C3193 C 0.62842 0.64667 0.82845
 C3194 C 0.61452 0.62589 0.82491
 H3195 H 0.64667 0.65728 0.77084
 H3196 H 0.65077 0.67377 0.81179
 H3197 H 0.63053 0.65406 0.84650
 H3198 H 0.60632 0.61762 0.84070
 H3199 H 0.60628 0.58747 0.73692
 H3200 H 0.58636 0.56792 0.77134
 C3201 C 0.86137 0.87658 0.78791
 C3202 C 0.87338 0.87089 0.76594
 C3203 C 0.89814 0.87564 0.76362
 C3204 C 0.91074 0.88748 0.78203
 C3205 C 0.89895 0.89490 0.80333
 C3206 C 0.87423 0.88862 0.80683
 C3207 C 0.83699 0.86996 0.79169
 C3208 C 0.82546 0.87520 0.81359
 C3209 C 0.83795 0.88700 0.83205
 C3210 C 0.86215 0.89339 0.82894
 H3211 H 0.82680 0.86035 0.77794
 H3212 H 0.80679 0.86992 0.81633
 H3213 H 0.82889 0.89112 0.84894
 H3214 H 0.87130 0.90165 0.84418
 H3215 H 0.90762 0.87084 0.74706
 H3216 H 0.92974 0.89150 0.77933
 C3217 C 0.86610 0.38668 0.27668
 C3218 C 0.88077 0.37971 0.25651
 C3219 C 0.90601 0.38214 0.25836
 C3220 C 0.91658 0.39344 0.27824
 C3221 C 0.90254 0.40177 0.29770
 C3222 C 0.87717 0.39739 0.29757
 C3223 C 0.84107 0.38127 0.27758
 C3224 C 0.82720 0.38701 0.29793
 C3225 C 0.83798 0.39744 0.31816
 C3226 C 0.86272 0.40223 0.31823
 H3227 H 0.83203 0.37161 0.26316
 H3228 H 0.80809 0.38272 0.29824
 H3229 H 0.82722 0.40130 0.33415
 H3230 H 0.87038 0.40901 0.33494
 H3231 H 0.91773 0.37672 0.24353
 H3232 H 0.93600 0.39616 0.27816
 C3233 C 0.41454 0.89311 0.24766
 C3234 C 0.38906 0.88864 0.24721
 C3235 C 0.37493 0.89688 0.26676
 C3236 C 0.38546 0.90710 0.28725
 C3237 C 0.41052 0.91045 0.28882
 C3238 C 0.42523 0.90425 0.26856
 C3239 C 0.42937 0.88881 0.22714
 C3240 C 0.45404 0.89403 0.22759
 C3241 C 0.46441 0.90451 0.24802
 C3242 C 0.45016 0.90998 0.26815
 H3243 H 0.42211 0.88241 0.21014
 H3244 H 0.46507 0.89051 0.21172
 H3245 H 0.48347 0.90902 0.24804
 H3246 H 0.45883 0.91935 0.28303
 H3247 H 0.35553 0.89401 0.26704
 H3248 H 0.37386 0.91181 0.30240
 C3249 C 0.39629 0.40794 0.74872
 C3250 C 0.38724 0.38391 0.75071
 C3251 C 0.39016 0.37123 0.77254
 C3252 C 0.40078 0.38225 0.79260
 C3253 C 0.40884 0.40630 0.79153
 C3254 C 0.40710 0.41925 0.76935
 C3255 C 0.39561 0.42072 0.72650
 C3256 C 0.40480 0.44419 0.72477
 C3257 C 0.41517 0.45526 0.74495
 C3258 C 0.41653 0.44292 0.76700
 H3259 H 0.38851 0.41261 0.71012
 H3260 H 0.40413 0.45374 0.70761
 H3261 H 0.42248 0.47340 0.74341
 H3262 H 0.42536 0.45197 0.78199
 H3263 H 0.38351 0.35284 0.77432
 H3264 H 0.40234 0.37208 0.80934
 C3265 C 1.08288 0.89710 1.25445
 C3266 C 1.10725 0.88876 1.25438
 C3267 C 1.12101 0.89082 1.23312
 C3268 C 1.11098 0.90025 1.21196
 C3269 C 1.08687 0.90811 1.21131
 C3270 C 1.07263 0.90688 1.23272
 C3271 C 1.06873 0.89686 1.27581
 C3272 C 1.04498 0.90551 1.27567
 C3273 C 1.03501 0.91499 1.25450
 C3274 C 1.04869 0.91593 1.23326
 H3275 H 1.07588 0.89049 1.29292
 H3276 H 1.03436 0.90514 1.29218
 H3277 H 1.01666 0.92196 1.25460
 H3278 H 1.04041 0.92414 1.21747
 H3279 H 1.13967 0.88471 1.23278
 H3280 H 1.12212 0.90119 1.19579
 C3281 C 1.08373 0.40186 0.75693
 C3282 C 1.10770 0.39244 0.75651
 C3283 C 1.12117 0.39376 0.73500
 C3284 C 1.11116 0.40337 0.71392
 C3285 C 1.08734 0.41206 0.71358
 C3286 C 1.07344 0.41164 0.73523
 C3287 C 1.07004 0.40265 0.77857
 C3288 C 1.04662 0.41217 0.77871
 C3289 C 1.03652 0.42146 0.75749
 C3290 C 1.04979 0.42143 0.73597
 H3291 H 1.07735 0.39647 0.79569
 H3292 H 1.03635 0.41260 0.79544
 H3293 H 1.01841 0.42903 0.75778
 H3294 H 1.04148 0.42947 0.72010
 H3295 H 1.13953 0.38681 0.73434
 H3296 H 1.12203 0.40368 0.69754
 C3297 C 0.61511 0.86869 0.72358
 C3298 C 0.61652 0.88153 0.74587
 C3299 C 0.60795 0.90541 0.74717
 C3300 C 0.59723 0.91644 0.72713
 C3301 C 0.59492 0.90398 0.70512
 C3302 C 0.60427 0.88005 0.70299
 C3303 C 0.62501 0.84517 0.72099
 C3304 C 0.62393 0.83301 0.69881
 C3305 C 0.61336 0.84409 0.67873
 C3306 C 0.60378 0.86743 0.68065
 H3307 H 0.63404 0.83608 0.73585
 H3308 H 0.63161 0.81500 0.69713
 H3309 H 0.61282 0.83465 0.66149
 H3310 H 0.59636 0.87554 0.66437
 H3311 H 0.60924 0.91549 0.76402
 H3312 H 0.59039 0.93481 0.72888
 C3313 C 0.58206 0.39758 1.25570
 C3314 C 0.60736 0.39214 1.25652
 C3315 C 0.62166 0.39788 1.23622
 C3316 C 0.61140 0.40674 1.21496
 C3317 C 0.58650 0.41110 1.21319
 C3318 C 0.57165 0.40719 1.23388
 C3319 C 0.56721 0.39590 1.27658
 C3320 C 0.54273 0.40202 1.27569
 C3321 C 0.53260 0.41084 1.25435
 C3322 C 0.54691 0.41383 1.23377
 H3323 H 0.57435 0.39095 1.29412
 H3324 H 0.53169 0.40050 1.29185
 H3325 H 0.51369 0.41604 1.25393
 H3326 H 0.53846 0.42205 1.21809
 H3327 H 0.64094 0.39422 1.23615
 H3328 H 0.62311 0.40979 1.19948
 C3329 C 0.88046 1.13650 1.21934
 C3330 C 0.87780 1.12388 1.24165
 C3331 C 0.88655 1.10010 1.24372
 C3332 C 0.89847 1.08894 1.22450
 C3333 C 0.90197 1.10115 1.20252
 C3334 C 0.89263 1.12501 1.19957
 C3335 C 0.87055 1.15991 1.21589
 C3336 C 0.87303 1.17191 1.19374
 C3337 C 0.88500 1.16076 1.17452
 C3338 C 0.89446 1.13745 1.17720
 H3339 H 0.86047 1.16901 1.23003
 H3340 H 0.86539 1.18987 1.19138
 H3341 H 0.88677 1.17014 1.15736
 H3342 H 0.90290 1.12926 1.16150
 H3343 H 0.88456 1.09018 1.26058
 H3344 H 0.90529 1.07064 1.22689
 C3345 C 0.87950 0.63374 0.71999
 C3346 C 0.88046 0.62226 0.74304
 C3347 C 0.89286 0.60021 0.74558
 C3348 C 0.90491 0.58981 0.72599
 C3349 C 0.90477 0.60105 0.70321
 C3350 C 0.89166 0.62295 0.69986
 C3351 C 0.86591 0.65517 0.71623
 C3352 C 0.86433 0.66566 0.69324
 C3353 C 0.87593 0.65493 0.67356
 C3354 C 0.88961 0.63389 0.67675
 H3355 H 0.85594 0.66374 0.73078
 H3356 H 0.85378 0.68204 0.69062
 H3357 H 0.87424 0.66293 0.65569
 H3358 H 0.89818 0.62611 0.66089
 H3359 H 0.89353 0.59113 0.76303
 H3360 H 0.91450 0.57283 0.72861
 C3361 C 0.39728 1.09009 0.75097
 C3362 C 0.38868 1.11438 0.74978
 C3363 C 0.39245 1.12793 0.72861
 C3364 C 0.40337 1.11754 0.70837
 C3365 C 0.41091 1.09327 0.70858
 C3366 C 0.40841 1.07943 0.73015
 C3367 C 0.39586 1.07638 0.77260
 C3368 C 0.40456 1.05262 0.77351
 C3369 C 0.41522 1.04220 0.75314
 C3370 C 0.41737 1.05546 0.73171
 H3371 H 0.38857 1.08393 0.78916
 H3372 H 0.40329 1.04235 0.79022
 H3373 H 0.42218 1.02384 0.75405
 H3374 H 0.42648 1.04688 0.71659
 H3375 H 0.38623 1.14656 0.72746
 H3376 H 0.40548 1.12838 0.69212
 C3377 C 0.39529 0.58730 1.25093
 C3378 C 0.38851 0.61213 1.25113
 C3379 C 0.39357 0.62667 1.23094
 C3380 C 0.40417 0.61682 1.21024
 C3381 C 0.41039 0.59218 1.20917
 C3382 C 0.40660 0.57730 1.22989
 C3383 C 0.39177 0.57235 1.27145
 C3384 C 0.39915 0.54814 1.27125
 C3385 C 0.41048 0.53846 1.25086
 C3386 C 0.41438 0.55286 1.23042
 H3387 H 0.38367 0.57924 1.28793
 H3388 H 0.39636 0.53691 1.28713
 H3389 H 0.41650 0.51975 1.25096
 H3390 H 0.42388 0.54475 1.21530
 H3391 H 0.38863 0.64571 1.23095
 H3392 H 0.40701 0.62847 1.19465
 C3393 C 1.08489 1.25365 0.89999
 C3394 C 1.11004 1.25454 0.89397
 C3395 C 1.12463 1.23436 0.89953
 C3396 C 1.11469 1.21303 0.90840
 C3397 C 1.08984 1.21106 0.91284
 C3398 C 1.07477 1.23169 0.90938
 C3399 C 1.06995 1.27454 0.89898
 C3400 C 1.04558 1.27349 0.90543
 C3401 C 1.03566 1.25195 0.91387
 C3402 C 1.05011 1.23134 0.91624
 H3403 H 1.07699 1.29218 0.89438
 H3404 H 1.03446 1.28966 0.90443
 H3405 H 1.01682 1.25137 0.91926
 H3406 H 1.04187 1.21545 0.92418
 H3407 H 1.14384 1.23437 0.89558
 H3408 H 1.12654 1.19759 0.91123
 C3409 C 1.13645 0.72216 0.38400
 C3410 C 1.12195 0.74288 0.37817
 C3411 C 1.09693 0.74183 0.38265
 C3412 C 1.08663 0.72222 0.39458
 C3413 C 1.10067 0.70244 0.40212
 C3414 C 1.12578 0.70198 0.39636
 C3415 C 1.16078 0.72002 0.37616
 C3416 C 1.17491 0.70006 0.38255
 C3417 C 1.16485 0.68109 0.39564
 C3418 C 1.14037 0.68150 0.40161
 H3419 H 1.16900 0.73314 0.36422
 H3420 H 1.19361 0.69900 0.37676
 H3421 H 1.17586 0.66550 0.40032
 H3422 H 1.13313 0.66532 0.40988
 H3423 H 1.08517 0.75696 0.37829
 H3424 H 1.06740 0.72279 0.39850
 C3425 C 0.63536 1.22326 0.38130
 C3426 C 0.62126 1.24473 0.37760
 C3427 C 0.59660 1.24434 0.38390
 C3428 C 0.58646 1.22450 0.39562
 C3429 C 0.60029 1.20390 0.40100
 C3430 C 0.62478 1.20280 0.39321
 C3431 C 0.65897 1.22073 0.37161
 C3432 C 0.67232 1.19950 0.37495
 C3433 C 0.66224 1.17994 0.38717
 C3434 C 0.63861 1.18133 0.39586
 H3435 H 0.66708 1.23454 0.36039
 H3436 H 0.69039 1.19800 0.36747
 H3437 H 0.67255 1.16334 0.38933
 H3438 H 0.63120 1.16515 0.40402
 H3439 H 0.58518 1.26010 0.38112
 H3440 H 0.56760 1.22543 0.40098
 C3441 C 0.63757 0.71575 0.88087
 C3442 C 0.62485 0.73792 0.87748
 C3443 C 0.60070 0.73974 0.88501
 C3444 C 0.58931 0.72050 0.89663
 C3445 C 0.60163 0.69871 0.90098
 C3446 C 0.62584 0.69594 0.89266
 C3447 C 0.66136 0.71248 0.87203
 C3448 C 0.67346 0.69045 0.87506
 C3449 C 0.66205 0.67114 0.88656
 C3450 C 0.63842 0.67369 0.89509
 H3451 H 0.67071 0.72667 0.86231
 H3452 H 0.69169 0.68824 0.86818
 H3453 H 0.67143 0.65398 0.88856
 H3454 H 0.63005 0.65791 0.90312
 H3455 H 0.59068 0.75646 0.88236
 H3456 H 0.57076 0.72277 0.90263
 C3457 C 0.87039 1.22239 1.11987
 C3458 C 0.88264 1.24502 1.11987
 C3459 C 0.90571 1.24665 1.10944
 C3460 C 0.91632 1.22669 1.09817
 C3461 C 0.90419 1.20447 1.09695
 C3462 C 0.88121 1.20199 1.10815
 C3463 C 0.84810 1.21929 1.13203
 C3464 C 0.83648 1.19685 1.13214
 C3465 C 0.84687 1.17705 1.12042
 C3466 C 0.86907 1.17945 1.10864
 H3467 H 0.83967 1.23390 1.14202
 H3468 H 0.81943 1.19475 1.14159
 H3469 H 0.83788 1.15963 1.12080
 H3470 H 0.87678 1.16339 1.10040
 H3471 H 0.91542 1.26370 1.10957
 H3472 H 0.93406 1.22868 1.09002
 C3473 C 0.89994 0.73141 0.63660
 C3474 C 0.88664 0.74886 0.62282
 C3475 C 0.88404 0.74502 0.59774
 C3476 C 0.89378 0.72464 0.58643
 C3477 C 0.90523 0.70632 0.59986
 C3478 C 0.90698 0.70905 0.62554
 C3479 C 0.90715 0.73566 0.66086
 C3480 C 0.91701 0.71712 0.67500
 C3481 C 0.92051 0.69421 0.66510
 C3482 C 0.91558 0.69013 0.64063
 H3483 H 0.90623 0.75345 0.66893
 H3484 H 0.92183 0.72052 0.69375
 H3485 H 0.92753 0.67964 0.67629
 H3486 H 0.91840 0.67196 0.63378
 H3487 H 0.87436 0.75789 0.58650
 H3488 H 0.89235 0.72329 0.56686
 C3489 C 0.38023 1.21961 0.63435
 C3490 C 0.37722 1.24207 0.62176
 C3491 C 0.38487 1.24359 0.59746
 C3492 C 0.39706 1.22452 0.58632
 C3493 C 0.40151 1.20284 0.59871
 C3494 C 0.39240 1.19988 0.62264
 C3495 C 0.36946 1.21539 0.65729
 C3496 C 0.37148 1.19293 0.66875
 C3497 C 0.38367 1.17396 0.65749
 C3498 C 0.39390 1.17724 0.63463
 H3499 H 0.35836 1.22883 0.66620
 H3500 H 0.36299 1.19004 0.68623
 H3501 H 0.38463 1.15641 0.66622
 H3502 H 0.40226 1.16161 0.62621
 H3503 H 0.38259 1.26021 0.58719
 H3504 H 0.40343 1.22685 0.56786
 C3505 C 0.39712 0.75376 1.08421
 C3506 C 0.39279 0.75501 1.10976
 C3507 C 0.39975 0.73526 1.12430
 C3508 C 0.40833 0.71387 1.11408
 C3509 C 0.41129 0.71154 1.08893
 C3510 C 0.40649 0.73187 1.07381
 C3511 C 0.39441 0.77430 1.06899
 C3512 C 0.39931 0.77297 1.04421
 C3513 C 0.40793 0.75155 1.03411
 C3514 C 0.41196 0.73134 1.04873
 H3515 H 0.38955 0.79190 1.07605
 H3516 H 0.39700 0.78886 1.03287
 H3517 H 0.41214 0.75076 1.01495
 H3518 H 0.42004 0.71565 1.04021
 H3519 H 0.39706 0.73561 1.14379
 H3520 H 0.41220 0.69871 1.12601
 C3521 C 0.87712 0.78332 0.86643
 C3522 C 0.87302 0.76134 0.87916
 C3523 C 0.87998 0.75937 0.90352
 C3524 C 0.89194 0.77828 0.91508
 C3525 C 0.89717 0.79981 0.90269
 C3526 C 0.88925 0.80278 0.87832
 C3527 C 0.86874 0.78669 0.84242
 C3528 C 0.87242 0.80861 0.83034
 C3529 C 0.88427 0.82760 0.84193
 C3530 C 0.89247 0.82489 0.86572
 H3531 H 0.85894 0.77263 0.83292
 H3532 H 0.86586 0.81096 0.81195
 H3533 H 0.88694 0.84460 0.83251
 H3534 H 0.90088 0.84042 0.87420
 H3535 H 0.87674 0.74274 0.91349
 H3536 H 0.89761 0.77593 0.93378
 C3537 C 0.90979 0.24865 0.39756
 C3538 C 0.88526 0.24989 0.38998
 C3539 C 0.87189 0.27107 0.39421
 C3540 C 0.88263 0.29129 0.40472
 C3541 C 0.90704 0.29093 0.41166
 C3542 C 0.92073 0.26929 0.40865
 C3543 C 0.92348 0.22711 0.39511
 C3544 C 0.94741 0.22600 0.40314
 C3545 C 0.95803 0.24607 0.41409
 C3546 C 0.94484 0.26747 0.41705
 H3547 H 0.91579 0.21082 0.38742
 H3548 H 0.95766 0.20935 0.40114
 H3549 H 0.97650 0.24498 0.42057
 H3550 H 0.95362 0.28234 0.42631
 H3551 H 0.85309 0.27222 0.38866
 H3552 H 0.87189 0.30762 0.40697
 C3553 C 0.41017 0.74774 0.39534
 C3554 C 0.38498 0.74808 0.38940
 C3555 C 0.37116 0.76843 0.39612
 C3556 C 0.38198 0.78895 0.40599
 C3557 C 0.40697 0.78982 0.41028
 C3558 C 0.42118 0.76880 0.40575
 C3559 C 0.42430 0.72635 0.39329
 C3560 C 0.44874 0.72615 0.39956
 C3561 C 0.45951 0.74683 0.40900
 C3562 C 0.44587 0.76781 0.41252
 H3563 H 0.41657 0.70922 0.38795
 H3564 H 0.45921 0.70963 0.39770
 H3565 H 0.47838 0.74640 0.41430
 H3566 H 0.45476 0.78290 0.42126
 H3567 H 0.35192 0.76923 0.39233
 H3568 H 0.37072 0.80464 0.40974
 C3569 C 0.37902 0.28009 0.86647
 C3570 C 0.37696 0.25767 0.87898
 C3571 C 0.38555 0.25579 0.90284
 C3572 C 0.39705 0.27522 0.91404
 C3573 C 0.40022 0.29723 0.90180
 C3574 C 0.39074 0.30005 0.87799
 C3575 C 0.36891 0.28344 0.84313
 C3576 C 0.37058 0.30575 0.83132
 C3577 C 0.38197 0.32519 0.84258
 C3578 C 0.39189 0.32252 0.86570
 H3579 H 0.35918 0.26914 0.83397
 H3580 H 0.36272 0.30805 0.81346
 H3581 H 0.38282 0.34255 0.83350
 H3582 H 0.39995 0.33835 0.87396
 H3583 H 0.38379 0.23889 0.91274
 H3584 H 0.40387 0.27296 0.93236
 C3585 C 1.09403 0.76384 1.13372
 C3586 C 1.10787 0.74701 1.11962
 C3587 C 1.11078 0.75221 1.09471
 C3588 C 1.10211 0.77369 1.08452
 C3589 C 1.09159 0.79182 1.09893
 C3590 C 1.08902 0.78740 1.12425
 C3591 C 1.08377 0.75781 1.15642
 C3592 C 1.07411 0.77571 1.17151
 C3593 C 1.07399 0.79980 1.16401
 C3594 C 1.08124 0.80567 1.14051
 H3595 H 1.08205 0.73919 1.16224
 H3596 H 1.06686 0.77088 1.18911
 H3597 H 1.06733 0.81382 1.17605
 H3598 H 1.08040 0.82453 1.13513
 H3599 H 1.11998 0.73982 1.08263
 H3600 H 1.10385 0.77614 1.06509
 C3601 C 1.13235 0.27761 0.62003
 C3602 C 1.11902 0.25557 0.62282
 C3603 C 1.09453 0.25528 0.61585
 C3604 C 1.08390 0.27508 0.60432
 C3605 C 1.09711 0.29619 0.59969
 C3606 C 1.12134 0.29790 0.60813
 C3607 C 1.15546 0.28086 0.63069
 C3608 C 1.16808 0.30255 0.62807
 C3609 C 1.15771 0.32189 0.61566
 C3610 C 1.13445 0.31983 0.60616
 H3611 H 1.16366 0.26729 0.64218
 H3612 H 1.18579 0.30457 0.63625
 H3613 H 1.16745 0.33883 0.61404
 H3614 H 1.12672 0.33587 0.59792
 H3615 H 1.08368 0.23909 0.61807
 H3616 H 1.06521 0.27373 0.59847
 C3617 C 0.58999 0.75029 0.60962
 C3618 C 0.61427 0.75202 0.61786
 C3619 C 0.62716 0.77353 0.61421
 C3620 C 0.61622 0.79352 0.60333
 C3621 C 0.59211 0.79256 0.59547
 C3622 C 0.57886 0.77070 0.59818
 C3623 C 0.57676 0.72848 0.61169
 C3624 C 0.55315 0.72687 0.60290
 C3625 C 0.54237 0.74672 0.59160
 C3626 C 0.55506 0.76840 0.58908
 H3627 H 0.58459 0.71238 0.61973
 H3628 H 0.54325 0.71003 0.60458
 H3629 H 0.52418 0.74523 0.58449
 H3630 H 0.54617 0.78311 0.57960
 H3631 H 0.64579 0.77498 0.62021
 H3632 H 0.62661 0.81005 0.60126
 C3633 C 0.58458 0.24644 1.10329
 C3634 C 0.60866 0.24699 1.11239
 C3635 C 0.62210 0.26842 1.11065
 C3636 C 0.61195 0.28936 1.10090
 C3637 C 0.58804 0.28958 1.09247
 C3638 C 0.57416 0.26798 1.09334
 C3639 C 0.57092 0.22481 1.10294
 C3640 C 0.54741 0.22455 1.09373
 C3641 C 0.53718 0.24561 1.08426
 C3642 C 0.55043 0.26709 1.08381
 H3643 H 0.57832 0.20779 1.10925
 H3644 H 0.53716 0.20783 1.09367
 H3645 H 0.51900 0.24523 1.07693
 H3646 H 0.54200 0.28280 1.07559
 H3647 H 0.64055 0.26907 1.11731
 H3648 H 0.62280 0.30570 1.10019
 C3649 C 1.22170 1.11264 0.86765
 C3650 C 1.24340 1.11518 0.88120
 C3651 C 1.24413 1.10756 0.90542
 C3652 C 1.22411 1.09669 0.91615
 C3653 C 1.20262 1.09337 0.90307
 C3654 C 1.20104 1.10185 0.87875
 C3655 C 1.21977 1.12138 0.84360
 C3656 C 1.19811 1.11937 0.83074
 C3657 C 1.17789 1.10907 0.84164
 C3658 C 1.17917 1.10059 0.86545
 H3659 H 1.23476 1.13018 0.83461
 H3660 H 1.19693 1.12615 0.81232
 H3661 H 1.16103 1.10788 0.83167
 H3662 H 1.16277 1.09344 0.87336
 H3663 H 1.26054 1.10964 0.91601
 H3664 H 1.22547 1.09056 0.93480
 C3665 C 1.21419 0.62704 0.36876
 C3666 C 1.23841 0.62201 0.37557
 C3667 C 1.24316 0.60498 0.39382
 C3668 C 1.22432 0.59292 0.40544
 C3669 C 1.20023 0.59753 0.39905
 C3670 C 1.19489 0.61472 0.38064
 C3671 C 1.20872 0.64404 0.35038
 C3672 C 1.18475 0.64885 0.34394
 C3673 C 1.16587 0.63694 0.35567
 C3674 C 1.17079 0.62000 0.37387
 H3675 H 1.22289 0.65372 0.34091
 H3676 H 1.18079 0.66194 0.32982
 H3677 H 1.14731 0.64081 0.35062
 H3678 H 1.15562 0.61112 0.38252
 H3679 H 1.26165 0.60100 0.39912
 H3680 H 1.22853 0.57987 0.41955
 C3681 C 0.75000 1.10616 0.41169
 C3682 C 0.74923 1.11294 0.38688
 C3683 C 0.72891 1.10723 0.37287
 C3684 C 0.70895 1.09593 0.38326
 C3685 C 0.70886 1.08958 0.40791
 C3686 C 0.72979 1.09404 0.42223
 C3687 C 0.77069 1.11055 0.42611
 C3688 C 0.77148 1.10312 0.45030
 C3689 C 0.75194 1.09091 0.46046
 C3690 C 0.73135 1.08620 0.44660
 H3691 H 0.78652 1.11944 0.41881
 H3692 H 0.78746 1.10658 0.46113
 H3693 H 0.75282 1.08485 0.47912
 H3694 H 0.71692 1.07604 0.45508
 H3695 H 0.72824 1.11215 0.35383
 H3696 H 0.69316 1.09262 0.37206
 C3697 C 0.72430 0.61136 0.86818
 C3698 C 0.74569 0.61428 0.88208
 C3699 C 0.74609 0.60699 0.90639
 C3700 C 0.72592 0.59626 0.91695
 C3701 C 0.70460 0.59277 0.90361
 C3702 C 0.70343 0.60083 0.87911
 C3703 C 0.72300 0.61929 0.84382
 C3704 C 0.70161 0.61701 0.83057
 C3705 C 0.68110 0.60712 0.84134
 C3706 C 0.68183 0.59931 0.86542
 H3707 H 0.73839 0.62745 0.83487
 H3708 H 0.70086 0.62313 0.81190
 H3709 H 0.66451 0.60557 0.83100
 H3710 H 0.66525 0.59239 0.87316
 H3711 H 0.76229 0.60944 0.91723
 H3712 H 0.72699 0.59043 0.93572
 C3713 C 1.25037 0.91283 1.10888
 C3714 C 1.25035 0.88777 1.11464
 C3715 C 1.23040 0.87352 1.10837
 C3716 C 1.21011 0.88383 1.09752
 C3717 C 1.20925 0.90869 1.09215
 C3718 C 1.22977 0.92334 1.09723
 C3719 C 1.27071 0.92753 1.11370
 C3720 C 1.27081 0.95197 1.10718
 C3721 C 1.25089 0.96214 1.09547
 C3722 C 1.23062 0.94801 1.09034
 H3723 H 1.28682 0.92024 1.12220
 H3724 H 1.28656 0.96300 1.11093
 H3725 H 1.25124 0.98104 1.09013
 H3726 H 1.21591 0.95653 1.08056
 H3727 H 1.23035 0.85427 1.11237
 H3728 H 1.19470 0.87232 1.09367
 C3729 C 1.25137 0.41558 0.60492
 C3730 C 1.25214 0.39062 0.61109
 C3731 C 1.23206 0.37595 0.60633
 C3732 C 1.21099 0.38574 0.59654
 C3733 C 1.20944 0.41046 0.59075
 C3734 C 1.22997 0.42553 0.59431
 C3735 C 1.27166 0.43074 0.60836
 C3736 C 1.27092 0.45507 0.60146
 C3737 C 1.25021 0.46466 0.59069
 C3738 C 1.22997 0.45008 0.58693
 H3739 H 1.28836 0.42391 0.61604
 H3740 H 1.28663 0.46647 0.60418
 H3741 H 1.24990 0.48346 0.58500
 H3742 H 1.21457 0.45815 0.57786
 H3743 H 1.23245 0.35683 0.61089
 H3744 H 1.19555 0.37395 0.59387
 C3745 C 0.72891 0.86911 0.61311
 C3746 C 0.74979 0.88397 0.61365
 C3747 C 0.74855 0.90776 0.60496
 C3748 C 0.72700 0.91706 0.59573
 C3749 C 0.70596 0.90293 0.59517
 C3750 C 0.70667 0.87876 0.60411
 C3751 C 0.72954 0.84501 0.62178
 C3752 C 0.70868 0.83082 0.62188
 C3753 C 0.68681 0.84040 0.61367
 C3754 C 0.68569 0.86415 0.60496
 H3755 H 0.74611 0.83696 0.62857
 H3756 H 0.70943 0.81235 0.62856
 H3757 H 0.67061 0.82938 0.61414
 H3758 H 0.66824 0.87097 0.59919
 H3759 H 0.76441 0.91928 0.60544
 H3760 H 0.72671 0.93549 0.58889
 C3761 C 0.75083 0.41103 1.10264
 C3762 C 0.74989 0.38729 1.11265
 C3763 C 0.72839 0.37399 1.11108
 C3764 C 0.70767 0.38409 1.10084
 C3765 C 0.70777 0.40782 1.09178
 C3766 C 0.72953 0.42142 1.09225
 C3767 C 0.77262 0.42439 1.10189
 C3768 C 0.77324 0.44760 1.09184
 C3769 C 0.75238 0.45781 1.08197
 C3770 C 0.73075 0.44485 1.08195
 H3771 H 0.78948 0.41695 1.10852
 H3772 H 0.79008 0.45760 1.09144
 H3773 H 0.75305 0.47575 1.07399
 H3774 H 0.71516 0.45323 1.07347
 H3775 H 0.72744 0.35577 1.11842
 H3776 H 0.69121 0.37344 1.10041
 C3777 C 0.75144 1.09172 1.10613
 C3778 C 0.75286 1.11593 1.11481
 C3779 C 0.77388 1.12943 1.11069
 C3780 C 0.79384 1.11905 1.09925
 C3781 C 0.79334 1.09488 1.09139
 C3782 C 0.77185 1.08113 1.09428
 C3783 C 0.72995 1.07801 1.10820
 C3784 C 0.72874 1.05439 1.09925
 C3785 C 0.74866 1.04407 1.08773
 C3786 C 0.76997 1.05729 1.08505
 H3787 H 0.71374 1.08546 1.11630
 H3788 H 0.71214 1.04413 1.10100
 H3789 H 0.74751 1.02582 1.08058
 H3790 H 0.78472 1.04879 1.07532
 H3791 H 0.77506 1.14804 1.11691
 H3792 H 0.81007 1.12982 1.09699
 C3793 C 0.74969 0.58673 0.60431
 C3794 C 0.75013 0.61144 0.61156
 C3795 C 0.77084 0.62534 0.60725
 C3796 C 0.79137 0.61499 0.59694
 C3797 C 0.79180 0.59044 0.59036
 C3798 C 0.77069 0.57616 0.59352
 C3799 C 0.72860 0.57248 0.60677
 C3800 C 0.72833 0.54835 0.59919
 C3801 C 0.74880 0.53806 0.58864
 C3802 C 0.76973 0.55181 0.58558
 H3803 H 0.71201 0.57987 0.61410
 H3804 H 0.71204 0.53767 0.60124
 H3805 H 0.74836 0.51941 0.58251
 H3806 H 0.78492 0.54326 0.57661
 H3807 H 0.77137 0.64426 0.61254
 H3808 H 0.80731 0.62616 0.59454
 C3809 C 0.28270 1.12130 0.63452
 C3810 C 0.26025 1.12383 0.62234
 C3811 C 0.25817 1.11652 0.59810
 C3812 C 0.27768 1.10591 0.58605
 C3813 C 0.29990 1.10250 0.59785
 C3814 C 0.30283 1.11090 0.62208
 C3815 C 0.28568 1.12929 0.65869
 C3816 C 0.30810 1.12743 0.67023
 C3817 C 0.32792 1.11778 0.65792
 C3818 C 0.32542 1.10965 0.63407
 H3819 H 0.27081 1.13723 0.66875
 H3820 H 0.31016 1.13371 0.68873
 H3821 H 0.34535 1.11668 0.66688
 H3822 H 0.34142 1.10274 0.62508
 H3823 H 0.24110 1.11854 0.58859
 H3824 H 0.27526 1.09980 0.56751
 C3825 C 0.26849 0.62740 1.10690
 C3826 C 0.24776 0.61237 1.10823
 C3827 C 0.24920 0.58825 1.10048
 C3828 C 0.27066 0.57892 1.09100
 C3829 C 0.29142 0.59338 1.08924
 C3830 C 0.29060 0.61777 1.09760
 C3831 C 0.26795 0.65158 1.11537
 C3832 C 0.28869 0.66592 1.11477
 C3833 C 0.31038 0.65642 1.10608
 C3834 C 0.31147 0.63256 1.09774
 H3835 H 0.25162 0.65956 1.12273
 H3836 H 0.28800 0.68441 1.12136
 H3837 H 0.32651 0.66754 1.10600
 H3838 H 0.32888 0.62582 1.09181
 H3839 H 0.23356 0.57650 1.10183
 H3840 H 0.27110 0.56023 1.08494
 C3841 C 0.78301 0.86697 0.87998
 C3842 C 0.76043 0.87904 0.87740
 C3843 C 0.75790 0.90293 0.88569
 C3844 C 0.77689 0.91463 0.89736
 C3845 C 0.79901 0.90280 0.90111
 C3846 C 0.80244 0.87891 0.89208
 C3847 C 0.78702 0.84368 0.87003
 C3848 C 0.80946 0.83224 0.87237
 C3849 C 0.82833 0.84377 0.88443
 C3850 C 0.82502 0.86693 0.89406
 H3851 H 0.77312 0.83428 0.85995
 H3852 H 0.81229 0.81441 0.86460
 H3853 H 0.84570 0.83485 0.88609
 H3854 H 0.84047 0.87547 0.90252
 H3855 H 0.74083 0.91246 0.88361
 H3856 H 0.77418 0.93297 0.90393
 C3857 C 0.75150 0.41051 0.39388
 C3858 C 0.75381 0.38669 0.38426
 C3859 C 0.77563 0.37405 0.38718
 C3860 C 0.79538 0.38487 0.39848
 C3861 C 0.79391 0.40865 0.40733
 C3862 C 0.77178 0.42160 0.40540
 C3863 C 0.72928 0.42325 0.39312
 C3864 C 0.72727 0.44651 0.40287
 C3865 C 0.74713 0.45741 0.41387
 C3866 C 0.76915 0.44509 0.41534
 H3867 H 0.71311 0.41530 0.38551
 H3868 H 0.71011 0.45602 0.40213
 H3869 H 0.74538 0.47538 0.42160
 H3870 H 0.78391 0.45400 0.42464
 H3871 H 0.77754 0.35577 0.38020
 H3872 H 0.81215 0.37472 0.39999
 C3873 C 0.28158 0.86767 0.38021
 C3874 C 0.25942 0.88056 0.37785
 C3875 C 0.25780 0.90445 0.38634
 C3876 C 0.27729 0.91537 0.39798
 C3877 C 0.29907 0.90280 0.40136
 C3878 C 0.30162 0.87893 0.39199
 C3879 C 0.28458 0.84417 0.37038
 C3880 C 0.30663 0.83195 0.37241
 C3881 C 0.32619 0.84296 0.38383
 C3882 C 0.32387 0.86627 0.39338
 H3883 H 0.27018 0.83519 0.36064
 H3884 H 0.30864 0.81396 0.36477
 H3885 H 0.34335 0.83352 0.38503
 H3886 H 0.33977 0.87433 0.40147
 H3887 H 0.24106 0.91458 0.38449
 H3888 H 0.27524 0.93372 0.40475
 C3889 C 0.28217 0.36318 0.88009
 C3890 C 0.26011 0.37590 0.87643
 C3891 C 0.25818 0.40013 0.88383
 C3892 C 0.27728 0.41160 0.89557
 C3893 C 0.29903 0.39931 0.90010
 C3894 C 0.30190 0.37505 0.89181
 C3895 C 0.28534 0.33918 0.87165
 C3896 C 0.30738 0.32715 0.87471
 C3897 C 0.32669 0.33878 0.88597
 C3898 C 0.32413 0.36253 0.89430
 H3899 H 0.27100 0.32966 0.86229
 H3900 H 0.30958 0.30878 0.86808
 H3901 H 0.34379 0.32940 0.88812
 H3902 H 0.33984 0.37102 0.90232
 H3903 H 0.24147 0.41009 0.88104
 H3904 H 0.27492 0.43018 0.90157
   
