data_POSCAR
  _audit_creation_date              2014-09-24
  _audit_creation_method            'ToBaCCo'
  _symmetry_space_group_name_H-M    'P1'
  _symmetry_Int_Tables_number       1
  _symmetry_cell_setting            triclinic
  loop_
  _symmetry_equiv_pos_as_xyz
 x,y,z
_cell_length_a 58.3075
_cell_length_b 61.6076
_cell_length_c 61.4282
_cell_angle_alpha 88.670300
_cell_angle_beta 90.303900
_cell_angle_gamma 88.926800
loop_
  _atom_site_label
  _atom_site_type_symbol
  _atom_site_fract_x
  _atom_site_fract_y
  _atom_site_fract_z
C1 C 0.19873 0.22629 0.22987
 C2 C 0.20455 0.23876 0.21139
 C3 C 0.22284 0.23235 0.19793
 C4 C 0.23562 0.21346 0.20356
 C5 C 0.23018 0.20093 0.22219
 C6 C 0.21192 0.20761 0.23533
 H7 H 0.19481 0.25353 0.20783
 H8 H 0.25005 0.20883 0.19355
 H9 H 0.20828 0.19827 0.25000
 C10 C 0.69171 0.71677 0.72280
 C11 C 0.69619 0.72916 0.70387
 C12 C 0.71418 0.72336 0.68990
 C13 C 0.72792 0.70508 0.69516
 C14 C 0.72358 0.69223 0.71385
 C15 C 0.70566 0.69836 0.72775
 H16 H 0.68589 0.74363 0.70036
 H17 H 0.74224 0.70117 0.68473
 H18 H 0.70294 0.68877 0.74244
 C19 C 0.30792 0.79592 0.70711
 C20 C 0.30531 0.78390 0.68818
 C21 C 0.28838 0.78957 0.67266
 C22 C 0.27359 0.80720 0.67656
 C23 C 0.27552 0.81943 0.69554
 C24 C 0.29293 0.81363 0.71080
 H25 H 0.31639 0.76988 0.68589
 H26 H 0.26033 0.81137 0.66463
 H27 H 0.29456 0.82228 0.72575
 C28 C 0.79940 0.26900 0.23532
 C29 C 0.79257 0.25548 0.21835
 C30 C 0.77271 0.26038 0.20586
 C31 C 0.75941 0.27882 0.21072
 C32 C 0.76583 0.29250 0.22755
 C33 C 0.78558 0.28739 0.23983
 H34 H 0.80267 0.24101 0.21514
 H35 H 0.74385 0.28227 0.20149
 H36 H 0.78967 0.29800 0.25296
 C37 C 0.79887 0.71695 0.27787
 C38 C 0.78787 0.69683 0.27638
 C39 C 0.77003 0.69142 0.29071
 C40 C 0.76357 0.70606 0.30677
 C41 C 0.77455 0.72592 0.30880
 C42 C 0.79214 0.73132 0.29420
 H43 H 0.79363 0.68512 0.26471
 H44 H 0.74992 0.70187 0.31794
 H45 H 0.80041 0.74685 0.29518
 C46 C 0.31069 0.20890 -0.20698
 C47 C 0.30439 0.22088 -0.18866
 C48 C 0.28432 0.21621 -0.17694
 C49 C 0.27020 0.19953 -0.18396
 C50 C 0.27620 0.18719 -0.20210
 C51 C 0.29636 0.19199 -0.21346
 H52 H 0.31495 0.23425 -0.18395
 H53 H 0.25444 0.19651 -0.17531
 H54 H 0.30048 0.18228 -0.22734
 C55 C 0.71019 0.29443 -0.20714
 C56 C 0.71459 0.27987 -0.18946
 C57 C 0.73332 0.28288 -0.17536
 C58 C 0.74817 0.30012 -0.17946
 C59 C 0.74431 0.31466 -0.19702
 C60 C 0.72505 0.31193 -0.21047
 H61 H 0.70383 0.26609 -0.18660
 H62 H 0.76280 0.30228 -0.16881
 H63 H 0.72136 0.32353 -0.22357
 C64 C 0.17999 0.78424 0.27084
 C65 C 0.19358 0.80231 0.26590
 C66 C 0.21159 0.80825 0.27986
 C67 C 0.21606 0.79533 0.29879
 C68 C 0.20287 0.77698 0.30360
 C69 C 0.18483 0.77178 0.28970
 H70 H 0.19038 0.81175 0.25109
 H71 H 0.22945 0.79934 0.31005
 H72 H 0.17453 0.75773 0.29354
 C73 C 0.49515 0.43455 0.49216
 C74 C 0.47760 0.44988 0.49612
 C75 C 0.47228 0.46652 0.48080
 C76 C 0.48523 0.46808 0.46155
 C77 C 0.50314 0.45309 0.45755
 C78 C 0.50781 0.43639 0.47290
 H79 H 0.46807 0.44911 0.51117
 H80 H 0.48144 0.48087 0.44976
 H81 H 0.52146 0.42468 0.46982
 C82 C -0.06528 -0.07500 0.95312
 C83 C -0.08138 -0.05819 0.95627
 C84 C -0.08222 -0.03963 0.94238
 C85 C -0.06677 -0.03852 0.92489
 C86 C -0.05035 -0.05514 0.92157
 C87 C -0.04996 -0.07344 0.93561
 H88 H -0.09306 -0.06000 0.96972
 H89 H -0.06780 -0.02464 0.91380
 H90 H -0.03776 -0.08647 0.93266
 C91 C 1.03091 0.56587 0.95856
 C92 C 1.04663 0.54945 0.96528
 C93 C 1.05277 0.53261 0.95131
 C94 C 1.04245 0.53187 0.93057
 C95 C 1.02628 0.54792 0.92380
 C96 C 1.02091 0.56489 0.93782
 H97 H 1.05417 0.54949 0.98138
 H98 H 1.04685 0.51882 0.91987
 H99 H 1.00859 0.57739 0.93261
 C100 C 0.52626 0.07345 0.47831
 C101 C 0.54464 0.05866 0.48172
 C102 C 0.54898 0.04178 0.46717
 C103 C 0.53436 0.03989 0.44893
 C104 C 0.51548 0.05421 0.44565
 C105 C 0.51171 0.07094 0.46038
 H106 H 0.55542 0.05995 0.49601
 H107 H 0.53774 0.02774 0.43700
 H108 H 0.49732 0.08214 0.45784
 C109 C -0.05884 0.06492 0.53249
 C110 C -0.04424 0.05972 0.55019
 C111 C -0.04695 0.04028 0.56233
 C112 C -0.06475 0.02631 0.55681
 C113 C -0.07971 0.03137 0.53922
 C114 C -0.07645 0.05077 0.52727
 H115 H -0.03142 0.07115 0.55490
 H116 H -0.06649 0.01149 0.56634
 H117 H -0.08774 0.05497 0.51365
 C118 C 0.46141 0.56051 0.02160
 C119 C 0.44139 0.54812 0.02154
 C120 C 0.43725 0.53301 0.03858
 C121 C 0.45300 0.53093 0.05592
 C122 C 0.47300 0.54330 0.05620
 C123 C 0.47717 0.55770 0.03877
 H124 H 0.42930 0.55014 0.00823
 H125 H 0.44984 0.51910 0.06879
 H126 H 0.49267 0.56716 0.03877
 C127 C 0.54225 -0.07786 0.03675
 C128 C 0.55996 -0.06259 0.03648
 C129 C 0.56181 -0.04721 0.05291
 C130 C 0.54601 -0.04733 0.06996
 C131 C 0.52787 -0.06199 0.07040
 C132 C 0.52627 -0.07736 0.05399
 H133 H 0.57255 -0.06294 0.02358
 H134 H 0.54801 -0.03588 0.08291
 H135 H 0.51241 -0.08869 0.05502
 C136 C 1.06413 0.44886 0.51131
 C137 C 1.04835 0.45456 0.52755
 C138 C 1.05140 0.47334 0.53976
 C139 C 1.07025 0.48658 0.53542
 C140 C 1.08644 0.48105 0.51939
 C141 C 1.08311 0.46208 0.50759
 H142 H 1.03370 0.44456 0.53065
 H143 H 1.07205 0.50098 0.54491
 H144 H 1.09534 0.45757 0.49516
 C145 C 0.40642 0.00341 0.22705
 H146 H 0.40700 0.01806 0.23640
 C147 C 0.42197 0.00021 0.21024
 H148 H 0.43453 0.01253 0.20673
 C149 C 0.38921 -0.03034 0.22035
 H150 H 0.37647 -0.04225 0.22443
 C151 C 0.40451 -0.03423 0.20334
 H152 H 0.40292 -0.04901 0.19438
 N153 N 0.39023 -0.01159 0.23156
 C154 C 0.33599 0.02777 0.26056
 H155 H 0.33404 0.01975 0.27628
 C156 C 0.32267 0.04626 0.25516
 H157 H 0.31034 0.05205 0.26685
 C158 C 0.35394 0.02918 0.22608
 H159 H 0.36586 0.02235 0.21460
 C160 C 0.34097 0.04761 0.22000
 H161 H 0.34327 0.05490 0.20396
 Zn162 Zn 0.36987 -0.00481 0.25441
 N163 N 0.35160 0.01990 0.24623
 C164 C 0.38756 0.02035 0.28905
 N165 N 0.38842 0.00092 0.27900
 C166 C 0.40352 -0.01500 0.28556
 C167 C 0.41814 -0.01195 0.30322
 C168 C 0.40195 0.02417 0.30679
 C169 C 0.33533 -0.03465 0.24501
 C170 C 0.32072 -0.05205 0.24896
 C171 C 0.33630 -0.05545 0.28542
 C172 C 0.35053 -0.03802 0.28075
 N173 N 0.35011 -0.02824 0.26069
 H174 H 0.37588 0.03303 0.28326
 H175 H 0.40414 -0.03016 0.27702
 H176 H 0.42989 -0.02500 0.30817
 H177 H 0.40055 0.03980 0.31429
 H178 H 0.33505 -0.02633 0.22930
 H179 H 0.30952 -0.05672 0.23591
 H180 H 0.33718 -0.06306 0.30150
 H181 H 0.36187 -0.03235 0.29325
 C182 C 0.32538 0.05662 0.23470
 C183 C 0.42114 -0.01872 0.19806
 C184 C 0.32118 -0.06289 0.26945
 C185 C 0.41758 0.00782 0.31421
 C186 C 0.08859 -0.00265 0.71362
 H187 H 0.08724 -0.01820 0.72202
 C188 C 0.07567 0.00174 0.69476
 H189 H 0.06486 -0.01082 0.68860
 C190 C 0.10472 0.03234 0.71158
 H191 H 0.11569 0.04440 0.71839
 C192 C 0.09217 0.03739 0.69263
 H193 H 0.09380 0.05326 0.68490
 N194 N 0.10278 0.01255 0.72161
 C195 C 0.15205 -0.02448 0.76219
 H196 H 0.14982 -0.01643 0.77752
 C197 C 0.16831 -0.04127 0.76044
 H198 H 0.17848 -0.04618 0.77458
 C199 C 0.14185 -0.02743 0.72502
 H200 H 0.13191 -0.02162 0.71111
 C201 C 0.15795 -0.04425 0.72252
 H202 H 0.16009 -0.05097 0.70656
 Zn203 Zn 0.11829 0.00559 0.74811
 N204 N 0.13906 -0.01806 0.74468
 C205 C 0.09515 -0.02088 0.77949
 N206 N 0.09554 -0.00128 0.76887
 C207 C 0.07913 0.01416 0.77231
 C208 C 0.06185 0.01052 0.78749
 C209 C 0.07808 -0.02531 0.79478
 C210 C 0.15301 0.03625 0.74464
 C211 C 0.16667 0.05343 0.75094
 C212 C 0.14466 0.05571 0.78404
 C213 C 0.13142 0.03854 0.77705
 N214 N 0.13560 0.02936 0.75752
 H215 H 0.10806 -0.03314 0.77615
 H216 H 0.07965 0.02949 0.76336
 H217 H 0.04917 0.02326 0.79011
 H218 H 0.07865 -0.04097 0.80302
 H219 H 0.15629 0.02833 0.72940
 H220 H 0.18025 0.05825 0.74010
 H221 H 0.14092 0.06276 0.79966
 H222 H 0.11798 0.03245 0.78741
 C223 C 0.17135 -0.05151 0.74048
 C224 C 0.07718 0.02213 0.68416
 C225 C 0.16254 0.06356 0.77096
 C226 C 0.06111 -0.00938 0.79911
 C227 C 0.58689 0.49073 0.22566
 H228 H 0.58655 0.47667 0.23653
 C229 C 0.56946 0.49417 0.21026
 H230 H 0.55573 0.48262 0.20927
 C231 C 0.60514 0.52297 0.21394
 H232 H 0.61880 0.53439 0.21573
 C233 C 0.58810 0.52697 0.19819
 H234 H 0.58890 0.54158 0.18814
 N235 N 0.60444 0.50487 0.22700
 C236 C 0.66067 0.46565 0.25487
 H237 H 0.66479 0.47484 0.26912
 C238 C 0.67307 0.44666 0.25043
 H239 H 0.68691 0.44166 0.26129
 C240 C 0.63815 0.46186 0.22301
 H241 H 0.62477 0.46798 0.21218
 C242 C 0.65012 0.44283 0.21793
 H243 H 0.64565 0.43435 0.20330
 Zn244 Zn 0.62702 0.49835 0.24849
 N245 N 0.64333 0.47265 0.24142
 C246 C 0.61268 0.47579 0.28702
 N247 N 0.61124 0.49466 0.27514
 C248 C 0.59757 0.51143 0.28146
 C249 C 0.58505 0.50983 0.30069
 C250 C 0.60040 0.47342 0.30639
 C251 C 0.66141 0.52634 0.23304
 C252 C 0.67722 0.54306 0.23417
 C253 C 0.66669 0.54793 0.27174
 C254 C 0.65104 0.53123 0.26981
 N255 N 0.64840 0.52103 0.25061
 H256 H 0.62320 0.46244 0.28146
 H257 H 0.59646 0.52614 0.27150
 H258 H 0.57439 0.52351 0.30539
 H259 H 0.60219 0.45817 0.31527
 H260 H 0.65934 0.51766 0.21807
 H261 H 0.68715 0.54717 0.21985
 H262 H 0.66777 0.55560 0.28730
 H263 H 0.64107 0.52640 0.28380
 C264 C 0.66758 0.43481 0.23186
 C265 C 0.57013 0.51225 0.19604
 C266 C 0.68007 0.55427 0.25367
 C267 C 0.58628 0.49067 0.31356
 C268 C 0.92079 0.50866 0.69391
 H269 H 0.92242 0.52378 0.70234
 C270 C 0.93498 0.50419 0.67623
 H271 H 0.94753 0.51605 0.67147
 C272 C 0.90317 0.47451 0.69105
 H273 H 0.89118 0.46273 0.69715
 C274 C 0.91699 0.46938 0.67333
 H275 H 0.91522 0.45377 0.66580
 N276 N 0.90515 0.49397 0.70084
 C277 C 0.85377 0.53115 0.73669
 H278 H 0.85381 0.52190 0.75187
 C279 C 0.83856 0.54877 0.73368
 H280 H 0.82690 0.55264 0.74669
 C281 C 0.86836 0.53626 0.70106
 H282 H 0.87968 0.53110 0.68824
 C283 C 0.85344 0.55398 0.69736
 H284 H 0.85362 0.56245 0.68171
 Zn285 Zn 0.88764 0.50064 0.72582
 N286 N 0.86841 0.52537 0.72057
 C287 C 0.90858 0.52468 0.75937
 N288 N 0.90864 0.50561 0.74868
 C289 C 0.92406 0.48947 0.75380
 C290 C 0.93968 0.49181 0.77083
 C291 C 0.92397 0.52780 0.77649
 C292 C 0.85190 0.47174 0.71906
 C293 C 0.83717 0.45472 0.72392
 C294 C 0.85605 0.44988 0.75884
 C295 C 0.87046 0.46695 0.75324
 N296 N 0.86837 0.47729 0.73351
 H297 H 0.89653 0.53752 0.75474
 H298 H 0.92397 0.47459 0.74479
 H299 H 0.95153 0.47853 0.77479
 H300 H 0.92297 0.54308 0.78468
 H301 H 0.85032 0.48051 0.70364
 H302 H 0.82434 0.45049 0.71200
 H303 H 0.85857 0.44210 0.77461
 H304 H 0.88321 0.47197 0.76479
 C305 C 0.83837 0.56055 0.71379
 C306 C 0.93309 0.48431 0.66561
 C307 C 0.83908 0.44340 0.74402
 C308 C 0.93976 0.51108 0.78265
 C309 C 0.21400 0.40909 0.00159
 H310 H 0.22245 0.41206 0.01693
 C311 C 0.19533 0.42214 -0.00515
 H312 H 0.18984 0.43524 0.00513
 C313 C 0.21217 0.38915 -0.03087
 H314 H 0.21911 0.37667 -0.04111
 C315 C 0.19348 0.40184 -0.03826
 H316 H 0.18601 0.39877 -0.05405
 N317 N 0.22187 0.39284 -0.01114
 C318 C 0.25922 0.34957 0.03462
 H319 H 0.27591 0.34904 0.02703
 C320 C 0.25536 0.33745 0.05374
 H321 H 0.26948 0.32801 0.06071
 C322 C 0.22080 0.36275 0.03433
 H323 H 0.20723 0.37228 0.02653
 C324 C 0.21619 0.35089 0.05340
 H325 H 0.19910 0.35164 0.06019
 Zn326 Zn 0.24820 0.37700 -0.00116
 N327 N 0.24209 0.36200 0.02541
 C328 C 0.28214 0.40057 0.02177
 N329 N 0.27165 0.39751 0.00230
 C330 C 0.27686 0.40983 -0.01555
 C331 C 0.29358 0.42565 -0.01441
 C332 C 0.29896 0.41632 0.02371
 C333 C 0.24202 0.34029 -0.02650
 C334 C 0.24752 0.32466 -0.04185
 C335 C 0.28459 0.34104 -0.04614
 C336 C 0.27828 0.35641 -0.03084
 N337 N 0.25713 0.35602 -0.02167
 H338 H 0.27739 0.39094 0.03590
 H339 H 0.26797 0.40728 -0.03076
 H340 H 0.29747 0.43513 -0.02897
 H341 H 0.30690 0.41806 0.03947
 H342 H 0.22550 0.34006 -0.01856
 H343 H 0.23488 0.31260 -0.04520
 H344 H 0.30148 0.34186 -0.05337
 H345 H 0.29036 0.36861 -0.02631
 C346 C 0.23349 0.33790 0.06332
 C347 C 0.18472 0.41847 -0.02531
 C348 C 0.26907 0.32503 -0.05218
 C349 C 0.30498 0.42919 0.00537
 C350 C 0.70934 0.09098 -0.00332
 H351 H 0.71947 0.09293 -0.01792
 C352 C 0.69185 0.07589 -0.00264
 H353 H 0.68849 0.06634 -0.01685
 C354 C 0.70197 0.10071 0.03311
 H355 H 0.70624 0.11018 0.04709
 C356 C 0.68433 0.08564 0.03456
 H357 H 0.67486 0.08420 0.04959
 N358 N 0.71403 0.10306 0.01434
 C359 C 0.75175 0.15627 -0.01584
 H360 H 0.76774 0.15516 -0.00683
 C361 C 0.74882 0.17189 -0.03254
 H362 H 0.76267 0.18285 -0.03595
 C363 C 0.71410 0.14366 -0.02146
 H364 H 0.70044 0.13290 -0.01690
 C365 C 0.71042 0.15903 -0.03822
 H366 H 0.69400 0.15974 -0.04657
 Zn367 Zn 0.73973 0.12118 0.01159
 N368 N 0.73465 0.14229 -0.01091
 C369 C 0.77647 0.10403 -0.01405
 N370 N 0.76451 0.10237 0.00483
 C371 C 0.76862 0.08580 0.01937
 C372 C 0.78544 0.07010 0.01531
 C373 C 0.79350 0.08859 -0.01885
 C374 C 0.72980 0.14951 0.04585
 C375 C 0.73424 0.16111 0.06468
 C376 C 0.77210 0.14455 0.06620
 C377 C 0.76691 0.13328 0.04743
 N378 N 0.74598 0.13579 0.03774
 H379 H 0.77254 0.11703 -0.02565
 H380 H 0.75855 0.08468 0.03408
 H381 H 0.78824 0.05701 0.02717
 H382 H 0.80245 0.09043 -0.03410
 H383 H 0.71344 0.15151 0.03759
 H384 H 0.72087 0.17183 0.07046
 H385 H 0.78896 0.14226 0.07352
 H386 H 0.77982 0.12281 0.04044
 C387 C 0.72798 0.17319 -0.04419
 C388 C 0.67931 0.07280 0.01654
 C389 C 0.75576 0.15875 0.07519
 C390 C 0.79810 0.07115 -0.00408
 C391 C 0.24951 0.60095 0.48304
 H392 H 0.25887 0.59911 0.46802
 C393 C 0.23050 0.58809 0.48734
 H394 H 0.22530 0.57671 0.47522
 C395 C 0.24495 0.61858 0.51665
 H396 H 0.25077 0.63024 0.52819
 C397 C 0.22588 0.60607 0.52161
 H398 H 0.21708 0.60843 0.53688
 N399 N 0.25615 0.61604 0.49748
 C400 C 0.29257 0.66472 0.45906
 H401 H 0.30856 0.66507 0.46805
 C402 C 0.28882 0.67897 0.44134
 H403 H 0.30209 0.69021 0.43667
 C404 C 0.25567 0.64995 0.45458
 H405 H 0.24264 0.63886 0.45997
 C406 C 0.25120 0.66390 0.43676
 H407 H 0.23495 0.66273 0.42839
 Zn408 Zn 0.28195 0.63305 0.49051
 N409 N 0.27612 0.65055 0.46529
 C410 C 0.31801 0.61337 0.46661
 N411 N 0.30708 0.61380 0.48608
 C412 C 0.31310 0.59974 0.50259
 C413 C 0.33114 0.58478 0.50008
 C414 C 0.33607 0.59863 0.46333
 C415 C 0.27188 0.66777 0.51707
 C416 C 0.27487 0.68261 0.53361
 C417 C 0.31175 0.66568 0.54168
 C418 C 0.30798 0.65114 0.52498
 N419 N 0.28811 0.65223 0.51331
 H420 H 0.31260 0.62427 0.45347
 H421 H 0.30379 0.60014 0.51777
 H422 H 0.33519 0.57394 0.51367
 H423 H 0.34449 0.59863 0.44764
 H424 H 0.25643 0.66851 0.50722
 H425 H 0.26137 0.69452 0.53593
 H426 H 0.32764 0.66437 0.55089
 H427 H 0.32097 0.63904 0.52137
 C428 C 0.26783 0.67889 0.43011
 C429 C 0.21842 0.59058 0.50692
 C430 C 0.29503 0.68162 0.54643
 C431 C 0.34303 0.58406 0.48015
 C432 C 0.70336 0.90655 0.50335
 H433 H 0.71143 0.90636 0.51926
 C434 C 0.68524 0.92108 0.49868
 H435 H 0.67932 0.93163 0.51137
 C436 C 0.70128 0.89245 0.46787
 H437 H 0.70775 0.88151 0.45578
 C438 C 0.68312 0.90672 0.46249
 H439 H 0.67565 0.90644 0.44631
 N440 N 0.71083 0.89245 0.48811
 C441 C 0.74311 0.83841 0.52473
 H442 H 0.75943 0.83739 0.51649
 C443 C 0.73834 0.82393 0.54187
 H444 H 0.75111 0.81167 0.54632
 C445 C 0.70652 0.85533 0.52804
 H446 H 0.69404 0.86739 0.52246
 C447 C 0.70104 0.84119 0.54526
 H448 H 0.68441 0.84270 0.55291
 Zn449 Zn 0.73575 0.87353 0.49569
 N450 N 0.72747 0.85401 0.51848
 C451 C 0.77021 0.88808 0.52463
 N452 N 0.76026 0.89101 0.50470
 C453 C 0.76703 0.90708 0.49078
 C454 C 0.78481 0.92075 0.49650
 C455 C 0.78811 0.90130 0.53102
 C456 C 0.72928 0.84255 0.46377
 C457 C 0.73469 0.82988 0.44588
 C458 C 0.77193 0.84639 0.44466
 C459 C 0.76575 0.85875 0.46255
 N460 N 0.74459 0.85686 0.47151
 H461 H 0.76428 0.87557 0.53570
 H462 H 0.75859 0.90922 0.47513
 H463 H 0.78966 0.93308 0.48475
 H464 H 0.79582 0.89856 0.54696
 H465 H 0.71271 0.84110 0.47147
 H466 H 0.72185 0.81888 0.44034
 H467 H 0.78884 0.84833 0.43774
 H468 H 0.77792 0.86982 0.46924
 C469 C 0.71718 0.82550 0.55267
 C470 C 0.67493 0.92135 0.47791
 C471 C 0.75632 0.83178 0.43587
 C472 C 0.79574 0.91796 0.51696
 C473 C 0.01434 0.22490 0.42045
 H474 H 0.02967 0.23453 0.42030
 C475 C 0.01196 0.20816 0.43592
 H476 H 0.02560 0.20491 0.44766
 C477 C -0.02211 0.21760 0.40537
 H478 H -0.03544 0.22142 0.39355
 C479 C -0.02521 0.20070 0.42056
 H480 H -0.04074 0.19146 0.41968
 N481 N -0.00247 0.22915 0.40544
 C482 C 0.03264 0.26065 0.35104
 H483 H 0.02275 0.27563 0.34934
 C484 C 0.05063 0.25638 0.33672
 H485 H 0.05417 0.26821 0.32397
 C486 C 0.03894 0.22671 0.36921
 H487 H 0.03408 0.21497 0.38159
 C488 C 0.05700 0.22177 0.35525
 H489 H 0.06605 0.20633 0.35723
 Zn490 Zn 0.00219 0.25239 0.38535
 N491 N 0.02732 0.24599 0.36704
 C492 C 0.02763 0.28846 0.39985
 N493 N 0.00786 0.27727 0.40194
 C494 C -0.00826 0.28298 0.41673
 C495 C -0.00512 0.30093 0.42979
 C496 C 0.03156 0.30650 0.41265
 C497 C -0.03002 0.24114 0.35353
 C498 C -0.04903 0.24395 0.33971
 C499 C -0.05482 0.27984 0.35396
 C500 C -0.03575 0.27632 0.36746
 N501 N -0.02395 0.25710 0.36724
 H502 H 0.04049 0.28337 0.38836
 H503 H -0.02367 0.27356 0.41832
 H504 H -0.01835 0.30519 0.44134
 H505 H 0.04744 0.31493 0.41026
 H506 H -0.02008 0.22614 0.35341
 H507 H -0.05329 0.23077 0.32925
 H508 H -0.06397 0.29530 0.35456
 H509 H -0.03034 0.28907 0.37798
 C510 C 0.06318 0.23672 0.33886
 C511 C -0.00803 0.19587 0.43621
 C512 C -0.06188 0.26358 0.33984
 C513 C 0.01498 0.31306 0.42794
 C514 C -0.01816 0.71292 0.08458
 H515 H -0.03459 0.72113 0.08228
 C516 C -0.01246 0.69504 0.07204
 H517 H -0.02501 0.68946 0.06055
 C518 C 0.01770 0.71039 0.10287
 H519 H 0.02958 0.71665 0.11460
 C520 C 0.02414 0.69247 0.09060
 H521 H 0.04090 0.68495 0.09321
 N522 N -0.00323 0.72013 0.09974
 C523 C -0.04738 0.75587 0.14427
 H524 H -0.03940 0.77159 0.14391
 C525 C -0.06647 0.75229 0.15747
 H526 H -0.07325 0.76555 0.16686
 C527 C -0.04821 0.71969 0.13210
 H528 H -0.04084 0.70686 0.12255
 C529 C -0.06735 0.71544 0.14495
 H530 H -0.07467 0.69941 0.14494
 Zn531 Zn -0.01233 0.74526 0.11485
 N532 N -0.03875 0.73971 0.13182
 C533 C -0.03878 0.77774 0.09131
 N534 N -0.01822 0.76710 0.09333
 C535 C -0.00085 0.77109 0.07923
 C536 C -0.00356 0.78666 0.06257
 C537 C -0.04230 0.79349 0.07480
 C538 C 0.01821 0.74028 0.15020
 C539 C 0.03587 0.74595 0.16432
 C540 C 0.03830 0.78039 0.14495
 C541 C 0.02068 0.77401 0.13119
 N542 N 0.01130 0.75409 0.13378
 H543 H -0.05253 0.77398 0.10241
 H544 H 0.01521 0.76213 0.08104
 H545 H 0.01067 0.78960 0.05167
 H546 H -0.05884 0.80161 0.07390
 H547 H 0.01010 0.72471 0.15218
 H548 H 0.04082 0.73434 0.17699
 H549 H 0.04562 0.79629 0.14238
 H550 H 0.01452 0.78505 0.11847
 C551 C -0.07661 0.73175 0.15799
 C552 C 0.00910 0.68471 0.07480
 C553 C 0.04643 0.76627 0.16167
 C554 C -0.02444 0.79824 0.06009
 C555 C 0.50436 0.22008 0.61140
 H556 H 0.48896 0.23015 0.61060
 C557 C 0.50825 0.20443 0.59572
 H558 H 0.49578 0.20295 0.58279
 C559 C 0.53966 0.21091 0.62886
 H560 H 0.55201 0.21370 0.64161
 C561 C 0.54424 0.19504 0.61351
 H562 H 0.56007 0.18558 0.61471
 N563 N 0.51980 0.22282 0.62771
 C564 C 0.47956 0.25069 0.68012
 H565 H 0.48871 0.26552 0.68279
 C566 C 0.46036 0.24577 0.69269
 H567 H 0.45483 0.25723 0.70471
 C568 C 0.47582 0.21816 0.66071
 H569 H 0.48202 0.20728 0.64844
 C570 C 0.45660 0.21259 0.67289
 H571 H 0.44806 0.19751 0.66969
 Zn572 Zn 0.51281 0.24470 0.64788
 N573 N 0.48670 0.23707 0.66431
 C574 C 0.48671 0.28161 0.63254
 N575 N 0.50710 0.27065 0.63147
 C576 C 0.52385 0.27729 0.61770
 C577 C 0.52067 0.29592 0.60457
 C578 C 0.48275 0.30031 0.61968
 C579 C 0.54300 0.23150 0.68155
 C580 C 0.56068 0.23352 0.69676
 C581 C 0.56622 0.27023 0.68341
 C582 C 0.54840 0.26748 0.66852
 N583 N 0.53740 0.24826 0.66766
 H584 H 0.47335 0.27578 0.64315
 H585 H 0.53975 0.26801 0.61689
 H586 H 0.53454 0.30043 0.59394
 H587 H 0.46634 0.30875 0.62083
 H588 H 0.53367 0.21651 0.68081
 H589 H 0.56487 0.21986 0.70759
 H590 H 0.57427 0.28585 0.68345
 H591 H 0.54327 0.28085 0.65780
 C592 C 0.44861 0.22642 0.68912
 C593 C 0.52833 0.19143 0.59683
 C594 C 0.57275 0.25303 0.69785
 C595 C 0.49980 0.30783 0.60541
 C596 C 0.49637 0.71941 0.90517
 H597 H 0.51253 0.72712 0.90838
 C598 C 0.49014 0.70111 0.91738
 H599 H 0.50155 0.69513 0.93019
 C600 C 0.46153 0.71881 0.88520
 H601 H 0.45024 0.72596 0.87290
 C602 C 0.45455 0.70050 0.89711
 H603 H 0.43802 0.69356 0.89370
 N604 N 0.48231 0.72764 0.88917
 C605 C 0.52938 0.76141 0.84538
 H606 H 0.52204 0.77767 0.84498
 C607 C 0.54887 0.75667 0.83303
 H608 H 0.55644 0.76965 0.82356
 C609 C 0.52813 0.72499 0.85843
 H610 H 0.51980 0.71252 0.86796
 C611 C 0.54753 0.71955 0.84638
 H612 H 0.55404 0.70296 0.84702
 Zn613 Zn 0.49251 0.75257 0.87364
 N614 N 0.51954 0.74568 0.85790
 C615 C 0.51832 0.78402 0.89665
 N616 N 0.49785 0.77404 0.89456
 C617 C 0.48017 0.77842 0.90818
 C618 C 0.48251 0.79362 0.92446
 C619 C 0.52143 0.79947 0.91270
 C620 C 0.46406 0.74915 0.83707
 C621 C 0.44698 0.75534 0.82203
 C622 C 0.44274 0.78944 0.84036
 C623 C 0.45984 0.78253 0.85507
 N624 N 0.46983 0.76252 0.85342
 H625 H 0.53235 0.77994 0.88599
 H626 H 0.46417 0.77001 0.90635
 H627 H 0.46807 0.79680 0.93503
 H628 H 0.53798 0.80693 0.91381
 H629 H 0.47260 0.73348 0.83590
 H630 H 0.44298 0.74405 0.80947
 H631 H 0.43488 0.80537 0.84220
 H632 H 0.46505 0.79318 0.86784
 C633 C 0.55813 0.73539 0.83335
 C634 C 0.46909 0.69121 0.91317
 C635 C 0.43576 0.77575 0.82367
 C636 C 0.50328 0.80454 0.92695
 C637 C 0.17920 0.23345 0.24347
 C638 C 0.16682 0.21914 0.25664
 C639 C 0.14767 0.22627 0.27039
 N640 N 0.13636 0.21139 0.28265
 N641 N 0.11912 0.21746 0.29542
 C642 C 0.11253 0.23867 0.29641
 N643 N 0.12382 0.25358 0.28411
 N644 N 0.14109 0.24750 0.27134
 C645 C 0.09358 0.24557 0.31057
 C646 C 0.08219 0.23080 0.32408
 H647 H 0.17091 0.20194 0.25674
 H648 H 0.08906 0.26267 0.31061
 H649 H 0.17380 0.25037 0.24237
 H650 H 0.08797 0.21397 0.32439
 C651 C 0.67270 0.72410 0.73706
 C652 C 0.66316 0.71150 0.75378
 C653 C 0.64388 0.71955 0.76698
 N654 N 0.63509 0.70669 0.78299
 N655 N 0.61751 0.71364 0.79491
 C656 C 0.60804 0.73373 0.79127
 N657 N 0.61686 0.74661 0.77529
 N658 N 0.63445 0.73966 0.76339
 C659 C 0.58835 0.74156 0.80406
 C660 C 0.57858 0.72887 0.82058
 H661 H 0.66938 0.69513 0.75716
 H662 H 0.58127 0.75743 0.79981
 H663 H 0.66534 0.74012 0.73372
 H664 H 0.58586 0.71281 0.82390
 C665 C 0.32605 0.78872 0.72283
 C666 C 0.33539 0.80173 0.73882
 C667 C 0.35427 0.79366 0.75306
 N668 N 0.36332 0.80669 0.76828
 N669 N 0.38055 0.79955 0.78107
 C670 C 0.38937 0.77912 0.77908
 N671 N 0.38031 0.76612 0.76387
 N672 N 0.36310 0.77324 0.75111
 C673 C 0.40838 0.77080 0.79297
 C674 C 0.41795 0.78302 0.80954
 H675 H 0.32945 0.81832 0.74060
 H676 H 0.41433 0.75446 0.78998
 H677 H 0.33322 0.77252 0.72098
 H678 H 0.41079 0.79916 0.81191
 C679 C -0.18037 0.26353 0.24717
 C680 C -0.17067 0.27643 0.26317
 C681 C -0.14975 0.27014 0.27543
 N682 N -0.14120 0.28402 0.29009
 N683 N -0.12240 0.27880 0.30156
 C684 C -0.11139 0.25945 0.29885
 N685 N -0.11994 0.24551 0.28418
 N686 N -0.13878 0.25075 0.27266
 C687 C -0.09063 0.25352 0.31163
 C688 C -0.08134 0.26779 0.32663
 H689 H -0.17798 0.29207 0.26700
 H690 H -0.08294 0.23774 0.30896
 H691 H -0.17144 0.24850 0.24340
 H692 H -0.08992 0.28343 0.32825
 C693 C -0.18212 0.72333 0.26322
 C694 C -0.17757 0.71370 0.24330
 C695 C -0.15829 0.72037 0.22942
 N696 N -0.15418 0.70999 0.21056
 N697 N -0.13667 0.71565 0.19792
 C698 C -0.12262 0.73193 0.20366
 N699 N -0.12679 0.74237 0.22248
 N700 N -0.14428 0.73669 0.23514
 C701 C -0.10301 0.73819 0.19002
 C702 C -0.09686 0.72671 0.17153
 H703 H -0.18841 0.70106 0.23737
 H704 H -0.09276 0.75156 0.19528
 H705 H -0.17158 0.73669 0.26813
 H706 H -0.10661 0.71256 0.16743
 C707 C 0.33095 0.21449 0.78192
 C708 C 0.33928 0.20441 0.76326
 C709 C 0.36044 0.21125 0.75235
 N710 N 0.36734 0.20111 0.73408
 N711 N 0.38638 0.20707 0.72386
 C712 C 0.39926 0.22339 0.73153
 N713 N 0.39238 0.23353 0.74983
 N714 N 0.37332 0.22757 0.76005
 C715 C 0.42027 0.23020 0.72031
 C716 C 0.42783 0.22020 0.70141
 H717 H 0.33038 0.19123 0.75593
 H718 H 0.42985 0.24315 0.72736
 H719 H 0.34085 0.22771 0.78821
 H720 H 0.41818 0.20671 0.69537
 C721 C 0.69164 0.29241 0.77826
 C722 C 0.67577 0.27561 0.77850
 C723 C 0.65717 0.27487 0.76220
 N724 N 0.64311 0.25757 0.76183
 N725 N 0.62634 0.25666 0.74706
 C726 C 0.62300 0.27306 0.73214
 N727 N 0.63699 0.29038 0.73258
 N728 N 0.65376 0.29127 0.74731
 C729 C 0.60464 0.27247 0.71563
 C730 C 0.59055 0.25450 0.71334
 H731 H 0.67684 0.26239 0.79031
 H732 H 0.60288 0.28659 0.70500
 H733 H 0.68964 0.30478 0.76551
 H734 H 0.59378 0.24060 0.72414
 C735 C 0.16096 0.77732 0.25665
 C736 C 0.15010 0.79053 0.24081
 C737 C 0.13069 0.78269 0.22790
 N738 N 0.12040 0.79592 0.21266
 N739 N 0.10276 0.78900 0.20098
 C740 C 0.09475 0.76859 0.20414
 N741 N 0.10504 0.75540 0.21938
 N742 N 0.12267 0.76230 0.23103
 C743 C 0.07534 0.76056 0.19140
 C744 C 0.06467 0.77311 0.17484
 H745 H 0.15531 0.80710 0.23805
 H746 H 0.06998 0.74424 0.19520
 H747 H 0.15455 0.76111 0.25951
 H748 H 0.07125 0.78921 0.17166
 C749 C 0.24346 0.18113 0.22891
 C750 C 0.25589 0.16829 0.21455
 C751 C 0.26775 0.14807 0.22187
 N752 N 0.27829 0.13522 0.20717
 N753 N 0.28892 0.11681 0.21357
 C754 C 0.28941 0.11055 0.23493
 N755 N 0.27891 0.12341 0.24963
 N756 N 0.26827 0.14181 0.24323
 C757 C 0.30121 0.09033 0.24234
 C758 C 0.31226 0.07651 0.22789
 H759 H 0.25628 0.17255 0.19737
 H760 H 0.30165 0.08679 0.25965
 H761 H 0.24221 0.17572 0.24577
 H762 H 0.31230 0.08104 0.21074
 C763 C 0.73801 0.67281 0.71959
 C764 C 0.75019 0.66106 0.70411
 C765 C 0.76538 0.64243 0.70983
 N766 N 0.77660 0.63184 0.69383
 N767 N 0.79075 0.61516 0.69860
 C768 C 0.79425 0.60845 0.71959
 N769 N 0.78299 0.61901 0.73561
 N770 N 0.76883 0.63572 0.73083
 C771 C 0.80995 0.59009 0.72511
 C772 C 0.82240 0.57917 0.70920
 H773 H 0.74852 0.66543 0.68701
 H774 H 0.81190 0.58556 0.74212
 H775 H 0.73849 0.66722 0.73644
 H776 H 0.82081 0.58486 0.69243
 C777 C 0.76039 0.33278 0.79954
 C778 C 0.76260 0.34412 0.77972
 C779 C 0.77850 0.36219 0.77678
 N780 N 0.77940 0.37294 0.75729
 N781 N 0.79362 0.38941 0.75431
 C782 C 0.80750 0.39573 0.77072
 N783 N 0.80662 0.38495 0.79021
 N784 N 0.79237 0.36850 0.79321
 C785 C 0.82342 0.41381 0.76768
 C786 C 0.82406 0.42617 0.74828
 H787 H 0.75274 0.33957 0.76564
 H788 H 0.83448 0.41718 0.78127
 H789 H 0.77147 0.33688 0.81298
 H790 H 0.81199 0.42220 0.73555
 C791 C 0.22431 -0.17319 0.27419
 C792 C 0.24202 -0.16466 0.28670
 C793 C 0.25462 -0.14520 0.27979
 N794 N 0.27076 -0.13711 0.29319
 N795 N 0.28243 -0.11958 0.28729
 C796 C 0.27845 -0.10946 0.26772
 N797 N 0.26233 -0.11756 0.25428
 N798 N 0.25061 -0.13509 0.26020
 C799 C 0.29143 -0.09016 0.26091
 C800 C 0.30748 -0.08084 0.27475
 H801 H 0.24699 -0.17188 0.30222
 H802 H 0.28801 -0.08353 0.24478
 H803 H 0.21992 -0.16467 0.25905
 H804 H 0.30960 -0.08812 0.29089
 C805 C 0.25962 -0.16335 0.69836
 C806 C 0.25884 -0.14940 0.71603
 C807 C 0.24097 -0.13223 0.71754
 N808 N 0.24088 -0.11861 0.73460
 N809 N 0.22475 -0.10310 0.73613
 C810 C 0.20808 -0.10067 0.72067
 N811 N 0.20817 -0.11430 0.70365
 N812 N 0.22429 -0.12977 0.70211
 C813 C 0.19012 -0.08365 0.72193
 C814 C 0.18904 -0.06903 0.73895
 H815 H 0.27125 -0.15070 0.72911
 H816 H 0.17731 -0.08302 0.70914
 H817 H 0.24675 -0.16068 0.68572
 H818 H 0.20144 -0.07080 0.75210
 C819 C 0.75212 0.31202 0.23322
 C820 C 0.73800 0.32358 0.21846
 C821 C 0.72591 0.34373 0.22450
 N822 N 0.71371 0.35542 0.20928
 N823 N 0.70298 0.37386 0.21449
 C824 C 0.70405 0.38128 0.23512
 N825 N 0.71619 0.36956 0.25034
 N826 N 0.72693 0.35114 0.24514
 C827 C 0.69244 0.40164 0.24119
 C828 C 0.67982 0.41444 0.22620
 H829 H 0.73647 0.31843 0.20181
 H830 H 0.69359 0.40625 0.25803
 H831 H 0.75443 0.31835 0.24938
 H832 H 0.67800 0.40882 0.20971
 C833 C 0.75814 0.67042 0.29012
 C834 C 0.75654 0.65759 0.27175
 C835 C 0.74272 0.63779 0.27201
 N836 N 0.73937 0.62669 0.25346
 N837 N 0.72624 0.60918 0.25351
 C838 C 0.71603 0.60214 0.27216
 N839 N 0.71953 0.61316 0.29069
 N840 N 0.73261 0.63063 0.29063
 C841 C 0.70080 0.58336 0.27266
 C842 C 0.69580 0.57138 0.25420
 H843 H 0.76445 0.66261 0.25660
 H844 H 0.69334 0.57943 0.28826
 H845 H 0.74890 0.66551 0.30463
 H846 H 0.70456 0.57569 0.23923
 C847 C 0.26171 0.16955 0.78974
 C848 C 0.24445 0.15945 0.80170
 C849 C 0.23108 0.14169 0.79264
 N850 N 0.21443 0.13220 0.80470
 N851 N 0.20232 0.11605 0.79670
 C852 C 0.20642 0.10878 0.77634
 N853 N 0.22306 0.11827 0.76431
 N854 N 0.23515 0.13442 0.77229
 C855 C 0.19337 0.09086 0.76721
 C856 C 0.17552 0.08091 0.77859
 H857 H 0.24083 0.16411 0.81820
 H858 H 0.19817 0.08585 0.75113
 H859 H 0.26538 0.16372 0.77359
 H860 H 0.17129 0.08715 0.79446
 C861 C 0.22954 0.24520 0.17829
 C862 C 0.21526 0.26071 0.16785
 C863 C 0.22248 0.27329 0.14847
 N864 N 0.20793 0.28837 0.13930
 N865 N 0.21410 0.29992 0.12176
 C866 C 0.23508 0.29681 0.11270
 N867 N 0.24963 0.28172 0.12187
 N868 N 0.24347 0.27019 0.13944
 C869 C 0.24208 0.30932 0.09318
 C870 C 0.22781 0.32526 0.08340
 H871 H 0.19804 0.26368 0.17362
 H872 H 0.25866 0.30541 0.08639
 H873 H 0.24625 0.24182 0.17138
 H874 H 0.21114 0.32831 0.09053
 C875 C 0.71972 0.73644 0.67014
 C876 C 0.70372 0.74963 0.65886
 C877 C 0.70990 0.76230 0.63921
 N878 N 0.69351 0.77385 0.62797
 N879 N 0.69890 0.78551 0.61025
 C880 C 0.72090 0.78606 0.60312
 N881 N 0.73729 0.77453 0.61437
 N882 N 0.73190 0.76285 0.63207
 C883 C 0.72730 0.79911 0.58379
 C884 C 0.71119 0.81120 0.57146
 H885 H 0.68605 0.75036 0.66410
 H886 H 0.74531 0.79957 0.57978
 H887 H 0.73690 0.73481 0.66366
 H888 H 0.69339 0.81103 0.57646
 C889 C 0.76673 0.74059 0.32614
 C890 C 0.78020 0.75663 0.33514
 C891 C 0.77202 0.76955 0.35353
 N892 N 0.78608 0.78394 0.36299
 N893 N 0.77897 0.79536 0.37993
 C894 C 0.75751 0.79280 0.38803
 N895 N 0.74344 0.77849 0.37850
 N896 N 0.75055 0.76707 0.36159
 C897 C 0.74932 0.80500 0.40688
 C898 C 0.76309 0.81977 0.41766
 H899 H 0.79747 0.75919 0.32941
 H900 H 0.73200 0.80194 0.41204
 H901 H 0.75001 0.73765 0.33310
 H902 H 0.78023 0.82219 0.41142
 C903 C 0.27705 0.22898 -0.15790
 C904 C 0.29191 0.24162 -0.14583
 C905 C 0.28396 0.25494 -0.12769
 N906 N 0.29891 0.26802 -0.11755
 N907 N 0.29196 0.28057 -0.10141
 C908 C 0.26978 0.28049 -0.09475
 N909 N 0.25486 0.26729 -0.10479
 N910 N 0.26180 0.25478 -0.12099
 C911 C 0.26172 0.29460 -0.07723
 C912 C 0.27579 0.31028 -0.06823
 H913 H 0.30999 0.24194 -0.14960
 H914 H 0.24411 0.29288 -0.07225
 H915 H 0.25929 0.22805 -0.15293
 H916 H 0.29302 0.31159 -0.07461
 C917 C 0.73825 0.26802 -0.15654
 C918 C 0.72136 0.25624 -0.14574
 C919 C 0.72660 0.24182 -0.12685
 N920 N 0.70934 0.23155 -0.11636
 N921 N 0.71376 0.21835 -0.09931
 C922 C 0.73562 0.21491 -0.09211
 N923 N 0.75289 0.22518 -0.10261
 N924 N 0.74847 0.23840 -0.11965
 C925 C 0.74082 0.20014 -0.07346
 C926 C 0.72362 0.18906 -0.06232
 H927 H 0.70359 0.25797 -0.15076
 H928 H 0.75864 0.19759 -0.06903
 H929 H 0.75565 0.26724 -0.15025
 H930 H 0.70603 0.19137 -0.06780
 C931 C 0.20700 0.76308 0.32325
 C932 C 0.22847 0.76010 0.33312
 C933 C 0.23203 0.74482 0.35167
 N934 N 0.25352 0.74048 0.35938
 N935 N 0.25696 0.72636 0.37590
 C936 C 0.23900 0.71609 0.38533
 N937 N 0.21751 0.72052 0.37769
 N938 N 0.21409 0.73459 0.36116
 C939 C 0.24234 0.70035 0.40349
 C940 C 0.26403 0.69450 0.41166
 H941 H 0.24328 0.76824 0.32654
 H942 H 0.22711 0.69357 0.41069
 H943 H 0.19281 0.75355 0.32921
 H944 H 0.27891 0.70237 0.40481
 C945 C 0.28494 0.77698 0.65265
 C946 C 0.30149 0.76297 0.64403
 C947 C 0.29694 0.75000 0.62473
 N948 N 0.31321 0.73590 0.61754
 N949 N 0.30917 0.72371 0.60034
 C950 C 0.28871 0.72521 0.58969
 N951 N 0.27249 0.73939 0.59682
 N952 N 0.27651 0.75154 0.61403
 C953 C 0.28372 0.71164 0.57090
 C954 C 0.29915 0.69568 0.56373
 H955 H 0.31831 0.76131 0.65142
 H956 H 0.26717 0.71426 0.56325
 H957 H 0.26872 0.77916 0.64412
 H958 H 0.31531 0.69374 0.57244
 C959 C 0.76489 0.24654 0.18791
 C960 C 0.77896 0.23168 0.17717
 C961 C 0.77058 0.21922 0.15864
 N962 N 0.78500 0.20532 0.14839
 N963 N 0.77779 0.19420 0.13139
 C964 C 0.75586 0.19657 0.12399
 N965 N 0.74142 0.21044 0.13427
 N966 N 0.74864 0.22155 0.15127
 C967 C 0.74769 0.18471 0.10495
 C968 C 0.76191 0.17009 0.09395
 H969 H 0.79679 0.22953 0.18176
 H970 H 0.73021 0.18792 0.09978
 H971 H 0.74741 0.24897 0.18216
 H972 H 0.77911 0.16737 0.10036
 C973 C 0.50118 0.41665 0.50779
 C974 C 0.48626 0.40857 0.52359
 C975 C 0.49272 0.38997 0.53795
 N976 N 0.47731 0.38180 0.55230
 N977 N 0.48283 0.36472 0.56511
 C978 C 0.50398 0.35519 0.56404
 N979 N 0.51940 0.36341 0.54976
 N980 N 0.51388 0.38047 0.53695
 C981 C 0.51034 0.33606 0.57771
 C982 C 0.49508 0.32660 0.59250
 H983 H 0.46909 0.41532 0.52503
 H984 H 0.52746 0.32952 0.57560
 H985 H 0.51778 0.40871 0.50598
 H986 H 0.47830 0.33428 0.59403
 C987 C -0.06528 0.90607 -0.03154
 C988 C -0.04630 0.89235 -0.02771
 C989 C -0.04650 0.87494 -0.01090
 N990 N -0.02731 0.86267 -0.00696
 N991 N -0.02705 0.84723 0.00858
 C992 C -0.04600 0.84348 0.02080
 N993 N -0.06522 0.85569 0.01680
 N994 N -0.06548 0.87113 0.00125
 C995 C -0.04586 0.82680 0.03837
 C996 C -0.02633 0.81399 0.04316
 H997 H -0.03045 0.89494 -0.03638
 H998 H -0.06148 0.82505 0.04754
 H999 H -0.08048 0.90371 -0.02177
 H1000 H -0.01138 0.81648 0.03304
 C1001 C 0.02397 0.58404 -0.02731
 C1002 C 0.03537 0.58957 -0.00822
 C1003 C 0.02764 0.60798 0.00490
 N1004 N 0.03883 0.61256 0.02363
 N1005 N 0.03202 0.62923 0.03561
 C1006 C 0.01379 0.64194 0.02927
 N1007 N 0.00262 0.63736 0.01056
 N1008 N 0.00940 0.62069 -0.00140
 C1009 C 0.00601 0.66049 0.04213
 C1010 C 0.01644 0.66590 0.06173
 H1011 H 0.05051 0.58063 -0.00271
 H1012 H -0.00805 0.67028 0.03550
 H1013 H 0.00933 0.59396 -0.03258
 H1014 H 0.03122 0.65641 0.06740
 C1015 C 0.52128 0.09118 0.49358
 C1016 C 0.53783 0.09994 0.50718
 C1017 C 0.53229 0.11715 0.52261
 N1018 N 0.54915 0.12546 0.53505
 N1019 N 0.54440 0.14089 0.54928
 C1020 C 0.52258 0.14855 0.55162
 N1021 N 0.50573 0.14025 0.53917
 N1022 N 0.51048 0.12483 0.52494
 C1023 C 0.51695 0.16551 0.56730
 C1024 C 0.53351 0.17447 0.58075
 H1025 H 0.55550 0.09439 0.50639
 H1026 H 0.49915 0.17054 0.56847
 H1027 H 0.50406 0.09810 0.49357
 H1028 H 0.55098 0.16825 0.58003
 C1029 C -0.05683 0.08524 0.51937
 C1030 C -0.03643 0.09650 0.51679
 C1031 C -0.03505 0.11561 0.50203
 N1032 N -0.01448 0.12479 0.49797
 N1033 N -0.01298 0.14172 0.48416
 C1034 C -0.03201 0.15010 0.47395
 N1035 N -0.05256 0.14100 0.47813
 N1036 N -0.05406 0.12408 0.49189
 C1037 C -0.03072 0.16843 0.45825
 C1038 C -0.00999 0.17796 0.45259
 H1039 H -0.02084 0.09062 0.52473
 H1040 H -0.04666 0.17443 0.45112
 H1041 H -0.07179 0.09075 0.51011
 H1042 H 0.00555 0.17236 0.46088
 C1043 C 0.46697 0.57622 1.00393
 C1044 C 0.45060 0.58758 0.99127
 C1045 C 0.45735 0.60508 0.97597
 N1046 N 0.44116 0.61803 0.96602
 N1047 N 0.44724 0.63451 0.95297
 C1048 C 0.46975 0.63861 0.94937
 N1049 N 0.48589 0.62555 0.95915
 N1050 N 0.47981 0.60912 0.97220
 C1051 C 0.47704 0.65718 0.93581
 C1052 C 0.46159 0.67178 0.92567
 H1053 H 0.43251 0.58474 0.99361
 H1054 H 0.49529 0.65935 0.93392
 H1055 H 0.48484 0.58041 1.00213
 H1056 H 0.44340 0.66857 0.92637
 C1057 C 0.54137 0.90708 1.01981
 C1058 C 0.52428 0.89167 1.01713
 C1059 C 0.52444 0.87641 0.99901
 N1060 N 0.50655 0.86294 0.99642
 N1061 N 0.50629 0.84901 0.98016
 C1062 C 0.52396 0.84799 0.96587
 N1063 N 0.54191 0.86142 0.96850
 N1064 N 0.54214 0.87539 0.98475
 C1065 C 0.52388 0.83262 0.94782
 C1066 C 0.50488 0.81975 0.94364
 H1067 H 0.50992 0.89063 1.02808
 H1068 H 0.53898 0.83198 0.93774
 H1069 H 0.55483 0.90761 1.00770
 H1070 H 0.49006 0.82182 0.95402
 C1071 C 0.06186 0.42920 0.49800
 C1072 C 0.04199 0.41698 0.49646
 C1073 C 0.04079 0.39798 0.48240
 N1074 N 0.02130 0.38632 0.48163
 N1075 N 0.01992 0.36918 0.46887
 C1076 C 0.03798 0.36308 0.45638
 N1077 N 0.05746 0.37475 0.45715
 N1078 N 0.05885 0.39186 0.46993
 C1079 C 0.03676 0.34430 0.44204
 C1080 C 0.01750 0.33109 0.44140
 H1081 H 0.02669 0.42145 0.50524
 H1082 H 0.05161 0.34107 0.43213
 H1083 H 0.07652 0.42447 0.48830
 H1084 H 0.00347 0.33500 0.45223
 C1085 C 0.45346 0.48216 0.48582
 C1086 C 0.44251 0.49572 0.47028
 C1087 C 0.42388 0.51097 0.47597
 N1088 N 0.41430 0.52419 0.46032
 N1089 N 0.39742 0.53810 0.46515
 C1090 C 0.38946 0.53930 0.48583
 N1091 N 0.39902 0.52606 0.50149
 N1092 N 0.41593 0.51217 0.49667
 C1093 C 0.37070 0.55447 0.49144
 C1094 C 0.36125 0.56936 0.47617
 H1095 H 0.44722 0.49508 0.45332
 H1096 H 0.36474 0.55374 0.50804
 H1097 H 0.44747 0.48252 0.50248
 H1098 H 0.36866 0.56969 0.46001
 C1099 C 0.90229 -0.02207 -0.05473
 C1100 C 0.88705 -0.02015 -0.03732
 C1101 C 0.87182 -0.00108 -0.03480
 N1102 N 0.85833 0.00016 -0.01695
 N1103 N 0.84444 0.01726 -0.01421
 C1104 C 0.84350 0.03379 -0.02922
 N1105 N 0.85697 0.03255 -0.04712
 N1106 N 0.87091 0.01543 -0.04985
 C1107 C 0.82797 0.05264 -0.02641
 C1108 C 0.81430 0.05446 -0.00785
 H1109 H 0.88622 -0.03242 -0.02457
 H1110 H 0.82743 0.06483 -0.03932
 H1111 H 0.90254 -0.00876 -0.06659
 H1112 H 0.81610 0.04174 0.00457
 C1113 C 0.58013 -0.03091 0.05304
 C1114 C 0.59016 -0.02252 0.03416
 C1115 C 0.60666 -0.00474 0.03476
 N1116 N 0.61449 0.00419 0.01589
 N1117 N 0.62914 0.02051 0.01617
 C1118 C 0.63652 0.02854 0.03535
 N1119 N 0.62874 0.01958 0.05422
 N1120 N 0.61406 0.00327 0.05394
 C1121 C 0.65291 0.04643 0.03593
 C1122 C 0.66142 0.05605 0.01691
 H1123 H 0.58499 -0.02825 0.01839
 H1124 H 0.65889 0.05142 0.05170
 H1125 H 0.58449 -0.02391 0.06852
 H1126 H 0.65575 0.05003 0.00138
 C1127 C 0.10588 0.49354 0.51457
 C1128 C 0.11184 0.51276 0.52476
 C1129 C 0.13263 0.52468 0.51875
 N1130 N 0.13774 0.54323 0.52906
 N1131 N 0.15648 0.55420 0.52384
 C1132 C 0.17084 0.54701 0.50810
 N1133 N 0.16573 0.52847 0.49779
 N1134 N 0.14699 0.51750 0.50301
 C1135 C 0.19159 0.55894 0.50208
 C1136 C 0.19780 0.57790 0.51247
 H1137 H 0.10145 0.51957 0.53747
 H1138 H 0.20225 0.55225 0.48946
 H1139 H 0.11724 0.48779 0.50194
 H1140 H 0.18731 0.58352 0.52578
 C1141 C 0.06964 0.51592 -0.04068
 C1142 C 0.08259 0.50256 -0.05418
 C1143 C 0.10008 0.48716 -0.04535
 N1144 N 0.11311 0.47522 -0.05905
 N1145 N 0.12934 0.46158 -0.05127
 C1146 C 0.13310 0.45936 -0.02948
 N1147 N 0.12002 0.47123 -0.01578
 N1148 N 0.10381 0.48487 -0.02356
 C1149 C 0.15134 0.44486 -0.02054
 C1150 C 0.16536 0.43220 -0.03377
 H1151 H 0.08073 0.50390 -0.07169
 H1152 H 0.15358 0.44423 -0.00305
 H1153 H 0.07287 0.51493 -0.02329
 H1154 H 0.16180 0.43203 -0.05109
 C1155 C 0.56778 1.02760 0.47163
 C1156 C 0.57394 1.00941 0.45955
 C1157 C 0.59375 0.99532 0.46570
 N1158 N 0.59870 0.97743 0.45400
 N1159 N 0.61646 0.96447 0.45946
 C1160 C 0.62995 0.96893 0.47683
 N1161 N 0.62502 0.98683 0.48851
 N1162 N 0.60726 0.99978 0.48306
 C1163 C 0.64956 0.95475 0.48324
 C1164 C 0.65546 0.93613 0.47183
 H1165 H 0.56417 1.00477 0.44549
 H1166 H 0.65963 0.95947 0.49711
 H1167 H 0.57821 1.03084 0.48581
 H1168 H 0.64574 0.93249 0.45733
 C1169 C 0.90224 1.01795 0.53286
 C1170 C 0.89587 0.99860 0.54340
 C1171 C 0.87681 0.98563 0.53526
 N1172 N 0.86998 0.96780 0.54668
 N1173 N 0.85274 0.95595 0.53948
 C1174 C 0.84172 0.96148 0.52055
 N1175 N 0.84861 0.97926 0.50910
 N1176 N 0.86580 0.99112 0.51632
 C1177 C 0.82267 0.94864 0.51224
 C1178 C 0.81385 0.93097 0.52399
 H1179 H 0.90444 0.99268 0.55804
 H1180 H 0.81557 0.95377 0.49666
 H1181 H 0.89225 1.02314 0.51867
 H1182 H 0.82142 0.92713 0.53980
 C1183 C 0.41684 0.51901 0.03905
 C1184 C 0.40421 0.51367 0.02062
 C1185 C 0.38556 0.49787 0.02175
 N1186 N 0.37425 0.49249 0.00334
 N1187 N 0.35777 0.47778 0.00405
 C1188 C 0.35201 0.46788 0.02319
 N1189 N 0.36327 0.47332 0.04160
 N1190 N 0.37972 0.48803 0.04090
 C1191 C 0.33418 0.45125 0.02425
 C1192 C 0.32180 0.44532 0.00580
 H1193 H 0.40864 0.52026 0.00477
 H1194 H 0.33111 0.44380 0.04002
 H1195 H 0.41255 0.51132 0.05450
 H1196 H 0.32545 0.45387 -0.00938
 C1197 C 0.51701 0.45384 0.43738
 C1198 C 0.51867 0.47209 0.42361
 C1199 C 0.53271 0.47189 0.40377
 N1200 N 0.53371 0.48996 0.39080
 N1201 N 0.54630 0.49001 0.37276
 C1202 C 0.55838 0.47198 0.36703
 N1203 N 0.55740 0.45391 0.38002
 N1204 N 0.54479 0.45386 0.39804
 C1205 C 0.57239 0.47170 0.34716
 C1206 C 0.57335 0.48968 0.33285
 H1207 H 0.50993 0.48713 0.42744
 H1208 H 0.58178 0.45685 0.34406
 H1209 H 0.52699 0.43942 0.43356
 H1210 H 0.56324 0.50395 0.33692
 C1211 C -0.03349 -0.05414 0.90357
 C1212 C -0.02774 -0.03496 0.89250
 C1213 C -0.01032 -0.03432 0.87528
 N1214 N -0.00617 -0.01529 0.86461
 N1215 N 0.00973 -0.01425 0.84916
 C1216 C 0.02213 -0.03221 0.84382
 N1217 N 0.01801 -0.05126 0.85451
 N1218 N 0.00205 -0.05231 0.86994
 C1219 C 0.04008 -0.03118 0.82706
 C1220 C 0.04368 -0.01221 0.81465
 H1221 H -0.03564 -0.01964 0.89676
 H1222 H 0.05028 -0.04573 0.82473
 H1223 H -0.02445 -0.06902 0.89952
 H1224 H 0.03209 0.00145 0.81725
 C1225 C -0.03211 0.03422 0.58130
 C1226 C -0.01070 0.04315 0.58535
 C1227 C 0.00329 0.03648 0.60448
 N1228 N 0.02384 0.04582 0.60800
 N1229 N 0.03662 0.04001 0.62530
 C1230 C 0.02932 0.02461 0.63973
 N1231 N 0.00880 0.01524 0.63618
 N1232 N -0.00398 0.02107 0.61890
 C1233 C 0.04306 0.01802 0.65902
 C1234 C 0.06359 0.02799 0.66436
 H1235 H -0.00363 0.05506 0.57420
 H1236 H 0.03623 0.00550 0.66962
 H1237 H -0.03811 0.02157 0.59230
 H1238 H 0.06932 0.04147 0.65428
 C1239 C 0.49030 0.54137 0.07394
 C1240 C 0.48613 0.53222 0.09450
 C1241 C 0.50395 0.53107 0.11157
 N1242 N 0.49950 0.52132 0.13108
 N1243 N 0.51553 0.52005 0.14662
 C1244 C 0.53659 0.52855 0.14323
 N1245 N 0.54099 0.53838 0.12376
 N1246 N 0.52498 0.53961 0.10821
 C1247 C 0.55461 0.52703 0.16006
 C1248 C 0.55175 0.51529 0.17951
 H1249 H 0.46944 0.52600 0.09855
 H1250 H 0.57084 0.53451 0.15645
 H1251 H 0.50698 0.54823 0.07084
 H1252 H 0.53590 0.50672 0.18212
 C1253 C 0.51058 -0.06178 0.08801
 C1254 C 0.50504 -0.04306 0.09938
 C1255 C 0.48826 -0.04266 0.11714
 N1256 N 0.48393 -0.02376 0.12736
 N1257 N 0.46902 -0.02294 0.14365
 C1258 C 0.45783 -0.04100 0.15038
 N1259 N 0.46210 -0.05994 0.14013
 N1260 N 0.47707 -0.06077 0.12381
 C1261 C 0.44135 -0.04019 0.16846
 C1262 C 0.43747 -0.02110 0.17983
 H1263 H 0.51297 -0.02785 0.09502
 H1264 H 0.43263 -0.05494 0.17292
 H1265 H 0.50125 -0.07650 0.09144
 H1266 H 0.44731 -0.00695 0.17534
 C1267 C 1.03501 0.48000 0.55688
 C1268 C 1.02063 0.46566 0.56792
 C1269 C 1.00508 0.47284 0.58527
 N1270 N 0.99223 0.45810 0.59621
 N1271 N 0.97824 0.46430 0.61209
 C1272 C 0.97656 0.48550 0.61759
 N1273 N 0.98937 0.50025 0.60661
 N1274 N 1.00336 0.49405 0.59074
 C1275 C 0.96143 0.49262 0.63528
 C1276 C 0.94801 0.47808 0.64720
 H1277 H 1.02117 0.44853 0.56444
 H1278 H 0.96090 0.50974 0.63871
 H1279 H 1.03510 0.49681 0.56171
 H1280 H 0.94816 0.46120 0.64262
 C1281 C 1.01460 0.54784 0.90229
 C1282 C 1.01294 0.52965 0.88927
 C1283 C 0.99921 0.53020 0.86905
 N1284 N 0.99739 0.51203 0.85714
 N1285 N 0.98441 0.51214 0.83921
 C1286 C 0.97275 0.53044 0.83254
 N1287 N 0.97467 0.54861 0.84440
 N1288 N 0.98765 0.54851 0.86230
 C1289 C 0.95763 0.53071 0.81325
 C1290 C 0.95522 0.51254 0.80024
 H1291 H 1.02085 0.51432 0.89428
 H1292 H 0.94820 0.54564 0.80978
 H1293 H 1.00567 0.56265 0.89704
 H1294 H 0.96593 0.49840 0.80418
 C1295 C 0.49963 0.05263 0.42680
 C1296 C 0.49676 0.03372 0.41505
 C1297 C 0.48059 0.03268 0.39662
 N1298 N 0.47858 0.01391 0.38571
 N1299 N 0.46402 0.01266 0.36902
 C1300 C 0.45089 0.03013 0.36261
 N1301 N 0.45289 0.04890 0.37354
 N1302 N 0.46748 0.05017 0.39022
 C1303 C 0.43466 0.02901 0.34422
 C1304 C 0.43267 0.01025 0.33195
 H1305 H 0.50611 0.01898 0.41962
 H1306 H 0.42447 0.04344 0.34052
 H1307 H 0.48904 0.06676 0.42258
 H1308 H 0.44374 -0.00349 0.33642
   
