data_POSCAR
  _audit_creation_date              2014-09-24
  _audit_creation_method            'ToBaCCo'
  _symmetry_space_group_name_H-M    'P1'
  _symmetry_Int_Tables_number       1
  _symmetry_cell_setting            triclinic
  loop_
  _symmetry_equiv_pos_as_xyz
 x,y,z
_cell_length_a 96.9197
_cell_length_b 97.2300
_cell_length_c 97.6083
_cell_angle_alpha 89.911900
_cell_angle_beta 89.907500
_cell_angle_gamma 89.685800
loop_
  _atom_site_label
  _atom_site_type_symbol
  _atom_site_fract_x
  _atom_site_fract_y
  _atom_site_fract_z
N1 N 0.36052 0.32230 0.33628
 N2 N 0.36008 0.33127 0.32619
 C3 C 0.37069 0.32876 0.31758
 C4 C 0.37811 0.31758 0.32252
 C5 C 0.37134 0.31380 0.33442
 H6 H 0.37258 0.33431 0.30816
 H7 H 0.37396 0.30537 0.34117
 Cu8 Cu 0.34518 0.34480 0.32504
 Cu9 Cu 0.34669 0.32159 0.35075
 Cu10 Cu 0.32049 0.34580 0.34915
 N11 N 0.33045 0.35859 0.32449
 N12 N 0.32090 0.35876 0.33406
 C13 C 0.31172 0.36876 0.33133
 C14 C 0.31561 0.37530 0.31937
 C15 C 0.32763 0.36861 0.31530
 H16 H 0.30284 0.37110 0.33763
 H17 H 0.33362 0.37067 0.30618
 N18 N 0.32174 0.33190 0.36369
 N19 N 0.33168 0.32262 0.36440
 C20 C 0.32915 0.31418 0.37509
 C21 C 0.31696 0.31834 0.38132
 C22 C 0.31264 0.32964 0.37383
 H23 H 0.33540 0.30536 0.37782
 H24 H 0.30339 0.33565 0.37550
 H25 H 0.33092 0.32994 0.33933
 H26 H 0.34157 0.34210 0.34961
 N27 N 0.35472 0.81819 -0.17196
 N28 N 0.35857 0.82999 -0.17724
 C29 C 0.37099 0.82836 -0.18328
 C30 C 0.37518 0.81473 -0.18162
 C31 C 0.36442 0.80862 -0.17448
 H32 H 0.37660 0.83658 -0.18819
 H33 H 0.36356 0.79802 -0.17127
 Cu34 Cu 0.34683 0.84621 -0.17548
 Cu35 Cu 0.33796 0.81633 -0.16119
 Cu36 Cu 0.32645 0.84721 -0.14776
 N37 N 0.33363 0.86110 -0.17273
 N38 N 0.32573 0.86158 -0.16179
 C39 C 0.31744 0.87270 -0.16258
 C40 C 0.32018 0.87958 -0.17480
 C41 C 0.33062 0.87184 -0.18091
 H42 H 0.30983 0.87530 -0.15490
 H43 H 0.33546 0.87355 -0.19074
 N44 N 0.32290 0.82930 -0.13895
 N45 N 0.32631 0.81756 -0.14481
 C46 C 0.32255 0.80712 -0.13664
 C47 C 0.31668 0.81249 -0.12484
 C48 C 0.31695 0.82665 -0.12676
 H49 H 0.32453 0.79643 -0.13894
 H50 H 0.31348 0.83448 -0.11968
 H51 H 0.32739 0.83498 -0.16415
 H52 H 0.34334 0.83492 -0.15345
 N53 N 0.85886 0.32093 -0.16694
 N54 N 0.85852 0.33078 -0.17617
 C55 C 0.86836 0.32824 -0.18567
 C56 C 0.87507 0.31608 -0.18218
 C57 C 0.86876 0.31182 -0.17023
 H58 H 0.87033 0.33457 -0.19458
 H59 H 0.87124 0.30276 -0.16428
 Cu60 Cu 0.84493 0.34565 -0.17464
 Cu61 Cu 0.84645 0.32016 -0.15138
 Cu62 Cu 0.82193 0.34589 -0.14865
 N63 N 0.83074 0.35993 -0.17315
 N64 N 0.82187 0.35982 -0.16296
 C65 C 0.81309 0.37045 -0.16430
 C66 C 0.81654 0.37782 -0.17599
 C67 C 0.82789 0.37077 -0.18134
 H68 H 0.80478 0.37253 -0.15721
 H69 H 0.83351 0.37315 -0.19060
 N70 N 0.82365 0.33086 -0.13520
 N71 N 0.83302 0.32105 -0.13632
 C72 C 0.83124 0.31193 -0.12611
 C73 C 0.82019 0.31613 -0.11815
 C74 C 0.81565 0.32824 -0.12419
 H75 H 0.83743 0.30276 -0.12470
 H76 H 0.80686 0.33438 -0.12110
 H77 H 0.83040 0.33069 -0.16075
 H78 H 0.84258 0.34107 -0.15018
 N79 N 0.85941 0.82128 0.33611
 N80 N 0.85965 0.83079 0.32652
 C81 C 0.87038 0.82825 0.31806
 C82 C 0.87720 0.81650 0.32258
 C83 C 0.86990 0.81241 0.33407
 H84 H 0.87286 0.83432 0.30911
 H85 H 0.87201 0.80359 0.34050
 Cu86 Cu 0.84567 0.84535 0.32591
 Cu87 Cu 0.84536 0.82074 0.35035
 Cu88 Cu 0.81988 0.84566 0.34909
 N89 N 0.83084 0.85906 0.32517
 N90 N 0.82088 0.85897 0.33431
 C91 C 0.81204 0.86931 0.33172
 C92 C 0.81659 0.87648 0.32028
 C93 C 0.82862 0.86959 0.31639
 H94 H 0.80300 0.87138 0.33786
 H95 H 0.83530 0.87200 0.30786
 N96 N 0.82053 0.83135 0.36331
 N97 N 0.83027 0.82185 0.36386
 C98 C 0.82767 0.81341 0.37452
 C99 C 0.81568 0.81779 0.38096
 C100 C 0.81148 0.82921 0.37356
 H101 H 0.83386 0.80452 0.37717
 H102 H 0.80246 0.83550 0.37547
 H103 H 0.83028 0.83025 0.33867
 H104 H 0.84076 0.84151 0.35013
 N105 N 0.63861 0.68057 0.33397
 N106 N 0.63917 0.67140 0.32411
 C107 C 0.62935 0.67445 0.31476
 C108 C 0.62234 0.68617 0.31907
 C109 C 0.62850 0.68966 0.33133
 H110 H 0.62768 0.66883 0.30536
 H111 H 0.62585 0.69825 0.33786
 Cu112 Cu 0.65311 0.65682 0.32460
 Cu113 Cu 0.65142 0.68077 0.34925
 Cu114 Cu 0.67597 0.65482 0.35043
 N115 N 0.66694 0.64216 0.32531
 N116 N 0.67566 0.64148 0.33560
 C117 C 0.68433 0.63084 0.33367
 C118 C 0.68101 0.62447 0.32148
 C119 C 0.66986 0.63191 0.31643
 H120 H 0.69255 0.62803 0.34062
 H121 H 0.66460 0.63026 0.30681
 N122 N 0.67456 0.66934 0.36446
 N123 N 0.66521 0.67923 0.36393
 C124 C 0.66729 0.68797 0.37438
 C125 C 0.67854 0.68344 0.38187
 C126 C 0.68284 0.67153 0.37532
 H127 H 0.66120 0.69711 0.37627
 H128 H 0.69170 0.66526 0.37794
 H129 H 0.66740 0.67075 0.33956
 H130 H 0.65518 0.65977 0.34945
 N131 N 0.63978 0.18001 -0.16512
 N132 N 0.63988 0.17094 -0.17509
 C133 C 0.62925 0.17366 -0.18360
 C134 C 0.62215 0.18509 -0.17869
 C135 C 0.62916 0.18877 -0.16692
 H136 H 0.62705 0.16799 -0.19285
 H137 H 0.62683 0.19726 -0.16017
 Cu138 Cu 0.65424 0.15679 -0.17611
 Cu139 Cu 0.65366 0.18044 -0.15076
 Cu140 Cu 0.67876 0.15516 -0.15187
 N141 N 0.66829 0.14226 -0.17619
 N142 N 0.67775 0.14188 -0.16659
 C143 C 0.68625 0.13119 -0.16877
 C144 C 0.68204 0.12428 -0.18044
 C145 C 0.67051 0.13168 -0.18489
 H146 H 0.69487 0.12874 -0.16221
 H147 H 0.66423 0.12960 -0.19378
 N148 N 0.67820 0.16943 -0.13773
 N149 N 0.66864 0.17910 -0.13718
 C150 C 0.67142 0.18752 -0.12657
 C151 C 0.68337 0.18292 -0.12022
 C152 C 0.68730 0.17140 -0.12756
 H153 H 0.66545 0.19656 -0.12393
 H154 H 0.69622 0.16497 -0.12569
 H155 H 0.66910 0.17127 -0.16209
 H156 H 0.65787 0.15973 -0.15161
 N157 N 0.13701 0.67926 -0.16644
 N158 N 0.13608 0.66899 -0.17509
 C159 C 0.12551 0.67146 -0.18374
 C160 C 0.11956 0.68402 -0.18033
 C161 C 0.12714 0.68859 -0.16925
 H162 H 0.12268 0.66486 -0.19217
 H163 H 0.12573 0.69810 -0.16370
 Cu164 Cu 0.14929 0.65382 -0.17475
 Cu165 Cu 0.15127 0.68022 -0.15263
 Cu166 Cu 0.17617 0.65460 -0.15254
 N167 N 0.16412 0.64028 -0.17526
 N168 N 0.17453 0.64048 -0.16665
 C169 C 0.18331 0.63014 -0.16978
 C170 C 0.17816 0.62315 -0.18104
 C171 C 0.16595 0.62990 -0.18418
 H172 H 0.19293 0.62812 -0.16455
 H173 H 0.15896 0.62751 -0.19243
 N174 N 0.17592 0.66986 -0.13913
 N175 N 0.16640 0.67960 -0.13937
 C176 C 0.16905 0.68878 -0.12946
 C177 C 0.18081 0.68470 -0.12256
 C178 C 0.18489 0.67259 -0.12893
 H179 H 0.16285 0.69780 -0.12738
 H180 H 0.19391 0.66646 -0.12653
 H181 H 0.16589 0.66927 -0.16405
 H182 H 0.15561 0.65936 -0.15121
 N183 N 0.13890 0.18081 0.33640
 N184 N 0.13803 0.17185 0.32637
 C185 C 0.12742 0.17535 0.31818
 C186 C 0.12133 0.18719 0.32328
 C187 C 0.12891 0.19036 0.33487
 H188 H 0.12458 0.16993 0.30894
 H189 H 0.12734 0.19901 0.34165
 Cu190 Cu 0.15129 0.15691 0.32463
 Cu191 Cu 0.15313 0.17964 0.35048
 Cu192 Cu 0.17652 0.15260 0.34770
 N193 N 0.16448 0.14187 0.32311
 N194 N 0.17422 0.14011 0.33231
 C195 C 0.18202 0.12917 0.32879
 C196 C 0.17695 0.12382 0.31668
 C197 C 0.16580 0.13215 0.31338
 H198 H 0.19096 0.12564 0.33442
 H199 H 0.15919 0.13121 0.30453
 N200 N 0.17716 0.16631 0.36252
 N201 N 0.16828 0.17659 0.36367
 C202 C 0.17188 0.18438 0.37450
 C203 C 0.18365 0.17878 0.38037
 C204 C 0.18662 0.16731 0.37252
 H205 H 0.16665 0.19373 0.37760
 H206 H 0.19520 0.16030 0.37388
 H207 H 0.16766 0.16975 0.33852
 H208 H 0.15607 0.15870 0.34905
 N209 N 0.64152 0.32158 0.66312
 N210 N 0.64052 0.33041 0.67325
 C211 C 0.62984 0.32681 0.68134
 C212 C 0.62387 0.31506 0.67601
 C213 C 0.63158 0.31207 0.66443
 H214 H 0.62689 0.33208 0.69064
 H215 H 0.63014 0.30354 0.65750
 Cu216 Cu 0.65383 0.34517 0.67527
 Cu217 Cu 0.65602 0.32262 0.64932
 Cu218 Cu 0.67959 0.34914 0.65250
 N219 N 0.66701 0.36010 0.67685
 N220 N 0.67697 0.36168 0.66784
 C221 C 0.68482 0.37243 0.67157
 C222 C 0.67957 0.37784 0.68362
 C223 C 0.66826 0.36974 0.68666
 H224 H 0.69397 0.37574 0.66616
 H225 H 0.66153 0.37071 0.69543
 N226 N 0.68045 0.33540 0.63768
 N227 N 0.67140 0.32539 0.63640
 C228 C 0.67492 0.31758 0.62555
 C229 C 0.68682 0.32285 0.61974
 C230 C 0.69001 0.33416 0.62772
 H231 H 0.66949 0.30846 0.62236
 H232 H 0.69871 0.34094 0.62641
 H233 H 0.67048 0.33224 0.66156
 H234 H 0.65916 0.34356 0.65090
 N235 N 0.63934 0.82553 1.16701
 N236 N 0.64067 0.83537 1.17613
 C237 C 0.63069 0.83404 1.18565
 C238 C 0.62256 0.82288 1.18224
 C239 C 0.62835 0.81779 1.17030
 H240 H 0.62947 0.84063 1.19445
 H241 H 0.62505 0.80886 1.16463
 Cu242 Cu 0.65546 0.84882 1.17484
 Cu243 Cu 0.65234 0.82298 1.15207
 Cu244 Cu 0.67943 0.84595 1.14981
 N245 N 0.67117 0.86119 1.17368
 N246 N 0.68035 0.86007 1.16381
 C247 C 0.69020 0.86956 1.16562
 C248 C 0.68720 0.87700 1.17733
 C249 C 0.67499 0.87141 1.18215
 H250 H 0.69897 0.87090 1.15891
 H251 H 0.66953 0.87431 1.19136
 N252 N 0.67672 0.83092 1.13661
 N253 N 0.66650 0.82206 1.13761
 C254 C 0.66780 0.81265 1.12758
 C255 C 0.67940 0.81570 1.11989
 C256 C 0.68474 0.82741 1.12587
 H257 H 0.66087 0.80414 1.12603
 H258 H 0.69405 0.83268 1.12288
 H259 H 0.66909 0.83192 1.16198
 H260 H 0.65849 0.84320 1.15057
 N261 N 0.14063 0.32265 1.16402
 N262 N 0.13997 0.33170 1.17399
 C263 C 0.12942 0.32843 1.18237
 C264 C 0.12318 0.31668 1.17741
 C265 C 0.13056 0.31334 1.16571
 H266 H 0.12676 0.33391 1.19164
 H267 H 0.12880 0.30471 1.15897
 Cu268 Cu 0.15331 0.34651 1.17528
 Cu269 Cu 0.15493 0.32311 1.15000
 Cu270 Cu 0.17865 0.34963 1.15207
 N271 N 0.16676 0.36124 1.17637
 N272 N 0.17640 0.36264 1.16700
 C273 C 0.18437 0.37346 1.17019
 C274 C 0.17958 0.37909 1.18233
 C275 C 0.16838 0.37104 1.18594
 H276 H 0.19328 0.37667 1.16436
 H277 H 0.16199 0.37214 1.19495
 N278 N 0.17928 0.33544 1.13774
 N279 N 0.17023 0.32539 1.13684
 C280 C 0.17382 0.31714 1.12633
 C281 C 0.18576 0.32219 1.12041
 C282 C 0.18888 0.33381 1.12791
 H283 H 0.16844 0.30787 1.12348
 H284 H 0.19761 0.34051 1.12641
 H285 H 0.16952 0.33295 1.16169
 H286 H 0.15810 0.34399 1.15086
 N287 N 0.14140 0.82280 0.66639
 N288 N 0.14169 0.83205 0.67618
 C289 C 0.13158 0.82945 0.68524
 C290 C 0.12451 0.81792 0.68101
 C291 C 0.13100 0.81397 0.66893
 H292 H 0.12946 0.83557 0.69423
 H293 H 0.12851 0.80521 0.66260
 Cu294 Cu 0.15527 0.84657 0.67639
 Cu295 Cu 0.15488 0.82295 0.65141
 Cu296 Cu 0.17925 0.84922 0.65186
 N297 N 0.16874 0.86119 0.67660
 N298 N 0.17819 0.86232 0.66701
 C299 C 0.18649 0.87298 0.67007
 C300 C 0.18199 0.87879 0.68229
 C301 C 0.17066 0.87104 0.68602
 H302 H 0.19537 0.87597 0.66408
 H303 H 0.16435 0.87233 0.69506
 N304 N 0.17860 0.83499 0.63746
 N305 N 0.16941 0.82500 0.63726
 C306 C 0.17215 0.81669 0.62654
 C307 C 0.18366 0.82162 0.61969
 C308 C 0.18740 0.83325 0.62692
 H309 H 0.16651 0.80744 0.62418
 H310 H 0.19606 0.83988 0.62477
 H311 H 0.17042 0.83269 0.66196
 H312 H 0.15853 0.84384 0.65178
 N313 N 0.35934 0.67723 0.66817
 N314 N 0.35923 0.66787 0.67790
 C315 C 0.36892 0.67116 0.68729
 C316 C 0.37522 0.68330 0.68318
 C317 C 0.36887 0.68675 0.67101
 H318 H 0.37093 0.66546 0.69660
 H319 H 0.37098 0.69565 0.66471
 Cu320 Cu 0.34583 0.65282 0.67729
 Cu321 Cu 0.34680 0.67715 0.65278
 Cu322 Cu 0.32227 0.65167 0.65167
 N323 N 0.33144 0.63873 0.67671
 N324 N 0.32244 0.63844 0.66664
 C325 C 0.31346 0.62820 0.66882
 C326 C 0.31686 0.62162 0.68093
 C327 C 0.32841 0.62856 0.68566
 H328 H 0.30496 0.62581 0.66209
 H329 H 0.33393 0.62660 0.69509
 N330 N 0.32381 0.66602 0.63746
 N331 N 0.33333 0.67563 0.63793
 C332 C 0.33134 0.68449 0.62754
 C333 C 0.31994 0.68038 0.62014
 C334 C 0.31546 0.66854 0.62667
 H335 H 0.33750 0.69353 0.62571
 H336 H 0.30641 0.66262 0.62415
 H337 H 0.33086 0.66714 0.66305
 H338 H 0.34283 0.65613 0.65269
 N339 N 0.36008 0.17683 1.16824
 N340 N 0.36061 0.16686 1.17734
 C341 C 0.37041 0.16968 1.18664
 C342 C 0.37650 0.18206 1.18319
 C343 C 0.36967 0.18630 1.17140
 H344 H 0.37302 0.16311 1.19521
 H345 H 0.37139 0.19567 1.16569
 Cu346 Cu 0.34865 0.15101 1.17604
 Cu347 Cu 0.34666 0.17678 1.15326
 Cu348 Cu 0.32299 0.14998 1.15319
 N349 N 0.33422 0.13733 1.17733
 N350 N 0.32434 0.13671 1.16817
 C351 C 0.31569 0.12644 1.17153
 C352 C 0.32035 0.12034 1.18353
 C353 C 0.33217 0.12757 1.18689
 H354 H 0.30644 0.12393 1.16590
 H355 H 0.33875 0.12595 1.19567
 N356 N 0.32336 0.16450 1.13904
 N357 N 0.33224 0.17476 1.13905
 C358 C 0.32929 0.18322 1.12846
 C359 C 0.31797 0.17808 1.12153
 C360 C 0.31457 0.16618 1.12852
 H361 H 0.33466 0.19269 1.12624
 H362 H 0.30616 0.15932 1.12622
 H363 H 0.33222 0.16560 1.16407
 H364 H 0.34349 0.15581 1.15200
 N365 N 0.86203 0.67568 1.16771
 N366 N 0.86135 0.66634 1.17740
 C367 C 0.87136 0.66868 1.18662
 C368 C 0.87878 0.68010 1.18251
 C369 C 0.87259 0.68423 1.17037
 H370 H 0.87299 0.66263 1.19579
 H371 H 0.87523 0.69307 1.16419
 Cu372 Cu 0.84695 0.65252 1.17772
 Cu373 Cu 0.84850 0.67653 1.15306
 Cu374 Cu 0.82179 0.65283 1.15381
 N375 N 0.83176 0.63960 1.17816
 N376 N 0.82190 0.63964 1.16895
 C377 C 0.81268 0.62978 1.17217
 C378 C 0.81698 0.62336 1.18417
 C379 C 0.82913 0.62987 1.18758
 H380 H 0.80343 0.62764 1.16639
 H381 H 0.83561 0.62768 1.19633
 N382 N 0.82361 0.66703 1.13935
 N383 N 0.83388 0.67588 1.13914
 C384 C 0.83209 0.68462 1.12862
 C385 C 0.82007 0.68126 1.12182
 C386 C 0.81499 0.66995 1.12886
 H387 H 0.83894 0.69301 1.12624
 H388 H 0.80546 0.66461 1.12681
 H389 H 0.83238 0.66797 1.16429
 H390 H 0.84275 0.65602 1.15333
 N391 N 0.86193 0.17482 0.66858
 N392 N 0.86045 0.16530 0.67804
 C393 C 0.87044 0.16683 0.68752
 C394 C 0.87864 0.17787 0.68374
 C395 C 0.87291 0.18264 0.67164
 H396 H 0.87160 0.16049 0.69656
 H397 H 0.87614 0.19150 0.66579
 Cu398 Cu 0.84528 0.15220 0.67707
 Cu399 Cu 0.84895 0.17716 0.65355
 Cu400 Cu 0.82205 0.15391 0.65152
 N401 N 0.83024 0.13898 0.67576
 N402 N 0.82129 0.13975 0.66567
 C403 C 0.81179 0.12985 0.66725
 C404 C 0.81485 0.12239 0.67898
 C405 C 0.82670 0.12847 0.68409
 H406 H 0.80320 0.12832 0.66039
 H407 H 0.83211 0.12569 0.69338
 N408 N 0.82462 0.16900 0.63820
 N409 N 0.83481 0.17790 0.63909
 C410 C 0.83347 0.18729 0.62903
 C411 C 0.82188 0.18419 0.62139
 C412 C 0.81656 0.17248 0.62748
 H413 H 0.84037 0.19583 0.62744
 H414 H 0.80727 0.16714 0.62457
 H415 H 0.83205 0.16841 0.66316
 H416 H 0.84305 0.15672 0.65257
 N417 N 0.32168 0.36258 0.66643
 N418 N 0.33150 0.36344 0.67564
 C419 C 0.32864 0.37404 0.68411
 C420 C 0.31633 0.38010 0.67998
 C421 C 0.31229 0.37254 0.66869
 H422 H 0.33479 0.37681 0.69290
 H423 H 0.30305 0.37398 0.66266
 Cu424 Cu 0.34659 0.35010 0.67611
 Cu425 Cu 0.32115 0.34805 0.65285
 Cu426 Cu 0.34694 0.32333 0.65391
 N427 N 0.36059 0.33570 0.67687
 N428 N 0.36081 0.32536 0.66821
 C429 C 0.37140 0.31690 0.67140
 C430 C 0.37812 0.32218 0.68275
 C431 C 0.37096 0.33412 0.68589
 H432 H 0.37376 0.30741 0.66613
 H433 H 0.37308 0.34112 0.69421
 N434 N 0.33195 0.32315 0.64022
 N435 N 0.32218 0.33265 0.63992
 C436 C 0.31310 0.32953 0.63003
 C437 C 0.31725 0.31748 0.62375
 C438 C 0.32933 0.31374 0.63041
 H439 H 0.30400 0.33554 0.62765
 H440 H 0.33545 0.30460 0.62856
 H441 H 0.33170 0.33358 0.66465
 H442 H 0.34219 0.34387 0.65229
 N443 N 0.32112 0.86324 0.16569
 N444 N 0.33085 0.86379 0.17502
 C445 C 0.32804 0.87426 0.18367
 C446 C 0.31587 0.88058 0.17947
 C447 C 0.31188 0.87331 0.16798
 H448 H 0.33408 0.87675 0.19261
 H449 H 0.30278 0.87503 0.16183
 Cu450 Cu 0.34539 0.84991 0.17506
 Cu451 Cu 0.32022 0.84885 0.15193
 Cu452 Cu 0.34573 0.82362 0.15278
 N453 N 0.35959 0.83575 0.17588
 N454 N 0.35972 0.82551 0.16710
 C455 C 0.37025 0.81695 0.17016
 C456 C 0.37700 0.82202 0.18158
 C457 C 0.36992 0.83397 0.18491
 H458 H 0.37257 0.80753 0.16473
 H459 H 0.37206 0.84080 0.19335
 N460 N 0.33059 0.82376 0.13917
 N461 N 0.32101 0.83346 0.13893
 C462 C 0.31186 0.83061 0.12904
 C463 C 0.31576 0.81853 0.12268
 C464 C 0.32775 0.81447 0.12930
 H465 H 0.30289 0.83682 0.12669
 H466 H 0.33368 0.80522 0.12736
 H467 H 0.33030 0.83384 0.16335
 H468 H 0.34101 0.84410 0.15123
 N469 N 0.82172 0.36446 0.16683
 N470 N 0.83124 0.36485 0.17638
 C471 C 0.82845 0.37541 0.18491
 C472 C 0.81650 0.38192 0.18045
 C473 C 0.81261 0.37469 0.16890
 H474 H 0.83430 0.37781 0.19402
 H475 H 0.80360 0.37649 0.16263
 Cu476 Cu 0.84552 0.35072 0.17708
 Cu477 Cu 0.82088 0.34996 0.15326
 Cu478 Cu 0.84623 0.32463 0.15427
 N479 N 0.85987 0.33669 0.17750
 N480 N 0.86017 0.32652 0.16863
 C481 C 0.87085 0.31811 0.17167
 C482 C 0.87753 0.32325 0.18313
 C483 C 0.87025 0.33506 0.18648
 H484 H 0.87328 0.30873 0.16622
 H485 H 0.87229 0.34192 0.19493
 N486 N 0.83113 0.32482 0.14059
 N487 N 0.82160 0.33457 0.14034
 C488 C 0.81233 0.33169 0.13058
 C489 C 0.81606 0.31951 0.12432
 C490 C 0.82813 0.31545 0.13083
 H491 H 0.80335 0.33790 0.12829
 H492 H 0.83394 0.30612 0.12895
 H493 H 0.83084 0.33474 0.16469
 H494 H 0.84187 0.34522 0.15299
 N495 N 0.82054 0.86418 0.66656
 N496 N 0.82998 0.86445 0.67619
 C497 C 0.82721 0.87501 0.68474
 C498 C 0.81534 0.88164 0.68022
 C499 C 0.81149 0.87447 0.66861
 H500 H 0.83308 0.87737 0.69383
 H501 H 0.80259 0.87638 0.66222
 Cu502 Cu 0.84435 0.85038 0.67683
 Cu503 Cu 0.81985 0.84992 0.65266
 Cu504 Cu 0.84535 0.82479 0.65363
 N505 N 0.85882 0.83644 0.67713
 N506 N 0.85918 0.82648 0.66804
 C507 C 0.86999 0.81815 0.67075
 C508 C 0.87676 0.82311 0.68221
 C509 C 0.86936 0.83475 0.68595
 H510 H 0.87250 0.80897 0.66501
 H511 H 0.87146 0.84147 0.69449
 N512 N 0.83040 0.82499 0.63987
 N513 N 0.82082 0.83467 0.63951
 C514 C 0.81188 0.83187 0.62938
 C515 C 0.81595 0.81982 0.62301
 C516 C 0.82779 0.81576 0.62991
 H517 H 0.80297 0.83810 0.62690
 H518 H 0.83381 0.80656 0.62807
 H519 H 0.82965 0.83472 0.66402
 H520 H 0.84075 0.84545 0.65264
 N521 N 0.67763 0.63787 0.66786
 N522 N 0.66881 0.63763 0.67809
 C523 C 0.67214 0.62716 0.68655
 C524 C 0.68369 0.62055 0.68133
 C525 C 0.68687 0.62764 0.66946
 H526 H 0.66679 0.62473 0.69597
 H527 H 0.69527 0.62552 0.66246
 Cu528 Cu 0.65419 0.65134 0.67940
 Cu529 Cu 0.67681 0.65158 0.65335
 Cu530 Cu 0.65053 0.67583 0.65529
 N531 N 0.63939 0.66488 0.68030
 N532 N 0.63785 0.67424 0.67068
 C533 C 0.62686 0.68219 0.67371
 C534 C 0.62126 0.67764 0.68594
 C535 C 0.62951 0.66665 0.68984
 H536 H 0.62342 0.69085 0.66763
 H537 H 0.62836 0.66040 0.69893
 N538 N 0.66441 0.67563 0.64052
 N539 N 0.67426 0.66625 0.63967
 C540 C 0.68226 0.66905 0.62875
 C541 C 0.67732 0.68085 0.62248
 C542 C 0.66597 0.68473 0.63022
 H543 H 0.69138 0.66329 0.62589
 H544 H 0.65946 0.69364 0.62857
 H545 H 0.66723 0.66677 0.66472
 H546 H 0.65572 0.65517 0.65472
 N547 N 0.67505 0.13730 0.17131
 N548 N 0.66723 0.14026 0.18190
 C549 C 0.66878 0.13046 0.19151
 C550 C 0.67816 0.12075 0.18675
 C551 C 0.68190 0.12547 0.17383
 H552 H 0.66356 0.13059 0.20129
 H553 H 0.68928 0.12087 0.16688
 Cu554 Cu 0.65608 0.15681 0.18243
 Cu555 Cu 0.67629 0.14964 0.15558
 Cu556 Cu 0.65285 0.17684 0.15453
 N557 N 0.64111 0.16988 0.18059
 N558 N 0.63971 0.17778 0.16976
 C559 C 0.62848 0.18587 0.17147
 C560 C 0.62255 0.18282 0.18409
 C561 C 0.63090 0.17256 0.18950
 H562 H 0.62500 0.19347 0.16413
 H563 H 0.62969 0.16732 0.19918
 N564 N 0.66710 0.17378 0.14030
 N565 N 0.67589 0.16336 0.14068
 C566 C 0.68486 0.16457 0.13023
 C567 C 0.68166 0.17634 0.12288
 C568 C 0.67028 0.18189 0.12954
 H569 H 0.69337 0.15760 0.12837
 H570 H 0.66510 0.19146 0.12713
 H571 H 0.66940 0.16787 0.16442
 H572 H 0.65591 0.15609 0.15756
 N573 N 0.17451 0.63769 0.16939
 N574 N 0.16498 0.63919 0.17885
 C575 C 0.16656 0.62926 0.18834
 C576 C 0.17767 0.62103 0.18465
 C577 C 0.18244 0.62671 0.17251
 H578 H 0.16020 0.62821 0.19738
 H579 H 0.19133 0.62343 0.16663
 Cu580 Cu 0.15201 0.65447 0.17820
 Cu581 Cu 0.17640 0.65068 0.15428
 Cu582 Cu 0.15321 0.67816 0.15311
 N583 N 0.13901 0.66970 0.17755
 N584 N 0.13938 0.67898 0.16775
 C585 C 0.12942 0.68847 0.17010
 C586 C 0.12257 0.68496 0.18209
 C587 C 0.12895 0.67298 0.18646
 H588 H 0.12757 0.69743 0.16378
 H589 H 0.12644 0.66709 0.19551
 N590 N 0.16799 0.67533 0.13933
 N591 N 0.17668 0.66483 0.13984
 C592 C 0.18582 0.66595 0.12954
 C593 C 0.18288 0.67775 0.12215
 C594 C 0.17144 0.68341 0.12861
 H595 H 0.19416 0.65878 0.12766
 H596 H 0.16631 0.69295 0.12599
 H597 H 0.16798 0.66769 0.16419
 H598 H 0.15594 0.65718 0.15369
 N599 N 0.17469 0.13558 0.67193
 N600 N 0.16460 0.13726 0.68079
 C601 C 0.16576 0.12760 0.69066
 C602 C 0.17715 0.11940 0.68775
 C603 C 0.18253 0.12480 0.67578
 H604 H 0.15885 0.12659 0.69930
 H605 H 0.19171 0.12139 0.67044
 Cu606 Cu 0.15108 0.15208 0.67861
 Cu607 Cu 0.17740 0.14777 0.65639
 Cu608 Cu 0.15427 0.17469 0.65260
 N609 N 0.13840 0.16761 0.67650
 N610 N 0.13980 0.17634 0.66630
 C611 C 0.13019 0.18629 0.66740
 C612 C 0.12227 0.18377 0.67892
 C613 C 0.12774 0.17175 0.68443
 H614 H 0.12914 0.19480 0.66034
 H615 H 0.12445 0.16664 0.69371
 N616 N 0.16961 0.17137 0.63978
 N617 N 0.17849 0.16117 0.64131
 C618 C 0.18814 0.16200 0.63141
 C619 C 0.18519 0.17326 0.62321
 C620 C 0.17333 0.17894 0.62881
 H621 H 0.19676 0.15500 0.63033
 H622 H 0.16810 0.18818 0.62544
 H623 H 0.16820 0.16483 0.66539
 H624 H 0.15707 0.15377 0.65439
 N625 N 0.32270 0.63958 0.33110
 N626 N 0.33191 0.64023 0.32123
 C627 C 0.32923 0.63051 0.31188
 C628 C 0.31772 0.62330 0.31598
 C629 C 0.31384 0.62927 0.32833
 H630 H 0.33523 0.62876 0.30270
 H631 H 0.30505 0.62657 0.33460
 Cu632 Cu 0.34639 0.65384 0.32112
 Cu633 Cu 0.32283 0.65280 0.34623
 Cu634 Cu 0.34902 0.67735 0.34594
 N635 N 0.36099 0.66734 0.32101
 N636 N 0.36216 0.67661 0.33071
 C637 C 0.37282 0.68497 0.32762
 C638 C 0.37850 0.68070 0.31525
 C639 C 0.37075 0.66944 0.31149
 H640 H 0.37587 0.69376 0.33365
 H641 H 0.37203 0.66332 0.30235
 N642 N 0.33472 0.67634 0.36038
 N643 N 0.32479 0.66708 0.36055
 C644 C 0.31634 0.66971 0.37124
 C645 C 0.32111 0.68121 0.37809
 C646 C 0.33281 0.68507 0.37091
 H647 H 0.30707 0.66402 0.37353
 H648 H 0.33932 0.69378 0.37304
 H649 H 0.33249 0.66865 0.33585
 H650 H 0.34380 0.65673 0.34579
 N651 N 0.32369 0.13922 0.83198
 N652 N 0.33310 0.13927 0.82226
 C653 C 0.33029 0.12931 0.81320
 C654 C 0.31847 0.12261 0.81733
 C655 C 0.31457 0.12910 0.82939
 H656 H 0.33638 0.12709 0.80418
 H657 H 0.30557 0.12691 0.83556
 Cu658 Cu 0.34785 0.15262 0.82179
 Cu659 Cu 0.32389 0.15285 0.84675
 Cu660 Cu 0.35047 0.17683 0.84588
 N661 N 0.36265 0.16593 0.82143
 N662 N 0.36368 0.17551 0.83083
 C663 C 0.37434 0.18379 0.82766
 C664 C 0.38027 0.17914 0.81557
 C665 C 0.37260 0.16774 0.81201
 H666 H 0.37722 0.19280 0.83345
 H667 H 0.37400 0.16134 0.80308
 N668 N 0.33616 0.17652 0.86024
 N669 N 0.32603 0.16750 0.86066
 C670 C 0.31769 0.17057 0.87133
 C671 C 0.32279 0.18214 0.87786
 C672 C 0.33452 0.18553 0.87055
 H673 H 0.30833 0.16513 0.87386
 H674 H 0.34129 0.19410 0.87246
 H675 H 0.33378 0.16806 0.83575
 H676 H 0.34477 0.15629 0.84623
 N677 N 0.82290 0.63948 0.83073
 N678 N 0.83228 0.63948 0.82100
 C679 C 0.82929 0.62969 0.81180
 C680 C 0.81740 0.62313 0.81589
 C681 C 0.81362 0.62952 0.82805
 H682 H 0.83533 0.62744 0.80275
 H683 H 0.80465 0.62733 0.83425
 Cu684 Cu 0.84733 0.65244 0.82083
 Cu685 Cu 0.82335 0.65301 0.84565
 Cu686 Cu 0.85038 0.67660 0.84486
 N687 N 0.86217 0.66564 0.82022
 N688 N 0.86343 0.67517 0.82964
 C689 C 0.87410 0.68339 0.82629
 C690 C 0.87974 0.67876 0.81405
 C691 C 0.87193 0.66742 0.81060
 H692 H 0.87717 0.69234 0.83206
 H693 H 0.87310 0.66106 0.80161
 N694 N 0.83613 0.67636 0.85933
 N695 N 0.82581 0.66754 0.85969
 C696 C 0.81759 0.67065 0.87044
 C697 C 0.82294 0.68204 0.87708
 C698 C 0.83472 0.68527 0.86977
 H699 H 0.80814 0.66536 0.87296
 H700 H 0.84168 0.69366 0.87179
 H701 H 0.83365 0.66805 0.83489
 H702 H 0.84440 0.65609 0.84538
 N703 N 0.82289 0.13918 0.33058
 N704 N 0.83227 0.13950 0.32084
 C705 C 0.82957 0.12965 0.31162
 C706 C 0.81788 0.12269 0.31568
 C707 C 0.81391 0.12896 0.32786
 H708 H 0.83570 0.12763 0.30259
 H709 H 0.80498 0.12653 0.33403
 Cu710 Cu 0.84700 0.15284 0.32064
 Cu711 Cu 0.82304 0.15256 0.34558
 Cu712 Cu 0.84967 0.17654 0.34523
 N713 N 0.86168 0.16628 0.32044
 N714 N 0.86281 0.17556 0.33011
 C715 C 0.87349 0.18388 0.32712
 C716 C 0.87932 0.17958 0.31485
 C717 C 0.87154 0.16834 0.31098
 H718 H 0.87644 0.19270 0.33314
 H719 H 0.87286 0.16221 0.30185
 N720 N 0.83538 0.17592 0.35959
 N721 N 0.82516 0.16698 0.35975
 C722 C 0.81676 0.16995 0.37041
 C723 C 0.82192 0.18133 0.37720
 C724 C 0.83376 0.18473 0.37007
 H725 H 0.80731 0.16456 0.37274
 H726 H 0.84060 0.19319 0.37220
 H727 H 0.83302 0.16798 0.33498
 H728 H 0.84396 0.15601 0.34523
 N729 N 0.67682 0.36102 0.33329
 N730 N 0.66644 0.36224 0.32473
 C731 C 0.66919 0.37214 0.31555
 C732 C 0.68198 0.37757 0.31849
 C733 C 0.68654 0.37033 0.32990
 H734 H 0.66236 0.37516 0.30731
 H735 H 0.69635 0.37144 0.33504
 Cu736 Cu 0.65038 0.35065 0.32593
 Cu737 Cu 0.67700 0.34679 0.34756
 Cu738 Cu 0.65038 0.32288 0.34602
 N739 N 0.63716 0.33612 0.32324
 N740 N 0.63700 0.32521 0.33119
 C741 C 0.62703 0.31664 0.32684
 C742 C 0.62071 0.32250 0.31548
 C743 C 0.62743 0.33488 0.31354
 H744 H 0.62485 0.30671 0.33133
 H745 H 0.62548 0.34241 0.30561
 N746 N 0.66494 0.32242 0.36017
 N747 N 0.67504 0.33147 0.36085
 C748 C 0.68336 0.32810 0.37143
 C749 C 0.67829 0.31632 0.37764
 C750 C 0.66659 0.31310 0.37022
 H751 H 0.69263 0.33358 0.37416
 H752 H 0.65978 0.30452 0.37197
 H753 H 0.66578 0.33344 0.33562
 H754 H 0.65614 0.34319 0.34906
 N755 N 0.67584 0.86074 0.83220
 N756 N 0.66597 0.86016 0.82299
 C757 C 0.66766 0.87042 0.81389
 C758 C 0.67919 0.87792 0.81752
 C759 C 0.68410 0.87148 0.82926
 H760 H 0.66098 0.87229 0.80521
 H761 H 0.69321 0.87416 0.83503
 Cu762 Cu 0.65201 0.84586 0.82342
 Cu763 Cu 0.67751 0.84705 0.84692
 Cu764 Cu 0.65232 0.82182 0.84785
 N765 N 0.63796 0.83159 0.82402
 N766 N 0.63813 0.82237 0.83387
 C767 C 0.62791 0.81334 0.83186
 C768 C 0.62090 0.81694 0.82003
 C769 C 0.62755 0.82867 0.81534
 H770 H 0.62594 0.80460 0.83841
 H771 H 0.62529 0.83431 0.80605
 N772 N 0.66741 0.82277 0.86117
 N773 N 0.67717 0.83219 0.86093
 C774 C 0.68642 0.82923 0.87089
 C775 C 0.68229 0.81729 0.87752
 C776 C 0.67017 0.81364 0.87113
 H777 H 0.69575 0.83495 0.87279
 H778 H 0.66394 0.80474 0.87341
 H779 H 0.66781 0.83148 0.83665
 H780 H 0.65688 0.84272 0.84774
 N781 N 0.17728 0.35987 0.83491
 N782 N 0.16841 0.36041 0.82475
 C783 C 0.17177 0.37104 0.81647
 C784 C 0.18342 0.37739 0.82174
 C785 C 0.18653 0.37001 0.83347
 H786 H 0.16641 0.37371 0.80713
 H787 H 0.19497 0.37179 0.84044
 Cu788 Cu 0.15380 0.34666 0.82321
 Cu789 Cu 0.17689 0.34582 0.84907
 Cu790 Cu 0.15119 0.32153 0.84689
 N791 N 0.13936 0.33266 0.82213
 N792 N 0.13852 0.32305 0.83157
 C793 C 0.12832 0.31437 0.82839
 C794 C 0.12235 0.31859 0.81624
 C795 C 0.12956 0.33035 0.81256
 H796 H 0.12555 0.30549 0.83445
 H797 H 0.12808 0.33645 0.80340
 N798 N 0.16498 0.32159 0.86165
 N799 N 0.17485 0.33082 0.86248
 C800 C 0.18308 0.32764 0.87317
 C801 C 0.17818 0.31578 0.87933
 C802 C 0.16666 0.31230 0.87175
 H803 H 0.19227 0.33323 0.87593
 H804 H 0.16011 0.30347 0.87330
 H805 H 0.16758 0.33090 0.83719
 H806 H 0.15599 0.34213 0.84771
 N807 N 0.17817 0.86012 0.33628
 N808 N 0.16954 0.86132 0.32598
 C809 C 0.17311 0.87228 0.31834
 C810 C 0.18464 0.87826 0.32412
 C811 C 0.18757 0.87024 0.33550
 H812 H 0.16793 0.87546 0.30905
 H813 H 0.19594 0.87162 0.34268
 Cu814 Cu 0.15479 0.84814 0.32328
 Cu815 Cu 0.17676 0.84535 0.34971
 Cu816 Cu 0.15015 0.82200 0.34530
 N817 N 0.13988 0.83509 0.32097
 N818 N 0.13796 0.82497 0.32970
 C819 C 0.12703 0.81751 0.32565
 C820 C 0.12187 0.82322 0.31368
 C821 C 0.13030 0.83436 0.31105
 H822 H 0.12334 0.80841 0.33084
 H823 H 0.12948 0.84144 0.30254
 N824 N 0.16357 0.82077 0.36043
 N825 N 0.17361 0.82971 0.36218
 C826 C 0.18118 0.82587 0.37311
 C827 C 0.17570 0.81389 0.37846
 C828 C 0.16454 0.81098 0.37016
 H829 H 0.19030 0.83113 0.37663
 H830 H 0.15769 0.80229 0.37105
 H831 H 0.16741 0.83124 0.33694
 H832 H 0.15580 0.84232 0.34754
 C833 C 0.25946 0.97178 0.24542
 C834 C 0.25101 0.96479 0.25466
 C835 C 0.24142 0.97173 0.26285
 C836 C 0.24033 0.98622 0.26198
 C837 C 0.24890 0.99349 0.25266
 C838 C 0.25849 0.98624 0.24432
 C839 C 0.26670 0.99361 0.23499
 C840 C 0.26557 1.00786 0.23392
 C841 C 0.25619 1.01525 0.24211
 C842 C 0.24782 1.00802 0.25164
 C843 C 0.23103 0.99363 0.27025
 C844 C 0.23005 1.00789 0.26932
 C845 C 0.23843 1.01530 0.26019
 C846 C 0.23760 1.02981 0.25925
 C847 C 0.24584 1.03673 0.24975
 C848 C 0.25506 1.02973 0.24122
 H849 H 0.27407 0.98839 0.22844
 H850 H 0.27216 1.01305 0.22661
 H851 H 0.22446 0.98847 0.27759
 H852 H 0.22258 1.01304 0.27580
 H853 H 0.25170 0.95366 0.25525
 H854 H 0.24526 1.04787 0.24916
 C855 C 0.26057 0.47170 0.74622
 C856 C 0.25129 0.46478 0.75472
 C857 C 0.24224 0.47182 0.76340
 C858 C 0.24248 0.48636 0.76378
 C859 C 0.25188 0.49359 0.75525
 C860 C 0.26091 0.48624 0.74637
 C861 C 0.26978 0.49363 0.73768
 C862 C 0.26994 0.50796 0.73781
 C863 C 0.26128 0.51545 0.74667
 C864 C 0.25214 0.50820 0.75548
 C865 C 0.23368 0.49384 0.77251
 C866 C 0.23397 0.50817 0.77277
 C867 C 0.24311 0.51554 0.76436
 C868 C 0.24327 0.53009 0.76432
 C869 C 0.25224 0.53704 0.75553
 C870 C 0.26121 0.53001 0.74674
 H871 H 0.27659 0.48839 0.73058
 H872 H 0.27686 0.51313 0.73080
 H873 H 0.22647 0.48866 0.77922
 H874 H 0.22687 0.51342 0.77957
 H875 H 0.25106 0.45362 0.75452
 H876 H 0.25230 0.54820 0.75558
 C877 C 0.76546 -0.03032 0.25473
 C878 C 0.75713 -0.03739 0.24550
 C879 C 0.74692 -0.03068 0.23788
 C880 C 0.74532 -0.01625 0.23909
 C881 C 0.75375 -0.00890 0.24841
 C882 C 0.76377 -0.01598 0.25638
 C883 C 0.77186 -0.00854 0.26570
 C884 C 0.77013 0.00562 0.26720
 C885 C 0.76031 0.01285 0.25938
 C886 C 0.75212 0.00555 0.24980
 C887 C 0.73566 -0.00898 0.23111
 C888 C 0.73421 0.00522 0.23232
 C889 C 0.74241 0.01270 0.24150
 C890 C 0.74110 0.02715 0.24272
 C891 C 0.74907 0.03411 0.25236
 C892 C 0.75861 0.02723 0.26065
 H893 H 0.77964 -0.01363 0.27187
 H894 H 0.77663 0.01089 0.27449
 H895 H 0.72923 -0.01418 0.22372
 H896 H 0.72652 0.01027 0.22602
 H897 H 0.75824 -0.04847 0.24466
 H898 H 0.74812 0.04520 0.25319
 C899 C 0.75934 0.46930 0.76107
 C900 C 0.75055 0.46214 0.75235
 C901 C 0.74138 0.46899 0.74363
 C902 C 0.74080 0.48353 0.74374
 C903 C 0.74955 0.49095 0.75272
 C904 C 0.75890 0.48381 0.76139
 C905 C 0.76747 0.49134 0.77020
 C906 C 0.76693 0.50566 0.77046
 C907 C 0.75773 0.51295 0.76199
 C908 C 0.74896 0.50554 0.75302
 C909 C 0.73161 0.49083 0.73526
 C910 C 0.73117 0.50515 0.73541
 C911 C 0.73972 0.51269 0.74422
 C912 C 0.73949 0.52722 0.74433
 C913 C 0.74821 0.53433 0.75316
 C914 C 0.75724 0.52748 0.76199
 H915 H 0.77468 0.48620 0.77698
 H916 H 0.77385 0.51096 0.77732
 H917 H 0.72466 0.48554 0.72843
 H918 H 0.72407 0.51026 0.72851
 H919 H 0.75101 0.45098 0.75218
 H920 H 0.74790 0.54550 0.75319
 C921 C 0.24148 0.52847 0.24172
 C922 C 0.24988 0.53533 0.25106
 C923 C 0.25908 0.52827 0.25958
 C924 C 0.26002 0.51378 0.25881
 C925 C 0.25148 0.50661 0.24945
 C926 C 0.24209 0.51395 0.24095
 C927 C 0.23338 0.50659 0.23214
 C928 C 0.23407 0.49230 0.23143
 C929 C 0.24356 0.48485 0.23944
 C930 C 0.25232 0.49205 0.24858
 C931 C 0.26935 0.50631 0.26699
 C932 C 0.27015 0.49201 0.26616
 C933 C 0.26174 0.48470 0.25704
 C934 C 0.26224 0.47019 0.25630
 C935 C 0.25358 0.46329 0.24723
 C936 C 0.24430 0.47035 0.23885
 H937 H 0.22581 0.51180 0.22583
 H938 H 0.22702 0.48713 0.22460
 H939 H 0.27613 0.51145 0.27412
 H940 H 0.27741 0.48673 0.27277
 H941 H 0.24939 0.54648 0.25159
 H942 H 0.25402 0.45214 0.24677
 C943 C 0.73517 1.03070 0.75644
 C944 C 0.74404 1.03752 0.74748
 C945 C 0.75455 1.03057 0.74047
 C946 C 0.75597 1.01615 0.74210
 C947 C 0.74699 1.00906 0.75118
 C948 C 0.73662 1.01638 0.75848
 C949 C 0.72789 1.00918 0.76747
 C950 C 0.72928 0.99501 0.76926
 C951 C 0.73939 0.98753 0.76206
 C952 C 0.74832 0.99460 0.75291
 C953 C 0.76587 1.00861 0.73468
 C954 C 0.76701 0.99439 0.73618
 C955 C 0.75836 0.98721 0.74525
 C956 C 0.75923 0.97276 0.74664
 C957 C 0.75047 0.96598 0.75574
 C958 C 0.74063 0.97309 0.76347
 H959 H 0.71983 1.01445 0.77312
 H960 H 0.72225 0.98992 0.77623
 H961 H 0.77268 1.01360 0.72745
 H962 H 0.77471 0.98905 0.73013
 H963 H 0.74305 1.04859 0.74631
 H964 H 0.75116 0.95486 0.75665
 C965 C 0.76021 0.47327 0.24602
 C966 C 0.75217 0.46614 0.25550
 C967 C 0.74253 0.47287 0.26379
 C968 C 0.74084 0.48728 0.26269
 C969 C 0.74891 0.49468 0.25303
 C970 C 0.75869 0.48766 0.24469
 C971 C 0.76649 0.49515 0.23513
 C972 C 0.76479 0.50933 0.23380
 C973 C 0.75514 0.51648 0.24189
 C974 C 0.74708 0.50910 0.25156
 C975 C 0.73117 0.49444 0.27076
 C976 C 0.72947 0.50863 0.26942
 C977 C 0.73729 0.51613 0.25987
 C978 C 0.73578 0.53053 0.25851
 C979 C 0.74383 0.53764 0.24901
 C980 C 0.75345 0.53088 0.24075
 H981 H 0.77400 0.49011 0.22861
 H982 H 0.77111 0.51465 0.22635
 H983 H 0.72486 0.48911 0.27821
 H984 H 0.72194 0.51369 0.27591
 H985 H 0.75327 0.45505 0.25627
 H986 H 0.74273 0.54873 0.24817
 C987 C 0.26297 -0.03054 0.76010
 C988 C 0.25497 -0.03777 0.75070
 C989 C 0.24562 -0.03104 0.74209
 C990 C 0.24412 -0.01658 0.74288
 C991 C 0.25219 -0.00910 0.75242
 C992 C 0.26166 -0.01610 0.76107
 C993 C 0.26954 -0.00853 0.77046
 C994 C 0.26818 0.00572 0.77131
 C995 C 0.25883 0.01287 0.76289
 C996 C 0.25074 0.00541 0.75335
 C997 C 0.23461 -0.00947 0.73461
 C998 C 0.23318 0.00476 0.73552
 C999 C 0.24126 0.01242 0.74467
 C1000 C 0.24003 0.02691 0.74556
 C1001 C 0.24811 0.03406 0.75496
 C1002 C 0.25748 0.02733 0.76355
 H1003 H 0.27684 -0.01357 0.77721
 H1004 H 0.27453 0.01108 0.77866
 H1005 H 0.22815 -0.01487 0.72739
 H1006 H 0.22560 0.00969 0.72901
 H1007 H 0.25603 -0.04887 0.75009
 H1008 H 0.24731 0.04519 0.75543
 C1009 C 0.26065 0.24005 0.97056
 C1010 C 0.25186 0.24903 0.96355
 C1011 C 0.24343 0.25844 0.97044
 C1012 C 0.24366 0.25890 0.98493
 C1013 C 0.25261 0.24989 0.99224
 C1014 C 0.26118 0.24045 0.98503
 C1015 C 0.27012 0.23180 0.99245
 C1016 C 0.27058 0.23231 1.00671
 C1017 C 0.26214 0.24149 1.01407
 C1018 C 0.25297 0.25030 1.00678
 C1019 C 0.23509 0.26796 0.99229
 C1020 C 0.23537 0.26829 1.00656
 C1021 C 0.24414 0.25949 1.01401
 C1022 C 0.24448 0.25970 1.02850
 C1023 C 0.25360 0.25102 1.03547
 C1024 C 0.26240 0.24198 1.02855
 H1025 H 0.27687 0.22458 0.98727
 H1026 H 0.27760 0.22538 1.01194
 H1027 H 0.22802 0.27485 0.98709
 H1028 H 0.22866 0.27558 1.01169
 H1029 H 0.25164 0.24873 0.95243
 H1030 H 0.25377 0.25120 1.04659
 C1031 C 0.25393 0.73487 0.47011
 C1032 C 0.24512 0.74386 0.46313
 C1033 C 0.23644 0.75302 0.47006
 C1034 C 0.23637 0.75318 0.48455
 C1035 C 0.24519 0.74405 0.49184
 C1036 C 0.25404 0.73487 0.48461
 C1037 C 0.26297 0.72623 0.49205
 C1038 C 0.26311 0.72646 0.50632
 C1039 C 0.25430 0.73530 0.51370
 C1040 C 0.24529 0.74423 0.50640
 C1041 C 0.22767 0.76213 0.49191
 C1042 C 0.22783 0.76237 0.50618
 C1043 C 0.23654 0.75351 0.51362
 C1044 C 0.23696 0.75386 0.52811
 C1045 C 0.24592 0.74502 0.53510
 C1046 C 0.25449 0.73574 0.52818
 H1047 H 0.27002 0.71929 0.48688
 H1048 H 0.27032 0.71972 0.51153
 H1049 H 0.22066 0.76907 0.48672
 H1050 H 0.22110 0.76963 0.51131
 H1051 H 0.24517 0.74388 0.45200
 H1052 H 0.24612 0.74528 0.54621
 C1053 C 0.26155 0.75389 0.03003
 C1054 C 0.25211 0.74536 0.03667
 C1055 C 0.24300 0.73705 0.02942
 C1056 C 0.24331 0.73708 0.01495
 C1057 C 0.25286 0.74567 0.00799
 C1058 C 0.26201 0.75414 0.01554
 C1059 C 0.27116 0.76275 0.00842
 C1060 C 0.27142 0.76301 -0.00586
 C1061 C 0.26246 0.75473 -0.01354
 C1062 C 0.25320 0.74585 -0.00656
 C1063 C 0.23448 0.72867 0.00728
 C1064 C 0.23490 0.72874 -0.00698
 C1065 C 0.24421 0.73719 -0.01409
 C1066 C 0.24465 0.73743 -0.02856
 C1067 C 0.25375 0.74627 -0.03524
 C1068 C 0.26257 0.75494 -0.02803
 H1069 H 0.27818 0.76943 0.01383
 H1070 H 0.27876 0.76972 -0.01083
 H1071 H 0.22716 0.72192 0.01225
 H1072 H 0.22779 0.72216 -0.01240
 H1073 H 0.25179 0.74526 0.04779
 H1074 H 0.25388 0.74649 -0.04636
 C1075 C 0.26429 0.25059 0.53187
 C1076 C 0.25538 0.24163 0.53867
 C1077 C 0.24613 0.23333 0.53157
 C1078 C 0.24583 0.23376 0.51709
 C1079 C 0.25488 0.24276 0.50999
 C1080 C 0.26416 0.25122 0.51739
 C1081 C 0.27278 0.26026 0.51014
 C1082 C 0.27247 0.26084 0.49588
 C1083 C 0.26351 0.25244 0.48834
 C1084 C 0.25452 0.24340 0.49546
 C1085 C 0.23688 0.22535 0.50956
 C1086 C 0.23650 0.22601 0.49531
 C1087 C 0.24509 0.23507 0.48808
 C1088 C 0.24470 0.23590 0.47364
 C1089 C 0.25368 0.24475 0.46680
 C1090 C 0.26304 0.25299 0.47386
 H1091 H 0.27980 0.26702 0.51545
 H1092 H 0.27927 0.26804 0.49081
 H1093 H 0.23011 0.21811 0.51460
 H1094 H 0.22943 0.21929 0.49001
 H1095 H 0.25545 0.24133 0.54978
 H1096 H 0.25333 0.24528 0.45570
 C1097 C 0.76146 0.73987 0.97025
 C1098 C 0.75353 0.74953 0.96312
 C1099 C 0.74472 0.75871 0.96985
 C1100 C 0.74377 0.75833 0.98431
 C1101 C 0.75182 0.74862 0.99176
 C1102 C 0.76073 0.73936 0.98472
 C1103 C 0.76877 0.73001 0.99233
 C1104 C 0.76795 0.72960 1.00658
 C1105 C 0.75902 0.73847 1.01374
 C1106 C 0.75092 0.74813 1.00628
 C1107 C 0.73480 0.76717 0.99147
 C1108 C 0.73388 0.76665 1.00570
 C1109 C 0.74195 0.75733 1.01331
 C1110 C 0.74115 0.75678 1.02777
 C1111 C 0.74920 0.74723 1.03492
 C1112 C 0.75812 0.73815 1.02820
 H1113 H 0.77585 0.72299 0.98732
 H1114 H 0.77440 0.72225 1.01195
 H1115 H 0.72835 0.77453 0.98612
 H1116 H 0.72670 0.77359 1.01068
 H1117 H 0.75409 0.74980 0.95201
 H1118 H 0.74866 0.74697 1.04603
 C1119 C 0.75842 0.23868 0.46936
 C1120 C 0.74956 0.24759 0.46236
 C1121 C 0.74138 0.25723 0.46925
 C1122 C 0.74189 0.25791 0.48373
 C1123 C 0.75080 0.24885 0.49103
 C1124 C 0.75916 0.23924 0.48381
 C1125 C 0.76821 0.23067 0.49120
 C1126 C 0.76894 0.23138 0.50544
 C1127 C 0.76057 0.24062 0.51283
 C1128 C 0.75146 0.24950 0.50556
 C1129 C 0.73368 0.26729 0.49110
 C1130 C 0.73433 0.26794 0.50534
 C1131 C 0.74306 0.25909 0.51278
 C1132 C 0.74384 0.25970 0.52725
 C1133 C 0.75297 0.25100 0.53419
 C1134 C 0.76125 0.24146 0.52729
 H1135 H 0.77489 0.22339 0.48600
 H1136 H 0.77622 0.22469 0.51059
 H1137 H 0.72665 0.27423 0.48592
 H1138 H 0.72798 0.27554 0.51045
 H1139 H 0.74919 0.24717 0.45126
 H1140 H 0.75336 0.25139 0.54530
 C1141 C 0.73719 0.24511 -0.02593
 C1142 C 0.74604 0.25423 -0.03257
 C1143 C 0.75537 0.26230 -0.02532
 C1144 C 0.75596 0.26131 -0.01089
 C1145 C 0.74701 0.25208 -0.00396
 C1146 C 0.73752 0.24399 -0.01151
 C1147 C 0.72891 0.23478 -0.00448
 C1148 C 0.72948 0.23360 0.00973
 C1149 C 0.73875 0.24152 0.01742
 C1150 C 0.74773 0.25073 0.01050
 C1151 C 0.76543 0.26903 -0.00324
 C1152 C 0.76612 0.26772 0.01096
 C1153 C 0.75745 0.25857 0.01801
 C1154 C 0.75808 0.25713 0.03241
 C1155 C 0.74916 0.24807 0.03905
 C1156 C 0.73949 0.24033 0.03183
 H1157 H 0.72168 0.22834 -0.00992
 H1158 H 0.72269 0.22628 0.01463
 H1159 H 0.77244 0.27611 -0.00818
 H1160 H 0.77356 0.27394 0.01638
 H1161 H 0.74576 0.25493 -0.04367
 H1162 H 0.74960 0.24718 0.05013
 C1163 C 0.76503 0.75004 0.53221
 C1164 C 0.75576 0.74150 0.53905
 C1165 C 0.74679 0.73287 0.53197
 C1166 C 0.74712 0.73261 0.51748
 C1167 C 0.75651 0.74122 0.51034
 C1168 C 0.76551 0.74999 0.51773
 C1169 C 0.77437 0.75877 0.51045
 C1170 C 0.77443 0.75896 0.49617
 C1171 C 0.76564 0.75036 0.48865
 C1172 C 0.75660 0.74138 0.49579
 C1173 C 0.73800 0.72436 0.50995
 C1174 C 0.73812 0.72448 0.49569
 C1175 C 0.74733 0.73289 0.48841
 C1176 C 0.74722 0.73342 0.47393
 C1177 C 0.75617 0.74230 0.46709
 C1178 C 0.76530 0.75077 0.47416
 H1179 H 0.78123 0.76571 0.51574
 H1180 H 0.78132 0.76605 0.49107
 H1181 H 0.73054 0.71785 0.51501
 H1182 H 0.73075 0.71807 0.49042
 H1183 H 0.75545 0.74164 0.55016
 H1184 H 0.75599 0.74268 0.45598
 C1185 C 1.02950 0.24357 0.25824
 C1186 C 1.03658 0.25235 0.24940
 C1187 C 1.02965 0.26096 0.24023
 C1188 C 1.01507 0.26087 0.23978
 C1189 C 1.00769 0.25210 0.24881
 C1190 C 1.01492 0.24342 0.25810
 C1191 C 1.00740 0.23499 0.26709
 C1192 C 0.99304 0.23497 0.26690
 C1193 C 0.98567 0.24345 0.25779
 C1194 C 0.99305 0.25201 0.24856
 C1195 C 1.00770 0.26912 0.23046
 C1196 C 0.99333 0.26894 0.23012
 C1197 C 0.98581 0.26047 0.23908
 C1198 C 0.97124 0.26033 0.23897
 C1199 C 0.96414 0.25190 0.24815
 C1200 C 0.97109 0.24351 0.25752
 H1201 H 1.01255 0.22838 0.27442
 H1202 H 0.98777 0.22820 0.27396
 H1203 H 1.01299 0.27576 0.22328
 H1204 H 0.98815 0.27552 0.22279
 H1205 H 1.04778 0.25244 0.24963
 H1206 H 0.95294 0.25191 0.24803
 C1207 C 0.53022 0.23937 0.75472
 C1208 C 0.53733 0.24796 0.74572
 C1209 C 0.53042 0.25712 0.73706
 C1210 C 0.51582 0.25767 0.73724
 C1211 C 0.50843 0.24901 0.74638
 C1212 C 0.51566 0.23983 0.75518
 C1213 C 0.50817 0.23152 0.76430
 C1214 C 0.49382 0.23217 0.76478
 C1215 C 0.48645 0.24118 0.75618
 C1216 C 0.49380 0.24960 0.74679
 C1217 C 0.50843 0.26647 0.72845
 C1218 C 0.49406 0.26696 0.72876
 C1219 C 0.48655 0.25859 0.73782
 C1220 C 0.47197 0.25906 0.73831
 C1221 C 0.46492 0.25078 0.74766
 C1222 C 0.47188 0.24191 0.75656
 H1223 H 0.51335 0.22446 0.77118
 H1224 H 0.48854 0.22550 0.77194
 H1225 H 0.51370 0.27304 0.72119
 H1226 H 0.48888 0.27401 0.72187
 H1227 H 0.54853 0.24765 0.74562
 H1228 H 0.45372 0.25119 0.74797
 C1229 C 0.02850 0.26661 0.75088
 C1230 C 0.03556 0.25755 0.74224
 C1231 C 0.02866 0.24786 0.73429
 C1232 C 0.01408 0.24739 0.73462
 C1233 C 0.00668 0.25666 0.74317
 C1234 C 0.01391 0.26626 0.75142
 C1235 C 0.00640 0.27495 0.76022
 C1236 C -0.00797 0.27434 0.76083
 C1237 C -0.01536 0.26510 0.75259
 C1238 C -0.00797 0.25613 0.74370
 C1239 C 0.00673 0.23793 0.72662
 C1240 C -0.00761 0.23738 0.72715
 C1241 C -0.01518 0.24642 0.73554
 C1242 C -0.02975 0.24582 0.73627
 C1243 C -0.03681 0.25473 0.74506
 C1244 C -0.02992 0.26428 0.75322
 H1245 H 0.01159 0.28221 0.76680
 H1246 H -0.01322 0.28112 0.76793
 H1247 H 0.01201 0.23082 0.71986
 H1248 H -0.01269 0.22969 0.72099
 H1249 H 0.04676 0.25774 0.74206
 H1250 H -0.04800 0.25431 0.74548
 C1251 C 0.46938 0.24892 0.23499
 C1252 C 0.46250 0.25737 0.24436
 C1253 C 0.46964 0.26605 0.25322
 C1254 C 0.48421 0.26631 0.25286
 C1255 C 0.49140 0.25779 0.24341
 C1256 C 0.48397 0.24910 0.23437
 C1257 C 0.49132 0.24060 0.22526
 C1258 C 0.50569 0.24065 0.22496
 C1259 C 0.51325 0.24914 0.23381
 C1260 C 0.50605 0.25774 0.24319
 C1261 C 0.49178 0.27458 0.26192
 C1262 C 0.50615 0.27450 0.26174
 C1263 C 0.51348 0.26607 0.25256
 C1264 C 0.52807 0.26576 0.25242
 C1265 C 0.53497 0.25739 0.24300
 C1266 C 0.52783 0.24906 0.23381
 H1267 H 0.48600 0.23375 0.21834
 H1268 H 0.51086 0.23385 0.21781
 H1269 H 0.48665 0.28112 0.26933
 H1270 H 0.51146 0.28109 0.26889
 H1271 H 0.45131 0.25721 0.24475
 H1272 H 0.54617 0.25709 0.24305
 C1273 C 1.02882 0.73723 0.75041
 C1274 C 1.03594 0.74567 0.74127
 C1275 C 1.02902 0.75459 0.73236
 C1276 C 1.01445 0.75516 0.73250
 C1277 C 1.00705 0.74671 0.74182
 C1278 C 1.01425 0.73768 0.75080
 C1279 C 1.00674 0.72963 0.76013
 C1280 C 0.99240 0.73042 0.76068
 C1281 C 0.98506 0.73938 0.75200
 C1282 C 0.99243 0.74752 0.74239
 C1283 C 1.00711 0.76417 0.72389
 C1284 C 0.99275 0.76485 0.72433
 C1285 C 0.98522 0.75659 0.73347
 C1286 C 0.97066 0.75734 0.73418
 C1287 C 0.96359 0.74924 0.74367
 C1288 C 0.97053 0.74037 0.75259
 H1289 H 1.01189 0.72272 0.76718
 H1290 H 0.98711 0.72397 0.76802
 H1291 H 1.01243 0.77087 0.71678
 H1292 H 0.98761 0.77204 0.71755
 H1293 H 1.04714 0.74539 0.74116
 H1294 H 0.95241 0.74987 0.74415
 C1295 C 0.52945 0.74072 0.25365
 C1296 C 0.53626 0.74986 0.24497
 C1297 C 0.52907 0.75879 0.23630
 C1298 C 0.51447 0.75861 0.23622
 C1299 C 0.50736 0.74939 0.24504
 C1300 C 0.51487 0.74040 0.25379
 C1301 C 0.50762 0.73154 0.26260
 C1302 C 0.49325 0.73152 0.26286
 C1303 C 0.48559 0.74041 0.25438
 C1304 C 0.49271 0.74932 0.24526
 C1305 C 0.50680 0.76762 0.22788
 C1306 C 0.49243 0.76740 0.22794
 C1307 C 0.48519 0.75826 0.23646
 C1308 C 0.47062 0.75804 0.23668
 C1309 C 0.46379 0.74926 0.24574
 C1310 C 0.47100 0.74057 0.25465
 H1311 H 0.51302 0.72458 0.26943
 H1312 H 0.48818 0.72442 0.26975
 H1313 H 0.51184 0.77500 0.22127
 H1314 H 0.48703 0.77461 0.22138
 H1315 H 0.54746 0.74999 0.24491
 H1316 H 0.45259 0.74928 0.24593
 C1317 C -0.03004 0.74793 0.23586
 C1318 C -0.03718 0.75608 0.24533
 C1319 C -0.03037 0.76540 0.25380
 C1320 C -0.01586 0.76659 0.25297
 C1321 C -0.00840 0.75831 0.24349
 C1322 C -0.01550 0.74896 0.23487
 C1323 C -0.00786 0.74066 0.22580
 C1324 C 0.00648 0.74159 0.22509
 C1325 C 0.01370 0.75081 0.23346
 C1326 C 0.00621 0.75920 0.24282
 C1327 C -0.00859 0.77559 0.26155
 C1328 C 0.00572 0.77646 0.26088
 C1329 C 0.01333 0.76824 0.25174
 C1330 C 0.02790 0.76881 0.25125
 C1331 C 0.03507 0.76066 0.24183
 C1332 C 0.02826 0.75163 0.23305
 H1333 H -0.01287 0.73323 0.21926
 H1334 H 0.01187 0.73490 0.21799
 H1335 H -0.01390 0.78197 0.26897
 H1336 H 0.01077 0.78366 0.26765
 H1337 H -0.04833 0.75533 0.24596
 H1338 H 0.04626 0.76099 0.24164
 C1339 C 0.46927 0.74286 0.74169
 C1340 C 0.46273 0.75230 0.75036
 C1341 C 0.47019 0.76158 0.75828
 C1342 C 0.48474 0.76154 0.75768
 C1343 C 0.49160 0.75213 0.74886
 C1344 C 0.48386 0.74273 0.74083
 C1345 C 0.49091 0.73363 0.73207
 C1346 C 0.50527 0.73354 0.73140
 C1347 C 0.51312 0.74269 0.73930
 C1348 C 0.50623 0.75209 0.74812
 C1349 C 0.49258 0.77049 0.76582
 C1350 C 0.50693 0.77032 0.76522
 C1351 C 0.51396 0.76130 0.75637
 C1352 C 0.52853 0.76097 0.75576
 C1353 C 0.53512 0.75163 0.74708
 C1354 C 0.52770 0.74254 0.73888
 H1355 H 0.48539 0.72648 0.72565
 H1356 H 0.51017 0.72616 0.72465
 H1357 H 0.48767 0.77762 0.77283
 H1358 H 0.51248 0.77729 0.77183
 H1359 H 0.45155 0.75240 0.75099
 H1360 H 0.54632 0.75144 0.74669
 C1361 C 0.40395 0.28985 0.31309
 C1362 C 0.41215 0.29630 0.30295
 C1363 C 0.40931 0.31030 0.29993
 C1364 C 0.39828 0.31722 0.30636
 C1365 C 0.39002 0.31050 0.31605
 C1366 C 0.39312 0.29684 0.31947
 C1367 C 0.41741 0.31733 0.29045
 C1368 C 0.42819 0.31074 0.28368
 C1369 C 0.43116 0.29668 0.28593
 C1370 C 0.42294 0.28931 0.29567
 C1371 C 0.42549 0.27511 0.29752
 C1372 C 0.43555 0.26827 0.29003
 C1373 C 0.44360 0.27526 0.28051
 C1374 C 0.44178 0.28961 0.27847
 C1375 C 0.45052 0.29616 0.26879
 C1376 C 0.46003 0.28860 0.26104
 C1377 C 0.46126 0.27439 0.26280
 C1378 C 0.45322 0.26782 0.27270
 H1379 H 0.40561 0.27941 0.31642
 H1380 H 0.39618 0.32788 0.30383
 H1381 H 0.38699 0.29134 0.32693
 H1382 H 0.41537 0.32806 0.28818
 H1383 H 0.43380 0.31695 0.27646
 H1384 H 0.41961 0.26880 0.30442
 H1385 H 0.43690 0.25730 0.29160
 H1386 H 0.45015 0.30704 0.26679
 H1387 H 0.46616 0.29380 0.25335
 H1388 H 0.45419 0.25677 0.27399
 C1389 C 0.40279 0.78836 0.81354
 C1390 C 0.41181 0.79482 0.80416
 C1391 C 0.40842 0.80833 0.79981
 C1392 C 0.39661 0.81508 0.80492
 C1393 C 0.38752 0.80837 0.81392
 C1394 C 0.39089 0.79496 0.81820
 C1395 C 0.41661 0.81491 0.79006
 C1396 C 0.42779 0.80819 0.78411
 C1397 C 0.43150 0.79466 0.78795
 C1398 C 0.42371 0.78809 0.79856
 C1399 C 0.42794 0.77493 0.80307
 C1400 C 0.43855 0.76785 0.79663
 C1401 C 0.44554 0.77365 0.78560
 C1402 C 0.44248 0.78729 0.78132
 C1403 C 0.45023 0.79272 0.77022
 C1404 C 0.45987 0.78459 0.76322
 C1405 C 0.46217 0.77096 0.76715
 C1406 C 0.45529 0.76566 0.77854
 H1407 H 0.40434 0.77802 0.81721
 H1408 H 0.39429 0.82537 0.80134
 H1409 H 0.38441 0.78937 0.82528
 H1410 H 0.41410 0.82525 0.78668
 H1411 H 0.43329 0.81392 0.77642
 H1412 H 0.42321 0.76971 0.81159
 H1413 H 0.44112 0.75757 0.80015
 H1414 H 0.44878 0.80300 0.76637
 H1415 H 0.46514 0.78878 0.75437
 H1416 H 0.45712 0.75505 0.78151
 C1417 C -0.10090 0.28757 0.80651
 C1418 C -0.09120 0.29446 0.79814
 C1419 C -0.09327 0.30873 0.79581
 C1420 C -0.10440 0.31576 0.80199
 C1421 C -0.11361 0.30878 0.81059
 C1422 C -0.11181 0.29463 0.81261
 C1423 C -0.08419 0.31593 0.78738
 C1424 C -0.07313 0.30930 0.78108
 C1425 C -0.07058 0.29511 0.78308
 C1426 C -0.07966 0.28762 0.79193
 C1427 C -0.07690 0.27354 0.79431
 C1428 C -0.06606 0.26684 0.78788
 C1429 C -0.05744 0.27382 0.77887
 C1430 C -0.05937 0.28809 0.77642
 C1431 C -0.05018 0.29457 0.76713
 C1432 C -0.04006 0.28701 0.76014
 C1433 C -0.03862 0.27287 0.76236
 C1434 C -0.04712 0.26643 0.77197
 H1435 H -0.10050 0.27670 0.80854
 H1436 H -0.10571 0.32671 0.80034
 H1437 H -0.11895 0.28887 0.81890
 H1438 H -0.08570 0.32683 0.78554
 H1439 H -0.06673 0.31565 0.77469
 H1440 H -0.08294 0.26729 0.80113
 H1441 H -0.06452 0.25596 0.78986
 H1442 H -0.05077 0.30536 0.76469
 H1443 H -0.03367 0.29211 0.75259
 H1444 H -0.04606 0.25543 0.77359
 C1445 C -0.09642 0.78896 0.31362
 C1446 C -0.08823 0.79542 0.30348
 C1447 C -0.09132 0.80932 0.30024
 C1448 C -0.10248 0.81615 0.30654
 C1449 C -0.11073 0.80944 0.31625
 C1450 C -0.10744 0.79585 0.31983
 C1451 C -0.08335 0.81634 0.29064
 C1452 C -0.07252 0.80982 0.28390
 C1453 C -0.06928 0.79586 0.28636
 C1454 C -0.07725 0.78853 0.29634
 C1455 C -0.07424 0.77448 0.29859
 C1456 C -0.06409 0.76769 0.29114
 C1457 C -0.05640 0.77459 0.28126
 C1458 C -0.05861 0.78884 0.27889
 C1459 C -0.05023 0.79534 0.26888
 C1460 C -0.04067 0.78782 0.26115
 C1461 C -0.03901 0.77370 0.26325
 C1462 C -0.04672 0.76718 0.27345
 H1463 H -0.09466 0.77857 0.31704
 H1464 H -0.10470 0.82674 0.30383
 H1465 H -0.11351 0.79034 0.32732
 H1466 H -0.08559 0.82700 0.28821
 H1467 H -0.06705 0.81603 0.27657
 H1468 H -0.07976 0.76824 0.30585
 H1469 H -0.06238 0.75682 0.29303
 H1470 H -0.05092 0.80615 0.26659
 H1471 H -0.03480 0.79299 0.25324
 H1472 H -0.04542 0.75621 0.27504
 C1473 C 0.59796 0.71501 0.30922
 C1474 C 0.58917 0.70878 0.29951
 C1475 C 0.59169 0.69478 0.29621
 C1476 C 0.60260 0.68747 0.30242
 C1477 C 0.61108 0.69383 0.31211
 C1478 C 0.60865 0.70764 0.31538
 C1479 C 0.58331 0.68811 0.28675
 C1480 C 0.57247 0.69500 0.28040
 C1481 C 0.56955 0.70897 0.28322
 C1482 C 0.57805 0.71597 0.29295
 C1483 C 0.57525 0.72997 0.29570
 C1484 C 0.56477 0.73700 0.28902
 C1485 C 0.55654 0.73041 0.27941
 C1486 C 0.55860 0.71626 0.27647
 C1487 C 0.54973 0.71014 0.26668
 C1488 C 0.53975 0.71793 0.25978
 C1489 C 0.53820 0.73195 0.26250
 C1490 C 0.54645 0.73808 0.27246
 H1491 H 0.59694 0.72556 0.31239
 H1492 H 0.60432 0.67675 0.29987
 H1493 H 0.61511 0.71294 0.32267
 H1494 H 0.58516 0.67741 0.28420
 H1495 H 0.56662 0.68905 0.27319
 H1496 H 0.58107 0.73596 0.30289
 H1497 H 0.56319 0.74781 0.29131
 H1498 H 0.55037 0.69945 0.26390
 H1499 H 0.53352 0.71311 0.25195
 H1500 H 0.54529 0.74900 0.27445
 C1501 C 0.59562 0.21274 0.81347
 C1502 C 0.58789 0.20694 0.80267
 C1503 C 0.59130 0.19336 0.79854
 C1504 C 0.60240 0.18625 0.80464
 C1505 C 0.61019 0.19236 0.81506
 C1506 C 0.60654 0.20559 0.81948
 C1507 C 0.58370 0.18695 0.78828
 C1508 C 0.57282 0.19374 0.78189
 C1509 C 0.56921 0.20739 0.78535
 C1510 C 0.57700 0.21416 0.79579
 C1511 C 0.57394 0.22807 0.79874
 C1512 C 0.56379 0.23520 0.79167
 C1513 C 0.55610 0.22877 0.78152
 C1514 C 0.55840 0.21469 0.77839
 C1515 C 0.54993 0.20866 0.76822
 C1516 C 0.54025 0.21652 0.76099
 C1517 C 0.53863 0.23052 0.76377
 C1518 C 0.54636 0.23652 0.77420
 H1519 H 0.59350 0.22278 0.81764
 H1520 H 0.60490 0.17593 0.80127
 H1521 H 0.61223 0.21065 0.82753
 H1522 H 0.58623 0.17656 0.78509
 H1523 H 0.56764 0.18806 0.77397
 H1524 H 0.57949 0.23397 0.80621
 H1525 H 0.56205 0.24595 0.79408
 H1526 H 0.55060 0.19795 0.76548
 H1527 H 0.53431 0.21177 0.75291
 H1528 H 0.54506 0.24741 0.77628
 C1529 C 1.09571 0.71278 0.80836
 C1530 C 1.08664 0.70617 0.79916
 C1531 C 1.08862 0.69189 0.79690
 C1532 C 1.09932 0.68469 0.80357
 C1533 C 1.10819 0.69146 0.81264
 C1534 C 1.10622 0.70554 0.81493
 C1535 C 1.07994 0.68485 0.78798
 C1536 C 1.06940 0.69167 0.78108
 C1537 C 1.06711 0.70593 0.78276
 C1538 C 1.07581 0.71327 0.79205
 C1539 C 1.07350 0.72752 0.79383
 C1540 C 1.06338 0.73446 0.78655
 C1541 C 1.05507 0.72756 0.77724
 C1542 C 1.05660 0.71317 0.77530
 C1543 C 1.04771 0.70677 0.76570
 C1544 C 1.03824 0.71448 0.75804
 C1545 C 1.03723 0.72870 0.75981
 C1546 C 1.04547 0.73514 0.76957
 H1547 H 1.09509 0.72357 0.81072
 H1548 H 1.10064 0.67377 0.80175
 H1549 H 1.11295 0.71118 0.82171
 H1550 H 1.08136 0.67392 0.78625
 H1551 H 1.06326 0.68541 0.77438
 H1552 H 1.07945 0.73376 0.80069
 H1553 H 1.06217 0.74544 0.78811
 H1554 H 1.04799 0.69590 0.76363
 H1555 H 1.03197 0.70940 0.75042
 H1556 H 1.04468 0.74620 0.77085
 C1557 C 1.09717 0.21658 0.31441
 C1558 C 1.08804 0.21053 0.30485
 C1559 C 1.08988 0.19636 0.30191
 C1560 C 1.10065 0.18882 0.30800
 C1561 C 1.10973 0.19507 0.31722
 C1562 C 1.10778 0.20896 0.32045
 C1563 C 1.08101 0.18976 0.29286
 C1564 C 1.07036 0.19690 0.28649
 C1565 C 1.06824 0.21109 0.28879
 C1566 C 1.07728 0.21804 0.29808
 C1567 C 1.07544 0.23231 0.30006
 C1568 C 1.06531 0.23962 0.29314
 C1569 C 1.05648 0.23305 0.28406
 C1570 C 1.05760 0.21866 0.28187
 C1571 C 1.04816 0.21257 0.27260
 C1572 C 1.03858 0.22058 0.26541
 C1573 C 1.03796 0.23479 0.26736
 C1574 C 1.04676 0.24093 0.27685
 H1575 H 1.09646 0.22718 0.31749
 H1576 H 1.10189 0.17801 0.30558
 H1577 H 1.11463 0.21410 0.32751
 H1578 H 1.08233 0.17891 0.29061
 H1579 H 1.06411 0.19098 0.27960
 H1580 H 1.08188 0.23831 0.30671
 H1581 H 1.06448 0.25062 0.29482
 H1582 H 1.04803 0.20172 0.27046
 H1583 H 1.03191 0.21572 0.25798
 H1584 H 1.04630 0.25199 0.27826
 C1585 C 0.59967 0.28554 0.68359
 C1586 C 0.59044 0.29125 0.69333
 C1587 C 0.59228 0.30524 0.69695
 C1588 C 0.60314 0.31293 0.69129
 C1589 C 0.61228 0.30702 0.68182
 C1590 C 0.61036 0.29330 0.67799
 C1591 C 0.58329 0.31152 0.70622
 C1592 C 0.57247 0.30425 0.71206
 C1593 C 0.57028 0.29024 0.70898
 C1594 C 0.57953 0.28359 0.69960
 C1595 C 0.57774 0.26943 0.69699
 C1596 C 0.56737 0.26198 0.70331
 C1597 C 0.55824 0.26829 0.71238
 C1598 C 0.55936 0.28255 0.71524
 C1599 C 0.54961 0.28839 0.72443
 C1600 C 0.53972 0.28025 0.73095
 C1601 C 0.53909 0.26613 0.72840
 C1602 C 0.54821 0.26027 0.71894
 H1603 H 0.59895 0.27511 0.67997
 H1604 H 0.60436 0.32360 0.69420
 H1605 H 0.61724 0.28838 0.67073
 H1606 H 0.58464 0.32221 0.70903
 H1607 H 0.56614 0.30991 0.71918
 H1608 H 0.58440 0.26362 0.69030
 H1609 H 0.56657 0.25108 0.70114
 H1610 H 0.54945 0.29915 0.72701
 H1611 H 0.53283 0.28490 0.73839
 H1612 H 0.54777 0.24928 0.71706
 C1613 C 0.59810 0.81410 0.21130
 C1614 C 0.58846 0.80526 0.20492
 C1615 C 0.59001 0.80292 0.19066
 C1616 C 0.60099 0.80881 0.18335
 C1617 C 0.61063 0.81722 0.18991
 C1618 C 0.60893 0.81996 0.20389
 C1619 C 0.58066 0.79460 0.18374
 C1620 C 0.56989 0.78830 0.19066
 C1621 C 0.56805 0.78995 0.20492
 C1622 C 0.57747 0.79861 0.21217
 C1623 C 0.57577 0.80010 0.22647
 C1624 C 0.56543 0.79324 0.23349
 C1625 C 0.55630 0.78466 0.22662
 C1626 C 0.55731 0.78297 0.21222
 C1627 C 0.54769 0.77406 0.20585
 C1628 C 0.53804 0.76673 0.21357
 C1629 C 0.53748 0.76821 0.22779
 C1630 C 0.54644 0.77739 0.23421
 H1631 H 0.59765 0.81671 0.22201
 H1632 H 0.60199 0.80686 0.17247
 H1633 H 0.61618 0.82643 0.20925
 H1634 H 0.58174 0.79284 0.17282
 H1635 H 0.56325 0.78202 0.18448
 H1636 H 0.58245 0.80632 0.23267
 H1637 H 0.56469 0.79453 0.24450
 H1638 H 0.54754 0.77223 0.19498
 H1639 H 0.53131 0.75951 0.20847
 H1640 H 0.54606 0.77840 0.24527
 C1641 C 1.09959 0.28730 0.18685
 C1642 C 1.08998 0.29353 0.19590
 C1643 C 1.09145 0.30778 0.19855
 C1644 C 1.10226 0.31529 0.19253
 C1645 C 1.11169 0.30888 0.18367
 C1646 C 1.11018 0.29487 0.18086
 C1647 C 1.08216 0.31449 0.20722
 C1648 C 1.07140 0.30739 0.21338
 C1649 C 1.06951 0.29317 0.21119
 C1650 C 1.07903 0.28610 0.20238
 C1651 C 1.07741 0.27181 0.20047
 C1652 C 1.06696 0.26461 0.20693
 C1653 C 1.05764 0.27130 0.21552
 C1654 C 1.05860 0.28568 0.21771
 C1655 C 1.04872 0.29185 0.22656
 C1656 C 1.03881 0.28393 0.23332
 C1657 C 1.03831 0.26972 0.23134
 C1658 C 1.04756 0.26351 0.22225
 H1659 H 1.09929 0.27659 0.18412
 H1660 H 1.10323 0.32618 0.19464
 H1661 H 1.11736 0.28960 0.17415
 H1662 H 1.08323 0.32538 0.20929
 H1663 H 1.06480 0.31339 0.21997
 H1664 H 1.08419 0.26571 0.19418
 H1665 H 1.06628 0.25361 0.20529
 H1666 H 1.04850 0.30270 0.22873
 H1667 H 1.03180 0.28883 0.24049
 H1668 H 1.04722 0.25245 0.22085
 C1669 C 1.09913 0.80854 0.70895
 C1670 C 1.08985 0.79962 0.70222
 C1671 C 1.09247 0.79656 0.68825
 C1672 C 1.10381 0.80241 0.68137
 C1673 C 1.11273 0.81138 0.68819
 C1674 C 1.11029 0.81427 0.70204
 C1675 C 1.08378 0.78767 0.68119
 C1676 C 1.07261 0.78156 0.68770
 C1677 C 1.06959 0.78416 0.70162
 C1678 C 1.07824 0.79352 0.70894
 C1679 C 1.07503 0.79645 0.72276
 C1680 C 1.06419 0.79005 0.72941
 C1681 C 1.05602 0.78053 0.72261
 C1682 C 1.05837 0.77756 0.70857
 C1683 C 1.04958 0.76782 0.70225
 C1684 C 1.03947 0.76090 0.70978
 C1685 C 1.03770 0.76359 0.72373
 C1686 C 1.04576 0.77362 0.73000
 H1687 H 1.09821 0.81125 0.71959
 H1688 H 1.10556 0.80009 0.67066
 H1689 H 1.11711 0.82091 0.70773
 H1690 H 1.08569 0.78530 0.67050
 H1691 H 1.06654 0.77477 0.68147
 H1692 H 1.08074 0.80364 0.72886
 H1693 H 1.06231 0.79244 0.74010
 H1694 H 1.05048 0.76499 0.69162
 H1695 H 1.03336 0.75304 0.70484
 H1696 H 1.04439 0.77560 0.74085
 C1697 C 0.39667 0.71375 0.69378
 C1698 C 0.40737 0.70773 0.70165
 C1699 C 0.40686 0.69332 0.70394
 C1700 C 0.39617 0.68536 0.69827
 C1701 C 0.38595 0.69152 0.69014
 C1702 C 0.38627 0.70576 0.68812
 C1703 C 0.41709 0.68692 0.71174
 C1704 C 0.42781 0.69446 0.71743
 C1705 C 0.42880 0.70883 0.71548
 C1706 C 0.41848 0.71554 0.70732
 C1707 C 0.41963 0.72983 0.70503
 C1708 C 0.43022 0.73741 0.71072
 C1709 C 0.44014 0.73114 0.71894
 C1710 C 0.43971 0.71676 0.72144
 C1711 C 0.45009 0.71107 0.73003
 C1712 C 0.46010 0.71942 0.73611
 C1713 C 0.46021 0.73360 0.73369
 C1714 C 0.45033 0.73933 0.72495
 H1715 H 0.39592 0.72460 0.69176
 H1716 H 0.39602 0.67432 0.69986
 H1717 H 0.37835 0.71087 0.68212
 H1718 H 0.41682 0.67591 0.71348
 H1719 H 0.43524 0.68866 0.72327
 H1720 H 0.41251 0.73561 0.69880
 H1721 H 0.43055 0.74838 0.70877
 H1722 H 0.45058 0.70030 0.73256
 H1723 H 0.46752 0.71485 0.74307
 H1724 H 0.45031 0.75035 0.72321
 C1725 C 0.40136 0.19207 0.21132
 C1726 C 0.40987 0.20197 0.20488
 C1727 C 0.40699 0.20529 0.19101
 C1728 C 0.39605 0.19893 0.18404
 C1729 C 0.38783 0.18907 0.19058
 C1730 C 0.39061 0.18577 0.20427
 C1731 C 0.41506 0.21491 0.18413
 C1732 C 0.42593 0.22142 0.19067
 C1733 C 0.42921 0.21860 0.20449
 C1734 C 0.42104 0.20869 0.21171
 C1735 C 0.42425 0.20591 0.22556
 C1736 C 0.43479 0.21274 0.23224
 C1737 C 0.44268 0.22254 0.22545
 C1738 C 0.44022 0.22551 0.21142
 C1739 C 0.44875 0.23550 0.20507
 C1740 C 0.45876 0.24259 0.21254
 C1741 C 0.46069 0.23985 0.22646
 C1742 C 0.45281 0.22966 0.23278
 H1743 H 0.40266 0.18891 0.22181
 H1744 H 0.39409 0.20152 0.17341
 H1745 H 0.38436 0.17834 0.20969
 H1746 H 0.41293 0.21748 0.17353
 H1747 H 0.43153 0.22874 0.18456
 H1748 H 0.41870 0.19857 0.23168
 H1749 H 0.43669 0.21040 0.24294
 H1750 H 0.44779 0.23833 0.19445
 H1751 H 0.46469 0.25058 0.20755
 H1752 H 0.45426 0.22765 0.24362
 C1753 C -0.09710 0.69043 0.21114
 C1754 C -0.08812 0.69989 0.20468
 C1755 C -0.09027 0.70263 0.19057
 C1756 C -0.10102 0.69618 0.18338
 C1757 C -0.10979 0.68685 0.18999
 C1758 C -0.10765 0.68405 0.20390
 C1759 C -0.08172 0.71182 0.18367
 C1760 C -0.07111 0.71852 0.19046
 C1761 C -0.06864 0.71635 0.20456
 C1762 C -0.07722 0.70679 0.21176
 C1763 C -0.07472 0.70453 0.22584
 C1764 C -0.06451 0.71160 0.23277
 C1765 C -0.05630 0.72116 0.22601
 C1766 C -0.05803 0.72358 0.21178
 C1767 C -0.04924 0.73339 0.20551
 C1768 C -0.03968 0.74082 0.21320
 C1769 C -0.03841 0.73859 0.22729
 C1770 C -0.04657 0.72859 0.23358
 H1771 H -0.09638 0.68774 0.22181
 H1772 H -0.10247 0.69839 0.17260
 H1773 H -0.11431 0.67703 0.20938
 H1774 H -0.08329 0.71394 0.17287
 H1775 H -0.06508 0.72545 0.18431
 H1776 H -0.08056 0.69742 0.23196
 H1777 H -0.06314 0.70965 0.24363
 H1778 H -0.04968 0.73584 0.19476
 H1779 H -0.03355 0.74866 0.20823
 H1780 H -0.04565 0.72695 0.24454
 C1781 C -0.09765 0.18832 0.71275
 C1782 C -0.08804 0.19706 0.70613
 C1783 C -0.08935 0.19876 0.69176
 C1784 C -0.10004 0.19230 0.68455
 C1785 C -0.10965 0.18398 0.69133
 C1786 C -0.10821 0.18191 0.70545
 C1787 C -0.08007 0.20701 0.68462
 C1788 C -0.06961 0.21389 0.69141
 C1789 C -0.06802 0.21290 0.70575
 C1790 C -0.07734 0.20426 0.71323
 C1791 C -0.07579 0.20331 0.72759
 C1792 C -0.06572 0.21068 0.73446
 C1793 C -0.05674 0.21929 0.72737
 C1794 C -0.05761 0.22046 0.71291
 C1795 C -0.04817 0.22943 0.70632
 C1796 C -0.03876 0.23721 0.71384
 C1797 C -0.03824 0.23617 0.72811
 C1798 C -0.04713 0.22704 0.73479
 H1799 H -0.09741 0.18624 0.72358
 H1800 H -0.10087 0.19381 0.67357
 H1801 H -0.11550 0.17558 0.71099
 H1802 H -0.08096 0.20825 0.67362
 H1803 H -0.06299 0.22006 0.68505
 H1804 H -0.08234 0.19707 0.73394
 H1805 H -0.06510 0.20976 0.74551
 H1806 H -0.04796 0.23095 0.69539
 H1807 H -0.03211 0.24439 0.70853
 H1808 H -0.04682 0.22633 0.74588
 C1809 C 0.28684 0.39968 0.30940
 C1810 C 0.29340 0.40900 0.30038
 C1811 C 0.30756 0.40668 0.29738
 C1812 C 0.31474 0.39559 0.30338
 C1813 C 0.30808 0.38667 0.31250
 C1814 C 0.29407 0.38880 0.31532
 C1815 C 0.31448 0.41547 0.28844
 C1816 C 0.30772 0.42654 0.28237
 C1817 C 0.29365 0.42934 0.28502
 C1818 C 0.28638 0.42043 0.29422
 C1819 C 0.27232 0.42320 0.29692
 C1820 C 0.26545 0.43401 0.29063
 C1821 C 0.27227 0.44260 0.28148
 C1822 C 0.28650 0.44060 0.27864
 C1823 C 0.29283 0.44984 0.26928
 C1824 C 0.28513 0.46006 0.26262
 C1825 C 0.27102 0.46150 0.26519
 C1826 C 0.26473 0.45296 0.27483
 H1827 H 0.27610 0.40040 0.31214
 H1828 H 0.32560 0.39406 0.30113
 H1829 H 0.28852 0.38194 0.32208
 H1830 H 0.32529 0.41375 0.28608
 H1831 H 0.31386 0.43270 0.27554
 H1832 H 0.26616 0.41716 0.30382
 H1833 H 0.25459 0.43555 0.29286
 H1834 H 0.30359 0.44925 0.26660
 H1835 H 0.29008 0.46651 0.25503
 H1836 H 0.25373 0.45403 0.27668
 C1837 C 0.29494 -0.09156 0.82100
 C1838 C 0.29884 -0.08587 0.80823
 C1839 C 0.31074 -0.09137 0.80177
 C1840 C 0.31777 -0.10267 0.80746
 C1841 C 0.31344 -0.10865 0.81986
 C1842 C 0.30212 -0.10269 0.82667
 C1843 C 0.31554 -0.08567 0.78956
 C1844 C 0.30877 -0.07463 0.78351
 C1845 C 0.29659 -0.06905 0.78925
 C1846 C 0.29135 -0.07498 0.80164
 C1847 C 0.27853 -0.07023 0.80671
 C1848 C 0.27098 -0.06020 0.79984
 C1849 C 0.27602 -0.05423 0.78787
 C1850 C 0.28911 -0.05820 0.78263
 C1851 C 0.29400 -0.05130 0.77077
 C1852 C 0.28572 -0.04177 0.76387
 C1853 C 0.27251 -0.03865 0.76868
 C1854 C 0.26781 -0.04461 0.78084
 H1855 H 0.28648 -0.08756 0.82698
 H1856 H 0.32667 -0.10671 0.80207
 H1857 H 0.29852 -0.10666 0.83638
 H1858 H 0.32466 -0.08982 0.78457
 H1859 H 0.31309 -0.07104 0.77400
 H1860 H 0.27371 -0.07449 0.81570
 H1861 H 0.26098 -0.05721 0.80388
 H1862 H 0.30409 -0.05310 0.76649
 H1863 H 0.28948 -0.03710 0.75450
 H1864 H 0.25754 -0.04210 0.78452
 C1865 C 0.79040 0.40571 0.81947
 C1866 C 0.79489 0.41231 0.80738
 C1867 C 0.80749 0.40779 0.80150
 C1868 C 0.81466 0.39645 0.80701
 C1869 C 0.80971 0.38953 0.81869
 C1870 C 0.79764 0.39460 0.82497
 C1871 C 0.81284 0.41456 0.79007
 C1872 C 0.80592 0.42568 0.78427
 C1873 C 0.79306 0.43023 0.78943
 C1874 C 0.78730 0.42320 0.80097
 C1875 C 0.77389 0.42688 0.80538
 C1876 C 0.76632 0.43702 0.79876
 C1877 C 0.77187 0.44414 0.78768
 C1878 C 0.78546 0.44118 0.78307
 C1879 C 0.79072 0.44915 0.77208
 C1880 C 0.78244 0.45887 0.76540
 C1881 C 0.76881 0.46102 0.76958
 C1882 C 0.76367 0.45390 0.78088
 H1883 H 0.78140 0.40898 0.82510
 H1884 H 0.82413 0.39311 0.80212
 H1885 H 0.79349 0.38997 0.83414
 H1886 H 0.82251 0.41122 0.78554
 H1887 H 0.81071 0.43017 0.77538
 H1888 H 0.76863 0.42168 0.81360
 H1889 H 0.75592 0.43921 0.80227
 H1890 H 0.80112 0.44806 0.76830
 H1891 H 0.78652 0.46439 0.75666
 H1892 H 0.75307 0.45565 0.78406
 C1893 C 0.79157 -0.09498 0.31374
 C1894 C 0.79726 -0.08831 0.30219
 C1895 C 0.80964 -0.09382 0.29665
 C1896 C 0.81604 -0.10538 0.30265
 C1897 C 0.81028 -0.11187 0.31420
 C1898 C 0.79794 -0.10644 0.31957
 C1899 C 0.81554 -0.08783 0.28507
 C1900 C 0.80932 -0.07664 0.27865
 C1901 C 0.79691 -0.07084 0.28366
 C1902 C 0.79097 -0.07656 0.29584
 C1903 C 0.77891 -0.07038 0.30124
 C1904 C 0.77252 -0.05941 0.29472
 C1905 C 0.77779 -0.05413 0.28255
 C1906 C 0.79012 -0.05963 0.27684
 C1907 C 0.79481 -0.05395 0.26428
 C1908 C 0.78721 -0.04376 0.25750
 C1909 C 0.77493 -0.03873 0.26313
 C1910 C 0.77043 -0.04369 0.27577
 H1911 H 0.78206 -0.09177 0.31849
 H1912 H 0.82551 -0.10928 0.29819
 H1913 H 0.79291 -0.11099 0.32835
 H1914 H 0.82504 -0.09193 0.28080
 H1915 H 0.81458 -0.07275 0.26975
 H1916 H 0.77406 -0.07375 0.31057
 H1917 H 0.76314 -0.05518 0.29915
 H1918 H 0.80398 -0.05750 0.25912
 H1919 H 0.79064 -0.04017 0.24756
 H1920 H 0.76074 -0.03993 0.27994
 C1921 C 0.28811 0.59686 0.68976
 C1922 C 0.29402 0.58848 0.70009
 C1923 C 0.30794 0.59102 0.70373
 C1924 C 0.31533 0.60185 0.69759
 C1925 C 0.30919 0.61017 0.68753
 C1926 C 0.29556 0.60746 0.68366
 C1927 C 0.31442 0.58273 0.71348
 C1928 C 0.30744 0.57195 0.71974
 C1929 C 0.29348 0.56916 0.71670
 C1930 C 0.28659 0.57773 0.70688
 C1931 C 0.27242 0.57550 0.70442
 C1932 C 0.26519 0.56535 0.71131
 C1933 C 0.27174 0.55685 0.72079
 C1934 C 0.28604 0.55837 0.72346
 C1935 C 0.29217 0.54914 0.73298
 C1936 C 0.28424 0.53944 0.74003
 C1937 C 0.27006 0.53851 0.73772
 C1938 C 0.26392 0.54706 0.72792
 H1939 H 0.27778 0.59546 0.68599
 H1940 H 0.32593 0.60367 0.70055
 H1941 H 0.29045 0.61363 0.67594
 H1942 H 0.32506 0.58458 0.71632
 H1943 H 0.31323 0.56617 0.72720
 H1944 H 0.26642 0.58169 0.69747
 H1945 H 0.25425 0.56424 0.70926
 H1946 H 0.30302 0.54923 0.73534
 H1947 H 0.28912 0.53292 0.74765
 H1948 H 0.25290 0.54634 0.72617
 C1949 C 0.31164 1.09617 0.21273
 C1950 C 0.30125 1.08772 0.20708
 C1951 C 0.29753 1.09004 0.19322
 C1952 C 0.30374 1.10064 0.18560
 C1953 C 0.31386 1.10904 0.19147
 C1954 C 0.31776 1.10659 0.20506
 C1955 C 0.28762 1.08179 0.18702
 C1956 C 0.28127 1.07123 0.19424
 C1957 C 0.28445 1.06859 0.20812
 C1958 C 0.29448 1.07710 0.21469
 C1959 C 0.29723 1.07490 0.22873
 C1960 C 0.29045 1.06482 0.23614
 C1961 C 0.28075 1.05640 0.22990
 C1962 C 0.27771 1.05795 0.21576
 C1963 C 0.26787 1.04887 0.21000
 C1964 C 0.26097 1.03922 0.21813
 C1965 C 0.26377 1.03822 0.23213
 C1966 C 0.27380 1.04666 0.23790
 H1967 H 0.31539 1.09501 0.22304
 H1968 H 0.30072 1.10226 0.17503
 H1969 H 0.32551 1.11284 0.20996
 H1970 H 0.28472 1.08350 0.17643
 H1971 H 0.27369 1.06546 0.18865
 H1972 H 0.30438 1.08101 0.23450
 H1973 H 0.29275 1.06369 0.24695
 H1974 H 0.26510 1.04907 0.19933
 H1975 H 0.25314 1.03279 0.21356
 H1976 H 0.27586 1.04589 0.24880
 C1977 C 0.80762 0.59954 0.21338
 C1978 C 0.79796 0.59050 0.20739
 C1979 C 0.79435 0.59280 0.19349
 C1980 C 0.80040 0.60358 0.18597
 C1981 C 0.81016 0.61223 0.19205
 C1982 C 0.81358 0.61011 0.20582
 C1983 C 0.78471 0.58433 0.18716
 C1984 C 0.77853 0.57360 0.19427
 C1985 C 0.78180 0.57081 0.20810
 C1986 C 0.79172 0.57939 0.21476
 C1987 C 0.79507 0.57658 0.22857
 C1988 C 0.78865 0.56616 0.23581
 C1989 C 0.77878 0.55793 0.22960
 C1990 C 0.77535 0.55989 0.21560
 C1991 C 0.76541 0.55092 0.20983
 C1992 C 0.75881 0.54097 0.21783
 C1993 C 0.76198 0.53958 0.23171
 C1994 C 0.77210 0.54790 0.23748
 H1995 H 0.81080 0.59885 0.22391
 H1996 H 0.79765 0.60509 0.17531
 H1997 H 0.82085 0.61675 0.21095
 H1998 H 0.78184 0.58607 0.17656
 H1999 H 0.77111 0.56772 0.18859
 H2000 H 0.80263 0.58230 0.23422
 H2001 H 0.79142 0.56457 0.24646
 H2002 H 0.76230 0.55146 0.19926
 H2003 H 0.75088 0.53464 0.21329
 H2004 H 0.77442 0.54685 0.24831
 C2005 C 0.78530 1.09801 0.68613
 C2006 C 0.79064 1.08926 0.69646
 C2007 C 0.80441 1.09152 0.70079
 C2008 C 0.81227 1.10227 0.69510
 C2009 C 0.80671 1.11092 0.68497
 C2010 C 0.79319 1.10859 0.68055
 C2011 C 0.81026 1.08308 0.71081
 C2012 C 0.80277 1.07244 0.71671
 C2013 C 0.78898 1.06983 0.71290
 C2014 C 0.78279 1.07843 0.70264
 C2015 C 0.76889 1.07606 0.69905
 C2016 C 0.76123 1.06580 0.70528
 C2017 C 0.76705 1.05737 0.71528
 C2018 C 0.78104 1.05909 0.71917
 C2019 C 0.78635 1.05009 0.72937
 C2020 C 0.77793 1.04034 0.73576
 C2021 C 0.76406 1.03909 0.73211
 C2022 C 0.75876 1.04748 0.72170
 H2023 H 0.77506 1.09702 0.68203
 H2024 H 0.82277 1.10381 0.69854
 H2025 H 0.78847 1.11508 0.67285
 H2026 H 0.82078 1.08472 0.71416
 H2027 H 0.80811 1.06653 0.72440
 H2028 H 0.76344 1.08212 0.69156
 H2029 H 0.75054 1.06455 0.70231
 H2030 H 0.79687 1.05048 0.73288
 H2031 H 0.78215 1.03408 0.74395
 H2032 H 0.74796 1.04659 0.71895
 C2033 C 0.70938 0.59903 0.31311
 C2034 C 0.70314 0.59017 0.30346
 C2035 C 0.68925 0.59295 0.29975
 C2036 C 0.68206 0.60417 0.30551
 C2037 C 0.68845 0.61275 0.31511
 C2038 C 0.70215 0.61004 0.31878
 C2039 C 0.68262 0.58454 0.29028
 C2040 C 0.68949 0.57351 0.28424
 C2041 C 0.70337 0.57039 0.28745
 C2042 C 0.71027 0.57880 0.29731
 C2043 C 0.72412 0.57568 0.30061
 C2044 C 0.73119 0.56509 0.29420
 C2045 C 0.72477 0.55703 0.28436
 C2046 C 0.71071 0.55931 0.28095
 C2047 C 0.70478 0.55059 0.27092
 C2048 C 0.71272 0.54061 0.26418
 C2049 C 0.72668 0.53892 0.26733
 C2050 C 0.73256 0.54693 0.27759
 H2051 H 0.71987 0.59787 0.31651
 H2052 H 0.67142 0.60612 0.30265
 H2053 H 0.70747 0.61658 0.32598
 H2054 H 0.67199 0.58656 0.28744
 H2055 H 0.68361 0.56768 0.27695
 H2056 H 0.72998 0.58132 0.30804
 H2057 H 0.74190 0.56330 0.29687
 H2058 H 0.69417 0.55142 0.26778
 H2059 H 0.70811 0.53453 0.25612
 H2060 H 0.74345 0.54568 0.27987
 C2061 C 0.70648 1.09504 0.81420
 C2062 C 0.70119 1.08856 0.80241
 C2063 C 0.68937 1.09451 0.79617
 C2064 C 0.68297 1.10623 0.80188
 C2065 C 0.68827 1.11247 0.81374
 C2066 C 0.70016 1.10666 0.81971
 C2067 C 0.68408 1.08880 0.78419
 C2068 C 0.69048 1.07757 0.77800
 C2069 C 0.70238 1.07139 0.78373
 C2070 C 0.70746 1.07663 0.79644
 C2071 C 0.71862 1.06975 0.80279
 C2072 C 0.72518 1.05870 0.79659
 C2073 C 0.72099 1.05407 0.78378
 C2074 C 0.70946 1.06022 0.77715
 C2075 C 0.70592 1.05526 0.76397
 C2076 C 0.71383 1.04507 0.75756
 C2077 C 0.72527 1.03933 0.76415
 C2078 C 0.72863 1.04362 0.77735
 H2079 H 0.71573 1.09163 0.81930
 H2080 H 0.67391 1.11046 0.79693
 H2081 H 0.70490 1.11105 0.82868
 H2082 H 0.67498 1.09319 0.77940
 H2083 H 0.68572 1.07388 0.76876
 H2084 H 0.72254 1.07258 0.81271
 H2085 H 0.73386 1.05392 0.80176
 H2086 H 0.69750 1.05944 0.75807
 H2087 H 0.71130 1.04199 0.74720
 H2088 H 0.73772 1.03935 0.78229
 C2089 C 0.18665 0.59806 0.79048
 C2090 C 0.19683 0.58945 0.79645
 C2091 C 0.20050 0.59201 0.81027
 C2092 C 0.19447 0.60302 0.81754
 C2093 C 0.18453 0.61152 0.81137
 C2094 C 0.18065 0.60883 0.79783
 C2095 C 0.21015 0.58359 0.81680
 C2096 C 0.21633 0.57266 0.80995
 C2097 C 0.21326 0.56979 0.79610
 C2098 C 0.20348 0.57845 0.78918
 C2099 C 0.20090 0.57602 0.77516
 C2100 C 0.20768 0.56564 0.76807
 C2101 C 0.21719 0.55713 0.77463
 C2102 C 0.21995 0.55882 0.78880
 C2103 C 0.22952 0.54959 0.79494
 C2104 C 0.23657 0.53975 0.78713
 C2105 C 0.23418 0.53867 0.77306
 C2106 C 0.22428 0.54717 0.76694
 H2107 H 0.18296 0.59674 0.78017
 H2108 H 0.19743 0.60484 0.82808
 H2109 H 0.17304 0.61520 0.79272
 H2110 H 0.21299 0.58548 0.82737
 H2111 H 0.22373 0.56680 0.81577
 H2112 H 0.19393 0.58220 0.76916
 H2113 H 0.20555 0.56438 0.75724
 H2114 H 0.23197 0.54981 0.80569
 H2115 H 0.24426 0.53326 0.79199
 H2116 H 0.22248 0.54631 0.75600
 C2117 C 0.18516 1.10016 0.28697
 C2118 C 0.19354 1.08987 0.29309
 C2119 C 0.19631 1.09106 0.30730
 C2120 C 0.19085 1.10208 0.31493
 C2121 C 0.18255 1.11212 0.30867
 C2122 C 0.17976 1.11101 0.29466
 C2123 C 0.20456 1.08130 0.31386
 C2124 C 0.21046 1.07050 0.30660
 C2125 C 0.20831 1.06897 0.29238
 C2126 C 0.19944 1.07864 0.28558
 C2127 C 0.19682 1.07679 0.27147
 C2128 C 0.20308 1.06630 0.26411
 C2129 C 0.21221 1.05720 0.27042
 C2130 C 0.21487 1.05823 0.28467
 C2131 C 0.22434 1.04868 0.29047
 C2132 C 0.23121 1.03901 0.28232
 C2133 C 0.22872 1.03838 0.26824
 C2134 C 0.21903 1.04731 0.26241
 H2135 H 0.18269 1.10030 0.27623
 H2136 H 0.19301 1.10276 0.32579
 H2137 H 0.17358 1.11873 0.28948
 H2138 H 0.20660 1.08209 0.32475
 H2139 H 0.21670 1.06349 0.31251
 H2140 H 0.18997 1.08333 0.26571
 H2141 H 0.20092 1.06545 0.25325
 H2142 H 0.22705 1.04866 0.30116
 H2143 H 0.23886 1.03231 0.28695
 H2144 H 0.21721 1.04689 0.25145
 C2145 C 0.68773 0.40069 0.71390
 C2146 C 0.69693 0.41046 0.70824
 C2147 C 0.69998 0.40942 0.69406
 C2148 C 0.69425 0.39886 0.68609
 C2149 C 0.68532 0.38919 0.69194
 C2150 C 0.68207 0.39030 0.70587
 C2151 C 0.70877 0.41887 0.68787
 C2152 C 0.71485 0.42927 0.69545
 C2153 C 0.71246 0.43061 0.70966
 C2154 C 0.70329 0.42108 0.71616
 C2155 C 0.70093 0.42237 0.73038
 C2156 C 0.70746 0.43237 0.73808
 C2157 C 0.71656 0.44157 0.73197
 C2158 C 0.71910 0.44100 0.71766
 C2159 C 0.72844 0.45071 0.71207
 C2160 C 0.73521 0.46017 0.72042
 C2161 C 0.73282 0.46038 0.73453
 C2162 C 0.72339 0.45117 0.74023
 H2163 H 0.68469 0.40069 0.72451
 H2164 H 0.69672 0.39824 0.67528
 H2165 H 0.67528 0.38296 0.71073
 H2166 H 0.71105 0.41819 0.67701
 H2167 H 0.72151 0.43605 0.68980
 H2168 H 0.69419 0.41567 0.73603
 H2169 H 0.70546 0.43281 0.74900
 H2170 H 0.73098 0.45114 0.70134
 H2171 H 0.74266 0.46712 0.71591
 H2172 H 0.72166 0.45126 0.75121
 C2173 C 0.71725 -0.09959 0.18521
 C2174 C 0.71161 -0.09024 0.19484
 C2175 C 0.69755 -0.09188 0.19853
 C2176 C 0.68970 -0.10265 0.19297
 C2177 C 0.69549 -0.11179 0.18344
 C2178 C 0.70931 -0.11009 0.17964
 C2179 C 0.69136 -0.08274 0.20768
 C2180 C 0.69879 -0.07199 0.21336
 C2181 C 0.71292 -0.07008 0.21032
 C2182 C 0.71943 -0.07937 0.20090
 C2183 C 0.73359 -0.07761 0.19798
 C2184 C 0.74119 -0.06728 0.20408
 C2185 C 0.73507 -0.05824 0.21334
 C2186 C 0.72084 -0.05937 0.21656
 C2187 C 0.71527 -0.04991 0.22617
 C2188 C 0.72363 -0.04021 0.23260
 C2189 C 0.73770 -0.03942 0.22953
 C2190 C 0.74330 -0.04832 0.21974
 H2191 H 0.72774 -0.09909 0.18161
 H2192 H 0.67899 -0.10374 0.19594
 H2193 H 0.71416 -0.11701 0.17241
 H2194 H 0.68059 -0.08387 0.21048
 H2195 H 0.69313 -0.06537 0.22020
 H2196 H 0.73928 -0.08422 0.19116
 H2197 H 0.75207 -0.06648 0.20164
 H2198 H 0.70461 -0.04991 0.22924
 H2199 H 0.71920 -0.03357 0.24037
 H2200 H 0.75425 -0.04782 0.21748
 C2201 C 0.18884 0.40254 0.21181
 C2202 C 0.19817 0.41192 0.20573
 C2203 C 0.20083 0.41051 0.19151
 C2204 C 0.19465 0.39993 0.18392
 C2205 C 0.18568 0.39057 0.19021
 C2206 C 0.18274 0.39211 0.20417
 C2207 C 0.20971 0.41962 0.18492
 C2208 C 0.21614 0.43009 0.19211
 C2209 C 0.21407 0.43182 0.20633
 C2210 C 0.20496 0.42254 0.21327
 C2211 C 0.20313 0.42404 0.22755
 C2212 C 0.20996 0.43412 0.23485
 C2213 C 0.21886 0.44318 0.22829
 C2214 C 0.22099 0.44233 0.21393
 C2215 C 0.23019 0.45192 0.20789
 C2216 C 0.23727 0.46147 0.21589
 C2217 C 0.23531 0.46189 0.23005
 C2218 C 0.22596 0.45288 0.23616
 H2219 H 0.18598 0.40289 0.22246
 H2220 H 0.19682 0.39903 0.17307
 H2221 H 0.17587 0.38508 0.20935
 H2222 H 0.21176 0.41862 0.17404
 H2223 H 0.22287 0.43656 0.18619
 H2224 H 0.19662 0.41742 0.23354
 H2225 H 0.20837 0.43472 0.24583
 H2226 H 0.23237 0.45217 0.19707
 H2227 H 0.24465 0.46829 0.21107
 H2228 H 0.22458 0.45316 0.24719
 C2229 C 0.19022 -0.09749 0.71183
 C2230 C 0.20045 -0.08873 0.70634
 C2231 C 0.20423 -0.09063 0.69243
 C2232 C 0.19820 -0.10115 0.68457
 C2233 C 0.18826 -0.10988 0.69031
 C2234 C 0.18434 -0.10783 0.70397
 C2235 C 0.21405 -0.08209 0.68644
 C2236 C 0.22034 -0.07173 0.69396
 C2237 C 0.21714 -0.06956 0.70792
 C2238 C 0.20706 -0.07825 0.71422
 C2239 C 0.20407 -0.07635 0.72827
 C2240 C 0.21073 -0.06645 0.73595
 C2241 C 0.22055 -0.05793 0.73002
 C2242 C 0.22384 -0.05917 0.71589
 C2243 C 0.23386 -0.05006 0.71047
 C2244 C 0.24053 -0.04052 0.71886
 C2245 C 0.23738 -0.03972 0.73280
 C2246 C 0.22732 -0.04833 0.73829
 H2247 H 0.18646 -0.09671 0.72217
 H2248 H 0.20124 -0.10248 0.67396
 H2249 H 0.17678 -0.11435 0.70885
 H2250 H 0.21697 -0.08344 0.67579
 H2251 H 0.22784 -0.06570 0.68851
 H2252 H 0.19676 -0.08250 0.73382
 H2253 H 0.20820 -0.06553 0.74674
 H2254 H 0.23695 -0.05013 0.69987
 H2255 H 0.24844 -0.03399 0.71453
 H2256 H 0.22501 -0.04775 0.74916
 C2257 C 0.28813 0.30830 0.40542
 C2258 C 0.29466 0.29911 0.41464
 C2259 C 0.30890 0.29633 0.41260
 C2260 C 0.31615 0.30257 0.40176
 C2261 C 0.30947 0.31170 0.39280
 C2262 C 0.29542 0.31444 0.39477
 C2263 C 0.31584 0.28735 0.42138
 C2264 C 0.30898 0.28093 0.43212
 C2265 C 0.29478 0.28322 0.43454
 C2266 C 0.28753 0.29253 0.42568
 C2267 C 0.27334 0.29490 0.42809
 C2268 C 0.26637 0.28824 0.43854
 C2269 C 0.27318 0.27897 0.44707
 C2270 C 0.28751 0.27638 0.44538
 C2271 C 0.29379 0.26678 0.45444
 C2272 C 0.28600 0.25971 0.46423
 C2273 C 0.27182 0.26212 0.46545
 C2274 C 0.26555 0.27195 0.45704
 H2275 H 0.27737 0.31100 0.40602
 H2276 H 0.32705 0.30039 0.40040
 H2277 H 0.28984 0.32123 0.38793
 H2278 H 0.32673 0.28520 0.41990
 H2279 H 0.31516 0.27413 0.43834
 H2280 H 0.26715 0.30178 0.42200
 H2281 H 0.25543 0.29025 0.43982
 H2282 H 0.30460 0.26421 0.45401
 H2283 H 0.29095 0.25196 0.47055
 H2284 H 0.25452 0.27370 0.45792
 C2285 C 0.31151 0.78320 -0.09978
 C2286 C 0.30357 0.78930 -0.08922
 C2287 C 0.30027 0.80347 -0.09051
 C2288 C 0.30460 0.81102 -0.10205
 C2289 C 0.31221 0.80468 -0.11254
 C2290 C 0.31568 0.79074 -0.11117
 C2291 C 0.29254 0.81003 -0.08037
 C2292 C 0.28760 0.80277 -0.06913
 C2293 C 0.29018 0.78854 -0.06757
 C2294 C 0.29856 0.78176 -0.07764
 C2295 C 0.30139 0.76759 -0.07597
 C2296 C 0.29565 0.76011 -0.06533
 C2297 C 0.28702 0.76641 -0.05579
 C2298 C 0.28438 0.78076 -0.05650
 C2299 C 0.27562 0.78655 -0.04634
 C2300 C 0.26922 0.77828 -0.03650
 C2301 C 0.27147 0.76407 -0.03634
 C2302 C 0.28062 0.75826 -0.04580
 H2303 H 0.31466 0.77257 -0.09968
 H2304 H 0.30182 0.82179 -0.10292
 H2305 H 0.32176 0.78551 -0.11888
 H2306 H 0.29010 0.82090 -0.08121
 H2307 H 0.28160 0.80865 -0.06191
 H2308 H 0.30788 0.76181 -0.08283
 H2309 H 0.29780 0.74917 -0.06473
 H2310 H 0.27314 0.79734 -0.04595
 H2311 H 0.26202 0.78291 -0.02934
 H2312 H 0.28223 0.74720 -0.04576
 C2313 C 0.81079 0.28735 -0.09380
 C2314 C 0.80181 0.29386 -0.08434
 C2315 C 0.79921 0.30812 -0.08614
 C2316 C 0.80525 0.31536 -0.09709
 C2317 C 0.81401 0.30866 -0.10641
 C2318 C 0.81674 0.29463 -0.10458
 C2319 C 0.79053 0.31508 -0.07706
 C2320 C 0.78417 0.30821 -0.06630
 C2321 C 0.78621 0.29397 -0.06416
 C2322 C 0.79524 0.28670 -0.07331
 C2323 C 0.79725 0.27244 -0.07125
 C2324 C 0.79045 0.26543 -0.06091
 C2325 C 0.78145 0.27227 -0.05211
 C2326 C 0.77930 0.28667 -0.05338
 C2327 C 0.77005 0.29300 -0.04399
 C2328 C 0.76283 0.28521 -0.03430
 C2329 C 0.76473 0.27098 -0.03357
 C2330 C 0.77424 0.26463 -0.04229
 H2331 H 0.81345 0.27660 -0.09330
 H2332 H 0.80315 0.32626 -0.09830
 H2333 H 0.82332 0.28908 -0.11165
 H2334 H 0.78854 0.32599 -0.07835
 H2335 H 0.77757 0.31439 -0.05988
 H2336 H 0.80389 0.26624 -0.07758
 H2337 H 0.79214 0.25444 -0.05993
 H2338 H 0.76788 0.30387 -0.04404
 H2339 H 0.75535 0.29022 -0.02770
 H2340 H 0.77558 0.25355 -0.04177
 C2341 C 0.78790 0.80845 0.40668
 C2342 C 0.79468 0.79887 0.41534
 C2343 C 0.80870 0.79577 0.41245
 C2344 C 0.81547 0.80199 0.40132
 C2345 C 0.80857 0.81139 0.39283
 C2346 C 0.79475 0.81457 0.39568
 C2347 C 0.81591 0.78643 0.42061
 C2348 C 0.80952 0.77987 0.43153
 C2349 C 0.79552 0.78237 0.43476
 C2350 C 0.78801 0.79214 0.42661
 C2351 C 0.77404 0.79473 0.42989
 C2352 C 0.76745 0.78770 0.44036
 C2353 C 0.77448 0.77790 0.44812
 C2354 C 0.78868 0.77523 0.44568
 C2355 C 0.79527 0.76524 0.45409
 C2356 C 0.78786 0.75781 0.46391
 C2357 C 0.77376 0.76022 0.46578
 C2358 C 0.76721 0.77044 0.45806
 H2359 H 0.77727 0.81142 0.40799
 H2360 H 0.82620 0.79950 0.39934
 H2361 H 0.78903 0.82167 0.38927
 H2362 H 0.82665 0.78406 0.41847
 H2363 H 0.81587 0.77274 0.43717
 H2364 H 0.76775 0.80205 0.42444
 H2365 H 0.75663 0.78984 0.44229
 H2366 H 0.80604 0.76264 0.45315
 H2367 H 0.79302 0.74981 0.46972
 H2368 H 0.75623 0.77219 0.45946
 C2369 C 0.71642 0.31471 0.59562
 C2370 C 0.71044 0.30533 0.58629
 C2371 C 0.69622 0.30234 0.58793
 C2372 C 0.68860 0.30814 0.59875
 C2373 C 0.69479 0.31714 0.60807
 C2374 C 0.70871 0.32047 0.60628
 C2375 C 0.68967 0.29351 0.57882
 C2376 C 0.69689 0.28742 0.56813
 C2377 C 0.71113 0.28973 0.56620
 C2378 C 0.71804 0.29877 0.57549
 C2379 C 0.73239 0.30071 0.57389
 C2380 C 0.73978 0.29398 0.56371
 C2381 C 0.73323 0.28515 0.55461
 C2382 C 0.71878 0.28303 0.55552
 C2383 C 0.71271 0.27403 0.54584
 C2384 C 0.72077 0.26699 0.53624
 C2385 C 0.73505 0.26883 0.53577
 C2386 C 0.74118 0.27809 0.54483
 H2387 H 0.72702 0.31788 0.59502
 H2388 H 0.67777 0.30565 0.59985
 H2389 H 0.71381 0.32739 0.61329
 H2390 H 0.67879 0.29124 0.57999
 H2391 H 0.69097 0.28070 0.56168
 H2392 H 0.73837 0.30715 0.58055
 H2393 H 0.75082 0.29559 0.56307
 H2394 H 0.70182 0.27198 0.54554
 H2395 H 0.71589 0.25972 0.52941
 H2396 H 0.75228 0.27943 0.54455
 C2397 C 0.68741 0.78598 1.09620
 C2398 C 0.69682 0.79175 1.08671
 C2399 C 0.70019 0.80584 1.08829
 C2400 C 0.69445 0.81362 1.09903
 C2401 C 0.68523 0.80766 1.10836
 C2402 C 0.68174 0.79381 1.10676
 C2403 C 0.70933 0.81209 1.07920
 C2404 C 0.71531 0.80469 1.06856
 C2405 C 0.71242 0.79061 1.06658
 C2406 C 0.70301 0.78404 1.07581
 C2407 C 0.70021 0.76993 1.07394
 C2408 C 0.70649 0.76241 1.06361
 C2409 C 0.71580 0.76858 1.05468
 C2410 C 0.71883 0.78279 1.05585
 C2411 C 0.72841 0.78842 1.04641
 C2412 C 0.73514 0.78011 1.03678
 C2413 C 0.73234 0.76605 1.03608
 C2414 C 0.72245 0.76042 1.04483
 H2415 H 0.68418 0.77542 1.09587
 H2416 H 0.69714 0.82438 1.10007
 H2417 H 0.67480 0.78884 1.11388
 H2418 H 0.71194 0.82285 1.08035
 H2419 H 0.72230 0.81035 1.06212
 H2420 H 0.69332 0.76421 1.08042
 H2421 H 0.70415 0.75155 1.06273
 H2422 H 0.73124 0.79911 1.04636
 H2423 H 0.74291 0.78458 1.03017
 H2424 H 0.72036 0.74948 1.04432
 C2425 C 0.21573 0.31375 1.09695
 C2426 C 0.20991 0.30434 1.08756
 C2427 C 0.19571 0.30123 1.08905
 C2428 C 0.18791 0.30698 1.09978
 C2429 C 0.19393 0.31612 1.10907
 C2430 C 0.20787 0.31948 1.10748
 C2431 C 0.18932 0.29240 1.07982
 C2432 C 0.19671 0.28644 1.06915
 C2433 C 0.21095 0.28890 1.06738
 C2434 C 0.21768 0.29792 1.07682
 C2435 C 0.23203 0.29999 1.07539
 C2436 C 0.23958 0.29344 1.06523
 C2437 C 0.23321 0.28466 1.05598
 C2438 C 0.21878 0.28237 1.05671
 C2439 C 0.21291 0.27340 1.04688
 C2440 C 0.22116 0.26655 1.03728
 C2441 C 0.23542 0.26858 1.03701
 C2442 C 0.24134 0.27781 1.04622
 H2443 H 0.22631 0.31702 1.09647
 H2444 H 0.17709 0.30443 1.10079
 H2445 H 0.21286 0.32645 1.11452
 H2446 H 0.17844 0.29006 1.08085
 H2447 H 0.19093 0.27973 1.06258
 H2448 H 0.23789 0.30640 1.08219
 H2449 H 0.25062 0.29517 1.06473
 H2450 H 0.20204 0.27123 1.04646
 H2451 H 0.21645 0.25930 1.03032
 H2452 H 0.25243 0.27928 1.04607
 C2453 C 0.21185 0.81268 0.59416
 C2454 C 0.20565 0.80244 0.58595
 C2455 C 0.19169 0.79912 0.58873
 C2456 C 0.18455 0.80545 0.59962
 C2457 C 0.19100 0.81530 0.60787
 C2458 C 0.20464 0.81894 0.60488
 C2459 C 0.18491 0.78943 0.58070
 C2460 C 0.19167 0.78283 0.56998
 C2461 C 0.20566 0.78550 0.56696
 C2462 C 0.21282 0.79535 0.57519
 C2463 C 0.22699 0.79751 0.57264
 C2464 C 0.23400 0.79024 0.56257
 C2465 C 0.22720 0.78067 0.55444
 C2466 C 0.21288 0.77834 0.55625
 C2467 C 0.20649 0.76872 0.54740
 C2468 C 0.21419 0.76126 0.53779
 C2469 C 0.22840 0.76326 0.53656
 C2470 C 0.23480 0.77314 0.54474
 H2471 H 0.22225 0.81618 0.59259
 H2472 H 0.17392 0.80269 0.60162
 H2473 H 0.20997 0.82651 0.61099
 H2474 H 0.17424 0.78686 0.58275
 H2475 H 0.18567 0.77540 0.56446
 H2476 H 0.23316 0.80451 0.57853
 H2477 H 0.24495 0.79205 0.56121
 H2478 H 0.19561 0.76657 0.54772
 H2479 H 0.20911 0.75359 0.53157
 H2480 H 0.24585 0.77463 0.54380
 C2481 C 0.30976 0.70950 0.59648
 C2482 C 0.30070 0.70315 0.58709
 C2483 C 0.29808 0.68891 0.58885
 C2484 C 0.30433 0.68148 0.59959
 C2485 C 0.31332 0.68800 0.60872
 C2486 C 0.31592 0.70204 0.60702
 C2487 C 0.28919 0.68216 0.57991
 C2488 C 0.28269 0.68922 0.56932
 C2489 C 0.28482 0.70343 0.56719
 C2490 C 0.29409 0.71047 0.57616
 C2491 C 0.29639 0.72464 0.57396
 C2492 C 0.28964 0.73180 0.56368
 C2493 C 0.28036 0.72520 0.55509
 C2494 C 0.27787 0.71090 0.55654
 C2495 C 0.26829 0.70483 0.54741
 C2496 C 0.26118 0.71277 0.53773
 C2497 C 0.26351 0.72690 0.53672
 C2498 C 0.27326 0.73300 0.54526
 H2499 H 0.31229 0.72025 0.59613
 H2500 H 0.30228 0.67060 0.60077
 H2501 H 0.32257 0.70748 0.61403
 H2502 H 0.28717 0.67128 0.58116
 H2503 H 0.27596 0.68319 0.56298
 H2504 H 0.30333 0.73065 0.58008
 H2505 H 0.29160 0.74272 0.56256
 H2506 H 0.26576 0.69407 0.54768
 H2507 H 0.25350 0.70795 0.53130
 H2508 H 0.27494 0.74401 0.54453
 C2509 C 0.28923 0.18662 1.09669
 C2510 C 0.29524 0.19661 1.08800
 C2511 C 0.30925 0.20004 1.09032
 C2512 C 0.31663 0.19404 1.10123
 C2513 C 0.31038 0.18435 1.10987
 C2514 C 0.29667 0.18067 1.10738
 C2515 C 0.31580 0.20947 1.08175
 C2516 C 0.30880 0.21560 1.07089
 C2517 C 0.29477 0.21273 1.06829
 C2518 C 0.28783 0.20324 1.07714
 C2519 C 0.27361 0.20093 1.07505
 C2520 C 0.26640 0.20756 1.06472
 C2521 C 0.27301 0.21667 1.05592
 C2522 C 0.28732 0.21929 1.05737
 C2523 C 0.29344 0.22857 1.04793
 C2524 C 0.28550 0.23539 1.03803
 C2525 C 0.27132 0.23305 1.03712
 C2526 C 0.26520 0.22351 1.04591
 H2527 H 0.27881 0.18305 1.09551
 H2528 H 0.32731 0.19683 1.10290
 H2529 H 0.29148 0.17327 1.11385
 H2530 H 0.32651 0.21214 1.08343
 H2531 H 0.31466 0.22280 1.06488
 H2532 H 0.26755 0.19428 1.08148
 H2533 H 0.25544 0.20562 1.06370
 H2534 H 0.30427 0.23097 1.04803
 H2535 H 0.29035 0.24286 1.03137
 H2536 H 0.25416 0.22181 1.04525
 C2537 C 0.81214 0.71002 1.09686
 C2538 C 0.80202 0.70428 1.08818
 C2539 C 0.79805 0.69048 1.09070
 C2540 C 0.80381 0.68299 1.10170
 C2541 C 0.81376 0.68895 1.11023
 C2542 C 0.81782 0.70251 1.10762
 C2543 C 0.78838 0.68422 1.08220
 C2544 C 0.78252 0.69132 1.07126
 C2545 C 0.78594 0.70515 1.06844
 C2546 C 0.79575 0.71177 1.07716
 C2547 C 0.79879 0.72576 1.07474
 C2548 C 0.79247 0.73309 1.06429
 C2549 C 0.78296 0.72681 1.05570
 C2550 C 0.77967 0.71271 1.05742
 C2551 C 0.77004 0.70692 1.04815
 C2552 C 0.76357 0.71501 1.03813
 C2553 C 0.76658 0.72899 1.03696
 C2554 C 0.77643 0.73477 1.04560
 H2555 H 0.81604 0.72028 1.09562
 H2556 H 0.80066 0.67246 1.10351
 H2557 H 0.82535 0.70753 1.11403
 H2558 H 0.78531 0.67366 1.08401
 H2559 H 0.77511 0.68570 1.06529
 H2560 H 0.80584 0.73157 1.08093
 H2561 H 0.79497 0.74387 1.06302
 H2562 H 0.76709 0.69627 1.04849
 H2563 H 0.75584 0.71044 1.03158
 H2564 H 0.77863 0.74567 1.04475
 C2565 C 0.81438 0.21354 0.59687
 C2566 C 0.80500 0.20765 0.58746
 C2567 C 0.80149 0.19363 0.58938
 C2568 C 0.80697 0.18606 0.60043
 C2569 C 0.81615 0.19212 0.60968
 C2570 C 0.81982 0.20589 0.60771
 C2571 C 0.79250 0.18722 0.58030
 C2572 C 0.78678 0.19439 0.56937
 C2573 C 0.78969 0.20843 0.56711
 C2574 C 0.79897 0.21517 0.57631
 C2575 C 0.80174 0.22927 0.57419
 C2576 C 0.79553 0.23661 0.56367
 C2577 C 0.78635 0.23027 0.55475
 C2578 C 0.78341 0.21606 0.55615
 C2579 C 0.77403 0.21022 0.54667
 C2580 C 0.76741 0.21832 0.53680
 C2581 C 0.77007 0.23240 0.53588
 C2582 C 0.77975 0.23825 0.54470
 H2583 H 0.81777 0.22404 0.59621
 H2584 H 0.80415 0.17536 0.60171
 H2585 H 0.82680 0.21094 0.61471
 H2586 H 0.78982 0.17650 0.58168
 H2587 H 0.77993 0.18860 0.56293
 H2588 H 0.80852 0.23510 0.58065
 H2589 H 0.79780 0.24747 0.56263
 H2590 H 0.77128 0.19951 0.54679
 H2591 H 0.75979 0.21368 0.53017
 H2592 H 0.78172 0.24921 0.54405
 C2593 C 0.68918 0.71142 0.40653
 C2594 C 0.69862 0.70458 0.41529
 C2595 C 0.70092 0.69033 0.41306
 C2596 C 0.69429 0.68347 0.40226
 C2597 C 0.68518 0.69051 0.39355
 C2598 C 0.68263 0.70449 0.39591
 C2599 C 0.70985 0.68300 0.42157
 C2600 C 0.71671 0.68948 0.43223
 C2601 C 0.71501 0.70369 0.43476
 C2602 C 0.70585 0.71138 0.42610
 C2603 C 0.70439 0.72566 0.42837
 C2604 C 0.71162 0.73225 0.43866
 C2605 C 0.72060 0.72496 0.44712
 C2606 C 0.72237 0.71056 0.44546
 C2607 C 0.73167 0.70375 0.45445
 C2608 C 0.73926 0.71107 0.46415
 C2609 C 0.73769 0.72530 0.46534
 C2610 C 0.72816 0.73214 0.45700
 H2611 H 0.68656 0.72213 0.40753
 H2612 H 0.69621 0.67259 0.40070
 H2613 H 0.67571 0.71027 0.38937
 H2614 H 0.71161 0.67210 0.41996
 H2615 H 0.72343 0.68301 0.43822
 H2616 H 0.69791 0.73220 0.42222
 H2617 H 0.71029 0.74326 0.43987
 H2618 H 0.73355 0.69284 0.45410
 H2619 H 0.74672 0.70566 0.47045
 H2620 H 0.72701 0.74321 0.45792
 C2621 C 0.71205 0.19171 -0.09559
 C2622 C 0.70561 0.20097 -0.08637
 C2623 C 0.69152 0.20426 -0.08865
 C2624 C 0.68430 0.19841 -0.09967
 C2625 C 0.69087 0.18919 -0.10861
 C2626 C 0.70478 0.18596 -0.10644
 C2627 C 0.68470 0.21340 -0.07995
 C2628 C 0.69153 0.21946 -0.06903
 C2629 C 0.70557 0.21660 -0.06632
 C2630 C 0.71271 0.20714 -0.07511
 C2631 C 0.72673 0.20422 -0.07241
 C2632 C 0.73369 0.21056 -0.06180
 C2633 C 0.72700 0.21999 -0.05335
 C2634 C 0.71280 0.22304 -0.05527
 C2635 C 0.70658 0.23264 -0.04618
 C2636 C 0.71433 0.23930 -0.03613
 C2637 C 0.72840 0.23649 -0.03475
 C2638 C 0.73461 0.22667 -0.04318
 H2639 H 0.72271 0.18869 -0.09485
 H2640 H 0.67351 0.20096 -0.10119
 H2641 H 0.71026 0.17907 -0.11326
 H2642 H 0.67393 0.21597 -0.08163
 H2643 H 0.68546 0.22646 -0.06294
 H2644 H 0.73279 0.19711 -0.07837
 H2645 H 0.74452 0.20815 -0.06029
 H2646 H 0.69585 0.23549 -0.04672
 H2647 H 0.70945 0.24700 -0.02973
 H2648 H 0.74558 0.22462 -0.04212
 C2649 C 0.19107 0.71343 -0.09868
 C2650 C 0.19983 0.70677 -0.08913
 C2651 C 0.20231 0.69249 -0.09093
 C2652 C 0.19623 0.68533 -0.10188
 C2653 C 0.18754 0.69214 -0.11116
 C2654 C 0.18508 0.70623 -0.10943
 C2655 C 0.21085 0.68543 -0.08182
 C2656 C 0.21713 0.69220 -0.07098
 C2657 C 0.21509 0.70642 -0.06877
 C2658 C 0.20624 0.71382 -0.07797
 C2659 C 0.20418 0.72804 -0.07579
 C2660 C 0.21075 0.73491 -0.06526
 C2661 C 0.21955 0.72794 -0.05637
 C2662 C 0.22177 0.71357 -0.05780
 C2663 C 0.23081 0.70710 -0.04831
 C2664 C 0.23770 0.71473 -0.03831
 C2665 C 0.23569 0.72893 -0.03736
 C2666 C 0.22644 0.73542 -0.04624
 H2667 H 0.18860 0.72422 -0.09825
 H2668 H 0.19812 0.67440 -0.10305
 H2669 H 0.17859 0.71186 -0.11652
 H2670 H 0.21276 0.67451 -0.08310
 H2671 H 0.22363 0.68593 -0.06454
 H2672 H 0.19762 0.73432 -0.08212
 H2673 H 0.20901 0.74588 -0.06416
 H2674 H 0.23306 0.69625 -0.04849
 H2675 H 0.24500 0.70961 -0.03160
 H2676 H 0.22501 0.74648 -0.04556
 C2677 C 0.21386 0.18560 0.40381
 C2678 C 0.20829 0.19477 0.41365
 C2679 C 0.19417 0.19849 0.41235
 C2680 C 0.18616 0.19332 0.40151
 C2681 C 0.19193 0.18427 0.39187
 C2682 C 0.20581 0.18048 0.39320
 C2683 C 0.18811 0.20735 0.42186
 C2684 C 0.19574 0.21274 0.43262
 C2685 C 0.20988 0.20955 0.43428
 C2686 C 0.21625 0.20040 0.42462
 C2687 C 0.23043 0.19732 0.42614
 C2688 C 0.23820 0.20312 0.43650
 C2689 C 0.23224 0.21215 0.44585
 C2690 C 0.21797 0.21539 0.44508
 C2691 C 0.21254 0.22460 0.45503
 C2692 C 0.22109 0.23073 0.46478
 C2693 C 0.23521 0.22776 0.46504
 C2694 C 0.24066 0.21829 0.45574
 H2695 H 0.22441 0.18213 0.40392
 H2696 H 0.17539 0.19625 0.40067
 H2697 H 0.21065 0.17366 0.38585
 H2698 H 0.17732 0.21021 0.42096
 H2699 H 0.19022 0.21953 0.43942
 H2700 H 0.23600 0.19059 0.41936
 H2701 H 0.24910 0.20061 0.43708
 H2702 H 0.20182 0.22753 0.45540
 H2703 H 0.21676 0.23817 0.47186
 H2704 H 0.25165 0.21609 0.45591
 C2705 C 0.28714 0.40420 0.68982
 C2706 C 0.29330 0.41300 0.69957
 C2707 C 0.30748 0.41090 0.70251
 C2708 C 0.31496 0.40022 0.69613
 C2709 C 0.30859 0.39151 0.68663
 C2710 C 0.29465 0.39371 0.68353
 C2711 C 0.31415 0.41945 0.71182
 C2712 C 0.30708 0.43005 0.71836
 C2713 C 0.29290 0.43247 0.71596
 C2714 C 0.28588 0.42373 0.70647
 C2715 C 0.27161 0.42586 0.70436
 C2716 C 0.26441 0.43607 0.71124
 C2717 C 0.27106 0.44466 0.72047
 C2718 C 0.28542 0.44316 0.72292
 C2719 C 0.29155 0.45231 0.73243
 C2720 C 0.28361 0.46204 0.73952
 C2721 C 0.26942 0.46309 0.73725
 C2722 C 0.26326 0.45452 0.72758
 H2723 H 0.27652 0.40510 0.68672
 H2724 H 0.32578 0.39879 0.69853
 H2725 H 0.28934 0.38719 0.67631
 H2726 H 0.32500 0.41793 0.71410
 H2727 H 0.31305 0.43608 0.72541
 H2728 H 0.26553 0.41963 0.69759
 H2729 H 0.25343 0.43715 0.70940
 H2730 H 0.30239 0.45209 0.73483
 H2731 H 0.28850 0.46849 0.74712
 H2732 H 0.25221 0.45528 0.72592
 C2733 C 0.28678 0.90488 0.18897
 C2734 C 0.29280 0.91345 0.19899
 C2735 C 0.30684 0.91103 0.20238
 C2736 C 0.31434 0.90035 0.19604
 C2737 C 0.30813 0.89194 0.18618
 C2738 C 0.29431 0.89439 0.18274
 C2739 C 0.31332 0.91927 0.21209
 C2740 C 0.30621 0.92987 0.21858
 C2741 C 0.29219 0.93264 0.21569
 C2742 C 0.28536 0.92424 0.20576
 C2743 C 0.27128 0.92681 0.20302
 C2744 C 0.26403 0.93704 0.20980
 C2745 C 0.27045 0.94523 0.21954
 C2746 C 0.28466 0.94334 0.22256
 C2747 C 0.29058 0.95213 0.23253
 C2748 C 0.28255 0.96187 0.23950
 C2749 C 0.26850 0.96326 0.23664
 C2750 C 0.26257 0.95508 0.22653
 H2751 H 0.27625 0.90592 0.18563
 H2752 H 0.32505 0.89868 0.19874
 H2753 H 0.28909 0.88808 0.17527
 H2754 H 0.32404 0.91746 0.21475
 H2755 H 0.31203 0.93562 0.22598
 H2756 H 0.26537 0.92097 0.19578
 H2757 H 0.25318 0.93848 0.20746
 H2758 H 0.30129 0.95159 0.23540
 H2759 H 0.28722 0.96806 0.24744
 H2760 H 0.25162 0.95613 0.22445
 C2761 C 0.78729 0.40595 0.19009
 C2762 C 0.79346 0.41494 0.19965
 C2763 C 0.80762 0.41282 0.20273
 C2764 C 0.81511 0.40208 0.19650
 C2765 C 0.80876 0.39331 0.18706
 C2766 C 0.79481 0.39539 0.18397
 C2767 C 0.81422 0.42141 0.21206
 C2768 C 0.80710 0.43202 0.21851
 C2769 C 0.79297 0.43449 0.21593
 C2770 C 0.78604 0.42581 0.20632
 C2771 C 0.77188 0.42817 0.20379
 C2772 C 0.76461 0.43837 0.21060
 C2773 C 0.77112 0.44677 0.22010
 C2774 C 0.78542 0.44517 0.22281
 C2775 C 0.79142 0.45421 0.23252
 C2776 C 0.78338 0.46387 0.23958
 C2777 C 0.76923 0.46491 0.23708
 C2778 C 0.76321 0.45654 0.22720
 H2779 H 0.77664 0.40668 0.18708
 H2780 H 0.82593 0.40063 0.19893
 H2781 H 0.78950 0.38869 0.17691
 H2782 H 0.82504 0.41986 0.21445
 H2783 H 0.81301 0.43804 0.22562
 H2784 H 0.76592 0.42219 0.19670
 H2785 H 0.75369 0.43961 0.20849
 H2786 H 0.80221 0.45391 0.23511
 H2787 H 0.78812 0.47023 0.24735
 H2788 H 0.75219 0.45731 0.22541
 C2789 C 0.78667 0.90667 0.68915
 C2790 C 0.79255 0.91478 0.69963
 C2791 C 0.80640 0.91192 0.70339
 C2792 C 0.81383 0.90121 0.69702
 C2793 C 0.80773 0.89317 0.68679
 C2794 C 0.79412 0.89611 0.68292
 C2795 C 0.81277 0.91972 0.71352
 C2796 C 0.80571 0.93027 0.72012
 C2797 C 0.79184 0.93345 0.71691
 C2798 C 0.78514 0.92552 0.70653
 C2799 C 0.77117 0.92844 0.70352
 C2800 C 0.76394 0.93859 0.71044
 C2801 C 0.77027 0.94636 0.72057
 C2802 C 0.78435 0.94410 0.72390
 C2803 C 0.79020 0.95251 0.73424
 C2804 C 0.78222 0.96228 0.74122
 C2805 C 0.76828 0.96404 0.73805
 C2806 C 0.76241 0.95621 0.72763
 H2807 H 0.77631 0.90813 0.68545
 H2808 H 0.82440 0.89919 0.70003
 H2809 H 0.78899 0.89012 0.67514
 H2810 H 0.82336 0.91760 0.71644
 H2811 H 0.81142 0.93566 0.72787
 H2812 H 0.76535 0.92292 0.69596
 H2813 H 0.75317 0.94029 0.70790
 H2814 H 0.80082 0.95168 0.73734
 H2815 H 0.78683 0.96821 0.74939
 H2816 H 0.75154 0.95755 0.72531
 C2817 C 0.71272 0.59578 0.68954
 C2818 C 0.70654 0.58652 0.69890
 C2819 C 0.69240 0.58859 0.70213
 C2820 C 0.68500 0.59967 0.69642
 C2821 C 0.69138 0.60880 0.68731
 C2822 C 0.70525 0.60667 0.68389
 C2823 C 0.68572 0.57964 0.71109
 C2824 C 0.69278 0.56876 0.71715
 C2825 C 0.70694 0.56642 0.71456
 C2826 C 0.71392 0.57542 0.70524
 C2827 C 0.72812 0.57319 0.70275
 C2828 C 0.73536 0.56281 0.70935
 C2829 C 0.72880 0.55413 0.71861
 C2830 C 0.71446 0.55558 0.72123
 C2831 C 0.70839 0.54629 0.73069
 C2832 C 0.71640 0.53655 0.73766
 C2833 C 0.73058 0.53563 0.73530
 C2834 C 0.73668 0.54424 0.72560
 H2835 H 0.72331 0.59500 0.68633
 H2836 H 0.67420 0.60111 0.69899
 H2837 H 0.71050 0.61359 0.67696
 H2838 H 0.67490 0.58111 0.71353
 H2839 H 0.68681 0.56246 0.72399
 H2840 H 0.73412 0.57945 0.69590
 H2841 H 0.74632 0.56170 0.70731
 H2842 H 0.69758 0.54646 0.73321
 H2843 H 0.71159 0.53002 0.74529
 H2844 H 0.74773 0.54357 0.72390
 C2845 C 0.68528 0.09522 0.21533
 C2846 C 0.69496 0.08606 0.20935
 C2847 C 0.69845 0.08818 0.19540
 C2848 C 0.69281 0.09930 0.18802
 C2849 C 0.68358 0.10855 0.19427
 C2850 C 0.67977 0.10621 0.20792
 C2851 C 0.70769 0.07929 0.18890
 C2852 C 0.71380 0.06846 0.19597
 C2853 C 0.71102 0.06612 0.20999
 C2854 C 0.70138 0.07503 0.21678
 C2855 C 0.69871 0.07283 0.23084
 C2856 C 0.70541 0.06256 0.23813
 C2857 C 0.71499 0.05396 0.23177
 C2858 C 0.71781 0.05540 0.21757
 C2859 C 0.72760 0.04623 0.21169
 C2860 C 0.73466 0.03660 0.21974
 C2861 C 0.73208 0.03564 0.23380
 C2862 C 0.72207 0.04418 0.23970
 H2863 H 0.68174 0.09430 0.22574
 H2864 H 0.69576 0.10077 0.17742
 H2865 H 0.67259 0.11296 0.21312
 H2866 H 0.71033 0.08079 0.17820
 H2867 H 0.72087 0.06221 0.19014
 H2868 H 0.69164 0.07905 0.23669
 H2869 H 0.70321 0.06146 0.24897
 H2870 H 0.73029 0.04639 0.20099
 H2871 H 0.74252 0.03018 0.21506
 H2872 H 0.72016 0.04350 0.25063
 C2873 C 0.18595 0.59670 0.21389
 C2874 C 0.19568 0.58753 0.20801
 C2875 C 0.19901 0.58938 0.19398
 C2876 C 0.19307 0.60021 0.18640
 C2877 C 0.18367 0.60936 0.19250
 C2878 C 0.18012 0.60738 0.20627
 C2879 C 0.20831 0.58049 0.18758
 C2880 C 0.21455 0.56982 0.19479
 C2881 C 0.21182 0.56765 0.20885
 C2882 C 0.20226 0.57669 0.21558
 C2883 C 0.19978 0.57478 0.22972
 C2884 C 0.20649 0.56457 0.23709
 C2885 C 0.21586 0.55574 0.23074
 C2886 C 0.21855 0.55695 0.21650
 C2887 C 0.22810 0.54752 0.21063
 C2888 C 0.23504 0.53783 0.21871
 C2889 C 0.23259 0.53709 0.23281
 C2890 C 0.22284 0.54592 0.23871
 H2891 H 0.18257 0.59599 0.22437
 H2892 H 0.19577 0.60145 0.17569
 H2893 H 0.17294 0.61423 0.21136
 H2894 H 0.21088 0.58183 0.17684
 H2895 H 0.22168 0.56357 0.18903
 H2896 H 0.19286 0.58117 0.23556
 H2897 H 0.20441 0.56367 0.24798
 H2898 H 0.23065 0.54749 0.19989
 H2899 H 0.24268 0.53117 0.21402
 H2900 H 0.22102 0.54539 0.24967
 C2901 C 0.18523 0.09560 0.71753
 C2902 C 0.19435 0.08583 0.71159
 C2903 C 0.19738 0.08725 0.69745
 C2904 C 0.19165 0.09809 0.68977
 C2905 C 0.18277 0.10773 0.69585
 C2906 C 0.17955 0.10630 0.70976
 C2907 C 0.20620 0.07792 0.69100
 C2908 C 0.21232 0.06725 0.69828
 C2909 C 0.20992 0.06549 0.71244
 C2910 C 0.20066 0.07484 0.71919
 C2911 C 0.19817 0.07301 0.73333
 C2912 C 0.20475 0.06272 0.74074
 C2913 C 0.21406 0.05379 0.73442
 C2914 C 0.21667 0.05485 0.72015
 C2915 C 0.22625 0.04541 0.71434
 C2916 C 0.23332 0.03589 0.72249
 C2917 C 0.23092 0.03525 0.73659
 C2918 C 0.22110 0.04405 0.74244
 H2919 H 0.18232 0.09542 0.72817
 H2920 H 0.19411 0.09895 0.67897
 H2921 H 0.17282 0.11365 0.71479
 H2922 H 0.20850 0.07892 0.68017
 H2923 H 0.21901 0.06061 0.69244
 H2924 H 0.19125 0.07946 0.73911
 H2925 H 0.20268 0.06189 0.75163
 H2926 H 0.22883 0.04532 0.70361
 H2927 H 0.24105 0.02929 0.71783
 H2928 H 0.21934 0.04362 0.75342
 C2929 C 0.30770 0.60036 0.28654
 C2930 C 0.30042 0.58958 0.29301
 C2931 C 0.29810 0.59062 0.30733
 C2932 C 0.30346 0.60175 0.31483
 C2933 C 0.31115 0.61199 0.30826
 C2934 C 0.31298 0.61127 0.29405
 C2935 C 0.29048 0.58052 0.31407
 C2936 C 0.28488 0.56953 0.30690
 C2937 C 0.28691 0.56803 0.29264
 C2938 C 0.29517 0.57801 0.28568
 C2939 C 0.29802 0.57606 0.27162
 C2940 C 0.29227 0.56532 0.26435
 C2941 C 0.28352 0.55601 0.27076
 C2942 C 0.28085 0.55699 0.28503
 C2943 C 0.27188 0.54710 0.29090
 C2944 C 0.26539 0.53720 0.28277
 C2945 C 0.26779 0.53675 0.26866
 C2946 C 0.27709 0.54595 0.26279
 H2947 H 0.30937 0.60085 0.27564
 H2948 H 0.30189 0.60228 0.32582
 H2949 H 0.31846 0.61926 0.28859
 H2950 H 0.28869 0.58120 0.32501
 H2951 H 0.27906 0.56229 0.31290
 H2952 H 0.30478 0.58264 0.26585
 H2953 H 0.29453 0.56444 0.25351
 H2954 H 0.26926 0.54701 0.30162
 H2955 H 0.25806 0.53023 0.28742
 H2956 H 0.27883 0.54563 0.25180
 C2957 C 0.30792 0.09914 0.78847
 C2958 C 0.29991 0.08901 0.79514
 C2959 C 0.29739 0.09067 0.80937
 C2960 C 0.30317 0.10177 0.81659
 C2961 C 0.31156 0.11134 0.80984
 C2962 C 0.31366 0.10999 0.79572
 C2963 C 0.28917 0.08121 0.81631
 C2964 C 0.28328 0.07016 0.80947
 C2965 C 0.28554 0.06800 0.79533
 C2966 C 0.29423 0.07744 0.78812
 C2967 C 0.29707 0.07496 0.77414
 C2968 C 0.29111 0.06411 0.76722
 C2969 C 0.28213 0.05521 0.77388
 C2970 C 0.27931 0.05681 0.78807
 C2971 C 0.27010 0.04731 0.79422
 C2972 C 0.26356 0.03719 0.78642
 C2973 C 0.26612 0.03612 0.77238
 C2974 C 0.27563 0.04493 0.76625
 H2975 H 0.30989 0.09913 0.77762
 H2976 H 0.30139 0.10279 0.82751
 H2977 H 0.31970 0.11746 0.79011
 H2978 H 0.28718 0.08239 0.82718
 H2979 H 0.27704 0.06342 0.81563
 H2980 H 0.30396 0.08120 0.76816
 H2981 H 0.29345 0.06278 0.75643
 H2982 H 0.26740 0.04766 0.80492
 H2983 H 0.25609 0.03050 0.79126
 H2984 H 0.27751 0.04412 0.75531
 C2985 C 0.80652 0.60010 0.78683
 C2986 C 0.79898 0.58963 0.79351
 C2987 C 0.79677 0.59096 0.80783
 C2988 C 0.80248 0.60205 0.81512
 C2989 C 0.81043 0.61195 0.80835
 C2990 C 0.81217 0.61096 0.79415
 C2991 C 0.78896 0.58119 0.81480
 C2992 C 0.78318 0.57013 0.80790
 C2993 C 0.78517 0.56825 0.79368
 C2994 C 0.79345 0.57802 0.78643
 C2995 C 0.79604 0.57582 0.77236
 C2996 C 0.79022 0.56490 0.76541
 C2997 C 0.78164 0.55566 0.77215
 C2998 C 0.77909 0.55700 0.78641
 C2999 C 0.77025 0.54721 0.79263
 C3000 C 0.76378 0.53704 0.78485
 C3001 C 0.76605 0.53621 0.77073
 C3002 C 0.77523 0.54532 0.76452
 H3003 H 0.80820 0.60034 0.77593
 H3004 H 0.80100 0.60279 0.82611
 H3005 H 0.81787 0.61870 0.78857
 H3006 H 0.78723 0.58213 0.82573
 H3007 H 0.77725 0.56315 0.81409
 H3008 H 0.80264 0.58233 0.76633
 H3009 H 0.79232 0.56378 0.75455
 H3010 H 0.76773 0.54737 0.80337
 H3011 H 0.75653 0.53017 0.78975
 H3012 H 0.77687 0.54471 0.75354
 C3013 C 0.80849 0.09878 0.28677
 C3014 C 0.80044 0.08861 0.29331
 C3015 C 0.79745 0.09039 0.30743
 C3016 C 0.80285 0.10165 0.31471
 C3017 C 0.81127 0.11130 0.30811
 C3018 C 0.81377 0.10984 0.29405
 C3019 C 0.78911 0.08090 0.31421
 C3020 C 0.78347 0.06979 0.30726
 C3021 C 0.78614 0.06756 0.29319
 C3022 C 0.79509 0.07693 0.28622
 C3023 C 0.79846 0.07431 0.27238
 C3024 C 0.79262 0.06350 0.26530
 C3025 C 0.78330 0.05475 0.27169
 C3026 C 0.78007 0.05640 0.28578
 C3027 C 0.77058 0.04701 0.29167
 C3028 C 0.76417 0.03694 0.28369
 C3029 C 0.76714 0.03585 0.26972
 C3030 C 0.77690 0.04456 0.26386
 H3031 H 0.81080 0.09867 0.27598
 H3032 H 0.80074 0.10273 0.32556
 H3033 H 0.81982 0.11735 0.28851
 H3034 H 0.78679 0.08215 0.32501
 H3035 H 0.77707 0.06306 0.31327
 H3036 H 0.80568 0.08041 0.26664
 H3037 H 0.79529 0.06210 0.25460
 H3038 H 0.76752 0.04743 0.30227
 H3039 H 0.75649 0.03033 0.28831
 H3040 H 0.77904 0.04375 0.25297
 C3041 C 0.69199 0.40102 0.28933
 C3042 C 0.70075 0.41070 0.29569
 C3043 C 0.70389 0.40870 0.30975
 C3044 C 0.69815 0.39763 0.31709
 C3045 C 0.68904 0.38854 0.31070
 C3046 C 0.68619 0.39026 0.29676
 C3047 C 0.71259 0.41785 0.31647
 C3048 C 0.71827 0.42900 0.30959
 C3049 C 0.71543 0.43152 0.29561
 C3050 C 0.70646 0.42225 0.28857
 C3051 C 0.70342 0.42486 0.27466
 C3052 C 0.70922 0.43583 0.26771
 C3053 C 0.71823 0.44473 0.27429
 C3054 C 0.72138 0.44290 0.28837
 C3055 C 0.73060 0.45241 0.29444
 C3056 C 0.73685 0.46276 0.28665
 C3057 C 0.73397 0.46406 0.27270
 C3058 C 0.72445 0.45522 0.26665
 H3059 H 0.68930 0.40140 0.27865
 H3060 H 0.70043 0.39635 0.32789
 H3061 H 0.67946 0.38318 0.29148
 H3062 H 0.71503 0.41639 0.32721
 H3063 H 0.72486 0.43550 0.31560
 H3064 H 0.69658 0.41858 0.26870
 H3065 H 0.70673 0.43727 0.25697
 H3066 H 0.73354 0.45192 0.30506
 H3067 H 0.74437 0.46943 0.29140
 H3068 H 0.72239 0.45617 0.25576
 C3069 C 0.68673 0.90357 0.78924
 C3070 C 0.69623 0.91268 0.79540
 C3071 C 0.69989 0.91015 0.80925
 C3072 C 0.69440 0.89883 0.81640
 C3073 C 0.68508 0.88988 0.81006
 C3074 C 0.68132 0.89244 0.79644
 C3075 C 0.70905 0.91891 0.81589
 C3076 C 0.71478 0.93010 0.80911
 C3077 C 0.71167 0.93297 0.79526
 C3078 C 0.70226 0.92408 0.78828
 C3079 C 0.69940 0.92671 0.77433
 C3080 C 0.70573 0.93737 0.76732
 C3081 C 0.71503 0.94598 0.77388
 C3082 C 0.71795 0.94418 0.78801
 C3083 C 0.72730 0.95353 0.79414
 C3084 C 0.73403 0.96355 0.78633
 C3085 C 0.73153 0.96469 0.77229
 C3086 C 0.72180 0.95612 0.76619
 H3087 H 0.68319 0.90470 0.77885
 H3088 H 0.69732 0.89708 0.82698
 H3089 H 0.67426 0.88571 0.79115
 H3090 H 0.71187 0.91706 0.82648
 H3091 H 0.72185 0.93619 0.81501
 H3092 H 0.69249 0.92055 0.76833
 H3093 H 0.70343 0.93876 0.75653
 H3094 H 0.72988 0.95320 0.80486
 H3095 H 0.74163 0.97007 0.79115
 H3096 H 0.71997 0.95697 0.75526
 C3097 C 0.21276 0.40207 0.81505
 C3098 C 0.20713 0.41137 0.80537
 C3099 C 0.19329 0.40926 0.80119
 C3100 C 0.18561 0.39815 0.80641
 C3101 C 0.19141 0.38905 0.81598
 C3102 C 0.20504 0.39118 0.82021
 C3103 C 0.18717 0.41826 0.79183
 C3104 C 0.19446 0.42930 0.78644
 C3105 C 0.20833 0.43176 0.79010
 C3106 C 0.21479 0.42259 0.79968
 C3107 C 0.22876 0.42480 0.80310
 C3108 C 0.23626 0.43538 0.79724
 C3109 C 0.23020 0.44431 0.78783
 C3110 C 0.21609 0.44287 0.78427
 C3111 C 0.21051 0.45247 0.77478
 C3112 C 0.21882 0.46245 0.76860
 C3113 C 0.23284 0.46331 0.77180
 C3114 C 0.23838 0.45441 0.78163
 H3115 H 0.22309 0.40285 0.81896
 H3116 H 0.17504 0.39671 0.80312
 H3117 H 0.20994 0.38431 0.82746
 H3118 H 0.17660 0.41673 0.78859
 H3119 H 0.18893 0.43563 0.77922
 H3120 H 0.23440 0.41837 0.81012
 H3121 H 0.24703 0.43647 0.80000
 H3122 H 0.19986 0.45239 0.77167
 H3123 H 0.21442 0.46919 0.76090
 H3124 H 0.24929 0.45503 0.78401
 C3125 C 0.21380 0.90312 0.31723
 C3126 C 0.20782 0.91253 0.30782
 C3127 C 0.19376 0.91063 0.30434
 C3128 C 0.18626 0.89958 0.30980
 C3129 C 0.19245 0.89022 0.31886
 C3130 C 0.20622 0.89221 0.32262
 C3131 C 0.18724 0.91967 0.29533
 C3132 C 0.19438 0.93049 0.28941
 C3133 C 0.20850 0.93266 0.29219
 C3134 C 0.21531 0.92359 0.30163
 C3135 C 0.22944 0.92574 0.30438
 C3136 C 0.23678 0.93607 0.29790
 C3137 C 0.23040 0.94476 0.28847
 C3138 C 0.21613 0.94339 0.28559
 C3139 C 0.21023 0.95263 0.27594
 C3140 C 0.21834 0.96226 0.26905
 C3141 C 0.23246 0.96318 0.27169
 C3142 C 0.23838 0.95458 0.28157
 H3143 H 0.22434 0.90378 0.32060
 H3144 H 0.17554 0.89830 0.30698
 H3145 H 0.21131 0.88513 0.32956
 H3146 H 0.17646 0.91832 0.29272
 H3147 H 0.18851 0.93688 0.28253
 H3148 H 0.23528 0.91944 0.31137
 H3149 H 0.24767 0.93713 0.30016
 H3150 H 0.19949 0.95251 0.27319
 H3151 H 0.21365 0.96873 0.26128
 H3152 H 0.24938 0.95524 0.28352
 C3153 C 0.40348 0.31445 0.71123
 C3154 C 0.41237 0.30449 0.70530
 C3155 C 0.40983 0.30064 0.69153
 C3156 C 0.39869 0.30638 0.68422
 C3157 C 0.38995 0.31614 0.69034
 C3158 C 0.39253 0.32013 0.70386
 C3159 C 0.41839 0.29104 0.68511
 C3160 C 0.42939 0.28503 0.69205
 C3161 C 0.43223 0.28830 0.70585
 C3162 C 0.42357 0.29819 0.71259
 C3163 C 0.42624 0.30129 0.72647
 C3164 C 0.43674 0.29479 0.73363
 C3165 C 0.44512 0.28501 0.72731
 C3166 C 0.44323 0.28176 0.71327
 C3167 C 0.45227 0.27184 0.70741
 C3168 C 0.46214 0.26500 0.71538
 C3169 C 0.46345 0.26795 0.72932
 C3170 C 0.45513 0.27815 0.73515
 H3171 H 0.40462 0.31815 0.72154
 H3172 H 0.39692 0.30331 0.67371
 H3173 H 0.38594 0.32755 0.70895
 H3174 H 0.41654 0.28807 0.67457
 H3175 H 0.43536 0.27767 0.68630
 H3176 H 0.42023 0.30856 0.73228
 H3177 H 0.43819 0.29733 0.74435
 H3178 H 0.45182 0.26888 0.69680
 H3179 H 0.46845 0.25702 0.71076
 H3180 H 0.45613 0.28035 0.74600
 C3181 C 0.40191 0.81347 0.21019
 C3182 C 0.41084 0.80363 0.20415
 C3183 C 0.40851 0.80014 0.19024
 C3184 C 0.39747 0.80608 0.18293
 C3185 C 0.38869 0.81573 0.18917
 C3186 C 0.39110 0.81937 0.20282
 C3187 C 0.41720 0.79074 0.18369
 C3188 C 0.42814 0.78463 0.19062
 C3189 C 0.43077 0.78753 0.20455
 C3190 C 0.42192 0.79715 0.21144
 C3191 C 0.42430 0.79981 0.22546
 C3192 C 0.43472 0.79317 0.23260
 C3193 C 0.44332 0.78370 0.22611
 C3194 C 0.44171 0.78087 0.21195
 C3195 C 0.45097 0.77127 0.20592
 C3196 C 0.46085 0.76435 0.21382
 C3197 C 0.46189 0.76689 0.22786
 C3198 C 0.45330 0.77673 0.23389
 H3199 H 0.40292 0.81691 0.22061
 H3200 H 0.39583 0.80328 0.17232
 H3201 H 0.38450 0.82672 0.20799
 H3202 H 0.41550 0.78803 0.17305
 H3203 H 0.43425 0.77746 0.18476
 H3204 H 0.41811 0.80681 0.23140
 H3205 H 0.43597 0.79540 0.24341
 H3206 H 0.45074 0.76867 0.19521
 H3207 H 0.46740 0.75667 0.20904
 H3208 H 0.45412 0.77862 0.24481
 C3209 C 0.90316 0.31579 0.21144
 C3210 C 0.91196 0.30574 0.20555
 C3211 C 0.90921 0.30164 0.19189
 C3212 C 0.89802 0.30733 0.18462
 C3213 C 0.88940 0.31722 0.19068
 C3214 C 0.89213 0.32136 0.20413
 C3215 C 0.91757 0.29181 0.18557
 C3216 C 0.92854 0.28576 0.19252
 C3217 C 0.93162 0.28930 0.20621
 C3218 C 0.92324 0.29953 0.21280
 C3219 C 0.92627 0.30307 0.22649
 C3220 C 0.93676 0.29659 0.23368
 C3221 C 0.94479 0.28641 0.22754
 C3222 C 0.94260 0.28275 0.21365
 C3223 C 0.95131 0.27244 0.20797
 C3224 C 0.96117 0.26565 0.21600
 C3225 C 0.96276 0.26903 0.22981
 C3226 C 0.95477 0.27958 0.23544
 H3227 H 0.90437 0.31957 0.22172
 H3228 H 0.89611 0.30410 0.17418
 H3229 H 0.88560 0.32884 0.20922
 H3230 H 0.91556 0.28866 0.17511
 H3231 H 0.93434 0.27819 0.18687
 H3232 H 0.92061 0.31074 0.23214
 H3233 H 0.93850 0.29947 0.24426
 H3234 H 0.95059 0.26914 0.19748
 H3235 H 0.96724 0.25739 0.21156
 H3236 H 0.95598 0.28209 0.24620
 C3237 C 0.90319 0.81501 0.70964
 C3238 C 0.91171 0.80498 0.70331
 C3239 C 0.90862 0.80130 0.68961
 C3240 C 0.89731 0.80727 0.68276
 C3241 C 0.88888 0.81703 0.68929
 C3242 C 0.89203 0.82088 0.70274
 C3243 C 0.91676 0.79161 0.68280
 C3244 C 0.92781 0.78526 0.68933
 C3245 C 0.93116 0.78828 0.70307
 C3246 C 0.92302 0.79838 0.71015
 C3247 C 0.92628 0.80134 0.72393
 C3248 C 0.93676 0.79442 0.73073
 C3249 C 0.94454 0.78436 0.72410
 C3250 C 0.94213 0.78130 0.71011
 C3251 C 0.95062 0.77110 0.70391
 C3252 C 0.96043 0.76380 0.71155
 C3253 C 0.96221 0.76656 0.72547
 C3254 C 0.95447 0.77703 0.73161
 H3255 H 0.90475 0.81857 0.71995
 H3256 H 0.89513 0.80430 0.67230
 H3257 H 0.88572 0.82831 0.70814
 H3258 H 0.91449 0.78880 0.67230
 H3259 H 0.93341 0.77782 0.68331
 H3260 H 0.92077 0.80884 0.72994
 H3261 H 0.93865 0.79684 0.74140
 H3262 H 0.94976 0.76826 0.69329
 H3263 H 0.96631 0.75564 0.70670
 H3264 H 0.95586 0.77909 0.74244
 C3265 C 0.59751 0.31611 0.28504
 C3266 C 0.58801 0.30630 0.29008
 C3267 C 0.58964 0.30181 0.30383
 C3268 C 0.60040 0.30693 0.31201
 C3269 C 0.60958 0.31675 0.30684
 C3270 C 0.60801 0.32122 0.29329
 C3271 C 0.58051 0.29226 0.30937
 C3272 C 0.56976 0.28700 0.30161
 C3273 C 0.56772 0.29102 0.28784
 C3274 C 0.57702 0.30082 0.28198
 C3275 C 0.57511 0.30472 0.26816
 C3276 C 0.56474 0.29909 0.26023
 C3277 C 0.55572 0.28944 0.26570
 C3278 C 0.55685 0.28539 0.27963
 C3279 C 0.54719 0.27567 0.28462
 C3280 C 0.53735 0.26983 0.27594
 C3281 C 0.53673 0.27358 0.26213
 C3282 C 0.54577 0.28354 0.25714
 H3283 H 0.59717 0.32013 0.27477
 H3284 H 0.60146 0.30344 0.32251
 H3285 H 0.61505 0.32864 0.28891
 H3286 H 0.58169 0.28879 0.31987
 H3287 H 0.56327 0.27965 0.30673
 H3288 H 0.58159 0.31203 0.26299
 H3289 H 0.56386 0.30225 0.24961
 H3290 H 0.54708 0.27213 0.29507
 H3291 H 0.53051 0.26200 0.27991
 H3292 H 0.54533 0.28635 0.24638
 C3293 C 0.59630 0.78814 0.81138
 C3294 C 0.58781 0.79400 0.80111
 C3295 C 0.59035 0.80785 0.79731
 C3296 C 0.60112 0.81530 0.80343
 C3297 C 0.60948 0.80924 0.81351
 C3298 C 0.60688 0.79562 0.81740
 C3299 C 0.58215 0.81419 0.78740
 C3300 C 0.57146 0.80714 0.78111
 C3301 C 0.56856 0.79330 0.78442
 C3302 C 0.57697 0.78658 0.79450
 C3303 C 0.57442 0.77260 0.79747
 C3304 C 0.56417 0.76536 0.79079
 C3305 C 0.55588 0.77173 0.78100
 C3306 C 0.55773 0.78584 0.77779
 C3307 C 0.54874 0.79177 0.76792
 C3308 C 0.53882 0.78384 0.76122
 C3309 C 0.53748 0.76986 0.76419
 C3310 C 0.54591 0.76390 0.77419
 H3311 H 0.59508 0.77780 0.81511
 H3312 H 0.60290 0.82587 0.80041
 H3313 H 0.61317 0.79053 0.82504
 H3314 H 0.58403 0.82477 0.78443
 H3315 H 0.56577 0.81283 0.77350
 H3316 H 0.58033 0.76676 0.80478
 H3317 H 0.56277 0.75458 0.79328
 H3318 H 0.54916 0.80244 0.76501
 H3319 H 0.53243 0.78855 0.75339
 H3320 H 0.54491 0.75301 0.77640
 C3321 C 0.09822 0.29033 0.80513
 C3322 C 0.08916 0.29703 0.79591
 C3323 C 0.09167 0.31110 0.79296
 C3324 C 0.10264 0.31811 0.79934
 C3325 C 0.11120 0.31133 0.80879
 C3326 C 0.10894 0.29736 0.81141
 C3327 C 0.08318 0.31810 0.78373
 C3328 C 0.07221 0.31151 0.77737
 C3329 C 0.06918 0.29755 0.78004
 C3330 C 0.07779 0.29022 0.78953
 C3331 C 0.07474 0.27631 0.79235
 C3332 C 0.06397 0.26964 0.78593
 C3333 C 0.05568 0.27650 0.77648
 C3334 C 0.05797 0.29058 0.77346
 C3335 C 0.04905 0.29693 0.76376
 C3336 C 0.03885 0.28938 0.75699
 C3337 C 0.03710 0.27540 0.75979
 C3338 C 0.04535 0.26912 0.76974
 H3339 H 0.09743 0.27962 0.80777
 H3340 H 0.10432 0.32890 0.79715
 H3341 H 0.11557 0.29167 0.81833
 H3342 H 0.08505 0.32882 0.78136
 H3343 H 0.06626 0.31769 0.77035
 H3344 H 0.08051 0.27014 0.79950
 H3345 H 0.06220 0.25890 0.78830
 H3346 H 0.04991 0.30759 0.76090
 H3347 H 0.03266 0.29433 0.74916
 H3348 H 0.04407 0.25822 0.77177
 C3349 C 0.09851 0.81747 0.28324
 C3350 C 0.08797 0.80904 0.28869
 C3351 C 0.08892 0.80530 0.30271
 C3352 C 0.09995 0.80992 0.31081
 C3353 C 0.11022 0.81832 0.30521
 C3354 C 0.10936 0.82202 0.29138
 C3355 C 0.07890 0.79691 0.30859
 C3356 C 0.06807 0.79184 0.30082
 C3357 C 0.06676 0.79502 0.28676
 C3358 C 0.07670 0.80402 0.28067
 C3359 C 0.07511 0.80764 0.26674
 C3360 C 0.06466 0.80214 0.25882
 C3361 C 0.05531 0.79286 0.26440
 C3362 C 0.05601 0.78931 0.27849
 C3363 C 0.04614 0.77984 0.28355
 C3364 C 0.03654 0.77375 0.27482
 C3365 C 0.03629 0.77702 0.26088
 C3366 C 0.04551 0.78678 0.25579
 H3367 H 0.09887 0.82062 0.27267
 H3368 H 0.10045 0.80703 0.32153
 H3369 H 0.11726 0.82830 0.28668
 H3370 H 0.07951 0.79409 0.31933
 H3371 H 0.06088 0.78540 0.30622
 H3372 H 0.08183 0.81471 0.26153
 H3373 H 0.06404 0.80502 0.24810
 H3374 H 0.04580 0.77656 0.29408
 H3375 H 0.02959 0.76605 0.27888
 H3376 H 0.04538 0.78922 0.24494
 C3377 C 0.59700 0.68719 0.71480
 C3378 C 0.58691 0.69539 0.70813
 C3379 C 0.58827 0.69731 0.69378
 C3380 C 0.59940 0.69143 0.68661
 C3381 C 0.60936 0.68351 0.69345
 C3382 C 0.60797 0.68138 0.70755
 C3383 C 0.57860 0.70518 0.68665
 C3384 C 0.56774 0.71155 0.69345
 C3385 C 0.56611 0.71034 0.70778
 C3386 C 0.57572 0.70192 0.71521
 C3387 C 0.57397 0.70050 0.72950
 C3388 C 0.56360 0.70745 0.73642
 C3389 C 0.55449 0.71605 0.72944
 C3390 C 0.55539 0.71750 0.71501
 C3391 C 0.54576 0.72644 0.70853
 C3392 C 0.53624 0.73407 0.71621
 C3393 C 0.53585 0.73284 0.73046
 C3394 C 0.54477 0.72360 0.73697
 H3395 H 0.59689 0.68514 0.72563
 H3396 H 0.60026 0.69301 0.67565
 H3397 H 0.61558 0.67542 0.71314
 H3398 H 0.57952 0.70657 0.67566
 H3399 H 0.56084 0.71749 0.68713
 H3400 H 0.58057 0.69420 0.73579
 H3401 H 0.56287 0.70627 0.74745
 H3402 H 0.54554 0.72812 0.69763
 H3403 H 0.52949 0.74132 0.71105
 H3404 H 0.54451 0.72278 0.74806
 C3405 C 0.59598 0.19210 0.21105
 C3406 C 0.58702 0.20125 0.20409
 C3407 C 0.59005 0.20431 0.19020
 C3408 C 0.60152 0.19824 0.18364
 C3409 C 0.61027 0.18917 0.19075
 C3410 C 0.60732 0.18624 0.20450
 C3411 C 0.58171 0.21354 0.18298
 C3412 C 0.57064 0.22012 0.18932
 C3413 C 0.56732 0.21759 0.20320
 C3414 C 0.57541 0.20768 0.21057
 C3415 C 0.57169 0.20458 0.22422
 C3416 C 0.56106 0.21150 0.23077
 C3417 C 0.55359 0.22170 0.22402
 C3418 C 0.55635 0.22478 0.21006
 C3419 C 0.54827 0.23525 0.20378
 C3420 C 0.53842 0.24267 0.21128
 C3421 C 0.53624 0.23980 0.22514
 C3422 C 0.54362 0.22914 0.23136
 H3423 H 0.59477 0.18942 0.22168
 H3424 H 0.60361 0.20065 0.17300
 H3425 H 0.61389 0.17951 0.21046
 H3426 H 0.58390 0.21588 0.17234
 H3427 H 0.56487 0.22718 0.18302
 H3428 H 0.57680 0.19682 0.23025
 H3429 H 0.55881 0.20897 0.24137
 H3430 H 0.54957 0.23826 0.19324
 H3431 H 0.53285 0.25103 0.20639
 H3432 H 0.54197 0.22704 0.24216
 C3433 C 0.09811 0.69629 0.21012
 C3434 C 0.08896 0.70538 0.20331
 C3435 C 0.09144 0.70804 0.18922
 C3436 C 0.10251 0.70158 0.18232
 C3437 C 0.11123 0.69236 0.18924
 C3438 C 0.10897 0.68995 0.20320
 C3439 C 0.08286 0.71711 0.18209
 C3440 C 0.07188 0.72367 0.18860
 C3441 C 0.06894 0.72136 0.20260
 C3442 C 0.07757 0.71197 0.21004
 C3443 C 0.07457 0.70947 0.22398
 C3444 C 0.06387 0.71621 0.23061
 C3445 C 0.05560 0.72563 0.22365
 C3446 C 0.05779 0.72825 0.20951
 C3447 C 0.04885 0.73788 0.20303
 C3448 C 0.03871 0.74498 0.21049
 C3449 C 0.03707 0.74258 0.22452
 C3450 C 0.04534 0.73272 0.23096
 H3451 H 0.09731 0.69383 0.22084
 H3452 H 0.10415 0.70356 0.17152
 H3453 H 0.11570 0.68318 0.20897
 H3454 H 0.08468 0.71922 0.17133
 H3455 H 0.06588 0.73058 0.18233
 H3456 H 0.08032 0.70235 0.23022
 H3457 H 0.06214 0.71410 0.24138
 H3458 H 0.04961 0.74043 0.19232
 H3459 H 0.03245 0.75270 0.20541
 H3460 H 0.04411 0.73098 0.24187
 C3461 C 0.09900 0.21457 0.68500
 C3462 C 0.08909 0.20950 0.69438
 C3463 C 0.09043 0.19561 0.69867
 C3464 C 0.10125 0.18727 0.69370
 C3465 C 0.11089 0.19249 0.68434
 C3466 C 0.10962 0.20620 0.68010
 C3467 C 0.08097 0.19008 0.70791
 C3468 C 0.07021 0.19801 0.71309
 C3469 C 0.06842 0.21192 0.70923
 C3470 C 0.07801 0.21775 0.69969
 C3471 C 0.07628 0.23167 0.69586
 C3472 C 0.06582 0.23973 0.70135
 C3473 C 0.05656 0.23430 0.71080
 C3474 C 0.05753 0.22028 0.71477
 C3475 C 0.04767 0.21536 0.72434
 C3476 C 0.03783 0.22417 0.73012
 C3477 C 0.03734 0.23806 0.72644
 C3478 C 0.04656 0.24300 0.71661
 H3479 H 0.09894 0.22496 0.68121
 H3480 H 0.10205 0.17666 0.69703
 H3481 H 0.11699 0.21065 0.67306
 H3482 H 0.08193 0.17947 0.71124
 H3483 H 0.06349 0.19289 0.72022
 H3484 H 0.08294 0.23680 0.68869
 H3485 H 0.06507 0.25042 0.69824
 H3486 H 0.04744 0.20486 0.72783
 H3487 H 0.03087 0.22024 0.73788
 H3488 H 0.04623 0.25381 0.71385
 C3489 C 0.40121 0.68958 0.28506
 C3490 C 0.41142 0.69814 0.29082
 C3491 C 0.41035 0.70121 0.30499
 C3492 C 0.39958 0.69567 0.31298
 C3493 C 0.38974 0.68700 0.30706
 C3494 C 0.39066 0.68417 0.29303
 C3495 C 0.42003 0.70980 0.31111
 C3496 C 0.43069 0.71555 0.30348
 C3497 C 0.43217 0.71286 0.28932
 C3498 C 0.42247 0.70386 0.28294
 C3499 C 0.42409 0.70090 0.26886
 C3500 C 0.43440 0.70693 0.26112
 C3501 C 0.44364 0.71605 0.26704
 C3502 C 0.44289 0.71902 0.28125
 C3503 C 0.45274 0.72831 0.28664
 C3504 C 0.46239 0.73473 0.27812
 C3505 C 0.46263 0.73203 0.26406
 C3506 C 0.45341 0.72250 0.25864
 H3507 H 0.40092 0.68690 0.27438
 H3508 H 0.39898 0.69798 0.32383
 H3509 H 0.38306 0.67783 0.28799
 H3510 H 0.41931 0.71220 0.32193
 H3511 H 0.43760 0.72213 0.30903
 H3512 H 0.41751 0.69396 0.26337
 H3513 H 0.43503 0.70453 0.25029
 H3514 H 0.45307 0.73111 0.29730
 H3515 H 0.46938 0.74222 0.28244
 H3516 H 0.45355 0.72050 0.24771
 C3517 C 0.40403 0.18759 0.78596
 C3518 C 0.41317 0.19733 0.79164
 C3519 C 0.41131 0.20091 0.80561
 C3520 C 0.40060 0.19501 0.81339
 C3521 C 0.39165 0.18539 0.80753
 C3522 C 0.39353 0.18178 0.79377
 C3523 C 0.42010 0.21036 0.81175
 C3524 C 0.43071 0.21646 0.80436
 C3525 C 0.43292 0.21340 0.79038
 C3526 C 0.42399 0.20367 0.78392
 C3527 C 0.42606 0.20072 0.76990
 C3528 C 0.43625 0.20717 0.76235
 C3529 C 0.44490 0.21676 0.76840
 C3530 C 0.44358 0.21992 0.78254
 C3531 C 0.45287 0.22967 0.78809
 C3532 C 0.46252 0.23635 0.77978
 C3533 C 0.46332 0.23343 0.76580
 C3534 C 0.45467 0.22348 0.76022
 H3535 H 0.40460 0.18417 0.77550
 H3536 H 0.39935 0.19785 0.82404
 H3537 H 0.38675 0.17453 0.78881
 H3538 H 0.41875 0.21314 0.82243
 H3539 H 0.43692 0.22368 0.80993
 H3540 H 0.41984 0.19356 0.76427
 H3541 H 0.43727 0.20470 0.75156
 H3542 H 0.45280 0.23258 0.79873
 H3543 H 0.46911 0.24414 0.78420
 H3544 H 0.45528 0.22131 0.74934
 C3545 C 0.90287 0.68695 0.78392
 C3546 C 0.91223 0.69662 0.78936
 C3547 C 0.91066 0.70033 0.80333
 C3548 C 0.90012 0.69452 0.81138
 C3549 C 0.89097 0.68494 0.80576
 C3550 C 0.89250 0.68128 0.79197
 C3551 C 0.91958 0.70985 0.80918
 C3552 C 0.93001 0.71588 0.80150
 C3553 C 0.93197 0.71264 0.78752
 C3554 C 0.92296 0.70279 0.78137
 C3555 C 0.92487 0.69951 0.76740
 C3556 C 0.93494 0.70583 0.75958
 C3557 C 0.94363 0.71558 0.76531
 C3558 C 0.94248 0.71905 0.77939
 C3559 C 0.95178 0.72898 0.78460
 C3560 C 0.96132 0.73548 0.77603
 C3561 C 0.96198 0.73220 0.76211
 C3562 C 0.95327 0.72213 0.75687
 H3563 H 0.90314 0.68352 0.77345
 H3564 H 0.89911 0.69743 0.82205
 H3565 H 0.88551 0.67414 0.78717
 H3566 H 0.91846 0.71273 0.81985
 H3567 H 0.93634 0.72317 0.80685
 H3568 H 0.91866 0.69215 0.76203
 H3569 H 0.93584 0.70312 0.74884
 H3570 H 0.95180 0.73217 0.79516
 H3571 H 0.96795 0.74338 0.78018
 H3572 H 0.95378 0.71970 0.74603
 C3573 C 0.90342 0.18841 0.28561
 C3574 C 0.91262 0.19791 0.29158
 C3575 C 0.91056 0.20133 0.30557
 C3576 C 0.89973 0.19537 0.31312
 C3577 C 0.89077 0.18594 0.30699
 C3578 C 0.89275 0.18259 0.29318
 C3579 C 0.91926 0.21071 0.31194
 C3580 C 0.92988 0.21699 0.30473
 C3581 C 0.93228 0.21410 0.29075
 C3582 C 0.92360 0.20426 0.28411
 C3583 C 0.92611 0.20119 0.27019
 C3584 C 0.93631 0.20784 0.26282
 C3585 C 0.94456 0.21771 0.26898
 C3586 C 0.94290 0.22087 0.28308
 C3587 C 0.95179 0.23092 0.28875
 C3588 C 0.96138 0.23786 0.28059
 C3589 C 0.96252 0.23490 0.26664
 C3590 C 0.95426 0.22468 0.26094
 H3591 H 0.90401 0.18527 0.27506
 H3592 H 0.89838 0.19804 0.32381
 H3593 H 0.88592 0.17554 0.28800
 H3594 H 0.91777 0.21334 0.32264
 H3595 H 0.93599 0.22417 0.31046
 H3596 H 0.92029 0.19373 0.26453
 H3597 H 0.93765 0.20531 0.25208
 H3598 H 0.95142 0.23390 0.29937
 H3599 H 0.96765 0.24584 0.28509
 H3600 H 0.95515 0.22248 0.25008
 C3601 C 0.28832 0.30569 0.60075
 C3602 C 0.29501 0.29659 0.59155
 C3603 C 0.30934 0.29423 0.59342
 C3604 C 0.31656 0.30085 0.60403
 C3605 C 0.30975 0.31003 0.61284
 C3606 C 0.29558 0.31226 0.61112
 C3607 C 0.31643 0.28535 0.58464
 C3608 C 0.30965 0.27873 0.57401
 C3609 C 0.29539 0.28070 0.57168
 C3610 C 0.28795 0.28979 0.58063
 C3611 C 0.27368 0.29175 0.57838
 C3612 C 0.26683 0.28499 0.56797
 C3613 C 0.27385 0.27603 0.55928
 C3614 C 0.28824 0.27379 0.56084
 C3615 C 0.29474 0.26453 0.55159
 C3616 C 0.28711 0.25749 0.54168
 C3617 C 0.27288 0.25957 0.54058
 C3618 C 0.26638 0.26901 0.54924
 H3619 H 0.27747 0.30804 0.60030
 H3620 H 0.32753 0.29905 0.60525
 H3621 H 0.28994 0.31905 0.61791
 H3622 H 0.32738 0.28349 0.58601
 H3623 H 0.31594 0.27204 0.56778
 H3624 H 0.26734 0.29841 0.58456
 H3625 H 0.25583 0.28671 0.56679
 H3626 H 0.30562 0.26226 0.55190
 H3627 H 0.29225 0.25005 0.53515
 H3628 H 0.25530 0.27050 0.54844
 C3629 C 0.28662 0.80766 0.09955
 C3630 C 0.29316 0.79864 0.09017
 C3631 C 0.30746 0.79603 0.09197
 C3632 C 0.31479 0.80233 0.10268
 C3633 C 0.30813 0.81141 0.11168
 C3634 C 0.29400 0.81390 0.11003
 C3635 C 0.31440 0.78720 0.08303
 C3636 C 0.30749 0.78081 0.07235
 C3637 C 0.29325 0.78301 0.07012
 C3638 C 0.28598 0.79213 0.07916
 C3639 C 0.27177 0.79444 0.07692
 C3640 C 0.26478 0.78792 0.06644
 C3641 C 0.27161 0.77888 0.05770
 C3642 C 0.28595 0.77630 0.05926
 C3643 C 0.29224 0.76691 0.05001
 C3644 C 0.28447 0.76011 0.04005
 C3645 C 0.27030 0.76258 0.03887
 C3646 C 0.26400 0.77211 0.04759
 H3647 H 0.27581 0.81018 0.09918
 H3648 H 0.32575 0.80037 0.10383
 H3649 H 0.28848 0.82064 0.11698
 H3650 H 0.32534 0.78520 0.08432
 H3651 H 0.31368 0.77417 0.06599
 H3652 H 0.26558 0.80121 0.08313
 H3653 H 0.25382 0.78989 0.06528
 H3654 H 0.30304 0.76431 0.05038
 H3655 H 0.28944 0.75255 0.03352
 H3656 H 0.25297 0.77388 0.04677
 C3657 C 0.78603 0.30853 0.10244
 C3658 C 0.79223 0.29987 0.09253
 C3659 C 0.80658 0.29716 0.09379
 C3660 C 0.81434 0.30330 0.10431
 C3661 C 0.80803 0.31228 0.11366
 C3662 C 0.79381 0.31463 0.11270
 C3663 C 0.81312 0.28841 0.08447
 C3664 C 0.80577 0.28228 0.07391
 C3665 C 0.79150 0.28474 0.07213
 C3666 C 0.78467 0.29381 0.08153
 C3667 C 0.77050 0.29664 0.07956
 C3668 C 0.76312 0.29054 0.06910
 C3669 C 0.76948 0.28139 0.06014
 C3670 C 0.78378 0.27839 0.06135
 C3671 C 0.78959 0.26896 0.05183
 C3672 C 0.78139 0.26250 0.04198
 C3673 C 0.76727 0.26537 0.04120
 C3674 C 0.76144 0.27497 0.05013
 H3675 H 0.77515 0.31080 0.10269
 H3676 H 0.82534 0.30135 0.10502
 H3677 H 0.78854 0.32117 0.12002
 H3678 H 0.82407 0.28625 0.08537
 H3679 H 0.81166 0.27569 0.06722
 H3680 H 0.76468 0.30362 0.08590
 H3681 H 0.75222 0.29293 0.06812
 H3682 H 0.80032 0.26606 0.05192
 H3683 H 0.78599 0.25493 0.03521
 H3684 H 0.75045 0.27707 0.04955
 C3685 C 0.78800 0.80917 0.59819
 C3686 C 0.79463 0.79904 0.59007
 C3687 C 0.80863 0.79596 0.59303
 C3688 C 0.81552 0.80269 0.60376
 C3689 C 0.80875 0.81266 0.61169
 C3690 C 0.79495 0.81581 0.60874
 C3691 C 0.81572 0.78616 0.58530
 C3692 C 0.80923 0.77922 0.57470
 C3693 C 0.79526 0.78176 0.57141
 C3694 C 0.78784 0.79184 0.57923
 C3695 C 0.77382 0.79428 0.57607
 C3696 C 0.76717 0.78698 0.56587
 C3697 C 0.77417 0.77705 0.55828
 C3698 C 0.78837 0.77438 0.56073
 C3699 C 0.79492 0.76422 0.55250
 C3700 C 0.78751 0.75676 0.54275
 C3701 C 0.77345 0.75927 0.54081
 C3702 C 0.76689 0.76953 0.54845
 H3703 H 0.77743 0.81227 0.59673
 H3704 H 0.82623 0.80022 0.60583
 H3705 H 0.78933 0.82335 0.61473
 H3706 H 0.82643 0.78377 0.58750
 H3707 H 0.81549 0.77178 0.56936
 H3708 H 0.76752 0.80168 0.58140
 H3709 H 0.75633 0.78907 0.56400
 H3710 H 0.80568 0.76160 0.55347
 H3711 H 0.79267 0.74871 0.53700
 H3712 H 0.75593 0.77134 0.54700
 C3713 C 0.31175 0.70944 0.40321
 C3714 C 0.30149 0.70327 0.41150
 C3715 C 0.29819 0.68934 0.40886
 C3716 C 0.30461 0.68217 0.39803
 C3717 C 0.31454 0.68857 0.38976
 C3718 C 0.31809 0.70221 0.39259
 C3719 C 0.28849 0.68263 0.41701
 C3720 C 0.28193 0.68941 0.42775
 C3721 C 0.28464 0.70336 0.43068
 C3722 C 0.29444 0.71046 0.42227
 C3723 C 0.29664 0.72459 0.42468
 C3724 C 0.28961 0.73158 0.43492
 C3725 C 0.28018 0.72482 0.44329
 C3726 C 0.27764 0.71058 0.44150
 C3727 C 0.26802 0.70430 0.45050
 C3728 C 0.26084 0.71202 0.46032
 C3729 C 0.26312 0.72614 0.46158
 C3730 C 0.27296 0.73241 0.45321
 H3731 H 0.31523 0.71982 0.40466
 H3732 H 0.30190 0.67154 0.39613
 H3733 H 0.32568 0.70752 0.38644
 H3734 H 0.28591 0.67197 0.41506
 H3735 H 0.27454 0.68345 0.43343
 H3736 H 0.30352 0.73075 0.41861
 H3737 H 0.29150 0.74249 0.43621
 H3738 H 0.26564 0.69350 0.45011
 H3739 H 0.25313 0.70705 0.46665
 H3740 H 0.27463 0.74340 0.45414
 C3741 C 0.31489 0.21120 0.90241
 C3742 C 0.30508 0.20540 0.91146
 C3743 C 0.30120 0.19154 0.90920
 C3744 C 0.30695 0.18396 0.89828
 C3745 C 0.31667 0.18993 0.88946
 C3746 C 0.32052 0.20360 0.89168
 C3747 C 0.29157 0.18533 0.91782
 C3748 C 0.28556 0.19257 0.92857
 C3749 C 0.28893 0.20644 0.93119
 C3750 C 0.29893 0.21293 0.92253
 C3751 C 0.30237 0.22678 0.92513
 C3752 C 0.29605 0.23418 0.93551
 C3753 C 0.28612 0.22814 0.94384
 C3754 C 0.28250 0.21414 0.94202
 C3755 C 0.27237 0.20861 0.95096
 C3756 C 0.26581 0.21683 0.96079
 C3757 C 0.26921 0.23071 0.96210
 C3758 C 0.27952 0.23623 0.95378
 H3759 H 0.31843 0.22163 0.90319
 H3760 H 0.30391 0.17337 0.89674
 H3761 H 0.32781 0.20864 0.88497
 H3762 H 0.28858 0.17473 0.91618
 H3763 H 0.27818 0.18697 0.93462
 H3764 H 0.30986 0.23237 0.91923
 H3765 H 0.29888 0.24486 0.93693
 H3766 H 0.26901 0.19808 0.95043
 H3767 H 0.25768 0.21249 0.96706
 H3768 H 0.28201 0.24706 0.95474
 C3769 C 0.81550 0.71104 0.90191
 C3770 C 0.80571 0.70526 0.91100
 C3771 C 0.80172 0.69144 0.90870
 C3772 C 0.80729 0.68389 0.89766
 C3773 C 0.81699 0.68983 0.88880
 C3774 C 0.82100 0.70344 0.89109
 C3775 C 0.79218 0.68522 0.91740
 C3776 C 0.78637 0.69241 0.92829
 C3777 C 0.78981 0.70626 0.93093
 C3778 C 0.79970 0.71277 0.92216
 C3779 C 0.80312 0.72663 0.92472
 C3780 C 0.79690 0.73402 0.93519
 C3781 C 0.78708 0.72795 0.94362
 C3782 C 0.78350 0.71393 0.94185
 C3783 C 0.77350 0.70836 0.95090
 C3784 C 0.76689 0.71659 0.96069
 C3785 C 0.77017 0.73051 0.96191
 C3786 C 0.78047 0.73604 0.95357
 H3787 H 0.81916 0.72142 0.90275
 H3788 H 0.80414 0.67334 0.89607
 H3789 H 0.82831 0.70845 0.88437
 H3790 H 0.78910 0.67465 0.91574
 H3791 H 0.77905 0.68680 0.93441
 H3792 H 0.81048 0.73226 0.91870
 H3793 H 0.79970 0.74471 0.93656
 H3794 H 0.77026 0.69780 0.95049
 H3795 H 0.75881 0.71221 0.96698
 H3796 H 0.78292 0.74688 0.95447
 C3797 C 0.81394 0.21016 0.40203
 C3798 C 0.80377 0.20442 0.41071
 C3799 C 0.79983 0.19061 0.40824
 C3800 C 0.80572 0.18309 0.39735
 C3801 C 0.81571 0.18904 0.38882
 C3802 C 0.81973 0.20261 0.39134
 C3803 C 0.79001 0.18439 0.41662
 C3804 C 0.78390 0.19154 0.42738
 C3805 C 0.78729 0.20538 0.43016
 C3806 C 0.79737 0.21193 0.42164
 C3807 C 0.80056 0.22585 0.42419
 C3808 C 0.79404 0.23321 0.43448
 C3809 C 0.78415 0.22706 0.44277
 C3810 C 0.78073 0.21301 0.44095
 C3811 C 0.77066 0.20734 0.44988
 C3812 C 0.76391 0.21550 0.45964
 C3813 C 0.76708 0.22944 0.46090
 C3814 C 0.77736 0.23509 0.45263
 H3815 H 0.81772 0.22048 0.40313
 H3816 H 0.80259 0.17256 0.39562
 H3817 H 0.82729 0.20763 0.38491
 H3818 H 0.78695 0.17383 0.41482
 H3819 H 0.77637 0.18594 0.43325
 H3820 H 0.80793 0.23156 0.41824
 H3821 H 0.79668 0.24395 0.43586
 H3822 H 0.76754 0.19674 0.44944
 H3823 H 0.75586 0.21105 0.46591
 H3824 H 0.77970 0.24595 0.45358
 C3825 C 0.68626 0.28684 0.40182
 C3826 C 0.69629 0.29244 0.41072
 C3827 C 0.70000 0.30639 0.40871
 C3828 C 0.69412 0.31417 0.39799
 C3829 C 0.68437 0.30833 0.38916
 C3830 C 0.68048 0.29465 0.39129
 C3831 C 0.70961 0.31251 0.41736
 C3832 C 0.71575 0.30509 0.42793
 C3833 C 0.71261 0.29110 0.43024
 C3834 C 0.70276 0.28466 0.42143
 C3835 C 0.69988 0.27057 0.42347
 C3836 C 0.70645 0.26298 0.43358
 C3837 C 0.71606 0.26906 0.44222
 C3838 C 0.71919 0.28324 0.44086
 C3839 C 0.72898 0.28882 0.45009
 C3840 C 0.73569 0.28051 0.45975
 C3841 C 0.73276 0.26648 0.46067
 C3842 C 0.72281 0.26087 0.45200
 H3843 H 0.68259 0.27646 0.40264
 H3844 H 0.69710 0.32480 0.39661
 H3845 H 0.67305 0.28976 0.38466
 H3846 H 0.71247 0.32318 0.41593
 H3847 H 0.72311 0.31064 0.43402
 H3848 H 0.69274 0.26493 0.41724
 H3849 H 0.70404 0.25215 0.43457
 H3850 H 0.73189 0.29948 0.44999
 H3851 H 0.74352 0.28497 0.46626
 H3852 H 0.72065 0.24995 0.45262
 C3853 C 0.69302 0.78727 0.89975
 C3854 C 0.70180 0.79332 0.90959
 C3855 C 0.70459 0.80758 0.90826
 C3856 C 0.69849 0.81539 0.89765
 C3857 C 0.68946 0.80923 0.88831
 C3858 C 0.68697 0.79510 0.88942
 C3859 C 0.71335 0.81398 0.91757
 C3860 C 0.71943 0.80659 0.92821
 C3861 C 0.71695 0.79240 0.93004
 C3862 C 0.70789 0.78568 0.92061
 C3863 C 0.70516 0.77155 0.92254
 C3864 C 0.71125 0.76413 0.93304
 C3865 C 0.72032 0.77038 0.94209
 C3866 C 0.72328 0.78462 0.94088
 C3867 C 0.73268 0.79030 0.95044
 C3868 C 0.73915 0.78205 0.96033
 C3869 C 0.73634 0.76799 0.96111
 C3870 C 0.72674 0.76230 0.95215
 H3871 H 0.69056 0.77650 0.89964
 H3872 H 0.70054 0.82631 0.89686
 H3873 H 0.68037 0.78992 0.88216
 H3874 H 0.71556 0.82485 0.91662
 H3875 H 0.72604 0.81237 0.93490
 H3876 H 0.69832 0.76579 0.91609
 H3877 H 0.70893 0.75327 0.93398
 H3878 H 0.73554 0.80099 0.95036
 H3879 H 0.74673 0.78656 0.96710
 H3880 H 0.72466 0.75135 0.95271
 C3881 C 0.18681 0.28657 0.90365
 C3882 C 0.19702 0.29234 0.91222
 C3883 C 0.20052 0.30631 0.91003
 C3884 C 0.19433 0.31391 0.89939
 C3885 C 0.18445 0.30791 0.89082
 C3886 C 0.18070 0.29422 0.89318
 C3887 C 0.21023 0.31263 0.91842
 C3888 C 0.21661 0.30543 0.92898
 C3889 C 0.21369 0.29143 0.93147
 C3890 C 0.20386 0.28473 0.92283
 C3891 C 0.20140 0.27057 0.92488
 C3892 C 0.20825 0.26318 0.93495
 C3893 C 0.21773 0.26954 0.94351
 C3894 C 0.22050 0.28378 0.94210
 C3895 C 0.23016 0.28966 0.95128
 C3896 C 0.23713 0.28156 0.96093
 C3897 C 0.23458 0.26746 0.96187
 C3898 C 0.22474 0.26156 0.95328
 H3899 H 0.18320 0.27618 0.90473
 H3900 H 0.19720 0.32456 0.89786
 H3901 H 0.17312 0.28923 0.88680
 H3902 H 0.21295 0.32332 0.91680
 H3903 H 0.22402 0.31112 0.93486
 H3904 H 0.19443 0.26471 0.91864
 H3905 H 0.20616 0.25227 0.93596
 H3906 H 0.23273 0.30042 0.95117
 H3907 H 0.24484 0.28625 0.96742
 H3908 H 0.22287 0.25059 0.95396
 C3909 C 0.18306 0.78361 0.40182
 C3910 C 0.19234 0.78917 0.41152
 C3911 C 0.19563 0.80331 0.41032
 C3912 C 0.19009 0.81132 0.39965
 C3913 C 0.18114 0.80555 0.39000
 C3914 C 0.17760 0.79168 0.39130
 C3915 C 0.20451 0.80941 0.41971
 C3916 C 0.21043 0.80177 0.43021
 C3917 C 0.20779 0.78758 0.43171
 C3918 C 0.19854 0.78118 0.42224
 C3919 C 0.19597 0.76697 0.42366
 C3920 C 0.20236 0.75919 0.43374
 C3921 C 0.21154 0.76519 0.44288
 C3922 C 0.21431 0.77949 0.44218
 C3923 C 0.22374 0.78496 0.45182
 C3924 C 0.23047 0.77646 0.46127
 C3925 C 0.22789 0.76234 0.46156
 C3926 C 0.21828 0.75681 0.45250
 H3927 H 0.17982 0.77304 0.40195
 H3928 H 0.19276 0.82210 0.39891
 H3929 H 0.17076 0.78688 0.38400
 H3930 H 0.20699 0.82024 0.41889
 H3931 H 0.21718 0.80735 0.43692
 H3932 H 0.18918 0.76139 0.41700
 H3933 H 0.20022 0.74826 0.43427
 H3934 H 0.22641 0.79568 0.45219
 H3935 H 0.23804 0.78085 0.46812
 H3936 H 0.21639 0.74582 0.45268
 C3937 C 0.68802 0.70969 0.59872
 C3938 C 0.69707 0.70298 0.58944
 C3939 C 0.69888 0.68857 0.59095
 C3940 C 0.69227 0.68142 0.60159
 C3941 C 0.68362 0.68831 0.61085
 C3942 C 0.68142 0.70245 0.60918
 C3943 C 0.70734 0.68133 0.58191
 C3944 C 0.71432 0.68806 0.57148
 C3945 C 0.71329 0.70245 0.56975
 C3946 C 0.70445 0.71003 0.57883
 C3947 C 0.70346 0.72443 0.57716
 C3948 C 0.71092 0.73125 0.56713
 C3949 C 0.71973 0.72407 0.55839
 C3950 C 0.72102 0.70956 0.55943
 C3951 C 0.73029 0.70288 0.55030
 C3952 C 0.73824 0.71039 0.54100
 C3953 C 0.73705 0.72469 0.54031
 C3954 C 0.72763 0.73144 0.54886
 H3955 H 0.68583 0.72055 0.59830
 H3956 H 0.69387 0.67043 0.60263
 H3957 H 0.67483 0.70806 0.61621
 H3958 H 0.70864 0.67030 0.58294
 H3959 H 0.72058 0.68162 0.56499
 H3960 H 0.69714 0.73087 0.58360
 H3961 H 0.70995 0.74234 0.56638
 H3962 H 0.73195 0.69193 0.55028
 H3963 H 0.74566 0.70505 0.53459
 H3964 H 0.72681 0.74257 0.54837
 C3965 C 0.71047 0.18339 0.09759
 C3966 C 0.70493 0.19405 0.08934
 C3967 C 0.69123 0.19844 0.09212
 C3968 C 0.68370 0.19265 0.10300
 C3969 C 0.68947 0.18227 0.11121
 C3970 C 0.70287 0.17766 0.10828
 C3971 C 0.68510 0.20860 0.08406
 C3972 C 0.69225 0.21463 0.07329
 C3973 C 0.70602 0.21090 0.07027
 C3974 C 0.71251 0.20051 0.07851
 C3975 C 0.72646 0.19716 0.07588
 C3976 C 0.73391 0.20379 0.06573
 C3977 C 0.72779 0.21394 0.05767
 C3978 C 0.71369 0.21749 0.05957
 C3979 C 0.70802 0.22774 0.05084
 C3980 C 0.71625 0.23466 0.04131
 C3981 C 0.73026 0.23145 0.04002
 C3982 C 0.73589 0.22090 0.04800
 H3983 H 0.72063 0.17913 0.09608
 H3984 H 0.67328 0.19622 0.10500
 H3985 H 0.70770 0.16969 0.11439
 H3986 H 0.67461 0.21198 0.08611
 H3987 H 0.68670 0.22242 0.06768
 H3988 H 0.73214 0.18965 0.08173
 H3989 H 0.74467 0.20106 0.06430
 H3990 H 0.69736 0.23087 0.05126
 H3991 H 0.71177 0.24288 0.03525
 H3992 H 0.74679 0.21847 0.04701
 C3993 C 0.21233 0.68410 0.09750
 C3994 C 0.20696 0.69427 0.08858
 C3995 C 0.19315 0.69869 0.09076
 C3996 C 0.18534 0.69336 0.10170
 C3997 C 0.19095 0.68340 0.11052
 C3998 C 0.20448 0.67882 0.10821
 C3999 C 0.18722 0.70840 0.08201
 C4000 C 0.19464 0.71387 0.07111
 C4001 C 0.20850 0.71002 0.06863
 C4002 C 0.21481 0.70018 0.07764
 C4003 C 0.22885 0.69678 0.07559
 C4004 C 0.23650 0.70273 0.06520
 C4005 C 0.23054 0.71227 0.05633
 C4006 C 0.21641 0.71594 0.05771
 C4007 C 0.21097 0.72563 0.04823
 C4008 C 0.21943 0.73190 0.03844
 C4009 C 0.23345 0.72857 0.03766
 C4010 C 0.23885 0.71853 0.04639
 H4011 H 0.22256 0.67985 0.09650
 H4012 H 0.17482 0.69688 0.10324
 H4013 H 0.20920 0.67121 0.11483
 H4014 H 0.17667 0.71182 0.08360
 H4015 H 0.18925 0.72133 0.06494
 H4016 H 0.23444 0.68975 0.08207
 H4017 H 0.24731 0.69997 0.06421
 H4018 H 0.20031 0.72882 0.04827
 H4019 H 0.21514 0.73978 0.03181
 H4020 H 0.24977 0.71605 0.04581
 C4021 C 0.21535 0.18007 0.59954
 C4022 C 0.20976 0.18946 0.58989
 C4023 C 0.19562 0.19305 0.59124
 C4024 C 0.18764 0.18766 0.60200
 C4025 C 0.19345 0.17858 0.61158
 C4026 C 0.20732 0.17477 0.61014
 C4027 C 0.18952 0.20209 0.58193
 C4028 C 0.19716 0.20790 0.57139
 C4029 C 0.21136 0.20497 0.56975
 C4030 C 0.21774 0.19550 0.57910
 C4031 C 0.23194 0.19257 0.57751
 C4032 C 0.23974 0.19887 0.56742
 C4033 C 0.23378 0.20828 0.55843
 C4034 C 0.21948 0.21138 0.55927
 C4035 C 0.21405 0.22103 0.54975
 C4036 C 0.22259 0.22766 0.54031
 C4037 C 0.23672 0.22477 0.53991
 C4038 C 0.24221 0.21493 0.54883
 H4039 H 0.22591 0.17663 0.59932
 H4040 H 0.17686 0.19054 0.60287
 H4041 H 0.21215 0.16786 0.61740
 H4042 H 0.17869 0.20480 0.58285
 H4043 H 0.19160 0.21483 0.56476
 H4044 H 0.23749 0.18555 0.58403
 H4045 H 0.25066 0.19646 0.56678
 H4046 H 0.20333 0.22397 0.54951
 H4047 H 0.21824 0.23541 0.53358
 H4048 H 0.25321 0.21281 0.54858
   
