data_POSCAR
  _audit_creation_date              2014-09-24
  _audit_creation_method            'ToBaCCo'
  _symmetry_space_group_name_H-M    'P1'
  _symmetry_Int_Tables_number       1
  _symmetry_cell_setting            triclinic
  loop_
  _symmetry_equiv_pos_as_xyz
 x,y,z
_cell_length_a 62.4174
_cell_length_b 63.1999
_cell_length_c 63.0444
_cell_angle_alpha 89.496400
_cell_angle_beta 89.548200
_cell_angle_gamma 89.733100
loop_
  _atom_site_label
  _atom_site_type_symbol
  _atom_site_fract_x
  _atom_site_fract_y
  _atom_site_fract_z
C1 C 0.36199 1.36601 0.33647
 N2 N 0.37227 1.34875 0.34455
 C3 C 0.36483 1.33878 0.36230
 N4 N 0.34681 1.34621 0.37198
 C5 C 0.33625 1.36343 0.36419
 N6 N 0.34401 1.37320 0.34644
 C7 C 0.37058 0.86420 0.84013
 N8 N 0.35269 0.87244 0.84950
 C9 C 0.34568 0.86480 0.86866
 N10 N 0.35677 0.84876 0.87816
 C11 C 0.37460 0.84048 0.86897
 N12 N 0.38130 0.84829 0.85003
 C13 C 0.86915 1.36284 0.84266
 N14 N 0.85146 1.37209 0.85148
 C15 C 0.84332 1.36485 0.87027
 N16 N 0.85294 1.34819 0.88010
 C17 C 0.87049 1.33877 0.87157
 N18 N 0.87847 1.34617 0.85287
 C19 C 0.87133 0.86603 0.34156
 N20 N 0.85300 0.87407 0.35023
 C21 C 0.84476 0.86579 0.36854
 N22 N 0.85497 0.84927 0.37808
 C23 C 0.87325 0.84109 0.36967
 N24 N 0.88126 0.84956 0.35146
 C25 C 0.64150 0.64210 0.32392
 N26 N 0.63072 0.65944 0.33113
 C27 C 0.63687 0.66927 0.34918
 N28 N 0.65402 0.66165 0.35998
 C29 C 0.66500 0.64444 0.35307
 N30 N 0.65865 0.63476 0.33504
 C31 C 0.63959 0.13790 0.83208
 N32 N 0.63264 0.15625 0.84099
 C33 C 0.64278 0.16450 0.85804
 N34 N 0.66015 0.15423 0.86612
 C35 C 0.66737 0.13588 0.85741
 N36 N 0.65692 0.12792 0.84047
 C37 C 1.13391 0.64076 0.83342
 N38 N 1.15163 0.63112 0.84139
 C39 C 1.16144 0.63876 0.85889
 N40 N 1.15331 0.65631 0.86842
 C41 C 1.13557 0.66614 0.86064
 N42 N 1.12602 0.65826 0.84313
 C43 C 1.14406 0.14512 0.33088
 N44 N 1.16070 0.13521 0.34065
 C45 C 1.16916 0.14279 0.35879
 N46 N 1.16072 0.16067 0.36724
 C47 C 1.14408 0.17094 0.35785
 N48 N 1.13578 0.16308 0.33961
 C49 C 0.62886 1.36046 0.65993
 N50 N 0.64764 1.36815 0.65195
 C51 C 0.65728 1.35902 0.63483
 N52 N 0.64789 1.34195 0.62581
 C53 C 0.62920 1.33408 0.63359
 N54 N 0.61986 1.34343 0.65058
 C55 C 0.63431 0.85944 1.16149
 N56 N 0.62495 0.84245 1.15240
 C57 C 0.63358 0.83336 1.13489
 N58 N 0.65186 0.84144 1.12642
 C59 C 0.66155 0.85842 1.13522
 N60 N 0.65270 0.86737 1.15283
 C61 C 1.14183 1.35860 1.16967
 N62 N 1.15922 1.36732 1.15984
 C63 C 1.16732 1.35911 1.14164
 N64 N 1.15778 1.34195 1.13327
 C65 C 1.14049 1.33283 1.14267
 N66 N 1.13252 1.34120 1.16098
 C67 C 1.14027 0.85593 0.66988
 N68 N 1.15850 0.86361 0.66072
 C69 C 1.16669 0.85470 0.64275
 N70 N 1.15634 0.83798 0.63411
 C71 C 1.13816 0.83016 0.64307
 N72 N 1.13029 0.83923 0.66093
 C73 C 0.36036 0.63934 0.65947
 N74 N 0.36876 0.65672 0.64965
 C75 C 0.36069 0.66389 0.63099
 N76 N 0.34411 0.65352 0.62220
 C77 C 0.33532 0.63623 0.63166
 N78 N 0.34352 0.62919 0.65043
 C79 C 0.36484 0.13611 1.16729
 N80 N 0.37361 0.15387 1.15867
 C81 C 0.36495 0.16327 1.14125
 N82 N 0.34719 0.15472 1.13238
 C83 C 0.33818 0.13690 1.14076
 N84 N 0.34717 0.12780 1.15817
 C85 C 0.85025 0.64499 1.17117
 N86 N 0.83343 0.63656 1.16059
 C87 C 0.82620 0.64564 1.14239
 N88 N 0.83595 0.66331 1.13483
 C89 C 0.85271 0.67202 1.14510
 N90 N 0.85982 0.66279 1.16333
 C91 C 0.86098 0.14062 0.66826
 N92 N 0.86911 0.15827 0.65863
 C93 C 0.86028 0.16613 0.64058
 N94 N 0.84321 0.15620 0.63221
 C95 C 0.83469 0.13868 0.64144
 N96 N 0.84367 0.13094 0.65956
 C97 C 1.36024 0.35674 0.66510
 N98 N 1.34301 0.36621 0.65571
 C99 C 1.33447 0.35800 0.63776
 N100 N 1.34322 0.34022 0.62938
 C101 C 1.36026 0.33048 0.63851
 N102 N 1.36864 0.33890 0.65634
 C103 C 1.36607 0.85841 1.16893
 N104 N 1.34694 0.86585 1.16207
 C105 C 1.33680 0.85678 1.14555
 N106 N 1.34603 0.83989 1.13573
 C107 C 1.36522 0.83204 1.14253
 N108 N 1.37505 0.84148 1.15915
 C109 C 0.85678 0.35446 1.17373
 N110 N 0.83877 0.36324 1.16533
 C111 C 0.82989 0.35528 1.14746
 N112 N 0.83922 0.33828 1.13796
 C113 C 0.85725 0.32934 1.14612
 N114 N 0.86584 0.33754 1.16396
 C115 C 0.86324 0.86212 0.67095
 N116 N 0.87251 0.84466 0.66236
 C117 C 0.86371 0.83506 0.64532
 N118 N 0.84537 0.84311 0.63691
 C119 C 0.83589 0.86056 0.64532
 N120 N 0.84493 0.86993 0.66235
 C121 C 0.62032 0.62876 0.65119
 N122 N 0.61053 0.64558 0.64180
 C123 C 0.61924 0.65510 0.62442
 N124 N 0.63806 0.64766 0.61645
 C125 C 0.64813 0.63086 0.62563
 N126 N 0.63918 0.62151 0.64306
 C127 C 0.63557 1.13422 1.16069
 N128 N 0.62816 1.15277 1.15223
 C129 C 0.63631 1.16040 1.13353
 N130 N 0.65203 1.14925 1.12347
 C131 C 0.65951 1.13077 1.13167
 N132 N 0.65119 1.12346 1.15019
 C133 C 0.13957 0.63902 1.16771
 N134 N 0.15592 0.62883 1.15776
 C135 C 0.16471 0.63651 1.13960
 N136 N 0.15696 0.65481 1.13122
 C137 C 0.14054 0.66542 1.14078
 N138 N 0.13191 0.65739 1.15910
 C139 C 0.13319 1.13790 0.66170
 N140 N 0.12579 1.15587 0.65221
 C141 C 0.13560 1.16385 0.63451
 N142 N 0.15304 1.15359 0.62647
 C143 C 0.16062 1.13564 0.63579
 N144 N 0.15060 1.12795 0.65338
 C145 C 1.35243 0.64849 0.32182
 N146 N 1.33419 0.64082 0.33064
 C147 C 1.32454 0.65034 0.34735
 N148 N 1.33349 0.66807 0.35557
 C149 C 1.35190 0.67610 0.34694
 N150 N 1.36119 0.66622 0.33007
 C151 C 1.36858 1.13767 0.83427
 N152 N 1.37594 1.15604 0.84243
 C153 C 1.36588 1.16556 0.85901
 N154 N 1.34809 1.15634 0.86754
 C155 C 1.34047 1.13789 0.85964
 N156 N 1.35079 1.12873 0.84300
 C157 C 0.86277 0.64091 0.83674
 N158 N 0.87251 0.65842 0.84434
 C159 C 0.86459 0.66845 0.86177
 N160 N 0.84661 0.66081 0.87152
 C161 C 0.83673 0.64329 0.86399
 N162 N 0.84496 0.63356 0.84667
 C163 C 0.86649 1.14249 0.33542
 N164 N 0.87569 1.15957 0.34453
 C165 C 0.86723 1.16841 0.36230
 N166 N 0.84922 1.15987 0.37100
 C167 C 0.83971 1.14281 0.36218
 N168 N 0.84842 1.13422 0.34436
 C169 C 0.63472 0.35945 0.33250
 N170 N 0.65274 0.36843 0.34023
 C171 C 0.66258 0.36022 0.35763
 N172 N 0.65420 0.34275 0.36731
 C173 C 0.63613 0.33355 0.35977
 N174 N 0.62659 0.34208 0.34236
 C175 C 0.64454 0.85914 0.83335
 N176 N 0.63692 0.84073 0.84173
 C177 C 0.64617 0.83183 0.85915
 N178 N 0.66321 0.84154 0.86812
 C179 C 0.67099 0.85992 0.85992
 N180 N 0.66157 0.86856 0.84254
 C181 C 0.13541 0.36501 0.83705
 N182 N 0.15317 0.37199 0.84712
 C183 C 0.16083 0.36172 0.86451
 N184 N 0.15055 0.34417 0.87182
 C185 C 0.13277 0.33686 0.86198
 N186 N 0.12536 0.34743 0.84463
 C187 C 0.13427 0.86301 0.33948
 N188 N 0.15121 0.87325 0.34794
 C189 C 0.16181 0.86522 0.36491
 N190 N 0.15526 0.84656 0.37361
 C191 C 0.13825 0.83605 0.36546
 N192 N 0.12790 0.84436 0.34837
 O193 O 0.98682 0.92110 0.89940
 O194 O 0.98822 0.89602 0.87532
 C195 C 0.98016 0.91315 0.88225
 C196 C 0.96248 0.92364 0.87057
 C197 C 0.95598 0.91600 0.85081
 H198 H 0.96457 0.90293 0.84362
 O199 O 1.02398 1.07346 0.89308
 O200 O 1.02391 1.09731 0.86733
 C201 C 1.03152 1.08053 0.87567
 C202 C 1.04969 1.06942 0.86543
 C203 C 1.05711 1.07568 0.84527
 H204 H 1.04913 1.08850 0.83693
 O205 O 0.89851 0.97543 0.92552
 O206 O 0.87380 0.97386 0.90079
 C207 C 0.88142 0.96743 0.91835
 C208 C 0.87070 0.95011 0.93031
 C209 C 0.85091 0.94213 0.92361
 H210 H 0.84311 0.94904 0.90989
 O211 O 1.11088 1.02235 0.92753
 O212 O 1.13661 1.02248 0.90338
 C213 C 1.12820 1.03001 0.92014
 C214 C 1.13827 1.04820 0.93088
 C215 C 1.15810 1.05620 0.92385
 H216 H 1.16643 1.04870 0.91076
 O217 O 0.92966 0.89220 0.98492
 O218 O 0.90570 0.86666 0.98541
 C219 C 0.92296 0.87457 0.97811
 C220 C 0.93501 0.86348 0.96113
 C221 C 0.92850 0.84344 0.95433
 H222 H 0.91489 0.83585 0.96193
 O223 O 1.07589 1.10765 0.97950
 O224 O 1.09973 1.13329 0.97896
 C225 C 1.08294 1.12483 0.97161
 C226 C 1.07199 1.13475 0.95327
 C227 C 1.07890 1.15438 0.94533
 H228 H 1.09153 1.16277 0.95337
 O229 O 0.92693 1.01642 0.89469
 O230 O 0.90241 1.01484 0.86977
 C231 C 0.91948 1.02280 0.87705
 C232 C 0.93050 1.04003 0.86523
 C233 C 0.92309 1.04675 0.84528
 H234 H 0.90949 1.03894 0.83827
 O235 O 1.08375 0.97925 0.89975
 O236 O 1.10936 0.97927 0.87544
 C237 C 1.09196 0.97177 0.88290
 C238 C 1.08139 0.95393 0.87212
 C239 C 1.08920 0.94668 0.85254
 H240 H 1.10254 0.95469 0.84493
 O241 O 1.02870 0.89365 0.92993
 O242 O 1.03007 0.86841 0.90602
 C243 C 1.03666 0.87642 0.92319
 C244 C 1.05407 0.86590 0.93522
 C245 C 1.06179 0.84589 0.92925
 H246 H 1.05467 0.83786 0.91595
 O247 O 0.98115 1.10229 0.92062
 O248 O 0.98111 1.12647 0.89517
 C249 C 0.97383 1.11935 0.91270
 C250 C 0.95657 1.13086 0.92393
 C251 C 0.95040 1.15118 0.91726
 H252 H 0.95874 1.15874 0.90412
 O253 O 0.89610 1.07444 0.97659
 O254 O 0.87073 1.09881 0.97529
 C255 C 0.87878 1.08154 0.96875
 C256 C 0.86808 1.06987 0.95158
 C257 C 0.84864 1.07729 0.94331
 H258 H 0.84104 1.09111 0.95015
 O259 O 1.11291 0.92548 0.98574
 O260 O 1.13851 0.90134 0.98686
 C261 C 1.13068 0.91822 0.97893
 C262 C 1.14194 0.92934 0.96126
 C263 C 1.16185 0.92202 0.95352
 H264 H 1.16945 0.90838 0.96082
 O265 O 0.98210 1.07292 0.89228
 O266 O 0.98189 1.09688 0.86665
 C267 C 0.97479 1.07978 0.87476
 C268 C 0.95748 1.06799 0.86409
 C269 C 0.94978 1.07453 0.84417
 H270 H 0.95715 1.08784 0.83605
 O271 O 1.02871 0.92202 0.89999
 O272 O 1.03016 0.89695 0.87591
 C273 C 1.03677 0.91447 0.88308
 C274 C 1.05436 0.92599 0.87205
 C275 C 1.06239 0.91903 0.85239
 H276 H 1.05538 0.90536 0.84491
 O277 O 1.11257 0.98088 0.92893
 O278 O 1.13825 0.98102 0.90471
 C279 C 1.13037 0.97387 0.92196
 C280 C 1.14168 0.95671 0.93356
 C281 C 1.16149 0.94917 0.92610
 H282 H 1.16904 0.95675 0.91251
 O283 O 0.89706 1.01677 0.92333
 O284 O 0.87238 1.01534 0.89855
 C285 C 0.87962 1.02347 0.91540
 C286 C 0.86819 1.04138 0.92558
 C287 C 0.84864 1.04906 0.91751
 H288 H 0.84134 1.04142 0.90408
 O289 O 0.92479 1.10395 0.97676
 O290 O 0.89950 1.12842 0.97557
 C291 C 0.91726 1.12100 0.96897
 C292 C 0.92908 1.13189 0.95167
 C293 C 0.92314 1.15230 0.94486
 H294 H 0.91004 1.16050 0.95268
 O295 O 1.08387 0.89629 0.98650
 O296 O 1.10932 0.87201 0.98781
 C297 C 1.09190 0.87898 0.98006
 C298 C 1.08112 0.86717 0.96301
 C299 C 1.08866 0.84716 0.95679
 H300 H 1.10196 0.83990 0.96510
 O301 O 1.08283 1.02040 0.89740
 O302 O 1.10849 1.02040 0.87315
 C303 C 1.09054 1.02718 0.87990
 C304 C 1.07867 1.04341 0.86756
 C305 C 1.08586 1.04983 0.84733
 H306 H 1.09975 1.04222 0.84030
 O307 O 0.92827 0.97524 0.89662
 O308 O 0.90375 0.97357 0.87170
 C309 C 0.92134 0.96720 0.87962
 C310 C 0.93368 0.95000 0.86928
 C311 C 0.92743 0.94212 0.84951
 H312 H 0.91364 0.94889 0.84157
 O313 O 1.02263 1.10346 0.92078
 O314 O 1.02268 1.12748 0.89519
 C315 C 1.02960 1.12071 0.91291
 C316 C 1.04615 1.13275 0.92440
 C317 C 1.05329 1.15249 0.91672
 H318 H 1.04643 1.15923 0.90243
 O319 O 0.98696 0.89256 0.92915
 O320 O 0.98825 0.86734 0.90521
 C321 C 0.98031 0.87500 0.92214
 C322 C 0.96287 0.86370 0.93360
 C323 C 0.95602 0.84365 0.92697
 H324 H 0.96405 0.83599 0.91380
 O325 O 1.10657 1.08005 0.98106
 O326 O 1.13050 1.10561 0.98037
 C327 C 1.12384 1.08790 0.97374
 C328 C 1.13600 1.07655 0.95702
 C329 C 1.15581 1.08428 0.94975
 H330 H 1.16264 1.09814 0.95704
 O331 O 0.89983 0.92075 0.98352
 O332 O 0.87571 0.89536 0.98390
 C333 C 0.88285 0.91267 0.97626
 C334 C 0.87155 0.92326 0.95851
 C335 C 0.85182 0.91553 0.95152
 H336 H 0.84446 0.90224 0.95970
 Cu337 Cu 1.00767 0.90985 0.91699
 Cu338 Cu 1.00932 0.87968 0.88819
 Cu339 Cu 1.00248 1.08556 0.90918
 Cu340 Cu 1.00238 1.11439 0.87844
 Cu341 Cu 0.91510 0.99611 0.91255
 Cu342 Cu 0.88559 0.99419 0.88274
 Cu343 Cu 1.09498 1.00079 0.91587
 Cu344 Cu 1.12580 1.00081 0.88680
 C345 C 0.95136 0.94078 0.87958
 H346 H 0.95610 0.94657 0.89495
 C347 C 0.93848 0.92512 0.84016
 C348 C 1.06045 1.05314 0.87634
 H349 H 1.05499 1.04846 0.89203
 C350 C 1.07515 1.06595 0.83604
 C351 C 0.88079 0.94068 0.94792
 H352 H 0.89618 0.94653 0.95303
 C353 C 0.84141 0.92482 0.93411
 C354 C 1.12746 1.05840 0.94761
 H355 H 1.11204 1.05253 0.95294
 C356 C 1.16697 1.07427 0.93317
 C357 C 0.95235 0.87337 0.95081
 H358 H 0.95729 0.88895 0.95581
 C359 C 0.93889 0.83337 0.93731
 C360 C 1.05549 1.12412 0.94280
 H361 H 1.05032 1.10880 0.94867
 C362 C 1.06975 1.16333 0.92706
 C363 C 0.94783 1.05061 0.87437
 H364 H 0.95344 1.04568 0.88987
 C365 C 0.93261 1.06397 0.83461
 C366 C 1.06387 0.94358 0.88167
 H367 H 1.05795 0.94892 0.89692
 C368 C 1.07983 0.92928 0.84255
 C369 C 1.06371 0.87630 0.95226
 H370 H 1.05801 0.89184 0.95678
 C371 C 1.07906 0.83638 0.93996
 C372 C 0.94596 1.12141 0.94124
 H373 H 0.95049 1.10558 0.94626
 C374 C 0.93377 1.16204 0.92767
 C375 C 0.87765 1.05181 0.94273
 H376 H 0.89284 1.04622 0.94887
 C377 C 0.83886 1.06713 0.92624
 C378 C 1.13212 0.94681 0.95125
 H379 H 1.11665 0.95236 0.95685
 C380 C 1.17164 0.93179 0.93581
 O381 O 1.02428 0.92855 1.11121
 O382 O 1.02440 0.90483 1.13707
 C383 C 1.03146 0.92187 1.12886
 C384 C 1.04863 0.93371 1.13961
 C385 C 1.05593 0.92722 1.15966
 H386 H 1.04860 0.91375 1.16754
 O387 O 0.97712 1.07790 1.10612
 O388 O 0.97567 1.10287 1.13031
 C389 C 0.96910 1.08539 1.12306
 C390 C 0.95152 1.07393 1.13399
 C391 C 0.94371 1.08063 1.15381
 H392 H 0.95101 1.09400 1.16154
 O393 O 0.89332 1.02014 1.07518
 O394 O 0.86748 1.02037 1.09924
 C395 C 0.87545 1.02718 1.08187
 C396 C 0.86426 1.04387 1.06952
 C397 C 0.84357 1.05071 1.07529
 H398 H 0.83535 1.04336 1.08862
 O399 O 1.10995 0.98490 1.08085
 O400 O 1.13469 0.98612 1.10557
 C401 C 1.12751 0.97825 1.08857
 C402 C 1.13927 0.96083 1.07782
 C403 C 1.15973 0.95434 1.08462
 H404 H 1.16745 0.96260 1.09744
 O405 O 1.08330 0.89728 1.02793
 O406 O 1.10876 0.87301 1.02932
 C407 C 1.09102 0.88044 1.03603
 C408 C 1.07940 0.86979 1.05375
 C409 C 1.08631 0.85007 1.06176
 H410 H 1.10004 0.84224 1.05466
 O411 O 0.92317 1.10457 1.01820
 O412 O 0.89766 1.12880 1.01694
 C413 C 0.91490 1.12168 1.02491
 C414 C 0.92505 1.13309 1.04258
 C415 C 0.91673 1.15257 1.04941
 H416 H 0.90342 1.15977 1.04106
 O417 O 0.92325 0.98084 1.10633
 O418 O 0.89769 0.98093 1.13069
 C419 C 0.91564 0.97411 1.12383
 C420 C 0.92768 0.95802 1.13615
 C421 C 0.92094 0.95216 1.15663
 H422 H 0.90691 0.95963 1.16356
 O423 O 1.07875 1.02611 1.10821
 O424 O 1.10323 1.02753 1.13316
 C425 C 1.08565 1.03399 1.12531
 C426 C 1.07322 1.05110 1.13582
 C427 C 1.07968 1.05927 1.15544
 H428 H 1.09350 1.05255 1.16337
 O429 O 0.98395 0.89752 1.08294
 O430 O 0.98404 0.87379 1.10880
 C431 C 0.97697 0.88041 1.09109
 C432 C 0.96010 0.86837 1.08012
 C433 C 0.95312 0.84880 1.08822
 H434 H 0.96044 0.84226 1.10237
 O435 O 1.01837 1.10747 1.07662
 O436 O 1.01687 1.13258 1.10067
 C437 C 1.02476 1.12509 1.08366
 C438 C 1.04185 1.13677 1.07222
 C439 C 1.04817 1.15678 1.07915
 H440 H 1.04017 1.16383 1.09269
 O441 O 0.89778 0.92093 1.02479
 O442 O 0.87368 0.89552 1.02524
 C443 C 0.88037 0.91317 1.03193
 C444 C 0.86819 0.92465 1.04856
 C445 C 0.84832 0.91716 1.05615
 H446 H 0.84144 0.90302 1.04945
 O447 O 1.10568 1.08112 1.02233
 O448 O 1.12966 1.10663 1.02161
 C449 C 1.12275 1.08930 1.02931
 C450 C 1.13448 1.07873 1.04679
 C451 C 1.15438 1.08642 1.05335
 H452 H 1.16156 1.09973 1.04506
 O453 O 1.01905 1.07903 1.10640
 O454 O 1.01758 1.10404 1.13054
 C455 C 1.02580 1.08703 1.12349
 C456 C 1.04379 1.07681 1.13495
 C457 C 1.05046 1.08468 1.15456
 H458 H 1.04206 1.09798 1.16153
 O459 O 0.98238 0.92764 1.11055
 O460 O 0.98252 0.90403 1.13652
 C461 C 0.97486 0.92072 1.12805
 C462 C 0.95667 0.93195 1.13829
 C463 C 0.94964 0.92625 1.15878
 H464 H 0.95809 0.91404 1.16757
 O465 O 1.10842 1.02621 1.07929
 O466 O 1.13315 1.02762 1.10402
 C467 C 1.12547 1.03419 1.08654
 C468 C 1.13600 1.05168 1.07469
 C469 C 1.15596 1.05956 1.08102
 H470 H 1.16409 1.05246 1.09445
 O471 O 0.89424 0.97885 1.07736
 O472 O 0.86853 0.97903 1.10155
 C473 C 0.87687 0.97137 1.08485
 C474 C 0.86660 0.95321 1.07440
 C475 C 0.84685 0.94551 1.08180
 H476 H 0.83859 0.95357 1.09459
 O477 O 1.07540 1.10935 1.02105
 O478 O 1.09926 1.13497 1.02053
 C479 C 1.08207 1.12698 1.02789
 C480 C 1.06997 1.13783 1.04503
 C481 C 1.07619 1.15788 1.05230
 H482 H 1.08950 1.16600 1.04477
 O483 O 0.92886 0.89362 1.02639
 O484 O 0.90489 0.86810 1.02694
 C485 C 0.92180 0.87641 1.03422
 C486 C 0.93308 0.86638 1.05234
 C487 C 0.92628 0.84683 1.06071
 H488 H 0.91323 0.83852 1.05329
 O489 O 1.07990 0.98496 1.10940
 O490 O 1.10440 0.98617 1.13436
 C491 C 1.08728 0.97839 1.12698
 C492 C 1.07603 0.96123 1.13864
 C493 C 1.08309 0.95451 1.15871
 H494 H 1.09634 0.96254 1.16610
 O495 O 0.92135 1.02186 1.10525
 O496 O 0.89564 1.02196 1.12945
 C497 C 0.91315 1.02925 1.12217
 C498 C 0.92396 1.04665 1.13333
 C499 C 0.91634 1.05357 1.15310
 H500 H 0.90286 1.04564 1.16056
 O501 O 0.97676 1.10634 1.07629
 O502 O 0.97523 1.13143 1.10036
 C503 C 0.96870 1.12349 1.08314
 C504 C 0.95127 1.13400 1.07113
 C505 C 0.94274 1.15352 1.07773
 H506 H 0.94921 1.16120 1.09156
 O507 O 1.02570 0.89875 1.08330
 O508 O 1.02579 0.87492 1.10906
 C509 C 1.03327 0.88194 1.09157
 C510 C 1.05120 0.87068 1.08093
 C511 C 1.05838 0.85105 1.08872
 H512 H 1.05022 0.84374 1.10211
 O513 O 1.11139 0.92734 1.02701
 O514 O 1.13704 0.90326 1.02822
 C515 C 1.12891 0.92057 1.03464
 C516 C 1.13978 0.93272 1.05137
 C517 C 1.16016 0.92656 1.05833
 H518 H 1.16798 0.91301 1.05118
 O519 O 0.89484 1.07484 1.01785
 O520 O 0.86926 1.09900 1.01651
 C521 C 0.87694 1.08200 1.02431
 C522 C 0.86516 1.07071 1.04137
 C523 C 0.84456 1.07733 1.04736
 H524 H 0.83689 1.09021 1.03882
 Cu525 Cu 1.00405 0.91552 1.09444
 Cu526 Cu 1.00420 0.88703 1.12547
 Cu527 Cu 0.99793 1.09012 1.08899
 Cu528 Cu 0.99621 1.12021 1.11794
 Cu529 Cu 0.91645 0.90939 1.00491
 Cu530 Cu 0.88763 0.87882 1.00538
 Cu531 Cu 1.09530 0.91397 1.00665
 Cu532 Cu 1.12596 0.88497 1.00821
 Cu533 Cu 0.91234 1.08706 0.99745
 Cu534 Cu 0.88173 1.11621 0.99594
 Cu535 Cu 1.08843 1.09204 1.00110
 Cu536 Cu 1.11714 1.12274 1.00031
 Cu537 Cu 0.91056 1.00044 1.08854
 Cu538 Cu 0.87970 1.00058 1.11763
 Cu539 Cu 1.09185 1.00542 1.09193
 Cu540 Cu 1.12136 1.00698 1.12176
 C541 C 1.05866 0.95085 1.12932
 H542 H 1.05331 0.95574 1.11372
 C543 C 1.07316 0.93750 1.16933
 C544 C 0.94166 1.05680 1.12400
 H545 H 0.94742 1.05170 1.10860
 C546 C 0.92611 1.07052 1.16348
 C547 C 0.87481 1.05384 1.05240
 H548 H 0.89088 1.04889 1.04803
 C549 C 0.83367 1.06749 1.06429
 C550 C 1.12956 0.95001 1.06104
 H551 H 1.11370 0.95468 1.05587
 C552 C 1.17036 0.93728 1.07480
 C553 C 1.06171 0.87983 1.06336
 H554 H 1.05642 0.89512 1.05746
 C555 C 1.07589 0.84061 1.07927
 C556 C 0.94242 1.12403 1.05342
 H557 H 0.94870 1.10886 1.04839
 C558 C 0.92543 1.16289 1.06699
 C559 C 0.94569 0.94798 1.12720
 H560 H 0.95084 0.95228 1.11129
 C561 C 0.93185 0.93637 1.16811
 C562 C 1.05514 1.05989 1.12582
 H563 H 1.05022 1.05392 1.11057
 C564 C 1.06833 1.07603 1.16495
 C565 C 0.95013 0.87692 1.06206
 H566 H 0.95526 0.89214 1.05591
 C567 C 0.93623 0.83791 1.07865
 C568 C 1.05265 1.12754 1.05500
 H569 H 1.04797 1.11196 1.04977
 C570 C 1.06525 1.16751 1.06932
 C571 C 0.87705 0.94280 1.05768
 H572 H 0.89246 0.94852 1.05215
 C573 C 0.83759 0.92748 1.07285
 C574 C 1.12551 1.06126 1.05743
 H575 H 1.11001 1.05546 1.05261
 C576 C 1.16526 1.07694 1.07041
 O577 O 1.07425 0.52034 0.60539
 O578 O 1.09934 0.52019 0.62982
 C579 C 1.08198 0.52763 0.62239
 C580 C 1.07100 0.54532 0.63331
 C581 C 1.07858 0.55264 0.65280
 H582 H 1.09191 0.54463 0.66035
 O583 O 0.92056 0.48010 0.60933
 O584 O 0.89634 0.48026 0.63499
 C585 C 0.91355 0.47298 0.62694
 C586 C 0.92532 0.45578 0.63792
 C587 C 0.91933 0.44935 0.65848
 H588 H 0.90619 0.45730 0.66647
 O589 O 1.01836 0.60648 0.57603
 O590 O 1.01866 0.63118 0.60051
 C591 C 1.02584 0.62360 0.58325
 C592 C 1.04360 0.63429 0.57177
 C593 C 1.05163 0.65375 0.57876
 H594 H 1.04432 0.66145 0.59232
 O595 O 0.97670 0.39597 0.57844
 O596 O 0.97683 0.37084 0.60294
 C597 C 0.96950 0.37863 0.58581
 C598 C 0.95220 0.36760 0.57457
 C599 C 0.94625 0.34709 0.58075
 H600 H 0.95462 0.33925 0.59362
 O601 O 1.10468 0.57558 0.51998
 O602 O 1.12995 0.59985 0.51951
 C603 C 1.12225 0.58272 0.52694
 C604 C 1.13337 0.57118 0.54427
 C605 C 1.15349 0.57780 0.55160
 H606 H 1.16143 0.59117 0.54414
 O607 O 0.88915 0.42564 0.52497
 O608 O 0.86431 0.40094 0.52563
 C609 C 0.87191 0.41810 0.53268
 C610 C 0.86097 0.42921 0.55035
 C611 C 0.84068 0.42276 0.55766
 H612 H 0.83250 0.41000 0.54977
 O613 O 0.97721 0.57714 0.60589
 O614 O 0.97754 0.60165 0.63058
 C615 C 0.97029 0.58440 0.62336
 C616 C 0.95342 0.57287 0.63526
 C617 C 0.94768 0.57910 0.65582
 H618 H 0.95587 0.59225 0.66307
 O619 O 1.01850 0.42402 0.60736
 O620 O 1.01862 0.39901 0.63199
 C621 C 1.02583 0.41632 0.62452
 C622 C 1.04325 0.42737 0.63554
 C623 C 1.05064 0.42003 0.65524
 H624 H 1.04285 0.40669 0.66290
 O625 O 1.10303 0.47842 0.57655
 O626 O 1.12813 0.47830 0.60097
 C627 C 1.12047 0.47109 0.58388
 C628 C 1.13176 0.45371 0.57273
 C629 C 1.15143 0.44612 0.58031
 H630 H 1.15874 0.45360 0.59384
 O631 O 0.89022 0.52122 0.58093
 O632 O 0.86575 0.52130 0.60636
 C633 C 0.87279 0.52828 0.58870
 C634 C 0.86081 0.54492 0.57711
 C635 C 0.83989 0.55052 0.58321
 H636 H 0.83235 0.54250 0.59654
 O637 O 0.91763 0.60493 0.52402
 O638 O 0.89260 0.62967 0.52432
 C639 C 0.91016 0.62218 0.53124
 C640 C 0.92187 0.63345 0.54805
 C641 C 0.91453 0.65313 0.55537
 H642 H 0.90063 0.66044 0.54813
 O643 O 1.07468 0.39475 0.52094
 O644 O 1.09953 0.36983 0.52072
 C645 C 1.08219 0.37746 0.52822
 C646 C 1.07089 0.36654 0.54597
 C647 C 1.07808 0.34677 0.55358
 H648 H 1.09173 0.33915 0.54612
 O649 O 0.92061 0.52137 0.60869
 O650 O 0.89639 0.52161 0.63435
 C651 C 0.91363 0.52867 0.62613
 C652 C 0.92560 0.54577 0.63669
 C653 C 0.92002 0.55232 0.65726
 H654 H 0.90718 0.54442 0.66581
 O655 O 1.07454 0.47902 0.60670
 O656 O 1.09960 0.47893 0.63117
 C657 C 1.08213 0.47186 0.62400
 C658 C 1.07078 0.45466 0.63542
 C659 C 1.07800 0.44715 0.65518
 H660 H 1.09172 0.45441 0.66255
 O661 O 1.01854 0.39552 0.57809
 O662 O 1.01862 0.37045 0.60264
 C663 C 1.02589 0.37815 0.58535
 C664 C 1.04339 0.36702 0.57387
 C665 C 1.05082 0.34730 0.58119
 H666 H 1.04307 0.33981 0.59471
 O667 O 0.97641 0.60650 0.57708
 O668 O 0.97661 0.63119 0.60158
 C669 C 0.96896 0.62361 0.58466
 C670 C 0.95077 0.63434 0.57400
 C671 C 0.94317 0.65404 0.58111
 H672 H 0.95103 0.66178 0.59417
 O673 O 0.88831 0.57606 0.52440
 O674 O 0.86309 0.60062 0.52456
 C675 C 0.87082 0.58339 0.53176
 C676 C 0.85977 0.57188 0.54916
 C677 C 0.83884 0.57734 0.55544
 H678 H 0.83031 0.58971 0.54697
 O679 O 1.10428 0.42325 0.52038
 O680 O 1.12934 0.39856 0.52024
 C681 C 1.12170 0.41570 0.52758
 C682 C 1.13264 0.42671 0.54514
 C683 C 1.15243 0.41937 0.55298
 H684 H 1.16024 0.40587 0.54573
 O685 O 0.97683 0.42403 0.60818
 O686 O 0.97695 0.39904 0.63283
 C687 C 0.96971 0.41646 0.62559
 C688 C 0.95263 0.42796 0.63727
 C689 C 0.94637 0.42167 0.65786
 H690 H 0.95453 0.40860 0.66561
 O691 O 1.01885 0.57753 0.60533
 O692 O 1.01919 0.60212 0.62994
 C693 C 1.02636 0.58486 0.62243
 C694 C 1.04389 0.57337 0.63336
 C695 C 1.05171 0.58045 0.65290
 H696 H 1.04462 0.59426 0.66028
 O697 O 0.89066 0.48015 0.58116
 O698 O 0.86622 0.48015 0.60663
 C699 C 0.87337 0.47302 0.58914
 C700 C 0.86174 0.45606 0.57802
 C701 C 0.84143 0.44946 0.58507
 H702 H 0.83407 0.45699 0.59868
 O703 O 1.10364 0.51968 0.57623
 O704 O 1.12878 0.51948 0.60062
 C705 C 1.12118 0.52669 0.58337
 C706 C 1.13261 0.54375 0.57185
 C707 C 1.15259 0.55061 0.57896
 H708 H 1.16007 0.54271 0.59232
 O709 O 0.91868 0.39668 0.52424
 O710 O 0.89403 0.37178 0.52486
 C711 C 0.91156 0.37926 0.53155
 C712 C 0.92372 0.36785 0.54821
 C713 C 0.91792 0.34728 0.55467
 H714 H 0.90474 0.33938 0.54701
 O715 O 1.07516 0.60458 0.52037
 O716 O 1.10032 0.62898 0.51979
 C717 C 1.08285 0.62174 0.52729
 C718 C 1.07162 0.63316 0.54451
 C719 C 1.07939 0.65259 0.55169
 H720 H 1.09318 0.65970 0.54394
 Cu721 Cu 1.08630 0.49934 0.58880
 Cu722 Cu 1.11650 0.49922 0.61809
 Cu723 Cu 0.90797 0.50073 0.59249
 Cu724 Cu 0.87876 0.50086 0.62320
 Cu725 Cu 0.99770 0.58952 0.58855
 Cu726 Cu 0.99799 0.61906 0.61808
 Cu727 Cu 0.99761 0.41240 0.59056
 Cu728 Cu 0.99774 0.38227 0.62003
 C729 C 1.05354 0.55568 0.62380
 H730 H 1.04781 0.55028 0.60861
 C731 C 1.06910 0.57020 0.66269
 C732 C 0.94212 0.44514 0.62755
 H733 H 0.94666 0.44991 0.61160
 C734 C 0.92982 0.43241 0.66865
 C735 C 1.05360 0.62424 0.55451
 H736 H 1.04773 0.60908 0.54924
 C737 C 1.06959 0.66297 0.56884
 C738 C 0.94102 0.37777 0.55814
 H739 H 0.94544 0.39371 0.55346
 C740 C 0.92925 0.33675 0.57084
 C741 C 1.12320 0.55399 0.55440
 H742 H 1.10758 0.54895 0.54909
 C743 C 1.16311 0.56762 0.56905
 C744 C 0.87126 0.44598 0.56054
 H745 H 0.88702 0.45086 0.55517
 C746 C 0.83073 0.43288 0.57494
 C747 C 0.94246 0.55604 0.62590
 H748 H 0.94670 0.55129 0.60993
 C749 C 0.93112 0.56888 0.66699
 C750 C 1.05326 0.44481 0.62588
 H751 H 1.04782 0.45032 0.61052
 C752 C 1.06803 0.42978 0.66516
 C753 C 1.12257 0.44402 0.55505
 H754 H 1.10722 0.44962 0.54935
 C755 C 1.16183 0.42895 0.57066
 C756 C 0.87051 0.55554 0.55997
 H757 H 0.88674 0.55141 0.55534
 C758 C 0.82870 0.56661 0.57237
 C759 C 0.94011 0.62428 0.55734
 H760 H 0.94569 0.60897 0.55196
 C761 C 0.92503 0.66353 0.57190
 C762 C 1.05341 0.37644 0.55615
 H763 H 1.04795 0.39179 0.55061
 C764 C 1.06818 0.33709 0.57124
 O765 O 1.07328 0.47985 0.39330
 O766 O 1.09772 0.47993 0.36787
 C767 C 1.08050 0.47264 0.37588
 C768 C 1.06895 0.45521 0.36529
 C769 C 1.07575 0.44752 0.34545
 H770 H 1.08915 0.45491 0.33731
 O771 O 0.91777 0.52222 0.39708
 O772 O 0.89283 0.52260 0.37251
 C773 C 0.91020 0.52975 0.37994
 C774 C 0.92155 0.54730 0.36891
 C775 C 0.91467 0.55481 0.34901
 H776 H 0.90138 0.54722 0.34123
 O777 O 0.97496 0.60611 0.42680
 O778 O 0.97455 0.63132 0.40239
 C779 C 0.96756 0.62353 0.41974
 C780 C 0.95032 0.63452 0.43163
 C781 C 0.94395 0.65514 0.42594
 H782 H 0.95201 0.66331 0.41300
 O783 O 1.01701 0.39576 0.42506
 O784 O 1.01636 0.37094 0.40072
 C785 C 1.02407 0.37842 0.41766
 C786 C 1.04177 0.36710 0.42854
 C787 C 1.04883 0.34732 0.42125
 H788 H 1.04096 0.34015 0.40787
 O789 O 1.10366 0.42376 0.47889
 O790 O 1.12875 0.39910 0.47854
 C791 C 1.12102 0.41634 0.47131
 C792 C 1.13189 0.42763 0.45353
 C793 C 1.15183 0.42060 0.44572
 H794 H 1.15963 0.40708 0.45306
 O795 O 0.88804 0.57648 0.48301
 O796 O 0.86301 0.60122 0.48309
 C797 C 0.87061 0.58404 0.47584
 C798 C 0.85945 0.57291 0.45857
 C799 C 0.83916 0.57967 0.45163
 H800 H 0.83117 0.59274 0.45945
 O801 O 1.01612 0.57723 0.39655
 O802 O 1.01568 0.60229 0.37199
 C803 C 1.02306 0.58487 0.37914
 C804 C 1.04021 0.57366 0.36731
 C805 C 1.04680 0.58100 0.34726
 H806 H 1.03900 0.59471 0.34028
 O807 O 0.97490 0.42500 0.39642
 O808 O 0.97431 0.40025 0.37200
 C809 C 0.96729 0.41760 0.37940
 C810 C 0.94976 0.42907 0.36844
 C811 C 0.94237 0.42232 0.34862
 H812 H 0.95011 0.40907 0.34085
 O813 O 1.10301 0.52086 0.42163
 O814 O 1.12763 0.52116 0.39637
 C815 C 1.12032 0.52819 0.41382
 C816 C 1.13166 0.54534 0.42505
 C817 C 1.15142 0.55316 0.41750
 H818 H 1.15888 0.54627 0.40359
 O819 O 0.88870 0.48053 0.42624
 O820 O 0.86360 0.48071 0.40182
 C821 C 0.87123 0.47339 0.41903
 C822 C 0.86000 0.45616 0.43068
 C823 C 0.83999 0.44876 0.42390
 H824 H 0.83228 0.45618 0.41040
 O825 O 1.07496 0.60500 0.47912
 O826 O 1.10000 0.62950 0.47851
 C827 C 1.08239 0.62226 0.47173
 C828 C 1.07052 0.63372 0.45487
 C829 C 1.07707 0.65387 0.44788
 H830 H 1.09056 0.66144 0.45535
 O831 O 0.91840 0.39731 0.48301
 O832 O 0.89369 0.37246 0.48359
 C833 C 0.91100 0.38005 0.47603
 C834 C 0.92241 0.36891 0.45869
 C835 C 0.91541 0.34899 0.45203
 H836 H 0.90211 0.34141 0.46016
 O837 O 0.91828 0.48088 0.39716
 O838 O 0.89334 0.48119 0.37259
 C839 C 0.91079 0.47388 0.37994
 C840 C 0.92224 0.45670 0.36867
 C841 C 0.91512 0.44978 0.34885
 H842 H 0.90143 0.45740 0.34153
 O843 O 1.07263 0.52120 0.39388
 O844 O 1.09703 0.52150 0.36840
 C845 C 1.07975 0.52868 0.37646
 C846 C 1.06801 0.54628 0.36590
 C847 C 1.07445 0.55395 0.34584
 H848 H 1.08767 0.54644 0.33755
 O849 O 0.97511 0.39642 0.42618
 O850 O 0.97451 0.37156 0.40187
 C851 C 0.96753 0.37925 0.41917
 C852 C 0.95008 0.36841 0.43101
 C853 C 0.94284 0.34845 0.42461
 H854 H 0.95036 0.34071 0.41120
 O855 O 1.01685 0.60619 0.42537
 O856 O 1.01635 0.63134 0.40091
 C857 C 1.02404 0.62351 0.41785
 C858 C 1.04185 0.63437 0.42867
 C859 C 1.04861 0.65452 0.42191
 H860 H 1.04047 0.66235 0.40890
 O861 O 0.88860 0.42587 0.48345
 O862 O 0.86375 0.40118 0.48404
 C863 C 0.87119 0.41837 0.47649
 C864 C 0.85991 0.42944 0.45899
 C865 C 0.83991 0.42231 0.45202
 H866 H 0.83242 0.40891 0.45988
 O867 O 1.10368 0.57530 0.47856
 O868 O 1.12885 0.59968 0.47806
 C869 C 1.12104 0.58263 0.47096
 C870 C 1.13200 0.57163 0.45329
 C871 C 1.15180 0.57897 0.44572
 H872 H 1.15934 0.59230 0.45331
 O873 O 1.01671 0.42473 0.39571
 O874 O 1.01609 0.39999 0.37128
 C875 C 1.02366 0.41715 0.37836
 C876 C 1.04104 0.42816 0.36658
 C877 C 1.04799 0.42079 0.34674
 H878 H 1.04027 0.40720 0.33983
 O879 O 0.97432 0.57784 0.39724
 O880 O 0.97394 0.60293 0.37271
 C881 C 0.96678 0.58560 0.38018
 C882 C 0.94926 0.57455 0.36911
 C883 C 0.94219 0.58177 0.34922
 H884 H 0.94983 0.59534 0.34182
 O885 O 0.88884 0.52169 0.42671
 O886 O 0.86371 0.52195 0.40231
 C887 C 0.87129 0.52890 0.41955
 C888 C 0.85983 0.54583 0.43114
 C889 C 0.83954 0.55270 0.42452
 H890 H 0.83207 0.54526 0.41106
 O891 O 1.10236 0.47961 0.42236
 O892 O 1.12703 0.47971 0.39713
 C893 C 1.11970 0.47238 0.41459
 C894 C 1.13113 0.45497 0.42575
 C895 C 1.15103 0.44768 0.41821
 H896 H 1.15847 0.45542 0.40466
 O897 O 1.07457 0.39466 0.47954
 O898 O 1.09943 0.36977 0.47913
 C899 C 1.08194 0.37742 0.47218
 C900 C 1.07021 0.36657 0.45504
 C901 C 1.07709 0.34677 0.44743
 H902 H 1.09070 0.33893 0.45465
 O903 O 0.91782 0.60484 0.48284
 O904 O 0.89298 0.62978 0.48305
 C905 C 0.91047 0.62227 0.47582
 C906 C 0.92228 0.63376 0.45891
 C907 C 0.91613 0.65432 0.45298
 H908 H 0.90306 0.66205 0.46131
 Cu909 Cu 1.08537 0.50038 0.41027
 Cu910 Cu 1.11481 0.50058 0.37989
 Cu911 Cu 0.90592 0.50128 0.41422
 Cu912 Cu 0.87587 0.50164 0.38482
 Cu913 Cu 1.08713 0.58764 0.49959
 Cu914 Cu 1.11735 0.61692 0.49890
 Cu915 Cu 1.08685 0.41157 0.49995
 Cu916 Cu 1.11678 0.38185 0.49961
 Cu917 Cu 0.90539 0.58804 0.50357
 Cu918 Cu 0.87539 0.61781 0.50376
 Cu919 Cu 0.90612 0.41390 0.50391
 Cu920 Cu 0.87642 0.38414 0.50460
 Cu921 Cu 0.99559 0.58936 0.41397
 Cu922 Cu 0.99508 0.61949 0.38454
 Cu923 Cu 0.99598 0.41295 0.41329
 Cu924 Cu 0.99526 0.38318 0.38404
 C925 C 1.05146 0.44550 0.37560
 H926 H 1.04631 0.45110 0.39102
 C927 C 1.06527 0.43036 0.33600
 C928 C 0.93897 0.55718 0.37871
 H929 H 0.94420 0.55169 0.39416
 C930 C 0.92499 0.57198 0.33898
 C931 C 0.93952 0.62405 0.44827
 H932 H 0.94417 0.60806 0.45260
 C933 C 0.92688 0.66514 0.43657
 C934 C 1.05241 0.37648 0.44557
 H935 H 1.04719 0.39186 0.45110
 C936 C 1.06641 0.33699 0.43058
 C937 C 1.12179 0.44495 0.44353
 H938 H 1.10629 0.45029 0.44925
 C939 C 1.16148 0.43051 0.42804
 C940 C 0.86954 0.55586 0.44833
 H941 H 0.88531 0.55076 0.45336
 C942 C 0.82905 0.56954 0.43468
 C943 C 1.05074 0.55615 0.37639
 H944 H 1.04586 0.55058 0.39199
 C945 C 1.06383 0.57126 0.33637
 C946 C 0.93971 0.44640 0.37822
 H947 H 0.94510 0.45150 0.39364
 C948 C 0.92510 0.43263 0.33868
 C949 C 1.12218 0.55463 0.44305
 H950 H 1.10678 0.54904 0.44875
 C951 C 1.16163 0.56991 0.42789
 C952 C 0.86969 0.44650 0.44835
 H953 H 0.88524 0.45189 0.45349
 C954 C 0.82979 0.43187 0.43453
 C955 C 1.05279 0.62421 0.44528
 H956 H 1.04780 0.60857 0.45041
 C957 C 1.06615 0.66445 0.43146
 C958 C 0.93988 0.37843 0.44820
 H959 H 0.94518 0.39393 0.45306
 C960 C 0.92550 0.33865 0.43502
 O961 O 0.47790 0.92733 0.39269
 O962 O 0.47698 0.90378 0.36712
 C963 C 0.47025 0.92091 0.37533
 C964 C 0.45306 0.93328 0.36487
 C965 C 0.44545 0.92736 0.34490
 H966 H 0.45247 0.91386 0.33693
 O967 O 0.52362 1.08054 0.39724
 O968 O 0.52415 1.10606 0.37314
 C969 C 0.53074 1.08822 0.37987
 C970 C 0.54702 1.07644 0.36749
 C971 C 0.55283 1.08331 0.34704
 H972 H 0.54515 1.09718 0.34027
 O973 O 0.39325 0.98452 0.42433
 O974 O 0.36835 0.98640 0.39976
 C975 C 0.37569 0.97809 0.41666
 C976 C 0.36425 0.96031 0.42723
 C977 C 0.34458 0.95288 0.41949
 H978 H 0.33716 0.96061 0.40600
 O979 O 0.60755 1.02022 0.42068
 O980 O 0.63209 1.02054 0.39532
 C981 C 0.62514 1.02709 0.41309
 C982 C 0.63743 1.04305 0.42494
 C983 C 0.65768 1.04968 0.41773
 H984 H 0.66449 1.04288 0.40346
 O985 O 0.42107 0.89659 0.47670
 O986 O 0.39576 0.87237 0.47657
 C987 C 0.41323 0.87973 0.46920
 C988 C 0.42428 0.86885 0.45144
 C989 C 0.41665 0.84945 0.44398
 H990 H 0.40281 0.84224 0.45153
 O991 O 0.58337 1.10156 0.48136
 O992 O 0.60907 1.12538 0.48191
 C993 C 0.59132 1.11889 0.47474
 C994 C 0.58002 1.13141 0.45825
 C995 C 0.58770 1.15134 0.45187
 H996 H 0.60154 1.15794 0.45963
 O997 O 0.42428 1.02617 0.39718
 O998 O 0.39957 1.02824 0.37243
 C999 C 0.41714 1.03450 0.38024
 C1000 C 0.42918 1.05196 0.36981
 C1001 C 0.42303 1.05965 0.34977
 H1002 H 0.40966 1.05253 0.34168
 O1003 O 0.57650 0.98090 0.39133
 O1004 O 0.60105 0.98117 0.36599
 C1005 C 0.58367 0.97402 0.37377
 C1006 C 0.57208 0.95707 0.36259
 C1007 C 0.57954 0.94988 0.34287
 H1008 H 0.59315 0.95753 0.33535
 O1009 O 0.51922 0.89609 0.41985
 O1010 O 0.51857 0.87233 0.39445
 C1011 C 0.52625 0.87908 0.41174
 C1012 C 0.54398 0.86751 0.42225
 C1013 C 0.55165 0.84825 0.41410
 H1014 H 0.54418 0.84148 0.40030
 O1015 O 0.48347 1.11062 0.42768
 O1016 O 0.48415 1.13614 0.40361
 C1017 C 0.47666 1.12834 0.42071
 C1018 C 0.45928 1.13947 0.43223
 C1019 C 0.45152 1.15921 0.42511
 H1020 H 0.45884 1.16681 0.41141
 O1021 O 0.39764 1.08054 0.48230
 O1022 O 0.37320 1.10583 0.48349
 C1023 C 0.38031 1.08869 0.47564
 C1024 C 0.36852 1.07826 0.45837
 C1025 C 0.34858 1.08612 0.45177
 H1026 H 0.34141 1.09946 0.45988
 O1027 O 0.60647 0.92255 0.47473
 O1028 O 0.63090 0.89725 0.47384
 C1029 C 0.62369 0.91489 0.46709
 C1030 C 0.63498 0.92643 0.44977
 C1031 C 0.65523 0.91976 0.44243
 H1032 H 0.66304 0.90628 0.44982
 O1033 O 0.48201 1.08134 0.39930
 O1034 O 0.48256 1.10672 0.37506
 C1035 C 0.47482 1.08948 0.38230
 C1036 C 0.45718 1.07892 0.37097
 C1037 C 0.45072 1.08638 0.35098
 H1038 H 0.45910 1.09952 0.34358
 O1039 O 0.51958 0.92556 0.39107
 O1040 O 0.51879 0.90196 0.36555
 C1041 C 0.52656 0.91866 0.37342
 C1042 C 0.54426 0.92994 0.36232
 C1043 C 0.55200 0.92297 0.34253
 H1044 H 0.54465 0.90953 0.33497
 O1045 O 0.60623 0.97919 0.41963
 O1046 O 0.63093 0.97945 0.39441
 C1047 C 0.62346 0.97188 0.41168
 C1048 C 0.63467 0.95420 0.42252
 C1049 C 0.65482 0.94728 0.41535
 H1050 H 0.66256 0.95540 0.40218
 O1051 O 0.39465 1.02578 0.42606
 O1052 O 0.36972 1.02780 0.40152
 C1053 C 0.37751 1.03400 0.41895
 C1054 C 0.36699 1.05137 0.43079
 C1055 C 0.34703 1.05945 0.42441
 H1056 H 0.33893 1.05256 0.41102
 O1057 O 0.42703 1.10934 0.48304
 O1058 O 0.40268 1.13471 0.48430
 C1059 C 0.41989 1.12711 0.47660
 C1060 C 0.43138 1.13872 0.45956
 C1061 C 0.42386 1.15843 0.45231
 H1062 H 0.41017 1.16572 0.46003
 O1063 O 0.57664 0.89409 0.47424
 O1064 O 0.60099 0.86871 0.47340
 C1065 C 0.58373 0.87688 0.46652
 C1066 C 0.57212 0.86656 0.44902
 C1067 C 0.57950 0.84730 0.44069
 H1068 H 0.59318 0.83945 0.44780
 O1069 O 0.57760 1.02227 0.39242
 O1070 O 0.60196 1.02259 0.36689
 C1071 C 0.58489 1.02998 0.37516
 C1072 C 0.57356 1.04802 0.36503
 C1073 C 0.57926 1.05519 0.34456
 H1074 H 0.59164 1.04700 0.33569
 O1075 O 0.42293 0.98492 0.39540
 O1076 O 0.39818 0.98694 0.37069
 C1077 C 0.41533 0.97877 0.37789
 C1078 C 0.42622 0.96157 0.36610
 C1079 C 0.41883 0.95539 0.34612
 H1080 H 0.40562 0.96385 0.33884
 O1081 O 0.52531 1.10769 0.42779
 O1082 O 0.52606 1.13329 0.40381
 C1083 C 0.53332 1.12477 0.42067
 C1084 C 0.55160 1.13442 0.43187
 C1085 C 0.55952 1.15435 0.42573
 H1086 H 0.55193 1.16302 0.41291
 O1087 O 0.47734 0.89651 0.42003
 O1088 O 0.47652 0.87274 0.39467
 C1089 C 0.46950 0.87978 0.41223
 C1090 C 0.45171 0.86881 0.42350
 C1091 C 0.44377 0.84939 0.41621
 H1092 H 0.45124 0.84187 0.40265
 O1093 O 0.61163 1.07151 0.47973
 O1094 O 0.63744 1.09520 0.48027
 C1095 C 0.62916 1.07874 0.47239
 C1096 C 0.63952 1.06822 0.45406
 C1097 C 0.65974 1.07470 0.44659
 H1098 H 0.66835 1.08690 0.45490
 O1099 O 0.39284 0.92667 0.47800
 O1100 O 0.36741 0.90256 0.47772
 C1101 C 0.37529 0.91984 0.47078
 C1102 C 0.36427 0.93179 0.45373
 C1103 C 0.34475 0.92461 0.44578
 H1104 H 0.33722 0.91082 0.45287
 Cu1105 Cu 0.49859 0.91369 0.40847
 Cu1106 Cu 0.49760 0.88530 0.37791
 Cu1107 Cu 0.50357 1.09258 0.41549
 Cu1108 Cu 0.50431 1.12313 0.38652
 Cu1109 Cu 0.41122 1.00512 0.41322
 Cu1110 Cu 0.38147 1.00757 0.38363
 Cu1111 Cu 0.58946 1.00068 0.40850
 Cu1112 Cu 0.61892 1.00099 0.37805
 C1113 C 0.44348 0.95053 0.37525
 H1114 H 0.44907 0.95501 0.39080
 C1115 C 0.42836 0.93831 0.33542
 C1116 C 0.55729 1.05866 0.37625
 H1117 H 0.55298 1.05344 0.39213
 C1118 C 0.56879 1.07275 0.33538
 C1119 C 0.37381 0.94974 0.44448
 H1120 H 0.38909 0.95513 0.45035
 C1121 C 0.33485 0.93491 0.42863
 C1122 C 0.62861 1.05226 0.44323
 H1123 H 0.61289 1.04738 0.44872
 C1124 C 0.66898 1.06546 0.42846
 C1125 C 0.44194 0.87828 0.44124
 H1126 H 0.44773 0.89337 0.44678
 C1127 C 0.42629 0.83952 0.42644
 C1128 C 0.56186 1.12318 0.44828
 H1129 H 0.55602 1.10770 0.45294
 C1130 C 0.57757 1.16293 0.43566
 C1131 C 0.44641 1.06160 0.38021
 H1132 H 0.45113 1.05591 0.39574
 C1133 C 0.43373 1.07683 0.34026
 C1134 C 0.55432 0.94713 0.37211
 H1135 H 0.54871 0.95239 0.38749
 C1136 C 0.56973 0.93280 0.33277
 C1137 C 0.55422 0.87642 0.43982
 H1138 H 0.54864 0.89143 0.44597
 C1139 C 0.56947 0.83807 0.42318
 C1140 C 0.44923 1.12952 0.44960
 H1141 H 0.45488 1.11415 0.45493
 C1142 C 0.43372 1.16876 0.43500
 C1143 C 0.37750 1.06076 0.44791
 H1144 H 0.39303 1.05480 0.45274
 C1145 C 0.33773 1.07684 0.43481
 C1146 C 0.62497 0.94379 0.43982
 H1147 H 0.60928 0.94889 0.44523
 C1148 C 0.66525 0.93012 0.42521
 O1149 O 0.52040 0.91966 0.60402
 O1150 O 0.51968 0.89384 0.62777
 C1151 C 0.52741 0.91116 0.62095
 C1152 C 0.54510 0.92127 0.63249
 C1153 C 0.55179 0.91331 0.65221
 H1154 H 0.54330 0.90019 0.65952
 O1155 O 0.48329 1.07188 0.60730
 O1156 O 0.48388 1.09566 0.63267
 C1157 C 0.47600 1.07903 0.62468
 C1158 C 0.45780 1.06814 0.63528
 C1159 C 0.45032 1.07470 0.65528
 H1160 H 0.45821 1.08756 0.66330
 O1161 O 0.39427 1.02057 0.57662
 O1162 O 0.36930 1.02054 0.60156
 C1163 C 0.37704 1.02807 0.58443
 C1164 C 0.36640 1.04615 0.57373
 C1165 C 0.34628 1.05359 0.58068
 H1166 H 0.33807 1.04566 0.59367
 O1167 O 0.60747 0.97234 0.57567
 O1168 O 0.63261 0.97039 0.60000
 C1169 C 0.62475 0.96426 0.58257
 C1170 C 0.63560 0.94741 0.57028
 C1171 C 0.65553 0.93934 0.57673
 H1172 H 0.66336 0.94600 0.59039
 O1173 O 0.57600 0.89355 0.51564
 O1174 O 0.60016 0.86799 0.51479
 C1175 C 0.58295 0.87585 0.52236
 C1176 C 0.57116 0.86447 0.53943
 C1177 C 0.57710 0.84379 0.54515
 H1178 H 0.58985 0.83588 0.53651
 O1179 O 0.42779 1.10666 0.52427
 O1180 O 0.40358 1.13216 0.52556
 C1181 C 0.42085 1.12378 0.53221
 C1182 C 0.43282 1.13375 0.54962
 C1183 C 0.42673 1.15368 0.55730
 H1184 H 0.41362 1.16221 0.54991
 O1185 O 0.42305 0.97776 0.60414
 O1186 O 0.39832 0.97785 0.62933
 C1187 C 0.41556 0.97043 0.62148
 C1188 C 0.42686 0.95293 0.63247
 C1189 C 0.42053 0.94664 0.65292
 H1190 H 0.40742 0.95483 0.66074
 O1191 O 0.57992 1.01364 0.60623
 O1192 O 0.60493 1.01189 0.63071
 C1193 C 0.58775 1.02002 0.62356
 C1194 C 0.57696 1.03741 0.63514
 C1195 C 0.58462 1.04421 0.65482
 H1196 H 0.59802 1.03604 0.66208
 O1197 O 0.47826 0.89342 0.57372
 O1198 O 0.47772 0.86754 0.59742
 C1199 C 0.47078 0.87592 0.58043
 C1200 C 0.45369 0.86529 0.56852
 C1201 C 0.44761 0.84461 0.57394
 H1202 H 0.45567 0.83639 0.58677
 O1203 O 0.52619 1.09998 0.57881
 O1204 O 0.52698 1.12407 0.60388
 C1205 C 0.53402 1.11675 0.58642
 C1206 C 0.55175 1.12753 0.57497
 C1207 C 0.55864 1.14768 0.58113
 H1208 H 0.55073 1.15565 0.59419
 O1209 O 0.39233 0.92462 0.51933
 O1210 O 0.36692 0.90049 0.51919
 C1211 C 0.37480 0.91732 0.52668
 C1212 C 0.36382 0.92834 0.54440
 C1213 C 0.34376 0.92149 0.55205
 H1214 H 0.33579 0.90843 0.54444
 O1215 O 0.61219 1.06981 0.52126
 O1216 O 0.63793 1.09357 0.52189
 C1217 C 0.62979 1.07639 0.52869
 C1218 C 0.64045 1.06424 0.54588
 C1219 C 0.66057 1.07038 0.55354
 H1220 H 0.66890 1.08357 0.54620
 O1221 O 0.52513 1.07079 0.60785
 O1222 O 0.52583 1.09469 0.63311
 C1223 C 0.53263 1.07748 0.62522
 C1224 C 0.54988 1.06545 0.63598
 C1225 C 0.55774 1.07202 0.65566
 H1226 H 0.55075 1.08573 0.66330
 O1227 O 0.47864 0.92112 0.60376
 O1228 O 0.47785 0.89545 0.62767
 C1229 C 0.47103 0.91320 0.62078
 C1230 C 0.45383 0.92476 0.63227
 C1231 C 0.44718 0.91857 0.65279
 H1232 H 0.45503 0.90541 0.66069
 O1233 O 0.60909 1.01335 0.57683
 O1234 O 0.63424 1.01149 0.60117
 C1235 C 0.62688 1.01949 0.58415
 C1236 C 0.63891 1.03641 0.57299
 C1237 C 0.65904 1.04267 0.58033
 H1238 H 0.66596 1.03476 0.59399
 O1239 O 0.39352 0.97924 0.57557
 O1240 O 0.36868 0.97921 0.60064
 C1241 C 0.37601 0.97222 0.58318
 C1242 C 0.36440 0.95536 0.57190
 C1243 C 0.34435 0.94836 0.57927
 H1244 H 0.33710 0.95571 0.59305
 O1245 O 0.58318 1.09917 0.52257
 O1246 O 0.60875 1.12312 0.52312
 C1247 C 0.59108 1.11590 0.53020
 C1248 C 0.57971 1.12695 0.54759
 C1249 C 0.58642 1.14701 0.55404
 H1250 H 0.59965 1.15467 0.54586
 O1251 O 0.42177 0.89557 0.51803
 O1252 O 0.39655 0.87124 0.51791
 C1253 C 0.41419 0.87820 0.52491
 C1254 C 0.42591 0.86628 0.54148
 C1255 C 0.41996 0.84555 0.54717
 H1256 H 0.40699 0.83789 0.53895
 O1257 O 0.57866 0.97248 0.60550
 O1258 O 0.60362 0.97060 0.63002
 C1259 C 0.58591 0.96442 0.62254
 C1260 C 0.57377 0.94737 0.63335
 C1261 C 0.58024 0.93927 0.65313
 H1262 H 0.59406 0.94590 0.66091
 O1263 O 0.42417 1.01891 0.60487
 O1264 O 0.39930 1.01895 0.62992
 C1265 C 0.41694 1.02579 0.62240
 C1266 C 0.42891 1.04218 0.63400
 C1267 C 0.42174 1.04892 0.65398
 H1268 H 0.40790 1.04145 0.66128
 O1269 O 0.48449 1.10220 0.57950
 O1270 O 0.48527 1.12613 0.60473
 C1271 C 0.47780 1.11949 0.58736
 C1272 C 0.46079 1.13170 0.57646
 C1273 C 0.45451 1.15169 0.58390
 H1274 H 0.46250 1.15843 0.59743
 O1275 O 0.51991 0.89291 0.57319
 O1276 O 0.51939 0.86690 0.59676
 C1277 C 0.52680 0.87510 0.57972
 C1278 C 0.54379 0.86403 0.56747
 C1279 C 0.54997 0.84328 0.57288
 H1280 H 0.54210 0.83514 0.58596
 O1281 O 0.60687 0.92066 0.51624
 O1282 O 0.63118 0.89524 0.51532
 C1283 C 0.62404 0.91232 0.52320
 C1284 C 0.63541 0.92223 0.54108
 C1285 C 0.65537 0.91436 0.54777
 H1286 H 0.66278 0.90128 0.53944
 O1287 O 0.39716 1.07917 0.52352
 O1288 O 0.37282 1.10456 0.52470
 C1289 C 0.37986 1.08676 0.53108
 C1290 C 0.36800 1.07495 0.54772
 C1291 C 0.34795 1.08217 0.55483
 H1292 H 0.34076 1.09601 0.54748
 Cu1293 Cu 0.49935 0.90941 0.58636
 Cu1294 Cu 0.49858 0.87833 0.61480
 Cu1295 Cu 0.50471 1.08380 0.59087
 Cu1296 Cu 0.50558 1.11251 0.62117
 Cu1297 Cu 0.40953 0.91328 0.49809
 Cu1298 Cu 0.37909 0.88426 0.49784
 Cu1299 Cu 0.58912 0.91030 0.49524
 Cu1300 Cu 0.61824 0.87975 0.49426
 Cu1301 Cu 0.41488 1.09140 0.50316
 Cu1302 Cu 0.38563 1.12188 0.50465
 Cu1303 Cu 0.59510 1.08306 0.50116
 Cu1304 Cu 0.62593 1.11166 0.50188
 Cu1305 Cu 0.41119 0.99913 0.58773
 Cu1306 Cu 0.38138 0.99913 0.61787
 Cu1307 Cu 0.59123 0.99311 0.58866
 Cu1308 Cu 0.62137 0.99089 0.61795
 C1309 C 0.55605 0.93840 0.62330
 H1310 H 0.55113 0.94438 0.60792
 C1311 C 0.56932 0.92222 0.66267
 C1312 C 0.44706 1.05175 0.62486
 H1313 H 0.45251 1.04680 0.60931
 C1314 C 0.43225 1.06519 0.66470
 C1315 C 0.37700 1.05683 0.55711
 H1316 H 0.39263 1.05138 0.55186
 C1317 C 0.33698 1.07165 0.57131
 C1318 C 0.62577 0.93887 0.55233
 H1319 H 0.61026 0.94483 0.54743
 C1320 C 0.66555 0.92282 0.56558
 C1321 C 0.55437 0.87443 0.55057
 H1322 H 0.54987 0.89050 0.54641
 C1323 C 0.56661 0.83309 0.56180
 C1324 C 0.45000 1.12297 0.55918
 H1325 H 0.45460 1.10744 0.55354
 C1326 C 0.43750 1.16278 0.57442
 C1327 C 0.44365 0.94206 0.62236
 H1328 H 0.44847 0.94679 0.60648
 C1329 C 0.43066 0.92965 0.66331
 C1330 C 0.55945 1.04801 0.62597
 H1331 H 0.55366 1.04306 0.61065
 C1332 C 0.57512 1.06153 0.66520
 C1333 C 0.44293 0.87592 0.55212
 H1334 H 0.44746 0.89199 0.54803
 C1335 C 0.43090 0.83456 0.56329
 C1336 C 0.56227 1.11738 0.55805
 H1337 H 0.55717 1.10177 0.55330
 C1338 C 0.57594 1.15752 0.57069
 C1339 C 0.37388 0.94541 0.55434
 H1340 H 0.38947 0.95059 0.54875
 C1341 C 0.33385 0.93147 0.56945
 C1342 C 0.62987 1.04710 0.55560
 H1343 H 0.61420 1.04250 0.55006
 C1344 C 0.66999 1.05961 0.57075
 O1345 O 0.47555 0.42162 0.89145
 O1346 O 0.47489 0.39695 0.86697
 C1347 C 0.46787 0.41428 0.87442
 C1348 C 0.45022 0.42580 0.86360
 C1349 C 0.44208 0.41871 0.84416
 H1350 H 0.44906 0.40492 0.83668
 O1351 O 0.51951 0.57348 0.88833
 O1352 O 0.51980 0.59781 0.86304
 C1353 C 0.52683 0.58050 0.87082
 C1354 C 0.54403 0.56855 0.85985
 C1355 C 0.55075 0.57420 0.83926
 H1356 H 0.54298 0.58721 0.83102
 O1357 O 0.39175 0.47999 0.92197
 O1358 O 0.36606 0.48029 0.89814
 C1359 C 0.37394 0.47317 0.91533
 C1360 C 0.36250 0.45651 0.92750
 C1361 C 0.34185 0.45024 0.92163
 H1362 H 0.33409 0.45791 0.90829
 O1363 O 0.60539 0.51690 0.91852
 O1364 O 0.63032 0.51619 0.89354
 C1365 C 0.62294 0.52368 0.91075
 C1366 C 0.63452 0.54081 0.92165
 C1367 C 0.65496 0.54731 0.91471
 H1368 H 0.66265 0.53943 0.90148
 O1369 O 0.42054 0.39519 0.97886
 O1370 O 0.39492 0.37128 0.97977
 C1371 C 0.41245 0.37818 0.97204
 C1372 C 0.42337 0.36658 0.95469
 C1373 C 0.41607 0.34663 0.94843
 H1374 H 0.40254 0.33951 0.95659
 O1375 O 0.57703 0.60320 0.97213
 O1376 O 0.60244 0.62732 0.97109
 C1377 C 0.58483 0.62008 0.96428
 C1378 C 0.57346 0.63108 0.94678
 C1379 C 0.58025 0.65103 0.93944
 H1380 H 0.59349 0.65881 0.94713
 O1381 O 0.42104 0.52019 0.89101
 O1382 O 0.39558 0.52037 0.86696
 C1383 C 0.41328 0.52731 0.87379
 C1384 C 0.42475 0.54418 0.86192
 C1385 C 0.41774 0.55081 0.84182
 H1386 H 0.40403 0.54323 0.83476
 O1387 O 0.57487 0.47600 0.89089
 O1388 O 0.59976 0.47527 0.86586
 C1389 C 0.58221 0.46852 0.87365
 C1390 C 0.57048 0.45153 0.86273
 C1391 C 0.57753 0.44442 0.84286
 H1392 H 0.59108 0.45200 0.83515
 O1393 O 0.51745 0.39213 0.92022
 O1394 O 0.51680 0.36732 0.89587
 C1395 C 0.52445 0.37473 0.91287
 C1396 C 0.54198 0.36329 0.92397
 C1397 C 0.54900 0.34339 0.91688
 H1398 H 0.54129 0.33619 0.90342
 O1399 O 0.47896 0.60354 0.91769
 O1400 O 0.47890 0.62828 0.89280
 C1401 C 0.47191 0.62098 0.91038
 C1402 C 0.45515 0.63250 0.92245
 C1403 C 0.44881 0.65308 0.91656
 H1404 H 0.45645 0.66094 0.90318
 O1405 O 0.39414 0.57659 0.97671
 O1406 O 0.36935 0.60157 0.97685
 C1407 C 0.37668 0.58427 0.96969
 C1408 C 0.36507 0.57334 0.95261
 C1409 C 0.34521 0.58108 0.94560
 H1410 H 0.33788 0.59448 0.95348
 O1411 O 0.60405 0.41882 0.97554
 O1412 O 0.62900 0.39401 0.97525
 C1413 C 0.62151 0.41140 0.96817
 C1414 C 0.63283 0.42297 0.95091
 C1415 C 0.65329 0.41653 0.94393
 H1416 H 0.66120 0.40322 0.95151
 O1417 O 0.47778 0.57498 0.88852
 O1418 O 0.47784 0.59942 0.86334
 C1419 C 0.47035 0.58242 0.87126
 C1420 C 0.45255 0.57130 0.86067
 C1421 C 0.44525 0.57781 0.84057
 H1422 H 0.45314 0.59073 0.83231
 O1423 O 0.51739 0.42132 0.89115
 O1424 O 0.51691 0.39671 0.86658
 C1425 C 0.52452 0.41379 0.87387
 C1426 C 0.54224 0.42481 0.86260
 C1427 C 0.54953 0.41795 0.84262
 H1428 H 0.54179 0.40477 0.83499
 O1429 O 0.60418 0.47560 0.91972
 O1430 O 0.62914 0.47497 0.89476
 C1431 C 0.62149 0.46801 0.91219
 C1432 C 0.63264 0.45065 0.92356
 C1433 C 0.65296 0.44391 0.91675
 H1434 H 0.66083 0.45200 0.90364
 O1435 O 0.39229 0.52117 0.92086
 O1436 O 0.36670 0.52151 0.89693
 C1437 C 0.37479 0.52869 0.91382
 C1438 C 0.36408 0.54626 0.92521
 C1439 C 0.34419 0.55426 0.91840
 H1440 H 0.33636 0.54726 0.90491
 O1441 O 0.42449 0.60441 0.97576
 O1442 O 0.39974 0.62945 0.97590
 C1443 C 0.41704 0.62169 0.96847
 C1444 C 0.42835 0.63267 0.95092
 C1445 C 0.42216 0.65312 0.94477
 H1446 H 0.40953 0.66119 0.95344
 O1447 O 0.57417 0.39049 0.97575
 O1448 O 0.59890 0.36547 0.97539
 C1449 C 0.58152 0.37328 0.96833
 C1450 C 0.56993 0.36258 0.95100
 C1451 C 0.57673 0.34270 0.94362
 H1452 H 0.59007 0.33473 0.95120
 O1453 O 0.57553 0.51723 0.89012
 O1454 O 0.60035 0.51641 0.86505
 C1455 C 0.58302 0.52398 0.87255
 C1456 C 0.57162 0.54099 0.86088
 C1457 C 0.57818 0.54689 0.84034
 H1458 H 0.59125 0.53849 0.83271
 O1459 O 0.42036 0.47888 0.89200
 O1460 O 0.39480 0.47905 0.86805
 C1461 C 0.41227 0.47155 0.87518
 C1462 C 0.42303 0.45380 0.86410
 C1463 C 0.41515 0.44650 0.84473
 H1464 H 0.40170 0.45453 0.83740
 O1465 O 0.52058 0.60296 0.91645
 O1466 O 0.52069 0.62756 0.89142
 C1467 C 0.52805 0.62003 0.90866
 C1468 C 0.54567 0.63103 0.91962
 C1469 C 0.55267 0.65098 0.91255
 H1470 H 0.54496 0.65849 0.89910
 O1471 O 0.47565 0.39328 0.92137
 O1472 O 0.47486 0.36839 0.89710
 C1473 C 0.46794 0.37616 0.91441
 C1474 C 0.45045 0.36557 0.92644
 C1475 C 0.44290 0.34562 0.92039
 H1476 H 0.45045 0.33748 0.90724
 O1477 O 0.60589 0.57369 0.97273
 O1478 O 0.63146 0.59766 0.97182
 C1479 C 0.62351 0.58050 0.96521
 C1480 C 0.63465 0.56859 0.94831
 C1481 C 0.65502 0.57483 0.94124
 H1482 H 0.66299 0.58788 0.94889
 O1483 O 0.39159 0.42473 0.97918
 O1484 O 0.36585 0.40095 0.98019
 C1485 C 0.37377 0.41787 0.97254
 C1486 C 0.36242 0.42944 0.95542
 C1487 C 0.34177 0.42334 0.94927
 H1488 H 0.33373 0.41057 0.95764
 Cu1489 Cu 0.49656 0.40956 0.90845
 Cu1490 Cu 0.49580 0.37986 0.87918
 Cu1491 Cu 0.49916 0.58628 0.90521
 Cu1492 Cu 0.49931 0.61572 0.87510
 Cu1493 Cu 0.40893 0.50005 0.90884
 Cu1494 Cu 0.37823 0.50031 0.88009
 Cu1495 Cu 0.58752 0.49656 0.90735
 Cu1496 Cu 0.61740 0.49563 0.87730
 C1497 C 0.44067 0.44347 0.87331
 H1498 H 0.44663 0.44887 0.88841
 C1499 C 0.42448 0.42895 0.83464
 C1500 C 0.55444 0.55179 0.87043
 H1501 H 0.54951 0.54747 0.88639
 C1502 C 0.56782 0.56341 0.82940
 C1503 C 0.37256 0.44617 0.94457
 H1504 H 0.38859 0.45076 0.94902
 C1505 C 0.33134 0.43371 0.93244
 C1506 C 0.62461 0.55145 0.93858
 H1507 H 0.60874 0.54676 0.94382
 C1508 C 0.66529 0.56437 0.92444
 C1509 C 0.44068 0.37582 0.94372
 H1510 H 0.44622 0.39132 0.94833
 C1511 C 0.42577 0.33599 0.93137
 C1512 C 0.55605 0.62131 0.93687
 H1513 H 0.55087 0.60582 0.94227
 C1514 C 0.56988 0.66115 0.92239
 C1515 C 0.44229 0.55437 0.87108
 H1516 H 0.44762 0.54945 0.88668
 C1517 C 0.42792 0.56754 0.83096
 C1518 C 0.55272 0.44175 0.87240
 H1519 H 0.54742 0.44699 0.88790
 C1520 C 0.56723 0.42766 0.83272
 C1521 C 0.55243 0.37264 0.94117
 H1522 H 0.54727 0.38808 0.94656
 C1523 C 0.56633 0.33294 0.92660
 C1524 C 0.44495 0.62253 0.93979
 H1525 H 0.44958 0.60659 0.94433
 C1526 C 0.43228 0.66344 0.92767
 C1527 C 0.37428 0.55581 0.94244
 H1528 H 0.38975 0.54996 0.94759
 C1529 C 0.33468 0.57173 0.92847
 C1530 C 0.62275 0.44020 0.94074
 H1531 H 0.60691 0.44515 0.94585
 C1532 C 0.66340 0.42693 0.92681
 O1533 O 0.52029 0.42128 1.10266
 O1534 O 0.52042 0.39690 1.12790
 C1535 C 0.52777 0.41395 1.11991
 C1536 C 0.54546 0.42527 1.13043
 C1537 C 0.55316 0.41849 1.15026
 H1538 H 0.54589 0.40502 1.15821
 O1539 O 0.48150 0.57753 1.10094
 O1540 O 0.48231 0.60220 1.12545
 C1541 C 0.47481 0.58499 1.11843
 C1542 C 0.45783 0.57379 1.13047
 C1543 C 0.45118 0.58111 1.15040
 H1544 H 0.45886 0.59479 1.15719
 O1545 O 0.39594 0.52188 1.07632
 O1546 O 0.37106 0.52273 1.10134
 C1547 C 0.37859 0.52947 1.08377
 C1548 C 0.36735 0.54653 1.07198
 C1549 C 0.34723 0.55402 1.07885
 H1550 H 0.33959 0.54704 1.09270
 O1551 O 0.60568 0.47606 1.07108
 O1552 O 0.63107 0.47587 1.09520
 C1553 C 0.62306 0.46848 1.07836
 C1554 C 0.63370 0.45050 1.06746
 C1555 C 0.65353 0.44266 1.07457
 H1556 H 0.66155 0.45039 1.08753
 O1557 O 0.57474 0.38977 1.01723
 O1558 O 0.59936 0.36464 1.01702
 C1559 C 0.58208 0.37240 1.02448
 C1560 C 0.57058 0.36157 1.04214
 C1561 C 0.57685 0.34132 1.04927
 H1562 H 0.58977 0.33306 1.04126
 O1563 O 0.42407 0.60577 1.01716
 O1564 O 0.39914 0.63061 1.01714
 C1565 C 0.41658 0.62310 1.02424
 C1566 C 0.42791 0.63433 1.04132
 C1567 C 0.42018 0.65381 1.04879
 H1568 H 0.40643 0.66115 1.04130
 O1569 O 0.42462 0.48020 1.10569
 O1570 O 0.39990 0.48090 1.13086
 C1571 C 0.41703 0.47314 1.12311
 C1572 C 0.42797 0.45527 1.13399
 C1573 C 0.42073 0.44779 1.15386
 H1574 H 0.40734 0.45551 1.16167
 O1575 O 0.57759 0.51854 1.09995
 O1576 O 0.60285 0.51828 1.12422
 C1577 C 0.58550 0.52585 1.11689
 C1578 C 0.57463 0.54367 1.12782
 C1579 C 0.58147 0.55042 1.14788
 H1580 H 0.59437 0.54211 1.15583
 O1581 O 0.47758 0.39303 1.07522
 O1582 O 0.47739 0.36841 1.10023
 C1583 C 0.47000 0.37603 1.08303
 C1584 C 0.45208 0.36543 1.07213
 C1585 C 0.44432 0.34574 1.07928
 H1586 H 0.45177 0.33791 1.09270
 O1587 O 0.52253 0.60621 1.07041
 O1588 O 0.52336 0.63103 1.09475
 C1589 C 0.53011 0.62340 1.07736
 C1590 C 0.54734 0.63420 1.06530
 C1591 C 0.55489 0.65410 1.07151
 H1592 H 0.54770 0.66193 1.08504
 O1593 O 0.39283 0.42527 1.02056
 O1594 O 0.36704 0.40154 1.02155
 C1595 C 0.37532 0.41850 1.02836
 C1596 C 0.36478 0.43025 1.04582
 C1597 C 0.34439 0.42433 1.05330
 H1598 H 0.33593 0.41155 1.04572
 O1599 O 0.60589 0.57427 1.01397
 O1600 O 0.63148 0.59821 1.01312
 C1601 C 0.62357 0.58126 1.02080
 C1602 C 0.63474 0.56970 1.03807
 C1603 C 0.65482 0.57648 1.04527
 H1604 H 0.66257 0.58991 1.03773
 O1605 O 0.52307 0.57682 1.09929
 O1606 O 0.52394 0.60144 1.12385
 C1607 C 0.53076 0.58402 1.11634
 C1608 C 0.54791 0.57211 1.12742
 C1609 C 0.55485 0.57850 1.14746
 H1610 H 0.54750 0.59215 1.15489
 O1611 O 0.47862 0.42213 1.10386
 O1612 O 0.47862 0.39766 1.12902
 C1613 C 0.47154 0.41502 1.12146
 C1614 C 0.45458 0.42679 1.13301
 C1615 C 0.44719 0.41959 1.15286
 H1616 H 0.45464 0.40587 1.16018
 O1617 O 0.60594 0.51750 1.06976
 O1618 O 0.63130 0.51727 1.09392
 C1619 C 0.62354 0.52451 1.07673
 C1620 C 0.63479 0.54172 1.06514
 C1621 C 0.65486 0.54867 1.07201
 H1622 H 0.66237 0.54099 1.08548
 O1623 O 0.39571 0.48082 1.07654
 O1624 O 0.37079 0.48159 1.10153
 C1625 C 0.37810 0.47419 1.08422
 C1626 C 0.36619 0.45747 1.07309
 C1627 C 0.34580 0.45137 1.08027
 H1628 H 0.33864 0.45914 1.09385
 O1629 O 0.57756 0.60436 1.01348
 O1630 O 0.60302 0.62844 1.01247
 C1631 C 0.58549 0.62154 1.02010
 C1632 C 0.57448 0.63324 1.03724
 C1633 C 0.58187 0.65311 1.04364
 H1634 H 0.59518 0.66042 1.03528
 O1635 O 0.42086 0.39494 1.02027
 O1636 O 0.39519 0.37109 1.02116
 C1637 C 0.41293 0.37800 1.02790
 C1638 C 0.42419 0.36650 1.04512
 C1639 C 0.41666 0.34685 1.05247
 H1640 H 0.40307 0.33963 1.04484
 O1641 O 0.57643 0.47713 1.10041
 O1642 O 0.60175 0.47694 1.12461
 C1643 C 0.58414 0.46992 1.11761
 C1644 C 0.57290 0.45277 1.12926
 C1645 C 0.58035 0.44576 1.14905
 H1646 H 0.59378 0.45366 1.15629
 O1647 O 0.42575 0.52156 1.10468
 O1648 O 0.40105 0.52239 1.12986
 C1649 C 0.41849 0.52918 1.12187
 C1650 C 0.43022 0.54654 1.13224
 C1651 C 0.42366 0.55419 1.15213
 H1652 H 0.41040 0.54678 1.16047
 O1653 O 0.48081 0.60652 1.07171
 O1654 O 0.48147 0.63133 1.09607
 C1655 C 0.47370 0.62381 1.07917
 C1656 C 0.45583 0.63482 1.06826
 C1657 C 0.44789 0.65436 1.07553
 H1658 H 0.45524 0.66186 1.08902
 O1659 O 0.51934 0.39192 1.07424
 O1660 O 0.51923 0.36736 1.09929
 C1661 C 0.52636 0.37453 1.08173
 C1662 C 0.54325 0.36273 1.07011
 C1663 C 0.54967 0.34251 1.07697
 H1664 H 0.54194 0.33539 1.09070
 O1665 O 0.60384 0.41886 1.01682
 O1666 O 0.62868 0.39394 1.01668
 C1667 C 0.62127 0.41126 1.02389
 C1668 C 0.63279 0.42250 1.04090
 C1669 C 0.65264 0.41496 1.04822
 H1670 H 0.65973 0.40098 1.04117
 O1671 O 0.39559 0.57611 1.01816
 O1672 O 0.37066 0.60096 1.01817
 C1673 C 0.37831 0.58378 1.02560
 C1674 C 0.36729 0.57297 1.04346
 C1675 C 0.34728 0.58026 1.05057
 H1676 H 0.33946 0.59324 1.04232
 Cu1677 Cu 0.49897 0.40952 1.08647
 Cu1678 Cu 0.49893 0.38011 1.11663
 Cu1679 Cu 0.50190 0.58935 1.08308
 Cu1680 Cu 0.50289 0.61901 1.11249
 Cu1681 Cu 0.40902 0.41242 0.99961
 Cu1682 Cu 0.37817 0.38382 1.00075
 Cu1683 Cu 0.58670 0.40692 0.99636
 Cu1684 Cu 0.61645 0.37699 0.99606
 Cu1685 Cu 0.41207 0.58821 0.99694
 Cu1686 Cu 0.38221 0.61812 0.99700
 Cu1687 Cu 0.58901 0.58650 0.99320
 Cu1688 Cu 0.61966 0.61534 0.99202
 Cu1689 Cu 0.41305 0.50107 1.08837
 Cu1690 Cu 0.38324 0.50198 1.11847
 Cu1691 Cu 0.58888 0.49734 1.08289
 Cu1692 Cu 0.61930 0.49707 1.11189
 C1693 C 0.55533 0.44255 1.12016
 H1694 H 0.54970 0.44770 1.10474
 C1695 C 0.57065 0.42863 1.15965
 C1696 C 0.44745 0.55634 1.12164
 H1697 H 0.45236 0.55079 1.10613
 C1698 C 0.43414 0.57144 1.16134
 C1699 C 0.37715 0.55599 1.05414
 H1700 H 0.39277 0.55051 1.04890
 C1701 C 0.33717 0.57094 1.06823
 C1702 C 0.62356 0.44040 1.05050
 H1703 H 0.60815 0.44616 1.04512
 C1704 C 0.66313 0.42492 1.06505
 C1705 C 0.55363 0.37201 1.05256
 H1706 H 0.54889 0.38771 1.04737
 C1707 C 0.56635 0.33160 1.06662
 C1708 C 0.44583 0.62508 1.05102
 H1709 H 0.45163 0.60990 1.04550
 C1710 C 0.42998 0.66392 1.06591
 C1711 C 0.44502 0.44475 1.12381
 H1712 H 0.45046 0.45020 1.10836
 C1713 C 0.43022 0.42989 1.16337
 C1714 C 0.55774 0.55455 1.11783
 H1715 H 0.55255 0.54963 1.10228
 C1716 C 0.57151 0.56772 1.15788
 C1717 C 0.44201 0.37555 1.05492
 H1718 H 0.44770 0.39085 1.04950
 C1719 C 0.42658 0.33635 1.06953
 C1720 C 0.55709 0.62404 1.04801
 H1721 H 0.55154 0.60856 1.04334
 C1722 C 0.57217 0.66366 1.06075
 C1723 C 0.37547 0.44697 1.05572
 H1724 H 0.39133 0.45145 1.05025
 C1725 C 0.33478 0.43486 1.07047
 C1726 C 0.62495 0.55218 1.04801
 H1727 H 0.60933 0.54705 1.04281
 C1728 C 0.66500 0.56600 1.06221
 C1729 C 1.14537 1.11855 1.30295
 C1730 C 1.13802 1.11042 1.28388
 C1731 C 1.12101 1.12009 1.27311
 C1732 C 1.11151 1.13835 1.28181
 C1733 C 1.11892 1.14663 1.30096
 C1734 C 1.13604 1.13686 1.31182
 C1735 C 1.11442 1.11094 1.25259
 C1736 C 1.09509 1.11383 1.24389
 C1737 C 1.08877 1.10378 1.22368
 C1738 C 1.06697 1.10026 1.21986
 C1739 C 1.06037 1.09094 1.20099
 C1740 C 1.07544 1.08509 1.18539
 C1741 C 1.09726 1.08872 1.18913
 C1742 C 1.10387 1.09805 1.20800
 H1743 H 1.15857 1.11042 1.31059
 H1744 H 1.14571 1.09642 1.27750
 H1745 H 1.09869 1.14658 1.27370
 H1746 H 1.11134 1.16078 1.30710
 H1747 H 1.12574 1.10034 1.24501
 H1748 H 1.08297 1.12279 1.25234
 H1749 H 1.05500 1.10460 1.23160
 H1750 H 1.04344 1.08822 1.19864
 H1751 H 1.10920 1.08486 1.17721
 H1752 H 1.12076 1.10118 1.20996
 C1753 C 1.10572 0.64302 0.80528
 C1754 C 1.09627 0.63557 0.78678
 C1755 C 1.10445 0.61761 0.77656
 C1756 C 1.12193 0.60679 0.78565
 C1757 C 1.13140 0.61424 0.80414
 C1758 C 1.12353 0.63254 0.81409
 C1759 C 1.09414 0.61048 0.75676
 C1760 C 1.10444 0.59904 0.74200
 C1761 C 1.09468 0.59227 0.72179
 C1762 C 1.10836 0.58624 0.70511
 C1763 C 1.10005 0.57930 0.68592
 C1764 C 1.07780 0.57808 0.68297
 C1765 C 1.06404 0.58411 0.69961
 C1766 C 1.07236 0.59103 0.71888
 H1767 H 1.09914 0.65710 0.81257
 H1768 H 1.08268 0.64406 0.78027
 H1769 H 1.12823 0.59242 0.77873
 H1770 H 1.14491 0.60561 0.81062
 H1771 H 1.07799 0.61600 0.75383
 H1772 H 1.12122 0.59526 0.74418
 H1773 H 1.12559 0.58697 0.70691
 H1774 H 1.11106 0.57501 0.67329
 H1775 H 1.04684 0.58300 0.69789
 H1776 H 1.06124 0.59489 0.73151
 C1777 C 0.61187 1.13992 0.80468
 C1778 C 0.60232 1.13172 0.78650
 C1779 C 0.61007 1.11302 0.77730
 C1780 C 0.62711 1.10222 0.78712
 C1781 C 0.63669 1.11038 0.80521
 C1782 C 0.62939 1.12948 0.81419
 C1783 C 0.59986 1.10506 0.75777
 C1784 C 0.61016 1.09263 0.74381
 C1785 C 0.60054 1.08481 0.72393
 C1786 C 0.61428 1.07802 0.70760
 C1787 C 0.60606 1.07038 0.68862
 C1788 C 0.58383 1.06920 0.68558
 C1789 C 0.57001 1.07571 0.70202
 C1790 C 0.57825 1.08337 0.72103
 H1791 H 0.60558 1.15455 0.81108
 H1792 H 0.58903 1.14021 0.77942
 H1793 H 0.63300 1.08730 0.78108
 H1794 H 0.64988 1.10157 0.81209
 H1795 H 0.58384 1.11066 0.75433
 H1796 H 0.62685 1.08877 0.74636
 H1797 H 0.63150 1.07883 0.70944
 H1798 H 0.61712 1.06573 0.67618
 H1799 H 0.55281 1.07462 0.70028
 H1800 H 0.56709 1.08774 0.73346
 C1801 C 0.64646 0.61418 1.29754
 C1802 C 0.64035 0.60430 1.27879
 C1803 C 0.62277 0.61178 1.26718
 C1804 C 0.61158 0.62969 1.27455
 C1805 C 0.61766 0.63961 1.29330
 C1806 C 0.63520 0.63202 1.30512
 C1807 C 0.61717 0.60103 1.24713
 C1808 C 0.59755 0.60188 1.23860
 C1809 C 0.59168 0.59168 1.21832
 C1810 C 0.56986 0.58914 1.21382
 C1811 C 0.56338 0.58086 1.19446
 C1812 C 0.57858 0.57498 1.17903
 C1813 C 0.60045 0.57712 1.18359
 C1814 C 0.60697 0.58549 1.20297
 H1815 H 0.66010 0.60777 1.30599
 H1816 H 0.64939 0.59068 1.27337
 H1817 H 0.59840 0.63644 1.26570
 H1818 H 0.60863 0.65337 1.29835
 H1819 H 0.62951 0.59146 1.23977
 H1820 H 0.58481 0.60991 1.24709
 H1821 H 0.55773 0.59379 1.22527
 H1822 H 0.54641 0.57918 1.19147
 H1823 H 0.61250 0.57302 1.17185
 H1824 H 0.62392 0.58768 1.20546
 C1825 C 0.89851 0.86527 1.31343
 C1826 C 0.90641 0.87240 1.29391
 C1827 C 0.89589 0.88852 1.28265
 C1828 C 0.87716 0.89749 1.29142
 C1829 C 0.86920 0.89038 1.31104
 C1830 C 0.87966 0.87400 1.32227
 C1831 C 0.90451 0.89462 1.26149
 C1832 C 0.89982 0.91283 1.25145
 C1833 C 0.90859 0.91838 1.23020
 C1834 C 0.90981 0.93978 1.22423
 C1835 C 0.91762 0.94564 1.20421
 C1836 C 0.92424 0.93018 1.18963
 C1837 C 0.92292 0.90875 1.19553
 C1838 C 0.91507 0.90288 1.21553
 H1839 H 0.90719 0.85269 1.32142
 H1840 H 0.92081 0.86514 1.28751
 H1841 H 0.86822 0.90958 1.28303
 H1842 H 0.85462 0.89750 1.31716
 H1843 H 0.91591 0.88383 1.25433
 H1844 H 0.89003 0.92460 1.25931
 H1845 H 0.90480 0.95202 1.23515
 H1846 H 0.91859 0.96230 1.20015
 H1847 H 0.92744 0.89649 1.18444
 H1848 H 0.91364 0.88619 1.21917
 C1849 C 0.89546 0.35991 0.81380
 C1850 C 0.90340 0.36641 0.79405
 C1851 C 0.89378 0.38318 0.78294
 C1852 C 0.87579 0.39329 0.79198
 C1853 C 0.86778 0.38679 0.81178
 C1854 C 0.87743 0.36991 0.82298
 C1855 C 0.90247 0.38893 0.76168
 C1856 C 0.89951 0.40789 0.75240
 C1857 C 0.90821 0.41352 0.73112
 C1858 C 0.91069 0.43498 0.72584
 C1859 C 0.91810 0.44108 0.70574
 C1860 C 0.92306 0.42582 0.69035
 C1861 C 0.92069 0.40431 0.69562
 C1862 C 0.91325 0.39820 0.71574
 H1863 H 0.90346 0.34685 0.82173
 H1864 H 0.91717 0.35825 0.78741
 H1865 H 0.86751 0.40588 0.78366
 H1866 H 0.85382 0.39487 0.81811
 H1867 H 0.91250 0.37728 0.75392
 H1868 H 0.89116 0.42022 0.76099
 H1869 H 0.90686 0.44711 0.73731
 H1870 H 0.91996 0.45777 0.70222
 H1871 H 0.92398 0.39221 0.68396
 H1872 H 0.91091 0.38152 0.71887
 C1873 C 0.39612 0.86156 0.80957
 C1874 C 0.40323 0.86747 0.78940
 C1875 C 0.39286 0.88361 0.77806
 C1876 C 0.37496 0.89372 0.78734
 C1877 C 0.36772 0.88769 0.80763
 C1878 C 0.37822 0.87148 0.81895
 C1879 C 0.40094 0.88871 0.75645
 C1880 C 0.39791 0.90738 0.74671
 C1881 C 0.40707 0.91243 0.72548
 C1882 C 0.41058 0.93369 0.72003
 C1883 C 0.41880 0.93919 0.70008
 C1884 C 0.42350 0.92354 0.68501
 C1885 C 0.42014 0.90222 0.69045
 C1886 C 0.41189 0.89670 0.71043
 H1887 H 0.40465 0.84897 0.81769
 H1888 H 0.41697 0.85937 0.78262
 H1889 H 0.36621 0.90589 0.77885
 H1890 H 0.35381 0.89554 0.81432
 H1891 H 0.41097 0.87691 0.74892
 H1892 H 0.38959 0.91994 0.75498
 H1893 H 0.40699 0.94610 0.73127
 H1894 H 0.42142 0.95575 0.69640
 H1895 H 0.42322 0.88987 0.67900
 H1896 H 0.40878 0.88017 0.71373
 C1897 C 0.35883 0.39378 1.30922
 C1898 C 0.36604 0.40332 1.29040
 C1899 C 0.38399 0.39534 1.27956
 C1900 C 0.39512 0.37801 1.28837
 C1901 C 0.38798 0.36846 1.30720
 C1902 C 0.36958 0.37604 1.31783
 C1903 C 0.39080 0.40562 1.25937
 C1904 C 0.40155 0.39528 1.24411
 C1905 C 0.40805 0.40491 1.22350
 C1906 C 0.41305 0.39138 1.20663
 C1907 C 0.41991 0.39952 1.18710
 C1908 C 0.42214 0.42144 1.18398
 C1909 C 0.41703 0.43507 1.20079
 C1910 C 0.41015 0.42692 1.22040
 H1911 H 0.34472 0.40031 1.31687
 H1912 H 0.35732 0.41681 1.28409
 H1913 H 0.40952 0.37188 1.28093
 H1914 H 0.39695 0.35505 1.31332
 H1915 H 0.38557 0.42175 1.25662
 H1916 H 0.40492 0.37858 1.24623
 H1917 H 0.41162 0.37439 1.20856
 H1918 H 0.42342 0.38862 1.17436
 H1919 H 0.41890 0.45202 1.19894
 H1920 H 0.40705 0.43788 1.23314
 C1921 C 0.88799 1.14303 0.69612
 C1922 C 0.89699 1.13563 0.71501
 C1923 C 0.88870 1.11775 0.72547
 C1924 C 0.87093 1.10748 0.71665
 C1925 C 0.86187 1.11487 0.69771
 C1926 C 0.87022 1.13282 0.68715
 C1927 C 0.89856 1.11104 0.74584
 C1928 C 0.89644 1.09165 0.75446
 C1929 C 0.90640 1.08516 0.77487
 C1930 C 0.90930 1.06350 0.77915
 C1931 C 0.91807 1.05664 0.79837
 C1932 C 0.92406 1.07130 0.81385
 C1933 C 0.92115 1.09298 0.80962
 C1934 C 0.91232 1.09986 0.79042
 H1935 H 0.89501 1.15689 0.68868
 H1936 H 0.91056 1.14395 0.72148
 H1937 H 0.86361 1.09402 0.72449
 H1938 H 0.84815 1.10658 0.69152
 H1939 H 0.90874 1.12244 0.75349
 H1940 H 0.88787 1.07962 0.74592
 H1941 H 0.90478 1.05182 0.76755
 H1942 H 0.92025 1.03983 0.80110
 H1943 H 0.92516 1.10463 0.82142
 H1944 H 0.90969 1.11664 0.78816
 C1945 C 0.84754 0.61689 0.19945
 C1946 C 0.85436 0.60759 0.21844
 C1947 C 0.87167 0.61598 0.22960
 C1948 C 0.88188 0.63419 0.22146
 C1949 C 0.87504 0.64353 0.20245
 C1950 C 0.85778 0.63499 0.19120
 C1951 C 0.87797 0.60577 0.24995
 C1952 C 0.89747 0.60767 0.25853
 C1953 C 0.90383 0.59754 0.27892
 C1954 C 0.92574 0.59498 0.28315
 C1955 C 0.93257 0.58632 0.30244
 C1956 C 0.91762 0.58014 0.31806
 C1957 C 0.89567 0.58256 0.31383
 C1958 C 0.88882 0.59125 0.29453
 H1959 H 0.83415 0.60990 0.19131
 H1960 H 0.84608 0.59371 0.22441
 H1961 H 0.89483 0.64159 0.22988
 H1962 H 0.88318 0.65756 0.19668
 H1963 H 0.86627 0.59556 0.25752
 H1964 H 0.90976 0.61630 0.24995
 H1965 H 0.93766 0.59974 0.27149
 H1966 H 0.94959 0.58447 0.30513
 H1967 H 0.88379 0.57832 0.32572
 H1968 H 0.87182 0.59354 0.29225
 C1969 C 0.36407 1.10856 0.19482
 C1970 C 0.37216 1.09968 0.21348
 C1971 C 0.38979 1.10871 0.22356
 C1972 C 0.39974 1.12642 0.21415
 C1973 C 0.39166 1.13534 0.19547
 C1974 C 0.37353 1.12671 0.18565
 C1975 C 0.39732 1.09909 0.24371
 C1976 C 0.40821 1.10986 0.25832
 C1977 C 0.41464 1.10077 0.27908
 C1978 C 0.41931 1.11467 0.29564
 C1979 C 0.42540 1.10691 0.31550
 C1980 C 0.42706 1.08502 0.31922
 C1981 C 0.42260 1.07106 0.30264
 C1982 C 0.41658 1.07882 0.28273
 H1983 H 0.35021 1.10122 0.18778
 H1984 H 0.36436 1.08589 0.22026
 H1985 H 0.41387 1.13336 0.22099
 H1986 H 0.39966 1.14910 0.18885
 H1987 H 0.39230 1.08305 0.24711
 H1988 H 0.41145 1.12649 0.25568
 H1989 H 0.41805 1.13163 0.29325
 H1990 H 0.42858 1.11803 0.32804
 H1991 H 0.42418 1.05412 0.30498
 H1992 H 0.41387 1.06756 0.27023
 C1993 C 0.38683 0.64249 0.68899
 C1994 C 0.39525 0.63587 0.70841
 C1995 C 0.38660 0.61843 0.71934
 C1996 C 0.36903 0.60786 0.71046
 C1997 C 0.36057 0.61450 0.69097
 C1998 C 0.36936 0.63192 0.68000
 C1999 C 0.39595 0.61244 0.74018
 C2000 C 0.39368 0.59332 0.74934
 C2001 C 0.40325 0.58738 0.77010
 C2002 C 0.40569 0.56582 0.77511
 C2003 C 0.41402 0.55941 0.79467
 C2004 C 0.42002 0.57444 0.80979
 C2005 C 0.41767 0.59603 0.80481
 C2006 C 0.40927 0.60246 0.78525
 H2007 H 0.39403 0.65600 0.68107
 H2008 H 0.40866 0.64442 0.71490
 H2009 H 0.36143 0.59475 0.71863
 H2010 H 0.34700 0.60610 0.68462
 H2011 H 0.40594 0.62410 0.74767
 H2012 H 0.38527 0.58104 0.74099
 H2013 H 0.40113 0.55385 0.76383
 H2014 H 0.41581 0.54265 0.79796
 H2015 H 0.42174 0.60797 0.81631
 H2016 H 0.40704 0.61921 0.78241
 C2017 C 1.11249 0.85689 0.69873
 C2018 C 1.10403 0.86520 0.71745
 C2019 C 1.11417 0.88196 0.72769
 C2020 C 1.13285 0.89062 0.71845
 C2021 C 1.14135 0.88228 0.69964
 C2022 C 1.13132 0.86523 0.68962
 C2023 C 1.10440 0.88997 0.74764
 C2024 C 1.11502 0.90121 0.76210
 C2025 C 1.10536 0.90817 0.78253
 C2026 C 1.11907 0.91357 0.79915
 C2027 C 1.11079 0.92024 0.81864
 C2028 C 1.08855 0.92175 0.82196
 C2029 C 1.07477 0.91647 0.80535
 C2030 C 1.08305 0.90990 0.78579
 H2031 H 1.10422 0.84383 0.69146
 H2032 H 1.08956 0.85832 0.72406
 H2033 H 1.14082 0.90398 0.72545
 H2034 H 1.15576 0.88921 0.69296
 H2035 H 1.08811 0.88516 0.75099
 H2036 H 1.13185 0.90449 0.75962
 H2037 H 1.13629 0.91249 0.79710
 H2038 H 1.12181 0.92404 0.83122
 H2039 H 1.05757 0.91789 0.80734
 H2040 H 1.07186 0.90664 0.77324
 C2041 C 1.14409 0.38524 0.19749
 C2042 C 1.13677 0.39400 0.21645
 C2043 C 1.11904 0.38549 0.22722
 C2044 C 1.10883 0.36770 0.21863
 C2045 C 1.11619 0.35883 0.19958
 C2046 C 1.13399 0.36745 0.18871
 C2047 C 1.11243 0.39527 0.24761
 C2048 C 1.09291 0.39317 0.25645
 C2049 C 1.08647 0.40347 0.27666
 C2050 C 1.06458 0.40646 0.28095
 C2051 C 1.05774 0.41558 0.29998
 C2052 C 1.07266 0.42182 0.31527
 C2053 C 1.09459 0.41891 0.31100
 C2054 C 1.10145 0.40974 0.29198
 H2055 H 1.15785 0.39248 0.18983
 H2056 H 1.14504 0.40759 0.22273
 H2057 H 1.09546 0.36028 0.22671
 H2058 H 1.10799 0.34510 0.19353
 H2059 H 1.12396 0.40554 0.25499
 H2060 H 1.08072 0.38445 0.24817
 H2061 H 1.05269 0.40173 0.26952
 H2062 H 1.04073 0.41775 0.30274
 H2063 H 1.10644 0.42314 0.32266
 H2064 H 1.11843 0.40710 0.28970
 C2065 C 0.60540 0.86045 0.18926
 C2066 C 0.59623 0.86877 0.20766
 C2067 C 0.60598 0.88552 0.21828
 C2068 C 0.62495 0.89422 0.20969
 C2069 C 0.63415 0.88588 0.19120
 C2070 C 0.62455 0.86879 0.18084
 C2071 C 0.59561 0.89349 0.23796
 C2072 C 0.60603 0.90415 0.25299
 C2073 C 0.59598 0.91106 0.27325
 C2074 C 0.60943 0.91612 0.29018
 C2075 C 0.60088 0.92291 0.30951
 C2076 C 0.57862 0.92493 0.31236
 C2077 C 0.56507 0.91988 0.29548
 C2078 C 0.57363 0.91315 0.27607
 H2079 H 0.59743 0.84737 0.18169
 H2080 H 0.58154 0.86188 0.21377
 H2081 H 0.63263 0.90759 0.21698
 H2082 H 0.64879 0.89283 0.18505
 H2083 H 0.57908 0.88907 0.24062
 H2084 H 0.62302 0.90697 0.25109
 H2085 H 0.62666 0.91472 0.28850
 H2086 H 0.61173 0.92645 0.32231
 H2087 H 0.54787 0.92162 0.29714
 H2088 H 0.56266 0.91007 0.26330
 C2089 C 0.59975 0.36105 0.68612
 C2090 C 0.59046 0.36911 0.70456
 C2091 C 0.60024 0.38558 0.71554
 C2092 C 0.61916 0.39450 0.70717
 C2093 C 0.62850 0.38648 0.68864
 C2094 C 0.61910 0.36939 0.67800
 C2095 C 0.59014 0.39289 0.73555
 C2096 C 0.60116 0.40208 0.75112
 C2097 C 0.59166 0.40805 0.77189
 C2098 C 0.60557 0.41169 0.78884
 C2099 C 0.59758 0.41766 0.80864
 C2100 C 0.57545 0.42022 0.81196
 C2101 C 0.56143 0.41647 0.79512
 C2102 C 0.56943 0.41059 0.77522
 H2103 H 0.59176 0.34805 0.67843
 H2104 H 0.57576 0.36212 0.71052
 H2105 H 0.62677 0.40775 0.71476
 H2106 H 0.64319 0.39359 0.68283
 H2107 H 0.57346 0.38898 0.73803
 H2108 H 0.61826 0.40423 0.74921
 H2109 H 0.62273 0.40988 0.78676
 H2110 H 0.60874 0.42026 0.82141
 H2111 H 0.54433 0.41868 0.79719
 H2112 H 0.55814 0.40857 0.76250
 C2113 C 1.31047 1.10966 1.14094
 C2114 C 1.29182 1.10104 1.13267
 C2115 C 1.28160 1.11056 1.11531
 C2116 C 1.29084 1.12867 1.10592
 C2117 C 1.30960 1.13734 1.11417
 C2118 C 1.31961 1.12806 1.13195
 C2119 C 1.26159 1.10085 1.10750
 C2120 C 1.24678 1.11139 1.09624
 C2121 C 1.22614 1.10195 1.08972
 C2122 C 1.20903 1.11555 1.08474
 C2123 C 1.18926 1.10744 1.07863
 C2124 C 1.18617 1.08549 1.07724
 C2125 C 1.20330 1.07183 1.08203
 C2126 C 1.22312 1.07994 1.08807
 H2127 H 1.31760 1.10182 1.15452
 H2128 H 1.28517 1.08698 1.14009
 H2129 H 1.28386 1.13610 1.09207
 H2130 H 1.31616 1.15135 1.10659
 H2131 H 1.25842 1.08477 1.11260
 H2132 H 1.24907 1.12803 1.09277
 H2133 H 1.21090 1.13255 1.08578
 H2134 H 1.17630 1.11836 1.07519
 H2135 H 1.20148 1.05486 1.08068
 H2136 H 1.23605 1.06889 1.09102
 C2137 C 1.30993 0.63400 0.60251
 C2138 C 1.29185 0.62526 0.59330
 C2139 C 1.28067 0.60888 0.60346
 C2140 C 1.28854 0.60072 0.62277
 C2141 C 1.30684 0.60940 0.63202
 C2142 C 1.31761 0.62644 0.62218
 C2143 C 1.26095 0.60103 0.59327
 C2144 C 1.24481 0.59189 0.60402
 C2145 C 1.22408 0.58610 0.59427
 C2146 C 1.20641 0.58261 0.60772
 C2147 C 1.18656 0.57707 0.59946
 C2148 C 1.18390 0.57481 0.57750
 C2149 C 1.20144 0.57840 0.56392
 C2150 C 1.22140 0.58382 0.57220
 H2151 H 1.31773 0.64689 0.59412
 H2152 H 1.28629 0.63169 0.57832
 H2153 H 1.28073 0.58760 0.63075
 H2154 H 1.31230 0.60292 0.64700
 H2155 H 1.25906 0.60474 0.57662
 H2156 H 1.24611 0.58985 0.62103
 H2157 H 1.20795 0.58423 0.62474
 H2158 H 1.17324 0.57453 0.61028
 H2159 H 1.19986 0.57640 0.54696
 H2160 H 1.23465 0.58571 0.56122
 C2161 C 0.80769 1.13799 0.61368
 C2162 C 0.78918 1.12967 0.60495
 C2163 C 0.77885 1.11238 0.61446
 C2164 C 0.78760 1.10339 0.63303
 C2165 C 0.80628 1.11175 0.64186
 C2166 C 0.81648 1.12934 0.63241
 C2167 C 0.75856 1.10519 0.60490
 C2168 C 0.74962 1.08625 0.60848
 C2169 C 0.72932 1.07986 0.59832
 C2170 C 0.72530 1.05828 0.59528
 C2171 C 0.70625 1.05171 0.58593
 C2172 C 0.69073 1.06661 0.57956
 C2173 C 0.69468 1.08819 0.58269
 C2174 C 0.71369 1.09476 0.59208
 H2175 H 0.81491 1.15145 0.60569
 H2176 H 0.78279 1.13694 0.59070
 H2177 H 0.77986 1.09032 0.64111
 H2178 H 0.81242 1.10464 0.65629
 H2179 H 0.75117 1.11587 0.59357
 H2180 H 0.75779 1.07462 0.61821
 H2181 H 0.73699 1.04649 0.60006
 H2182 H 0.70366 1.03496 0.58364
 H2183 H 0.68278 1.09998 0.57845
 H2184 H 0.71577 1.11148 0.59489
 C2185 C 0.80022 0.64665 1.11232
 C2186 C 0.78230 0.63893 1.10186
 C2187 C 0.77137 0.62114 1.10966
 C2188 C 0.77869 0.61124 1.12837
 C2189 C 0.79665 0.61899 1.13889
 C2190 C 0.80757 0.63684 1.13103
 C2191 C 0.75189 0.61418 1.09841
 C2192 C 0.74385 0.59459 1.09996
 C2193 C 0.72405 0.58792 1.08906
 C2194 C 0.72071 0.56627 1.08573
 C2195 C 0.70182 0.55920 1.07648
 C2196 C 0.68574 0.57364 1.07049
 C2197 C 0.68912 0.59534 1.07361
 C2198 C 0.70801 0.60242 1.08289
 H2199 H 0.80817 0.66046 1.10579
 H2200 H 0.77692 0.64696 1.08759
 H2201 H 0.77034 0.59787 1.13529
 H2202 H 0.80178 0.61116 1.15334
 H2203 H 0.74448 0.62555 1.08782
 H2204 H 0.75239 0.58262 1.10896
 H2205 H 0.73273 0.55476 1.09041
 H2206 H 0.69971 0.54238 1.07413
 H2207 H 0.67682 0.60679 1.06957
 H2208 H 0.70958 0.61917 1.08581
 C2209 C 1.31983 0.86454 0.89809
 C2210 C 1.30103 0.87195 0.90765
 C2211 C 1.28861 0.88771 0.89786
 C2212 C 1.29582 0.89643 0.87845
 C2213 C 1.31471 0.88903 0.86883
 C2214 C 1.32694 0.87282 0.87842
 C2215 C 1.26858 0.89471 0.90867
 C2216 C 1.25216 0.90401 0.89855
 C2217 C 1.23163 0.91027 0.90896
 C2218 C 1.21407 0.91502 0.89597
 C2219 C 1.19456 0.92157 0.90474
 C2220 C 1.19210 0.92363 0.92680
 C2221 C 1.20950 0.91865 0.93993
 C2222 C 1.22913 0.91218 0.93113
 H2223 H 1.32868 0.85217 0.90622
 H2224 H 1.29601 0.86510 0.92269
 H2225 H 1.28714 0.90912 0.87071
 H2226 H 1.31964 0.89605 0.85385
 H2227 H 1.26700 0.89077 0.92533
 H2228 H 1.25322 0.90634 0.88156
 H2229 H 1.21544 0.91372 0.87889
 H2230 H 1.18134 0.92506 0.89423
 H2231 H 1.20812 0.92037 0.95696
 H2232 H 1.24230 0.90923 0.94180
 C2233 C 1.30888 0.36050 0.39221
 C2234 C 1.28979 0.36751 0.40161
 C2235 C 1.27856 0.38486 0.39315
 C2236 C 1.28723 0.39556 0.37542
 C2237 C 1.30629 0.38858 0.36598
 C2238 C 1.31734 0.37080 0.37409
 C2239 C 1.25817 0.39155 0.40341
 C2240 C 1.24273 0.40215 0.39304
 C2241 C 1.22201 0.40870 0.40274
 C2242 C 1.20505 0.41412 0.38922
 C2243 C 1.18541 0.42096 0.39744
 C2244 C 1.18225 0.42268 0.41944
 C2245 C 1.19915 0.41723 0.43306
 C2246 C 1.21888 0.41040 0.42482
 H2247 H 1.31685 0.34687 0.39913
 H2248 H 1.28361 0.35914 0.41541
 H2249 H 1.27954 0.40951 0.36890
 H2250 H 1.31229 0.39721 0.35227
 H2251 H 1.25547 0.38645 0.41963
 H2252 H 1.24479 0.40546 0.37628
 H2253 H 1.20700 0.41302 0.37217
 H2254 H 1.17260 0.42479 0.38654
 H2255 H 1.19728 0.41872 0.45007
 H2256 H 1.23166 0.40701 0.43582
 C2257 C 0.81583 0.86493 0.39634
 C2258 C 0.79636 0.87209 0.40470
 C2259 C 0.78489 0.88839 0.39463
 C2260 C 0.79371 0.89791 0.37628
 C2261 C 0.81324 0.89073 0.36788
 C2262 C 0.82444 0.87403 0.37772
 C2263 C 0.76407 0.89508 0.40400
 C2264 C 0.74866 0.90497 0.39292
 C2265 C 0.72740 0.91087 0.40191
 C2266 C 0.71069 0.91552 0.38782
 C2267 C 0.69049 0.92149 0.39539
 C2268 C 0.68652 0.92304 0.41728
 C2269 C 0.70316 0.91837 0.43145
 C2270 C 0.72344 0.91249 0.42388
 H2271 H 0.82403 0.85211 0.40444
 H2272 H 0.79008 0.86462 0.41897
 H2273 H 0.78579 0.91103 0.36843
 H2274 H 0.81950 0.89826 0.35365
 H2275 H 0.76100 0.89040 0.42027
 H2276 H 0.75112 0.90797 0.37616
 H2277 H 0.71326 0.91448 0.37084
 H2278 H 0.67791 0.92481 0.38409
 H2279 H 0.70063 0.91981 0.44840
 H2280 H 0.73595 0.90974 0.43534
 C2281 C 0.81618 0.36694 0.89959
 C2282 C 0.79699 0.37454 0.90812
 C2283 C 0.78460 0.38938 0.89695
 C2284 C 0.79232 0.39719 0.87734
 C2285 C 0.81161 0.38958 0.86878
 C2286 C 0.82360 0.37412 0.87968
 C2287 C 0.76387 0.39614 0.90641
 C2288 C 0.74752 0.40383 0.89496
 C2289 C 0.72611 0.40923 0.90394
 C2290 C 0.70916 0.41262 0.88981
 C2291 C 0.68876 0.41800 0.89727
 C2292 C 0.68481 0.42011 0.91910
 C2293 C 0.70162 0.41659 0.93335
 C2294 C 0.72213 0.41136 0.92589
 H2295 H 0.82506 0.35519 0.90857
 H2296 H 0.79158 0.36845 0.92335
 H2297 H 0.78364 0.40920 0.86857
 H2298 H 0.81698 0.39561 0.85352
 H2299 H 0.76170 0.39309 0.92317
 H2300 H 0.74936 0.40525 0.87793
 H2301 H 0.71169 0.41112 0.87286
 H2302 H 0.67601 0.42049 0.88594
 H2303 H 0.69904 0.41847 0.95024
 H2304 H 0.73471 0.40949 0.93742
 C2305 C 0.69060 0.85714 1.10756
 C2306 C 0.70976 0.86448 1.09868
 C2307 C 0.72073 0.88141 1.10777
 C2308 C 0.71174 0.89126 1.12577
 C2309 C 0.69250 0.88390 1.13467
 C2310 C 0.68176 0.86666 1.12574
 C2311 C 0.74113 0.88843 1.09770
 C2312 C 0.75626 0.89930 1.10790
 C2313 C 0.77707 0.90571 1.09819
 C2314 C 0.79367 0.91176 1.11170
 C2315 C 0.81337 0.91844 1.10347
 C2316 C 0.81695 0.91935 1.08145
 C2317 C 0.80047 0.91315 1.06784
 C2318 C 0.78067 0.90653 1.07608
 H2319 H 0.68277 0.84390 1.10013
 H2320 H 0.71617 0.85672 1.08473
 H2321 H 0.71927 0.90480 1.13288
 H2322 H 0.68606 0.89174 1.14855
 H2323 H 0.74414 0.88325 1.08165
 H2324 H 0.75392 0.90290 1.12450
 H2325 H 0.79140 0.91133 1.12876
 H2326 H 0.82585 0.92289 1.11438
 H2327 H 0.80269 0.91401 1.05080
 H2328 H 0.76821 0.90262 1.06500
 C2329 C 0.68693 0.35708 0.60923
 C2330 C 0.70667 0.36427 0.60158
 C2331 C 0.71700 0.38134 0.61113
 C2332 C 0.70714 0.39105 0.62871
 C2333 C 0.68733 0.38389 0.63639
 C2334 C 0.67694 0.36671 0.62683
 C2335 C 0.73832 0.38778 0.60275
 C2336 C 0.74734 0.40664 0.60637
 C2337 C 0.76870 0.41281 0.59789
 C2338 C 0.77366 0.43440 0.59617
 C2339 C 0.79370 0.44092 0.58859
 C2340 C 0.80931 0.42596 0.58267
 C2341 C 0.80445 0.40434 0.58454
 C2342 C 0.78443 0.39780 0.59217
 H2343 H 0.67963 0.34381 0.60132
 H2344 H 0.71393 0.35639 0.58811
 H2345 H 0.71480 0.40385 0.63697
 H2346 H 0.68037 0.39172 0.65004
 H2347 H 0.74643 0.37669 0.59243
 H2348 H 0.73847 0.41852 0.61508
 H2349 H 0.76193 0.44629 0.60059
 H2350 H 0.79692 0.45770 0.58718
 H2351 H 0.81633 0.39245 0.58055
 H2352 H 0.78162 0.38102 0.59398
 C2353 C 0.19418 0.85288 0.61486
 C2354 C 0.21318 0.86018 0.60558
 C2355 C 0.22422 0.87729 0.61422
 C2356 C 0.21593 0.88686 0.63265
 C2357 C 0.19689 0.87955 0.64201
 C2358 C 0.18571 0.86240 0.63328
 C2359 C 0.24465 0.88399 0.60399
 C2360 C 0.25331 0.90322 0.60627
 C2361 C 0.27373 0.90984 0.59594
 C2362 C 0.27788 0.93153 0.59350
 C2363 C 0.29717 0.93853 0.58454
 C2364 C 0.31289 0.92397 0.57791
 C2365 C 0.30875 0.90223 0.58025
 C2366 C 0.28945 0.89522 0.58925
 H2367 H 0.18626 0.83964 0.60753
 H2368 H 0.21926 0.85240 0.59150
 H2369 H 0.22426 0.89968 0.64021
 H2370 H 0.19111 0.88729 0.65622
 H2371 H 0.25222 0.87280 0.59338
 H2372 H 0.24476 0.91507 0.61533
 H2373 H 0.26614 0.94315 0.59858
 H2374 H 0.29980 0.95538 0.58280
 H2375 H 0.32072 0.89064 0.57570
 H2376 H 0.28728 0.87838 0.59145
 C2377 C 0.19394 0.35884 1.11301
 C2378 C 0.21262 0.36668 1.10365
 C2379 C 0.22351 0.38368 1.11263
 C2380 C 0.21526 0.39282 1.13129
 C2381 C 0.19649 0.38500 1.14070
 C2382 C 0.18566 0.36774 1.13181
 C2383 C 0.24393 0.39048 1.10264
 C2384 C 0.25306 0.40931 1.10586
 C2385 C 0.27382 0.41540 1.09610
 C2386 C 0.27850 0.43694 1.09340
 C2387 C 0.29815 0.44328 1.08475
 C2388 C 0.31358 0.42817 1.07877
 C2389 C 0.30895 0.40660 1.08154
 C2390 C 0.28934 0.40026 1.09022
 H2391 H 0.18620 0.34559 1.10551
 H2392 H 0.21868 0.35928 1.08935
 H2393 H 0.22347 0.40558 1.13907
 H2394 H 0.19078 0.39228 1.15518
 H2395 H 0.25132 0.37959 1.09159
 H2396 H 0.24481 0.42110 1.11526
 H2397 H 0.26690 0.44890 1.09794
 H2398 H 0.30126 0.46002 1.08269
 H2399 H 0.32075 0.39464 1.07754
 H2400 H 0.28672 0.38353 1.09280
 C2401 C 0.69307 1.10648 0.85619
 C2402 C 0.71153 1.09640 0.86363
 C2403 C 0.72324 1.10500 0.88032
 C2404 C 0.71562 1.12359 0.89002
 C2405 C 0.69709 1.13369 0.88263
 C2406 C 0.68564 1.12543 0.86543
 C2407 C 0.74307 1.09401 0.88729
 C2408 C 0.75932 1.10405 0.89661
 C2409 C 0.77969 1.09369 0.90307
 C2410 C 0.79730 1.10666 0.90731
 C2411 C 0.81659 1.09794 0.91430
 C2412 C 0.81875 1.07600 0.91736
 C2413 C 0.80131 1.06288 0.91280
 C2414 C 0.78190 1.07162 0.90584
 H2415 H 0.68475 1.09938 0.84305
 H2416 H 0.71690 1.08198 0.85605
 H2417 H 0.72375 1.13030 0.90345
 H2418 H 0.69187 1.14805 0.89042
 H2419 H 0.74472 1.07748 0.88327
 H2420 H 0.75821 1.12099 0.89881
 H2421 H 0.79611 1.12367 0.90532
 H2422 H 0.82986 1.10842 0.91743
 H2423 H 0.80247 1.04594 0.91528
 H2424 H 0.76863 1.06105 0.90328
 C2425 C 0.69069 0.64705 0.38332
 C2426 C 0.70887 0.64013 0.39420
 C2427 C 0.72066 0.62261 0.38707
 C2428 C 0.71401 0.61223 0.36859
 C2429 C 0.69582 0.61916 0.35769
 C2430 C 0.68397 0.63668 0.36489
 C2431 C 0.74027 0.61633 0.39871
 C2432 C 0.74875 0.59681 0.39801
 C2433 C 0.76881 0.59056 0.40892
 C2434 C 0.77293 0.56894 0.41225
 C2435 C 0.79220 0.56217 0.42118
 C2436 C 0.80790 0.57688 0.42689
 C2437 C 0.80369 0.59855 0.42394
 C2438 C 0.78441 0.60535 0.41495
 H2439 H 0.68202 0.66064 0.38931
 H2440 H 0.71374 0.64853 0.40826
 H2441 H 0.72304 0.59910 0.36215
 H2442 H 0.69123 0.61092 0.34345
 H2443 H 0.74740 0.62812 0.40876
 H2444 H 0.74043 0.58455 0.38954
 H2445 H 0.76126 0.55721 0.40771
 H2446 H 0.79494 0.54537 0.42345
 H2447 H 0.81566 0.61021 0.42784
 H2448 H 0.78222 0.62211 0.41209
 C2449 C 0.19581 1.11423 0.35924
 C2450 C 0.21374 1.10451 0.36823
 C2451 C 0.22319 1.11283 0.38642
 C2452 C 0.21380 1.13067 0.39600
 C2453 C 0.19585 1.14043 0.38703
 C2454 C 0.18673 1.13252 0.36834
 C2455 C 0.24270 1.10243 0.39489
 C2456 C 0.25723 1.11259 0.40653
 C2457 C 0.27754 1.10280 0.41381
 C2458 C 0.29454 1.11613 0.41916
 C2459 C 0.31405 1.10771 0.42593
 C2460 C 0.31696 1.08571 0.42765
 C2461 C 0.29990 1.07231 0.42256
 C2462 C 0.28033 1.08074 0.41582
 H2463 H 0.18927 1.10743 0.34498
 H2464 H 0.22051 1.09064 0.36069
 H2465 H 0.22010 1.13709 0.41051
 H2466 H 0.18925 1.15426 0.39477
 H2467 H 0.24582 1.08635 0.38994
 H2468 H 0.25500 1.12925 0.40975
 H2469 H 0.29281 1.13316 0.41785
 H2470 H 0.32699 1.11842 0.42955
 H2471 H 0.30159 1.05531 0.42414
 H2472 H 0.26743 1.06992 0.41258
 C2473 C 0.18966 0.61037 0.85703
 C2474 C 0.20837 0.60076 0.86451
 C2475 C 0.21903 0.60885 0.88216
 C2476 C 0.21017 0.62647 0.89263
 C2477 C 0.19144 0.63610 0.88516
 C2478 C 0.18103 0.62827 0.86717
 C2479 C 0.23905 0.59829 0.88931
 C2480 C 0.25422 0.60819 0.90041
 C2481 C 0.27468 0.59814 0.90703
 C2482 C 0.29176 0.61132 0.91253
 C2483 C 0.31123 0.60274 0.91926
 C2484 C 0.31407 0.58071 0.92082
 C2485 C 0.29702 0.56745 0.91533
 C2486 C 0.27748 0.57604 0.90861
 H2487 H 0.18204 0.60381 0.84321
 H2488 H 0.21471 0.58708 0.85628
 H2489 H 0.21743 0.63275 0.90675
 H2490 H 0.18513 0.64970 0.89351
 H2491 H 0.24180 0.58226 0.88404
 H2492 H 0.25222 0.62481 0.90395
 H2493 H 0.29008 0.62836 0.91153
 H2494 H 0.32416 0.61337 0.92311
 H2495 H 0.29864 0.55042 0.91671
 H2496 H 0.26456 0.56530 0.90517
 C2497 C 1.14022 1.30587 1.11397
 C2498 C 1.13277 1.28729 1.10499
 C2499 C 1.11606 1.27591 1.11456
 C2500 C 1.10684 1.28361 1.13349
 C2501 C 1.11441 1.30231 1.14261
 C2502 C 1.13132 1.31357 1.13300
 C2503 C 1.10969 1.25574 1.10463
 C2504 C 1.09063 1.24646 1.10756
 C2505 C 1.08469 1.22651 1.09687
 C2506 C 1.06296 1.22222 1.09354
 C2507 C 1.05671 1.20339 1.08399
 C2508 C 1.07206 1.18828 1.07772
 C2509 C 1.09384 1.19259 1.08091
 C2510 C 1.10011 1.21144 1.09048
 H2511 H 1.15324 1.31404 1.10600
 H2512 H 1.14021 1.28173 1.09047
 H2513 H 1.09423 1.27500 1.14161
 H2514 H 1.10729 1.30773 1.15732
 H2515 H 1.12096 1.24889 1.09348
 H2516 H 1.07848 1.25420 1.11712
 H2517 H 1.05077 1.23350 1.09834
 H2518 H 1.03980 1.20057 1.08160
 H2519 H 1.10599 1.18105 1.07670
 H2520 H 1.11698 1.21378 1.09340
 C2521 C 1.10866 0.80333 0.64348
 C2522 C 1.09870 0.78550 0.63519
 C2523 C 1.10713 0.77544 0.61721
 C2524 C 1.12538 0.78407 0.60718
 C2525 C 1.13536 0.80192 0.61546
 C2526 C 1.12724 0.81164 0.63383
 C2527 C 1.09634 0.75621 0.60936
 C2528 C 1.10652 0.74129 0.59807
 C2529 C 1.09634 0.72141 0.59102
 C2530 C 1.10965 0.70434 0.58556
 C2531 C 1.10095 0.68536 0.57857
 C2532 C 1.07867 0.68305 0.57673
 C2533 C 1.06526 0.70011 0.58215
 C2534 C 1.07398 0.71916 0.58912
 H2535 H 1.10186 0.81048 0.65757
 H2536 H 1.08454 0.77934 0.64309
 H2537 H 1.13192 0.77726 0.59283
 H2538 H 1.14947 0.80804 0.60747
 H2539 H 1.07993 0.75373 0.61437
 H2540 H 1.12348 0.74297 0.59481
 H2541 H 1.12690 0.70563 0.58682
 H2542 H 1.11168 0.67240 0.57477
 H2543 H 1.04805 0.69886 0.58054
 H2544 H 1.06316 0.73211 0.59252
 C2545 C 0.60058 1.30644 0.63312
 C2546 C 0.59216 1.28759 0.62548
 C2547 C 0.60258 1.27661 0.60914
 C2548 C 0.62114 1.28540 0.59985
 C2549 C 0.62958 1.30429 0.60750
 C2550 C 0.61958 1.31485 0.62445
 C2551 C 0.59362 1.25611 0.60237
 C2552 C 0.60553 1.24086 0.59337
 C2553 C 0.59722 1.21967 0.58790
 C2554 C 0.61204 1.20326 0.58444
 C2555 C 0.60512 1.18305 0.57911
 C2556 C 0.58318 1.17879 0.57706
 C2557 C 0.56829 1.19514 0.58047
 C2558 C 0.57520 1.21543 0.58569
 H2559 H 0.59233 1.31423 0.64608
 H2560 H 0.57771 1.28131 0.63273
 H2561 H 0.62918 1.27785 0.58666
 H2562 H 0.64408 1.31046 0.60027
 H2563 H 0.57708 1.25305 0.60651
 H2564 H 0.62252 1.24340 0.59103
 H2565 H 0.62906 1.20607 0.58596
 H2566 H 0.61693 1.17068 0.57670
 H2567 H 0.55130 1.19235 0.57859
 H2568 H 0.56324 1.22770 0.58751
 C2569 C 0.60531 0.80527 1.13506
 C2570 C 0.59620 0.78709 1.12658
 C2571 C 0.60503 0.77765 1.10844
 C2572 C 0.62280 0.78723 1.09845
 C2573 C 0.63194 0.80540 1.10694
 C2574 C 0.62344 0.81452 1.12546
 C2575 C 0.59518 0.75802 1.10040
 C2576 C 0.60590 0.74385 1.08861
 C2577 C 0.59662 0.72359 1.08149
 C2578 C 0.61063 0.70715 1.07577
 C2579 C 0.60271 0.68773 1.06904
 C2580 C 0.58053 0.68436 1.06776
 C2581 C 0.56645 0.70087 1.07322
 C2582 C 0.57438 0.72034 1.07991
 H2583 H 0.59825 0.81193 1.14927
 H2584 H 0.58238 0.78017 1.13445
 H2585 H 0.62960 0.78094 1.08399
 H2586 H 0.64572 0.81227 1.09897
 H2587 H 0.57902 0.75458 1.10567
 H2588 H 0.62268 0.74643 1.08505
 H2589 H 0.62781 0.70924 1.07672
 H2590 H 0.61395 0.67522 1.06514
 H2591 H 0.54929 0.69882 1.07199
 H2592 H 0.56302 0.73280 1.08344
 C2593 C 0.87087 1.31162 0.90076
 C2594 C 0.87872 1.29290 0.90974
 C2595 C 0.89568 1.28190 0.90008
 C2596 C 0.90544 1.29062 0.88181
 C2597 C 0.89759 1.30936 0.87281
 C2598 C 0.87995 1.31986 0.88196
 C2599 C 0.90249 1.26137 0.90934
 C2600 C 0.91157 1.24601 0.89775
 C2601 C 0.91692 1.22468 0.90616
 C2602 C 0.92031 1.20830 0.89162
 C2603 C 0.92552 1.18794 0.89862
 C2604 C 0.92753 1.18351 0.92038
 C2605 C 0.92417 1.19983 0.93500
 C2606 C 0.91906 1.22027 0.92800
 H2607 H 0.85739 1.31938 0.90836
 H2608 H 0.87111 1.28666 0.92396
 H2609 H 0.91912 1.28306 0.87439
 H2610 H 0.90517 1.31543 0.85851
 H2611 H 0.89818 1.25835 0.92573
 H2612 H 0.91400 1.24857 0.88091
 H2613 H 0.91883 1.21123 0.87474
 H2614 H 0.92786 1.17559 0.88702
 H2615 H 0.92602 1.19688 0.95184
 H2616 H 0.91726 1.23251 0.93974
 C2617 C 0.90190 0.81317 0.37002
 C2618 C 0.91075 0.79456 0.37831
 C2619 C 0.90149 0.78462 0.39608
 C2620 C 0.88383 0.79429 0.40615
 C2621 C 0.87496 0.81291 0.39787
 C2622 C 0.88364 0.82234 0.37947
 C2623 C 0.91045 0.76411 0.40340
 C2624 C 0.89859 0.74947 0.41351
 C2625 C 0.90656 0.72809 0.41928
 C2626 C 0.89148 0.71211 0.42324
 C2627 C 0.89809 0.69167 0.42868
 C2628 C 0.91998 0.68678 0.43041
 C2629 C 0.93513 0.70274 0.42659
 C2630 C 0.92852 0.72325 0.42120
 H2631 H 0.90913 0.82010 0.35594
 H2632 H 0.92452 0.78758 0.37043
 H2633 H 0.87677 0.78755 0.42039
 H2634 H 0.86110 0.81972 0.40573
 H2635 H 0.92670 0.76040 0.39861
 H2636 H 0.88177 0.75262 0.41644
 H2637 H 0.87449 0.71540 0.42194
 H2638 H 0.88606 0.67962 0.43134
 H2639 H 0.95209 0.69946 0.42821
 H2640 H 0.94065 0.73522 0.41896
 C2641 C 0.39404 1.31133 0.36028
 C2642 C 0.40410 1.29301 0.36794
 C2643 C 0.39624 1.28253 0.38609
 C2644 C 0.37848 1.29121 0.39689
 C2645 C 0.36841 1.30951 0.38924
 C2646 C 0.37594 1.31970 0.37073
 C2647 C 0.40709 1.26286 0.39342
 C2648 C 0.39704 1.24781 0.40483
 C2649 C 0.40721 1.22769 0.41188
 C2650 C 0.39383 1.21087 0.41793
 C2651 C 0.40245 1.19176 0.42521
 C2652 C 0.42474 1.18902 0.42680
 C2653 C 0.43822 1.20580 0.42071
 C2654 C 0.42957 1.22499 0.41341
 H2655 H 0.40037 1.31881 0.34606
 H2656 H 0.41789 1.28681 0.35946
 H2657 H 0.37241 1.28410 0.41138
 H2658 H 0.35470 1.31565 0.39786
 H2659 H 0.42340 1.26028 0.38809
 H2660 H 0.38015 1.24970 0.40839
 H2661 H 0.37657 1.21249 0.41697
 H2662 H 0.39164 1.17903 0.42947
 H2663 H 0.45544 1.20423 0.42204
 H2664 H 0.44045 1.23771 0.40950
 C2665 C 0.40487 0.81439 0.86922
 C2666 C 0.41448 0.79590 0.87685
 C2667 C 0.40526 0.78465 0.89382
 C2668 C 0.38696 0.79301 0.90398
 C2669 C 0.37735 0.81157 0.89638
 C2670 C 0.38590 0.82217 0.87857
 C2671 C 0.41480 0.76405 0.90001
 C2672 C 0.40305 0.74825 0.90825
 C2673 C 0.41139 0.72665 0.91256
 C2674 C 0.39650 0.71037 0.91583
 C2675 C 0.40333 0.68979 0.92026
 C2676 C 0.42526 0.68501 0.92157
 C2677 C 0.44027 0.70116 0.91810
 C2678 C 0.43344 0.72185 0.91378
 H2679 H 0.41207 0.82230 0.85565
 H2680 H 0.42874 0.78995 0.86896
 H2681 H 0.37990 0.78519 0.91766
 H2682 H 0.36293 0.81729 0.90412
 H2683 H 0.43137 0.76136 0.89568
 H2684 H 0.38604 0.75071 0.91073
 H2685 H 0.37946 0.71358 0.91498
 H2686 H 0.39144 0.67756 0.92272
 H2687 H 0.45726 0.69789 0.91937
 H2688 H 0.44549 0.73394 0.91192
 C2689 C 1.10878 0.69577 0.86239
 C2690 C 1.10070 0.71415 0.87168
 C2691 C 1.11051 0.72281 0.88954
 C2692 C 1.12838 0.71233 0.89829
 C2693 C 1.13649 0.69390 0.88898
 C2694 C 1.12686 0.68547 0.87084
 C2695 C 1.10130 0.74249 0.89862
 C2696 C 1.11222 0.75574 0.91101
 C2697 C 1.10319 0.77601 0.91890
 C2698 C 1.11733 0.79217 0.92458
 C2699 C 1.10954 0.81169 0.93158
 C2700 C 1.08737 0.81543 0.93317
 C2701 C 1.07320 0.79910 0.92799
 C2702 C 1.08099 0.77956 0.92104
 H2703 H 1.10086 0.68971 0.84850
 H2704 H 1.08681 0.72177 0.86472
 H2705 H 1.13601 0.71806 0.91245
 H2706 H 1.15030 0.68626 0.89603
 H2707 H 1.08529 0.74677 0.89366
 H2708 H 1.12888 0.75250 0.91443
 H2709 H 1.13449 0.78982 0.92324
 H2710 H 1.12086 0.82402 0.93532
 H2711 H 1.05605 0.80139 0.92952
 H2712 H 1.06954 0.76729 0.91765
 C2713 C 1.14531 0.19902 0.38560
 C2714 C 1.13795 0.21784 0.39452
 C2715 C 1.12062 0.22887 0.38567
 C2716 C 1.11086 0.22071 0.36741
 C2717 C 1.11830 0.20182 0.35839
 C2718 C 1.13565 0.19076 0.36738
 C2719 C 1.11393 0.24912 0.39557
 C2720 C 1.09442 0.25781 0.39339
 C2721 C 1.08788 0.27790 0.40374
 C2722 C 1.06598 0.28190 0.40703
 C2723 C 1.05906 0.30084 0.41617
 C2724 C 1.07390 0.31634 0.42209
 C2725 C 1.09584 0.31234 0.41888
 C2726 C 1.10278 0.29339 0.40972
 H2727 H 1.15875 0.19104 0.39298
 H2728 H 1.14586 0.22381 0.40848
 H2729 H 1.09784 0.22903 0.35974
 H2730 H 1.11058 0.19600 0.34429
 H2731 H 1.12535 0.25648 0.40598
 H2732 H 1.08231 0.24950 0.38458
 H2733 H 1.05416 0.27032 0.40252
 H2734 H 1.04205 0.30337 0.41860
 H2735 H 1.10763 0.32416 0.42285
 H2736 H 1.11975 0.29129 0.40683
 C2737 C 0.60866 0.69764 0.34527
 C2738 C 0.59857 0.71612 0.35244
 C2739 C 0.60519 0.72581 0.37122
 C2740 C 0.62153 0.71617 0.38317
 C2741 C 0.63159 0.69778 0.37605
 C2742 C 0.62546 0.68839 0.35691
 C2743 C 0.59463 0.74568 0.37817
 C2744 C 0.60480 0.76013 0.38983
 C2745 C 0.59500 0.78016 0.39734
 C2746 C 0.60867 0.79641 0.40378
 C2747 C 0.60037 0.81523 0.41191
 C2748 C 0.57813 0.81820 0.41398
 C2749 C 0.56437 0.80202 0.40742
 C2750 C 0.57270 0.78313 0.39924
 H2751 H 0.60344 0.69075 0.33053
 H2752 H 0.58582 0.72307 0.34309
 H2753 H 0.62649 0.72265 0.39817
 H2754 H 0.64423 0.69095 0.38562
 H2755 H 0.57857 0.74883 0.37259
 H2756 H 0.62155 0.75766 0.39351
 H2757 H 0.62590 0.79453 0.40255
 H2758 H 0.61139 0.82752 0.41650
 H2759 H 0.54718 0.80375 0.40910
 H2760 H 0.56162 0.77079 0.39501
 C2761 C 0.64545 0.19317 0.88527
 C2762 C 0.63840 0.21224 0.89407
 C2763 C 0.62079 0.22317 0.88554
 C2764 C 0.61055 0.21473 0.86770
 C2765 C 0.61760 0.19565 0.85889
 C2766 C 0.63514 0.18463 0.86756
 C2767 C 0.61422 0.24362 0.89515
 C2768 C 0.59463 0.25221 0.89295
 C2769 C 0.58803 0.27276 0.90234
 C2770 C 0.56607 0.27717 0.90464
 C2771 C 0.55904 0.29655 0.91273
 C2772 C 0.57383 0.31208 0.91861
 C2773 C 0.59583 0.30772 0.91631
 C2774 C 0.60288 0.28834 0.90819
 H2775 H 0.65905 0.18519 0.89235
 H2776 H 0.64672 0.21845 0.90767
 H2777 H 0.59739 0.22295 0.86015
 H2778 H 0.60938 0.18967 0.84514
 H2779 H 0.62582 0.25132 0.90510
 H2780 H 0.58244 0.24354 0.88461
 H2781 H 0.55426 0.26554 0.90017
 H2782 H 0.54199 0.29934 0.91447
 H2783 H 0.60762 0.31954 0.92029
 H2784 H 0.61991 0.28595 0.90604
 C2785 C 0.85490 0.70061 1.11749
 C2786 C 0.86342 0.71942 1.10949
 C2787 C 0.87993 0.72978 1.12010
 C2788 C 0.88778 0.72086 1.13909
 C2789 C 0.87920 0.70195 1.14716
 C2790 C 0.86257 0.69166 1.13649
 C2791 C 0.88763 0.75018 1.11115
 C2792 C 0.90651 0.75899 1.11577
 C2793 C 0.91371 0.77928 1.10612
 C2794 C 0.93574 0.78333 1.10436
 C2795 C 0.94308 0.80225 1.09528
 C2796 C 0.92851 0.81762 1.08791
 C2797 C 0.90645 0.81371 1.08995
 C2798 C 0.89911 0.79483 1.09905
 H2799 H 0.84211 0.69320 1.10879
 H2800 H 0.85698 0.72595 1.09491
 H2801 H 0.90014 0.72862 1.14805
 H2802 H 0.88539 0.69556 1.16190
 H2803 H 0.87753 0.75772 1.09940
 H2804 H 0.91764 0.75066 1.12596
 H2805 H 0.94731 0.77172 1.10982
 H2806 H 0.96018 0.80478 1.09384
 H2807 H 0.89484 0.82547 1.08493
 H2808 H 0.88201 0.79271 1.10088
 C2809 C 0.85875 0.19352 0.61177
 C2810 C 0.86540 0.21254 0.60258
 C2811 C 0.88197 0.22422 0.61159
 C2812 C 0.89183 0.21645 0.63013
 C2813 C 0.88513 0.19737 0.63940
 C2814 C 0.86839 0.18576 0.63040
 C2815 C 0.88758 0.24484 0.60176
 C2816 C 0.90654 0.25430 0.60421
 C2817 C 0.91174 0.27510 0.59452
 C2818 C 0.93330 0.28024 0.59097
 C2819 C 0.93894 0.30002 0.58270
 C2820 C 0.92310 0.31521 0.57801
 C2821 C 0.90149 0.31004 0.58138
 C2822 C 0.89584 0.29024 0.58964
 H2823 H 0.84580 0.18505 0.60436
 H2824 H 0.85745 0.21821 0.58839
 H2825 H 0.90426 0.22530 0.63790
 H2826 H 0.89278 0.19192 0.65382
 H2827 H 0.87580 0.25199 0.59139
 H2828 H 0.91912 0.24625 0.61287
 H2829 H 0.94585 0.26891 0.59465
 H2830 H 0.95573 0.30351 0.58010
 H2831 H 0.88899 0.32159 0.57831
 H2832 H 0.87908 0.28717 0.59281
 C2833 C 0.35992 0.69069 0.60159
 C2834 C 0.36675 0.70960 0.59226
 C2835 C 0.38298 0.72151 0.60157
 C2836 C 0.39232 0.71411 0.62051
 C2837 C 0.38543 0.69516 0.62991
 C2838 C 0.36903 0.68333 0.62063
 C2839 C 0.38875 0.74204 0.59167
 C2840 C 0.40768 0.75148 0.59444
 C2841 C 0.41301 0.77237 0.58504
 C2842 C 0.43463 0.77759 0.58202
 C2843 C 0.44040 0.79755 0.57431
 C2844 C 0.42464 0.81281 0.56966
 C2845 C 0.40297 0.80753 0.57239
 C2846 C 0.39718 0.78755 0.58009
 H2847 H 0.34723 0.68204 0.59397
 H2848 H 0.35921 0.71501 0.57776
 H2849 H 0.40445 0.72316 0.62850
 H2850 H 0.39268 0.69002 0.64464
 H2851 H 0.37715 0.74918 0.58110
 H2852 H 0.42010 0.74340 0.60330
 H2853 H 0.44712 0.76622 0.58577
 H2854 H 0.45723 0.80112 0.57217
 H2855 H 0.39052 0.81913 0.56932
 H2856 H 0.38037 0.78439 0.58284
 C2857 C 0.39296 0.19159 1.14172
 C2858 C 0.40188 0.21031 1.13381
 C2859 C 0.39263 0.22095 1.11652
 C2860 C 0.37453 0.21208 1.10687
 C2861 C 0.36559 0.19330 1.11478
 C2862 C 0.37461 0.18291 1.13241
 C2863 C 0.40259 0.24095 1.10894
 C2864 C 0.39194 0.25591 1.09801
 C2865 C 0.40151 0.27637 1.09118
 C2866 C 0.38770 0.29320 1.08605
 C2867 C 0.39584 0.31268 1.07926
 C2868 C 0.41805 0.31578 1.07731
 C2869 C 0.43194 0.29897 1.08240
 C2870 C 0.42379 0.27942 1.08915
 H2871 H 0.40044 0.18399 1.15524
 H2872 H 0.41593 0.21665 1.14142
 H2873 H 0.36733 0.21937 1.09305
 H2874 H 0.35160 0.18696 1.10708
 H2875 H 0.41888 0.24386 1.11379
 H2876 H 0.37508 0.25375 1.09484
 H2877 H 0.37049 0.29131 1.08739
 H2878 H 0.38473 0.32541 1.07568
 H2879 H 0.44911 0.30079 1.08068
 H2880 H 0.43502 0.26672 1.09227
 C2881 C 1.10604 1.14031 0.69133
 C2882 C 1.09718 1.13260 0.71033
 C2883 C 1.10520 1.11403 0.71982
 C2884 C 1.12169 1.10284 0.70948
 C2885 C 1.13052 1.11051 0.69053
 C2886 C 1.12299 1.12946 0.68134
 C2887 C 1.09587 1.10660 0.74026
 C2888 C 1.10698 1.09490 0.75428
 C2889 C 1.09824 1.08763 0.77501
 C2890 C 1.11263 1.08241 0.79125
 C2891 C 1.10518 1.07531 0.81100
 C2892 C 1.08311 1.07309 0.81490
 C2893 C 1.06868 1.07799 0.79854
 C2894 C 1.07614 1.08514 0.77878
 H2895 H 1.09976 1.15488 0.68463
 H2896 H 1.08429 1.14137 0.71785
 H2897 H 1.12773 1.08803 0.71582
 H2898 H 1.14334 1.10155 0.68315
 H2899 H 1.07988 1.11201 0.74427
 H2900 H 1.12367 1.09135 0.75107
 H2901 H 1.12974 1.08404 0.78872
 H2902 H 1.11669 1.07191 0.82333
 H2903 H 1.05160 1.07602 0.80092
 H2904 H 1.06457 1.08830 0.76646
 C2905 C 1.13998 0.61187 0.19551
 C2906 C 1.13253 0.60369 0.21476
 C2907 C 1.11604 0.61381 0.22595
 C2908 C 1.10711 0.63254 0.21747
 C2909 C 1.11463 0.64086 0.19812
 C2910 C 1.13129 0.63068 0.18688
 C2911 C 1.10943 0.60463 0.24669
 C2912 C 1.09041 0.60818 0.25602
 C2913 C 1.08412 0.59817 0.27650
 C2914 C 1.06228 0.59545 0.28111
 C2915 C 1.05572 0.58630 0.30033
 C2916 C 1.07088 0.57983 0.31547
 C2917 C 1.09274 0.58258 0.31091
 C2918 C 1.09932 0.59175 0.29170
 H2919 H 1.15280 0.60339 0.18756
 H2920 H 1.13976 0.58931 0.22095
 H2921 H 1.09470 0.64110 0.22590
 H2922 H 1.10754 0.65539 0.19215
 H2923 H 1.12044 0.59349 0.25394
 H2924 H 1.07850 0.61771 0.24793
 H2925 H 1.05026 0.60032 0.26975
 H2926 H 1.03875 0.58426 0.30336
 H2927 H 1.10475 0.57821 0.32247
 H2928 H 1.11627 0.59426 0.28911
 C2929 C 0.63643 1.10733 0.18873
 C2930 C 0.62990 1.09974 0.20853
 C2931 C 0.61459 1.11068 0.22055
 C2932 C 0.60583 1.12958 0.21227
 C2933 C 0.61242 1.13730 0.19234
 C2934 C 0.62798 1.12636 0.18033
 C2935 C 0.60911 1.10215 0.24189
 C2936 C 0.59100 1.10673 0.25248
 C2937 C 0.58583 1.09742 0.27359
 C2938 C 0.56428 1.09573 0.27979
 C2939 C 0.55876 1.08731 0.29964
 C2940 C 0.57470 1.08056 0.31385
 C2941 C 0.59629 1.08225 0.30768
 C2942 C 0.60183 1.09069 0.28782
 H2943 H 0.64840 1.09825 0.18018
 H2944 H 0.63696 1.08520 0.21453
 H2945 H 0.59433 1.13875 0.22128
 H2946 H 0.60555 1.15201 0.18657
 H2947 H 0.62012 1.09068 0.24859
 H2948 H 0.57895 1.11663 0.24508
 H2949 H 0.55166 1.10086 0.26920
 H2950 H 0.54196 1.08604 0.30389
 H2951 H 0.60893 1.07761 0.31846
 H2952 H 0.61865 1.09240 0.28396
 C2953 C 0.59199 0.62755 0.67954
 C2954 C 0.58377 0.61950 0.69859
 C2955 C 0.59438 0.60310 0.70940
 C2956 C 0.61298 0.59425 0.70025
 C2957 C 0.62124 0.60232 0.68117
 C2958 C 0.61100 0.61927 0.67074
 C2959 C 0.58551 0.59584 0.73008
 C2960 C 0.59737 0.58631 0.74506
 C2961 C 0.58910 0.58049 0.76645
 C2962 C 0.60393 0.57669 0.78267
 C2963 C 0.59702 0.57127 0.80310
 C2964 C 0.57507 0.56947 0.80777
 C2965 C 0.56016 0.57311 0.79158
 C2966 C 0.56707 0.57842 0.77107
 H2967 H 0.58356 0.64050 0.67189
 H2968 H 0.56929 0.62644 0.70515
 H2969 H 0.62120 0.58105 0.70766
 H2970 H 0.63575 0.59539 0.67470
 H2971 H 0.56904 0.60005 0.73352
 H2972 H 0.61431 0.58383 0.74220
 H2973 H 0.62097 0.57808 0.77957
 H2974 H 0.60886 0.56869 0.81534
 H2975 H 0.54316 0.57143 0.79468
 H2976 H 0.55508 0.58048 0.75895
 C2977 C 0.86258 0.88978 0.69927
 C2978 C 0.87107 0.89893 0.71743
 C2979 C 0.88971 0.89069 0.72673
 C2980 C 0.90014 0.87346 0.71702
 C2981 C 0.89163 0.86429 0.69885
 C2982 C 0.87265 0.87222 0.68985
 C2983 C 0.89784 0.90066 0.74628
 C2984 C 0.91027 0.89049 0.76037
 C2985 C 0.91749 0.89997 0.78052
 C2986 C 0.92373 0.88640 0.79711
 C2987 C 0.93054 0.89454 0.81643
 C2988 C 0.93141 0.91651 0.81955
 C2989 C 0.92547 0.93014 0.80287
 C2990 C 0.91868 0.92199 0.78351
 H2991 H 0.84800 0.89640 0.69272
 H2992 H 0.86285 0.91232 0.72444
 H2993 H 0.91496 0.86711 0.72322
 H2994 H 0.89996 0.85096 0.69187
 H2995 H 0.89211 0.91645 0.74974
 H2996 H 0.91432 0.87403 0.75783
 H2997 H 0.92309 0.86939 0.79522
 H2998 H 0.93482 0.88363 0.82906
 H2999 H 0.92639 0.94714 0.80469
 H3000 H 0.91476 0.93302 0.77090
 C3001 C 0.88434 0.35312 0.20114
 C3002 C 0.89310 0.36071 0.21989
 C3003 C 0.88379 0.37795 0.23040
 C3004 C 0.86527 0.38738 0.22183
 C3005 C 0.85644 0.37979 0.20304
 C3006 C 0.86581 0.36248 0.19242
 C3007 C 0.89339 0.38490 0.25063
 C3008 C 0.89042 0.40419 0.25889
 C3009 C 0.90002 0.41091 0.27920
 C3010 C 0.90241 0.43261 0.28301
 C3011 C 0.91083 0.43966 0.30215
 C3012 C 0.91693 0.42512 0.31801
 C3013 C 0.91451 0.40339 0.31426
 C3014 C 0.90606 0.39634 0.29513
 H3015 H 0.89213 0.33977 0.19362
 H3016 H 0.90727 0.35305 0.22621
 H3017 H 0.85720 0.40028 0.22976
 H3018 H 0.84212 0.38741 0.19704
 H3019 H 0.90407 0.37383 0.25844
 H3020 H 0.88139 0.41596 0.25012
 H3021 H 0.89778 0.44417 0.27109
 H3022 H 0.91265 0.45650 0.30453
 H3023 H 0.91861 0.39185 0.32638
 H3024 H 0.90377 0.37952 0.29320
 C3025 C 0.39475 0.85914 0.19664
 C3026 C 0.40409 0.86833 0.21440
 C3027 C 0.39552 0.88693 0.22311
 C3028 C 0.37788 0.89664 0.21318
 C3029 C 0.36849 0.88743 0.19553
 C3030 C 0.37666 0.86845 0.18718
 C3031 C 0.40541 0.89577 0.24239
 C3032 C 0.39469 0.90818 0.25603
 C3033 C 0.40392 0.91625 0.27595
 C3034 C 0.38988 0.92254 0.29223
 C3035 C 0.39779 0.92993 0.31143
 C3036 C 0.41997 0.93132 0.31471
 C3037 C 0.43406 0.92550 0.29826
 C3038 C 0.42615 0.91813 0.27902
 H3039 H 0.40152 0.84458 0.19054
 H3040 H 0.41783 0.86067 0.22159
 H3041 H 0.37132 0.91144 0.21883
 H3042 H 0.35480 0.89523 0.18842
 H3043 H 0.42154 0.89066 0.24604
 H3044 H 0.37791 0.91157 0.25334
 H3045 H 0.37271 0.92141 0.29023
 H3046 H 0.38655 0.93411 0.32390
 H3047 H 0.45122 0.92681 0.30022
 H3048 H 0.43750 0.91421 0.26661
 C3049 C 0.38718 0.35508 0.69309
 C3050 C 0.39620 0.36303 0.71156
 C3051 C 0.38759 0.38099 0.72138
 C3052 C 0.36989 0.39121 0.71198
 C3053 C 0.36084 0.38330 0.69340
 C3054 C 0.36928 0.36502 0.68370
 C3055 C 0.39789 0.38865 0.74102
 C3056 C 0.38789 0.40071 0.75548
 C3057 C 0.39792 0.40746 0.77562
 C3058 C 0.38451 0.41355 0.79248
 C3059 C 0.39313 0.42024 0.81166
 C3060 C 0.41544 0.42118 0.81441
 C3061 C 0.42892 0.41513 0.79756
 C3062 C 0.42029 0.40845 0.77832
 H3063 H 0.39437 0.34106 0.68625
 H3064 H 0.40991 0.35493 0.71832
 H3065 H 0.36317 0.40549 0.71867
 H3066 H 0.34723 0.39159 0.68668
 H3067 H 0.41392 0.38292 0.74417
 H3068 H 0.37122 0.40487 0.75322
 H3069 H 0.36726 0.41301 0.79086
 H3070 H 0.38230 0.42456 0.82443
 H3071 H 0.44616 0.41604 0.79909
 H3072 H 0.43124 0.40457 0.76555
 C3073 C 1.10698 0.86062 1.31176
 C3074 C 1.09756 0.86867 1.29328
 C3075 C 1.10494 0.88754 1.28397
 C3076 C 1.12133 0.89875 1.29403
 C3077 C 1.13078 0.89075 1.31242
 C3078 C 1.12398 0.87140 1.32145
 C3079 C 1.09516 0.89523 1.26396
 C3080 C 1.10583 0.90737 1.24989
 C3081 C 1.09681 0.91485 1.22947
 C3082 C 1.11103 0.92111 1.21327
 C3083 C 1.10337 0.92849 1.19381
 C3084 C 1.08124 0.92996 1.19016
 C3085 C 1.06695 0.92395 1.20644
 C3086 C 1.07462 0.91653 1.22593
 H3087 H 1.10107 0.84580 1.31821
 H3088 H 1.08474 0.85989 1.28599
 H3089 H 1.12685 0.91381 1.28787
 H3090 H 1.14352 0.89983 1.31946
 H3091 H 1.07929 0.88960 1.26025
 H3092 H 1.12243 0.91117 1.25280
 H3093 H 1.12819 0.92009 1.21561
 H3094 H 1.11480 0.93274 1.18150
 H3095 H 1.04981 0.92528 1.20421
 H3096 H 1.06312 0.91255 1.23823
 C3097 C 1.13854 0.39327 0.81031
 C3098 C 1.13145 0.40305 0.79165
 C3099 C 1.11365 0.39523 0.78085
 C3100 C 1.10248 0.37791 0.78958
 C3101 C 1.10953 0.36810 0.80820
 C3102 C 1.12784 0.37544 0.81874
 C3103 C 1.10704 0.40559 0.76073
 C3104 C 1.09658 0.39525 0.74550
 C3105 C 1.09011 0.40486 0.72497
 C3106 C 1.08484 0.39128 0.70834
 C3107 C 1.07796 0.39940 0.68889
 C3108 C 1.07606 0.42133 0.68565
 C3109 C 1.08144 0.43501 0.70220
 C3110 C 1.08830 0.42688 0.72173
 H3111 H 1.15258 0.39962 0.81794
 H3112 H 1.14016 0.41656 0.78541
 H3113 H 1.08815 0.37194 0.78221
 H3114 H 1.10056 0.35467 0.81422
 H3115 H 1.11216 0.42172 0.75802
 H3116 H 1.09335 0.37855 0.74763
 H3117 H 1.08604 0.37428 0.71038
 H3118 H 1.07420 0.38848 0.67633
 H3119 H 1.07981 0.45198 0.70022
 H3120 H 1.09160 0.43790 0.73429
 C3121 C 0.64349 0.88731 0.80518
 C3122 C 0.63479 0.89622 0.78683
 C3123 C 0.61730 0.88678 0.77685
 C3124 C 0.60827 0.86844 0.78602
 C3125 C 0.61702 0.85948 0.80442
 C3126 C 0.63483 0.86874 0.81413
 C3127 C 0.60897 0.89681 0.75719
 C3128 C 0.59725 0.88656 0.74282
 C3129 C 0.59007 0.89632 0.72257
 C3130 C 0.58441 0.88296 0.70588
 C3131 C 0.57772 0.89135 0.68645
 C3132 C 0.57646 0.91335 0.68330
 C3133 C 0.58186 0.92678 0.70003
 C3134 C 0.58846 0.91839 0.71952
 H3135 H 0.65714 0.89497 0.81226
 H3136 H 0.64194 0.91045 0.78025
 H3137 H 0.59434 0.86104 0.77927
 H3138 H 0.60980 0.84530 0.81101
 H3139 H 0.61398 0.91287 0.75394
 H3140 H 0.59383 0.86995 0.74518
 H3141 H 0.58538 0.86593 0.70779
 H3142 H 0.57381 0.88062 0.67377
 H3143 H 0.58062 0.94379 0.69816
 H3144 H 0.59189 0.92928 0.73216
 C3145 C 0.60602 0.35834 1.30492
 C3146 C 0.59658 0.36600 1.28635
 C3147 C 0.60526 0.38346 1.27550
 C3148 C 0.62323 0.39363 1.28406
 C3149 C 0.63268 0.38596 1.30265
 C3150 C 0.62431 0.36810 1.31319
 C3151 C 0.59502 0.39066 1.25554
 C3152 C 0.60555 0.40137 1.24027
 C3153 C 0.59589 0.40783 1.21978
 C3154 C 0.60965 0.41292 1.20280
 C3155 C 0.60144 0.41943 1.18327
 C3156 C 0.57922 0.42113 1.18027
 C3157 C 0.56537 0.41605 1.19721
 C3158 C 0.57359 0.40958 1.21682
 H3159 H 0.59903 0.34462 1.31267
 H3160 H 0.58262 0.35802 1.28024
 H3161 H 0.62994 0.40761 1.27663
 H3162 H 0.64659 0.39403 1.30871
 H3163 H 0.57872 0.38566 1.25291
 H3164 H 0.62243 0.40462 1.24223
 H3165 H 0.62687 0.41178 1.20463
 H3166 H 0.61251 0.42301 1.17043
 H3167 H 0.54819 0.41757 1.19543
 H3168 H 0.56241 0.40647 1.22963
 C3169 C 0.89395 1.14268 1.30748
 C3170 C 0.90260 1.13446 1.28879
 C3171 C 0.89297 1.11728 1.27876
 C3172 C 0.87473 1.10803 1.28821
 C3173 C 0.86602 1.11625 1.30694
 C3174 C 0.87541 1.13382 1.31680
 C3175 C 0.90270 1.10940 1.25876
 C3176 C 0.89189 1.09830 1.24433
 C3177 C 0.90130 1.09137 1.22382
 C3178 C 0.88739 1.08629 1.20726
 C3179 C 0.89544 1.07965 1.18768
 C3180 C 0.91763 1.07782 1.18423
 C3181 C 0.93160 1.08272 1.20081
 C3182 C 0.92356 1.08930 1.22045
 H3183 H 0.90186 1.15611 1.31449
 H3184 H 0.91678 1.14175 1.28199
 H3185 H 0.86724 1.09430 1.28140
 H3186 H 0.85191 1.10875 1.31364
 H3187 H 0.91898 1.11420 1.25535
 H3188 H 0.87504 1.09516 1.24690
 H3189 H 0.87020 1.08763 1.20942
 H3190 H 0.88428 1.07615 1.17513
 H3191 H 0.94877 1.08106 1.19871
 H3192 H 0.93485 1.09232 1.23296
 C3193 C 0.86073 0.61177 0.81025
 C3194 C 0.86739 0.60213 0.79151
 C3195 C 0.88436 0.61053 0.77950
 C3196 C 0.89462 0.62891 0.78667
 C3197 C 0.88794 0.63860 0.80549
 C3198 C 0.87079 0.63023 0.81740
 C3199 C 0.88994 0.60029 0.75914
 C3200 C 0.90889 0.60254 0.74928
 C3201 C 0.91398 0.59270 0.72859
 C3202 C 0.93554 0.58953 0.72299
 C3203 C 0.94108 0.58126 0.70322
 C3204 C 0.92514 0.57613 0.68853
 C3205 C 0.90354 0.57908 0.69416
 C3206 C 0.89799 0.58739 0.71393
 H3207 H 0.84747 0.60484 0.81900
 H3208 H 0.85913 0.58808 0.78631
 H3209 H 0.90736 0.63626 0.77757
 H3210 H 0.89592 0.65288 0.81045
 H3211 H 0.87807 0.58989 0.75248
 H3212 H 0.92154 0.61127 0.75687
 H3213 H 0.94816 0.59356 0.73392
 H3214 H 0.95786 0.57898 0.69936
 H3215 H 0.89096 0.57567 0.68298
 H3216 H 0.88122 0.59026 0.71730
 C3217 C 0.39722 1.13797 0.80748
 C3218 C 0.40693 1.12940 0.78946
 C3219 C 0.39858 1.11129 0.77998
 C3220 C 0.38079 1.10128 0.78946
 C3221 C 0.37106 1.10979 0.80755
 C3222 C 0.37892 1.12847 0.81666
 C3223 C 0.40881 1.10336 0.76029
 C3224 C 0.39808 1.09250 0.74564
 C3225 C 0.40755 1.08582 0.72511
 C3226 C 0.39367 1.08149 0.70833
 C3227 C 0.40171 1.07503 0.68871
 C3228 C 0.42388 1.07254 0.68546
 C3229 C 0.43783 1.07678 0.70226
 C3230 C 0.42977 1.08326 0.72194
 H3231 H 0.40400 1.15222 0.81402
 H3232 H 0.42078 1.13726 0.78261
 H3233 H 0.37438 1.08683 0.78307
 H3234 H 0.35724 1.10175 0.81421
 H3235 H 0.42516 1.10815 0.75713
 H3236 H 0.38116 1.08955 0.74802
 H3237 H 0.37650 1.08328 0.71034
 H3238 H 0.39057 1.07213 0.67599
 H3239 H 0.45496 1.07465 0.70030
 H3240 H 0.44098 1.08579 0.73464
 C3241 C 0.35212 0.61993 1.29600
 C3242 C 0.36058 0.61006 1.27812
 C3243 C 0.37882 0.61809 1.26786
 C3244 C 0.38855 0.63636 1.27596
 C3245 C 0.38010 0.64630 1.29397
 C3246 C 0.36163 0.63831 1.30417
 C3247 C 0.38629 0.60744 1.24829
 C3248 C 0.40586 0.60980 1.23973
 C3249 C 0.41259 0.59915 1.21989
 C3250 C 0.43451 0.59586 1.21602
 C3251 C 0.44151 0.58643 1.19723
 C3252 C 0.42669 0.58019 1.18185
 C3253 C 0.40476 0.58343 1.18570
 C3254 C 0.39776 0.59293 1.20444
 H3255 H 0.33794 0.61310 1.30325
 H3256 H 0.35271 0.59608 1.27218
 H3257 H 0.40232 0.64341 1.26821
 H3258 H 0.38788 0.66043 1.29962
 H3259 H 0.37523 0.59653 1.24112
 H3260 H 0.41774 0.61911 1.24780
 H3261 H 0.44627 0.60062 1.22758
 H3262 H 0.45853 0.58404 1.19468
 H3263 H 0.39304 0.57924 1.17389
 H3264 H 0.38079 0.59590 1.20639
 C3265 C 1.10448 1.31032 0.85868
 C3266 C 1.09489 1.29144 0.86536
 C3267 C 1.10310 1.27995 0.88261
 C3268 C 1.12065 1.28820 0.89365
 C3269 C 1.13029 1.30706 0.88700
 C3270 C 1.12254 1.31831 0.86923
 C3271 C 1.09286 1.25965 0.88876
 C3272 C 1.10347 1.24403 0.89876
 C3273 C 1.09402 1.22332 0.90486
 C3274 C 1.10802 1.20691 0.91082
 C3275 C 1.10011 1.18737 0.91760
 C3276 C 1.07795 1.18374 0.91866
 C3277 C 1.06385 1.19997 0.91240
 C3278 C 1.07176 1.21963 0.90568
 H3279 H 1.09780 1.31848 0.84505
 H3280 H 1.08121 1.28559 0.85676
 H3281 H 1.12693 1.28028 0.90757
 H3282 H 1.14390 1.31271 0.89583
 H3283 H 1.07655 1.25722 0.88370
 H3284 H 1.12033 1.24606 0.90203
 H3285 H 1.12520 1.20925 0.91036
 H3286 H 1.11137 1.17505 0.92207
 H3287 H 1.04668 1.19764 0.91333
 H3288 H 1.06034 1.23191 0.90175
 C3289 C 1.14191 0.80670 0.39241
 C3290 C 1.13545 0.78725 0.40102
 C3291 C 1.11810 0.77625 0.39243
 C3292 C 1.10754 0.78501 0.37474
 C3293 C 1.11399 0.80444 0.36613
 C3294 C 1.13126 0.81555 0.37485
 C3295 C 1.11211 0.75542 0.40177
 C3296 C 1.09260 0.74682 0.39977
 C3297 C 1.08651 0.72585 0.40872
 C3298 C 1.06466 0.72126 0.41140
 C3299 C 1.05808 0.70148 0.41901
 C3300 C 1.07322 0.68571 0.42399
 C3301 C 1.09510 0.69025 0.42133
 C3302 C 1.10170 0.71006 0.41370
 H3303 H 1.15532 0.81474 0.39950
 H3304 H 1.14401 0.78079 0.41450
 H3305 H 1.09458 0.77676 0.36715
 H3306 H 1.10553 0.81065 0.35248
 H3307 H 1.12404 0.74742 0.41131
 H3308 H 1.08011 0.75578 0.39190
 H3309 H 1.05261 0.73305 0.40760
 H3310 H 1.04111 0.69854 0.42108
 H3311 H 1.10713 0.67829 0.42462
 H3312 H 1.11865 0.71263 0.41122
 C3313 C 0.60880 1.30595 0.36142
 C3314 C 0.60037 1.28760 0.37061
 C3315 C 0.61039 1.27788 0.38798
 C3316 C 0.62882 1.28730 0.39642
 C3317 C 0.63729 1.30574 0.38725
 C3318 C 0.62750 1.31527 0.36947
 C3319 C 0.60085 1.25820 0.39680
 C3320 C 0.61184 1.24380 0.40814
 C3321 C 0.60251 1.22342 0.41548
 C3322 C 0.61638 1.20643 0.41987
 C3323 C 0.60831 1.18683 0.42641
 C3324 C 0.58613 1.18381 0.42885
 C3325 C 0.57222 1.20089 0.42482
 C3326 C 0.58030 1.22052 0.41833
 H3327 H 0.60057 1.31270 0.34788
 H3328 H 0.58606 1.28082 0.36391
 H3329 H 0.63664 1.28068 0.41023
 H3330 H 0.65156 1.31245 0.39413
 H3331 H 0.58451 1.25486 0.39237
 H3332 H 0.62873 1.24619 0.41094
 H3333 H 0.63354 1.20823 0.41793
 H3334 H 0.61942 1.17391 0.42924
 H3335 H 0.55509 1.19914 0.42701
 H3336 H 0.56908 1.23339 0.41590
 C3337 C 0.64770 0.80235 0.88604
 C3338 C 0.64049 0.78299 0.89415
 C3339 C 0.62345 0.77236 0.88461
 C3340 C 0.61388 0.78145 0.86652
 C3341 C 0.62109 0.80084 0.85840
 C3342 C 0.63812 0.81151 0.86803
 C3343 C 0.61683 0.75153 0.89347
 C3344 C 0.59754 0.74289 0.89025
 C3345 C 0.59104 0.72200 0.89906
 C3346 C 0.56912 0.71752 0.90111
 C3347 C 0.56225 0.69788 0.90886
 C3348 C 0.57719 0.68219 0.91461
 C3349 C 0.59915 0.68660 0.91246
 C3350 C 0.60603 0.70624 0.90469
 H3351 H 0.66089 0.81006 0.89386
 H3352 H 0.64827 0.77628 0.90798
 H3353 H 0.60117 0.77349 0.85825
 H3354 H 0.61346 0.80732 0.84439
 H3355 H 0.62810 0.74354 0.90379
 H3356 H 0.58554 0.75175 0.88158
 H3357 H 0.55723 0.72930 0.89678
 H3358 H 0.54523 0.69503 0.91050
 H3359 H 0.61103 0.67466 0.91632
 H3360 H 0.62305 0.70872 0.90265
 C3361 C 0.88593 1.30149 1.14486
 C3362 C 0.89541 1.28367 1.13576
 C3363 C 0.88659 1.27439 1.11772
 C3364 C 0.86827 1.28372 1.10858
 C3365 C 0.85875 1.30161 1.11771
 C3366 C 0.86740 1.31063 1.13605
 C3367 C 0.89723 1.25529 1.10893
 C3368 C 0.88742 1.24129 1.09646
 C3369 C 0.89778 1.22153 1.08885
 C3370 C 0.88466 1.20481 1.08248
 C3371 C 0.89362 1.18581 1.07541
 C3372 C 0.91597 1.18314 1.07443
 C3373 C 0.92916 1.19994 1.08052
 C3374 C 0.92019 1.21899 1.08753
 H3375 H 0.89314 1.30803 1.15891
 H3376 H 0.90960 1.27696 1.14303
 H3377 H 0.86134 1.27750 1.09428
 H3378 H 0.84462 1.30835 1.11038
 H3379 H 0.91337 1.25205 1.11422
 H3380 H 0.87068 1.24354 1.09269
 H3381 H 0.86738 1.20634 1.08321
 H3382 H 0.88304 1.17308 1.07101
 H3383 H 0.94643 1.19845 1.07953
 H3384 H 0.93092 1.23169 1.09154
 C3385 C 0.89218 0.80686 0.64555
 C3386 C 0.90124 0.78831 0.63747
 C3387 C 0.89200 0.77808 0.62015
 C3388 C 0.87383 0.78723 0.61059
 C3389 C 0.86475 0.80578 0.61867
 C3390 C 0.87370 0.81572 0.63636
 C3391 C 0.90192 0.75820 0.61238
 C3392 C 0.89102 0.74349 0.60173
 C3393 C 0.90044 0.72317 0.59450
 C3394 C 0.88653 0.70652 0.58975
 C3395 C 0.89451 0.68717 0.58257
 C3396 C 0.91666 0.68404 0.57983
 C3397 C 0.93064 0.70069 0.58450
 C3398 C 0.92265 0.72010 0.59166
 H3399 H 0.89959 0.81414 0.65911
 H3400 H 0.91537 0.78174 0.64499
 H3401 H 0.86667 0.78030 0.59673
 H3402 H 0.85069 0.81229 0.61102
 H3403 H 0.91837 0.75514 0.61680
 H3404 H 0.87405 0.74578 0.59909
 H3405 H 0.86937 0.70845 0.59171
 H3406 H 0.88334 0.67456 0.57935
 H3407 H 0.94776 0.69884 0.58218
 H3408 H 0.93390 0.73269 0.59447
 C3409 C 0.35978 1.30299 0.61144
 C3410 C 0.36764 1.28405 0.60320
 C3411 C 0.38470 1.27335 0.61293
 C3412 C 0.39378 1.28202 0.63126
 C3413 C 0.38595 1.30102 0.63955
 C3414 C 0.36872 1.31174 0.62985
 C3415 C 0.39169 1.25279 0.60404
 C3416 C 0.41077 1.24377 0.60790
 C3417 C 0.41718 1.22301 0.59906
 C3418 C 0.43906 1.21830 0.59671
 C3419 C 0.44570 1.19881 0.58861
 C3420 C 0.43055 1.18357 0.58282
 C3421 C 0.40867 1.18815 0.58546
 C3422 C 0.40203 1.20760 0.59358
 H3423 H 0.34652 1.31062 0.60339
 H3424 H 0.36026 1.27766 0.58915
 H3425 H 0.40654 1.27399 0.63963
 H3426 H 0.39325 1.30707 0.65378
 H3427 H 0.38080 1.24523 0.59322
 H3428 H 0.42258 1.25214 0.61703
 H3429 H 0.45105 1.22981 0.60099
 H3430 H 0.46268 1.19572 0.58666
 H3431 H 0.39666 1.17650 0.58164
 H3432 H 0.38505 1.21025 0.59596
 C3433 C 0.39439 0.80608 1.14043
 C3434 C 0.40359 0.78801 1.13155
 C3435 C 0.39344 0.77731 1.11508
 C3436 C 0.37403 0.78553 1.10718
 C3437 C 0.36475 0.80368 1.11606
 C3438 C 0.37469 0.81414 1.13298
 C3439 C 0.40386 0.75792 1.10659
 C3440 C 0.39339 0.74284 1.09603
 C3441 C 0.40350 0.72283 1.08863
 C3442 C 0.39012 0.70588 1.08345
 C3443 C 0.39873 0.68677 1.07629
 C3444 C 0.42099 0.68414 1.07402
 C3445 C 0.43447 0.70105 1.07915
 C3446 C 0.42585 0.72025 1.08624
 H3447 H 0.40278 0.81358 1.15329
 H3448 H 0.41865 0.78219 1.13781
 H3449 H 0.36601 0.77821 1.09402
 H3450 H 0.34974 0.80941 1.10964
 H3451 H 0.42053 0.75551 1.11051
 H3452 H 0.37631 0.74449 1.09367
 H3453 H 0.37289 0.70738 1.08506
 H3454 H 0.38793 0.67395 1.07268
 H3455 H 0.45166 0.69957 1.07721
 H3456 H 0.43679 0.73303 1.08938
 C3457 C 0.89355 0.69581 0.85933
 C3458 C 0.90331 0.71429 0.86636
 C3459 C 0.89515 0.72517 0.88399
 C3460 C 0.87674 0.71724 0.89433
 C3461 C 0.86695 0.69873 0.88728
 C3462 C 0.87521 0.68781 0.86966
 C3463 C 0.90570 0.74512 0.89039
 C3464 C 0.90393 0.75339 0.90986
 C3465 C 0.91410 0.77356 0.91620
 C3466 C 0.91671 0.77756 0.93790
 C3467 C 0.92520 0.79673 0.94471
 C3468 C 0.93119 0.81247 0.92997
 C3469 C 0.92880 0.80845 0.90823
 C3470 C 0.92026 0.78927 0.90140
 H3471 H 0.90035 0.68789 0.84566
 H3472 H 0.91734 0.72012 0.85798
 H3473 H 0.86950 0.72547 0.90755
 H3474 H 0.85275 0.69314 0.89551
 H3475 H 0.91595 0.75271 0.87871
 H3476 H 0.89528 0.74476 0.92207
 H3477 H 0.91204 0.76582 0.94965
 H3478 H 0.92702 0.79929 0.96156
 H3479 H 0.93287 0.82044 0.89652
 H3480 H 0.91792 0.78719 0.88457
 C3481 C 0.89502 0.19567 0.36186
 C3482 C 0.90389 0.21401 0.37024
 C3483 C 0.89469 0.22369 0.38806
 C3484 C 0.87682 0.21416 0.39789
 C3485 C 0.86789 0.19583 0.38953
 C3486 C 0.87669 0.18642 0.37122
 C3487 C 0.90426 0.24353 0.39595
 C3488 C 0.89317 0.25787 0.40718
 C3489 C 0.90213 0.27833 0.41417
 C3490 C 0.88784 0.29468 0.41949
 C3491 C 0.89542 0.31424 0.42618
 C3492 C 0.91753 0.31786 0.42783
 C3493 C 0.93189 0.30148 0.42270
 C3494 C 0.92430 0.28186 0.41605
 H3495 H 0.90247 0.18894 0.34788
 H3496 H 0.91782 0.22088 0.36252
 H3497 H 0.86975 0.22065 0.41215
 H3498 H 0.85401 0.18913 0.39747
 H3499 H 0.92052 0.24694 0.39099
 H3500 H 0.87633 0.25524 0.41039
 H3501 H 0.87070 0.29238 0.41828
 H3502 H 0.88397 0.32664 0.42983
 H3503 H 0.94900 0.30373 0.42421
 H3504 H 0.93587 0.26950 0.41281
 C3505 C 0.38019 0.70416 0.34566
 C3506 C 0.38939 0.72272 0.35316
 C3507 C 0.38058 0.73325 0.37068
 C3508 C 0.36205 0.72487 0.38046
 C3509 C 0.35277 0.70625 0.37290
 C3510 C 0.36173 0.69567 0.35539
 C3511 C 0.39078 0.75323 0.37759
 C3512 C 0.38851 0.76135 0.39709
 C3513 C 0.39904 0.78120 0.40394
 C3514 C 0.40172 0.78464 0.42572
 C3515 C 0.41093 0.80333 0.43297
 C3516 C 0.41757 0.81917 0.41859
 C3517 C 0.41499 0.81574 0.39677
 C3518 C 0.40575 0.79703 0.38950
 H3519 H 0.38755 0.69655 0.33210
 H3520 H 0.40353 0.72887 0.34521
 H3521 H 0.35437 0.73280 0.39362
 H3522 H 0.33848 0.70027 0.38068
 H3523 H 0.40145 0.76088 0.36633
 H3524 H 0.37940 0.75272 0.40897
 H3525 H 0.39666 0.77280 0.43721
 H3526 H 0.41288 0.80539 0.44988
 H3527 H 0.41953 0.82782 0.38532
 H3528 H 0.40337 0.79539 0.37263
 C3529 C 0.39188 0.19438 0.85750
 C3530 C 0.39930 0.21383 0.86460
 C3531 C 0.38889 0.22437 0.88123
 C3532 C 0.37067 0.21501 0.89063
 C3533 C 0.36318 0.19548 0.88352
 C3534 C 0.37362 0.18490 0.86675
 C3535 C 0.39709 0.24537 0.88751
 C3536 C 0.39299 0.25439 0.90630
 C3537 C 0.40164 0.27533 0.91223
 C3538 C 0.40397 0.28005 0.93379
 C3539 C 0.41196 0.29965 0.94001
 C3540 C 0.41765 0.31503 0.92477
 C3541 C 0.41509 0.31042 0.90319
 C3542 C 0.40708 0.29084 0.89696
 H3543 H 0.40049 0.18692 0.84456
 H3544 H 0.41328 0.22072 0.85699
 H3545 H 0.36182 0.22287 0.90311
 H3546 H 0.34902 0.18888 0.89104
 H3547 H 0.40781 0.25320 0.87642
 H3548 H 0.38396 0.24581 0.91827
 H3549 H 0.39976 0.26847 0.94586
 H3550 H 0.41388 0.30270 0.95676
 H3551 H 0.41885 0.32215 0.89111
 H3552 H 0.40476 0.28817 0.88022
 C3553 C 1.14224 0.69280 1.11309
 C3554 C 1.13518 0.71195 1.10439
 C3555 C 1.11879 0.72362 1.11419
 C3556 C 1.10917 0.71538 1.13277
 C3557 C 1.11623 0.69615 1.14154
 C3558 C 1.13299 0.68460 1.13191
 C3559 C 1.11207 0.74396 1.10420
 C3560 C 1.10177 0.75944 1.11463
 C3561 C 1.09578 0.78013 1.10486
 C3562 C 1.09078 0.79706 1.11832
 C3563 C 1.08464 0.81671 1.11001
 C3564 C 1.08327 0.81992 1.08798
 C3565 C 1.08832 0.80306 1.07443
 C3566 C 1.09437 0.78333 1.08275
 H3567 H 1.15509 0.68451 1.10498
 H3568 H 1.14274 0.71778 1.08997
 H3569 H 1.09600 0.72350 1.14048
 H3570 H 1.10848 0.69040 1.15589
 H3571 H 1.11702 0.74657 1.08792
 H3572 H 1.09844 0.75748 1.13140
 H3573 H 1.09165 0.79509 1.13538
 H3574 H 1.08105 0.82947 1.12085
 H3575 H 1.08703 0.80499 1.05740
 H3576 H 1.09740 0.77063 1.07175
 C3577 C 1.13842 0.19111 0.60671
 C3578 C 1.13130 0.21001 0.59742
 C3579 C 1.11385 0.22112 0.60604
 C3580 C 1.10316 0.21253 0.62385
 C3581 C 1.11023 0.19362 0.63317
 C3582 C 1.12811 0.18267 0.62486
 C3583 C 1.10707 0.24129 0.59580
 C3584 C 1.09643 0.25659 0.60616
 C3585 C 1.09000 0.27713 0.59646
 C3586 C 1.08473 0.29392 0.60999
 C3587 C 1.07797 0.31339 0.60178
 C3588 C 1.07617 0.31656 0.57978
 C3589 C 1.08155 0.29985 0.56615
 C3590 C 1.08829 0.28029 0.57437
 H3591 H 1.15213 0.18324 0.59962
 H3592 H 1.13968 0.21613 0.58357
 H3593 H 1.08914 0.22017 0.63052
 H3594 H 1.10161 0.18764 0.64693
 H3595 H 1.11222 0.24397 0.57958
 H3596 H 1.09306 0.25454 0.62292
 H3597 H 1.08585 0.29196 0.62703
 H3598 H 1.07421 0.32605 0.61269
 H3599 H 1.08000 0.30174 0.54914
 H3600 H 1.09159 0.26765 0.56337
 C3601 C 0.59052 0.68296 0.62456
 C3602 C 0.58180 0.70188 0.61684
 C3603 C 0.59142 0.71253 0.59967
 C3604 C 0.60931 0.70328 0.58960
 C3605 C 0.61805 0.68437 0.59733
 C3606 C 0.60900 0.67420 0.61515
 C3607 C 0.58253 0.73328 0.59297
 C3608 C 0.59448 0.74825 0.58347
 C3609 C 0.58657 0.76979 0.57817
 C3610 C 0.60174 0.78570 0.57422
 C3611 C 0.59524 0.80625 0.56910
 C3612 C 0.57338 0.81135 0.56772
 C3613 C 0.55813 0.79549 0.57159
 C3614 C 0.56463 0.77486 0.57664
 H3615 H 0.58301 0.67547 0.63821
 H3616 H 0.56785 0.70852 0.62470
 H3617 H 0.61665 0.71056 0.57577
 H3618 H 0.63209 0.67789 0.58949
 H3619 H 0.56621 0.73679 0.59766
 H3620 H 0.61133 0.74519 0.58062
 H3621 H 0.61872 0.78225 0.57523
 H3622 H 0.60734 0.81822 0.56638
 H3623 H 0.54118 0.79896 0.57026
 H3624 H 0.55239 0.76300 0.57890
 C3625 C 0.63824 0.18773 1.10582
 C3626 C 0.63172 0.20716 1.09734
 C3627 C 0.61577 0.21921 1.10736
 C3628 C 0.60654 0.21145 1.12633
 C3629 C 0.61312 0.19197 1.13493
 C3630 C 0.62915 0.17981 1.12483
 C3631 C 0.60997 0.24004 1.09790
 C3632 C 0.59117 0.24986 1.10132
 C3633 C 0.58542 0.27056 1.09152
 C3634 C 0.56369 0.27593 1.08960
 C3635 C 0.55752 0.29550 1.08108
 C3636 C 0.57299 0.31030 1.07445
 C3637 C 0.59477 0.30494 1.07626
 C3638 C 0.60095 0.28533 1.08478
 H3639 H 0.65063 0.17905 1.09742
 H3640 H 0.63919 0.21279 1.08279
 H3641 H 0.59461 0.22053 1.13487
 H3642 H 0.60576 0.18661 1.14962
 H3643 H 0.62133 0.24693 1.08682
 H3644 H 0.57899 0.24207 1.11084
 H3645 H 0.55140 0.26491 1.09470
 H3646 H 0.54060 0.29906 1.07970
 H3647 H 0.60706 0.31617 1.07170
 H3648 H 0.61788 0.28214 1.08659
 C3649 C 1.31270 1.10930 0.86008
 C3650 C 1.29397 1.10021 0.86824
 C3651 C 1.28280 1.10968 0.88509
 C3652 C 1.29115 1.12821 0.89405
 C3653 C 1.30990 1.13732 0.88588
 C3654 C 1.32083 1.12805 0.86869
 C3655 C 1.26285 1.09951 0.89301
 C3656 C 1.24739 1.10993 0.90358
 C3657 C 1.22699 1.10011 0.91081
 C3658 C 1.20956 1.11341 0.91554
 C3659 C 1.19010 1.10502 0.92263
 C3660 C 1.18761 1.08307 0.92530
 C3661 C 1.20504 1.06970 0.92067
 C3662 C 1.22457 1.07810 0.91361
 H3663 H 1.32071 1.10163 0.84691
 H3664 H 1.28805 1.08584 0.86117
 H3665 H 1.28349 1.13562 0.90753
 H3666 H 1.31583 1.15163 0.89306
 H3667 H 1.26040 1.08316 0.88875
 H3668 H 1.24905 1.12675 0.90614
 H3669 H 1.21097 1.13040 0.91362
 H3670 H 1.17689 1.11573 0.92584
 H3671 H 1.20370 1.05275 0.92293
 H3672 H 1.23774 1.06729 0.91083
 C3673 C 1.29422 0.62497 0.34460
 C3674 C 1.27535 0.61588 0.35213
 C3675 C 1.26600 0.62260 0.37117
 C3676 C 1.27578 0.63912 0.38241
 C3677 C 1.29477 0.64839 0.37475
 C3678 C 1.30427 0.64128 0.35581
 C3679 C 1.24591 0.61213 0.37818
 C3680 C 1.23883 0.61159 0.39830
 C3681 C 1.21927 0.59996 0.40510
 C3682 C 1.21687 0.59448 0.42660
 C3683 C 1.19849 0.58408 0.43386
 C3684 C 1.18202 0.57894 0.41976
 C3685 C 1.18444 0.58413 0.39820
 C3686 C 1.20278 0.59468 0.39094
 H3687 H 1.30088 0.61914 0.32984
 H3688 H 1.26811 0.60334 0.34306
 H3689 H 1.26873 0.64514 0.39688
 H3690 H 1.30202 0.66100 0.38368
 H3691 H 1.23747 0.60328 0.36627
 H3692 H 1.24826 0.61888 0.41054
 H3693 H 1.22923 0.59837 0.43787
 H3694 H 1.19704 0.58021 0.45058
 H3695 H 1.17177 0.58078 0.38710
 H3696 H 1.20353 0.59917 0.37437
 C3697 C 0.81120 1.14268 0.39044
 C3698 C 0.79205 1.13502 0.39907
 C3699 C 0.78096 1.11856 0.38927
 C3700 C 0.78946 1.10994 0.37045
 C3701 C 0.80867 1.11759 0.36181
 C3702 C 0.81973 1.13412 0.37165
 C3703 C 0.76024 1.11165 0.39869
 C3704 C 0.75095 1.09303 0.39461
 C3705 C 0.73006 1.08647 0.40393
 C3706 C 0.72506 1.06484 0.40473
 C3707 C 0.70536 1.05800 0.41289
 C3708 C 0.69014 1.07267 0.42033
 C3709 C 0.69507 1.09433 0.41944
 C3710 C 0.71474 1.10118 0.41124
 H3711 H 0.81923 1.15544 0.39846
 H3712 H 0.78583 1.14207 0.41348
 H3713 H 0.78115 1.09768 0.36199
 H3714 H 0.81467 1.11075 0.34722
 H3715 H 0.75285 1.12216 0.41008
 H3716 H 0.75922 1.08164 0.38475
 H3717 H 0.73647 1.05318 0.39908
 H3718 H 0.70208 1.04119 0.41350
 H3719 H 0.68347 1.10603 0.42460
 H3720 H 0.71757 1.11803 0.41020
 C3721 C 0.80755 0.64449 0.89185
 C3722 C 0.78832 0.63676 0.90044
 C3723 C 0.77800 0.61937 0.89132
 C3724 C 0.78723 0.60999 0.87328
 C3725 C 0.80639 0.61763 0.86478
 C3726 C 0.81677 0.63502 0.87386
 C3727 C 0.75712 0.61222 0.90015
 C3728 C 0.74912 0.59283 0.89686
 C3729 C 0.72760 0.58601 0.90422
 C3730 C 0.72326 0.56426 0.90587
 C3731 C 0.70300 0.55716 0.91222
 C3732 C 0.68662 0.57170 0.91696
 C3733 C 0.69082 0.59345 0.91491
 C3734 C 0.71103 0.60055 0.90855
 H3735 H 0.81507 0.65795 0.89919
 H3736 H 0.78142 0.64444 0.91420
 H3737 H 0.77949 0.59712 0.86522
 H3738 H 0.81285 0.61003 0.85078
 H3739 H 0.74835 0.62330 0.90996
 H3740 H 0.75883 0.58110 0.88885
 H3741 H 0.73565 0.55272 0.90237
 H3742 H 0.70024 0.54031 0.91376
 H3743 H 0.67834 0.60502 0.91797
 H3744 H 0.71339 0.61740 0.90664
 C3745 C 1.30330 0.87703 1.15332
 C3746 C 1.28374 0.88585 1.14725
 C3747 C 1.27635 0.88358 1.12648
 C3748 C 1.28856 0.87156 1.11202
 C3749 C 1.30805 0.86238 1.11824
 C3750 C 1.31574 0.86529 1.13889
 C3751 C 1.25565 0.89355 1.12078
 C3752 C 1.25153 0.90131 1.10137
 C3753 C 1.23102 0.91176 1.09535
 C3754 C 1.22668 0.91456 1.07370
 C3755 C 1.20732 0.92348 1.06709
 C3756 C 1.19177 0.92989 1.08198
 C3757 C 1.19641 0.92795 1.10367
 C3758 C 1.21583 0.91904 1.11032
 H3759 H 1.30864 0.87938 1.16943
 H3760 H 1.27452 0.89481 1.15873
 H3761 H 1.28299 0.86901 1.09604
 H3762 H 1.31726 0.85333 1.10682
 H3763 H 1.24396 0.89512 1.13341
 H3764 H 1.26367 0.89979 1.08909
 H3765 H 1.23816 0.90946 1.06180
 H3766 H 1.20439 0.92516 1.05024
 H3767 H 1.18475 0.93273 1.11553
 H3768 H 1.21867 0.91794 1.12717
 C3769 C 1.30843 0.36000 0.60783
 C3770 C 1.29013 0.36831 0.59825
 C3771 C 1.27826 0.38443 0.60800
 C3772 C 1.28559 0.39268 0.62733
 C3773 C 1.30403 0.38438 0.63694
 C3774 C 1.31551 0.36776 0.62741
 C3775 C 1.25855 0.39212 0.59732
 C3776 C 1.24220 0.40149 0.60756
 C3777 C 1.22176 0.40787 0.59729
 C3778 C 1.20399 0.41212 0.61036
 C3779 C 1.18449 0.41852 0.60166
 C3780 C 1.18227 0.42093 0.57961
 C3781 C 1.19992 0.41651 0.56641
 C3782 C 1.21953 0.41020 0.57513
 H3783 H 1.31693 0.34734 0.59988
 H3784 H 1.28502 0.36181 0.58328
 H3785 H 1.27729 0.40560 0.63503
 H3786 H 1.30914 0.39085 0.65191
 H3787 H 1.25699 0.38840 0.58070
 H3788 H 1.24318 0.40358 0.62454
 H3789 H 1.20518 0.41048 0.62744
 H3790 H 1.17109 0.42162 0.61222
 H3791 H 1.19871 0.41856 0.54939
 H3792 H 1.23288 0.40769 0.56442
 C3793 C 0.80575 0.88693 0.64536
 C3794 C 0.78636 0.89461 0.63744
 C3795 C 0.77641 0.88474 0.62030
 C3796 C 0.78625 0.86681 0.61130
 C3797 C 0.80568 0.85910 0.61924
 C3798 C 0.81562 0.86903 0.63642
 C3799 C 0.75543 0.89308 0.61306
 C3800 C 0.74721 0.88942 0.59384
 C3801 C 0.72616 0.89796 0.58702
 C3802 C 0.72231 0.90089 0.56528
 C3803 C 0.70266 0.90894 0.55828
 C3804 C 0.68638 0.91409 0.57290
 C3805 C 0.69008 0.91075 0.59463
 C3806 C 0.70969 0.90270 0.60162
 H3807 H 0.81289 0.89498 0.65863
 H3808 H 0.77907 0.90834 0.64477
 H3809 H 0.77883 0.85834 0.59849
 H3810 H 0.81274 0.84518 0.61208
 H3811 H 0.74690 0.90343 0.62384
 H3812 H 0.75654 0.88080 0.58222
 H3813 H 0.73464 0.89718 0.55369
 H3814 H 0.70032 0.91144 0.54144
 H3815 H 0.67764 0.91404 0.60623
 H3816 H 0.71168 0.89987 0.61844
 C3817 C 0.80082 0.38288 1.14809
 C3818 C 0.78196 0.39174 1.14009
 C3819 C 0.77187 0.38297 1.12242
 C3820 C 0.78102 0.36489 1.11301
 C3821 C 0.79994 0.35603 1.12100
 C3822 C 0.81005 0.36489 1.13867
 C3823 C 0.75149 0.39267 1.11497
 C3824 C 0.74335 0.38976 1.09556
 C3825 C 0.72286 0.39936 1.08831
 C3826 C 0.71906 0.40102 1.06643
 C3827 C 0.69980 0.40947 1.05887
 C3828 C 0.68381 0.41638 1.07305
 C3829 C 0.68752 0.41464 1.09495
 C3830 C 0.70676 0.40614 1.10252
 H3831 H 0.80811 0.39012 1.16175
 H3832 H 0.77520 0.40554 1.14777
 H3833 H 0.77348 0.35719 1.09979
 H3834 H 0.80647 0.34207 1.11346
 H3835 H 0.74343 0.40329 1.12581
 H3836 H 0.75235 0.38068 1.08405
 H3837 H 0.73108 0.39581 1.05512
 H3838 H 0.69748 0.41073 1.04190
 H3839 H 0.67531 0.41938 1.10627
 H3840 H 0.70862 0.40447 1.11949
 C3841 C 0.68523 1.10028 1.13025
 C3842 C 0.70326 1.09030 1.12167
 C3843 C 0.71401 1.09911 1.10414
 C3844 C 0.70562 1.11753 1.09453
 C3845 C 0.68755 1.12753 1.10311
 C3846 C 0.67743 1.11927 1.12134
 C3847 C 0.73411 1.08895 1.09674
 C3848 C 0.74988 1.09984 1.08714
 C3849 C 0.77110 1.09074 1.08158
 C3850 C 0.78802 1.10476 1.07746
 C3851 C 0.80834 1.09717 1.07213
 C3852 C 0.81222 1.07533 1.07071
 C3853 C 0.79538 1.06120 1.07484
 C3854 C 0.77495 1.06881 1.08009
 H3855 H 0.67771 1.09332 1.14417
 H3856 H 0.70923 1.07598 1.12919
 H3857 H 0.71297 1.12433 1.08047
 H3858 H 0.68178 1.14195 1.09567
 H3859 H 0.73662 1.07257 1.10118
 H3860 H 0.74784 1.11667 1.08450
 H3861 H 0.78554 1.12171 1.07847
 H3862 H 0.82110 1.10841 1.06923
 H3863 H 0.79791 1.04430 1.07351
 H3864 H 0.76228 1.05743 1.08253
 C3865 C 0.67828 0.63311 0.59918
 C3866 C 0.69855 0.62697 0.59191
 C3867 C 0.71016 0.61105 0.60245
 C3868 C 0.70103 0.60137 0.62056
 C3869 C 0.68073 0.60750 0.62783
 C3870 C 0.66917 0.62354 0.61732
 C3871 C 0.73204 0.60585 0.59467
 C3872 C 0.74228 0.58768 0.59921
 C3873 C 0.76434 0.58283 0.59173
 C3874 C 0.77089 0.56160 0.59068
 C3875 C 0.79169 0.55633 0.58423
 C3876 C 0.80648 0.57222 0.57884
 C3877 C 0.80000 0.59350 0.58001
 C3878 C 0.77919 0.59878 0.58647
 H3879 H 0.66988 0.64554 0.59069
 H3880 H 0.70524 0.63479 0.57802
 H3881 H 0.70966 0.58950 0.62956
 H3882 H 0.67429 0.59992 0.64196
 H3883 H 0.73960 0.61727 0.58417
 H3884 H 0.73402 0.57539 0.60803
 H3885 H 0.75983 0.54902 0.59477
 H3886 H 0.79615 0.53978 0.58331
 H3887 H 0.81119 0.60609 0.57639
 H3888 H 0.77507 0.61535 0.58781
 C3889 C 0.18778 1.10630 0.63718
 C3890 C 0.20663 1.09668 0.62998
 C3891 C 0.21831 1.10550 0.61303
 C3892 C 0.21026 1.12373 0.60280
 C3893 C 0.19138 1.13335 0.60998
 C3894 C 0.18006 1.12491 0.62744
 C3895 C 0.23868 1.09523 0.60647
 C3896 C 0.25476 1.10589 0.59713
 C3897 C 0.27571 1.09631 0.59133
 C3898 C 0.29311 1.10986 0.58765
 C3899 C 0.31305 1.10180 0.58156
 C3900 C 0.31604 1.07995 0.57884
 C3901 C 0.29873 1.06628 0.58267
 C3902 C 0.27871 1.07436 0.58873
 H3903 H 0.17940 1.09924 0.65056
 H3904 H 0.21234 1.08251 0.63796
 H3905 H 0.21838 1.13056 0.58918
 H3906 H 0.18576 1.14751 0.60194
 H3907 H 0.24089 1.07880 0.61090
 H3908 H 0.25307 1.12277 0.59457
 H3909 H 0.29128 1.12680 0.58950
 H3910 H 0.32617 1.11269 0.57897
 H3911 H 0.30053 1.04940 0.58038
 H3912 H 0.26561 1.06339 0.59081
 C3913 C 0.19110 0.60658 1.13877
 C3914 C 0.20923 0.59668 1.13030
 C3915 C 0.21992 0.60542 1.11269
 C3916 C 0.21149 0.62381 1.10305
 C3917 C 0.19332 0.63373 1.11153
 C3918 C 0.18313 0.62541 1.12970
 C3919 C 0.23979 0.59500 1.10505
 C3920 C 0.25537 0.60547 1.09472
 C3921 C 0.27615 0.59586 1.08842
 C3922 C 0.29319 0.60943 1.08335
 C3923 C 0.31305 0.60131 1.07711
 C3924 C 0.31630 0.57937 1.07571
 C3925 C 0.29935 0.56569 1.08083
 C3926 C 0.27940 0.57382 1.08698
 H3927 H 0.18356 0.59959 1.15266
 H3928 H 0.21523 0.58240 1.13786
 H3929 H 0.21879 0.63058 1.08895
 H3930 H 0.18743 0.64805 1.10397
 H3931 H 0.24222 0.57866 1.10970
 H3932 H 0.25352 0.62229 1.09183
 H3933 H 0.29117 0.62644 1.08428
 H3934 H 0.32592 0.61221 1.07344
 H3935 H 0.30139 0.54872 1.07953
 H3936 H 0.26658 0.56276 1.09011
 C3937 C 0.69847 0.88872 0.86016
 C3938 C 0.71668 0.89811 0.86861
 C3939 C 0.72685 0.88923 0.88634
 C3940 C 0.71797 0.87105 0.89596
 C3941 C 0.69974 0.86162 0.88750
 C3942 C 0.68990 0.87023 0.86938
 C3943 C 0.74647 0.89951 0.89434
 C3944 C 0.76137 0.88924 0.90574
 C3945 C 0.78164 0.89903 0.91279
 C3946 C 0.79872 0.88566 0.91842
 C3947 C 0.81812 0.89404 0.92521
 C3948 C 0.82085 0.91603 0.92663
 C3949 C 0.80376 0.92947 0.92114
 C3950 C 0.78429 0.92108 0.91441
 H3951 H 0.69126 0.89588 0.84627
 H3952 H 0.72304 0.91222 0.86102
 H3953 H 0.72484 0.86414 0.91012
 H3954 H 0.69341 0.84755 0.89516
 H3955 H 0.74927 0.91568 0.88933
 H3956 H 0.75941 0.87253 0.90907
 H3957 H 0.79711 0.86864 0.91741
 H3958 H 0.83109 0.88330 0.92915
 H3959 H 0.80532 0.94646 0.92246
 H3960 H 0.77135 0.93196 0.91093
 C3961 C 0.69110 0.38803 0.35545
 C3962 C 0.71001 0.39715 0.36267
 C3963 C 0.72068 0.38874 0.38036
 C3964 C 0.71211 0.37073 0.39058
 C3965 C 0.69318 0.36157 0.38334
 C3966 C 0.68245 0.37009 0.36566
 C3967 C 0.74104 0.39870 0.38699
 C3968 C 0.74929 0.39665 0.40650
 C3969 C 0.76973 0.40652 0.41303
 C3970 C 0.77352 0.40932 0.43474
 C3971 C 0.79282 0.41786 0.44169
 C3972 C 0.80889 0.42370 0.42706
 C3973 C 0.80513 0.42097 0.40531
 C3974 C 0.78583 0.41238 0.39835
 H3975 H 0.68335 0.39502 0.34176
 H3976 H 0.71632 0.41089 0.35439
 H3977 H 0.72016 0.36332 0.40385
 H3978 H 0.68708 0.34766 0.39148
 H3979 H 0.74894 0.40884 0.37547
 H3980 H 0.74039 0.38811 0.41860
 H3981 H 0.76149 0.40486 0.44640
 H3982 H 0.79517 0.41994 0.45854
 H3983 H 0.81738 0.42489 0.39370
 H3984 H 0.78392 0.40985 0.38154
 C3985 C 0.18683 0.89613 0.36444
 C3986 C 0.20521 0.90639 0.37141
 C3987 C 0.21811 0.89720 0.38711
 C3988 C 0.21172 0.87785 0.39639
 C3989 C 0.19327 0.86758 0.38945
 C3990 C 0.18076 0.87647 0.37319
 C3991 C 0.23791 0.90832 0.39343
 C3992 C 0.25505 0.89816 0.40128
 C3993 C 0.27547 0.90857 0.40703
 C3994 C 0.29344 0.89564 0.41057
 C3995 C 0.31281 0.90431 0.41698
 C3996 C 0.31471 0.92620 0.42009
 C3997 C 0.29696 0.93932 0.41612
 C3998 C 0.27745 0.93061 0.40978
 H3999 H 0.17751 0.90358 0.35200
 H4000 H 0.20961 0.92139 0.36418
 H4001 H 0.22080 0.87063 0.40911
 H4002 H 0.18895 0.85259 0.39670
 H4003 H 0.23870 0.92511 0.39009
 H4004 H 0.25459 0.88110 0.40281
 H4005 H 0.29245 0.87866 0.40855
 H4006 H 0.32633 0.89385 0.41969
 H4007 H 0.29797 0.95621 0.41865
 H4008 H 0.26397 0.94118 0.40770
 C4009 C 0.18855 0.35880 0.89308
 C4010 C 0.20751 0.36553 0.90250
 C4011 C 0.21885 0.38288 0.89418
 C4012 C 0.21089 0.39328 0.87603
 C4013 C 0.19193 0.38659 0.86663
 C4014 C 0.18056 0.36922 0.87498
 C4015 C 0.23938 0.38891 0.90415
 C4016 C 0.24816 0.40815 0.90197
 C4017 C 0.26918 0.41406 0.91097
 C4018 C 0.27404 0.43561 0.91293
 C4019 C 0.29405 0.44199 0.92023
 C4020 C 0.30973 0.42692 0.92565
 C4021 C 0.30488 0.40533 0.92385
 C4022 C 0.28487 0.39894 0.91649
 H4023 H 0.18026 0.34533 0.89991
 H4024 H 0.21338 0.35710 0.91634
 H4025 H 0.21947 0.40624 0.86863
 H4026 H 0.18638 0.39486 0.85258
 H4027 H 0.24706 0.37714 0.91410
 H4028 H 0.23944 0.42048 0.89367
 H4029 H 0.26233 0.44760 0.90869
 H4030 H 0.29728 0.45874 0.92163
 H4031 H 0.31681 0.39337 0.92751
 H4032 H 0.28213 0.38219 0.91457
   
