data_POSCAR
  _audit_creation_date              2014-09-24
  _audit_creation_method            'ToBaCCo'
  _symmetry_space_group_name_H-M    'P1'
  _symmetry_Int_Tables_number       1
  _symmetry_cell_setting            triclinic
  loop_
  _symmetry_equiv_pos_as_xyz
 x,y,z
_cell_length_a 82.8166
_cell_length_b 82.8939
_cell_length_c 83.0633
_cell_angle_alpha 89.974200
_cell_angle_beta 89.975800
_cell_angle_gamma 89.939700
loop_
  _atom_site_label
  _atom_site_type_symbol
  _atom_site_fract_x
  _atom_site_fract_y
  _atom_site_fract_z
N1 N 0.35768 0.31291 0.32446
 N2 N 0.35758 0.32427 0.31340
 C3 C 0.37065 0.32250 0.30388
 C4 C 0.37929 0.30938 0.30937
 C5 C 0.37079 0.30351 0.32237
 H6 H 0.37385 0.33029 0.29393
 H7 H 0.37410 0.29346 0.32999
 Cu8 Cu 0.34094 0.34084 0.31335
 Cu9 Cu 0.34159 0.31186 0.34154
 Cu10 Cu 0.31183 0.34141 0.34144
 N11 N 0.32429 0.35740 0.31332
 N12 N 0.31286 0.35746 0.32433
 C13 C 0.30343 0.37053 0.32219
 C14 C 0.30935 0.37906 0.30924
 C15 C 0.32252 0.37047 0.30380
 H16 H 0.29335 0.37383 0.32979
 H17 H 0.33038 0.37370 0.29390
 N18 N 0.31296 0.32418 0.35776
 N19 N 0.32430 0.31295 0.35781
 C20 C 0.32243 0.30363 0.37098
 C21 C 0.30940 0.30935 0.37954
 C22 C 0.30360 0.32229 0.37090
 H23 H 0.33018 0.29367 0.37432
 H24 H 0.29356 0.32997 0.37417
 H25 H 0.32335 0.32320 0.32887
 H26 H 0.33625 0.33622 0.34193
 N27 N 0.35819 0.81326 -0.17577
 N28 N 0.35801 0.82454 -0.18693
 C29 C 0.37107 0.82275 -0.19646
 C30 C 0.37978 0.80972 -0.19086
 C31 C 0.37132 0.80389 -0.17781
 H32 H 0.37423 0.83052 -0.20643
 H33 H 0.37464 0.79383 -0.17019
 Cu34 Cu 0.34134 0.84109 -0.18700
 Cu35 Cu 0.34210 0.81219 -0.15868
 Cu36 Cu 0.31222 0.84163 -0.15888
 N37 N 0.32461 0.85760 -0.18708
 N38 N 0.31320 0.85766 -0.17604
 C39 C 0.30374 0.87072 -0.17815
 C40 C 0.30964 0.87925 -0.19111
 C41 C 0.32281 0.87066 -0.19659
 H42 H 0.29360 0.87396 -0.17059
 H43 H 0.33068 0.87391 -0.20646
 N44 N 0.31338 0.82442 -0.14253
 N45 N 0.32478 0.81324 -0.14243
 C46 C 0.32290 0.80390 -0.12928
 C47 C 0.30978 0.80954 -0.12077
 C48 C 0.30395 0.82246 -0.12945
 H49 H 0.33067 0.79397 -0.12592
 H50 H 0.29384 0.83007 -0.12624
 H51 H 0.32376 0.82340 -0.17137
 H52 H 0.33661 0.83652 -0.15839
 N53 N 0.85742 0.31352 -0.17566
 N54 N 0.85736 0.32490 -0.18670
 C55 C 0.87044 0.32311 -0.19620
 C56 C 0.87902 0.30995 -0.19074
 C57 C 0.87048 0.30407 -0.17777
 H58 H 0.87366 0.33092 -0.20613
 H59 H 0.87366 0.29387 -0.17028
 Cu60 Cu 0.84074 0.34150 -0.18686
 Cu61 Cu 0.84135 0.31249 -0.15857
 Cu62 Cu 0.81181 0.34223 -0.15848
 N63 N 0.82424 0.35822 -0.18661
 N64 N 0.81288 0.35833 -0.17553
 C65 C 0.80346 0.37142 -0.17760
 C66 C 0.80936 0.37991 -0.19059
 C67 C 0.82248 0.37129 -0.19612
 H68 H 0.79329 0.37463 -0.17008
 H69 H 0.83025 0.37444 -0.20611
 N70 N 0.81285 0.32493 -0.14221
 N71 N 0.82409 0.31361 -0.14226
 C72 C 0.82220 0.30424 -0.12913
 C73 C 0.80924 0.31003 -0.12049
 C74 C 0.80351 0.32306 -0.12905
 H75 H 0.82987 0.29420 -0.12585
 H76 H 0.79354 0.33080 -0.12571
 H77 H 0.82302 0.32388 -0.17120
 H78 H 0.83612 0.33682 -0.15827
 N79 N 0.85748 0.81342 0.32445
 N80 N 0.85746 0.82486 0.31347
 C81 C 0.87057 0.82310 0.30396
 C82 C 0.87910 0.80987 0.30934
 C83 C 0.87055 0.80399 0.32230
 H84 H 0.87377 0.83084 0.29395
 H85 H 0.87386 0.79396 0.32994
 Cu86 Cu 0.84071 0.84132 0.31307
 Cu87 Cu 0.84131 0.81230 0.34143
 Cu88 Cu 0.81160 0.84186 0.34135
 N89 N 0.82417 0.85799 0.31339
 N90 N 0.81269 0.85799 0.32434
 C91 C 0.80322 0.87103 0.32217
 C92 C 0.80915 0.87957 0.30922
 C93 C 0.82242 0.87107 0.30387
 H94 H 0.79317 0.87434 0.32980
 H95 H 0.83021 0.87429 0.29389
 N96 N 0.81267 0.82459 0.35764
 N97 N 0.82398 0.81334 0.35766
 C98 C 0.82214 0.80403 0.37084
 C99 C 0.80912 0.80977 0.37944
 C100 C 0.80334 0.82274 0.37081
 H101 H 0.82990 0.79408 0.37418
 H102 H 0.79334 0.83045 0.37411
 H103 H 0.82304 0.82362 0.32864
 H104 H 0.83596 0.83663 0.34170
 N105 N 0.64238 0.68709 0.32454
 N106 N 0.64246 0.67569 0.31352
 C107 C 0.62939 0.67747 0.30401
 C108 C 0.62076 0.69059 0.30948
 C109 C 0.62928 0.69649 0.32244
 H110 H 0.62617 0.66965 0.29410
 H111 H 0.62598 0.70659 0.32999
 Cu112 Cu 0.65908 0.65912 0.31348
 Cu113 Cu 0.65846 0.68814 0.34162
 Cu114 Cu 0.68822 0.65860 0.34153
 N115 N 0.67574 0.64258 0.31345
 N116 N 0.68720 0.64255 0.32442
 C117 C 0.69663 0.62949 0.32229
 C118 C 0.69070 0.62094 0.30937
 C119 C 0.67751 0.62952 0.30395
 H120 H 0.70677 0.62623 0.32983
 H121 H 0.66965 0.62626 0.29409
 N122 N 0.68708 0.67583 0.35784
 N123 N 0.67575 0.68706 0.35788
 C124 C 0.67760 0.69637 0.37105
 C125 C 0.69063 0.69065 0.37962
 C126 C 0.69644 0.67771 0.37098
 H127 H 0.66984 0.70632 0.37439
 H128 H 0.70647 0.67003 0.37426
 H129 H 0.67673 0.67682 0.32892
 H130 H 0.66385 0.66383 0.34202
 N131 N 0.64241 0.18663 -0.17550
 N132 N 0.64257 0.17535 -0.18664
 C133 C 0.62939 0.17706 -0.19603
 C134 C 0.62063 0.19002 -0.19038
 C135 C 0.62919 0.19589 -0.17743
 H136 H 0.62623 0.16932 -0.20603
 H137 H 0.62588 0.20593 -0.16980
 Cu138 Cu 0.65942 0.15898 -0.18727
 Cu139 Cu 0.65860 0.18776 -0.15859
 Cu140 Cu 0.68824 0.15822 -0.15861
 N141 N 0.67587 0.14218 -0.18668
 N142 N 0.68717 0.14204 -0.17554
 C143 C 0.69648 0.12885 -0.17750
 C144 C 0.69061 0.12033 -0.19047
 C145 C 0.67760 0.12904 -0.19610
 H146 H 0.70655 0.12557 -0.16987
 H147 H 0.66984 0.12588 -0.20610
 N148 N 0.68727 0.17556 -0.14242
 N149 N 0.67597 0.18682 -0.14242
 C150 C 0.67789 0.19623 -0.12933
 C151 C 0.69093 0.19053 -0.12075
 C152 C 0.69667 0.17751 -0.12932
 H153 H 0.67015 0.20620 -0.12602
 H154 H 0.70668 0.16981 -0.12600
 H155 H 0.67691 0.17651 -0.17125
 H156 H 0.66378 0.16335 -0.15853
 N157 N 0.14237 0.68698 -0.17549
 N158 N 0.14245 0.67561 -0.18654
 C159 C 0.12938 0.67740 -0.19605
 C160 C 0.12077 0.69054 -0.19057
 C161 C 0.12930 0.69640 -0.17760
 H162 H 0.12617 0.66963 -0.20600
 H163 H 0.12602 0.70649 -0.17001
 Cu164 Cu 0.15902 0.65898 -0.18653
 Cu165 Cu 0.15841 0.68799 -0.15837
 Cu166 Cu 0.18803 0.65830 -0.15835
 N167 N 0.17561 0.64238 -0.18652
 N168 N 0.18698 0.64227 -0.17547
 C169 C 0.19638 0.62918 -0.17756
 C170 C 0.19050 0.62068 -0.19054
 C171 C 0.17738 0.62932 -0.19603
 H172 H 0.20646 0.62588 -0.16997
 H173 H 0.16958 0.62613 -0.20598
 N174 N 0.18692 0.67554 -0.14205
 N175 N 0.17565 0.68684 -0.14205
 C176 C 0.17756 0.69620 -0.12893
 C177 C 0.19055 0.69042 -0.12033
 C178 C 0.19629 0.67742 -0.12891
 H179 H 0.16989 0.70623 -0.12565
 H180 H 0.20630 0.66972 -0.12562
 H181 H 0.17670 0.67660 -0.17097
 H182 H 0.16371 0.66366 -0.15795
 N183 N 0.14229 0.18695 0.32453
 N184 N 0.14240 0.17562 0.31345
 C185 C 0.12930 0.17738 0.30397
 C186 C 0.12066 0.19047 0.30950
 C187 C 0.12919 0.19635 0.32246
 H188 H 0.12611 0.16959 0.29402
 H189 H 0.12597 0.20651 0.32998
 Cu190 Cu 0.15911 0.15912 0.31320
 Cu191 Cu 0.15839 0.18802 0.34157
 Cu192 Cu 0.18814 0.15849 0.34146
 N193 N 0.17571 0.14250 0.31336
 N194 N 0.18710 0.14243 0.32439
 C195 C 0.19653 0.12936 0.32229
 C196 C 0.19062 0.12081 0.30936
 C197 C 0.17746 0.12941 0.30389
 H198 H 0.20673 0.12617 0.32978
 H199 H 0.16962 0.12619 0.29399
 N200 N 0.18704 0.17572 0.35777
 N201 N 0.17570 0.18696 0.35782
 C202 C 0.17756 0.19627 0.37099
 C203 C 0.19059 0.19054 0.37955
 C204 C 0.19640 0.17760 0.37091
 H205 H 0.16980 0.20622 0.37434
 H206 H 0.20642 0.16991 0.37420
 H207 H 0.17675 0.17680 0.32887
 H208 H 0.16379 0.16372 0.34180
 N209 N 0.64220 0.31313 0.67550
 N210 N 0.64231 0.32448 0.68657
 C211 C 0.62926 0.32270 0.69610
 C212 C 0.62061 0.30962 0.69061
 C213 C 0.62910 0.30376 0.67759
 H214 H 0.62609 0.33046 0.70608
 H215 H 0.62578 0.29372 0.66998
 Cu216 Cu 0.65899 0.34099 0.68663
 Cu217 Cu 0.65831 0.31205 0.65843
 Cu218 Cu 0.68817 0.34146 0.65861
 N219 N 0.67567 0.35750 0.68670
 N220 N 0.68714 0.35750 0.67573
 C221 C 0.69660 0.37053 0.67789
 C222 C 0.69067 0.37908 0.69083
 C223 C 0.67745 0.37055 0.69621
 H224 H 0.70672 0.37378 0.67033
 H225 H 0.66958 0.37381 0.70609
 N226 N 0.68702 0.32425 0.64228
 N227 N 0.67563 0.31309 0.64219
 C228 C 0.67750 0.30379 0.62902
 C229 C 0.69058 0.30944 0.62049
 C230 C 0.69641 0.32233 0.62917
 H231 H 0.66971 0.29389 0.62565
 H232 H 0.70650 0.32995 0.62593
 H233 H 0.67657 0.32327 0.67116
 H234 H 0.66374 0.33639 0.65808
 N235 N 0.64223 0.81330 1.17550
 N236 N 0.64241 0.82453 1.18668
 C237 C 0.62924 0.82284 1.19609
 C238 C 0.62047 0.80993 1.19041
 C239 C 0.62901 0.80407 1.17743
 H240 H 0.62610 0.83053 1.20614
 H241 H 0.62569 0.79406 1.16979
 Cu242 Cu 0.65927 0.84084 1.18736
 Cu243 Cu 0.65843 0.81216 1.15858
 Cu244 Cu 0.68811 0.84158 1.15867
 N245 N 0.67569 0.85760 1.18675
 N246 N 0.68699 0.85772 1.17562
 C247 C 0.69628 0.87089 1.17757
 C248 C 0.69039 0.87946 1.19050
 C249 C 0.67739 0.87076 1.19614
 H250 H 0.70635 0.87416 1.16996
 H251 H 0.66964 0.87395 1.20613
 N252 N 0.68714 0.82428 1.14246
 N253 N 0.67581 0.81308 1.14241
 C254 C 0.67771 0.80373 1.12927
 C255 C 0.69078 0.80942 1.12073
 C256 C 0.69655 0.82236 1.12936
 H257 H 0.66994 0.79382 1.12590
 H258 H 0.70657 0.83004 1.12608
 H259 H 0.67678 0.82329 1.17129
 H260 H 0.66369 0.83654 1.15862
 N261 N 0.14232 0.31325 1.17560
 N262 N 0.14240 0.32463 1.18663
 C263 C 0.12929 0.32292 1.19610
 C264 C 0.12065 0.30982 1.19061
 C265 C 0.12921 0.30389 1.17768
 H266 H 0.12609 0.33073 1.20602
 H267 H 0.12601 0.29370 1.17019
 Cu268 Cu 0.15906 0.34114 1.18685
 Cu269 Cu 0.15846 0.31214 1.15858
 Cu270 Cu 0.18810 0.34173 1.15856
 N271 N 0.17559 0.35778 1.18661
 N272 N 0.18698 0.35786 1.17556
 C273 C 0.19635 0.37095 1.17761
 C274 C 0.19041 0.37951 1.19054
 C275 C 0.17731 0.37088 1.19605
 H276 H 0.20655 0.37415 1.17012
 H277 H 0.16948 0.37409 1.20597
 N278 N 0.18707 0.32442 1.14234
 N279 N 0.17579 0.31316 1.14235
 C280 C 0.17770 0.30380 1.12922
 C281 C 0.19071 0.30953 1.12062
 C282 C 0.19644 0.32252 1.12920
 H283 H 0.16998 0.29382 1.12591
 H284 H 0.20643 0.33023 1.12588
 H285 H 0.17677 0.32344 1.17126
 H286 H 0.16375 0.33646 1.15828
 N287 N 0.14250 0.81310 0.67565
 N288 N 0.14257 0.82449 0.68668
 C289 C 0.12947 0.82275 0.69616
 C290 C 0.12084 0.80965 0.69069
 C291 C 0.12939 0.80374 0.67774
 H292 H 0.12620 0.83062 0.70603
 H293 H 0.12607 0.79369 0.67013
 Cu294 Cu 0.15908 0.84113 0.68661
 Cu295 Cu 0.15853 0.81208 0.65851
 Cu296 Cu 0.18800 0.84185 0.65832
 N297 N 0.17563 0.85773 0.68655
 N298 N 0.18693 0.85790 0.67541
 C299 C 0.19627 0.87102 0.67745
 C300 C 0.19044 0.87947 0.69049
 C301 C 0.17741 0.87077 0.69607
 H302 H 0.20627 0.87438 0.66979
 H303 H 0.16966 0.87395 0.70606
 N304 N 0.18694 0.82458 0.64208
 N305 N 0.17576 0.81321 0.64218
 C306 C 0.17767 0.80385 0.62905
 C307 C 0.19057 0.80969 0.62037
 C308 C 0.19624 0.82274 0.62889
 H309 H 0.17002 0.79381 0.62581
 H310 H 0.20613 0.83054 0.62550
 H311 H 0.17672 0.82362 0.67096
 H312 H 0.16359 0.83652 0.65797
 N313 N 0.35776 0.68689 0.67548
 N314 N 0.35767 0.67553 0.68654
 C315 C 0.37072 0.67734 0.69606
 C316 C 0.37937 0.69041 0.69054
 C317 C 0.37090 0.69622 0.67750
 H318 H 0.37387 0.66962 0.70606
 H319 H 0.37431 0.70617 0.66980
 Cu320 Cu 0.34094 0.65906 0.68689
 Cu321 Cu 0.34163 0.68798 0.65847
 Cu322 Cu 0.31186 0.65854 0.65861
 N323 N 0.32438 0.64243 0.68662
 N324 N 0.31293 0.64243 0.67564
 C325 C 0.30357 0.62932 0.67768
 C326 C 0.30946 0.62076 0.69063
 C327 C 0.32261 0.62934 0.69608
 H328 H 0.29357 0.62595 0.67002
 H329 H 0.33043 0.62609 0.70598
 N330 N 0.31293 0.67582 0.64236
 N331 N 0.32429 0.68700 0.64228
 C332 C 0.32246 0.69628 0.62907
 C333 C 0.30942 0.69060 0.62052
 C334 C 0.30358 0.67770 0.62921
 H335 H 0.33029 0.70614 0.62567
 H336 H 0.29358 0.67000 0.62593
 H337 H 0.32341 0.67668 0.67122
 H338 H 0.33634 0.66357 0.65821
 N339 N 0.35769 0.18687 1.17570
 N340 N 0.35766 0.17541 1.18668
 C341 C 0.37073 0.17716 1.19617
 C342 C 0.37937 0.19026 1.19069
 C343 C 0.37081 0.19622 1.17777
 H344 H 0.37399 0.16927 1.20602
 H345 H 0.37411 0.20631 1.17020
 Cu346 Cu 0.34114 0.15877 1.18666
 Cu347 Cu 0.34162 0.18792 1.15861
 Cu348 Cu 0.31204 0.15824 1.15855
 N349 N 0.32451 0.14223 1.18665
 N350 N 0.31311 0.14217 1.17562
 C351 C 0.30377 0.12904 1.17766
 C352 C 0.30968 0.12052 1.19062
 C353 C 0.32274 0.12918 1.19615
 H354 H 0.29370 0.12572 1.17007
 H355 H 0.33061 0.12593 1.20602
 N356 N 0.31311 0.17553 1.14230
 N357 N 0.32434 0.18683 1.14232
 C358 C 0.32243 0.19620 1.12919
 C359 C 0.30949 0.19041 1.12056
 C360 C 0.30377 0.17739 1.12914
 H361 H 0.33011 0.20622 1.12591
 H362 H 0.29382 0.16965 1.12582
 H363 H 0.32341 0.17643 1.17119
 H364 H 0.33639 0.16355 1.15807
 N365 N 0.85769 0.68676 1.17562
 N366 N 0.85759 0.67541 1.18670
 C367 C 0.87067 0.67715 1.19619
 C368 C 0.87930 0.69025 1.19070
 C369 C 0.87078 0.69614 1.17772
 H370 H 0.87389 0.66935 1.20614
 H371 H 0.87402 0.70627 1.17019
 Cu372 Cu 0.84097 0.65888 1.18672
 Cu373 Cu 0.84162 0.68785 1.15851
 Cu374 Cu 0.81192 0.65827 1.15858
 N375 N 0.82440 0.64229 1.18673
 N376 N 0.81300 0.64223 1.17569
 C377 C 0.80363 0.62914 1.17778
 C378 C 0.80956 0.62059 1.19071
 C379 C 0.82268 0.62919 1.19619
 H380 H 0.79348 0.62591 1.17027
 H381 H 0.83052 0.62593 1.20610
 N382 N 0.81302 0.67553 1.14228
 N383 N 0.82433 0.68677 1.14224
 C384 C 0.82245 0.69609 1.12908
 C385 C 0.80944 0.69036 1.12050
 C386 C 0.80366 0.67742 1.12914
 H387 H 0.83017 0.70606 1.12574
 H388 H 0.79364 0.66973 1.12587
 H389 H 0.82327 0.67657 1.17112
 H390 H 0.83621 0.66357 1.15815
 N391 N 0.85766 0.18676 0.67553
 N392 N 0.85749 0.17544 0.68665
 C393 C 0.87063 0.17708 0.69609
 C394 C 0.87934 0.19010 0.69054
 C395 C 0.87084 0.19602 0.67757
 H396 H 0.87379 0.16930 0.70604
 H397 H 0.87417 0.20610 0.67000
 Cu398 Cu 0.84067 0.15913 0.68670
 Cu399 Cu 0.84158 0.18789 0.65841
 Cu400 Cu 0.81190 0.15819 0.65842
 N401 N 0.82439 0.14229 0.68663
 N402 N 0.81306 0.14212 0.67553
 C403 C 0.80382 0.12892 0.67754
 C404 C 0.80977 0.12041 0.69049
 C405 C 0.82278 0.12914 0.69605
 H406 H 0.79374 0.12560 0.66998
 H407 H 0.83057 0.12597 0.70600
 N408 N 0.81297 0.17552 0.64218
 N409 N 0.82424 0.18680 0.64217
 C410 C 0.82234 0.19614 0.62903
 C411 C 0.80936 0.19037 0.62044
 C412 C 0.80360 0.17740 0.62906
 H413 H 0.83005 0.20612 0.62571
 H414 H 0.79362 0.16968 0.62577
 H415 H 0.82312 0.17663 0.67079
 H416 H 0.83624 0.16354 0.65807
 N417 N 0.31297 0.35774 0.67536
 N418 N 0.32430 0.35760 0.68646
 C419 C 0.32257 0.37069 0.69591
 C420 C 0.30957 0.37943 0.69029
 C421 C 0.30367 0.37092 0.67733
 H422 H 0.33040 0.37387 0.70582
 H423 H 0.29356 0.37421 0.66976
 Cu424 Cu 0.34077 0.34084 0.68691
 Cu425 Cu 0.31189 0.34159 0.65841
 Cu426 Cu 0.34143 0.31191 0.65850
 N427 N 0.35748 0.32433 0.68653
 N428 N 0.35757 0.31297 0.67548
 C429 C 0.37074 0.30364 0.67747
 C430 C 0.37930 0.30956 0.69040
 C431 C 0.37059 0.32260 0.69597
 H432 H 0.37400 0.29351 0.66992
 H433 H 0.37381 0.33047 0.70584
 N434 N 0.32413 0.31295 0.64227
 N435 N 0.31289 0.32426 0.64223
 C436 C 0.30353 0.32238 0.62909
 C437 C 0.30924 0.30934 0.62055
 C438 C 0.32222 0.30356 0.62917
 H439 H 0.29358 0.33014 0.62575
 H440 H 0.32993 0.29355 0.62589
 H441 H 0.32317 0.32332 0.67115
 H442 H 0.33631 0.33633 0.65827
 N443 N 0.31319 0.85792 0.17518
 N444 N 0.32447 0.85777 0.18633
 C445 C 0.32278 0.87094 0.19570
 C446 C 0.30981 0.87969 0.19003
 C447 C 0.30393 0.87114 0.17708
 H448 H 0.33054 0.87414 0.20567
 H449 H 0.29389 0.87444 0.16944
 Cu450 Cu 0.34087 0.84096 0.18697
 Cu451 Cu 0.31207 0.84175 0.15826
 Cu452 Cu 0.34172 0.81222 0.15825
 N453 N 0.35770 0.82459 0.18635
 N454 N 0.35789 0.81335 0.17518
 C455 C 0.37113 0.80410 0.17710
 C456 C 0.37964 0.80995 0.19009
 C457 C 0.37086 0.82288 0.19576
 H458 H 0.37446 0.79409 0.16945
 H459 H 0.37401 0.83060 0.20578
 N460 N 0.32436 0.81315 0.14208
 N461 N 0.31303 0.82439 0.14210
 C462 C 0.30364 0.82245 0.12899
 C463 C 0.30941 0.80946 0.12040
 C464 C 0.32247 0.80378 0.12896
 H465 H 0.29366 0.83018 0.12566
 H466 H 0.33025 0.79385 0.12560
 H467 H 0.32340 0.82347 0.17087
 H468 H 0.33654 0.83665 0.15820
 N469 N 0.81309 0.35794 0.17532
 N470 N 0.82453 0.35788 0.18631
 C471 C 0.82273 0.37092 0.19586
 C472 C 0.80957 0.37952 0.19041
 C473 C 0.80368 0.37103 0.17744
 H474 H 0.83055 0.37411 0.20579
 H475 H 0.79364 0.37438 0.16981
 Cu476 Cu 0.84109 0.34125 0.18636
 Cu477 Cu 0.81200 0.34184 0.15827
 Cu478 Cu 0.84156 0.31207 0.15838
 N479 N 0.85764 0.32461 0.18640
 N480 N 0.85764 0.31312 0.17548
 C481 C 0.87069 0.30367 0.17763
 C482 C 0.87924 0.30961 0.19055
 C483 C 0.87069 0.32282 0.19594
 H484 H 0.87401 0.29360 0.17004
 H485 H 0.87395 0.33068 0.20580
 N486 N 0.82431 0.31321 0.14208
 N487 N 0.81308 0.32455 0.14202
 C488 C 0.80374 0.32268 0.12887
 C489 C 0.80944 0.30962 0.12033
 C490 C 0.82239 0.30383 0.12897
 H491 H 0.79379 0.33043 0.12553
 H492 H 0.83007 0.29378 0.12571
 H493 H 0.82340 0.32366 0.17096
 H494 H 0.83639 0.33648 0.15777
 N495 N 0.81310 0.85807 0.67546
 N496 N 0.82450 0.85800 0.68649
 C497 C 0.82268 0.87103 0.69602
 C498 C 0.80956 0.87967 0.69052
 C499 C 0.80370 0.87117 0.67753
 H500 H 0.83052 0.87426 0.70591
 H501 H 0.79367 0.87451 0.66989
 Cu502 Cu 0.84116 0.84144 0.68649
 Cu503 Cu 0.81209 0.84202 0.65834
 Cu504 Cu 0.84171 0.81236 0.65837
 N505 N 0.85768 0.82475 0.68652
 N506 N 0.85774 0.81335 0.67550
 C507 C 0.87084 0.80395 0.67757
 C508 C 0.87935 0.80981 0.69055
 C509 C 0.87072 0.82292 0.69606
 H510 H 0.87419 0.79393 0.66992
 H511 H 0.87397 0.83076 0.70593
 N512 N 0.82446 0.81347 0.64205
 N513 N 0.81318 0.82475 0.64204
 C514 C 0.80384 0.82288 0.62888
 C515 C 0.80959 0.80987 0.62030
 C516 C 0.82259 0.80413 0.62890
 H517 H 0.79386 0.83061 0.62554
 H518 H 0.83033 0.79415 0.62558
 H519 H 0.82359 0.82386 0.67091
 H520 H 0.83655 0.83678 0.65781
 N521 N 0.68696 0.64220 0.67562
 N522 N 0.67566 0.64235 0.68677
 C523 C 0.67745 0.62927 0.69625
 C524 C 0.69049 0.62058 0.69067
 C525 C 0.69632 0.62907 0.67765
 H526 H 0.66969 0.62609 0.70623
 H527 H 0.70636 0.62574 0.67001
 Cu528 Cu 0.65898 0.65891 0.68689
 Cu529 Cu 0.68796 0.65825 0.65852
 Cu530 Cu 0.65833 0.68788 0.65855
 N531 N 0.64242 0.67558 0.68680
 N532 N 0.64227 0.68689 0.67567
 C533 C 0.62914 0.69625 0.67771
 C534 C 0.62064 0.69042 0.69073
 C535 C 0.62933 0.67738 0.69630
 H536 H 0.62581 0.70629 0.67009
 H537 H 0.62615 0.66962 0.70627
 N538 N 0.67558 0.68678 0.64222
 N539 N 0.68686 0.67549 0.64221
 C540 C 0.69625 0.67741 0.62909
 C541 C 0.69052 0.69044 0.62052
 C542 C 0.67751 0.69617 0.62912
 H543 H 0.70629 0.66973 0.62581
 H544 H 0.66983 0.70621 0.62585
 H545 H 0.67660 0.67648 0.67117
 H546 H 0.66355 0.66348 0.65824
 N547 N 0.68701 0.14180 0.17523
 N548 N 0.67566 0.14192 0.18631
 C549 C 0.67741 0.12883 0.19579
 C550 C 0.69049 0.12016 0.19026
 C551 C 0.69640 0.12869 0.17729
 H552 H 0.66962 0.12566 0.20576
 H553 H 0.70660 0.12549 0.16980
 Cu554 Cu 0.65914 0.15861 0.18656
 Cu555 Cu 0.68808 0.15794 0.15822
 Cu556 Cu 0.65852 0.18766 0.15834
 N557 N 0.64250 0.17520 0.18642
 N558 N 0.64242 0.18659 0.17539
 C559 C 0.62933 0.19601 0.17750
 C560 C 0.62079 0.19008 0.19045
 C561 C 0.62941 0.17694 0.19591
 H562 H 0.62615 0.20623 0.17005
 H563 H 0.62619 0.16910 0.20581
 N564 N 0.67580 0.18660 0.14205
 N565 N 0.68705 0.17527 0.14200
 C566 C 0.69640 0.17718 0.12885
 C567 C 0.69068 0.19022 0.12030
 C568 C 0.67771 0.19599 0.12894
 H569 H 0.70637 0.16944 0.12550
 H570 H 0.67003 0.20602 0.12567
 H571 H 0.67686 0.17627 0.17101
 H572 H 0.66377 0.16334 0.15804
 N573 N 0.18691 0.64228 0.17534
 N574 N 0.17546 0.64232 0.18633
 C575 C 0.17721 0.62922 0.19581
 C576 C 0.19036 0.62061 0.19034
 C577 C 0.19630 0.62918 0.17742
 H578 H 0.16934 0.62594 0.20568
 H579 H 0.20643 0.62592 0.16986
 Cu580 Cu 0.15884 0.65890 0.18642
 Cu581 Cu 0.18801 0.65840 0.15829
 Cu582 Cu 0.15838 0.68806 0.15832
 N583 N 0.14229 0.67556 0.18637
 N584 N 0.14226 0.68700 0.17538
 C585 C 0.12917 0.69641 0.17747
 C586 C 0.12061 0.69049 0.19041
 C587 C 0.12920 0.67734 0.19587
 H588 H 0.12592 0.70653 0.16991
 H589 H 0.12591 0.66948 0.20573
 N590 N 0.17569 0.68700 0.14205
 N591 N 0.18697 0.67571 0.14205
 C592 C 0.19636 0.67762 0.12892
 C593 C 0.19062 0.69063 0.12034
 C594 C 0.17760 0.69637 0.12893
 H595 H 0.20635 0.66990 0.12561
 H596 H 0.16988 0.70636 0.12562
 H597 H 0.17655 0.67657 0.17097
 H598 H 0.16360 0.66368 0.15784
 N599 N 0.18674 0.14181 0.67548
 N600 N 0.17543 0.14194 0.68661
 C601 C 0.17722 0.12885 0.69610
 C602 C 0.19028 0.12017 0.69052
 C603 C 0.19610 0.12867 0.67750
 H604 H 0.16944 0.12565 0.70607
 H605 H 0.20614 0.12536 0.66985
 Cu606 Cu 0.15881 0.15857 0.68672
 Cu607 Cu 0.18777 0.15792 0.65842
 Cu608 Cu 0.15824 0.18765 0.65853
 N609 N 0.14226 0.17526 0.68671
 N610 N 0.14218 0.18663 0.67564
 C611 C 0.12905 0.19601 0.67768
 C612 C 0.12051 0.19014 0.69065
 C613 C 0.12915 0.17704 0.69618
 H614 H 0.12575 0.20606 0.67006
 H615 H 0.12590 0.16922 0.70609
 N616 N 0.17548 0.18655 0.64221
 N617 N 0.18672 0.17523 0.64215
 C618 C 0.19609 0.17715 0.62901
 C619 C 0.19040 0.19022 0.62048
 C620 C 0.17742 0.19597 0.62911
 H621 H 0.20607 0.16942 0.62567
 H622 H 0.16975 0.20602 0.62586
 H623 H 0.17640 0.17614 0.67109
 H624 H 0.16333 0.16322 0.65809
 N625 N 0.31322 0.64204 0.32463
 N626 N 0.32441 0.64228 0.31339
 C627 C 0.32269 0.62916 0.30396
 C628 C 0.30979 0.62036 0.30968
 C629 C 0.30398 0.62882 0.32272
 H630 H 0.33038 0.62604 0.29390
 H631 H 0.29400 0.62546 0.33042
 Cu632 Cu 0.34074 0.65912 0.31271
 Cu633 Cu 0.31209 0.65821 0.34156
 Cu634 Cu 0.34145 0.68795 0.34134
 N635 N 0.35750 0.67556 0.31327
 N636 N 0.35760 0.68687 0.32437
 C637 C 0.37079 0.69614 0.32242
 C638 C 0.37938 0.69023 0.30949
 C639 C 0.37068 0.67724 0.30388
 H640 H 0.37408 0.70619 0.33003
 H641 H 0.37390 0.66945 0.29394
 N642 N 0.32414 0.68696 0.35758
 N643 N 0.31298 0.67558 0.35770
 C644 C 0.30365 0.67745 0.37087
 C645 C 0.30927 0.69056 0.37934
 C646 C 0.32218 0.69638 0.37066
 H647 H 0.29379 0.66963 0.37430
 H648 H 0.32983 0.70642 0.37391
 H649 H 0.32320 0.67650 0.32883
 H650 H 0.33653 0.66345 0.34148
 N651 N 0.31295 0.14200 0.82455
 N652 N 0.32432 0.14215 0.81348
 C653 C 0.32271 0.12902 0.80407
 C654 C 0.30965 0.12032 0.80959
 C655 C 0.30365 0.12885 0.82251
 H656 H 0.33056 0.12585 0.79416
 H657 H 0.29351 0.12557 0.83005
 Cu658 Cu 0.34063 0.15900 0.81340
 Cu659 Cu 0.31180 0.15812 0.84159
 Cu660 Cu 0.34147 0.18776 0.84159
 N661 N 0.35750 0.17530 0.81347
 N662 N 0.35763 0.18665 0.82455
 C663 C 0.37078 0.19596 0.82250
 C664 C 0.37933 0.19000 0.80956
 C665 C 0.37064 0.17695 0.80405
 H666 H 0.37404 0.20609 0.83003
 H667 H 0.37381 0.16912 0.79412
 N668 N 0.32413 0.18670 0.85781
 N669 N 0.31285 0.17543 0.85781
 C670 C 0.30345 0.17735 0.87092
 C671 C 0.30918 0.19033 0.87950
 C672 C 0.32219 0.19607 0.87092
 H673 H 0.29342 0.16969 0.87419
 H674 H 0.32985 0.20609 0.87421
 H675 H 0.32303 0.17652 0.82903
 H676 H 0.33613 0.16342 0.84187
 N677 N 0.81324 0.64215 0.82461
 N678 N 0.82459 0.64228 0.81351
 C679 C 0.82284 0.62921 0.80401
 C680 C 0.80978 0.62054 0.80955
 C681 C 0.80392 0.62902 0.82256
 H682 H 0.83061 0.62602 0.79405
 H683 H 0.79390 0.62566 0.83021
 Cu684 Cu 0.84114 0.65890 0.81348
 Cu685 Cu 0.81217 0.65821 0.84172
 Cu686 Cu 0.84179 0.68787 0.84168
 N687 N 0.85773 0.67548 0.81346
 N688 N 0.85784 0.68682 0.82455
 C689 C 0.87096 0.69616 0.82248
 C690 C 0.87944 0.69034 0.80945
 C691 C 0.87079 0.67728 0.80393
 H692 H 0.87430 0.70618 0.83011
 H693 H 0.87400 0.66952 0.79397
 N694 N 0.82451 0.68677 0.85797
 N695 N 0.81323 0.67549 0.85798
 C696 C 0.80389 0.67737 0.87114
 C697 C 0.80965 0.69034 0.87974
 C698 C 0.82264 0.69609 0.87113
 H699 H 0.79393 0.66964 0.87447
 H700 H 0.83036 0.70605 0.87444
 H701 H 0.82353 0.67648 0.82917
 H702 H 0.83656 0.66350 0.84213
 N703 N 0.81338 0.14180 0.32465
 N704 N 0.82461 0.14201 0.31345
 C705 C 0.82292 0.12886 0.30404
 C706 C 0.81001 0.12007 0.30975
 C707 C 0.80416 0.12857 0.32275
 H708 H 0.83062 0.12574 0.29399
 H709 H 0.79416 0.12523 0.33043
 Cu710 Cu 0.84091 0.15888 0.31276
 Cu711 Cu 0.81223 0.15797 0.34158
 Cu712 Cu 0.84159 0.18771 0.34139
 N713 N 0.85764 0.17534 0.31330
 N714 N 0.85774 0.18664 0.32441
 C715 C 0.87090 0.19596 0.32243
 C716 C 0.87947 0.19008 0.30948
 C717 C 0.87080 0.17706 0.30389
 H718 H 0.87417 0.20602 0.33004
 H719 H 0.87402 0.16929 0.29393
 N720 N 0.82429 0.18669 0.35764
 N721 N 0.81312 0.17533 0.35773
 C722 C 0.80376 0.17721 0.37088
 C723 C 0.80940 0.19030 0.37939
 C724 C 0.82233 0.19610 0.37073
 H725 H 0.79386 0.16942 0.37428
 H726 H 0.82998 0.20614 0.37399
 H727 H 0.82331 0.17629 0.32884
 H728 H 0.83662 0.16326 0.34151
 N729 N 0.68683 0.35784 0.32457
 N730 N 0.67558 0.35767 0.31339
 C731 C 0.67729 0.37080 0.30397
 C732 C 0.69024 0.37955 0.30963
 C733 C 0.69609 0.37104 0.32263
 H734 H 0.66958 0.37395 0.29394
 H735 H 0.70613 0.37436 0.33026
 Cu736 Cu 0.65923 0.34083 0.31273
 Cu737 Cu 0.68795 0.34167 0.34148
 Cu738 Cu 0.65850 0.31201 0.34138
 N739 N 0.64244 0.32443 0.31333
 N740 N 0.64234 0.31311 0.32443
 C741 C 0.62917 0.30381 0.32245
 C742 C 0.62059 0.30972 0.30952
 C743 C 0.62928 0.32274 0.30393
 H744 H 0.62591 0.29372 0.33003
 H745 H 0.62609 0.33050 0.29395
 N746 N 0.67582 0.31299 0.35759
 N747 N 0.68702 0.32432 0.35765
 C748 C 0.69639 0.32241 0.37078
 C749 C 0.69073 0.30933 0.37930
 C750 C 0.67778 0.30355 0.37066
 H751 H 0.70633 0.33016 0.37413
 H752 H 0.67014 0.29350 0.37391
 H753 H 0.67683 0.32336 0.32874
 H754 H 0.66357 0.33644 0.34143
 N755 N 0.68686 0.85798 0.82472
 N756 N 0.67556 0.85781 0.81359
 C757 C 0.67738 0.87082 0.80405
 C758 C 0.69035 0.87956 0.80964
 C759 C 0.69621 0.87110 0.82266
 H760 H 0.66959 0.87401 0.79415
 H761 H 0.70633 0.87441 0.83019
 Cu762 Cu 0.65907 0.84112 0.81321
 Cu763 Cu 0.68789 0.84192 0.84175
 Cu764 Cu 0.65836 0.81226 0.84168
 N765 N 0.64237 0.82464 0.81360
 N766 N 0.64227 0.81328 0.82466
 C767 C 0.62915 0.80392 0.82259
 C768 C 0.62062 0.80984 0.80965
 C769 C 0.62933 0.82286 0.80410
 H770 H 0.62588 0.79376 0.83009
 H771 H 0.62611 0.83070 0.79423
 N772 N 0.67560 0.81335 0.85797
 N773 N 0.68682 0.82468 0.85802
 C774 C 0.69617 0.82279 0.87115
 C775 C 0.69052 0.80972 0.87968
 C776 C 0.67755 0.80396 0.87107
 H777 H 0.70611 0.83055 0.87449
 H778 H 0.66989 0.79392 0.87434
 H779 H 0.67662 0.82370 0.82906
 H780 H 0.66345 0.83674 0.84190
 N781 N 0.18688 0.35755 0.82439
 N782 N 0.17540 0.35758 0.81344
 C783 C 0.17719 0.37064 0.80393
 C784 C 0.19040 0.37917 0.80934
 C785 C 0.19633 0.37059 0.82226
 H786 H 0.16930 0.37395 0.79409
 H787 H 0.20646 0.37380 0.82979
 Cu788 Cu 0.15872 0.34107 0.81351
 Cu789 Cu 0.18791 0.34151 0.84153
 Cu790 Cu 0.15811 0.31206 0.84170
 N791 N 0.14210 0.32452 0.81356
 N792 N 0.14203 0.31314 0.82461
 C793 C 0.12895 0.30374 0.82251
 C794 C 0.12044 0.30960 0.80951
 C795 C 0.12905 0.32272 0.80403
 H796 H 0.12567 0.29365 0.83009
 H797 H 0.12584 0.33052 0.79409
 N798 N 0.17541 0.31310 0.85797
 N799 N 0.18678 0.32428 0.85788
 C800 C 0.19616 0.32237 0.87100
 C801 C 0.19034 0.30947 0.87967
 C802 C 0.17728 0.30379 0.87115
 H803 H 0.20621 0.33002 0.87425
 H804 H 0.16950 0.29388 0.87453
 H805 H 0.17636 0.32332 0.82901
 H806 H 0.16354 0.33636 0.84210
 N807 N 0.18665 0.85798 0.32453
 N808 N 0.17543 0.85778 0.31334
 C809 C 0.17713 0.87092 0.30391
 C810 C 0.19005 0.87969 0.30960
 C811 C 0.19590 0.87118 0.32260
 H812 H 0.16943 0.87405 0.29387
 H813 H 0.20592 0.87452 0.33025
 Cu814 Cu 0.15908 0.84096 0.31266
 Cu815 Cu 0.18776 0.84184 0.34149
 Cu816 Cu 0.15825 0.81225 0.34145
 N817 N 0.14227 0.82459 0.31332
 N818 N 0.14210 0.81334 0.32449
 C819 C 0.12891 0.80407 0.32254
 C820 C 0.12038 0.80993 0.30955
 C821 C 0.12913 0.82288 0.30390
 H822 H 0.12559 0.79404 0.33018
 H823 H 0.12599 0.83060 0.29388
 N824 N 0.17556 0.81323 0.35767
 N825 N 0.18680 0.82452 0.35768
 C826 C 0.19619 0.82262 0.37080
 C827 C 0.19049 0.80958 0.37937
 C828 C 0.17750 0.80383 0.37078
 H829 H 0.20615 0.83035 0.37412
 H830 H 0.16982 0.79383 0.37408
 H831 H 0.17659 0.82354 0.32882
 H832 H 0.16333 0.83671 0.34143
 C833 C 0.26044 0.96585 0.23963
 C834 C 0.25000 0.95764 0.24992
 C835 C 0.23956 0.96585 0.26022
 C836 C 0.23942 0.98288 0.26038
 C837 C 0.24999 0.99142 0.24994
 C838 C 0.26057 0.98288 0.23949
 C839 C 0.27091 0.99156 0.22925
 C840 C 0.27092 1.00839 0.22927
 C841 C 0.26057 1.01707 0.23951
 C842 C 0.25000 1.00853 0.24995
 C843 C 0.22907 0.99157 0.27062
 C844 C 0.22907 1.00839 0.27063
 C845 C 0.23943 1.01708 0.26041
 C846 C 0.23957 1.03411 0.26027
 C847 C 0.25000 1.04231 0.24997
 C848 C 0.26043 1.03410 0.23967
 H849 H 0.27909 0.98539 0.22116
 H850 H 0.27912 1.01456 0.22120
 H851 H 0.22089 0.98539 0.27871
 H852 H 0.22088 1.01457 0.27871
 H853 H 0.25000 0.94453 0.24991
 H854 H 0.25000 1.05542 0.24997
 C855 C 0.26037 0.46580 0.73976
 C856 C 0.24993 0.45762 0.75007
 C857 C 0.23950 0.46583 0.76036
 C858 C 0.23937 0.48287 0.76050
 C859 C 0.24994 0.49140 0.75004
 C860 C 0.26051 0.48284 0.73959
 C861 C 0.27085 0.49151 0.72934
 C862 C 0.27086 0.50834 0.72932
 C863 C 0.26052 0.51705 0.73955
 C864 C 0.24995 0.50851 0.75002
 C865 C 0.22903 0.49157 0.77073
 C866 C 0.22904 0.50840 0.77072
 C867 C 0.23939 0.51708 0.76047
 C868 C 0.23954 0.53411 0.76031
 C869 C 0.24996 0.54230 0.75000
 C870 C 0.26038 0.53409 0.73969
 H871 H 0.27902 0.48531 0.72125
 H872 H 0.27903 0.51451 0.72121
 H873 H 0.22085 0.48541 0.77883
 H874 H 0.22087 0.51459 0.77882
 H875 H 0.24992 0.44451 0.75008
 H876 H 0.24998 0.55542 0.75000
 C877 C 0.76066 -0.03442 0.26046
 C878 C 0.75023 -0.04261 0.25017
 C879 C 0.73979 -0.03440 0.23988
 C880 C 0.73966 -0.01737 0.23971
 C881 C 0.75023 -0.00883 0.25015
 C882 C 0.76080 -0.01739 0.26060
 C883 C 0.77112 -0.00871 0.27084
 C884 C 0.77111 0.00812 0.27083
 C885 C 0.76078 0.01681 0.26058
 C886 C 0.75022 0.00827 0.25014
 C887 C 0.72932 -0.00868 0.22946
 C888 C 0.72932 0.00814 0.22945
 C889 C 0.73965 0.01683 0.23968
 C890 C 0.73977 0.03386 0.23982
 C891 C 0.75021 0.04205 0.25010
 C892 C 0.76064 0.03384 0.26040
 H893 H 0.77930 -0.01489 0.27894
 H894 H 0.77928 0.01429 0.27893
 H895 H 0.72115 -0.01485 0.22137
 H896 H 0.72114 0.01432 0.22135
 H897 H 0.75023 -0.05572 0.25017
 H898 H 0.75022 0.05516 0.25008
 C899 C 0.73973 0.53402 0.73988
 C900 C 0.75014 0.54221 0.75019
 C901 C 0.76054 0.53400 0.76052
 C902 C 0.76069 0.51696 0.76066
 C903 C 0.75014 0.50842 0.75020
 C904 C 0.73958 0.51699 0.73974
 C905 C 0.72923 0.50831 0.72951
 C906 C 0.72922 0.49148 0.72951
 C907 C 0.73957 0.48277 0.73974
 C908 C 0.75013 0.49131 0.75020
 C909 C 0.77104 0.50825 0.77088
 C910 C 0.77104 0.49142 0.77088
 C911 C 0.76069 0.48275 0.76065
 C912 C 0.76055 0.46571 0.76050
 C913 C 0.75013 0.45752 0.75019
 C914 C 0.73972 0.46573 0.73988
 H915 H 0.72105 0.51450 0.72143
 H916 H 0.72103 0.48532 0.72144
 H917 H 0.77924 0.51441 0.77896
 H918 H 0.77921 0.48523 0.77896
 H919 H 0.75014 0.55532 0.75018
 H920 H 0.75013 0.44441 0.75020
 C921 C 0.26046 0.46588 0.26029
 C922 C 0.25004 0.45769 0.24999
 C923 C 0.23960 0.46590 0.23970
 C924 C 0.23946 0.48294 0.23953
 C925 C 0.25003 0.49148 0.24997
 C926 C 0.26059 0.48292 0.26043
 C927 C 0.27093 0.49160 0.27066
 C928 C 0.27091 0.50843 0.27066
 C929 C 0.26056 0.51713 0.26042
 C930 C 0.25001 0.50859 0.24996
 C931 C 0.22912 0.49163 0.22929
 C932 C 0.22911 0.50846 0.22928
 C933 C 0.23944 0.51714 0.23952
 C934 C 0.23955 0.53418 0.23967
 C935 C 0.24998 0.54237 0.24996
 C936 C 0.26041 0.53416 0.26026
 H937 H 0.27911 0.48542 0.27875
 H938 H 0.27907 0.51461 0.27875
 H939 H 0.22094 0.48546 0.22121
 H940 H 0.22092 0.51464 0.22119
 H941 H 0.25004 0.44458 0.24998
 H942 H 0.24998 0.55548 0.24995
 C943 C 0.73935 1.03443 0.76055
 C944 C 0.74978 1.04261 0.75024
 C945 C 0.76021 1.03439 0.73995
 C946 C 0.76036 1.01737 0.73980
 C947 C 0.74980 1.00882 0.75025
 C948 C 0.73923 1.01738 0.76071
 C949 C 0.72890 1.00868 0.77095
 C950 C 0.72892 0.99185 0.77095
 C951 C 0.73928 0.98316 0.76070
 C952 C 0.74982 0.99171 0.75024
 C953 C 0.77070 1.00869 0.72954
 C954 C 0.77071 0.99186 0.72952
 C955 C 0.76038 0.98317 0.73976
 C956 C 0.76026 0.96613 0.73990
 C957 C 0.74987 0.95792 0.75024
 C958 C 0.73946 0.96613 0.76056
 H959 H 0.72072 1.01486 0.77904
 H960 H 0.72075 0.98566 0.77905
 H961 H 0.77887 1.01487 0.72143
 H962 H 0.77889 0.98569 0.72142
 H963 H 0.74979 1.05573 0.75023
 H964 H 0.74989 0.94481 0.75024
 C965 C 0.76042 0.46588 0.23978
 C966 C 0.74998 0.45768 0.25007
 C967 C 0.73953 0.46589 0.26035
 C968 C 0.73939 0.48292 0.26051
 C969 C 0.74996 0.49146 0.25007
 C970 C 0.76054 0.48291 0.23962
 C971 C 0.77088 0.49160 0.22937
 C972 C 0.77086 0.50842 0.22937
 C973 C 0.76051 0.51711 0.23961
 C974 C 0.74995 0.50857 0.25007
 C975 C 0.72904 0.49160 0.27075
 C976 C 0.72904 0.50843 0.27076
 C977 C 0.73939 0.51712 0.26053
 C978 C 0.73954 0.53415 0.26039
 C979 C 0.74995 0.54234 0.25007
 C980 C 0.76036 0.53414 0.23976
 H981 H 0.77906 0.48542 0.22128
 H982 H 0.77904 0.51460 0.22127
 H983 H 0.72087 0.48543 0.27885
 H984 H 0.72086 0.51461 0.27885
 H985 H 0.74998 0.44457 0.25006
 H986 H 0.74995 0.55545 0.25007
 C987 C 0.26084 -0.03453 0.76048
 C988 C 0.25043 -0.04272 0.75016
 C989 C 0.23998 -0.03450 0.73988
 C990 C 0.23980 -0.01747 0.73973
 C991 C 0.25036 -0.00893 0.75017
 C992 C 0.26095 -0.01748 0.76062
 C993 C 0.27128 -0.00878 0.77083
 C994 C 0.27123 0.00805 0.77085
 C995 C 0.26084 0.01674 0.76064
 C996 C 0.25031 0.00819 0.75017
 C997 C 0.22941 -0.00879 0.72952
 C998 C 0.22938 0.00804 0.72951
 C999 C 0.23972 0.01674 0.73973
 C1000 C 0.23982 0.03378 0.73988
 C1001 C 0.25022 0.04198 0.75020
 C1002 C 0.26064 0.03377 0.76053
 H1003 H 0.27949 -0.01495 0.77890
 H1004 H 0.27940 0.01424 0.77893
 H1005 H 0.22121 -0.01497 0.72147
 H1006 H 0.22117 0.01421 0.72144
 H1007 H 0.25046 -0.05583 0.75013
 H1008 H 0.25021 0.05509 0.75019
 C1009 C 0.23962 0.26032 1.03413
 C1010 C 0.24997 0.24991 1.04232
 C1011 C 0.26031 0.23949 1.03413
 C1012 C 0.26045 0.23933 1.01714
 C1013 C 0.24995 0.24989 1.00861
 C1014 C 0.23947 0.26046 1.01713
 C1015 C 0.22919 0.27079 1.00846
 C1016 C 0.22918 0.27077 0.99167
 C1017 C 0.23945 0.26042 0.98301
 C1018 C 0.24994 0.24987 0.99154
 C1019 C 0.27071 0.22899 1.00847
 C1020 C 0.27071 0.22897 0.99168
 C1021 C 0.26043 0.23931 0.98301
 C1022 C 0.26027 0.23943 0.96601
 C1023 C 0.24992 0.24984 0.95783
 C1024 C 0.23958 0.26026 0.96601
 H1025 H 0.22108 0.27897 1.01462
 H1026 H 0.22105 0.27894 0.98551
 H1027 H 0.27884 0.22082 1.01463
 H1028 H 0.27882 0.22080 0.98552
 H1029 H 0.24999 0.24992 1.05540
 H1030 H 0.24992 0.24982 0.94475
 C1031 C 0.26035 0.73974 0.46583
 C1032 C 0.25000 0.75015 0.45765
 C1033 C 0.23966 0.76056 0.46584
 C1034 C 0.23953 0.76072 0.48283
 C1035 C 0.25004 0.75017 0.49136
 C1036 C 0.26052 0.73961 0.48283
 C1037 C 0.27081 0.72928 0.49149
 C1038 C 0.27084 0.72929 0.50828
 C1039 C 0.26057 0.73963 0.51695
 C1040 C 0.25006 0.75018 0.50843
 C1041 C 0.22926 0.77105 0.49151
 C1042 C 0.22928 0.77106 0.50830
 C1043 C 0.23958 0.76074 0.51696
 C1044 C 0.23974 0.76060 0.53395
 C1045 C 0.25010 0.75020 0.54214
 C1046 C 0.26044 0.73978 0.53395
 H1047 H 0.27893 0.72111 0.48532
 H1048 H 0.27897 0.72112 0.51443
 H1049 H 0.22113 0.77922 0.48535
 H1050 H 0.22116 0.77923 0.51446
 H1051 H 0.24998 0.75014 0.44457
 H1052 H 0.25011 0.75020 0.55522
 C1053 C 0.26058 0.76041 0.03389
 C1054 C 0.25018 0.75006 0.04208
 C1055 C 0.23981 0.73970 0.03389
 C1056 C 0.23970 0.73955 0.01690
 C1057 C 0.25025 0.75004 0.00837
 C1058 C 0.26076 0.76054 0.01690
 C1059 C 0.27109 0.77082 0.00823
 C1060 C 0.27113 0.77081 -0.00856
 C1061 C 0.26083 0.76053 -0.01724
 C1062 C 0.25028 0.75004 -0.00870
 C1063 C 0.22940 0.72927 0.00823
 C1064 C 0.22943 0.72927 -0.00856
 C1065 C 0.23976 0.73954 -0.01723
 C1066 C 0.23993 0.73967 -0.03422
 C1067 C 0.25033 0.75001 -0.04241
 C1068 C 0.26071 0.76038 -0.03424
 H1069 H 0.27922 0.77895 0.01440
 H1070 H 0.27930 0.77893 -0.01472
 H1071 H 0.22124 0.72115 0.01440
 H1072 H 0.22128 0.72114 -0.01471
 H1073 H 0.25016 0.75007 0.05516
 H1074 H 0.25034 0.74998 -0.05549
 C1075 C 0.23952 0.23948 0.53412
 C1076 C 0.24989 0.24985 0.54231
 C1077 C 0.26026 0.26022 0.53413
 C1078 C 0.26041 0.26037 0.51713
 C1079 C 0.24990 0.24987 0.50860
 C1080 C 0.23938 0.23935 0.51713
 C1081 C 0.22909 0.22906 0.50845
 C1082 C 0.22910 0.22907 0.49167
 C1083 C 0.23941 0.23937 0.48300
 C1084 C 0.24991 0.24988 0.49153
 C1085 C 0.27072 0.27067 0.50847
 C1086 C 0.27073 0.27068 0.49168
 C1087 C 0.26044 0.26040 0.48301
 C1088 C 0.26030 0.26026 0.46601
 C1089 C 0.24993 0.24990 0.45782
 C1090 C 0.23956 0.23953 0.46601
 H1091 H 0.22095 0.22091 0.51461
 H1092 H 0.22096 0.22094 0.48550
 H1093 H 0.27885 0.27880 0.51464
 H1094 H 0.27888 0.27882 0.48552
 H1095 H 0.24988 0.24984 0.55539
 H1096 H 0.24994 0.24991 0.44474
 C1097 C 0.76044 0.73969 0.96603
 C1098 C 0.75011 0.75011 0.95784
 C1099 C 0.73975 0.76052 0.96602
 C1100 C 0.73959 0.76066 0.98302
 C1101 C 0.75007 0.75009 0.99155
 C1102 C 0.76056 0.73953 0.98303
 C1103 C 0.77082 0.72918 0.99170
 C1104 C 0.77080 0.72917 1.00849
 C1105 C 0.76052 0.73951 1.01715
 C1106 C 0.75005 0.75008 1.00862
 C1107 C 0.72930 0.77099 0.99168
 C1108 C 0.72929 0.77098 1.00847
 C1109 C 0.73955 0.76064 1.01714
 C1110 C 0.73969 0.76049 1.03413
 C1111 C 0.75002 0.75006 1.04233
 C1112 C 0.76037 0.73964 1.03415
 H1113 H 0.77895 0.72101 0.98555
 H1114 H 0.77892 0.72099 1.01466
 H1115 H 0.72118 0.77916 0.98551
 H1116 H 0.72117 0.77916 1.01462
 H1117 H 0.75011 0.75011 0.94476
 H1118 H 0.75001 0.75006 1.05541
 C1119 C 0.73953 0.26017 0.53397
 C1120 C 0.74988 0.24975 0.54215
 C1121 C 0.76024 0.23935 0.53396
 C1122 C 0.76041 0.23922 0.51697
 C1123 C 0.74991 0.24977 0.50844
 C1124 C 0.73940 0.26032 0.51697
 C1125 C 0.72913 0.27066 0.50829
 C1126 C 0.72916 0.27067 0.49150
 C1127 C 0.73944 0.26034 0.48284
 C1128 C 0.74993 0.24979 0.49137
 C1129 C 0.77070 0.22889 0.50830
 C1130 C 0.77071 0.22891 0.49151
 C1131 C 0.76044 0.23924 0.48284
 C1132 C 0.76031 0.23940 0.46585
 C1133 C 0.74996 0.24982 0.45766
 C1134 C 0.73960 0.26021 0.46585
 H1135 H 0.72100 0.27882 0.51445
 H1136 H 0.72104 0.27885 0.48534
 H1137 H 0.77882 0.22072 0.51446
 H1138 H 0.77885 0.22074 0.48534
 H1139 H 0.74987 0.24973 0.55523
 H1140 H 0.74998 0.24983 0.44458
 C1141 C 0.76024 0.26058 -0.03417
 C1142 C 0.74989 0.25019 -0.04235
 C1143 C 0.73957 0.23977 -0.03416
 C1144 C 0.73945 0.23960 -0.01716
 C1145 C 0.74994 0.25013 -0.00864
 C1146 C 0.76041 0.26069 -0.01717
 C1147 C 0.77070 0.27100 -0.00852
 C1148 C 0.77073 0.27097 0.00827
 C1149 C 0.76047 0.26064 0.01695
 C1150 C 0.74997 0.25011 0.00843
 C1151 C 0.72919 0.22926 -0.00848
 C1152 C 0.72922 0.22924 0.00831
 C1153 C 0.73950 0.23955 0.01697
 C1154 C 0.73968 0.23966 0.03396
 C1155 C 0.75003 0.25005 0.04214
 C1156 C 0.76036 0.26047 0.03395
 H1157 H 0.77881 0.27916 -0.01469
 H1158 H 0.77886 0.27912 0.01443
 H1159 H 0.72107 0.22111 -0.01464
 H1160 H 0.72111 0.22107 0.01448
 H1161 H 0.74988 0.25021 -0.05543
 H1162 H 0.75005 0.25003 0.05522
 C1163 C 0.76029 0.76060 0.46602
 C1164 C 0.74994 0.75021 0.45784
 C1165 C 0.73959 0.73981 0.46603
 C1166 C 0.73945 0.73965 0.48302
 C1167 C 0.74995 0.75018 0.49155
 C1168 C 0.76045 0.76072 0.48302
 C1169 C 0.77073 0.77103 0.49168
 C1170 C 0.77074 0.77100 0.50847
 C1171 C 0.76046 0.76068 0.51714
 C1172 C 0.74996 0.75016 0.50862
 C1173 C 0.72917 0.72934 0.49169
 C1174 C 0.72918 0.72932 0.50848
 C1175 C 0.73946 0.73962 0.51715
 C1176 C 0.73961 0.73975 0.53415
 C1177 C 0.74997 0.75012 0.54233
 C1178 C 0.76032 0.76052 0.53414
 H1179 H 0.77885 0.77919 0.48552
 H1180 H 0.77887 0.77914 0.51464
 H1181 H 0.72105 0.72119 0.48553
 H1182 H 0.72105 0.72116 0.51465
 H1183 H 0.74993 0.75023 0.44476
 H1184 H 0.74997 0.75011 0.55541
 C1185 C 1.03414 0.23970 0.26031
 C1186 C 1.04234 0.25017 0.25004
 C1187 C 1.03412 0.26061 0.23977
 C1188 C 1.01707 0.26072 0.23960
 C1189 C 1.00853 0.25011 0.25002
 C1190 C 1.01709 0.23953 0.26044
 C1191 C 1.00841 0.22915 0.27064
 C1192 C 0.99156 0.22913 0.27063
 C1193 C 0.98286 0.23948 0.26041
 C1194 C 0.99140 0.25009 0.25000
 C1195 C 1.00836 0.27107 0.22938
 C1196 C 0.99152 0.27105 0.22937
 C1197 C 0.98284 0.26068 0.23958
 C1198 C 0.96579 0.26052 0.23973
 C1199 C 0.95759 0.25005 0.24998
 C1200 C 0.96581 0.23959 0.26024
 H1201 H 1.01460 0.22096 0.27871
 H1202 H 0.98539 0.22092 0.27869
 H1203 H 1.01454 0.27927 0.22131
 H1204 H 0.98533 0.27924 0.22130
 H1205 H 1.05546 0.25019 0.25005
 H1206 H 0.94447 0.25004 0.24997
 C1207 C 0.46576 0.26029 0.73979
 C1208 C 0.45756 0.24985 0.75008
 C1209 C 0.46578 0.23944 0.76040
 C1210 C 0.48283 0.23930 0.76054
 C1211 C 0.49138 0.24986 0.75008
 C1212 C 0.48282 0.26043 0.73963
 C1213 C 0.49152 0.27076 0.72939
 C1214 C 0.50837 0.27077 0.72940
 C1215 C 0.51707 0.26043 0.73964
 C1216 C 0.50851 0.24987 0.75009
 C1217 C 0.49154 0.22896 0.77077
 C1218 C 0.50838 0.22897 0.77078
 C1219 C 0.51708 0.23931 0.76055
 C1220 C 0.53413 0.23945 0.76040
 C1221 C 0.54234 0.24989 0.75011
 C1222 C 0.53413 0.26030 0.73979
 H1223 H 0.48533 0.27894 0.72130
 H1224 H 0.51455 0.27894 0.72131
 H1225 H 0.48535 0.22077 0.77884
 H1226 H 0.51456 0.22081 0.77888
 H1227 H 0.44444 0.24983 0.75008
 H1228 H 0.55546 0.24990 0.75013
 C1229 C -0.03435 0.23952 0.73984
 C1230 C -0.04257 0.24998 0.75008
 C1231 C -0.03438 0.26044 0.76033
 C1232 C -0.01732 0.26056 0.76049
 C1233 C -0.00876 0.24996 0.75009
 C1234 C -0.01730 0.23937 0.73968
 C1235 C -0.00860 0.22900 0.72948
 C1236 C 0.00824 0.22900 0.72946
 C1237 C 0.01693 0.23936 0.73966
 C1238 C 0.00837 0.24995 0.75009
 C1239 C -0.00863 0.27092 0.77069
 C1240 C 0.00822 0.27090 0.77070
 C1241 C 0.01692 0.26052 0.76050
 C1242 C 0.03397 0.26035 0.76036
 C1243 C 0.04218 0.24991 0.75007
 C1244 C 0.03398 0.23949 0.73980
 H1245 H -0.01478 0.22079 0.72144
 H1246 H 0.01442 0.22080 0.72140
 H1247 H -0.01482 0.27914 0.77874
 H1248 H 0.01440 0.27908 0.77877
 H1249 H -0.05570 0.24999 0.75007
 H1250 H 0.05531 0.24989 0.75007
 C1251 C 0.46594 0.26017 0.26034
 C1252 C 0.45774 0.24973 0.25007
 C1253 C 0.46597 0.23930 0.23979
 C1254 C 0.48302 0.23916 0.23962
 C1255 C 0.49156 0.24976 0.25003
 C1256 C 0.48299 0.26033 0.26046
 C1257 C 0.49167 0.27070 0.27065
 C1258 C 0.50851 0.27072 0.27064
 C1259 C 0.51723 0.26037 0.26043
 C1260 C 0.50868 0.24977 0.25002
 C1261 C 0.49173 0.22881 0.22941
 C1262 C 0.50858 0.22883 0.22940
 C1263 C 0.51726 0.23919 0.23960
 C1264 C 0.53431 0.23933 0.23975
 C1265 C 0.54250 0.24980 0.25000
 C1266 C 0.53428 0.26025 0.26026
 H1267 H 0.48547 0.27890 0.27872
 H1268 H 0.51468 0.27891 0.27871
 H1269 H 0.48557 0.22061 0.22135
 H1270 H 0.51478 0.22064 0.22133
 H1271 H 0.44462 0.24972 0.25007
 H1272 H 0.55562 0.24981 0.24999
 C1273 C 1.03423 0.73982 0.76035
 C1274 C 1.04243 0.75026 0.75007
 C1275 C 1.03421 0.76068 0.73977
 C1276 C 1.01716 0.76080 0.73962
 C1277 C 1.00862 0.75023 0.75006
 C1278 C 1.01719 0.73967 0.76050
 C1279 C 1.00850 0.72930 0.77072
 C1280 C 0.99166 0.72928 0.77072
 C1281 C 0.98295 0.73963 0.76050
 C1282 C 0.99150 0.75021 0.75006
 C1283 C 1.00845 0.77115 0.72939
 C1284 C 0.99161 0.77113 0.72939
 C1285 C 0.98293 0.76076 0.73961
 C1286 C 0.96588 0.76059 0.73974
 C1287 C 0.95768 0.75017 0.75005
 C1288 C 0.96590 0.73977 0.76037
 H1289 H 1.01470 0.72112 0.77879
 H1290 H 0.98549 0.72107 0.77878
 H1291 H 1.01462 0.77935 0.72132
 H1292 H 0.98541 0.77931 0.72132
 H1293 H 1.05556 0.75027 0.75007
 H1294 H 0.94456 0.75015 0.75004
 C1295 C 0.46580 0.76054 0.23976
 C1296 C 0.45759 0.75008 0.25002
 C1297 C 0.46580 0.73964 0.26031
 C1298 C 0.48285 0.73952 0.26048
 C1299 C 0.49141 0.75011 0.25006
 C1300 C 0.48285 0.76068 0.23962
 C1301 C 0.49154 0.77105 0.22942
 C1302 C 0.50838 0.77107 0.22943
 C1303 C 0.51708 0.76072 0.23966
 C1304 C 0.50853 0.75013 0.25007
 C1305 C 0.49155 0.72917 0.27071
 C1306 C 0.50840 0.72919 0.27072
 C1307 C 0.51709 0.73956 0.26051
 C1308 C 0.53414 0.73972 0.26039
 C1309 C 0.54234 0.75016 0.25011
 C1310 C 0.53412 0.76061 0.23983
 H1311 H 0.48535 0.77925 0.22134
 H1312 H 0.51455 0.77928 0.22137
 H1313 H 0.48538 0.72098 0.27878
 H1314 H 0.51458 0.72100 0.27880
 H1315 H 0.44447 0.75007 0.24999
 H1316 H 0.55546 0.75016 0.25010
 C1317 C -0.03428 0.73963 0.23977
 C1318 C -0.04249 0.75008 0.25004
 C1319 C -0.03429 0.76054 0.26028
 C1320 C -0.01724 0.76069 0.26041
 C1321 C -0.00868 0.75010 0.25000
 C1322 C -0.01723 0.73950 0.23960
 C1323 C -0.00852 0.72913 0.22940
 C1324 C 0.00832 0.72914 0.22937
 C1325 C 0.01701 0.73951 0.23956
 C1326 C 0.00845 0.75010 0.24998
 C1327 C -0.00856 0.77106 0.27060
 C1328 C 0.00829 0.77106 0.27059
 C1329 C 0.01699 0.76070 0.26038
 C1330 C 0.03404 0.76058 0.26021
 C1331 C 0.04226 0.75013 0.24994
 C1332 C 0.03406 0.73966 0.23970
 H1333 H -0.01470 0.72092 0.22135
 H1334 H 0.01451 0.72095 0.22130
 H1335 H -0.01474 0.77926 0.27866
 H1336 H 0.01447 0.77926 0.27864
 H1337 H -0.05562 0.75007 0.25006
 H1338 H 0.05539 0.75014 0.24992
 C1339 C 0.46573 0.73979 0.73993
 C1340 C 0.45750 0.75021 0.75022
 C1341 C 0.46569 0.76063 0.76052
 C1342 C 0.48275 0.76077 0.76067
 C1343 C 0.49133 0.75021 0.75023
 C1344 C 0.48278 0.73964 0.73979
 C1345 C 0.49150 0.72930 0.72956
 C1346 C 0.50835 0.72931 0.72956
 C1347 C 0.51703 0.73966 0.73977
 C1348 C 0.50846 0.75022 0.75022
 C1349 C 0.49144 0.77112 0.77088
 C1350 C 0.50829 0.77111 0.77089
 C1351 C 0.51700 0.76078 0.76066
 C1352 C 0.53406 0.76063 0.76051
 C1353 C 0.54229 0.75022 0.75021
 C1354 C 0.53409 0.73980 0.73992
 H1355 H 0.48533 0.72112 0.72147
 H1356 H 0.51454 0.72114 0.72148
 H1357 H 0.48524 0.77930 0.77895
 H1358 H 0.51446 0.77928 0.77899
 H1359 H 0.44438 0.75023 0.75021
 H1360 H 0.55541 0.75020 0.75022
 C1361 C 0.39444 0.30351 0.30332
 C1362 C 0.40703 0.29838 0.29811
 C1363 C 0.42142 0.29194 0.29165
 C1364 C 0.43319 0.28588 0.28564
 C1365 C 0.44610 0.27796 0.27784
 C1366 C 0.45597 0.27035 0.27036
 C1367 C 0.39409 0.80411 0.80337
 C1368 C 0.40668 0.79895 0.79817
 C1369 C 0.42109 0.79248 0.79176
 C1370 C 0.43288 0.78639 0.78577
 C1371 C 0.44580 0.77845 0.77799
 C1372 C 0.45570 0.77083 0.77052
 C1373 C -0.10590 0.30396 0.80314
 C1374 C -0.09334 0.29879 0.79792
 C1375 C -0.07893 0.29233 0.79150
 C1376 C -0.06714 0.28626 0.78552
 C1377 C -0.05423 0.27832 0.77775
 C1378 C -0.04435 0.27068 0.77030
 C1379 C -0.10574 0.80398 0.30330
 C1380 C -0.09317 0.79883 0.29808
 C1381 C -0.07884 0.79234 0.29154
 C1382 C -0.06710 0.78626 0.28549
 C1383 C -0.05418 0.77835 0.27770
 C1384 C -0.04427 0.77075 0.27025
 C1385 C 0.60562 0.69647 0.30340
 C1386 C 0.59304 0.70159 0.29820
 C1387 C 0.57863 0.70801 0.29177
 C1388 C 0.56685 0.71405 0.28576
 C1389 C 0.55396 0.72197 0.27793
 C1390 C 0.54410 0.72956 0.27043
 C1391 C 0.60550 0.19596 0.80355
 C1392 C 0.59295 0.20114 0.79832
 C1393 C 0.57858 0.20762 0.79182
 C1394 C 0.56683 0.21369 0.78576
 C1395 C 0.55396 0.22163 0.77792
 C1396 C 0.54410 0.22925 0.77042
 C1397 C 1.10565 0.69646 0.80337
 C1398 C 1.09308 0.70160 0.79817
 C1399 C 1.07870 0.70804 0.79170
 C1400 C 1.06694 0.71409 0.78567
 C1401 C 1.05406 0.72202 0.77785
 C1402 C 1.04420 0.72963 0.77036
 C1403 C 1.10557 0.19642 0.30339
 C1404 C 1.09302 0.20156 0.29815
 C1405 C 1.07863 0.20798 0.29167
 C1406 C 1.06685 0.21401 0.28565
 C1407 C 1.05396 0.22191 0.27782
 C1408 C 1.04410 0.22951 0.27032
 C1409 C 0.60549 0.30373 0.69671
 C1410 C 0.59292 0.29859 0.70193
 C1411 C 0.57855 0.29212 0.70839
 C1412 C 0.56679 0.28603 0.71442
 C1413 C 0.55394 0.27808 0.72224
 C1414 C 0.54408 0.27046 0.72975
 C1415 C 0.60535 0.80401 0.19650
 C1416 C 0.59281 0.79885 0.20177
 C1417 C 0.57847 0.79240 0.20832
 C1418 C 0.56674 0.78635 0.21443
 C1419 C 0.55390 0.77843 0.22232
 C1420 C 0.54407 0.77081 0.22983
 C1421 C 1.10556 0.30392 0.19676
 C1422 C 1.09300 0.29882 0.20202
 C1423 C 1.07859 0.29244 0.20849
 C1424 C 1.06681 0.28640 0.21450
 C1425 C 1.05393 0.27847 0.22230
 C1426 C 1.04407 0.27083 0.22978
 C1427 C 1.10568 0.80383 0.69672
 C1428 C 1.09308 0.79875 0.70192
 C1429 C 1.07868 0.79236 0.70838
 C1430 C 1.06690 0.78633 0.71440
 C1431 C 1.05402 0.77844 0.72222
 C1432 C 1.04415 0.77084 0.72973
 C1433 C 0.39447 0.69632 0.69668
 C1434 C 0.40701 0.70148 0.70196
 C1435 C 0.42134 0.70797 0.70850
 C1436 C 0.43305 0.71407 0.71459
 C1437 C 0.44591 0.72201 0.72244
 C1438 C 0.45577 0.72962 0.72992
 C1439 C 0.39451 0.19611 0.19676
 C1440 C 0.40709 0.20120 0.20198
 C1441 C 0.42150 0.20759 0.20842
 C1442 C 0.43328 0.21362 0.21444
 C1443 C 0.44615 0.22152 0.22228
 C1444 C 0.45601 0.22912 0.22977
 C1445 C -0.10563 0.69620 0.19682
 C1446 C -0.09308 0.70136 0.20204
 C1447 C -0.07870 0.70781 0.20850
 C1448 C -0.06695 0.71387 0.21452
 C1449 C -0.05409 0.72180 0.22233
 C1450 C -0.04423 0.72943 0.22980
 C1451 C -0.10558 0.19602 0.69670
 C1452 C -0.09304 0.20118 0.70195
 C1453 C -0.07869 0.20765 0.70845
 C1454 C -0.06697 0.21375 0.71451
 C1455 C -0.05414 0.22170 0.72236
 C1456 C -0.04430 0.22932 0.72984
 C1457 C 0.30352 0.39423 0.30322
 C1458 C 0.29844 0.40684 0.29804
 C1459 C 0.29205 0.42126 0.29162
 C1460 C 0.28604 0.43307 0.28563
 C1461 C 0.27818 0.44601 0.27784
 C1462 C 0.27061 0.45591 0.27035
 C1463 C 0.30404 -0.10643 0.80312
 C1464 C 0.29892 -0.09383 0.79793
 C1465 C 0.29252 -0.07936 0.79155
 C1466 C 0.28650 -0.06750 0.78563
 C1467 C 0.27862 -0.05449 0.77792
 C1468 C 0.27103 -0.04453 0.77049
 C1469 C 0.80371 0.39417 0.80358
 C1470 C 0.79857 0.40672 0.79833
 C1471 C 0.79219 0.42113 0.79186
 C1472 C 0.78618 0.43293 0.78585
 C1473 C 0.77831 0.44585 0.77803
 C1474 C 0.77072 0.45574 0.77054
 C1475 C 0.80361 -0.10607 0.30353
 C1476 C 0.79853 -0.09346 0.29834
 C1477 C 0.79213 -0.07908 0.29184
 C1478 C 0.78614 -0.06729 0.28579
 C1479 C 0.77834 -0.05433 0.27799
 C1480 C 0.77081 -0.04440 0.27050
 C1481 C 0.30361 0.60561 0.69668
 C1482 C 0.29850 0.59302 0.70188
 C1483 C 0.29207 0.57863 0.70835
 C1484 C 0.28603 0.56686 0.71437
 C1485 C 0.27813 0.55395 0.72218
 C1486 C 0.27055 0.54405 0.72966
 C1487 C 0.30383 1.10540 0.19668
 C1488 C 0.29871 1.09282 0.20187
 C1489 C 0.29228 1.07844 0.20829
 C1490 C 0.28620 1.06669 0.21429
 C1491 C 0.27823 1.05386 0.22212
 C1492 C 0.27060 1.04404 0.22963
 C1493 C 0.80365 0.60549 0.19679
 C1494 C 0.79852 0.59292 0.20197
 C1495 C 0.79210 0.57853 0.20839
 C1496 C 0.78606 0.56676 0.21441
 C1497 C 0.77815 0.55391 0.22223
 C1498 C 0.77054 0.54407 0.22973
 C1499 C 0.80387 1.10533 0.69662
 C1500 C 0.79870 1.09280 0.70186
 C1501 C 0.79219 1.07849 0.70836
 C1502 C 0.78605 1.06682 0.71446
 C1503 C 0.77805 1.05407 0.72237
 C1504 C 0.77040 1.04430 0.72991
 C1505 C 0.69656 0.60580 0.30332
 C1506 C 0.70164 0.59320 0.29814
 C1507 C 0.70800 0.57876 0.29173
 C1508 C 0.71399 0.56695 0.28574
 C1509 C 0.72184 0.55402 0.27794
 C1510 C 0.72940 0.54412 0.27045
 C1511 C 0.69624 1.10603 0.80376
 C1512 C 0.70138 1.09346 0.79852
 C1513 C 0.70778 1.07906 0.79201
 C1514 C 0.71378 1.06726 0.78595
 C1515 C 0.72162 1.05433 0.77810
 C1516 C 0.72918 1.04442 0.77059
 C1517 C 0.19637 0.60554 0.80342
 C1518 C 0.20148 0.59296 0.79822
 C1519 C 0.20789 0.57858 0.79176
 C1520 C 0.21391 0.56681 0.78571
 C1521 C 0.22179 0.55394 0.77786
 C1522 C 0.22938 0.54407 0.77035
 C1523 C 0.19654 1.10572 0.30326
 C1524 C 0.20165 1.09314 0.29804
 C1525 C 0.20800 1.07872 0.29160
 C1526 C 0.21397 1.06690 0.28560
 C1527 C 0.22182 1.05397 0.27779
 C1528 C 0.22939 1.04407 0.27031
 C1529 C 0.69656 0.39420 0.69691
 C1530 C 0.70167 0.40677 0.70211
 C1531 C 0.70809 0.42117 0.70855
 C1532 C 0.71412 0.43295 0.71455
 C1533 C 0.72200 0.44587 0.72234
 C1534 C 0.72957 0.45577 0.72982
 C1535 C 0.69632 -0.10544 0.19656
 C1536 C 0.70149 -0.09292 0.20180
 C1537 C 0.70795 -0.07861 0.20835
 C1538 C 0.71402 -0.06691 0.21446
 C1539 C 0.72196 -0.05412 0.22236
 C1540 C 0.72959 -0.04432 0.22987
 C1541 C 0.19632 0.39459 0.19665
 C1542 C 0.20143 0.40714 0.20189
 C1543 C 0.20781 0.42152 0.20837
 C1544 C 0.21384 0.43328 0.21439
 C1545 C 0.22176 0.44613 0.22222
 C1546 C 0.22939 0.45597 0.22970
 C1547 C 0.19635 -0.10546 0.69660
 C1548 C 0.20152 -0.09294 0.70187
 C1549 C 0.20802 -0.07865 0.70840
 C1550 C 0.21414 -0.06697 0.71447
 C1551 C 0.22214 -0.05420 0.72234
 C1552 C 0.22979 -0.04442 0.72986
 C1553 C 0.30347 0.30344 0.39469
 C1554 C 0.29833 0.29830 0.40727
 C1555 C 0.29191 0.29188 0.42166
 C1556 C 0.28588 0.28584 0.43342
 C1557 C 0.27800 0.27795 0.44626
 C1558 C 0.27043 0.27038 0.45609
 C1559 C 0.30382 0.80358 -0.10565
 C1560 C 0.29869 0.79841 -0.09308
 C1561 C 0.29229 0.79196 -0.07868
 C1562 C 0.28627 0.78593 -0.06691
 C1563 C 0.27840 0.77806 -0.05404
 C1564 C 0.27083 0.77050 -0.04419
 C1565 C 0.80330 0.30407 -0.10536
 C1566 C 0.79816 0.29889 -0.09279
 C1567 C 0.79175 0.29240 -0.07843
 C1568 C 0.78573 0.28632 -0.06670
 C1569 C 0.77786 0.27837 -0.05389
 C1570 C 0.77031 0.27075 -0.04409
 C1571 C 0.80322 0.80386 0.39461
 C1572 C 0.79812 0.79873 0.40721
 C1573 C 0.79174 0.79231 0.42162
 C1574 C 0.78575 0.78626 0.43340
 C1575 C 0.77791 0.77835 0.44626
 C1576 C 0.77038 0.77076 0.45609
 C1577 C 0.69653 0.30349 0.60535
 C1578 C 0.70167 0.29834 0.59278
 C1579 C 0.70807 0.29190 0.57838
 C1580 C 0.71406 0.28584 0.56661
 C1581 C 0.72190 0.27793 0.55374
 C1582 C 0.72944 0.27033 0.54390
 C1583 C 0.69669 0.80354 1.10556
 C1584 C 0.70181 0.79845 1.09295
 C1585 C 0.70818 0.79209 1.07852
 C1586 C 0.71418 0.78609 1.06673
 C1587 C 0.72204 0.77823 1.05387
 C1588 C 0.72959 0.77064 1.04404
 C1589 C 0.19663 0.30361 1.10547
 C1590 C 0.20175 0.29849 1.09288
 C1591 C 0.20814 0.29207 1.07848
 C1592 C 0.21415 0.28603 1.06671
 C1593 C 0.22200 0.27811 1.05387
 C1594 C 0.22954 0.27050 1.04405
 C1595 C 0.19648 0.80378 0.60521
 C1596 C 0.20163 0.79865 0.59264
 C1597 C 0.20808 0.79223 0.57826
 C1598 C 0.21413 0.78620 0.56652
 C1599 C 0.22204 0.77831 0.55369
 C1600 C 0.22962 0.77074 0.54388
 C1601 C 0.30348 0.69653 0.60537
 C1602 C 0.29833 0.70169 0.59280
 C1603 C 0.29191 0.70813 0.57842
 C1604 C 0.28590 0.71417 0.56665
 C1605 C 0.27806 0.72205 0.55375
 C1606 C 0.27054 0.72962 0.54389
 C1607 C 0.30355 0.19632 1.10542
 C1608 C 0.29839 0.20145 1.09285
 C1609 C 0.29194 0.20786 1.07848
 C1610 C 0.28588 0.21389 1.06673
 C1611 C 0.27799 0.22176 1.05388
 C1612 C 0.27042 0.22934 1.04406
 C1613 C 0.80350 0.69628 1.10536
 C1614 C 0.79835 0.70142 1.09279
 C1615 C 0.79192 0.70786 1.07842
 C1616 C 0.78588 0.71392 1.06669
 C1617 C 0.77801 0.72186 1.05387
 C1618 C 0.77045 0.72947 1.04406
 C1619 C 0.80344 0.19625 0.60527
 C1620 C 0.79831 0.20134 0.59268
 C1621 C 0.79189 0.20771 0.57827
 C1622 C 0.78585 0.21372 0.56651
 C1623 C 0.77794 0.22161 0.55368
 C1624 C 0.77036 0.22920 0.54388
 C1625 C 0.69655 0.69657 0.39476
 C1626 C 0.70167 0.70171 0.40733
 C1627 C 0.70807 0.70814 0.42171
 C1628 C 0.71408 0.71419 0.43346
 C1629 C 0.72195 0.72209 0.44630
 C1630 C 0.72950 0.72967 0.45611
 C1631 C 0.69684 0.19648 -0.10561
 C1632 C 0.70192 0.20164 -0.09302
 C1633 C 0.70826 0.20808 -0.07861
 C1634 C 0.71421 0.21413 -0.06683
 C1635 C 0.72200 0.22202 -0.05394
 C1636 C 0.72951 0.22961 -0.04409
 C1637 C 0.19653 0.69639 -0.10523
 C1638 C 0.20171 0.70155 -0.09269
 C1639 C 0.20817 0.70801 -0.07836
 C1640 C 0.21425 0.71407 -0.06665
 C1641 C 0.22218 0.72198 -0.05388
 C1642 C 0.22979 0.72956 -0.04411
 C1643 C 0.19650 0.19643 0.39471
 C1644 C 0.20161 0.20155 0.40730
 C1645 C 0.20801 0.20796 0.42169
 C1646 C 0.21402 0.21398 0.43344
 C1647 C 0.22189 0.22185 0.44628
 C1648 C 0.22945 0.22942 0.45609
 C1649 C 0.30365 0.39451 0.69642
 C1650 C 0.29850 0.40703 0.70171
 C1651 C 0.29207 0.42138 0.70825
 C1652 C 0.28603 0.43314 0.71431
 C1653 C 0.27813 0.44600 0.72218
 C1654 C 0.27054 0.45584 0.72972
 C1655 C 0.30388 0.89480 0.19609
 C1656 C 0.29872 0.90734 0.20135
 C1657 C 0.29227 0.92166 0.20793
 C1658 C 0.28621 0.93335 0.21408
 C1659 C 0.27826 0.94613 0.22203
 C1660 C 0.27063 0.95592 0.22959
 C1661 C 0.80372 0.39466 0.19646
 C1662 C 0.79860 0.40723 0.20168
 C1663 C 0.79217 0.42158 0.20818
 C1664 C 0.78611 0.43331 0.21427
 C1665 C 0.77819 0.44613 0.22217
 C1666 C 0.77059 0.45595 0.22972
 C1667 C 0.80364 0.89479 0.69661
 C1668 C 0.79847 0.90733 0.70188
 C1669 C 0.79200 0.92167 0.70841
 C1670 C 0.78593 0.93342 0.71448
 C1671 C 0.77802 0.94630 0.72233
 C1672 C 0.77043 0.95617 0.72985
 C1673 C 0.69638 0.60543 0.69672
 C1674 C 0.70151 0.59285 0.70194
 C1675 C 0.70795 0.57847 0.70842
 C1676 C 0.71401 0.56671 0.71447
 C1677 C 0.72195 0.55385 0.72233
 C1678 C 0.72956 0.54399 0.72984
 C1679 C 0.69647 0.10512 0.19645
 C1680 C 0.70161 0.09259 0.20176
 C1681 C 0.70799 0.07822 0.20829
 C1682 C 0.71403 0.06647 0.21436
 C1683 C 0.72197 0.05364 0.22225
 C1684 C 0.72959 0.04381 0.22978
 C1685 C 0.19625 0.60549 0.19642
 C1686 C 0.20136 0.59293 0.20167
 C1687 C 0.20775 0.57856 0.20820
 C1688 C 0.21379 0.56681 0.21427
 C1689 C 0.22172 0.55396 0.22214
 C1690 C 0.22935 0.54413 0.22965
 C1691 C 0.19624 0.10506 0.69661
 C1692 C 0.20142 0.09251 0.70185
 C1693 C 0.20791 0.07816 0.70838
 C1694 C 0.21401 0.06643 0.71446
 C1695 C 0.22198 0.05359 0.72233
 C1696 C 0.22961 0.04374 0.72984
 C1697 C 0.30387 0.60528 0.30357
 C1698 C 0.29870 0.59276 0.29830
 C1699 C 0.29222 0.57845 0.29175
 C1700 C 0.28615 0.56674 0.28567
 C1701 C 0.27821 0.55392 0.27780
 C1702 C 0.27059 0.54410 0.27028
 C1703 C 0.30383 0.10519 0.80350
 C1704 C 0.29874 0.09262 0.79828
 C1705 C 0.29233 0.07823 0.79185
 C1706 C 0.28628 0.06645 0.78588
 C1707 C 0.27836 0.05357 0.77811
 C1708 C 0.27077 0.04372 0.77060
 C1709 C 0.80388 0.60543 0.80346
 C1710 C 0.79875 0.59286 0.79826
 C1711 C 0.79231 0.57846 0.79184
 C1712 C 0.78624 0.56670 0.78584
 C1713 C 0.77830 0.55383 0.77804
 C1714 C 0.77070 0.54396 0.77055
 C1715 C 0.80409 0.10498 0.30366
 C1716 C 0.79893 0.09245 0.29840
 C1717 C 0.79247 0.07813 0.29187
 C1718 C 0.78640 0.06642 0.28579
 C1719 C 0.77846 0.05361 0.27791
 C1720 C 0.77084 0.04378 0.27041
 C1721 C 0.69615 0.39466 0.30356
 C1722 C 0.70130 0.40721 0.29833
 C1723 C 0.70774 0.42156 0.29182
 C1724 C 0.71380 0.43329 0.28576
 C1725 C 0.72172 0.44613 0.27789
 C1726 C 0.72933 0.45595 0.27037
 C1727 C 0.69622 0.89466 0.80350
 C1728 C 0.70135 0.90720 0.79823
 C1729 C 0.70777 0.92160 0.79180
 C1730 C 0.71378 0.93343 0.78586
 C1731 C 0.72167 0.94635 0.77810
 C1732 C 0.72929 0.95620 0.77061
 C1733 C 0.19631 0.39429 0.80328
 C1734 C 0.20144 0.40687 0.79810
 C1735 C 0.20786 0.42127 0.79167
 C1736 C 0.21389 0.43306 0.78567
 C1737 C 0.22176 0.44597 0.77787
 C1738 C 0.22933 0.45587 0.77039
 C1739 C 0.19596 0.89479 0.30351
 C1740 C 0.20113 0.90732 0.29825
 C1741 C 0.20763 0.92163 0.29172
 C1742 C 0.21374 0.93333 0.28565
 C1743 C 0.22172 0.94612 0.27777
 C1744 C 0.22936 0.95592 0.27025
 C1745 C 0.39439 0.30363 0.69652
 C1746 C 0.40693 0.29847 0.70181
 C1747 C 0.42129 0.29204 0.70833
 C1748 C 0.43306 0.28600 0.71439
 C1749 C 0.44594 0.27809 0.72224
 C1750 C 0.45579 0.27048 0.72976
 C1751 C 0.39474 0.80401 0.19619
 C1752 C 0.40727 0.79884 0.20148
 C1753 C 0.42159 0.79238 0.20808
 C1754 C 0.43328 0.78631 0.21423
 C1755 C 0.44607 0.77836 0.22217
 C1756 C 0.45587 0.77073 0.22973
 C1757 C 0.89441 0.30376 0.19657
 C1758 C 0.90700 0.29867 0.20177
 C1759 C 0.92139 0.29226 0.20825
 C1760 C 0.93314 0.28622 0.21431
 C1761 C 0.94599 0.27830 0.22219
 C1762 C 0.95583 0.27070 0.22971
 C1763 C 0.89450 0.80393 0.69660
 C1764 C 0.90707 0.79880 0.70183
 C1765 C 0.92143 0.79236 0.70833
 C1766 C 0.93319 0.78629 0.71437
 C1767 C 0.94606 0.77837 0.72221
 C1768 C 0.95592 0.77076 0.72971
 C1769 C 0.60549 0.30378 0.30343
 C1770 C 0.59296 0.29861 0.29817
 C1771 C 0.57862 0.29213 0.29165
 C1772 C 0.56689 0.28604 0.28559
 C1773 C 0.55405 0.27810 0.27774
 C1774 C 0.54422 0.27046 0.27025
 C1775 C 0.60551 0.80395 0.80349
 C1776 C 0.59297 0.79880 0.79822
 C1777 C 0.57858 0.79236 0.79177
 C1778 C 0.56676 0.78634 0.78580
 C1779 C 0.55384 0.77845 0.77802
 C1780 C 0.54399 0.77083 0.77054
 C1781 C 0.10535 0.30367 0.80341
 C1782 C 0.09280 0.29851 0.79818
 C1783 C 0.07843 0.29206 0.79172
 C1784 C 0.06668 0.28600 0.78569
 C1785 C 0.05380 0.27810 0.77787
 C1786 C 0.04394 0.27051 0.77037
 C1787 C 0.10528 0.80401 0.30345
 C1788 C 0.09274 0.79885 0.29818
 C1789 C 0.07841 0.79239 0.29164
 C1790 C 0.06668 0.78632 0.28556
 C1791 C 0.05383 0.77840 0.27771
 C1792 C 0.04399 0.77078 0.27021
 C1793 C 0.60550 0.69634 0.69680
 C1794 C 0.59292 0.70150 0.70202
 C1795 C 0.57854 0.70797 0.70849
 C1796 C 0.56678 0.71405 0.71453
 C1797 C 0.55392 0.72199 0.72239
 C1798 C 0.54406 0.72961 0.72990
 C1799 C 0.60572 0.19603 0.19661
 C1800 C 0.59316 0.20115 0.20188
 C1801 C 0.57875 0.20752 0.20837
 C1802 C 0.56698 0.21355 0.21441
 C1803 C 0.55413 0.22149 0.22226
 C1804 C 0.54428 0.22912 0.22976
 C1805 C 0.10547 0.69639 0.19649
 C1806 C 0.09290 0.70149 0.20174
 C1807 C 0.07851 0.70788 0.20827
 C1808 C 0.06675 0.71391 0.21434
 C1809 C 0.05388 0.72183 0.22220
 C1810 C 0.04403 0.72945 0.22970
 C1811 C 0.10536 0.19604 0.69669
 C1812 C 0.09278 0.20119 0.70188
 C1813 C 0.07839 0.20765 0.70835
 C1814 C 0.06664 0.21373 0.71440
 C1815 C 0.05378 0.22168 0.72225
 C1816 C 0.04394 0.22930 0.72977
 C1817 C 0.39452 0.69613 0.30343
 C1818 C 0.40708 0.70128 0.29820
 C1819 C 0.42143 0.70775 0.29170
 C1820 C 0.43317 0.71384 0.28564
 C1821 C 0.44602 0.72179 0.27780
 C1822 C 0.45585 0.72943 0.27031
 C1823 C 0.39444 0.19588 0.80343
 C1824 C 0.40699 0.20104 0.79819
 C1825 C 0.42135 0.20753 0.79172
 C1826 C 0.43310 0.21365 0.78572
 C1827 C 0.44597 0.22163 0.77793
 C1828 C 0.45582 0.22926 0.77045
 C1829 C 0.89454 0.69626 0.80334
 C1830 C 0.90711 0.70142 0.79812
 C1831 C 0.92149 0.70789 0.79169
 C1832 C 0.93324 0.71400 0.78568
 C1833 C 0.94610 0.72197 0.77788
 C1834 C 0.95595 0.72960 0.77040
 C1835 C 0.89458 0.19602 0.30340
 C1836 C 0.90712 0.20120 0.29815
 C1837 C 0.92146 0.20768 0.29163
 C1838 C 0.93319 0.21376 0.28556
 C1839 C 0.94602 0.22172 0.27770
 C1840 C 0.95586 0.22936 0.27022
 C1841 C 0.30335 0.30344 0.60538
 C1842 C 0.29825 0.29831 0.59280
 C1843 C 0.29184 0.29188 0.57842
 C1844 C 0.28581 0.28583 0.56668
 C1845 C 0.27793 0.27793 0.55386
 C1846 C 0.27037 0.27035 0.54405
 C1847 C 0.30350 0.80354 0.10525
 C1848 C 0.29839 0.79841 0.09267
 C1849 C 0.29202 0.79200 0.07827
 C1850 C 0.28604 0.78597 0.06650
 C1851 C 0.27821 0.77809 0.05364
 C1852 C 0.27068 0.77052 0.04381
 C1853 C 0.80351 0.30368 0.10519
 C1854 C 0.79837 0.29854 0.09262
 C1855 C 0.79194 0.29211 0.07825
 C1856 C 0.78591 0.28607 0.06650
 C1857 C 0.77802 0.27818 0.05367
 C1858 C 0.77046 0.27061 0.04386
 C1859 C 0.80363 0.80390 0.60519
 C1860 C 0.79845 0.79871 0.59266
 C1861 C 0.79198 0.79222 0.57833
 C1862 C 0.78592 0.78614 0.56663
 C1863 C 0.77801 0.77822 0.55383
 C1864 C 0.77043 0.77064 0.54404
 C1865 C 0.30335 0.69650 0.39449
 C1866 C 0.29823 0.70165 0.40707
 C1867 C 0.29184 0.70808 0.42146
 C1868 C 0.28583 0.71411 0.43323
 C1869 C 0.27798 0.72200 0.44608
 C1870 C 0.27044 0.72959 0.45591
 C1871 C 0.30327 0.19623 0.89465
 C1872 C 0.29816 0.20134 0.90725
 C1873 C 0.29179 0.20773 0.92167
 C1874 C 0.28578 0.21376 0.93344
 C1875 C 0.27792 0.22167 0.94628
 C1876 C 0.27036 0.22927 0.95610
 C1877 C 0.80368 0.69630 0.89485
 C1878 C 0.79850 0.70149 0.90739
 C1879 C 0.79203 0.70798 0.92172
 C1880 C 0.78598 0.71405 0.93345
 C1881 C 0.77810 0.72195 0.94628
 C1882 C 0.77055 0.72954 0.95611
 C1883 C 0.80346 0.19622 0.39454
 C1884 C 0.79832 0.20136 0.40711
 C1885 C 0.79189 0.20777 0.42150
 C1886 C 0.78586 0.21380 0.43326
 C1887 C 0.77798 0.22169 0.44610
 C1888 C 0.77042 0.22927 0.45593
 C1889 C 0.69665 0.30340 0.39445
 C1890 C 0.70176 0.29828 0.40704
 C1891 C 0.70814 0.29188 0.42145
 C1892 C 0.71414 0.28586 0.43323
 C1893 C 0.72198 0.27796 0.44609
 C1894 C 0.72952 0.27037 0.45592
 C1895 C 0.69645 0.80379 0.89483
 C1896 C 0.70160 0.79865 0.90740
 C1897 C 0.70806 0.79221 0.92176
 C1898 C 0.71414 0.78616 0.93348
 C1899 C 0.72207 0.77826 0.94630
 C1900 C 0.72965 0.77067 0.95610
 C1901 C 0.19630 0.30353 0.89481
 C1902 C 0.20146 0.29838 0.90737
 C1903 C 0.20792 0.29194 0.92173
 C1904 C 0.21398 0.28589 0.93346
 C1905 C 0.22189 0.27799 0.94628
 C1906 C 0.22947 0.27040 0.95609
 C1907 C 0.19644 0.80366 0.39451
 C1908 C 0.20159 0.79854 0.40709
 C1909 C 0.20802 0.79214 0.42148
 C1910 C 0.21407 0.78613 0.43324
 C1911 C 0.22197 0.77826 0.44609
 C1912 C 0.22954 0.77070 0.45592
 C1913 C 0.69650 0.69642 0.60541
 C1914 C 0.70165 0.70160 0.59285
 C1915 C 0.70807 0.70805 0.57848
 C1916 C 0.71409 0.71410 0.56673
 C1917 C 0.72196 0.72201 0.55388
 C1918 C 0.72951 0.72960 0.54406
 C1919 C 0.69662 0.19619 0.10518
 C1920 C 0.70176 0.20138 0.09262
 C1921 C 0.70818 0.20786 0.07826
 C1922 C 0.71420 0.21395 0.06652
 C1923 C 0.72206 0.22189 0.05369
 C1924 C 0.72960 0.22950 0.04388
 C1925 C 0.19656 0.69656 0.10519
 C1926 C 0.20171 0.70170 0.09262
 C1927 C 0.20815 0.70812 0.07824
 C1928 C 0.21420 0.71415 0.06648
 C1929 C 0.22209 0.72203 0.05364
 C1930 C 0.22967 0.72959 0.04381
 C1931 C 0.19636 0.19621 0.60537
 C1932 C 0.20151 0.20139 0.59281
 C1933 C 0.20793 0.20784 0.57844
 C1934 C 0.21396 0.21389 0.56669
 C1935 C 0.22183 0.22178 0.55385
 C1936 C 0.22940 0.22936 0.54403
   
