data_POSCAR
  _audit_creation_date              2014-09-24
  _audit_creation_method            'ToBaCCo'
  _symmetry_space_group_name_H-M    'P1'
  _symmetry_Int_Tables_number       1
  _symmetry_cell_setting            triclinic
  loop_
  _symmetry_equiv_pos_as_xyz
 x,y,z
_cell_length_a 40.8215
_cell_length_b 27.0529
_cell_length_c 28.6175
_cell_angle_alpha 89.873600
_cell_angle_beta 89.929300
_cell_angle_gamma 89.965900
loop_
  _atom_site_label
  _atom_site_type_symbol
  _atom_site_fract_x
  _atom_site_fract_y
  _atom_site_fract_z
C1 C 0.00145 -0.00023 0.15058
 C2 C 0.00124 -0.00097 -0.15511
 C3 C -0.07468 -0.07972 0.07117
 C4 C -0.07477 0.07988 0.07012
 C5 C -0.07499 -0.08038 -0.07321
 C6 C 0.07641 -0.07629 -0.07805
 C7 C 0.07616 0.07563 -0.07854
 C8 C 0.07611 -0.07542 0.07408
 C9 C -0.07466 0.07991 -0.07374
 C10 C 0.07636 0.07598 0.07261
 O11 O -0.04505 -0.09159 -0.08376
 O12 O -0.08383 -0.04719 -0.04348
 O13 O -0.04475 0.09078 -0.08439
 O14 O -0.08368 0.04685 -0.04387
 O15 O 0.04645 0.08702 0.08325
 O16 O 0.08521 0.04496 0.04088
 O17 O 0.00098 0.04128 -0.13443
 O18 O 0.00090 -0.04305 -0.13401
 O19 O 0.00166 0.04200 0.12974
 O20 O 0.00077 -0.04244 0.12998
 O21 O 0.04641 -0.08747 -0.08816
 O22 O 0.08515 -0.04526 -0.04623
 O23 O -0.04472 -0.09049 0.08171
 O24 O -0.08366 -0.04715 0.04073
 O25 O 0.04622 -0.08648 0.08462
 O26 O 0.08507 -0.04489 0.04187
 O27 O 0.04616 0.08657 -0.08867
 O28 O 0.08509 0.04455 -0.04674
 O29 O 0.00223 0.13871 0.06722
 O30 O 0.00178 0.13793 -0.07406
 O31 O 0.00168 -0.13924 -0.07241
 O32 O 0.00244 -0.13897 0.06739
 O33 O -0.02769 -0.06551 -0.00178
 O34 O -0.02759 0.06493 -0.00231
 O35 O 0.02867 -0.06507 -0.00200
 O36 O -0.02897 -0.00002 0.06011
 O37 O -0.08372 0.04705 0.04008
 O38 O -0.04478 0.09062 0.08065
 O39 O 0.03069 -0.00013 0.06016
 O40 O 0.03061 -0.00058 -0.06494
 O41 O 0.02862 0.06450 -0.00257
 O42 O -0.02914 -0.00052 -0.06420
 Zr43 Zr 0.00079 0.06133 0.05836
 Zr44 Zr 0.00065 -0.06198 -0.06264
 Zr45 Zr -0.05538 -0.00022 -0.00182
 Zr46 Zr 0.00070 -0.06152 0.05877
 Zr47 Zr 0.00067 0.06080 -0.06318
 Zr48 Zr 0.05672 -0.00027 -0.00247
 H49 H 0.04207 -0.09558 -0.00182
 H50 H -0.04349 0.00013 0.08780
 H51 H 0.04191 0.09509 -0.00279
 H52 H -0.04375 -0.00051 -0.09176
 H53 H -0.00612 0.15280 0.03761
 H54 H 0.00258 0.15268 -0.04250
 H55 H -0.00721 -0.15287 0.03858
 H56 H 0.00466 -0.15358 -0.04089
 C57 C 0.25110 0.24945 0.09627
 C58 C 0.25003 0.24947 0.40189
 C59 C 0.17468 0.33047 0.17678
 C60 C 0.17472 0.17065 0.17595
 C61 C 0.17401 0.32969 0.32120
 C62 C 0.32493 0.32642 0.32493
 C63 C 0.32500 0.17338 0.32476
 C64 C 0.32524 0.32669 0.17441
 C65 C 0.17408 0.16970 0.32037
 C66 C 0.32566 0.17393 0.17416
 O67 O 0.20392 0.34012 0.33223
 O68 O 0.16514 0.29725 0.29071
 O69 O 0.20400 0.15851 0.33080
 O70 O 0.16516 0.20292 0.29060
 O71 O 0.29578 0.16324 0.16321
 O72 O 0.33441 0.20481 0.20609
 O73 O 0.24978 0.20738 0.38104
 O74 O 0.24973 0.29180 0.38129
 O75 O 0.25078 0.20737 0.11729
 O76 O 0.25069 0.29171 0.11701
 O77 O 0.29494 0.33656 0.33585
 O78 O 0.33401 0.29595 0.29282
 O79 O 0.20467 0.34136 0.16660
 O80 O 0.16549 0.29735 0.20653
 O81 O 0.29539 0.33761 0.16380
 O82 O 0.33421 0.29534 0.20586
 O83 O 0.29506 0.16173 0.33450
 O84 O 0.33402 0.20549 0.29399
 O85 O 0.25170 0.11116 0.18034
 O86 O 0.25027 0.11117 0.32029
 O87 O 0.25091 0.38853 0.31872
 O88 O 0.25093 0.38847 0.17768
 O89 O 0.22140 0.31516 0.24901
 O90 O 0.22139 0.18480 0.24894
 O91 O 0.27753 0.31470 0.24936
 O92 O 0.22023 0.25003 0.18681
 O93 O 0.16557 0.20327 0.20613
 O94 O 0.20471 0.15970 0.16572
 O95 O 0.28002 0.25005 0.18677
 O96 O 0.27952 0.24978 0.31197
 O97 O 0.27778 0.18528 0.24930
 O98 O 0.21974 0.24973 0.31110
 Zr99 Zr 0.25008 0.18863 0.18852
 Zr100 Zr 0.24948 0.31113 0.30998
 Zr101 Zr 0.19361 0.25006 0.24877
 Zr102 Zr 0.24992 0.31130 0.18838
 Zr103 Zr 0.24956 0.18837 0.30976
 Zr104 Zr 0.30581 0.25011 0.24953
 H105 H 0.29070 0.34540 0.24952
 H106 H 0.20583 0.25029 0.15903
 H107 H 0.29109 0.15469 0.24925
 H108 H 0.20509 0.24955 0.33867
 H109 H 0.24210 0.09733 0.20931
 H110 H 0.25308 0.09661 0.28888
 H111 H 0.25165 0.40314 0.20927
 H112 H 0.24221 0.40256 0.28930
 C113 C 0.49927 -0.00143 0.15260
 C114 C 0.49974 -0.00184 -0.15196
 C115 C 0.57644 0.07796 0.07230
 C116 C 0.57632 -0.08076 0.07380
 C117 C 0.57644 0.07764 -0.07350
 C118 C 0.42552 0.07530 -0.07520
 C119 C 0.42516 -0.07778 -0.07464
 C120 C 0.42512 0.07591 0.07468
 C121 C 0.57659 -0.08060 -0.07302
 C122 C 0.42490 -0.07777 0.07630
 O123 O 0.54637 0.08849 -0.08354
 O124 O 0.58539 0.04514 -0.04284
 O125 O 0.54654 -0.09163 -0.08322
 O126 O 0.58538 -0.04838 -0.04225
 O127 O 0.45492 -0.08887 0.08654
 O128 O 0.41622 -0.04634 0.04459
 O129 O 0.50008 -0.04408 -0.13124
 O130 O 0.50015 0.04041 -0.13148
 O131 O 0.49956 -0.04364 0.13211
 O132 O 0.50002 0.04078 0.13190
 O133 O 0.45548 0.08602 -0.08574
 O134 O 0.41649 0.04397 -0.04366
 O135 O 0.54646 0.08914 0.08263
 O136 O 0.58540 0.04522 0.04218
 O137 O 0.45508 0.08650 0.08542
 O138 O 0.41625 0.04445 0.04338
 O139 O 0.45510 -0.08890 -0.08521
 O140 O 0.41632 -0.04649 -0.04313
 O141 O 0.50008 -0.14022 0.07115
 O142 O 0.49959 -0.14069 -0.06823
 O143 O 0.49972 0.13719 -0.06946
 O144 O 0.50024 0.13726 0.07078
 O145 O 0.52935 0.06370 0.00008
 O146 O 0.52927 -0.06693 0.00054
 O147 O 0.47293 0.06329 0.00012
 O148 O 0.53045 -0.00152 0.06228
 O149 O 0.58528 -0.04832 0.04313
 O150 O 0.54623 -0.09181 0.08381
 O151 O 0.47075 -0.00133 0.06290
 O152 O 0.47090 -0.00162 -0.06207
 O153 O 0.47275 -0.06625 0.00055
 O154 O 0.53052 -0.00175 -0.06167
 Zr155 Zr 0.50066 -0.06293 0.06113
 Zr156 Zr 0.50091 0.05977 -0.06045
 Zr157 Zr 0.55706 -0.00165 0.00019
 Zr158 Zr 0.50081 0.06003 0.06074
 Zr159 Zr 0.50083 -0.06321 -0.06007
 Zr160 Zr 0.44470 -0.00137 0.00039
 H161 H 0.45976 0.09401 -0.00011
 H162 H 0.54485 -0.00141 0.09005
 H163 H 0.45941 -0.09679 0.00067
 H164 H 0.54493 -0.00171 -0.08947
 H165 H 0.49668 -0.15454 0.03977
 H166 H 0.50957 -0.15440 -0.03950
 H167 H 0.49769 0.15176 0.03925
 H168 H 0.50886 0.15112 -0.04033
 C169 C 0.75198 0.24924 0.09827
 C170 C 0.75102 0.24756 0.40278
 C171 C 0.67530 0.32879 0.17734
 C172 C 0.67526 0.17014 0.17704
 C173 C 0.67495 0.32770 0.32349
 C174 C 0.82598 0.32439 0.32644
 C175 C 0.82599 0.17282 0.32695
 C176 C 0.82594 0.32500 0.17467
 C177 C 0.67493 0.16966 0.32281
 C178 C 0.82630 0.17356 0.17427
 O179 O 0.70489 0.33827 0.33436
 O180 O 0.66605 0.29581 0.29253
 O181 O 0.70484 0.15832 0.33319
 O182 O 0.66603 0.20224 0.29239
 O183 O 0.79638 0.16246 0.16396
 O184 O 0.83520 0.20406 0.20643
 O185 O 0.75024 0.20549 0.38198
 O186 O 0.75140 0.28996 0.38232
 O187 O 0.75155 0.20698 0.11882
 O188 O 0.75154 0.29142 0.11890
 O189 O 0.79603 0.33541 0.33682
 O190 O 0.83499 0.29356 0.29460
 O191 O 0.70531 0.33997 0.16745
 O192 O 0.66619 0.29602 0.20752
 O193 O 0.79603 0.33626 0.16463
 O194 O 0.83500 0.29388 0.20635
 O195 O 0.79593 0.16184 0.33700
 O196 O 0.83496 0.20367 0.29490
 O197 O 0.75146 0.11029 0.18006
 O198 O 0.75209 0.10947 0.31865
 O199 O 0.75183 0.38731 0.32017
 O200 O 0.75153 0.38785 0.18040
 O201 O 0.72211 0.31428 0.25057
 O202 O 0.72204 0.18361 0.25016
 O203 O 0.77860 0.31354 0.25068
 O204 O 0.72103 0.24912 0.18828
 O205 O 0.66621 0.20260 0.20742
 O206 O 0.70525 0.15882 0.16702
 O207 O 0.78059 0.24906 0.18817
 O208 O 0.78040 0.24841 0.31286
 O209 O 0.77870 0.18391 0.25036
 O210 O 0.72082 0.24856 0.31214
 Zr211 Zr 0.75073 0.18757 0.18978
 Zr212 Zr 0.75051 0.30993 0.31123
 Zr213 Zr 0.69440 0.24906 0.25013
 Zr214 Zr 0.75064 0.31052 0.19005
 Zr215 Zr 0.75045 0.18701 0.31075
 Zr216 Zr 0.80674 0.24873 0.25056
 H217 H 0.79191 0.34412 0.25078
 H218 H 0.70665 0.24935 0.16049
 H219 H 0.79211 0.15341 0.25043
 H220 H 0.70631 0.24846 0.33983
 H221 H 0.75565 0.09594 0.21129
 H222 H 0.74189 0.09590 0.29008
 H223 H 0.75372 0.40202 0.21205
 H224 H 0.74206 0.40138 0.29144
 C225 C 0.00040 0.50041 0.15195
 C226 C 0.00025 0.49916 -0.15371
 C227 C -0.07541 0.41986 0.07171
 C228 C -0.07581 0.58033 0.07127
 C229 C -0.07602 0.42021 -0.07220
 C230 C 0.07499 0.42441 -0.07642
 C231 C 0.07482 0.57603 -0.07698
 C232 C 0.07515 0.42476 0.07521
 C233 C -0.07581 0.58042 -0.07255
 C234 C 0.07543 0.57689 0.07400
 O235 O -0.04608 0.40930 -0.08289
 O236 O -0.08493 0.45316 -0.04224
 O237 O -0.04587 0.59126 -0.08310
 O238 O -0.08484 0.54736 -0.04264
 O239 O 0.04549 0.58789 0.08461
 O240 O 0.08423 0.54568 0.04237
 O241 O -0.00008 0.54147 -0.13307
 O242 O -0.00012 0.45712 -0.13254
 O243 O 0.00060 0.54267 0.13119
 O244 O -0.00035 0.45827 0.13128
 O245 O 0.04509 0.41328 -0.08678
 O246 O 0.08394 0.45530 -0.04468
 O247 O -0.04543 0.40888 0.08170
 O248 O -0.08462 0.45308 0.04205
 O249 O 0.04525 0.41365 0.08559
 O250 O 0.08410 0.45565 0.04329
 O251 O 0.04491 0.58706 -0.08724
 O252 O 0.08390 0.54510 -0.04521
 O253 O 0.00109 0.63926 0.06881
 O254 O 0.00058 0.63839 -0.07275
 O255 O 0.00121 0.36112 -0.06936
 O256 O 0.00112 0.36194 0.07072
 O257 O -0.02874 0.43502 -0.00033
 O258 O -0.02868 0.56538 -0.00088
 O259 O 0.02764 0.43554 -0.00059
 O260 O -0.03004 0.50048 0.06152
 O261 O -0.08479 0.54743 0.04136
 O262 O -0.04585 0.59114 0.08184
 O263 O 0.02971 0.50050 0.06178
 O264 O 0.02948 0.49996 -0.06333
 O265 O 0.02749 0.56508 -0.00115
 O266 O -0.03027 0.49998 -0.06281
 Zr267 Zr -0.00025 0.56190 0.05981
 Zr268 Zr -0.00048 0.43858 -0.06113
 Zr269 Zr -0.05650 0.50023 -0.00050
 Zr270 Zr -0.00024 0.43911 0.06012
 Zr271 Zr -0.00050 0.56127 -0.06178
 Zr272 Zr 0.05565 0.50037 -0.00088
 H273 H 0.04099 0.40499 -0.00050
 H274 H -0.04459 0.50042 0.08919
 H275 H 0.04075 0.59570 -0.00137
 H276 H -0.04485 0.50002 -0.09041
 H277 H -0.00695 0.65339 0.03905
 H278 H 0.00086 0.65319 -0.04119
 H279 H 0.00285 0.34732 0.03918
 H280 H -0.00807 0.34724 -0.04020
 C281 C 0.25170 0.75033 0.09729
 C282 C 0.25021 0.75086 0.40186
 C283 C 0.17577 0.83207 0.17665
 C284 C 0.17469 0.67222 0.17606
 C285 C 0.17438 0.83127 0.32101
 C286 C 0.32522 0.82703 0.32556
 C287 C 0.32479 0.67329 0.32549
 C288 C 0.32696 0.82722 0.17534
 C289 C 0.17390 0.67131 0.32080
 C290 C 0.32564 0.67434 0.17487
 O291 O 0.20430 0.84154 0.33217
 O292 O 0.16550 0.79890 0.29051
 O293 O 0.20379 0.66001 0.33130
 O294 O 0.16516 0.70457 0.29087
 O295 O 0.29575 0.66385 0.16393
 O296 O 0.33457 0.70509 0.20678
 O297 O 0.24984 0.70870 0.38121
 O298 O 0.25000 0.79313 0.38127
 O299 O 0.25105 0.70821 0.11804
 O300 O 0.25171 0.79265 0.11770
 O301 O 0.29524 0.83755 0.33613
 O302 O 0.33437 0.79616 0.29385
 O303 O 0.20584 0.84279 0.16670
 O304 O 0.16633 0.79910 0.20638
 O305 O 0.29707 0.83824 0.16437
 O306 O 0.33543 0.79571 0.20702
 O307 O 0.29476 0.66204 0.33506
 O308 O 0.33407 0.70544 0.29487
 O309 O 0.25160 0.61209 0.18108
 O310 O 0.24978 0.61222 0.32073
 O311 O 0.25138 0.88968 0.31868
 O312 O 0.25236 0.88959 0.17798
 O313 O 0.22205 0.81639 0.24903
 O314 O 0.22136 0.68594 0.24930
 O315 O 0.27833 0.81555 0.24985
 O316 O 0.22086 0.75142 0.18721
 O317 O 0.16568 0.70503 0.20614
 O318 O 0.20470 0.66103 0.16599
 O319 O 0.28061 0.75069 0.18738
 O320 O 0.27968 0.75061 0.31240
 O321 O 0.27788 0.68609 0.24990
 O322 O 0.21992 0.75107 0.31127
 Zr323 Zr 0.25021 0.68959 0.18912
 Zr324 Zr 0.24987 0.81226 0.31010
 Zr325 Zr 0.19393 0.75149 0.24889
 Zr326 Zr 0.25100 0.81245 0.18876
 Zr327 Zr 0.24949 0.68942 0.31013
 Zr328 Zr 0.30628 0.75064 0.25023
 H329 H 0.29164 0.84612 0.25002
 H330 H 0.20648 0.75169 0.15941
 H331 H 0.29102 0.65533 0.24988
 H332 H 0.20522 0.75104 0.33878
 H333 H 0.24164 0.59840 0.20986
 H334 H 0.25275 0.59759 0.28938
 H335 H 0.25385 0.90427 0.20952
 H336 H 0.24270 0.90367 0.28922
 C337 C 0.49867 0.49950 0.15258
 C338 C 0.49856 0.49919 -0.15202
 C339 C 0.57552 0.57959 0.07211
 C340 C 0.57557 0.42053 0.07316
 C341 C 0.57507 0.57914 -0.07299
 C342 C 0.42451 0.57655 -0.07514
 C343 C 0.42437 0.42319 -0.07442
 C344 C 0.42436 0.57668 0.07476
 C345 C 0.57539 0.42074 -0.07240
 C346 C 0.42483 0.42308 0.07546
 O347 O 0.54513 0.59006 -0.08326
 O348 O 0.58422 0.54668 -0.04258
 O349 O 0.54547 0.40962 -0.08276
 O350 O 0.58437 0.45317 -0.04205
 O351 O 0.45473 0.41204 0.08578
 O352 O 0.41575 0.45463 0.04424
 O353 O 0.49907 0.45704 -0.13124
 O354 O 0.49897 0.54150 -0.13159
 O355 O 0.49907 0.45739 0.13192
 O356 O 0.49923 0.54180 0.13200
 O357 O 0.45444 0.58739 -0.08564
 O358 O 0.41554 0.54515 -0.04364
 O359 O 0.54555 0.59067 0.08252
 O360 O 0.58447 0.54683 0.04203
 O361 O 0.45427 0.58742 0.08550
 O362 O 0.41546 0.54534 0.04343
 O363 O 0.45429 0.41218 -0.08502
 O364 O 0.41550 0.45463 -0.04306
 O365 O 0.49969 0.36118 0.07116
 O366 O 0.49865 0.36076 -0.06853
 O367 O 0.49857 0.63842 -0.07002
 O368 O 0.49916 0.63846 0.07116
 O369 O 0.52830 0.56510 0.00003
 O370 O 0.52852 0.43449 0.00032
 O371 O 0.47202 0.56461 0.00017
 O372 O 0.52974 0.49991 0.06235
 O373 O 0.58454 0.45327 0.04286
 O374 O 0.54560 0.40927 0.08325
 O375 O 0.47004 0.49983 0.06280
 O376 O 0.46991 0.49966 -0.06223
 O377 O 0.47205 0.43508 0.00049
 O378 O 0.52955 0.49970 -0.06175
 Zr379 Zr 0.50013 0.43843 0.06090
 Zr380 Zr 0.49983 0.56107 -0.06051
 Zr381 Zr 0.55610 0.49988 0.00019
 Zr382 Zr 0.49996 0.56129 0.06081
 Zr383 Zr 0.49991 0.43821 -0.06010
 Zr384 Zr 0.44392 0.49989 0.00029
 H385 H 0.45882 0.59530 -0.00002
 H386 H 0.54420 0.49997 0.09006
 H387 H 0.45884 0.40441 0.00050
 H388 H 0.54394 0.49972 -0.08958
 H389 H 0.49657 0.34671 0.03979
 H390 H 0.50817 0.34690 -0.03955
 H391 H 0.49769 0.65311 0.03955
 H392 H 0.50676 0.65260 -0.04043
 C393 C 0.75102 0.75025 0.09733
 C394 C 0.75015 0.75024 0.40193
 C395 C 0.67479 0.83077 0.17586
 C396 C 0.67433 0.67212 0.17642
 C397 C 0.67434 0.83016 0.32222
 C398 C 0.82524 0.82617 0.32548
 C399 C 0.82460 0.67439 0.32652
 C400 C 0.82605 0.82600 0.17442
 C401 C 0.67373 0.67213 0.32215
 C402 C 0.82530 0.67468 0.17419
 O403 O 0.70428 0.84065 0.33311
 O404 O 0.66537 0.79838 0.29123
 O405 O 0.70361 0.66077 0.33263
 O406 O 0.66496 0.70474 0.29162
 O407 O 0.79539 0.66368 0.16376
 O408 O 0.83422 0.70529 0.20619
 O409 O 0.74916 0.70808 0.38133
 O410 O 0.75066 0.79253 0.38127
 O411 O 0.75059 0.70814 0.11813
 O412 O 0.75083 0.79258 0.11770
 O413 O 0.79532 0.83759 0.33564
 O414 O 0.83417 0.79493 0.29399
 O415 O 0.70487 0.84179 0.16597
 O416 O 0.66560 0.79820 0.20620
 O417 O 0.79619 0.83708 0.16354
 O418 O 0.83469 0.79516 0.20654
 O419 O 0.79458 0.66354 0.33663
 O420 O 0.83380 0.70510 0.29455
 O421 O 0.75040 0.61189 0.17973
 O422 O 0.75063 0.61165 0.31852
 O423 O 0.75115 0.88954 0.31859
 O424 O 0.75152 0.88943 0.17861
 O425 O 0.72156 0.81631 0.24924
 O426 O 0.72101 0.68565 0.24951
 O427 O 0.77797 0.81527 0.24960
 O428 O 0.72035 0.75098 0.18738
 O429 O 0.66532 0.70480 0.20660
 O430 O 0.70429 0.66058 0.16652
 O431 O 0.77994 0.75044 0.18736
 O432 O 0.77944 0.75037 0.31220
 O433 O 0.77763 0.68561 0.24992
 O434 O 0.71989 0.75092 0.31124
 Zr435 Zr 0.74980 0.68922 0.18922
 Zr436 Zr 0.74979 0.81211 0.31008
 Zr437 Zr 0.69359 0.75128 0.24914
 Zr438 Zr 0.75024 0.81218 0.18875
 Zr439 Zr 0.74930 0.68916 0.31020
 Zr440 Zr 0.80584 0.75024 0.25001
 H441 H 0.79138 0.84574 0.24966
 H442 H 0.70597 0.75110 0.15960
 H443 H 0.79091 0.65499 0.25013
 H444 H 0.70536 0.75097 0.33891
 H445 H 0.75410 0.59763 0.21111
 H446 H 0.74057 0.59798 0.28988
 H447 H 0.75368 0.90379 0.21020
 H448 H 0.74161 0.90344 0.28964
 C449 C 0.00061 0.00088 0.34688
 C450 C 0.00005 0.00101 0.65240
 C451 C -0.07559 0.08178 0.42687
 C452 C -0.07588 -0.07836 0.42709
 C453 C -0.07603 0.08086 0.57155
 C454 C 0.07490 0.07642 0.57567
 C455 C 0.07426 -0.07570 0.57608
 C456 C 0.07534 0.07602 0.42402
 C457 C -0.07653 -0.07892 0.57064
 C458 C 0.07521 -0.07460 0.42406
 O459 O -0.04613 0.09134 0.58257
 O460 O -0.08495 0.04854 0.54105
 O461 O -0.04665 -0.09010 0.58131
 O462 O -0.08531 -0.04562 0.54086
 O463 O 0.04530 -0.08503 0.41299
 O464 O 0.08402 -0.04460 0.45665
 O465 O -0.00046 -0.04117 0.63165
 O466 O -0.00031 0.04325 0.63166
 O467 O -0.00034 -0.04135 0.36757
 O468 O 0.00075 0.04307 0.36760
 O469 O 0.04494 0.08696 0.58648
 O470 O 0.08387 0.04617 0.54333
 O471 O -0.04555 0.09255 0.41665
 O472 O -0.08473 0.04879 0.45682
 O473 O 0.04552 0.08762 0.41367
 O474 O 0.08411 0.04505 0.45593
 O475 O 0.04429 -0.08735 0.58552
 O476 O 0.08342 -0.04394 0.54503
 O477 O 0.00146 -0.13772 0.43032
 O478 O -0.00045 -0.13773 0.57090
 O479 O 0.00114 0.13969 0.56873
 O480 O 0.00105 0.13973 0.42860
 O481 O -0.02875 0.06644 0.49940
 O482 O -0.02906 -0.06399 0.49939
 O483 O 0.02752 0.06560 0.49975
 O484 O -0.03008 0.00130 0.43721
 O485 O -0.08489 -0.04527 0.45685
 O486 O -0.04593 -0.08955 0.41683
 O487 O 0.02961 0.00093 0.43737
 O488 O 0.02914 0.00065 0.56237
 O489 O 0.02727 -0.06398 0.49978
 O490 O -0.03056 0.00102 0.56155
 Zr491 Zr -0.00044 -0.06032 0.43890
 Zr492 Zr -0.00062 0.06227 0.56032
 Zr493 Zr -0.05665 0.00143 0.49916
 Zr494 Zr -0.00022 0.06250 0.43883
 Zr495 Zr -0.00097 -0.06054 0.56031
 Zr496 Zr 0.05547 0.00067 0.50005
 H497 H 0.04092 0.09609 0.49984
 H498 H -0.04456 0.00152 0.40951
 H499 H 0.04056 -0.09460 0.49972
 H500 H -0.04518 0.00087 0.58915
 H501 H -0.00769 -0.15179 0.45948
 H502 H 0.00163 -0.15234 0.53940
 H503 H 0.00316 0.15414 0.46016
 H504 H -0.00823 0.15367 0.53970
 C505 C 0.25056 0.24984 0.90384
 C506 C 0.25078 0.24950 0.59827
 C507 C 0.17446 0.16841 0.82310
 C508 C 0.17395 0.32876 0.82232
 C509 C 0.17472 0.16926 0.67801
 C510 C 0.32563 0.17303 0.67636
 C511 C 0.32504 0.32629 0.67596
 C512 C 0.32531 0.17252 0.82631
 C513 C 0.17423 0.32910 0.67916
 C514 C 0.32504 0.32598 0.82613
 O515 O 0.20472 0.15907 0.66716
 O516 O 0.16558 0.20116 0.70887
 O517 O 0.20419 0.34084 0.66955
 O518 O 0.16521 0.29513 0.70818
 O519 O 0.29507 0.33680 0.83668
 O520 O 0.33404 0.29469 0.79473
 O521 O 0.25016 0.29159 0.61909
 O522 O 0.25076 0.20718 0.61892
 O523 O 0.24997 0.29196 0.88295
 O524 O 0.25035 0.20755 0.88327
 O525 O 0.29577 0.16232 0.66537
 O526 O 0.33441 0.20413 0.70801
 O527 O 0.20444 0.15771 0.83359
 O528 O 0.16540 0.20139 0.79314
 O529 O 0.29538 0.16155 0.83679
 O530 O 0.33423 0.20409 0.79496
 O531 O 0.29511 0.33714 0.66557
 O532 O 0.33408 0.29485 0.70734
 O533 O 0.25073 0.38797 0.82052
 O534 O 0.25053 0.38777 0.67958
 O535 O 0.25157 0.11049 0.68161
 O536 O 0.25089 0.11067 0.82272
 O537 O 0.22164 0.18370 0.75105
 O538 O 0.22120 0.31406 0.75093
 O539 O 0.27774 0.18463 0.75119
 O540 O 0.21986 0.24900 0.81316
 O541 O 0.16511 0.29569 0.79250
 O542 O 0.20382 0.33973 0.83309
 O543 O 0.27968 0.24933 0.81378
 O544 O 0.27990 0.24943 0.68849
 O545 O 0.27752 0.31405 0.75104
 O546 O 0.22011 0.24910 0.68880
 Zr547 Zr 0.24952 0.31058 0.81162
 Zr548 Zr 0.25005 0.18789 0.69028
 Zr549 Zr 0.19362 0.24863 0.75087
 Zr550 Zr 0.24981 0.18783 0.81198
 Zr551 Zr 0.24968 0.31061 0.69037
 Zr552 Zr 0.30580 0.24940 0.75119
 H553 H 0.29102 0.15401 0.75120
 H554 H 0.20528 0.24889 0.84080
 H555 H 0.29068 0.34477 0.75107
 H556 H 0.20563 0.24930 0.66110
 H557 H 0.24248 0.40204 0.79084
 H558 H 0.25214 0.40248 0.71109
 H559 H 0.25203 0.09601 0.79114
 H560 H 0.24269 0.09650 0.71097
 C561 C 0.49909 0.00044 0.34795
 C562 C 0.49835 0.00028 0.65250
 C563 C 0.57546 -0.07898 0.42773
 C564 C 0.57592 0.07903 0.42829
 C565 C 0.57438 -0.08006 0.57321
 C566 C 0.42357 -0.07595 0.57391
 C567 C 0.42436 0.07663 0.57519
 C568 C 0.42462 -0.07563 0.42426
 C569 C 0.57516 0.07820 0.57388
 C570 C 0.42507 0.07798 0.42443
 O571 O 0.54437 -0.09116 0.58307
 O572 O 0.58369 -0.04736 0.54318
 O573 O 0.54523 0.08963 0.58400
 O574 O 0.58414 0.04588 0.54338
 O575 O 0.45507 0.08938 0.41481
 O576 O 0.41587 0.04582 0.45505
 O577 O 0.49889 0.04253 0.63188
 O578 O 0.49841 -0.04192 0.63186
 O579 O 0.49974 0.04262 0.36856
 O580 O 0.49924 -0.04183 0.36849
 O581 O 0.45337 -0.08701 0.58496
 O582 O 0.41492 -0.04445 0.54244
 O583 O 0.54555 -0.08949 0.41670
 O584 O 0.58432 -0.04712 0.45868
 O585 O 0.45457 -0.08630 0.41367
 O586 O 0.41555 -0.04466 0.45593
 O587 O 0.45423 0.08718 0.58611
 O588 O 0.41545 0.04601 0.54316
 O589 O 0.50026 0.13922 0.42919
 O590 O 0.49845 0.13903 0.56902
 O591 O 0.49802 -0.13848 0.57111
 O592 O 0.49862 -0.13841 0.43109
 O593 O 0.52801 -0.06530 0.50038
 O594 O 0.52852 0.06540 0.50044
 O595 O 0.47169 -0.06424 0.49978
 O596 O 0.52979 0.00028 0.43835
 O597 O 0.58462 0.04622 0.45857
 O598 O 0.54608 0.09072 0.41792
 O599 O 0.47022 0.00077 0.43731
 O600 O 0.46948 0.00040 0.56230
 O601 O 0.47206 0.06531 0.49996
 O602 O 0.52911 -0.00020 0.56237
 Zr603 Zr 0.50034 0.06199 0.43963
 Zr604 Zr 0.49920 -0.06127 0.56070
 Zr605 Zr 0.55586 -0.00024 0.50062
 Zr606 Zr 0.49997 -0.06097 0.43952
 Zr607 Zr 0.49973 0.06155 0.56073
 Zr608 Zr 0.44379 0.00074 0.49949
 H609 H 0.45840 -0.09483 0.49953
 H610 H 0.54434 0.00034 0.41069
 H611 H 0.45889 0.09604 0.50006
 H612 H 0.54344 -0.00054 0.59021
 H613 H 0.49730 0.15377 0.46058
 H614 H 0.50842 0.15278 0.54027
 H615 H 0.50811 -0.15229 0.46008
 H616 H 0.49600 -0.15298 0.53957
 C617 C 0.75093 0.25005 0.90299
 C618 C 0.75009 0.24804 0.59849
 C619 C 0.67414 0.16924 0.82479
 C620 C 0.67393 0.32849 0.82307
 C621 C 0.67383 0.16909 0.67915
 C622 C 0.82490 0.17365 0.67497
 C623 C 0.82450 0.32484 0.67403
 C624 C 0.82493 0.17362 0.82650
 C625 C 0.67385 0.32760 0.67776
 C626 C 0.82491 0.32531 0.82578
 O627 O 0.70377 0.15804 0.66862
 O628 O 0.66486 0.20165 0.70942
 O629 O 0.70377 0.33856 0.66721
 O630 O 0.66484 0.29526 0.70843
 O631 O 0.79498 0.33657 0.83607
 O632 O 0.83382 0.29426 0.79411
 O633 O 0.75018 0.29034 0.61893
 O634 O 0.74920 0.20588 0.61931
 O635 O 0.75028 0.29211 0.88209
 O636 O 0.75049 0.20768 0.88275
 O637 O 0.79499 0.16257 0.66450
 O638 O 0.83379 0.20421 0.70700
 O639 O 0.70419 0.15836 0.83477
 O640 O 0.66500 0.20187 0.79443
 O641 O 0.79507 0.16233 0.83696
 O642 O 0.83383 0.20461 0.79467
 O643 O 0.79453 0.33578 0.66386
 O644 O 0.83358 0.29403 0.70596
 O645 O 0.74998 0.38810 0.82034
 O646 O 0.75038 0.38742 0.68070
 O647 O 0.75130 0.10968 0.68265
 O648 O 0.75045 0.11063 0.82238
 O649 O 0.72096 0.18344 0.75143
 O650 O 0.72078 0.31404 0.75054
 O651 O 0.77743 0.18428 0.75109
 O652 O 0.71974 0.24920 0.81311
 O653 O 0.66490 0.29558 0.79324
 O654 O 0.70386 0.33991 0.83304
 O655 O 0.77933 0.24938 0.81309
 O656 O 0.77916 0.24868 0.68832
 O657 O 0.77731 0.31398 0.75026
 O658 O 0.71958 0.24851 0.68913
 Zr659 Zr 0.74938 0.31077 0.81093
 Zr660 Zr 0.74932 0.18715 0.69065
 Zr661 Zr 0.69316 0.24864 0.75125
 Zr662 Zr 0.74949 0.18782 0.81183
 Zr663 Zr 0.74921 0.31003 0.68992
 Zr664 Zr 0.80538 0.24922 0.75056
 H665 H 0.79082 0.15376 0.75107
 H666 H 0.70534 0.24927 0.84093
 H667 H 0.79061 0.34457 0.74993
 H668 H 0.70509 0.24833 0.66146
 H669 H 0.75330 0.40232 0.78884
 H670 H 0.74107 0.40145 0.70973
 H671 H 0.75304 0.09606 0.79094
 H672 H 0.74156 0.09584 0.71151
 C673 C 0.00052 0.50027 0.34816
 C674 C 0.00039 0.50038 0.65367
 C675 C -0.07554 0.58057 0.42863
 C676 C -0.07554 0.42027 0.42863
 C677 C -0.07584 0.57987 0.57282
 C678 C 0.07513 0.57621 0.57627
 C679 C 0.07493 0.42387 0.57707
 C680 C 0.07541 0.57594 0.42474
 C681 C -0.07574 0.41969 0.57260
 C682 C 0.07547 0.42465 0.42491
 O683 O -0.04592 0.59050 0.58369
 O684 O -0.08475 0.54724 0.54261
 O685 O -0.04578 0.40877 0.58297
 O686 O -0.08476 0.45289 0.54281
 O687 O 0.04554 0.41415 0.41407
 O688 O 0.08437 0.45483 0.45733
 O689 O 0.00012 0.45816 0.63295
 O690 O -0.00002 0.54258 0.63286
 O691 O -0.00023 0.45799 0.36880
 O692 O 0.00062 0.54240 0.36893
 O693 O 0.04518 0.58647 0.58728
 O694 O 0.08418 0.54594 0.54400
 O695 O -0.04554 0.59151 0.41836
 O696 O -0.08462 0.54744 0.45847
 O697 O 0.04548 0.58728 0.41465
 O698 O 0.08433 0.54485 0.45653
 O699 O 0.04500 0.41222 0.58666
 O700 O 0.08402 0.45559 0.54590
 O701 O 0.00189 0.36148 0.43149
 O702 O 0.00052 0.36153 0.57212
 O703 O 0.00127 0.63888 0.56991
 O704 O 0.00092 0.63889 0.42993
 O705 O -0.02861 0.56534 0.50074
 O706 O -0.02857 0.43498 0.50080
 O707 O 0.02773 0.56488 0.50084
 O708 O -0.02990 0.50030 0.43865
 O709 O -0.08459 0.45323 0.45850
 O710 O -0.04556 0.40936 0.41822
 O711 O 0.02985 0.50024 0.43839
 O712 O 0.02965 0.50006 0.56340
 O713 O 0.02776 0.43540 0.50089
 O714 O -0.03014 0.50005 0.56293
 Zr715 Zr -0.00011 0.43887 0.44014
 Zr716 Zr -0.00036 0.56144 0.56149
 Zr717 Zr -0.05639 0.50016 0.50071
 Zr718 Zr -0.00011 0.56165 0.44012
 Zr719 Zr -0.00034 0.43872 0.56158
 Zr720 Zr 0.05590 0.50013 0.50092
 H721 H 0.04102 0.59548 0.50082
 H722 H -0.04444 0.50044 0.41102
 H723 H 0.04110 0.40484 0.50080
 H724 H -0.04472 0.49989 0.59057
 H725 H -0.00707 0.34735 0.46074
 H726 H 0.00235 0.34694 0.54058
 H727 H 0.00316 0.65331 0.46148
 H728 H -0.00815 0.65283 0.54090
 C729 C 0.25029 0.75078 0.90204
 C730 C 0.25078 0.75164 0.59748
 C731 C 0.17433 0.67027 0.82166
 C732 C 0.17373 0.83063 0.82147
 C733 C 0.17462 0.67102 0.67706
 C734 C 0.32549 0.67405 0.67538
 C735 C 0.32492 0.82699 0.67446
 C736 C 0.32491 0.67381 0.82532
 C737 C 0.17410 0.83066 0.67780
 C738 C 0.32511 0.82713 0.82505
 O739 O 0.20460 0.66083 0.66615
 O740 O 0.16546 0.70305 0.70778
 O741 O 0.20406 0.84215 0.66788
 O742 O 0.16509 0.79703 0.70712
 O743 O 0.29514 0.83825 0.83543
 O744 O 0.33403 0.79578 0.79366
 O745 O 0.25005 0.79372 0.61822
 O746 O 0.25078 0.70929 0.61800
 O747 O 0.24985 0.79298 0.88142
 O748 O 0.24998 0.70857 0.88152
 O749 O 0.29560 0.66356 0.66432
 O750 O 0.33428 0.70524 0.70697
 O751 O 0.20427 0.65932 0.83194
 O752 O 0.16522 0.70339 0.79190
 O753 O 0.29496 0.66289 0.83557
 O754 O 0.33397 0.70536 0.79402
 O755 O 0.29505 0.83802 0.66395
 O756 O 0.33391 0.79588 0.70614
 O757 O 0.25015 0.88940 0.82084
 O758 O 0.25125 0.88977 0.68028
 O759 O 0.25123 0.61226 0.67993
 O760 O 0.25054 0.61214 0.82098
 O761 O 0.22136 0.68547 0.74969
 O762 O 0.22105 0.81597 0.74986
 O763 O 0.27760 0.68602 0.74991
 O764 O 0.21973 0.75068 0.81191
 O765 O 0.16489 0.79749 0.79168
 O766 O 0.20369 0.84175 0.83186
 O767 O 0.27947 0.75077 0.81255
 O768 O 0.27975 0.75105 0.68749
 O769 O 0.27753 0.81556 0.74996
 O770 O 0.22002 0.75090 0.68775
 Zr771 Zr 0.24942 0.81223 0.81044
 Zr772 Zr 0.24991 0.68960 0.68912
 Zr773 Zr 0.19346 0.75056 0.74974
 Zr774 Zr 0.24957 0.68933 0.81044
 Zr775 Zr 0.24960 0.81239 0.68941
 Zr776 Zr 0.30568 0.75072 0.75010
 H777 H 0.29080 0.65532 0.74996
 H778 H 0.20510 0.75059 0.83951
 H779 H 0.29078 0.84619 0.74986
 H780 H 0.20555 0.75107 0.66005
 H781 H 0.25289 0.90406 0.78940
 H782 H 0.24290 0.90390 0.70984
 H783 H 0.25149 0.59754 0.78936
 H784 H 0.24260 0.59808 0.70936
 C785 C 0.49888 0.49953 0.34804
 C786 C 0.49834 0.49985 0.65248
 C787 C 0.57570 0.42031 0.42764
 C788 C 0.57544 0.57900 0.42775
 C789 C 0.57494 0.41964 0.57330
 C790 C 0.42439 0.42267 0.57550
 C791 C 0.42428 0.57566 0.57543
 C792 C 0.42462 0.42276 0.42476
 C793 C 0.57520 0.57824 0.57356
 C794 C 0.42454 0.57618 0.42483
 O795 O 0.54495 0.40852 0.58324
 O796 O 0.58415 0.45238 0.54316
 O797 O 0.54521 0.58933 0.58379
 O798 O 0.58426 0.54591 0.54307
 O799 O 0.45449 0.58773 0.41506
 O800 O 0.41550 0.54401 0.45558
 O801 O 0.49884 0.54203 0.63178
 O802 O 0.49876 0.45759 0.63196
 O803 O 0.49930 0.54166 0.36870
 O804 O 0.49930 0.45722 0.36856
 O805 O 0.45430 0.41171 0.58583
 O806 O 0.41537 0.45405 0.54404
 O807 O 0.54576 0.40964 0.41680
 O808 O 0.58455 0.45247 0.45836
 O809 O 0.45461 0.41251 0.41391
 O810 O 0.41553 0.45337 0.45676
 O811 O 0.45419 0.58642 0.58611
 O812 O 0.41537 0.54465 0.54370
 O813 O 0.49949 0.63817 0.42935
 O814 O 0.49830 0.63835 0.56862
 O815 O 0.49897 0.36080 0.57124
 O816 O 0.49884 0.36057 0.43134
 O817 O 0.52837 0.43412 0.50038
 O818 O 0.52840 0.56471 0.50027
 O819 O 0.47196 0.43459 0.50016
 O820 O 0.52973 0.49952 0.43835
 O821 O 0.58444 0.54621 0.45796
 O822 O 0.54549 0.59024 0.41762
 O823 O 0.47006 0.49946 0.43770
 O824 O 0.46975 0.49940 0.56255
 O825 O 0.47182 0.56407 0.50013
 O826 O 0.52942 0.49935 0.56231
 Zr827 Zr 0.49998 0.56093 0.43972
 Zr828 Zr 0.49972 0.43802 0.56085
 Zr829 Zr 0.55609 0.49936 0.50044
 Zr830 Zr 0.50009 0.43803 0.43966
 Zr831 Zr 0.49974 0.56084 0.56067
 Zr832 Zr 0.44372 0.49925 0.50005
 H833 H 0.45878 0.40389 0.50010
 H834 H 0.54421 0.49966 0.41062
 H835 H 0.45854 0.59470 0.50020
 H836 H 0.54375 0.49918 0.59015
 H837 H 0.49619 0.65268 0.46068
 H838 H 0.50841 0.65202 0.53993
 H839 H 0.50859 0.34677 0.46020
 H840 H 0.49710 0.34627 0.53968
 C841 C 0.75013 0.75071 0.90209
 C842 C 0.75012 0.75094 0.59762
 C843 C 0.67410 0.67136 0.82311
 C844 C 0.67365 0.83002 0.82292
 C845 C 0.67376 0.67110 0.67809
 C846 C 0.82492 0.67483 0.67452
 C847 C 0.82474 0.82605 0.67355
 C848 C 0.82458 0.67486 0.82614
 C849 C 0.67402 0.82988 0.67711
 C850 C 0.82496 0.82623 0.82543
 O851 O 0.70372 0.65978 0.66788
 O852 O 0.66480 0.70402 0.70805
 O853 O 0.70395 0.84085 0.66660
 O854 O 0.66496 0.79756 0.70768
 O855 O 0.79504 0.83757 0.83583
 O856 O 0.83380 0.79535 0.79359
 O857 O 0.75024 0.79312 0.61823
 O858 O 0.74927 0.70868 0.61826
 O859 O 0.74977 0.79294 0.88143
 O860 O 0.74986 0.70846 0.88163
 O861 O 0.79500 0.66401 0.66388
 O862 O 0.83380 0.70548 0.70648
 O863 O 0.70403 0.66037 0.83336
 O864 O 0.66498 0.70390 0.79277
 O865 O 0.79467 0.66378 0.83642
 O866 O 0.83361 0.70573 0.79424
 O867 O 0.79484 0.83733 0.66331
 O868 O 0.83368 0.79527 0.70556
 O869 O 0.75007 0.88962 0.82014
 O870 O 0.75091 0.88960 0.68079
 O871 O 0.75036 0.61203 0.67934
 O872 O 0.75087 0.61190 0.81935
 O873 O 0.72084 0.68545 0.75012
 O874 O 0.72084 0.81611 0.74991
 O875 O 0.77731 0.68582 0.75000
 O876 O 0.71966 0.75084 0.81201
 O877 O 0.66473 0.79741 0.79265
 O878 O 0.70365 0.84134 0.83291
 O879 O 0.77919 0.75078 0.81234
 O880 O 0.77923 0.75062 0.68753
 O881 O 0.77738 0.81553 0.74982
 O882 O 0.71963 0.75073 0.68810
 Zr883 Zr 0.74930 0.81234 0.81042
 Zr884 Zr 0.74928 0.68924 0.68945
 Zr885 Zr 0.69316 0.75079 0.75017
 Zr886 Zr 0.74933 0.68934 0.81056
 Zr887 Zr 0.74938 0.81213 0.68935
 Zr888 Zr 0.80534 0.75060 0.74993
 H889 H 0.79063 0.65523 0.75015
 H890 H 0.70518 0.75082 0.83973
 H891 H 0.79077 0.84602 0.74961
 H892 H 0.70514 0.75063 0.66043
 H893 H 0.75390 0.90393 0.78879
 H894 H 0.74122 0.90343 0.70965
 H895 H 0.74161 0.59797 0.79028
 H896 H 0.75296 0.59752 0.71085
 C897 C 0.00703 0.04645 0.26378
 C898 C 0.03054 0.01533 0.23318
 C899 C 0.00136 -0.00020 0.20271
 C900 C -0.02219 0.03084 0.23268
 C901 C -0.00471 -0.04582 0.23372
 C902 C 0.02449 -0.03024 0.26484
 C903 C 0.00098 0.00085 0.29479
 C904 C -0.02823 -0.01474 0.26435
 H905 H 0.01191 0.08447 0.27652
 H906 H 0.05488 0.02715 0.22024
 H907 H -0.04134 0.05613 0.21906
 H908 H -0.00956 -0.08385 0.22098
 H909 H 0.04355 -0.05568 0.27839
 H910 H -0.05247 -0.02690 0.27760
 C911 C 0.27807 0.22668 0.98649
 C912 C 0.27725 0.27257 1.01868
 C913 C 0.25125 0.24928 1.04662
 C914 C 0.25139 0.20391 1.01831
 C915 C 0.22490 0.27205 1.01902
 C916 C 0.25087 0.29663 0.98720
 C917 C 0.25099 0.25006 0.95597
 C918 C 0.22433 0.22616 0.98691
 H919 H 0.30051 0.20751 0.97411
 H920 H 0.29883 0.29144 1.03414
 H921 H 0.25162 0.16588 1.03302
 H922 H 0.20322 0.29051 1.03476
 H923 H 0.25066 0.33578 0.97551
 H924 H 0.20200 0.20655 0.97489
 C925 C 0.14523 0.14898 0.09562
 C926 C 0.13978 0.09239 0.09333
 C927 C 0.10277 0.10098 0.09959
 C928 C 0.10790 0.15721 0.10150
 C929 C 0.10616 0.09709 0.15296
 C930 C 0.14348 0.08883 0.14709
 C931 C 0.14857 0.14504 0.14904
 C932 C 0.11158 0.15364 0.15523
 H933 H 0.16164 0.17064 0.07235
 H934 H 0.15117 0.06703 0.06755
 H935 H 0.09306 0.18508 0.08241
 H936 H 0.08985 0.07556 0.17626
 H937 H 0.15830 0.06096 0.16620
 H938 H 0.10014 0.17894 0.18103
 C939 C 0.37210 0.36480 0.07915
 C940 C 0.37731 0.32580 0.11815
 C941 C 0.35154 0.35245 0.14809
 C942 C 0.34595 0.39110 0.10942
 C943 C 0.37804 0.38480 0.17066
 C944 C 0.40419 0.35849 0.14040
 C945 C 0.39860 0.39715 0.10174
 C946 C 0.37282 0.42378 0.13168
 H947 H 0.37001 0.35691 0.04120
 H948 H 0.37875 0.28518 0.11298
 H949 H 0.32173 0.40428 0.09692
 H950 H 0.38017 0.39268 0.20857
 H951 H 0.42841 0.34531 0.15289
 H952 H 0.37137 0.46440 0.13686
 C953 C 0.36163 0.09658 0.09132
 C954 C 0.35572 0.09179 0.14459
 C955 C 0.35219 0.14825 0.14772
 C956 C 0.35774 0.15342 0.09476
 C957 C 0.38911 0.15393 0.15695
 C958 C 0.39294 0.09712 0.15351
 C959 C 0.39857 0.10223 0.10061
 C960 C 0.39501 0.15873 0.10365
 H961 H 0.35048 0.07280 0.06407
 H962 H 0.33934 0.06445 0.16172
 H963 H 0.34295 0.17688 0.07087
 H964 H 0.40027 0.17768 0.18422
 H965 H 0.40737 0.07339 0.17743
 H966 H 0.41140 0.18605 0.08652
 C967 C 0.12875 0.36823 0.08084
 C968 C 0.15412 0.39533 0.11172
 C969 C 0.14847 0.35672 0.15045
 C970 C 0.12345 0.32933 0.11986
 C971 C 0.12121 0.38843 0.17216
 C972 C 0.12648 0.42741 0.13307
 C973 C 0.10148 0.39995 0.10250
 C974 C 0.09584 0.36135 0.14125
 H975 H 0.13155 0.36016 0.04302
 H976 H 0.17834 0.40918 0.09984
 H977 H 0.12252 0.28866 0.11478
 H978 H 0.11845 0.39646 0.21000
 H979 H 0.12737 0.46808 0.13810
 H980 H 0.07163 0.34748 0.15314
 C981 C 0.36745 0.12485 0.42022
 C982 C 0.37144 0.17221 0.39029
 C983 C 0.35139 0.14773 0.35126
 C984 C 0.34705 0.10067 0.38084
 C985 C 0.38275 0.12683 0.32896
 C986 C 0.40316 0.15099 0.36834
 C987 C 0.39880 0.10393 0.39792
 C988 C 0.37876 0.07947 0.35888
 H989 H 0.36150 0.12388 0.45808
 H990 H 0.36781 0.21034 0.40347
 H991 H 0.32377 0.08012 0.38574
 H992 H 0.38870 0.12780 0.29109
 H993 H 0.42645 0.17152 0.36345
 H994 H 0.38245 0.04141 0.34560
 C995 C 0.10720 0.40769 0.34465
 C996 C 0.14454 0.41199 0.35335
 C997 C 0.14763 0.35570 0.34764
 C998 C 0.11063 0.35103 0.33856
 C999 C 0.14227 0.34800 0.40037
 C1000 C 0.13885 0.40461 0.40644
 C1001 C 0.10185 0.39991 0.39737
 C1002 C 0.10497 0.34364 0.39163
 H1003 H 0.09274 0.43291 0.32210
 H1004 H 0.16100 0.43989 0.33723
 H1005 H 0.09919 0.32893 0.31031
 H1006 H 0.15687 0.32300 0.42298
 H1007 H 0.15029 0.42674 0.43466
 H1008 H 0.08852 0.31572 0.40774
 C1009 C 0.13870 0.09116 0.40256
 C1010 C 0.14234 0.08766 0.34878
 C1011 C 0.14774 0.14382 0.34676
 C1012 C 0.14443 0.14765 0.40017
 C1013 C 0.11079 0.15291 0.34066
 C1014 C 0.10503 0.09639 0.34306
 C1015 C 0.10176 0.10029 0.39647
 C1016 C 0.10719 0.15642 0.39440
 H1017 H 0.14995 0.06558 0.42835
 H1018 H 0.15703 0.05968 0.32966
 H1019 H 0.16097 0.16903 0.42333
 H1020 H 0.09952 0.17845 0.31486
 H1021 H 0.08846 0.07499 0.31995
 H1022 H 0.09251 0.18442 0.41352
 C1023 C 0.36826 0.42313 0.37699
 C1024 C 0.37313 0.39326 0.33139
 C1025 C 0.35129 0.35214 0.35154
 C1026 C 0.34608 0.38169 0.39683
 C1027 C 0.38129 0.32602 0.37272
 C1028 C 0.40347 0.36747 0.35288
 C1029 C 0.39826 0.39702 0.39817
 C1030 C 0.37642 0.35590 0.41832
 H1031 H 0.36289 0.46322 0.37944
 H1032 H 0.37149 0.40854 0.29546
 H1033 H 0.32225 0.38734 0.41477
 H1034 H 0.38666 0.28594 0.37027
 H1035 H 0.42730 0.36182 0.33494
 H1036 H 0.37805 0.34065 0.45428
 C1037 C 0.50128 0.04643 0.26499
 C1038 C 0.52675 0.01914 0.23438
 C1039 C 0.49871 -0.00131 0.20442
 C1040 C 0.47321 0.02591 0.23437
 C1041 C 0.49612 -0.04748 0.23562
 C1042 C 0.52418 -0.02696 0.26623
 C1043 C 0.49872 0.00031 0.29618
 C1044 C 0.47063 -0.02022 0.26631
 H1045 H 0.50342 0.08509 0.27755
 H1046 H 0.54989 0.03511 0.22087
 H1047 H 0.45234 0.04783 0.22086
 H1048 H 0.49399 -0.08613 0.22303
 H1049 H 0.54509 -0.04883 0.27978
 H1050 H 0.44756 -0.03635 0.28016
 C1051 C 0.77877 0.22669 0.98450
 C1052 C 0.77888 0.27319 1.01601
 C1053 C 0.75220 0.24935 1.04650
 C1054 C 0.75211 0.20282 1.01573
 C1055 C 0.72510 0.27300 1.01672
 C1056 C 0.75175 0.29688 0.98550
 C1057 C 0.75164 0.25034 0.95476
 C1058 C 0.72499 0.22652 0.98530
 H1059 H 0.80081 0.20769 0.97052
 H1060 H 0.80102 0.29232 1.02938
 H1061 H 0.75227 0.16411 1.02869
 H1062 H 0.70305 0.29200 1.03067
 H1063 H 0.75161 0.33558 0.97251
 H1064 H 0.70284 0.20737 0.97198
 C1065 C 0.64581 0.15023 0.09614
 C1066 C 0.63984 0.09380 0.09310
 C1067 C 0.60288 0.10313 0.09918
 C1068 C 0.60852 0.15919 0.10184
 C1069 C 0.60609 0.09839 0.15254
 C1070 C 0.64334 0.08939 0.14683
 C1071 C 0.64897 0.14542 0.14954
 C1072 C 0.61202 0.15478 0.15557
 H1073 H 0.66251 0.17183 0.07324
 H1074 H 0.65110 0.06863 0.06704
 H1075 H 0.59403 0.18766 0.08301
 H1076 H 0.58951 0.07679 0.17545
 H1077 H 0.65781 0.06089 0.16566
 H1078 H 0.60073 0.17992 0.18163
 C1079 C -0.12878 0.36167 0.07703
 C1080 C -0.12308 0.32267 0.11596
 C1081 C -0.14792 0.34992 0.14707
 C1082 C -0.15400 0.38854 0.10848
 C1083 C -0.12061 0.38178 0.16825
 C1084 C -0.09540 0.35489 0.13684
 C1085 C -0.10149 0.39354 0.09827
 C1086 C -0.12635 0.42071 0.12939
 H1087 H -0.13183 0.35370 0.03924
 H1088 H -0.12209 0.28201 0.11088
 H1089 H -0.17835 0.40227 0.09706
 H1090 H -0.11755 0.38979 0.20603
 H1091 H -0.07105 0.34116 0.14824
 H1092 H -0.12740 0.46137 0.13452
 C1093 C 0.85669 0.15474 0.09320
 C1094 C 0.89406 0.16202 0.09998
 C1095 C 0.89879 0.10577 0.09663
 C1096 C 0.86178 0.09813 0.08946
 C1097 C 0.89473 0.10034 0.14984
 C1098 C 0.88971 0.15690 0.15357
 C1099 C 0.85270 0.14923 0.14644
 C1100 C 0.85745 0.09301 0.14300
 H1101 H 0.84072 0.17741 0.07020
 H1102 H 0.90932 0.19019 0.08196
 H1103 H 0.85045 0.07385 0.06276
 H1104 H 0.91053 0.07753 0.17286
 H1105 H 0.90104 0.18120 0.18025
 H1106 H 0.84221 0.06481 0.16101
 C1107 C 0.63005 0.36470 0.07965
 C1108 C 0.65457 0.39268 0.11127
 C1109 C 0.64900 0.35396 0.14995
 C1110 C 0.62483 0.32566 0.11864
 C1111 C 0.62091 0.38471 0.17075
 C1112 C 0.62613 0.42376 0.13176
 C1113 C 0.60196 0.39545 0.10045
 C1114 C 0.59640 0.35673 0.13913
 H1115 H 0.63353 0.35662 0.04194
 H1116 H 0.67871 0.40743 0.10008
 H1117 H 0.62459 0.28496 0.11360
 H1118 H 0.61744 0.39278 0.20846
 H1119 H 0.62638 0.46446 0.13679
 H1120 H 0.57227 0.34196 0.15033
 C1121 C -0.12965 0.13947 0.42185
 C1122 C -0.12540 0.17748 0.38175
 C1123 C -0.14883 0.14942 0.35323
 C1124 C -0.15479 0.11277 0.39036
 C1125 C -0.12301 0.11955 0.33126
 C1126 C -0.09702 0.14643 0.36115
 C1127 C -0.10200 0.10782 0.40040
 C1128 C -0.12723 0.08009 0.36995
 H1129 H -0.13316 0.14858 0.45934
 H1130 H -0.12597 0.21837 0.38527
 H1131 H -0.17948 0.09984 0.40123
 H1132 H -0.12158 0.11245 0.29308
 H1133 H -0.07340 0.16141 0.34810
 H1134 H -0.12870 0.03955 0.36428
 C1135 C 0.60695 0.40248 0.34781
 C1136 C 0.64423 0.40878 0.35573
 C1137 C 0.64849 0.35263 0.35064
 C1138 C 0.61151 0.34597 0.34238
 C1139 C 0.64377 0.34533 0.40356
 C1140 C 0.63919 0.40185 0.40899
 C1141 C 0.60221 0.39520 0.40071
 C1142 C 0.60647 0.33904 0.39565
 H1143 H 0.59164 0.42643 0.32518
 H1144 H 0.65993 0.43725 0.33897
 H1145 H 0.60029 0.32295 0.31462
 H1146 H 0.65914 0.32138 0.42619
 H1147 H 0.65041 0.42488 0.43675
 H1148 H 0.59077 0.31057 0.41240
 C1149 C 0.63929 0.09350 0.40678
 C1150 C 0.64254 0.08913 0.35303
 C1151 C 0.64856 0.14507 0.35018
 C1152 C 0.64564 0.14981 0.40358
 C1153 C 0.61168 0.15509 0.34449
 C1154 C 0.60533 0.09878 0.34768
 C1155 C 0.60241 0.10353 0.40108
 C1156 C 0.60843 0.15947 0.39824
 H1157 H 0.65043 0.06808 0.43280
 H1158 H 0.65677 0.06048 0.33408
 H1159 H 0.66262 0.17107 0.42622
 H1160 H 0.60052 0.18050 0.31848
 H1161 H 0.58837 0.07752 0.32505
 H1162 H 0.59421 0.18812 0.41718
 C1163 C -0.10497 0.39667 0.34888
 C1164 C -0.11074 0.34014 0.34787
 C1165 C -0.14771 0.34940 0.35362
 C1166 C -0.14224 0.40557 0.35430
 C1167 C -0.14456 0.34680 0.40711
 C1168 C -0.10725 0.33792 0.40173
 C1169 C -0.10181 0.39410 0.40238
 C1170 C -0.13878 0.40335 0.40812
 H1171 H -0.08839 0.41740 0.32520
 H1172 H -0.09939 0.31396 0.32279
 H1173 H -0.15683 0.43316 0.33448
 H1174 H -0.16114 0.32619 0.43082
 H1175 H -0.09265 0.31034 0.42157
 H1176 H -0.15014 0.42948 0.43323
 C1177 C 0.00615 0.54645 0.26535
 C1178 C 0.02974 0.51600 0.23427
 C1179 C 0.00050 0.50021 0.20404
 C1180 C -0.02312 0.53060 0.23448
 C1181 C -0.00504 0.45423 0.23479
 C1182 C 0.02421 0.47007 0.26567
 C1183 C 0.00064 0.50048 0.29609
 C1184 C -0.02863 0.48466 0.26588
 H1185 H 0.01082 0.58445 0.27831
 H1186 H 0.05388 0.52841 0.22106
 H1187 H -0.04255 0.55563 0.22123
 H1188 H -0.00968 0.41623 0.22183
 H1189 H 0.04354 0.44485 0.27882
 H1190 H -0.05270 0.47198 0.27933
 C1191 C 0.27788 0.72704 0.98342
 C1192 C 0.27821 0.77362 1.01475
 C1193 C 0.25160 0.75008 1.04551
 C1194 C 0.25125 0.70344 1.01488
 C1195 C 0.22445 0.77379 1.01583
 C1196 C 0.25107 0.79740 0.98440
 C1197 C 0.25076 0.75078 0.95378
 C1198 C 0.22411 0.72721 0.98450
 H1199 H 0.29984 0.70786 0.96937
 H1200 H 0.30043 0.79268 1.02765
 H1201 H 0.25135 0.66477 1.02796
 H1202 H 0.20250 0.79298 1.02988
 H1203 H 0.25100 0.83607 0.97134
 H1204 H 0.20188 0.70817 0.97134
 C1205 C 0.14475 0.64968 0.09591
 C1206 C 0.13899 0.59312 0.09436
 C1207 C 0.10202 0.60215 0.10076
 C1208 C 0.10746 0.65836 0.10195
 C1209 C 0.10563 0.59898 0.15416
 C1210 C 0.14290 0.59028 0.14814
 C1211 C 0.14832 0.64647 0.14936
 C1212 C 0.11135 0.65552 0.15570
 H1213 H 0.16115 0.67081 0.07219
 H1214 H 0.15021 0.56728 0.06884
 H1215 H 0.09270 0.68618 0.08268
 H1216 H 0.08932 0.57801 0.17794
 H1217 H 0.15765 0.56246 0.16743
 H1218 H 0.10010 0.68130 0.18124
 C1219 C 0.39106 0.84598 0.15673
 C1220 C 0.39610 0.84381 0.10317
 C1221 C 0.39957 0.89787 0.10191
 C1222 C 0.39593 0.90258 0.15285
 C1223 C 0.36438 0.90582 0.09343
 C1224 C 0.35876 0.84937 0.09569
 C1225 C 0.35384 0.85305 0.14910
 C1226 C 0.35854 0.90968 0.14670
 H1227 H 0.40313 0.82148 0.18269
 H1228 H 0.41256 0.81805 0.08414
 H1229 H 0.41231 0.92552 0.17494
 H1230 H 0.35436 0.93124 0.06646
 H1231 H 0.34401 0.82748 0.07070
 H1232 H 0.34347 0.93829 0.16433
 C1233 C 0.36098 0.59710 0.09183
 C1234 C 0.35537 0.59223 0.14514
 C1235 C 0.35193 0.64867 0.14833
 C1236 C 0.35717 0.65393 0.09535
 C1237 C 0.38888 0.65433 0.15723
 C1238 C 0.39262 0.59753 0.15371
 C1239 C 0.39794 0.60274 0.10078
 C1240 C 0.39447 0.65921 0.10390
 H1241 H 0.34973 0.57334 0.06465
 H1242 H 0.33904 0.56496 0.16246
 H1243 H 0.34225 0.67746 0.07169
 H1244 H 0.40015 0.67804 0.18443
 H1245 H 0.40719 0.57372 0.17737
 H1246 H 0.41082 0.68646 0.08658
 C1247 C 0.12224 0.88972 0.17137
 C1248 C 0.12736 0.92834 0.13194
 C1249 C 0.10251 0.90029 0.10162
 C1250 C 0.09702 0.86205 0.14069
 C1251 C 0.12995 0.86867 0.08026
 C1252 C 0.15518 0.89636 0.11091
 C1253 C 0.14967 0.85810 0.14998
 C1254 C 0.12479 0.83013 0.11962
 H1255 H 0.11942 0.89813 0.20913
 H1256 H 0.12803 0.96907 0.13659
 H1257 H 0.07287 0.84804 0.15267
 H1258 H 0.13279 0.86022 0.04252
 H1259 H 0.17935 0.91033 0.09897
 H1260 H 0.12406 0.78941 0.11490
 C1261 C 0.36722 0.62421 0.42093
 C1262 C 0.37160 0.67118 0.39056
 C1263 C 0.35100 0.64697 0.35196
 C1264 C 0.34626 0.60029 0.38200
 C1265 C 0.38194 0.62492 0.32947
 C1266 C 0.40289 0.64886 0.36839
 C1267 C 0.39817 0.60219 0.39844
 C1268 C 0.37756 0.57795 0.35985
 H1269 H 0.36148 0.62375 0.45887
 H1270 H 0.36850 0.70945 0.40359
 H1271 H 0.32275 0.58046 0.38738
 H1272 H 0.38769 0.62538 0.29153
 H1273 H 0.42639 0.66872 0.36300
 H1274 H 0.38060 0.53961 0.34693
 C1275 C 0.10749 -0.09079 0.34410
 C1276 C 0.14477 -0.08654 0.35344
 C1277 C 0.14793 -0.14277 0.34730
 C1278 C 0.11100 -0.14738 0.33758
 C1279 C 0.14214 -0.15100 0.39987
 C1280 C 0.13865 -0.09446 0.40636
 C1281 C 0.10172 -0.09911 0.39665
 C1282 C 0.10493 -0.15532 0.39048
 H1283 H 0.09320 -0.06537 0.32153
 H1284 H 0.16135 -0.05847 0.33785
 H1285 H 0.09980 -0.16920 0.30895
 H1286 H 0.15658 -0.17620 0.42250
 H1287 H 0.14985 -0.07260 0.43497
 H1288 H 0.08835 -0.18341 0.40606
 C1289 C 0.13874 0.59209 0.40284
 C1290 C 0.14227 0.58901 0.34901
 C1291 C 0.14744 0.64527 0.34722
 C1292 C 0.14423 0.64866 0.40070
 C1293 C 0.11042 0.65396 0.34142
 C1294 C 0.10490 0.59735 0.34356
 C1295 C 0.10172 0.60080 0.39705
 C1296 C 0.10691 0.65703 0.39522
 H1297 H 0.15023 0.56649 0.42839
 H1298 H 0.15700 0.56125 0.32967
 H1299 H 0.16069 0.67007 0.42396
 H1300 H 0.09893 0.67954 0.31584
 H1301 H 0.08840 0.57592 0.32036
 H1302 H 0.09219 0.68480 0.41456
 C1303 C 0.36917 -0.07541 0.37450
 C1304 C 0.37431 -0.10789 0.33060
 C1305 C 0.35146 -0.14703 0.35193
 C1306 C 0.34597 -0.11488 0.39551
 C1307 C 0.38060 -0.17311 0.37538
 C1308 C 0.40380 -0.13364 0.35437
 C1309 C 0.39832 -0.10149 0.39795
 C1310 C 0.37547 -0.14063 0.41929
 H1311 H 0.36444 -0.03508 0.37488
 H1312 H 0.37355 -0.09471 0.29384
 H1313 H 0.32194 -0.10740 0.41226
 H1314 H 0.38534 -0.21343 0.37500
 H1315 H 0.42783 -0.14113 0.33761
 H1316 H 0.37622 -0.15380 0.45605
 C1317 C 0.49993 0.54629 0.26553
 C1318 C 0.52591 0.52066 0.23452
 C1319 C 0.49825 0.49921 0.20444
 C1320 C 0.47224 0.52476 0.23480
 C1321 C 0.49675 0.45256 0.23518
 C1322 C 0.52443 0.47409 0.26590
 C1323 C 0.49845 0.49968 0.29625
 C1324 C 0.47075 0.47816 0.26627
 H1325 H 0.50124 0.58489 0.27847
 H1326 H 0.54863 0.53803 0.22109
 H1327 H 0.45086 0.54577 0.22169
 H1328 H 0.49545 0.41396 0.22222
 H1329 H 0.54586 0.45318 0.27916
 H1330 H 0.44808 0.46071 0.28004
 C1331 C 0.77784 0.72814 0.98360
 C1332 C 0.77716 0.77470 1.01492
 C1333 C 0.75094 0.74999 1.04554
 C1334 C 0.75158 0.70337 1.01490
 C1335 C 0.72343 0.77252 1.01573
 C1336 C 0.74967 0.79729 0.98445
 C1337 C 0.75036 0.75072 0.95382
 C1338 C 0.72408 0.72596 0.98437
 H1339 H 0.80020 0.70995 0.96968
 H1340 H 0.79890 0.79493 1.02776
 H1341 H 0.75238 0.66472 1.02797
 H1342 H 0.70108 0.79073 1.02966
 H1343 H 0.74889 0.83596 0.97141
 H1344 H 0.70226 0.70597 0.97106
 C1345 C 0.64472 0.65227 0.09568
 C1346 C 0.63890 0.59581 0.09256
 C1347 C 0.60194 0.60489 0.09887
 C1348 C 0.60742 0.66097 0.10160
 C1349 C 0.60530 0.60003 0.15220
 C1350 C 0.64255 0.59130 0.14625
 C1351 C 0.64803 0.64736 0.14905
 C1352 C 0.61108 0.65645 0.15531
 H1353 H 0.66130 0.67404 0.07274
 H1354 H 0.65017 0.57079 0.06637
 H1355 H 0.59279 0.68939 0.08292
 H1356 H 0.58885 0.57825 0.17515
 H1357 H 0.65717 0.56286 0.16494
 H1358 H 0.59979 0.68146 0.18149
 C1359 C 0.88972 0.84449 0.15598
 C1360 C 0.89506 0.83828 0.10272
 C1361 C 0.89897 0.89455 0.09800
 C1362 C 0.89400 0.90113 0.15094
 C1363 C 0.86200 0.90078 0.08944
 C1364 C 0.85777 0.84416 0.09449
 C1365 C 0.85273 0.85075 0.14736
 C1366 C 0.85672 0.90704 0.14269
 H1367 H 0.90094 0.82119 0.18365
 H1368 H 0.91102 0.81019 0.08593
 H1369 H 0.90924 0.92486 0.17388
 H1370 H 0.85073 0.92400 0.06174
 H1371 H 0.84292 0.82007 0.07160
 H1372 H 0.84075 0.93513 0.15945
 C1373 C 0.85566 0.65508 0.09345
 C1374 C 0.89300 0.66258 0.10024
 C1375 C 0.89779 0.60632 0.09749
 C1376 C 0.86081 0.59846 0.09031
 C1377 C 0.89372 0.60143 0.15072
 C1378 C 0.88863 0.65801 0.15386
 C1379 C 0.85166 0.65012 0.14671
 C1380 C 0.85646 0.59390 0.14388
 H1381 H 0.83965 0.67745 0.07024
 H1382 H 0.90825 0.69055 0.08195
 H1383 H 0.84955 0.57383 0.06383
 H1384 H 0.90958 0.57895 0.17396
 H1385 H 0.89989 0.68266 0.18032
 H1386 H 0.84122 0.56590 0.16217
 C1387 C 0.61999 0.88636 0.16913
 C1388 C 0.62420 0.92455 0.12925
 C1389 C 0.60155 0.89579 0.10003
 C1390 C 0.59568 0.85887 0.13694
 C1391 C 0.62809 0.86692 0.07865
 C1392 C 0.65329 0.89458 0.10930
 C1393 C 0.64840 0.85577 0.14839
 C1394 C 0.62400 0.82721 0.11720
 H1395 H 0.61586 0.89531 0.20652
 H1396 H 0.62301 0.96541 0.13287
 H1397 H 0.57106 0.84501 0.14710
 H1398 H 0.63008 0.85997 0.04049
 H1399 H 0.67684 0.91046 0.09693
 H1400 H 0.62324 0.78664 0.11144
 C1401 C -0.12926 0.63839 0.42387
 C1402 C -0.12411 0.67723 0.38462
 C1403 C -0.14911 0.64957 0.35417
 C1404 C -0.15463 0.61111 0.39308
 C1405 C -0.12176 0.61787 0.33262
 C1406 C -0.09641 0.64518 0.36336
 C1407 C -0.10192 0.60669 0.40225
 C1408 C -0.12696 0.57910 0.37179
 H1409 H -0.13203 0.64660 0.46167
 H1410 H -0.12327 0.71792 0.38954
 H1411 H -0.17881 0.59719 0.40506
 H1412 H -0.11896 0.60962 0.29484
 H1413 H -0.07224 0.65911 0.35136
 H1414 H -0.12784 0.53842 0.36683
 C1415 C 0.60677 -0.09489 0.34787
 C1416 C 0.64405 -0.08922 0.35611
 C1417 C 0.64800 -0.14523 0.34963
 C1418 C 0.61103 -0.15126 0.34105
 C1419 C 0.64316 -0.15399 0.40232
 C1420 C 0.63888 -0.09761 0.40915
 C1421 C 0.60191 -0.10364 0.40055
 C1422 C 0.60587 -0.15966 0.39409
 H1423 H 0.59164 -0.07003 0.32587
 H1424 H 0.65993 -0.06049 0.34010
 H1425 H 0.59977 -0.17334 0.31264
 H1426 H 0.65839 -0.17877 0.42434
 H1427 H 0.65012 -0.07551 0.43756
 H1428 H 0.58998 -0.18838 0.41010
 C1429 C 0.63868 0.59494 0.40577
 C1430 C 0.64180 0.59110 0.35197
 C1431 C 0.64734 0.64720 0.34944
 C1432 C 0.64454 0.65141 0.40292
 C1433 C 0.61036 0.65650 0.34407
 C1434 C 0.60449 0.60004 0.34693
 C1435 C 0.60169 0.60423 0.40041
 C1436 C 0.60723 0.66034 0.39789
 H1437 H 0.65016 0.56954 0.43151
 H1438 H 0.65619 0.56287 0.33272
 H1439 H 0.66137 0.67283 0.42563
 H1440 H 0.59890 0.68192 0.31832
 H1441 H 0.58767 0.57861 0.32421
 H1442 H 0.59283 0.68857 0.41713
 C1443 C -0.10529 -0.10230 0.34736
 C1444 C -0.11144 -0.15874 0.34689
 C1445 C -0.14836 -0.14884 0.35247
 C1446 C -0.14251 -0.09276 0.35259
 C1447 C -0.14529 -0.15091 0.40597
 C1448 C -0.10804 -0.16044 0.40077
 C1449 C -0.10221 -0.10436 0.40088
 C1450 C -0.13913 -0.09446 0.40644
 H1451 H -0.08852 -0.08207 0.32354
 H1452 H -0.10024 -0.18537 0.32209
 H1453 H -0.15690 -0.06516 0.33247
 H1454 H -0.16204 -0.17095 0.42984
 H1455 H -0.09365 -0.18802 0.42091
 H1456 H -0.15035 -0.06788 0.43126
 C1457 C 0.02773 -0.02323 0.73469
 C1458 C 0.02727 0.02234 0.76730
 C1459 C 0.00126 -0.00094 0.79524
 C1460 C 0.00106 -0.04601 0.76654
 C1461 C -0.02506 0.02244 0.76802
 C1462 C 0.00092 0.04704 0.73623
 C1463 C 0.00067 0.00081 0.70457
 C1464 C -0.02598 -0.02311 0.73553
 H1465 H 0.05004 -0.04252 0.72198
 H1466 H 0.04902 0.04076 0.78277
 H1467 H 0.00115 -0.08417 0.78096
 H1468 H -0.04661 0.04098 0.78406
 H1469 H 0.00087 0.08632 0.72490
 H1470 H -0.04849 -0.04229 0.72369
 C1471 C 0.25109 0.29641 0.51524
 C1472 C 0.27755 0.27218 0.48393
 C1473 C 0.25029 0.24923 0.45401
 C1474 C 0.22382 0.27342 0.48466
 C1475 C 0.24998 0.20258 0.48486
 C1476 C 0.27725 0.22556 0.51544
 C1477 C 0.25081 0.24975 0.54611
 C1478 C 0.22353 0.22681 0.51617
 H1479 H 0.25155 0.33508 0.52811
 H1480 H 0.29978 0.29083 0.47012
 H1481 H 0.20184 0.29315 0.47159
 H1482 H 0.24953 0.16391 0.47200
 H1483 H 0.29921 0.20575 0.52831
 H1484 H 0.20130 0.20814 0.52996
 C1485 C 0.11853 0.17094 0.63063
 C1486 C 0.12336 0.14267 0.58413
 C1487 C 0.10135 0.10108 0.60294
 C1488 C 0.09618 0.12902 0.64914
 C1489 C 0.13124 0.07399 0.62337
 C1490 C 0.15357 0.11594 0.60492
 C1491 C 0.14839 0.14383 0.65115
 C1492 C 0.12640 0.10223 0.66992
 H1493 H 0.11341 0.21104 0.63416
 H1494 H 0.12186 0.15909 0.54861
 H1495 H 0.07234 0.13427 0.66716
 H1496 H 0.13666 0.03410 0.61935
 H1497 H 0.17743 0.11069 0.58693
 H1498 H 0.12798 0.08557 0.70531
 C1499 C 0.37153 0.36435 0.58013
 C1500 C 0.37697 0.32556 0.61925
 C1501 C 0.35129 0.35222 0.64938
 C1502 C 0.34549 0.39070 0.61058
 C1503 C 0.37789 0.38480 0.67151
 C1504 C 0.40393 0.35846 0.64105
 C1505 C 0.39813 0.39693 0.60223
 C1506 C 0.37245 0.42360 0.63237
 H1507 H 0.36918 0.35624 0.54228
 H1508 H 0.37850 0.28493 0.61421
 H1509 H 0.32121 0.40379 0.59824
 H1510 H 0.38021 0.39291 0.70938
 H1511 H 0.42821 0.34538 0.65338
 H1512 H 0.37094 0.46423 0.63739
 C1513 C 0.36111 0.09607 0.59340
 C1514 C 0.35576 0.09093 0.64677
 C1515 C 0.35210 0.14735 0.65012
 C1516 C 0.35717 0.15282 0.59717
 C1517 C 0.38907 0.15328 0.65877
 C1518 C 0.39307 0.09650 0.65501
 C1519 C 0.39807 0.10201 0.60199
 C1520 C 0.39444 0.15841 0.60542
 H1521 H 0.34980 0.07238 0.56622
 H1522 H 0.33959 0.06347 0.66413
 H1523 H 0.34236 0.17657 0.57374
 H1524 H 0.40034 0.17703 0.68594
 H1525 H 0.40818 0.07299 0.67845
 H1526 H 0.41059 0.18589 0.58806
 C1527 C 0.13235 0.37644 0.58313
 C1528 C 0.15280 0.40137 0.62204
 C1529 C 0.14792 0.35532 0.65289
 C1530 C 0.12780 0.33013 0.61430
 C1531 C 0.11669 0.37748 0.67435
 C1532 C 0.12118 0.42387 0.64316
 C1533 C 0.10111 0.39868 0.60453
 C1534 C 0.09622 0.35263 0.63541
 H1535 H 0.13850 0.37615 0.54532
 H1536 H 0.17626 0.42138 0.61683
 H1537 H 0.13096 0.29139 0.60246
 H1538 H 0.11057 0.37776 0.71217
 H1539 H 0.11775 0.46233 0.65550
 H1540 H 0.07274 0.33266 0.64062
 C1541 C 0.37817 0.11386 0.82972
 C1542 C 0.40454 0.13999 0.85967
 C1543 C 0.39910 0.10138 0.89848
 C1544 C 0.37309 0.07493 0.86885
 C1545 C 0.37271 0.13397 0.92128
 C1546 C 0.37779 0.17290 0.88216
 C1547 C 0.35178 0.14645 0.85253
 C1548 C 0.34635 0.10784 0.89134
 H1549 H 0.38015 0.10585 0.79178
 H1550 H 0.42870 0.15303 0.84680
 H1551 H 0.37149 0.03433 0.86368
 H1552 H 0.37073 0.14198 0.95923
 H1553 H 0.37940 0.21350 0.88734
 H1554 H 0.32218 0.09479 0.90421
 C1555 C 0.11056 0.34635 0.84143
 C1556 C 0.10647 0.34329 0.89513
 C1557 C 0.10134 0.39952 0.89649
 C1558 C 0.10509 0.40298 0.84311
 C1559 C 0.13828 0.40813 0.90315
 C1560 C 0.14371 0.35155 0.90148
 C1561 C 0.14750 0.35494 0.84811
 C1562 C 0.14240 0.41118 0.84941
 H1563 H 0.09938 0.32078 0.81570
 H1564 H 0.09146 0.31565 0.91427
 H1565 H 0.08885 0.42445 0.81948
 H1566 H 0.14947 0.43374 0.92884
 H1567 H 0.15993 0.33009 0.92516
 H1568 H 0.15743 0.43879 0.83027
 C1569 C 0.12065 0.11048 0.82728
 C1570 C 0.12495 0.07200 0.86691
 C1571 C 0.10132 0.09951 0.89565
 C1572 C 0.09531 0.13659 0.85896
 C1573 C 0.12691 0.12930 0.91810
 C1574 C 0.15311 0.10300 0.88800
 C1575 C 0.14806 0.14208 0.84919
 C1576 C 0.12265 0.16923 0.87986
 H1577 H 0.11723 0.10185 0.78972
 H1578 H 0.12454 0.03115 0.86293
 H1579 H 0.07060 0.14943 0.84813
 H1580 H 0.12816 0.13586 0.95637
 H1581 H 0.17676 0.08807 0.90095
 H1582 H 0.12100 0.20968 0.88598
 C1583 C 0.38841 0.34364 0.84498
 C1584 C 0.39359 0.40032 0.84611
 C1585 C 0.39787 0.39742 0.89941
 C1586 C 0.39301 0.34110 0.89863
 C1587 C 0.36092 0.40562 0.90683
 C1588 C 0.35632 0.40816 0.85318
 C1589 C 0.35146 0.35184 0.85240
 C1590 C 0.35574 0.34894 0.90570
 H1591 H 0.39954 0.31792 0.81929
 H1592 H 0.40947 0.42174 0.82190
 H1593 H 0.40836 0.31378 0.91761
 H1594 H 0.34980 0.43135 0.93253
 H1595 H 0.34097 0.43548 0.83420
 H1596 H 0.33986 0.32752 0.92991
 C1597 C 0.52569 -0.02379 0.73389
 C1598 C 0.52588 0.02244 0.76569
 C1599 C 0.49930 -0.00166 0.79621
 C1600 C 0.49913 -0.04792 0.76512
 C1601 C 0.47213 0.02226 0.76675
 C1602 C 0.49870 0.04638 0.73550
 C1603 C 0.49848 0.00010 0.70440
 C1604 C 0.47195 -0.02397 0.73496
 H1605 H 0.54771 -0.04266 0.71970
 H1606 H 0.54808 0.04145 0.77903
 H1607 H 0.49931 -0.08673 0.77780
 H1608 H 0.45011 0.04113 0.78093
 H1609 H 0.49850 0.08519 0.72283
 H1610 H 0.44977 -0.04306 0.72201
 C1611 C 0.75833 0.29304 0.51580
 C1612 C 0.78061 0.26000 0.48513
 C1613 C 0.75086 0.24723 0.45469
 C1614 C 0.72855 0.28020 0.48470
 C1615 C 0.74300 0.20208 0.48544
 C1616 C 0.77277 0.21490 0.51658
 C1617 C 0.75050 0.24790 0.54658
 C1618 C 0.72073 0.23509 0.51614
 H1619 H 0.76469 0.33048 0.52874
 H1620 H 0.80534 0.26970 0.47199
 H1621 H 0.71043 0.30718 0.47107
 H1622 H 0.73666 0.16465 0.47247
 H1623 H 0.79075 0.18770 0.53011
 H1624 H 0.69604 0.22514 0.52937
 C1625 C 0.64465 0.14883 0.59872
 C1626 C 0.63834 0.09253 0.59585
 C1627 C 0.60145 0.10253 0.60144
 C1628 C 0.60744 0.15846 0.60399
 C1629 C 0.60424 0.09785 0.65487
 C1630 C 0.64149 0.08825 0.64963
 C1631 C 0.64748 0.14421 0.65214
 C1632 C 0.61057 0.15418 0.65775
 H1633 H 0.66163 0.16998 0.57597
 H1634 H 0.64957 0.06707 0.57000
 H1635 H 0.59325 0.18707 0.58487
 H1636 H 0.58724 0.07660 0.67761
 H1637 H 0.65569 0.05966 0.66875
 H1638 H 0.59935 0.17964 0.68360
 C1639 C -0.12923 0.36151 0.57698
 C1640 C -0.12400 0.32254 0.61608
 C1641 C -0.14919 0.34984 0.64659
 C1642 C -0.15480 0.38844 0.60783
 C1643 C -0.12206 0.38170 0.66832
 C1644 C -0.09652 0.35473 0.63752
 C1645 C -0.10211 0.39336 0.59877
 C1646 C -0.12734 0.42059 0.62930
 H1647 H -0.13187 0.35345 0.53914
 H1648 H -0.12298 0.28188 0.61102
 H1649 H -0.17901 0.40219 0.59585
 H1650 H -0.11940 0.38979 0.70615
 H1651 H -0.07232 0.34096 0.64951
 H1652 H -0.12841 0.46125 0.63441
 C1653 C 0.85621 0.15649 0.59466
 C1654 C 0.89350 0.16258 0.60280
 C1655 C 0.89759 0.10639 0.59803
 C1656 C 0.86065 0.09991 0.58951
 C1657 C 0.89275 0.09937 0.65093
 C1658 C 0.88829 0.15591 0.65605
 C1659 C 0.85134 0.14940 0.64752
 C1660 C 0.85550 0.09321 0.64275
 H1661 H 0.84111 0.18065 0.57192
 H1662 H 0.90936 0.19081 0.58599
 H1663 H 0.84948 0.07679 0.56177
 H1664 H 0.90813 0.07559 0.67374
 H1665 H 0.89945 0.17909 0.68375
 H1666 H 0.83964 0.06494 0.65953
 C1667 C 0.62895 0.36325 0.58007
 C1668 C 0.65350 0.39110 0.61169
 C1669 C 0.64762 0.35260 0.65046
 C1670 C 0.62342 0.32441 0.61915
 C1671 C 0.61969 0.38374 0.67108
 C1672 C 0.62521 0.42257 0.63200
 C1673 C 0.60102 0.39439 0.60068
 C1674 C 0.59512 0.35590 0.63944
 H1675 H 0.63243 0.35506 0.54238
 H1676 H 0.67775 0.40553 0.60059
 H1677 H 0.62301 0.28370 0.61431
 H1678 H 0.61620 0.39194 0.70876
 H1679 H 0.62563 0.46329 0.63685
 H1680 H 0.57087 0.34149 0.65054
 C1681 C 0.87857 0.11747 0.83124
 C1682 C 0.90412 0.14474 0.86167
 C1683 C 0.89893 0.10605 0.90042
 C1684 C 0.87373 0.07848 0.87029
 C1685 C 0.87176 0.13749 0.92270
 C1686 C 0.87656 0.17655 0.88358
 C1687 C 0.85139 0.14892 0.85346
 C1688 C 0.84620 0.11025 0.89223
 H1689 H 0.88103 0.10947 0.79336
 H1690 H 0.92819 0.15877 0.84939
 H1691 H 0.87292 0.03782 0.86517
 H1692 H 0.86932 0.14545 0.96059
 H1693 H 0.87732 0.21723 0.88864
 H1694 H 0.82213 0.09622 0.90451
 C1695 C 0.61075 0.34389 0.84444
 C1696 C 0.60747 0.33990 0.89822
 C1697 C 0.60169 0.39591 0.90047
 C1698 C 0.60464 0.40029 0.84705
 C1699 C 0.63860 0.40556 0.90614
 C1700 C 0.64471 0.34916 0.90354
 C1701 C 0.64767 0.35353 0.85011
 C1702 C 0.64189 0.40955 0.85235
 H1703 H 0.59952 0.31842 0.81867
 H1704 H 0.59309 0.31156 0.91744
 H1705 H 0.58778 0.42160 0.82418
 H1706 H 0.64982 0.43104 0.93191
 H1707 H 0.66157 0.32785 0.92641
 H1708 H 0.65626 0.43789 0.83313
 C1709 C 0.61986 0.11228 0.83126
 C1710 C 0.62457 0.07389 0.87087
 C1711 C 0.60155 0.10172 0.90039
 C1712 C 0.59519 0.13879 0.86373
 C1713 C 0.62768 0.13124 0.92186
 C1714 C 0.65325 0.10457 0.89091
 C1715 C 0.64783 0.14360 0.85210
 C1716 C 0.62307 0.17115 0.88360
 H1717 H 0.61582 0.10353 0.79382
 H1718 H 0.62395 0.03303 0.86699
 H1719 H 0.57041 0.15202 0.85368
 H1720 H 0.62960 0.13789 0.96006
 H1721 H 0.67700 0.08930 0.90311
 H1722 H 0.62171 0.21164 0.88964
 C1723 C 0.88828 0.34126 0.84642
 C1724 C 0.89388 0.39780 0.84831
 C1725 C 0.89753 0.39420 0.90169
 C1726 C 0.89225 0.33800 0.90017
 C1727 C 0.86057 0.40304 0.90826
 C1728 C 0.85663 0.40631 0.85455
 C1729 C 0.85132 0.35012 0.85297
 C1730 C 0.85494 0.34646 0.90636
 H1731 H 0.89951 0.31567 0.82068
 H1732 H 0.91022 0.41919 0.82470
 H1733 H 0.90712 0.31016 0.91925
 H1734 H 0.84934 0.42860 0.93402
 H1735 H 0.84177 0.43417 0.83548
 H1736 H 0.83859 0.32505 0.92993
 C1737 C 0.02750 0.47652 0.73654
 C1738 C 0.02670 0.52225 0.76894
 C1739 C 0.00051 0.49901 0.79658
 C1740 C 0.00062 0.45379 0.76806
 C1741 C -0.02564 0.52214 0.76886
 C1742 C 0.00054 0.54669 0.73736
 C1743 C 0.00064 0.50031 0.70588
 C1744 C -0.02623 0.47642 0.73651
 H1745 H 0.04994 0.45726 0.72428
 H1746 H 0.04830 0.54086 0.78465
 H1747 H 0.00065 0.41570 0.78263
 H1748 H -0.04733 0.54067 0.78447
 H1749 H 0.00052 0.58591 0.72587
 H1750 H -0.04858 0.45707 0.72421
 C1751 C 0.25099 0.79837 0.51459
 C1752 C 0.27760 0.77424 0.48350
 C1753 C 0.25047 0.75082 0.45373
 C1754 C 0.22386 0.77492 0.48411
 C1755 C 0.25036 0.70432 0.48472
 C1756 C 0.27749 0.72777 0.51519
 C1757 C 0.25089 0.75185 0.54558
 C1758 C 0.22375 0.72845 0.51578
 H1759 H 0.25127 0.83709 0.52736
 H1760 H 0.29975 0.79302 0.46957
 H1761 H 0.20181 0.79432 0.47082
 H1762 H 0.25010 0.66560 0.47197
 H1763 H 0.29953 0.70838 0.52832
 H1764 H 0.20161 0.70966 0.52970
 C1765 C 0.11851 0.67184 0.62956
 C1766 C 0.12343 0.64267 0.58359
 C1767 C 0.10148 0.60139 0.60312
 C1768 C 0.09621 0.63022 0.64878
 C1769 C 0.13137 0.57478 0.62403
 C1770 C 0.15364 0.61643 0.60487
 C1771 C 0.14837 0.64520 0.65057
 C1772 C 0.12644 0.60391 0.67005
 H1773 H 0.11337 0.71200 0.63237
 H1774 H 0.12191 0.65834 0.54776
 H1775 H 0.07234 0.63572 0.66666
 H1776 H 0.13679 0.53481 0.62076
 H1777 H 0.17753 0.61092 0.58703
 H1778 H 0.12806 0.58790 0.70569
 C1779 C 0.38809 0.84590 0.65586
 C1780 C 0.39316 0.84179 0.60239
 C1781 C 0.39706 0.89823 0.59984
 C1782 C 0.39227 0.90265 0.65291
 C1783 C 0.36010 0.90482 0.59160
 C1784 C 0.35584 0.84802 0.59457
 C1785 C 0.35113 0.85250 0.64769
 C1786 C 0.35501 0.90890 0.64506
 H1787 H 0.39939 0.82147 0.68259
 H1788 H 0.40913 0.81452 0.58447
 H1789 H 0.40734 0.92567 0.67652
 H1790 H 0.34884 0.92929 0.56487
 H1791 H 0.34050 0.82518 0.57096
 H1792 H 0.33906 0.93620 0.66298
 C1793 C 0.36098 0.59540 0.59357
 C1794 C 0.35564 0.59131 0.64703
 C1795 C 0.35197 0.64782 0.64944
 C1796 C 0.35704 0.65223 0.59637
 C1797 C 0.38897 0.65385 0.65793
 C1798 C 0.39297 0.59699 0.65512
 C1799 C 0.39796 0.60145 0.60200
 C1800 C 0.39432 0.65793 0.60449
 H1801 H 0.34964 0.57119 0.56683
 H1802 H 0.33949 0.56415 0.66485
 H1803 H 0.34222 0.67544 0.57248
 H1804 H 0.40029 0.67809 0.68466
 H1805 H 0.40806 0.57392 0.67896
 H1806 H 0.41046 0.68510 0.58666
 C1807 C 0.11626 0.87798 0.67317
 C1808 C 0.12033 0.92463 0.64224
 C1809 C 0.10047 0.89923 0.60351
 C1810 C 0.09599 0.85293 0.63413
 C1811 C 0.13190 0.87779 0.58197
 C1812 C 0.15214 0.90293 0.62097
 C1813 C 0.14769 0.85662 0.65157
 C1814 C 0.12777 0.83121 0.61289
 H1815 H 0.11017 0.87795 0.71100
 H1816 H 0.11649 0.96291 0.65483
 H1817 H 0.07269 0.83248 0.63924
 H1818 H 0.13803 0.87781 0.54415
 H1819 H 0.17543 0.92343 0.61587
 H1820 H 0.13131 0.79261 0.60086
 C1821 C 0.37768 0.61501 0.82937
 C1822 C 0.40388 0.64110 0.85961
 C1823 C 0.39816 0.60256 0.89840
 C1824 C 0.37231 0.57615 0.86848
 C1825 C 0.37169 0.63527 0.92085
 C1826 C 0.37706 0.67413 0.88174
 C1827 C 0.35121 0.64772 0.85182
 C1828 C 0.34548 0.60918 0.89061
 H1829 H 0.37987 0.60697 0.79146
 H1830 H 0.42814 0.65406 0.84702
 H1831 H 0.37067 0.53555 0.86334
 H1832 H 0.36950 0.64332 0.95876
 H1833 H 0.37870 0.71473 0.88687
 H1834 H 0.32121 0.59623 0.90319
 C1835 C 0.10999 0.84806 0.84158
 C1836 C 0.10602 0.84626 0.89530
 C1837 C 0.10166 0.90016 0.89590
 C1838 C 0.10425 0.90449 0.84480
 C1839 C 0.13682 0.90960 0.90295
 C1840 C 0.14336 0.85336 0.90129
 C1841 C 0.14718 0.85670 0.84766
 C1842 C 0.14160 0.91310 0.84942
 H1843 H 0.09791 0.82287 0.81634
 H1844 H 0.09036 0.82017 0.91534
 H1845 H 0.08705 0.92655 0.82308
 H1846 H 0.14684 0.93573 0.92919
 H1847 H 0.15921 0.83246 0.92590
 H1848 H 0.15586 0.94201 0.83080
 C1849 C 0.12073 0.61282 0.82618
 C1850 C 0.12596 0.57353 0.86495
 C1851 C 0.10107 0.60096 0.89581
 C1852 C 0.09547 0.63988 0.85739
 C1853 C 0.12843 0.63230 0.91756
 C1854 C 0.15369 0.60523 0.88637
 C1855 C 0.14809 0.64415 0.84793
 C1856 C 0.12318 0.67153 0.87883
 H1857 H 0.11779 0.60510 0.78837
 H1858 H 0.12671 0.53289 0.85964
 H1859 H 0.07126 0.65397 0.84574
 H1860 H 0.13126 0.64006 0.95543
 H1861 H 0.17789 0.59112 0.89801
 H1862 H 0.12238 0.71216 0.88417
 C1863 C 0.38859 0.84353 0.84428
 C1864 C 0.39435 0.90008 0.84560
 C1865 C 0.39853 0.89691 0.89891
 C1866 C 0.39308 0.84071 0.89794
 C1867 C 0.36162 0.90591 0.90619
 C1868 C 0.35713 0.90873 0.85252
 C1869 C 0.35169 0.85253 0.85155
 C1870 C 0.35586 0.84935 0.90486
 H1871 H 0.39954 0.81765 0.81856
 H1872 H 0.41047 0.92119 0.82148
 H1873 H 0.40810 0.81293 0.91686
 H1874 H 0.35068 0.93179 0.93191
 H1875 H 0.34211 0.93650 0.83359
 H1876 H 0.33974 0.82824 0.92898
 C1877 C 0.52490 0.47621 0.73441
 C1878 C 0.52493 0.52273 0.76580
 C1879 C 0.49811 0.49904 0.79613
 C1880 C 0.49807 0.45247 0.76540
 C1881 C 0.47116 0.52275 0.76608
 C1882 C 0.49800 0.54648 0.73505
 C1883 C 0.49798 0.49991 0.70432
 C1884 C 0.47113 0.47621 0.73461
 H1885 H 0.54699 0.45711 0.72071
 H1886 H 0.54705 0.54182 0.77929
 H1887 H 0.49810 0.41377 0.77840
 H1888 H 0.44908 0.54185 0.77980
 H1889 H 0.49797 0.58518 0.72205
 H1890 H 0.44902 0.45712 0.72107
 C1891 C 0.75760 0.79621 0.51482
 C1892 C 0.78000 0.76355 0.48396
 C1893 C 0.75020 0.75014 0.45385
 C1894 C 0.72777 0.78273 0.48403
 C1895 C 0.74290 0.70489 0.48475
 C1896 C 0.77271 0.71835 0.51555
 C1897 C 0.75032 0.75097 0.54572
 C1898 C 0.72050 0.73752 0.51562
 H1899 H 0.76371 0.83378 0.52766
 H1900 H 0.80459 0.77363 0.47060
 H1901 H 0.70935 0.80932 0.47055
 H1902 H 0.73681 0.66731 0.47192
 H1903 H 0.79105 0.69163 0.52896
 H1904 H 0.69598 0.72710 0.52915
 C1905 C 0.64451 0.64978 0.59776
 C1906 C 0.63840 0.59339 0.59544
 C1907 C 0.60146 0.60311 0.60094
 C1908 C 0.60727 0.65914 0.60294
 C1909 C 0.60430 0.59910 0.65443
 C1910 C 0.64159 0.58977 0.64927
 C1911 C 0.64739 0.64582 0.65123
 C1912 C 0.61044 0.65552 0.65675
 H1913 H 0.66139 0.67081 0.57473
 H1914 H 0.64974 0.56774 0.56986
 H1915 H 0.59298 0.68744 0.58355
 H1916 H 0.58741 0.57797 0.67743
 H1917 H 0.65589 0.56149 0.66865
 H1918 H 0.59912 0.68118 0.68234
 C1919 C 0.88802 0.84220 0.65244
 C1920 C 0.89200 0.83866 0.59871
 C1921 C 0.89700 0.89492 0.59665
 C1922 C 0.89333 0.89877 0.64999
 C1923 C 0.86001 0.90335 0.59009
 C1924 C 0.85464 0.84671 0.59255
 C1925 C 0.85104 0.85066 0.64593
 C1926 C 0.85606 0.90688 0.64378
 H1927 H 0.89935 0.81690 0.67840
 H1928 H 0.90700 0.81088 0.57983
 H1929 H 0.90949 0.92053 0.67330
 H1930 H 0.84870 0.92864 0.56411
 H1931 H 0.83837 0.82498 0.56928
 H1932 H 0.84108 0.93469 0.66266
 C1933 C 0.85632 0.65586 0.59452
 C1934 C 0.89361 0.66215 0.60261
 C1935 C 0.89774 0.60584 0.59896
 C1936 C 0.86079 0.59918 0.59051
 C1937 C 0.89283 0.60000 0.65197
 C1938 C 0.88835 0.65665 0.65598
 C1939 C 0.85140 0.64997 0.64751
 C1940 C 0.85558 0.59367 0.64386
 H1941 H 0.84121 0.67941 0.57124
 H1942 H 0.90948 0.69004 0.58531
 H1943 H 0.84965 0.57544 0.56323
 H1944 H 0.90818 0.57673 0.67530
 H1945 H 0.89949 0.68045 0.68322
 H1946 H 0.83972 0.56576 0.66114
 C1947 C 0.61958 0.88508 0.67073
 C1948 C 0.62459 0.92386 0.63149
 C1949 C 0.60051 0.89502 0.60054
 C1950 C 0.59513 0.85659 0.63945
 C1951 C 0.62864 0.86447 0.57972
 C1952 C 0.65308 0.89296 0.61099
 C1953 C 0.64771 0.85452 0.64990
 C1954 C 0.62363 0.82567 0.61896
 H1955 H 0.61623 0.89337 0.70842
 H1956 H 0.62460 0.96460 0.63622
 H1957 H 0.57104 0.84173 0.65076
 H1958 H 0.63198 0.85619 0.54202
 H1959 H 0.67715 0.90785 0.59966
 H1960 H 0.62362 0.78493 0.61425
 C1961 C 0.87806 0.61817 0.83178
 C1962 C 0.90351 0.64523 0.86254
 C1963 C 0.89788 0.60667 0.90132
 C1964 C 0.87277 0.57933 0.87085
 C1965 C 0.87070 0.63850 0.92310
 C1966 C 0.87595 0.67742 0.88396
 C1967 C 0.85087 0.65000 0.85349
 C1968 C 0.84523 0.61147 0.89229
 H1969 H 0.88079 0.61005 0.79396
 H1970 H 0.92773 0.65899 0.85056
 H1971 H 0.87177 0.53866 0.86582
 H1972 H 0.86799 0.64659 0.96094
 H1973 H 0.87690 0.71809 0.88893
 H1974 H 0.82101 0.59773 0.90428
 C1975 C 0.61001 0.84562 0.84489
 C1976 C 0.60654 0.84236 0.89865
 C1977 C 0.60180 0.89613 0.90059
 C1978 C 0.60391 0.90182 0.84954
 C1979 C 0.63696 0.90602 0.90716
 C1980 C 0.64391 0.84995 0.90404
 C1981 C 0.64719 0.85481 0.85040
 C1982 C 0.64121 0.91101 0.85365
 H1983 H 0.59786 0.82092 0.81929
 H1984 H 0.59126 0.81551 0.91839
 H1985 H 0.58634 0.92410 0.82861
 H1986 H 0.64705 0.93154 0.93387
 H1987 H 0.66017 0.82871 0.92784
 H1988 H 0.65502 0.94068 0.83543
 C1989 C 0.62014 0.61505 0.82952
 C1990 C 0.62558 0.57619 0.86858
 C1991 C 0.60122 0.60432 0.89978
 C1992 C 0.59542 0.64284 0.86104
 C1993 C 0.62901 0.63547 0.92058
 C1994 C 0.65373 0.60768 0.88906
 C1995 C 0.64793 0.64620 0.85032
 C1996 C 0.62358 0.67433 0.88152
 H1997 H 0.61684 0.60690 0.79180
 H1998 H 0.62605 0.53548 0.86371
 H1999 H 0.57118 0.65720 0.84985
 H2000 H 0.63232 0.64363 0.95829
 H2001 H 0.67798 0.59332 0.90025
 H2002 H 0.62310 0.71504 0.88639
 C2003 C 0.88843 0.84117 0.84562
 C2004 C 0.89447 0.89760 0.84752
 C2005 C 0.89839 0.89382 0.90085
 C2006 C 0.89266 0.83772 0.89932
 C2007 C 0.86151 0.90328 0.90782
 C2008 C 0.85731 0.90673 0.85416
 C2009 C 0.85156 0.85066 0.85258
 C2010 C 0.85544 0.84681 0.90591
 H2011 H 0.89933 0.81544 0.81974
 H2012 H 0.91086 0.91873 0.82378
 H2013 H 0.90743 0.80959 0.91816
 H2014 H 0.85060 0.92898 0.93374
 H2015 H 0.84256 0.93490 0.83533
 H2016 H 0.83904 0.82566 0.92961
   
