data_POSCAR
  _audit_creation_date              2014-09-24
  _audit_creation_method            'ToBaCCo'
  _symmetry_space_group_name_H-M    'P1'
  _symmetry_Int_Tables_number       1
  _symmetry_cell_setting            triclinic
  loop_
  _symmetry_equiv_pos_as_xyz
 x,y,z
_cell_length_a 108.0049
_cell_length_b 107.8568
_cell_length_c 109.1504
_cell_angle_alpha 90.001500
_cell_angle_beta 89.977000
_cell_angle_gamma 89.936300
loop_
  _atom_site_label
  _atom_site_type_symbol
  _atom_site_fract_x
  _atom_site_fract_y
  _atom_site_fract_z
N1 N 0.35167 0.31803 0.32708
 N2 N 0.35123 0.32659 0.31854
 C3 C 0.36070 0.32485 0.31069
 C4 C 0.36745 0.31461 0.31449
 C5 C 0.36140 0.31053 0.32495
 H6 H 0.36249 0.33057 0.30277
 H7 H 0.36394 0.30277 0.33069
 Cu8 Cu 0.33837 0.33923 0.31853
 Cu9 Cu 0.33969 0.31728 0.34038
 Cu10 Cu 0.31700 0.34002 0.34098
 N11 N 0.32577 0.35211 0.31919
 N12 N 0.31743 0.35236 0.32795
 C13 C 0.30991 0.36216 0.32623
 C14 C 0.31373 0.36845 0.31581
 C15 C 0.32384 0.36176 0.31160
 H16 H 0.30230 0.36458 0.33220
 H17 H 0.32936 0.36372 0.30358
 N18 N 0.31813 0.32673 0.35333
 N19 N 0.32677 0.31808 0.35309
 C20 C 0.32513 0.31043 0.36269
 C21 C 0.31495 0.31442 0.36934
 C22 C 0.31076 0.32480 0.36310
 H23 H 0.33090 0.30249 0.36464
 H24 H 0.30299 0.33060 0.36554
 H25 H 0.32535 0.32593 0.33119
 H26 H 0.33574 0.33607 0.34049
 N27 N 0.35239 0.81940 -0.17399
 N28 N 0.35158 0.82789 -0.18257
 C29 C 0.36097 0.82637 -0.19055
 C30 C 0.36813 0.81633 -0.18680
 C31 C 0.36231 0.81218 -0.17620
 H32 H 0.36246 0.83219 -0.19846
 H33 H 0.36502 0.80450 -0.17044
 Cu34 Cu 0.33836 0.84018 -0.18248
 Cu35 Cu 0.34061 0.81835 -0.16053
 Cu36 Cu 0.31737 0.84049 -0.15968
 N37 N 0.32545 0.85277 -0.18160
 N38 N 0.31730 0.85283 -0.17268
 C39 C 0.30954 0.86248 -0.17421
 C40 C 0.31299 0.86892 -0.18470
 C41 C 0.32318 0.86240 -0.18912
 H42 H 0.30199 0.86459 -0.16806
 H43 H 0.32861 0.86449 -0.19716
 N44 N 0.31898 0.82725 -0.14735
 N45 N 0.32783 0.81883 -0.14766
 C46 C 0.32645 0.81114 -0.13804
 C47 C 0.31622 0.81487 -0.13130
 C48 C 0.31174 0.82514 -0.13752
 H49 H 0.33247 0.80338 -0.13611
 H50 H 0.30380 0.83071 -0.13509
 H51 H 0.32593 0.82654 -0.16957
 H52 H 0.33621 0.83700 -0.16048
 N53 N 0.85165 0.31975 -0.17241
 N54 N 0.85140 0.32857 -0.18071
 C55 C 0.86089 0.32690 -0.18855
 C56 C 0.86749 0.31647 -0.18497
 C57 C 0.86131 0.31220 -0.17467
 H58 H 0.86290 0.33290 -0.19621
 H59 H 0.86359 0.30415 -0.16922
 Cu60 Cu 0.83874 0.34143 -0.18043
 Cu61 Cu 0.83948 0.31873 -0.15927
 Cu62 Cu 0.81647 0.34116 -0.15889
 N63 N 0.82559 0.35379 -0.18022
 N64 N 0.81693 0.35362 -0.17178
 C65 C 0.80909 0.36313 -0.17368
 C66 C 0.81300 0.36971 -0.18392
 C67 C 0.82355 0.36342 -0.18780
 H68 H 0.80116 0.36504 -0.16795
 H69 H 0.82935 0.36565 -0.19555
 N70 N 0.81757 0.32781 -0.14663
 N71 N 0.82633 0.31928 -0.14674
 C72 C 0.82463 0.31160 -0.13716
 C73 C 0.81428 0.31545 -0.13069
 C74 C 0.81006 0.32576 -0.13699
 H75 H 0.83048 0.30374 -0.13508
 H76 H 0.80219 0.33148 -0.13465
 H77 H 0.82543 0.32749 -0.16880
 H78 H 0.83525 0.33741 -0.15870
 N79 N 0.85209 0.81830 0.32596
 N80 N 0.85139 0.82682 0.31739
 C81 C 0.86077 0.82517 0.30941
 C82 C 0.86774 0.81504 0.31316
 C83 C 0.86190 0.81094 0.32373
 H84 H 0.86237 0.83092 0.30147
 H85 H 0.86457 0.80322 0.32944
 Cu86 Cu 0.83833 0.83928 0.31754
 Cu87 Cu 0.84026 0.81732 0.33938
 Cu88 Cu 0.81724 0.83970 0.34024
 N89 N 0.82555 0.85199 0.31840
 N90 N 0.81734 0.85209 0.32728
 C91 C 0.80967 0.86180 0.32574
 C92 C 0.81322 0.86825 0.31529
 C93 C 0.82338 0.86167 0.31090
 H94 H 0.80211 0.86395 0.33186
 H95 H 0.82885 0.86373 0.30287
 N96 N 0.81867 0.82639 0.35253
 N97 N 0.82744 0.81788 0.35222
 C98 C 0.82596 0.81016 0.36180
 C99 C 0.81574 0.81396 0.36852
 C100 C 0.81137 0.82430 0.36233
 H101 H 0.83194 0.80238 0.36376
 H102 H 0.80343 0.82988 0.36472
 H103 H 0.82569 0.82572 0.33033
 H104 H 0.83602 0.83602 0.33952
 N105 N 0.64850 0.68284 0.32769
 N106 N 0.64885 0.67423 0.31918
 C107 C 0.63935 0.67601 0.31138
 C108 C 0.63269 0.68631 0.31518
 C109 C 0.63881 0.69039 0.32558
 H110 H 0.63747 0.67025 0.30350
 H111 H 0.63635 0.69819 0.33130
 Cu112 Cu 0.66162 0.66147 0.31918
 Cu113 Cu 0.66053 0.68358 0.34093
 Cu114 Cu 0.68299 0.66063 0.34161
 N115 N 0.67409 0.64845 0.31994
 N116 N 0.68242 0.64819 0.32871
 C117 C 0.68984 0.63829 0.32709
 C118 C 0.68597 0.63193 0.31675
 C119 C 0.67593 0.63868 0.31247
 H120 H 0.69741 0.63586 0.33311
 H121 H 0.67039 0.63668 0.30447
 N122 N 0.68204 0.67402 0.35386
 N123 N 0.67350 0.68277 0.35358
 C124 C 0.67528 0.69049 0.36311
 C125 C 0.68543 0.68642 0.36975
 C126 C 0.68946 0.67594 0.36358
 H127 H 0.66952 0.69842 0.36514
 H128 H 0.69728 0.67017 0.36594
 H129 H 0.67477 0.67475 0.33173
 H130 H 0.66429 0.66476 0.34111
 N131 N 0.64838 0.18391 -0.17139
 N132 N 0.64824 0.17548 -0.18008
 C133 C 0.63854 0.17766 -0.18753
 C134 C 0.63226 0.18803 -0.18331
 C135 C 0.63882 0.19174 -0.17303
 H136 H 0.63628 0.17214 -0.19547
 H137 H 0.63674 0.19947 -0.16708
 Cu138 Cu 0.66067 0.16243 -0.18082
 Cu139 Cu 0.66090 0.18403 -0.15855
 Cu140 Cu 0.68281 0.16053 -0.15923
 N141 N 0.67285 0.14913 -0.18085
 N142 N 0.68148 0.14845 -0.17241
 C143 C 0.68859 0.13843 -0.17453
 C144 C 0.68421 0.13239 -0.18491
 C145 C 0.67417 0.13953 -0.18864
 H146 H 0.69634 0.13579 -0.16885
 H147 H 0.66819 0.13790 -0.19639
 N148 N 0.68262 0.17361 -0.14663
 N149 N 0.67429 0.18256 -0.14637
 C150 C 0.67661 0.18996 -0.13671
 C151 C 0.68690 0.18548 -0.13055
 C152 C 0.69045 0.17509 -0.13714
 H153 H 0.67111 0.19796 -0.13426
 H154 H 0.69822 0.16908 -0.13522
 H155 H 0.67457 0.17511 -0.16845
 H156 H 0.66420 0.16515 -0.15893
 N157 N 0.14714 0.68475 -0.17210
 N158 N 0.14721 0.67619 -0.18066
 C159 C 0.13765 0.67819 -0.18833
 C160 C 0.13123 0.68859 -0.18438
 C161 C 0.13757 0.69249 -0.17404
 H162 H 0.13556 0.67253 -0.19623
 H163 H 0.13534 0.70031 -0.16824
 Cu164 Cu 0.15975 0.66322 -0.18094
 Cu165 Cu 0.15940 0.68517 -0.15905
 Cu166 Cu 0.18153 0.66189 -0.15893
 N167 N 0.17204 0.65003 -0.18054
 N168 N 0.18054 0.64957 -0.17195
 C169 C 0.18780 0.63960 -0.17382
 C170 C 0.18364 0.63342 -0.18416
 C171 C 0.17360 0.64033 -0.18816
 H172 H 0.19547 0.63702 -0.16800
 H173 H 0.16789 0.63850 -0.19608
 N174 N 0.18099 0.67519 -0.14655
 N175 N 0.17255 0.68404 -0.14660
 C176 C 0.17460 0.69166 -0.13705
 C177 C 0.18484 0.68744 -0.13064
 C178 C 0.18863 0.67696 -0.13697
 H179 H 0.16909 0.69976 -0.13498
 H180 H 0.19634 0.67099 -0.13472
 H181 H 0.17335 0.67621 -0.16855
 H182 H 0.16291 0.66631 -0.15905
 N183 N 0.14869 0.18307 0.32860
 N184 N 0.14902 0.17444 0.32011
 C185 C 0.13948 0.17618 0.31235
 C186 C 0.13282 0.18649 0.31616
 C187 C 0.13898 0.19060 0.32652
 H188 H 0.13758 0.17041 0.30449
 H189 H 0.13653 0.19840 0.33224
 Cu190 Cu 0.16180 0.16171 0.32008
 Cu191 Cu 0.16076 0.18385 0.34180
 Cu192 Cu 0.18324 0.16093 0.34247
 N193 N 0.17429 0.14871 0.32084
 N194 N 0.18265 0.14847 0.32958
 C195 C 0.19006 0.13857 0.32796
 C196 C 0.18616 0.13219 0.31764
 C197 C 0.17610 0.13893 0.31337
 H198 H 0.19764 0.13614 0.33396
 H199 H 0.17054 0.13691 0.30540
 N200 N 0.18230 0.17433 0.35470
 N201 N 0.17376 0.18307 0.35442
 C202 C 0.17553 0.19079 0.36396
 C203 C 0.18568 0.18674 0.37059
 C204 C 0.18973 0.17626 0.36442
 H205 H 0.16975 0.19871 0.36599
 H206 H 0.19754 0.17048 0.36679
 H207 H 0.17498 0.17501 0.33258
 H208 H 0.16454 0.16503 0.34200
 N209 N 0.64893 0.31853 0.66987
 N210 N 0.64883 0.32727 0.67825
 C211 C 0.63918 0.32539 0.68584
 C212 C 0.63285 0.31490 0.68201
 C213 C 0.63935 0.31082 0.67182
 H214 H 0.63689 0.33128 0.69352
 H215 H 0.63734 0.30278 0.66626
 Cu216 Cu 0.66129 0.34030 0.67839
 Cu217 Cu 0.66147 0.31778 0.65706
 Cu218 Cu 0.68408 0.34057 0.65739
 N219 N 0.67422 0.35286 0.67861
 N220 N 0.68307 0.35292 0.67036
 C221 C 0.69068 0.36254 0.67252
 C222 C 0.68640 0.36890 0.68272
 C223 C 0.67592 0.36244 0.68633
 H224 H 0.69876 0.36468 0.66709
 H225 H 0.66990 0.36463 0.69394
 N226 N 0.68353 0.32729 0.64502
 N227 N 0.67493 0.31861 0.64489
 C228 C 0.67704 0.31098 0.63535
 C229 C 0.68747 0.31503 0.62914
 C230 C 0.69132 0.32541 0.63556
 H231 H 0.67131 0.30312 0.63303
 H232 H 0.69925 0.33115 0.63355
 H233 H 0.67512 0.32668 0.66697
 H234 H 0.66538 0.33654 0.65672
 N235 N 0.64885 0.81745 1.17038
 N236 N 0.64896 0.82586 1.17908
 C237 C 0.63924 0.82393 1.18658
 C238 C 0.63268 0.81373 1.18237
 C239 C 0.63910 0.80988 1.17205
 H240 H 0.63715 0.82949 1.19455
 H241 H 0.63683 0.80220 1.16610
 Cu242 Cu 0.66179 0.83851 1.17976
 Cu243 Cu 0.66131 0.81692 1.15750
 Cu244 Cu 0.68395 0.83965 1.15811
 N245 N 0.67439 0.85141 1.17976
 N246 N 0.68303 0.85177 1.17129
 C247 C 0.69049 0.86152 1.17339
 C248 C 0.68633 0.86767 1.18375
 C249 C 0.67606 0.86096 1.18753
 H250 H 0.69828 0.86399 1.16769
 H251 H 0.67028 0.86284 1.19539
 N252 N 0.68332 0.82660 1.14551
 N253 N 0.67471 0.81794 1.14528
 C254 C 0.67679 0.81042 1.13564
 C255 C 0.68722 0.81454 1.12946
 C256 C 0.69109 0.82483 1.13601
 H257 H 0.67107 0.80258 1.13327
 H258 H 0.69903 0.83058 1.13408
 H259 H 0.67527 0.82537 1.16736
 H260 H 0.66522 0.83568 1.15787
 N261 N 0.14981 0.31704 1.17112
 N262 N 0.14971 0.32538 1.17989
 C263 C 0.13999 0.32321 1.18731
 C264 C 0.13364 0.31295 1.18298
 C265 C 0.14017 0.30930 1.17266
 H266 H 0.13765 0.32879 1.19521
 H267 H 0.13815 0.30155 1.16672
 Cu268 Cu 0.16221 0.33833 1.18072
 Cu269 Cu 0.16237 0.31690 1.15832
 Cu270 Cu 0.18444 0.34019 1.15918
 N271 N 0.17446 0.35153 1.18085
 N272 N 0.18312 0.35221 1.17243
 C273 C 0.19027 0.36217 1.17464
 C274 C 0.18588 0.36812 1.18504
 C275 C 0.17581 0.36106 1.18871
 H276 H 0.19811 0.36483 1.16908
 H277 H 0.16984 0.36276 1.19647
 N278 N 0.18422 0.32716 1.14652
 N279 N 0.17581 0.31831 1.14619
 C280 C 0.17806 0.31095 1.13648
 C281 C 0.18840 0.31535 1.13036
 C282 C 0.19205 0.32565 1.13703
 H283 H 0.17259 0.30293 1.13408
 H284 H 0.19976 0.33170 1.13504
 H285 H 0.17608 0.32565 1.16829
 H286 H 0.16582 0.33577 1.15881
 N287 N 0.14934 0.81863 0.67086
 N288 N 0.14944 0.82712 0.67949
 C289 C 0.13966 0.82532 0.68694
 C290 C 0.13306 0.81514 0.68277
 C291 C 0.13952 0.81115 0.67253
 H292 H 0.13755 0.83098 0.69484
 H293 H 0.13722 0.80345 0.66662
 Cu294 Cu 0.16229 0.83973 0.68015
 Cu295 Cu 0.16186 0.81797 0.65804
 Cu296 Cu 0.18453 0.84068 0.65857
 N297 N 0.17492 0.85259 0.68010
 N298 N 0.18359 0.85289 0.67166
 C299 C 0.19102 0.86267 0.67371
 C300 C 0.18680 0.86891 0.68401
 C301 C 0.17654 0.86221 0.68780
 H302 H 0.19883 0.86513 0.66802
 H303 H 0.17071 0.86415 0.69561
 N304 N 0.18393 0.82753 0.64606
 N305 N 0.17532 0.81886 0.64588
 C306 C 0.17740 0.81129 0.63628
 C307 C 0.18783 0.81538 0.63009
 C308 C 0.19170 0.82570 0.63659
 H309 H 0.17166 0.80346 0.63391
 H310 H 0.19965 0.83144 0.63461
 H311 H 0.17578 0.82648 0.66788
 H312 H 0.16577 0.83673 0.65828
 N313 N 0.35200 0.68082 0.67263
 N314 N 0.35196 0.67226 0.68119
 C315 C 0.36149 0.67429 0.68888
 C316 C 0.36791 0.68468 0.68491
 C317 C 0.36157 0.68855 0.67455
 H318 H 0.36367 0.66856 0.69670
 H319 H 0.36369 0.69645 0.66884
 Cu320 Cu 0.33948 0.65927 0.68145
 Cu321 Cu 0.33970 0.68126 0.65960
 Cu322 Cu 0.31701 0.65857 0.66011
 N323 N 0.32650 0.64678 0.68177
 N324 N 0.31777 0.64654 0.67340
 C325 C 0.31008 0.63702 0.67572
 C326 C 0.31417 0.63092 0.68615
 C327 C 0.32464 0.63742 0.68972
 H328 H 0.30205 0.63477 0.67025
 H329 H 0.33053 0.63543 0.69747
 N330 N 0.31782 0.67154 0.64742
 N331 N 0.32647 0.68016 0.64721
 C332 C 0.32460 0.68754 0.63743
 C333 C 0.31427 0.68339 0.63114
 C334 C 0.31022 0.67322 0.63778
 H335 H 0.33033 0.69540 0.63510
 H336 H 0.30241 0.66736 0.63566
 H337 H 0.32586 0.67264 0.66951
 H338 H 0.33574 0.66251 0.65963
 N339 N 0.35038 0.17975 1.17343
 N340 N 0.34986 0.17133 1.18210
 C341 C 0.35942 0.17303 1.18984
 C342 C 0.36632 0.18308 1.18582
 C343 C 0.36025 0.18709 1.17535
 H344 H 0.36126 0.16730 1.19775
 H345 H 0.36276 0.19480 1.16955
 Cu346 Cu 0.33682 0.15891 1.18241
 Cu347 Cu 0.33828 0.18055 1.16023
 Cu348 Cu 0.31527 0.15818 1.16015
 N349 N 0.32404 0.14621 1.18199
 N350 N 0.31566 0.14598 1.17327
 C351 C 0.30804 0.13630 1.17511
 C352 C 0.31182 0.13007 1.18557
 C353 C 0.32202 0.13666 1.18968
 H354 H 0.30029 0.13404 1.16928
 H355 H 0.32766 0.13458 1.19759
 N356 N 0.31643 0.17130 1.14766
 N357 N 0.32520 0.17980 1.14767
 C358 C 0.32355 0.18734 1.13797
 C359 C 0.31323 0.18342 1.13151
 C360 C 0.30896 0.17322 1.13796
 H361 H 0.32940 0.19516 1.13582
 H362 H 0.30109 0.16750 1.13569
 H363 H 0.32391 0.17230 1.16969
 H364 H 0.33407 0.16185 1.16044
 N365 N 0.85077 0.67958 1.17328
 N366 N 0.85021 0.67120 1.18200
 C367 C 0.85975 0.67291 1.18976
 C368 C 0.86667 0.68293 1.18571
 C369 C 0.86065 0.68691 1.17521
 H370 H 0.86149 0.66731 1.19778
 H371 H 0.86331 0.69448 1.16928
 Cu372 Cu 0.83714 0.65879 1.18233
 Cu373 Cu 0.83877 0.68027 1.16000
 Cu374 Cu 0.81574 0.65792 1.15995
 N375 N 0.82432 0.64612 1.18195
 N376 N 0.81599 0.64585 1.17320
 C377 C 0.80831 0.63623 1.17509
 C378 C 0.81202 0.63006 1.18561
 C379 C 0.82224 0.63664 1.18970
 H380 H 0.80069 0.63384 1.16913
 H381 H 0.82772 0.63471 1.19776
 N382 N 0.81702 0.67091 1.14733
 N383 N 0.82578 0.67942 1.14734
 C384 C 0.82418 0.68689 1.13758
 C385 C 0.81391 0.68291 1.13108
 C386 C 0.80962 0.67275 1.13757
 H387 H 0.83004 0.69470 1.13542
 H388 H 0.80176 0.66702 1.13531
 H389 H 0.82434 0.67211 1.16943
 H390 H 0.83455 0.66159 1.16032
 N391 N 0.85203 0.18062 0.67236
 N392 N 0.85191 0.17209 0.68096
 C393 C 0.86143 0.17409 0.68866
 C394 C 0.86791 0.18444 0.68469
 C395 C 0.86163 0.18831 0.67430
 H396 H 0.86355 0.16838 0.69652
 H397 H 0.86379 0.19620 0.66858
 Cu398 Cu 0.83934 0.15918 0.68125
 Cu399 Cu 0.83972 0.18113 0.65934
 Cu400 Cu 0.81683 0.15864 0.65995
 N401 N 0.82624 0.14683 0.68162
 N402 N 0.81748 0.14666 0.67328
 C403 C 0.80972 0.13720 0.67561
 C404 C 0.81380 0.13106 0.68601
 C405 C 0.82432 0.13747 0.68957
 H406 H 0.80168 0.13502 0.67014
 H407 H 0.83024 0.13540 0.69729
 N408 N 0.81775 0.17155 0.64721
 N409 N 0.82647 0.18010 0.64697
 C410 C 0.82463 0.18748 0.63718
 C411 C 0.81425 0.18339 0.63091
 C412 C 0.81015 0.17325 0.63758
 H413 H 0.83050 0.19519 0.63475
 H414 H 0.80219 0.16755 0.63560
 H415 H 0.82582 0.17267 0.66933
 H416 H 0.83557 0.16243 0.65945
 N417 N 0.31777 0.35387 0.67351
 N418 N 0.32651 0.35403 0.68187
 C419 C 0.32442 0.36357 0.68958
 C420 C 0.31381 0.36974 0.68583
 C421 C 0.30985 0.36328 0.67558
 H422 H 0.33028 0.36591 0.69725
 H423 H 0.30178 0.36520 0.67005
 Cu424 Cu 0.33978 0.34182 0.68179
 Cu425 Cu 0.31729 0.34153 0.66050
 Cu426 Cu 0.34058 0.31939 0.66037
 N427 N 0.35263 0.32914 0.68177
 N428 N 0.35289 0.32043 0.67337
 C429 C 0.36267 0.31297 0.67541
 C430 C 0.36892 0.31720 0.68569
 C431 C 0.36223 0.32750 0.68947
 H432 H 0.36498 0.30501 0.66985
 H433 H 0.36426 0.33343 0.69718
 N434 N 0.32727 0.31991 0.64801
 N435 N 0.31840 0.32832 0.64810
 C436 C 0.31079 0.32627 0.63855
 C437 C 0.31506 0.31607 0.63209
 C438 C 0.32555 0.31229 0.63839
 H439 H 0.30281 0.33189 0.63637
 H440 H 0.33146 0.30453 0.63617
 H441 H 0.32654 0.32784 0.67014
 H442 H 0.33612 0.33801 0.66006
 N443 N 0.31841 0.85298 0.17335
 N444 N 0.32723 0.85287 0.18162
 C445 C 0.32535 0.86226 0.18954
 C446 C 0.31477 0.86864 0.18604
 C447 C 0.31063 0.86244 0.17570
 H448 H 0.33131 0.86436 0.19721
 H449 H 0.30253 0.86458 0.17029
 Cu450 Cu 0.34035 0.84049 0.18123
 Cu451 Cu 0.31766 0.84088 0.16012
 Cu452 Cu 0.34060 0.81840 0.15947
 N453 N 0.35297 0.82761 0.18091
 N454 N 0.35304 0.81902 0.17238
 C455 C 0.36270 0.81137 0.17426
 C456 C 0.36906 0.81533 0.18457
 C457 C 0.36258 0.82569 0.18854
 H458 H 0.36485 0.80345 0.16858
 H459 H 0.36475 0.83146 0.19633
 N460 N 0.32723 0.81931 0.14722
 N461 N 0.31849 0.82787 0.14747
 C462 C 0.31081 0.82608 0.13792
 C463 C 0.31486 0.81588 0.13131
 C464 C 0.32532 0.81185 0.13751
 H465 H 0.30281 0.83177 0.13597
 H466 H 0.33119 0.80413 0.13508
 H467 H 0.32677 0.82694 0.16950
 H468 H 0.33642 0.83711 0.15947
 N469 N 0.81754 0.35139 0.17396
 N470 N 0.82599 0.35116 0.18262
 C471 C 0.82393 0.36061 0.19041
 C472 C 0.81363 0.36716 0.18645
 C473 C 0.80984 0.36099 0.17595
 H474 H 0.82963 0.36267 0.19829
 H475 H 0.80203 0.36327 0.17019
 Cu476 Cu 0.83898 0.33865 0.18281
 Cu477 Cu 0.81724 0.33929 0.16072
 Cu478 Cu 0.84060 0.31723 0.16046
 N479 N 0.85221 0.32640 0.18231
 N480 N 0.85279 0.31807 0.17356
 C481 C 0.86277 0.31083 0.17535
 C482 C 0.86886 0.31481 0.18582
 C483 C 0.86184 0.32474 0.18998
 H484 H 0.86537 0.30323 0.16943
 H485 H 0.86361 0.33039 0.19796
 N486 N 0.82742 0.31788 0.14801
 N487 N 0.81853 0.32627 0.14809
 C488 C 0.81102 0.32427 0.13844
 C489 C 0.81538 0.31411 0.13195
 C490 C 0.82580 0.31033 0.13833
 H491 H 0.80292 0.32976 0.13635
 H492 H 0.83185 0.30269 0.13603
 H493 H 0.82615 0.32522 0.17007
 H494 H 0.83608 0.33587 0.16083
 N495 N 0.81387 0.85040 0.67544
 N496 N 0.82243 0.85033 0.68397
 C497 C 0.82104 0.86042 0.69109
 C498 C 0.81101 0.86720 0.68681
 C499 C 0.80669 0.86049 0.67684
 H500 H 0.82693 0.86262 0.69879
 H501 H 0.79884 0.86266 0.67109
 Cu502 Cu 0.83436 0.83689 0.68518
 Cu503 Cu 0.81246 0.83717 0.66342
 Cu504 Cu 0.83860 0.81868 0.66049
 N505 N 0.84887 0.82641 0.68353
 N506 N 0.85060 0.81947 0.67379
 C507 C 0.86129 0.81319 0.67502
 C508 C 0.86662 0.81637 0.68616
 C509 C 0.85843 0.82482 0.69129
 H510 H 0.86486 0.80676 0.66830
 H511 H 0.85926 0.82942 0.70004
 N512 N 0.82524 0.81915 0.64817
 N513 N 0.81521 0.82601 0.64943
 C514 C 0.80773 0.82414 0.63975
 C515 C 0.81327 0.81561 0.63199
 C516 C 0.82437 0.81266 0.63766
 H517 H 0.79886 0.82862 0.63853
 H518 H 0.83132 0.80625 0.63439
 H519 H 0.82350 0.82308 0.67082
 H520 H 0.83140 0.83633 0.66314
 N521 N 0.68125 0.64868 0.67291
 N522 N 0.67250 0.64925 0.68125
 C523 C 0.67393 0.63974 0.68913
 C524 C 0.68415 0.63284 0.68556
 C525 C 0.68854 0.63883 0.67520
 H526 H 0.66801 0.63803 0.69693
 H527 H 0.69639 0.63619 0.66964
 Cu528 Cu 0.66008 0.66233 0.68100
 Cu529 Cu 0.68252 0.66069 0.65965
 Cu530 Cu 0.66021 0.68379 0.65862
 N531 N 0.64745 0.67518 0.68008
 N532 N 0.64757 0.68355 0.67133
 C533 C 0.63789 0.69126 0.67283
 C534 C 0.63128 0.68754 0.68308
 C535 C 0.63766 0.67728 0.68743
 H536 H 0.63578 0.69893 0.66681
 H537 H 0.63539 0.67179 0.69539
 N538 N 0.67375 0.68247 0.64658
 N539 N 0.68224 0.67368 0.64697
 C540 C 0.69015 0.67527 0.63756
 C541 C 0.68650 0.68557 0.63088
 C542 C 0.67604 0.68988 0.63692
 H543 H 0.69798 0.66932 0.63573
 H544 H 0.67048 0.69783 0.63448
 H545 H 0.67393 0.67516 0.66871
 H546 H 0.66386 0.66496 0.65914
 N547 N 0.68137 0.14780 0.17269
 N548 N 0.67276 0.14823 0.18119
 C549 C 0.67440 0.13867 0.18897
 C550 C 0.68460 0.13187 0.18517
 C551 C 0.68878 0.13799 0.17479
 H552 H 0.66862 0.13685 0.19684
 H553 H 0.69655 0.13544 0.16907
 Cu554 Cu 0.66018 0.16114 0.18125
 Cu555 Cu 0.68225 0.15991 0.15949
 Cu556 Cu 0.65959 0.18268 0.15895
 N557 N 0.64734 0.17380 0.18058
 N558 N 0.64717 0.18219 0.17186
 C559 C 0.63738 0.18973 0.17353
 C560 C 0.63100 0.18586 0.18386
 C561 C 0.63762 0.17570 0.18808
 H562 H 0.63503 0.19737 0.16756
 H563 H 0.63556 0.17013 0.19605
 N564 N 0.67294 0.18164 0.14670
 N565 N 0.68157 0.17298 0.14688
 C566 C 0.68929 0.17477 0.13735
 C567 C 0.68534 0.18506 0.13080
 C568 C 0.67494 0.18915 0.13705
 H569 H 0.69719 0.16897 0.13534
 H570 H 0.66920 0.19702 0.13476
 H571 H 0.67362 0.17421 0.16876
 H572 H 0.66352 0.16389 0.15933
 N573 N 0.18192 0.64790 0.17147
 N574 N 0.17302 0.64797 0.17967
 C575 C 0.17470 0.63840 0.18742
 C576 C 0.18523 0.63194 0.18387
 C577 C 0.18955 0.63829 0.17369
 H578 H 0.16865 0.63622 0.19499
 H579 H 0.19768 0.63616 0.16831
 Cu580 Cu 0.16008 0.66054 0.17935
 Cu581 Cu 0.18299 0.66021 0.15848
 Cu582 Cu 0.16034 0.68299 0.15794
 N583 N 0.14761 0.67359 0.17911
 N584 N 0.14775 0.68230 0.17070
 C585 C 0.13813 0.69002 0.17255
 C586 C 0.13156 0.68597 0.18270
 C587 C 0.13789 0.67550 0.18662
 H588 H 0.13614 0.69803 0.16694
 H589 H 0.13554 0.66962 0.19429
 N590 N 0.17385 0.68210 0.14583
 N591 N 0.18248 0.67345 0.14606
 C592 C 0.19032 0.67528 0.13664
 C593 C 0.18645 0.68559 0.13011
 C594 C 0.17596 0.68966 0.13623
 H595 H 0.19817 0.66943 0.13459
 H596 H 0.17030 0.69758 0.13391
 H597 H 0.17395 0.67413 0.16797
 H598 H 0.16428 0.66424 0.15769
 N599 N 0.18115 0.14889 0.67400
 N600 N 0.17238 0.14946 0.68233
 C601 C 0.17385 0.14002 0.69027
 C602 C 0.18411 0.13315 0.68675
 C603 C 0.18849 0.13910 0.67637
 H604 H 0.16792 0.13832 0.69807
 H605 H 0.19636 0.13645 0.67083
 Cu606 Cu 0.15990 0.16248 0.68197
 Cu607 Cu 0.18237 0.16082 0.66067
 Cu608 Cu 0.15992 0.18376 0.65942
 N609 N 0.14718 0.17524 0.68093
 N610 N 0.14725 0.18353 0.67210
 C611 C 0.13752 0.19119 0.67354
 C612 C 0.13094 0.18754 0.68383
 C613 C 0.13738 0.17735 0.68826
 H614 H 0.13536 0.19880 0.66746
 H615 H 0.13516 0.17193 0.69629
 N616 N 0.17350 0.18246 0.64743
 N617 N 0.18204 0.17372 0.64790
 C618 C 0.18998 0.17531 0.63851
 C619 C 0.18629 0.18556 0.63178
 C620 C 0.17579 0.18984 0.63774
 H621 H 0.19793 0.16949 0.63676
 H622 H 0.17015 0.19769 0.63516
 H623 H 0.17367 0.17531 0.66960
 H624 H 0.16367 0.16497 0.66009
 N625 N 0.31875 0.64801 0.32731
 N626 N 0.32727 0.64763 0.31873
 C627 C 0.32495 0.63796 0.31126
 C628 C 0.31441 0.63193 0.31540
 C629 C 0.31075 0.63861 0.32563
 H630 H 0.33059 0.63543 0.30348
 H631 H 0.30282 0.63685 0.33140
 Cu632 Cu 0.34058 0.65977 0.31819
 Cu633 Cu 0.31866 0.66061 0.34007
 Cu634 Cu 0.34192 0.68269 0.33908
 N635 N 0.35340 0.67243 0.31759
 N636 N 0.35387 0.68134 0.32577
 C637 C 0.36360 0.68872 0.32332
 C638 C 0.36960 0.68422 0.31300
 C639 C 0.36283 0.67386 0.30962
 H640 H 0.36606 0.69679 0.32865
 H641 H 0.36470 0.66771 0.30203
 N642 N 0.32898 0.68248 0.35181
 N643 N 0.32012 0.67408 0.35217
 C644 C 0.31279 0.67635 0.36189
 C645 C 0.31723 0.68669 0.36800
 C646 C 0.32752 0.69031 0.36132
 H647 H 0.30489 0.67078 0.36443
 H648 H 0.33348 0.69812 0.36319
 H649 H 0.32762 0.67403 0.32986
 H650 H 0.33748 0.66408 0.33992
 N651 N 0.31959 0.14854 0.82639
 N652 N 0.32795 0.14884 0.81765
 C653 C 0.32601 0.13926 0.80998
 C654 C 0.31587 0.13258 0.81411
 C655 C 0.31205 0.13880 0.82457
 H656 H 0.33155 0.13732 0.80195
 H657 H 0.30444 0.13635 0.83052
 Cu658 Cu 0.34061 0.16165 0.81718
 Cu659 Cu 0.31917 0.16073 0.83954
 Cu660 Cu 0.34194 0.18335 0.83928
 N661 N 0.35351 0.17423 0.81736
 N662 N 0.35396 0.18269 0.82600
 C663 C 0.36372 0.19016 0.82398
 C664 C 0.36977 0.18619 0.81349
 C665 C 0.36299 0.17603 0.80955
 H666 H 0.36627 0.19783 0.82983
 H667 H 0.36479 0.17040 0.80155
 N668 N 0.32896 0.18247 0.85195
 N669 N 0.32030 0.17386 0.85205
 C670 C 0.31289 0.17571 0.86181
 C671 C 0.31705 0.18600 0.86818
 C672 C 0.32727 0.19003 0.86162
 H673 H 0.30498 0.17002 0.86405
 H674 H 0.33314 0.19783 0.86379
 H675 H 0.32762 0.17491 0.82995
 H676 H 0.33794 0.16460 0.83917
 N677 N 0.81973 0.64794 0.82611
 N678 N 0.82831 0.64793 0.81758
 C679 C 0.82629 0.63836 0.80992
 C680 C 0.81588 0.63199 0.81385
 C681 C 0.81197 0.63838 0.82418
 H682 H 0.83204 0.63614 0.80212
 H683 H 0.80404 0.63632 0.82986
 Cu684 Cu 0.84132 0.66039 0.81734
 Cu685 Cu 0.81925 0.66030 0.83910
 Cu686 Cu 0.84202 0.68292 0.83864
 N687 N 0.85384 0.67334 0.81704
 N688 N 0.85407 0.68211 0.82540
 C689 C 0.86362 0.68976 0.82312
 C690 C 0.86977 0.68560 0.81275
 C691 C 0.86326 0.67515 0.80915
 H692 H 0.86586 0.69779 0.82861
 H693 H 0.86530 0.66920 0.80144
 N694 N 0.82901 0.68219 0.85128
 N695 N 0.82034 0.67359 0.85145
 C696 C 0.81291 0.67555 0.86117
 C697 C 0.81710 0.68588 0.86748
 C698 C 0.82734 0.68983 0.86090
 H699 H 0.80510 0.66979 0.86356
 H700 H 0.83311 0.69774 0.86291
 H701 H 0.82796 0.67409 0.82921
 H702 H 0.83798 0.66418 0.83914
 N703 N 0.82111 0.14574 0.32777
 N704 N 0.82855 0.14673 0.31829
 C705 C 0.82591 0.13766 0.31023
 C706 C 0.81629 0.13058 0.31489
 C707 C 0.81350 0.13602 0.32607
 H708 H 0.83063 0.13635 0.30160
 H709 H 0.80658 0.13308 0.33260
 Cu710 Cu 0.84106 0.15966 0.31754
 Cu711 Cu 0.82211 0.15690 0.34176
 Cu712 Cu 0.84232 0.18174 0.33922
 N713 N 0.85377 0.17239 0.31728
 N714 N 0.85410 0.18110 0.32569
 C715 C 0.86370 0.18869 0.32341
 C716 C 0.86978 0.18455 0.31298
 C717 C 0.86316 0.17415 0.30936
 H718 H 0.86617 0.19653 0.32907
 H719 H 0.86503 0.16829 0.30155
 N720 N 0.82979 0.18044 0.35229
 N721 N 0.82223 0.17091 0.35336
 C722 C 0.81490 0.17267 0.36320
 C723 C 0.81804 0.18383 0.36867
 C724 C 0.82754 0.18847 0.36148
 H725 H 0.80785 0.16624 0.36616
 H726 H 0.83244 0.19709 0.36278
 H727 H 0.82800 0.17162 0.33127
 H728 H 0.84037 0.16294 0.33964
 N729 N 0.67859 0.35117 0.32906
 N730 N 0.67089 0.35005 0.31981
 C731 C 0.67307 0.35921 0.31171
 C732 C 0.68266 0.36650 0.31611
 C733 C 0.68592 0.36106 0.32717
 H734 H 0.66804 0.36046 0.30325
 H735 H 0.69297 0.36414 0.33350
 Cu736 Cu 0.65867 0.33683 0.31938
 Cu737 Cu 0.67827 0.33993 0.34303
 Cu738 Cu 0.65857 0.31464 0.34101
 N739 N 0.64624 0.32379 0.31949
 N740 N 0.64638 0.31505 0.32786
 C741 C 0.63687 0.30725 0.32587
 C742 C 0.63039 0.31129 0.31566
 C743 C 0.63664 0.32184 0.31186
 H744 H 0.63485 0.29926 0.33149
 H745 H 0.63429 0.32775 0.30422
 N746 N 0.67146 0.31617 0.35368
 N747 N 0.67882 0.32588 0.35458
 C748 C 0.68645 0.32427 0.36421
 C749 C 0.68372 0.31301 0.36971
 C750 C 0.67416 0.30816 0.36275
 H751 H 0.69341 0.33085 0.36703
 H752 H 0.66951 0.29941 0.36414
 H753 H 0.67239 0.32509 0.33266
 H754 H 0.66008 0.33346 0.34143
 N755 N 0.68104 0.85149 0.82903
 N756 N 0.67230 0.85165 0.82067
 C757 C 0.67420 0.86134 0.81312
 C758 C 0.68470 0.86763 0.81697
 C759 C 0.68877 0.86107 0.82712
 H760 H 0.66832 0.86370 0.80546
 H761 H 0.69681 0.86303 0.83267
 Cu762 Cu 0.65925 0.83921 0.82049
 Cu763 Cu 0.68179 0.83888 0.84177
 Cu764 Cu 0.65905 0.81623 0.84134
 N765 N 0.64673 0.82624 0.82022
 N766 N 0.64670 0.81732 0.82841
 C767 C 0.63710 0.80970 0.82621
 C768 C 0.63073 0.81404 0.81606
 C769 C 0.63715 0.82458 0.81251
 H770 H 0.63500 0.80156 0.83158
 H771 H 0.63494 0.83065 0.80495
 N772 N 0.67233 0.81672 0.85370
 N773 N 0.68097 0.82535 0.85387
 C774 C 0.68861 0.82321 0.86338
 C775 C 0.68461 0.81271 0.86954
 C776 C 0.67425 0.80887 0.86310
 H777 H 0.69645 0.82895 0.86571
 H778 H 0.66853 0.80091 0.86507
 H779 H 0.67287 0.82528 0.83177
 H780 H 0.66305 0.83496 0.84212
 N781 N 0.18054 0.35180 0.82928
 N782 N 0.17176 0.35197 0.82095
 C783 C 0.17359 0.36171 0.81345
 C784 C 0.18408 0.36803 0.81730
 C785 C 0.18822 0.36142 0.82738
 H786 H 0.16766 0.36409 0.80584
 H787 H 0.19628 0.36338 0.83292
 Cu788 Cu 0.15878 0.33945 0.82078
 Cu789 Cu 0.18140 0.33916 0.84197
 Cu790 Cu 0.15877 0.31642 0.84157
 N791 N 0.14633 0.32641 0.82051
 N792 N 0.14637 0.31746 0.82867
 C793 C 0.13682 0.30979 0.82648
 C794 C 0.13038 0.31413 0.81636
 C795 C 0.13672 0.32471 0.81282
 H796 H 0.13478 0.30162 0.83183
 H797 H 0.13445 0.33080 0.80529
 N798 N 0.17208 0.31694 0.85390
 N799 N 0.18070 0.32560 0.85404
 C800 C 0.18839 0.32347 0.86352
 C801 C 0.18444 0.31297 0.86968
 C802 C 0.17406 0.30909 0.86329
 H803 H 0.19621 0.32924 0.86583
 H804 H 0.16838 0.30110 0.86528
 H805 H 0.17251 0.32555 0.83197
 H806 H 0.16269 0.33516 0.84238
 N807 N 0.17977 0.85023 0.32830
 N808 N 0.17124 0.84984 0.31973
 C809 C 0.17287 0.85949 0.31206
 C810 C 0.18299 0.86630 0.31602
 C811 C 0.18712 0.86010 0.32637
 H812 H 0.16716 0.86136 0.30415
 H813 H 0.19482 0.86262 0.33217
 Cu814 Cu 0.15881 0.83680 0.31941
 Cu815 Cu 0.18068 0.83795 0.34134
 Cu816 Cu 0.15833 0.81492 0.34138
 N817 N 0.14613 0.82401 0.31981
 N818 N 0.14601 0.81547 0.32838
 C819 C 0.13634 0.80785 0.32652
 C820 C 0.12998 0.81182 0.31621
 C821 C 0.13650 0.82213 0.31221
 H822 H 0.13405 0.80008 0.33234
 H823 H 0.13443 0.82780 0.30431
 N824 N 0.17157 0.81593 0.35376
 N825 N 0.18006 0.82471 0.35376
 C826 C 0.18773 0.82290 0.36333
 C827 C 0.18390 0.81247 0.36970
 C828 C 0.17361 0.80831 0.36333
 H829 H 0.19547 0.82882 0.36552
 H830 H 0.16804 0.80028 0.36544
 H831 H 0.17232 0.82369 0.33180
 H832 H 0.16201 0.83375 0.34131
 C833 C 0.24344 0.99883 0.25702
 C834 C 0.25223 0.99883 0.24805
 C835 C 0.25692 1.01054 0.24258
 C836 C 0.25765 0.98714 0.24324
 C837 C 0.23794 0.98714 0.26170
 C838 C 0.23886 1.01054 0.26259
 C839 C 0.24880 1.01916 0.23725
 C840 C 0.25336 1.03015 0.23219
 C841 C 0.26613 1.03267 0.23229
 C842 C 0.27424 1.02391 0.23746
 C843 C 0.26967 1.01294 0.24252
 C844 C 0.25741 0.98478 0.23061
 C845 C 0.26246 0.97384 0.22592
 C846 C 0.26792 0.96507 0.23378
 C847 C 0.26832 0.96755 0.24642
 C848 C 0.26327 0.97851 0.25111
 C849 C 0.23819 0.98460 0.27430
 C850 C 0.23319 0.97359 0.27884
 C851 C 0.22774 0.96492 0.27088
 C852 C 0.22729 0.96760 0.25827
 C853 C 0.23230 0.97862 0.25373
 C854 C 0.24707 1.01905 0.26794
 C855 C 0.24263 1.03012 0.27296
 C856 C 0.22989 1.03284 0.27280
 C857 C 0.22169 1.02418 0.26764
 C858 C 0.22613 1.01313 0.26263
 H859 H 0.23893 1.01738 0.23703
 H860 H 0.24688 1.03675 0.22833
 H861 H 0.28414 1.02549 0.23749
 H862 H 0.27609 1.00635 0.24649
 H863 H 0.25323 0.99139 0.22438
 H864 H 0.26221 0.97231 0.21612
 H865 H 0.26373 0.98026 0.26086
 H866 H 0.24240 0.99111 0.28061
 H867 H 0.23348 0.97190 0.28862
 H868 H 0.22322 0.96108 0.25190
 H869 H 0.23182 0.98051 0.24400
 H870 H 0.25691 1.01713 0.26818
 H871 H 0.24919 1.03663 0.27681
 H872 H 0.21182 1.02591 0.26757
 H873 H 0.21964 1.00663 0.25864
 H874 H 0.27241 0.96095 0.25271
 C875 C 0.24329 0.50042 0.75669
 C876 C 0.25225 0.50041 0.74789
 C877 C 0.25769 0.51210 0.74312
 C878 C 0.25708 0.48870 0.74253
 C879 C 0.23855 0.48873 0.76213
 C880 C 0.23780 0.51213 0.76139
 C881 C 0.25753 0.51446 0.73049
 C882 C 0.26254 0.52543 0.72584
 C883 C 0.26790 0.53421 0.73373
 C884 C 0.26823 0.53173 0.74638
 C885 C 0.26322 0.52075 0.75103
 C886 C 0.24910 0.48006 0.73704
 C887 C 0.25381 0.46906 0.73210
 C888 C 0.26658 0.46655 0.73249
 C889 C 0.27455 0.47532 0.73783
 C890 C 0.26984 0.48630 0.74275
 C891 C 0.24660 0.48016 0.76765
 C892 C 0.24200 0.46913 0.77258
 C893 C 0.22925 0.46650 0.77217
 C894 C 0.22120 0.47523 0.76684
 C895 C 0.22581 0.48625 0.76192
 C896 C 0.23797 0.51460 0.77400
 C897 C 0.23302 0.52563 0.77856
 C898 C 0.22770 0.53439 0.77061
 C899 C 0.22732 0.53179 0.75798
 C900 C 0.23228 0.52074 0.75342
 H901 H 0.25342 0.50785 0.72423
 H902 H 0.26234 0.52697 0.71604
 H903 H 0.27224 0.53834 0.75269
 H904 H 0.26362 0.51899 0.76079
 H905 H 0.23924 0.48184 0.73660
 H906 H 0.24743 0.46246 0.72811
 H907 H 0.27616 0.49290 0.74685
 H908 H 0.25644 0.48201 0.76810
 H909 H 0.24844 0.46257 0.77657
 H910 H 0.21132 0.47358 0.76659
 H911 H 0.21944 0.49280 0.75781
 H912 H 0.24208 0.50802 0.78030
 H913 H 0.23325 0.52726 0.78835
 H914 H 0.22334 0.53839 0.75162
 H915 H 0.23187 0.51891 0.74367
 H916 H 0.28445 0.47375 0.73806
 C917 C 0.74392 -0.00026 0.24646
 C918 C 0.75272 -0.00022 0.25541
 C919 C 0.75750 -0.01190 0.26087
 C920 C 0.75816 0.01150 0.26011
 C921 C 0.73853 0.01143 0.24158
 C922 C 0.73929 -0.01198 0.24099
 C923 C 0.74947 -0.02056 0.26625
 C924 C 0.75413 -0.03158 0.27121
 C925 C 0.76691 -0.03408 0.27095
 C926 C 0.77493 -0.02527 0.26575
 C927 C 0.77027 -0.01428 0.26080
 C928 C 0.75789 0.01401 0.27271
 C929 C 0.76294 0.02499 0.27728
 C930 C 0.76845 0.03364 0.26933
 C931 C 0.76888 0.03100 0.25672
 C932 C 0.76383 0.02001 0.25216
 C933 C 0.73890 0.01377 0.22895
 C934 C 0.73404 0.02477 0.22421
 C935 C 0.72863 0.03362 0.23201
 C936 C 0.72806 0.03115 0.24465
 C937 C 0.73293 0.02013 0.24939
 C938 C 0.74745 -0.02054 0.23561
 C939 C 0.74295 -0.03156 0.23056
 C940 C 0.73020 -0.03418 0.23072
 C941 C 0.72205 -0.02548 0.23594
 C942 C 0.72655 -0.01448 0.24098
 H943 H 0.73960 -0.01881 0.26657
 H944 H 0.74771 -0.03821 0.27509
 H945 H 0.78483 -0.02683 0.26561
 H946 H 0.77662 -0.00766 0.25679
 H947 H 0.75367 0.00750 0.27900
 H948 H 0.76266 0.02665 0.28706
 H949 H 0.76433 0.01813 0.24242
 H950 H 0.74309 0.00712 0.22277
 H951 H 0.73442 0.02630 0.21442
 H952 H 0.72401 0.03781 0.25090
 H953 H 0.73237 0.01840 0.25915
 H954 H 0.75730 -0.01868 0.23533
 H955 H 0.74947 -0.03810 0.22667
 H956 H 0.71216 -0.02712 0.23600
 H957 H 0.72010 -0.00793 0.24498
 H958 H 0.77301 0.03751 0.25036
 C959 C 0.74376 0.50065 0.74620
 C960 C 0.75264 0.50070 0.75506
 C961 C 0.75743 0.48903 0.76052
 C962 C 0.75812 0.51243 0.75969
 C963 C 0.73822 0.51232 0.74147
 C964 C 0.73919 0.48893 0.74068
 C965 C 0.74939 0.48040 0.76594
 C966 C 0.75403 0.46940 0.77092
 C967 C 0.76681 0.46688 0.77066
 C968 C 0.77484 0.47566 0.76543
 C969 C 0.77019 0.48664 0.76045
 C970 C 0.75805 0.51491 0.77230
 C971 C 0.76315 0.52589 0.77682
 C972 C 0.76853 0.53456 0.76881
 C973 C 0.76877 0.53195 0.75618
 C974 C 0.76365 0.52096 0.75167
 C975 C 0.73837 0.51474 0.72885
 C976 C 0.73337 0.52574 0.72426
 C977 C 0.72803 0.53451 0.73220
 C978 C 0.72766 0.53194 0.74483
 C979 C 0.73267 0.52093 0.74942
 C980 C 0.74740 0.48047 0.73523
 C981 C 0.74297 0.46945 0.73011
 C982 C 0.73024 0.46674 0.73028
 C983 C 0.72203 0.47534 0.73558
 C984 C 0.72647 0.48634 0.74068
 H985 H 0.73952 0.48217 0.76626
 H986 H 0.74761 0.46279 0.77483
 H987 H 0.78474 0.47410 0.76529
 H988 H 0.77655 0.49325 0.75642
 H989 H 0.75395 0.50838 0.77865
 H990 H 0.76303 0.52752 0.78660
 H991 H 0.76401 0.51910 0.74193
 H992 H 0.74251 0.50816 0.72256
 H993 H 0.73359 0.52735 0.71447
 H994 H 0.72366 0.53854 0.75118
 H995 H 0.73227 0.51913 0.75917
 H996 H 0.75723 0.48240 0.73494
 H997 H 0.74952 0.46298 0.72616
 H998 H 0.71216 0.47362 0.73565
 H999 H 0.71998 0.49281 0.74474
 H1000 H 0.77278 0.53848 0.74978
 C1001 C 0.24349 0.50040 0.24724
 C1002 C 0.25232 0.50034 0.25616
 C1003 C 0.25767 0.48860 0.26093
 C1004 C 0.25718 0.51200 0.26155
 C1005 C 0.23886 0.51213 0.24177
 C1006 C 0.23810 0.48873 0.24236
 C1007 C 0.25733 0.48616 0.27354
 C1008 C 0.26227 0.47516 0.27818
 C1009 C 0.26776 0.46642 0.27031
 C1010 C 0.26828 0.46898 0.25769
 C1011 C 0.26332 0.48000 0.25304
 C1012 C 0.24921 0.52075 0.26691
 C1013 C 0.25394 0.53177 0.27176
 C1014 C 0.26673 0.53420 0.27140
 C1015 C 0.27469 0.52529 0.26624
 C1016 C 0.26995 0.51429 0.26141
 C1017 C 0.24701 0.52064 0.23632
 C1018 C 0.24250 0.53166 0.23126
 C1019 C 0.22975 0.53432 0.23147
 C1020 C 0.22161 0.52567 0.23675
 C1021 C 0.22612 0.51467 0.24180
 C1022 C 0.23853 0.48638 0.22973
 C1023 C 0.23374 0.47536 0.22499
 C1024 C 0.22832 0.46652 0.23278
 C1025 C 0.22766 0.46902 0.24541
 C1026 C 0.23247 0.48005 0.25015
 H1027 H 0.25312 0.49274 0.27978
 H1028 H 0.26193 0.47355 0.28797
 H1029 H 0.27238 0.46241 0.25138
 H1030 H 0.26388 0.48183 0.24330
 H1031 H 0.23934 0.51906 0.26729
 H1032 H 0.24757 0.53848 0.27561
 H1033 H 0.27626 0.50760 0.25741
 H1034 H 0.25685 0.51874 0.23601
 H1035 H 0.24901 0.53817 0.22732
 H1036 H 0.21173 0.52735 0.23685
 H1037 H 0.21968 0.50816 0.24585
 H1038 H 0.24274 0.49302 0.22356
 H1039 H 0.23418 0.47381 0.21520
 H1040 H 0.22360 0.46236 0.25165
 H1041 H 0.23186 0.48180 0.25991
 H1042 H 0.28460 0.52678 0.26604
 C1043 C 0.74303 0.99999 0.75559
 C1044 C 0.75199 1.00010 0.74679
 C1045 C 0.75737 1.01187 0.74214
 C1046 C 0.75690 0.98846 0.74135
 C1047 C 0.73845 0.98822 0.76101
 C1048 C 0.73732 1.01161 0.76025
 C1049 C 0.75732 1.01430 0.72952
 C1050 C 0.76229 1.02532 0.72498
 C1051 C 0.76749 1.03411 0.73297
 C1052 C 0.76771 1.03156 0.74561
 C1053 C 0.76273 1.02051 0.75014
 C1054 C 0.74897 0.97981 0.73583
 C1055 C 0.75373 0.96887 0.73080
 C1056 C 0.76652 0.96644 0.73113
 C1057 C 0.77445 0.97524 0.73648
 C1058 C 0.76968 0.98616 0.74150
 C1059 C 0.74663 0.97976 0.76651
 C1060 C 0.74218 0.96868 0.77148
 C1061 C 0.72946 0.96592 0.77114
 C1062 C 0.72129 0.97452 0.76582
 C1063 C 0.72574 0.98558 0.76085
 C1064 C 0.73723 1.01401 0.77288
 C1065 C 0.73196 1.02491 0.77742
 C1066 C 0.72660 1.03360 0.76942
 C1067 C 0.72655 1.03110 0.75677
 C1068 C 0.73180 1.02017 0.75224
 H1069 H 0.75333 1.00768 0.72318
 H1070 H 0.76219 1.02691 0.71518
 H1071 H 0.77160 1.03817 0.75200
 H1072 H 0.76305 1.01871 0.75990
 H1073 H 0.73909 0.98151 0.73543
 H1074 H 0.74739 0.96224 0.72681
 H1075 H 0.77596 0.99278 0.74561
 H1076 H 0.75645 0.98173 0.76691
 H1077 H 0.74871 0.96221 0.77545
 H1078 H 0.71143 0.97276 0.76562
 H1079 H 0.71927 0.99206 0.75677
 H1080 H 0.74141 1.00751 0.77921
 H1081 H 0.73228 1.02663 0.78719
 H1082 H 0.72230 1.03752 0.75041
 H1083 H 0.73153 1.01836 0.74248
 H1084 H 0.78436 0.97374 0.73668
 C1085 C 0.74337 0.49855 0.25626
 C1086 C 0.75213 0.49853 0.24727
 C1087 C 0.75686 0.51024 0.24184
 C1088 C 0.75750 0.48683 0.24240
 C1089 C 0.73786 0.48687 0.26100
 C1090 C 0.73880 0.51027 0.26182
 C1091 C 0.74877 0.51890 0.23651
 C1092 C 0.75337 0.52991 0.23152
 C1093 C 0.76615 0.53240 0.23167
 C1094 C 0.77422 0.52360 0.23683
 C1095 C 0.76962 0.51261 0.24182
 C1096 C 0.75730 0.48457 0.22975
 C1097 C 0.76238 0.47368 0.22498
 C1098 C 0.76784 0.46486 0.23278
 C1099 C 0.76813 0.46720 0.24545
 C1100 C 0.76306 0.47812 0.25021
 C1101 C 0.73805 0.48444 0.27362
 C1102 C 0.73294 0.47352 0.27824
 C1103 C 0.72745 0.46482 0.27033
 C1104 C 0.72714 0.46735 0.25769
 C1105 C 0.73224 0.47830 0.25308
 C1106 C 0.74701 0.51877 0.26718
 C1107 C 0.74258 0.52985 0.27220
 C1108 C 0.72984 0.53257 0.27203
 C1109 C 0.72164 0.52392 0.26687
 C1110 C 0.72607 0.51286 0.26185
 H1111 H 0.73891 0.51714 0.23626
 H1112 H 0.74692 0.53654 0.22768
 H1113 H 0.78412 0.52515 0.23689
 H1114 H 0.77601 0.50599 0.24578
 H1115 H 0.75309 0.49120 0.22357
 H1116 H 0.76188 0.47209 0.21520
 H1117 H 0.76355 0.47981 0.25998
 H1118 H 0.74231 0.49096 0.27988
 H1119 H 0.73345 0.47178 0.28800
 H1120 H 0.72279 0.46093 0.25140
 H1121 H 0.73175 0.48013 0.24333
 H1122 H 0.75685 0.51684 0.26743
 H1123 H 0.74913 0.53636 0.27605
 H1124 H 0.71176 0.52565 0.26680
 H1125 H 0.71958 0.50637 0.25786
 H1126 H 0.77246 0.46067 0.25166
 C1127 C 0.24395 0.00096 0.74716
 C1128 C 0.25290 0.00085 0.75597
 C1129 C 0.25758 -0.01093 0.76132
 C1130 C 0.25856 0.01247 0.76063
 C1131 C 0.23849 0.01273 0.74256
 C1132 C 0.23927 -0.01067 0.74154
 C1133 C 0.24948 -0.01953 0.76668
 C1134 C 0.25403 -0.03062 0.77157
 C1135 C 0.26678 -0.03326 0.77125
 C1136 C 0.27488 -0.02451 0.76606
 C1137 C 0.27032 -0.01345 0.76118
 C1138 C 0.25869 0.01485 0.77326
 C1139 C 0.26401 0.02571 0.77780
 C1140 C 0.26941 0.03438 0.76979
 C1141 C 0.26940 0.03190 0.75714
 C1142 C 0.26409 0.02101 0.75261
 C1143 C 0.23855 0.01524 0.72996
 C1144 C 0.23358 0.02629 0.72548
 C1145 C 0.22836 0.03504 0.73352
 C1146 C 0.22810 0.03241 0.74614
 C1147 C 0.23309 0.02133 0.75061
 C1148 C 0.24739 -0.01916 0.73601
 C1149 C 0.24285 -0.03007 0.73077
 C1150 C 0.23009 -0.03262 0.73084
 C1151 C 0.22197 -0.02400 0.73624
 C1152 C 0.22652 -0.01311 0.74149
 H1153 H 0.23963 -0.01767 0.76706
 H1154 H 0.24756 -0.03720 0.77544
 H1155 H 0.28477 -0.02618 0.76588
 H1156 H 0.27674 -0.00688 0.75718
 H1157 H 0.25452 0.00835 0.77960
 H1158 H 0.26375 0.02742 0.78757
 H1159 H 0.26434 0.01921 0.74285
 H1160 H 0.24258 0.00867 0.72359
 H1161 H 0.23371 0.02795 0.71570
 H1162 H 0.22419 0.03899 0.75256
 H1163 H 0.23276 0.01948 0.76036
 H1164 H 0.25724 -0.01730 0.73570
 H1165 H 0.24931 -0.03642 0.72650
 H1166 H 0.21211 -0.02576 0.73656
 H1167 H 0.22010 -0.00665 0.74567
 H1168 H 0.27367 0.03828 0.75076
 C1169 C 0.25667 0.24502 0.99965
 C1170 C 0.24784 0.25406 0.99961
 C1171 C 0.24326 0.25980 1.01114
 C1172 C 0.24225 0.25865 0.98803
 C1173 C 0.26216 0.24023 0.98809
 C1174 C 0.26126 0.23943 1.01123
 C1175 C 0.23051 0.26014 1.01354
 C1176 C 0.22604 0.26553 1.02430
 C1177 C 0.23424 0.27078 1.03284
 C1178 C 0.24701 0.27058 1.03035
 C1179 C 0.25148 0.26520 1.01956
 C1180 C 0.23662 0.25046 0.97974
 C1181 C 0.23143 0.25491 0.96887
 C1182 C 0.23169 0.26765 0.96614
 C1183 C 0.23715 0.27584 0.97458
 C1184 C 0.24234 0.27138 0.98543
 C1185 C 0.26768 0.24829 0.97959
 C1186 C 0.27268 0.24367 0.96869
 C1187 C 0.27235 0.23090 0.96613
 C1188 C 0.26702 0.22284 0.97478
 C1189 C 0.26203 0.22746 0.98566
 C1190 C 0.27401 0.23917 1.01365
 C1191 C 0.27847 0.23400 1.02451
 C1192 C 0.27027 0.22889 1.03314
 C1193 C 0.25750 0.22900 1.03061
 C1194 C 0.25304 0.23416 1.01973
 H1195 H 0.22402 0.25607 1.00714
 H1196 H 0.21617 0.26542 1.02602
 H1197 H 0.25354 0.27474 1.03665
 H1198 H 0.26134 0.26529 1.01774
 H1199 H 0.23627 0.24062 0.98169
 H1200 H 0.22735 0.24837 0.96252
 H1201 H 0.24653 0.27786 0.99178
 H1202 H 0.26807 0.25816 0.98138
 H1203 H 0.27665 0.25012 0.96218
 H1204 H 0.26683 0.21294 0.97317
 H1205 H 0.25792 0.22108 0.99216
 H1206 H 0.28050 0.24315 1.00718
 H1207 H 0.28834 0.23418 1.02625
 H1208 H 0.25097 0.22494 1.03698
 H1209 H 0.24319 0.23401 1.01790
 H1210 H 0.23729 0.28572 0.97284
 C1211 C 0.25683 0.74502 0.49963
 C1212 C 0.24785 0.75392 0.49965
 C1213 C 0.24310 0.75938 0.51124
 C1214 C 0.24227 0.75861 0.48810
 C1215 C 0.26249 0.74050 0.48805
 C1216 C 0.26139 0.73929 0.51116
 C1217 C 0.23034 0.75932 0.51364
 C1218 C 0.22574 0.76431 0.52453
 C1219 C 0.23381 0.76957 0.53320
 C1220 C 0.24658 0.76981 0.53068
 C1221 C 0.25117 0.76480 0.51977
 C1222 C 0.23685 0.75045 0.47963
 C1223 C 0.23165 0.75499 0.46880
 C1224 C 0.23167 0.76778 0.46628
 C1225 C 0.23694 0.77592 0.47488
 C1226 C 0.24213 0.77138 0.48570
 C1227 C 0.26795 0.74876 0.47971
 C1228 C 0.27308 0.74438 0.46877
 C1229 C 0.27294 0.73165 0.46602
 C1230 C 0.26768 0.72338 0.47452
 C1231 C 0.26255 0.72777 0.48544
 C1232 C 0.27412 0.73917 0.51371
 C1233 C 0.27854 0.73384 0.52452
 C1234 C 0.27032 0.72844 0.53296
 C1235 C 0.25758 0.72843 0.53031
 C1236 C 0.25317 0.73374 0.51948
 H1237 H 0.22396 0.75528 0.50712
 H1238 H 0.21585 0.76419 0.52611
 H1239 H 0.25303 0.77372 0.53720
 H1240 H 0.26103 0.76513 0.51799
 H1241 H 0.23666 0.74058 0.48142
 H1242 H 0.22773 0.74848 0.46233
 H1243 H 0.24616 0.77783 0.49218
 H1244 H 0.26818 0.75861 0.48165
 H1245 H 0.27700 0.75098 0.46238
 H1246 H 0.26762 0.71350 0.47277
 H1247 H 0.25849 0.72123 0.49181
 H1248 H 0.28061 0.74337 0.50739
 H1249 H 0.28839 0.73412 0.52635
 H1250 H 0.25105 0.72415 0.53653
 H1251 H 0.24333 0.73349 0.51755
 H1252 H 0.23690 0.78583 0.47330
 C1253 C 0.24762 0.74596 -0.00022
 C1254 C 0.25658 0.75486 -0.00008
 C1255 C 0.26222 0.75963 -0.01156
 C1256 C 0.26116 0.76031 0.01157
 C1257 C 0.24272 0.74041 0.01125
 C1258 C 0.24222 0.74133 -0.01187
 C1259 C 0.26777 0.75156 -0.02003
 C1260 C 0.27284 0.75617 -0.03090
 C1261 C 0.27253 0.76896 -0.03344
 C1262 C 0.26720 0.77702 -0.02479
 C1263 C 0.26214 0.77240 -0.01394
 C1264 C 0.27388 0.76015 0.01416
 C1265 C 0.27834 0.76514 0.02511
 C1266 C 0.27017 0.77047 0.03365
 C1267 C 0.25744 0.77081 0.03093
 C1268 C 0.25299 0.76582 0.01997
 C1269 C 0.22993 0.74049 0.01347
 C1270 C 0.22516 0.73536 0.02422
 C1271 C 0.23309 0.72995 0.03293
 C1272 C 0.24590 0.72973 0.03061
 C1273 C 0.25066 0.73485 0.01983
 C1274 C 0.23679 0.74949 -0.02033
 C1275 C 0.23175 0.74498 -0.03125
 C1276 C 0.23195 0.73221 -0.03385
 C1277 C 0.23723 0.72406 -0.02526
 C1278 C 0.24226 0.72857 -0.01436
 H1279 H 0.26811 0.74169 -0.01826
 H1280 H 0.27682 0.74972 -0.03741
 H1281 H 0.26703 0.78693 -0.02638
 H1282 H 0.25801 0.77879 -0.00746
 H1283 H 0.28034 0.75605 0.00774
 H1284 H 0.28821 0.76493 0.02683
 H1285 H 0.24316 0.76622 0.01804
 H1286 H 0.22366 0.74470 0.00695
 H1287 H 0.21527 0.73580 0.02581
 H1288 H 0.25221 0.72545 0.03705
 H1289 H 0.26054 0.73446 0.01816
 H1290 H 0.23647 0.75935 -0.01848
 H1291 H 0.22782 0.75150 -0.03772
 H1292 H 0.23733 0.71416 -0.02690
 H1293 H 0.24630 0.72211 -0.00789
 H1294 H 0.25092 0.77479 0.03736
 C1295 C 0.24724 0.24582 0.50127
 C1296 C 0.25621 0.25471 0.50115
 C1297 C 0.26155 0.25944 0.48951
 C1298 C 0.26104 0.26027 0.51264
 C1299 C 0.24254 0.24041 0.51290
 C1300 C 0.24156 0.24113 0.48979
 C1301 C 0.26691 0.25136 0.48092
 C1302 C 0.27170 0.25596 0.46992
 C1303 C 0.27132 0.26874 0.46737
 C1304 C 0.26617 0.27681 0.47611
 C1305 C 0.26138 0.27221 0.48708
 C1306 C 0.27381 0.26018 0.51494
 C1307 C 0.27851 0.26531 0.52573
 C1308 C 0.27051 0.27071 0.53440
 C1309 C 0.25772 0.27094 0.53198
 C1310 C 0.25304 0.26583 0.52117
 C1311 C 0.22981 0.24060 0.51539
 C1312 C 0.22523 0.23563 0.52630
 C1313 C 0.23331 0.23030 0.53492
 C1314 C 0.24606 0.22992 0.53231
 C1315 C 0.25063 0.23488 0.52137
 C1316 C 0.23598 0.24925 0.48139
 C1317 C 0.23071 0.24469 0.47060
 C1318 C 0.23079 0.23190 0.46809
 C1319 C 0.23622 0.22378 0.47662
 C1320 C 0.24152 0.22836 0.48738
 H1321 H 0.26732 0.24149 0.48271
 H1322 H 0.27555 0.24950 0.46334
 H1323 H 0.26595 0.28672 0.47451
 H1324 H 0.25738 0.27860 0.49364
 H1325 H 0.28014 0.25598 0.50845
 H1326 H 0.28838 0.26488 0.52738
 H1327 H 0.24318 0.26625 0.51942
 H1328 H 0.22341 0.24472 0.50892
 H1329 H 0.21535 0.23585 0.52794
 H1330 H 0.25252 0.22593 0.53879
 H1331 H 0.26047 0.23445 0.51952
 H1332 H 0.23567 0.25912 0.48321
 H1333 H 0.22641 0.25115 0.46431
 H1334 H 0.23655 0.21390 0.47489
 H1335 H 0.24574 0.22194 0.49377
 H1336 H 0.25136 0.27523 0.53838
 C1337 C 0.75667 0.74405 0.99925
 C1338 C 0.74766 0.75292 0.99926
 C1339 C 0.74290 0.75840 1.01083
 C1340 C 0.74208 0.75758 0.98771
 C1341 C 0.76226 0.73942 0.98768
 C1342 C 0.76135 0.73849 1.01081
 C1343 C 0.73015 0.75825 1.01325
 C1344 C 0.72552 0.76329 1.02411
 C1345 C 0.73355 0.76868 1.03273
 C1346 C 0.74631 0.76901 1.03018
 C1347 C 0.75094 0.76396 1.01931
 C1348 C 0.73663 0.74943 0.97926
 C1349 C 0.73146 0.75396 0.96840
 C1350 C 0.73157 0.76674 0.96585
 C1351 C 0.73686 0.77488 0.97443
 C1352 C 0.74201 0.77034 0.98527
 C1353 C 0.76766 0.74761 0.97923
 C1354 C 0.77270 0.74313 0.96828
 C1355 C 0.77251 0.73037 0.96564
 C1356 C 0.76732 0.72218 0.97425
 C1357 C 0.76229 0.72667 0.98517
 C1358 C 0.77408 0.73863 1.01332
 C1359 C 0.77862 0.73360 1.02422
 C1360 C 0.77051 0.72822 1.03278
 C1361 C 0.75777 0.72787 1.03013
 C1362 C 0.75324 0.73291 1.01922
 H1363 H 0.72379 0.75411 1.00677
 H1364 H 0.71563 0.76309 1.02570
 H1365 H 0.75273 0.77304 1.03667
 H1366 H 0.76079 0.76436 1.01751
 H1367 H 0.73640 0.73956 0.98107
 H1368 H 0.72752 0.74745 0.96194
 H1369 H 0.74607 0.77679 0.99173
 H1370 H 0.76792 0.75747 0.98109
 H1371 H 0.77657 0.74967 0.96181
 H1372 H 0.76724 0.71229 0.97258
 H1373 H 0.75827 0.72019 0.99163
 H1374 H 0.78050 0.74278 1.00689
 H1375 H 0.78849 0.73381 1.02590
 H1376 H 0.75129 0.72386 1.03657
 H1377 H 0.74341 0.73251 1.01735
 H1378 H 0.73689 0.78479 0.97283
 C1379 C 0.75650 0.24402 0.49905
 C1380 C 0.74766 0.25305 0.49900
 C1381 C 0.74291 0.25860 0.51054
 C1382 C 0.74224 0.25784 0.48742
 C1383 C 0.76203 0.23923 0.48751
 C1384 C 0.76110 0.23845 0.51064
 C1385 C 0.73015 0.25859 0.51290
 C1386 C 0.72553 0.26365 0.52376
 C1387 C 0.73358 0.26891 0.53243
 C1388 C 0.74636 0.26912 0.52994
 C1389 C 0.75098 0.26405 0.51907
 C1390 C 0.73667 0.24981 0.47893
 C1391 C 0.73161 0.25447 0.46808
 C1392 C 0.73194 0.26726 0.46556
 C1393 C 0.73737 0.27527 0.47417
 C1394 C 0.74242 0.27061 0.48501
 C1395 C 0.76762 0.24727 0.47904
 C1396 C 0.77262 0.24263 0.46814
 C1397 C 0.77222 0.22986 0.46558
 C1398 C 0.76681 0.22183 0.47420
 C1399 C 0.76181 0.22647 0.48507
 C1400 C 0.77382 0.23847 0.51318
 C1401 C 0.77828 0.23344 0.52412
 C1402 C 0.77010 0.22820 0.53270
 C1403 C 0.75736 0.22798 0.53002
 C1404 C 0.75291 0.23301 0.51907
 H1405 H 0.72377 0.25454 0.50638
 H1406 H 0.71563 0.26355 0.52531
 H1407 H 0.75280 0.27305 0.53646
 H1408 H 0.76084 0.26434 0.51731
 H1409 H 0.73625 0.23994 0.48071
 H1410 H 0.72756 0.24805 0.46159
 H1411 H 0.74657 0.27696 0.49150
 H1412 H 0.76806 0.25713 0.48084
 H1413 H 0.77665 0.24906 0.46165
 H1414 H 0.76655 0.21193 0.47258
 H1415 H 0.75764 0.22011 0.49154
 H1416 H 0.78029 0.24251 0.50675
 H1417 H 0.78815 0.23355 0.52581
 H1418 H 0.75082 0.22407 0.53647
 H1419 H 0.74307 0.23272 0.51718
 H1420 H 0.73757 0.28518 0.47260
 C1421 C 0.74758 0.24469 0.00052
 C1422 C 0.75638 0.25375 0.00058
 C1423 C 0.76109 0.25935 -0.01094
 C1424 C 0.76170 0.25859 0.01219
 C1425 C 0.74210 0.23984 0.01204
 C1426 C 0.74287 0.23925 -0.01108
 C1427 C 0.77385 0.25940 -0.01331
 C1428 C 0.77844 0.26456 -0.02414
 C1429 C 0.77035 0.26985 -0.03277
 C1430 C 0.75757 0.26995 -0.03028
 C1431 C 0.75299 0.26481 -0.01943
 C1432 C 0.76726 0.25061 0.02075
 C1433 C 0.77207 0.25531 0.03169
 C1434 C 0.77149 0.26809 0.03423
 C1435 C 0.76613 0.27606 0.02553
 C1436 C 0.76132 0.27135 0.01460
 C1437 C 0.73640 0.24781 0.02051
 C1438 C 0.73138 0.24311 0.03136
 C1439 C 0.73186 0.23033 0.03388
 C1440 C 0.73738 0.22236 0.02526
 C1441 C 0.74241 0.22707 0.01444
 C1442 C 0.73012 0.23935 -0.01350
 C1443 C 0.72554 0.23447 -0.02444
 C1444 C 0.73362 0.22929 -0.03316
 C1445 C 0.74639 0.22897 -0.03061
 C1446 C 0.75096 0.23387 -0.01965
 H1447 H 0.78025 0.25528 -0.00685
 H1448 H 0.78831 0.26422 -0.02584
 H1449 H 0.75113 0.27415 -0.03665
 H1450 H 0.74313 0.26512 -0.01764
 H1451 H 0.76783 0.24075 0.01896
 H1452 H 0.77608 0.24893 0.03824
 H1453 H 0.75717 0.27767 0.00807
 H1454 H 0.73589 0.25768 0.01873
 H1455 H 0.72725 0.24949 0.03785
 H1456 H 0.73770 0.21245 0.02684
 H1457 H 0.74665 0.22076 0.00795
 H1458 H 0.72372 0.24336 -0.00696
 H1459 H 0.71565 0.23464 -0.02604
 H1460 H 0.75285 0.22511 -0.03716
 H1461 H 0.76082 0.23352 -0.01786
 H1462 H 0.76574 0.28596 0.02712
 C1463 C 0.74737 0.74559 0.50023
 C1464 C 0.75633 0.75448 0.50012
 C1465 C 0.76179 0.75911 0.48849
 C1466 C 0.76106 0.76011 0.51162
 C1467 C 0.74268 0.74018 0.51185
 C1468 C 0.74169 0.74089 0.48874
 C1469 C 0.76716 0.75094 0.47999
 C1470 C 0.77210 0.75543 0.46902
 C1471 C 0.77184 0.76820 0.46639
 C1472 C 0.76667 0.77636 0.47504
 C1473 C 0.76175 0.77186 0.48600
 C1474 C 0.77381 0.76003 0.51405
 C1475 C 0.77839 0.76521 0.52486
 C1476 C 0.77031 0.77067 0.53341
 C1477 C 0.75755 0.77094 0.53085
 C1478 C 0.75298 0.76575 0.52003
 C1479 C 0.72994 0.74036 0.51434
 C1480 C 0.72538 0.73543 0.52527
 C1481 C 0.73346 0.73012 0.53390
 C1482 C 0.74621 0.72975 0.53128
 C1483 C 0.75077 0.73469 0.52034
 C1484 C 0.73618 0.74901 0.48030
 C1485 C 0.73087 0.74444 0.46953
 C1486 C 0.73085 0.73164 0.46708
 C1487 C 0.73622 0.72352 0.47565
 C1488 C 0.74155 0.72810 0.48639
 H1489 H 0.76748 0.74108 0.48185
 H1490 H 0.77595 0.74891 0.46251
 H1491 H 0.76654 0.78626 0.47338
 H1492 H 0.75775 0.77833 0.49249
 H1493 H 0.78020 0.75583 0.50762
 H1494 H 0.78828 0.76506 0.52648
 H1495 H 0.74313 0.76610 0.51821
 H1496 H 0.72353 0.74445 0.50786
 H1497 H 0.71549 0.73565 0.52691
 H1498 H 0.75267 0.72578 0.53778
 H1499 H 0.76061 0.73427 0.51849
 H1500 H 0.73595 0.75889 0.48207
 H1501 H 0.72661 0.75090 0.46321
 H1502 H 0.73648 0.71363 0.47397
 H1503 H 0.74572 0.72168 0.49281
 H1504 H 0.75109 0.77500 0.53729
 C1505 C 1.00157 0.25379 0.24379
 C1506 C 1.00156 0.24491 0.25268
 C1507 C 1.01324 0.24023 0.25819
 C1508 C 0.98987 0.23946 0.25741
 C1509 C 0.98989 0.25939 0.23919
 C1510 C 1.01325 0.25840 0.23825
 C1511 C 1.01569 0.22746 0.25828
 C1512 C 1.02664 0.22292 0.26340
 C1513 C 1.03531 0.23106 0.26863
 C1514 C 1.03275 0.24385 0.26870
 C1515 C 1.02179 0.24839 0.26357
 C1516 C 0.98127 0.23395 0.24946
 C1517 C 0.97025 0.22899 0.25404
 C1518 C 0.96769 0.22936 0.26667
 C1519 C 0.97645 0.23468 0.27461
 C1520 C 0.98745 0.23963 0.27003
 C1521 C 0.98144 0.26502 0.24723
 C1522 C 0.97044 0.27015 0.24277
 C1523 C 0.96774 0.26983 0.23017
 C1524 C 0.97634 0.26439 0.22213
 C1525 C 0.98733 0.25927 0.22660
 C1526 C 1.01578 0.27114 0.23824
 C1527 C 1.02678 0.27562 0.23320
 C1528 C 1.03544 0.26743 0.22797
 C1529 C 1.03277 0.25467 0.22780
 C1530 C 1.02175 0.25020 0.23285
 H1531 H 1.00916 0.22102 0.25428
 H1532 H 1.02825 0.21301 0.26340
 H1533 H 1.03928 0.25035 0.27259
 H1534 H 1.01996 0.25826 0.26379
 H1535 H 0.98307 0.23354 0.23970
 H1536 H 0.96366 0.22502 0.24769
 H1537 H 0.99403 0.24373 0.27632
 H1538 H 0.98335 0.26540 0.25697
 H1539 H 0.96396 0.27421 0.24920
 H1540 H 0.97463 0.26420 0.21236
 H1541 H 0.99380 0.25508 0.22023
 H1542 H 1.00928 0.27762 0.24227
 H1543 H 1.02847 0.28551 0.23328
 H1544 H 1.03929 0.24812 0.22391
 H1545 H 1.01987 0.24034 0.23259
 H1546 H 0.97484 0.23490 0.28440
 C1547 C 0.50130 0.25687 0.74512
 C1548 C 0.50130 0.24807 0.75409
 C1549 C 0.51298 0.24346 0.75966
 C1550 C 0.48962 0.24257 0.75877
 C1551 C 0.48960 0.26236 0.74041
 C1552 C 0.51298 0.26143 0.73953
 C1553 C 0.51543 0.23069 0.75986
 C1554 C 0.52637 0.22618 0.76504
 C1555 C 0.53504 0.23437 0.77021
 C1556 C 0.53248 0.24715 0.77016
 C1557 C 0.52153 0.25165 0.76497
 C1558 C 0.48114 0.23691 0.75080
 C1559 C 0.47017 0.23181 0.75535
 C1560 C 0.46753 0.23218 0.76796
 C1561 C 0.47615 0.23768 0.77593
 C1562 C 0.48711 0.24278 0.77138
 C1563 C 0.48104 0.26795 0.74837
 C1564 C 0.47001 0.27294 0.74381
 C1565 C 0.46739 0.27252 0.73120
 C1566 C 0.47611 0.26712 0.72324
 C1567 C 0.48712 0.26214 0.72780
 C1568 C 0.51548 0.27418 0.73931
 C1569 C 0.52645 0.27861 0.73416
 C1570 C 0.53511 0.27037 0.72903
 C1571 C 0.53249 0.25760 0.72906
 C1572 C 0.52150 0.25318 0.73422
 H1573 H 0.50891 0.22420 0.75591
 H1574 H 0.52797 0.21627 0.76513
 H1575 H 0.53901 0.25369 0.77401
 H1576 H 0.51971 0.26153 0.76509
 H1577 H 0.48301 0.23647 0.74106
 H1578 H 0.46367 0.22770 0.74898
 H1579 H 0.49360 0.24700 0.77769
 H1580 H 0.48288 0.26841 0.75811
 H1581 H 0.46346 0.27698 0.75018
 H1582 H 0.47446 0.26685 0.71346
 H1583 H 0.49366 0.25797 0.72150
 H1584 H 0.50896 0.28071 0.74325
 H1585 H 0.52810 0.28851 0.73408
 H1586 H 0.53900 0.25101 0.72524
 H1587 H 0.51964 0.24331 0.73410
 H1588 H 0.47449 0.23793 0.78571
 C1589 C -0.00119 0.24747 0.74420
 C1590 C -0.00118 0.25624 0.75319
 C1591 C -0.01286 0.26162 0.75806
 C1592 C 0.01052 0.26085 0.75871
 C1593 C 0.01049 0.24280 0.73867
 C1594 C -0.01287 0.24199 0.73950
 C1595 C -0.02153 0.26724 0.75024
 C1596 C -0.03253 0.27214 0.75496
 C1597 C -0.03501 0.27161 0.76760
 C1598 C -0.02620 0.26617 0.77541
 C1599 C -0.01522 0.26127 0.77069
 C1600 C 0.01299 0.27361 0.75882
 C1601 C 0.02397 0.27810 0.76391
 C1602 C 0.03266 0.26991 0.76907
 C1603 C 0.03006 0.25713 0.76912
 C1604 C 0.01907 0.25265 0.76403
 C1605 C 0.01292 0.23002 0.73857
 C1606 C 0.02390 0.22546 0.73353
 C1607 C 0.03265 0.23360 0.72840
 C1608 C 0.03008 0.24638 0.72829
 C1609 C 0.01908 0.25094 0.73334
 C1610 C -0.02135 0.23628 0.74744
 C1611 C -0.03230 0.23116 0.74286
 C1612 C -0.03492 0.23158 0.73025
 C1613 C -0.02630 0.23715 0.72231
 C1614 C -0.01537 0.24226 0.72689
 H1615 H -0.01979 0.26778 0.74048
 H1616 H -0.03917 0.27621 0.74870
 H1617 H -0.02774 0.26581 0.78521
 H1618 H -0.00859 0.25708 0.77688
 H1619 H 0.00645 0.28010 0.75487
 H1620 H 0.02560 0.28800 0.76392
 H1621 H 0.01723 0.24279 0.76422
 H1622 H 0.00635 0.22358 0.74253
 H1623 H 0.02550 0.21555 0.73355
 H1624 H 0.03667 0.25288 0.72446
 H1625 H 0.01728 0.26082 0.73314
 H1626 H -0.01949 0.23578 0.75718
 H1627 H -0.03878 0.22700 0.74921
 H1628 H -0.02795 0.23742 0.71253
 H1629 H -0.00888 0.24652 0.72061
 H1630 H 0.03660 0.25059 0.77297
 C1631 C 0.49842 0.24404 0.24484
 C1632 C 0.49849 0.25286 0.25378
 C1633 C 0.48685 0.25839 0.25855
 C1634 C 0.51022 0.25746 0.25925
 C1635 C 0.51007 0.23939 0.23925
 C1636 C 0.48671 0.23856 0.24021
 C1637 C 0.47827 0.26402 0.25065
 C1638 C 0.46732 0.26910 0.25528
 C1639 C 0.46480 0.26873 0.26791
 C1640 C 0.47352 0.26327 0.27581
 C1641 C 0.48445 0.25819 0.27118
 C1642 C 0.51275 0.27021 0.25930
 C1643 C 0.52377 0.27467 0.26430
 C1644 C 0.53245 0.26647 0.26945
 C1645 C 0.52980 0.25370 0.26958
 C1646 C 0.51876 0.24924 0.26457
 C1647 C 0.51257 0.22663 0.23919
 C1648 C 0.52356 0.22212 0.23413
 C1649 C 0.53224 0.23029 0.22893
 C1650 C 0.52960 0.24306 0.22878
 C1651 C 0.51859 0.24756 0.23385
 C1652 C 0.47820 0.23299 0.24822
 C1653 C 0.46718 0.22796 0.24373
 C1654 C 0.46452 0.22832 0.23112
 C1655 C 0.47317 0.23372 0.22311
 C1656 C 0.48417 0.23874 0.22761
 H1657 H 0.48006 0.26445 0.24089
 H1658 H 0.46075 0.27317 0.24896
 H1659 H 0.47194 0.26303 0.28561
 H1660 H 0.49101 0.25399 0.27744
 H1661 H 0.50622 0.27670 0.25534
 H1662 H 0.52544 0.28457 0.26426
 H1663 H 0.51689 0.23939 0.26481
 H1664 H 0.50606 0.22017 0.24321
 H1665 H 0.52523 0.21222 0.23418
 H1666 H 0.53612 0.24959 0.22491
 H1667 H 0.51673 0.25743 0.23362
 H1668 H 0.48009 0.23256 0.25796
 H1669 H 0.46067 0.22393 0.25013
 H1670 H 0.47149 0.23393 0.21333
 H1671 H 0.49068 0.24289 0.22127
 H1672 H 0.53633 0.24715 0.27342
 C1673 C 1.00037 0.75720 0.74360
 C1674 C 1.00044 0.74827 0.75243
 C1675 C 1.01216 0.74362 0.75789
 C1676 C 0.98881 0.74265 0.75711
 C1677 C 0.98865 0.76274 0.73902
 C1678 C 1.01203 0.76188 0.73805
 C1679 C 1.01468 0.73087 0.75788
 C1680 C 1.02564 0.72634 0.76299
 C1681 C 1.03426 0.73448 0.76829
 C1682 C 1.03163 0.74726 0.76845
 C1683 C 1.02066 0.75178 0.76333
 C1684 C 0.98025 0.73715 0.74911
 C1685 C 0.96939 0.73181 0.75368
 C1686 C 0.96698 0.73176 0.76635
 C1687 C 0.97565 0.73717 0.77432
 C1688 C 0.98647 0.74252 0.76975
 C1689 C 0.98011 0.76818 0.74710
 C1690 C 0.96906 0.77324 0.74266
 C1691 C 0.96642 0.77304 0.73004
 C1692 C 0.97511 0.76779 0.72197
 C1693 C 0.98614 0.76274 0.72642
 C1694 C 1.01452 0.77464 0.73808
 C1695 C 1.02549 0.77917 0.73302
 C1696 C 1.03417 0.77103 0.72775
 C1697 C 1.03155 0.75826 0.72754
 C1698 C 1.02055 0.75373 0.73259
 H1699 H 1.00818 0.72442 0.75382
 H1700 H 1.02729 0.71644 0.76292
 H1701 H 1.03813 0.75377 0.77240
 H1702 H 1.01878 0.76164 0.76361
 H1703 H 0.98201 0.73692 0.73935
 H1704 H 0.96298 0.72755 0.74733
 H1705 H 0.99297 0.74670 0.77607
 H1706 H 0.98197 0.76846 0.75684
 H1707 H 0.96252 0.77714 0.74911
 H1708 H 0.97344 0.76770 0.71219
 H1709 H 0.99267 0.75869 0.72003
 H1710 H 1.00800 0.78108 0.74214
 H1711 H 1.02715 0.78907 0.73314
 H1712 H 1.03808 0.75175 0.72362
 H1713 H 1.01870 0.74387 0.73230
 H1714 H 0.97398 0.73742 0.78410
 C1715 C 0.50101 0.75328 0.24311
 C1716 C 0.50113 0.74432 0.25192
 C1717 C 0.51288 0.73974 0.25736
 C1718 C 0.48953 0.73864 0.25661
 C1719 C 0.48926 0.75871 0.23850
 C1720 C 0.51264 0.75816 0.23765
 C1721 C 0.51551 0.72700 0.25726
 C1722 C 0.52652 0.72254 0.26233
 C1723 C 0.53507 0.73072 0.26768
 C1724 C 0.53233 0.74347 0.26793
 C1725 C 0.52131 0.74793 0.26286
 C1726 C 0.48095 0.73313 0.24862
 C1727 C 0.47008 0.72784 0.25319
 C1728 C 0.46766 0.72783 0.26586
 C1729 C 0.47636 0.73320 0.27383
 C1730 C 0.48719 0.73851 0.26925
 C1731 C 0.48065 0.76410 0.24655
 C1732 C 0.46961 0.76912 0.24207
 C1733 C 0.46701 0.76893 0.22945
 C1734 C 0.47575 0.76371 0.22141
 C1735 C 0.48678 0.75870 0.22589
 C1736 C 0.51494 0.77095 0.23778
 C1737 C 0.52587 0.77568 0.23280
 C1738 C 0.53468 0.76772 0.22750
 C1739 C 0.53224 0.75491 0.22718
 C1740 C 0.52130 0.75018 0.23217
 H1741 H 0.50907 0.72053 0.25317
 H1742 H 0.52826 0.71265 0.26219
 H1743 H 0.53877 0.75000 0.27193
 H1744 H 0.51934 0.75777 0.26322
 H1745 H 0.48271 0.73290 0.23885
 H1746 H 0.46365 0.72360 0.24685
 H1747 H 0.49371 0.74267 0.27556
 H1748 H 0.48249 0.76440 0.25630
 H1749 H 0.46303 0.77301 0.24850
 H1750 H 0.47413 0.76362 0.21162
 H1751 H 0.49336 0.75469 0.21952
 H1752 H 0.50831 0.77727 0.24186
 H1753 H 0.52737 0.78561 0.23299
 H1754 H 0.53888 0.74853 0.22322
 H1755 H 0.51959 0.74030 0.23179
 H1756 H 0.47469 0.73346 0.28361
 C1757 C -0.00097 0.74424 0.24386
 C1758 C -0.00105 0.75316 0.25271
 C1759 C -0.01277 0.75869 0.25732
 C1760 C 0.01060 0.75782 0.25830
 C1761 C 0.01076 0.73963 0.23839
 C1762 C -0.01261 0.73858 0.23925
 C1763 C -0.02132 0.76416 0.24928
 C1764 C -0.03232 0.76929 0.25378
 C1765 C -0.03491 0.76913 0.26641
 C1766 C -0.02622 0.76381 0.27443
 C1767 C -0.01524 0.75869 0.26994
 C1768 C 0.01307 0.77058 0.25838
 C1769 C 0.02397 0.77509 0.26360
 C1770 C 0.03258 0.76693 0.26893
 C1771 C 0.03000 0.75415 0.26900
 C1772 C 0.01908 0.74964 0.26378
 C1773 C 0.01334 0.72688 0.23839
 C1774 C 0.02438 0.72241 0.23340
 C1775 C 0.03304 0.73061 0.22822
 C1776 C 0.03034 0.74336 0.22803
 C1777 C 0.01928 0.74783 0.23302
 C1778 C -0.02113 0.73309 0.24732
 C1779 C -0.03205 0.72783 0.24286
 C1780 C -0.03459 0.72782 0.23022
 C1781 C -0.02595 0.73316 0.22216
 C1782 C -0.01505 0.73844 0.22664
 H1783 H -0.01949 0.76444 0.23953
 H1784 H -0.03886 0.77326 0.24736
 H1785 H -0.02784 0.76374 0.28422
 H1786 H -0.00870 0.75462 0.27630
 H1787 H 0.00658 0.77704 0.25431
 H1788 H 0.02560 0.78500 0.26359
 H1789 H 0.01724 0.73978 0.26400
 H1790 H 0.00683 0.72040 0.24238
 H1791 H 0.02610 0.71252 0.23349
 H1792 H 0.03686 0.74991 0.22417
 H1793 H 0.01737 0.75768 0.23274
 H1794 H -0.01928 0.73285 0.25707
 H1795 H -0.03842 0.72360 0.24927
 H1796 H -0.02770 0.73342 0.21240
 H1797 H -0.00858 0.74258 0.22026
 H1798 H 0.03648 0.74763 0.27297
 C1799 C 0.49926 0.74785 0.74327
 C1800 C 0.49932 0.75672 0.75215
 C1801 C 0.48767 0.76225 0.75692
 C1802 C 0.51104 0.76128 0.75767
 C1803 C 0.51091 0.74309 0.73774
 C1804 C 0.48754 0.74234 0.73867
 C1805 C 0.47905 0.76781 0.74901
 C1806 C 0.46806 0.77282 0.75364
 C1807 C 0.46554 0.77244 0.76627
 C1808 C 0.47431 0.76708 0.77418
 C1809 C 0.48528 0.76208 0.76955
 C1810 C 0.51360 0.77402 0.75775
 C1811 C 0.52458 0.77845 0.76289
 C1812 C 0.53317 0.77022 0.76813
 C1813 C 0.53049 0.75746 0.76821
 C1814 C 0.51950 0.75304 0.76307
 C1815 C 0.51329 0.73031 0.73771
 C1816 C 0.52425 0.72569 0.73268
 C1817 C 0.53301 0.73377 0.72749
 C1818 C 0.53049 0.74656 0.72732
 C1819 C 0.51952 0.75118 0.73236
 C1820 C 0.47908 0.73676 0.74672
 C1821 C 0.46809 0.73162 0.74226
 C1822 C 0.46543 0.73188 0.72965
 C1823 C 0.47403 0.73730 0.72161
 C1824 C 0.48500 0.74244 0.72608
 H1825 H 0.48082 0.76822 0.73925
 H1826 H 0.46146 0.77683 0.74731
 H1827 H 0.47273 0.76685 0.78397
 H1828 H 0.49187 0.75793 0.77582
 H1829 H 0.50712 0.78054 0.75374
 H1830 H 0.52627 0.78834 0.76288
 H1831 H 0.51759 0.74319 0.76329
 H1832 H 0.50671 0.72392 0.74172
 H1833 H 0.52582 0.71577 0.73275
 H1834 H 0.53709 0.75302 0.72345
 H1835 H 0.51775 0.76106 0.73210
 H1836 H 0.48098 0.73639 0.75646
 H1837 H 0.46162 0.72757 0.74869
 H1838 H 0.47235 0.73745 0.71183
 H1839 H 0.49148 0.74659 0.71971
 H1840 H 0.53696 0.75089 0.77212
 C1841 C 0.40005 0.29908 0.29781
 C1842 C 0.39377 0.29252 0.30695
 C1843 C 0.38317 0.29755 0.31237
 C1844 C 0.37868 0.30924 0.30871
 C1845 C 0.38507 0.31575 0.29948
 C1846 C 0.39568 0.31069 0.29408
 C1847 C 0.41102 0.29392 0.29233
 C1848 C 0.42024 0.28954 0.28785
 C1849 C 0.43128 0.28424 0.28266
 C1850 C 0.43580 0.27294 0.28710
 C1851 C 0.44665 0.26785 0.28225
 C1852 C 0.45314 0.27402 0.27288
 C1853 C 0.44847 0.28534 0.26841
 C1854 C 0.43761 0.29041 0.27328
 H1855 H 0.39708 0.28352 0.30989
 H1856 H 0.37849 0.29221 0.31935
 H1857 H 0.38199 0.32479 0.29648
 H1858 H 0.40049 0.31587 0.28703
 H1859 H 0.43095 0.26807 0.29433
 H1860 H 0.44991 0.25905 0.28576
 H1861 H 0.45334 0.29037 0.26130
 H1862 H 0.43421 0.29919 0.26981
 C1863 C 0.40040 0.80179 0.79636
 C1864 C 0.39572 0.79635 0.80702
 C1865 C 0.38508 0.80112 0.81258
 C1866 C 0.37887 0.81148 0.80757
 C1867 C 0.38372 0.81684 0.79678
 C1868 C 0.39438 0.81203 0.79126
 C1869 C 0.41142 0.79688 0.79075
 C1870 C 0.42069 0.79267 0.78621
 C1871 C 0.43180 0.78752 0.78100
 C1872 C 0.43647 0.77628 0.78543
 C1873 C 0.44739 0.77134 0.78059
 C1874 C 0.45381 0.77760 0.77123
 C1875 C 0.44900 0.78886 0.76676
 C1876 C 0.43807 0.79379 0.77163
 H1877 H 0.40032 0.78841 0.81105
 H1878 H 0.38182 0.79659 0.82080
 H1879 H 0.37939 0.82478 0.79251
 H1880 H 0.39794 0.81633 0.78300
 H1881 H 0.43167 0.77134 0.79266
 H1882 H 0.45076 0.76258 0.78410
 H1883 H 0.45380 0.79396 0.75967
 H1884 H 0.43455 0.80252 0.76816
 C1885 C -0.09991 0.30109 0.79814
 C1886 C -0.10380 0.29682 0.80961
 C1887 C -0.11440 0.30179 0.81510
 C1888 C -0.12128 0.31114 0.80918
 C1889 C -0.11728 0.31534 0.79762
 C1890 C -0.10667 0.31035 0.79216
 C1891 C -0.08895 0.29600 0.79256
 C1892 C -0.07972 0.29172 0.78799
 C1893 C -0.06866 0.28657 0.78267
 C1894 C -0.06398 0.27528 0.78697
 C1895 C -0.05309 0.27038 0.78201
 C1896 C -0.04672 0.27671 0.77267
 C1897 C -0.05156 0.28800 0.76832
 C1898 C -0.06245 0.29290 0.77331
 H1899 H -0.09862 0.28967 0.81434
 H1900 H -0.11710 0.29836 0.82402
 H1901 H -0.12233 0.32244 0.79272
 H1902 H -0.10375 0.31372 0.78326
 H1903 H -0.06872 0.27029 0.79419
 H1904 H -0.04970 0.26158 0.78543
 H1905 H -0.04680 0.29316 0.76124
 H1906 H -0.06598 0.30166 0.76993
 C1907 C -0.09971 0.79972 0.29605
 C1908 C -0.10523 0.81040 0.29125
 C1909 C -0.11581 0.81539 0.29678
 C1910 C -0.12103 0.80975 0.30722
 C1911 C -0.11538 0.79898 0.31193
 C1912 C -0.10481 0.79403 0.30639
 C1913 C -0.08876 0.79461 0.29046
 C1914 C -0.07955 0.79022 0.28597
 C1915 C -0.06850 0.78484 0.28083
 C1916 C -0.06214 0.79088 0.27138
 C1917 C -0.05127 0.78573 0.26660
 C1918 C -0.04660 0.77449 0.27124
 C1919 C -0.05312 0.76845 0.28068
 C1920 C -0.06399 0.77360 0.28543
 H1921 H -0.10135 0.81489 0.28325
 H1922 H -0.11982 0.82367 0.29286
 H1923 H -0.11907 0.79432 0.31990
 H1924 H -0.10061 0.78575 0.31019
 H1925 H -0.06554 0.79960 0.26777
 H1926 H -0.04639 0.79066 0.25944
 H1927 H -0.04987 0.75970 0.28432
 H1928 H -0.06885 0.76884 0.29272
 C1929 C 0.60003 0.70197 0.29870
 C1930 C 0.60636 0.70849 0.30782
 C1931 C 0.61699 0.70343 0.31316
 C1932 C 0.62144 0.69174 0.30945
 C1933 C 0.61500 0.68528 0.30023
 C1934 C 0.60437 0.69037 0.29491
 C1935 C 0.58903 0.70715 0.29328
 C1936 C 0.57978 0.71144 0.28876
 C1937 C 0.56870 0.71646 0.28338
 C1938 C 0.56217 0.72591 0.28933
 C1939 C 0.55128 0.73063 0.28420
 C1940 C 0.54678 0.72592 0.27303
 C1941 C 0.55347 0.71648 0.26708
 C1942 C 0.56436 0.71179 0.27222
 H1943 H 0.60309 0.71750 0.31081
 H1944 H 0.62171 0.70874 0.32013
 H1945 H 0.61805 0.67624 0.29718
 H1946 H 0.59952 0.68522 0.28787
 H1947 H 0.56543 0.72957 0.29799
 H1948 H 0.54626 0.73779 0.28907
 H1949 H 0.55034 0.71279 0.25839
 H1950 H 0.56936 0.70449 0.26752
 C1951 C 0.59962 0.20482 0.80126
 C1952 C 0.60359 0.19319 0.79717
 C1953 C 0.61419 0.18773 0.80218
 C1954 C 0.62099 0.19384 0.81138
 C1955 C 0.61689 0.20554 0.81543
 C1956 C 0.60628 0.21098 0.81040
 C1957 C 0.58869 0.21036 0.79606
 C1958 C 0.57951 0.21483 0.79160
 C1959 C 0.56850 0.21995 0.78615
 C1960 C 0.56405 0.21511 0.77511
 C1961 C 0.55323 0.21986 0.76988
 C1962 C 0.54669 0.22953 0.77565
 C1963 C 0.55129 0.23441 0.78670
 C1964 C 0.56212 0.22964 0.79192
 H1965 H 0.59848 0.18831 0.79012
 H1966 H 0.61694 0.17869 0.79887
 H1967 H 0.62189 0.21058 0.82242
 H1968 H 0.60329 0.22000 0.81363
 H1969 H 0.56893 0.20763 0.77055
 H1970 H 0.55002 0.21602 0.76128
 H1971 H 0.54640 0.24176 0.79142
 H1972 H 0.56547 0.23343 0.80049
 C1973 C 1.09877 0.70499 0.79948
 C1974 C 1.10283 0.69331 0.79564
 C1975 C 1.11338 0.68797 0.80087
 C1976 C 1.12003 0.69426 0.81005
 C1977 C 1.11585 0.70603 0.81384
 C1978 C 1.10530 0.71134 0.80859
 C1979 C 1.08787 0.71042 0.79412
 C1980 C 1.07871 0.71485 0.78959
 C1981 C 1.06771 0.71999 0.78414
 C1982 C 1.06334 0.71530 0.77301
 C1983 C 1.05252 0.72008 0.76781
 C1984 C 1.04591 0.72962 0.77369
 C1985 C 1.05044 0.73436 0.78484
 C1986 C 1.06127 0.72956 0.79003
 H1987 H 1.09782 0.68829 0.78861
 H1988 H 1.11620 0.67888 0.79776
 H1989 H 1.12075 0.71121 0.82080
 H1990 H 1.10224 0.72041 0.81163
 H1991 H 1.06828 0.70792 0.76836
 H1992 H 1.04937 0.71636 0.75914
 H1993 H 1.04548 0.74160 0.78965
 H1994 H 1.06455 0.73323 0.79867
 C1995 C 1.10011 0.20211 0.29975
 C1996 C 1.10444 0.19049 0.29598
 C1997 C 1.11508 0.18541 0.30128
 C1998 C 1.12155 0.19189 0.31047
 C1999 C 1.11710 0.20358 0.31418
 C2000 C 1.10647 0.20864 0.30885
 C2001 C 1.08912 0.20729 0.29434
 C2002 C 1.07988 0.21158 0.28982
 C2003 C 1.06881 0.21662 0.28443
 C2004 C 1.06435 0.21181 0.27337
 C2005 C 1.05350 0.21656 0.26820
 C2006 C 1.04696 0.22619 0.27402
 C2007 C 1.05157 0.23101 0.28510
 C2008 C 1.06242 0.22624 0.29026
 H2009 H 1.09957 0.18534 0.28895
 H2010 H 1.11812 0.17636 0.29824
 H2011 H 1.12185 0.20891 0.32113
 H2012 H 1.10321 0.21765 0.31183
 H2013 H 1.06925 0.20438 0.26877
 H2014 H 1.05029 0.21276 0.25958
 H2015 H 1.04666 0.23832 0.28987
 H2016 H 1.06577 0.23000 0.29885
 C2017 C 0.60016 0.29888 0.69805
 C2018 C 0.60668 0.30813 0.70429
 C2019 C 0.61731 0.31332 0.69910
 C2020 C 0.62159 0.30933 0.68757
 C2021 C 0.61497 0.29999 0.68139
 C2022 C 0.60433 0.29482 0.68660
 C2023 C 0.58914 0.29366 0.70336
 C2024 C 0.57987 0.28939 0.70784
 C2025 C 0.56877 0.28444 0.71324
 C2026 C 0.56428 0.28936 0.72424
 C2027 C 0.55338 0.28474 0.72941
 C2028 C 0.54681 0.27511 0.72364
 C2029 C 0.55145 0.27016 0.71262
 C2030 C 0.56236 0.27481 0.70746
 H2031 H 0.60353 0.31134 0.71317
 H2032 H 0.62217 0.32040 0.70420
 H2033 H 0.61789 0.29673 0.67247
 H2034 H 0.59933 0.28768 0.68167
 H2035 H 0.56919 0.29680 0.72881
 H2036 H 0.55014 0.28862 0.73798
 H2037 H 0.54653 0.26285 0.70789
 H2038 H 0.56573 0.27095 0.69892
 C2039 C 0.59971 0.79764 0.19778
 C2040 C 0.60624 0.79138 0.18859
 C2041 C 0.61695 0.79659 0.18359
 C2042 C 0.62131 0.80817 0.18771
 C2043 C 0.61467 0.81437 0.19698
 C2044 C 0.60395 0.80913 0.20196
 C2045 C 0.58865 0.79230 0.20289
 C2046 C 0.57936 0.78788 0.20718
 C2047 C 0.56824 0.78269 0.21234
 C2048 C 0.56200 0.77314 0.20625
 C2049 C 0.55112 0.76821 0.21120
 C2050 C 0.54634 0.77279 0.22231
 C2051 C 0.55273 0.78234 0.22839
 C2052 C 0.56360 0.78725 0.22343
 H2053 H 0.60305 0.78246 0.18530
 H2054 H 0.62183 0.79147 0.17656
 H2055 H 0.61764 0.82331 0.20034
 H2056 H 0.59896 0.81407 0.20906
 H2057 H 0.56549 0.76957 0.19763
 H2058 H 0.54634 0.76096 0.20623
 H2059 H 0.54938 0.78594 0.23704
 H2060 H 0.56838 0.79462 0.22824
 C2061 C 1.10077 0.29640 0.19810
 C2062 C 1.10502 0.29279 0.18653
 C2063 C 1.11571 0.29814 0.18161
 C2064 C 1.12231 0.30720 0.18821
 C2065 C 1.11795 0.31073 0.19986
 C2066 C 1.10726 0.30536 0.20475
 C2067 C 1.08969 0.29103 0.20312
 C2068 C 1.08037 0.28666 0.20741
 C2069 C 1.06922 0.28165 0.21264
 C2070 C 1.06281 0.27215 0.20664
 C2071 C 1.05186 0.26745 0.21165
 C2072 C 1.04718 0.27222 0.22273
 C2073 C 1.05374 0.28171 0.22871
 C2074 C 1.06468 0.28639 0.22369
 H2075 H 1.10004 0.28587 0.18128
 H2076 H 1.11869 0.29523 0.17260
 H2077 H 1.12278 0.31758 0.20528
 H2078 H 1.10405 0.30822 0.21373
 H2079 H 1.06623 0.26844 0.19805
 H2080 H 1.04694 0.26024 0.20676
 H2081 H 1.05047 0.28545 0.23733
 H2082 H 1.06959 0.29372 0.22842
 C2083 C 1.09977 0.79959 0.69803
 C2084 C 1.10410 0.81108 0.70212
 C2085 C 1.11493 0.81613 0.69719
 C2086 C 1.12159 0.80975 0.68806
 C2087 C 1.11715 0.79818 0.68403
 C2088 C 1.10632 0.79315 0.68898
 C2089 C 1.08859 0.79445 0.70309
 C2090 C 1.07921 0.79022 0.70736
 C2091 C 1.06799 0.78529 0.71251
 C2092 C 1.06342 0.79001 0.72356
 C2093 C 1.05245 0.78534 0.72854
 C2094 C 1.04589 0.77587 0.72252
 C2095 C 1.05060 0.77113 0.71144
 C2096 C 1.06157 0.77582 0.70647
 H2097 H 1.09909 0.81616 0.70911
 H2098 H 1.11796 0.82508 0.70049
 H2099 H 1.12204 0.79293 0.67711
 H2100 H 1.10306 0.78423 0.68576
 H2101 H 1.06834 0.79731 0.72833
 H2102 H 1.04917 0.78906 0.73717
 H2103 H 1.04569 0.76394 0.70652
 H2104 H 1.06501 0.77212 0.69789
 C2105 C 0.40052 0.70087 0.70089
 C2106 C 0.39646 0.70472 0.68933
 C2107 C 0.38585 0.69949 0.68414
 C2108 C 0.37913 0.69031 0.69046
 C2109 C 0.38329 0.68654 0.70211
 C2110 C 0.39391 0.69179 0.70727
 C2111 C 0.41151 0.70621 0.70614
 C2112 C 0.42075 0.71070 0.71045
 C2113 C 0.43183 0.71610 0.71545
 C2114 C 0.43623 0.72737 0.71085
 C2115 C 0.44711 0.73254 0.71552
 C2116 C 0.45375 0.72649 0.72486
 C2117 C 0.44920 0.71519 0.72949
 C2118 C 0.43832 0.71003 0.72479
 H2119 H 0.40153 0.71173 0.68429
 H2120 H 0.38302 0.70258 0.67515
 H2121 H 0.37835 0.67959 0.70730
 H2122 H 0.39697 0.68876 0.71624
 H2123 H 0.43126 0.73216 0.70363
 H2124 H 0.45028 0.74133 0.71189
 H2125 H 0.45418 0.71024 0.73657
 H2126 H 0.43501 0.70128 0.72839
 C2127 C 0.39929 0.19832 0.20203
 C2128 C 0.39519 0.20258 0.19064
 C2129 C 0.38449 0.19764 0.18537
 C2130 C 0.37770 0.18833 0.19143
 C2131 C 0.38193 0.18411 0.20291
 C2132 C 0.39265 0.18907 0.20816
 C2133 C 0.41034 0.20342 0.20740
 C2134 C 0.41962 0.20776 0.21177
 C2135 C 0.43075 0.21300 0.21682
 C2136 C 0.43527 0.22426 0.21229
 C2137 C 0.44621 0.22927 0.21699
 C2138 C 0.45278 0.22309 0.22630
 C2139 C 0.44810 0.21182 0.23086
 C2140 C 0.43716 0.20681 0.22614
 H2141 H 0.40029 0.20971 0.18580
 H2142 H 0.38163 0.20110 0.17651
 H2143 H 0.37698 0.17703 0.20791
 H2144 H 0.39575 0.18570 0.21699
 H2145 H 0.43036 0.22914 0.20511
 H2146 H 0.44947 0.23804 0.21342
 H2147 H 0.45302 0.20677 0.23792
 H2148 H 0.43375 0.19808 0.22969
 C2149 C -0.10018 0.69798 0.20173
 C2150 C -0.10485 0.68662 0.20582
 C2151 C -0.11564 0.68173 0.20066
 C2152 C -0.12192 0.68815 0.19129
 C2153 C -0.11715 0.69960 0.18728
 C2154 C -0.10636 0.70446 0.19247
 C2155 C -0.08898 0.70293 0.20692
 C2156 C -0.07956 0.70709 0.21116
 C2157 C -0.06826 0.71211 0.21609
 C2158 C -0.06847 0.71905 0.22693
 C2159 C -0.05752 0.72409 0.23158
 C2160 C -0.04620 0.72227 0.22544
 C2161 C -0.04609 0.71521 0.21459
 C2162 C -0.05704 0.71017 0.20996
 H2163 H -0.10012 0.68150 0.21297
 H2164 H -0.11894 0.67287 0.20394
 H2165 H -0.12174 0.70488 0.18019
 H2166 H -0.10283 0.71327 0.18923
 H2167 H -0.07711 0.72063 0.23173
 H2168 H -0.05793 0.72960 0.23986
 H2169 H -0.03750 0.71349 0.20975
 H2170 H -0.05677 0.70478 0.20159
 C2171 C -0.09958 0.20063 0.70087
 C2172 C -0.10626 0.19159 0.70723
 C2173 C -0.11684 0.18634 0.70200
 C2174 C -0.12090 0.19006 0.69030
 C2175 C -0.11410 0.19920 0.68400
 C2176 C -0.10352 0.20443 0.68926
 C2177 C -0.08862 0.20596 0.70621
 C2178 C -0.07941 0.21044 0.71059
 C2179 C -0.06838 0.21582 0.71570
 C2180 C -0.06190 0.20967 0.72501
 C2181 C -0.05106 0.21482 0.72981
 C2182 C -0.04655 0.22619 0.72534
 C2183 C -0.05317 0.23233 0.71604
 C2184 C -0.06401 0.22717 0.71126
 H2185 H -0.10330 0.18860 0.71624
 H2186 H -0.12185 0.17943 0.70719
 H2187 H -0.11684 0.20225 0.67497
 H2188 H -0.09840 0.21141 0.68424
 H2189 H -0.06519 0.20086 0.72849
 H2190 H -0.04609 0.20981 0.73686
 H2191 H -0.05003 0.24117 0.71252
 H2192 H -0.06896 0.23202 0.70408
 C2193 C 0.29788 0.40138 0.30001
 C2194 C 0.29156 0.39501 0.30925
 C2195 C 0.29670 0.38431 0.31440
 C2196 C 0.30826 0.37982 0.31037
 C2197 C 0.31452 0.38633 0.30106
 C2198 C 0.30937 0.39703 0.29593
 C2199 C 0.29262 0.41242 0.29473
 C2200 C 0.28823 0.42169 0.29033
 C2201 C 0.28301 0.43278 0.28514
 C2202 C 0.27169 0.43732 0.28947
 C2203 C 0.26669 0.44821 0.28459
 C2204 C 0.27295 0.45471 0.27530
 C2205 C 0.28429 0.45001 0.27092
 C2206 C 0.28928 0.43912 0.27583
 H2207 H 0.28266 0.39830 0.31247
 H2208 H 0.29155 0.37953 0.32146
 H2209 H 0.32346 0.38327 0.29777
 H2210 H 0.31436 0.40192 0.28880
 H2211 H 0.26674 0.43246 0.29665
 H2212 H 0.25786 0.45149 0.28803
 H2213 H 0.28940 0.45488 0.26388
 H2214 H 0.29807 0.43570 0.27243
 C2215 C 0.29648 -0.09873 0.80043
 C2216 C 0.29170 -0.10405 0.81110
 C2217 C 0.29710 -0.11474 0.81601
 C2218 C 0.30745 -0.12033 0.81032
 C2219 C 0.31212 -0.11484 0.79952
 C2220 C 0.30668 -0.10416 0.79465
 C2221 C 0.29101 -0.08766 0.79545
 C2222 C 0.28654 -0.07834 0.79123
 C2223 C 0.28137 -0.06718 0.78613
 C2224 C 0.27188 -0.06086 0.79227
 C2225 C 0.26705 -0.04988 0.78740
 C2226 C 0.27167 -0.04507 0.77632
 C2227 C 0.28114 -0.05154 0.77018
 C2228 C 0.28595 -0.06252 0.77506
 H2229 H 0.28380 -0.09991 0.81566
 H2230 H 0.29310 -0.11850 0.82428
 H2231 H 0.32000 -0.11869 0.79473
 H2232 H 0.31047 -0.10011 0.78637
 H2233 H 0.26830 -0.06437 0.80087
 H2234 H 0.25986 -0.04504 0.79240
 H2235 H 0.28476 -0.04817 0.76155
 H2236 H 0.29326 -0.06735 0.77022
 C2237 C 0.79670 0.40183 0.80055
 C2238 C 0.79142 0.39632 0.81088
 C2239 C 0.79676 0.38570 0.81601
 C2240 C 0.80754 0.38039 0.81087
 C2241 C 0.81272 0.38608 0.80041
 C2242 C 0.80734 0.39669 0.79532
 C2243 C 0.79127 0.41283 0.79536
 C2244 C 0.78680 0.42208 0.79101
 C2245 C 0.78159 0.43318 0.78581
 C2246 C 0.77205 0.43947 0.79187
 C2247 C 0.76716 0.45039 0.78692
 C2248 C 0.77180 0.45516 0.77583
 C2249 C 0.78134 0.44872 0.76977
 C2250 C 0.78620 0.43781 0.77473
 H2251 H 0.78317 0.40024 0.81501
 H2252 H 0.79235 0.38178 0.82401
 H2253 H 0.82095 0.38245 0.79606
 H2254 H 0.81151 0.40090 0.78731
 H2255 H 0.76845 0.43599 0.80047
 H2256 H 0.75993 0.45521 0.79187
 H2257 H 0.78497 0.45206 0.76114
 H2258 H 0.79356 0.43300 0.76995
 C2259 C 0.79688 -0.09936 0.30033
 C2260 C 0.80712 -0.10479 0.29462
 C2261 C 0.81252 -0.11547 0.29953
 C2262 C 0.80776 -0.12096 0.31029
 C2263 C 0.79740 -0.11535 0.31593
 C2264 C 0.79203 -0.10466 0.31098
 C2265 C 0.79142 -0.08829 0.29530
 C2266 C 0.78693 -0.07900 0.29105
 C2267 C 0.78172 -0.06786 0.28593
 C2268 C 0.78633 -0.06316 0.27489
 C2269 C 0.78146 -0.05222 0.26998
 C2270 C 0.77190 -0.04582 0.27607
 C2271 C 0.76727 -0.05067 0.28712
 C2272 C 0.77216 -0.06162 0.29202
 H2273 H 0.81096 -0.10074 0.28637
 H2274 H 0.82043 -0.11933 0.29480
 H2275 H 0.79333 -0.11910 0.32418
 H2276 H 0.78410 -0.10051 0.31549
 H2277 H 0.79371 -0.06793 0.27008
 H2278 H 0.78511 -0.04882 0.26137
 H2279 H 0.76002 -0.04589 0.29209
 H2280 H 0.76855 -0.06516 0.30060
 C2281 C 0.29831 0.59871 0.70330
 C2282 C 0.29422 0.60249 0.69173
 C2283 C 0.29934 0.61297 0.68616
 C2284 C 0.30865 0.61984 0.69210
 C2285 C 0.31267 0.61596 0.70376
 C2286 C 0.30753 0.60547 0.70931
 C2287 C 0.29309 0.58784 0.70893
 C2288 C 0.28868 0.57869 0.71352
 C2289 C 0.28336 0.56770 0.71882
 C2290 C 0.27210 0.56314 0.71438
 C2291 C 0.26703 0.55231 0.71930
 C2292 C 0.27316 0.54588 0.72874
 C2293 C 0.28442 0.55061 0.73322
 C2294 C 0.28949 0.56144 0.72828
 H2295 H 0.28710 0.59730 0.68698
 H2296 H 0.29605 0.61558 0.67717
 H2297 H 0.31973 0.62103 0.70868
 H2298 H 0.31076 0.60264 0.71828
 H2299 H 0.26726 0.56793 0.70708
 H2300 H 0.25826 0.54901 0.71577
 H2301 H 0.28943 0.54579 0.74038
 H2302 H 0.29823 0.56487 0.73176
 C2303 C 0.29555 1.09747 0.20158
 C2304 C 0.29196 1.10135 0.18988
 C2305 C 0.29723 1.11194 0.18467
 C2306 C 0.30620 1.11882 0.19110
 C2307 C 0.30974 1.11483 0.20288
 C2308 C 0.30444 1.10424 0.20806
 C2309 C 0.29020 1.08651 0.20689
 C2310 C 0.28580 1.07729 0.21136
 C2311 C 0.28068 1.06624 0.21670
 C2312 C 0.27106 1.05992 0.21081
 C2313 C 0.26625 1.04905 0.21591
 C2314 C 0.27103 1.04435 0.22697
 C2315 C 0.28064 1.05083 0.23286
 C2316 C 0.28542 1.06169 0.22775
 H2317 H 0.28511 1.09616 0.18476
 H2318 H 0.29433 1.11463 0.17557
 H2319 H 0.31652 1.11990 0.20816
 H2320 H 0.30729 1.10132 0.21714
 H2321 H 0.26734 1.06335 0.20224
 H2322 H 0.25896 1.04420 0.21109
 H2323 H 0.28439 1.04754 0.24146
 H2324 H 0.29285 1.06653 0.23240
 C2325 C 0.79570 0.59746 0.20157
 C2326 C 0.78951 0.60386 0.19227
 C2327 C 0.79478 0.61448 0.18710
 C2328 C 0.80636 0.61885 0.19117
 C2329 C 0.81248 0.61234 0.20058
 C2330 C 0.80718 0.60172 0.20572
 C2331 C 0.79034 0.58645 0.20679
 C2332 C 0.78593 0.57718 0.21116
 C2333 C 0.78079 0.56608 0.21639
 C2334 C 0.77120 0.55981 0.21041
 C2335 C 0.76636 0.54890 0.21541
 C2336 C 0.77109 0.54411 0.22646
 C2337 C 0.78068 0.55054 0.23243
 C2338 C 0.78549 0.56144 0.22742
 H2339 H 0.78060 0.60065 0.18900
 H2340 H 0.78972 0.61926 0.17998
 H2341 H 0.82142 0.61533 0.20391
 H2342 H 0.81208 0.59682 0.21291
 H2343 H 0.76753 0.56330 0.20184
 H2344 H 0.75909 0.54409 0.21052
 H2345 H 0.78439 0.54718 0.24103
 H2346 H 0.79290 0.56624 0.23214
 C2347 C 0.79782 1.09885 0.70304
 C2348 C 0.79374 1.10270 0.69149
 C2349 C 0.79889 1.11318 0.68597
 C2350 C 0.80824 1.11999 0.69193
 C2351 C 0.81224 1.11605 0.70358
 C2352 C 0.80706 1.10556 0.70908
 C2353 C 0.79259 1.08796 0.70862
 C2354 C 0.78818 1.07878 0.71315
 C2355 C 0.78286 1.06776 0.71837
 C2356 C 0.77168 1.06315 0.71380
 C2357 C 0.76663 1.05227 0.71862
 C2358 C 0.77271 1.04584 0.72809
 C2359 C 0.78390 1.05062 0.73271
 C2360 C 0.78894 1.06150 0.72786
 H2361 H 0.78660 1.09755 0.68672
 H2362 H 0.79562 1.11583 0.67698
 H2363 H 0.81932 1.12107 0.70851
 H2364 H 0.81028 1.10267 0.71804
 H2365 H 0.76688 1.06793 0.70648
 H2366 H 0.75792 1.04892 0.71500
 H2367 H 0.78887 1.04580 0.73989
 H2368 H 0.79763 1.06497 0.73144
 C2369 C 0.70151 0.59853 0.30155
 C2370 C 0.69013 0.60300 0.29730
 C2371 C 0.68508 0.61386 0.30222
 C2372 C 0.69135 0.62042 0.31148
 C2373 C 0.70281 0.61584 0.31567
 C2374 C 0.70784 0.60498 0.31073
 C2375 C 0.70665 0.58732 0.29651
 C2376 C 0.71087 0.57791 0.29225
 C2377 C 0.71579 0.56664 0.28712
 C2378 C 0.71101 0.56202 0.27611
 C2379 C 0.71562 0.55098 0.27118
 C2380 C 0.72509 0.54440 0.27720
 C2381 C 0.72989 0.54916 0.28822
 C2382 C 0.72526 0.56020 0.29315
 H2383 H 0.68514 0.59807 0.29021
 H2384 H 0.67622 0.61700 0.29880
 H2385 H 0.70797 0.62064 0.32269
 H2386 H 0.71667 0.60161 0.31408
 H2387 H 0.70371 0.56694 0.27135
 H2388 H 0.71186 0.54766 0.26260
 H2389 H 0.73708 0.54424 0.29314
 H2390 H 0.72900 0.56368 0.30169
 C2391 C 0.69806 1.09950 0.79879
 C2392 C 0.68787 1.10558 0.79366
 C2393 C 0.68330 1.11645 0.79900
 C2394 C 0.68886 1.12146 0.80962
 C2395 C 0.69918 1.11521 0.81463
 C2396 C 0.70370 1.10435 0.80926
 C2397 C 0.70268 1.08824 0.79338
 C2398 C 0.70659 1.07877 0.78897
 C2399 C 0.71134 1.06741 0.78386
 C2400 C 0.71818 1.06760 0.77297
 C2401 C 0.72304 1.05660 0.76819
 C2402 C 0.72115 1.04525 0.77428
 C2403 C 0.71416 1.04516 0.78517
 C2404 C 0.70930 1.05617 0.78992
 H2405 H 0.68343 1.10191 0.78554
 H2406 H 0.67540 1.12081 0.79472
 H2407 H 0.70383 1.11858 0.82273
 H2408 H 0.71161 1.09970 0.81331
 H2409 H 0.71985 1.07627 0.76823
 H2410 H 0.72850 1.05699 0.75988
 H2411 H 0.71240 1.03655 0.78997
 H2412 H 0.70399 1.05591 0.79834
 C2413 C 0.19854 0.60014 0.79979
 C2414 C 0.18709 0.60474 0.79588
 C2415 C 0.18224 0.61556 0.80108
 C2416 C 0.18878 0.62193 0.81029
 C2417 C 0.20030 0.61720 0.81414
 C2418 C 0.20513 0.60639 0.80892
 C2419 C 0.20350 0.58897 0.79449
 C2420 C 0.20770 0.57959 0.79015
 C2421 C 0.21278 0.56836 0.78508
 C2422 C 0.20652 0.56205 0.77575
 C2423 C 0.21139 0.55104 0.77097
 C2424 C 0.22259 0.54619 0.77550
 C2425 C 0.22885 0.55265 0.78483
 C2426 C 0.22397 0.56365 0.78958
 H2427 H 0.18189 0.59996 0.78883
 H2428 H 0.17332 0.61882 0.79793
 H2429 H 0.20567 0.62186 0.82112
 H2430 H 0.21401 0.60291 0.81200
 H2431 H 0.19783 0.56559 0.77223
 H2432 H 0.20629 0.54621 0.76390
 H2433 H 0.23758 0.54925 0.78838
 H2434 H 0.22891 0.56847 0.79678
 C2435 C 0.20165 1.09880 0.30240
 C2436 C 0.20803 1.10526 0.31153
 C2437 C 0.20301 1.11611 0.31649
 C2438 C 0.19151 1.12067 0.31236
 C2439 C 0.18520 1.11409 0.30315
 C2440 C 0.19024 1.10324 0.29821
 C2441 C 0.20677 1.08758 0.29735
 C2442 C 0.21097 1.07816 0.29309
 C2443 C 0.21586 1.06688 0.28795
 C2444 C 0.22534 1.06044 0.29395
 C2445 C 0.22997 1.04940 0.28901
 C2446 C 0.22515 1.04466 0.27799
 C2447 C 0.21566 1.05124 0.27200
 C2448 C 0.21106 1.06227 0.27695
 H2449 H 0.21688 1.10192 0.31482
 H2450 H 0.20820 1.12094 0.32348
 H2451 H 0.17631 1.11721 0.29979
 H2452 H 0.18521 1.09829 0.29115
 H2453 H 0.22909 1.06391 0.30249
 H2454 H 0.23717 1.04448 0.29391
 H2455 H 0.21188 1.04792 0.26342
 H2456 H 0.20374 1.06720 0.27221
 C2457 C 0.70193 0.40163 0.69917
 C2458 C 0.69265 0.39500 0.70525
 C2459 C 0.68761 0.38436 0.69992
 C2460 C 0.69179 0.38017 0.68842
 C2461 C 0.70115 0.38691 0.68241
 C2462 C 0.70617 0.39756 0.68775
 C2463 C 0.70702 0.41266 0.70460
 C2464 C 0.71123 0.42193 0.70914
 C2465 C 0.71616 0.43305 0.71453
 C2466 C 0.71139 0.43744 0.72564
 C2467 C 0.71601 0.44835 0.73079
 C2468 C 0.72549 0.45503 0.72490
 C2469 C 0.73029 0.45049 0.71378
 C2470 C 0.72564 0.43957 0.70863
 H2471 H 0.68930 0.39807 0.71410
 H2472 H 0.68050 0.37941 0.70489
 H2473 H 0.70456 0.38408 0.67352
 H2474 H 0.71334 0.40264 0.68295
 H2475 H 0.70408 0.43244 0.73030
 H2476 H 0.71225 0.45151 0.73945
 H2477 H 0.73747 0.45550 0.70896
 H2478 H 0.72938 0.43627 0.70002
 C2479 C 0.70167 -0.09946 0.20012
 C2480 C 0.70826 -0.10583 0.19105
 C2481 C 0.70330 -0.11652 0.18575
 C2482 C 0.69164 -0.12102 0.18946
 C2483 C 0.68512 -0.11456 0.19863
 C2484 C 0.69011 -0.10385 0.20391
 C2485 C 0.70674 -0.08838 0.20547
 C2486 C 0.71095 -0.07906 0.20992
 C2487 C 0.71592 -0.06791 0.21521
 C2488 C 0.72546 -0.06150 0.20929
 C2489 C 0.73017 -0.05057 0.21435
 C2490 C 0.72537 -0.04590 0.22542
 C2491 C 0.71582 -0.05245 0.23134
 C2492 C 0.71114 -0.06338 0.22626
 H2493 H 0.71723 -0.10252 0.18806
 H2494 H 0.70866 -0.12126 0.17882
 H2495 H 0.67611 -0.11764 0.20167
 H2496 H 0.68491 -0.09898 0.21091
 H2497 H 0.72920 -0.06491 0.20071
 H2498 H 0.73741 -0.04566 0.20951
 H2499 H 0.71206 -0.04919 0.23995
 H2500 H 0.70377 -0.06828 0.23094
 C2501 C 0.20019 0.40114 0.20207
 C2502 C 0.19070 0.39443 0.20772
 C2503 C 0.18604 0.38371 0.20221
 C2504 C 0.19082 0.37952 0.19092
 C2505 C 0.20037 0.38636 0.18533
 C2506 C 0.20501 0.39708 0.19087
 C2507 C 0.20497 0.41220 0.20772
 C2508 C 0.20903 0.42149 0.21234
 C2509 C 0.21396 0.43264 0.21768
 C2510 C 0.20745 0.43882 0.22695
 C2511 C 0.21215 0.44980 0.23194
 C2512 C 0.22342 0.45473 0.22770
 C2513 C 0.22993 0.44838 0.21846
 C2514 C 0.22523 0.43742 0.21349
 H2515 H 0.18690 0.39749 0.21640
 H2516 H 0.17875 0.37872 0.20685
 H2517 H 0.20427 0.38354 0.17664
 H2518 H 0.21235 0.40222 0.18640
 H2519 H 0.19870 0.43522 0.23024
 H2520 H 0.20686 0.45454 0.23895
 H2521 H 0.23872 0.45185 0.21513
 H2522 H 0.23036 0.43269 0.20635
 C2523 C 0.20190 -0.09799 0.70013
 C2524 C 0.20859 -0.10444 0.69119
 C2525 C 0.20371 -0.11521 0.68597
 C2526 C 0.19204 -0.11970 0.68963
 C2527 C 0.18541 -0.11315 0.69866
 C2528 C 0.19031 -0.10237 0.70386
 C2529 C 0.20687 -0.08683 0.70540
 C2530 C 0.21101 -0.07745 0.70979
 C2531 C 0.21586 -0.06620 0.71500
 C2532 C 0.22682 -0.06646 0.72184
 C2533 C 0.23148 -0.05554 0.72696
 C2534 C 0.22523 -0.04421 0.72530
 C2535 C 0.21425 -0.04405 0.71837
 C2536 C 0.20961 -0.05497 0.71325
 H2537 H 0.21758 -0.10113 0.68825
 H2538 H 0.20915 -0.12002 0.67914
 H2539 H 0.17638 -0.11623 0.70167
 H2540 H 0.18504 -0.09743 0.71076
 H2541 H 0.23172 -0.07511 0.72326
 H2542 H 0.23987 -0.05599 0.73237
 H2543 H 0.20932 -0.03545 0.71679
 H2544 H 0.20115 -0.05466 0.70794
 C2545 C 0.29994 0.29829 0.40222
 C2546 C 0.29348 0.30769 0.39613
 C2547 C 0.29833 0.31293 0.38544
 C2548 C 0.30974 0.30883 0.38068
 C2549 C 0.31615 0.29934 0.38689
 C2550 C 0.31127 0.29412 0.39758
 C2551 C 0.29499 0.29298 0.41328
 C2552 C 0.29084 0.28858 0.42257
 C2553 C 0.28587 0.28343 0.43369
 C2554 C 0.27474 0.28800 0.43846
 C2555 C 0.26997 0.28316 0.44936
 C2556 C 0.27628 0.27368 0.45565
 C2557 C 0.28742 0.26907 0.45072
 C2558 C 0.29218 0.27394 0.43982
 H2559 H 0.28468 0.31098 0.39964
 H2560 H 0.29307 0.32013 0.38091
 H2561 H 0.32497 0.29596 0.38361
 H2562 H 0.31636 0.28686 0.40224
 H2563 H 0.26976 0.29531 0.43377
 H2564 H 0.26128 0.28677 0.45282
 H2565 H 0.29256 0.26188 0.45542
 H2566 H 0.30082 0.27036 0.43622
 C2567 C 0.30166 0.79841 -0.09837
 C2568 C 0.29576 0.80865 -0.10364
 C2569 C 0.30047 0.81400 -0.11433
 C2570 C 0.31119 0.80917 -0.11994
 C2571 C 0.31704 0.79884 -0.11455
 C2572 C 0.31230 0.79351 -0.10385
 C2573 C 0.29679 0.79300 -0.08733
 C2574 C 0.29263 0.78859 -0.07806
 C2575 C 0.28755 0.78351 -0.06696
 C2576 C 0.27638 0.78813 -0.06232
 C2577 C 0.27148 0.78336 -0.05146
 C2578 C 0.27769 0.77389 -0.04506
 C2579 C 0.28888 0.76924 -0.04984
 C2580 C 0.29377 0.77404 -0.06071
 H2581 H 0.28751 0.81253 -0.09947
 H2582 H 0.29566 0.82190 -0.11813
 H2583 H 0.32529 0.79483 -0.11851
 H2584 H 0.31694 0.78558 -0.09984
 H2585 H 0.27147 0.79543 -0.06711
 H2586 H 0.26276 0.78700 -0.04812
 H2587 H 0.29394 0.76205 -0.04506
 H2588 H 0.30244 0.77041 -0.06421
 C2589 C 0.79893 0.29958 -0.09786
 C2590 C 0.79219 0.30835 -0.10452
 C2591 C 0.79714 0.31348 -0.11522
 C2592 C 0.80895 0.30989 -0.11941
 C2593 C 0.81563 0.30100 -0.11265
 C2594 C 0.81065 0.29590 -0.10195
 C2595 C 0.79388 0.29444 -0.08676
 C2596 C 0.78969 0.29020 -0.07742
 C2597 C 0.78475 0.28517 -0.06623
 C2598 C 0.77380 0.27825 -0.06638
 C2599 C 0.76906 0.27332 -0.05550
 C2600 C 0.77525 0.27523 -0.04431
 C2601 C 0.78623 0.28224 -0.04426
 C2602 C 0.79094 0.28717 -0.05514
 H2603 H 0.78309 0.31126 -0.10145
 H2604 H 0.79166 0.32019 -0.12019
 H2605 H 0.82476 0.29806 -0.11550
 H2606 H 0.81597 0.28913 -0.09684
 H2607 H 0.76895 0.27663 -0.07492
 H2608 H 0.76068 0.26784 -0.05586
 H2609 H 0.79111 0.28401 -0.03578
 H2610 H 0.79941 0.29254 -0.05491
 C2611 C 0.80093 0.79746 0.40133
 C2612 C 0.81066 0.79169 0.39507
 C2613 C 0.81547 0.79703 0.38441
 C2614 C 0.81062 0.80825 0.37984
 C2615 C 0.80082 0.81395 0.38623
 C2616 C 0.79602 0.80859 0.39688
 C2617 C 0.79601 0.79203 0.41234
 C2618 C 0.79181 0.78762 0.42161
 C2619 C 0.78672 0.78254 0.43271
 C2620 C 0.79292 0.77304 0.43894
 C2621 C 0.78805 0.76829 0.44985
 C2622 C 0.77692 0.77302 0.45468
 C2623 C 0.77073 0.78251 0.44829
 C2624 C 0.77560 0.78723 0.43739
 H2625 H 0.81453 0.78307 0.39843
 H2626 H 0.82296 0.79230 0.37978
 H2627 H 0.79684 0.82259 0.38311
 H2628 H 0.78850 0.81315 0.40167
 H2629 H 0.80155 0.76936 0.43542
 H2630 H 0.79310 0.76109 0.45463
 H2631 H 0.76205 0.78622 0.45167
 H2632 H 0.77071 0.79456 0.43262
 C2633 C 0.70394 0.29919 0.59681
 C2634 C 0.69476 0.29271 0.60318
 C2635 C 0.68942 0.29783 0.61370
 C2636 C 0.69320 0.30953 0.61801
 C2637 C 0.70249 0.31594 0.61154
 C2638 C 0.70780 0.31080 0.60102
 C2639 C 0.70931 0.29396 0.58590
 C2640 C 0.71373 0.28958 0.57673
 C2641 C 0.71889 0.28431 0.56574
 C2642 C 0.71424 0.27313 0.56116
 C2643 C 0.71907 0.26809 0.55038
 C2644 C 0.72863 0.27417 0.54401
 C2645 C 0.73330 0.28537 0.54873
 C2646 C 0.72845 0.29041 0.55952
 H2647 H 0.69171 0.28369 0.60000
 H2648 H 0.68240 0.29255 0.61845
 H2649 H 0.70560 0.32499 0.61448
 H2650 H 0.71489 0.31591 0.59614
 H2651 H 0.70686 0.26832 0.56592
 H2652 H 0.71540 0.25937 0.54707
 H2653 H 0.74056 0.29034 0.54397
 H2654 H 0.73208 0.29909 0.56297
 C2655 C 0.70373 0.79892 1.09705
 C2656 C 0.69439 0.79250 1.10323
 C2657 C 0.68902 0.79756 1.11377
 C2658 C 0.69294 0.80914 1.11829
 C2659 C 0.70238 0.81550 1.11198
 C2660 C 0.70772 0.81042 1.10144
 C2661 C 0.70915 0.79374 1.08614
 C2662 C 0.71360 0.78936 1.07698
 C2663 C 0.71879 0.78408 1.06601
 C2664 C 0.71426 0.77282 1.06151
 C2665 C 0.71911 0.76777 1.05074
 C2666 C 0.72858 0.77394 1.04431
 C2667 C 0.73314 0.78521 1.04895
 C2668 C 0.72826 0.79025 1.05973
 H2669 H 0.69123 0.78358 1.09991
 H2670 H 0.68187 0.79232 1.11837
 H2671 H 0.70560 0.82446 1.11508
 H2672 H 0.71494 0.81549 1.09670
 H2673 H 0.70695 0.76795 1.06632
 H2674 H 0.71553 0.75899 1.04749
 H2675 H 0.74032 0.79024 1.04414
 H2676 H 0.73180 0.79900 1.06312
 C2677 C 0.20508 0.30061 1.09763
 C2678 C 0.21130 0.30959 1.10451
 C2679 C 0.20591 0.31438 1.11517
 C2680 C 0.19420 0.31023 1.11909
 C2681 C 0.18805 0.30117 1.11209
 C2682 C 0.19345 0.29641 1.10145
 C2683 C 0.21053 0.29575 1.08659
 C2684 C 0.21493 0.29162 1.07730
 C2685 C 0.21998 0.28664 1.06613
 C2686 C 0.23083 0.27954 1.06637
 C2687 C 0.23555 0.27447 1.05554
 C2688 C 0.22945 0.27642 1.04431
 C2689 C 0.21860 0.28366 1.04416
 C2690 C 0.21390 0.28872 1.05500
 H2691 H 0.22031 0.31290 1.10165
 H2692 H 0.21098 0.32125 1.12033
 H2693 H 0.17900 0.29780 1.11471
 H2694 H 0.18854 0.28948 1.09616
 H2695 H 0.23558 0.27783 1.07495
 H2696 H 0.24383 0.26881 1.05597
 H2697 H 0.21378 0.28547 1.03565
 H2698 H 0.20550 0.29421 1.05470
 C2699 C 0.20427 0.79970 0.59769
 C2700 C 0.20799 0.81138 0.60183
 C2701 C 0.20268 0.81648 0.61238
 C2702 C 0.19354 0.80994 0.61893
 C2703 C 0.18990 0.79817 0.61469
 C2704 C 0.19523 0.79310 0.60414
 C2705 C 0.20964 0.79451 0.58676
 C2706 C 0.21405 0.79015 0.57757
 C2707 C 0.21919 0.78490 0.56657
 C2708 C 0.22872 0.79102 0.56033
 C2709 C 0.23355 0.78600 0.54952
 C2710 C 0.22888 0.77480 0.54480
 C2711 C 0.21936 0.76868 0.55120
 C2712 C 0.21455 0.77371 0.56200
 H2713 H 0.21496 0.81658 0.59688
 H2714 H 0.20567 0.82558 0.61527
 H2715 H 0.18300 0.79280 0.61951
 H2716 H 0.19230 0.78403 0.60102
 H2717 H 0.23235 0.79971 0.56377
 H2718 H 0.24077 0.79099 0.54474
 H2719 H 0.21570 0.75996 0.54789
 H2720 H 0.20720 0.76888 0.56678
 C2721 C 0.29853 0.69843 0.59810
 C2722 C 0.29197 0.68964 0.60492
 C2723 C 0.29706 0.68476 0.61567
 C2724 C 0.30881 0.68861 0.61976
 C2725 C 0.31531 0.69749 0.61283
 C2726 C 0.31020 0.70235 0.60208
 C2727 C 0.29336 0.70340 0.58697
 C2728 C 0.28915 0.70758 0.57762
 C2729 C 0.28427 0.71262 0.56640
 C2730 C 0.27330 0.71954 0.56650
 C2731 C 0.26870 0.72462 0.55562
 C2732 C 0.27505 0.72286 0.54449
 C2733 C 0.28603 0.71582 0.54448
 C2734 C 0.29060 0.71075 0.55537
 H2735 H 0.28292 0.68656 0.60193
 H2736 H 0.29172 0.67804 0.62078
 H2737 H 0.32439 0.70063 0.61559
 H2738 H 0.31538 0.70913 0.59685
 H2739 H 0.26834 0.72108 0.57500
 H2740 H 0.26031 0.73011 0.55595
 H2741 H 0.29104 0.71416 0.53604
 H2742 H 0.29909 0.70539 0.55518
 C2743 C 0.29811 0.19902 1.09846
 C2744 C 0.29132 0.19030 1.10514
 C2745 C 0.29620 0.18525 1.11590
 C2746 C 0.30798 0.18885 1.12014
 C2747 C 0.31471 0.19767 1.11335
 C2748 C 0.30980 0.20270 1.10259
 C2749 C 0.29315 0.20412 1.08731
 C2750 C 0.28905 0.20838 1.07794
 C2751 C 0.28426 0.21344 1.06670
 C2752 C 0.27343 0.22058 1.06679
 C2753 C 0.26883 0.22556 1.05588
 C2754 C 0.27503 0.22347 1.04472
 C2755 C 0.28589 0.21625 1.04473
 C2756 C 0.29047 0.21128 1.05565
 H2757 H 0.28225 0.18740 1.10203
 H2758 H 0.29069 0.17858 1.12090
 H2759 H 0.32382 0.20062 1.11623
 H2760 H 0.31516 0.20942 1.09746
 H2761 H 0.26857 0.22234 1.07531
 H2762 H 0.26054 0.23121 1.05619
 H2763 H 0.29078 0.21435 1.03627
 H2764 H 0.29884 0.20575 1.05548
 C2765 C 0.79879 0.69843 1.09797
 C2766 C 0.81029 0.70244 1.10232
 C2767 C 0.81521 0.69743 1.11308
 C2768 C 0.80868 0.68830 1.11966
 C2769 C 0.79711 0.68435 1.11519
 C2770 C 0.79222 0.68938 1.10443
 C2771 C 0.79377 0.70357 1.08687
 C2772 C 0.78961 0.70787 1.07754
 C2773 C 0.78471 0.71302 1.06639
 C2774 C 0.78937 0.72422 1.06185
 C2775 C 0.78474 0.72918 1.05095
 C2776 C 0.77535 0.72299 1.04443
 C2777 C 0.77068 0.71177 1.04909
 C2778 C 0.77535 0.70682 1.06000
 H2779 H 0.81548 0.70943 1.09737
 H2780 H 0.82416 0.70066 1.11614
 H2781 H 0.79175 0.67742 1.12000
 H2782 H 0.78329 0.68622 1.10115
 H2783 H 0.79660 0.72911 1.06675
 H2784 H 0.78840 0.73791 1.04768
 H2785 H 0.76357 0.70672 1.04421
 H2786 H 0.77169 0.69813 1.06341
 C2787 C 0.79850 0.19860 0.59794
 C2788 C 0.79415 0.18734 0.60259
 C2789 C 0.79924 0.18239 0.61331
 C2790 C 0.80878 0.18866 0.61955
 C2791 C 0.81305 0.20001 0.61478
 C2792 C 0.80795 0.20493 0.60406
 C2793 C 0.79334 0.20365 0.58685
 C2794 C 0.78911 0.20791 0.57753
 C2795 C 0.78419 0.21305 0.56638
 C2796 C 0.77475 0.20691 0.56005
 C2797 C 0.77010 0.21186 0.54912
 C2798 C 0.77487 0.22301 0.54439
 C2799 C 0.78432 0.22914 0.55086
 C2800 C 0.78894 0.22418 0.56178
 H2801 H 0.78685 0.18235 0.59790
 H2802 H 0.79573 0.17362 0.61660
 H2803 H 0.82030 0.20517 0.61932
 H2804 H 0.81138 0.21367 0.60055
 H2805 H 0.77103 0.19827 0.56351
 H2806 H 0.76293 0.20685 0.54428
 H2807 H 0.78806 0.23782 0.54755
 H2808 H 0.79623 0.22903 0.56662
 C2809 C 0.70071 0.70252 0.40248
 C2810 C 0.69201 0.70910 0.39556
 C2811 C 0.68705 0.70390 0.38491
 C2812 C 0.69074 0.69200 0.38102
 C2813 C 0.69953 0.68548 0.38804
 C2814 C 0.70446 0.69071 0.39869
 C2815 C 0.70573 0.70781 0.41350
 C2816 C 0.70995 0.71215 0.42278
 C2817 C 0.71502 0.71719 0.43390
 C2818 C 0.72196 0.72813 0.43361
 C2819 C 0.72705 0.73289 0.44441
 C2820 C 0.72526 0.72674 0.45564
 C2821 C 0.71820 0.71578 0.45584
 C2822 C 0.71312 0.71105 0.44504
 H2823 H 0.68905 0.71827 0.39840
 H2824 H 0.68041 0.70926 0.37972
 H2825 H 0.70253 0.67628 0.38543
 H2826 H 0.71117 0.68551 0.40400
 H2827 H 0.72352 0.73293 0.42503
 H2828 H 0.73257 0.74125 0.44394
 H2829 H 0.71651 0.71093 0.46436
 H2830 H 0.70773 0.70259 0.44537
 C2831 C 0.70383 0.20035 -0.09804
 C2832 C 0.70721 0.18859 -0.10229
 C2833 C 0.70174 0.18376 -0.11288
 C2834 C 0.69279 0.19063 -0.11935
 C2835 C 0.68949 0.20247 -0.11499
 C2836 C 0.69498 0.20728 -0.10441
 C2837 C 0.70934 0.20528 -0.08706
 C2838 C 0.71383 0.20946 -0.07783
 C2839 C 0.71901 0.21452 -0.06677
 C2840 C 0.72852 0.20827 -0.06062
 C2841 C 0.73336 0.21310 -0.04974
 C2842 C 0.72871 0.22425 -0.04485
 C2843 C 0.71921 0.23050 -0.05115
 C2844 C 0.71440 0.22566 -0.06203
 H2845 H 0.71404 0.18314 -0.09741
 H2846 H 0.70447 0.17460 -0.11586
 H2847 H 0.68273 0.20809 -0.11974
 H2848 H 0.69230 0.21640 -0.10120
 H2849 H 0.73214 0.19962 -0.06420
 H2850 H 0.74057 0.20801 -0.04503
 H2851 H 0.71556 0.23919 -0.04772
 H2852 H 0.70706 0.23060 -0.06673
 C2853 C 0.20108 0.70328 -0.09823
 C2854 C 0.18958 0.70748 -0.10240
 C2855 C 0.18430 0.70235 -0.11293
 C2856 C 0.19046 0.69292 -0.11946
 C2857 C 0.20205 0.68878 -0.11517
 C2858 C 0.20731 0.69393 -0.10464
 C2859 C 0.20645 0.70849 -0.08732
 C2860 C 0.21094 0.71280 -0.07815
 C2861 C 0.21630 0.71784 -0.06716
 C2862 C 0.21029 0.72739 -0.06083
 C2863 C 0.21541 0.73214 -0.05004
 C2864 C 0.22661 0.72737 -0.04544
 C2865 C 0.23261 0.71781 -0.05192
 C2866 C 0.22748 0.71308 -0.06270
 H2867 H 0.18466 0.71470 -0.09749
 H2868 H 0.17535 0.70573 -0.11585
 H2869 H 0.20713 0.68162 -0.11996
 H2870 H 0.21623 0.69062 -0.10149
 H2871 H 0.20161 0.73111 -0.06418
 H2872 H 0.21050 0.73939 -0.04518
 H2873 H 0.24133 0.71405 -0.04870
 H2874 H 0.23222 0.70570 -0.06755
 C2875 C 0.20091 0.20283 0.40335
 C2876 C 0.20470 0.19104 0.39955
 C2877 C 0.19978 0.18581 0.38889
 C2878 C 0.19098 0.19232 0.38187
 C2879 C 0.18727 0.20420 0.38577
 C2880 C 0.19220 0.20940 0.39644
 C2881 C 0.20588 0.20811 0.41440
 C2882 C 0.21006 0.21245 0.42370
 C2883 C 0.21507 0.21748 0.43485
 C2884 C 0.21324 0.21126 0.44596
 C2885 C 0.21828 0.21599 0.45678
 C2886 C 0.22523 0.22701 0.45663
 C2887 C 0.22694 0.23325 0.44544
 C2888 C 0.22189 0.22850 0.43462
 H2889 H 0.21142 0.18585 0.40485
 H2890 H 0.20281 0.17663 0.38627
 H2891 H 0.18061 0.20955 0.38059
 H2892 H 0.18922 0.21856 0.39929
 H2893 H 0.20794 0.20274 0.44625
 H2894 H 0.21665 0.21108 0.46528
 H2895 H 0.23237 0.24167 0.44501
 H2896 H 0.22338 0.23337 0.42606
 C2897 C 0.29706 0.40201 0.70208
 C2898 C 0.29314 0.39785 0.69059
 C2899 C 0.29856 0.38735 0.68531
 C2900 C 0.30801 0.38086 0.69146
 C2901 C 0.31188 0.38513 0.70304
 C2902 C 0.30643 0.39563 0.70829
 C2903 C 0.29156 0.41290 0.70742
 C2904 C 0.28700 0.42206 0.71187
 C2905 C 0.28166 0.43305 0.71716
 C2906 C 0.27213 0.43934 0.71108
 C2907 C 0.26714 0.45018 0.71611
 C2908 C 0.27164 0.45487 0.72728
 C2909 C 0.28115 0.44841 0.73336
 C2910 C 0.28612 0.43758 0.72833
 H2911 H 0.28592 0.40275 0.68567
 H2912 H 0.29539 0.38445 0.67637
 H2913 H 0.31904 0.38037 0.70811
 H2914 H 0.30954 0.39878 0.71720
 H2915 H 0.26864 0.43593 0.70241
 H2916 H 0.25993 0.45502 0.71114
 H2917 H 0.28469 0.45170 0.74205
 H2918 H 0.29348 0.43277 0.73312
 C2919 C 0.29869 0.90078 0.20318
 C2920 C 0.29456 0.89692 0.19165
 C2921 C 0.29975 0.88646 0.18609
 C2922 C 0.30918 0.87970 0.19198
 C2923 C 0.31325 0.88366 0.20360
 C2924 C 0.30803 0.89412 0.20915
 C2925 C 0.29340 0.91161 0.20882
 C2926 C 0.28893 0.92074 0.21343
 C2927 C 0.28355 0.93169 0.21877
 C2928 C 0.27222 0.93618 0.21440
 C2929 C 0.26710 0.94698 0.21934
 C2930 C 0.27324 0.95344 0.22874
 C2931 C 0.28457 0.94878 0.23316
 C2932 C 0.28969 0.93798 0.22819
 H2933 H 0.28735 0.90203 0.18694
 H2934 H 0.29642 0.88379 0.17713
 H2935 H 0.32039 0.87867 0.20849
 H2936 H 0.31129 0.89702 0.21809
 H2937 H 0.26738 0.93136 0.20713
 H2938 H 0.25829 0.95023 0.21587
 H2939 H 0.28958 0.95362 0.24029
 H2940 H 0.29848 0.93459 0.23162
 C2941 C 0.79766 0.39980 0.20275
 C2942 C 0.79394 0.39600 0.19107
 C2943 C 0.79907 0.38536 0.18578
 C2944 C 0.80803 0.37837 0.19211
 C2945 C 0.81165 0.38225 0.20389
 C2946 C 0.80650 0.39289 0.20916
 C2947 C 0.79252 0.41087 0.20810
 C2948 C 0.78827 0.42019 0.21253
 C2949 C 0.78324 0.43139 0.21770
 C2950 C 0.78504 0.44273 0.21174
 C2951 C 0.78009 0.45362 0.21668
 C2952 C 0.77326 0.45331 0.22766
 C2953 C 0.77155 0.44187 0.23362
 C2954 C 0.77651 0.43098 0.22866
 H2955 H 0.78712 0.40131 0.18601
 H2956 H 0.79610 0.38275 0.17668
 H2957 H 0.81842 0.37709 0.20911
 H2958 H 0.80944 0.39574 0.21822
 H2959 H 0.79026 0.44316 0.20328
 H2960 H 0.78172 0.46230 0.21197
 H2961 H 0.76622 0.44131 0.24200
 H2962 H 0.77504 0.42224 0.23333
 C2963 C 0.79591 0.90095 0.70162
 C2964 C 0.79193 0.89661 0.69022
 C2965 C 0.79685 0.88566 0.68538
 C2966 C 0.80586 0.87890 0.69189
 C2967 C 0.80983 0.88339 0.70334
 C2968 C 0.80488 0.89434 0.70816
 C2969 C 0.79079 0.91219 0.70663
 C2970 C 0.78651 0.92159 0.71086
 C2971 C 0.78144 0.93280 0.71595
 C2972 C 0.77196 0.93913 0.70983
 C2973 C 0.76706 0.95005 0.71477
 C2974 C 0.77162 0.95479 0.72590
 C2975 C 0.78114 0.94835 0.73199
 C2976 C 0.78601 0.93743 0.72704
 H2977 H 0.78500 0.90167 0.68507
 H2978 H 0.79363 0.88259 0.67651
 H2979 H 0.81667 0.87844 0.70867
 H2980 H 0.80803 0.89762 0.71701
 H2981 H 0.76838 0.93564 0.70123
 H2982 H 0.75985 0.95488 0.70980
 H2983 H 0.78472 0.95167 0.74065
 H2984 H 0.79332 0.93258 0.73187
 C2985 C 0.69883 0.59996 0.70253
 C2986 C 0.68723 0.60451 0.70604
 C2987 C 0.68245 0.61522 0.70056
 C2988 C 0.68923 0.62152 0.69147
 C2989 C 0.70091 0.61686 0.68804
 C2990 C 0.70566 0.60616 0.69354
 C2991 C 0.70370 0.58886 0.70803
 C2992 C 0.70788 0.57953 0.71250
 C2993 C 0.71300 0.56835 0.71763
 C2994 C 0.70674 0.56205 0.72697
 C2995 C 0.71165 0.55108 0.73179
 C2996 C 0.72288 0.54627 0.72729
 C2997 C 0.72913 0.55273 0.71795
 C2998 C 0.72421 0.56369 0.71316
 H2999 H 0.68185 0.59976 0.71298
 H3000 H 0.67341 0.61844 0.70340
 H3001 H 0.70646 0.62148 0.68118
 H3002 H 0.71466 0.60272 0.69076
 H3003 H 0.69802 0.56556 0.73047
 H3004 H 0.70656 0.54624 0.73887
 H3005 H 0.73789 0.54936 0.71443
 H3006 H 0.72915 0.56851 0.70596
 C3007 C 0.69970 0.09896 0.20175
 C3008 C 0.68818 0.10349 0.20550
 C3009 C 0.68327 0.11419 0.20014
 C3010 C 0.68983 0.12053 0.19091
 C3011 C 0.70144 0.11588 0.18722
 C3012 C 0.70632 0.10517 0.19261
 C3013 C 0.70470 0.08788 0.20721
 C3014 C 0.70889 0.07858 0.21171
 C3015 C 0.71392 0.06742 0.21698
 C3016 C 0.70753 0.06122 0.22630
 C3017 C 0.71233 0.05027 0.23126
 C3018 C 0.72360 0.04537 0.22694
 C3019 C 0.72999 0.05173 0.21762
 C3020 C 0.72517 0.06267 0.21269
 H3021 H 0.68295 0.09873 0.21255
 H3022 H 0.67428 0.11739 0.20317
 H3023 H 0.70682 0.12051 0.18023
 H3024 H 0.71527 0.10175 0.18963
 H3025 H 0.69879 0.06480 0.22967
 H3026 H 0.70713 0.04551 0.23832
 H3027 H 0.73877 0.04829 0.21422
 H3028 H 0.73022 0.06742 0.20550
 C3029 C 0.20086 0.59930 0.20047
 C3030 C 0.20511 0.60334 0.18904
 C3031 C 0.20005 0.61396 0.18365
 C3032 C 0.19064 0.62069 0.18962
 C3033 C 0.18645 0.61654 0.20113
 C3034 C 0.19153 0.60592 0.20650
 C3035 C 0.20602 0.58831 0.20594
 C3036 C 0.21031 0.57907 0.21048
 C3037 C 0.21537 0.56798 0.21585
 C3038 C 0.22490 0.56154 0.20993
 C3039 C 0.22965 0.55064 0.21504
 C3040 C 0.22491 0.54604 0.22615
 C3041 C 0.21539 0.55264 0.23207
 C3042 C 0.21065 0.56353 0.22695
 H3043 H 0.21231 0.59827 0.18428
 H3044 H 0.20347 0.61677 0.17477
 H3045 H 0.17930 0.62149 0.20606
 H3046 H 0.18817 0.60287 0.21536
 H3047 H 0.22859 0.56489 0.20131
 H3048 H 0.23688 0.54570 0.21018
 H3049 H 0.21167 0.54942 0.24072
 H3050 H 0.20330 0.56846 0.23164
 C3051 C 0.19893 0.10042 0.70391
 C3052 C 0.18729 0.10492 0.70737
 C3053 C 0.18248 0.11559 0.70184
 C3054 C 0.18924 0.12188 0.69273
 C3055 C 0.20096 0.11727 0.68936
 C3056 C 0.20575 0.10662 0.69491
 C3057 C 0.20385 0.08936 0.70947
 C3058 C 0.20807 0.08007 0.71396
 C3059 C 0.21325 0.06893 0.71911
 C3060 C 0.20706 0.06263 0.72850
 C3061 C 0.21202 0.05166 0.73329
 C3062 C 0.22321 0.04684 0.72870
 C3063 C 0.22940 0.05331 0.71933
 C3064 C 0.22444 0.06427 0.71457
 H3065 H 0.18192 0.10017 0.71431
 H3066 H 0.17341 0.11877 0.70464
 H3067 H 0.20650 0.12189 0.68249
 H3068 H 0.21477 0.10322 0.69216
 H3069 H 0.19837 0.06614 0.73206
 H3070 H 0.20698 0.04683 0.74041
 H3071 H 0.23812 0.04994 0.71573
 H3072 H 0.22932 0.06909 0.70732
 C3073 C 0.29725 0.59937 0.30025
 C3074 C 0.30642 0.60563 0.29365
 C3075 C 0.31198 0.61623 0.29854
 C3076 C 0.30844 0.62073 0.31014
 C3077 C 0.29916 0.61438 0.31667
 C3078 C 0.29362 0.60378 0.31176
 C3079 C 0.29167 0.58836 0.29527
 C3080 C 0.28709 0.57910 0.29108
 C3081 C 0.28178 0.56798 0.28605
 C3082 C 0.28629 0.56317 0.27500
 C3083 C 0.28134 0.55224 0.27020
 C3084 C 0.27180 0.54594 0.27640
 C3085 C 0.26725 0.55090 0.28745
 C3086 C 0.27223 0.56185 0.29224
 H3087 H 0.30929 0.60231 0.28472
 H3088 H 0.31899 0.62089 0.29318
 H3089 H 0.29623 0.61747 0.32564
 H3090 H 0.28655 0.59898 0.31696
 H3091 H 0.29366 0.56786 0.27012
 H3092 H 0.28491 0.54875 0.26160
 H3093 H 0.26002 0.54620 0.29250
 H3094 H 0.26870 0.56547 0.30081
 C3095 C 0.30010 0.09962 0.79834
 C3096 C 0.31156 0.10399 0.79423
 C3097 C 0.31667 0.11472 0.79932
 C3098 C 0.31040 0.12124 0.80862
 C3099 C 0.29885 0.11676 0.81265
 C3100 C 0.29375 0.10603 0.80755
 C3101 C 0.29491 0.08849 0.79321
 C3102 C 0.29057 0.07912 0.78899
 C3103 C 0.28539 0.06789 0.78406
 C3104 C 0.27846 0.06821 0.77323
 C3105 C 0.27331 0.05730 0.76854
 C3106 C 0.27502 0.04594 0.77464
 C3107 C 0.28206 0.04572 0.78549
 C3108 C 0.28720 0.05662 0.79015
 H3109 H 0.31657 0.09907 0.78713
 H3110 H 0.32560 0.11779 0.79602
 H3111 H 0.29368 0.12155 0.81970
 H3112 H 0.28486 0.10273 0.81079
 H3113 H 0.27697 0.07689 0.76846
 H3114 H 0.26781 0.05780 0.76026
 H3115 H 0.28369 0.03709 0.79030
 H3116 H 0.29259 0.05627 0.79852
 C3117 C 0.79961 0.59938 0.79785
 C3118 C 0.80875 0.60594 0.79150
 C3119 C 0.81403 0.61655 0.79668
 C3120 C 0.81023 0.62076 0.80830
 C3121 C 0.80100 0.61409 0.81459
 C3122 C 0.79574 0.60348 0.80939
 C3123 C 0.79425 0.58840 0.79258
 C3124 C 0.78974 0.57917 0.78825
 C3125 C 0.78433 0.56810 0.78320
 C3126 C 0.79035 0.56168 0.77377
 C3127 C 0.78518 0.55081 0.76902
 C3128 C 0.77392 0.54623 0.77365
 C3129 C 0.76791 0.55281 0.78307
 C3130 C 0.77309 0.56367 0.78780
 H3131 H 0.81180 0.60285 0.78255
 H3132 H 0.82102 0.62145 0.79150
 H3133 H 0.79789 0.61695 0.82357
 H3134 H 0.78869 0.59845 0.81440
 H3135 H 0.79908 0.56501 0.77017
 H3136 H 0.79010 0.54588 0.76187
 H3137 H 0.75915 0.54961 0.78672
 H3138 H 0.76834 0.56859 0.79508
 C3139 C 0.79954 0.09830 0.29872
 C3140 C 0.81038 0.10327 0.29371
 C3141 C 0.81580 0.11378 0.29893
 C3142 C 0.81046 0.11949 0.30927
 C3143 C 0.79953 0.11442 0.31420
 C3144 C 0.79412 0.10391 0.30896
 C3145 C 0.79406 0.08739 0.29342
 C3146 C 0.78951 0.07821 0.28904
 C3147 C 0.78411 0.06718 0.28390
 C3148 C 0.79024 0.06073 0.27456
 C3149 C 0.78512 0.04987 0.26975
 C3150 C 0.77378 0.04532 0.27423
 C3151 C 0.76764 0.05193 0.28355
 C3152 C 0.77278 0.06278 0.28834
 H3153 H 0.81467 0.09898 0.28580
 H3154 H 0.82424 0.11730 0.29490
 H3155 H 0.79508 0.11857 0.32208
 H3156 H 0.78573 0.10015 0.31291
 H3157 H 0.79903 0.06404 0.27108
 H3158 H 0.79013 0.04492 0.26269
 H3159 H 0.75882 0.04876 0.28706
 H3160 H 0.76794 0.06772 0.29554
 C3161 C 0.69813 0.39928 0.29966
 C3162 C 0.68729 0.39407 0.29493
 C3163 C 0.68229 0.38338 0.30022
 C3164 C 0.68807 0.37775 0.31037
 C3165 C 0.69901 0.38305 0.31501
 C3166 C 0.70399 0.39374 0.30969
 C3167 C 0.70313 0.41042 0.29435
 C3168 C 0.70729 0.41981 0.29000
 C3169 C 0.71222 0.43110 0.28495
 C3170 C 0.71891 0.43087 0.27396
 C3171 C 0.72380 0.44184 0.26915
 C3172 C 0.72207 0.45319 0.27529
 C3173 C 0.71527 0.45332 0.28629
 C3174 C 0.71039 0.44234 0.29107
 H3175 H 0.68266 0.39830 0.28718
 H3176 H 0.67383 0.37967 0.29642
 H3177 H 0.70379 0.37897 0.32273
 H3178 H 0.71239 0.39769 0.31343
 H3179 H 0.72041 0.42221 0.26916
 H3180 H 0.72912 0.44142 0.26075
 H3181 H 0.71364 0.46192 0.29114
 H3182 H 0.70520 0.44263 0.29956
 C3183 C 0.70075 0.90046 0.80118
 C3184 C 0.69150 0.89400 0.79490
 C3185 C 0.68630 0.88332 0.80000
 C3186 C 0.69028 0.87893 0.81149
 C3187 C 0.69963 0.88549 0.81772
 C3188 C 0.70481 0.89618 0.81259
 C3189 C 0.70599 0.91154 0.79598
 C3190 C 0.71029 0.92085 0.79161
 C3191 C 0.71529 0.93202 0.78638
 C3192 C 0.71067 0.93650 0.77525
 C3193 C 0.71534 0.94747 0.77026
 C3194 C 0.72470 0.95413 0.77634
 C3195 C 0.72935 0.94950 0.78748
 C3196 C 0.72466 0.93852 0.79247
 H3197 H 0.68829 0.89724 0.78605
 H3198 H 0.67921 0.87851 0.79487
 H3199 H 0.70289 0.88249 0.82660
 H3200 H 0.71195 0.90113 0.81756
 H3201 H 0.70344 0.93152 0.77045
 H3202 H 0.71169 0.95070 0.76159
 H3203 H 0.73645 0.95449 0.79245
 H3204 H 0.72828 0.93515 0.80111
 C3205 C 0.20001 0.40101 0.80169
 C3206 C 0.19076 0.39457 0.79538
 C3207 C 0.18559 0.38385 0.80042
 C3208 C 0.18960 0.37939 0.81188
 C3209 C 0.19893 0.38594 0.81814
 C3210 C 0.20408 0.39667 0.81307
 C3211 C 0.20525 0.41212 0.79655
 C3212 C 0.20959 0.42145 0.79226
 C3213 C 0.21468 0.43264 0.78714
 C3214 C 0.21014 0.43725 0.77603
 C3215 C 0.21492 0.44822 0.77113
 C3216 C 0.22432 0.45474 0.77729
 C3217 C 0.22889 0.44999 0.78842
 C3218 C 0.22409 0.43901 0.79330
 H3219 H 0.18754 0.39785 0.78655
 H3220 H 0.17851 0.37904 0.79528
 H3221 H 0.20221 0.38290 0.82700
 H3222 H 0.21122 0.40160 0.81806
 H3223 H 0.20288 0.43237 0.77116
 H3224 H 0.21133 0.45154 0.76247
 H3225 H 0.23602 0.45487 0.79344
 H3226 H 0.22765 0.43554 0.80193
 C3227 C 0.19813 0.89940 0.29992
 C3228 C 0.18662 0.89493 0.29606
 C3229 C 0.18170 0.88417 0.30127
 C3230 C 0.18822 0.87771 0.31044
 C3231 C 0.19980 0.88230 0.31424
 C3232 C 0.20470 0.89306 0.30901
 C3233 C 0.20316 0.91052 0.29462
 C3234 C 0.20743 0.91987 0.29029
 C3235 C 0.21259 0.93106 0.28525
 C3236 C 0.20633 0.93749 0.27599
 C3237 C 0.21128 0.94847 0.27125
 C3238 C 0.22255 0.95316 0.27574
 C3239 C 0.22880 0.94658 0.28499
 C3240 C 0.22385 0.93561 0.28971
 H3241 H 0.18143 0.89979 0.28904
 H3242 H 0.17273 0.88101 0.29816
 H3243 H 0.20516 0.87758 0.32119
 H3244 H 0.21363 0.89644 0.31206
 H3245 H 0.19759 0.93407 0.27250
 H3246 H 0.20618 0.95340 0.26423
 H3247 H 0.23759 0.94985 0.28850
 H3248 H 0.22879 0.93068 0.29684
 C3249 C 0.40191 0.30200 0.70195
 C3250 C 0.39791 0.29782 0.69048
 C3251 C 0.38718 0.30274 0.68520
 C3252 C 0.38028 0.31193 0.69132
 C3253 C 0.38440 0.31605 0.70287
 C3254 C 0.39513 0.31111 0.70813
 C3255 C 0.41301 0.29696 0.70730
 C3256 C 0.42234 0.29270 0.71168
 C3257 C 0.43352 0.28756 0.71675
 C3258 C 0.43816 0.27632 0.71228
 C3259 C 0.44913 0.27140 0.71702
 C3260 C 0.45563 0.27767 0.72632
 C3261 C 0.45084 0.28892 0.73082
 C3262 C 0.43986 0.29383 0.72606
 H3263 H 0.40311 0.29078 0.68560
 H3264 H 0.38441 0.29938 0.67629
 H3265 H 0.37933 0.32303 0.70792
 H3266 H 0.39814 0.31441 0.71702
 H3267 H 0.43331 0.27138 0.70510
 H3268 H 0.45248 0.26264 0.71348
 H3269 H 0.45570 0.29403 0.73788
 H3270 H 0.43636 0.30256 0.72957
 C3271 C 0.40184 0.79936 0.20053
 C3272 C 0.39518 0.80844 0.20689
 C3273 C 0.38451 0.81361 0.20172
 C3274 C 0.38035 0.80978 0.19010
 C3275 C 0.38711 0.80060 0.18381
 C3276 C 0.39778 0.79545 0.18899
 C3277 C 0.41287 0.79410 0.20580
 C3278 C 0.42214 0.78969 0.21013
 C3279 C 0.43326 0.78438 0.21516
 C3280 C 0.43958 0.79044 0.22462
 C3281 C 0.45051 0.78538 0.22934
 C3282 C 0.45527 0.77420 0.22464
 C3283 C 0.44880 0.76814 0.21520
 C3284 C 0.43787 0.77321 0.21050
 H3285 H 0.39823 0.81152 0.21584
 H3286 H 0.37953 0.82055 0.20691
 H3287 H 0.38429 0.79745 0.17483
 H3288 H 0.40289 0.78844 0.18398
 H3289 H 0.43611 0.79911 0.22828
 H3290 H 0.45536 0.79033 0.23651
 H3291 H 0.45213 0.75944 0.21150
 H3292 H 0.43303 0.76843 0.20320
 C3293 C 0.90216 0.29979 0.20170
 C3294 C 0.89607 0.30971 0.20736
 C3295 C 0.88525 0.31459 0.20223
 C3296 C 0.88035 0.30961 0.19133
 C3297 C 0.88657 0.29962 0.18573
 C3298 C 0.89738 0.29476 0.19088
 C3299 C 0.91331 0.29478 0.20693
 C3300 C 0.92268 0.29049 0.21119
 C3301 C 0.93389 0.28527 0.21611
 C3302 C 0.94040 0.29146 0.22536
 C3303 C 0.95138 0.28642 0.22999
 C3304 C 0.95600 0.27514 0.22540
 C3305 C 0.94935 0.26896 0.21615
 C3306 C 0.93838 0.27400 0.21155
 H3307 H 0.89970 0.31367 0.21574
 H3308 H 0.88079 0.32224 0.20685
 H3309 H 0.88316 0.29551 0.17736
 H3310 H 0.90202 0.28708 0.18642
 H3311 H 0.93702 0.30020 0.22893
 H3312 H 0.95636 0.29146 0.23700
 H3313 H 0.95258 0.26018 0.21256
 H3314 H 0.93339 0.26912 0.20442
 C3315 C 0.90048 0.80234 0.70168
 C3316 C 0.89564 0.79706 0.69102
 C3317 C 0.88467 0.80163 0.68595
 C3318 C 0.87835 0.81159 0.69149
 C3319 C 0.88333 0.81686 0.70221
 C3320 C 0.89432 0.81227 0.70726
 C3321 C 0.91174 0.79753 0.70689
 C3322 C 0.92117 0.79336 0.71112
 C3323 C 0.93245 0.78823 0.71601
 C3324 C 0.93710 0.77709 0.71132
 C3325 C 0.94811 0.77213 0.71592
 C3326 C 0.95463 0.77826 0.72529
 C3327 C 0.94984 0.78942 0.73000
 C3328 C 0.93882 0.79438 0.72537
 H3329 H 0.90033 0.78936 0.68663
 H3330 H 0.88114 0.79726 0.67775
 H3331 H 0.87883 0.82457 0.70671
 H3332 H 0.89800 0.81645 0.71552
 H3333 H 0.93222 0.77224 0.70409
 H3334 H 0.95147 0.76343 0.71223
 H3335 H 0.95472 0.79442 0.73711
 H3336 H 0.93531 0.80302 0.72905
 C3337 C 0.59771 0.29518 0.29974
 C3338 C 0.60421 0.30442 0.29346
 C3339 C 0.61485 0.30963 0.29860
 C3340 C 0.61915 0.30568 0.31014
 C3341 C 0.61255 0.29634 0.31635
 C3342 C 0.60191 0.29115 0.31119
 C3343 C 0.58667 0.28994 0.29449
 C3344 C 0.57738 0.28565 0.29009
 C3345 C 0.56624 0.28065 0.28482
 C3346 C 0.56170 0.28544 0.27379
 C3347 C 0.55075 0.28078 0.26876
 C3348 C 0.54420 0.27125 0.27470
 C3349 C 0.54890 0.26642 0.28574
 C3350 C 0.55985 0.27111 0.29077
 H3351 H 0.60104 0.30761 0.28458
 H3352 H 0.61970 0.31671 0.29348
 H3353 H 0.61548 0.29310 0.32527
 H3354 H 0.59693 0.28402 0.31614
 H3355 H 0.56659 0.29281 0.26910
 H3356 H 0.54747 0.28457 0.26017
 H3357 H 0.54399 0.25918 0.29060
 H3358 H 0.56327 0.26735 0.29933
 C3359 C 0.59806 0.79853 0.79954
 C3360 C 0.60468 0.80785 0.79350
 C3361 C 0.61531 0.81288 0.79885
 C3362 C 0.61947 0.80866 0.81034
 C3363 C 0.61274 0.79926 0.81632
 C3364 C 0.60211 0.79425 0.81095
 C3365 C 0.58706 0.79344 0.79407
 C3366 C 0.57782 0.78923 0.78950
 C3367 C 0.56674 0.78430 0.78405
 C3368 C 0.56238 0.78913 0.77297
 C3369 C 0.55151 0.78451 0.76775
 C3370 C 0.54485 0.77497 0.77356
 C3371 C 0.54936 0.77010 0.78466
 C3372 C 0.56023 0.77475 0.78987
 H3373 H 0.60162 0.81123 0.78465
 H3374 H 0.62026 0.82001 0.79391
 H3375 H 0.61556 0.79583 0.82519
 H3376 H 0.59703 0.78706 0.81572
 H3377 H 0.56736 0.79650 0.76837
 H3378 H 0.54836 0.78833 0.75912
 H3379 H 0.54437 0.76286 0.78943
 H3380 H 0.56352 0.77096 0.79847
 C3381 C 0.09769 0.29848 0.79998
 C3382 C 0.10423 0.30785 0.79392
 C3383 C 0.11486 0.31293 0.79922
 C3384 C 0.11912 0.30870 0.81067
 C3385 C 0.11248 0.29924 0.81666
 C3386 C 0.10185 0.29419 0.81134
 C3387 C 0.08667 0.29335 0.79458
 C3388 C 0.07741 0.28911 0.79008
 C3389 C 0.06630 0.28413 0.78472
 C3390 C 0.06180 0.28898 0.77370
 C3391 C 0.05090 0.28432 0.76858
 C3392 C 0.04435 0.27472 0.77442
 C3393 C 0.04899 0.26985 0.78546
 C3394 C 0.05990 0.27454 0.79058
 H3395 H 0.10109 0.31125 0.78511
 H3396 H 0.11974 0.32011 0.79428
 H3397 H 0.11537 0.29579 0.82551
 H3398 H 0.09684 0.28696 0.81613
 H3399 H 0.06670 0.29639 0.76908
 H3400 H 0.04765 0.28815 0.75999
 H3401 H 0.04408 0.26256 0.79026
 H3402 H 0.06328 0.27074 0.79914
 C3403 C 0.09722 0.79588 0.30027
 C3404 C 0.10143 0.80748 0.29636
 C3405 C 0.11207 0.81267 0.30152
 C3406 C 0.11868 0.80631 0.31070
 C3407 C 0.11435 0.79463 0.31457
 C3408 C 0.10370 0.78947 0.30938
 C3409 C 0.08625 0.79059 0.29493
 C3410 C 0.07703 0.78627 0.29042
 C3411 C 0.06600 0.78125 0.28496
 C3412 C 0.06164 0.78604 0.27386
 C3413 C 0.05082 0.78134 0.26861
 C3414 C 0.04419 0.77177 0.27442
 C3415 C 0.04870 0.76695 0.28554
 C3416 C 0.05953 0.77167 0.29077
 H3417 H 0.09646 0.81254 0.28932
 H3418 H 0.11502 0.82170 0.29836
 H3419 H 0.11919 0.78941 0.32153
 H3420 H 0.10053 0.78047 0.31247
 H3421 H 0.06660 0.79343 0.26926
 H3422 H 0.04768 0.78512 0.25996
 H3423 H 0.04373 0.75968 0.29030
 H3424 H 0.06281 0.76792 0.29939
 C3425 C 0.59825 0.70405 0.69797
 C3426 C 0.60230 0.69249 0.70220
 C3427 C 0.61303 0.68713 0.69738
 C3428 C 0.61989 0.69325 0.68823
 C3429 C 0.61572 0.70488 0.68404
 C3430 C 0.60498 0.71023 0.68889
 C3431 C 0.58718 0.70951 0.70295
 C3432 C 0.57788 0.71396 0.70719
 C3433 C 0.56674 0.71911 0.71235
 C3434 C 0.56209 0.71444 0.72338
 C3435 C 0.55116 0.71925 0.72834
 C3436 C 0.54473 0.72882 0.72230
 C3437 C 0.54952 0.73352 0.71125
 C3438 C 0.56045 0.72868 0.70631
 H3439 H 0.59714 0.68761 0.70922
 H3440 H 0.61585 0.67814 0.70078
 H3441 H 0.62076 0.70994 0.67710
 H3442 H 0.60193 0.71919 0.68556
 H3443 H 0.56690 0.70705 0.72815
 H3444 H 0.54780 0.71556 0.73694
 H3445 H 0.54470 0.74078 0.70633
 H3446 H 0.56396 0.73234 0.69774
 C3447 C 0.59782 0.20163 0.19918
 C3448 C 0.60214 0.19014 0.20331
 C3449 C 0.61293 0.18502 0.19836
 C3450 C 0.61957 0.19132 0.18917
 C3451 C 0.61513 0.20290 0.18510
 C3452 C 0.60434 0.20800 0.19007
 C3453 C 0.58667 0.20684 0.20425
 C3454 C 0.57731 0.21111 0.20854
 C3455 C 0.56610 0.21607 0.21371
 C3456 C 0.56152 0.21130 0.22473
 C3457 C 0.55054 0.21596 0.22971
 C3458 C 0.54399 0.22547 0.22371
 C3459 C 0.54871 0.23027 0.21267
 C3460 C 0.55970 0.22558 0.20771
 H3461 H 0.59714 0.18512 0.21034
 H3462 H 0.61595 0.17607 0.20168
 H3463 H 0.62001 0.20809 0.17813
 H3464 H 0.60108 0.21692 0.18682
 H3465 H 0.56642 0.20396 0.22948
 H3466 H 0.54723 0.21221 0.23831
 H3467 H 0.54381 0.23749 0.20777
 H3468 H 0.56316 0.22931 0.19915
 C3469 C 0.09861 0.70197 0.19829
 C3470 C 0.10508 0.69275 0.20463
 C3471 C 0.11580 0.68756 0.19959
 C3472 C 0.12022 0.69153 0.18811
 C3473 C 0.11364 0.70085 0.18182
 C3474 C 0.10292 0.70601 0.18689
 C3475 C 0.08750 0.70720 0.20345
 C3476 C 0.07816 0.71148 0.20779
 C3477 C 0.06697 0.71645 0.21300
 C3478 C 0.06239 0.71168 0.22403
 C3479 C 0.05140 0.71632 0.22901
 C3480 C 0.04483 0.72582 0.22302
 C3481 C 0.04955 0.73063 0.21198
 C3482 C 0.06055 0.72596 0.20701
 H3483 H 0.10183 0.68955 0.21348
 H3484 H 0.12062 0.68050 0.20476
 H3485 H 0.11666 0.70410 0.17294
 H3486 H 0.09796 0.71313 0.18188
 H3487 H 0.06730 0.70434 0.22876
 H3488 H 0.04810 0.71255 0.23760
 H3489 H 0.04464 0.73784 0.20708
 H3490 H 0.06400 0.72970 0.19845
 C3491 C 0.09791 0.20405 0.69873
 C3492 C 0.10200 0.19253 0.70300
 C3493 C 0.11273 0.18716 0.69817
 C3494 C 0.11953 0.19324 0.68896
 C3495 C 0.11532 0.20484 0.68472
 C3496 C 0.10459 0.21019 0.68958
 C3497 C 0.08685 0.20952 0.70373
 C3498 C 0.07755 0.21396 0.70800
 C3499 C 0.06641 0.21909 0.71319
 C3500 C 0.06177 0.21435 0.72420
 C3501 C 0.05084 0.21912 0.72918
 C3502 C 0.04438 0.22871 0.72320
 C3503 C 0.04918 0.23349 0.71218
 C3504 C 0.06012 0.22869 0.70721
 H3505 H 0.09688 0.18768 0.71007
 H3506 H 0.11558 0.17820 0.70162
 H3507 H 0.12033 0.20986 0.67773
 H3508 H 0.10151 0.21912 0.68621
 H3509 H 0.06659 0.20695 0.72893
 H3510 H 0.04748 0.21538 0.73776
 H3511 H 0.04435 0.24077 0.70729
 H3512 H 0.06362 0.23240 0.69866
 C3513 C 0.40242 0.69871 0.29582
 C3514 C 0.39869 0.70313 0.30729
 C3515 C 0.38801 0.69847 0.31286
 C3516 C 0.38088 0.68927 0.30703
 C3517 C 0.38470 0.68492 0.29546
 C3518 C 0.39539 0.68961 0.28991
 C3519 C 0.41352 0.70343 0.29022
 C3520 C 0.42288 0.70743 0.28569
 C3521 C 0.43413 0.71227 0.28049
 C3522 C 0.44543 0.71028 0.28644
 C3523 C 0.45634 0.71523 0.28163
 C3524 C 0.45610 0.72227 0.27077
 C3525 C 0.44471 0.72412 0.26478
 C3526 C 0.43380 0.71916 0.26963
 H3527 H 0.40407 0.71016 0.31197
 H3528 H 0.38545 0.70200 0.32178
 H3529 H 0.37944 0.67794 0.29062
 H3530 H 0.39819 0.68613 0.28102
 H3531 H 0.44580 0.70494 0.29485
 H3532 H 0.46499 0.71350 0.28635
 H3533 H 0.44421 0.72961 0.25649
 H3534 H 0.42509 0.72079 0.26497
 C3535 C 0.40251 0.20174 0.79713
 C3536 C 0.39808 0.19023 0.79319
 C3537 C 0.38742 0.18518 0.79848
 C3538 C 0.38104 0.19157 0.80780
 C3539 C 0.38559 0.20317 0.81165
 C3540 C 0.39624 0.20820 0.80635
 C3541 C 0.41355 0.20690 0.79179
 C3542 C 0.42282 0.21129 0.78743
 C3543 C 0.43392 0.21660 0.78237
 C3544 C 0.44040 0.21042 0.77309
 C3545 C 0.45129 0.21551 0.76833
 C3546 C 0.45586 0.22685 0.77283
 C3547 C 0.44923 0.23301 0.78212
 C3548 C 0.43834 0.22791 0.78685
 H3549 H 0.40289 0.18514 0.78608
 H3550 H 0.38429 0.17621 0.79531
 H3551 H 0.38091 0.20843 0.81870
 H3552 H 0.39959 0.21713 0.80945
 H3553 H 0.43708 0.20164 0.76958
 H3554 H 0.45626 0.21048 0.76129
 H3555 H 0.45241 0.24183 0.78566
 H3556 H 0.43338 0.23278 0.79402
 C3557 C 0.90224 0.70120 0.79592
 C3558 C 0.89840 0.70531 0.80746
 C3559 C 0.88783 0.70028 0.81292
 C3560 C 0.88093 0.69103 0.80690
 C3561 C 0.88487 0.68700 0.79525
 C3562 C 0.89545 0.69205 0.78981
 C3563 C 0.91324 0.70628 0.79043
 C3564 C 0.92252 0.71055 0.78599
 C3565 C 0.93368 0.71567 0.78089
 C3566 C 0.94500 0.71381 0.78684
 C3567 C 0.95584 0.71896 0.78206
 C3568 C 0.95550 0.72607 0.77125
 C3569 C 0.94408 0.72781 0.76528
 C3570 C 0.93324 0.72265 0.77008
 H3571 H 0.90361 0.71237 0.81227
 H3572 H 0.88518 0.70358 0.82190
 H3573 H 0.87978 0.68000 0.79027
 H3574 H 0.89834 0.68882 0.78086
 H3575 H 0.94545 0.70840 0.79519
 H3576 H 0.96451 0.71732 0.78678
 H3577 H 0.94350 0.73335 0.75703
 H3578 H 0.92452 0.72418 0.76543
 C3579 C 0.90240 0.19994 0.29621
 C3580 C 0.89749 0.18877 0.29191
 C3581 C 0.88686 0.18378 0.29731
 C3582 C 0.88098 0.18991 0.30712
 C3583 C 0.88599 0.20119 0.31132
 C3584 C 0.89662 0.20615 0.30590
 C3585 C 0.91345 0.20498 0.29079
 C3586 C 0.92275 0.20923 0.28636
 C3587 C 0.93389 0.21436 0.28124
 C3588 C 0.94020 0.20809 0.27190
 C3589 C 0.95116 0.21299 0.26709
 C3590 C 0.95595 0.22423 0.27159
 C3591 C 0.94949 0.23050 0.28092
 C3592 C 0.93854 0.22559 0.28571
 H3593 H 0.90191 0.18388 0.28441
 H3594 H 0.88337 0.17509 0.29382
 H3595 H 0.88175 0.20625 0.31877
 H3596 H 0.90035 0.21482 0.30929
 H3597 H 0.93671 0.19937 0.26840
 H3598 H 0.95599 0.20789 0.26001
 H3599 H 0.95284 0.23926 0.28445
 H3600 H 0.93371 0.23054 0.29291
 C3601 C 0.29956 0.30028 0.59931
 C3602 C 0.31136 0.29670 0.60325
 C3603 C 0.31639 0.30178 0.61393
 C3604 C 0.30968 0.31054 0.62083
 C3605 C 0.29779 0.31403 0.61679
 C3606 C 0.29279 0.30893 0.60611
 C3607 C 0.29446 0.29517 0.58823
 C3608 C 0.29022 0.29093 0.57892
 C3609 C 0.28521 0.28593 0.56775
 C3610 C 0.29135 0.28788 0.55663
 C3611 C 0.28655 0.28298 0.54578
 C3612 C 0.27552 0.27605 0.54590
 C3613 C 0.26938 0.27418 0.55713
 C3614 C 0.27421 0.27908 0.56798
 H3615 H 0.31670 0.29002 0.59804
 H3616 H 0.32558 0.29892 0.61666
 H3617 H 0.29229 0.32065 0.62187
 H3618 H 0.28363 0.31176 0.60315
 H3619 H 0.29985 0.29321 0.55635
 H3620 H 0.29139 0.28473 0.53727
 H3621 H 0.26096 0.26875 0.55754
 H3622 H 0.26939 0.27749 0.57655
 C3623 C 0.29884 0.80037 0.09861
 C3624 C 0.30831 0.79407 0.10475
 C3625 C 0.31350 0.79907 0.11538
 C3626 C 0.30929 0.81050 0.12005
 C3627 C 0.29971 0.81674 0.11381
 C3628 C 0.29454 0.81171 0.10318
 C3629 C 0.29361 0.79525 0.08759
 C3630 C 0.28932 0.79093 0.07833
 C3631 C 0.28434 0.78572 0.06724
 C3632 C 0.28899 0.77450 0.06274
 C3633 C 0.28433 0.76950 0.05186
 C3634 C 0.27495 0.77568 0.04532
 C3635 C 0.27026 0.78692 0.04997
 C3636 C 0.27494 0.79190 0.06085
 H3637 H 0.31169 0.78527 0.10130
 H3638 H 0.32075 0.79392 0.11993
 H3639 H 0.29624 0.82556 0.11704
 H3640 H 0.28722 0.81668 0.09849
 H3641 H 0.29623 0.76961 0.06763
 H3642 H 0.28801 0.76075 0.04862
 H3643 H 0.26314 0.79196 0.04508
 H3644 H 0.27129 0.80061 0.06424
 C3645 C 0.80020 0.29798 0.09917
 C3646 C 0.80947 0.29177 0.10568
 C3647 C 0.81438 0.29699 0.11635
 C3648 C 0.81010 0.30853 0.12066
 C3649 C 0.80074 0.31468 0.11403
 C3650 C 0.79584 0.30944 0.10337
 C3651 C 0.79520 0.29263 0.08815
 C3652 C 0.79102 0.28819 0.07890
 C3653 C 0.78604 0.28297 0.06782
 C3654 C 0.79245 0.27358 0.06163
 C3655 C 0.78769 0.26867 0.05075
 C3656 C 0.77647 0.27312 0.04590
 C3657 C 0.77006 0.28251 0.05224
 C3658 C 0.77482 0.28739 0.06312
 H3659 H 0.81290 0.28288 0.10252
 H3660 H 0.82147 0.29190 0.12121
 H3661 H 0.79725 0.32360 0.11698
 H3662 H 0.78868 0.31434 0.09838
 H3663 H 0.80115 0.27011 0.06518
 H3664 H 0.79291 0.26156 0.04601
 H3665 H 0.76131 0.28600 0.04884
 H3666 H 0.76976 0.29464 0.06785
 C3667 C 0.79868 0.80088 0.59833
 C3668 C 0.80911 0.79547 0.60374
 C3669 C 0.81389 0.80029 0.61464
 C3670 C 0.80830 0.81060 0.62031
 C3671 C 0.79784 0.81600 0.61474
 C3672 C 0.79308 0.81116 0.60384
 C3673 C 0.79370 0.79582 0.58718
 C3674 C 0.78956 0.79151 0.57786
 C3675 C 0.78467 0.78628 0.56674
 C3676 C 0.78935 0.77505 0.56230
 C3677 C 0.78466 0.76996 0.55149
 C3678 C 0.77521 0.77604 0.54496
 C3679 C 0.77052 0.78732 0.54952
 C3680 C 0.77524 0.79240 0.56034
 H3681 H 0.81351 0.78749 0.59956
 H3682 H 0.82189 0.79581 0.61865
 H3683 H 0.79333 0.82399 0.61873
 H3684 H 0.78501 0.81544 0.59971
 H3685 H 0.79661 0.77022 0.56721
 H3686 H 0.78833 0.76118 0.54830
 H3687 H 0.76335 0.79229 0.54463
 H3688 H 0.77157 0.80112 0.56369
 C3689 C 0.30253 0.70327 0.40079
 C3690 C 0.29559 0.69451 0.39432
 C3691 C 0.30033 0.68916 0.38365
 C3692 C 0.31213 0.69250 0.37927
 C3693 C 0.31902 0.70137 0.38582
 C3694 C 0.31425 0.70671 0.39651
 C3695 C 0.29765 0.70860 0.41187
 C3696 C 0.29343 0.71289 0.42118
 C3697 C 0.28824 0.71778 0.43233
 C3698 C 0.27710 0.71300 0.43683
 C3699 C 0.27210 0.71755 0.44775
 C3700 C 0.27819 0.72696 0.45433
 C3701 C 0.28935 0.73177 0.44969
 C3702 C 0.29435 0.72719 0.43875
 H3703 H 0.28650 0.69179 0.39755
 H3704 H 0.29469 0.68247 0.37883
 H3705 H 0.32815 0.70413 0.38281
 H3706 H 0.31972 0.71347 0.40146
 H3707 H 0.27228 0.70574 0.43191
 H3708 H 0.26340 0.71379 0.45100
 H3709 H 0.29432 0.73892 0.45461
 H3710 H 0.30300 0.73094 0.43536
 C3711 C 0.30185 0.20179 0.90114
 C3712 C 0.29782 0.19019 0.89704
 C3713 C 0.30273 0.18506 0.88633
 C3714 C 0.31178 0.19147 0.87954
 C3715 C 0.31576 0.20314 0.88376
 C3716 C 0.31082 0.20825 0.89447
 C3717 C 0.29681 0.20702 0.91220
 C3718 C 0.29256 0.21133 0.92149
 C3719 C 0.28744 0.21637 0.93260
 C3720 C 0.27627 0.21174 0.93721
 C3721 C 0.27134 0.21650 0.94808
 C3722 C 0.27753 0.22596 0.95450
 C3723 C 0.28872 0.23060 0.94975
 C3724 C 0.29364 0.22582 0.93888
 H3725 H 0.29089 0.18509 0.90215
 H3726 H 0.29949 0.17603 0.88347
 H3727 H 0.32262 0.20842 0.87877
 H3728 H 0.31400 0.21725 0.89755
 H3729 H 0.27138 0.20445 0.93241
 H3730 H 0.26262 0.21287 0.95140
 H3731 H 0.29377 0.23778 0.95455
 H3732 H 0.30231 0.22944 0.93541
 C3733 C 0.80199 0.70180 0.90041
 C3734 C 0.79530 0.69286 0.89392
 C3735 C 0.80019 0.68769 0.88322
 C3736 C 0.81187 0.69141 0.87882
 C3737 C 0.81851 0.70043 0.88543
 C3738 C 0.81360 0.70558 0.89614
 C3739 C 0.79698 0.70700 0.91150
 C3740 C 0.79273 0.71126 0.92081
 C3741 C 0.78760 0.71620 0.93197
 C3742 C 0.77650 0.71144 0.93659
 C3743 C 0.77156 0.71609 0.94750
 C3744 C 0.77768 0.72557 0.95395
 C3745 C 0.78881 0.73035 0.94919
 C3746 C 0.79374 0.72567 0.93827
 H3747 H 0.78630 0.68986 0.89715
 H3748 H 0.79475 0.68084 0.87838
 H3749 H 0.82756 0.70346 0.88244
 H3750 H 0.81888 0.71247 0.90112
 H3751 H 0.77166 0.70412 0.93177
 H3752 H 0.76290 0.71234 0.95084
 H3753 H 0.79381 0.73754 0.95402
 H3754 H 0.80237 0.72939 0.93479
 C3755 C 0.80216 0.20019 0.40104
 C3756 C 0.81300 0.20509 0.39599
 C3757 C 0.81815 0.19980 0.38546
 C3758 C 0.81252 0.18951 0.37981
 C3759 C 0.80159 0.18468 0.38497
 C3760 C 0.79645 0.18999 0.39550
 C3761 C 0.79695 0.20555 0.41197
 C3762 C 0.79260 0.20997 0.42116
 C3763 C 0.78741 0.21514 0.43218
 C3764 C 0.79363 0.22457 0.43846
 C3765 C 0.78867 0.22943 0.44929
 C3766 C 0.77741 0.22489 0.45397
 C3767 C 0.77119 0.21546 0.44753
 C3768 C 0.77617 0.21063 0.43672
 H3769 H 0.81751 0.21297 0.40022
 H3770 H 0.82660 0.20375 0.38186
 H3771 H 0.79691 0.17685 0.38087
 H3772 H 0.78804 0.18613 0.39933
 H3773 H 0.80236 0.22810 0.43505
 H3774 H 0.79374 0.23658 0.45411
 H3775 H 0.76243 0.21190 0.45081
 H3776 H 0.77125 0.20335 0.43191
 C3777 C 0.70065 0.29695 0.40169
 C3778 C 0.68978 0.29186 0.39690
 C3779 C 0.68430 0.29705 0.38649
 C3780 C 0.68961 0.30743 0.38071
 C3781 C 0.70058 0.31245 0.38560
 C3782 C 0.70605 0.30724 0.39601
 C3783 C 0.70619 0.29167 0.41249
 C3784 C 0.71078 0.28728 0.42158
 C3785 C 0.71619 0.28210 0.43248
 C3786 C 0.71013 0.27258 0.43880
 C3787 C 0.71528 0.26768 0.44951
 C3788 C 0.72658 0.27226 0.45405
 C3789 C 0.73264 0.28178 0.44759
 C3790 C 0.72747 0.28665 0.43688
 H3791 H 0.68550 0.28391 0.40124
 H3792 H 0.67583 0.29296 0.38310
 H3793 H 0.70502 0.32036 0.38139
 H3794 H 0.71448 0.31124 0.39964
 H3795 H 0.70137 0.26901 0.43549
 H3796 H 0.71032 0.26047 0.45435
 H3797 H 0.74142 0.28538 0.45076
 H3798 H 0.73226 0.29400 0.43204
 C3799 C 0.70058 0.79610 0.90172
 C3800 C 0.68916 0.79194 0.89731
 C3801 C 0.68397 0.79730 0.88684
 C3802 C 0.69015 0.80693 0.88062
 C3803 C 0.70166 0.81100 0.88514
 C3804 C 0.70682 0.80562 0.89561
 C3805 C 0.70586 0.79069 0.91258
 C3806 C 0.71034 0.78629 0.92171
 C3807 C 0.71575 0.78119 0.93265
 C3808 C 0.70979 0.77162 0.93898
 C3809 C 0.71496 0.76684 0.94973
 C3810 C 0.72617 0.77160 0.95430
 C3811 C 0.73214 0.78116 0.94781
 C3812 C 0.72695 0.78592 0.93707
 H3813 H 0.68424 0.78458 0.90199
 H3814 H 0.67509 0.79394 0.88373
 H3815 H 0.70675 0.81831 0.88061
 H3816 H 0.71567 0.80891 0.89895
 H3817 H 0.70109 0.76792 0.93565
 H3818 H 0.71008 0.75958 0.95459
 H3819 H 0.74086 0.78490 0.95100
 H3820 H 0.73167 0.79330 0.93222
 C3821 C 0.20052 0.29653 0.90189
 C3822 C 0.18891 0.29261 0.89776
 C3823 C 0.18369 0.29791 0.88727
 C3824 C 0.19002 0.30723 0.88075
 C3825 C 0.20173 0.31105 0.88498
 C3826 C 0.20692 0.30573 0.89547
 C3827 C 0.20583 0.29121 0.91278
 C3828 C 0.21033 0.28688 0.92193
 C3829 C 0.21577 0.28186 0.93289
 C3830 C 0.20973 0.27247 0.93940
 C3831 C 0.21493 0.26776 0.95017
 C3832 C 0.22625 0.27243 0.95458
 C3833 C 0.23228 0.28182 0.94792
 C3834 C 0.22707 0.28650 0.93715
 H3835 H 0.18386 0.28551 0.90268
 H3836 H 0.17465 0.29477 0.88438
 H3837 H 0.20695 0.31810 0.88020
 H3838 H 0.21593 0.30883 0.89858
 H3839 H 0.20096 0.26884 0.93620
 H3840 H 0.21000 0.26064 0.95517
 H3841 H 0.24109 0.28548 0.95098
 H3842 H 0.23184 0.29375 0.93217
 C3843 C 0.20020 0.79665 0.40212
 C3844 C 0.18888 0.79219 0.39776
 C3845 C 0.18358 0.79731 0.38722
 C3846 C 0.18955 0.80699 0.38087
 C3847 C 0.20096 0.81137 0.38536
 C3848 C 0.20623 0.80624 0.39590
 C3849 C 0.20561 0.79145 0.41302
 C3850 C 0.21016 0.78716 0.42218
 C3851 C 0.21562 0.78215 0.43314
 C3852 C 0.20976 0.77252 0.43947
 C3853 C 0.21501 0.76778 0.45021
 C3854 C 0.22618 0.77264 0.45477
 C3855 C 0.23203 0.78228 0.44829
 C3856 C 0.22678 0.78700 0.43755
 H3857 H 0.18412 0.78478 0.40252
 H3858 H 0.17478 0.79370 0.38415
 H3859 H 0.20589 0.81873 0.38074
 H3860 H 0.21501 0.80976 0.39920
 H3861 H 0.20111 0.76873 0.43615
 H3862 H 0.21021 0.76047 0.45507
 H3863 H 0.24072 0.78610 0.45146
 H3864 H 0.23141 0.79443 0.43270
 C3865 C 0.70354 0.70065 0.59847
 C3866 C 0.69290 0.70617 0.60333
 C3867 C 0.68737 0.70130 0.61387
 C3868 C 0.69242 0.69080 0.61971
 C3869 C 0.70315 0.68534 0.61472
 C3870 C 0.70866 0.69024 0.60418
 C3871 C 0.70912 0.70565 0.58756
 C3872 C 0.71365 0.70991 0.57839
 C3873 C 0.71886 0.71508 0.56738
 C3874 C 0.71433 0.72632 0.56281
 C3875 C 0.71915 0.73126 0.55198
 C3876 C 0.72857 0.72500 0.54556
 C3877 C 0.73315 0.71376 0.55029
 C3878 C 0.72830 0.70883 0.56113
 H3879 H 0.68885 0.71423 0.59897
 H3880 H 0.67915 0.70580 0.61735
 H3881 H 0.70736 0.67729 0.61890
 H3882 H 0.71690 0.68588 0.60048
 H3883 H 0.70705 0.73125 0.56760
 H3884 H 0.71556 0.74002 0.54866
 H3885 H 0.74030 0.70866 0.54548
 H3886 H 0.73185 0.70010 0.56457
 C3887 C 0.70151 0.20074 0.09823
 C3888 C 0.69108 0.20624 0.10354
 C3889 C 0.68584 0.20117 0.11412
 C3890 C 0.69096 0.19049 0.11957
 C3891 C 0.70149 0.18505 0.11414
 C3892 C 0.70670 0.19015 0.10355
 C3893 C 0.70682 0.20594 0.08729
 C3894 C 0.71123 0.21030 0.07810
 C3895 C 0.71647 0.21545 0.06710
 C3896 C 0.71024 0.22487 0.06078
 C3897 C 0.71526 0.22977 0.05001
 C3898 C 0.72659 0.22529 0.04542
 C3899 C 0.73281 0.21586 0.05188
 C3900 C 0.72777 0.21098 0.06264
 H3901 H 0.68698 0.21444 0.09949
 H3902 H 0.67779 0.20567 0.11796
 H3903 H 0.70573 0.17685 0.11799
 H3904 H 0.71478 0.18581 0.09950
 H3905 H 0.70146 0.22837 0.06414
 H3906 H 0.71019 0.23691 0.04517
 H3907 H 0.74162 0.21234 0.04867
 H3908 H 0.73269 0.20372 0.06748
 C3909 C 0.20292 0.70088 0.09757
 C3910 C 0.19117 0.70479 0.10132
 C3911 C 0.18583 0.69988 0.11193
 C3912 C 0.19217 0.69095 0.11894
 C3913 C 0.20403 0.68713 0.11509
 C3914 C 0.20935 0.69206 0.10448
 C3915 C 0.20833 0.70581 0.08655
 C3916 C 0.21279 0.70991 0.07728
 C3917 C 0.21801 0.71480 0.06615
 C3918 C 0.21199 0.71283 0.05497
 C3919 C 0.21693 0.71769 0.04416
 C3920 C 0.22798 0.72459 0.04439
 C3921 C 0.23401 0.72644 0.05566
 C3922 C 0.22904 0.72158 0.06648
 H3923 H 0.18610 0.71160 0.09601
 H3924 H 0.17667 0.70301 0.11451
 H3925 H 0.20926 0.68037 0.12027
 H3926 H 0.21847 0.68898 0.10167
 H3927 H 0.20347 0.70756 0.05462
 H3928 H 0.21217 0.71596 0.03560
 H3929 H 0.24245 0.73184 0.05615
 H3930 H 0.23376 0.72318 0.07509
 C3931 C 0.20340 0.20070 0.59947
 C3932 C 0.19432 0.20746 0.60571
 C3933 C 0.18877 0.20256 0.61622
 C3934 C 0.19223 0.19080 0.62065
 C3935 C 0.20142 0.18409 0.61431
 C3936 C 0.20694 0.18901 0.60379
 C3937 C 0.20896 0.20572 0.58856
 C3938 C 0.21349 0.20999 0.57939
 C3939 C 0.21870 0.21518 0.56839
 C3940 C 0.21418 0.22644 0.56384
 C3941 C 0.21900 0.23140 0.55301
 C3942 C 0.22841 0.22515 0.54657
 C3943 C 0.23297 0.21388 0.55127
 C3944 C 0.22814 0.20894 0.56211
 H3945 H 0.19151 0.21652 0.60245
 H3946 H 0.18184 0.20806 0.62088
 H3947 H 0.20428 0.17499 0.61736
 H3948 H 0.21394 0.18368 0.59901
 H3949 H 0.20691 0.23137 0.56864
 H3950 H 0.21543 0.24017 0.54973
 H3951 H 0.24011 0.20879 0.54645
 H3952 H 0.23168 0.20020 0.56554
   
