data_POSCAR
  _audit_creation_date              2014-09-24
  _audit_creation_method            'ToBaCCo'
  _symmetry_space_group_name_H-M    'P1'
  _symmetry_Int_Tables_number       1
  _symmetry_cell_setting            triclinic
  loop_
  _symmetry_equiv_pos_as_xyz
 x,y,z
_cell_length_a 87.4204
_cell_length_b 88.2132
_cell_length_c 86.7217
_cell_angle_alpha 90.251400
_cell_angle_beta 90.051600
_cell_angle_gamma 90.070000
loop_
  _atom_site_label
  _atom_site_type_symbol
  _atom_site_fract_x
  _atom_site_fract_y
  _atom_site_fract_z
C1 C 0.31081 0.43449 0.91954
 C2 C 0.30467 0.42151 0.92653
 C3 C 0.31152 0.41535 0.93972
 C4 C 0.32449 0.42243 0.94605
 C5 C 0.33089 0.43555 0.93937
 C6 C 0.32374 0.44148 0.92610
 H7 H 0.29491 0.41585 0.92135
 H8 H 0.32911 0.41793 0.95666
 H9 H 0.32850 0.45125 0.92033
 C10 C 0.43675 0.83576 0.43313
 C11 C 0.42471 0.82833 0.44096
 C12 C 0.41781 0.81522 0.43486
 C13 C 0.42302 0.80932 0.42081
 C14 C 0.43488 0.81639 0.41271
 C15 C 0.44168 0.82952 0.41891
 H16 H 0.42015 0.83293 0.45157
 H17 H 0.41769 0.79923 0.41607
 H18 H 0.45107 0.83457 0.41267
 C19 C 0.94588 0.91912 0.80819
 C20 C 0.93306 0.92586 0.80137
 C21 C 0.92638 0.93886 0.80784
 C22 C 0.93270 0.94512 0.82137
 C23 C 0.94565 0.93860 0.82852
 C24 C 0.95212 0.92557 0.82161
 H25 H 0.92815 0.92084 0.79107
 H26 H 0.92779 0.95549 0.82584
 H27 H 0.96143 0.91966 0.82718
 C28 C 0.44326 -0.07914 0.30859
 C29 C 0.42983 -0.07286 0.30243
 C30 C 0.42275 -0.06034 0.30953
 C31 C 0.42933 -0.05410 0.32295
 C32 C 0.44280 -0.06023 0.32922
 C33 C 0.44963 -0.07274 0.32196
 H34 H 0.42478 -0.07785 0.29219
 H35 H 0.42412 -0.04431 0.32838
 H36 H 0.45966 -0.07789 0.32708
 C37 C 0.80724 0.31600 0.32999
 C38 C 0.80088 0.32902 0.32327
 C39 C 0.80754 0.33561 0.31018
 C40 C 0.82066 0.32898 0.30376
 C41 C 0.82726 0.31603 0.31034
 C42 C 0.82042 0.30954 0.32340
 H43 H 0.79085 0.33420 0.32838
 H44 H 0.82592 0.33409 0.29373
 H45 H 0.82549 0.29959 0.32857
 C46 C -0.18885 0.83122 0.80922
 C47 C -0.19479 0.82350 0.82209
 C48 C -0.18804 0.81017 0.82762
 C49 C -0.17522 0.80419 0.82002
 C50 C -0.16900 0.81164 0.80720
 C51 C -0.17594 0.82497 0.80180
 H52 H -0.20515 0.82744 0.82761
 H53 H -0.16973 0.79410 0.82447
 H54 H -0.17073 0.83073 0.79216
 C55 C 0.94668 0.31823 0.44458
 C56 C 0.93397 0.31155 0.45203
 C57 C 0.92602 0.29932 0.44536
 C58 C 0.93081 0.29360 0.43107
 C59 C 0.94328 0.30001 0.42333
 C60 C 0.95122 0.31214 0.43018
 H61 H 0.93046 0.31539 0.46335
 H62 H 0.92460 0.28430 0.42580
 H63 H 0.96025 0.31745 0.42361
 C64 C 0.44547 0.44432 0.82503
 C65 C 0.45215 0.43151 0.81816
 C66 C 0.44629 0.42547 0.80438
 C67 C 0.43371 0.43251 0.79734
 C68 C 0.42695 0.44541 0.80399
 C69 C 0.43298 0.45130 0.81779
 H70 H 0.46168 0.42598 0.82379
 H71 H 0.42919 0.42794 0.78665
 H72 H 0.42744 0.46086 0.82332
 C73 C 0.80820 0.91635 0.94110
 C74 C 0.80238 0.92364 0.92787
 C75 C 0.80946 0.93664 0.92182
 C76 C 0.82263 0.94240 0.92901
 C77 C 0.82875 0.93532 0.94206
 C78 C 0.82140 0.92251 0.94811
 H79 H 0.79213 0.91945 0.92230
 H80 H 0.82826 0.95231 0.92432
 H81 H 0.82656 0.91702 0.95795
 C82 C 0.31174 0.83528 0.30830
 C83 C 0.30417 0.82860 0.32097
 C84 C 0.30948 0.81510 0.32765
 C85 C 0.32253 0.80805 0.32150
 C86 C 0.33029 0.81435 0.30890
 C87 C 0.32481 0.82786 0.30239
 H88 H 0.29466 0.83433 0.32641
 H89 H 0.32673 0.79769 0.32664
 H90 H 0.33046 0.83210 0.29219
 C91 C 0.80604 0.42677 0.45136
 C92 C 0.79939 0.43398 0.43867
 C93 C 0.80632 0.44670 0.43204
 C94 C 0.82000 0.45236 0.43838
 C95 C 0.82706 0.44527 0.45111
 C96 C 0.81971 0.43251 0.45756
 H97 H 0.78917 0.42923 0.43345
 H98 H 0.82542 0.46186 0.43274
 H99 H 0.82428 0.42718 0.46778
 C100 C 0.93567 0.82980 -0.06435
 C101 C 0.92287 0.82350 -0.05671
 C102 C 0.91558 0.81036 -0.06230
 C103 C 0.92123 0.80327 -0.07561
 C104 C 0.93394 0.80913 -0.08341
 C105 C 0.94106 0.82232 -0.07773
 H106 H 0.91807 0.82904 -0.04667
 H107 H 0.91537 0.79342 -0.08024
 H108 H 0.95130 0.82622 -0.08348
 C109 C 0.30897 0.33066 0.80779
 C110 C 0.32187 0.32488 0.80013
 C111 C 0.32906 0.31158 0.80527
 C112 C 0.32307 0.30397 0.81814
 C113 C 0.31015 0.30957 0.82592
 C114 C 0.30315 0.32288 0.82060
 H115 H 0.32670 0.33108 0.79055
 H116 H 0.32861 0.29378 0.82224
 H117 H 0.29302 0.32712 0.82635
 C118 C 0.17197 0.56380 0.55814
 C119 C 0.17807 0.57693 0.55136
 C120 C 0.19117 0.58396 0.55750
 C121 C 0.19827 0.57762 0.57050
 C122 C 0.19236 0.56450 0.57742
 C123 C 0.17924 0.55765 0.57114
 H124 H 0.17249 0.58180 0.54139
 H125 H 0.20831 0.58304 0.57535
 H126 H 0.17455 0.54761 0.57651
 C127 C 0.57045 0.69077 0.04753
 C128 C 0.56330 0.67779 0.04143
 C129 C 0.55000 0.67188 0.04821
 C130 C 0.54371 0.67924 0.06110
 C131 C 0.55065 0.69223 0.06737
 C132 C 0.56401 0.69795 0.06050
 H133 H 0.56830 0.67205 0.03160
 H134 H 0.53380 0.67439 0.06674
 H135 H 0.56936 0.70804 0.06521
 C136 C 0.69287 0.18945 0.67430
 C137 C 0.68042 0.19713 0.68079
 C138 C 0.67364 0.19200 0.69443
 C139 C 0.67954 0.17907 0.70171
 C140 C 0.69208 0.17103 0.69547
 C141 C 0.69867 0.17655 0.68170
 H142 H 0.67581 0.20701 0.67504
 H143 H 0.67431 0.17549 0.71239
 H144 H 0.70795 0.17053 0.67619
 C145 C 1.07628 0.05686 0.19580
 C146 C 1.06871 0.04984 0.18339
 C147 C 1.05495 0.05575 0.17735
 C148 C 1.04885 0.06891 0.18437
 C149 C 1.05636 0.07616 0.19670
 C150 C 1.07001 0.07000 0.20239
 H151 H 1.07361 0.03959 0.17863
 H152 H 1.03858 0.07409 0.17987
 H153 H 1.07591 0.07559 0.21182
 C154 C 0.05830 0.16893 1.05698
 C155 C 0.07109 0.17570 1.05014
 C156 C 0.07673 0.18959 1.05552
 C157 C 0.06933 0.19687 1.06783
 C158 C 0.05641 0.19037 1.07506
 C159 C 0.05090 0.17638 1.06925
 H160 H 0.07665 0.17016 1.04049
 H161 H 0.07371 0.20775 1.07156
 H162 H 0.04152 0.17060 1.07485
 C163 C 0.17205 0.69040 0.68840
 C164 C 0.17780 0.67763 0.69607
 C165 C 0.19116 0.67038 0.69090
 C166 C 0.19889 0.67619 0.67798
 C167 C 0.19332 0.68901 0.67022
 C168 C 0.17990 0.69602 0.67554
 H169 H 0.17173 0.67322 0.70597
 H170 H 0.20915 0.67062 0.67386
 H171 H 0.17543 0.70580 0.66952
 C172 C 1.18662 0.17146 0.19042
 C173 C 1.19328 0.17762 0.17708
 C174 C 1.18684 0.19037 0.16990
 C175 C 1.17362 0.19696 0.17623
 C176 C 1.16684 0.19099 0.18955
 C177 C 1.17346 0.17829 0.19660
 H178 H 1.20339 0.17238 0.17219
 H179 H 1.16849 0.20668 0.17068
 H180 H 1.16822 0.17358 0.20683
 C181 C 0.67213 1.06233 0.55916
 C182 C 0.67973 1.05489 0.57136
 C183 C 0.69284 1.06117 0.57823
 C184 C 0.69849 1.07505 0.57291
 C185 C 0.69139 1.08284 0.56071
 C186 C 0.67831 1.07621 0.55387
 H187 H 0.67524 1.04446 0.57605
 H188 H 0.70874 1.07954 0.57822
 H189 H 0.67283 1.08200 0.54445
 C190 C 0.56069 0.55844 0.17465
 C191 C 0.57333 0.55258 0.18267
 C192 C 0.57846 0.55935 0.19641
 C193 C 0.57069 0.57205 0.20224
 C194 C 0.55796 0.57804 0.19448
 C195 C 0.55302 0.57115 0.18069
 H196 H 0.57935 0.54282 0.17808
 H197 H 0.57471 0.57741 0.21275
 H198 H 0.54331 0.57580 0.17456
 C199 C 0.67405 0.69519 0.19070
 C200 C 0.68155 0.68346 0.19863
 C201 C 0.69474 0.67664 0.19244
 C202 C 0.70031 0.68164 0.17816
 C203 C 0.69293 0.69325 0.17005
 C204 C 0.67988 0.70004 0.17646
 H205 H 0.67722 0.67977 0.20969
 H206 H 0.71033 0.67630 0.17320
 H207 H 0.67388 0.70870 0.17002
 C208 C 0.17032 0.05870 1.05880
 C209 C 0.17769 0.07152 1.05244
 C210 C 0.19107 0.07759 1.05904
 C211 C 0.19722 0.07076 1.07223
 C212 C 0.19023 0.05804 1.07885
 C213 C 0.17692 0.05205 1.07204
 H214 H 0.17353 0.07651 1.04187
 H215 H 0.20744 0.07545 1.07747
 H216 H 0.17126 0.04277 1.07782
 C217 C 0.57458 0.19540 0.54924
 C218 C 0.56733 0.20320 0.56136
 C219 C 0.55359 0.19772 0.56770
 C220 C 0.54709 0.18440 0.56167
 C221 C 0.55417 0.17649 0.54958
 C222 C 0.56781 0.18215 0.54333
 H223 H 0.57257 0.21332 0.56613
 H224 H 0.53692 0.17971 0.56695
 H225 H 0.57319 0.17617 0.53384
 C226 C 0.07537 0.55175 0.70170
 C227 C 0.06859 0.54516 0.68861
 C228 C 0.05561 0.55167 0.68178
 C229 C 0.04925 0.56480 0.68836
 C230 C 0.05589 0.57155 0.70147
 C231 C 0.06888 0.56488 0.70811
 H232 H 0.07367 0.53515 0.68346
 H233 H 0.03936 0.57000 0.68304
 H234 H 0.07421 0.57016 0.71806
 C235 C 0.67151 0.55636 0.06175
 C236 C 0.67812 0.56947 0.05543
 C237 C 0.69023 0.57694 0.06300
 C238 C 0.69570 0.57112 0.07703
 C239 C 0.68909 0.55814 0.08356
 C240 C 0.67709 0.55080 0.07580
 H241 H 0.67396 0.57375 0.04452
 H242 H 0.70468 0.57705 0.08321
 H243 H 0.67190 0.54084 0.08086
 C244 C 0.06208 0.68142 0.57693
 C245 C 0.05647 0.66778 0.57064
 C246 C 0.06396 0.66065 0.55828
 C247 C 0.07722 0.66728 0.55219
 C248 C 0.08310 0.68084 0.55834
 C249 C 0.07540 0.68790 0.57065
 H250 H 0.04633 0.66260 0.57550
 H251 H 0.08311 0.66176 0.54272
 H252 H 0.07989 0.69836 0.57545
 C253 C 0.56542 1.06114 0.67317
 C254 C 0.57803 1.05496 0.68116
 C255 C 0.58390 1.06180 0.69456
 C256 C 0.57688 1.07488 0.70037
 C257 C 0.56420 1.08125 0.69290
 C258 C 0.55853 1.07433 0.67939
 H259 H 0.58310 1.04439 0.67742
 H260 H 0.58167 1.08048 0.71041
 H261 H 0.54908 1.07971 0.67353
 C262 C 0.44089 0.32654 0.93857
 C263 C 0.44622 0.32021 0.92453
 C264 C 0.43887 0.30772 0.91765
 C265 C 0.42624 0.30121 0.92500
 C266 C 0.42073 0.30709 0.93895
 C267 C 0.42801 0.31973 0.94560
 H268 H 0.45549 0.32549 0.91828
 H269 H 0.42054 0.29158 0.91973
 H270 H 0.42393 0.32369 0.95667
 C271 C 0.94202 0.43863 0.33175
 C272 C 0.92918 0.44601 0.32565
 C273 C 0.92177 0.44046 0.31241
 C274 C 0.92738 0.42725 0.30523
 C275 C 0.94031 0.41974 0.31111
 C276 C 0.94753 0.42553 0.32439
 H277 H 0.92457 0.45582 0.33159
 H278 H 0.92186 0.42300 0.29488
 H279 H 0.95739 0.41973 0.32911
 C280 C 0.30927 0.94704 0.42626
 C281 C 0.30099 0.93487 0.43279
 C282 C 0.30606 0.92768 0.44629
 C283 C 0.31948 0.93277 0.45350
 C284 C 0.32789 0.94483 0.44736
 C285 C 0.32273 0.95190 0.43387
 H286 H 0.29089 0.93044 0.42714
 H287 H 0.32353 0.92717 0.46381
 H288 H 0.32923 0.96141 0.42955
 O289 O 0.21361 0.52208 0.75159
 O290 O 0.22147 0.52099 0.77780
 O291 O 0.25305 0.54219 0.73000
 O292 O 0.27779 0.53693 0.72741
 O293 O 0.23086 0.50346 0.70940
 O294 O 0.23140 0.47698 0.71457
 O295 O 0.29486 0.49864 0.76552
 O296 O 0.29139 0.52514 0.76377
 O297 O 0.25713 0.48142 0.78852
 O298 O 0.22933 0.48348 0.78543
 O299 O 0.27180 0.46129 0.74774
 O300 O 0.26875 0.46697 0.72021
 O301 O 0.29281 0.48084 0.74662
 O302 O 0.28506 0.48304 0.71892
 O303 O 0.25492 0.46154 0.76761
 O304 O 0.22693 0.46827 0.76827
 O305 O 0.27619 0.49889 0.78749
 O306 O 0.27492 0.52646 0.78294
 O307 O 0.21135 0.50409 0.73287
 O308 O 0.21622 0.47715 0.73327
 O309 O 0.24973 0.52115 0.70811
 O310 O 0.27756 0.51742 0.71186
 O311 O 0.23573 0.54268 0.74953
 O312 O 0.23940 0.53679 0.77658
 Zr313 Zr 0.23654 0.52060 0.75877
 O314 O 0.25043 0.50640 0.77231
 Zr315 Zr 0.26103 0.51975 0.72955
 O316 O 0.27628 0.50592 0.74201
 Zr317 Zr 0.23319 0.49416 0.73155
 O318 O 0.24726 0.47896 0.74366
 Zr319 Zr 0.27338 0.50925 0.76583
 O320 O 0.25965 0.52472 0.75334
 Zr321 Zr 0.24561 0.48355 0.76737
 O322 O 0.23022 0.49775 0.75536
 Zr323 Zr 0.27033 0.48311 0.73828
 O324 O 0.25605 0.49693 0.72452
 O325 O 0.23813 0.51692 0.73516
 O326 O 0.26865 0.48639 0.76201
 C327 C 0.20585 0.51472 0.74141
 C328 C 0.24306 0.54900 0.73840
 C329 C 0.23831 0.51388 0.70230
 C330 C 0.30028 0.48772 0.75734
 C331 C 0.26884 0.48819 0.79428
 C332 C 0.26506 0.45498 0.75919
 H333 H 0.24877 0.50874 0.78333
 H334 H 0.24421 0.46845 0.74115
 H335 H 0.23130 0.52370 0.72926
 H336 H 0.28693 0.50811 0.73889
 H337 H 0.28693 0.53436 0.75910
 H338 H 0.28688 0.53362 0.73329
 H339 H 0.22782 0.46122 0.75942
 H340 H 0.21192 0.47794 0.74380
 H341 H 0.26631 0.52521 0.79020
 H342 H 0.24953 0.54154 0.77496
 H343 H 0.25925 0.46107 0.72176
 H344 H 0.24126 0.47688 0.70896
 H345 H 0.21650 0.51090 0.77810
 H346 H 0.23105 0.49266 0.79179
 H347 H 0.27480 0.50825 0.70584
 H348 H 0.29247 0.49143 0.72022
 O349 O 0.21224 0.02678 0.25171
 O350 O 0.21721 0.02605 0.27864
 O351 O 0.25363 0.04623 0.23392
 O352 O 0.27862 0.04089 0.23446
 O353 O 0.23345 0.00748 0.21197
 O354 O 0.23348 -0.01897 0.21746
 O355 O 0.29126 0.00320 0.27487
 O356 O 0.28826 0.02957 0.27224
 O357 O 0.25110 -0.01344 0.29378
 O358 O 0.22373 -0.01124 0.28749
 O359 O 0.26990 -0.03451 0.25523
 O360 O 0.27015 -0.02931 0.22759
 O361 O 0.29114 -0.01510 0.25637
 O362 O 0.28645 -0.01309 0.22769
 O363 O 0.25117 -0.03361 0.27333
 O364 O 0.22335 -0.02699 0.27064
 O365 O 0.27034 0.00387 0.29458
 O366 O 0.26968 0.03149 0.28930
 O367 O 0.21168 0.00847 0.23318
 O368 O 0.21642 -0.01858 0.23459
 O369 O 0.25267 0.02486 0.21236
 O370 O 0.27993 0.02103 0.21916
 O371 O 0.23455 0.04712 0.25170
 O372 O 0.23529 0.04172 0.27909
 Zr373 Zr 0.23422 0.02524 0.26135
 O374 O 0.24644 0.01123 0.27657
 Zr375 Zr 0.26164 0.02378 0.23493
 O376 O 0.27538 0.01009 0.24926
 Zr377 Zr 0.23352 -0.00162 0.23434
 O378 O 0.24616 -0.01667 0.24818
 Zr379 Zr 0.26996 0.01388 0.27256
 O380 O 0.25779 0.02918 0.25835
 Zr381 Zr 0.24199 -0.01165 0.27148
 O382 O 0.22807 0.00240 0.25763
 Zr383 Zr 0.26974 -0.01278 0.24535
 O384 O 0.25707 0.00087 0.22984
 O385 O 0.23826 0.02115 0.23813
 O386 O 0.26549 -0.00902 0.26866
 C387 C 0.20547 0.01934 0.24090
 C388 C 0.24286 0.05319 0.24115
 C389 C 0.24170 0.01773 0.20554
 C390 C 0.29745 -0.00799 0.26770
 C391 C 0.26219 -0.00666 0.30068
 C392 C 0.26202 -0.04045 0.26615
 H393 H 0.24362 0.01377 0.28730
 H394 H 0.24333 -0.02722 0.24555
 H395 H 0.23213 0.02785 0.23142
 H396 H 0.28632 0.01217 0.24730
 H397 H 0.28448 0.03870 0.26684
 H398 H 0.28710 0.03751 0.24117
 H399 H 0.22514 -0.03415 0.26202
 H400 H 0.21099 -0.01754 0.24455
 H401 H 0.26051 0.03021 0.29583
 H402 H 0.24555 0.04645 0.27844
 H403 H 0.26026 -0.03476 0.22782
 H404 H 0.24387 -0.01912 0.21294
 H405 H 0.21210 0.01603 0.27852
 H406 H 0.22497 -0.00211 0.29403
 H407 H 0.27778 0.01174 0.21310
 H408 H 0.29395 -0.00497 0.22993
 O409 O 0.53823 0.73059 0.24429
 O410 O 0.53153 0.73163 0.27082
 O411 O 0.49789 0.71126 0.22382
 O412 O 0.47320 0.71672 0.22213
 O413 O 0.51965 0.75012 0.20322
 O414 O 0.51992 0.77636 0.20893
 O415 O 0.45803 0.75505 0.26210
 O416 O 0.46089 0.72856 0.25953
 O417 O 0.49712 0.77122 0.28375
 O418 O 0.52433 0.76965 0.27937
 O419 O 0.48063 0.79210 0.24354
 O420 O 0.48229 0.78656 0.21599
 O421 O 0.45950 0.77303 0.24350
 O422 O 0.46594 0.77037 0.21511
 O423 O 0.49780 0.79146 0.26318
 O424 O 0.52615 0.78470 0.26204
 O425 O 0.47746 0.75437 0.28302
 O426 O 0.47846 0.72658 0.27780
 O427 O 0.54009 0.74867 0.22579
 O428 O 0.53553 0.77588 0.22731
 O429 O 0.50055 0.73263 0.20219
 O430 O 0.47280 0.73652 0.20727
 O431 O 0.51577 0.71040 0.24285
 O432 O 0.51328 0.71620 0.27015
 Zr433 Zr 0.51567 0.73242 0.25243
 O434 O 0.50252 0.74668 0.26672
 Zr435 Zr 0.49011 0.73377 0.22413
 O436 O 0.47545 0.74756 0.23747
 Zr437 Zr 0.51835 0.75905 0.22563
 O438 O 0.50478 0.77428 0.23841
 Zr439 Zr 0.47929 0.74407 0.26111
 O440 O 0.49233 0.72858 0.24778
 Zr441 Zr 0.50736 0.76953 0.26195
 O442 O 0.52216 0.75521 0.24924
 Zr443 Zr 0.48147 0.77032 0.23386
 O444 O 0.49519 0.75658 0.21936
 O445 O 0.51324 0.73631 0.22897
 O446 O 0.48412 0.76688 0.25744
 C447 C 0.54571 0.73783 0.23390
 C448 C 0.50804 0.70427 0.23182
 C449 C 0.51179 0.73993 0.19613
 C450 C 0.45247 0.76626 0.25453
 C451 C 0.48548 0.76466 0.28980
 C452 C 0.48750 0.79816 0.25510
 H453 H 0.50463 0.74422 0.27761
 H454 H 0.50779 0.78480 0.23595
 H455 H 0.51972 0.72951 0.22265
 H456 H 0.46465 0.74551 0.23478
 H457 H 0.46495 0.71932 0.25447
 H458 H 0.46451 0.71983 0.22870
 H459 H 0.52447 0.79226 0.25382
 H460 H 0.54040 0.77464 0.23754
 H461 H 0.48704 0.72806 0.28510
 H462 H 0.50310 0.71148 0.26876
 H463 H 0.49202 0.79222 0.21706
 H464 H 0.50980 0.77685 0.20382
 H465 H 0.53685 0.74154 0.27093
 H466 H 0.52351 0.75997 0.28502
 H467 H 0.47548 0.74564 0.20122
 H468 H 0.45804 0.76259 0.21709
 O469 O 0.00069 0.70692 0.72773
 O470 O -0.02579 0.71252 0.72740
 O471 O 0.01987 0.74642 0.70607
 O472 O 0.02030 0.77128 0.71015
 O473 O 0.04029 0.72826 0.74719
 O474 O 0.03416 0.72964 0.77376
 O475 O -0.02057 0.78702 0.74685
 O476 O -0.01766 0.78240 0.72033
 O477 O -0.04085 0.74854 0.76549
 O478 O -0.03532 0.72155 0.76539
 O479 O -0.00242 0.76789 0.78653
 O480 O 0.02506 0.76707 0.78188
 O481 O -0.00254 0.78755 0.76572
 O482 O 0.02583 0.78208 0.76441
 O483 O -0.02100 0.74988 0.78648
 O484 O -0.01856 0.72158 0.78134
 O485 O -0.04070 0.76674 0.74705
 O486 O -0.03490 0.76419 0.71907
 O487 O 0.01869 0.70703 0.74666
 O488 O 0.01664 0.71335 0.77388
 O489 O 0.04086 0.74616 0.72842
 O490 O 0.03457 0.77358 0.73056
 O491 O 0.00196 0.72771 0.70578
 O492 O -0.02543 0.72963 0.71070
 Zr493 Zr -0.00822 0.72900 0.72783
 O494 O -0.02328 0.74223 0.74118
 Zr495 Zr 0.01867 0.75556 0.72842
 O496 O 0.00451 0.77031 0.74119
 Zr497 Zr 0.01786 0.72924 0.75574
 O498 O 0.00424 0.74304 0.77007
 Zr499 Zr -0.01867 0.76525 0.73725
 O500 O -0.00453 0.75200 0.72264
 Zr501 Zr -0.01885 0.73916 0.76479
 O502 O -0.00528 0.72420 0.75145
 Zr503 Zr 0.00781 0.76601 0.76476
 O504 O 0.02310 0.75224 0.75200
 O505 O 0.01483 0.73266 0.73227
 O506 O -0.01536 0.76215 0.76081
 C507 C 0.01105 0.70042 0.73586
 C508 C 0.01269 0.73548 0.69939
 C509 C 0.04718 0.73572 0.73656
 C510 C -0.01347 0.79363 0.75798
 C511 C -0.04724 0.75930 0.75795
 C512 C -0.01367 0.76091 0.79285
 H513 H -0.03393 0.73950 0.73855
 H514 H 0.00656 0.74086 0.78099
 H515 H 0.02151 0.72605 0.72595
 H516 H 0.00679 0.78096 0.73849
 H517 H -0.01217 0.77803 0.71137
 H518 H 0.01331 0.77976 0.71261
 H519 H -0.01058 0.72402 0.78907
 H520 H 0.00669 0.70809 0.77281
 H521 H -0.04171 0.75541 0.72085
 H522 H -0.02423 0.73940 0.70525
 H523 H 0.02437 0.75771 0.78807
 H524 H 0.03877 0.73990 0.77370
 H525 H -0.02615 0.70809 0.73787
 H526 H -0.04107 0.72182 0.75557
 H527 H 0.04052 0.77178 0.74010
 H528 H 0.02387 0.78919 0.75585
 O529 O 0.03959 0.01387 0.00622
 O530 O 0.03424 0.01385 -0.02068
 O531 O -0.00022 0.03567 0.02504
 O532 O -0.02516 0.03188 0.02609
 O533 O 0.01762 -0.00559 0.04542
 O534 O 0.01570 -0.03173 0.03848
 O535 O -0.04170 -0.00292 -0.01586
 O536 O -0.03630 0.02309 -0.01214
 O537 O -0.00385 -0.02210 -0.03683
 O538 O 0.02380 -0.02233 -0.03145
 O539 O -0.02317 -0.04277 0.00142
 O540 O -0.02214 -0.03877 0.02915
 O541 O -0.04258 -0.02172 0.00192
 O542 O -0.03679 -0.02117 0.03054
 O543 O -0.00478 -0.04306 -0.01704
 O544 O 0.02357 -0.03851 -0.01514
 O545 O -0.02142 -0.00316 -0.03614
 O546 O -0.01828 0.02394 -0.02987
 O547 O 0.03901 -0.00501 0.02398
 O548 O 0.03243 -0.03164 0.02097
 O549 O 0.00025 0.01354 0.04611
 O550 O -0.02751 0.01174 0.04004
 O551 O 0.01856 0.03576 0.00692
 O552 O 0.01748 0.03081 -0.02053
 Zr553 Zr 0.01739 0.01400 -0.00322
 O554 O 0.00359 0.00153 -0.01864
 Zr555 Zr -0.00948 0.01376 0.02387
 O556 O -0.02467 0.00173 0.00944
 Zr557 Zr 0.01653 -0.01366 0.02258
 O558 O 0.00231 -0.02721 0.00850
 Zr559 Zr -0.01951 0.00591 -0.01379
 O560 O -0.00570 0.01966 0.00063
 Zr561 Zr 0.00617 -0.02183 -0.01474
 O562 O 0.02164 -0.00937 -0.00070
 Zr563 Zr -0.02076 -0.02158 0.01225
 O564 O -0.00659 -0.00955 0.02792
 O565 O 0.01354 0.00954 0.01993
 O566 O -0.01692 -0.01739 -0.01102
 C567 C 0.04589 0.00573 0.01674
 C568 C 0.01064 0.04219 0.01761
 C569 C 0.01051 0.00517 0.05242
 C570 C -0.04859 -0.01377 -0.00890
 C571 C -0.01449 -0.01411 -0.04300
 C572 C -0.01609 -0.04912 -0.00984
 H573 H 0.00629 0.00422 -0.02934
 H574 H 0.00432 -0.03802 0.01061
 H575 H 0.02023 0.01569 0.02674
 H576 H -0.03534 0.00460 0.01184
 H577 H -0.03149 0.03172 -0.00661
 H578 H -0.03377 0.02975 0.01900
 H579 H 0.02162 -0.04563 -0.00658
 H580 H 0.03771 -0.03048 0.01095
 H581 H -0.00940 0.02219 -0.03670
 H582 H 0.00760 0.03622 -0.01970
 H583 H -0.01273 -0.04494 0.02841
 H584 H 0.00544 -0.03137 0.04329
 H585 H 0.03845 0.00343 -0.02099
 H586 H 0.02339 -0.01271 -0.03725
 H587 H -0.02571 0.00230 0.04590
 H588 H -0.04378 -0.01253 0.02883
 O589 O 0.00406 0.46713 0.46686
 O590 O 0.03076 0.46856 0.47222
 O591 O -0.01349 0.44631 0.50782
 O592 O -0.01386 0.45102 0.53298
 O593 O -0.03587 0.48546 0.48851
 O594 O -0.03058 0.51189 0.48905
 O595 O 0.02531 0.48906 0.54775
 O596 O 0.02342 0.46270 0.54356
 O597 O 0.04475 0.50727 0.50808
 O598 O 0.03913 0.50594 0.48051
 O599 O 0.00573 0.52693 0.52711
 O600 O -0.02168 0.52112 0.52652
 O601 O 0.00669 0.50699 0.54779
 O602 O -0.02148 0.50467 0.54251
 O603 O 0.02399 0.52711 0.50852
 O604 O 0.02189 0.52103 0.48010
 O605 O 0.04533 0.48968 0.52711
 O606 O 0.04085 0.46200 0.52525
 O607 O -0.01462 0.48504 0.46672
 O608 O -0.01342 0.51200 0.47213
 O609 O -0.03551 0.46754 0.50726
 O610 O -0.02904 0.47041 0.53486
 O611 O 0.00428 0.44631 0.48869
 O612 O 0.03132 0.45238 0.48997
 Zr613 Zr 0.01341 0.46844 0.48918
 O614 O 0.02807 0.48243 0.50226
 Zr615 Zr -0.01320 0.46859 0.51648
 O616 O 0.00051 0.48218 0.53101
 Zr617 Zr -0.01374 0.49473 0.48896
 O618 O -0.00050 0.50972 0.50242
 Zr619 Zr 0.02376 0.47906 0.52581
 O620 O 0.01016 0.46381 0.51276
 Zr621 Zr 0.02277 0.50534 0.49848
 O622 O 0.00950 0.49137 0.48372
 Zr623 Zr -0.00370 0.50507 0.52596
 O624 O -0.01859 0.49147 0.51249
 O625 O -0.00977 0.47190 0.49305
 O626 O 0.01958 0.50198 0.52202
 C627 C -0.00679 0.47445 0.46021
 C628 C -0.00605 0.43978 0.49688
 C629 C -0.04229 0.47504 0.49656
 C630 C 0.01782 0.49989 0.55420
 C631 C 0.05141 0.50046 0.51928
 C632 C 0.01653 0.53342 0.51959
 H633 H 0.03880 0.48020 0.49953
 H634 H -0.00325 0.52028 0.49988
 H635 H -0.01630 0.46520 0.48664
 H636 H -0.00160 0.47974 0.54191
 H637 H 0.01846 0.45353 0.53921
 H638 H -0.00701 0.45405 0.54154
 H639 H 0.01330 0.52806 0.48207
 H640 H -0.00346 0.51121 0.46678
 H641 H 0.04744 0.46371 0.51616
 H642 H 0.03072 0.44748 0.50020
 H643 H -0.02107 0.52719 0.51697
 H644 H -0.03517 0.51187 0.49948
 H645 H 0.03040 0.47867 0.46732
 H646 H 0.04533 0.49659 0.48118
 H647 H -0.03517 0.47966 0.53302
 H648 H -0.01937 0.49630 0.54976
 O649 O 0.54363 0.01592 0.50359
 O650 O 0.53806 0.01394 0.47645
 O651 O 0.50517 0.04067 0.52073
 O652 O 0.47980 0.03812 0.52136
 O653 O 0.52093 0.00034 0.54402
 O654 O 0.51747 -0.02636 0.53877
 O655 O 0.46148 0.00120 0.48293
 O656 O 0.46815 0.02731 0.48507
 O657 O 0.49835 -0.02063 0.46282
 O658 O 0.52679 -0.02089 0.46865
 O659 O 0.47865 -0.03828 0.50213
 O660 O 0.48056 -0.03241 0.53012
 O661 O 0.46006 -0.01647 0.50185
 O662 O 0.46575 -0.01494 0.52992
 O663 O 0.49718 -0.04026 0.48390
 O664 O 0.52487 -0.03723 0.48472
 O665 O 0.48143 -0.00112 0.46263
 O666 O 0.48562 0.02598 0.46676
 O667 O 0.54223 -0.00169 0.52260
 O668 O 0.53468 -0.02793 0.52174
 O669 O 0.50406 0.01992 0.54333
 O670 O 0.47679 0.01939 0.53752
 O671 O 0.52364 0.03856 0.50240
 O672 O 0.52259 0.03202 0.47571
 Zr673 Zr 0.52147 0.01631 0.49401
 O674 O 0.50692 0.00370 0.47945
 Zr675 Zr 0.49465 0.01919 0.52103
 O676 O 0.47892 0.00668 0.50767
 Zr677 Zr 0.51942 -0.00936 0.52178
 O678 O 0.50480 -0.02322 0.50841
 Zr679 Zr 0.48404 0.00926 0.48422
 O680 O 0.49866 0.02329 0.49745
 Zr681 Zr 0.50871 -0.01939 0.48482
 O682 O 0.52470 -0.00694 0.49822
 Zr683 Zr 0.48197 -0.01660 0.51188
 O684 O 0.49650 -0.00392 0.52669
 O685 O 0.51745 0.01369 0.51745
 O686 O 0.48582 -0.01391 0.48838
 C687 C 0.54955 0.00825 0.51468
 C688 C 0.51623 0.04610 0.51267
 C689 C 0.51399 0.01167 0.55027
 C690 C 0.45423 -0.00893 0.49065
 C691 C 0.48782 -0.01268 0.45635
 C692 C 0.48560 -0.04549 0.49129
 H693 H 0.50964 0.00564 0.46858
 H694 H 0.50644 -0.03395 0.51115
 H695 H 0.52439 0.01997 0.52385
 H696 H 0.46838 0.01007 0.50996
 H697 H 0.47358 0.03613 0.48962
 H698 H 0.47062 0.03539 0.51529
 H699 H 0.52394 -0.04264 0.49464
 H700 H 0.53970 -0.02800 0.51151
 H701 H 0.49460 0.02368 0.46024
 H702 H 0.51270 0.03747 0.47566
 H703 H 0.48909 -0.03967 0.52893
 H704 H 0.50737 -0.02491 0.54373
 H705 H 0.54224 0.00356 0.47736
 H706 H 0.52550 -0.01262 0.46110
 H707 H 0.47754 0.00982 0.54339
 H708 H 0.45979 -0.00555 0.52833
 O709 O 0.54108 0.51442 0.00100
 O710 O 0.53520 0.51081 -0.02567
 O711 O 0.50096 0.53643 0.01812
 O712 O 0.47587 0.53162 0.01920
 O713 O 0.52077 0.49906 0.04306
 O714 O 0.52014 0.47216 0.03950
 O715 O 0.46072 0.49059 -0.01700
 O716 O 0.46439 0.51723 -0.01641
 O717 O 0.49975 0.47192 -0.03644
 O718 O 0.52755 0.47375 -0.03084
 O719 O 0.48159 0.45450 0.00440
 O720 O 0.48344 0.46211 0.03200
 O721 O 0.46107 0.47434 0.00324
 O722 O 0.46709 0.47820 0.03112
 O723 O 0.49949 0.45337 -0.01452
 O724 O 0.52748 0.45886 -0.01333
 O725 O 0.48077 0.48944 -0.03752
 O726 O 0.48198 0.51705 -0.03465
 O727 O 0.54193 0.49792 0.02105
 O728 O 0.53677 0.47101 0.02197
 O729 O 0.50220 0.51701 0.04167
 O730 O 0.47487 0.51351 0.03645
 O731 O 0.51915 0.53503 -0.00055
 O732 O 0.51780 0.52700 -0.02699
 Zr733 Zr 0.51881 0.51230 -0.00782
 O734 O 0.50550 0.49745 -0.02125
 Zr735 Zr 0.49243 0.51414 0.01965
 O736 O 0.47776 0.49948 0.00729
 Zr737 Zr 0.51989 0.48813 0.02141
 O738 O 0.50638 0.47219 0.00931
 Zr739 Zr 0.48225 0.50109 -0.01641
 O740 O 0.49551 0.51725 -0.00425
 Zr741 Zr 0.50961 0.47500 -0.01450
 O742 O 0.52448 0.48978 -0.00235
 Zr743 Zr 0.48307 0.47689 0.01283
 O744 O 0.49662 0.49167 0.02653
 O745 O 0.51559 0.51060 0.01584
 O746 O 0.48634 0.47851 -0.01088
 C747 C 0.54804 0.50796 0.01226
 C748 C 0.51138 0.54238 0.00959
 C749 C 0.51297 0.51006 0.04885
 C750 C 0.45453 0.48040 -0.00849
 C751 C 0.48856 0.47849 -0.04332
 C752 C 0.48863 0.44752 -0.00654
 H753 H 0.50793 0.49904 -0.03225
 H754 H 0.50903 0.46182 0.01265
 H755 H 0.52206 0.51780 0.02172
 H756 H 0.46697 0.50198 0.00955
 H757 H 0.46874 0.52677 -0.01223
 H758 H 0.46689 0.52770 0.01350
 H759 H 0.52605 0.45284 -0.00384
 H760 H 0.54142 0.47071 0.01157
 H761 H 0.49111 0.51535 -0.04114
 H762 H 0.50761 0.53187 -0.02670
 H763 H 0.49252 0.45552 0.03100
 H764 H 0.50987 0.47252 0.04429
 H765 H 0.54041 0.50093 -0.02442
 H766 H 0.52617 0.48217 -0.03821
 H767 H 0.47677 0.50450 0.04294
 H768 H 0.46013 0.48677 0.02898
 O769 O 0.79182 0.25282 0.48549
 O770 O 0.78478 0.22641 0.48533
 O771 O 0.75388 0.27358 0.46257
 O772 O 0.72848 0.27463 0.46570
 O773 O 0.77138 0.29247 0.50496
 O774 O 0.76864 0.28575 0.53156
 O775 O 0.70884 0.23602 0.50105
 O776 O 0.71548 0.23924 0.47425
 O777 O 0.74575 0.21281 0.52055
 O778 O 0.77354 0.21659 0.52095
 O779 O 0.72853 0.25152 0.54209
 O780 O 0.73160 0.27925 0.53765
 O781 O 0.70909 0.25333 0.52051
 O782 O 0.71596 0.28043 0.52072
 O783 O 0.74593 0.23243 0.54217
 O784 O 0.77409 0.23238 0.53775
 O785 O 0.72781 0.21469 0.50170
 O786 O 0.73176 0.21851 0.47612
 O787 O 0.79175 0.27023 0.50488
 O788 O 0.78473 0.26813 0.53150
 O789 O 0.75417 0.29405 0.48537
 O790 O 0.72654 0.28942 0.48577
 O791 O 0.77164 0.25480 0.46292
 O792 O 0.76934 0.22747 0.46758
 Zr793 Zr 0.76914 0.24466 0.48469
 O794 O 0.75413 0.23037 0.49687
 Zr795 Zr 0.74371 0.27255 0.48453
 O796 O 0.72760 0.25948 0.49676
 Zr797 Zr 0.76911 0.27014 0.51300
 O798 O 0.75421 0.25697 0.52647
 Zr799 Zr 0.73133 0.23638 0.49246
 O800 O 0.74629 0.24945 0.47852
 Zr801 Zr 0.75686 0.23397 0.52067
 O802 O 0.77318 0.24702 0.50852
 Zr803 Zr 0.73147 0.26202 0.52057
 O804 O 0.74641 0.27654 0.50834
 O805 O 0.76641 0.26760 0.48934
 O806 O 0.73400 0.23894 0.51618
 C807 C 0.79847 0.26275 0.49410
 C808 C 0.76465 0.26580 0.45627
 C809 C 0.76458 0.29976 0.49413
 C810 C 0.70236 0.24328 0.51214
 C811 C 0.73458 0.20745 0.51256
 C812 C 0.73517 0.24017 0.54848
 H813 H 0.75601 0.21971 0.49385
 H814 H 0.75632 0.25892 0.53749
 H815 H 0.77357 0.27401 0.48340
 H816 H 0.71713 0.26248 0.49376
 H817 H 0.72139 0.24258 0.46514
 H818 H 0.71947 0.26824 0.46796
 H819 H 0.77285 0.24105 0.54491
 H820 H 0.78926 0.25788 0.53070
 H821 H 0.73863 0.22180 0.46775
 H822 H 0.76128 0.22996 0.45998
 H823 H 0.74004 0.27707 0.54491
 H824 H 0.75881 0.29125 0.53079
 H825 H 0.78931 0.22641 0.49579
 H826 H 0.77276 0.21095 0.51110
 H827 H 0.72772 0.29456 0.49587
 H828 H 0.70992 0.27994 0.51108
 O829 O 0.74838 0.76082 -0.04921
 O830 O 0.72121 0.76023 -0.04442
 O831 O 0.76553 0.78494 -0.00990
 O832 O 0.76496 0.78238 0.01579
 O833 O 0.78699 0.74367 -0.02536
 O834 O 0.78061 0.71717 -0.02189
 O835 O 0.72520 0.74730 0.03304
 O836 O 0.72866 0.77348 0.02610
 O837 O 0.70510 0.72641 -0.00504
 O838 O 0.71125 0.72588 -0.03317
 O839 O 0.74283 0.70682 0.01568
 O840 O 0.77095 0.71159 0.01457
 O841 O 0.74305 0.72870 0.03475
 O842 O 0.77086 0.72876 0.02992
 O843 O 0.72512 0.70582 -0.00347
 O844 O 0.72695 0.70920 -0.03159
 O845 O 0.70534 0.74575 0.01233
 O846 O 0.70909 0.77084 0.00802
 O847 O 0.76628 0.74225 -0.04734
 O848 O 0.76421 0.71626 -0.03981
 O849 O 0.78672 0.76332 -0.00831
 O850 O 0.78020 0.76312 0.01913
 O851 O 0.74798 0.78364 -0.02922
 O852 O 0.72055 0.77810 -0.02946
 Zr853 Zr 0.73826 0.76191 -0.02718
 O854 O 0.72295 0.75003 -0.01292
 Zr855 Zr 0.76436 0.76353 0.00064
 O856 O 0.75024 0.75154 0.01604
 Zr857 Zr 0.76455 0.73489 -0.02439
 O858 O 0.75027 0.72167 -0.01022
 Zr859 Zr 0.72724 0.75517 0.01031
 O860 O 0.74125 0.76877 -0.00401
 Zr861 Zr 0.72721 0.72669 -0.01481
 O862 O 0.74148 0.73848 -0.03044
 Zr863 Zr 0.75347 0.72810 0.01292
 O864 O 0.76906 0.74017 -0.00116
 O865 O 0.76121 0.75812 -0.02246
 O866 O 0.73039 0.73185 0.00844
 C867 C 0.75912 0.75255 -0.05489
 C868 C 0.75829 0.79068 -0.02139
 C869 C 0.79346 0.75483 -0.01829
 C870 C 0.73224 0.73682 0.04045
 C871 C 0.69876 0.73456 0.00550
 C872 C 0.73199 0.70014 0.00825
 H873 H 0.71231 0.75269 -0.01572
 H874 H 0.75256 0.71082 -0.01191
 H875 H 0.76801 0.76404 -0.02927
 H876 H 0.75240 0.75483 0.02674
 H877 H 0.73243 0.78235 0.02025
 H878 H 0.75807 0.78008 0.02451
 H879 H 0.73609 0.70282 -0.02992
 H880 H 0.75416 0.71652 -0.04508
 H881 H 0.71296 0.77916 0.00153
 H882 H 0.72200 0.78577 -0.02123
 H883 H 0.76956 0.70430 0.00598
 H884 H 0.78553 0.71865 -0.01171
 H885 H 0.72185 0.74983 -0.04869
 H886 H 0.70470 0.73498 -0.03242
 H887 H 0.78568 0.75333 0.01847
 H888 H 0.76987 0.73845 0.03560
 O889 O 0.99381 0.20800 0.22676
 O890 O 0.96702 0.21260 0.22985
 O891 O 1.00841 0.24749 0.20207
 O892 O 1.00814 0.27258 0.20552
 O893 O 1.03418 0.23148 0.24110
 O894 O 1.03080 0.23358 0.26836
 O895 O 0.97130 0.28789 0.24627
 O896 O 0.97199 0.28260 0.21946
 O897 O 0.95467 0.24963 0.26794
 O898 O 0.96109 0.22239 0.26727
 O899 O 0.99444 0.27015 0.28434
 O900 O 1.02139 0.27023 0.27625
 O901 O 0.99105 0.28946 0.26324
 O902 O 1.01916 0.28534 0.25905
 O903 O 0.97695 0.25124 0.28661
 O904 O 0.97895 0.22346 0.28179
 O905 O 0.95221 0.26694 0.24879
 O906 O 0.95500 0.26413 0.22071
 O907 O 1.01374 0.20948 0.24355
 O908 O 1.01438 0.21628 0.27058
 O909 O 1.03188 0.24876 0.22188
 O910 O 1.02500 0.27574 0.22396
 O911 O 0.99130 0.22820 0.20447
 O912 O 0.96487 0.22884 0.21233
 Zr913 Zr 0.98382 0.22968 0.22747
 O914 O 0.96975 0.24291 0.24185
 Zr915 Zr 1.00947 0.25730 0.22421
 O916 O 0.99633 0.27192 0.23825
 Zr917 Zr 1.01279 0.23183 0.25216
 O918 O 1.00011 0.24539 0.26755
 Zr919 Zr 0.97312 0.26596 0.23691
 O920 O 0.98597 0.25265 0.22122
 Zr921 Zr 0.97672 0.24057 0.26489
 O922 O 0.98955 0.22574 0.25069
 Zr923 Zr 1.00220 0.26835 0.26146
 O924 O 1.01656 0.25489 0.24727
 O925 O 1.00704 0.23441 0.22910
 O926 O 0.97892 0.26359 0.26008
 C927 C 1.00538 0.20223 0.23377
 C928 C 1.00085 0.23613 0.19662
 C929 C 1.03951 0.23883 0.22952
 C930 C 0.97916 0.29497 0.25657
 C931 C 0.94715 0.25985 0.26066
 C932 C 0.98452 0.26256 0.29204
 H933 H 0.95898 0.23981 0.24044
 H934 H 1.00369 0.24350 0.27818
 H935 H 1.01324 0.22791 0.22220
 H936 H 0.99789 0.28257 0.23510
 H937 H 0.97639 0.27797 0.21003
 H938 H 1.00177 0.28123 0.20889
 H939 H 0.98842 0.22551 0.28770
 H940 H 1.00456 0.21069 0.27084
 H941 H 0.94908 0.25486 0.22302
 H942 H 0.96469 0.23864 0.20680
 H943 H 1.02151 0.26120 0.28297
 H944 H 1.03521 0.24385 0.26717
 H945 H 0.96835 0.20832 0.24030
 H946 H 0.95381 0.22282 0.25855
 H947 H 1.03157 0.27476 0.23320
 H948 H 1.01627 0.29181 0.25023
 O949 O 0.71471 1.01940 0.74906
 O950 O 0.72071 1.01883 0.77589
 O951 O 0.75401 1.04180 0.73009
 O952 O 0.77887 1.03802 0.72785
 O953 O 0.73554 1.00076 0.70898
 O954 O 0.73789 0.97458 0.71489
 O955 O 0.79643 1.00238 0.76892
 O956 O 0.79110 1.02843 0.76600
 O957 O 0.75909 0.98270 0.78992
 O958 O 0.73166 0.98238 0.78557
 O959 O 0.77739 0.96285 0.75048
 O960 O 0.77600 0.96775 0.72295
 O961 O 0.79687 0.98374 0.75079
 O962 O 0.79083 0.98537 0.72217
 O963 O 0.75932 0.96219 0.76925
 O964 O 0.73089 0.96707 0.76835
 O965 O 0.77670 1.00164 0.78949
 O966 O 0.77322 1.02910 0.78396
 O967 O 0.71489 1.00061 0.73103
 O968 O 0.72180 0.97399 0.73283
 O969 O 0.75282 1.02000 0.70816
 O970 O 0.78093 1.01811 0.71357
 O971 O 0.73556 1.04132 0.74855
 O972 O 0.73741 1.03594 0.77575
 Zr973 Zr 0.73710 1.01943 0.75800
 O974 O 0.75127 1.00674 0.77272
 Zr975 Zr 0.76327 1.01984 0.73018
 O976 O 0.77885 1.00765 0.74398
 Zr977 Zr 0.73743 0.99224 0.73143
 O978 O 0.75199 0.97853 0.74472
 Zr979 Zr 0.77425 1.01128 0.76746
 O980 O 0.76010 1.02524 0.75372
 Zr981 Zr 0.74856 0.98349 0.76815
 O982 O 0.73277 0.99612 0.75491
 Zr983 Zr 0.77497 0.98437 0.74059
 O984 O 0.76038 0.99659 0.72560
 O985 O 0.74038 1.01541 0.73463
 O986 O 0.77157 0.98805 0.76405
 C987 C 0.70818 1.01125 0.73861
 C988 C 0.74325 1.04806 0.73796
 C989 C 0.74233 1.01167 0.70201
 C990 C 0.80307 0.99145 0.76176
 C991 C 0.76991 0.99050 0.79611
 C992 C 0.77033 0.95623 0.76154
 H993 H 0.74882 1.00920 0.78357
 H994 H 0.74990 0.96777 0.74228
 H995 H 0.73349 1.02165 0.72820
 H996 H 0.78947 1.01061 0.74147
 H997 H 0.78628 1.03713 0.76070
 H998 H 0.78747 1.03604 0.73497
 H999 H 0.73276 0.95990 0.75974
 H1000 H 0.71649 0.97501 0.74286
 H1001 H 0.76483 1.02691 0.79126
 H1002 H 0.74730 1.04135 0.77487
 H1003 H 0.76659 0.96155 0.72363
 H1004 H 0.74798 0.97518 0.70975
 H1005 H 0.71637 1.00846 0.77585
 H1006 H 0.73170 0.99217 0.79116
 H1007 H 0.77892 1.00883 0.70745
 H1008 H 0.79798 0.99383 0.72425
 O1009 O 0.71188 0.53019 0.26001
 O1010 O 0.71904 0.52839 0.28697
 O1011 O 0.75179 0.54961 0.23961
 O1012 O 0.77710 0.54413 0.23936
 O1013 O 0.73062 0.51099 0.21865
 O1014 O 0.73047 0.48423 0.22446
 O1015 O 0.79263 0.50502 0.27645
 O1016 O 0.78931 0.53231 0.27376
 O1017 O 0.75396 0.48954 0.29907
 O1018 O 0.72592 0.49274 0.29500
 O1019 O 0.76880 0.46824 0.25901
 O1020 O 0.76583 0.47421 0.23065
 O1021 O 0.79028 0.48712 0.25770
 O1022 O 0.78374 0.48862 0.23040
 O1023 O 0.75138 0.46936 0.27839
 O1024 O 0.72413 0.47634 0.27882
 O1025 O 0.77353 0.50644 0.29796
 O1026 O 0.77292 0.53181 0.29484
 O1027 O 0.71013 0.51216 0.24130
 O1028 O 0.71407 0.48549 0.24202
 O1029 O 0.74982 0.52837 0.21806
 O1030 O 0.77690 0.52507 0.22259
 O1031 O 0.73423 0.55023 0.25891
 O1032 O 0.73598 0.54447 0.28633
 Zr1033 Zr 0.73454 0.52831 0.26827
 O1034 O 0.74821 0.51430 0.28221
 Zr1035 Zr 0.76001 0.52713 0.23996
 O1036 O 0.77464 0.51271 0.25253
 Zr1037 Zr 0.73174 0.50184 0.24103
 O1038 O 0.74489 0.48650 0.25396
 Zr1039 Zr 0.77138 0.51637 0.27618
 O1040 O 0.75796 0.53218 0.26368
 Zr1041 Zr 0.74285 0.49154 0.27759
 O1042 O 0.72800 0.50560 0.26474
 Zr1043 Zr 0.76812 0.48998 0.24900
 O1044 O 0.75483 0.50430 0.23480
 O1045 O 0.73690 0.52453 0.24475
 O1046 O 0.76606 0.49362 0.27263
 C1047 C 0.70447 0.52296 0.24946
 C1048 C 0.74164 0.55646 0.24783
 C1049 C 0.73864 0.52116 0.21178
 C1050 C 0.79780 0.49378 0.26849
 C1051 C 0.76575 0.49616 0.30487
 C1052 C 0.76154 0.46236 0.27041
 H1053 H 0.74664 0.51705 0.29316
 H1054 H 0.74161 0.47603 0.25155
 H1055 H 0.73040 0.53131 0.23847
 H1056 H 0.78540 0.51455 0.24960
 H1057 H 0.78451 0.54205 0.27082
 H1058 H 0.78624 0.54006 0.24464
 H1059 H 0.72423 0.47002 0.26937
 H1060 H 0.70989 0.48595 0.25261
 H1061 H 0.76691 0.54080 0.29187
 H1062 H 0.74500 0.55092 0.28426
 H1063 H 0.75715 0.46742 0.23307
 H1064 H 0.74025 0.48440 0.21872
 H1065 H 0.71318 0.51880 0.28630
 H1066 H 0.72836 0.50150 0.30172
 H1067 H 0.77504 0.51530 0.21727
 H1068 H 0.79049 0.49761 0.23097
 O1069 O 0.50239 0.21381 0.72300
 O1070 O 0.47568 0.21814 0.72428
 O1071 O 0.51877 0.25488 0.70224
 O1072 O 0.51906 0.27942 0.70727
 O1073 O 0.54160 0.23598 0.74201
 O1074 O 0.53630 0.23625 0.76886
 O1075 O 0.47896 0.29258 0.74519
 O1076 O 0.48081 0.28844 0.71858
 O1077 O 0.46050 0.25309 0.76393
 O1078 O 0.46662 0.22633 0.76276
 O1079 O 0.49903 0.27286 0.78409
 O1080 O 0.52596 0.27343 0.77866
 O1081 O 0.49739 0.29321 0.76366
 O1082 O 0.52603 0.28851 0.76125
 O1083 O 0.48131 0.25403 0.78426
 O1084 O 0.48420 0.22604 0.77778
 O1085 O 0.45952 0.27180 0.74606
 O1086 O 0.46412 0.26979 0.71775
 O1087 O 0.52092 0.21402 0.74141
 O1088 O 0.51938 0.21933 0.76896
 O1089 O 0.54078 0.25435 0.72375
 O1090 O 0.53367 0.28151 0.72718
 O1091 O 0.50153 0.23556 0.70188
 O1092 O 0.47440 0.23579 0.70817
 Zr1093 Zr 0.49242 0.23544 0.72443
 O1094 O 0.47738 0.24778 0.73869
 Zr1095 Zr 0.51835 0.26301 0.72496
 O1096 O 0.50414 0.27686 0.73860
 Zr1097 Zr 0.51945 0.23585 0.75136
 O1098 O 0.50587 0.24877 0.76656
 Zr1099 Zr 0.48107 0.27103 0.73526
 O1100 O 0.49513 0.25871 0.71983
 Zr1101 Zr 0.48272 0.24425 0.76204
 O1102 O 0.49635 0.23013 0.74779
 Zr1103 Zr 0.50842 0.27202 0.76189
 O1104 O 0.52375 0.25914 0.74823
 O1105 O 0.51547 0.23987 0.72813
 O1106 O 0.48527 0.26747 0.75862
 C1107 C 0.51333 0.20749 0.73051
 C1108 C 0.51160 0.24406 0.69538
 C1109 C 0.54779 0.24395 0.73133
 C1110 C 0.48620 0.29918 0.75621
 C1111 C 0.45361 0.26397 0.75701
 C1112 C 0.48850 0.26511 0.79071
 H1113 H 0.46673 0.24479 0.73638
 H1114 H 0.50867 0.24634 0.77731
 H1115 H 0.52213 0.23378 0.72127
 H1116 H 0.50598 0.28763 0.73610
 H1117 H 0.48610 0.28440 0.70935
 H1118 H 0.51151 0.28733 0.70997
 H1119 H 0.49254 0.22833 0.78516
 H1120 H 0.50968 0.21361 0.76788
 H1121 H 0.45739 0.26103 0.71986
 H1122 H 0.47479 0.24582 0.70311
 H1123 H 0.52640 0.26356 0.78401
 H1124 H 0.54067 0.24661 0.76889
 H1125 H 0.47597 0.21345 0.73463
 H1126 H 0.46086 0.22643 0.75294
 H1127 H 0.54020 0.27948 0.73627
 H1128 H 0.52339 0.29597 0.75319
 O1129 O 0.26517 0.79679 0.49729
 O1130 O 0.26358 0.79246 0.52464
 O1131 O 0.28983 0.75774 0.48144
 O1132 O 0.28703 0.73243 0.48273
 O1133 O 0.24952 0.77268 0.45787
 O1134 O 0.22246 0.76937 0.46299
 O1135 O 0.24952 0.71646 0.52132
 O1136 O 0.27624 0.72296 0.51881
 O1137 O 0.22824 0.75442 0.53983
 O1138 O 0.22830 0.78198 0.53309
 O1139 O 0.20981 0.73341 0.50129
 O1140 O 0.21597 0.73388 0.47312
 O1141 O 0.23138 0.71458 0.50264
 O1142 O 0.23302 0.71854 0.47448
 O1143 O 0.20835 0.75249 0.51889
 O1144 O 0.21208 0.78011 0.51657
 O1145 O 0.24756 0.73726 0.54085
 O1146 O 0.27306 0.74118 0.53807
 O1147 O 0.24719 0.79467 0.47845
 O1148 O 0.22088 0.78728 0.47915
 O1149 O 0.26895 0.75564 0.45931
 O1150 O 0.26823 0.72886 0.46637
 O1151 O 0.28794 0.77711 0.49870
 O1152 O 0.28142 0.77761 0.52617
 Zr1153 Zr 0.26570 0.77525 0.50773
 O1154 O 0.25289 0.76163 0.52284
 Zr1155 Zr 0.26813 0.74737 0.48201
 O1156 O 0.25523 0.73257 0.49594
 Zr1157 Zr 0.23956 0.77212 0.48003
 O1158 O 0.22543 0.75857 0.49405
 Zr1159 Zr 0.25797 0.73867 0.51915
 O1160 O 0.27247 0.75239 0.50544
 Zr1161 Zr 0.22956 0.76354 0.51743
 O1162 O 0.24225 0.77852 0.50332
 Zr1163 Zr 0.23177 0.73572 0.49154
 O1164 O 0.24481 0.74916 0.47616
 O1165 O 0.26279 0.77017 0.48453
 O1166 O 0.23463 0.74062 0.51486
 C1167 C 0.25725 0.80224 0.48609
 C1168 C 0.29537 0.76927 0.48868
 C1169 C 0.26092 0.76546 0.45198
 C1170 C 0.23898 0.70918 0.51406
 C1171 C 0.23607 0.74418 0.54681
 C1172 C 0.20276 0.74088 0.51189
 H1173 H 0.25514 0.76460 0.53362
 H1174 H 0.21462 0.76024 0.49122
 H1175 H 0.26907 0.77675 0.47784
 H1176 H 0.25847 0.72198 0.49412
 H1177 H 0.28543 0.72856 0.51534
 H1178 H 0.28419 0.72387 0.48947
 H1179 H 0.20592 0.77818 0.50720
 H1180 H 0.22061 0.79256 0.48925
 H1181 H 0.28165 0.74750 0.53445
 H1182 H 0.28916 0.76952 0.52502
 H1183 H 0.20861 0.74233 0.47406
 H1184 H 0.22412 0.75927 0.45826
 H1185 H 0.25315 0.79669 0.52355
 H1186 H 0.23710 0.78124 0.54023
 H1187 H 0.25851 0.72932 0.46052
 H1188 H 0.24260 0.71282 0.47616
 O1189 O 0.28975 0.25115 0.97846
 O1190 O 0.28564 0.22423 0.97799
 O1191 O 0.24899 0.26778 0.95677
 O1192 O 0.22375 0.26641 0.96060
 O1193 O 0.26588 0.28829 0.99845
 O1194 O 0.26395 0.28124 1.02529
 O1195 O 0.20976 0.22511 0.99562
 O1196 O 0.21486 0.22931 0.96904
 O1197 O 0.24868 0.20622 1.01457
 O1198 O 0.27670 0.21313 1.01359
 O1199 O 0.22829 0.24227 1.03647
 O1200 O 0.22800 0.27002 1.03265
 O1201 O 0.20840 0.24218 1.01526
 O1202 O 0.21232 0.27013 1.01566
 O1203 O 0.24782 0.22534 1.03598
 O1204 O 0.27548 0.22820 1.03112
 O1205 O 0.23086 0.20623 0.99551
 O1206 O 0.23342 0.21241 0.96804
 O1207 O 0.28827 0.26825 0.99810
 O1208 O 0.28206 0.26546 1.02486
 O1209 O 0.24793 0.28806 0.97948
 O1210 O 0.22093 0.28072 0.98116
 O1211 O 0.26874 0.25103 0.95629
 O1212 O 0.26901 0.22411 0.96045
 Zr1213 Zr 0.26806 0.24066 0.97812
 O1214 O 0.25517 0.22460 0.99050
 Zr1215 Zr 0.23967 0.26567 0.97898
 O1216 O 0.22549 0.25070 0.99130
 Zr1217 Zr 0.26593 0.26581 1.00669
 O1218 O 0.25295 0.25087 1.02034
 Zr1219 Zr 0.23176 0.22823 0.98647
 O1220 O 0.24471 0.24314 0.97259
 Zr1221 Zr 0.25797 0.22832 1.01425
 O1222 O 0.27239 0.24327 1.00188
 Zr1223 Zr 0.22963 0.25338 1.01506
 O1224 O 0.24253 0.26968 1.00275
 O1225 O 0.26292 0.26312 0.98309
 O1226 O 0.23464 0.23082 1.01018
 C1227 C 0.29551 0.26164 0.98706
 C1228 C 0.26036 0.26130 0.95004
 C1229 C 0.25811 0.29479 0.98774
 C1230 C 0.20274 0.23146 1.00693
 C1231 C 0.23805 0.19979 1.00661
 C1232 C 0.23627 0.23161 1.04254
 H1233 H 0.25835 0.21426 0.98753
 H1234 H 0.25507 0.25291 1.03135
 H1235 H 0.26922 0.27022 0.97699
 H1236 H 0.21466 0.25254 0.98860
 H1237 H 0.21948 0.23478 0.96024
 H1238 H 0.21511 0.25970 0.96333
 H1239 H 0.27379 0.23696 1.03806
 H1240 H 0.28758 0.25570 1.02398
 H1241 H 0.24281 0.20634 0.96947
 H1242 H 0.25886 0.22412 0.95539
 H1243 H 0.23722 0.26918 1.03921
 H1244 H 0.25361 0.28574 1.02456
 H1245 H 0.29005 0.22420 0.98850
 H1246 H 0.27531 0.20630 1.00462
 H1247 H 0.22206 0.28598 0.99121
 H1248 H 0.20592 0.26884 1.00633
 C1249 C 0.29738 0.35600 0.81371
 C1250 C 0.29103 0.36975 0.80903
 C1251 C 0.28911 0.37299 0.79332
 C1252 C 0.29333 0.36194 0.78234
 C1253 C 0.29974 0.34819 0.78704
 C1254 C 0.30190 0.34511 0.80277
 C1255 C 0.28258 0.38790 0.78898
 C1256 C 0.28453 0.39426 0.77509
 C1257 C 0.27891 0.40962 0.77111
 C1258 C 0.28588 0.41730 0.75885
 C1259 C 0.28128 0.43192 0.75488
 C1260 C 0.26948 0.43922 0.76304
 C1261 C 0.26222 0.43140 0.77510
 C1262 C 0.26682 0.41674 0.77905
 H1263 H 0.29903 0.35401 0.82592
 H1264 H 0.28780 0.37799 0.81773
 H1265 H 0.29155 0.36371 0.77015
 H1266 H 0.30284 0.33988 0.77837
 H1267 H 0.27686 0.39422 0.79799
 H1268 H 0.29142 0.38853 0.76652
 H1269 H 0.29512 0.41205 0.75245
 H1270 H 0.28712 0.43757 0.74551
 H1271 H 0.25300 0.43661 0.78153
 H1272 H 0.26076 0.41104 0.78822
 C1273 C 0.31667 -0.14087 0.29428
 C1274 C 0.31158 -0.12709 0.28827
 C1275 C 0.29623 -0.12273 0.28960
 C1276 C 0.28593 -0.13268 0.29680
 C1277 C 0.29099 -0.14644 0.30292
 C1278 C 0.30651 -0.15083 0.30187
 C1279 C 0.29153 -0.10788 0.28310
 C1280 C 0.27862 -0.10059 0.28703
 C1281 C 0.27435 -0.08540 0.28108
 C1282 C 0.26359 -0.07680 0.28933
 C1283 C 0.25942 -0.06232 0.28438
 C1284 C 0.26588 -0.05610 0.27098
 C1285 C 0.27640 -0.06484 0.26251
 C1286 C 0.28052 -0.07935 0.26742
 H1287 H 0.32878 -0.14322 0.29351
 H1288 H 0.31979 -0.11967 0.28276
 H1289 H 0.27386 -0.13012 0.29753
 H1290 H 0.28247 -0.15384 0.30790
 H1291 H 0.29958 -0.10243 0.27544
 H1292 H 0.27119 -0.10542 0.29568
 H1293 H 0.25854 -0.08120 0.29980
 H1294 H 0.25130 -0.05592 0.29122
 H1295 H 0.28148 -0.06047 0.25204
 H1296 H 0.28841 -0.08576 0.26037
 C1297 C 0.79683 0.85473 0.81458
 C1298 C 0.79079 0.86855 0.80974
 C1299 C 0.79228 0.87322 0.79442
 C1300 C 0.79958 0.86353 0.78383
 C1301 C 0.80572 0.84973 0.78865
 C1302 C 0.80458 0.84506 0.80417
 C1303 C 0.78595 0.88816 0.79001
 C1304 C 0.79062 0.89593 0.77761
 C1305 C 0.78495 0.91126 0.77367
 C1306 C 0.79376 0.92023 0.76372
 C1307 C 0.78900 0.93480 0.75975
 C1308 C 0.77527 0.94073 0.76564
 C1309 C 0.76633 0.93170 0.77544
 C1310 C 0.77105 0.91709 0.77933
 H1311 H 0.79600 0.85214 0.82673
 H1312 H 0.78519 0.87578 0.81814
 H1313 H 0.80037 0.86638 0.77175
 H1314 H 0.81082 0.84253 0.77995
 H1315 H 0.77789 0.89328 0.79792
 H1316 H 0.79968 0.89138 0.77048
 H1317 H 0.80445 0.91600 0.75910
 H1318 H 0.79618 0.94146 0.75218
 H1319 H 0.75559 0.93587 0.78001
 H1320 H 0.76362 0.91040 0.78658
 C1321 C 0.46635 0.90598 0.30041
 C1322 C 0.47307 0.89279 0.29457
 C1323 C 0.46396 0.88063 0.28954
 C1324 C 0.44794 0.88190 0.29058
 C1325 C 0.44123 0.89508 0.29644
 C1326 C 0.45036 0.90723 0.30151
 C1327 C 0.47151 0.86658 0.28405
 C1328 C 0.46478 0.85680 0.27431
 C1329 C 0.47180 0.84237 0.26916
 C1330 C 0.46614 0.83547 0.25573
 C1331 C 0.47159 0.82136 0.25095
 C1332 C 0.48279 0.81371 0.25957
 C1333 C 0.48866 0.82070 0.27292
 C1334 C 0.48320 0.83487 0.27771
 H1335 H 0.47369 0.91521 0.30412
 H1336 H 0.48542 0.89207 0.29398
 H1337 H 0.44053 0.87258 0.28735
 H1338 H 0.42889 0.89556 0.29747
 H1339 H 0.48315 0.86460 0.28778
 H1340 H 0.45373 0.85961 0.26946
 H1341 H 0.45730 0.84094 0.24899
 H1342 H 0.46675 0.81633 0.24062
 H1343 H 0.49718 0.81506 0.27992
 H1344 H 0.48757 0.83959 0.28837
 C1345 C -0.03171 0.90282 0.80090
 C1346 C -0.02562 0.88919 0.79539
 C1347 C -0.03528 0.87739 0.79051
 C1348 C -0.05123 0.87946 0.79140
 C1349 C -0.05731 0.89309 0.79689
 C1350 C -0.04762 0.90490 0.80175
 C1351 C -0.02835 0.86289 0.78533
 C1352 C -0.03562 0.85290 0.77621
 C1353 C -0.02906 0.83811 0.77141
 C1354 C -0.03534 0.83072 0.75852
 C1355 C -0.03008 0.81644 0.75399
 C1356 C -0.01844 0.80914 0.76233
 C1357 C -0.01208 0.81656 0.77522
 C1358 C -0.01736 0.83085 0.77976
 H1359 H -0.02397 0.91176 0.80449
 H1360 H -0.01331 0.88786 0.79495
 H1361 H -0.05909 0.87047 0.78832
 H1362 H -0.06961 0.89423 0.79775
 H1363 H -0.01667 0.86074 0.78880
 H1364 H -0.04674 0.85576 0.77157
 H1365 H -0.04444 0.83598 0.75197
 H1366 H -0.03530 0.81106 0.74405
 H1367 H -0.00323 0.81119 0.78201
 H1368 H -0.01253 0.83591 0.79004
 C1369 C -0.04923 -0.14691 -0.06897
 C1370 C -0.04245 -0.13352 -0.06363
 C1371 C -0.04331 -0.12934 -0.04805
 C1372 C -0.05087 -0.13913 -0.03779
 C1373 C -0.05777 -0.15248 -0.04311
 C1374 C -0.05717 -0.15668 -0.05885
 C1375 C -0.03603 -0.11487 -0.04305
 C1376 C -0.03953 -0.10761 -0.02987
 C1377 C -0.03293 -0.09277 -0.02505
 C1378 C -0.04029 -0.08471 -0.01321
 C1379 C -0.03474 -0.07067 -0.00823
 C1380 C -0.02158 -0.06429 -0.01492
 C1381 C -0.01404 -0.07242 -0.02664
 C1382 C -0.01959 -0.08654 -0.03161
 H1383 H -0.04875 -0.14910 -0.08124
 H1384 H -0.03669 -0.12624 -0.07182
 H1385 H -0.05128 -0.13676 -0.02556
 H1386 H -0.06299 -0.15977 -0.03461
 H1387 H -0.02813 -0.10970 -0.05105
 H1388 H -0.04831 -0.11226 -0.02249
 H1389 H -0.05051 -0.08922 -0.00786
 H1390 H -0.04089 -0.06476 0.00081
 H1391 H -0.00383 -0.06789 -0.03199
 H1392 H -0.01326 -0.09249 -0.04044
 C1393 C -0.03021 0.33419 0.44747
 C1394 C -0.02293 0.34712 0.45331
 C1395 C -0.03072 0.35725 0.46297
 C1396 C -0.04605 0.35415 0.46673
 C1397 C -0.05334 0.34120 0.46098
 C1398 C -0.04565 0.33099 0.45107
 C1399 C -0.02280 0.37133 0.46804
 C1400 C -0.02737 0.37978 0.48009
 C1401 C -0.02049 0.39459 0.48454
 C1402 C -0.02478 0.40107 0.49870
 C1403 C -0.01972 0.41553 0.50292
 C1404 C -0.01020 0.42390 0.49306
 C1405 C -0.00554 0.41730 0.47905
 C1406 C -0.01068 0.40286 0.47478
 H1407 H -0.02345 0.32656 0.44047
 H1408 H -0.01111 0.34920 0.45023
 H1409 H -0.05273 0.36194 0.47361
 H1410 H -0.06533 0.33983 0.46368
 H1411 H -0.01275 0.37459 0.46160
 H1412 H -0.03665 0.37574 0.48723
 H1413 H -0.03234 0.39504 0.50644
 H1414 H -0.02352 0.42025 0.51380
 H1415 H 0.00166 0.42350 0.47111
 H1416 H -0.00732 0.39857 0.46360
 C1417 C 0.45049 -0.13996 0.42959
 C1418 C 0.45696 -0.12672 0.43564
 C1419 C 0.45669 -0.12374 0.45152
 C1420 C 0.45004 -0.13453 0.46134
 C1421 C 0.44351 -0.14778 0.45532
 C1422 C 0.44353 -0.15080 0.43929
 C1423 C 0.46383 -0.10952 0.45729
 C1424 C 0.46080 -0.10326 0.47111
 C1425 C 0.46769 -0.08875 0.47645
 C1426 C 0.46006 -0.08020 0.48775
 C1427 C 0.46597 -0.06629 0.49280
 C1428 C 0.47974 -0.06065 0.48671
 C1429 C 0.48761 -0.06944 0.47571
 C1430 C 0.48171 -0.08334 0.47070
 H1431 H 0.45045 -0.14121 0.41719
 H1432 H 0.46202 -0.11862 0.42779
 H1433 H 0.45013 -0.13302 0.47371
 H1434 H 0.43907 -0.15590 0.46349
 H1435 H 0.47129 -0.10361 0.44939
 H1436 H 0.45228 -0.10837 0.47849
 H1437 H 0.44932 -0.08417 0.49250
 H1438 H 0.45960 -0.05984 0.50129
 H1439 H 0.49833 -0.06555 0.47089
 H1440 H 0.48828 -0.08983 0.46243
 C1441 C 0.46364 0.34288 -0.05765
 C1442 C 0.47057 0.35580 -0.05138
 C1443 C 0.46230 0.36586 -0.04201
 C1444 C 0.44682 0.36265 -0.03903
 C1445 C 0.43988 0.34967 -0.04519
 C1446 C 0.44809 0.33952 -0.05476
 C1447 C 0.47007 0.37985 -0.03635
 C1448 C 0.46465 0.38882 -0.02503
 C1449 C 0.47191 0.40333 -0.02008
 C1450 C 0.46687 0.41022 -0.00635
 C1451 C 0.47258 0.42435 -0.00169
 C1452 C 0.48351 0.43196 -0.01067
 C1453 C 0.48876 0.42498 -0.02428
 C1454 C 0.48299 0.41091 -0.02899
 H1455 H 0.47078 0.33533 -0.06435
 H1456 H 0.48251 0.35794 -0.05389
 H1457 H 0.43979 0.37032 -0.03237
 H1458 H 0.42779 0.34818 -0.04304
 H1459 H 0.48087 0.38260 -0.04172
 H1460 H 0.45448 0.38543 -0.01886
 H1461 H 0.45829 0.40474 0.00071
 H1462 H 0.46822 0.42940 0.00882
 H1463 H 0.49702 0.43060 -0.03161
 H1464 H 0.48696 0.40638 -0.03985
 C1465 C 0.78326 0.41123 0.45922
 C1466 C 0.77686 0.39765 0.46442
 C1467 C 0.78624 0.38532 0.46822
 C1468 C 0.80219 0.38679 0.46660
 C1469 C 0.80857 0.40035 0.46141
 C1470 C 0.79918 0.41269 0.45761
 C1471 C 0.77903 0.37085 0.47287
 C1472 C 0.78633 0.36030 0.48118
 C1473 C 0.77975 0.34526 0.48484
 C1474 C 0.78604 0.33701 0.49709
 C1475 C 0.78092 0.32237 0.50031
 C1476 C 0.76942 0.31559 0.49125
 C1477 C 0.76301 0.32391 0.47906
 C1478 C 0.76815 0.33855 0.47584
 H1479 H 0.77575 0.42058 0.45644
 H1480 H 0.76454 0.39676 0.46543
 H1481 H 0.80979 0.37739 0.46882
 H1482 H 0.82085 0.40100 0.45991
 H1483 H 0.76723 0.36906 0.46954
 H1484 H 0.79758 0.36278 0.48578
 H1485 H 0.79508 0.34186 0.50410
 H1486 H 0.78614 0.31630 0.50977
 H1487 H 0.75423 0.31900 0.47177
 H1488 H 0.76333 0.34432 0.46599
 C1489 C 0.80264 0.89907 -0.03729
 C1490 C 0.79673 0.88545 -0.03172
 C1491 C 0.78932 0.87519 -0.04158
 C1492 C 0.78772 0.87901 -0.05724
 C1493 C 0.79350 0.89271 -0.06283
 C1494 C 0.80135 0.90292 -0.05304
 C1495 C 0.78426 0.86042 -0.03517
 C1496 C 0.77487 0.85071 -0.04248
 C1497 C 0.77061 0.83562 -0.03630
 C1498 C 0.75772 0.82826 -0.04244
 C1499 C 0.75361 0.81378 -0.03747
 C1500 C 0.76234 0.80626 -0.02624
 C1501 C 0.77524 0.81362 -0.02004
 C1502 C 0.77940 0.82808 -0.02507
 H1503 H 0.80788 0.90668 -0.02902
 H1504 H 0.79806 0.88288 -0.01958
 H1505 H 0.78252 0.87131 -0.06543
 H1506 H 0.79259 0.89469 -0.07510
 H1507 H 0.78836 0.85765 -0.02376
 H1508 H 0.76970 0.85392 -0.05330
 H1509 H 0.75082 0.83372 -0.05119
 H1510 H 0.74361 0.80845 -0.04252
 H1511 H 0.78234 0.80808 -0.01152
 H1512 H 0.78972 0.83304 -0.02039
 C1513 C 0.78452 0.30850 0.34596
 C1514 C 0.77817 0.30294 0.35961
 C1515 C 0.78760 0.29821 0.37177
 C1516 C 0.80358 0.29929 0.37005
 C1517 C 0.80992 0.30483 0.35640
 C1518 C 0.80047 0.30954 0.34422
 C1519 C 0.78040 0.29297 0.38630
 C1520 C 0.78750 0.28395 0.39645
 C1521 C 0.78070 0.27913 0.41132
 C1522 C 0.78689 0.26644 0.41875
 C1523 C 0.78146 0.26194 0.43317
 C1524 C 0.76975 0.27010 0.44057
 C1525 C 0.76346 0.28275 0.43308
 C1526 C 0.76890 0.28726 0.41865
 H1527 H 0.77694 0.31194 0.33674
 H1528 H 0.76584 0.30234 0.36067
 H1529 H 0.81126 0.29631 0.37933
 H1530 H 0.82224 0.30584 0.35555
 H1531 H 0.76867 0.29631 0.38833
 H1532 H 0.79869 0.27947 0.39366
 H1533 H 0.79606 0.26004 0.41344
 H1534 H 0.78662 0.25216 0.43859
 H1535 H 0.75453 0.28939 0.43851
 H1536 H 0.76412 0.29738 0.41356
 C1537 C 0.80135 0.81191 -0.14571
 C1538 C 0.79446 0.80543 -0.13284
 C1539 C 0.79180 0.78976 -0.13221
 C1540 C 0.79638 0.78063 -0.14475
 C1541 C 0.80333 0.78716 -0.15768
 C1542 C 0.80567 0.80290 -0.15835
 C1543 C 0.78375 0.78374 -0.11850
 C1544 C 0.78367 0.76913 -0.11428
 C1545 C 0.77623 0.76407 -0.09983
 C1546 C 0.78251 0.75186 -0.09171
 C1547 C 0.77661 0.74773 -0.07735
 C1548 C 0.76419 0.75566 -0.07088
 C1549 C 0.75736 0.76732 -0.07947
 C1550 C 0.76327 0.77145 -0.09380
 H1551 H 0.80322 0.82405 -0.14581
 H1552 H 0.79110 0.81273 -0.12336
 H1553 H 0.79426 0.76855 -0.14488
 H1554 H 0.80641 0.77998 -0.16735
 H1555 H 0.77830 0.79201 -0.11105
 H1556 H 0.79023 0.76088 -0.12072
 H1557 H 0.79236 0.74587 -0.09622
 H1558 H 0.78210 0.73862 -0.07111
 H1559 H 0.74766 0.77354 -0.07496
 H1560 H 0.75776 0.78053 -0.10005
 C1561 C 0.28824 0.44166 0.90312
 C1562 C 0.28208 0.44744 0.88945
 C1563 C 0.29168 0.45220 0.87742
 C1564 C 0.30761 0.45070 0.87921
 C1565 C 0.31375 0.44496 0.89286
 C1566 C 0.30415 0.44046 0.90501
 C1567 C 0.28468 0.45805 0.86301
 C1568 C 0.29212 0.46703 0.85302
 C1569 C 0.28543 0.47257 0.83833
 C1570 C 0.29232 0.48500 0.83100
 C1571 C 0.28684 0.49023 0.81683
 C1572 C 0.27434 0.48309 0.80961
 C1573 C 0.26743 0.47065 0.81695
 C1574 C 0.27293 0.46541 0.83110
 H1575 H 0.28056 0.43831 0.91229
 H1576 H 0.26977 0.44830 0.88832
 H1577 H 0.31540 0.45362 0.87001
 H1578 H 0.32604 0.44378 0.89381
 H1579 H 0.27280 0.45524 0.86097
 H1580 H 0.30352 0.47096 0.85584
 H1581 H 0.30205 0.49065 0.83622
 H1582 H 0.29250 0.49978 0.81149
 H1583 H 0.25790 0.46475 0.81165
 H1584 H 0.26758 0.45550 0.83603
 C1585 C 0.31506 -0.03903 0.40230
 C1586 C 0.31034 -0.03238 0.38852
 C1587 C 0.29491 -0.03243 0.38417
 C1588 C 0.28416 -0.03904 0.39417
 C1589 C 0.28885 -0.04581 0.40793
 C1590 C 0.30443 -0.04599 0.41231
 C1591 C 0.29064 -0.02537 0.36925
 C1592 C 0.27749 -0.02825 0.36180
 C1593 C 0.27367 -0.02205 0.34637
 C1594 C 0.26230 -0.02937 0.33767
 C1595 C 0.25847 -0.02426 0.32296
 C1596 C 0.26590 -0.01161 0.31657
 C1597 C 0.27708 -0.00406 0.32538
 C1598 C 0.28088 -0.00915 0.34016
 H1599 H 0.32721 -0.03926 0.40458
 H1600 H 0.31890 -0.02739 0.38105
 H1601 H 0.27206 -0.03880 0.39164
 H1602 H 0.28005 -0.05030 0.41538
 H1603 H 0.29919 -0.01830 0.36385
 H1604 H 0.26949 -0.03630 0.36660
 H1605 H 0.25647 -0.03925 0.34219
 H1606 H 0.24980 -0.03038 0.31653
 H1607 H 0.28293 0.00580 0.32086
 H1608 H 0.28934 -0.00284 0.34663
 C1609 C -0.03269 -0.05747 -0.15357
 C1610 C -0.02686 -0.05216 -0.13955
 C1611 C -0.03623 -0.04450 -0.12901
 C1612 C -0.05167 -0.04214 -0.13288
 C1613 C -0.05753 -0.04735 -0.14696
 C1614 C -0.04822 -0.05533 -0.15754
 C1615 C -0.02959 -0.03992 -0.11390
 C1616 C -0.03609 -0.02991 -0.10423
 C1617 C -0.02973 -0.02588 -0.08885
 C1618 C -0.03491 -0.01260 -0.08159
 C1619 C -0.02979 -0.00865 -0.06684
 C1620 C -0.01935 -0.01793 -0.05895
 C1621 C -0.01410 -0.03121 -0.06622
 C1622 C -0.01928 -0.03520 -0.08095
 H1623 H -0.02476 -0.06288 -0.16141
 H1624 H -0.01489 -0.05409 -0.13694
 H1625 H -0.05950 -0.03676 -0.12493
 H1626 H -0.06964 -0.04582 -0.14898
 H1627 H -0.01867 -0.04484 -0.11091
 H1628 H -0.04633 -0.02399 -0.10774
 H1629 H -0.04305 -0.00527 -0.08732
 H1630 H -0.03413 0.00164 -0.06158
 H1631 H -0.00622 -0.03874 -0.06039
 H1632 H -0.01535 -0.04579 -0.08583
 C1633 C -0.04868 0.46004 0.34846
 C1634 C -0.04264 0.46554 0.36232
 C1635 C -0.03839 0.45554 0.37411
 C1636 C -0.04031 0.43985 0.37172
 C1637 C -0.04634 0.43436 0.35784
 C1638 C -0.05071 0.44440 0.34611
 C1639 C -0.03289 0.46194 0.38897
 C1640 C -0.02456 0.45409 0.39917
 C1641 C -0.01974 0.46022 0.41438
 C1642 C -0.00739 0.45339 0.42198
 C1643 C -0.00297 0.45822 0.43669
 C1644 C -0.01090 0.46998 0.44422
 C1645 C -0.02322 0.47690 0.43657
 C1646 C -0.02764 0.47206 0.42186
 H1647 H -0.05181 0.46805 0.33958
 H1648 H -0.04137 0.47766 0.36388
 H1649 H -0.03768 0.43177 0.38068
 H1650 H -0.04807 0.42226 0.35649
 H1651 H -0.03554 0.47371 0.39129
 H1652 H -0.02067 0.44281 0.39622
 H1653 H -0.00119 0.44417 0.41656
 H1654 H 0.00654 0.45257 0.44223
 H1655 H -0.02969 0.48587 0.44208
 H1656 H -0.03752 0.47732 0.41664
 C1657 C 0.46554 -0.05267 0.34520
 C1658 C 0.47202 -0.04779 0.35909
 C1659 C 0.46272 -0.04399 0.37169
 C1660 C 0.44672 -0.04521 0.37011
 C1661 C 0.44025 -0.05009 0.35620
 C1662 C 0.44959 -0.05400 0.34363
 C1663 C 0.47012 -0.03944 0.38641
 C1664 C 0.46313 -0.03091 0.39711
 C1665 C 0.47034 -0.02625 0.41187
 C1666 C 0.46448 -0.01352 0.41954
 C1667 C 0.47039 -0.00898 0.43376
 C1668 C 0.48229 -0.01718 0.44081
 C1669 C 0.48822 -0.02995 0.43313
 C1670 C 0.48230 -0.03447 0.41882
 H1671 H 0.47304 -0.05546 0.33567
 H1672 H 0.48436 -0.04701 0.36001
 H1673 H 0.43916 -0.04287 0.37969
 H1674 H 0.42794 -0.05131 0.35544
 H1675 H 0.48194 -0.04269 0.38807
 H1676 H 0.45183 -0.02647 0.39475
 H1677 H 0.45521 -0.00705 0.41452
 H1678 H 0.46545 0.00087 0.43933
 H1679 H 0.49725 -0.03661 0.43830
 H1680 H 0.48683 -0.04462 0.41349
 C1681 C 0.45247 0.46534 -0.15669
 C1682 C 0.45718 0.47039 -0.14215
 C1683 C 0.46046 0.45999 -0.13039
 C1684 C 0.45875 0.44440 -0.13342
 C1685 C 0.45409 0.43937 -0.14796
 C1686 C 0.45090 0.44977 -0.15974
 C1687 C 0.46488 0.46583 -0.11498
 C1688 C 0.47251 0.45757 -0.10455
 C1689 C 0.47647 0.46327 -0.08896
 C1690 C 0.48869 0.45656 -0.08103
 C1691 C 0.49264 0.46147 -0.06621
 C1692 C 0.48436 0.47315 -0.05897
 C1693 C 0.47195 0.47968 -0.06683
 C1694 C 0.46800 0.47477 -0.08162
 H1695 H 0.45011 0.47360 -0.16559
 H1696 H 0.45826 0.48246 -0.14007
 H1697 H 0.46057 0.43603 -0.12454
 H1698 H 0.45258 0.42731 -0.14986
 H1699 H 0.46214 0.47754 -0.11243
 H1700 H 0.47659 0.44639 -0.10763
 H1701 H 0.49526 0.44755 -0.08635
 H1702 H 0.50221 0.45612 -0.06046
 H1703 H 0.46519 0.48856 -0.06153
 H1704 H 0.45814 0.47982 -0.08710
 C1705 C 0.42927 0.80475 0.38686
 C1706 C 0.43405 0.79850 0.37285
 C1707 C 0.44966 0.79733 0.36928
 C1708 C 0.46044 0.80288 0.38003
 C1709 C 0.45565 0.80911 0.39407
 C1710 C 0.44002 0.81005 0.39768
 C1711 C 0.45400 0.79065 0.35413
 C1712 C 0.46823 0.78630 0.35039
 C1713 C 0.47231 0.78025 0.33497
 C1714 C 0.48716 0.78274 0.32944
 C1715 C 0.49144 0.77757 0.31484
 C1716 C 0.48102 0.76951 0.30553
 C1717 C 0.46628 0.76659 0.31125
 C1718 C 0.46194 0.77193 0.32582
 H1719 H 0.41713 0.80556 0.38918
 H1720 H 0.42547 0.79451 0.36477
 H1721 H 0.47257 0.80264 0.37771
 H1722 H 0.46421 0.81302 0.40220
 H1723 H 0.44497 0.78937 0.34568
 H1724 H 0.47749 0.78771 0.35852
 H1725 H 0.49540 0.78897 0.33633
 H1726 H 0.50293 0.77990 0.31083
 H1727 H 0.45801 0.76039 0.30436
 H1728 H 0.45054 0.76940 0.32992
 C1729 C -0.05968 0.78570 0.90127
 C1730 C -0.05449 0.77866 0.88778
 C1731 C -0.04970 0.78733 0.87514
 C1732 C -0.05054 0.80324 0.87615
 C1733 C -0.05575 0.81028 0.88962
 C1734 C -0.06034 0.80160 0.90235
 C1735 C -0.04437 0.77946 0.86098
 C1736 C -0.03456 0.78580 0.85102
 C1737 C -0.02910 0.77836 0.83667
 C1738 C -0.01581 0.78402 0.82971
 C1739 C -0.01062 0.77807 0.81573
 C1740 C -0.01866 0.76632 0.80827
 C1741 C -0.03190 0.76050 0.81531
 C1742 C -0.03710 0.76647 0.82934
 H1743 H -0.06305 0.77870 0.91092
 H1744 H -0.05407 0.76640 0.88727
 H1745 H -0.04752 0.81032 0.86646
 H1746 H -0.05648 0.82253 0.88996
 H1747 H -0.04811 0.76789 0.85921
 H1748 H -0.02977 0.79683 0.85369
 H1749 H -0.00947 0.79321 0.83503
 H1750 H -0.00040 0.78289 0.81067
 H1751 H -0.03846 0.75157 0.80979
 H1752 H -0.04762 0.76205 0.83409
 C1753 C 0.34500 0.79108 0.30091
 C1754 C 0.35813 0.78419 0.29489
 C1755 C 0.37071 0.79296 0.29024
 C1756 C 0.37000 0.80881 0.29203
 C1757 C 0.35689 0.81569 0.29805
 C1758 C 0.34421 0.80693 0.30252
 C1759 C 0.38455 0.78516 0.28425
 C1760 C 0.39490 0.79189 0.27510
 C1761 C 0.40909 0.78441 0.26951
 C1762 C 0.41673 0.79061 0.25677
 C1763 C 0.43059 0.78450 0.25164
 C1764 C 0.43720 0.77205 0.25920
 C1765 C 0.42948 0.76575 0.27188
 C1766 C 0.41564 0.77187 0.27702
 H1767 H 0.33539 0.78402 0.30413
 H1768 H 0.35841 0.77196 0.29377
 H1769 H 0.37964 0.81595 0.28916
 H1770 H 0.35678 0.82789 0.29949
 H1771 H 0.38586 0.77331 0.28711
 H1772 H 0.39279 0.80330 0.27110
 H1773 H 0.41204 0.80034 0.25085
 H1774 H 0.43624 0.78973 0.24190
 H1775 H 0.43431 0.75629 0.27812
 H1776 H 0.41042 0.76701 0.28716
 C1777 C -0.14304 0.81620 0.79594
 C1778 C -0.12968 0.81105 0.78886
 C1779 C -0.12766 0.79560 0.78557
 C1780 C -0.13948 0.78538 0.78933
 C1781 C -0.15286 0.79055 0.79647
 C1782 C -0.15478 0.80602 0.79981
 C1783 C -0.11314 0.79078 0.77817
 C1784 C -0.10774 0.77657 0.77866
 C1785 C -0.09255 0.77216 0.77250
 C1786 C -0.08536 0.75936 0.77869
 C1787 C -0.07079 0.75509 0.77379
 C1788 C -0.06307 0.76346 0.76242
 C1789 C -0.07045 0.77602 0.75583
 C1790 C -0.08506 0.78031 0.76078
 H1791 H -0.14411 0.82817 0.79855
 H1792 H -0.12081 0.81918 0.78608
 H1793 H -0.13863 0.77345 0.78658
 H1794 H -0.16183 0.78250 0.79913
 H1795 H -0.10617 0.79960 0.77312
 H1796 H -0.11402 0.76799 0.78489
 H1797 H -0.09092 0.75280 0.78762
 H1798 H -0.06553 0.74530 0.77908
 H1799 H -0.06488 0.78264 0.74697
 H1800 H -0.09042 0.78995 0.75533
 C1801 C 0.90970 0.27716 0.45303
 C1802 C 0.89614 0.27122 0.45903
 C1803 C 0.88487 0.28083 0.46515
 C1804 C 0.88754 0.29659 0.46527
 C1805 C 0.90112 0.30252 0.45929
 C1806 C 0.91226 0.29289 0.45294
 C1807 C 0.87014 0.27413 0.47021
 C1808 C 0.86039 0.28116 0.47979
 C1809 C 0.84505 0.27517 0.48382
 C1810 C 0.83762 0.28110 0.49684
 C1811 C 0.82269 0.27674 0.50043
 C1812 C 0.81475 0.26636 0.49100
 C1813 C 0.82228 0.26019 0.47810
 C1814 C 0.83722 0.26458 0.47450
 H1815 H 0.91814 0.26945 0.44833
 H1816 H 0.89435 0.25907 0.45871
 H1817 H 0.87899 0.30446 0.46938
 H1818 H 0.90264 0.31470 0.45909
 H1819 H 0.86744 0.26289 0.46598
 H1820 H 0.86375 0.29175 0.48515
 H1821 H 0.84332 0.28935 0.50416
 H1822 H 0.81726 0.28175 0.51045
 H1823 H 0.81647 0.25228 0.47051
 H1824 H 0.84231 0.26005 0.46410
 C1825 C 0.89000 0.81410 -0.04966
 C1826 C 0.87658 0.80832 -0.04318
 C1827 C 0.87443 0.79262 -0.04164
 C1828 C 0.88627 0.78280 -0.04624
 C1829 C 0.89970 0.78859 -0.05273
 C1830 C 0.90166 0.80429 -0.05465
 C1831 C 0.85978 0.78707 -0.03507
 C1832 C 0.85422 0.77305 -0.03747
 C1833 C 0.83904 0.76801 -0.03174
 C1834 C 0.83146 0.75615 -0.03944
 C1835 C 0.81683 0.75156 -0.03486
 C1836 C 0.80948 0.75869 -0.02238
 C1837 C 0.81733 0.77017 -0.01429
 C1838 C 0.83195 0.77473 -0.01885
 H1839 H 0.89109 0.82624 -0.05112
 H1840 H 0.86771 0.81615 -0.03964
 H1841 H 0.88533 0.77067 -0.04475
 H1842 H 0.90861 0.78077 -0.05618
 H1843 H 0.85290 0.79528 -0.02891
 H1844 H 0.86040 0.76525 -0.04483
 H1845 H 0.83673 0.75065 -0.04929
 H1846 H 0.81115 0.74266 -0.04134
 H1847 H 0.81212 0.77579 -0.00449
 H1848 H 0.83762 0.78349 -0.01221
 C1849 C -0.14535 -0.06938 -0.04662
 C1850 C -0.13181 -0.06425 -0.03986
 C1851 C -0.12935 -0.04872 -0.03729
 C1852 C -0.14090 -0.03839 -0.04145
 C1853 C -0.15447 -0.04355 -0.04826
 C1854 C -0.15684 -0.05910 -0.05088
 C1855 C -0.11474 -0.04395 -0.03004
 C1856 C -0.10893 -0.02992 -0.03110
 C1857 C -0.09379 -0.02567 -0.02468
 C1858 C -0.08583 -0.01354 -0.03134
 C1859 C -0.07127 -0.00953 -0.02608
 C1860 C -0.06438 -0.01750 -0.01390
 C1861 C -0.07256 -0.02935 -0.00689
 C1862 C -0.08713 -0.03335 -0.01217
 H1863 H -0.14677 -0.08142 -0.04868
 H1864 H -0.12314 -0.07246 -0.03674
 H1865 H -0.13970 -0.02638 -0.03925
 H1866 H -0.16325 -0.03540 -0.05123
 H1867 H -0.10810 -0.05270 -0.02447
 H1868 H -0.11482 -0.02147 -0.03787
 H1869 H -0.09076 -0.00734 -0.04089
 H1870 H -0.06535 -0.00031 -0.03172
 H1871 H -0.06767 -0.03563 0.00261
 H1872 H -0.09313 -0.04239 -0.00634
 C1873 C -0.15392 0.46566 0.45526
 C1874 C -0.13958 0.47048 0.46048
 C1875 C -0.12945 0.46032 0.46751
 C1876 C -0.13399 0.44513 0.46920
 C1877 C -0.14835 0.44030 0.46410
 C1878 C -0.15861 0.45042 0.45690
 C1879 C -0.11403 0.46581 0.47206
 C1880 C -0.10476 0.45842 0.48183
 C1881 C -0.08896 0.46340 0.48561
 C1882 C -0.08181 0.45737 0.49872
 C1883 C -0.06672 0.46121 0.50237
 C1884 C -0.05840 0.47118 0.49295
 C1885 C -0.06555 0.47723 0.47982
 C1886 C -0.08060 0.47332 0.47612
 H1887 H -0.16141 0.47411 0.45036
 H1888 H -0.13639 0.48226 0.45901
 H1889 H -0.12636 0.43673 0.47395
 H1890 H -0.15088 0.42834 0.46507
 H1891 H -0.11041 0.47655 0.46731
 H1892 H -0.10889 0.44842 0.48766
 H1893 H -0.08791 0.44959 0.50614
 H1894 H -0.06157 0.45633 0.51256
 H1895 H -0.05943 0.48479 0.47219
 H1896 H -0.08541 0.47783 0.46561
 C1897 C 0.35306 -0.06103 0.45981
 C1898 C 0.36695 -0.05644 0.46627
 C1899 C 0.37053 -0.04099 0.46774
 C1900 C 0.35966 -0.03017 0.46308
 C1901 C 0.34576 -0.03477 0.45660
 C1902 C 0.34238 -0.05025 0.45477
 C1903 C 0.38562 -0.03670 0.47424
 C1904 C 0.39253 -0.02344 0.47131
 C1905 C 0.40811 -0.01963 0.47687
 C1906 C 0.41668 -0.00885 0.46874
 C1907 C 0.43158 -0.00524 0.47330
 C1908 C 0.43821 -0.01227 0.48620
 C1909 C 0.42947 -0.02278 0.49458
 C1910 C 0.41457 -0.02638 0.49003
 H1911 H 0.35082 -0.07304 0.45844
 H1912 H 0.37507 -0.06500 0.46987
 H1913 H 0.36173 -0.01816 0.46455
 H1914 H 0.33759 -0.02622 0.45313
 H1915 H 0.39164 -0.04528 0.48072
 H1916 H 0.38714 -0.01543 0.46360
 H1917 H 0.41193 -0.00339 0.45865
 H1918 H 0.43795 0.00293 0.46658
 H1919 H 0.43415 -0.02830 0.50467
 H1920 H 0.40815 -0.03433 0.49694
 C1921 C 0.34743 0.45794 -0.05637
 C1922 C 0.36081 0.46447 -0.05050
 C1923 C 0.37148 0.45573 -0.04241
 C1924 C 0.36853 0.44021 -0.04037
 C1925 C 0.35513 0.43366 -0.04614
 C1926 C 0.34430 0.44236 -0.05436
 C1927 C 0.38587 0.46303 -0.03710
 C1928 C 0.39505 0.45718 -0.02624
 C1929 C 0.40991 0.46398 -0.02163
 C1930 C 0.41659 0.45949 -0.00765
 C1931 C 0.43095 0.46499 -0.00322
 C1932 C 0.43899 0.47511 -0.01273
 C1933 C 0.43227 0.47966 -0.02670
 C1934 C 0.41797 0.47411 -0.03116
 H1935 H 0.33939 0.46538 -0.06203
 H1936 H 0.36279 0.47646 -0.05227
 H1937 H 0.37672 0.43287 -0.03480
 H1938 H 0.35383 0.42155 -0.04481
 H1939 H 0.38871 0.47384 -0.04221
 H1940 H 0.39150 0.44711 -0.02012
 H1941 H 0.41073 0.45159 -0.00017
 H1942 H 0.43580 0.46119 0.00758
 H1943 H 0.43823 0.48727 -0.03442
 H1944 H 0.41356 0.47748 -0.04227
 C1945 C 0.41121 0.46797 0.79645
 C1946 C 0.39769 0.47428 0.79076
 C1947 C 0.38572 0.46495 0.78555
 C1948 C 0.38758 0.44910 0.78613
 C1949 C 0.40112 0.44281 0.79176
 C1950 C 0.41303 0.45217 0.79709
 C1951 C 0.37119 0.47211 0.78060
 C1952 C 0.36068 0.46506 0.77184
 C1953 C 0.34564 0.47175 0.76788
 C1954 C 0.33746 0.46570 0.75536
 C1955 C 0.32286 0.47106 0.75174
 C1956 C 0.31606 0.48256 0.76066
 C1957 C 0.32428 0.48868 0.77317
 C1958 C 0.33886 0.48330 0.77680
 H1959 H 0.42024 0.47546 0.80041
 H1960 H 0.39652 0.48650 0.79056
 H1961 H 0.37848 0.44147 0.78278
 H1962 H 0.40205 0.43059 0.79245
 H1963 H 0.36932 0.48372 0.78417
 H1964 H 0.36319 0.45400 0.76705
 H1965 H 0.34234 0.45670 0.74839
 H1966 H 0.31685 0.46603 0.74206
 H1967 H 0.31932 0.49742 0.78041
 H1968 H 0.34450 0.48793 0.78687
 C1969 C 0.40637 -0.05261 0.28706
 C1970 C 0.39263 -0.04715 0.28098
 C1971 C 0.38058 -0.04285 0.29073
 C1972 C 0.38252 -0.04431 0.30679
 C1973 C 0.39627 -0.04977 0.31287
 C1974 C 0.40834 -0.05403 0.30308
 C1975 C 0.36604 -0.03752 0.28373
 C1976 C 0.35587 -0.02882 0.29124
 C1977 C 0.34125 -0.02347 0.28441
 C1978 C 0.33398 -0.01093 0.29117
 C1979 C 0.31994 -0.00578 0.28557
 C1980 C 0.31271 -0.01312 0.27310
 C1981 C 0.31999 -0.02570 0.26631
 C1982 C 0.33407 -0.03085 0.27191
 H1983 H 0.41550 -0.05567 0.27920
 H1984 H 0.39143 -0.04624 0.26858
 H1985 H 0.37336 -0.04164 0.31471
 H1986 H 0.39731 -0.05103 0.32524
 H1987 H 0.36407 -0.04038 0.27174
 H1988 H 0.35855 -0.02482 0.30275
 H1989 H 0.33916 -0.00510 0.30087
 H1990 H 0.31468 0.00389 0.29118
 H1991 H 0.31468 -0.03173 0.25680
 H1992 H 0.33904 -0.04083 0.26665
 C1993 C 0.09190 0.52977 0.70935
 C1994 C 0.10589 0.52394 0.71439
 C1995 C 0.11804 0.53367 0.71823
 C1996 C 0.11590 0.54943 0.71692
 C1997 C 0.10192 0.55525 0.71191
 C1998 C 0.08981 0.54550 0.70798
 C1999 C 0.13300 0.52701 0.72251
 C2000 C 0.14378 0.53461 0.73040
 C2001 C 0.15925 0.52854 0.73357
 C2002 C 0.16797 0.53523 0.74537
 C2003 C 0.18298 0.53056 0.74812
 C2004 C 0.18967 0.51912 0.73903
 C2005 C 0.18090 0.51231 0.72729
 C2006 C 0.16589 0.51700 0.72453
 H2007 H 0.08274 0.52199 0.70646
 H2008 H 0.10727 0.51176 0.71517
 H2009 H 0.12510 0.55733 0.71918
 H2010 H 0.10076 0.56740 0.71060
 H2011 H 0.13499 0.51534 0.71919
 H2012 H 0.14120 0.54574 0.73500
 H2013 H 0.16319 0.54423 0.75240
 H2014 H 0.18939 0.53609 0.75724
 H2015 H 0.18573 0.50356 0.71998
 H2016 H 0.15979 0.51187 0.71500
 C2017 C 0.09315 0.03505 0.20329
 C2018 C 0.10727 0.02929 0.20806
 C2019 C 0.11955 0.03908 0.21124
 C2020 C 0.11747 0.05479 0.20937
 C2021 C 0.10335 0.06053 0.20461
 C2022 C 0.09105 0.05073 0.20148
 C2023 C 0.13447 0.03249 0.21583
 C2024 C 0.14498 0.04022 0.22398
 C2025 C 0.16009 0.03399 0.22842
 C2026 C 0.16798 0.04088 0.24067
 C2027 C 0.18255 0.03594 0.24487
 C2028 C 0.18968 0.02401 0.23682
 C2029 C 0.18177 0.01704 0.22457
 C2030 C 0.16715 0.02199 0.22037
 H2031 H 0.08384 0.02722 0.20107
 H2032 H 0.10859 0.01715 0.20931
 H2033 H 0.12678 0.06268 0.21114
 H2034 H 0.10219 0.07264 0.20297
 H2035 H 0.13650 0.02073 0.21290
 H2036 H 0.14227 0.05148 0.22814
 H2037 H 0.16288 0.05021 0.24699
 H2038 H 0.18829 0.04162 0.25434
 H2039 H 0.18697 0.00792 0.21803
 H2040 H 0.16166 0.01666 0.21057
 C2041 C 0.65728 0.71772 0.19592
 C2042 C 0.64345 0.72403 0.20082
 C2043 C 0.63181 0.71484 0.20687
 C2044 C 0.63437 0.69910 0.20796
 C2045 C 0.64823 0.69281 0.20310
 C2046 C 0.65978 0.70202 0.19689
 C2047 C 0.61697 0.72198 0.21103
 C2048 C 0.60659 0.71550 0.22031
 C2049 C 0.59142 0.72221 0.22391
 C2050 C 0.58332 0.71661 0.23664
 C2051 C 0.56865 0.72190 0.24005
 C2052 C 0.56165 0.73293 0.23075
 C2053 C 0.56980 0.73868 0.21808
 C2054 C 0.58448 0.73334 0.21464
 H2055 H 0.66602 0.72512 0.19129
 H2056 H 0.64179 0.73615 0.19977
 H2057 H 0.62557 0.69150 0.21204
 H2058 H 0.64971 0.68064 0.20370
 H2059 H 0.61482 0.73317 0.20649
 H2060 H 0.60935 0.70492 0.22592
 H2061 H 0.58831 0.70797 0.24392
 H2062 H 0.56274 0.71719 0.24989
 H2063 H 0.56470 0.74705 0.21058
 H2064 H 0.59007 0.73767 0.20446
 C2065 C 0.14653 0.70198 0.68265
 C2066 C 0.13284 0.70865 0.68742
 C2067 C 0.12985 0.71107 0.70313
 C2068 C 0.14106 0.70698 0.71402
 C2069 C 0.15475 0.70024 0.70924
 C2070 C 0.15759 0.69763 0.69352
 C2071 C 0.11499 0.71794 0.70755
 C2072 C 0.10872 0.71652 0.72159
 C2073 C 0.09327 0.72225 0.72552
 C2074 C 0.08536 0.71543 0.73773
 C2075 C 0.07052 0.71997 0.74146
 C2076 C 0.06326 0.73158 0.73314
 C2077 C 0.07137 0.73878 0.72124
 C2078 C 0.08624 0.73422 0.71750
 H2079 H 0.14834 0.69998 0.67046
 H2080 H 0.12446 0.71175 0.67878
 H2081 H 0.13948 0.70911 0.72619
 H2082 H 0.16321 0.69727 0.71783
 H2083 H 0.10855 0.72341 0.69849
 H2084 H 0.11451 0.70987 0.73027
 H2085 H 0.09055 0.70630 0.74420
 H2086 H 0.06468 0.71421 0.75076
 H2087 H 0.06620 0.74786 0.71469
 H2088 H 0.09215 0.74015 0.70839
 C2089 C 0.60116 0.18998 0.53995
 C2090 C 0.61534 0.19473 0.53437
 C2091 C 0.61840 0.21016 0.53208
 C2092 C 0.60678 0.22080 0.53518
 C2093 C 0.59255 0.21604 0.54076
 C2094 C 0.58960 0.20058 0.54322
 C2095 C 0.63371 0.21455 0.52626
 C2096 C 0.63989 0.22833 0.52835
 C2097 C 0.65569 0.23220 0.52353
 C2098 C 0.66340 0.24388 0.53134
 C2099 C 0.67847 0.24758 0.52755
 C2100 C 0.68616 0.23974 0.51571
 C2101 C 0.67830 0.22831 0.50758
 C2102 C 0.66321 0.22461 0.51140
 H2103 H 0.59933 0.17801 0.54192
 H2104 H 0.62404 0.18629 0.53203
 H2105 H 0.60849 0.23276 0.53310
 H2106 H 0.58378 0.22443 0.54294
 H2107 H 0.64052 0.20568 0.52102
 H2108 H 0.63369 0.23681 0.53487
 H2109 H 0.65783 0.25000 0.54062
 H2110 H 0.68412 0.25650 0.53401
 H2111 H 0.68381 0.22213 0.49832
 H2112 H 0.65749 0.21589 0.50474
 C2113 C 0.58713 0.69657 0.02471
 C2114 C 0.60113 0.70109 0.01841
 C2115 C 0.61326 0.70561 0.02800
 C2116 C 0.61113 0.70537 0.04409
 C2117 C 0.59715 0.70086 0.05038
 C2118 C 0.58501 0.69635 0.04077
 C2119 C 0.62810 0.70981 0.02088
 C2120 C 0.63841 0.71876 0.02789
 C2121 C 0.65346 0.72285 0.02118
 C2122 C 0.66113 0.73555 0.02716
 C2123 C 0.67566 0.73948 0.02184
 C2124 C 0.68297 0.73074 0.01043
 C2125 C 0.67528 0.71804 0.00434
 C2126 C 0.66069 0.71410 0.00968
 H2127 H 0.57796 0.69325 0.01700
 H2128 H 0.60247 0.70107 0.00600
 H2129 H 0.62035 0.70821 0.05192
 H2130 H 0.59598 0.70046 0.06280
 H2131 H 0.63023 0.70582 0.00926
 H2132 H 0.63558 0.72386 0.03889
 H2133 H 0.65590 0.74242 0.03609
 H2134 H 0.68122 0.74931 0.02686
 H2135 H 0.68063 0.71096 -0.00433
 H2136 H 0.65538 0.70397 0.00507
 C2137 C 0.14647 0.06220 0.04384
 C2138 C 0.13277 0.05653 0.03780
 C2139 C 0.12856 0.04133 0.03990
 C2140 C 0.13863 0.03179 0.04795
 C2141 C 0.15231 0.03745 0.05411
 C2142 C 0.15653 0.05283 0.05227
 C2143 C 0.11372 0.03605 0.03333
 C2144 C 0.10672 0.02303 0.03721
 C2145 C 0.09147 0.01834 0.03119
 C2146 C 0.08306 0.00745 0.03939
 C2147 C 0.06844 0.00307 0.03452
 C2148 C 0.06186 0.00945 0.02126
 C2149 C 0.07046 0.01999 0.01275
 C2150 C 0.08511 0.02432 0.01758
 H2151 H 0.14866 0.07418 0.04242
 H2152 H 0.12527 0.06418 0.03165
 H2153 H 0.13623 0.01986 0.04936
 H2154 H 0.15981 0.02947 0.05977
 H2155 H 0.10802 0.04376 0.02556
 H2156 H 0.11179 0.01583 0.04587
 H2157 H 0.08771 0.00252 0.04981
 H2158 H 0.06218 -0.00508 0.04137
 H2159 H 0.06584 0.02500 0.00237
 H2160 H 0.09135 0.03228 0.01054
 C2161 C 0.14543 0.56587 0.54731
 C2162 C 0.13193 0.55928 0.54183
 C2163 C 0.13036 0.54346 0.54101
 C2164 C 0.14279 0.53432 0.54544
 C2165 C 0.15631 0.54092 0.55091
 C2166 C 0.15776 0.55677 0.55197
 C2167 C 0.11576 0.53705 0.53515
 C2168 C 0.11086 0.52296 0.53823
 C2169 C 0.09590 0.51701 0.53281
 C2170 C 0.08879 0.50534 0.54112
 C2171 C 0.07447 0.49976 0.53663
 C2172 C 0.06698 0.50567 0.52362
 C2173 C 0.07433 0.51704 0.51503
 C2174 C 0.08864 0.52259 0.51951
 H2175 H 0.14611 0.57810 0.54815
 H2176 H 0.12258 0.56658 0.53841
 H2177 H 0.14226 0.52210 0.54448
 H2178 H 0.16573 0.53362 0.55413
 H2179 H 0.10839 0.54467 0.52881
 H2180 H 0.11749 0.51578 0.54580
 H2181 H 0.09421 0.50072 0.55131
 H2182 H 0.06917 0.49099 0.54350
 H2183 H 0.06900 0.52175 0.50484
 H2184 H 0.09398 0.53117 0.51244
 C2185 C 0.64738 0.06574 0.54577
 C2186 C 0.63398 0.05980 0.53938
 C2187 C 0.63105 0.04419 0.53960
 C2188 C 0.64202 0.03454 0.54619
 C2189 C 0.65546 0.04046 0.55265
 C2190 C 0.65848 0.05622 0.55257
 C2191 C 0.61654 0.03862 0.53263
 C2192 C 0.61030 0.02500 0.53550
 C2193 C 0.59519 0.02022 0.52929
 C2194 C 0.58675 0.00926 0.53731
 C2195 C 0.57211 0.00505 0.53235
 C2196 C 0.56561 0.01165 0.51914
 C2197 C 0.57433 0.02217 0.51074
 C2198 C 0.58897 0.02636 0.51569
 H2199 H 0.64853 0.07794 0.54589
 H2200 H 0.62571 0.06754 0.53445
 H2201 H 0.64051 0.02238 0.54613
 H2202 H 0.66373 0.03247 0.55707
 H2203 H 0.61029 0.04660 0.52558
 H2204 H 0.61578 0.01746 0.54360
 H2205 H 0.59132 0.00421 0.54770
 H2206 H 0.56577 -0.00312 0.53909
 H2207 H 0.56977 0.02735 0.50041
 H2208 H 0.59533 0.03438 0.50882
 C2209 C 0.65738 0.53285 0.05369
 C2210 C 0.64437 0.52568 0.04778
 C2211 C 0.63210 0.53421 0.04205
 C2212 C 0.63318 0.55014 0.04223
 C2213 C 0.64621 0.55731 0.04815
 C2214 C 0.65835 0.54875 0.05413
 C2215 C 0.61804 0.52616 0.03703
 C2216 C 0.60772 0.53220 0.02741
 C2217 C 0.59308 0.52474 0.02322
 C2218 C 0.58543 0.52959 0.00992
 C2219 C 0.57105 0.52378 0.00612
 C2220 C 0.56388 0.51303 0.01564
 C2221 C 0.57165 0.50795 0.02884
 C2222 C 0.58607 0.51377 0.03264
 H2223 H 0.66663 0.52594 0.05809
 H2224 H 0.64381 0.51341 0.04784
 H2225 H 0.62380 0.55716 0.03840
 H2226 H 0.64651 0.56958 0.04861
 H2227 H 0.61638 0.51475 0.04124
 H2228 H 0.61013 0.54300 0.02206
 H2229 H 0.59052 0.53808 0.00253
 H2230 H 0.56543 0.52799 -0.00413
 H2231 H 0.56640 0.49979 0.03650
 H2232 H 0.59135 0.51004 0.04323
 C2233 C 0.03186 0.05051 0.16169
 C2234 C 0.02499 0.04444 0.14848
 C2235 C 0.03366 0.03664 0.13744
 C2236 C 0.04946 0.03498 0.13993
 C2237 C 0.05636 0.04096 0.15316
 C2238 C 0.04776 0.04901 0.16428
 C2239 C 0.02604 0.03135 0.12308
 C2240 C 0.03196 0.02079 0.11363
 C2241 C 0.02520 0.01649 0.09851
 C2242 C 0.03042 0.00322 0.09123
 C2243 C 0.02535 -0.00069 0.07645
 C2244 C 0.01494 0.00862 0.06857
 C2245 C 0.00947 0.02175 0.07596
 C2246 C 0.01460 0.02570 0.09071
 H2247 H 0.02449 0.05600 0.17001
 H2248 H 0.01278 0.04589 0.14687
 H2249 H 0.05674 0.02962 0.13145
 H2250 H 0.06866 0.03997 0.15401
 H2251 H 0.01506 0.03633 0.12043
 H2252 H 0.04224 0.01486 0.11703
 H2253 H 0.03866 -0.00404 0.09690
 H2254 H 0.02982 -0.01088 0.07111
 H2255 H 0.00157 0.02927 0.07017
 H2256 H 0.01058 0.03625 0.09560
 C2257 C 0.03340 0.54410 0.66499
 C2258 C 0.02755 0.53846 0.65109
 C2259 C 0.03741 0.53383 0.63921
 C2260 C 0.05331 0.53520 0.64143
 C2261 C 0.05915 0.54080 0.65532
 C2262 C 0.04927 0.54530 0.66725
 C2263 C 0.03078 0.52834 0.62446
 C2264 C 0.03841 0.51935 0.61461
 C2265 C 0.03227 0.51425 0.59950
 C2266 C 0.03914 0.50174 0.59225
 C2267 C 0.03430 0.49694 0.57768
 C2268 C 0.02250 0.50461 0.56994
 C2269 C 0.01558 0.51712 0.57721
 C2270 C 0.02044 0.52194 0.59179
 H2271 H 0.02552 0.54746 0.67401
 H2272 H 0.01526 0.53767 0.64962
 H2273 H 0.06131 0.53236 0.63237
 H2274 H 0.07142 0.54198 0.65657
 H2275 H 0.01907 0.53146 0.62201
 H2276 H 0.04956 0.51510 0.61783
 H2277 H 0.04836 0.49570 0.59786
 H2278 H 0.03994 0.48730 0.57242
 H2279 H 0.00657 0.52340 0.57151
 H2280 H 0.01515 0.53192 0.59672
 C2281 C 0.56998 0.04571 0.64976
 C2282 C 0.56485 0.03916 0.63601
 C2283 C 0.54969 0.04091 0.63114
 C2284 C 0.53972 0.04961 0.64033
 C2285 C 0.54482 0.05621 0.65412
 C2286 C 0.56008 0.05438 0.65920
 C2287 C 0.54510 0.03401 0.61616
 C2288 C 0.53056 0.03209 0.61156
 C2289 C 0.52639 0.02604 0.59614
 C2290 C 0.51262 0.03079 0.58944
 C2291 C 0.50852 0.02593 0.57466
 C2292 C 0.51799 0.01597 0.56632
 C2293 C 0.53151 0.01072 0.57326
 C2294 C 0.53569 0.01572 0.58802
 H2295 H 0.58198 0.04443 0.65247
 H2296 H 0.57288 0.03276 0.62906
 H2297 H 0.52801 0.05160 0.63694
 H2298 H 0.53650 0.06232 0.66094
 H2299 H 0.55425 0.03054 0.60853
 H2300 H 0.52125 0.03568 0.61891
 H2301 H 0.50517 0.03859 0.59552
 H2302 H 0.49794 0.03008 0.56973
 H2303 H 0.53902 0.00300 0.56716
 H2304 H 0.54615 0.01141 0.59303
 C2305 C 0.56674 0.54699 0.14883
 C2306 C 0.56221 0.54046 0.13485
 C2307 C 0.54666 0.53837 0.13139
 C2308 C 0.53568 0.54274 0.14244
 C2309 C 0.54022 0.54930 0.15644
 C2310 C 0.55580 0.55151 0.15979
 C2311 C 0.54251 0.53137 0.11635
 C2312 C 0.52873 0.53285 0.10968
 C2313 C 0.52488 0.52650 0.09426
 C2314 C 0.51276 0.53298 0.08599
 C2315 C 0.50883 0.52758 0.07134
 C2316 C 0.51688 0.51543 0.06462
 C2317 C 0.52881 0.50870 0.07304
 C2318 C 0.53275 0.51412 0.08771
 H2319 H 0.57882 0.54869 0.15099
 H2320 H 0.57092 0.53716 0.12661
 H2321 H 0.52361 0.54088 0.14050
 H2322 H 0.53155 0.55242 0.16477
 H2323 H 0.55153 0.52554 0.11019
 H2324 H 0.52013 0.53982 0.11518
 H2325 H 0.50641 0.54242 0.09079
 H2326 H 0.49954 0.53302 0.06525
 H2327 H 0.53517 0.49924 0.06829
 H2328 H 0.54182 0.50845 0.09390
 C2329 C 0.21563 0.55744 0.59283
 C2330 C 0.22241 0.55189 0.60627
 C2331 C 0.21337 0.54694 0.61863
 C2332 C 0.19734 0.54787 0.61736
 C2333 C 0.19057 0.55340 0.60392
 C2334 C 0.19962 0.55825 0.59151
 C2335 C 0.22102 0.54159 0.63288
 C2336 C 0.21426 0.53233 0.64306
 C2337 C 0.22143 0.52738 0.65771
 C2338 C 0.21525 0.51475 0.66527
 C2339 C 0.22096 0.51016 0.67955
 C2340 C 0.23297 0.51817 0.68669
 C2341 C 0.23929 0.53073 0.67905
 C2342 C 0.23356 0.53534 0.66476
 H2343 H 0.22290 0.56102 0.58342
 H2344 H 0.23477 0.55142 0.60700
 H2345 H 0.18996 0.54474 0.62682
 H2346 H 0.17822 0.55423 0.60339
 H2347 H 0.23276 0.54505 0.63466
 H2348 H 0.20305 0.52778 0.64046
 H2349 H 0.20585 0.50847 0.66018
 H2350 H 0.21578 0.50045 0.68509
 H2351 H 0.24845 0.53726 0.68427
 H2352 H 0.23837 0.54540 0.65958
 C2353 C 0.19728 0.03555 0.09511
 C2354 C 0.20316 0.02933 0.10869
 C2355 C 0.20855 0.03873 0.12063
 C2356 C 0.20768 0.05456 0.11879
 C2357 C 0.20181 0.06077 0.10522
 C2358 C 0.19657 0.05135 0.09321
 C2359 C 0.21421 0.03168 0.13507
 C2360 C 0.22375 0.03871 0.14493
 C2361 C 0.22876 0.03220 0.15989
 C2362 C 0.24156 0.03854 0.16731
 C2363 C 0.24606 0.03356 0.18191
 C2364 C 0.23779 0.02213 0.18950
 C2365 C 0.22513 0.01559 0.18196
 C2366 C 0.22061 0.02060 0.16738
 H2367 H 0.19341 0.02800 0.08603
 H2368 H 0.20354 0.01712 0.10985
 H2369 H 0.21114 0.06222 0.12792
 H2370 H 0.20107 0.07298 0.10428
 H2371 H 0.21065 0.02015 0.13730
 H2372 H 0.22840 0.04967 0.14191
 H2373 H 0.24798 0.04757 0.16188
 H2374 H 0.25583 0.03890 0.18737
 H2375 H 0.21839 0.00687 0.18751
 H2376 H 0.21044 0.01567 0.16234
 C2377 C 0.70287 0.18395 0.64778
 C2378 C 0.70861 0.18875 0.63360
 C2379 C 0.71086 0.20422 0.63066
 C2380 C 0.70765 0.21482 0.64240
 C2381 C 0.70191 0.21000 0.65660
 C2382 C 0.69939 0.19453 0.65940
 C2383 C 0.71685 0.20875 0.61538
 C2384 C 0.71463 0.22252 0.60926
 C2385 C 0.72019 0.22681 0.59375
 C2386 C 0.71286 0.23866 0.58594
 C2387 C 0.71770 0.24302 0.57126
 C2388 C 0.73008 0.23568 0.56410
 C2389 C 0.73758 0.22397 0.57203
 C2390 C 0.73276 0.21963 0.58671
 H2391 H 0.70088 0.17196 0.64954
 H2392 H 0.71108 0.18035 0.62479
 H2393 H 0.70975 0.22679 0.64080
 H2394 H 0.69959 0.21838 0.66546
 H2395 H 0.72247 0.20006 0.60862
 H2396 H 0.70771 0.23074 0.61538
 H2397 H 0.70324 0.24447 0.59116
 H2398 H 0.71167 0.25211 0.56551
 H2399 H 0.74727 0.21818 0.56695
 H2400 H 0.73907 0.21082 0.59255
 C2401 C 0.70320 0.68690 0.14385
 C2402 C 0.70849 0.69119 0.12934
 C2403 C 0.70915 0.70653 0.12520
 C2404 C 0.70462 0.71758 0.13604
 C2405 C 0.69930 0.71327 0.15058
 C2406 C 0.69854 0.69788 0.15464
 C2407 C 0.71504 0.71044 0.10969
 C2408 C 0.71223 0.72363 0.10259
 C2409 C 0.71783 0.72706 0.08685
 C2410 C 0.70989 0.73770 0.07793
 C2411 C 0.71462 0.74100 0.06292
 C2412 C 0.72749 0.73378 0.05654
 C2413 C 0.73566 0.72339 0.06562
 C2414 C 0.73095 0.72013 0.08063
 H2415 H 0.70257 0.67494 0.14657
 H2416 H 0.71197 0.68246 0.12125
 H2417 H 0.70541 0.72954 0.13352
 H2418 H 0.69602 0.72198 0.15877
 H2419 H 0.72125 0.70166 0.10360
 H2420 H 0.70481 0.73190 0.10798
 H2421 H 0.69985 0.74332 0.08251
 H2422 H 0.70807 0.74908 0.05627
 H2423 H 0.74573 0.71776 0.06116
 H2424 H 0.73773 0.71230 0.08732
 C2425 C 0.52847 0.70070 0.08362
 C2426 C 0.52251 0.70620 0.09750
 C2427 C 0.53226 0.71043 0.10965
 C2428 C 0.54818 0.70906 0.10759
 C2429 C 0.55414 0.70359 0.09369
 C2430 C 0.54435 0.69921 0.08162
 C2431 C 0.52541 0.71532 0.12450
 C2432 C 0.53295 0.72366 0.13502
 C2433 C 0.52653 0.72802 0.15023
 C2434 C 0.53331 0.74014 0.15822
 C2435 C 0.52830 0.74417 0.17295
 C2436 C 0.51642 0.73609 0.18013
 C2437 C 0.50952 0.72401 0.17210
 C2438 C 0.51455 0.71997 0.15733
 H2439 H 0.52065 0.69751 0.07447
 H2440 H 0.51022 0.70706 0.09880
 H2441 H 0.55610 0.71167 0.11681
 H2442 H 0.56641 0.70225 0.09261
 H2443 H 0.51360 0.71224 0.12655
 H2444 H 0.54424 0.72792 0.13231
 H2445 H 0.54262 0.74647 0.15309
 H2446 H 0.53392 0.75353 0.17877
 H2447 H 0.50044 0.71745 0.17734
 H2448 H 0.50931 0.71026 0.15178
 C2449 C 0.03823 0.68883 0.59128
 C2450 C 0.03091 0.69480 0.60429
 C2451 C 0.03945 0.70075 0.61663
 C2452 C 0.05553 0.70052 0.61571
 C2453 C 0.06284 0.69452 0.60271
 C2454 C 0.05429 0.68853 0.59038
 C2455 C 0.03125 0.70632 0.63054
 C2456 C 0.03727 0.71644 0.64042
 C2457 C 0.02965 0.72161 0.65482
 C2458 C 0.03495 0.73495 0.66190
 C2459 C 0.02906 0.73970 0.67607
 C2460 C 0.01773 0.73117 0.68362
 C2461 C 0.01216 0.71797 0.67639
 C2462 C 0.01808 0.71320 0.66217
 H2463 H 0.03130 0.68443 0.58192
 H2464 H 0.01853 0.69475 0.60473
 H2465 H 0.06255 0.70448 0.62518
 H2466 H 0.07522 0.69415 0.60252
 H2467 H 0.01972 0.70221 0.63233
 H2468 H 0.04822 0.72154 0.63776
 H2469 H 0.04389 0.74162 0.65655
 H2470 H 0.03366 0.74992 0.68126
 H2471 H 0.00355 0.71104 0.68194
 H2472 H 0.01393 0.70265 0.65735
 C2473 C 0.54782 0.59369 0.21645
 C2474 C 0.54165 0.60715 0.22228
 C2475 C 0.53770 0.61904 0.21236
 C2476 C 0.54000 0.61715 0.19639
 C2477 C 0.54618 0.60368 0.19057
 C2478 C 0.55031 0.59187 0.20054
 C2479 C 0.53221 0.63352 0.21916
 C2480 C 0.52413 0.64382 0.21127
 C2481 C 0.51953 0.65876 0.21768
 C2482 C 0.50756 0.66663 0.21051
 C2483 C 0.50353 0.68119 0.21540
 C2484 C 0.51148 0.68832 0.22755
 C2485 C 0.52333 0.68036 0.23490
 C2486 C 0.52736 0.66577 0.23000
 H2487 H 0.55076 0.58473 0.22442
 H2488 H 0.54007 0.60832 0.23462
 H2489 H 0.53761 0.62619 0.18837
 H2490 H 0.54825 0.60273 0.17829
 H2491 H 0.53472 0.63550 0.23122
 H2492 H 0.52039 0.64119 0.19967
 H2493 H 0.50141 0.66156 0.20094
 H2494 H 0.49437 0.68698 0.20943
 H2495 H 0.52980 0.68554 0.24419
 H2496 H 0.53695 0.66032 0.23555
 C2497 C 0.04889 0.58868 0.72359
 C2498 C 0.04398 0.60270 0.72929
 C2499 C 0.03988 0.61439 0.71916
 C2500 C 0.04097 0.61181 0.70317
 C2501 C 0.04587 0.59781 0.69748
 C2502 C 0.04992 0.58610 0.70761
 C2503 C 0.03529 0.62929 0.72560
 C2504 C 0.02647 0.63909 0.71785
 C2505 C 0.02232 0.65439 0.72358
 C2506 C 0.00993 0.66180 0.71666
 C2507 C 0.00611 0.67658 0.72088
 C2508 C 0.01467 0.68441 0.73212
 C2509 C 0.02700 0.67695 0.73922
 C2510 C 0.03083 0.66211 0.73496
 H2511 H 0.05189 0.57984 0.73167
 H2512 H 0.04337 0.60443 0.74165
 H2513 H 0.03852 0.62069 0.69497
 H2514 H 0.04693 0.59631 0.68513
 H2515 H 0.03894 0.63196 0.73723
 H2516 H 0.02168 0.63569 0.70685
 H2517 H 0.00324 0.65616 0.70780
 H2518 H -0.00347 0.68194 0.71516
 H2519 H 0.03391 0.68269 0.74782
 H2520 H 0.04074 0.65699 0.74029
 C2521 C 0.06400 0.14241 0.04843
 C2522 C 0.05937 0.12822 0.04301
 C2523 C 0.04382 0.12494 0.04079
 C2524 C 0.03293 0.13630 0.04401
 C2525 C 0.03759 0.15053 0.04948
 C2526 C 0.05318 0.15374 0.05166
 C2527 C 0.03962 0.10974 0.03476
 C2528 C 0.02570 0.10353 0.03631
 C2529 C 0.02196 0.08797 0.03097
 C2530 C 0.00993 0.08022 0.03815
 C2531 C 0.00622 0.06542 0.03375
 C2532 C 0.01440 0.05805 0.02194
 C2533 C 0.02623 0.06594 0.01448
 C2534 C 0.02994 0.08076 0.01890
 H2535 H 0.07609 0.14449 0.05019
 H2536 H 0.06800 0.11972 0.04060
 H2537 H 0.02087 0.13442 0.04203
 H2538 H 0.02903 0.15914 0.05166
 H2539 H 0.04871 0.10309 0.02965
 H2540 H 0.01694 0.10955 0.04266
 H2541 H 0.00351 0.08555 0.04737
 H2542 H -0.00302 0.05974 0.03971
 H2543 H 0.03265 0.06068 0.00523
 H2544 H 0.03894 0.08654 0.01270
 C2545 C 0.05794 0.64336 0.53600
 C2546 C 0.05300 0.62941 0.53013
 C2547 C 0.04814 0.61786 0.54008
 C2548 C 0.04851 0.62050 0.55610
 C2549 C 0.05343 0.63446 0.56196
 C2550 C 0.05823 0.64603 0.55199
 C2551 C 0.04340 0.60308 0.53338
 C2552 C 0.03420 0.59330 0.54072
 C2553 C 0.02962 0.57831 0.53438
 C2554 C 0.01680 0.57110 0.54073
 C2555 C 0.01240 0.55669 0.53572
 C2556 C 0.02079 0.54906 0.52424
 C2557 C 0.03360 0.55629 0.51780
 C2558 C 0.03802 0.57074 0.52284
 H2559 H 0.06148 0.65210 0.52803
 H2560 H 0.05293 0.62764 0.51776
 H2561 H 0.04543 0.61174 0.56420
 H2562 H 0.05387 0.63607 0.57434
 H2563 H 0.04719 0.60055 0.52178
 H2564 H 0.02930 0.59652 0.55170
 H2565 H 0.01018 0.57661 0.54970
 H2566 H 0.00249 0.55146 0.54099
 H2567 H 0.04043 0.55067 0.50907
 H2568 H 0.04825 0.57566 0.51796
 C2569 C 0.53204 0.15971 0.54237
 C2570 C 0.52615 0.14554 0.53818
 C2571 C 0.53595 0.13319 0.53570
 C2572 C 0.55181 0.13525 0.53764
 C2573 C 0.55769 0.14940 0.54179
 C2574 C 0.54788 0.16176 0.54426
 C2575 C 0.52926 0.11819 0.53194
 C2576 C 0.53709 0.10727 0.52462
 C2577 C 0.53091 0.09194 0.52142
 C2578 C 0.53788 0.08319 0.50988
 C2579 C 0.53299 0.06840 0.50693
 C2580 C 0.52103 0.06197 0.51554
 C2581 C 0.51400 0.07074 0.52710
 C2582 C 0.51891 0.08555 0.53006
 H2583 H 0.52423 0.16907 0.54416
 H2584 H 0.51389 0.14422 0.53689
 H2585 H 0.55972 0.12590 0.53645
 H2586 H 0.56990 0.15054 0.54357
 H2587 H 0.51738 0.11636 0.53493
 H2588 H 0.54845 0.10969 0.52032
 H2589 H 0.54723 0.08779 0.50316
 H2590 H 0.53870 0.06199 0.49795
 H2591 H 0.50485 0.06609 0.53404
 H2592 H 0.51355 0.09174 0.53938
 C2593 C 0.52727 0.65562 0.04167
 C2594 C 0.52095 0.64172 0.03715
 C2595 C 0.53043 0.62946 0.03327
 C2596 C 0.54640 0.63134 0.03411
 C2597 C 0.55270 0.64521 0.03863
 C2598 C 0.54322 0.65748 0.04252
 C2599 C 0.52336 0.61468 0.02929
 C2600 C 0.53047 0.60424 0.02061
 C2601 C 0.52427 0.58891 0.01740
 C2602 C 0.53048 0.58064 0.00507
 C2603 C 0.52598 0.56570 0.00230
 C2604 C 0.51518 0.55861 0.01188
 C2605 C 0.50871 0.56697 0.02407
 C2606 C 0.51324 0.58195 0.02685
 H2607 H 0.51968 0.66490 0.04454
 H2608 H 0.50862 0.64053 0.03673
 H2609 H 0.55410 0.62201 0.03181
 H2610 H 0.56502 0.64617 0.03957
 H2611 H 0.51187 0.61259 0.03339
 H2612 H 0.54132 0.60704 0.01533
 H2613 H 0.53906 0.58569 -0.00233
 H2614 H 0.53121 0.55963 -0.00721
 H2615 H 0.50045 0.56182 0.03174
 H2616 H 0.50846 0.58776 0.03673
 C2617 C 0.70507 0.10684 0.56586
 C2618 C 0.71077 0.12077 0.56093
 C2619 C 0.70884 0.12551 0.54566
 C2620 C 0.70116 0.11583 0.53529
 C2621 C 0.69534 0.10189 0.54022
 C2622 C 0.69719 0.09705 0.55562
 C2623 C 0.71537 0.14038 0.54111
 C2624 C 0.71156 0.14786 0.52822
 C2625 C 0.71794 0.16293 0.52418
 C2626 C 0.70979 0.17216 0.51391
 C2627 C 0.71524 0.18654 0.51000
 C2628 C 0.72904 0.19201 0.51625
 C2629 C 0.73739 0.18264 0.52626
 C2630 C 0.73198 0.16824 0.53010
 H2631 H 0.70635 0.10416 0.57795
 H2632 H 0.71660 0.12799 0.56920
 H2633 H 0.69989 0.11872 0.52326
 H2634 H 0.69005 0.09468 0.53162
 H2635 H 0.72314 0.14565 0.54924
 H2636 H 0.70283 0.14330 0.52067
 H2637 H 0.69903 0.16831 0.50906
 H2638 H 0.70852 0.19345 0.50225
 H2639 H 0.74817 0.18641 0.53111
 H2640 H 0.73896 0.16130 0.53756
 C2641 C 0.71268 0.59373 0.05701
 C2642 C 0.71879 0.60729 0.05143
 C2643 C 0.70923 0.61850 0.04523
 C2644 C 0.69333 0.61591 0.04491
 C2645 C 0.68723 0.60234 0.05046
 C2646 C 0.69682 0.59111 0.05660
 C2647 C 0.71618 0.63289 0.03981
 C2648 C 0.70938 0.64211 0.02963
 C2649 C 0.71601 0.65666 0.02423
 C2650 C 0.71016 0.66306 0.01068
 C2651 C 0.71552 0.67701 0.00540
 C2652 C 0.72685 0.68501 0.01360
 C2653 C 0.73277 0.67861 0.02718
 C2654 C 0.72738 0.66462 0.03248
 H2655 H 0.72037 0.58525 0.06160
 H2656 H 0.73105 0.60902 0.05192
 H2657 H 0.68548 0.62444 0.04078
 H2658 H 0.67494 0.60079 0.05032
 H2659 H 0.72755 0.63557 0.04396
 H2660 H 0.69864 0.63868 0.02446
 H2661 H 0.70133 0.65725 0.00415
 H2662 H 0.71064 0.68159 -0.00508
 H2663 H 0.74138 0.68453 0.03388
 H2664 H 0.73189 0.66035 0.04323
 C2665 C 0.18640 0.64515 0.70327
 C2666 C 0.19161 0.63194 0.71038
 C2667 C 0.20728 0.62966 0.71302
 C2668 C 0.21764 0.64114 0.70872
 C2669 C 0.21242 0.65435 0.70157
 C2670 C 0.19675 0.65647 0.69870
 C2671 C 0.21220 0.61523 0.72027
 C2672 C 0.22640 0.60956 0.71906
 C2673 C 0.23085 0.59443 0.72500
 C2674 C 0.24333 0.58702 0.71816
 C2675 C 0.24749 0.57245 0.72277
 C2676 C 0.23936 0.56495 0.73447
 C2677 C 0.22723 0.57260 0.74176
 C2678 C 0.22303 0.58720 0.73711
 H2679 H 0.17426 0.64637 0.70109
 H2680 H 0.18336 0.62335 0.71361
 H2681 H 0.22975 0.64011 0.71101
 H2682 H 0.22063 0.66301 0.69845
 H2683 H 0.20341 0.60855 0.72581
 H2684 H 0.23486 0.61557 0.71235
 H2685 H 0.24966 0.59238 0.70893
 H2686 H 0.25696 0.56698 0.71694
 H2687 H 0.22079 0.56722 0.75089
 H2688 H 0.21370 0.59272 0.74305
 C2689 C 0.18339 0.14609 0.20293
 C2690 C 0.18937 0.13317 0.20993
 C2691 C 0.20522 0.13141 0.21183
 C2692 C 0.21500 0.14305 0.20669
 C2693 C 0.20899 0.15600 0.19963
 C2694 C 0.19311 0.15767 0.19771
 C2695 C 0.21086 0.11744 0.21946
 C2696 C 0.22528 0.11232 0.21847
 C2697 C 0.23024 0.09770 0.22528
 C2698 C 0.24263 0.08999 0.21863
 C2699 C 0.24705 0.07575 0.22407
 C2700 C 0.23924 0.06895 0.23642
 C2701 C 0.22728 0.07700 0.24354
 C2702 C 0.22287 0.09123 0.23809
 H2703 H 0.17112 0.14694 0.20144
 H2704 H 0.18156 0.12443 0.21379
 H2705 H 0.22724 0.14241 0.20831
 H2706 H 0.21674 0.16485 0.19595
 H2707 H 0.20240 0.11063 0.22535
 H2708 H 0.23352 0.11830 0.21146
 H2709 H 0.24864 0.09480 0.20887
 H2710 H 0.25636 0.06993 0.21833
 H2711 H 0.22111 0.07220 0.25318
 H2712 H 0.21366 0.09708 0.24394
 C2713 C 0.68792 1.14828 0.71150
 C2714 C 0.69314 1.13464 0.71767
 C2715 C 0.70819 1.12975 0.71519
 C2716 C 0.71802 1.13898 0.70648
 C2717 C 0.71284 1.15264 0.70030
 C2718 C 0.69760 1.15753 0.70248
 C2719 C 0.71275 1.11467 0.72123
 C2720 C 0.72719 1.10954 0.72165
 C2721 C 0.73120 1.09396 0.72647
 C2722 C 0.74437 1.08725 0.72027
 C2723 C 0.74833 1.07240 0.72406
 C2724 C 0.73928 1.06397 0.73433
 C2725 C 0.72632 1.07085 0.74091
 C2726 C 0.72232 1.08570 0.73704
 H2727 H 0.67598 1.15098 0.71319
 H2728 H 0.68524 1.12770 0.72419
 H2729 H 0.72968 1.13573 0.70406
 H2730 H 0.72107 1.15945 0.69412
 H2731 H 0.70360 1.10733 0.72507
 H2732 H 0.73649 1.11655 0.71763
 H2733 H 0.75148 1.09343 0.71222
 H2734 H 0.75846 1.06751 0.71886
 H2735 H 0.71917 1.06474 0.74896
 H2736 H 0.71237 1.09067 0.74247
 C2737 C 0.71849 0.66281 0.20062
 C2738 C 0.72571 0.65018 0.20701
 C2739 C 0.71710 0.63844 0.21356
 C2740 C 0.70103 0.63962 0.21365
 C2741 C 0.69380 0.65224 0.20723
 C2742 C 0.70244 0.66389 0.20047
 C2743 C 0.72516 0.62475 0.21921
 C2744 C 0.71923 0.61542 0.22981
 C2745 C 0.72655 0.60108 0.23479
 C2746 C 0.72173 0.59455 0.24867
 C2747 C 0.72714 0.58037 0.25318
 C2748 C 0.73746 0.57226 0.24385
 C2749 C 0.74266 0.57897 0.23013
 C2750 C 0.73723 0.59320 0.22561
 H2751 H 0.72547 0.67168 0.19566
 H2752 H 0.73808 0.64953 0.20673
 H2753 H 0.69394 0.63060 0.21812
 H2754 H 0.68142 0.65260 0.20701
 H2755 H 0.73647 0.62257 0.21466
 H2756 H 0.70858 0.61845 0.23537
 H2757 H 0.71348 0.60032 0.25593
 H2758 H 0.72288 0.57559 0.26384
 H2759 H 0.75048 0.57298 0.22259
 H2760 H 0.74095 0.59763 0.21463
 C2761 C 0.55537 0.09772 0.71484
 C2762 C 0.54971 0.11144 0.72058
 C2763 C 0.54581 0.12326 0.71054
 C2764 C 0.54777 0.12106 0.69456
 C2765 C 0.55344 0.10733 0.68883
 C2766 C 0.55737 0.09553 0.69891
 C2767 C 0.54051 0.13788 0.71718
 C2768 C 0.53211 0.14795 0.70931
 C2769 C 0.52712 0.16279 0.71567
 C2770 C 0.51471 0.17014 0.70871
 C2771 C 0.51004 0.18446 0.71375
 C2772 C 0.51778 0.19189 0.72585
 C2773 C 0.53018 0.18450 0.73291
 C2774 C 0.53484 0.17014 0.72786
 H2775 H 0.55820 0.08880 0.72289
 H2776 H 0.54841 0.11285 0.73292
 H2777 H 0.54542 0.13004 0.68645
 H2778 H 0.55519 0.10613 0.67653
 H2779 H 0.54323 0.14008 0.72916
 H2780 H 0.52820 0.14508 0.69781
 H2781 H 0.50863 0.16481 0.69923
 H2782 H 0.50048 0.18979 0.70798
 H2783 H 0.53650 0.18994 0.74215
 H2784 H 0.54474 0.16509 0.73326
 C2785 C 1.05021 0.09328 0.21912
 C2786 C 1.04476 0.10702 0.22505
 C2787 C 1.03918 0.11830 0.21517
 C2788 C 1.03944 0.11566 0.19915
 C2789 C 1.04489 0.10195 0.19323
 C2790 C 1.05030 0.09059 0.20313
 C2791 C 1.03387 0.13289 0.22185
 C2792 C 1.02386 0.14199 0.21468
 C2793 C 1.01893 0.15697 0.22070
 C2794 C 1.00559 0.16348 0.21465
 C2795 C 1.00099 0.17800 0.21917
 C2796 C 1.00971 0.18643 0.22982
 C2797 C 1.02298 0.17985 0.23604
 C2798 C 1.02759 0.16531 0.23151
 H2799 H 1.05427 0.08471 0.22703
 H2800 H 1.04483 0.10881 0.23742
 H2801 H 1.03584 0.12428 0.19110
 H2802 H 1.04521 0.10039 0.18084
 H2803 H 1.03802 0.13587 0.23322
 H2804 H 1.01866 0.13821 0.20400
 H2805 H 0.99876 0.15738 0.20624
 H2806 H 0.99073 0.18269 0.21409
 H2807 H 1.03005 0.18606 0.24416
 H2808 H 1.03817 0.16093 0.23614
 C2809 C 0.19797 0.59993 0.53458
 C2810 C 0.20333 0.61345 0.52819
 C2811 C 0.20807 0.62550 0.53770
 C2812 C 0.20714 0.62378 0.55381
 C2813 C 0.20181 0.61025 0.56019
 C2814 C 0.19715 0.59818 0.55065
 C2815 C 0.21316 0.63984 0.53043
 C2816 C 0.22198 0.65015 0.53762
 C2817 C 0.22656 0.66484 0.53070
 C2818 C 0.23899 0.67273 0.53713
 C2819 C 0.24324 0.68696 0.53155
 C2820 C 0.23507 0.69370 0.51940
 C2821 C 0.22266 0.68577 0.51290
 C2822 C 0.21840 0.67155 0.51851
 H2823 H 0.19455 0.59079 0.52694
 H2824 H 0.20380 0.61451 0.51576
 H2825 H 0.21011 0.63295 0.56157
 H2826 H 0.20097 0.60937 0.57261
 H2827 H 0.20985 0.64163 0.51856
 H2828 H 0.22646 0.64768 0.54897
 H2829 H 0.24540 0.66790 0.54662
 H2830 H 0.25281 0.69276 0.53689
 H2831 H 0.21598 0.69069 0.50367
 H2832 H 0.20844 0.66615 0.51353
 C2833 C 0.21457 0.09237 1.05161
 C2834 C 0.22157 0.10547 1.04593
 C2835 C 0.21274 0.11768 1.04068
 C2836 C 0.19668 0.11656 1.04138
 C2837 C 0.18968 0.10347 1.04710
 C2838 C 0.19853 0.09124 1.05234
 C2839 C 0.22062 0.13161 1.03529
 C2840 C 0.21424 0.14143 1.02542
 C2841 C 0.22163 0.15572 1.02030
 C2842 C 0.21609 0.16271 1.00692
 C2843 C 0.22182 0.17672 1.00220
 C2844 C 0.23322 0.18420 1.01082
 C2845 C 0.23901 0.17708 1.02408
 C2846 C 0.23327 0.16302 1.02880
 H2847 H 0.22173 0.08309 1.05540
 H2848 H 0.23394 0.10605 1.04560
 H2849 H 0.18945 0.12591 1.03797
 H2850 H 0.17732 0.10310 1.04782
 H2851 H 0.23223 0.13343 1.03920
 H2852 H 0.20319 0.13877 1.02045
 H2853 H 0.20709 0.15741 1.00019
 H2854 H 0.21702 0.18185 0.99196
 H2855 H 0.24766 0.18259 1.03110
 H2856 H 0.23759 0.15824 1.03940
 C2857 C 0.20643 0.68485 0.64479
 C2858 C 0.21271 0.69042 0.63112
 C2859 C 0.21366 0.70609 0.62850
 C2860 C 0.20881 0.71612 0.64016
 C2861 C 0.20254 0.71055 0.65383
 C2862 C 0.20106 0.69486 0.65621
 C2863 C 0.21988 0.71149 0.61359
 C2864 C 0.21636 0.72499 0.60745
 C2865 C 0.22191 0.73003 0.59214
 C2866 C 0.21351 0.74099 0.58406
 C2867 C 0.21817 0.74577 0.56944
 C2868 C 0.23145 0.73978 0.56263
 C2869 C 0.24009 0.72911 0.57092
 C2870 C 0.23543 0.72434 0.58552
 H2871 H 0.20535 0.67271 0.64622
 H2872 H 0.21651 0.68245 0.62239
 H2873 H 0.20991 0.72826 0.63885
 H2874 H 0.19884 0.71854 0.66258
 H2875 H 0.22673 0.70355 0.60703
 H2876 H 0.20830 0.73231 0.61332
 H2877 H 0.20313 0.74567 0.58897
 H2878 H 0.21124 0.75401 0.56340
 H2879 H 0.25047 0.72436 0.56612
 H2880 H 0.24255 0.71632 0.59159
 C2881 C 0.19463 0.21231 1.15331
 C2882 C 0.20011 0.21817 1.13943
 C2883 C 0.20470 0.20847 1.12743
 C2884 C 0.20369 0.19269 1.12964
 C2885 C 0.19823 0.18683 1.14355
 C2886 C 0.19352 0.19657 1.15549
 C2887 C 0.20968 0.21528 1.11262
 C2888 C 0.21810 0.20791 1.10205
 C2889 C 0.22275 0.21464 1.08710
 C2890 C 0.23535 0.20844 1.07931
 C2891 C 0.23985 0.21408 1.06498
 C2892 C 0.23177 0.22601 1.05800
 C2893 C 0.21909 0.23218 1.06577
 C2894 C 0.21459 0.22654 1.08012
 H2895 H 0.19121 0.22010 1.16235
 H2896 H 0.20069 0.23036 1.13803
 H2897 H 0.20662 0.18479 1.12055
 H2898 H 0.19722 0.17466 1.14478
 H2899 H 0.20666 0.22701 1.11069
 H2900 H 0.22234 0.19667 1.10456
 H2901 H 0.24174 0.19918 1.08432
 H2902 H 0.24961 0.20896 1.05931
 H2903 H 0.21248 0.24125 1.06067
 H2904 H 0.20450 0.23130 1.08546
 C2905 C 0.68359 0.54802 0.10991
 C2906 C 0.68843 0.54266 0.12421
 C2907 C 0.70406 0.54171 0.12775
 C2908 C 0.71482 0.54602 0.11650
 C2909 C 0.70997 0.55145 0.10219
 C2910 C 0.69431 0.55250 0.09875
 C2911 C 0.70854 0.53596 0.14315
 C2912 C 0.72220 0.53862 0.14966
 C2913 C 0.72628 0.53360 0.16543
 C2914 C 0.73801 0.54128 0.17326
 C2915 C 0.74208 0.53718 0.18824
 C2916 C 0.73455 0.52519 0.19573
 C2917 C 0.72301 0.51726 0.18777
 C2918 C 0.71896 0.52136 0.17276
 H2919 H 0.67144 0.54886 0.10764
 H2920 H 0.67990 0.53936 0.13262
 H2921 H 0.72698 0.54500 0.11852
 H2922 H 0.71846 0.55459 0.09368
 H2923 H 0.69981 0.53012 0.14967
 H2924 H 0.73046 0.54563 0.14374
 H2925 H 0.74393 0.55065 0.16785
 H2926 H 0.75106 0.54352 0.19398
 H2927 H 0.71710 0.50786 0.19313
 H2928 H 0.71024 0.51478 0.16694
 C2929 C 0.71649 1.05286 0.59225
 C2930 C 0.72374 1.04708 0.60534
 C2931 C 0.71514 1.04180 0.61786
 C2932 C 0.69905 1.04229 0.61696
 C2933 C 0.69180 1.04809 0.60387
 C2934 C 0.70045 1.05363 0.59146
 C2935 C 0.72332 1.03683 0.63197
 C2936 C 0.71715 1.02755 0.64247
 C2937 C 0.72485 1.02319 0.65705
 C2938 C 0.71970 1.01021 0.66474
 C2939 C 0.72574 1.00624 0.67905
 C2940 C 0.73706 1.01523 0.68615
 C2941 C 0.74246 1.02810 0.67834
 C2942 C 0.73640 1.03208 0.66396
 H2943 H 0.72346 1.05692 0.58281
 H2944 H 0.73612 1.04689 0.60573
 H2945 H 0.69199 1.03879 0.62654
 H2946 H 0.67944 1.04880 0.60371
 H2947 H 0.73498 1.04072 0.63345
 H2948 H 0.70605 1.02254 0.64023
 H2949 H 0.71077 1.00321 0.65974
 H2950 H 0.72127 0.99625 0.68470
 H2951 H 0.75106 1.03537 0.68352
 H2952 H 0.74041 1.04241 0.65863
 C2953 C 0.53060 0.20629 0.58270
 C2954 C 0.52396 0.21183 0.59624
 C2955 C 0.53313 0.21644 0.60869
 C2956 C 0.54915 0.21549 0.60728
 C2957 C 0.55578 0.20994 0.59375
 C2958 C 0.54659 0.20510 0.58138
 C2959 C 0.52566 0.22114 0.62328
 C2960 C 0.53249 0.23015 0.63370
 C2961 C 0.52579 0.23405 0.64889
 C2962 C 0.53148 0.24679 0.65672
 C2963 C 0.52651 0.25026 0.67159
 C2964 C 0.51577 0.24097 0.67910
 C2965 C 0.50982 0.22834 0.67116
 C2966 C 0.51480 0.22487 0.65622
 H2967 H 0.52323 0.20274 0.57331
 H2968 H 0.51161 0.21237 0.59706
 H2969 H 0.55661 0.21843 0.61679
 H2970 H 0.56810 0.20882 0.59323
 H2971 H 0.51409 0.21725 0.62527
 H2972 H 0.54345 0.23519 0.63097
 H2973 H 0.54000 0.25398 0.65139
 H2974 H 0.53136 0.26008 0.67731
 H2975 H 0.50164 0.22088 0.67664
 H2976 H 0.51044 0.21471 0.65075
 C2977 C 1.05817 0.20703 0.09794
 C2978 C 1.05158 0.21381 0.11087
 C2979 C 1.03619 0.21131 0.11455
 C2980 C 1.02738 0.20203 0.10474
 C2981 C 1.03398 0.19514 0.09179
 C2982 C 1.04955 0.19748 0.08810
 C2983 C 1.03004 0.21863 0.12870
 C2984 C 1.01698 0.21457 0.13568
 C2985 C 1.01204 0.22102 0.15072
 C2986 C 1.00231 0.21240 0.16010
 C2987 C 0.99829 0.21751 0.17482
 C2988 C 1.00387 0.23143 0.18048
 C2989 C 1.01303 0.24039 0.17080
 C2990 C 1.01699 0.23531 0.15605
 H2991 H 1.07028 0.20883 0.09625
 H2992 H 1.05869 0.22085 0.11824
 H2993 H 1.01533 0.20018 0.10680
 H2994 H 1.02658 0.18847 0.08440
 H2995 H 1.03729 0.22704 0.13414
 H2996 H 1.01025 0.20532 0.13105
 H2997 H 0.99818 0.20145 0.15622
 H2998 H 0.99116 0.21033 0.18192
 H2999 H 1.01733 0.25128 0.17470
 H3000 H 1.02396 0.24262 0.14895
 C3001 C 0.65839 0.20239 0.71661
 C3002 C 0.64512 0.20906 0.72249
 C3003 C 0.63316 0.21332 0.71261
 C3004 C 0.63474 0.21071 0.69666
 C3005 C 0.64800 0.20406 0.69079
 C3006 C 0.65993 0.19974 0.70070
 C3007 C 0.61886 0.21938 0.71939
 C3008 C 0.60872 0.22764 0.71141
 C3009 C 0.59367 0.23238 0.71761
 C3010 C 0.58587 0.24431 0.71041
 C3011 C 0.57114 0.24836 0.71510
 C3012 C 0.56382 0.24046 0.72706
 C3013 C 0.57172 0.22864 0.73442
 C3014 C 0.58643 0.22459 0.72972
 H3015 H 0.66746 0.19928 0.72450
 H3016 H 0.64414 0.21082 0.73482
 H3017 H 0.62559 0.21327 0.68869
 H3018 H 0.64872 0.20184 0.67852
 H3019 H 0.61680 0.21703 0.73144
 H3020 H 0.61150 0.23125 0.69983
 H3021 H 0.59112 0.25039 0.70096
 H3022 H 0.56538 0.25748 0.70914
 H3023 H 0.56640 0.22222 0.74358
 H3024 H 0.59179 0.21502 0.73526
 C3025 C 1.15061 0.19960 0.21180
 C3026 C 1.13693 0.20540 0.21771
 C3027 C 1.12492 0.20950 0.20781
 C3028 C 1.12688 0.20760 0.19180
 C3029 C 1.14057 0.20183 0.18590
 C3030 C 1.15255 0.19769 0.19583
 C3031 C 1.11032 0.21480 0.21467
 C3032 C 1.09969 0.22264 0.20688
 C3033 C 1.08469 0.22711 0.21350
 C3034 C 1.07642 0.23883 0.20647
 C3035 C 1.06189 0.24286 0.21182
 C3036 C 1.05525 0.23518 0.22432
 C3037 C 1.06358 0.22349 0.23142
 C3038 C 1.07808 0.21945 0.22605
 H3039 H 1.15968 0.19662 0.21973
 H3040 H 1.13570 0.20663 0.23008
 H3041 H 1.11777 0.21009 0.18377
 H3042 H 1.14162 0.20019 0.17356
 H3043 H 1.10853 0.21238 0.22676
 H3044 H 1.10208 0.22631 0.19524
 H3045 H 1.08117 0.24482 0.19670
 H3046 H 1.05580 0.25187 0.20603
 H3047 H 1.05877 0.21721 0.24096
 H3048 H 1.08378 0.21002 0.23150
 C3049 C 0.10989 0.67787 0.54854
 C3050 C 0.12331 0.68384 0.54229
 C3051 C 0.12469 0.69943 0.53944
 C3052 C 0.11219 0.70895 0.54288
 C3053 C 0.09876 0.70296 0.54920
 C3054 C 0.09746 0.68735 0.55204
 C3055 C 0.13917 0.70509 0.53259
 C3056 C 0.14371 0.71962 0.53319
 C3057 C 0.15862 0.72495 0.52706
 C3058 C 0.16496 0.73830 0.53317
 C3059 C 0.17915 0.74356 0.52809
 C3060 C 0.18733 0.73565 0.51664
 C3061 C 0.18079 0.72250 0.51020
 C3062 C 0.16657 0.71722 0.51530
 H3063 H 0.10930 0.66581 0.55076
 H3064 H 0.13270 0.67623 0.53973
 H3065 H 0.11255 0.72095 0.54045
 H3066 H 0.08926 0.71049 0.55154
 H3067 H 0.14675 0.69668 0.52766
 H3068 H 0.13683 0.72785 0.53932
 H3069 H 0.15903 0.74456 0.54212
 H3070 H 0.18378 0.75377 0.53329
 H3071 H 0.18671 0.71618 0.50129
 H3072 H 0.16185 0.70718 0.50991
 C3073 C 0.09182 0.21177 1.04568
 C3074 C 0.10532 0.21795 1.03979
 C3075 C 0.11798 0.20866 1.03667
 C3076 C 0.11692 0.19304 1.03971
 C3077 C 0.10344 0.18688 1.04559
 C3078 C 0.09077 0.19617 1.04869
 C3079 C 0.13234 0.21574 1.03120
 C3080 C 0.14317 0.20809 1.02349
 C3081 C 0.15802 0.21483 1.01896
 C3082 C 0.16631 0.20810 1.00691
 C3083 C 0.18072 0.21363 1.00281
 C3084 C 0.18720 0.22597 1.01079
 C3085 C 0.17888 0.23271 1.02288
 C3086 C 0.16448 0.22719 1.02696
 H3087 H 0.08219 0.21919 1.04786
 H3088 H 0.10589 0.23003 1.03767
 H3089 H 0.12659 0.18557 1.03804
 H3090 H 0.10307 0.17487 1.04814
 H3091 H 0.13378 0.22775 1.03336
 H3092 H 0.14106 0.19648 1.01998
 H3093 H 0.16166 0.19846 1.00070
 H3094 H 0.18684 0.20809 0.99352
 H3095 H 0.18358 0.24214 1.02938
 H3096 H 0.15871 0.23237 1.03666
 C3097 C 0.59450 0.53785 0.20614
 C3098 C 0.60780 0.53236 0.21310
 C3099 C 0.61914 0.54236 0.21848
 C3100 C 0.61684 0.55807 0.21678
 C3101 C 0.60351 0.56355 0.20988
 C3102 C 0.59226 0.55350 0.20438
 C3103 C 0.63355 0.53591 0.22469
 C3104 C 0.64383 0.54383 0.23297
 C3105 C 0.65889 0.53761 0.23771
 C3106 C 0.66694 0.54465 0.24981
 C3107 C 0.68159 0.53973 0.25392
 C3108 C 0.68856 0.52768 0.24593
 C3109 C 0.68043 0.52055 0.23392
 C3110 C 0.66585 0.52549 0.22979
 H3111 H 0.58597 0.52984 0.20212
 H3112 H 0.60930 0.52022 0.21414
 H3113 H 0.62544 0.56620 0.22026
 H3114 H 0.60221 0.57567 0.20840
 H3115 H 0.63561 0.52404 0.22234
 H3116 H 0.64122 0.55528 0.23661
 H3117 H 0.66193 0.55411 0.25599
 H3118 H 0.68755 0.54553 0.26318
 H3119 H 0.68547 0.51134 0.22738
 H3120 H 0.66036 0.52007 0.22004
 C3121 C 0.59887 1.05485 0.71830
 C3122 C 0.61205 1.04909 0.72531
 C3123 C 0.62427 1.04373 0.71634
 C3124 C 0.62318 1.04454 0.70017
 C3125 C 0.61005 1.05030 0.69318
 C3126 C 0.59773 1.05549 0.70214
 C3127 C 0.63827 1.03815 0.72411
 C3128 C 0.64788 1.02824 0.71748
 C3129 C 0.66263 1.02339 0.72432
 C3130 C 0.66983 1.01048 0.71823
 C3131 C 0.68438 1.00623 0.72324
 C3132 C 0.69214 1.01486 0.73445
 C3133 C 0.68478 1.02758 0.74086
 C3134 C 0.67022 1.03185 0.73581
 H3135 H 0.58953 1.05870 0.72551
 H3136 H 0.61267 1.04875 0.73778
 H3137 H 0.63259 1.04112 0.69286
 H3138 H 0.60968 1.05102 0.68072
 H3139 H 0.64041 1.04213 0.73573
 H3140 H 0.64482 1.02324 0.70647
 H3141 H 0.66429 1.00380 0.70931
 H3142 H 0.68969 0.99637 0.71804
 H3143 H 0.69047 1.03457 0.74942
 H3144 H 0.66531 1.04210 0.74055
 C3145 C 0.90732 0.46427 0.30630
 C3146 C 0.89399 0.47174 0.30171
 C3147 C 0.88105 0.46351 0.29704
 C3148 C 0.88172 0.44754 0.29706
 C3149 C 0.89507 0.44007 0.30165
 C3150 C 0.90797 0.44834 0.30646
 C3151 C 0.86692 0.47193 0.29294
 C3152 C 0.85591 0.46616 0.28387
 C3153 C 0.84160 0.47429 0.27984
 C3154 C 0.83335 0.46931 0.26691
 C3155 C 0.81939 0.47593 0.26305
 C3156 C 0.81321 0.48770 0.27210
 C3157 C 0.82154 0.49285 0.28498
 C3158 C 0.83557 0.48620 0.28885
 H3159 H 0.91712 0.47097 0.30979
 H3160 H 0.89379 0.48402 0.30186
 H3161 H 0.87186 0.44074 0.29403
 H3162 H 0.89512 0.42780 0.30194
 H3163 H 0.86596 0.48347 0.29710
 H3164 H 0.85760 0.45515 0.27859
 H3165 H 0.83766 0.46012 0.25981
 H3166 H 0.81333 0.47162 0.25305
 H3167 H 0.81704 0.50176 0.29231
 H3168 H 0.84135 0.49011 0.29916
 C3169 C 0.91141 0.94680 0.78447
 C3170 C 0.89819 0.95267 0.77766
 C3171 C 0.88595 0.95771 0.78678
 C3172 C 0.88716 0.95664 0.80293
 C3173 C 0.90037 0.95076 0.80974
 C3174 C 0.91262 0.94571 0.80059
 C3175 C 0.87188 0.96325 0.77905
 C3176 C 0.86182 0.97261 0.78586
 C3177 C 0.84737 0.97773 0.77855
 C3178 C 0.84008 0.99061 0.78457
 C3179 C 0.82596 0.99533 0.77880
 C3180 C 0.81868 0.98718 0.76689
 C3181 C 0.82606 0.97437 0.76069
 C3182 C 0.84022 0.96966 0.76648
 H3183 H 0.92070 0.94313 0.77711
 H3184 H 0.89753 0.95327 0.76520
 H3185 H 0.87779 0.95989 0.81037
 H3186 H 0.90082 0.94977 0.82218
 H3187 H 0.87011 0.95984 0.76718
 H3188 H 0.86439 0.97712 0.79720
 H3189 H 0.84526 0.99698 0.79393
 H3190 H 0.82061 1.00520 0.78392
 H3191 H 0.82071 0.96772 0.75165
 H3192 H 0.84519 0.95941 0.76181
 C3193 C 0.34454 0.30615 0.78147
 C3194 C 0.35797 0.30114 0.77435
 C3195 C 0.37028 0.29578 0.78319
 C3196 C 0.36897 0.29581 0.79937
 C3197 C 0.35555 0.30080 0.80647
 C3198 C 0.34317 0.30600 0.79762
 C3199 C 0.38448 0.29091 0.77524
 C3200 C 0.39449 0.28117 0.78149
 C3201 C 0.40910 0.27659 0.77413
 C3202 C 0.41653 0.26360 0.77963
 C3203 C 0.43077 0.25930 0.77381
 C3204 C 0.43800 0.26796 0.76235
 C3205 C 0.43050 0.28088 0.75668
 C3206 C 0.41623 0.28520 0.76253
 H3207 H 0.33517 0.31003 0.77434
 H3208 H 0.35873 0.30137 0.76189
 H3209 H 0.37839 0.29236 0.80664
 H3210 H 0.35500 0.30093 0.81895
 H3211 H 0.38636 0.29513 0.76371
 H3212 H 0.39177 0.27592 0.79241
 H3213 H 0.41136 0.25681 0.78861
 H3214 H 0.43621 0.24930 0.77849
 H3215 H 0.43581 0.28791 0.74798
 H3216 H 0.41115 0.29553 0.75826
 C3217 C 0.85341 0.31936 0.29908
 C3218 C 0.86679 0.31349 0.29266
 C3219 C 0.86875 0.29779 0.29096
 C3220 C 0.85692 0.28803 0.29571
 C3221 C 0.84349 0.29392 0.30213
 C3222 C 0.84158 0.30966 0.30382
 C3223 C 0.88304 0.29224 0.28372
 C3224 C 0.88853 0.27816 0.28545
 C3225 C 0.90320 0.27321 0.27852
 C3226 C 0.91163 0.26172 0.28573
 C3227 C 0.92579 0.25720 0.27983
 C3228 C 0.93176 0.26399 0.26648
 C3229 C 0.92306 0.27515 0.25897
 C3230 C 0.90892 0.27966 0.26487
 H3231 H 0.85237 0.33152 0.30044
 H3232 H 0.87569 0.32126 0.28908
 H3233 H 0.85778 0.27589 0.29418
 H3234 H 0.83446 0.28619 0.30547
 H3235 H 0.88972 0.30047 0.27739
 H3236 H 0.88274 0.27027 0.29298
 H3237 H 0.90739 0.25646 0.29615
 H3238 H 0.93215 0.24853 0.28588
 H3239 H 0.92720 0.28051 0.24857
 H3240 H 0.90249 0.28814 0.25865
 C3241 C 0.40374 0.79212 0.44393
 C3242 C 0.39087 0.78526 0.45042
 C3243 C 0.37870 0.79407 0.45600
 C3244 C 0.37971 0.80998 0.45498
 C3245 C 0.39260 0.81683 0.44850
 C3246 C 0.40468 0.80797 0.44278
 C3247 C 0.36481 0.78628 0.46180
 C3248 C 0.35457 0.79293 0.47114
 C3249 C 0.34005 0.78570 0.47604
 C3250 C 0.33227 0.79184 0.48875
 C3251 C 0.31799 0.78623 0.49311
 C3252 C 0.31107 0.77433 0.48480
 C3253 C 0.31896 0.76796 0.47223
 C3254 C 0.33326 0.77362 0.46784
 H3255 H 0.41293 0.78501 0.43969
 H3256 H 0.39035 0.77300 0.45097
 H3257 H 0.37039 0.81720 0.45861
 H3258 H 0.39287 0.82906 0.44746
 H3259 H 0.36324 0.77457 0.45841
 H3260 H 0.35692 0.80414 0.47567
 H3261 H 0.33717 0.80120 0.49521
 H3262 H 0.31226 0.79142 0.50285
 H3263 H 0.31390 0.75890 0.46547
 H3264 H 0.33860 0.76882 0.45770
 C3265 C 0.40552 0.28427 0.94681
 C3266 C 0.39219 0.27768 0.95262
 C3267 C 0.38019 0.28674 0.95814
 C3268 C 0.38189 0.30263 0.95787
 C3269 C 0.39525 0.30921 0.95208
 C3270 C 0.40712 0.30011 0.94631
 C3271 C 0.36581 0.27921 0.96307
 C3272 C 0.35525 0.28585 0.97204
 C3273 C 0.34047 0.27864 0.97614
 C3274 C 0.33246 0.28415 0.98901
 C3275 C 0.31807 0.27836 0.99278
 C3276 C 0.31125 0.26697 0.98368
 C3277 C 0.31933 0.26132 0.97087
 C3278 C 0.33374 0.26713 0.96710
 H3279 H 0.41455 0.27696 0.94258
 H3280 H 0.39119 0.26544 0.95263
 H3281 H 0.37277 0.31007 0.96155
 H3282 H 0.39607 0.32146 0.95159
 H3283 H 0.36413 0.26761 0.95934
 H3284 H 0.35756 0.29691 0.97696
 H3285 H 0.33731 0.29309 0.99610
 H3286 H 0.31219 0.28303 1.00270
 H3287 H 0.31437 0.25267 0.96351
 H3288 H 0.33926 0.26288 0.95680
 C3289 C 0.78400 0.45552 0.41622
 C3290 C 0.77788 0.46099 0.40243
 C3291 C 0.78745 0.46446 0.38995
 C3292 C 0.80332 0.46223 0.39151
 C3293 C 0.80943 0.45680 0.40529
 C3294 C 0.79985 0.45334 0.41778
 C3295 C 0.78046 0.46965 0.37531
 C3296 C 0.78816 0.47763 0.36471
 C3297 C 0.78160 0.48247 0.34977
 C3298 C 0.78884 0.49426 0.34180
 C3299 C 0.78356 0.49882 0.32737
 C3300 C 0.77092 0.49160 0.32046
 C3301 C 0.76363 0.47978 0.32842
 C3302 C 0.76893 0.47521 0.34290
 H3303 H 0.77635 0.45296 0.42568
 H3304 H 0.76561 0.46248 0.40150
 H3305 H 0.81106 0.46418 0.38200
 H3306 H 0.82164 0.45484 0.40601
 H3307 H 0.76845 0.46719 0.37355
 H3308 H 0.79973 0.48129 0.36720
 H3309 H 0.79869 0.49996 0.34675
 H3310 H 0.78951 0.50793 0.32157
 H3311 H 0.75397 0.47387 0.32337
 H3312 H 0.76331 0.46575 0.34841
 C3313 C 0.78747 0.94600 0.90584
 C3314 C 0.78166 0.95241 0.89234
 C3315 C 0.79151 0.95701 0.88047
 C3316 C 0.80738 0.95499 0.88237
 C3317 C 0.81318 0.94859 0.89588
 C3318 C 0.80329 0.94395 0.90773
 C3319 C 0.78475 0.96299 0.86602
 C3320 C 0.79251 0.97138 0.85578
 C3321 C 0.78592 0.97656 0.84092
 C3322 C 0.79272 0.98888 0.83336
 C3323 C 0.78736 0.99364 0.81898
 C3324 C 0.77510 0.98608 0.81176
 C3325 C 0.76827 0.97376 0.81936
 C3326 C 0.77364 0.96901 0.83372
 H3327 H 0.77957 0.94267 0.91483
 H3328 H 0.76940 0.95374 0.89115
 H3329 H 0.81535 0.95787 0.87332
 H3330 H 0.82541 0.94688 0.89688
 H3331 H 0.77276 0.96061 0.86403
 H3332 H 0.80405 0.97500 0.85843
 H3333 H 0.80230 0.99481 0.83856
 H3334 H 0.79297 1.00310 0.81342
 H3335 H 0.75892 0.96754 0.81409
 H3336 H 0.76839 0.95914 0.83886
 C3337 C 0.28565 0.80873 0.34252
 C3338 C 0.27836 0.80329 0.35575
 C3339 C 0.28692 0.79761 0.36815
 C3340 C 0.30300 0.79766 0.36709
 C3341 C 0.31027 0.80311 0.35387
 C3342 C 0.30170 0.80875 0.34144
 C3343 C 0.27877 0.79250 0.38223
 C3344 C 0.28479 0.78260 0.39226
 C3345 C 0.27731 0.77785 0.40685
 C3346 C 0.28297 0.76498 0.41438
 C3347 C 0.27727 0.76068 0.42874
 C3348 C 0.26574 0.76919 0.43603
 C3349 C 0.25976 0.78189 0.42835
 C3350 C 0.26552 0.78623 0.41395
 H3351 H 0.27871 0.81290 0.33310
 H3352 H 0.26599 0.80350 0.35629
 H3353 H 0.31005 0.79393 0.37659
 H3354 H 0.32265 0.80330 0.35356
 H3355 H 0.26731 0.79674 0.38402
 H3356 H 0.29568 0.77739 0.38961
 H3357 H 0.29207 0.75834 0.40925
 H3358 H 0.28215 0.75082 0.43428
 H3359 H 0.25100 0.78880 0.43369
 H3360 H 0.26105 0.79643 0.40878
 C3361 C 0.30355 0.28591 0.84059
 C3362 C 0.29818 0.27871 0.85388
 C3363 C 0.29327 0.28724 0.86664
 C3364 C 0.29415 0.30315 0.86598
 C3365 C 0.29953 0.31034 0.85274
 C3366 C 0.30425 0.30182 0.83987
 C3367 C 0.28798 0.27924 0.88067
 C3368 C 0.27825 0.28549 0.89081
 C3369 C 0.27338 0.27813 0.90535
 C3370 C 0.26021 0.28357 0.91276
 C3371 C 0.25575 0.27780 0.92704
 C3372 C 0.26443 0.26649 0.93432
 C3373 C 0.27750 0.26085 0.92679
 C3374 C 0.28196 0.26663 0.91249
 H3375 H 0.30702 0.27904 0.83084
 H3376 H 0.29776 0.26644 0.85414
 H3377 H 0.29106 0.31012 0.87579
 H3378 H 0.30031 0.32259 0.85270
 H3379 H 0.29187 0.26772 0.88230
 H3380 H 0.27328 0.29643 0.88829
 H3381 H 0.25345 0.29248 0.90758
 H3382 H 0.24564 0.28246 0.93249
 H3383 H 0.28453 0.25224 0.93212
 H3384 H 0.29241 0.26241 0.90740
 C3385 C 0.43328 0.29778 0.89110
 C3386 C 0.43803 0.29179 0.87697
 C3387 C 0.45361 0.28962 0.87382
 C3388 C 0.46441 0.29343 0.88529
 C3389 C 0.45965 0.29949 0.89944
 C3390 C 0.44403 0.30168 0.90251
 C3391 C 0.45798 0.28314 0.85861
 C3392 C 0.47195 0.28460 0.85240
 C3393 C 0.47600 0.27898 0.83676
 C3394 C 0.48841 0.28569 0.82918
 C3395 C 0.49252 0.28108 0.81434
 C3396 C 0.48438 0.26949 0.80672
 C3397 C 0.47215 0.26247 0.81444
 C3398 C 0.46802 0.26713 0.82933
 H3399 H 0.42117 0.29950 0.89306
 H3400 H 0.42946 0.28893 0.86840
 H3401 H 0.47650 0.29151 0.88359
 H3402 H 0.46816 0.30215 0.90813
 H3403 H 0.44898 0.27779 0.85195
 H3404 H 0.48059 0.29110 0.85844
 H3405 H 0.49485 0.29473 0.83466
 H3406 H 0.50205 0.28671 0.80881
 H3407 H 0.46570 0.25345 0.80896
 H3408 H 0.45869 0.26131 0.83496
 C3409 C 0.93612 0.29109 0.39680
 C3410 C 0.94004 0.28601 0.38207
 C3411 C 0.95543 0.28440 0.37781
 C3412 C 0.96689 0.28771 0.38874
 C3413 C 0.96296 0.29277 0.40352
 C3414 C 0.94753 0.29452 0.40770
 C3415 C 0.95895 0.27886 0.36206
 C3416 C 0.97223 0.28150 0.35483
 C3417 C 0.97532 0.27629 0.33886
 C3418 C 0.98598 0.28424 0.32992
 C3419 C 0.98902 0.27979 0.31474
 C3420 C 0.98154 0.26717 0.30822
 C3421 C 0.97110 0.25902 0.31731
 C3422 C 0.96806 0.26347 0.33247
 H3423 H 0.92414 0.29253 0.39960
 H3424 H 0.93100 0.28348 0.37390
 H3425 H 0.97886 0.28614 0.38607
 H3426 H 0.97198 0.29509 0.41177
 H3427 H 0.94981 0.27314 0.35592
 H3428 H 0.98085 0.28849 0.36034
 H3429 H 0.99183 0.29406 0.33462
 H3430 H 0.99718 0.28631 0.30809
 H3431 H 0.96524 0.24915 0.31274
 H3432 H 0.96019 0.25671 0.33917
 C3433 C 0.46864 0.40899 0.79747
 C3434 C 0.47463 0.39521 0.79227
 C3435 C 0.46489 0.38348 0.78737
 C3436 C 0.44896 0.38581 0.78784
 C3437 C 0.44298 0.39960 0.79297
 C3438 C 0.45275 0.41128 0.79793
 C3439 C 0.47170 0.36880 0.78263
 C3440 C 0.46438 0.35872 0.77366
 C3441 C 0.47075 0.34377 0.76924
 C3442 C 0.46436 0.33622 0.75652
 C3443 C 0.46950 0.32185 0.75222
 C3444 C 0.48114 0.31462 0.76061
 C3445 C 0.48757 0.32216 0.77338
 C3446 C 0.48240 0.33656 0.77770
 H3447 H 0.47642 0.41784 0.80118
 H3448 H 0.48693 0.39369 0.79214
 H3449 H 0.44101 0.37690 0.78474
 H3450 H 0.43068 0.40093 0.79356
 H3451 H 0.48330 0.36656 0.78630
 H3452 H 0.45336 0.36164 0.76882
 H3453 H 0.45529 0.34144 0.74988
 H3454 H 0.46423 0.31639 0.74234
 H3455 H 0.49644 0.31685 0.78020
 H3456 H 0.48730 0.34176 0.78788
 C3457 C 0.96202 0.40342 0.30194
 C3458 C 0.96763 0.38993 0.29563
 C3459 C 0.95762 0.37841 0.29076
 C3460 C 0.94174 0.38075 0.29232
 C3461 C 0.93613 0.39429 0.29860
 C3462 C 0.94620 0.40572 0.30362
 C3463 C 0.96426 0.36396 0.28493
 C3464 C 0.95644 0.35363 0.27665
 C3465 C 0.96304 0.33898 0.27133
 C3466 C 0.95581 0.33118 0.25919
 C3467 C 0.96120 0.31707 0.25421
 C3468 C 0.97395 0.31033 0.26131
 C3469 C 0.98123 0.31814 0.27345
 C3470 C 0.97582 0.33225 0.27845
 H3471 H 0.97008 0.41207 0.30554
 H3472 H 0.97990 0.38845 0.29464
 H3473 H 0.93359 0.37205 0.28917
 H3474 H 0.92389 0.39562 0.29999
 H3475 H 0.97626 0.36208 0.28727
 H3476 H 0.94484 0.35606 0.27313
 H3477 H 0.94588 0.33601 0.25358
 H3478 H 0.95523 0.31137 0.24489
 H3479 H 0.99095 0.31321 0.27933
 H3480 H 0.98145 0.33756 0.28817
 C3481 C 0.29565 0.91271 0.46846
 C3482 C 0.28925 0.89947 0.47445
 C3483 C 0.28490 0.88750 0.46466
 C3484 C 0.28689 0.88918 0.44863
 C3485 C 0.29325 0.90246 0.44264
 C3486 C 0.29790 0.91427 0.45251
 C3487 C 0.27949 0.87315 0.47169
 C3488 C 0.27175 0.86240 0.46395
 C3489 C 0.26756 0.84751 0.47065
 C3490 C 0.25586 0.83903 0.46365
 C3491 C 0.25224 0.82451 0.46890
 C3492 C 0.26035 0.81806 0.48125
 C3493 C 0.27196 0.82661 0.48839
 C3494 C 0.27558 0.84113 0.48313
 H3495 H 0.29903 0.92168 0.47632
 H3496 H 0.28792 0.89847 0.48683
 H3497 H 0.28416 0.88011 0.44068
 H3498 H 0.29514 0.90322 0.43033
 H3499 H 0.28192 0.87156 0.48381
 H3500 H 0.26805 0.86454 0.45225
 H3501 H 0.24959 0.84360 0.45394
 H3502 H 0.24326 0.81825 0.46307
 H3503 H 0.27854 0.82195 0.49783
 H3504 H 0.28501 0.84704 0.48856
 C3505 C 0.31551 0.38987 0.95167
 C3506 C 0.30995 0.37674 0.95865
 C3507 C 0.29420 0.37466 0.96093
 C3508 C 0.28408 0.38617 0.95617
 C3509 C 0.28967 0.39930 0.94910
 C3510 C 0.30544 0.40130 0.94683
 C3511 C 0.28903 0.36040 0.96840
 C3512 C 0.27459 0.35522 0.96801
 C3513 C 0.27004 0.34024 0.97426
 C3514 C 0.25715 0.33302 0.96799
 C3515 C 0.25301 0.31847 0.97272
 C3516 C 0.26161 0.31082 0.98398
 C3517 C 0.27410 0.31834 0.99082
 C3518 C 0.27826 0.33291 0.98605
 H3519 H 0.32773 0.39102 0.94994
 H3520 H 0.31803 0.36812 0.96220
 H3521 H 0.27190 0.38530 0.95806
 H3522 H 0.28168 0.40804 0.94570
 H3523 H 0.29782 0.35344 0.97355
 H3524 H 0.26594 0.36146 0.96179
 H3525 H 0.25050 0.33847 0.95904
 H3526 H 0.24324 0.31310 0.96727
 H3527 H 0.28089 0.31284 0.99961
 H3528 H 0.28792 0.33832 0.99160
 C3529 C 0.80029 0.35176 0.28755
 C3530 C 0.79520 0.36547 0.28139
 C3531 C 0.79090 0.37749 0.29111
 C3532 C 0.79190 0.37553 0.30719
 C3533 C 0.79696 0.36181 0.31334
 C3534 C 0.80129 0.34981 0.30360
 C3535 C 0.78622 0.39207 0.28412
 C3536 C 0.77747 0.40226 0.29149
 C3537 C 0.77319 0.41720 0.28503
 C3538 C 0.76080 0.42493 0.29162
 C3539 C 0.75684 0.43942 0.28664
 C3540 C 0.76525 0.44660 0.27494
 C3541 C 0.77759 0.43883 0.26819
 C3542 C 0.78158 0.42430 0.27321
 H3543 H 0.80347 0.34267 0.27976
 H3544 H 0.79465 0.36671 0.26898
 H3545 H 0.78926 0.38467 0.31509
 H3546 H 0.79796 0.36077 0.32574
 H3547 H 0.78974 0.39415 0.27236
 H3548 H 0.77279 0.39947 0.30267
 H3549 H 0.75421 0.41979 0.30080
 H3550 H 0.74727 0.44505 0.29213
 H3551 H 0.78442 0.44410 0.25928
 H3552 H 0.79149 0.41895 0.26812
   
