data_POSCAR
  _audit_creation_date              2014-09-24
  _audit_creation_method            'ToBaCCo'
  _symmetry_space_group_name_H-M    'P1'
  _symmetry_Int_Tables_number       1
  _symmetry_cell_setting            triclinic
  loop_
  _symmetry_equiv_pos_as_xyz
 x,y,z
_cell_length_a 69.4777
_cell_length_b 69.4799
_cell_length_c 69.4831
_cell_angle_alpha 90.031200
_cell_angle_beta 89.999500
_cell_angle_gamma 89.974700
loop_
  _atom_site_label
  _atom_site_type_symbol
  _atom_site_fract_x
  _atom_site_fract_y
  _atom_site_fract_z
C1 C 0.13252 -0.02622 0.25440
 C2 C 0.12452 -0.00811 0.25847
 C3 C 0.11666 -0.00452 0.27673
 C4 C 0.11651 -0.01894 0.29090
 C5 C 0.12475 -0.03693 0.28664
 C6 C 0.13295 -0.04080 0.26849
 C7 C 0.12447 0.00716 0.24362
 C8 C 0.11639 0.00364 0.22543
 C9 C 0.11609 0.01811 0.21123
 C10 C 0.12447 0.03607 0.21555
 C11 C 0.13280 0.03976 0.23361
 C12 C 0.13255 0.02523 0.24765
 H13 H 0.13869 -0.02871 0.24029
 H14 H 0.11040 0.00945 0.27973
 H15 H 0.11009 -0.01034 0.22258
 H16 H 0.13890 0.02779 0.26167
 H17 H 0.12475 -0.04799 0.29761
 H18 H 0.12457 0.04732 0.20477
 C19 C 0.36755 -0.02582 0.74567
 C20 C 0.37540 -0.00756 0.74201
 C21 C 0.38341 -0.00358 0.72389
 C22 C 0.38380 -0.01775 0.70945
 C23 C 0.37571 -0.03588 0.71331
 C24 C 0.36745 -0.04006 0.73130
 C25 C 0.37515 0.00745 0.75713
 C26 C 0.38303 0.00367 0.77536
 C27 C 0.38312 0.01794 0.78978
 C28 C 0.37473 0.03593 0.78564
 C29 C 0.36662 0.03988 0.76754
 C30 C 0.36707 0.02556 0.75328
 H31 H 0.36124 -0.02874 0.75962
 H32 H 0.38955 0.01049 0.72120
 H33 H 0.38936 -0.01033 0.77806
 H34 H 0.36090 0.02833 0.73923
 H35 H 0.37581 -0.04682 0.70221
 H36 H 0.37447 0.04703 0.79659
 C37 C 0.86711 0.47457 0.24493
 C38 C 0.87497 0.49284 0.24135
 C39 C 0.88298 0.49689 0.22324
 C40 C 0.88337 0.48277 0.20875
 C41 C 0.87527 0.46463 0.21254
 C42 C 0.86703 0.46038 0.23051
 C43 C 0.87480 0.50774 0.25656
 C44 C 0.88268 0.50378 0.27474
 C45 C 0.88280 0.51790 0.28931
 C46 C 0.87442 0.53595 0.28536
 C47 C 0.86631 0.54008 0.26730
 C48 C 0.86675 0.52590 0.25289
 H49 H 0.86082 0.47158 0.25888
 H50 H 0.88915 0.51096 0.22061
 H51 H 0.88898 0.48974 0.27731
 H52 H 0.86057 0.52879 0.23887
 H53 H 0.87539 0.45373 0.20141
 H54 H 0.87419 0.54694 0.29641
 C55 C 0.63339 0.47332 0.75427
 C56 C 0.62553 0.49152 0.75827
 C57 C 0.61760 0.49520 0.77651
 C58 C 0.61729 0.48079 0.79070
 C59 C 0.62539 0.46274 0.78648
 C60 C 0.63357 0.45885 0.76840
 C61 C 0.62561 0.50675 0.74339
 C62 C 0.61754 0.50325 0.72519
 C63 C 0.61729 0.51773 0.71107
 C64 C 0.62562 0.53567 0.71531
 C65 C 0.63394 0.53938 0.73337
 C66 C 0.63369 0.52484 0.74742
 H67 H 0.63962 0.47061 0.74023
 H68 H 0.61143 0.50921 0.77946
 H69 H 0.61119 0.48932 0.72222
 H70 H 0.64001 0.52742 0.76145
 H71 H 0.62535 0.45163 0.79739
 H72 H 0.62561 0.54684 0.70446
 C73 C 0.24618 0.13198 1.02678
 C74 C 0.24210 0.12390 1.00872
 C75 C 0.22389 0.11584 1.00525
 C76 C 0.20973 0.11555 1.01976
 C77 C 0.21409 0.12394 1.03770
 C78 C 0.23217 0.13226 1.04135
 C79 C 0.25689 0.12395 0.99340
 C80 C 0.27510 0.11585 0.99682
 C81 C 0.28926 0.11563 0.98229
 C82 C 0.28487 0.12411 0.96440
 C83 C 0.26680 0.13245 0.96082
 C84 C 0.25279 0.13212 0.97539
 H85 H 0.26021 0.13831 1.02931
 H86 H 0.22100 0.10954 0.99127
 H87 H 0.27801 0.10948 1.01076
 H88 H 0.23877 0.13847 0.97291
 H89 H 0.20334 0.12406 1.04898
 H90 H 0.29562 0.12428 0.95312
 C91 C 0.75395 0.36662 1.02438
 C92 C 0.75752 0.37464 1.00617
 C93 C 0.77559 0.38276 1.00219
 C94 C 0.79006 0.38313 1.01630
 C95 C 0.78631 0.37487 1.03438
 C96 C 0.76837 0.36643 1.03865
 C97 C 0.74233 0.37450 0.99124
 C98 C 0.72417 0.38250 0.99513
 C99 C 0.70966 0.38269 0.98096
 C100 C 0.71363 0.37426 0.96294
 C101 C 0.73166 0.36603 0.95887
 C102 C 0.74602 0.36640 0.97309
 H103 H 0.73999 0.36028 1.02718
 H104 H 0.77819 0.38903 0.98816
 H105 H 0.72159 0.38884 1.00915
 H106 H 0.76002 0.36015 0.97023
 H107 H 0.79752 0.37505 1.04521
 H108 H 0.70261 0.37408 0.95192
 C109 C 0.25397 0.86756 0.52525
 C110 C 0.25764 0.87545 0.50702
 C111 C 0.27571 0.88362 0.50312
 C112 C 0.29016 0.88418 0.51734
 C113 C 0.28621 0.87597 0.53546
 C114 C 0.26827 0.86756 0.53954
 C115 C 0.24256 0.87517 0.49199
 C116 C 0.22433 0.88309 0.49571
 C117 C 0.21002 0.88316 0.48141
 C118 C 0.21409 0.87479 0.46345
 C119 C 0.23218 0.86661 0.45952
 C120 C 0.24643 0.86705 0.47388
 H121 H 0.24005 0.86116 0.52811
 H122 H 0.27828 0.88978 0.48902
 H123 H 0.22150 0.88948 0.50965
 H124 H 0.26048 0.86085 0.47115
 H125 H 0.29718 0.87606 0.54652
 H126 H 0.20310 0.87465 0.45241
 C127 C 0.74585 0.63286 0.52644
 C128 C 0.74173 0.62492 0.50832
 C129 C 0.72346 0.61703 0.50478
 C130 C 0.70935 0.61684 0.51927
 C131 C 0.71368 0.62502 0.53726
 C132 C 0.73182 0.63315 0.54100
 C133 C 0.75658 0.62478 0.49306
 C134 C 0.77473 0.61665 0.49663
 C135 C 0.78894 0.61620 0.48218
 C136 C 0.78468 0.62449 0.46416
 C137 C 0.76664 0.63287 0.46042
 C138 C 0.75258 0.63276 0.47494
 H139 H 0.75993 0.63904 0.52903
 H140 H 0.72043 0.61078 0.49082
 H141 H 0.77753 0.61041 0.51065
 H142 H 0.73859 0.63913 0.47234
 H143 H 0.70284 0.62506 0.54845
 H144 H 0.79547 0.62447 0.45292
 C145 C -0.02546 0.25444 0.13117
 C146 C -0.00720 0.25808 0.12333
 C147 C -0.00331 0.27609 0.11502
 C148 C -0.01758 0.29049 0.11427
 C149 C -0.03573 0.28656 0.12242
 C150 C -0.03980 0.26869 0.13097
 C151 C 0.00787 0.24304 0.12383
 C152 C 0.00425 0.22475 0.11600
 C153 C 0.01855 0.21036 0.11617
 C154 C 0.03642 0.21458 0.12479
 C155 C 0.04020 0.23274 0.13287
 C156 C 0.02586 0.24697 0.13214
 H157 H -0.02831 0.24056 0.13768
 H158 H 0.01082 0.27865 0.10891
 H159 H -0.00966 0.22198 0.10951
 H160 H 0.02850 0.26107 0.13827
 H161 H -0.04683 0.29750 0.12218
 H162 H 0.04753 0.20366 0.12525
 C163 C -0.02620 0.74746 0.36768
 C164 C -0.00801 0.74353 0.37556
 C165 C -0.00427 0.72531 0.38347
 C166 C -0.01861 0.71106 0.38375
 C167 C -0.03667 0.71519 0.37563
 C168 C -0.04062 0.73327 0.36745
 C169 C 0.00716 0.75845 0.37546
 C170 C 0.00362 0.77663 0.38356
 C171 C 0.01803 0.79081 0.38374
 C172 C 0.03595 0.78666 0.37530
 C173 C 0.03968 0.76862 0.36694
 C174 C 0.02521 0.75450 0.36727
 H175 H -0.02894 0.76149 0.36145
 H176 H 0.00976 0.72242 0.38964
 H177 H -0.01030 0.77953 0.38999
 H178 H 0.02780 0.74049 0.36091
 H179 H -0.04774 0.70423 0.37564
 H180 H 0.04707 0.79756 0.37525
 C181 C 0.47538 0.24635 0.86743
 C182 C 0.49344 0.24221 0.87548
 C183 C 0.49691 0.22395 0.88345
 C184 C 0.48238 0.20980 0.88367
 C185 C 0.46444 0.21423 0.87530
 C186 C 0.46080 0.23236 0.86710
 C187 C 0.50871 0.25705 0.87566
 C188 C 0.50514 0.27517 0.88391
 C189 C 0.51957 0.28941 0.88436
 C190 C 0.53756 0.28520 0.87596
 C191 C 0.54131 0.26722 0.86747
 C192 C 0.52681 0.25313 0.86758
 H193 H 0.47285 0.26042 0.86121
 H194 H 0.51087 0.22102 0.88975
 H195 H 0.49114 0.27794 0.89021
 H196 H 0.52942 0.23917 0.86111
 H197 H 0.45315 0.20350 0.87514
 H198 H 0.54877 0.29601 0.87597
 C199 C 0.47454 0.75422 0.63310
 C200 C 0.49284 0.75789 0.62533
 C201 C 0.49675 0.77593 0.61710
 C202 C 0.48248 0.79025 0.61639
 C203 C 0.46431 0.78638 0.62441
 C204 C 0.46019 0.76848 0.63288
 C205 C 0.50789 0.74282 0.62578
 C206 C 0.50414 0.72449 0.61812
 C207 C 0.51839 0.71013 0.61828
 C208 C 0.53636 0.71427 0.62658
 C209 C 0.54033 0.73247 0.63448
 C210 C 0.52601 0.74676 0.63383
 H211 H 0.47166 0.74033 0.63955
 H212 H 0.51084 0.77862 0.61100
 H213 H 0.49018 0.72159 0.61179
 H214 H 0.52877 0.76088 0.63984
 H215 H 0.45329 0.79738 0.62406
 H216 H 0.54736 0.70324 0.62688
 C217 C 0.86832 1.02455 0.75512
 C218 C 0.87666 1.00660 0.75895
 C219 C 0.88482 1.00302 0.77705
 C220 C 0.88498 1.01735 0.79140
 C221 C 0.87630 1.03525 0.78733
 C222 C 0.86785 1.03895 0.76930
 C223 C 0.87681 0.99149 0.74399
 C224 C 0.88500 0.99518 0.72594
 C225 C 0.88545 0.98085 0.71159
 C226 C 0.87701 0.96282 0.71562
 C227 C 0.86852 0.95901 0.73361
 C228 C 0.86873 0.97342 0.74779
 H229 H 0.86192 1.02710 0.74113
 H230 H 0.89131 0.98908 0.77969
 H231 H 0.89129 1.00921 0.72333
 H232 H 0.86230 0.97079 0.76175
 H233 H 0.87608 1.04641 0.79821
 H234 H 0.87700 0.95167 0.70473
 C235 C 0.36658 0.52555 0.25401
 C236 C 0.37463 0.50753 0.25819
 C237 C 0.38267 0.50417 0.27638
 C238 C 0.38296 0.51875 0.29039
 C239 C 0.37462 0.53669 0.28606
 C240 C 0.36628 0.54022 0.26794
 C241 C 0.37479 0.49220 0.24346
 C242 C 0.38299 0.49565 0.22536
 C243 C 0.38353 0.48110 0.21132
 C244 C 0.37527 0.46310 0.21553
 C245 C 0.36678 0.45949 0.23356
 C246 C 0.36682 0.47412 0.24752
 H247 H 0.36029 0.52796 0.23994
 H248 H 0.38901 0.49025 0.27940
 H249 H 0.38926 0.50962 0.22242
 H250 H 0.36039 0.47165 0.26151
 H251 H 0.37462 0.54796 0.29683
 H252 H 0.37547 0.45186 0.20474
 C253 C 0.63253 1.02594 0.24554
 C254 C 0.62422 1.00791 0.24196
 C255 C 0.61592 1.00411 0.22397
 C256 C 0.61565 1.01827 0.20955
 C257 C 0.62424 1.03622 0.21328
 C258 C 0.63283 1.04017 0.23119
 C259 C 0.62423 0.99299 0.25708
 C260 C 0.61629 0.99694 0.27520
 C261 C 0.61599 0.98279 0.28971
 C262 C 0.62434 0.96469 0.28577
 C263 C 0.63256 0.96063 0.26771
 C264 C 0.63221 0.97485 0.25337
 H265 H 0.63905 1.02868 0.25944
 H266 H 0.60941 0.99017 0.22141
 H267 H 0.61006 1.01102 0.27773
 H268 H 0.63845 0.97203 0.23936
 H269 H 0.62425 1.04716 0.20219
 H270 H 0.62445 0.95366 0.29679
 C271 C 0.13280 0.52590 0.74420
 C272 C 0.12471 0.50775 0.74075
 C273 C 0.11662 0.50367 0.72273
 C274 C 0.11636 0.51767 0.70814
 C275 C 0.12475 0.53575 0.71174
 C276 C 0.13312 0.53997 0.72970
 C277 C 0.12480 0.49297 0.75602
 C278 C 0.11697 0.49707 0.77416
 C279 C 0.11690 0.48308 0.78875
 C280 C 0.12522 0.46499 0.78503
 C281 C 0.13333 0.46074 0.76697
 C282 C 0.13283 0.47481 0.75247
 H283 H 0.13917 0.52883 0.75813
 H284 H 0.11028 0.48965 0.72026
 H285 H 0.11067 0.51111 0.77671
 H286 H 0.13901 0.47185 0.73845
 H287 H 0.12478 0.54656 0.70054
 H288 H 0.12539 0.45418 0.79625
 C289 C 0.74686 0.86756 -0.02462
 C290 C 0.74272 0.87584 -0.00669
 C291 C 0.72456 0.88399 -0.00339
 C292 C 0.71053 0.88416 -0.01794
 C293 C 0.71482 0.87560 -0.03579
 C294 C 0.73290 0.86715 -0.03925
 C295 C 0.75742 0.87602 0.00866
 C296 C 0.77552 0.88423 0.00525
 C297 C 0.78958 0.88485 0.01984
 C298 C 0.78522 0.87656 0.03786
 C299 C 0.76718 0.86806 0.04139
 C300 C 0.75329 0.86808 0.02672
 H301 H 0.76089 0.86117 -0.02697
 H302 H 0.72157 0.89049 0.01047
 H303 H 0.77838 0.89044 -0.00877
 H304 H 0.73929 0.86166 0.02914
 H305 H 0.70403 0.87551 -0.04703
 H306 H 0.79588 0.87669 0.04922
 C307 C 0.24541 0.36710 0.47565
 C308 C 0.24142 0.37525 0.49367
 C309 C 0.22327 0.38333 0.49719
 C310 C 0.20910 0.38354 0.48278
 C311 C 0.21323 0.37510 0.46484
 C312 C 0.23132 0.36674 0.46115
 C313 C 0.25626 0.37537 0.50888
 C314 C 0.27440 0.38345 0.50530
 C315 C 0.28850 0.38395 0.51978
 C316 C 0.28432 0.37581 0.53784
 C317 C 0.26627 0.36745 0.54158
 C318 C 0.25224 0.36751 0.52702
 H319 H 0.25944 0.36077 0.47313
 H320 H 0.22040 0.38973 0.51112
 H321 H 0.27730 0.38964 0.49129
 H322 H 0.23823 0.36118 0.52959
 H323 H 0.20234 0.37504 0.45370
 H324 H 0.29516 0.37599 0.54903
 C325 C 0.25376 0.63262 -0.02601
 C326 C 0.25735 0.62422 -0.00802
 C327 C 0.27531 0.61580 -0.00431
 C328 C 0.28968 0.61549 -0.01853
 C329 C 0.28595 0.62418 -0.03644
 C330 C 0.26808 0.63289 -0.04029
 C331 C 0.24226 0.62420 0.00695
 C332 C 0.22417 0.61616 0.00307
 C333 C 0.20972 0.61575 0.01729
 C334 C 0.21367 0.62409 0.03538
 C335 C 0.23169 0.63242 0.03938
 C336 C 0.24598 0.63217 0.02509
 H337 H 0.23988 0.63920 -0.02867
 H338 H 0.27787 0.60922 0.00958
 H339 H 0.22163 0.60993 -0.01100
 H340 H 0.25997 0.63847 0.02786
 H341 H 0.29700 0.62415 -0.04742
 H342 H 0.20270 0.62412 0.04645
 C343 C 0.75428 0.13289 0.47244
 C344 C 0.75775 0.12460 0.49048
 C345 C 0.77574 0.11633 0.49441
 C346 C 0.79034 0.11604 0.48035
 C347 C 0.78664 0.12470 0.46236
 C348 C 0.76873 0.13324 0.45831
 C349 C 0.74255 0.12463 0.50532
 C350 C 0.72450 0.11653 0.50136
 C351 C 0.70999 0.11629 0.51545
 C352 C 0.71369 0.12474 0.53349
 C353 C 0.73166 0.13313 0.53760
 C354 C 0.74609 0.13278 0.52343
 H355 H 0.74038 0.13937 0.46963
 H356 H 0.77809 0.10988 0.50841
 H357 H 0.72196 0.11014 0.48737
 H358 H 0.76004 0.13913 0.52629
 H359 H 0.79773 0.12482 0.45141
 H360 H 0.70255 0.12478 0.54438
 C361 C 1.02601 0.75439 0.86817
 C362 C 1.00809 0.75797 0.87670
 C363 C 1.00447 0.77588 0.88526
 C364 C 1.01872 0.79030 0.88561
 C365 C 1.03658 0.78649 0.87672
 C366 C 1.04032 0.76865 0.86788
 C367 C 0.99308 0.74293 0.87663
 C368 C 0.99697 0.72471 0.88435
 C369 C 0.98277 0.71025 0.88452
 C370 C 0.96466 0.71435 0.87629
 C371 C 0.96065 0.73251 0.86828
 C372 C 0.97493 0.74679 0.86875
 H373 H 1.02858 0.74055 0.86146
 H374 H 0.99057 0.77833 0.89190
 H375 H 1.01106 0.72204 0.89049
 H376 H 0.97216 0.76088 0.86267
 H377 H 1.04767 0.79743 0.87664
 H378 H 0.95360 0.70338 0.87607
 C379 C 0.52580 0.25433 0.36639
 C380 C 0.50784 0.25789 0.37487
 C381 C 0.50416 0.27584 0.38335
 C382 C 0.51836 0.29022 0.38362
 C383 C 0.53624 0.28651 0.37486
 C384 C 0.54008 0.26865 0.36609
 C385 C 0.49282 0.24285 0.37482
 C386 C 0.49674 0.22458 0.38243
 C387 C 0.48246 0.21026 0.38273
 C388 C 0.46427 0.21439 0.37483
 C389 C 0.46019 0.23258 0.36694
 C390 C 0.47456 0.24680 0.36721
 H391 H 0.52844 0.24048 0.35974
 H392 H 0.49028 0.27839 0.38998
 H393 H 0.51085 0.22173 0.38843
 H394 H 0.47173 0.26092 0.36123
 H395 H 0.54721 0.29757 0.37485
 H396 H 0.45323 0.20339 0.37485
 C397 C 1.02659 0.24750 0.63249
 C398 C 1.00859 0.24360 0.62430
 C399 C 1.00498 0.22546 0.61623
 C400 C 1.01933 0.21112 0.61604
 C401 C 1.03728 0.21526 0.62459
 C402 C 1.04101 0.23334 0.63293
 C403 C 0.99347 0.25856 0.62418
 C404 C 0.99717 0.27664 0.61603
 C405 C 0.98286 0.29100 0.61565
 C406 C 0.96483 0.28696 0.62409
 C407 C 0.96101 0.26894 0.63251
 C408 C 0.97540 0.25475 0.63226
 H409 H 1.02916 0.26152 0.63882
 H410 H 0.99101 0.22277 0.60984
 H411 H 1.01119 0.27926 0.60973
 H412 H 0.97276 0.24078 0.63866
 H413 H 1.04845 0.20439 0.62478
 H414 H 0.95369 0.29785 0.62414
 C415 C 0.52538 0.74639 0.13244
 C416 C 0.50733 0.74230 0.12440
 C417 C 0.50386 0.72411 0.11638
 C418 C 0.51836 0.71002 0.11610
 C419 C 0.53633 0.71426 0.12442
 C420 C 0.53996 0.73237 0.13274
 C421 C 0.49206 0.75709 0.12431
 C422 C 0.49551 0.77516 0.11604
 C423 C 0.48099 0.78923 0.11557
 C424 C 0.46303 0.78509 0.12396
 C425 C 0.45942 0.76710 0.13252
 C426 C 0.47401 0.75309 0.13241
 H427 H 0.52786 0.76045 0.13873
 H428 H 0.48991 0.72116 0.11006
 H429 H 0.50945 0.77803 0.10968
 H430 H 0.47154 0.73913 0.13889
 H431 H 0.54753 0.70343 0.12443
 H432 H 0.45181 0.79591 0.12382
 O433 O -0.01435 0.99145 0.94730
 O434 O 0.01687 1.00678 0.94628
 O435 O -0.00727 0.94555 0.98766
 O436 O 0.00227 0.94175 1.01815
 O437 O -0.05470 0.98589 0.99409
 O438 O -0.05667 1.01804 1.00607
 O439 O 0.04139 0.99670 1.03997
 O440 O 0.04481 0.96809 1.02345
 O441 O 0.03859 1.04060 0.99835
 O442 O 0.01741 1.04440 0.96798
 O443 O -0.00281 1.03865 1.04238
 O444 O -0.03169 1.01951 1.04837
 O445 O 0.01473 1.00840 1.05505
 O446 O -0.01874 0.99568 1.05787
 O447 O 0.00850 1.05373 1.01563
 O448 O -0.00316 1.05737 0.98403
 O449 O 0.05356 1.01428 1.01081
 O450 O 0.05485 0.98280 0.99388
 O451 O -0.04087 1.00340 0.96250
 O452 O -0.04607 1.03182 0.98152
 O453 O -0.03942 0.95918 1.00529
 O454 O -0.01988 0.95541 1.03461
 O455 O 0.00306 0.96085 0.96055
 O456 O 0.03296 0.97885 0.95859
 Zr457 Zr 0.00640 0.98962 0.96933
 O458 O 0.02468 1.00724 0.98591
 Zr459 Zr -0.01048 0.96757 1.00831
 O460 O 0.00735 0.98413 1.02638
 Zr461 Zr -0.03259 1.00644 0.99152
 O462 O -0.01591 1.02473 1.00898
 Zr463 Zr 0.03204 0.99303 1.01147
 O464 O 0.01533 0.97444 0.99407
 Zr465 Zr 0.00975 1.03194 0.99470
 O466 O -0.00802 1.01537 0.97636
 Zr467 Zr -0.00678 1.00986 1.03370
 O468 O -0.02560 0.99225 1.01733
 O469 O -0.01883 0.98129 0.98319
 O470 O 0.01846 1.01841 1.02000
 C471 C -0.03181 0.99761 0.94742
 C472 C -0.00186 0.94569 0.96994
 C473 C -0.05456 0.96836 0.99996
 C474 C 0.03240 1.00286 1.05492
 C475 C 0.05348 1.03179 1.00491
 C476 C 0.00316 1.05362 1.03332
 H477 H 0.03629 1.01040 0.97830
 H478 H -0.02355 1.03628 1.01225
 H479 H -0.02707 0.97300 0.97503
 H480 H 0.01084 0.97647 1.03785
 H481 H 0.04203 0.95738 1.01446
 H482 H 0.01385 0.94542 1.02555
 H483 H -0.01644 1.05787 0.98913
 H484 H -0.03714 1.03772 0.97212
 H485 H 0.06698 0.98380 1.00135
 H486 H 0.03086 0.97326 0.94563
 H487 H -0.03766 1.02975 1.04050
 H488 H -0.05696 1.01191 1.01893
 H489 H 0.01588 0.99939 0.93411
 H490 H 0.02986 1.03879 0.96396
 H491 H -0.03031 0.96378 1.03956
 H492 H -0.01087 0.98410 1.06046
 O493 O 0.49102 0.44571 0.48665
 O494 O 0.50652 0.44454 0.51776
 O495 O 0.44484 0.48571 0.49434
 O496 O 0.44085 0.51607 0.50422
 O497 O 0.48477 0.49280 0.44675
 O498 O 0.51682 0.50501 0.44466
 O499 O 0.49598 0.53794 0.54318
 O500 O 0.46749 0.52122 0.54664
 O501 O 0.54015 0.49669 0.53968
 O502 O 0.54405 0.46652 0.51826
 O503 O 0.53749 0.54101 0.49868
 O504 O 0.51811 0.54713 0.47002
 O505 O 0.50736 0.55331 0.51656
 O506 O 0.49428 0.55633 0.48322
 O507 O 0.55288 0.51429 0.50967
 O508 O 0.55666 0.48276 0.49766
 O509 O 0.51384 0.50882 0.55495
 O510 O 0.48249 0.49166 0.55631
 O511 O 0.50264 0.46122 0.46019
 O512 O 0.53087 0.48048 0.45496
 O513 O 0.45810 0.50373 0.46230
 O514 O 0.45424 0.53285 0.48216
 O515 O 0.46040 0.45861 0.50435
 O516 O 0.47862 0.45654 0.53413
 Zr517 Zr 0.48912 0.46756 0.50760
 O518 O 0.50676 0.48410 0.52590
 Zr519 Zr 0.46666 0.50654 0.49121
 O520 O 0.48321 0.52456 0.50910
 Zr521 Zr 0.50550 0.49019 0.46869
 O522 O 0.52377 0.50763 0.48540
 Zr523 Zr 0.49242 0.50950 0.53359
 O524 O 0.47383 0.49212 0.51685
 Zr525 Zr 0.53128 0.49319 0.51088
 O526 O 0.51472 0.47488 0.49306
 Zr527 Zr 0.50876 0.53217 0.49484
 O528 O 0.49115 0.51585 0.47600
 O529 O 0.48051 0.48157 0.48254
 O530 O 0.51762 0.51832 0.51990
 C531 C 0.49705 0.44602 0.46915
 C532 C 0.44515 0.46794 0.49958
 C533 C 0.46720 0.49857 0.44705
 C534 C 0.50199 0.55299 0.53428
 C535 C 0.53141 0.50307 0.55469
 C536 C 0.55258 0.53202 0.50449
 H537 H 0.51007 0.47642 0.53742
 H538 H 0.53523 0.51105 0.47770
 H539 H 0.47224 0.47343 0.47428
 H540 H 0.47549 0.53595 0.51276
 H541 H 0.45682 0.51218 0.54387
 H542 H 0.44454 0.52337 0.51586
 H543 H 0.55710 0.48809 0.48447
 H544 H 0.53691 0.47106 0.46378
 H545 H 0.48353 0.49902 0.56850
 H546 H 0.47309 0.44357 0.53195
 H547 H 0.52835 0.53937 0.46389
 H548 H 0.51058 0.51782 0.44452
 H549 H 0.49921 0.43233 0.51672
 H550 H 0.53850 0.46233 0.53068
 H551 H 0.46248 0.53793 0.47172
 H552 H 0.48280 0.55883 0.49125
 O553 O 0.46107 -0.04112 0.49542
 O554 O 0.47924 -0.04315 0.46557
 O555 O 0.50407 -0.03874 0.53925
 O556 O 0.53006 -0.02104 0.54636
 O557 O 0.45889 0.00420 0.53754
 O558 O 0.45397 0.03228 0.51843
 O559 O 0.55424 0.01383 0.48990
 O560 O 0.55662 -0.01605 0.50435
 O561 O 0.51457 0.00875 0.44471
 O562 O 0.48280 -0.00801 0.44372
 O563 O 0.50837 0.05360 0.48336
 O564 O 0.49614 0.05695 0.51637
 O565 O 0.53880 0.04064 0.50078
 O566 O 0.51927 0.04677 0.53009
 O567 O 0.49707 0.03816 0.45672
 O568 O 0.46875 0.02245 0.45324
 O569 O 0.54126 -0.00227 0.46019
 O570 O 0.54273 -0.03329 0.47781
 O571 O 0.44581 -0.01416 0.50623
 O572 O 0.44357 0.01907 0.49434
 O573 O 0.48552 -0.00724 0.55278
 O574 O 0.51805 0.00645 0.55411
 O575 O 0.49168 -0.05399 0.51296
 O576 O 0.50720 -0.05513 0.48170
 Zr577 Zr 0.48984 -0.03216 0.49208
 O578 O 0.50749 -0.01561 0.47386
 Zr579 Zr 0.50640 -0.00963 0.53099
 O580 O 0.52479 0.00762 0.51421
 Zr581 Zr 0.46755 0.00687 0.50861
 O582 O 0.48427 0.02481 0.49088
 Zr583 Zr 0.53217 -0.00676 0.48870
 O584 O 0.51558 -0.02498 0.50656
 Zr585 Zr 0.49324 0.00980 0.46625
 O586 O 0.47450 -0.00758 0.48290
 Zr587 Zr 0.50993 0.03229 0.50495
 O588 O 0.49212 0.01610 0.52373
 O589 O 0.48137 -0.01814 0.51718
 O590 O 0.51852 0.01843 0.47987
 C591 C 0.44596 -0.03185 0.50074
 C592 C 0.49803 -0.05383 0.53034
 C593 C 0.46799 -0.00134 0.55265
 C594 C 0.55392 0.03158 0.49510
 C595 C 0.53231 0.00353 0.44509
 C596 C 0.50294 0.05325 0.46565
 H597 H 0.51086 -0.02329 0.46234
 H598 H 0.47654 0.03622 0.48731
 H599 H 0.47319 -0.02632 0.52549
 H600 H 0.53640 0.01087 0.52176
 H601 H 0.55282 -0.02801 0.51109
 H602 H 0.54185 -0.01671 0.53968
 H603 H 0.45783 0.01363 0.45557
 H604 H 0.44105 0.01110 0.48282
 H605 H 0.55587 -0.03106 0.47270
 H606 H 0.49995 -0.06737 0.48288
 H607 H 0.48389 0.05869 0.50933
 H608 H 0.46310 0.03855 0.52739
 H609 H 0.47373 -0.05613 0.46774
 H610 H 0.48387 -0.00070 0.43150
 H611 H 0.51038 0.01843 0.55510
 H612 H 0.53016 0.03940 0.53554
 O613 O -0.03832 0.45896 0.99474
 O614 O -0.01999 0.45723 0.96494
 O615 O 0.00439 0.46107 1.03881
 O616 O 0.03033 0.47873 1.04619
 O617 O -0.04079 0.50407 1.03716
 O618 O -0.04574 0.53216 1.01820
 O619 O 0.05481 0.51412 0.99023
 O620 O 0.05714 0.48412 1.00437
 O621 O 0.01538 0.50934 0.94471
 O622 O -0.01634 0.49254 0.94339
 O623 O 0.00889 0.55386 0.98367
 O624 O -0.00354 0.55693 1.01664
 O625 O 0.03925 0.54082 1.00123
 O626 O 0.01951 0.54669 1.03041
 O627 O -0.00225 0.53862 0.95686
 O628 O -0.03051 0.52289 0.95309
 O629 O 0.04201 0.49827 0.96024
 O630 O 0.04344 0.46710 0.97760
 O631 O -0.05368 0.48580 1.00570
 O632 O -0.05590 0.51911 0.99393
 O633 O -0.01425 0.49251 1.05248
 O634 O 0.01827 0.50615 1.05410
 O635 O -0.00778 0.44601 1.01231
 O636 O 0.00790 0.44515 0.98113
 Zr637 Zr -0.00954 0.46801 0.99160
 O638 O 0.00819 0.48474 0.97362
 Zr639 Zr 0.00675 0.49025 1.03079
 O640 O 0.02521 0.50767 1.01425
 Zr641 Zr -0.03200 0.50687 1.00830
 O642 O -0.01520 0.52498 0.99082
 Zr643 Zr 0.03277 0.49352 0.98867
 O644 O 0.01610 0.47512 1.00629
 Zr645 Zr -0.00607 0.51018 0.96613
 O646 O -0.02487 0.49263 0.98252
 Zr647 Zr 0.01036 0.53239 1.00511
 O648 O -0.00753 0.51602 1.02364
 O649 O -0.01819 0.48182 1.01677
 O650 O 0.01912 0.51876 0.97996
 C651 C -0.05348 0.46815 1.00008
 C652 C -0.00155 0.44604 1.02974
 C653 C -0.03176 0.49845 1.05229
 C654 C 0.05443 0.53182 0.99561
 C655 C 0.03313 0.50415 0.94513
 C656 C 0.00355 0.55365 0.96594
 H657 H 0.01164 0.47716 0.96206
 H658 H -0.02293 0.53640 0.98731
 H659 H -0.02640 0.47357 1.02498
 H660 H 0.03677 0.51087 1.02191
 H661 H 0.05332 0.47209 1.01098
 H662 H 0.04215 0.48311 1.03960
 H663 H -0.04142 0.51403 0.95529
 H664 H -0.05839 0.51114 0.98240
 H665 H 0.05660 0.46940 0.97258
 H666 H 0.00067 0.43289 0.98216
 H667 H -0.01572 0.55875 1.00950
 H668 H -0.03664 0.53846 1.02718
 H669 H -0.02550 0.44423 0.96698
 H670 H -0.01522 0.49995 0.93125
 H671 H 0.01060 0.51812 1.05514
 H672 H 0.03036 0.53929 1.03590
 O673 O -0.04004 0.54110 0.50259
 O674 O -0.02175 0.54295 0.53239
 O675 O 0.00269 0.53884 0.45857
 O676 O 0.02867 0.52115 0.45128
 O677 O -0.04246 0.49592 0.46032
 O678 O -0.04733 0.46779 0.47936
 O679 O 0.05309 0.48597 0.50743
 O680 O 0.05543 0.51589 0.49311
 O681 O 0.01365 0.49097 0.55286
 O682 O -0.01813 0.50773 0.55406
 O683 O 0.00725 0.44626 0.51406
 O684 O -0.00521 0.44307 0.48108
 O685 O 0.03757 0.45923 0.49650
 O686 O 0.01789 0.45323 0.46731
 O687 O -0.00388 0.46162 0.54082
 O688 O -0.03219 0.47730 0.54450
 O689 O 0.04028 0.50197 0.53729
 O690 O 0.04170 0.53306 0.51978
 O691 O -0.05538 0.51422 0.49172
 O692 O -0.05760 0.48096 0.50355
 O693 O -0.01591 0.50740 0.44500
 O694 O 0.01660 0.49370 0.44343
 O695 O -0.00953 0.55398 0.48500
 O696 O 0.00614 0.55497 0.51618
 Zr697 Zr -0.01127 0.53207 0.50579
 O698 O 0.00646 0.51542 0.52384
 Zr699 Zr 0.00508 0.50969 0.46669
 O700 O 0.02353 0.49233 0.48331
 Zr701 Zr -0.03367 0.49314 0.48920
 O702 O -0.01689 0.47511 0.50678
 Zr703 Zr 0.03105 0.50658 0.50884
 O704 O 0.01439 0.52492 0.49114
 Zr705 Zr -0.00778 0.49001 0.53142
 O706 O -0.02659 0.50748 0.51494
 Zr707 Zr 0.00869 0.46764 0.49254
 O708 O -0.00919 0.48395 0.47391
 O709 O -0.01988 0.51817 0.48066
 O710 O 0.01742 0.48138 0.51763
 C711 C -0.05519 0.53189 0.49727
 C712 C -0.00329 0.55390 0.46758
 C713 C -0.03343 0.50151 0.44518
 C714 C 0.05273 0.46824 0.50214
 C715 C 0.03140 0.49616 0.55242
 C716 C 0.00194 0.44656 0.53181
 H717 H 0.00989 0.52305 0.53538
 H718 H -0.02461 0.46370 0.51034
 H719 H -0.02809 0.52639 0.47243
 H720 H 0.03510 0.48909 0.47568
 H721 H 0.05161 0.52790 0.48644
 H722 H 0.04049 0.51672 0.45785
 H723 H -0.04314 0.48611 0.54222
 H724 H -0.06008 0.48892 0.51509
 H725 H 0.05486 0.53078 0.52482
 H726 H -0.00111 0.56722 0.51510
 H727 H -0.01737 0.44127 0.48824
 H728 H -0.03824 0.46153 0.47034
 H729 H -0.02727 0.55594 0.53030
 H730 H -0.01699 0.50039 0.56624
 H731 H 0.00894 0.48173 0.44244
 H732 H 0.02872 0.46063 0.46179
 O733 O 0.51349 0.99152 0.05357
 O734 O 0.48232 1.00697 0.05461
 O735 O 0.50627 0.94550 0.01339
 O736 O 0.49669 0.94158 -0.01708
 O737 O 0.55374 0.98570 0.00677
 O738 O 0.55575 1.01778 -0.00534
 O739 O 0.45761 0.99651 -0.03899
 O740 O 0.45415 0.96802 -0.02238
 O741 O 0.46054 1.04061 0.00247
 O742 O 0.48180 1.04454 0.03276
 O743 O 0.50193 1.03836 -0.04164
 O744 O 0.53069 1.01910 -0.04764
 O745 O 0.48426 1.00807 -0.05417
 O746 O 0.51771 0.99526 -0.05699
 O747 O 0.49067 1.05360 -0.01494
 O748 O 0.50236 1.05735 0.01663
 O749 O 0.44551 1.01427 -0.00985
 O750 O 0.44421 0.98286 0.00716
 O751 O 0.53999 1.00335 0.03828
 O752 O 0.54520 1.03170 0.01918
 O753 O 0.53842 0.95897 -0.00432
 O754 O 0.51883 0.95512 -0.03362
 O755 O 0.49598 0.96094 0.04046
 O756 O 0.46612 0.97906 0.04241
 Zr757 Zr 0.49269 0.98968 0.03159
 O758 O 0.47442 1.00728 0.01499
 Zr759 Zr 0.50948 0.96741 -0.00734
 O760 O 0.49165 0.98394 -0.02543
 Zr761 Zr 0.53168 1.00631 0.00928
 O762 O 0.51501 1.02456 -0.00822
 Zr763 Zr 0.46700 0.99297 -0.01050
 O764 O 0.48370 0.97441 0.00692
 Zr765 Zr 0.48938 1.03191 0.00607
 O766 O 0.50715 1.01537 0.02445
 Zr767 Zr 0.50581 1.00959 -0.03286
 O768 O 0.52463 0.99201 -0.01647
 O769 O 0.51789 0.98123 0.01772
 O770 O 0.48060 1.01829 -0.01917
 C771 C 0.53097 0.99762 0.05339
 C772 C 0.50087 0.94573 0.03111
 C773 C 0.55358 0.96814 0.00098
 C774 C 0.46659 1.00256 -0.05398
 C775 C 0.44562 1.03180 -0.00399
 C776 C 0.49602 1.05339 -0.03262
 H777 H 0.46284 1.01051 0.02261
 H778 H 0.52267 1.03607 -0.01154
 H779 H 0.52612 0.97295 0.02589
 H780 H 0.48812 0.97623 -0.03686
 H781 H 0.45694 0.95733 -0.01338
 H782 H 0.48509 0.94524 -0.02445
 H783 H 0.51564 1.05777 0.01153
 H784 H 0.53630 1.03764 0.02861
 H785 H 0.43207 0.98386 -0.00027
 H786 H 0.46823 0.97351 0.05539
 H787 H 0.53675 1.02930 -0.03977
 H788 H 0.55604 1.01157 -0.01816
 H789 H 0.48331 0.99963 0.06680
 H790 H 0.46938 1.03893 0.03686
 H791 H 0.52928 0.96343 -0.03859
 H792 H 0.50981 0.98369 -0.05953
 O793 O 0.48568 0.50700 0.05518
 O794 O 0.51689 0.49163 0.05628
 O795 O 0.49300 0.55306 0.01504
 O796 O 0.50263 0.55699 -0.01539
 O797 O 0.44557 0.51281 0.00825
 O798 O 0.44365 0.48072 -0.00393
 O799 O 0.54189 0.50212 -0.03723
 O800 O 0.54523 0.53064 -0.02055
 O801 O 0.53888 0.45801 0.00415
 O802 O 0.51756 0.45408 0.03440
 O803 O 0.49770 0.46023 -0.04006
 O804 O 0.46887 0.47939 -0.04612
 O805 O 0.51529 0.49052 -0.05250
 O806 O 0.48182 0.50329 -0.05540
 O807 O 0.50887 0.44500 -0.01333
 O808 O 0.49703 0.44124 0.01822
 O809 O 0.55390 0.48438 -0.00810
 O810 O 0.55512 0.51578 0.00899
 O811 O 0.45925 0.49513 0.03979
 O812 O 0.45414 0.46680 0.02061
 O813 O 0.46091 0.53955 -0.00275
 O814 O 0.48058 0.54341 -0.03200
 O815 O 0.50320 0.53766 0.04214
 O816 O 0.53306 0.51958 0.04419
 Zr817 Zr 0.50656 0.50891 0.03327
 O818 O 0.52491 0.49134 0.01670
 Zr819 Zr 0.48986 0.53114 -0.00570
 O820 O 0.50778 0.51465 -0.02376
 Zr821 Zr 0.46766 0.49222 0.01080
 O822 O 0.48443 0.47399 -0.00666
 Zr823 Zr 0.53239 0.50565 -0.00876
 O824 O 0.51560 0.52419 0.00864
 Zr825 Zr 0.51002 0.46669 0.00771
 O826 O 0.49216 0.48320 0.02605
 Zr827 Zr 0.49368 0.48897 -0.03126
 O828 O 0.47478 0.50652 -0.01491
 O829 O 0.48139 0.51732 0.01932
 O830 O 0.51885 0.48033 -0.01748
 C831 C 0.46822 0.50086 0.05494
 C832 C 0.49834 0.55285 0.03279
 C833 C 0.44574 0.53038 0.00248
 C834 C 0.53296 0.49604 -0.05225
 C835 C 0.55379 0.46684 -0.00230
 C836 C 0.50363 0.44521 -0.03104
 H837 H 0.53648 0.48813 0.02434
 H838 H 0.47680 0.46247 -0.01002
 H839 H 0.47312 0.52559 0.02747
 H840 H 0.51133 0.52236 -0.03517
 H841 H 0.54241 0.54131 -0.01153
 H842 H 0.51428 0.55336 -0.02269
 H843 H 0.48380 0.44075 0.01300
 H844 H 0.46303 0.46085 0.03003
 H845 H 0.56729 0.51479 0.00158
 H846 H 0.53090 0.52512 0.05717
 H847 H 0.46283 0.46916 -0.03829
 H848 H 0.44342 0.48693 -0.01675
 H849 H 0.51584 0.49896 0.06849
 H850 H 0.52999 0.45969 0.03852
 H851 H 0.47015 0.53510 -0.03700
 H852 H 0.48972 0.51486 -0.05792
 O853 O -0.01407 0.00891 0.55586
 O854 O 0.01710 -0.00648 0.55678
 O855 O -0.00681 0.05507 0.51574
 O856 O 0.00277 0.05900 0.48530
 O857 O -0.05440 0.01502 0.50907
 O858 O -0.05653 -0.01703 0.49693
 O859 O 0.04168 0.00387 0.46316
 O860 O 0.04520 0.03243 0.47982
 O861 O 0.03861 -0.04020 0.50445
 O862 O 0.01752 -0.04412 0.53478
 O863 O -0.00276 -0.03769 0.46048
 O864 O -0.03154 -0.01834 0.45460
 O865 O 0.01495 -0.00758 0.44801
 O866 O -0.01844 0.00547 0.44525
 O867 O 0.00849 -0.05302 0.48712
 O868 O -0.00330 -0.05671 0.51882
 O869 O 0.05372 -0.01389 0.49219
 O870 O 0.05518 0.01749 0.50932
 O871 O -0.04064 -0.00280 0.54057
 O872 O -0.04597 -0.03103 0.52136
 O873 O -0.03900 0.04170 0.49799
 O874 O -0.01939 0.04555 0.46872
 O875 O 0.00346 0.03959 0.54277
 O876 O 0.03329 0.02141 0.54461
 Zr877 Zr 0.00668 0.01084 0.53383
 O878 O 0.02487 -0.00680 0.51715
 Zr879 Zr -0.01009 0.03319 0.49497
 O880 O 0.00768 0.01664 0.47680
 Zr881 Zr -0.03238 -0.00565 0.51153
 O882 O -0.01579 -0.02393 0.49396
 Zr883 Zr 0.03231 0.00750 0.49167
 O884 O 0.01569 0.02610 0.50917
 Zr885 Zr 0.00982 -0.03137 0.50820
 O886 O -0.00785 -0.01480 0.52665
 Zr887 Zr -0.00659 -0.00895 0.46934
 O888 O -0.02533 0.00866 0.48580
 O889 O -0.01852 0.01938 0.52002
 O890 O 0.01860 -0.01774 0.48299
 C891 C -0.03155 0.00281 0.55570
 C892 C -0.00140 0.05482 0.53345
 C893 C -0.05419 0.03257 0.50325
 C894 C 0.03266 -0.00220 0.44819
 C895 C 0.05354 -0.03145 0.49793
 C896 C 0.00316 -0.05275 0.46943
 H897 H 0.03647 -0.01008 0.52473
 H898 H -0.02349 -0.03541 0.49061
 H899 H -0.02673 0.02765 0.52822
 H900 H 0.01122 0.02434 0.46538
 H901 H 0.04250 0.04311 0.48888
 H902 H 0.01437 0.05533 0.47792
 H903 H -0.01647 -0.05726 0.51345
 H904 H -0.03704 -0.03707 0.53068
 H905 H 0.06730 0.01647 0.50184
 H906 H 0.03122 0.02697 0.55759
 H907 H -0.03756 -0.02862 0.46239
 H908 H -0.05677 -0.01085 0.48409
 H909 H 0.01615 0.00085 0.56899
 H910 H 0.02992 -0.03846 0.53891
 H911 H -0.02985 0.03727 0.46372
 H912 H -0.01044 0.01695 0.44267
 O913 O 0.73557 0.19596 0.25639
 O914 O 0.76664 0.19484 0.24074
 O915 O 0.74320 0.23601 0.30244
 O916 O 0.75289 0.26644 0.30637
 O917 O 0.69550 0.24290 0.26251
 O918 O 0.69337 0.25511 0.23045
 O919 O 0.79175 0.28831 0.25129
 O920 O 0.79530 0.27160 0.27974
 O921 O 0.78843 0.24700 0.20711
 O922 O 0.76707 0.21674 0.20328
 O923 O 0.74729 0.29122 0.20969
 O924 O 0.71856 0.29727 0.22906
 O925 O 0.76508 0.30361 0.23989
 O926 O 0.73172 0.30655 0.25287
 O927 O 0.75833 0.26450 0.19433
 O928 O 0.74648 0.23298 0.19057
 O929 O 0.80364 0.25922 0.23341
 O930 O 0.80507 0.24207 0.26475
 O931 O 0.70905 0.21137 0.24473
 O932 O 0.70375 0.23055 0.21643
 O933 O 0.71103 0.25386 0.28918
 O934 O 0.73074 0.28309 0.29298
 O935 O 0.75331 0.20894 0.28689
 O936 O 0.78304 0.20689 0.26861
 Zr937 Zr 0.75646 0.21785 0.25815
 O938 O 0.77470 0.23442 0.24050
 Zr939 Zr 0.73993 0.25680 0.28059
 O940 O 0.75773 0.27485 0.26401
 Zr941 Zr 0.71745 0.24035 0.24178
 O942 O 0.73409 0.25781 0.22347
 Zr943 Zr 0.78228 0.25985 0.25482
 O944 O 0.76562 0.24245 0.27343
 Zr945 Zr 0.75963 0.24344 0.21597
 O946 O 0.74188 0.22510 0.23256
 Zr947 Zr 0.74345 0.28240 0.23844
 O948 O 0.72467 0.26605 0.25609
 O949 O 0.73136 0.23180 0.26676
 O950 O 0.76856 0.26861 0.22961
 C951 C 0.71805 0.19622 0.25039
 C952 C 0.74853 0.21826 0.30214
 C953 C 0.69580 0.24865 0.28009
 C954 C 0.78279 0.30334 0.24530
 C955 C 0.80340 0.25344 0.21585
 C956 C 0.75311 0.28222 0.19461
 H957 H 0.78624 0.22677 0.23719
 H958 H 0.72639 0.26119 0.21200
 H959 H 0.72314 0.22365 0.27507
 H960 H 0.76134 0.28626 0.27172
 H961 H 0.79255 0.26257 0.29042
 H962 H 0.76451 0.27377 0.30267
 H963 H 0.73322 0.23815 0.19022
 H964 H 0.71259 0.22111 0.21043
 H965 H 0.81723 0.24947 0.26370
 H966 H 0.78091 0.19390 0.27413
 H967 H 0.71248 0.28948 0.21882
 H968 H 0.69319 0.26792 0.23668
 H969 H 0.76564 0.18263 0.24806
 H970 H 0.77956 0.21264 0.20875
 H971 H 0.72026 0.28812 0.28474
 H972 H 0.73968 0.30903 0.26441
 O973 O 0.75413 0.70832 0.71282
 O974 O 0.78377 0.70614 0.73098
 O975 O 0.71012 0.71090 0.75562
 O976 O 0.70292 0.72874 0.78149
 O977 O 0.71206 0.75371 0.71026
 O978 O 0.73143 0.78170 0.70524
 O979 O 0.75950 0.76372 0.80571
 O980 O 0.74510 0.73395 0.80824
 O981 O 0.80483 0.75768 0.76594
 O982 O 0.80561 0.74363 0.73145
 O983 O 0.76571 0.80349 0.75978
 O984 O 0.73289 0.80654 0.74753
 O985 O 0.74858 0.79044 0.79015
 O986 O 0.71914 0.79624 0.77052
 O987 O 0.79227 0.78799 0.74854
 O988 O 0.79873 0.76982 0.72075
 O989 O 0.78922 0.74755 0.79287
 O990 O 0.77153 0.71654 0.79446
 O991 O 0.74343 0.73522 0.69739
 O992 O 0.75588 0.76740 0.69496
 O993 O 0.69673 0.74239 0.73688
 O994 O 0.69534 0.75618 0.76948
 O995 O 0.73645 0.69557 0.74342
 O996 O 0.76766 0.69456 0.75920
 Zr997 Zr 0.75737 0.71736 0.74160
 O998 O 0.77568 0.73398 0.75914
 Zr999 Zr 0.71843 0.74002 0.75788
 O1000 O 0.73522 0.75733 0.77624
 Zr1001 Zr 0.74096 0.75632 0.71904
 O1002 O 0.75861 0.77449 0.73564
 Zr1003 Zr 0.76074 0.74303 0.78372
 O1004 O 0.74283 0.72472 0.76724
 Zr1005 Zr 0.78318 0.75941 0.74476
 O1006 O 0.76652 0.74188 0.72627
 Zr1007 Zr 0.74444 0.78195 0.76131
 O1008 O 0.72573 0.76567 0.74350
 O1009 O 0.73232 0.73137 0.73294
 O1010 O 0.76962 0.76821 0.77002
 C1011 C 0.74889 0.71753 0.69764
 C1012 C 0.71904 0.69577 0.74968
 C1013 C 0.69691 0.74823 0.71934
 C1014 C 0.75427 0.78146 0.80531
 C1015 C 0.80441 0.75287 0.78379
 C1016 C 0.78339 0.80312 0.75434
 H1017 H 0.78710 0.72622 0.76265
 H1018 H 0.76201 0.78594 0.72792
 H1019 H 0.72403 0.72317 0.72476
 H1020 H 0.72765 0.76061 0.78784
 H1021 H 0.73830 0.72200 0.80452
 H1022 H 0.70971 0.73291 0.79328
 H1023 H 0.78995 0.77820 0.71332
 H1024 H 0.76845 0.76069 0.69452
 H1025 H 0.77670 0.71885 0.80757
 H1026 H 0.76641 0.68223 0.75211
 H1027 H 0.73982 0.80823 0.73521
 H1028 H 0.72232 0.78801 0.71420
 H1029 H 0.78154 0.69304 0.72575
 H1030 H 0.80969 0.73340 0.74046
 H1031 H 0.69428 0.76806 0.76169
 H1032 H 0.71389 0.78909 0.78165
 O1033 O 0.29134 0.21188 0.74752
 O1034 O 0.29325 0.23024 0.71780
 O1035 O 0.28898 0.25458 0.79166
 O1036 O 0.27122 0.28050 0.79897
 O1037 O 0.24606 0.20937 0.78974
 O1038 O 0.21804 0.20443 0.77063
 O1039 O 0.23609 0.30492 0.74275
 O1040 O 0.26600 0.30730 0.75713
 O1041 O 0.24112 0.26553 0.69732
 O1042 O 0.25804 0.23386 0.69605
 O1043 O 0.19645 0.25902 0.73597
 O1044 O 0.19327 0.24653 0.76898
 O1045 O 0.20935 0.28936 0.75358
 O1046 O 0.20332 0.26969 0.78274
 O1047 O 0.21189 0.24791 0.70925
 O1048 O 0.22767 0.21961 0.70559
 O1049 O 0.25210 0.29216 0.71291
 O1050 O 0.28320 0.29361 0.73046
 O1051 O 0.26446 0.19649 0.75830
 O1052 O 0.23122 0.19424 0.74648
 O1053 O 0.25748 0.23590 0.80516
 O1054 O 0.24380 0.26841 0.80672
 O1055 O 0.30418 0.24241 0.76524
 O1056 O 0.30518 0.25812 0.73410
 Zr1057 Zr 0.28229 0.24064 0.74441
 O1058 O 0.26564 0.25836 0.72634
 Zr1059 Zr 0.25983 0.25691 0.78349
 O1060 O 0.24246 0.27535 0.76685
 Zr1061 Zr 0.24337 0.21817 0.76087
 O1062 O 0.22533 0.23494 0.74329
 Zr1063 Zr 0.25674 0.28292 0.74136
 O1064 O 0.27507 0.26627 0.75908
 Zr1065 Zr 0.24026 0.24408 0.71870
 O1066 O 0.25775 0.22529 0.73519
 Zr1067 Zr 0.21780 0.26049 0.75755
 O1068 O 0.23411 0.24262 0.77618
 O1069 O 0.26837 0.23197 0.76950
 O1070 O 0.23158 0.26925 0.73250
 C1071 C 0.28212 0.19671 0.75274
 C1072 C 0.30407 0.24865 0.78266
 C1073 C 0.25157 0.21838 0.80492
 C1074 C 0.21835 0.30452 0.74797
 C1075 C 0.24626 0.28329 0.69778
 C1076 C 0.19680 0.25371 0.71823
 H1077 H 0.27327 0.26182 0.71482
 H1078 H 0.21394 0.22720 0.73970
 H1079 H 0.27659 0.22375 0.77774
 H1080 H 0.23919 0.28691 0.77449
 H1081 H 0.27801 0.30350 0.76381
 H1082 H 0.26686 0.29231 0.79236
 H1083 H 0.23659 0.20873 0.70776
 H1084 H 0.23916 0.19181 0.73492
 H1085 H 0.28090 0.30677 0.72542
 H1086 H 0.31744 0.25090 0.73520
 H1087 H 0.19143 0.23441 0.76174
 H1088 H 0.21170 0.21352 0.77960
 H1089 H 0.30625 0.22475 0.71991
 H1090 H 0.25068 0.23495 0.68387
 H1091 H 0.23181 0.26076 0.80765
 H1092 H 0.21072 0.28051 0.78830
 O1093 O 0.21093 0.74652 0.29047
 O1094 O 0.22914 0.71668 0.29236
 O1095 O 0.25380 0.79040 0.28790
 O1096 O 0.27973 0.79750 0.27006
 O1097 O 0.20842 0.78862 0.24523
 O1098 O 0.20341 0.76952 0.21713
 O1099 O 0.30380 0.74107 0.23499
 O1100 O 0.30632 0.75554 0.26484
 O1101 O 0.26422 0.69583 0.24031
 O1102 O 0.23251 0.69484 0.25720
 O1103 O 0.25769 0.73446 0.19547
 O1104 O 0.24542 0.76749 0.19224
 O1105 O 0.28821 0.75194 0.20827
 O1106 O 0.26862 0.78119 0.20225
 O1107 O 0.24655 0.70782 0.21097
 O1108 O 0.21834 0.70431 0.22681
 O1109 O 0.29094 0.71134 0.25117
 O1110 O 0.29256 0.72902 0.28218
 O1111 O 0.19550 0.75731 0.26361
 O1112 O 0.19310 0.74542 0.23038
 O1113 O 0.23508 0.80390 0.25653
 O1114 O 0.26752 0.80528 0.24263
 O1115 O 0.24155 0.76408 0.30317
 O1116 O 0.25714 0.73285 0.30420
 Zr1117 Zr 0.23965 0.74320 0.28134
 O1118 O 0.25724 0.72499 0.26468
 Zr1119 Zr 0.25602 0.78214 0.25876
 O1120 O 0.27434 0.76536 0.24138
 Zr1121 Zr 0.21713 0.75970 0.24245
 O1122 O 0.23377 0.74198 0.22441
 Zr1123 Zr 0.28184 0.73986 0.25570
 O1124 O 0.26532 0.75772 0.27403
 Zr1125 Zr 0.24286 0.71736 0.23935
 O1126 O 0.22419 0.73400 0.25684
 Zr1127 Zr 0.25937 0.75607 0.21679
 O1128 O 0.24162 0.77485 0.23310
 O1129 O 0.23106 0.76829 0.26739
 O1130 O 0.26808 0.73100 0.23058
 C1131 C 0.19576 0.75184 0.28130
 C1132 C 0.24785 0.78148 0.30301
 C1133 C 0.21751 0.80375 0.25076
 C1134 C 0.30339 0.74628 0.21725
 C1135 C 0.28198 0.69622 0.24546
 C1136 C 0.25229 0.71675 0.19584
 H1137 H 0.26066 0.71348 0.27234
 H1138 H 0.22599 0.73840 0.21305
 H1139 H 0.22291 0.77658 0.27562
 H1140 H 0.28592 0.77292 0.23807
 H1141 H 0.30258 0.76230 0.27682
 H1142 H 0.29150 0.79087 0.26559
 H1143 H 0.20745 0.70667 0.23566
 H1144 H 0.19063 0.73390 0.23835
 H1145 H 0.30569 0.72391 0.27987
 H1146 H 0.24996 0.73402 0.31648
 H1147 H 0.23317 0.76044 0.19056
 H1148 H 0.21249 0.77852 0.21084
 H1149 H 0.22369 0.71885 0.30538
 H1150 H 0.23358 0.68262 0.24991
 H1151 H 0.25980 0.80625 0.23070
 H1152 H 0.27948 0.78671 0.20961
 O1153 O 0.19544 0.74229 0.76400
 O1154 O 0.19445 0.75795 0.73294
 O1155 O 0.23523 0.69596 0.75622
 O1156 O 0.26565 0.69184 0.74662
 O1157 O 0.24234 0.73582 0.80402
 O1158 O 0.25476 0.76779 0.80620
 O1159 O 0.28787 0.74691 0.70778
 O1160 O 0.27103 0.71850 0.70422
 O1161 O 0.24679 0.79125 0.71119
 O1162 O 0.21660 0.79530 0.73257
 O1163 O 0.29103 0.78835 0.75233
 O1164 O 0.29694 0.76890 0.78102
 O1165 O 0.30323 0.75815 0.73448
 O1166 O 0.30607 0.74505 0.76781
 O1167 O 0.26442 0.80388 0.74127
 O1168 O 0.23292 0.80785 0.75318
 O1169 O 0.25884 0.76490 0.69592
 O1170 O 0.24156 0.73363 0.69447
 O1171 O 0.21094 0.75383 0.79051
 O1172 O 0.23031 0.78198 0.79584
 O1173 O 0.25313 0.70909 0.78846
 O1174 O 0.28236 0.70513 0.76874
 O1175 O 0.20825 0.71169 0.74617
 O1176 O 0.20631 0.73003 0.71650
 Zr1177 Zr 0.21734 0.74038 0.74309
 O1178 O 0.23403 0.75794 0.72488
 Zr1179 Zr 0.25615 0.71768 0.75958
 O1180 O 0.27432 0.73415 0.74179
 Zr1181 Zr 0.23994 0.75658 0.78210
 O1182 O 0.25753 0.77478 0.76549
 Zr1183 Zr 0.25938 0.74347 0.71726
 O1184 O 0.24185 0.72496 0.73390
 Zr1185 Zr 0.24321 0.78240 0.73998
 O1186 O 0.22475 0.76592 0.75770
 Zr1187 Zr 0.28201 0.75966 0.75611
 O1188 O 0.26554 0.74211 0.77487
 O1189 O 0.23123 0.73165 0.76818
 O1190 O 0.26829 0.76861 0.73102
 C1191 C 0.19574 0.74829 0.78151
 C1192 C 0.21750 0.69637 0.75087
 C1193 C 0.24798 0.71820 0.80371
 C1194 C 0.30293 0.75281 0.71675
 C1195 C 0.25315 0.78248 0.69619
 C1196 C 0.28214 0.80348 0.74651
 H1197 H 0.22640 0.76130 0.71334
 H1198 H 0.26098 0.78622 0.77321
 H1199 H 0.22302 0.72339 0.77637
 H1200 H 0.28568 0.72639 0.73817
 H1201 H 0.26194 0.70787 0.70695
 H1202 H 0.27295 0.69549 0.73497
 H1203 H 0.23813 0.80819 0.76641
 H1204 H 0.22094 0.78807 0.78701
 H1205 H 0.24896 0.73464 0.68231
 H1206 H 0.19328 0.72460 0.71861
 H1207 H 0.28922 0.77920 0.78712
 H1208 H 0.26753 0.76146 0.80638
 H1209 H 0.18218 0.75072 0.73394
 H1210 H 0.21242 0.78981 0.72011
 H1211 H 0.28742 0.71332 0.77925
 H1212 H 0.30850 0.73353 0.75980
 O1213 O 0.25338 0.20858 0.21274
 O1214 O 0.28311 0.20666 0.23111
 O1215 O 0.20926 0.21109 0.25543
 O1216 O 0.20195 0.22890 0.28129
 O1217 O 0.21122 0.25389 0.21013
 O1218 O 0.23034 0.28190 0.20519
 O1219 O 0.25824 0.26394 0.30574
 O1220 O 0.24384 0.23407 0.30814
 O1221 O 0.30369 0.25872 0.26634
 O1222 O 0.30489 0.24186 0.23464
 O1223 O 0.26504 0.30351 0.25980
 O1224 O 0.23212 0.30679 0.24734
 O1225 O 0.24739 0.29066 0.29014
 O1226 O 0.21822 0.29666 0.27037
 O1227 O 0.29176 0.28804 0.24873
 O1228 O 0.29542 0.27226 0.22046
 O1229 O 0.28810 0.24779 0.29298
 O1230 O 0.27046 0.21677 0.29446
 O1231 O 0.24263 0.23544 0.19731
 O1232 O 0.25453 0.26869 0.19504
 O1233 O 0.19581 0.24253 0.23668
 O1234 O 0.19427 0.25633 0.26918
 O1235 O 0.23565 0.19582 0.24327
 O1236 O 0.26680 0.19479 0.25900
 Zr1237 Zr 0.25652 0.21767 0.24150
 O1238 O 0.27461 0.23432 0.25919
 Zr1239 Zr 0.21747 0.24023 0.25771
 O1240 O 0.23413 0.25757 0.27615
 Zr1241 Zr 0.24010 0.25658 0.21896
 O1242 O 0.25769 0.27461 0.23573
 Zr1243 Zr 0.25962 0.24326 0.28375
 O1244 O 0.24186 0.22495 0.26711
 Zr1245 Zr 0.28228 0.25967 0.24490
 O1246 O 0.26577 0.24218 0.22612
 Zr1247 Zr 0.24345 0.28219 0.26127
 O1248 O 0.22480 0.26590 0.24339
 O1249 O 0.23145 0.23162 0.23280
 O1250 O 0.26850 0.26840 0.27007
 C1251 C 0.24815 0.21777 0.19756
 C1252 C 0.21823 0.19598 0.24951
 C1253 C 0.19605 0.24839 0.21914
 C1254 C 0.25299 0.28168 0.30533
 C1255 C 0.30325 0.25355 0.28409
 C1256 C 0.28279 0.30315 0.25450
 H1257 H 0.28612 0.22667 0.26266
 H1258 H 0.26130 0.28600 0.22799
 H1259 H 0.22320 0.22340 0.22459
 H1260 H 0.22650 0.26086 0.28770
 H1261 H 0.23712 0.22209 0.30435
 H1262 H 0.20859 0.23323 0.29311
 H1263 H 0.29317 0.26340 0.20955
 H1264 H 0.26604 0.26068 0.19259
 H1265 H 0.27550 0.21907 0.30762
 H1266 H 0.26568 0.18252 0.25180
 H1267 H 0.23924 0.30849 0.23513
 H1268 H 0.22138 0.28826 0.21427
 H1269 H 0.28098 0.19365 0.22564
 H1270 H 0.31709 0.24918 0.23575
 H1271 H 0.19330 0.26827 0.26145
 H1272 H 0.21271 0.28935 0.28126
 O1273 O 0.79049 0.71192 0.24705
 O1274 O 0.79246 0.73030 0.21733
 O1275 O 0.78781 0.75456 0.29120
 O1276 O 0.76996 0.78043 0.29847
 O1277 O 0.74508 0.70922 0.28903
 O1278 O 0.71709 0.70430 0.26981
 O1279 O 0.73506 0.80487 0.24215
 O1280 O 0.76490 0.80728 0.25665
 O1281 O 0.74043 0.76554 0.19664
 O1282 O 0.75734 0.73385 0.19544
 O1283 O 0.69554 0.75889 0.23513
 O1284 O 0.69219 0.74638 0.26803
 O1285 O 0.70831 0.78923 0.25287
 O1286 O 0.70222 0.76944 0.28197
 O1287 O 0.71110 0.74787 0.20844
 O1288 O 0.72692 0.71962 0.20478
 O1289 O 0.75126 0.79218 0.21234
 O1290 O 0.78225 0.79366 0.23004
 O1291 O 0.76360 0.69646 0.25769
 O1292 O 0.73040 0.69416 0.24566
 O1293 O 0.75637 0.73577 0.30451
 O1294 O 0.74252 0.76824 0.30607
 O1295 O 0.80316 0.74245 0.26484
 O1296 O 0.80427 0.75820 0.23371
 Zr1297 Zr 0.78138 0.74067 0.24390
 O1298 O 0.76476 0.75837 0.22578
 Zr1299 Zr 0.75870 0.75683 0.28289
 O1300 O 0.74138 0.77527 0.26622
 Zr1301 Zr 0.74243 0.71808 0.26016
 O1302 O 0.72444 0.73485 0.24253
 Zr1303 Zr 0.75576 0.78290 0.24080
 O1304 O 0.77404 0.76626 0.25857
 Zr1305 Zr 0.73945 0.74407 0.21801
 O1306 O 0.75690 0.72528 0.23454
 Zr1307 Zr 0.71680 0.76037 0.25679
 O1308 O 0.73305 0.74249 0.27546
 O1309 O 0.76736 0.73194 0.26890
 O1310 O 0.73065 0.76921 0.23181
 C1311 C 0.78130 0.69673 0.25225
 C1312 C 0.80295 0.74866 0.28227
 C1313 C 0.75056 0.71823 0.30423
 C1314 C 0.71730 0.80443 0.24733
 C1315 C 0.74555 0.78331 0.19715
 C1316 C 0.69596 0.75362 0.21737
 H1317 H 0.77245 0.76186 0.21430
 H1318 H 0.71308 0.72710 0.23887
 H1319 H 0.77556 0.72374 0.27717
 H1320 H 0.73806 0.78681 0.27386
 H1321 H 0.77687 0.80348 0.26339
 H1322 H 0.76559 0.79224 0.29187
 H1323 H 0.73579 0.70872 0.20706
 H1324 H 0.73844 0.69173 0.23417
 H1325 H 0.77996 0.80682 0.22502
 H1326 H 0.81655 0.75100 0.23486
 H1327 H 0.69051 0.73419 0.26087
 H1328 H 0.71073 0.71335 0.27881
 H1329 H 0.80547 0.72483 0.21949
 H1330 H 0.75006 0.73498 0.18322
 H1331 H 0.73059 0.76051 0.30698
 H1332 H 0.70954 0.78031 0.28755
 O1333 O 0.80494 0.24084 0.73419
 O1334 O 0.80598 0.25628 0.76535
 O1335 O 0.76509 0.19453 0.74167
 O1336 O 0.73469 0.19044 0.75133
 O1337 O 0.75798 0.23464 0.69415
 O1338 O 0.74564 0.26663 0.69215
 O1339 O 0.71257 0.24530 0.79049
 O1340 O 0.72940 0.21689 0.79388
 O1341 O 0.75367 0.28964 0.78730
 O1342 O 0.78387 0.29371 0.76596
 O1343 O 0.70943 0.28706 0.74616
 O1344 O 0.70343 0.26774 0.71742
 O1345 O 0.69718 0.25674 0.76390
 O1346 O 0.69431 0.24384 0.73047
 O1347 O 0.73609 0.30247 0.75726
 O1348 O 0.76760 0.30638 0.74540
 O1349 O 0.74161 0.26324 0.80242
 O1350 O 0.75888 0.23194 0.80369
 O1351 O 0.78945 0.25254 0.70775
 O1352 O 0.77008 0.28074 0.70259
 O1353 O 0.74715 0.20787 0.70955
 O1354 O 0.71796 0.20386 0.72928
 O1355 O 0.79211 0.21014 0.75179
 O1356 O 0.79407 0.22830 0.78160
 Zr1357 Zr 0.78306 0.23884 0.75508
 O1358 O 0.76640 0.25636 0.77341
 Zr1359 Zr 0.74420 0.21632 0.73849
 O1360 O 0.72607 0.23275 0.75639
 Zr1361 Zr 0.76045 0.25529 0.71618
 O1362 O 0.74289 0.27344 0.73292
 Zr1363 Zr 0.74104 0.24191 0.78096
 O1364 O 0.75853 0.22343 0.76420
 Zr1365 Zr 0.75725 0.28090 0.75846
 O1366 O 0.77567 0.26446 0.74064
 Zr1367 Zr 0.71838 0.25834 0.74224
 O1368 O 0.73483 0.24085 0.72337
 O1369 O 0.76913 0.23027 0.72995
 O1370 O 0.73214 0.26714 0.76737
 C1371 C 0.80465 0.24695 0.71672
 C1372 C 0.78284 0.19487 0.74698
 C1373 C 0.75230 0.21705 0.69436
 C1374 C 0.69749 0.25127 0.78158
 C1375 C 0.74731 0.28082 0.80225
 C1376 C 0.71837 0.30215 0.75202
 H1377 H 0.77404 0.25964 0.78496
 H1378 H 0.73945 0.28492 0.72526
 H1379 H 0.77733 0.22204 0.72169
 H1380 H 0.71471 0.22498 0.75998
 H1381 H 0.73848 0.20626 0.79107
 H1382 H 0.72739 0.19406 0.76299
 H1383 H 0.76236 0.30681 0.73218
 H1384 H 0.77949 0.28676 0.71145
 H1385 H 0.75148 0.23291 0.81586
 H1386 H 0.80708 0.22283 0.77944
 H1387 H 0.71119 0.27799 0.71133
 H1388 H 0.73285 0.26037 0.69196
 H1389 H 0.81823 0.24902 0.76431
 H1390 H 0.78805 0.28814 0.77837
 H1391 H 0.71289 0.21213 0.71885
 H1392 H 0.69186 0.23229 0.73842
 N1393 N 0.09869 1.02641 1.16265
 C1394 C 0.09017 1.00940 1.15847
 N1395 N 0.09042 0.99513 1.17177
 N1396 N 0.09892 0.99784 1.18877
 C1397 C 0.10745 1.01493 1.19313
 N1398 N 0.10717 1.02910 1.17962
 C1399 C 0.08047 1.00693 1.14040
 C1400 C 0.07216 1.00552 1.12523
 C1401 C 0.06200 1.00449 1.10726
 N1402 N 0.07099 0.99832 1.09106
 N1403 N 0.06159 0.99781 1.07434
 C1404 C 0.04291 1.00352 1.07326
 N1405 N 0.03399 1.00970 1.08952
 N1406 N 0.04338 1.01020 1.10622
 N1407 N 0.59969 0.52592 0.66150
 C1408 C 0.59046 0.50921 0.65757
 N1409 N 0.59020 0.49510 0.67104
 N1410 N 0.59888 0.49767 0.68797
 C1411 C 0.60811 0.51445 0.69204
 N1412 N 0.60835 0.52847 0.67840
 C1413 C 0.58053 0.50693 0.63959
 C1414 C 0.57202 0.50563 0.62452
 C1415 C 0.56165 0.50468 0.60667
 N1416 N 0.57035 0.49826 0.59041
 N1417 N 0.56075 0.49778 0.57380
 C1418 C 0.54214 0.50374 0.57290
 N1419 N 0.53350 0.51016 0.58922
 N1420 N 0.54309 0.51065 0.60581
 N1421 N 0.41027 0.00620 0.66983
 C1422 C 0.41008 -0.00758 0.65601
 N1423 N 0.40112 -0.02450 0.65959
 N1424 N 0.39264 -0.02759 0.67648
 C1425 C 0.39281 -0.01391 0.69046
 N1426 N 0.40176 0.00310 0.68676
 C1427 C 0.41986 -0.00475 0.63804
 C1428 C 0.42826 -0.00311 0.62295
 C1429 C 0.43850 -0.00194 0.60506
 N1430 N 0.42948 0.00391 0.58877
 N1431 N 0.43889 0.00423 0.57205
 C1432 C 0.45761 -0.00135 0.57107
 N1433 N 0.46659 -0.00716 0.58743
 N1434 N 0.45719 -0.00747 0.60413
 N1435 N -0.09929 0.47607 1.15890
 C1436 C -0.09009 0.49289 1.15543
 N1437 N -0.08977 0.50660 1.16932
 N1438 N -0.09837 0.50353 1.18620
 C1439 C -0.10756 0.48663 1.18980
 N1440 N -0.10787 0.47302 1.17575
 C1441 C -0.08019 0.49564 1.13753
 C1442 C -0.07172 0.49716 1.12247
 C1443 C -0.06141 0.49818 1.10461
 N1444 N -0.04277 0.49248 1.10374
 N1445 N -0.03333 0.49266 1.08707
 C1446 C -0.04221 0.49849 1.07067
 N1447 N -0.06089 0.50422 1.07158
 N1448 N -0.07034 0.50404 1.08828
 N1449 N -0.10012 0.52501 0.33818
 C1450 C -0.09154 0.50793 0.34194
 N1451 N -0.09167 0.49400 0.32827
 N1452 N -0.10012 0.49711 0.31132
 C1453 C -0.10870 0.51428 0.30738
 N1454 N -0.10854 0.52811 0.32126
 C1455 C -0.08179 0.50508 0.35992
 C1456 C -0.07339 0.50343 0.37501
 C1457 C -0.06310 0.50224 0.39287
 N1458 N -0.04442 0.50777 0.39376
 N1459 N -0.03497 0.50742 0.41043
 C1460 C -0.04389 0.50158 0.42681
 N1461 N -0.06261 0.49600 0.42587
 N1462 N -0.07207 0.49636 0.40918
 N1463 N 0.40011 1.02572 -0.16143
 C1464 C 0.40875 1.00873 -0.15744
 N1465 N 0.40870 0.99462 -0.17093
 N1466 N 0.40026 0.99747 -0.18793
 C1467 C 0.39162 1.01456 -0.19210
 N1468 N 0.39171 1.02856 -0.17840
 C1469 C 0.41845 1.00616 -0.13939
 C1470 C 0.42678 1.00475 -0.12424
 C1471 C 0.43696 1.00379 -0.10630
 N1472 N 0.42798 0.99777 -0.09005
 N1473 N 0.43739 0.99739 -0.07333
 C1474 C 0.45607 1.00310 -0.07231
 N1475 N 0.46499 1.00912 -0.08862
 N1476 N 0.45559 1.00949 -0.10532
 N1477 N 0.59079 0.50390 -0.16915
 C1478 C 0.59113 0.48988 -0.15558
 N1479 N 0.60021 0.47308 -0.15950
 N1480 N 0.60865 0.47035 -0.17648
 C1481 C 0.60833 0.48428 -0.19021
 N1482 N 0.59926 0.50115 -0.18616
 C1483 C 0.58139 0.49232 -0.13753
 C1484 C 0.57302 0.49369 -0.12238
 C1485 C 0.56279 0.49466 -0.10447
 N1486 N 0.57171 0.50073 -0.08819
 N1487 N 0.56224 0.50116 -0.07151
 C1488 C 0.54355 0.49547 -0.07054
 N1489 N 0.53470 0.48939 -0.08687
 N1490 N 0.54416 0.48897 -0.10354
 N1491 N 0.09026 0.00422 0.33118
 C1492 C 0.09055 -0.00981 0.34474
 N1493 N 0.09950 -0.02667 0.34075
 N1494 N 0.10787 -0.02943 0.32374
 C1495 C 0.10760 -0.01548 0.31003
 N1496 N 0.09865 0.00145 0.31414
 C1497 C 0.08091 -0.00727 0.36284
 C1498 C 0.07261 -0.00572 0.37801
 C1499 C 0.06242 -0.00447 0.39594
 N1500 N 0.07142 0.00168 0.41214
 N1501 N 0.06197 0.00242 0.42882
 C1502 C 0.04322 -0.00302 0.42987
 N1503 N 0.03427 -0.00917 0.41361
 N1504 N 0.04371 -0.00990 0.39695
 N1505 N 0.17021 1.08989 0.99689
 C1506 C 0.15694 1.08967 1.01120
 N1507 N 0.16117 1.09820 1.02819
 N1508 N 0.17814 1.10667 1.03084
 C1509 C 0.19162 1.10693 1.01663
 N1510 N 0.18722 1.09839 0.99955
 C1511 C 0.13887 1.07997 1.00879
 C1512 C 0.12371 1.07164 1.00745
 C1513 C 0.10576 1.06147 1.00649
 N1514 N 0.08963 1.07029 0.99992
 N1515 N 0.07292 1.06087 0.99945
 C1516 C 0.07178 1.04234 1.00559
 N1517 N 0.08797 1.03359 1.01217
 N1518 N 0.10466 1.04300 1.01264
 N1519 N 0.66914 0.59020 0.49651
 C1520 C 0.65566 0.59052 0.51063
 N1521 N 0.65966 0.59964 0.52738
 N1522 N 0.67662 0.60815 0.52998
 C1523 C 0.69026 0.60785 0.51595
 N1524 N 0.68613 0.59874 0.49912
 C1525 C 0.63765 0.58071 0.50830
 C1526 C 0.62254 0.57229 0.50698
 C1527 C 0.60467 0.56201 0.50601
 N1528 N 0.58832 0.57096 0.50020
 N1529 N 0.57168 0.56143 0.49973
 C1530 C 0.57083 0.54265 0.50511
 N1531 N 0.58724 0.53376 0.51093
 N1532 N 0.60386 0.54328 0.51140
 N1533 N 0.67063 0.40847 0.00457
 C1534 C 0.65705 0.40862 -0.00944
 N1535 N 0.66090 0.39997 -0.02647
 N1536 N 0.67781 0.39147 -0.02943
 C1537 C 0.69160 0.39130 -0.01553
 N1538 N 0.68758 0.39995 0.00159
 C1539 C 0.63905 0.41839 -0.00673
 C1540 C 0.62393 0.42678 -0.00518
 C1541 C 0.60603 0.43703 -0.00404
 N1542 N 0.58987 0.42820 0.00243
 N1543 N 0.57318 0.43767 0.00298
 C1544 C 0.57209 0.45625 -0.00300
 N1545 N 0.58831 0.46502 -0.00948
 N1546 N 0.60498 0.45556 -0.01002
 N1547 N 0.17012 -0.08993 0.50449
 C1548 C 0.15645 -0.09033 0.49056
 N1549 N 0.16022 -0.09960 0.47383
 N1550 N 0.17714 -0.10817 0.47107
 C1551 C 0.19096 -0.10779 0.48491
 N1552 N 0.18707 -0.09852 0.50172
 C1553 C 0.13847 -0.08047 0.49305
 C1554 C 0.12339 -0.07200 0.49453
 C1555 C 0.10554 -0.06165 0.49571
 N1556 N 0.08937 -0.07036 0.50229
 N1557 N 0.07275 -0.06077 0.50299
 C1558 C 0.07176 -0.04216 0.49707
 N1559 N 0.08799 -0.03350 0.49047
 N1560 N 0.10458 -0.04309 0.48978
 N1561 N 0.33873 -0.09799 0.52461
 C1562 C 0.34254 -0.08962 0.50744
 N1563 N 0.32899 -0.09012 0.49341
 N1564 N 0.31211 -0.09872 0.49650
 C1565 C 0.30813 -0.10709 0.51376
 N1566 N 0.32188 -0.10656 0.52769
 C1567 C 0.36049 -0.07982 0.50457
 C1568 C 0.37558 -0.07144 0.50291
 C1569 C 0.39350 -0.06124 0.50168
 N1570 N 0.40981 -0.07040 0.49610
 N1571 N 0.42655 -0.06103 0.49570
 C1572 C 0.42753 -0.04221 0.50094
 N1573 N 0.41115 -0.03310 0.50649
 N1574 N 0.39443 -0.04246 0.50689
 N1575 N -0.17060 0.41021 0.99253
 C1576 C -0.15671 0.40994 1.00625
 N1577 N -0.16017 0.40072 1.02306
 N1578 N -0.17698 0.39208 1.02610
 C1579 C -0.19102 0.39232 1.01248
 N1580 N -0.18745 0.40154 0.99558
 C1581 C -0.13881 0.41985 1.00347
 C1582 C -0.12374 0.42831 1.00188
 C1583 C -0.10585 0.43858 1.00073
 N1584 N -0.08950 0.42951 0.99511
 N1585 N -0.07279 0.43894 0.99480
 C1586 C -0.07188 0.45773 1.00015
 N1587 N -0.08830 0.46675 1.00575
 N1588 N -0.10499 0.45733 1.00606
 N1589 N -0.17186 0.59043 0.50544
 C1590 C -0.15851 0.58998 0.49121
 N1591 N -0.16258 0.59840 0.47412
 N1592 N -0.17948 0.60698 0.47131
 C1593 C -0.19302 0.60747 0.48545
 N1594 N -0.18878 0.59904 0.50262
 C1595 C -0.14053 0.58016 0.49381
 C1596 C -0.12544 0.57174 0.49533
 C1597 C -0.10754 0.56149 0.49645
 N1598 N -0.09120 0.57056 0.50206
 N1599 N -0.07449 0.56112 0.50242
 C1600 C -0.07358 0.54232 0.49713
 N1601 N -0.08999 0.53329 0.49155
 N1602 N -0.10668 0.54272 0.49119
 N1603 N 0.32883 1.08982 0.00491
 C1604 C 0.34207 1.08968 -0.00943
 N1605 N 0.33781 1.09832 -0.02635
 N1606 N 0.32082 1.10680 -0.02890
 C1607 C 0.30738 1.10699 -0.01466
 N1608 N 0.31181 1.09834 0.00235
 C1609 C 0.36015 1.07996 -0.00714
 C1610 C 0.37533 1.07163 -0.00593
 C1611 C 0.39330 1.06147 -0.00514
 N1612 N 0.40948 1.07030 0.00129
 N1613 N 0.42621 1.06089 0.00160
 C1614 C 0.42731 1.04236 -0.00457
 N1615 N 0.41107 1.03359 -0.01101
 N1616 N 0.39437 1.04300 -0.01132
 N1617 N 0.02658 1.16145 1.09954
 C1618 C 0.00969 1.15738 1.09074
 N1619 N -0.00443 1.17086 1.09056
 N1620 N -0.00168 1.18793 1.09892
 C1621 C 0.01530 1.19218 1.10773
 N1622 N 0.02931 1.17849 1.10787
 C1623 C 0.00721 1.13925 1.08114
 C1624 C 0.00580 1.12405 1.07289
 C1625 C 0.00477 1.10605 1.06279
 N1626 N -0.00122 1.08984 1.07187
 N1627 N -0.00172 1.07309 1.06251
 C1628 C 0.00381 1.07199 1.04378
 N1629 N 0.00981 1.08825 1.03477
 N1630 N 0.01030 1.10499 1.04412
 N1631 N 0.52579 0.66002 0.60188
 C1632 C 0.50907 0.65618 0.59264
 N1633 N 0.49520 0.66991 0.59199
 N1634 N 0.49802 0.68698 0.60032
 C1635 C 0.51482 0.69094 0.60954
 N1636 N 0.52860 0.67706 0.61018
 C1637 C 0.50655 0.63810 0.58298
 C1638 C 0.50507 0.62295 0.57463
 C1639 C 0.50393 0.60507 0.56434
 N1640 N 0.49788 0.58879 0.57325
 N1641 N 0.49726 0.57215 0.56371
 C1642 C 0.50272 0.57124 0.54495
 N1643 N 0.50877 0.58758 0.53610
 N1644 N 0.50939 0.60419 0.54564
 N1645 N -0.02600 0.66124 0.40092
 C1646 C -0.00911 0.65740 0.40985
 N1647 N 0.00485 0.67104 0.41008
 N1648 N 0.00195 0.68802 0.40163
 C1649 C -0.01501 0.69199 0.39269
 N1650 N -0.02888 0.67820 0.39249
 C1651 C -0.00649 0.63937 0.41958
 C1652 C -0.00498 0.62424 0.42793
 C1653 C -0.00391 0.60633 0.43815
 N1654 N 0.00233 0.59011 0.42923
 N1655 N 0.00265 0.57338 0.43862
 C1656 C -0.00333 0.57232 0.45721
 N1657 N -0.00955 0.58860 0.46607
 N1658 N -0.00985 0.60531 0.45669
 N1659 N 0.50505 1.17019 -0.09062
 C1660 C 0.49069 1.15697 -0.09044
 N1661 N 0.47374 1.16126 -0.09903
 N1662 N 0.47119 1.17824 -0.10751
 C1663 C 0.48544 1.19166 -0.10773
 N1664 N 0.50248 1.18720 -0.09913
 C1665 C 0.49298 1.13889 -0.08071
 C1666 C 0.49420 1.12372 -0.07238
 C1667 C 0.49500 1.10575 -0.06223
 N1668 N 0.48936 1.10480 -0.04358
 N1669 N 0.48965 1.08809 -0.03419
 C1670 C 0.49552 1.07173 -0.04314
 N1671 N 0.50115 1.07272 -0.06185
 N1672 N 0.50086 1.08944 -0.07124
 N1673 N 0.49643 0.32860 -0.08970
 C1674 C 0.51066 0.34194 -0.08932
 N1675 N 0.52770 0.33787 -0.09783
 N1676 N 0.53047 0.32097 -0.10643
 C1677 C 0.51633 0.30743 -0.10686
 N1678 N 0.49920 0.31167 -0.09833
 C1679 C 0.50810 0.35995 -0.07950
 C1680 C 0.50662 0.37507 -0.07110
 C1681 C 0.50548 0.39298 -0.06086
 N1682 N 0.49953 0.40924 -0.06986
 N1683 N 0.49894 0.42593 -0.06039
 C1684 C 0.50436 0.42690 -0.04162
 N1685 N 0.51032 0.41058 -0.03268
 N1686 N 0.51090 0.39391 -0.04215
 N1687 N -0.00467 -0.16929 0.41095
 C1688 C 0.00938 -0.15575 0.41064
 N1689 N 0.02607 -0.15960 0.40134
 N1690 N 0.02867 -0.17649 0.39266
 C1691 C 0.01471 -0.19018 0.39295
 N1692 N -0.00206 -0.18620 0.40225
 C1693 C 0.00703 -0.13779 0.42057
 C1694 C 0.00569 -0.12271 0.42906
 C1695 C 0.00469 -0.10485 0.43939
 N1696 N -0.00126 -0.08852 0.43050
 N1697 N -0.00175 -0.07188 0.44005
 C1698 C 0.00377 -0.07101 0.45879
 N1699 N 0.00973 -0.08740 0.46763
 N1700 N 0.01021 -0.10402 0.45808
 N1701 N 0.47538 -0.16026 0.59816
 C1702 C 0.49230 -0.15670 0.58919
 N1703 N 0.50620 -0.17041 0.58930
 N1704 N 0.50322 -0.18720 0.59810
 C1705 C 0.48621 -0.19089 0.60707
 N1706 N 0.47240 -0.17702 0.60694
 C1707 C 0.49502 -0.13887 0.57914
 C1708 C 0.49656 -0.12387 0.57056
 C1709 C 0.49762 -0.10606 0.56016
 N1710 N 0.49154 -0.10517 0.54165
 N1711 N 0.49178 -0.08853 0.53213
 C1712 C 0.49806 -0.07219 0.54083
 N1713 N 0.50418 -0.07313 0.55938
 N1714 N 0.50393 -0.08978 0.56890
 N1715 N -0.02492 0.33889 1.09600
 C1716 C -0.00772 0.34269 1.08769
 N1717 N 0.00636 0.32919 1.08836
 N1718 N 0.00328 0.31237 1.09708
 C1719 C -0.01401 0.30840 1.10540
 N1720 N -0.02799 0.32210 1.10468
 C1721 C -0.00486 0.36059 1.07779
 C1722 C -0.00323 0.37566 1.06934
 C1723 C -0.00208 0.39355 1.05910
 N1724 N -0.00801 0.39459 1.04055
 N1725 N -0.00773 0.41131 1.03118
 C1726 C -0.00155 0.42759 1.04007
 N1727 N 0.00442 0.42651 1.05866
 N1728 N 0.00413 0.40977 1.06803
 N1729 N 0.74538 0.34064 0.07799
 C1730 C 0.75960 0.34046 0.09135
 N1731 N 0.77658 0.34908 0.08725
 N1732 N 0.77929 0.35759 0.07031
 C1733 C 0.76516 0.35780 0.05674
 N1734 N 0.74810 0.34917 0.06102
 C1735 C 0.75713 0.33070 0.10939
 C1736 C 0.75572 0.32232 0.12452
 C1737 C 0.75467 0.31208 0.14242
 N1738 N 0.76007 0.29335 0.14329
 N1739 N 0.75958 0.28388 0.15994
 C1740 C 0.75373 0.29281 0.17632
 N1741 N 0.74833 0.31159 0.17541
 N1742 N 0.74883 0.32108 0.15874
 N1743 N 0.24545 0.84053 0.57947
 C1744 C 0.25935 0.84117 0.59317
 N1745 N 0.27595 0.85064 0.58942
 N1746 N 0.27862 0.85917 0.57248
 C1747 C 0.26483 0.85855 0.55862
 N1748 N 0.24814 0.84908 0.56250
 C1749 C 0.25698 0.83133 0.61117
 C1750 C 0.25566 0.82289 0.62628
 C1751 C 0.25472 0.81258 0.64415
 N1752 N 0.26067 0.79403 0.64505
 N1753 N 0.26021 0.78448 0.66166
 C1754 C 0.25384 0.79318 0.67797
 N1755 N 0.24790 0.81179 0.67703
 N1756 N 0.24836 0.82135 0.66040
 N1757 N 0.75592 0.65974 0.58046
 C1758 C 0.74228 0.65939 0.59442
 N1759 N 0.72541 0.65027 0.59097
 N1760 N 0.72224 0.64179 0.57409
 C1761 C 0.73578 0.64212 0.55998
 N1762 N 0.75274 0.65123 0.56355
 C1763 C 0.74517 0.66920 0.61236
 C1764 C 0.74684 0.67761 0.62744
 C1765 C 0.74806 0.68789 0.64531
 N1766 N 0.74292 0.70668 0.64615
 N1767 N 0.74329 0.71613 0.66283
 C1768 C 0.74876 0.70708 0.67926
 N1769 N 0.75394 0.68824 0.67838
 N1770 N 0.75356 0.67879 0.66168
 N1771 N 0.22562 0.14976 0.09118
 C1772 C 0.24232 0.15922 0.09449
 N1773 N 0.25593 0.15966 0.08049
 N1774 N 0.25285 0.15092 0.06368
 C1775 C 0.23605 0.14147 0.06025
 N1776 N 0.22255 0.14105 0.07440
 C1777 C 0.24509 0.16922 0.11234
 C1778 C 0.24664 0.17775 0.12738
 C1779 C 0.24771 0.18807 0.14524
 N1780 N 0.25320 0.17903 0.16164
 N1781 N 0.25343 0.18850 0.17833
 C1782 C 0.24812 0.20730 0.17918
 N1783 N 0.24267 0.21630 0.16271
 N1784 N 0.24243 0.20684 0.14604
 N1785 N 0.24308 0.16011 0.92185
 C1786 C 0.25665 0.15963 0.90782
 N1787 N 0.27331 0.15006 0.91105
 N1788 N 0.27636 0.14128 0.92779
 C1789 C 0.26290 0.14174 0.94197
 N1790 N 0.24614 0.15130 0.93862
 C1791 C 0.25392 0.16971 0.89001
 C1792 C 0.25244 0.17829 0.87501
 C1793 C 0.25150 0.18866 0.85718
 N1794 N 0.24576 0.17976 0.84078
 N1795 N 0.24568 0.18924 0.82411
 C1796 C 0.25142 0.20791 0.82328
 N1797 N 0.25715 0.21677 0.83974
 N1798 N 0.25722 0.20729 0.85640
 N1799 N 0.74292 0.65996 0.42106
 C1800 C 0.75658 0.65949 0.40712
 N1801 N 0.77332 0.65012 0.41053
 N1802 N 0.77637 0.64152 0.42736
 C1803 C 0.76281 0.64196 0.44146
 N1804 N 0.74598 0.65133 0.43793
 C1805 C 0.75382 0.66943 0.38923
 C1806 C 0.75224 0.67795 0.37421
 C1807 C 0.75110 0.68833 0.35640
 N1808 N 0.74534 0.67943 0.34001
 N1809 N 0.74503 0.68896 0.32337
 C1810 C 0.75056 0.70770 0.32256
 N1811 N 0.75629 0.71656 0.33901
 N1812 N 0.75659 0.70703 0.35564
 N1813 N 0.22511 0.84897 0.40980
 C1814 C 0.24200 0.83994 0.40616
 N1815 N 0.25586 0.83982 0.41991
 N1816 N 0.25287 0.84845 0.43680
 C1817 C 0.23591 0.85747 0.44056
 N1818 N 0.22213 0.85757 0.42667
 C1819 C 0.24472 0.83005 0.38823
 C1820 C 0.24628 0.82156 0.37317
 C1821 C 0.24737 0.81122 0.35531
 N1822 N 0.25360 0.82002 0.33905
 N1823 N 0.25388 0.81054 0.32236
 C1824 C 0.24788 0.79195 0.32139
 N1825 N 0.24169 0.78319 0.33772
 N1826 N 0.24141 0.79267 0.35439
 N1827 N 0.72404 0.34855 0.90917
 C1828 C 0.74079 0.33934 0.90539
 N1829 N 0.75476 0.33904 0.91903
 N1830 N 0.75200 0.34768 0.93596
 C1831 C 0.73516 0.35688 0.93986
 N1832 N 0.72129 0.35715 0.92607
 C1833 C 0.74327 0.32947 0.88741
 C1834 C 0.74466 0.32103 0.87231
 C1835 C 0.74568 0.31075 0.85441
 N1836 N 0.75205 0.31956 0.83821
 N1837 N 0.75254 0.31006 0.82154
 C1838 C 0.74662 0.29145 0.82052
 N1839 N 0.74023 0.28270 0.83679
 N1840 N 0.73974 0.29220 0.85344
 N1841 N 0.85017 0.41054 0.22259
 C1842 C 0.84097 0.40659 0.23930
 N1843 N 0.84048 0.42016 0.25333
 N1844 N 0.84893 0.43719 0.25068
 C1845 C 0.85812 0.44126 0.23389
 N1846 N 0.85859 0.42753 0.21995
 C1847 C 0.83124 0.38854 0.24165
 C1848 C 0.82288 0.37341 0.24296
 C1849 C 0.81265 0.35550 0.24390
 N1850 N 0.79399 0.35461 0.23829
 N1851 N 0.78451 0.33796 0.23872
 C1852 C 0.79339 0.32161 0.24470
 N1853 N 0.81210 0.32254 0.25030
 N1854 N 0.82159 0.33921 0.24988
 N1855 N 0.34068 0.91992 0.75421
 C1856 C 0.34111 0.90631 0.74022
 N1857 N 0.35036 0.91015 0.72351
 N1858 N 0.35889 0.92708 0.72083
 C1859 C 0.35847 0.94086 0.73473
 N1860 N 0.34923 0.93689 0.75152
 C1861 C 0.33125 0.88832 0.74260
 C1862 C 0.32277 0.87325 0.74397
 C1863 C 0.31239 0.85543 0.74497
 N1864 N 0.32126 0.83905 0.75082
 N1865 N 0.31164 0.82245 0.75131
 C1866 C 0.29286 0.82169 0.74590
 N1867 N 0.28406 0.83813 0.74004
 N1868 N 0.29367 0.85470 0.73956
 N1869 N 0.15067 0.91051 0.27533
 C1870 C 0.15909 0.90683 0.25815
 N1871 N 0.15863 0.92051 0.24424
 N1872 N 0.15003 0.93737 0.24747
 C1873 C 0.14161 0.94122 0.26475
 N1874 N 0.14210 0.92734 0.27855
 C1875 C 0.16895 0.88893 0.25514
 C1876 C 0.17743 0.87388 0.25333
 C1877 C 0.18777 0.85604 0.25194
 N1878 N 0.20651 0.85517 0.25729
 N1879 N 0.21599 0.83851 0.25677
 C1880 C 0.20705 0.82214 0.25093
 N1881 N 0.18827 0.82306 0.24554
 N1882 N 0.17878 0.83974 0.24606
 N1883 N 0.65045 0.40885 0.77533
 C1884 C 0.65982 0.40527 0.75863
 N1885 N 0.66040 0.41913 0.74489
 N1886 N 0.65187 0.43608 0.74784
 C1887 C 0.64252 0.43979 0.76463
 N1888 N 0.64196 0.42578 0.77826
 C1889 C 0.66965 0.38728 0.75601
 C1890 C 0.67808 0.37217 0.75455
 C1891 C 0.68838 0.35429 0.75350
 N1892 N 0.70709 0.35345 0.75894
 N1893 N 0.71661 0.33681 0.75849
 C1894 C 0.70772 0.32042 0.75263
 N1895 N 0.68896 0.32129 0.74719
 N1896 N 0.67943 0.33795 0.74765
 N1897 N 0.65130 0.58925 0.72677
 C1898 C 0.66055 0.59269 0.74357
 N1899 N 0.66091 0.57876 0.75724
 N1900 N 0.65230 0.56189 0.75414
 C1901 C 0.64305 0.55833 0.73725
 N1902 N 0.64271 0.57241 0.72368
 C1903 C 0.67044 0.61060 0.74638
 C1904 C 0.67893 0.62566 0.74799
 C1905 C 0.68928 0.64350 0.74913
 N1906 N 0.68046 0.65978 0.75533
 N1907 N 0.68995 0.67646 0.75563
 C1908 C 0.70855 0.67740 0.74968
 N1909 N 0.71732 0.66105 0.74351
 N1910 N 0.70784 0.64440 0.74321
 N1911 N 0.15029 0.08958 0.22699
 C1912 C 0.15968 0.09294 0.24373
 N1913 N 0.16009 0.07899 0.25737
 N1914 N 0.15138 0.06216 0.25430
 C1915 C 0.14200 0.05867 0.23747
 N1916 N 0.14161 0.07278 0.22394
 C1917 C 0.16967 0.11081 0.24649
 C1918 C 0.17819 0.12584 0.24805
 C1919 C 0.18854 0.14368 0.24913
 N1920 N 0.17971 0.15997 0.25530
 N1921 N 0.18919 0.17665 0.25554
 C1922 C 0.20778 0.17760 0.24955
 N1923 N 0.21656 0.16125 0.24340
 N1924 N 0.20709 0.14458 0.24317
 N1925 N 0.34921 0.08966 0.77468
 C1926 C 0.34006 0.09329 0.75787
 N1927 N 0.33977 0.07953 0.74402
 N1928 N 0.34837 0.06262 0.74695
 C1929 C 0.35752 0.05886 0.76385
 N1930 N 0.35778 0.07278 0.77760
 C1931 C 0.33021 0.11125 0.75523
 C1932 C 0.32180 0.12635 0.75380
 C1933 C 0.31158 0.14427 0.75287
 N1934 N 0.29284 0.14513 0.75822
 N1935 N 0.28346 0.16185 0.75811
 C1936 C 0.29252 0.17830 0.75269
 N1937 N 0.31130 0.17739 0.74731
 N1938 N 0.32068 0.16065 0.74743
 N1939 N 0.83957 0.57993 0.24399
 C1940 C 0.83965 0.59352 0.25801
 N1941 N 0.84863 0.58972 0.27487
 N1942 N 0.85723 0.57283 0.27769
 C1943 C 0.85717 0.55908 0.26377
 N1944 N 0.84820 0.56301 0.24682
 C1945 C 0.82978 0.61148 0.25544
 C1946 C 0.82132 0.62656 0.25397
 C1947 C 0.81103 0.64444 0.25291
 N1948 N 0.82009 0.66084 0.24745
 N1949 N 0.81061 0.67752 0.24714
 C1950 C 0.79178 0.67836 0.25235
 N1951 N 0.78277 0.66190 0.25779
 N1952 N 0.79224 0.64523 0.25809
 N1953 N 0.91023 0.27634 0.14767
 C1954 C 0.90648 0.25978 0.15722
 N1955 N 0.92022 0.24593 0.15798
 N1956 N 0.93722 0.24861 0.14947
 C1957 C 0.94109 0.26526 0.13993
 N1958 N 0.92719 0.27901 0.13918
 C1959 C 0.88845 0.25742 0.16702
 C1960 C 0.87334 0.25608 0.17544
 C1961 C 0.85546 0.25511 0.18575
 N1962 N 0.83924 0.24864 0.17701
 N1963 N 0.82261 0.24814 0.18656
 C1964 C 0.82163 0.25414 0.20515
 N1965 N 0.83790 0.26062 0.21383
 N1966 N 0.85452 0.26112 0.20428
 N1967 N 0.41013 0.77606 0.64932
 C1968 C 0.40629 0.75940 0.65866
 N1969 N 0.42000 0.74552 0.65939
 N1970 N 0.43706 0.74827 0.65103
 C1971 C 0.44103 0.76501 0.64169
 N1972 N 0.42716 0.77879 0.64099
 C1973 C 0.38819 0.75696 0.66832
 C1974 C 0.37303 0.75554 0.67664
 C1975 C 0.35512 0.75448 0.68687
 N1976 N 0.33883 0.74854 0.67789
 N1977 N 0.32215 0.74800 0.68738
 C1978 C 0.32122 0.75345 0.70614
 N1979 N 0.33757 0.75939 0.71506
 N1980 N 0.35422 0.75992 0.70558
 N1981 N 0.42149 0.25640 0.84015
 C1982 C 0.40747 0.24283 0.84061
 N1983 N 0.41082 0.22604 0.84992
 N1984 N 0.42767 0.22288 0.85846
 C1985 C 0.44185 0.23634 0.85802
 N1986 N 0.43838 0.25322 0.84873
 C1987 C 0.38954 0.24569 0.83076
 C1988 C 0.37444 0.24729 0.82234
 C1989 C 0.35654 0.24835 0.81210
 N1990 N 0.35553 0.24239 0.79355
 N1991 N 0.33881 0.24259 0.78417
 C1992 C 0.32250 0.24871 0.79304
 N1993 N 0.32354 0.25471 0.81163
 N1994 N 0.34028 0.25450 0.82101
 N1995 N 0.91975 0.75683 0.34061
 C1996 C 0.90596 0.74303 0.34094
 N1997 N 0.90955 0.72624 0.35015
 N1998 N 0.92642 0.72330 0.35873
 C1999 C 0.94038 0.73700 0.35842
 N2000 N 0.93666 0.75388 0.34922
 C2001 C 0.88804 0.74568 0.33102
 C2002 C 0.87299 0.74718 0.32250
 C2003 C 0.85516 0.74822 0.31213
 N2004 N 0.85431 0.74230 0.29356
 N2005 N 0.83767 0.74255 0.28404
 C2006 C 0.82129 0.74868 0.29278
 N2007 N 0.82219 0.75464 0.31139
 N2008 N 0.83885 0.75438 0.32091
 N2009 N 0.08937 0.77544 0.34914
 C2010 C 0.09282 0.75861 0.33995
 N2011 N 0.07897 0.74486 0.33976
 N2012 N 0.06215 0.74791 0.34849
 C2013 C 0.05857 0.76483 0.35768
 N2014 N 0.07257 0.77848 0.35785
 C2015 C 0.11069 0.75582 0.32997
 C2016 C 0.12571 0.75416 0.32145
 C2017 C 0.14354 0.75291 0.31111
 N2018 N 0.14432 0.75809 0.29232
 N2019 N 0.16097 0.75765 0.28282
 C2020 C 0.17741 0.75206 0.29179
 N2021 N 0.17657 0.74685 0.31062
 N2022 N 0.15991 0.74730 0.32013
 N2023 N 0.58067 0.24395 0.83990
 C2024 C 0.59458 0.25763 0.84051
 N2025 N 0.59114 0.27423 0.85013
 N2026 N 0.57432 0.27711 0.85883
 C2027 C 0.56025 0.26353 0.85825
 N2028 N 0.56381 0.24684 0.84864
 C2029 C 0.61248 0.25506 0.83052
 C2030 C 0.62753 0.25362 0.82199
 C2031 C 0.64538 0.25259 0.81164
 N2032 N 0.64620 0.25820 0.79298
 N2033 N 0.66283 0.25778 0.78343
 C2034 C 0.67922 0.25180 0.79223
 N2035 N 0.67836 0.24619 0.81095
 N2036 N 0.66172 0.24661 0.82050
 N2037 N 0.59001 0.72545 0.65222
 C2038 C 0.59368 0.74241 0.66109
 N2039 N 0.57997 0.75632 0.66106
 N2040 N 0.56308 0.75329 0.65245
 C2041 C 0.55929 0.73625 0.64359
 N2042 N 0.57315 0.72244 0.64364
 C2043 C 0.61161 0.74516 0.67097
 C2044 C 0.62668 0.74673 0.67942
 C2045 C 0.64456 0.74782 0.68972
 N2046 N 0.66090 0.75358 0.68074
 N2047 N 0.67760 0.75384 0.69019
 C2048 C 0.67852 0.74827 0.70891
 N2049 N 0.66211 0.74253 0.71784
 N2050 N 0.64542 0.74228 0.70840
 N2051 N 0.08971 0.22579 0.15116
 C2052 C 0.09318 0.24268 0.16023
 N2053 N 0.07941 0.25652 0.16017
 N2054 N 0.06264 0.25350 0.15132
 C2055 C 0.05904 0.23652 0.14226
 N2056 N 0.07297 0.22278 0.14234
 C2057 C 0.11100 0.24543 0.17030
 C2058 C 0.12600 0.24698 0.17889
 C2059 C 0.14382 0.24804 0.18929
 N2060 N 0.16021 0.25383 0.18040
 N2061 N 0.17687 0.25405 0.18993
 C2062 C 0.17769 0.24843 0.20863
 N2063 N 0.16124 0.24267 0.21748
 N2064 N 0.14460 0.24246 0.20796
 N2065 N -0.09718 1.02482 0.83998
 C2066 C -0.08858 1.00772 0.84370
 N2067 N -0.08891 0.99375 0.83011
 N2068 N -0.09756 0.99681 0.81326
 C2069 C -0.10619 1.01396 0.80935
 N2070 N -0.10582 1.02787 0.82314
 C2071 C -0.07895 1.00466 0.86171
 C2072 C -0.07080 1.00249 0.87687
 C2073 C -0.06108 1.00042 0.89497
 N2074 N -0.04273 0.99381 0.89567
 N2075 N -0.03346 0.99265 0.91242
 C2076 C -0.04224 0.99809 0.92903
 N2077 N -0.06064 1.00463 0.92827
 N2078 N -0.06990 1.00579 0.91152
 N2079 N 0.40156 0.52663 0.33968
 C2080 C 0.40992 0.50946 0.34366
 N2081 N 0.40930 0.49526 0.33030
 N2082 N 0.40061 0.49816 0.31346
 C2083 C 0.39223 0.51536 0.30934
 N2084 N 0.39287 0.52952 0.32284
 C2085 C 0.41963 0.50654 0.36165
 C2086 C 0.42787 0.50436 0.37676
 C2087 C 0.43772 0.50217 0.39477
 N2088 N 0.42885 0.50694 0.41148
 N2089 N 0.43819 0.50555 0.42816
 C2090 C 0.45673 0.49936 0.42871
 N2091 N 0.46556 0.49452 0.41194
 N2092 N 0.45621 0.49591 0.39525
 N2093 N 0.59052 0.00738 0.32824
 C2094 C 0.59001 -0.00640 0.34201
 N2095 N 0.59830 -0.02369 0.33847
 N2096 N 0.60681 -0.02713 0.32164
 C2097 C 0.60735 -0.01342 0.30767
 N2098 N 0.59904 0.00394 0.31140
 C2099 C 0.58039 -0.00297 0.35996
 C2100 C 0.57220 -0.00055 0.37505
 C2101 C 0.56235 0.00170 0.39306
 N2102 N 0.57118 -0.00318 0.40975
 N2103 N 0.56171 -0.00219 0.42638
 C2104 C 0.54307 0.00370 0.42690
 N2105 N 0.53429 0.00870 0.41016
 N2106 N 0.54378 0.00771 0.39351
 N2107 N 0.09929 0.47723 0.83866
 C2108 C 0.09081 0.49447 0.84206
 N2109 N 0.09103 0.50808 0.82810
 N2110 N 0.09945 0.50453 0.81123
 C2111 C 0.10794 0.48724 0.80770
 N2112 N 0.10770 0.47369 0.82180
 C2113 C 0.08127 0.49798 0.86003
 C2114 C 0.07311 0.50042 0.87514
 C2115 C 0.06327 0.50265 0.89315
 N2116 N 0.04472 0.50869 0.89362
 N2117 N 0.03521 0.50959 0.91026
 C2118 C 0.04394 0.50447 0.92698
 N2119 N 0.06257 0.49855 0.92646
 N2120 N 0.07207 0.49765 0.90983
 N2121 N 0.09804 0.52353 0.65849
 C2122 C 0.08955 0.50628 0.65520
 N2123 N 0.08999 0.49267 0.66915
 N2124 N 0.09863 0.49623 0.68590
 C2125 C 0.10714 0.51352 0.68932
 N2126 N 0.10668 0.52708 0.67523
 C2127 C 0.07983 0.50273 0.63733
 C2128 C 0.07156 0.50024 0.62229
 C2129 C 0.06165 0.49795 0.60433
 N2130 N 0.07042 0.50279 0.58759
 N2131 N 0.06088 0.50180 0.57100
 C2132 C 0.04223 0.49594 0.57056
 N2133 N 0.03352 0.49098 0.58734
 N2134 N 0.04307 0.49197 0.60395
 N2135 N 0.59700 1.02500 0.16015
 C2136 C 0.58829 1.00791 0.15671
 N2137 N 0.58866 0.99410 0.17047
 N2138 N 0.59747 0.99733 0.18720
 C2139 C 0.60621 1.01448 0.19078
 N2140 N 0.60580 1.02822 0.17687
 C2141 C 0.57851 1.00469 0.13882
 C2142 C 0.57026 1.00244 0.12373
 C2143 C 0.56046 1.00035 0.10569
 N2144 N 0.56924 1.00564 0.08910
 N2145 N 0.55990 1.00451 0.07240
 C2146 C 0.54145 0.99808 0.07173
 N2147 N 0.53272 0.99271 0.08838
 N2148 N 0.54207 0.99384 0.10509
 N2149 N 0.41001 0.50480 0.17164
 C2150 C 0.41077 0.49063 0.15825
 N2151 N 0.40246 0.47343 0.16213
 N2152 N 0.39370 0.47046 0.17892
 C2153 C 0.39291 0.48458 0.19245
 N2154 N 0.40124 0.50183 0.18843
 C2155 C 0.42053 0.49363 0.14031
 C2156 C 0.42878 0.49578 0.12521
 C2157 C 0.43863 0.49787 0.10719
 N2158 N 0.42991 0.49258 0.09056
 N2159 N 0.43928 0.49378 0.07388
 C2160 C 0.45770 0.50031 0.07326
 N2161 N 0.46637 0.50568 0.08994
 N2162 N 0.45699 0.50447 0.10663
 N2163 N -0.09641 -0.02623 0.66305
 C2164 C -0.08809 -0.00899 0.65939
 N2165 N -0.08871 0.00495 0.67302
 N2166 N -0.09736 0.00170 0.68983
 C2167 C -0.10571 -0.01559 0.69367
 N2168 N -0.10505 -0.02946 0.67985
 C2169 C -0.07849 -0.00569 0.64140
 C2170 C -0.07038 -0.00327 0.62626
 C2171 C -0.06070 -0.00086 0.60817
 N2172 N -0.04235 0.00576 0.60754
 N2173 N -0.03313 0.00722 0.59078
 C2174 C -0.04195 0.00210 0.57410
 N2175 N -0.06035 -0.00445 0.57480
 N2176 N -0.06957 -0.00591 0.59154
 N2177 N -0.17152 0.91074 0.99636
 C2178 C -0.15820 0.91156 1.01057
 N2179 N -0.16217 0.90334 1.02779
 N2180 N -0.17898 0.89461 1.03074
 C2181 C -0.19249 0.89377 1.01659
 N2182 N -0.18834 0.90201 0.99931
 C2183 C -0.14022 0.92125 1.00758
 C2184 C -0.12509 0.92944 1.00540
 C2185 C -0.10702 0.93918 1.00326
 N2186 N -0.09039 0.93025 1.00819
 N2187 N -0.07365 0.93949 1.00689
 C2188 C -0.07297 0.95800 1.00064
 N2189 N -0.08965 0.96689 0.99565
 N2190 N -0.10640 0.95764 0.99695
 N2191 N 0.32823 0.41019 0.49588
 C2192 C 0.34167 0.41089 0.50999
 N2193 N 0.33781 0.40261 0.52721
 N2194 N 0.32099 0.39394 0.53025
 C2195 C 0.30741 0.39322 0.51620
 N2196 N 0.31140 0.40151 0.49893
 C2197 C 0.35964 0.42057 0.50694
 C2198 C 0.37475 0.42878 0.50476
 C2199 C 0.39279 0.43859 0.50265
 N2200 N 0.40949 0.42951 0.50704
 N2201 N 0.42620 0.43882 0.50582
 C2202 C 0.42678 0.45753 0.50019
 N2203 N 0.41002 0.46656 0.49574
 N2204 N 0.39330 0.45725 0.49696
 N2205 N 0.32868 0.58818 0.00544
 C2206 C 0.34239 0.58770 -0.00842
 N2207 N 0.33894 0.59645 -0.02550
 N2208 N 0.32226 0.60538 -0.02864
 C2209 C 0.30841 0.60589 -0.01484
 N2210 N 0.31199 0.59711 0.00229
 C2211 C 0.36025 0.57784 -0.00525
 C2212 C 0.37532 0.56954 -0.00298
 C2213 C 0.39336 0.55972 -0.00080
 N2214 N 0.41002 0.56865 -0.00560
 N2215 N 0.42673 0.55934 -0.00431
 C2216 C 0.42736 0.54079 0.00180
 N2217 N 0.41064 0.53190 0.00667
 N2218 N 0.39391 0.54122 0.00538
 N2219 N -0.17152 0.08985 0.50478
 C2220 C -0.15766 0.08939 0.49107
 N2221 N -0.16103 0.09794 0.47388
 N2222 N -0.17777 0.10664 0.47047
 C2223 C -0.19182 0.10713 0.48411
 N2224 N -0.18827 0.09855 0.50136
 C2225 C -0.13974 0.07972 0.49453
 C2226 C -0.12464 0.07156 0.49704
 C2227 C -0.10659 0.06183 0.49950
 N2228 N -0.08991 0.07076 0.49478
 N2229 N -0.07318 0.06150 0.49625
 C2230 C -0.07257 0.04299 0.50250
 N2231 N -0.08931 0.03411 0.50731
 N2232 N -0.10604 0.04338 0.50582
 N2233 N 0.67089 0.08967 0.49090
 C2234 C 0.65704 0.08930 0.50463
 N2235 N 0.66043 0.09792 0.52179
 N2236 N 0.67717 0.10662 0.52515
 C2237 C 0.69117 0.10701 0.51149
 N2238 N 0.68765 0.09837 0.49428
 C2239 C 0.63915 0.07955 0.50129
 C2240 C 0.62407 0.07130 0.49898
 C2241 C 0.60605 0.06144 0.49688
 N2242 N 0.58938 0.07033 0.50174
 N2243 N 0.57272 0.06090 0.50082
 C2244 C 0.57217 0.04223 0.49502
 N2245 N 0.58889 0.03339 0.49005
 N2246 N 0.60556 0.04284 0.49098
 N2247 N 0.17127 0.59004 0.99282
 C2248 C 0.15755 0.58939 1.00666
 N2249 N 0.16110 0.59768 1.02395
 N2250 N 0.17789 0.60630 1.02733
 C2251 C 0.19180 0.60697 1.01356
 N2252 N 0.18806 0.59867 0.99621
 C2253 C 0.13963 0.57971 1.00325
 C2254 C 0.12455 0.57149 1.00079
 C2255 C 0.10656 0.56165 0.99841
 N2256 N 0.08983 0.57049 1.00316
 N2257 N 0.07318 0.56107 1.00191
 C2258 C 0.07269 0.54248 0.99586
 N2259 N 0.08947 0.53369 0.99100
 N2260 N 0.10613 0.54312 0.99226
 N2261 N 0.16942 0.40994 0.50664
 C2262 C 0.15588 0.41043 0.49261
 N2263 N 0.15967 0.40197 0.47545
 N2264 N 0.17650 0.39331 0.47238
 C2265 C 0.19017 0.39279 0.48636
 N2266 N 0.18625 0.40127 0.50357
 C2267 C 0.13793 0.42015 0.49568
 C2268 C 0.12283 0.42841 0.49789
 C2269 C 0.10483 0.43831 0.49998
 N2270 N 0.08814 0.42947 0.49511
 N2271 N 0.07149 0.43893 0.49614
 C2272 C 0.07097 0.45756 0.50206
 N2273 N 0.08771 0.46634 0.50704
 N2274 N 0.10437 0.45688 0.50600
 N2275 N 0.67063 0.91079 0.00529
 C2276 C 0.65725 0.91119 -0.00889
 N2277 N 0.66121 0.90260 -0.02595
 N2278 N 0.67807 0.89390 -0.02876
 C2279 C 0.69159 0.89348 -0.01463
 N2280 N 0.68749 0.90208 0.00247
 C2281 C 0.63923 0.92087 -0.00606
 C2282 C 0.62408 0.92906 -0.00402
 C2283 C 0.60601 0.93885 -0.00202
 N2284 N 0.58940 0.92991 -0.00698
 N2285 N 0.57266 0.93920 -0.00580
 C2286 C 0.57197 0.95774 0.00037
 N2287 N 0.58864 0.96663 0.00540
 N2288 N 0.60538 0.95734 0.00421
 N2289 N -0.00497 0.82843 0.91252
 C2290 C 0.00892 0.84211 0.91299
 N2291 N 0.02599 0.83861 0.90424
 N2292 N 0.02910 0.82193 0.89532
 C2293 C 0.01527 0.80807 0.89479
 N2294 N -0.00185 0.81174 0.90358
 C2295 C 0.00576 0.85999 0.92283
 C2296 C 0.00351 0.87509 0.93108
 C2297 C 0.00135 0.89316 0.94083
 N2298 N 0.00581 0.90981 0.93172
 N2299 N 0.00454 0.92657 0.94095
 C2300 C -0.00122 0.92725 0.95962
 N2301 N -0.00575 0.91054 0.96869
 N2302 N -0.00447 0.89377 0.95945
 N2303 N 0.49432 0.32921 0.41090
 C2304 C 0.50815 0.34295 0.41134
 N2305 N 0.52524 0.33952 0.40259
 N2306 N 0.52842 0.32283 0.39369
 C2307 C 0.51464 0.30895 0.39322
 N2308 N 0.49751 0.31252 0.40200
 C2309 C 0.50492 0.36081 0.42120
 C2310 C 0.50260 0.37586 0.42952
 C2311 C 0.50034 0.39384 0.43941
 N2312 N 0.50543 0.41053 0.43070
 N2313 N 0.50411 0.42719 0.44011
 C2314 C 0.49767 0.42772 0.45856
 N2315 N 0.49251 0.41098 0.46723
 N2316 N 0.49383 0.39431 0.45781
 N2317 N -0.02429 0.33956 0.59766
 C2318 C -0.00708 0.34325 0.58929
 N2319 N 0.00687 0.32963 0.58983
 N2320 N 0.00367 0.31281 0.59846
 C2321 C -0.01360 0.30893 0.60686
 N2322 N -0.02749 0.32274 0.60628
 C2323 C -0.00390 0.36121 0.57963
 C2324 C -0.00169 0.37633 0.57143
 C2325 C 0.00033 0.39438 0.56161
 N2326 N 0.00634 0.39493 0.54305
 N2327 N 0.00721 0.41162 0.53363
 C2328 C 0.00208 0.42830 0.54246
 N2329 N -0.00382 0.42769 0.56109
 N2330 N -0.00469 0.41101 0.57050
 N2331 N 0.50461 0.82880 0.08884
 C2332 C 0.49046 0.84222 0.08816
 N2333 N 0.47330 0.83839 0.09660
 N2334 N 0.47036 0.82162 0.10541
 C2335 C 0.48445 0.80807 0.10612
 N2336 N 0.50165 0.81203 0.09766
 C2337 C 0.49344 0.86015 0.07839
 C2338 C 0.49559 0.87526 0.07015
 C2339 C 0.49769 0.89331 0.06035
 N2340 N 0.49321 0.90999 0.06943
 N2341 N 0.49446 0.92672 0.06015
 C2342 C 0.50022 0.92733 0.04148
 N2343 N 0.50477 0.91059 0.03245
 N2344 N 0.50352 0.89385 0.04173
 N2345 N 0.52598 0.66059 0.09776
 C2346 C 0.50882 0.65666 0.08938
 N2347 N 0.49469 0.67011 0.08989
 N2348 N 0.49767 0.68699 0.09850
 C2349 C 0.51487 0.69105 0.10690
 N2350 N 0.52895 0.67746 0.10636
 C2351 C 0.50583 0.63863 0.07978
 C2352 C 0.50366 0.62346 0.07164
 C2353 C 0.50153 0.60537 0.06191
 N2354 N 0.49571 0.60476 0.04329
 N2355 N 0.49445 0.58799 0.03406
 C2356 C 0.49897 0.57128 0.04313
 N2357 N 0.50472 0.57195 0.06180
 N2358 N 0.50598 0.58871 0.07103
 N2359 N 0.02672 0.16245 0.59839
 C2360 C 0.00958 0.15866 0.58992
 N2361 N -0.00441 0.17225 0.59029
 N2362 N -0.00131 0.18914 0.59883
 C2363 C 0.01590 0.19312 0.60732
 N2364 N 0.02981 0.17934 0.60692
 C2365 C 0.00647 0.14061 0.58038
 C2366 C 0.00422 0.12543 0.57228
 C2367 C 0.00201 0.10733 0.56257
 N2368 N -0.00390 0.10672 0.54399
 N2369 N -0.00524 0.08996 0.53476
 C2370 C -0.00068 0.07324 0.54381
 N2371 N 0.00516 0.07391 0.56245
 N2372 N 0.00649 0.09067 0.57167
 N2373 N 0.47590 0.16046 0.40039
 C2374 C 0.49322 0.15669 0.40851
 N2375 N 0.50713 0.17035 0.40802
 N2376 N 0.50377 0.18730 0.39968
 C2377 C 0.48640 0.19121 0.39155
 N2378 N 0.47256 0.17740 0.39206
 C2379 C 0.49654 0.13864 0.41797
 C2380 C 0.49886 0.12347 0.42606
 C2381 C 0.50102 0.10541 0.43583
 N2382 N 0.50723 0.10485 0.45433
 N2383 N 0.50821 0.08817 0.46374
 C2384 C 0.50300 0.07149 0.45496
 N2385 N 0.49690 0.07210 0.43640
 N2386 N 0.49592 0.08877 0.42700
 N2387 N -0.02387 0.66126 0.90152
 C2388 C -0.00657 0.65752 0.90969
 N2389 N 0.00727 0.67125 0.90934
 N2390 N 0.00388 0.68822 0.90108
 C2391 C -0.01349 0.69215 0.89289
 N2392 N -0.02725 0.67823 0.89328
 C2393 C -0.00318 0.63942 0.91902
 C2394 C -0.00079 0.62420 0.92698
 C2395 C 0.00146 0.60606 0.93659
 N2396 N 0.00761 0.60537 0.95510
 N2397 N 0.00866 0.58861 0.96436
 C2398 C 0.00357 0.57198 0.95541
 N2399 N -0.00247 0.57272 0.93684
 N2400 N -0.00351 0.58948 0.92759
 N2401 N 0.24436 0.66011 0.92051
 C2402 C 0.25831 0.66052 0.90688
 N2403 N 0.27536 0.65175 0.91045
 N2404 N 0.27839 0.64287 0.92717
 C2405 C 0.26450 0.64243 0.94094
 N2406 N 0.24741 0.65123 0.93723
 C2407 C 0.25526 0.67037 0.88900
 C2408 C 0.25309 0.67869 0.87393
 C2409 C 0.25101 0.68858 0.85593
 N2410 N 0.25578 0.67970 0.83923
 N2411 N 0.25458 0.68909 0.82256
 C2412 C 0.24857 0.70768 0.82203
 N2413 N 0.24373 0.71652 0.83879
 N2414 N 0.24494 0.70713 0.85547
 N2415 N 0.74511 0.16027 0.41893
 C2416 C 0.75918 0.16086 0.40544
 N2417 N 0.77629 0.15227 0.40916
 N2418 N 0.77926 0.14339 0.42588
 C2419 C 0.76524 0.14277 0.43951
 N2420 N 0.74809 0.15139 0.43566
 C2421 C 0.75617 0.17071 0.38755
 C2422 C 0.75400 0.17901 0.37248
 C2423 C 0.75186 0.18887 0.35447
 N2424 N 0.75622 0.17982 0.33774
 N2425 N 0.75493 0.18915 0.32105
 C2426 C 0.74924 0.20785 0.32051
 N2427 N 0.74481 0.21685 0.33730
 N2428 N 0.74611 0.20752 0.35400
 N2429 N 0.22513 0.34811 0.41164
 C2430 C 0.24237 0.33965 0.40827
 N2431 N 0.25610 0.34020 0.42212
 N2432 N 0.25264 0.34893 0.43885
 C2433 C 0.23535 0.35741 0.44235
 N2434 N 0.22168 0.35683 0.42836
 C2435 C 0.24583 0.32988 0.39040
 C2436 C 0.24828 0.32159 0.37535
 C2437 C 0.25058 0.31169 0.35738
 N2438 N 0.25658 0.29312 0.35698
 N2439 N 0.25771 0.28362 0.34034
 C2440 C 0.25286 0.29239 0.32355
 N2441 N 0.24697 0.31103 0.32401
 N2442 N 0.24584 0.32051 0.34064
 N2443 N 0.72704 0.84837 0.91127
 C2444 C 0.74424 0.83974 0.90810
 N2445 N 0.75784 0.84022 0.92207
 N2446 N 0.75431 0.84906 0.93874
 C2447 C 0.73705 0.85771 0.94204
 N2448 N 0.72352 0.85719 0.92792
 C2449 C 0.74775 0.82987 0.89030
 C2450 C 0.75017 0.82153 0.87528
 C2451 C 0.75236 0.81159 0.85731
 N2452 N 0.75828 0.79299 0.85691
 N2453 N 0.75926 0.78346 0.84028
 C2454 C 0.75432 0.79221 0.82351
 N2455 N 0.74850 0.81087 0.82398
 N2456 N 0.74753 0.82039 0.84059
 N2457 N 0.77286 0.85015 0.09122
 C2458 C 0.75569 0.84150 0.09443
 N2459 N 0.74217 0.84171 0.08037
 N2460 N 0.74575 0.85028 0.06359
 C2461 C 0.76298 0.85894 0.06025
 N2462 N 0.77644 0.85871 0.07445
 C2463 C 0.75214 0.83182 0.11231
 C2464 C 0.74965 0.82357 0.12736
 C2465 C 0.74736 0.81363 0.14530
 N2466 N 0.75217 0.82240 0.16206
 N2467 N 0.75118 0.81283 0.17864
 C2468 C 0.74536 0.79418 0.17903
 N2469 N 0.74043 0.78548 0.16223
 N2470 N 0.74143 0.79505 0.14564
 N2471 N 0.24153 0.34142 0.58093
 C2472 C 0.25519 0.34126 0.59486
 N2473 N 0.27236 0.34983 0.59144
 N2474 N 0.27580 0.35828 0.57459
 C2475 C 0.26221 0.35846 0.56052
 N2476 N 0.24498 0.34988 0.56407
 C2477 C 0.25181 0.33166 0.61281
 C2478 C 0.24949 0.32346 0.62791
 C2479 C 0.24743 0.31356 0.64589
 N2480 N 0.25248 0.32233 0.66257
 N2481 N 0.25171 0.31279 0.67918
 C2482 C 0.24588 0.29413 0.67966
 N2483 N 0.24071 0.28542 0.66293
 N2484 N 0.24149 0.29498 0.64632
 N2485 N 0.75550 0.15958 0.57725
 C2486 C 0.74144 0.16014 0.59076
 N2487 N 0.72428 0.15171 0.58696
 N2488 N 0.72123 0.14303 0.57015
 C2489 C 0.73523 0.14244 0.55649
 N2490 N 0.75244 0.15089 0.56042
 C2491 C 0.74452 0.16981 0.60874
 C2492 C 0.74675 0.17799 0.62388
 C2493 C 0.74895 0.18776 0.64194
 N2494 N 0.75511 0.20627 0.64252
 N2495 N 0.75643 0.21556 0.65926
 C2496 C 0.75161 0.20664 0.67597
 N2497 N 0.74552 0.18807 0.67533
 N2498 N 0.74420 0.17880 0.65859
 N2499 N 0.25601 0.65860 0.07895
 C2500 C 0.24211 0.65910 0.09262
 N2501 N 0.22489 0.65072 0.08897
 N2502 N 0.22164 0.64212 0.07213
 C2503 C 0.23549 0.64160 0.05832
 N2504 N 0.25275 0.65000 0.06211
 C2505 C 0.24537 0.66875 0.11059
 C2506 C 0.24772 0.67696 0.12570
 C2507 C 0.24995 0.68682 0.14372
 N2508 N 0.25610 0.70534 0.14420
 N2509 N 0.25722 0.71479 0.16086
 C2510 C 0.25220 0.70604 0.17760
 N2511 N 0.24616 0.68746 0.17707
 N2512 N 0.24504 0.67801 0.16041
 N2513 N 0.15181 0.58926 0.72212
 C2514 C 0.16016 0.59313 0.73931
 N2515 N 0.15950 0.57971 0.75343
 N2516 N 0.15079 0.56290 0.75042
 C2517 C 0.14242 0.55888 0.73319
 N2518 N 0.14310 0.57245 0.71912
 C2519 C 0.16987 0.61109 0.74236
 C2520 C 0.17812 0.62617 0.74465
 C2521 C 0.18799 0.64415 0.74698
 N2522 N 0.17900 0.66093 0.74273
 N2523 N 0.18835 0.67759 0.74422
 C2524 C 0.20702 0.67805 0.75001
 N2525 N 0.21597 0.66121 0.75433
 N2526 N 0.20661 0.64453 0.75284
 N2527 N 0.65159 0.08943 0.22382
 C2528 C 0.66029 0.09308 0.24088
 N2529 N 0.65986 0.07951 0.25487
 N2530 N 0.65102 0.06276 0.25185
 C2531 C 0.64229 0.05898 0.23474
 N2532 N 0.64275 0.07270 0.22081
 C2533 C 0.67013 0.11097 0.24388
 C2534 C 0.67844 0.12604 0.24597
 C2535 C 0.68833 0.14404 0.24791
 N2536 N 0.67959 0.16066 0.24263
 N2537 N 0.68901 0.17733 0.24366
 C2538 C 0.70750 0.17793 0.24999
 N2539 N 0.71619 0.16125 0.25535
 N2540 N 0.70676 0.14458 0.25431
 N2541 N 0.84880 0.08827 0.77586
 C2542 C 0.84028 0.09167 0.75866
 N2543 N 0.84092 0.07791 0.74484
 N2544 N 0.84978 0.06123 0.74817
 C2545 C 0.85833 0.05769 0.76542
 N2546 N 0.85765 0.07159 0.77918
 C2547 C 0.83045 0.10952 0.75530
 C2548 C 0.82217 0.12458 0.75289
 C2549 C 0.81232 0.14257 0.75053
 N2550 N 0.79369 0.14301 0.74474
 N2551 N 0.78433 0.15970 0.74334
 C2552 C 0.79331 0.17652 0.74770
 N2553 N 0.81200 0.17602 0.75343
 N2554 N 0.82134 0.15933 0.75482
 N2555 N 0.34806 0.58996 0.27350
 C2556 C 0.33964 0.59318 0.25621
 N2557 N 0.34009 0.57915 0.24266
 N2558 N 0.34867 0.56239 0.24633
 C2559 C 0.35711 0.55904 0.26367
 N2560 N 0.35663 0.57321 0.27716
 C2561 C 0.33000 0.61107 0.25254
 C2562 C 0.32181 0.62615 0.24994
 C2563 C 0.31198 0.64415 0.24753
 N2564 N 0.29340 0.64459 0.24157
 N2565 N 0.28393 0.66124 0.24048
 C2566 C 0.29274 0.67801 0.24532
 N2567 N 0.31139 0.67752 0.25115
 N2568 N 0.32085 0.66087 0.25224
 N2569 N 0.34043 0.42034 0.25830
 C2570 C 0.34028 0.40636 0.24470
 N2571 N 0.34896 0.40967 0.22756
 N2572 N 0.35749 0.42648 0.22410
 C2573 C 0.35767 0.44060 0.23764
 N2574 N 0.34898 0.43716 0.25483
 C2575 C 0.33066 0.38842 0.24813
 C2576 C 0.32248 0.37331 0.25051
 C2577 C 0.31266 0.35528 0.25267
 N2578 N 0.32153 0.33861 0.24772
 N2579 N 0.31210 0.32195 0.24867
 C2580 C 0.29348 0.32138 0.25459
 N2581 N 0.28467 0.33810 0.25966
 N2582 N 0.29411 0.35477 0.25870
 N2583 N 0.84999 0.90951 0.72700
 C2584 C 0.84142 0.90605 0.74417
 N2585 N 0.84189 0.91982 0.75798
 N2586 N 0.85062 0.93657 0.75468
 C2587 C 0.85920 0.94017 0.73746
 N2588 N 0.85872 0.92626 0.72371
 C2589 C 0.83164 0.88817 0.74747
 C2590 C 0.82335 0.87311 0.74982
 C2591 C 0.81343 0.85514 0.75204
 N2592 N 0.79491 0.85473 0.75820
 N2593 N 0.78541 0.83810 0.75930
 C2594 C 0.79412 0.82133 0.75425
 N2595 N 0.81270 0.82180 0.74819
 N2596 N 0.82219 0.83842 0.74709
 N2597 N 0.65105 0.91115 0.27461
 C2598 C 0.65935 0.90745 0.25736
 N2599 N 0.65873 0.92105 0.24340
 N2600 N 0.65008 0.93787 0.24664
 C2601 C 0.64176 0.94171 0.26394
 N2602 N 0.64241 0.92796 0.27784
 C2603 C 0.66907 0.88952 0.25412
 C2604 C 0.67734 0.87444 0.25181
 C2605 C 0.68726 0.85646 0.24961
 N2606 N 0.70585 0.85606 0.24367
 N2607 N 0.71535 0.83943 0.24258
 C2608 C 0.70658 0.82265 0.24743
 N2609 N 0.68792 0.82311 0.25327
 N2610 N 0.67843 0.83973 0.25435
 N2611 N 0.15205 0.41143 0.77439
 C2612 C 0.16027 0.40755 0.75714
 N2613 N 0.15951 0.42097 0.74302
 N2614 N 0.15082 0.43779 0.74608
 C2615 C 0.14258 0.44182 0.76338
 N2616 N 0.14336 0.42825 0.77745
 C2617 C 0.17003 0.38961 0.75408
 C2618 C 0.17833 0.37453 0.75192
 C2619 C 0.18828 0.35655 0.74990
 N2620 N 0.20687 0.35612 0.74396
 N2621 N 0.21639 0.33949 0.74301
 C2622 C 0.20763 0.32274 0.74799
 N2623 N 0.18898 0.32323 0.75383
 N2624 N 0.17947 0.33986 0.75478
 N2625 N 0.08943 0.77582 0.84857
 C2626 C 0.09286 0.75879 0.83970
 N2627 N 0.07919 0.74490 0.84019
 N2628 N 0.06256 0.74797 0.84925
 C2629 C 0.05899 0.76505 0.85814
 N2630 N 0.07281 0.77889 0.85762
 C2631 C 0.11065 0.75569 0.82970
 C2632 C 0.12566 0.75348 0.82128
 C2633 C 0.14362 0.75136 0.81132
 N2634 N 0.14406 0.74496 0.79288
 N2635 N 0.16070 0.74373 0.78342
 C2636 C 0.17746 0.74888 0.79209
 N2637 N 0.17695 0.75521 0.81058
 N2638 N 0.16031 0.75644 0.82003
 N2639 N 0.58921 0.27602 0.34692
 C2640 C 0.59275 0.25899 0.33808
 N2641 N 0.57914 0.24503 0.33855
 N2642 N 0.56247 0.24804 0.34756
 C2643 C 0.55880 0.26511 0.35642
 N2644 N 0.57255 0.27902 0.35592
 C2645 C 0.61058 0.25598 0.32812
 C2646 C 0.62562 0.25383 0.31973
 C2647 C 0.64360 0.25176 0.30978
 N2648 N 0.64405 0.24561 0.29126
 N2649 N 0.66071 0.24439 0.28183
 C2650 C 0.67748 0.24929 0.29062
 N2651 N 0.67696 0.25538 0.30919
 N2652 N 0.66031 0.25659 0.31861
 N2653 N 0.57903 0.75728 0.15909
 C2654 C 0.59296 0.74363 0.15949
 N2655 N 0.58963 0.72640 0.15098
 N2656 N 0.57287 0.72290 0.14236
 C2657 C 0.55880 0.73649 0.14194
 N2658 N 0.56226 0.75377 0.15046
 C2659 C 0.61085 0.74710 0.16919
 C2660 C 0.62593 0.74951 0.17743
 C2661 C 0.64392 0.75172 0.18732
 N2662 N 0.64436 0.75772 0.20588
 N2663 N 0.66100 0.75870 0.21538
 C2664 C 0.67775 0.75369 0.20662
 N2665 N 0.67726 0.74779 0.18799
 N2666 N 0.66063 0.74681 0.17850
 N2667 N 0.08005 0.25793 0.65962
 C2668 C 0.09384 0.24415 0.66020
 N2669 N 0.09043 0.22692 0.65171
 N2670 N 0.07372 0.22356 0.64294
 C2671 C 0.05979 0.23729 0.64232
 N2672 N 0.06333 0.25456 0.65083
 C2673 C 0.11169 0.24751 0.67002
 C2674 C 0.12674 0.24983 0.67832
 C2675 C 0.14473 0.25195 0.68822
 N2676 N 0.16142 0.24703 0.67939
 N2677 N 0.17806 0.24796 0.68887
 C2678 C 0.17858 0.25382 0.70751
 N2679 N 0.16184 0.25884 0.71629
 N2680 N 0.14519 0.25791 0.70680
 N2681 N 0.91148 0.27559 0.65096
 C2682 C 0.90797 0.25841 0.65948
 N2683 N 0.92172 0.24458 0.65902
 N2684 N 0.93850 0.24787 0.65034
 C2685 C 0.94215 0.26510 0.64180
 N2686 N 0.92825 0.27887 0.64229
 C2687 C 0.89003 0.25511 0.66917
 C2688 C 0.87494 0.25273 0.67738
 C2689 C 0.85691 0.25041 0.68718
 N2690 N 0.85639 0.24381 0.70554
 N2691 N 0.83970 0.24243 0.71489
 C2692 C 0.82298 0.24763 0.70620
 N2693 N 0.82356 0.25416 0.68778
 N2694 N 0.84024 0.25553 0.67844
 N2695 N 0.40973 0.77326 0.15067
 C2696 C 0.40642 0.75613 0.15938
 N2697 N 0.42036 0.74249 0.15915
 N2698 N 0.43714 0.74591 0.15049
 C2699 C 0.44058 0.76308 0.14176
 N2700 N 0.42649 0.77666 0.14202
 C2701 C 0.38852 0.75275 0.16910
 C2702 C 0.37344 0.75040 0.17735
 C2703 C 0.35544 0.74823 0.18724
 N2704 N 0.35500 0.74227 0.20581
 N2705 N 0.33836 0.74128 0.21530
 C2706 C 0.32160 0.74625 0.20653
 N2707 N 0.32210 0.75211 0.18789
 N2708 N 0.33874 0.75309 0.17841
 N2709 N 0.42029 0.25748 0.34187
 C2710 C 0.40655 0.24364 0.34140
 N2711 N 0.41029 0.22628 0.34944
 N2712 N 0.42725 0.22283 0.35769
 C2713 C 0.44112 0.23661 0.35819
 N2714 N 0.43725 0.25403 0.35013
 C2715 C 0.38849 0.24707 0.33200
 C2716 C 0.37333 0.24949 0.32392
 C2717 C 0.35529 0.25175 0.31413
 N2718 N 0.35480 0.25783 0.29559
 N2719 N 0.33815 0.25882 0.28612
 C2720 C 0.32142 0.25375 0.29488
 N2721 N 0.32196 0.24780 0.31349
 N2722 N 0.33861 0.24681 0.32295
 N2723 N 0.92112 0.75713 0.84233
 C2724 C 0.90747 0.74322 0.84164
 N2725 N 0.91112 0.72591 0.84984
 N2726 N 0.92793 0.72258 0.85843
 C2727 C 0.94173 0.73643 0.85915
 N2728 N 0.93794 0.75379 0.85094
 C2729 C 0.88954 0.74654 0.83195
 C2730 C 0.87446 0.74887 0.82370
 C2731 C 0.85647 0.75102 0.81379
 N2732 N 0.83973 0.74653 0.82274
 N2733 N 0.82309 0.74749 0.81326
 C2734 C 0.82263 0.75296 0.79450
 N2735 N 0.83942 0.75756 0.78560
 N2736 N 0.85607 0.75659 0.79509
   
