data_POSCAR
  _audit_creation_date              2014-09-24
  _audit_creation_method            'ToBaCCo'
  _symmetry_space_group_name_H-M    'P1'
  _symmetry_Int_Tables_number       1
  _symmetry_cell_setting            triclinic
  loop_
  _symmetry_equiv_pos_as_xyz
 x,y,z
_cell_length_a 51.8035
_cell_length_b 51.6489
_cell_length_c 51.7013
_cell_angle_alpha 89.999200
_cell_angle_beta 89.989900
_cell_angle_gamma 89.990200
loop_
  _atom_site_label
  _atom_site_type_symbol
  _atom_site_fract_x
  _atom_site_fract_y
  _atom_site_fract_z
N1 N 0.30014 0.45087 0.95001
 N2 N 0.45090 0.79989 0.45012
 N3 N 0.95030 0.95157 0.79805
 N4 N 0.45144 -0.04927 0.29985
 N5 N 0.80034 0.30010 0.29892
 N6 N -0.20166 0.79934 0.79807
 N7 N 0.95091 0.29957 0.45050
 N8 N 0.44884 0.44969 0.80084
 N9 N 0.79854 0.95224 0.95077
 N10 N 0.29978 0.79774 0.29849
 N11 N 0.79990 0.45128 0.45016
 N12 N 0.95168 0.79764 -0.04804
 N13 N 0.29979 0.29920 0.79898
 N14 N 0.20126 0.54892 0.54818
 N15 N 0.54946 0.70181 0.04811
 N16 N 0.70114 0.20205 0.70058
 N17 N 1.05062 0.04875 0.19977
 N18 N 0.04985 0.20014 1.04911
 N19 N 0.19968 0.70086 0.70023
 N20 N 1.20105 0.19992 0.20053
 N21 N 0.70182 1.04898 0.54817
 N22 N 0.54769 0.54777 0.20265
 N23 N 0.70164 0.70219 0.20061
 N24 N 0.19936 0.04990 1.05070
 N25 N 0.54951 0.20192 0.54840
 N26 N 0.04820 0.54875 0.70166
 N27 N 0.70108 0.54950 0.04845
 N28 N 0.05030 0.70119 0.54975
 N29 N 0.54787 1.04768 0.70245
 N30 N 0.45054 0.29962 0.95034
 N31 N 0.94903 0.44954 0.30031
 N32 N 0.29995 0.95160 0.45188
 O33 O 0.18063 0.53287 0.74858
 O34 O 0.18908 0.52954 0.79259
 O35 O 0.24846 0.56875 0.71728
 O36 O 0.29087 0.56106 0.71612
 O37 O 0.21653 0.50063 0.68079
 O38 O 0.21829 0.45561 0.69048
 O39 O 0.31712 0.49870 0.78366
 O40 O 0.30970 0.54248 0.77875
 O41 O 0.25148 0.46642 0.81764
 O42 O 0.20517 0.46766 0.80856
 O43 O 0.28284 0.43183 0.75146
 O44 O 0.28184 0.44091 0.70550
 O45 O 0.31728 0.46745 0.75251
 O46 O 0.30766 0.46983 0.70466
 O47 O 0.25171 0.43150 0.78252
 O48 O 0.20435 0.44136 0.78003
 O49 O 0.28282 0.49731 0.81752
 O50 O 0.27431 0.54395 0.80882
 O51 O 0.18044 0.50116 0.71784
 O52 O 0.19034 0.45535 0.71970
 O53 O 0.24754 0.53188 0.68062
 O54 O 0.29409 0.52800 0.69125
 O55 O 0.21679 0.56858 0.74786
 O56 O 0.22254 0.55823 0.79439
 Zr57 Zr 0.21820 0.53108 0.76387
 O58 O 0.24074 0.50792 0.78863
 Zr59 Zr 0.26338 0.53088 0.71813
 O60 O 0.28813 0.50850 0.74144
 Zr61 Zr 0.21803 0.48540 0.71852
 O62 O 0.24115 0.46061 0.74114
 Zr63 Zr 0.27992 0.51448 0.78075
 O64 O 0.25749 0.53966 0.75751
 Zr65 Zr 0.23492 0.46855 0.78050
 O66 O 0.20982 0.49159 0.75785
 Zr67 Zr 0.28042 0.46907 0.73520
 O68 O 0.25729 0.49146 0.70980
 O69 O 0.22437 0.52458 0.72464
 O70 O 0.27414 0.47500 0.77452
 C71 C 0.16957 0.51931 0.73095
 C72 C 0.23033 0.57965 0.73025
 C73 C 0.22972 0.51850 0.66971
 C74 C 0.32794 0.48037 0.77086
 C75 C 0.26991 0.47910 0.82834
 C76 C 0.27005 0.42086 0.76965
 H77 H 0.23659 0.51219 0.80681
 H78 H 0.23705 0.44245 0.73676
 H79 H 0.21333 0.53563 0.71359
 H80 H 0.30627 0.51299 0.73753
 H81 H 0.30150 0.55887 0.77315
 H82 H 0.30406 0.55735 0.72942
 H83 H 0.20713 0.42961 0.76519
 H84 H 0.18161 0.45666 0.73669
 H85 H 0.28904 0.54337 0.82106
 H86 H 0.20881 0.57155 0.79286
 H87 H 0.26541 0.43117 0.70598
 H88 H 0.23559 0.45599 0.68234
 H89 H 0.18192 0.51177 0.79224
 H90 H 0.20636 0.48375 0.81885
 H91 H 0.29113 0.51206 0.68105
 H92 H 0.31965 0.48438 0.70786
 O93 O 0.25195 -0.03386 0.31925
 O94 O 0.20800 -0.03073 0.31093
 O95 O 0.28305 -0.06957 0.25103
 O96 O 0.28427 -0.06171 0.20860
 O97 O 0.31931 -0.00135 0.28322
 O98 O 0.30950 0.04365 0.28142
 O99 O 0.21644 0.00032 0.18260
 O100 O 0.22149 -0.04346 0.19000
 O101 O 0.18257 0.03245 0.24849
 O102 O 0.19167 0.03112 0.29487
 O103 O 0.24837 0.06729 0.21703
 O104 O 0.29426 0.05840 0.21784
 O105 O 0.24737 0.03172 0.18244
 O106 O 0.29515 0.02951 0.19194
 O107 O 0.21748 0.06747 0.24832
 O108 O 0.22011 0.05746 0.29577
 O109 O 0.18271 0.00161 0.21704
 O110 O 0.19156 -0.04503 0.22552
 O111 O 0.28245 -0.00198 0.31938
 O112 O 0.28040 0.04381 0.30950
 O113 O 0.31955 -0.03257 0.25212
 O114 O 0.30884 -0.02856 0.20543
 O115 O 0.25267 -0.06958 0.28289
 O116 O 0.20617 -0.05935 0.27736
 Zr117 Zr 0.23657 -0.03211 0.28164
 O118 O 0.21169 -0.00902 0.25915
 Zr119 Zr 0.28210 -0.03164 0.23625
 O120 O 0.25867 -0.00933 0.21155
 Zr121 Zr 0.28162 0.01377 0.28174
 O122 O 0.25889 0.03849 0.25869
 Zr123 Zr 0.21948 -0.01548 0.21986
 O124 O 0.24285 -0.04059 0.24224
 Zr125 Zr 0.21965 0.03037 0.26503
 O126 O 0.24242 0.00740 0.29009
 Zr127 Zr 0.26475 0.03011 0.21931
 O128 O 0.29026 0.00780 0.24239
 O129 O 0.27566 -0.02544 0.27536
 O130 O 0.22555 0.02402 0.22570
 C131 C 0.26950 -0.02019 0.33030
 C132 C 0.27020 -0.08057 0.26919
 C133 C 0.33040 -0.01919 0.27000
 C134 C 0.22909 0.01873 0.17176
 C135 C 0.17190 0.01979 0.23001
 C136 C 0.23023 0.07818 0.22995
 H137 H 0.19357 -0.01336 0.26335
 H138 H 0.26319 0.05666 0.26283
 H139 H 0.28675 -0.03648 0.28638
 H140 H 0.26253 -0.01379 0.19336
 H141 H 0.22717 -0.05983 0.19819
 H142 H 0.27081 -0.05816 0.19553
 H143 H 0.23483 0.06932 0.29293
 H144 H 0.26350 0.04242 0.31833
 H145 H 0.17930 -0.04446 0.21080
 H146 H 0.20781 -0.07270 0.29107
 H147 H 0.29384 0.06805 0.23435
 H148 H 0.31763 0.04326 0.26409
 H149 H 0.20824 -0.01295 0.31808
 H150 H 0.18149 0.01497 0.29368
 H151 H 0.31903 -0.01263 0.20848
 H152 H 0.29200 0.01494 0.17993
 O153 O 0.56919 0.71690 0.24834
 O154 O 0.56088 0.72020 0.29236
 O155 O 0.50108 0.68107 0.21736
 O156 O 0.45878 0.68901 0.21589
 O157 O 0.53328 0.74929 0.18075
 O158 O 0.53146 0.79427 0.19046
 O159 O 0.43269 0.75099 0.28365
 O160 O 0.44023 0.70730 0.27891
 O161 O 0.49857 0.78335 0.31767
 O162 O 0.54482 0.78202 0.30853
 O163 O 0.46708 0.81803 0.25174
 O164 O 0.46794 0.80916 0.20579
 O165 O 0.43251 0.78229 0.25256
 O166 O 0.44224 0.78018 0.20476
 O167 O 0.49836 0.81828 0.28262
 O168 O 0.54568 0.80831 0.27999
 O169 O 0.46710 0.75259 0.31759
 O170 O 0.47563 0.70590 0.30889
 O171 O 0.56934 0.74872 0.21771
 O172 O 0.55944 0.79453 0.21966
 O173 O 0.50230 0.71802 0.18057
 O174 O 0.45567 0.72204 0.19126
 O175 O 0.53286 0.68117 0.24781
 O176 O 0.52740 0.69157 0.29431
 Zr177 Zr 0.53165 0.71870 0.26375
 O178 O 0.50917 0.74184 0.28861
 Zr179 Zr 0.48640 0.71904 0.21809
 O180 O 0.46172 0.74139 0.24151
 Zr181 Zr 0.53176 0.76447 0.21848
 O182 O 0.50872 0.78923 0.24119
 Zr183 Zr 0.46997 0.73536 0.28081
 O184 O 0.49233 0.71021 0.25746
 Zr185 Zr 0.51503 0.78121 0.28051
 O186 O 0.54006 0.75819 0.25778
 Zr187 Zr 0.46942 0.78083 0.23533
 O188 O 0.49249 0.75848 0.20983
 O189 O 0.52542 0.72525 0.22454
 O190 O 0.47577 0.77485 0.27464
 C191 C 0.58022 0.73054 0.23074
 C192 C 0.51917 0.67009 0.23033
 C193 C 0.52011 0.73142 0.16966
 C194 C 0.42181 0.76925 0.27082
 C195 C 0.48010 0.77075 0.32840
 C196 C 0.47999 0.82896 0.26987
 H197 H 0.51335 0.73755 0.30677
 H198 H 0.51284 0.80740 0.23683
 H199 H 0.53643 0.71417 0.21348
 H200 H 0.44358 0.73689 0.23761
 H201 H 0.44844 0.69094 0.27324
 H202 H 0.44585 0.69245 0.22951
 H203 H 0.54286 0.82013 0.26520
 H204 H 0.56826 0.79315 0.23658
 H205 H 0.46096 0.70653 0.32119
 H206 H 0.54111 0.67824 0.29274
 H207 H 0.48445 0.81875 0.20614
 H208 H 0.51414 0.79391 0.18238
 H209 H 0.56804 0.73796 0.29202
 H210 H 0.54366 0.76589 0.31876
 H211 H 0.45875 0.73791 0.18097
 H212 H 0.43032 0.76554 0.20783
 O213 O -0.00190 0.78316 0.81888
 O214 O 0.04201 0.78000 0.81057
 O215 O -0.03290 0.81893 0.75059
 O216 O -0.03404 0.81105 0.70816
 O217 O -0.06937 0.75085 0.78277
 O218 O -0.05968 0.70583 0.78101
 O219 O 0.03366 0.74896 0.68226
 O220 O 0.02874 0.79269 0.68968
 O221 O 0.06739 0.71672 0.74825
 O222 O 0.05816 0.71809 0.79463
 O223 O 0.00156 0.68194 0.71673
 O224 O -0.04421 0.69088 0.71736
 O225 O 0.00268 0.71761 0.68204
 O226 O -0.04515 0.71987 0.69159
 O227 O 0.03236 0.68173 0.74809
 O228 O 0.02973 0.69178 0.79546
 O229 O 0.06736 0.74755 0.71679
 O230 O 0.05859 0.79420 0.72524
 O231 O -0.03248 0.75136 0.81902
 O232 O -0.03062 0.70557 0.80911
 O233 O -0.06947 0.78202 0.75162
 O234 O -0.05869 0.77796 0.70497
 O235 O -0.00259 0.81888 0.78250
 O236 O 0.04390 0.80858 0.77698
 Zr237 Zr 0.01346 0.78139 0.78127
 O238 O 0.03833 0.75823 0.75884
 Zr239 Zr -0.03200 0.78099 0.73583
 O240 O -0.00856 0.75862 0.71117
 Zr241 Zr -0.03170 0.73562 0.78136
 O242 O -0.00898 0.71084 0.75834
 Zr243 Zr 0.03062 0.76469 0.71954
 O244 O 0.00726 0.78986 0.74186
 Zr245 Zr 0.03027 0.71886 0.76472
 O246 O 0.00751 0.74190 0.78973
 Zr247 Zr -0.01473 0.71919 0.71893
 O248 O -0.04024 0.74156 0.74197
 O249 O -0.02564 0.77481 0.77496
 O250 O 0.02448 0.72520 0.72537
 C251 C -0.01945 0.76952 0.82994
 C252 C -0.02007 0.82990 0.76878
 C253 C -0.08040 0.76869 0.76949
 C254 C 0.02096 0.73062 0.67137
 C255 C 0.07813 0.72937 0.72980
 C256 C 0.01962 0.67101 0.72972
 H257 H 0.05645 0.76254 0.76306
 H258 H -0.01333 0.69268 0.76248
 H259 H -0.03672 0.78587 0.78598
 H260 H -0.01240 0.76308 0.69298
 H261 H 0.02306 0.80906 0.69786
 H262 H -0.02057 0.80746 0.69510
 H263 H 0.01494 0.68000 0.79267
 H264 H -0.01372 0.70690 0.81794
 H265 H 0.07088 0.79360 0.71054
 H266 H 0.04228 0.82195 0.79067
 H267 H -0.04404 0.68143 0.73399
 H268 H -0.06777 0.70624 0.76367
 H269 H 0.04177 0.76222 0.81769
 H270 H 0.06845 0.73417 0.79339
 H271 H -0.06892 0.76206 0.70802
 H272 H -0.04193 0.73439 0.67954
 O273 O -0.03352 -0.06908 -0.00171
 O274 O -0.03021 -0.06070 0.04228
 O275 O -0.06903 -0.00065 -0.03276
 O276 O -0.06104 0.04180 -0.03393
 O277 O -0.00136 -0.03312 -0.06948
 O278 O 0.04354 -0.03156 -0.05993
 O279 O 0.00127 0.06760 0.03356
 O280 O -0.04240 0.06035 0.02888
 O281 O 0.03319 0.00132 0.06738
 O282 O 0.03164 -0.04508 0.05811
 O283 O 0.06770 0.03293 0.00141
 O284 O 0.05873 0.03199 -0.04460
 O285 O 0.03233 0.06766 0.00231
 O286 O 0.02998 0.05799 -0.04549
 O287 O 0.06788 0.00157 0.03232
 O288 O 0.05785 -0.04592 0.02954
 O289 O 0.00268 0.03305 0.06742
 O290 O -0.04393 0.02481 0.05885
 O291 O -0.00191 -0.06938 -0.03246
 O292 O 0.04378 -0.05965 -0.03078
 O293 O -0.03233 -0.00183 -0.06952
 O294 O -0.02813 0.04485 -0.05878
 O295 O -0.06900 -0.03255 -0.00233
 O296 O -0.05858 -0.02696 0.04420
 Zr297 Zr -0.03158 -0.03142 0.01362
 O298 O -0.00831 -0.00903 0.03842
 Zr299 Zr -0.03115 0.01400 -0.03198
 O300 O -0.00867 0.03862 -0.00863
 Zr301 Zr 0.01393 -0.03175 -0.03179
 O302 O 0.03881 -0.00878 -0.00915
 Zr303 Zr -0.01461 0.03034 0.03068
 O304 O -0.03988 0.00806 0.00740
 Zr305 Zr 0.03089 -0.01510 0.03019
 O306 O 0.00774 -0.04006 0.00752
 Zr307 Zr 0.03059 0.03068 -0.01495
 O308 O 0.00810 0.00768 -0.04039
 O309 O -0.02511 -0.02518 -0.02559
 O310 O 0.02470 0.02430 0.02436
 C311 C -0.02001 -0.08023 -0.01933
 C312 C -0.08000 -0.01880 -0.01984
 C313 C -0.01913 -0.01977 -0.08049
 C314 C 0.01951 0.07841 0.02068
 C315 C 0.02075 0.01990 0.07816
 C316 C 0.07855 0.02001 0.01959
 H317 H -0.01256 -0.01322 0.05660
 H318 H 0.05690 -0.01298 -0.01354
 H319 H -0.03621 -0.03618 -0.03664
 H320 H -0.01306 0.05684 -0.01249
 H321 H -0.05878 0.05222 0.02326
 H322 H -0.05735 0.05488 -0.02047
 H323 H 0.06967 -0.04303 0.01480
 H324 H 0.04252 -0.06840 -0.01379
 H325 H -0.04319 0.03953 0.07115
 H326 H -0.07196 -0.04062 0.04264
 H327 H 0.06835 0.01545 -0.04416
 H328 H 0.04327 -0.01415 -0.06795
 H329 H -0.01253 -0.06796 0.04194
 H330 H 0.01565 -0.04377 0.06849
 H331 H -0.01233 0.04174 -0.06909
 H332 H 0.01548 0.07004 -0.04234
 O333 O 0.00142 0.56902 0.53350
 O334 O -0.04258 0.56073 0.53009
 O335 O 0.03236 0.50075 0.56906
 O336 O 0.03353 0.45827 0.56116
 O337 O 0.06886 0.53297 0.50098
 O338 O 0.05913 0.53139 0.45606
 O339 O -0.03395 0.43229 0.49893
 O340 O -0.02919 0.43965 0.54265
 O341 O -0.06783 0.49851 0.46690
 O342 O -0.05861 0.54486 0.46827
 O343 O -0.00204 0.46681 0.43222
 O344 O 0.04396 0.46781 0.44114
 O345 O -0.00283 0.43217 0.46774
 O346 O 0.04483 0.44181 0.46991
 O347 O -0.03289 0.49817 0.43202
 O348 O -0.03011 0.54569 0.44199
 O349 O -0.06777 0.46685 0.49753
 O350 O -0.05908 0.47520 0.54419
 O351 O 0.03204 0.56922 0.50176
 O352 O 0.03002 0.55950 0.45594
 O353 O 0.06899 0.50182 0.53216
 O354 O 0.05826 0.45513 0.52815
 O355 O 0.00192 0.53259 0.56903
 O356 O -0.04451 0.52708 0.55865
 Zr357 Zr -0.01402 0.53141 0.53155
 O358 O -0.03881 0.50895 0.50836
 Zr359 Zr 0.03151 0.48598 0.53115
 O360 O 0.00816 0.46131 0.50873
 Zr361 Zr 0.03119 0.53161 0.48585
 O362 O 0.00854 0.50858 0.46103
 Zr363 Zr -0.03106 0.46960 0.51475
 O364 O -0.00778 0.49194 0.53996
 Zr365 Zr -0.03070 0.51492 0.46905
 O366 O -0.00803 0.53996 0.49213
 Zr367 Zr 0.01438 0.46915 0.46936
 O368 O 0.03980 0.49220 0.49177
 O369 O 0.02511 0.52514 0.52500
 O370 O -0.02485 0.47553 0.47533
 C371 C 0.01906 0.58009 0.51998
 C372 C 0.01943 0.51890 0.58004
 C373 C 0.07990 0.51968 0.51880
 C374 C -0.02113 0.42143 0.48066
 C375 C -0.07855 0.47997 0.47945
 C376 C -0.02019 0.47971 0.42135
 H377 H -0.05694 0.51315 0.51266
 H378 H 0.01289 0.51274 0.44289
 H379 H 0.03618 0.53612 0.53608
 H380 H 0.01204 0.44310 0.51317
 H381 H -0.02354 0.44781 0.55903
 H382 H 0.02010 0.44518 0.55753
 H383 H -0.01540 0.54280 0.43013
 H384 H 0.01311 0.56833 0.45734
 H385 H -0.07137 0.46049 0.54352
 H386 H -0.04295 0.54081 0.57199
 H387 H 0.04336 0.48424 0.43134
 H388 H 0.06713 0.51398 0.45629
 H389 H -0.04212 0.56806 0.51241
 H390 H -0.06879 0.54372 0.48441
 H391 H 0.06849 0.45817 0.51226
 H392 H 0.04178 0.42986 0.48455
 O393 O 0.50183 0.06908 0.53375
 O394 O 0.45789 0.06075 0.53045
 O395 O 0.53279 0.00072 0.56940
 O396 O 0.53408 -0.04172 0.56145
 O397 O 0.56931 0.03304 0.50132
 O398 O 0.55962 0.03140 0.45638
 O399 O 0.46647 -0.06766 0.49920
 O400 O 0.47133 -0.06037 0.54292
 O401 O 0.43262 -0.00149 0.46725
 O402 O 0.44182 0.04485 0.46857
 O403 O 0.49856 -0.03306 0.43248
 O404 O 0.54448 -0.03218 0.44151
 O405 O 0.49757 -0.06777 0.46798
 O406 O 0.54526 -0.05822 0.47024
 O407 O 0.46766 -0.00175 0.43229
 O408 O 0.47031 0.04573 0.44233
 O409 O 0.43266 -0.03307 0.49795
 O410 O 0.44146 -0.02479 0.54457
 O411 O 0.53243 0.06928 0.50198
 O412 O 0.53053 0.05950 0.45622
 O413 O 0.56946 0.00187 0.53248
 O414 O 0.55875 -0.04483 0.52842
 O415 O 0.50238 0.03259 0.56936
 O416 O 0.45596 0.02710 0.55896
 Zr417 Zr 0.48646 0.03143 0.53187
 O418 O 0.46167 0.00897 0.50868
 Zr419 Zr 0.53200 -0.01399 0.53146
 O420 O 0.50864 -0.03867 0.50904
 Zr421 Zr 0.53166 0.03164 0.48616
 O422 O 0.50901 0.00861 0.46135
 Zr423 Zr 0.46942 -0.03038 0.51506
 O424 O 0.49271 -0.00803 0.54027
 Zr425 Zr 0.46975 0.01494 0.46936
 O426 O 0.49244 0.03997 0.49244
 Zr427 Zr 0.51485 -0.03082 0.46967
 O428 O 0.54028 -0.00777 0.49208
 O429 O 0.52559 0.02518 0.52532
 O430 O 0.47561 -0.02445 0.47563
 C431 C 0.51941 0.08017 0.52015
 C432 C 0.51985 0.01885 0.58039
 C433 C 0.58037 0.01974 0.51913
 C434 C 0.47926 -0.07850 0.48089
 C435 C 0.42187 -0.01997 0.47986
 C436 C 0.48044 -0.02012 0.42159
 H437 H 0.44354 0.01317 0.51298
 H438 H 0.51337 0.01278 0.44322
 H439 H 0.53664 0.03618 0.53641
 H440 H 0.51251 -0.05688 0.51347
 H441 H 0.47699 -0.05223 0.55931
 H442 H 0.52062 -0.05479 0.55785
 H443 H 0.48505 0.04289 0.43050
 H444 H 0.51361 0.06830 0.45756
 H445 H 0.42918 -0.03951 0.54393
 H446 H 0.45753 0.04081 0.57232
 H447 H 0.54397 -0.01570 0.43178
 H448 H 0.56769 0.01402 0.45670
 H449 H 0.45826 0.06801 0.51273
 H450 H 0.43165 0.04372 0.48472
 H451 H 0.56896 -0.04178 0.51253
 H452 H 0.54216 -0.07018 0.48486
 O453 O 0.56865 0.53337 0.00172
 O454 O 0.56021 0.52998 -0.04228
 O455 O 0.50080 0.56919 0.03301
 O456 O 0.45841 0.56141 0.03425
 O457 O 0.53280 0.50099 0.06954
 O458 O 0.53117 0.45603 0.05981
 O459 O 0.43217 0.49910 -0.03324
 O460 O 0.43960 0.54286 -0.02843
 O461 O 0.49787 0.46678 -0.06727
 O462 O 0.54422 0.46817 -0.05825
 O463 O 0.46660 0.43219 -0.00122
 O464 O 0.46765 0.44128 0.04485
 O465 O 0.43207 0.46781 -0.00213
 O466 O 0.44172 0.47007 0.04565
 O467 O 0.49779 0.43191 -0.03221
 O468 O 0.54511 0.44185 -0.02972
 O469 O 0.46644 0.49759 -0.06714
 O470 O 0.47495 0.54427 -0.05853
 O471 O 0.56890 0.50167 0.03247
 O472 O 0.55909 0.45583 0.03057
 O473 O 0.50178 0.53224 0.06974
 O474 O 0.45525 0.52840 0.05910
 O475 O 0.53243 0.56903 0.00239
 O476 O 0.52671 0.55864 -0.04410
 Zr477 Zr 0.53109 0.53152 -0.01356
 O478 O 0.50857 0.50834 -0.03832
 Zr479 Zr 0.48594 0.53127 0.03221
 O480 O 0.46121 0.50886 0.00892
 Zr481 Zr 0.53134 0.48583 0.03179
 O482 O 0.50826 0.46102 0.00918
 Zr483 Zr 0.46939 0.51485 -0.03040
 O484 O 0.49179 0.54005 -0.00717
 Zr485 Zr 0.51447 0.46899 -0.03017
 O486 O 0.53955 0.49204 -0.00754
 Zr487 Zr 0.46897 0.46943 0.01512
 O488 O 0.49208 0.49185 0.04051
 O489 O 0.52496 0.52502 0.02568
 O490 O 0.47524 0.47537 -0.02419
 C491 C 0.57974 0.51982 0.01935
 C492 C 0.51888 0.58011 0.01998
 C493 C 0.51957 0.51882 0.08065
 C494 C 0.42136 0.48077 -0.02044
 C495 C 0.47937 0.47938 -0.07795
 C496 C 0.47944 0.42125 -0.01940
 H497 H 0.51270 0.51261 -0.05650
 H498 H 0.51239 0.44286 0.01355
 H499 H 0.53597 0.53609 0.03674
 H500 H 0.44308 0.51334 0.01283
 H501 H 0.44781 0.55925 -0.02284
 H502 H 0.44526 0.55774 0.02090
 H503 H 0.54236 0.43010 -0.01486
 H504 H 0.56784 0.45719 0.01361
 H505 H 0.46023 0.54365 -0.07077
 H506 H 0.54044 0.57196 -0.04260
 H507 H 0.48401 0.43143 0.04422
 H508 H 0.51383 0.45629 0.06787
 H509 H 0.56740 0.51222 -0.04192
 H510 H 0.54293 0.48423 -0.06859
 H511 H 0.45819 0.51242 0.06926
 H512 H 0.42981 0.48472 0.04256
 O513 O 0.75149 0.28354 0.43091
 O514 O 0.70748 0.28015 0.43923
 O515 O 0.78251 0.31919 0.49900
 O516 O 0.78360 0.31139 0.54148
 O517 O 0.81892 0.25107 0.46689
 O518 O 0.80921 0.20607 0.46858
 O519 O 0.71613 0.24922 0.56758
 O520 O 0.72093 0.29292 0.56014
 O521 O 0.68222 0.21702 0.50152
 O522 O 0.69138 0.21826 0.45525
 O523 O 0.74817 0.18222 0.53304
 O524 O 0.79396 0.19119 0.53227
 O525 O 0.74718 0.21793 0.56774
 O526 O 0.79492 0.22013 0.55805
 O527 O 0.71731 0.18198 0.50174
 O528 O 0.71988 0.19203 0.45433
 O529 O 0.68228 0.24781 0.53303
 O530 O 0.69106 0.29445 0.52463
 O531 O 0.78211 0.25177 0.43073
 O532 O 0.78007 0.20590 0.44052
 O533 O 0.81906 0.28229 0.49800
 O534 O 0.80837 0.27830 0.54466
 O535 O 0.75206 0.31913 0.46720
 O536 O 0.70561 0.30882 0.47280
 Zr537 Zr 0.73606 0.28164 0.46849
 O538 O 0.71127 0.25847 0.49098
 Zr539 Zr 0.78160 0.28128 0.51385
 O540 O 0.75825 0.25889 0.53855
 Zr541 Zr 0.78125 0.23589 0.46833
 O542 O 0.75861 0.21110 0.49140
 Zr543 Zr 0.71903 0.26493 0.53027
 O544 O 0.74232 0.29012 0.50789
 Zr545 Zr 0.71935 0.21910 0.48508
 O546 O 0.74203 0.24216 0.46001
 Zr547 Zr 0.76443 0.21947 0.53078
 O548 O 0.78987 0.24185 0.50769
 O549 O 0.77518 0.27507 0.47475
 O550 O 0.72519 0.22544 0.52443
 C551 C 0.76913 0.27000 0.41986
 C552 C 0.76962 0.33014 0.48083
 C553 C 0.82996 0.26894 0.48013
 C554 C 0.72893 0.23094 0.57846
 C555 C 0.67148 0.22969 0.51996
 C556 C 0.73011 0.17128 0.52009
 H557 H 0.69314 0.26278 0.48678
 H558 H 0.76297 0.19294 0.48725
 H559 H 0.78625 0.28614 0.46375
 H560 H 0.76212 0.26337 0.55673
 H561 H 0.72662 0.30929 0.55196
 H562 H 0.77025 0.30771 0.55463
 H563 H 0.73469 0.18027 0.45710
 H564 H 0.76320 0.20734 0.43165
 H565 H 0.67878 0.29384 0.53934
 H566 H 0.70718 0.32214 0.45906
 H567 H 0.79368 0.18165 0.51569
 H568 H 0.81732 0.20643 0.48592
 H569 H 0.70794 0.26244 0.43193
 H570 H 0.68128 0.23448 0.45630
 H571 H 0.81859 0.26240 0.54162
 H572 H 0.79179 0.23471 0.57005
 O573 O 0.81865 0.75156 -0.03369
 O574 O 0.81016 0.70755 -0.03047
 O575 O 0.75065 0.78293 -0.06942
 O576 O 0.70829 0.78420 -0.06156
 O577 O 0.78288 0.81945 -0.00145
 O578 O 0.78114 0.80979 0.04351
 O579 O 0.68214 0.71660 0.00064
 O580 O 0.68954 0.72136 -0.04303
 O581 O 0.74800 0.68247 0.03280
 O582 O 0.79425 0.69155 0.03145
 O583 O 0.71673 0.74871 0.06749
 O584 O 0.71760 0.79464 0.05847
 O585 O 0.68207 0.74777 0.03187
 O586 O 0.69183 0.79561 0.02960
 O587 O 0.74790 0.71767 0.06773
 O588 O 0.79520 0.72013 0.05766
 O589 O 0.71654 0.68256 0.00206
 O590 O 0.72491 0.69129 -0.04455
 O591 O 0.81892 0.78229 -0.00198
 O592 O 0.80906 0.78053 0.04378
 O593 O 0.75178 0.81965 -0.03257
 O594 O 0.70520 0.80902 -0.02854
 O595 O 0.78235 0.75236 -0.06935
 O596 O 0.77662 0.70579 -0.05901
 Zr597 Zr 0.78105 0.73632 -0.03188
 O598 O 0.75857 0.71153 -0.00868
 Zr599 Zr 0.73589 0.78211 -0.03152
 O600 O 0.71120 0.75876 -0.00911
 Zr601 Zr 0.78134 0.78169 0.01378
 O602 O 0.75829 0.75905 0.03859
 Zr603 Zr 0.71937 0.71940 -0.01510
 O604 O 0.74173 0.74269 -0.04031
 Zr605 Zr 0.76450 0.71965 0.03063
 O606 O 0.78954 0.74233 0.00755
 Zr607 Zr 0.71899 0.76498 0.03026
 O608 O 0.74207 0.79042 0.00785
 O609 O 0.77492 0.77559 -0.02536
 O610 O 0.72524 0.72561 0.02434
 C611 C 0.82976 0.76915 -0.02010
 C612 C 0.76874 0.76996 -0.08038
 C613 C 0.76964 0.83056 -0.01926
 C614 C 0.67132 0.72947 0.01891
 C615 C 0.72956 0.67172 0.02018
 C616 C 0.72963 0.73056 0.07843
 H617 H 0.76272 0.69333 -0.01297
 H618 H 0.76245 0.76343 0.05672
 H619 H 0.78595 0.78664 -0.03642
 H620 H 0.69306 0.76269 -0.01357
 H621 H 0.69770 0.72701 -0.05940
 H622 H 0.69519 0.77078 -0.05791
 H623 H 0.79245 0.73497 0.06943
 H624 H 0.81781 0.76354 0.04246
 H625 H 0.71020 0.67902 -0.04392
 H626 H 0.79029 0.70732 -0.07236
 H627 H 0.73415 0.79431 0.06800
 H628 H 0.76386 0.81796 0.04314
 H629 H 0.81734 0.70784 -0.01273
 H630 H 0.79305 0.68128 0.01535
 H631 H 0.70826 0.81929 -0.01267
 H632 H 0.67984 0.79249 0.01504
 O633 O 1.00180 0.18076 0.21679
 O634 O 0.95780 0.18907 0.22017
 O635 O 1.03282 0.24895 0.18119
 O636 O 1.03394 0.29146 0.18901
 O637 O 1.06920 0.21675 0.24922
 O638 O 1.05947 0.21847 0.29420
 O639 O 0.96634 0.31749 0.25122
 O640 O 0.97130 0.31014 0.20747
 O641 O 0.93252 0.25149 0.28329
 O642 O 0.94166 0.20509 0.28197
 O643 O 0.99842 0.28300 0.31800
 O644 O 1.04430 0.28212 0.30901
 O645 O 0.99738 0.31763 0.28248
 O646 O 1.04515 0.30807 0.28016
 O647 O 0.96752 0.25170 0.31822
 O648 O 0.97014 0.20421 0.30824
 O649 O 0.93261 0.28301 0.25251
 O650 O 0.94138 0.27459 0.20590
 O651 O 1.03241 0.18057 0.24854
 O652 O 1.03035 0.19035 0.29435
 O653 O 1.06936 0.24790 0.21804
 O654 O 1.05868 0.29462 0.22208
 O655 O 1.00238 0.21712 0.18124
 O656 O 0.95591 0.22269 0.19156
 Zr657 Zr 0.98637 0.21838 0.21870
 O658 O 0.96156 0.24088 0.24184
 Zr659 Zr 1.03191 0.26379 0.21907
 O660 O 1.00855 0.28851 0.24144
 Zr661 Zr 1.03154 0.21820 0.26441
 O662 O 1.00888 0.24128 0.28918
 Zr663 Zr 0.96934 0.28021 0.23539
 O664 O 0.99264 0.25782 0.21022
 Zr665 Zr 0.96962 0.23497 0.28117
 O666 O 0.99232 0.20988 0.25814
 Zr667 Zr 1.01473 0.28070 0.28082
 O668 O 1.04017 0.25760 0.25845
 O669 O 1.02548 0.22465 0.22526
 O670 O 0.97550 0.27433 0.27483
 C671 C 1.01944 0.16970 0.23032
 C672 C 1.01993 0.23077 0.17023
 C673 C 1.08024 0.22999 0.23136
 C674 C 0.97906 0.32833 0.26956
 C675 C 0.92181 0.26999 0.27066
 C676 C 0.98029 0.27009 0.32890
 H677 H 0.94343 0.23670 0.23754
 H678 H 1.01322 0.23713 0.30732
 H679 H 1.03655 0.21363 0.21420
 H680 H 1.01241 0.30672 0.23699
 H681 H 0.97696 0.30196 0.19110
 H682 H 1.02060 0.30464 0.19269
 H683 H 0.98491 0.20702 0.32002
 H684 H 1.01345 0.18151 0.29294
 H685 H 0.92912 0.28933 0.20651
 H686 H 0.95749 0.20894 0.17824
 H687 H 1.04388 0.26560 0.31867
 H688 H 1.06759 0.23582 0.29383
 H689 H 0.95821 0.18180 0.23788
 H690 H 0.93149 0.20623 0.26582
 H691 H 1.06888 0.29157 0.23798
 H692 H 1.04197 0.32011 0.26563
 O693 O 0.74843 1.06929 0.71638
 O694 O 0.79237 1.06092 0.71974
 O695 O 0.71735 1.00104 0.68085
 O696 O 0.71618 0.95856 0.68877
 O697 O 0.68088 1.03329 0.74893
 O698 O 0.69066 1.03178 0.79384
 O699 O 0.78364 0.93251 0.75091
 O700 O 0.77886 0.93988 0.70725
 O701 O 0.81762 0.99869 0.78293
 O702 O 0.80844 1.04507 0.78154
 O703 O 0.75171 0.96725 0.81777
 O704 O 0.70583 0.96810 0.80880
 O705 O 0.75260 0.93244 0.78218
 O706 O 0.70493 0.94213 0.78005
 O707 O 0.78258 0.99859 0.81793
 O708 O 0.78002 1.04598 0.80783
 O709 O 0.81752 0.96707 0.75226
 O710 O 0.80876 0.97540 0.70565
 O711 O 0.71780 1.06956 0.74811
 O712 O 0.71977 1.05985 0.79392
 O713 O 0.68073 1.00209 0.71780
 O714 O 0.69145 0.95544 0.72179
 O715 O 0.74782 1.03284 0.68086
 O716 O 0.79424 1.02726 0.69119
 Zr717 Zr 0.76378 1.03165 0.71832
 O718 O 0.78857 1.00917 0.74150
 Zr719 Zr 0.71821 0.98627 0.71878
 O720 O 0.74156 0.96159 0.74120
 Zr721 Zr 0.71858 1.03194 0.76403
 O722 O 0.74124 1.00890 0.78884
 Zr723 Zr 0.78078 0.96983 0.73514
 O724 O 0.75750 0.99219 0.70994
 Zr725 Zr 0.78050 1.01517 0.78082
 O726 O 0.75781 1.04022 0.75774
 Zr727 Zr 0.73540 0.96945 0.78058
 O728 O 0.70996 0.99252 0.75816
 O729 O 0.72464 1.02544 0.72488
 O730 O 0.77463 0.97577 0.77459
 C731 C 0.73083 1.08041 0.72992
 C732 C 0.73030 1.01916 0.66986
 C733 C 0.66981 1.01995 0.73117
 C734 C 0.77083 0.92166 0.76920
 C735 C 0.82834 0.98018 0.77033
 C736 C 0.76980 0.98024 0.82867
 H737 H 0.80669 1.01335 0.73719
 H738 H 0.73689 1.01309 0.80697
 H739 H 0.71356 1.03643 0.71381
 H740 H 0.73766 0.94338 0.73677
 H741 H 0.77319 0.94803 0.69087
 H742 H 0.72956 0.94543 0.69243
 H743 H 0.76518 1.04327 0.81956
 H744 H 0.73668 1.06866 0.79251
 H745 H 0.82103 0.96066 0.70629
 H746 H 0.79269 1.04099 0.67786
 H747 H 0.70628 0.98463 0.81845
 H748 H 0.68262 1.01440 0.79360
 H749 H 0.79198 1.06823 0.73744
 H750 H 0.81865 1.04387 0.76541
 H751 H 0.68128 0.95846 0.73773
 H752 H 0.70798 0.93016 0.76543
 O753 O 0.74829 0.56934 0.21651
 O754 O 0.79221 0.56094 0.21977
 O755 O 0.71712 0.50115 0.18090
 O756 O 0.71602 0.45864 0.18873
 O757 O 0.68070 0.53329 0.24900
 O758 O 0.69047 0.53176 0.29389
 O759 O 0.78351 0.43256 0.25089
 O760 O 0.77867 0.43996 0.20718
 O761 O 0.81737 0.49858 0.28305
 O762 O 0.80827 0.54505 0.28156
 O763 O 0.75159 0.46715 0.31774
 O764 O 0.70562 0.46807 0.30876
 O765 O 0.75251 0.43245 0.28220
 O766 O 0.70480 0.44205 0.28002
 O767 O 0.78242 0.49851 0.31792
 O768 O 0.77982 0.54595 0.30788
 O769 O 0.81728 0.46700 0.25234
 O770 O 0.80863 0.47546 0.20569
 O771 O 0.71765 0.56958 0.24822
 O772 O 0.71959 0.55980 0.29402
 O773 O 0.68053 0.50211 0.21786
 O774 O 0.69128 0.45546 0.22176
 O775 O 0.74759 0.53295 0.18093
 O776 O 0.79403 0.52728 0.19122
 Zr777 Zr 0.76359 0.53168 0.21837
 O778 O 0.78840 0.50919 0.24153
 Zr779 Zr 0.71803 0.48631 0.21879
 O780 O 0.74138 0.46160 0.24118
 Zr781 Zr 0.71841 0.53193 0.26409
 O782 O 0.74106 0.50886 0.28888
 Zr783 Zr 0.78059 0.46987 0.23512
 O784 O 0.75731 0.49224 0.20994
 Zr785 Zr 0.78031 0.51517 0.28085
 O786 O 0.75763 0.54022 0.25780
 Zr787 Zr 0.73522 0.46943 0.28057
 O788 O 0.70979 0.49252 0.25818
 O789 O 0.72446 0.52547 0.22494
 O790 O 0.77443 0.47579 0.27456
 C791 C 0.73071 0.58045 0.23006
 C792 C 0.73004 0.51930 0.16992
 C793 C 0.66962 0.51996 0.23124
 C794 C 0.77078 0.42172 0.26923
 C795 C 0.82805 0.48002 0.27050
 C796 C 0.76970 0.48010 0.32862
 H797 H 0.80653 0.51336 0.23723
 H798 H 0.73672 0.51303 0.30702
 H799 H 0.71337 0.53648 0.21389
 H800 H 0.73750 0.44339 0.23675
 H801 H 0.77305 0.44816 0.19080
 H802 H 0.72940 0.44550 0.19239
 H803 H 0.76503 0.54318 0.31966
 H804 H 0.73650 0.56861 0.29263
 H805 H 0.82088 0.46073 0.20633
 H806 H 0.79248 0.54101 0.17788
 H807 H 0.70618 0.48453 0.31853
 H808 H 0.68248 0.51435 0.29369
 H809 H 0.79192 0.56814 0.23751
 H810 H 0.81859 0.54373 0.26552
 H811 H 0.68115 0.45843 0.23773
 H812 H 0.70789 0.43007 0.26541
 O813 O 0.56872 0.21664 0.74865
 O814 O 0.56032 0.21995 0.79268
 O815 O 0.50077 0.18077 0.71751
 O816 O 0.45844 0.18861 0.71607
 O817 O 0.53287 0.24906 0.68101
 O818 O 0.53106 0.29402 0.69075
 O819 O 0.43216 0.25076 0.78378
 O820 O 0.43966 0.20701 0.77897
 O821 O 0.49796 0.28301 0.81789
 O822 O 0.54419 0.28181 0.80878
 O823 O 0.46644 0.31765 0.75188
 O824 O 0.46757 0.30873 0.70582
 O825 O 0.43202 0.28200 0.75263
 O826 O 0.44176 0.27982 0.70487
 O827 O 0.49760 0.31794 0.78288
 O828 O 0.54503 0.30811 0.78023
 O829 O 0.46652 0.25222 0.81775
 O830 O 0.47502 0.20555 0.80901
 O831 O 0.56890 0.24846 0.71802
 O832 O 0.55899 0.29426 0.72000
 O833 O 0.50193 0.21775 0.68078
 O834 O 0.45530 0.22166 0.69140
 O835 O 0.53246 0.18090 0.74805
 O836 O 0.52686 0.19128 0.79455
 Zr837 Zr 0.53116 0.21842 0.76401
 O838 O 0.50861 0.24155 0.78881
 Zr839 Zr 0.48599 0.21871 0.71827
 O840 O 0.46124 0.24105 0.74163
 Zr841 Zr 0.53132 0.26420 0.71875
 O842 O 0.50820 0.28895 0.74140
 Zr843 Zr 0.46942 0.23503 0.78095
 O844 O 0.49185 0.20989 0.75765
 Zr845 Zr 0.51444 0.28093 0.78073
 O846 O 0.53955 0.25792 0.75806
 Zr847 Zr 0.46894 0.28048 0.73545
 O848 O 0.49208 0.25815 0.71001
 O849 O 0.52500 0.22498 0.72480
 O850 O 0.47521 0.27451 0.77476
 C851 C 0.57977 0.23027 0.73105
 C852 C 0.51884 0.16982 0.73051
 C853 C 0.51973 0.23118 0.66990
 C854 C 0.42132 0.26904 0.77093
 C855 C 0.47950 0.27038 0.82858
 C856 C 0.47922 0.32857 0.77011
 H857 H 0.51276 0.23726 0.80699
 H858 H 0.51230 0.30712 0.73706
 H859 H 0.53603 0.21391 0.71374
 H860 H 0.44311 0.23654 0.73771
 H861 H 0.44786 0.19064 0.77332
 H862 H 0.44542 0.19210 0.72960
 H863 H 0.54213 0.32000 0.76552
 H864 H 0.56774 0.29290 0.73696
 H865 H 0.46032 0.20616 0.82128
 H866 H 0.54059 0.17796 0.79301
 H867 H 0.48394 0.31856 0.70642
 H868 H 0.51374 0.29370 0.68268
 H869 H 0.56751 0.23770 0.79231
 H870 H 0.54309 0.26563 0.81896
 H871 H 0.45835 0.23755 0.68114
 H872 H 0.42986 0.26516 0.70792
 O873 O 0.31911 0.75106 0.46670
 O874 O 0.31067 0.70696 0.47020
 O875 O 0.25131 0.78234 0.43096
 O876 O 0.20894 0.78373 0.43874
 O877 O 0.28340 0.81887 0.49910
 O878 O 0.28168 0.80914 0.54404
 O879 O 0.18258 0.71615 0.50105
 O880 O 0.18998 0.72095 0.45734
 O881 O 0.24835 0.68193 0.53317
 O882 O 0.29456 0.69098 0.53201
 O883 O 0.21700 0.74824 0.56779
 O884 O 0.21815 0.79430 0.55872
 O885 O 0.18251 0.74740 0.53220
 O886 O 0.19228 0.79518 0.52992
 O887 O 0.24807 0.71710 0.56811
 O888 O 0.29547 0.71958 0.55822
 O889 O 0.21693 0.68209 0.50240
 O890 O 0.22533 0.69085 0.45580
 O891 O 0.31938 0.78180 0.49841
 O892 O 0.30958 0.77981 0.54422
 O893 O 0.25243 0.81912 0.46784
 O894 O 0.20582 0.80857 0.47174
 O895 O 0.28290 0.75165 0.43112
 O896 O 0.27719 0.70513 0.44154
 Zr897 Zr 0.28156 0.73572 0.46862
 O898 O 0.25898 0.71099 0.49177
 Zr899 Zr 0.23647 0.78160 0.46884
 O900 O 0.21170 0.75831 0.49122
 Zr901 Zr 0.28184 0.78110 0.51426
 O902 O 0.25870 0.75852 0.53904
 Zr903 Zr 0.21980 0.71893 0.48527
 O904 O 0.24226 0.74216 0.46009
 Zr905 Zr 0.26486 0.71911 0.53109
 O906 O 0.28999 0.74172 0.50806
 Zr907 Zr 0.21944 0.76455 0.53060
 O908 O 0.24261 0.78992 0.50822
 O909 O 0.27546 0.77500 0.47510
 O910 O 0.22563 0.72516 0.52471
 C911 C 0.33019 0.76873 0.48022
 C912 C 0.26937 0.76927 0.42004
 C913 C 0.27025 0.82999 0.48124
 C914 C 0.17178 0.72906 0.51931
 C915 C 0.22992 0.67121 0.52051
 C916 C 0.22976 0.73000 0.57874
 H917 H 0.26311 0.69279 0.48749
 H918 H 0.26282 0.76289 0.55718
 H919 H 0.28648 0.78605 0.46403
 H920 H 0.19357 0.76227 0.48674
 H921 H 0.19815 0.72659 0.44097
 H922 H 0.19579 0.77036 0.44238
 H923 H 0.29266 0.73440 0.57001
 H924 H 0.31832 0.76283 0.54283
 H925 H 0.21060 0.67859 0.45641
 H926 H 0.29094 0.70661 0.42825
 H927 H 0.23452 0.79368 0.56854
 H928 H 0.26438 0.81729 0.54371
 H929 H 0.31796 0.70745 0.48789
 H930 H 0.29352 0.68085 0.51581
 H931 H 0.20885 0.81881 0.48764
 H932 H 0.18037 0.79211 0.51529
 O933 O 0.28339 0.31871 0.99883
 O934 O 0.27990 0.31033 1.04290
 O935 O 0.31888 0.25055 0.96769
 O936 O 0.31106 0.20802 0.96662
 O937 O 0.25113 0.28281 0.93114
 O938 O 0.20622 0.28120 0.94078
 O939 O 0.24870 0.18200 1.03411
 O940 O 0.29238 0.18925 1.02925
 O941 O 0.21677 0.24807 1.06799
 O942 O 0.21815 0.29446 1.05885
 O943 O 0.18221 0.21664 1.00183
 O944 O 0.19131 0.21756 0.95586
 O945 O 0.21759 0.18194 1.00292
 O946 O 0.22003 0.19154 0.95509
 O947 O 0.18197 0.24790 1.03284
 O948 O 0.19200 0.29538 1.03026
 O949 O 0.24743 0.21649 1.06795
 O950 O 0.29397 0.22478 1.05926
 O951 O 0.25180 0.31899 0.96807
 O952 O 0.20604 0.30929 0.96999
 O953 O 0.28218 0.25160 0.93103
 O954 O 0.27811 0.20491 0.94169
 O955 O 0.31880 0.28234 0.99824
 O956 O 0.30842 0.27666 1.04477
 Zr957 Zr 0.28139 0.28108 1.01422
 O958 O 0.25820 0.25859 1.03899
 Zr959 Zr 0.28107 0.23571 0.96854
 O960 O 0.25864 0.21100 0.99186
 Zr961 Zr 0.23589 0.28138 0.96884
 O962 O 0.21107 0.25832 0.99146
 Zr963 Zr 0.26459 0.21926 1.03117
 O964 O 0.28980 0.24162 1.00792
 Zr965 Zr 0.21897 0.26459 1.03082
 O966 O 0.24206 0.28965 1.00817
 Zr967 Zr 0.21937 0.21889 0.98558
 O968 O 0.24180 0.24197 0.96017
 O969 O 0.27492 0.27486 0.97501
 O970 O 0.22525 0.22521 1.02491
 C971 C 0.26996 0.32982 0.98113
 C972 C 0.32980 0.26872 0.98063
 C973 C 0.26894 0.26953 0.92010
 C974 C 0.23041 0.17120 1.02130
 C975 C 0.22933 0.22956 1.07874
 C976 C 0.17131 0.22954 1.02000
 H977 H 0.26246 0.26276 1.05717
 H978 H 0.19298 0.26251 0.98707
 H979 H 0.28600 0.28587 0.96395
 H980 H 0.26305 0.19279 0.98799
 H981 H 0.30875 0.19740 1.02362
 H982 H 0.30728 0.19478 0.97989
 H983 H 0.18026 0.29259 1.01543
 H984 H 0.20742 0.31810 0.98694
 H985 H 0.29331 0.21004 1.07152
 H986 H 0.32173 0.29039 1.04324
 H987 H 0.18166 0.23407 0.95632
 H988 H 0.20656 0.26385 0.93266
 H989 H 0.26226 0.31766 1.04244
 H990 H 0.23424 0.29329 1.06907
 H991 H 0.26225 0.20795 0.93146
 H992 H 0.23453 0.17949 0.95828
 C993 C 0.29379 0.32465 0.79284
 C994 C 0.28848 0.34676 0.78752
 C995 C 0.28216 0.37262 0.78133
 C996 C 0.27667 0.39467 0.77603
 C997 C 0.29345 -0.17696 0.29204
 C998 C 0.28796 -0.15495 0.28652
 C999 C 0.28163 -0.12913 0.28024
 C1000 C 0.27633 -0.10700 0.27508
 C1001 C 0.79284 0.82495 0.79209
 C1002 C 0.78801 0.84720 0.78688
 C1003 C 0.78226 0.87321 0.78077
 C1004 C 0.77717 0.89537 0.77551
 C1005 C 0.45725 0.92526 0.29359
 C1006 C 0.46231 0.90313 0.28813
 C1007 C 0.46829 0.87725 0.28175
 C1008 C 0.47353 0.85518 0.27631
 C1009 C -0.04334 0.92628 0.79162
 C1010 C -0.03782 0.90428 0.78610
 C1011 C -0.03148 0.87846 0.77983
 C1012 C -0.02618 0.85634 0.77466
 C1013 C -0.04226 -0.17695 -0.04180
 C1014 C -0.03703 -0.15483 -0.03644
 C1015 C -0.03102 -0.12889 -0.03032
 C1016 C -0.02595 -0.10670 -0.02522
 C1017 C -0.04345 0.32507 0.45677
 C1018 C -0.03854 0.34723 0.46227
 C1019 C -0.03271 0.37313 0.46871
 C1020 C -0.02755 0.39521 0.47420
 C1021 C 0.45659 -0.17466 0.45654
 C1022 C 0.46158 -0.15256 0.46217
 C1023 C 0.46751 -0.12672 0.46875
 C1024 C 0.47275 -0.10468 0.47434
 C1025 C 0.45635 0.32507 -0.04333
 C1026 C 0.46147 0.34717 -0.03780
 C1027 C 0.46755 0.37302 -0.03135
 C1028 C 0.47289 0.39506 -0.02587
 C1029 C 0.79334 0.42612 0.45689
 C1030 C 0.78769 0.40423 0.46270
 C1031 C 0.78121 0.37854 0.46933
 C1032 C 0.77582 0.35651 0.47475
 C1033 C 0.79238 0.92694 -0.04265
 C1034 C 0.78706 0.90492 -0.03700
 C1035 C 0.78091 0.87909 -0.03056
 C1036 C 0.77572 0.85697 -0.02526
 C1037 C 0.79352 0.29366 0.32406
 C1038 C 0.78763 0.28806 0.34592
 C1039 C 0.78092 0.28160 0.37158
 C1040 C 0.77539 0.27620 0.39357
 C1041 C 0.79185 0.79306 -0.17666
 C1042 C 0.78626 0.78760 -0.15468
 C1043 C 0.77991 0.78131 -0.12889
 C1044 C 0.77467 0.77605 -0.10679
 C1045 C 0.29392 0.45651 0.92452
 C1046 C 0.28846 0.46145 0.90238
 C1047 C 0.28203 0.46735 0.87652
 C1048 C 0.27651 0.47257 0.85448
 C1049 C 0.29333 -0.04234 0.42660
 C1050 C 0.28760 -0.03713 0.40460
 C1051 C 0.28103 -0.03115 0.37879
 C1052 C 0.27562 -0.02612 0.35669
 C1053 C -0.04300 -0.04229 -0.17670
 C1054 C -0.03722 -0.03700 -0.15473
 C1055 C -0.03064 -0.03091 -0.12895
 C1056 C -0.02523 -0.02579 -0.10687
 C1057 C -0.04455 0.45568 0.32563
 C1058 C -0.03894 0.46109 0.34761
 C1059 C -0.03238 0.46749 0.37332
 C1060 C -0.02680 0.47304 0.39526
 C1061 C 0.45744 -0.04331 0.32531
 C1062 C 0.46267 -0.03809 0.34744
 C1063 C 0.46880 -0.03194 0.37331
 C1064 C 0.47408 -0.02660 0.39538
 C1065 C 0.45512 0.45569 -0.17377
 C1066 C 0.46063 0.46096 -0.15173
 C1067 C 0.46711 0.46721 -0.12597
 C1068 C 0.47269 0.47268 -0.10401
 C1069 C 0.45688 0.79406 0.42461
 C1070 C 0.46211 0.78891 0.40246
 C1071 C 0.46826 0.78275 0.37659
 C1072 C 0.47360 0.77735 0.35454
 C1073 C -0.04206 0.79159 0.92658
 C1074 C -0.03668 0.78637 0.90448
 C1075 C -0.03053 0.78039 0.87857
 C1076 C -0.02540 0.77538 0.85639
 C1077 C 0.32532 0.79184 0.29295
 C1078 C 0.34752 0.78669 0.28809
 C1079 C 0.37346 0.78066 0.28229
 C1080 C 0.39557 0.77548 0.27718
 C1081 C -0.17645 0.79259 0.79200
 C1082 C -0.15452 0.78676 0.78674
 C1083 C -0.12879 0.78015 0.78067
 C1084 C -0.10674 0.77474 0.77553
 C1085 C 0.92578 0.29280 0.45684
 C1086 C 0.90392 0.28698 0.46234
 C1087 C 0.87826 0.28039 0.46868
 C1088 C 0.85626 0.27499 0.47398
 C1089 C 0.92631 0.79146 -0.04205
 C1090 C 0.90423 0.78613 -0.03689
 C1091 C 0.87834 0.78005 -0.03095
 C1092 C 0.85619 0.77499 -0.02596
 C1093 C -0.17621 -0.04141 -0.04292
 C1094 C -0.15424 -0.03596 -0.03745
 C1095 C -0.12847 -0.02974 -0.03115
 C1096 C -0.10638 -0.02463 -0.02590
 C1097 C -0.17464 0.45715 0.45606
 C1098 C -0.15252 0.46227 0.46126
 C1099 C -0.12668 0.46830 0.46745
 C1100 C -0.10467 0.47355 0.47285
 C1101 C 0.32549 -0.04256 0.45746
 C1102 C 0.34768 -0.03747 0.46238
 C1103 C 0.37361 -0.03150 0.46824
 C1104 C 0.39570 -0.02630 0.47343
 C1105 C 0.32550 0.45705 -0.04398
 C1106 C 0.34753 0.46246 -0.03869
 C1107 C 0.37329 0.46882 -0.03244
 C1108 C 0.39526 0.47427 -0.02702
 C1109 C 0.42355 0.45606 0.79472
 C1110 C 0.40159 0.46165 0.78936
 C1111 C 0.37591 0.46821 0.78302
 C1112 C 0.35400 0.47379 0.77753
 C1113 C 0.42629 -0.04264 0.29344
 C1114 C 0.40441 -0.03694 0.28789
 C1115 C 0.37873 -0.03048 0.28150
 C1116 C 0.35671 -0.02517 0.27616
 C1117 C 0.07344 0.54240 0.70801
 C1118 C 0.09540 0.53690 0.71348
 C1119 C 0.12116 0.53059 0.71973
 C1120 C 0.14322 0.52534 0.72494
 C1121 C 0.07602 0.04293 0.20598
 C1122 C 0.09808 0.03781 0.21143
 C1123 C 0.12386 0.03172 0.21786
 C1124 C 0.14582 0.02637 0.22340
 C1125 C 0.67639 0.70831 0.20716
 C1126 C 0.65442 0.71356 0.21283
 C1127 C 0.62865 0.71956 0.21931
 C1128 C 0.60657 0.72461 0.22466
 C1129 C 0.17422 0.70658 0.70630
 C1130 C 0.15210 0.71159 0.71162
 C1131 C 0.12626 0.71756 0.71790
 C1132 C 0.10425 0.72283 0.72331
 C1133 C 0.57506 0.20750 0.54258
 C1134 C 0.59726 0.21237 0.53750
 C1135 C 0.62320 0.21817 0.53151
 C1136 C 0.64530 0.22329 0.52631
 C1137 C 0.57497 0.70734 0.04206
 C1138 C 0.59713 0.71220 0.03677
 C1139 C 0.62304 0.71800 0.03058
 C1140 C 0.64512 0.72311 0.02527
 C1141 C 0.17410 0.04385 0.04417
 C1142 C 0.15215 0.03851 0.03847
 C1143 C 0.12650 0.03216 0.03183
 C1144 C 0.10460 0.02665 0.02620
 C1145 C 0.17604 0.54262 0.54174
 C1146 C 0.15408 0.53718 0.53621
 C1147 C 0.12833 0.53093 0.52992
 C1148 C 0.10626 0.52572 0.52472
 C1149 C 0.67657 0.04267 0.54182
 C1150 C 0.65460 0.03722 0.53637
 C1151 C 0.62882 0.03098 0.53017
 C1152 C 0.60673 0.02577 0.52503
 C1153 C 0.67584 0.54309 0.04214
 C1154 C 0.65389 0.53754 0.03671
 C1155 C 0.62814 0.53118 0.03051
 C1156 C 0.60608 0.52589 0.02534
 C1157 C 0.04461 0.04285 0.17429
 C1158 C 0.03930 0.03770 0.15216
 C1159 C 0.03298 0.03163 0.12631
 C1160 C 0.02746 0.02635 0.10429
 C1161 C 0.04204 0.54218 0.67638
 C1162 C 0.03672 0.53651 0.65439
 C1163 C 0.03060 0.53007 0.62858
 C1164 C 0.02545 0.52481 0.60646
 C1165 C 0.54189 0.04134 0.67707
 C1166 C 0.53673 0.03590 0.65498
 C1167 C 0.53078 0.02971 0.62906
 C1168 C 0.52576 0.02462 0.60687
 C1169 C 0.54170 0.54141 0.17728
 C1170 C 0.53653 0.53596 0.15519
 C1171 C 0.53056 0.52976 0.12928
 C1172 C 0.52552 0.52466 0.10711
 C1173 C 0.20732 0.54221 0.57344
 C1174 C 0.21255 0.53644 0.59543
 C1175 C 0.21858 0.52987 0.62122
 C1176 C 0.22368 0.52451 0.64332
 C1177 C 0.20534 0.04334 0.07602
 C1178 C 0.21061 0.03762 0.09802
 C1179 C 0.21689 0.03096 0.12373
 C1180 C 0.22238 0.02532 0.14567
 C1181 C 0.70671 0.20805 0.67502
 C1182 C 0.71160 0.21328 0.65281
 C1183 C 0.71741 0.21939 0.62684
 C1184 C 0.72255 0.22464 0.60472
 C1185 C 0.70731 0.70807 0.17505
 C1186 C 0.71227 0.71319 0.15283
 C1187 C 0.71814 0.71917 0.12685
 C1188 C 0.72329 0.72433 0.10470
 C1189 C 0.54323 0.70833 0.07338
 C1190 C 0.53781 0.71391 0.09538
 C1191 C 0.53151 0.72024 0.12118
 C1192 C 0.52623 0.72546 0.14327
 C1193 C 0.04442 0.70733 0.57521
 C1194 C 0.03921 0.71266 0.59732
 C1195 C 0.03300 0.71889 0.62317
 C1196 C 0.02758 0.72422 0.64520
 C1197 C 0.54141 0.57321 0.20856
 C1198 C 0.53603 0.59535 0.21366
 C1199 C 0.52992 0.62133 0.21953
 C1200 C 0.52489 0.64356 0.22448
 C1201 C 0.04230 0.57434 0.70735
 C1202 C 0.03715 0.59657 0.71233
 C1203 C 0.03112 0.62256 0.71822
 C1204 C 0.02591 0.64472 0.72338
 C1205 C 0.04357 0.17466 0.04337
 C1206 C 0.03806 0.15253 0.03835
 C1207 C 0.03158 0.12666 0.03240
 C1208 C 0.02605 0.10461 0.02717
 C1209 C 0.04345 0.67602 0.54339
 C1210 C 0.03754 0.65413 0.53786
 C1211 C 0.03082 0.62844 0.53149
 C1212 C 0.02529 0.60641 0.52616
 C1213 C 0.54293 0.17661 0.54234
 C1214 C 0.53725 0.15457 0.53714
 C1215 C 0.53079 0.12872 0.53115
 C1216 C 0.52546 0.10659 0.52611
 C1217 C 0.54272 0.67652 0.04210
 C1218 C 0.53690 0.65450 0.03694
 C1219 C 0.53029 0.62868 0.03098
 C1220 C 0.52489 0.60655 0.02594
 C1221 C 0.70770 0.07457 0.54249
 C1222 C 0.71279 0.09681 0.53751
 C1223 C 0.71874 0.12281 0.53161
 C1224 C 0.72388 0.14498 0.52644
 C1225 C 0.70688 0.57511 0.04279
 C1226 C 0.71195 0.59736 0.03782
 C1227 C 0.71794 0.62336 0.03189
 C1228 C 0.72316 0.64549 0.02666
 C1229 C 0.20639 0.67568 0.70672
 C1230 C 0.21219 0.65377 0.71232
 C1231 C 0.21880 0.62806 0.71874
 C1232 C 0.22422 0.60602 0.72409
 C1233 C 0.20708 0.17446 0.20657
 C1234 C 0.21233 0.15233 0.21185
 C1235 C 0.21850 0.12646 0.21807
 C1236 C 0.22381 0.10439 0.22344
 C1237 C 0.70762 1.17676 0.70685
 C1238 C 0.71318 1.15474 0.71229
 C1239 C 0.71952 1.12892 0.71857
 C1240 C 0.72478 1.10681 0.72383
 C1241 C 0.70797 0.67688 0.20697
 C1242 C 0.71340 0.65485 0.21246
 C1243 C 0.71958 0.62901 0.21877
 C1244 C 0.72473 0.60687 0.22402
 C1245 C 0.54149 0.07308 0.70844
 C1246 C 0.53602 0.09519 0.71361
 C1247 C 0.52980 0.12112 0.71958
 C1248 C 0.52467 0.14332 0.72461
 C1249 C 1.04387 0.07388 0.20639
 C1250 C 1.03801 0.09575 0.21211
 C1251 C 1.03129 0.12140 0.21866
 C1252 C 1.02573 0.14339 0.22409
 C1253 C 0.20714 0.57454 0.54266
 C1254 C 0.21226 0.59680 0.53781
 C1255 C 0.21829 0.62282 0.53203
 C1256 C 0.22352 0.64497 0.52690
 C1257 C 0.20581 0.07529 1.04477
 C1258 C 0.21147 0.09733 1.03956
 C1259 C 0.21811 0.12310 1.03336
 C1260 C 0.22377 0.14508 1.02794
 C1261 C 0.20583 0.70691 0.67482
 C1262 C 0.21123 0.71217 0.65274
 C1263 C 0.21761 0.71833 0.62692
 C1264 C 0.22312 0.72362 0.60490
 C1265 C 0.20669 0.20605 1.17502
 C1266 C 0.21164 0.21140 1.15286
 C1267 C 0.21756 0.21768 1.12696
 C1268 C 0.22280 0.22308 1.10490
 C1269 C 0.70729 0.54288 0.07369
 C1270 C 0.71265 0.53715 0.09566
 C1271 C 0.71880 0.53062 0.12144
 C1272 C 0.72398 0.52528 0.14353
 C1273 C 0.70793 1.04241 0.57346
 C1274 C 0.71318 1.03675 0.59547
 C1275 C 0.71922 1.03031 0.62130
 C1276 C 0.72431 1.02504 0.64342
 C1277 C 0.54312 0.20837 0.57365
 C1278 C 0.53758 0.21388 0.59563
 C1279 C 0.53120 0.22012 0.62142
 C1280 C 0.52588 0.22528 0.64351
 C1281 C 1.04343 0.20689 0.07426
 C1282 C 1.03786 0.21271 0.09616
 C1283 C 1.03146 0.21932 0.12185
 C1284 C 1.02611 0.22472 0.14388
 C1285 C 0.67590 0.20808 0.70725
 C1286 C 0.65394 0.21328 0.71300
 C1287 C 0.62818 0.21927 0.71957
 C1288 C 0.60612 0.22433 0.72496
 C1289 C 1.17596 0.20640 0.20732
 C1290 C 1.15412 0.21199 0.21317
 C1291 C 1.12850 0.21842 0.21982
 C1292 C 1.10652 0.22379 0.22526
 C1293 C 0.07572 0.70680 0.54341
 C1294 C 0.09780 0.71170 0.53784
 C1295 C 0.12361 0.71752 0.53132
 C1296 C 0.14563 0.72266 0.52579
 C1297 C 0.07526 0.20610 1.04306
 C1298 C 0.09734 0.21136 1.03780
 C1299 C 0.12315 0.21760 1.03165
 C1300 C 0.14516 0.22301 1.02636
 C1301 C 0.57305 0.54183 0.20891
 C1302 C 0.59513 0.53671 0.21429
 C1303 C 0.62102 0.53082 0.22041
 C1304 C 0.64319 0.52584 0.22546
 C1305 C 0.57324 1.04179 0.70873
 C1306 C 0.59532 1.03670 0.71413
 C1307 C 0.62122 1.03082 0.72028
 C1308 C 0.64338 1.02584 0.72536
 C1309 C 0.92369 0.45583 0.29430
 C1310 C 0.90169 0.46134 0.28901
 C1311 C 0.87599 0.46780 0.28271
 C1312 C 0.85407 0.47336 0.27721
 C1313 C 0.92475 0.95743 0.79253
 C1314 C 0.90255 0.96254 0.78768
 C1315 C 0.87661 0.96857 0.78188
 C1316 C 0.85452 0.97381 0.77675
 C1317 C 0.32522 0.29293 0.79333
 C1318 C 0.34731 0.28742 0.78840
 C1319 C 0.37314 0.28096 0.78254
 C1320 C 0.39516 0.27548 0.77737
 C1321 C 0.82579 0.29389 0.29328
 C1322 C 0.84789 0.28845 0.28833
 C1323 C 0.87371 0.28204 0.28242
 C1324 C 0.89571 0.27655 0.27718
 C1325 C 0.42582 0.79304 0.45659
 C1326 C 0.40400 0.78715 0.46220
 C1327 C 0.37840 0.78043 0.46865
 C1328 C 0.35645 0.77493 0.47403
 C1329 C 0.42547 0.29285 0.95689
 C1330 C 0.40365 0.28698 0.96255
 C1331 C 0.37805 0.28029 0.96904
 C1332 C 0.35608 0.27482 0.97443
 C1333 C 0.79360 0.45712 0.42474
 C1334 C 0.78810 0.46224 0.40265
 C1335 C 0.78167 0.46831 0.37682
 C1336 C 0.77619 0.47361 0.35480
 C1337 C 0.79261 0.95793 0.92522
 C1338 C 0.78743 0.96290 0.90302
 C1339 C 0.78134 0.96877 0.87706
 C1340 C 0.77610 0.97390 0.85493
 C1341 C 0.29308 0.79164 0.32375
 C1342 C 0.28731 0.78638 0.34573
 C1343 C 0.28074 0.78033 0.37153
 C1344 C 0.27537 0.77524 0.39363
 C1345 C 0.29300 0.29283 0.82414
 C1346 C 0.28715 0.28733 0.84604
 C1347 C 0.28050 0.28099 0.87173
 C1348 C 0.27505 0.27569 0.89376
 C1349 C 0.45644 0.29372 0.92483
 C1350 C 0.46160 0.28853 0.90267
 C1351 C 0.46769 0.28234 0.87679
 C1352 C 0.47300 0.27695 0.85474
 C1353 C 0.95703 0.29359 0.42506
 C1354 C 0.96235 0.28832 0.40296
 C1355 C 0.96855 0.28207 0.37712
 C1356 C 0.97388 0.27665 0.35509
 C1357 C 0.45500 0.42436 0.79440
 C1358 C 0.46043 0.40236 0.78879
 C1359 C 0.46688 0.37663 0.78225
 C1360 C 0.47247 0.35467 0.77669
 C1361 C 0.95515 0.42418 0.29393
 C1362 C 0.96052 0.40216 0.28832
 C1363 C 0.96686 0.37642 0.28175
 C1364 C 0.97237 0.35445 0.27616
 C1365 C 0.29357 0.92633 0.45834
 C1366 C 0.28806 0.90433 0.46387
 C1367 C 0.28171 0.87852 0.47014
 C1368 C 0.27640 0.85640 0.47532
 C1369 C 0.29373 0.42571 0.95684
 C1370 C 0.28813 0.40382 0.96272
 C1371 C 0.28164 0.37815 0.96941
 C1372 C 0.27621 0.35614 0.97491
 C1373 C 0.79433 0.32555 0.29278
 C1374 C 0.78905 0.34766 0.28741
 C1375 C 0.78280 0.37350 0.28111
 C1376 C 0.77737 0.39554 0.27570
   
