data_POSCAR
  _audit_creation_date              2014-09-24
  _audit_creation_method            'ToBaCCo'
  _symmetry_space_group_name_H-M    'P1'
  _symmetry_Int_Tables_number       1
  _symmetry_cell_setting            triclinic
  loop_
  _symmetry_equiv_pos_as_xyz
 x,y,z
_cell_length_a 36.6908
_cell_length_b 35.1826
_cell_length_c 48.3195
_cell_angle_alpha 89.718400
_cell_angle_beta 89.438900
_cell_angle_gamma 89.394500
loop_
  _atom_site_label
  _atom_site_type_symbol
  _atom_site_fract_x
  _atom_site_fract_y
  _atom_site_fract_z
B1 B 0.25617 0.21850 0.22822
 B2 B 0.27126 0.26276 0.23322
 B3 B 0.22771 0.25625 0.22415
 B4 B 0.21267 0.21590 0.23966
 B5 B 0.24773 0.19816 0.25902
 B6 B 0.28424 0.22756 0.25496
 B7 B 0.22927 0.26856 0.27895
 B8 B 0.21415 0.22428 0.27405
 B9 B 0.25767 0.23104 0.28312
 B10 B 0.27274 0.27116 0.26750
 B11 B 0.23772 0.28888 0.24828
 B12 B 0.20117 0.25958 0.25236
 B13 B 0.72634 0.76746 0.28053
 B14 B 0.76952 0.77432 0.26995
 B15 B 0.75440 0.72985 0.27437
 B16 B 0.71046 0.72826 0.26467
 B17 B 0.69866 0.77271 0.25348
 B18 B 0.73554 0.80162 0.25686
 B19 B 0.75369 0.74562 0.21988
 B20 B 0.71054 0.73872 0.23054
 B21 B 0.72569 0.78319 0.22594
 B22 B 0.76966 0.78490 0.23581
 B23 B 0.78132 0.74049 0.24689
 B24 B 0.74455 0.71157 0.24360
 B25 B 0.74864 0.23133 -0.22588
 B26 B 0.73217 0.27434 -0.23524
 B27 B 0.77674 0.26877 -0.22762
 B28 B 0.79124 0.22592 -0.23926
 B29 B 0.75488 0.20517 -0.25466
 B30 B 0.71801 0.23513 -0.25178
 B31 B 0.77004 0.27029 -0.28320
 B32 B 0.78665 0.22745 -0.27391
 B33 B 0.74198 0.23296 -0.28155
 B34 B 0.72749 0.27576 -0.26984
 B35 B 0.76388 0.29641 -0.25459
 B36 B 0.80064 0.26659 -0.25731
 B37 B 0.27397 0.76499 -0.22400
 B38 B 0.28262 0.71900 -0.23113
 B39 B 0.24099 0.73227 -0.21988
 B40 B 0.23084 0.77569 -0.23348
 B41 B 0.26718 0.78848 -0.25383
 B42 B 0.29923 0.75305 -0.25210
 B43 B 0.23813 0.72356 -0.27523
 B44 B 0.22958 0.76965 -0.26793
 B45 B 0.27117 0.75606 -0.27947
 B46 B 0.28134 0.71289 -0.26588
 B47 B 0.24528 0.69998 -0.24554
 B48 B 0.21301 0.73535 -0.24688
 B49 B 1.22656 1.28444 0.72542
 B50 B 1.21127 1.24000 0.72988
 B51 B 1.25442 1.24683 0.71921
 B52 B 1.27052 1.28598 0.73525
 B53 B 1.23647 1.30267 0.75638
 B54 B 1.19952 1.27388 0.75294
 B55 B 1.25519 1.23074 0.77363
 B56 B 1.27039 1.27521 0.76935
 B57 B 1.22722 1.26839 0.77996
 B58 B 1.21123 1.22933 0.76398
 B59 B 1.24523 1.21268 0.74281
 B60 B 1.28208 1.24151 0.74616
 B61 B 0.75750 0.73157 0.78338
 B62 B 0.71404 0.72480 0.77414
 B63 B 0.72919 0.76910 0.77889
 B64 B 0.77277 0.77151 0.76764
 B65 B 0.78430 0.72776 0.75537
 B66 B 0.74770 0.69848 0.75941
 B67 B 0.72809 0.75626 0.72415
 B68 B 0.77157 0.76278 0.73340
 B69 B 0.75644 0.71850 0.72855
 B70 B 0.71284 0.71610 0.73980
 B71 B 0.70131 0.75991 0.75221
 B72 B 0.73794 0.78911 0.74816
 B73 B 1.24603 0.73312 0.27404
 B74 B 1.23341 0.77773 0.26518
 B75 B 1.27725 0.76785 0.27298
 B76 B 1.28809 0.72405 0.26080
 B77 B 1.25030 0.70722 0.24486
 B78 B 1.21610 0.74036 0.24806
 B79 B 1.27144 0.77153 0.21754
 B80 B 1.28387 0.72703 0.22595
 B81 B 1.24005 0.73680 0.21843
 B82 B 1.22920 0.78046 0.23065
 B83 B 1.26721 0.79729 0.24621
 B84 B 1.30123 0.76395 0.24350
 B85 B 0.77133 1.25625 0.22046
 B86 B 0.72974 1.26980 0.23204
 B87 B 0.73823 1.22376 0.22451
 B88 B 0.78139 1.21293 0.23383
 B89 B 0.79933 1.25291 0.24784
 B90 B 0.76734 1.28841 0.24628
 B91 B 0.74099 1.23191 0.27990
 B92 B 0.78262 1.21868 0.26859
 B93 B 0.77404 1.26460 0.27598
 B94 B 0.73095 1.27549 0.26652
 B95 B 0.71307 1.23532 0.25289
 B96 B 0.74528 1.19988 0.25407
 O97 O 0.45532 1.07916 0.02069
 O98 O 0.54071 0.94539 0.02055
 O99 O 0.43065 0.96141 0.00845
 O100 O 0.56650 1.06286 0.01086
 O101 O 0.47837 0.94692 0.02900
 O102 O 0.51778 1.07841 0.03031
 O103 O 0.56120 0.99991 0.03232
 O104 O 0.43393 1.02367 0.03061
 C105 C 0.43664 1.05788 0.03638
 C106 C 0.55771 0.96559 0.03746
 C107 C 0.44490 0.94687 0.02892
 C108 C 0.55128 1.07721 0.03115
 O109 O 0.53399 1.08486 -0.02705
 O110 O 0.46581 0.94160 -0.02873
 O111 O 0.42579 1.05508 -0.01782
 O112 O 0.57310 0.97020 -0.01687
 O113 O 0.52682 0.95087 -0.03674
 O114 O 0.47227 1.07733 -0.03656
 O115 O 0.56154 1.03255 -0.03829
 O116 O 0.43866 0.99363 -0.04043
 Co117 Co 0.49519 1.07401 -0.00318
 Co118 Co 0.50259 0.95204 -0.00391
 Co119 Co 0.43907 1.00883 -0.00474
 Co120 Co 0.55871 1.01590 -0.00306
 O121 O 0.49889 1.01270 -0.00373
 C122 C 0.55496 1.06662 -0.04326
 C123 C 0.44633 0.95992 -0.04562
 C124 C 0.43928 1.07193 -0.03771
 C125 C 0.56002 0.95430 -0.03706
 O126 O 0.95421 0.57689 0.52205
 O127 O 1.04219 0.44513 0.51968
 O128 O 0.93134 0.45889 0.50903
 O129 O 1.06549 0.56328 0.51110
 O130 O 0.98004 0.44481 0.52860
 O131 O 1.01684 0.57711 0.53128
 O132 O 1.06159 0.49989 0.53191
 O133 O 0.93385 0.52089 0.53172
 C134 C 0.93608 0.55510 0.53770
 C135 C 1.05879 0.46543 0.53674
 C136 C 0.94663 0.44319 0.52866
 C137 C 1.05036 0.57680 0.53174
 O138 O 1.03197 0.58526 0.47381
 O139 O 0.96651 0.44065 0.47117
 O140 O 0.92437 0.55301 0.48349
 O141 O 1.07354 0.47137 0.48233
 O142 O 1.02733 0.45162 0.46258
 O143 O 0.97035 0.57665 0.46484
 O144 O 1.06004 0.53368 0.46167
 O145 O 0.93797 0.49222 0.46035
 Co146 Co 0.99382 0.57308 0.49791
 Co147 Co 1.00359 0.45141 0.49562
 Co148 Co 0.93878 0.50678 0.49616
 Co149 Co 1.05826 0.51643 0.49675
 O150 O 0.99858 0.51192 0.49662
 C151 C 1.05274 0.56768 0.45709
 C152 C 0.94626 0.45881 0.45472
 C153 C 0.93745 0.57069 0.46379
 C154 C 1.06048 0.45542 0.46214
 O155 O 1.03847 0.47917 0.05164
 O156 O 1.04412 0.52703 -0.04228
 O157 O 1.04310 0.43708 -0.00932
 O158 O 1.04344 0.56828 0.01759
 O159 O 1.02791 0.46295 -0.04772
 O160 O 1.02388 0.54424 0.05561
 O161 O 1.02064 0.57854 -0.02892
 O162 O 1.01561 0.42890 0.03643
 C163 C 1.03999 0.44423 0.04989
 C164 C 1.04599 0.56194 -0.04118
 C165 C 1.04958 0.44243 -0.03428
 C166 C 1.04755 0.56301 0.04278
 O167 O 0.95051 0.52768 0.04962
 O168 O 0.95499 0.48335 -0.04493
 O169 O 0.94942 0.43891 0.01502
 O170 O 0.95208 0.57084 -0.01001
 O171 O 0.97141 0.54756 -0.04822
 O172 O 0.96491 0.46243 0.05392
 O173 O 0.97534 0.57827 0.03653
 O174 O 0.97653 0.43120 -0.03077
 Co175 Co 0.99467 0.50349 0.04806
 Co176 Co 0.99940 0.50515 -0.04116
 Co177 Co 0.99628 0.44140 0.00289
 Co178 Co 0.99778 0.56659 0.00373
 O179 O 0.99706 0.50412 0.00338
 C180 C 0.94934 0.56267 0.04839
 C181 C 0.95276 0.44843 -0.04409
 C182 C 0.94285 0.44354 0.04002
 C183 C 0.94762 0.56608 -0.03515
 O184 O 0.53841 0.97849 0.55172
 O185 O 0.54388 1.02606 0.45758
 O186 O 0.54324 0.93604 0.49151
 O187 O 0.54374 1.06753 0.51711
 O188 O 0.52845 0.96182 0.45289
 O189 O 0.52445 1.04351 0.55528
 O190 O 0.52013 1.07753 0.47060
 O191 O 0.51504 0.92826 0.53719
 C192 C 0.53969 0.94354 0.55032
 C193 C 0.54552 1.06099 0.45838
 C194 C 0.54998 0.94137 0.46656
 C195 C 0.54823 1.06190 0.54224
 O196 O 0.45074 1.02761 0.54951
 O197 O 0.45507 0.98137 0.45534
 O198 O 0.44935 0.93825 0.51524
 O199 O 0.45210 1.07008 0.48999
 O200 O 0.47078 1.04575 0.45185
 O201 O 0.46442 0.96240 0.55406
 O202 O 0.47601 1.07791 0.53646
 O203 O 0.47725 0.92972 0.46970
 Co204 Co 0.49472 1.00305 0.54808
 Co205 Co 0.49933 1.00373 0.45899
 Co206 Co 0.49632 0.94049 0.50343
 Co207 Co 0.49790 1.06582 0.50353
 O208 O 0.49708 1.00325 0.50350
 C209 C 0.44988 1.06260 0.54833
 C210 C 0.45317 0.94643 0.45643
 C211 C 0.44252 0.94327 0.54017
 C212 C 0.44735 1.06485 0.46492
 O213 O 1.05021 1.04211 0.48085
 O214 O 0.93522 1.02370 0.52451
 O215 O 0.97315 0.99127 0.44156
 O216 O 1.03136 1.00595 0.56915
 O217 O 0.93616 1.02083 0.47099
 O218 O 1.05314 1.03552 0.53235
 O219 O 0.98876 1.03947 0.53832
 O220 O 1.03697 1.00435 0.44678
 C221 C 1.04538 1.03693 0.45546
 C222 C 0.95534 1.04595 0.53761
 C223 C 0.94851 1.01604 0.44675
 C224 C 1.05465 1.03017 0.55856
 O225 O 1.07512 0.96237 0.52553
 O226 O 0.93294 0.94830 0.47323
 O227 O 1.04505 0.93253 0.47176
 O228 O 0.96733 0.97499 0.55726
 O229 O 0.93633 0.94779 0.52532
 O230 O 1.08240 0.97588 0.47478
 O231 O 1.02578 0.94337 0.54463
 O232 O 0.98359 0.92077 0.46314
 Co233 Co 1.05908 1.00169 0.50315
 Co234 Co 0.94137 0.98527 0.49889
 Co235 Co 1.00977 0.96375 0.45901
 Co236 Co 1.00785 0.99091 0.53906
 O237 O 1.00142 0.98400 0.49855
 C238 C 1.05892 0.93882 0.54078
 C239 C 0.95005 0.92188 0.46152
 C240 C 1.07607 0.94316 0.46702
 C241 C 0.94451 0.95081 0.55030
 O242 O 0.55170 0.54075 -0.01952
 O243 O 0.43780 0.52344 0.02571
 O244 O 0.47357 0.49174 -0.05808
 O245 O 0.53565 0.50223 0.06877
 O246 O 0.43823 0.52235 -0.02813
 O247 O 0.55584 0.53326 0.03198
 O248 O 0.49179 0.53691 0.03997
 O249 O 0.53755 0.50342 -0.05357
 C250 C 0.54628 0.53588 -0.04486
 C251 C 0.45843 0.54386 0.03986
 C252 C 0.44993 0.51740 -0.05253
 C253 C 0.55826 0.52715 0.05809
 O254 O 0.57750 0.46036 0.02421
 O255 O 0.43310 0.44979 -0.02678
 O256 O 0.54483 0.43133 -0.02879
 O257 O 0.47071 0.47177 0.05741
 O258 O 0.43680 0.44809 0.02542
 O259 O 0.58304 0.47398 -0.02649
 O260 O 0.52862 0.44037 0.04319
 O261 O 0.48305 0.42086 -0.03667
 Co262 Co 0.56089 0.49997 0.00235
 Co263 Co 0.44273 0.48592 -0.00070
 Co264 Co 0.50993 0.46327 -0.04112
 Co265 Co 0.51082 0.48828 0.03899
 O266 O 0.50281 0.48314 -0.00150
 C267 C 0.56169 0.43613 0.03907
 C268 C 0.44956 0.42282 -0.03837
 C269 C 0.57595 0.44127 -0.03395
 C270 C 0.44617 0.44954 0.05029
 C271 C 0.30434 1.15230 0.15962
 C272 C 0.26685 1.16031 0.15966
 C273 C 0.25086 1.18007 0.18190
 C274 C 0.27241 1.19240 0.20401
 C275 C 0.30987 1.18285 0.20387
 C276 C 0.32553 1.16312 0.18192
 C277 C 0.32250 1.13449 0.13663
 C278 C 0.34078 1.12053 0.11848
 C279 C 0.36487 1.10474 0.09790
 C280 C 0.36671 1.06542 0.09406
 C281 C 0.39107 1.05004 0.07468
 C282 C 0.41394 1.07389 0.05892
 C283 C 0.41244 1.11332 0.06335
 C284 C 0.38802 1.12863 0.08276
 H285 H 0.25018 1.15186 0.14242
 H286 H 0.22200 1.18633 0.18147
 H287 H 0.32780 1.19145 0.22026
 H288 H 0.35456 1.15704 0.18209
 H289 H 0.34926 1.04668 0.10598
 H290 H 0.39155 1.01954 0.07170
 H291 H 0.42961 1.13236 0.05147
 H292 H 0.38711 1.15910 0.08592
 C293 C 0.80434 0.65013 0.66097
 C294 C 0.76684 0.65809 0.66101
 C295 C 0.75100 0.67877 0.68286
 C296 C 0.77269 0.69204 0.70458
 C297 C 0.81020 0.68273 0.70441
 C298 C 0.82572 0.66210 0.68285
 C299 C 0.82233 0.63143 0.63829
 C300 C 0.84051 0.61701 0.62027
 C301 C 0.86458 0.60119 0.59970
 C302 C 0.88816 0.62509 0.58500
 C303 C 0.91247 0.60995 0.56546
 C304 C 0.91344 0.57065 0.56045
 C305 C 0.89017 0.54672 0.57578
 C306 C 0.86589 0.56195 0.59531
 H307 H 0.75004 0.64885 0.64406
 H308 H 0.72210 0.68488 0.68246
 H309 H 0.82824 0.69214 0.72050
 H310 H 0.85478 0.65615 0.68298
 H311 H 0.88766 0.65548 0.58857
 H312 H 0.92998 0.62906 0.55395
 H313 H 0.89022 0.51632 0.57231
 H314 H 0.84807 0.54319 0.60689
 C315 C 0.67752 0.85668 0.16132
 C316 C 0.65593 0.84211 0.18268
 C317 C 0.67144 0.81960 0.20324
 C318 C 0.70909 0.81097 0.20288
 C319 C 0.73086 0.82650 0.18160
 C320 C 0.71510 0.84911 0.16083
 C321 C 0.66000 0.87791 0.13963
 C322 C 0.64299 0.89450 0.12203
 C323 C 0.62093 0.91287 0.10138
 C324 C 0.59710 0.89118 0.08564
 C325 C 0.57555 0.90856 0.06545
 C326 C 0.57757 0.94794 0.06075
 C327 C 0.60095 0.96972 0.07714
 C328 C 0.62252 0.95223 0.09734
 H329 H 0.62682 0.84765 0.18321
 H330 H 0.65340 0.80833 0.21903
 H331 H 0.75986 0.82089 0.18078
 H332 H 0.73208 0.86028 0.14429
 H333 H 0.59542 0.86073 0.08881
 H334 H 0.55783 0.89106 0.05318
 H335 H 0.60316 1.00011 0.07396
 H336 H 0.64063 0.96932 0.10960
 C337 C 1.17892 0.35799 0.66079
 C338 C 1.15726 0.34394 0.68229
 C339 C 1.17261 0.32144 0.70291
 C340 C 1.21016 0.31235 0.70244
 C341 C 1.23202 0.32745 0.68104
 C342 C 1.21641 0.35003 0.66022
 C343 C 1.16152 0.37897 0.63897
 C344 C 1.14458 0.39531 0.62125
 C345 C 1.12255 0.41336 0.60050
 C346 C 1.09940 0.39129 0.58447
 C347 C 1.07771 0.40842 0.56427
 C348 C 1.07894 0.44791 0.55989
 C349 C 1.10169 0.47002 0.57654
 C350 C 1.12339 0.45279 0.59674
 H351 H 1.12820 0.34981 0.68286
 H352 H 1.15455 0.31051 0.71880
 H353 H 1.26095 0.32149 0.68016
 H354 H 1.23341 0.36082 0.64356
 H355 H 1.09831 0.36078 0.58745
 H356 H 1.06046 0.39068 0.55179
 H357 H 1.10326 0.50051 0.57360
 H358 H 1.14098 0.47014 0.60925
 C359 C 0.69611 1.17478 -0.15461
 C360 C 0.70830 1.21209 -0.15183
 C361 C 0.72805 1.22928 -0.17336
 C362 C 0.73518 1.20968 -0.19825
 C363 C 0.72509 1.17113 -0.19970
 C364 C 0.70567 1.15400 -0.17815
 C365 C 0.67140 1.15836 -0.13467
 C366 C 0.64991 1.14347 -0.11911
 C367 C 0.62420 1.12437 -0.10131
 C368 C 0.59880 1.14513 -0.08551
 C369 C 0.57483 1.12625 -0.06753
 C370 C 0.57611 1.08638 -0.06513
 C371 C 0.60087 1.06576 -0.08185
 C372 C 0.62471 1.08466 -0.09978
 H373 H 0.70118 1.22847 -0.13360
 H374 H 0.73530 1.25879 -0.17115
 H375 H 0.73027 1.15440 -0.21807
 H376 H 0.69666 1.12495 -0.18045
 H377 H 0.59799 1.17588 -0.08670
 H378 H 0.55619 1.14291 -0.05486
 H379 H 0.60258 1.03505 -0.08048
 H380 H 0.64404 1.06829 -0.11208
 C381 C 1.19044 0.67786 0.34462
 C382 C 1.19934 0.65711 0.32092
 C383 C 1.21937 0.67381 0.29954
 C384 C 1.23078 0.71191 0.30130
 C385 C 1.22402 0.73150 0.32625
 C386 C 1.20366 0.71474 0.34763
 C387 C 1.16584 0.66164 0.36469
 C388 C 1.14462 0.64666 0.38039
 C389 C 1.11945 0.62713 0.39835
 C390 C 1.12005 0.58740 0.39927
 C391 C 1.09695 0.56798 0.41745
 C392 C 1.07288 0.58810 0.43503
 C393 C 1.07144 0.62802 0.43324
 C394 C 1.09467 0.64743 0.41500
 H395 H 1.18955 0.62837 0.31847
 H396 H 1.22425 0.65707 0.28114
 H397 H 1.23253 0.76057 0.32878
 H398 H 1.19714 0.73104 0.36602
 H399 H 1.13891 0.57140 0.38632
 H400 H 1.09876 0.53724 0.41833
 H401 H 1.05330 0.64428 0.44658
 H402 H 1.09382 0.67821 0.41429
 C403 C 0.33020 0.83319 -0.16097
 C404 C 0.29207 0.83419 -0.16236
 C405 C 0.27393 0.81170 -0.18165
 C406 C 0.29371 0.78781 -0.19980
 C407 C 0.33205 0.78675 -0.19780
 C408 C 0.35001 0.80908 -0.17855
 C409 C 0.34950 0.85708 -0.14197
 C410 C 0.36683 0.87643 -0.12636
 C411 C 0.38839 0.89851 -0.10761
 C412 C 0.41702 0.88103 -0.09327
 C413 C 0.43694 0.90155 -0.07398
 C414 C 0.42850 0.93996 -0.06872
 C415 C 0.40051 0.95774 -0.08393
 C416 C 0.38054 0.93709 -0.10322
 H417 H 0.27640 0.85276 -0.14884
 H418 H 0.24456 0.81378 -0.18272
 H419 H 0.34847 0.76890 -0.21131
 H420 H 0.37950 0.80791 -0.17765
 H421 H 0.42351 0.85128 -0.09659
 H422 H 0.45834 0.88705 -0.06266
 H423 H 0.39325 0.98723 -0.08028
 H424 H 0.35856 0.95100 -0.11428
 C425 C 0.83021 0.33215 0.33935
 C426 C 0.79209 0.33323 0.33793
 C427 C 0.77396 0.31089 0.31855
 C428 C 0.79375 0.28711 0.30033
 C429 C 0.83208 0.28595 0.30238
 C430 C 0.85003 0.30812 0.32173
 C431 C 0.84949 0.35598 0.35840
 C432 C 0.86678 0.37531 0.37402
 C433 C 0.88830 0.39742 0.39277
 C434 C 0.91742 0.38018 0.40669
 C435 C 0.93733 0.40072 0.42597
 C436 C 0.92837 0.43889 0.43165
 C437 C 0.89986 0.45645 0.41686
 C438 C 0.87992 0.43578 0.39757
 H439 H 0.77641 0.35174 0.35149
 H440 H 0.74459 0.31304 0.31744
 H441 H 0.84850 0.26818 0.28882
 H442 H 0.87951 0.30691 0.32266
 H443 H 0.92431 0.35059 0.40305
 H444 H 0.95912 0.38639 0.43697
 H445 H 0.89221 0.48576 0.42082
 H446 H 0.85755 0.44950 0.38683
 C447 C 1.17234 0.31001 0.15273
 C448 C 1.16221 0.27350 0.16145
 C449 C 1.18105 0.25516 0.18298
 C450 C 1.21048 0.27299 0.19601
 C451 C 1.22049 0.30954 0.18658
 C452 C 1.20191 0.32755 0.16508
 C453 C 1.15099 0.33125 0.13287
 C454 C 1.13328 0.35058 0.11708
 C455 C 1.11183 0.37448 0.09892
 C456 C 1.08945 0.35808 0.07910
 C457 C 1.06696 0.38100 0.06265
 C458 C 1.06641 0.42079 0.06578
 C459 C 1.08968 0.43721 0.08523
 C460 C 1.11218 0.41416 0.10173
 H461 H 1.13898 0.25977 0.15230
 H462 H 1.17144 0.22785 0.19019
 H463 H 1.24178 0.32531 0.19654
 H464 H 1.20977 0.35597 0.15886
 H465 H 1.08889 0.32749 0.07668
 H466 H 1.04946 0.36746 0.04780
 H467 H 1.08982 0.46772 0.08816
 H468 H 1.12937 0.42723 0.11701
 C469 C 0.67309 0.80953 0.65245
 C470 C 0.66293 0.77307 0.66124
 C471 C 0.68174 0.75482 0.68282
 C472 C 0.71114 0.77271 0.69584
 C473 C 0.72125 0.80916 0.68627
 C474 C 0.70272 0.82708 0.66473
 C475 C 0.65163 0.83077 0.63266
 C476 C 0.63379 0.85009 0.61696
 C477 C 0.61211 0.87393 0.59893
 C478 C 0.58917 0.85743 0.57953
 C479 C 0.56645 0.88031 0.56324
 C480 C 0.56622 0.92014 0.56611
 C481 C 0.59003 0.93664 0.58514
 C482 C 0.61277 0.91363 0.60148
 H483 H 0.63967 0.75934 0.65215
 H484 H 0.67208 0.72757 0.69012
 H485 H 0.74254 0.82497 0.69621
 H486 H 0.71060 0.85547 0.65843
 H487 H 0.58837 0.82682 0.57732
 H488 H 0.54854 0.86671 0.54871
 H489 H 0.59043 0.96718 0.58784
 H490 H 0.63039 0.92677 0.61645
 C491 C 1.18529 0.68462 -0.14594
 C492 C 1.20929 0.66234 -0.16166
 C493 C 1.22798 0.67804 -0.18411
 C494 C 1.22368 0.71680 -0.19128
 C495 C 1.20012 0.73937 -0.17486
 C496 C 1.18105 0.72336 -0.15234
 C497 C 1.16326 0.66629 -0.12493
 C498 C 1.14477 0.64890 -0.10843
 C499 C 1.12224 0.62682 -0.08980
 C500 C 1.12269 0.58700 -0.09122
 C501 C 1.09880 0.56557 -0.07473
 C502 C 1.07400 0.58376 -0.05667
 C503 C 1.07451 0.62371 -0.05480
 C504 C 1.09839 0.64503 -0.07126
 H505 H 1.21262 0.63229 -0.15717
 H506 H 1.24498 0.65914 -0.19637
 H507 H 1.19522 0.76892 -0.18002
 H508 H 1.16219 0.74089 -0.14050
 H509 H 1.14097 0.57253 -0.10553
 H510 H 1.09903 0.53491 -0.07667
 H511 H 1.05581 0.63859 -0.04105
 H512 H 1.09769 0.67576 -0.06995
 C513 C 0.68496 1.18364 0.35351
 C514 C 0.70899 1.16147 0.33773
 C515 C 0.72781 1.17736 0.31540
 C516 C 0.72360 1.21619 0.30841
 C517 C 0.70000 1.23863 0.32489
 C518 C 0.68082 1.22245 0.34729
 C519 C 0.66283 1.16520 0.37442
 C520 C 0.64425 1.14779 0.39086
 C521 C 0.62162 1.12578 0.40948
 C522 C 0.62234 1.08593 0.40836
 C523 C 0.59845 1.06455 0.42490
 C524 C 0.57338 1.08282 0.44272
 C525 C 0.57358 1.12280 0.44426
 C526 C 0.59746 1.14407 0.42775
 H527 H 0.71226 1.13138 0.34208
 H528 H 0.74482 1.15855 0.30307
 H529 H 0.69516 1.26824 0.31987
 H530 H 0.66195 1.23991 0.35917
 H531 H 0.64085 1.07140 0.39427
 H532 H 0.59893 1.03387 0.42322
 H533 H 0.55468 1.13774 0.45782
 H534 H 0.59654 1.17482 0.42883
 C535 C 0.80836 0.69488 0.14677
 C536 C 0.77845 0.67712 0.15907
 C537 C 0.75967 0.69449 0.18091
 C538 C 0.76989 0.73055 0.19078
 C539 C 0.79929 0.74887 0.17751
 C540 C 0.81834 0.73116 0.15566
 C541 C 0.83059 0.67386 0.12717
 C542 C 0.84931 0.65476 0.11176
 C543 C 0.87227 0.63124 0.09424
 C544 C 0.87155 0.59150 0.09671
 C545 C 0.89578 0.56882 0.08117
 C546 C 0.92117 0.58570 0.06306
 C547 C 0.92097 0.62556 0.06017
 C548 C 0.89676 0.64811 0.07565
 H549 H 0.77068 0.64888 0.15270
 H550 H 0.73837 0.67837 0.19097
 H551 H 0.80898 0.77587 0.18493
 H552 H 0.84179 0.74507 0.14654
 H553 H 0.85277 0.57807 0.11107
 H554 H 0.89531 0.53824 0.08386
 H555 H 0.94008 0.63945 0.04633
 H556 H 0.89767 0.67876 0.07353
 C557 C 0.30920 1.19595 0.64620
 C558 C 0.27897 1.17848 0.65827
 C559 C 0.26014 1.19595 0.68004
 C560 C 0.27062 1.23183 0.69008
 C561 C 0.30034 1.24989 0.67702
 C562 C 0.31944 1.23208 0.65524
 C563 C 0.33146 1.17476 0.62671
 C564 C 0.35020 1.15553 0.61140
 C565 C 0.37315 1.13184 0.59399
 C566 C 0.37202 1.09209 0.59638
 C567 C 0.39617 1.06922 0.58093
 C568 C 0.42189 1.08589 0.56298
 C569 C 0.42212 1.12577 0.56019
 C570 C 0.39799 1.14851 0.57559
 H571 H 0.27099 1.15034 0.65179
 H572 H 0.23861 1.17999 0.68996
 H573 H 0.31024 1.27672 0.68459
 H574 H 0.34313 1.24576 0.64630
 H575 H 0.35296 1.07881 0.61060
 H576 H 0.39537 1.03864 0.58354
 H577 H 0.44149 1.13950 0.54647
 H578 H 0.39921 1.17915 0.57353
 C579 C 0.83074 0.32558 -0.15747
 C580 C 0.82442 0.28637 -0.15630
 C581 C 0.80768 0.26805 -0.17851
 C582 C 0.79620 0.28886 -0.20191
 C583 C 0.80438 0.32796 -0.20314
 C584 C 0.82095 0.34610 -0.18107
 C585 C 0.84847 0.34516 -0.13522
 C586 C 0.86380 0.36295 -0.11755
 C587 C 0.88311 0.38488 -0.09732
 C588 C 0.90345 0.36637 -0.07688
 C589 C 0.92495 0.38733 -0.05889
 C590 C 0.92654 0.42721 -0.06111
 C591 C 0.90499 0.44578 -0.08104
 C592 C 0.88349 0.42469 -0.09909
 H593 H 0.83266 0.26993 -0.13837
 H594 H 0.80377 0.23765 -0.17733
 H595 H 0.79836 0.34493 -0.22127
 H596 H 0.82649 0.37624 -0.18258
 H597 H 0.90345 0.33564 -0.07530
 H598 H 0.94112 0.37219 -0.04369
 H599 H 0.90570 0.47641 -0.08328
 H600 H 0.86792 0.43936 -0.11489
 C601 C 0.33268 0.82081 0.34411
 C602 C 0.32273 0.78246 0.34566
 C603 C 0.30593 0.76504 0.32304
 C604 C 0.29798 0.78605 0.29891
 C605 C 0.31019 0.82395 0.29731
 C606 C 0.32680 0.84115 0.31971
 C607 C 0.34985 0.83993 0.36681
 C608 C 0.36479 0.85798 0.38454
 C609 C 0.38370 0.88068 0.40453
 C610 C 0.40415 0.86300 0.42528
 C611 C 0.42554 0.88474 0.44285
 C612 C 0.42693 0.92455 0.43988
 C613 C 0.40523 0.94230 0.41968
 C614 C 0.38383 0.92043 0.40205
 H615 H 0.32799 0.76605 0.36425
 H616 H 0.29908 0.73527 0.32454
 H617 H 0.30690 0.84090 0.27877
 H618 H 0.33516 0.87052 0.31793
 H619 H 0.40437 0.83233 0.42740
 H620 H 0.44182 0.87022 0.45829
 H621 H 0.40578 0.97285 0.41687
 H622 H 0.36819 0.93445 0.38599
 C623 C 1.13644 1.17196 0.33324
 C624 C 1.13410 1.16381 0.30496
 C625 C 1.15840 1.18058 0.28604
 C626 C 1.18546 1.20553 0.29525
 C627 C 1.18703 1.21350 0.32381
 C628 C 1.16282 1.19697 0.34250
 C629 C 1.11387 1.15303 0.35338
 C630 C 1.09697 1.13675 0.37125
 C631 C 1.07902 1.11592 0.39303
 C632 C 1.05607 1.08598 0.38636
 C633 C 1.04341 1.06162 0.40710
 C634 C 1.05361 1.06683 0.43483
 C635 C 1.07489 1.09834 0.44164
 C636 C 1.08771 1.12266 0.42076
 H637 H 1.11391 1.14414 0.29760
 H638 H 1.15617 1.17363 0.26434
 H639 H 1.20733 1.23214 0.33211
 H640 H 1.16516 1.20320 0.36435
 H641 H 1.04928 1.08041 0.36499
 H642 H 1.02693 1.03769 0.40122
 H643 H 1.08325 1.10296 0.46278
 H644 H 1.10567 1.14569 0.42611
 C645 C 0.63622 0.67238 -0.16679
 C646 C 0.63420 0.66396 -0.19504
 C647 C 0.65844 0.68087 -0.21392
 C648 C 0.68516 0.70622 -0.20472
 C649 C 0.68637 0.71452 -0.17620
 C650 C 0.66219 0.69786 -0.15754
 C651 C 0.61386 0.65315 -0.14666
 C652 C 0.59713 0.63660 -0.12881
 C653 C 0.57941 0.61546 -0.10709
 C654 C 0.55658 0.58545 -0.11383
 C655 C 0.54411 0.56087 -0.09316
 C656 C 0.55438 0.56592 -0.06542
 C657 C 0.57556 0.59748 -0.05855
 C658 C 0.58818 0.62203 -0.07935
 H659 H 0.61433 0.64392 -0.20239
 H660 H 0.65651 0.67362 -0.23560
 H661 H 0.70647 0.73339 -0.16788
 H662 H 0.66431 0.70429 -0.13570
 H663 H 0.54973 0.58001 -0.13520
 H664 H 0.52772 0.53689 -0.09910
 H665 H 0.58396 0.60200 -0.03740
 H666 H 0.60604 0.64511 -0.07395
 C667 C 0.85688 1.16964 0.66441
 C668 C 0.82743 1.15048 0.67639
 C669 C 0.80668 1.16762 0.69739
 C670 C 0.81452 1.20460 0.70633
 C671 C 0.84611 1.22226 0.69573
 C672 C 0.86681 1.20511 0.67468
 C673 C 0.87574 1.15347 0.64088
 C674 C 0.89049 1.13929 0.62095
 C675 C 0.90713 1.12091 0.59733
 C676 C 0.88520 1.10311 0.57781
 C677 C 0.90106 1.08091 0.55690
 C678 C 0.93913 1.07612 0.55529
 C679 C 0.96105 1.09599 0.57400
 C680 C 0.94511 1.11813 0.59493
 H681 H 0.81991 1.12263 0.66902
 H682 H 0.78401 1.15214 0.70603
 H683 H 0.85368 1.25038 0.70244
 H684 H 0.88983 1.22007 0.66582
 H685 H 0.85577 1.10507 0.57945
 H686 H 0.88342 1.06590 0.54292
 H687 H 0.99044 1.09275 0.57346
 H688 H 0.96238 1.13176 0.60991
 C689 C 0.35492 0.66411 0.16670
 C690 C 0.32624 0.68680 0.15734
 C691 C 0.30369 0.70577 0.17606
 C692 C 0.30903 0.70263 0.20488
 C693 C 0.33792 0.67932 0.21424
 C694 C 0.36074 0.66013 0.19523
 C695 C 0.37740 0.64517 0.14629
 C696 C 0.39383 0.63021 0.12746
 C697 C 0.41093 0.61238 0.10381
 C698 C 0.38910 0.59814 0.08273
 C699 C 0.40486 0.57818 0.06064
 C700 C 0.44278 0.57218 0.05933
 C701 C 0.46474 0.58841 0.07983
 C702 C 0.44886 0.60831 0.10198
 H703 H 0.32140 0.69017 0.13536
 H704 H 0.28264 0.72379 0.16749
 H705 H 0.34318 0.67624 0.23614
 H706 H 0.38290 0.64245 0.20275
 H707 H 0.35972 0.60140 0.08381
 H708 H 0.38719 0.56592 0.04532
 H709 H 0.49400 0.58406 0.07957
 H710 H 0.46606 0.61945 0.11806
 C711 C 1.16440 0.83034 0.66995
 C712 C 1.14966 0.79909 0.68389
 C713 C 1.16869 0.78196 0.70561
 C714 C 1.20327 0.79515 0.71314
 C715 C 1.21590 0.82912 0.70097
 C716 C 1.19682 0.84625 0.67924
 C717 C 1.14722 0.84484 0.64535
 C718 C 1.13297 0.85671 0.62461
 C719 C 1.11555 0.87165 0.60024
 C720 C 1.07806 0.86695 0.59681
 C721 C 1.05995 0.88615 0.57554
 C722 C 1.07914 0.91046 0.55748
 C723 C 1.11724 0.91274 0.55979
 C724 C 1.13531 0.89353 0.58115
 H725 H 1.12407 0.78711 0.67737
 H726 H 1.15688 0.75750 0.71565
 H727 H 1.24193 0.84084 0.70664
 H728 H 1.20820 0.87087 0.66890
 H729 H 1.06252 0.84998 0.61140
 H730 H 1.03058 0.88390 0.57437
 H731 H 1.13271 0.93144 0.54635
 H732 H 1.16438 0.89727 0.58358
 C733 C 0.66552 0.33010 0.16939
 C734 C 0.65042 0.29915 0.18346
 C735 C 0.66903 0.28232 0.20549
 C736 C 0.70357 0.29545 0.21316
 C737 C 0.71642 0.32930 0.20095
 C738 C 0.69775 0.34616 0.17891
 C739 C 0.64903 0.34395 0.14435
 C740 C 0.63533 0.35523 0.12324
 C741 C 0.61842 0.36946 0.09848
 C742 C 0.58129 0.36342 0.09425
 C743 C 0.56329 0.38232 0.07279
 C744 C 0.58225 0.40767 0.05538
 C745 C 0.62017 0.41112 0.05835
 C746 C 0.63812 0.39221 0.07990
 H747 H 0.62494 0.28711 0.17675
 H748 H 0.65702 0.25801 0.21559
 H749 H 0.74240 0.34101 0.20676
 H750 H 0.70938 0.37058 0.16847
 H751 H 0.56582 0.34575 0.10843
 H752 H 0.53406 0.37915 0.07108
 H753 H 0.63544 0.43063 0.04542
 H754 H 0.66692 0.39698 0.08296
 C755 C 0.84838 0.82042 0.32912
 C756 C 0.82251 0.79422 0.33770
 C757 C 0.79810 0.77977 0.31894
 C758 C 0.79904 0.79078 0.29084
 C759 C 0.82577 0.81682 0.28215
 C760 C 0.85029 0.83177 0.30130
 C761 C 0.87029 0.83701 0.35011
 C762 C 0.88562 0.84966 0.36982
 C763 C 0.90112 0.86439 0.39460
 C764 C 0.87967 0.88737 0.41195
 C765 C 0.89482 0.90363 0.43539
 C766 C 0.93168 0.89708 0.44165
 C767 C 0.95238 0.87195 0.42503
 C768 C 0.93714 0.85575 0.40156
 H769 H 0.82044 0.78568 0.35925
 H770 H 0.77768 0.76093 0.32713
 H771 H 0.82738 0.82612 0.26079
 H772 H 0.87015 0.85249 0.29455
 H773 H 0.85154 0.89369 0.40688
 H774 H 0.87826 0.92297 0.44768
 H775 H 0.98089 0.86647 0.42927
 H776 H 0.95373 0.83747 0.38844
 C777 C 0.34865 0.32185 -0.17134
 C778 C 0.32328 0.29504 -0.16290
 C779 C 0.29914 0.28031 -0.18173
 C780 C 0.29990 0.29160 -0.20977
 C781 C 0.32621 0.31818 -0.21834
 C782 C 0.35043 0.33343 -0.19911
 C783 C 0.37010 0.33880 -0.15026
 C784 C 0.38513 0.35166 -0.13049
 C785 C 0.40042 0.36644 -0.10568
 C786 C 0.37943 0.39083 -0.08904
 C787 C 0.39448 0.40683 -0.06547
 C788 C 0.43077 0.39861 -0.05837
 C789 C 0.45090 0.37217 -0.07429
 C790 C 0.43577 0.35622 -0.09788
 H791 H 0.32129 0.28634 -0.14138
 H792 H 0.27892 0.26119 -0.17361
 H793 H 0.32764 0.32774 -0.23964
 H794 H 0.36991 0.35460 -0.20574
 H795 H 0.35179 0.39836 -0.09475
 H796 H 0.37840 0.42722 -0.05373
 H797 H 0.47898 0.36538 -0.06940
 H798 H 0.45195 0.33683 -0.11043
 C799 C 1.17863 0.31358 -0.14226
 C800 C 1.20633 0.33314 -0.15608
 C801 C 1.22227 0.31815 -0.18003
 C802 C 1.21155 0.28264 -0.19053
 C803 C 1.18369 0.26301 -0.17635
 C804 C 1.16747 0.27830 -0.15235
 C805 C 1.15950 0.33219 -0.11972
 C806 C 1.14332 0.35036 -0.10222
 C807 C 1.12325 0.37470 -0.08332
 C808 C 1.11104 0.41018 -0.09282
 C809 C 1.08880 0.43305 -0.07608
 C810 C 1.07838 0.42093 -0.04941
 C811 C 1.09216 0.38607 -0.03934
 C812 C 1.11438 0.36296 -0.05631
 H813 H 1.21474 0.36081 -0.14892
 H814 H 1.24242 0.33518 -0.19069
 H815 H 1.17340 0.23655 -0.18429
 H816 H 1.14545 0.26322 -0.14221
 H817 H 1.11780 0.41972 -0.11359
 H818 H 1.07870 0.45976 -0.08440
 H819 H 1.08432 0.37587 -0.01898
 H820 H 1.12371 0.33559 -0.04867
 C821 C 0.67831 0.81252 0.35851
 C822 C 0.70563 0.83229 0.34444
 C823 C 0.72130 0.81741 0.32037
 C824 C 0.71069 0.78179 0.31000
 C825 C 0.68312 0.76200 0.32439
 C826 C 0.66717 0.77719 0.34852
 C827 C 0.65948 0.83099 0.38123
 C828 C 0.64355 0.84915 0.39885
 C829 C 0.62376 0.87356 0.41783
 C830 C 0.61225 0.90938 0.40852
 C831 C 0.59005 0.93231 0.42523
 C832 C 0.57897 0.91990 0.45168
 C833 C 0.59213 0.88471 0.46161
 C834 C 0.61431 0.86154 0.44467
 H835 H 0.71399 0.86001 0.35153
 H836 H 0.74124 0.83455 0.30956
 H837 H 0.67286 0.73548 0.31653
 H838 H 0.64538 0.76197 0.35884
 H839 H 0.61946 0.91913 0.38789
 H840 H 0.58041 0.95928 0.41703
 H841 H 0.58377 0.87430 0.48179
 H842 H 0.62308 0.83389 0.45215
 C843 C 0.80849 0.68614 -0.14042
 C844 C 0.78238 0.66515 -0.15437
 C845 C 0.76555 0.68011 -0.17786
 C846 C 0.77399 0.71681 -0.18775
 C847 C 0.80004 0.73795 -0.17331
 C848 C 0.81708 0.72275 -0.14980
 C849 C 0.82900 0.66810 -0.11855
 C850 C 0.84687 0.65089 -0.10166
 C851 C 0.86943 0.62822 -0.08352
 C852 C 0.87495 0.63836 -0.05584
 C853 C 0.89915 0.61713 -0.03936
 C854 C 0.91823 0.58578 -0.05057
 C855 C 0.91143 0.57516 -0.07805
 C856 C 0.88726 0.59617 -0.09432
 H857 H 0.77591 0.63654 -0.14766
 H858 H 0.74647 0.66232 -0.18861
 H859 H 0.80844 0.76557 -0.18071
 H860 H 0.83783 0.73902 -0.13953
 H861 H 0.86126 0.66309 -0.04722
 H862 H 0.90398 0.62604 -0.01830
 H863 H 0.92556 0.55108 -0.08725
 H864 H 0.88315 0.58791 -0.11563
 C865 C 0.30904 1.18513 0.35906
 C866 C 0.28317 1.16404 0.34491
 C867 C 0.26628 1.17912 0.32149
 C868 C 0.27440 1.21603 0.31185
 C869 C 0.30021 1.23725 0.32647
 C870 C 0.31732 1.22193 0.34992
 C871 C 0.32947 1.16709 0.38098
 C872 C 0.34722 1.14987 0.39796
 C873 C 0.36955 1.12716 0.41626
 C874 C 0.38668 1.09450 0.40579
 C875 C 0.41068 1.07344 0.42218
 C876 C 0.41799 1.08460 0.44946
 C877 C 0.39958 1.11657 0.46036
 C878 C 0.37556 1.13786 0.44376
 H879 H 0.27691 1.13532 0.35145
 H880 H 0.24733 1.16131 0.31063
 H881 H 0.30832 1.26507 0.31929
 H882 H 0.33785 1.23831 0.36036
 H883 H 0.38219 1.08580 0.38462
 H884 H 0.42428 1.04888 0.41322
 H885 H 0.40482 1.12593 0.48126
 H886 H 0.36242 1.16306 0.45214
 C887 C 1.18298 0.68513 0.14757
 C888 C 1.17996 0.72437 0.15216
 C889 C 1.19831 0.74112 0.17429
 C890 C 1.22001 0.71885 0.19214
 C891 C 1.22264 0.67940 0.18719
 C892 C 1.20453 0.66288 0.16511
 C893 C 1.16239 0.66664 0.12623
 C894 C 1.14483 0.64904 0.10966
 C895 C 1.12300 0.62604 0.09163
 C896 C 1.11832 0.63544 0.06364
 C897 C 1.09512 0.61385 0.04709
 C898 C 1.07618 0.58278 0.05849
 C899 C 1.08213 0.57287 0.08633
 C900 C 1.10531 0.59429 0.10270
 H901 H 1.16295 0.74189 0.13894
 H902 H 1.19486 0.77129 0.17769
 H903 H 1.23880 0.66099 0.20035
 H904 H 1.20689 0.63246 0.16201
 H905 H 1.13193 0.65988 0.05478
 H906 H 1.09093 0.62229 0.02576
 H907 H 1.06808 0.54906 0.09571
 H908 H 1.10880 0.58654 0.12426
 C909 C 0.68571 1.17947 0.64787
 C910 C 0.69203 1.21868 0.64763
 C911 C 0.70991 1.23576 0.66984
 C912 C 0.72240 1.21379 0.69240
 C913 C 0.71467 1.17460 0.69264
 C914 C 0.69697 1.15765 0.67052
 C915 C 0.66578 1.16131 0.62601
 C916 C 0.64829 1.14420 0.60912
 C917 C 0.62612 1.12190 0.59088
 C918 C 0.62056 1.13258 0.56321
 C919 C 0.59657 1.11195 0.54665
 C920 C 0.57768 1.08065 0.55773
 C921 C 0.58455 1.06943 0.58519
 C922 C 0.60854 1.08985 0.60156
 H923 H 0.68271 1.23611 0.63052
 H924 H 0.71365 1.26623 0.66941
 H925 H 0.72166 1.15677 0.71012
 H926 H 0.69147 1.12746 0.67134
 H927 H 0.63402 1.15732 0.55467
 H928 H 0.59168 1.12138 0.52563
 H929 H 0.57058 1.04538 0.59431
 H930 H 0.61265 1.08117 0.62286
 C931 C 0.81836 0.30722 0.14398
 C932 C 0.78200 0.29552 0.14425
 C933 C 0.76745 0.27709 0.16763
 C934 C 0.78877 0.27069 0.19141
 C935 C 0.82587 0.28089 0.19007
 C936 C 0.84035 0.29896 0.16671
 C937 C 0.83302 0.33019 0.12170
 C938 C 0.84724 0.35074 0.10470
 C939 C 0.86655 0.37651 0.08650
 C940 C 0.87496 0.36673 0.05905
 C941 C 0.89802 0.38986 0.04302
 C942 C 0.91324 0.42276 0.05446
 C943 C 0.90318 0.43320 0.08155
 C944 C 0.88004 0.41030 0.09739
 H945 H 0.76459 0.30164 0.12678
 H946 H 0.73905 0.26936 0.16736
 H947 H 0.84381 0.27632 0.20742
 H948 H 0.86859 0.30771 0.16679
 H949 H 0.86487 0.34057 0.05039
 H950 H 0.90547 0.38097 0.02227
 H951 H 0.91434 0.45840 0.09091
 H952 H 0.87386 0.41821 0.11858
 C953 C 0.31800 0.80687 0.64396
 C954 C 0.28161 0.79528 0.64431
 C955 C 0.26713 0.77682 0.66770
 C956 C 0.28855 0.77030 0.69141
 C957 C 0.32569 0.78032 0.68996
 C958 C 0.34011 0.79841 0.66658
 C959 C 0.33259 0.82993 0.62171
 C960 C 0.34677 0.85056 0.60474
 C961 C 0.36605 0.87637 0.58656
 C962 C 0.37453 0.86656 0.55912
 C963 C 0.39762 0.88969 0.54312
 C964 C 0.41281 0.92260 0.55457
 C965 C 0.40266 0.93308 0.58164
 C966 C 0.37949 0.91018 0.59745
 H967 H 0.26412 0.80152 0.62690
 H968 H 0.23870 0.76916 0.66749
 H969 H 0.34371 0.77561 0.70724
 H970 H 0.36837 0.80705 0.66659
 H971 H 0.36448 0.84038 0.55047
 H972 H 0.40513 0.88076 0.52240
 H973 H 0.41381 0.95829 0.59100
 H974 H 0.37326 0.91810 0.61863
 C975 C 0.30716 1.16051 -0.16197
 C976 C 0.32687 1.17191 -0.18525
 C977 C 0.30988 1.19257 -0.20603
 C978 C 0.27256 1.20253 -0.20394
 C979 C 0.25237 1.18903 -0.18109
 C980 C 0.26972 1.16840 -0.16000
 C981 C 0.32681 1.14296 -0.13981
 C982 C 0.34575 1.12952 -0.12206
 C983 C 0.36964 1.11444 -0.10139
 C984 C 0.40689 1.12293 -0.10223
 C985 C 0.43006 1.10889 -0.08166
 C986 C 0.41596 1.08637 -0.06011
 C987 C 0.37857 1.07772 -0.05971
 C988 C 0.35559 1.09168 -0.08022
 H989 H 0.35584 1.16586 -0.18697
 H990 H 0.32681 1.20179 -0.22316
 H991 H 0.22362 1.19528 -0.17905
 H992 H 0.25422 1.15943 -0.14198
 H993 H 0.41794 1.14057 -0.11866
 H994 H 0.45873 1.11586 -0.08245
 H995 H 0.36693 1.06030 -0.04342
 H996 H 0.32685 1.08494 -0.07945
 C997 C 0.80577 0.66008 0.33940
 C998 C 0.82595 0.67216 0.31653
 C999 C 0.80921 0.69271 0.29555
 C1000 C 0.77168 0.70189 0.29703
 C1001 C 0.75110 0.68781 0.31950
 C1002 C 0.76817 0.66728 0.34077
 C1003 C 0.82501 0.64241 0.36177
 C1004 C 0.84365 0.62890 0.37969
 C1005 C 0.86743 0.61381 0.40047
 C1006 C 0.90463 0.62249 0.39974
 C1007 C 0.92782 0.60833 0.42024
 C1008 C 0.91385 0.58546 0.44164
 C1009 C 0.87649 0.57666 0.44199
 C1010 C 0.85345 0.59077 0.42153
 H1011 H 0.85505 0.66667 0.31528
 H1012 H 0.82644 0.70250 0.27876
 H1013 H 0.72219 0.69344 0.32105
 H1014 H 0.75228 0.65778 0.35845
 H1015 H 0.91565 0.64033 0.38341
 H1016 H 0.95647 0.61542 0.41947
 H1017 H 0.86497 0.55896 0.45817
 H1018 H 0.82474 0.58387 0.42222
 C1019 C 0.67925 1.16622 0.15744
 C1020 C 0.71583 1.17611 0.15340
 C1021 C 0.73532 1.19293 0.17489
 C1022 C 0.71805 1.20126 0.20032
 C1023 C 0.68207 1.18841 0.20455
 C1024 C 0.66280 1.17164 0.18325
 C1025 C 0.65790 1.15090 0.13538
 C1026 C 0.63895 1.13829 0.11744
 C1027 C 0.61636 1.12311 0.09605
 C1028 C 0.63274 1.10500 0.07344
 C1029 C 0.61131 1.09021 0.05250
 C1030 C 0.57303 1.09326 0.05380
 C1031 C 0.55660 1.11136 0.07665
 C1032 C 0.57823 1.12626 0.09769
 H1033 H 0.72917 1.17115 0.13363
 H1034 H 0.76365 1.19987 0.17141
 H1035 H 0.66809 1.19191 0.22419
 H1036 H 0.63479 1.16331 0.18686
 H1037 H 0.66215 1.10232 0.07196
 H1038 H 0.62485 1.07635 0.03522
 H1039 H 0.52722 1.11402 0.07820
 H1040 H 0.56527 1.14022 0.11519
 C1041 C 1.17887 0.66555 0.65798
 C1042 C 1.21539 0.67562 0.65378
 C1043 C 1.23498 0.69256 0.67518
 C1044 C 1.21788 0.70082 0.70069
 C1045 C 1.18199 0.68781 0.70508
 C1046 C 1.16262 0.67092 0.68387
 C1047 C 1.15739 0.65016 0.63599
 C1048 C 1.13835 0.63753 0.61809
 C1049 C 1.11568 0.62240 0.59670
 C1050 C 1.13201 0.60548 0.57357
 C1051 C 1.11051 0.59081 0.55261
 C1052 C 1.07220 0.59278 0.55440
 C1053 C 1.05582 0.60970 0.57775
 C1054 C 1.07752 0.62448 0.59881
 H1055 H 1.22859 0.67072 0.63395
 H1056 H 1.26324 0.69963 0.67156
 H1057 H 1.16814 0.69130 0.72478
 H1058 H 1.13467 0.66249 0.68762
 H1059 H 1.16143 0.60364 0.57170
 H1060 H 1.12402 0.57788 0.53495
 H1061 H 1.02642 0.61151 0.57969
 H1062 H 1.06459 0.63751 0.61670
 C1063 C 0.68424 0.84418 -0.15665
 C1064 C 0.72207 0.84063 -0.15968
 C1065 C 0.73675 0.81670 -0.18007
 C1066 C 0.71361 0.79591 -0.19730
 C1067 C 0.67559 0.80036 -0.19405
 C1068 C 0.66115 0.82409 -0.17383
 C1069 C 0.66798 0.86764 -0.13581
 C1070 C 0.65118 0.88570 -0.11892
 C1071 C 0.62848 0.90515 -0.09931
 C1072 C 0.64386 0.92616 -0.07805
 C1073 C 0.62137 0.94277 -0.05798
 C1074 C 0.58333 0.93831 -0.05902
 C1075 C 0.56808 0.91786 -0.08081
 C1076 C 0.59063 0.90130 -0.10086
 H1077 H 0.74010 0.85633 -0.14641
 H1078 H 0.76601 0.81488 -0.18246
 H1079 H 0.65667 0.78519 -0.20688
 H1080 H 0.63180 0.82669 -0.17155
 H1081 H 0.67315 0.92915 -0.07673
 H1082 H 0.63375 0.95860 -0.04143
 H1083 H 0.53887 0.91415 -0.08209
 H1084 H 0.57861 0.88493 -0.11731
 C1085 C 1.18472 0.34387 0.34341
 C1086 C 1.22253 0.34059 0.34008
 C1087 C 1.23709 0.31643 0.31978
 C1088 C 1.21385 0.29519 0.30292
 C1089 C 1.17586 0.29929 0.30652
 C1090 C 1.16154 0.32321 0.32666
 C1091 C 1.16856 0.36781 0.36400
 C1092 C 1.15180 0.38625 0.38069
 C1093 C 1.12905 0.40609 0.40006
 C1094 C 1.14438 0.42738 0.42119
 C1095 C 1.12183 0.44417 0.44115
 C1096 C 1.08381 0.43959 0.44013
 C1097 C 1.06861 0.41892 0.41842
 C1098 C 1.09121 0.40220 0.39848
 H1099 H 1.24063 0.35673 0.35301
 H1100 H 1.26633 0.31489 0.31711
 H1101 H 1.15686 0.28380 0.29396
 H1102 H 1.13221 0.32561 0.32917
 H1103 H 1.17366 0.43040 0.42253
 H1104 H 1.13418 0.46016 0.45764
 H1105 H 1.03941 0.41511 0.41717
 H1106 H 1.07923 0.38560 0.38214
 C1107 C 0.31952 0.83475 0.14758
 C1108 C 0.28198 0.83803 0.15280
 C1109 C 0.26601 0.81710 0.17442
 C1110 C 0.28750 0.79264 0.19083
 C1111 C 0.32522 0.78986 0.18504
 C1112 C 0.34087 0.81039 0.16355
 C1113 C 0.33747 0.85696 0.12673
 C1114 C 0.35518 0.87434 0.11001
 C1115 C 0.37790 0.89387 0.09044
 C1116 C 0.36207 0.91452 0.06890
 C1117 C 0.38414 0.93207 0.04914
 C1118 C 0.42237 0.92913 0.05068
 C1119 C 0.43817 0.90889 0.07268
 C1120 C 0.41594 0.89124 0.09247
 H1121 H 0.26530 0.85721 0.14058
 H1122 H 0.23725 0.82098 0.17874
 H1123 H 0.34315 0.77211 0.19731
 H1124 H 0.36996 0.80782 0.15976
 H1125 H 0.33269 0.91669 0.06719
 H1126 H 0.37120 0.94767 0.03248
 H1127 H 0.46751 0.90631 0.07433
 H1128 H 0.42837 0.87520 0.10916
 C1129 C 0.81980 0.32676 0.64463
 C1130 C 0.80882 0.28899 0.64242
 C1131 C 0.79031 0.27161 0.66442
 C1132 C 0.78312 0.29162 0.68912
 C1133 C 0.79227 0.33044 0.69014
 C1134 C 0.81052 0.34772 0.66813
 C1135 C 0.84228 0.34387 0.62370
 C1136 C 0.86139 0.35949 0.60690
 C1137 C 0.88343 0.37961 0.58717
 C1138 C 0.86637 0.40066 0.56635
 C1139 C 0.88718 0.42146 0.54754
 C1140 C 0.92543 0.42150 0.54927
 C1141 C 0.94252 0.40039 0.57032
 C1142 C 0.92152 0.37950 0.58923
 H1143 H 0.81571 0.27258 0.62415
 H1144 H 0.78366 0.24189 0.66256
 H1145 H 0.78701 0.34737 0.70840
 H1146 H 0.81861 0.37714 0.66990
 H1147 H 0.83693 0.40115 0.56474
 H1148 H 0.87323 0.43753 0.53159
 H1149 H 0.97193 0.39999 0.57207
 H1150 H 0.93490 0.36345 0.60548
 C1151 C 1.13961 1.18164 0.67191
 C1152 C 1.16036 1.21221 0.66274
 C1153 C 1.18143 1.23214 0.68137
 C1154 C 1.18208 1.22190 0.70963
 C1155 C 1.15937 1.19232 0.71887
 C1156 C 1.13839 1.17219 0.70005
 C1157 C 1.12352 1.15733 0.65190
 C1158 C 1.11183 1.13604 0.63490
 C1159 C 1.09898 1.10935 0.61512
 C1160 C 1.09769 1.11869 0.58693
 C1161 C 1.08466 1.09231 0.56796
 C1162 C 1.07279 1.05660 0.57723
 C1163 C 1.07530 1.04719 0.60545
 C1164 C 1.08829 1.07344 0.62427
 H1165 H 1.16187 1.21934 0.64092
 H1166 H 1.19918 1.25357 0.67292
 H1167 H 1.15907 1.18340 0.74033
 H1168 H 1.12251 1.14824 0.70725
 H1169 H 1.10628 1.14642 0.57971
 H1170 H 1.08281 1.10020 0.54632
 H1171 H 1.06655 1.01973 0.61308
 H1172 H 1.08963 1.06588 0.64601
 C1173 C 0.64005 0.67908 0.17244
 C1174 C 0.66028 0.71006 0.16333
 C1175 C 0.68087 0.73043 0.18200
 C1176 C 0.68154 0.72027 0.21028
 C1177 C 0.65927 0.69030 0.21947
 C1178 C 0.63879 0.66970 0.20060
 C1179 C 0.62467 0.65437 0.15237
 C1180 C 0.61365 0.63288 0.13523
 C1181 C 0.60162 0.60611 0.11519
 C1182 C 0.59923 0.61624 0.08719
 C1183 C 0.58672 0.58990 0.06798
 C1184 C 0.57645 0.55345 0.07683
 C1185 C 0.58019 0.54325 0.10482
 C1186 C 0.59268 0.56946 0.12388
 H1187 H 0.66183 0.71715 0.14150
 H1188 H 0.69834 0.75211 0.17356
 H1189 H 0.65902 0.68142 0.24095
 H1190 H 0.62332 0.64545 0.20777
 H1191 H 0.60646 0.64455 0.08032
 H1192 H 0.58386 0.59842 0.04654
 H1193 H 0.57265 0.51523 0.11211
 H1194 H 0.59488 0.56131 0.14546
 C1195 C 1.17336 0.84196 0.32910
 C1196 C 1.20344 0.85820 0.31583
 C1197 C 1.22053 0.83946 0.29378
 C1198 C 1.20847 0.80359 0.28515
 C1199 C 1.17583 0.78953 0.29668
 C1200 C 1.15874 0.80831 0.31883
 C1201 C 1.15900 0.85868 0.35414
 C1202 C 1.14750 0.87229 0.37541
 C1203 C 1.13324 0.88824 0.40075
 C1204 C 1.14445 0.92408 0.40966
 C1205 C 1.12776 0.94106 0.43276
 C1206 C 1.09953 0.92237 0.44704
 C1207 C 1.08991 0.88552 0.43883
 C1208 C 1.10663 0.86863 0.41583
 H1209 H 1.21449 0.88472 0.32314
 H1210 H 1.24402 0.85256 0.28430
 H1211 H 1.16500 0.76258 0.29007
 H1212 H 1.13508 0.79572 0.32867
 H1213 H 1.16512 0.93948 0.39818
 H1214 H 1.13547 0.96958 0.43845
 H1215 H 1.06815 0.87052 0.44937
 H1216 H 1.09784 0.84083 0.40921
 C1217 C 0.66920 0.33590 -0.17165
 C1218 C 0.69668 0.35447 -0.18644
 C1219 C 0.71435 0.33625 -0.20843
 C1220 C 0.70557 0.29868 -0.21549
 C1221 C 0.67504 0.28201 -0.20257
 C1222 C 0.65739 0.30025 -0.18042
 C1223 C 0.65498 0.35258 -0.14658
 C1224 C 0.64397 0.36664 -0.12532
 C1225 C 0.63061 0.38350 -0.10005
 C1226 C 0.64261 0.41940 -0.09189
 C1227 C 0.62678 0.43735 -0.06885
 C1228 C 0.59863 0.41956 -0.05389
 C1229 C 0.58823 0.38264 -0.06134
 C1230 C 0.60409 0.36478 -0.08429
 H1231 H 0.70543 0.38249 -0.18032
 H1232 H 0.73587 0.35124 -0.21907
 H1233 H 0.66657 0.25366 -0.20807
 H1234 H 0.63566 0.28584 -0.16940
 H1235 H 0.66322 0.43410 -0.10392
 H1236 H 0.63505 0.46590 -0.06374
 H1237 H 0.56651 0.36831 -0.05025
 H1238 H 0.59471 0.33695 -0.09032
 C1239 C 0.85254 1.14672 0.32192
 C1240 C 0.85186 1.14021 0.29337
 C1241 C 0.83031 1.16340 0.27624
 C1242 C 0.80911 1.19327 0.28754
 C1243 C 0.81062 1.19949 0.31631
 C1244 C 0.83209 1.17655 0.33322
 C1245 C 0.87258 1.12234 0.34041
 C1246 C 0.88768 1.10318 0.35765
 C1247 C 0.90386 1.08163 0.37979
 C1248 C 0.92956 1.05293 0.37433
 C1249 C 0.94429 1.03169 0.39614
 C1250 C 0.93348 1.03896 0.42369
 C1251 C 0.90782 1.06806 0.42892
 C1252 C 0.89315 1.08921 0.40711
 H1253 H 0.86752 1.11699 0.28442
 H1254 H 0.82989 1.15749 0.25428
 H1255 H 0.79441 1.22142 0.32619
 H1256 H 0.83216 1.18168 0.35532
 H1257 H 0.93799 1.04681 0.35326
 H1258 H 0.96388 1.00936 0.39140
 H1259 H 0.89896 1.07441 0.44985
 H1260 H 0.87324 1.11137 0.41155
 C1261 C 0.35278 0.64801 -0.17714
 C1262 C 0.35213 0.64109 -0.20566
 C1263 C 0.33051 0.66394 -0.22300
 C1264 C 0.30918 0.69389 -0.21196
 C1265 C 0.31063 0.70051 -0.18322
 C1266 C 0.33217 0.67790 -0.16611
 C1267 C 0.37300 0.62401 -0.15846
 C1268 C 0.38834 0.60512 -0.14115
 C1269 C 0.40493 0.58370 -0.11907
 C1270 C 0.42990 0.55440 -0.12477
 C1271 C 0.44485 0.53305 -0.10309
 C1272 C 0.43497 0.54077 -0.07541
 C1273 C 0.41012 0.57054 -0.06992
 C1274 C 0.39523 0.59181 -0.09162
 H1275 H 0.36791 0.61782 -0.21443
 H1276 H 0.33014 0.65773 -0.24491
 H1277 H 0.29433 0.72252 -0.17351
 H1278 H 0.33219 0.68338 -0.14405
 H1279 H 0.43756 0.54783 -0.14594
 H1280 H 0.46379 0.51022 -0.10804
 H1281 H 0.40197 0.57725 -0.04889
 H1282 H 0.37587 0.61443 -0.08698
 C1283 C 0.84468 0.82045 0.67388
 C1284 C 0.82161 0.79191 0.66497
 C1285 C 0.79956 0.77288 0.68390
 C1286 C 0.80014 0.78181 0.71233
 C1287 C 0.82443 0.80988 0.72123
 C1288 C 0.84649 0.82917 0.70208
 C1289 C 0.86418 0.84221 0.65350
 C1290 C 0.87905 0.86030 0.63557
 C1291 C 0.89588 0.88219 0.61391
 C1292 C 0.88544 0.87746 0.58632
 C1293 C 0.90119 0.89969 0.56538
 C1294 C 0.92747 0.92690 0.57194
 C1295 C 0.93779 0.93120 0.59975
 C1296 C 0.92209 0.90901 0.62054
 H1297 H 0.81967 0.78525 0.64316
 H1298 H 0.78065 0.75271 0.67568
 H1299 H 0.82567 0.81783 0.74281
 H1300 H 0.86422 0.85148 0.70915
 H1301 H 0.86502 0.85677 0.58103
 H1302 H 0.89277 0.89571 0.54418
 H1303 H 0.95797 0.95184 0.60556
 H1304 H 0.93025 0.91295 0.64182
 C1305 C 0.34393 0.32077 0.17360
 C1306 C 0.32062 0.29248 0.16467
 C1307 C 0.29867 0.27339 0.18362
 C1308 C 0.29961 0.28199 0.21209
 C1309 C 0.32411 0.30985 0.22101
 C1310 C 0.34607 0.32922 0.20183
 C1311 C 0.36348 0.34244 0.15322
 C1312 C 0.37851 0.36036 0.13527
 C1313 C 0.39571 0.38194 0.11364
 C1314 C 0.38354 0.37943 0.08630
 C1315 C 0.39991 0.40128 0.06542
 C1316 C 0.42853 0.42586 0.07180
 C1317 C 0.44057 0.42791 0.09935
 C1318 C 0.42426 0.40612 0.12007
 H1319 H 0.31844 0.28603 0.14284
 H1320 H 0.27959 0.25341 0.17539
 H1321 H 0.32563 0.31753 0.24263
 H1322 H 0.36402 0.35133 0.20891
 H1323 H 0.36134 0.36076 0.08118
 H1324 H 0.39012 0.39909 0.04442
 H1325 H 0.46259 0.44647 0.10502
 H1326 H 0.43380 0.40829 0.14116
   
