data_POSCAR
  _audit_creation_date              2014-09-24
  _audit_creation_method            'ToBaCCo'
  _symmetry_space_group_name_H-M    'P1'
  _symmetry_Int_Tables_number       1
  _symmetry_cell_setting            triclinic
  loop_
  _symmetry_equiv_pos_as_xyz
 x,y,z
_cell_length_a 77.1143
_cell_length_b 77.6654
_cell_length_c 71.8970
_cell_angle_alpha 91.039900
_cell_angle_beta 88.752700
_cell_angle_gamma 88.579400
loop_
  _atom_site_label
  _atom_site_type_symbol
  _atom_site_fract_x
  _atom_site_fract_y
  _atom_site_fract_z
C1 C 0.38372 0.01790 0.27350
 H2 H 0.38331 0.02525 0.26088
 C3 C 0.39416 0.02314 0.28809
 H4 H 0.40195 0.03445 0.28653
 C5 C 0.37403 -0.00584 0.29081
 H6 H 0.36592 -0.01691 0.29200
 C7 C 0.38434 -0.00112 0.30568
 H8 H 0.38407 -0.00869 0.31818
 N9 N 0.37409 0.00352 0.27502
 C10 C 0.36580 -0.01375 0.21799
 H11 H 0.35178 -0.01409 0.21805
 C12 C 0.37534 -0.01845 0.20190
 H13 H 0.36853 -0.02212 0.18949
 C14 C 0.39162 -0.00822 0.23412
 H15 H 0.39792 -0.00449 0.24678
 C16 C 0.40167 -0.01283 0.21834
 H17 H 0.41567 -0.01255 0.21905
 Zn18 Zn 0.36007 -0.00249 0.25476
 N19 N 0.37401 -0.00851 0.23357
 C20 C 0.34661 0.02504 0.23344
 N21 N 0.34572 0.01692 0.25002
 C22 C 0.33543 0.02319 0.26429
 C23 C 0.32545 0.03823 0.26219
 C24 C 0.33687 0.04015 0.23075
 C25 C 0.35527 -0.03692 0.26308
 C26 C 0.34626 -0.05195 0.26636
 C27 C 0.31940 -0.03565 0.26373
 C28 C 0.32901 -0.02094 0.26053
 N29 N 0.34661 -0.02182 0.26033
 H30 H 0.35522 0.02013 0.22245
 H31 H 0.33518 0.01660 0.27742
 H32 H 0.31732 0.04300 0.27372
 H33 H 0.33814 0.04671 0.21765
 H34 H 0.36931 -0.03727 0.26276
 H35 H 0.35403 -0.06326 0.26938
 H36 H 0.30550 -0.03419 0.26273
 H37 H 0.32233 -0.00892 0.25771
 C38 C 0.39354 -0.01791 0.20190
 C39 C 0.39465 0.01348 0.30439
 C40 C 0.32785 -0.05181 0.26657
 C41 C 0.32625 0.04703 0.24531
 C42 C 0.11501 0.02300 0.72533
 H43 H 0.11361 0.02977 0.73858
 C44 C 0.10580 0.02880 0.71003
 H45 H 0.09732 0.04007 0.71159
 C46 C 0.12819 0.00034 0.70711
 H47 H 0.13709 -0.01060 0.70594
 C48 C 0.11932 0.00574 0.69145
 H49 H 0.12121 -0.00140 0.67845
 N50 N 0.12576 0.00888 0.72367
 C51 C 0.13032 -0.00972 0.78021
 H52 H 0.14430 -0.01028 0.78117
 C53 C 0.11997 -0.01472 0.79522
 H54 H 0.12611 -0.01883 0.80784
 C55 C 0.10542 -0.00339 0.76258
 H56 H 0.09982 0.00073 0.74972
 C57 C 0.09456 -0.00829 0.77726
 H58 H 0.08065 -0.00780 0.77555
 Zn59 Zn 0.13823 0.00216 0.74483
 N60 N 0.12295 -0.00395 0.76442
 C61 C 0.14925 0.02894 0.76898
 N62 N 0.15163 0.02110 0.75202
 C63 C 0.16275 0.02742 0.73905
 C64 C 0.17197 0.04225 0.74288
 C65 C 0.15822 0.04381 0.77341
 C66 C 0.14424 -0.03224 0.73497
 C67 C 0.15361 -0.04770 0.73238
 C68 C 0.17991 -0.03262 0.73885
 C69 C 0.17000 -0.01739 0.74129
 N70 N 0.15249 -0.01751 0.73939
 H71 H 0.14009 0.02396 0.77897
 H72 H 0.16413 0.02110 0.72554
 H73 H 0.18037 0.04735 0.73216
 H74 H 0.15611 0.04992 0.78695
 H75 H 0.13027 -0.03199 0.73379
 H76 H 0.14676 -0.05928 0.72888
 H77 H 0.19376 -0.03241 0.74097
 H78 H 0.17626 -0.00563 0.74526
 C79 C 0.10182 -0.01397 0.79390
 C80 C 0.10792 0.02012 0.69281
 C81 C 0.17167 -0.04809 0.73459
 C82 C 0.16962 0.05077 0.76019
 C83 C 0.61551 0.51769 0.22739
 H84 H 0.61518 0.52548 0.24003
 C85 C 0.60481 0.52210 0.21267
 H86 H 0.59609 0.53320 0.21415
 C87 C 0.62733 0.49373 0.21014
 H88 H 0.63635 0.48290 0.20900
 C89 C 0.61682 0.49761 0.19515
 H90 H 0.61789 0.48965 0.18264
 N91 N 0.62632 0.50359 0.22596
 C92 C 0.63631 0.48669 0.28223
 H93 H 0.65033 0.48586 0.28148
 C94 C 0.62751 0.48195 0.29842
 H95 H 0.63489 0.47738 0.31006
 C96 C 0.60974 0.49326 0.26766
 H97 H 0.60287 0.49752 0.25559
 C98 C 0.60040 0.48867 0.28362
 H99 H 0.58637 0.48982 0.28378
 Zn100 Zn 0.64074 0.49840 0.24621
 N101 N 0.62738 0.49244 0.26738
 C102 C 0.65275 0.52587 0.26862
 N103 N 0.65381 0.51811 0.25150
 C104 C 0.66348 0.52479 0.23747
 C105 C 0.67266 0.53983 0.24040
 C106 C 0.66173 0.54092 0.27216
 C107 C 0.64767 0.46383 0.23789
 C108 C 0.65760 0.44879 0.23466
 C109 C 0.68351 0.46553 0.23670
 C110 C 0.67306 0.48030 0.23983
 N111 N 0.65548 0.47918 0.24032
 H112 H 0.64476 0.52057 0.27950
 H113 H 0.66384 0.51852 0.22390
 H114 H 0.67997 0.54515 0.22893
 H115 H 0.66078 0.54685 0.28590
 H116 H 0.63367 0.46327 0.23875
 H117 H 0.65112 0.43665 0.23317
 H118 H 0.69749 0.46661 0.23638
 H119 H 0.67902 0.49256 0.24218
 C120 C 0.60931 0.48306 0.29934
 C121 C 0.60530 0.51189 0.19634
 C122 C 0.67578 0.44949 0.23415
 C123 C 0.67176 0.54817 0.25792
 C124 C 0.88626 0.51221 0.77202
 H125 H 0.88636 0.51942 0.75929
 C126 C 0.89603 0.51768 0.78704
 H127 H 0.90396 0.52882 0.78513
 C128 C 0.87610 0.48857 0.78904
 H129 H 0.86794 0.47751 0.78995
 C130 C 0.88570 0.49352 0.80439
 H131 H 0.88426 0.48611 0.81689
 N132 N 0.87669 0.49781 0.77320
 C133 C 0.87007 0.48150 0.71557
 H134 H 0.85606 0.48130 0.71509
 C135 C 0.88008 0.47704 0.69972
 H136 H 0.87363 0.47372 0.68697
 C137 C 0.89538 0.48640 0.73280
 H138 H 0.90131 0.48976 0.74580
 C139 C 0.90590 0.48200 0.71729
 H140 H 0.91986 0.48210 0.71854
 Zn141 Zn 0.86327 0.49191 0.75244
 N142 N 0.87781 0.48632 0.73158
 C143 C 0.85043 0.52005 0.73152
 N144 N 0.84893 0.51136 0.74771
 C145 C 0.83825 0.51728 0.76183
 C146 C 0.82863 0.53259 0.76004
 C147 C 0.84107 0.53545 0.72915
 C148 C 0.85880 0.45729 0.76010
 C149 C 0.84993 0.44207 0.76277
 C150 C 0.82289 0.45800 0.75949
 C151 C 0.83230 0.47295 0.75688
 N152 N 0.84993 0.47233 0.75730
 H153 H 0.85935 0.51541 0.72066
 H154 H 0.83753 0.51026 0.77467
 H155 H 0.82026 0.53710 0.77149
 H156 H 0.84290 0.54248 0.71643
 H157 H 0.87284 0.45714 0.76010
 H158 H 0.85725 0.43027 0.76512
 H159 H 0.80889 0.45866 0.75872
 H160 H 0.82550 0.48493 0.75415
 C161 C 0.89826 0.47736 0.70042
 C162 C 0.89600 0.50832 0.80371
 C163 C 0.83173 0.44227 0.76236
 C164 C 0.83017 0.54204 0.74364
 C165 C 0.23117 0.41198 0.98308
 H166 H 0.24285 0.41158 0.97446
 C167 C 0.21713 0.42270 0.97841
 H168 H 0.21812 0.43066 0.96624
 C169 C 0.21563 0.40206 1.00941
 H170 H 0.21487 0.39378 1.02127
 C171 C 0.20141 0.41263 1.00536
 H172 H 0.18988 0.41234 1.01420
 N173 N 0.23027 0.40214 0.99853
 C174 C 0.28246 0.39253 1.01833
 H175 H 0.28171 0.37883 1.02056
 C176 C 0.29765 0.40107 1.02232
 H177 H 0.30851 0.39386 1.02785
 C178 C 0.26909 0.41849 1.00842
 H179 H 0.25794 0.42521 1.00296
 C180 C 0.28409 0.42756 1.01216
 H181 H 0.28441 0.44117 1.00921
 Zn182 Zn 0.24952 0.38787 1.00466
 N183 N 0.26873 0.40121 1.01110
 C184 C 0.27185 0.37413 0.97608
 N185 N 0.25558 0.37363 0.98373
 C186 C 0.24329 0.36356 0.97619
 C187 C 0.24725 0.35325 0.96046
 C188 C 0.27635 0.36406 0.96037
 C189 C 0.24138 0.38322 1.04204
 C190 C 0.23731 0.37441 1.05821
 C191 C 0.23886 0.34772 1.04038
 C192 C 0.24289 0.35708 1.02450
 N193 N 0.24390 0.37453 1.02559
 H194 H 0.28137 0.38245 0.98199
 H195 H 0.23036 0.36364 0.98235
 H196 H 0.23722 0.34551 0.95449
 H197 H 0.28942 0.36453 0.95461
 H198 H 0.24244 0.39709 1.04253
 H199 H 0.23507 0.38164 1.07109
 H200 H 0.23833 0.33382 1.03933
 H201 H 0.24532 0.35035 1.01139
 C202 C 0.29875 0.41875 1.01886
 C203 C 0.20210 0.42324 0.98979
 C204 C 0.23603 0.35641 1.05753
 C205 C 0.26398 0.35346 0.95232
 C206 C 0.76286 0.08905 0.98813
 H207 H 0.75096 0.08224 0.99008
 C208 C 0.77821 0.07964 0.98408
 H209 H 0.77748 0.06577 0.98330
 C210 C 0.77811 0.11505 0.98887
 H211 H 0.77818 0.12877 0.99147
 C212 C 0.79372 0.10623 0.98482
 H213 H 0.80519 0.11382 0.98321
 N214 N 0.76303 0.10646 0.99038
 C215 C 0.71706 0.10566 1.02149
 H216 H 0.72193 0.11436 1.03192
 C217 C 0.70292 0.09548 1.02586
 H218 H 0.69722 0.09626 1.03975
 C219 C 0.71835 0.09422 0.99070
 H220 H 0.72424 0.09407 0.97690
 C221 C 0.70427 0.08381 0.99447
 H222 H 0.69936 0.07574 0.98344
 Zn223 Zn 0.74294 0.11965 0.99801
 N224 N 0.72444 0.10491 1.00412
 C225 C 0.71962 0.13392 0.97203
 N226 N 0.73598 0.13471 0.97871
 C227 C 0.74761 0.14577 0.97141
 C228 C 0.74333 0.15575 0.95615
 C229 C 0.71481 0.14365 0.95675
 C230 C 0.75712 0.12330 1.03285
 C231 C 0.76267 0.13164 1.04889
 C232 C 0.75164 0.15856 1.03692
 C233 C 0.74631 0.14967 1.02103
 N234 N 0.74909 0.13234 1.01936
 H235 H 0.71030 0.12553 0.97829
 H236 H 0.76030 0.14678 0.97724
 H237 H 0.75287 0.16429 0.95042
 H238 H 0.70197 0.14225 0.95119
 H239 H 0.75932 0.10955 1.03103
 H240 H 0.76924 0.12420 1.05933
 H241 H 0.74908 0.17230 1.03819
 H242 H 0.73990 0.15657 1.01010
 C243 C 0.69628 0.08445 1.01221
 C244 C 0.79418 0.08812 0.98262
 C245 C 0.75991 0.14950 1.05113
 C246 C 0.72688 0.15445 0.94833
 C247 C 0.26904 0.58980 0.48944
 H248 H 0.25710 0.58312 0.49188
 C249 C 0.28455 0.58034 0.48646
 H250 H 0.28438 0.56641 0.48663
 C251 C 0.28400 0.61601 0.48745
 H252 H 0.28367 0.62995 0.48815
 C253 C 0.29974 0.60711 0.48440
 H254 H 0.31146 0.61431 0.48244
 N255 N 0.26907 0.60731 0.48991
 C256 C 0.22169 0.60772 0.51831
 H257 H 0.22649 0.61597 0.52919
 C258 C 0.20685 0.59823 0.52169
 H259 H 0.20060 0.59901 0.53532
 C260 C 0.22373 0.59695 0.48726
 H261 H 0.23025 0.59680 0.47378
 C262 C 0.20893 0.58723 0.49005
 H263 H 0.20409 0.57968 0.47856
 Zn264 Zn 0.24900 0.62086 0.49607
 N265 N 0.22981 0.60691 0.50131
 C266 C 0.22833 0.64523 0.47775
 N267 N 0.24297 0.63513 0.47604
 C268 C 0.25263 0.63451 0.45999
 C269 C 0.24788 0.64456 0.44497
 C270 C 0.22303 0.65544 0.46300
 C271 C 0.26065 0.62512 0.53197
 C272 C 0.26574 0.63373 0.54804
 C273 C 0.25846 0.66077 0.53365
 C274 C 0.25352 0.65160 0.51778
 N275 N 0.25454 0.63409 0.51733
 H276 H 0.22072 0.64526 0.49057
 H277 H 0.26392 0.62604 0.45866
 H278 H 0.25563 0.64373 0.43223
 H279 H 0.21142 0.66351 0.46462
 H280 H 0.26166 0.61121 0.53106
 H281 H 0.27072 0.62632 0.55945
 H282 H 0.25729 0.67469 0.53392
 H283 H 0.24896 0.65850 0.50585
 C284 C 0.20021 0.58789 0.50742
 C285 C 0.30020 0.58902 0.48412
 C286 C 0.26461 0.65180 0.54908
 C287 C 0.23291 0.65522 0.44636
 C288 C 0.73273 0.90940 0.48434
 H289 H 0.74414 0.90929 0.47530
 C290 C 0.71830 0.91980 0.48022
 H291 H 0.71871 0.92784 0.46808
 C292 C 0.71822 0.89890 0.51105
 H293 H 0.71799 0.89047 0.52280
 C294 C 0.70361 0.90915 0.50754
 H295 H 0.69233 0.90846 0.51671
 N296 N 0.73250 0.89935 0.49965
 C297 C 0.78564 0.88924 0.51642
 H298 H 0.78503 0.87546 0.51816
 C299 C 0.80098 0.89768 0.52001
 H300 H 0.81210 0.89031 0.52470
 C301 C 0.77175 0.91551 0.50828
 H302 H 0.76033 0.92239 0.50369
 C303 C 0.78688 0.92450 0.51166
 H304 H 0.78702 0.93823 0.50932
 Zn305 Zn 0.75203 0.88499 0.50455
 N306 N 0.77156 0.89814 0.51029
 C307 C 0.77293 0.87165 0.47448
 N308 N 0.75705 0.87114 0.48307
 C309 C 0.74428 0.86135 0.47605
 C310 C 0.74732 0.85136 0.45990
 C311 C 0.77652 0.86188 0.45832
 C312 C 0.74536 0.87954 0.54212
 C313 C 0.74173 0.87038 0.55818
 C314 C 0.74251 0.84410 0.53964
 C315 C 0.74611 0.85379 0.52390
 N316 N 0.74726 0.87121 0.52539
 H317 H 0.78279 0.87984 0.47995
 H318 H 0.73169 0.86136 0.48300
 H319 H 0.73703 0.84352 0.45463
 H320 H 0.78914 0.86272 0.45153
 H321 H 0.74651 0.89339 0.54292
 H322 H 0.73993 0.87732 0.57130
 H323 H 0.74180 0.83023 0.53825
 H324 H 0.74806 0.84735 0.51055
 C325 C 0.80185 0.91550 0.51729
 C326 C 0.70354 0.91982 0.49201
 C327 C 0.74024 0.85241 0.55707
 C328 C 0.76362 0.85159 0.45079
 C329 C 0.01262 0.26866 0.40801
 H330 H 0.02390 0.26009 0.40812
 C331 C 0.01188 0.28340 0.41944
 H332 H 0.02258 0.28596 0.42851
 C333 C -0.01499 0.27562 0.39601
 H334 H -0.02530 0.27274 0.38660
 C335 C -0.01627 0.29051 0.40721
 H336 H -0.02758 0.29896 0.40621
 N337 N -0.00075 0.26496 0.39670
 C338 C 0.00339 0.20937 0.38661
 H339 H 0.00332 0.20897 0.37156
 C340 C 0.00459 0.19405 0.39643
 H341 H 0.00596 0.18219 0.38839
 C342 C 0.00266 0.22575 0.41465
 H343 H 0.00156 0.23811 0.42174
 C344 C 0.00387 0.21076 0.42507
 H345 H 0.00326 0.21218 0.44005
 Zn346 Zn 0.00157 0.24496 0.38118
 N347 N 0.00273 0.22482 0.39576
 C348 C 0.03530 0.23478 0.36770
 N349 N 0.02235 0.24693 0.36676
 C350 C 0.02419 0.26109 0.35609
 C351 C 0.03938 0.26327 0.34552
 C352 C 0.05070 0.23646 0.35739
 C353 C -0.03359 0.24060 0.37380
 C354 C -0.04840 0.23917 0.36308
 C355 C -0.03054 0.24249 0.33544
 C356 C -0.01606 0.24382 0.34669
 N357 N -0.01785 0.24311 0.36553
 H358 H 0.03382 0.22381 0.37655
 H359 H 0.01383 0.27073 0.35586
 H360 H 0.04065 0.27470 0.33726
 H361 H 0.06073 0.22651 0.35816
 H362 H -0.03464 0.23986 0.38879
 H363 H -0.06085 0.23757 0.37000
 H364 H -0.02883 0.24302 0.32047
 H365 H -0.00340 0.24536 0.34030
 C366 C 0.00498 0.19441 0.41609
 C367 C -0.00271 0.29460 0.41913
 C368 C -0.04701 0.24020 0.34361
 C369 C 0.05291 0.25085 0.34610
 C370 C 0.00852 0.73431 0.09725
 H371 H 0.01954 0.74267 0.09714
 C372 C 0.00899 0.71922 0.08634
 H373 H 0.02050 0.71598 0.07799
 C374 C -0.01961 0.72817 0.10878
 H375 H -0.03067 0.73157 0.11768
 C376 C -0.01969 0.71296 0.09812
 H377 H -0.03102 0.70500 0.09872
 N378 N -0.00571 0.73860 0.10803
 C379 C -0.00505 0.79457 0.11518
 H380 H -0.00611 0.79573 0.13018
 C381 C -0.00422 0.80935 0.10445
 H382 H -0.00480 0.82187 0.11133
 C383 C -0.00347 0.77678 0.08805
 H384 H -0.00333 0.76409 0.08167
 C385 C -0.00265 0.79123 0.07678
 H386 H -0.00156 0.78943 0.06183
 Zn387 Zn -0.00534 0.75926 0.12256
 N388 N -0.00438 0.77868 0.10690
 C389 C 0.02687 0.77029 0.13661
 N390 N 0.01459 0.75805 0.13763
 C391 C 0.01651 0.74433 0.14897
 C392 C 0.03102 0.74274 0.16019
 C393 C 0.04157 0.76922 0.14759
 C394 C -0.04112 0.76404 0.12883
 C395 C -0.05673 0.76572 0.13899
 C396 C -0.04061 0.76335 0.16724
 C397 C -0.02534 0.76171 0.15645
 N398 N -0.02587 0.76176 0.13759
 H399 H 0.02543 0.78084 0.12716
 H400 H 0.00668 0.73463 0.14934
 H401 H 0.03215 0.73187 0.16933
 H402 H 0.05127 0.77901 0.14639
 H403 H -0.04116 0.76455 0.11379
 H404 H -0.06824 0.76817 0.13108
 H405 H -0.03924 0.76222 0.18207
 H406 H -0.01306 0.76019 0.16325
 C407 C -0.00288 0.80780 0.08496
 C408 C -0.00527 0.70830 0.08667
 C409 C -0.05698 0.76520 0.15873
 C410 C 0.04378 0.75534 0.15964
 C411 C 0.50451 0.21998 0.60415
 H412 H 0.51620 0.22250 0.61163
 C413 C 0.50375 0.20512 0.59298
 H414 H 0.51475 0.19617 0.59240
 C415 C 0.47614 0.22855 0.59568
 H416 H 0.46548 0.23781 0.59651
 C417 C 0.47481 0.21383 0.58436
 H418 H 0.46310 0.21199 0.57661
 N419 N 0.49076 0.23130 0.60545
 C420 C 0.49174 0.28695 0.61331
 H421 H 0.48935 0.28813 0.62817
 C422 C 0.49297 0.30170 0.60260
 H423 H 0.49131 0.31423 0.60933
 C424 C 0.49655 0.26907 0.58653
 H425 H 0.49810 0.25631 0.58039
 C426 C 0.49783 0.28350 0.57528
 H427 H 0.50047 0.28168 0.56051
 Zn428 Zn 0.49228 0.25162 0.62062
 N429 N 0.49366 0.27105 0.60519
 C430 C 0.52461 0.26247 0.63428
 N431 N 0.51248 0.25008 0.63544
 C432 C 0.51459 0.23651 0.64697
 C433 C 0.52913 0.23522 0.65818
 C434 C 0.53933 0.26170 0.64525
 C435 C 0.45699 0.25960 0.62812
 C436 C 0.44176 0.26203 0.63882
 C437 C 0.45779 0.25473 0.66614
 C438 C 0.47273 0.25245 0.65492
 N439 N 0.47204 0.25458 0.63619
 H440 H 0.52295 0.27299 0.62482
 H441 H 0.50489 0.22670 0.64751
 H442 H 0.53039 0.22448 0.66748
 H443 H 0.54887 0.27162 0.64397
 H444 H 0.45685 0.26202 0.61337
 H445 H 0.42997 0.26612 0.63209
 H446 H 0.45857 0.25254 0.68093
 H447 H 0.48481 0.24896 0.66129
 C448 C 0.49615 0.30010 0.58332
 C449 C 0.48873 0.20185 0.58292
 C450 C 0.44199 0.25945 0.65810
 C451 C 0.54171 0.24799 0.65748
 C452 C 0.51627 0.76785 0.90467
 H453 H 0.52717 0.75880 0.90472
 C454 C 0.51615 0.78249 0.91626
 H455 H 0.52695 0.78452 0.92535
 C456 C 0.48892 0.77603 0.89280
 H457 H 0.47847 0.77364 0.88342
 C458 C 0.48826 0.79083 0.90416
 H459 H 0.47727 0.79970 0.90331
 N460 N 0.50270 0.76479 0.89341
 C461 C 0.50380 0.70906 0.88407
 H462 H 0.50391 0.70839 0.86902
 C463 C 0.50379 0.69393 0.89427
 H464 H 0.50376 0.68163 0.88694
 C465 C 0.50323 0.72599 0.91183
 H466 H 0.50283 0.73849 0.91866
 C467 C 0.50317 0.71118 0.92258
 H468 H 0.50307 0.71250 0.93760
 Zn469 Zn 0.50398 0.74465 0.87806
 N470 N 0.50381 0.72468 0.89292
 C471 C 0.53717 0.73255 0.86457
 N472 N 0.52491 0.74539 0.86371
 C473 C 0.52754 0.75947 0.85312
 C474 C 0.54286 0.76087 0.84256
 C475 C 0.55267 0.73344 0.85425
 C476 C 0.46865 0.74203 0.87053
 C477 C 0.45384 0.74120 0.85974
 C478 C 0.47201 0.74353 0.83216
 C479 C 0.48649 0.74428 0.84348
 N480 N 0.48455 0.74375 0.86232
 H481 H 0.53506 0.72164 0.87334
 H482 H 0.51772 0.76965 0.85295
 H483 H 0.54477 0.77227 0.83438
 H484 H 0.56215 0.72297 0.85495
 H485 H 0.46749 0.74142 0.88552
 H486 H 0.44128 0.74019 0.86660
 H487 H 0.47383 0.74387 0.81720
 H488 H 0.49925 0.74519 0.83715
 C489 C 0.50358 0.69486 0.91382
 C490 C 0.50198 0.79420 0.91614
 C491 C 0.45539 0.74202 0.84027
 C492 C 0.55569 0.74774 0.84304
 C493 C -0.23558 0.63748 0.98113
 H494 H -0.22869 0.63714 0.99408
 C495 C -0.22993 0.64805 0.96683
 H496 H -0.21880 0.65603 0.96894
 C497 C -0.25840 0.62732 0.96265
 H498 H -0.26922 0.61894 0.96089
 C499 C -0.25325 0.63775 0.94803
 H500 H -0.26024 0.63728 0.93514
 N501 N -0.24964 0.62747 0.97885
 C502 C -0.26911 0.61667 1.03460
 H503 H -0.26923 0.60275 1.03381
 C504 C -0.27495 0.62533 1.05081
 H505 H -0.27992 0.61764 1.06201
 C506 C -0.26350 0.64307 1.02003
 H507 H -0.25909 0.64994 1.00797
 C508 C -0.26921 0.65229 1.03595
 H509 H -0.26830 0.66615 1.03576
 Zn510 Zn -0.25566 0.61271 0.99845
 N511 N -0.26328 0.62558 1.01976
 C512 C -0.22824 0.59990 1.02063
 N513 N -0.23554 0.59947 1.00358
 C514 C -0.22795 0.59042 0.98910
 C515 C -0.21237 0.58132 0.99144
 C516 C -0.21261 0.59099 1.02359
 C517 C -0.28966 0.60597 0.98865
 C518 C -0.30394 0.59602 0.98454
 C519 C -0.28571 0.57043 0.98677
 C520 C -0.27175 0.58087 0.99083
 N521 N -0.27395 0.59831 0.99163
 H522 H -0.23425 0.60751 1.03184
 H523 H -0.23394 0.59050 0.97563
 H524 H -0.20656 0.57417 0.97973
 H525 H -0.20674 0.59186 1.03710
 H526 H -0.29111 0.61984 0.98975
 H527 H -0.31642 0.60237 0.98262
 H528 H -0.28372 0.55658 0.98617
 H529 H -0.25927 0.57499 0.99365
 C530 C -0.27493 0.64352 1.05193
 C531 C -0.23883 0.64827 0.95001
 C532 C -0.30209 0.57799 0.98365
 C533 C -0.20438 0.58170 1.00881
 C534 C -0.22493 0.36111 0.52395
 H535 H -0.21805 0.35959 0.51072
 C536 C -0.21957 0.35232 0.53870
 H537 H -0.20814 0.34404 0.53705
 C538 C -0.24764 0.37557 0.54150
 H539 H -0.25821 0.38493 0.54273
 C540 C -0.24222 0.36623 0.55813
 H541 H -0.25002 0.36836 0.57067
 N542 N -0.23958 0.37287 0.52562
 C543 C -0.25687 0.38003 0.46896
 H544 H -0.25759 0.39396 0.46902
 C545 C -0.26170 0.37072 0.45324
 H546 H -0.26621 0.37761 0.44124
 C547 C -0.25066 0.35423 0.48489
 H548 H -0.24660 0.34788 0.49737
 C549 C -0.25535 0.34438 0.46942
 H550 H -0.25444 0.33046 0.46999
 Zn551 Zn -0.24578 0.38598 0.50476
 N552 N -0.25129 0.37173 0.48427
 C553 C -0.21782 0.39741 0.48224
 N554 N -0.22659 0.39962 0.49877
 C555 C -0.22086 0.41045 0.51223
 C556 C -0.20561 0.41945 0.50943
 C557 C -0.20249 0.40615 0.47885
 C558 C -0.28050 0.39087 0.51407
 C559 C -0.29636 0.39958 0.51698
 C560 C -0.28194 0.42641 0.51203
 C561 C -0.26629 0.41711 0.50925
 N562 N -0.26591 0.39966 0.51026
 H563 H -0.22232 0.38840 0.47191
 H564 H -0.22795 0.41176 0.52535
 H565 H -0.20121 0.42793 0.52037
 H566 H -0.19538 0.40377 0.46587
 H567 H -0.27980 0.37697 0.51476
 H568 H -0.30742 0.39197 0.52064
 H569 H -0.28175 0.44019 0.51022
 H570 H -0.25459 0.42382 0.50574
 C571 C -0.26087 0.35264 0.45327
 C572 C -0.22864 0.35486 0.55715
 C573 C -0.29752 0.41771 0.51568
 C574 C -0.19606 0.41714 0.49266
 C575 C 0.27005 -0.13375 0.02344
 H576 H 0.27755 -0.13486 0.01055
 C577 C 0.27496 -0.14265 0.03829
 H578 H 0.28668 -0.15056 0.03707
 C579 C 0.24618 -0.12024 0.04003
 H580 H 0.23530 -0.11123 0.04086
 C581 C 0.25107 -0.12974 0.05674
 H582 H 0.24265 -0.12806 0.06888
 N583 N 0.25504 -0.12242 0.02454
 C584 C 0.23957 -0.11532 -0.03275
 H585 H 0.23863 -0.10140 -0.03273
 C586 C 0.23540 -0.12473 -0.04865
 H587 H 0.23117 -0.11792 -0.06082
 C588 C 0.24568 -0.14101 -0.01658
 H589 H 0.24945 -0.14729 -0.00396
 C590 C 0.24164 -0.15096 -0.03222
 H591 H 0.24275 -0.16486 -0.03161
 Zn592 Zn 0.24945 -0.10925 0.00352
 N593 N 0.24479 -0.12352 -0.01723
 C594 C 0.27769 -0.09691 -0.01803
 N595 N 0.26860 -0.09530 -0.00164
 C596 C 0.27367 -0.08447 0.01214
 C597 C 0.28845 -0.07469 0.00975
 C598 C 0.29260 -0.08740 -0.02100
 C599 C 0.21434 -0.10430 0.01151
 C600 C 0.19852 -0.09542 0.01394
 C601 C 0.21340 -0.06874 0.00964
 C602 C 0.22898 -0.07821 0.00732
 N603 N 0.22915 -0.09566 0.00829
 H604 H 0.27370 -0.10592 -0.02863
 H605 H 0.26631 -0.08362 0.02513
 H606 H 0.29225 -0.06611 0.02090
 H607 H 0.29995 -0.08924 -0.03391
 H608 H 0.21486 -0.11822 0.01212
 H609 H 0.18725 -0.10290 0.01716
 H610 H 0.21382 -0.05497 0.00789
 H611 H 0.24082 -0.07159 0.00421
 C612 C 0.23651 -0.14280 -0.04858
 C613 C 0.26500 -0.14070 0.05628
 C614 C 0.19764 -0.07727 0.01277
 C615 C 0.29826 -0.07624 -0.00692
 C616 C 0.26759 1.13914 0.47944
 H617 H 0.27407 1.13983 0.49262
 C618 C 0.27370 1.14854 0.46440
 H619 H 0.28492 1.15649 0.46608
 C620 C 0.24549 1.12734 0.46109
 H621 H 0.23471 1.11883 0.45974
 C622 C 0.25121 1.13645 0.44567
 H623 H 0.24446 1.13515 0.43269
 N624 N 0.25366 1.12889 0.47758
 C625 C 0.23470 1.12190 0.53441
 H626 H 0.23482 1.10798 0.53483
 C627 C 0.22925 1.13163 0.55006
 H628 H 0.22549 1.12506 0.56262
 C629 C 0.23980 1.14727 0.51753
 H630 H 0.24364 1.15331 0.50472
 C631 C 0.23442 1.15751 0.53285
 H632 H 0.23424 1.17139 0.53168
 Zn633 Zn 0.24709 1.11554 0.49817
 N634 N 0.24009 1.12981 0.51868
 C635 C 0.27462 1.10339 0.52064
 N636 N 0.26677 1.10185 0.50395
 C637 C 0.27370 1.09156 0.49008
 C638 C 0.28919 1.08235 0.49265
 C639 C 0.29017 1.09442 0.52381
 C640 C 0.21284 1.11012 0.48872
 C641 C 0.19797 1.10088 0.48509
 C642 C 0.21458 1.07447 0.48913
 C643 C 0.22916 1.08424 0.49267
 N644 N 0.22805 1.10173 0.49232
 H645 H 0.26919 1.11201 0.53131
 H646 H 0.26733 1.09079 0.47684
 H647 H 0.29451 1.07425 0.48140
 H648 H 0.29651 1.09621 0.53697
 H649 H 0.21226 1.12406 0.48887
 H650 H 0.18592 1.10783 0.48261
 H651 H 0.21571 1.06055 0.48939
 H652 H 0.24127 1.07782 0.49594
 C653 C 0.22917 1.14970 0.54945
 C654 C 0.26553 1.14717 0.44720
 C655 C 0.19870 1.08280 0.48534
 C656 C 0.29777 1.08390 0.50961
 C657 C 0.16680 0.48338 0.26322
 H658 H 0.16641 0.49491 0.27189
 C659 C 0.17752 0.46937 0.26780
 H660 H 0.18550 0.47023 0.27998
 C661 C 0.15675 0.46818 0.23685
 H662 H 0.14838 0.46753 0.22504
 C663 C 0.16733 0.45398 0.24083
 H664 H 0.16697 0.44257 0.23197
 N665 N 0.15685 0.48261 0.24784
 C666 C 0.14689 0.53530 0.23058
 H667 H 0.13291 0.53513 0.22955
 C668 C 0.15573 0.55029 0.22664
 H669 H 0.14841 0.56171 0.22283
 C670 C 0.17324 0.52067 0.23748
 H671 H 0.18002 0.50906 0.24158
 C672 C 0.18262 0.53540 0.23367
 H673 H 0.19659 0.53498 0.23490
 Zn674 Zn 0.14233 0.50176 0.24234
 N675 N 0.15566 0.52102 0.23627
 C676 C 0.12861 0.52262 0.27222
 N677 N 0.12818 0.50688 0.26364
 C678 C 0.11831 0.49415 0.27063
 C679 C 0.10815 0.49708 0.28674
 C680 C 0.11866 0.52611 0.28836
 C681 C 0.13722 0.49419 0.20494
 C682 C 0.12820 0.49008 0.18893
 C683 C 0.10156 0.49153 0.20721
 C684 C 0.11119 0.49559 0.22286
 N685 N 0.12870 0.49660 0.22151
 H686 H 0.13689 0.53243 0.26680
 H687 H 0.11840 0.48167 0.26368
 H688 H 0.10026 0.48683 0.29199
 H689 H 0.11944 0.53860 0.29518
 H690 H 0.15120 0.49513 0.20425
 H691 H 0.13598 0.48732 0.17653
 H692 H 0.08764 0.49167 0.20913
 H693 H 0.10456 0.49810 0.23605
 C694 C 0.17382 0.55054 0.22842
 C695 C 0.17794 0.45449 0.25642
 C696 C 0.10989 0.48857 0.18959
 C697 C 0.10831 0.51323 0.29587
 C698 C -0.16574 1.01293 0.26065
 H699 H -0.17234 1.00086 0.26052
 C700 C -0.17537 1.02825 0.26379
 H701 H -0.18927 1.02774 0.26610
 C702 C -0.13997 1.02853 0.25659
 H703 H -0.12630 1.02866 0.25302
 C704 C -0.14906 1.04408 0.25961
 H705 H -0.14211 1.05601 0.25899
 N706 N -0.14832 1.01333 0.25720
 C707 C -0.14857 0.96648 0.22864
 H708 H -0.14013 0.97119 0.21778
 C709 C -0.15857 0.95209 0.22509
 H710 H -0.15792 0.94605 0.21140
 C711 C -0.15953 0.96844 0.25966
 H712 H -0.15954 0.97468 0.27324
 C713 C -0.16974 0.95410 0.25672
 H714 H -0.17755 0.94937 0.26815
 Zn715 Zn -0.13474 0.99327 0.25070
 N716 N -0.14919 0.97434 0.24572
 C717 C -0.11911 0.97134 0.27705
 N718 N -0.11952 0.98763 0.27033
 C719 C -0.10950 1.00006 0.27776
 C720 C -0.09919 0.99656 0.29302
 C721 C -0.10899 0.96729 0.29232
 C722 C -0.13098 1.00566 0.21494
 C723 C -0.12247 1.01088 0.19878
 C724 C -0.09528 1.00160 0.21184
 C725 C -0.10439 0.99656 0.22779
 N726 N -0.12191 0.99865 0.22900
 H727 H -0.12676 0.96146 0.27073
 H728 H -0.10960 1.01278 0.27203
 H729 H -0.09144 1.00670 0.29879
 H730 H -0.10933 0.95441 0.29783
 H731 H -0.14490 1.00747 0.21645
 H732 H -0.13026 1.01708 0.18840
 H733 H -0.08143 0.99911 0.21124
 H734 H -0.09745 0.99092 0.23918
 C735 C -0.16927 0.94566 0.23927
 C736 C -0.16704 1.04410 0.26306
 C737 C -0.10425 1.00895 0.19683
 C738 C -0.09909 0.98007 0.30073
 C739 C 0.35170 0.52408 -0.22428
 H740 H 0.36024 0.51898 -0.21391
 C741 C 0.34218 0.53933 -0.22048
 H742 H 0.34325 0.54563 -0.20701
 C743 C 0.34032 0.52242 -0.25460
 H744 H 0.33998 0.51590 -0.26801
 C745 C 0.33058 0.53760 -0.25139
 H746 H 0.32285 0.54274 -0.26248
 N747 N 0.35061 0.51598 -0.24114
 C748 C 0.35986 0.46114 -0.25722
 H749 H 0.37390 0.46066 -0.25766
 C750 C 0.35103 0.44680 -0.26024
 H751 H 0.35836 0.43489 -0.26260
 C752 C 0.33405 0.47811 -0.25167
 H753 H 0.32750 0.49016 -0.24794
 C754 C 0.32371 0.46264 -0.25495
 H755 H 0.30976 0.46436 -0.25449
 Zn756 Zn 0.36467 0.49641 -0.24765
 N757 N 0.35089 0.47717 -0.25294
 C758 C 0.37110 0.48501 -0.21188
 N759 N 0.37910 0.49024 -0.22776
 C760 C 0.39670 0.49034 -0.22945
 C761 C 0.40696 0.48548 -0.21455
 C762 C 0.38085 0.48005 -0.19667
 C763 C 0.37626 0.49363 -0.28531
 C764 C 0.38506 0.49893 -0.30130
 C765 C 0.39724 0.52205 -0.28329
 C766 C 0.38814 0.51635 -0.26764
 N767 N 0.37797 0.50234 -0.26890
 H768 H 0.35708 0.48482 -0.21102
 H769 H 0.40282 0.49409 -0.24235
 H770 H 0.42095 0.48559 -0.21616
 H771 H 0.37419 0.47635 -0.18400
 H772 H 0.36781 0.48278 -0.28615
 H773 H 0.38359 0.49179 -0.31422
 H774 H 0.40509 0.53337 -0.28209
 H775 H 0.38896 0.52326 -0.25450
 C776 C 0.33164 0.44726 -0.25908
 C777 C 0.33156 0.54636 -0.23419
 C778 C 0.39563 0.51338 -0.30044
 C779 C 0.39904 0.48031 -0.19784
 C780 C 0.66574 -0.02180 -0.23445
 H781 H 0.66627 -0.01041 -0.22561
 C782 C 0.67593 -0.03559 -0.23110
 H783 H 0.68487 -0.03478 -0.21976
 C784 C 0.65317 -0.03549 -0.26063
 H785 H 0.64407 -0.03572 -0.27179
 C786 C 0.66421 -0.05086 -0.25763
 H787 H 0.66224 -0.06189 -0.26666
 N788 N 0.65421 -0.02193 -0.24988
 C789 C 0.64399 0.03086 -0.26665
 H790 H 0.63000 0.03058 -0.26734
 C791 C 0.65262 0.04583 -0.27117
 H792 H 0.64475 0.05695 -0.27470
 C793 C 0.67052 0.01663 -0.25990
 H794 H 0.67745 0.00513 -0.25574
 C795 C 0.67973 0.03137 -0.26419
 H796 H 0.69372 0.03057 -0.26359
 Zn797 Zn 0.63970 -0.00240 -0.25421
 N798 N 0.65295 0.01678 -0.26081
 C799 C 0.62730 0.01870 -0.22397
 N800 N 0.62653 0.00283 -0.23220
 C801 C 0.61678 -0.00970 -0.22461
 C802 C 0.60698 -0.00637 -0.20831
 C803 C 0.61772 0.02259 -0.20768
 C804 C 0.63280 -0.00900 -0.29145
 C805 C 0.62305 -0.01303 -0.30697
 C806 C 0.59728 -0.01244 -0.28722
 C807 C 0.60755 -0.00845 -0.27204
 N808 N 0.62502 -0.00710 -0.27436
 H809 H 0.63547 0.02837 -0.22988
 H810 H 0.61658 -0.02229 -0.23129
 H811 H 0.59909 -0.01644 -0.20265
 H812 H 0.61869 0.03523 -0.20124
 H813 H 0.64668 -0.00758 -0.29295
 H814 H 0.62951 -0.01446 -0.32045
 H815 H 0.58345 -0.01382 -0.28506
 H816 H 0.60155 -0.00657 -0.25842
 C817 C 0.67084 0.04651 -0.26972
 C818 C 0.67542 -0.05125 -0.24344
 C819 C 0.60506 -0.01496 -0.30494
 C820 C 0.60736 0.00998 -0.19964
 C821 C 0.01305 0.26647 0.84899
 H822 H 0.00495 0.27804 0.84952
 C823 C 0.02793 0.26569 0.83755
 H824 H 0.03122 0.27679 0.82942
 C825 C 0.01894 0.23827 0.85960
 H826 H 0.01550 0.22765 0.86833
 C827 C 0.03393 0.23694 0.84836
 H828 H 0.04173 0.22516 0.84838
 N829 N 0.00880 0.25286 0.85969
 C830 C -0.04732 0.25478 0.86949
 H831 H -0.04802 0.25223 0.88421
 C832 C -0.06257 0.25577 0.85937
 H833 H -0.07493 0.25445 0.86658
 C834 C -0.03039 0.25908 0.84219
 H835 H -0.01787 0.26001 0.83537
 C836 C -0.04531 0.26019 0.83155
 H837 H -0.04400 0.26195 0.81669
 Zn838 Zn -0.01133 0.25489 0.87549
 N839 N -0.03161 0.25667 0.86088
 C840 C -0.02363 0.28142 0.90062
 N841 N -0.00943 0.27480 0.89116
 C842 C 0.00632 0.28213 0.89282
 C843 C 0.00814 0.29694 0.90384
 C844 C -0.02240 0.29624 0.91180
 C845 C -0.01733 0.21995 0.88206
 C846 C -0.01837 0.20496 0.89244
 C847 C -0.01071 0.22139 0.91978
 C848 C -0.00984 0.23608 0.90888
 N849 N -0.01302 0.23508 0.89036
 H850 H -0.03597 0.27530 0.89949
 H851 H 0.01758 0.27650 0.88560
 H852 H 0.02072 0.30276 0.90456
 H853 H -0.03386 0.30128 0.91919
 H854 H -0.01979 0.21952 0.86731
 H855 H -0.02147 0.19299 0.88548
 H856 H -0.00818 0.22245 0.93450
 H857 H -0.00647 0.24825 0.91519
 C858 C -0.06170 0.25857 0.84013
 C859 C 0.03864 0.25079 0.83717
 C860 C -0.01496 0.20553 0.91157
 C861 C -0.00638 0.30429 0.91339
 C862 C 0.48202 0.25997 0.14991
 H863 H 0.48993 0.27128 0.15019
 C864 C 0.46686 0.25960 0.16088
 H865 H 0.46317 0.27074 0.16947
 C866 C 0.47695 0.23203 0.13780
 H867 H 0.48082 0.22133 0.12871
 C868 C 0.46168 0.23112 0.14854
 H869 H 0.45414 0.21957 0.14776
 N870 N 0.48684 0.24627 0.13872
 C871 C 0.54327 0.24614 0.13131
 H872 H 0.54451 0.24327 0.11657
 C873 C 0.55815 0.24671 0.14203
 H874 H 0.57075 0.24482 0.13526
 C875 C 0.52538 0.25152 0.15805
 H876 H 0.51264 0.25301 0.16442
 C877 C 0.53992 0.25224 0.16929
 H878 H 0.53810 0.25431 0.18414
 Zn879 Zn 0.50756 0.24739 0.12382
 N880 N 0.52727 0.24877 0.13935
 C881 C 0.52035 0.27175 0.09821
 N882 N 0.50612 0.26700 0.10821
 C883 C 0.49078 0.27593 0.10702
 C884 C 0.48948 0.29047 0.09592
 C885 C 0.51963 0.28622 0.08694
 C886 C 0.51466 0.21216 0.11730
 C887 C 0.51638 0.19680 0.10697
 C888 C 0.50924 0.21249 0.07934
 C889 C 0.50765 0.22758 0.09022
 N890 N 0.51023 0.22711 0.10886
 H891 H 0.53232 0.26434 0.09891
 H892 H 0.47944 0.27179 0.11462
 H893 H 0.47723 0.29757 0.09555
 H894 H 0.53111 0.28972 0.07909
 H895 H 0.51673 0.21219 0.13214
 H896 H 0.51997 0.18505 0.11397
 H897 H 0.50672 0.21304 0.06461
 H898 H 0.50408 0.23960 0.08381
 C899 C 0.55660 0.24987 0.16130
 C900 C 0.45645 0.24503 0.16029
 C901 C 0.51352 0.19678 0.08772
 C902 C 0.50406 0.29588 0.08579
 C903 C -0.01297 0.75836 0.65305
 H904 H -0.00330 0.76784 0.65573
 C905 C -0.02712 0.75790 0.66415
 H906 H -0.02804 0.76679 0.67588
 C907 C -0.02210 0.73484 0.63433
 H908 H -0.02041 0.72613 0.62252
 C909 C -0.03788 0.73379 0.64620
 H910 H -0.04729 0.72444 0.64212
 N911 N -0.01048 0.74627 0.63780
 C912 C 0.04147 0.73484 0.63813
 H913 H 0.03940 0.72316 0.63027
 C914 C 0.05612 0.73590 0.64913
 H915 H 0.06488 0.72483 0.64983
 C916 C 0.03282 0.76341 0.64667
 H917 H 0.02399 0.77429 0.64520
 C918 C 0.04732 0.76502 0.65785
 H919 H 0.04941 0.77715 0.66502
 Zn920 Zn 0.00993 0.74706 0.62232
 N921 N 0.02998 0.74839 0.63730
 C922 C 0.02335 0.77141 0.59778
 N923 N 0.00886 0.76695 0.60748
 C924 C -0.00614 0.77644 0.60665
 C925 C -0.00701 0.79104 0.59559
 C926 C 0.02306 0.78591 0.58655
 C927 C 0.01130 0.71123 0.61467
 C928 C 0.01217 0.69620 0.60371
 C929 C 0.01318 0.71369 0.57630
 C930 C 0.01226 0.72841 0.58780
 N931 N 0.01144 0.72696 0.60664
 H932 H 0.03511 0.76361 0.59869
 H933 H -0.01750 0.77267 0.61451
 H934 H -0.01902 0.79853 0.59529
 H935 H 0.03467 0.78911 0.57874
 H936 H 0.01044 0.71038 0.62966
 H937 H 0.01224 0.68384 0.61043
 H938 H 0.01360 0.71513 0.56135
 H939 H 0.01207 0.74098 0.58161
 C940 C 0.05919 0.75112 0.65924
 C941 C -0.04065 0.74482 0.66080
 C942 C 0.01310 0.69730 0.58424
 C943 C 0.00773 0.79594 0.58532
 C944 C 0.51489 0.75915 0.35341
 H945 H 0.50615 0.77027 0.35368
 C946 C 0.52990 0.75903 0.34219
 H947 H 0.53271 0.77022 0.33398
 C948 C 0.52202 0.73132 0.36432
 H949 H 0.51902 0.72061 0.37310
 C950 C 0.53720 0.73066 0.35331
 H951 H 0.54556 0.71926 0.35353
 N952 N 0.51113 0.74536 0.36404
 C953 C 0.45483 0.74801 0.37210
 H954 H 0.45377 0.74786 0.38713
 C955 C 0.43986 0.74858 0.36152
 H956 H 0.42729 0.74910 0.36855
 C957 C 0.47257 0.74766 0.34477
 H958 H 0.48531 0.74699 0.33825
 C959 C 0.45793 0.74824 0.33365
 H960 H 0.45963 0.74801 0.31866
 Zn961 Zn 0.49052 0.74683 0.37897
 N962 N 0.47079 0.74777 0.36364
 C963 C 0.47921 0.77983 0.39322
 N964 N 0.49166 0.76715 0.39393
 C965 C 0.50572 0.76891 0.40484
 C966 C 0.50752 0.78372 0.41588
 C967 C 0.48048 0.79485 0.40404
 C968 C 0.48665 0.71161 0.38564
 C969 C 0.48493 0.69675 0.39614
 C970 C 0.48661 0.71427 0.42411
 C971 C 0.48829 0.72879 0.41307
 N972 N 0.48851 0.72719 0.39418
 H973 H 0.46837 0.77844 0.38411
 H974 H 0.51556 0.75873 0.40497
 H975 H 0.51869 0.78474 0.42465
 H976 H 0.47056 0.80488 0.40307
 H977 H 0.48661 0.71072 0.37060
 H978 H 0.48385 0.68443 0.38903
 H979 H 0.48637 0.71584 0.43911
 H980 H 0.48928 0.74131 0.41965
 C981 C 0.44129 0.74876 0.34200
 C982 C 0.54130 0.74463 0.34201
 C983 C 0.48498 0.69795 0.41567
 C984 C 0.49478 0.79696 0.41559
 B985 B -0.01481 0.01421 1.01089
 B986 B -0.02409 0.01023 0.99039
 B987 B -0.00833 0.02471 0.99173
 B988 B 0.00649 0.01768 1.00698
 B989 B -0.00029 -0.00161 1.01500
 B990 B -0.01942 -0.00622 1.00467
 B991 B 0.00571 -0.00488 0.97741
 B992 B 0.01500 -0.00088 0.99788
 B993 B -0.00077 -0.01536 0.99657
 B994 B -0.01558 -0.00832 0.98131
 B995 B -0.00880 0.01095 0.97327
 B996 B 0.01032 0.01558 0.98360
 B997 B 0.48871 0.50783 0.51566
 B998 B 0.48054 0.50494 0.49431
 B999 B 0.49643 0.51905 0.49765
 B1000 B 0.51022 0.51099 0.51338
 B1001 B 0.50266 0.49149 0.51983
 B1002 B 0.48412 0.48777 0.50798
 B1003 B 0.51064 0.48978 0.48252
 B1004 B 0.51886 0.49261 0.50379
 B1005 B 0.50292 0.47860 0.50061
 B1006 B 0.48910 0.48671 0.48478
 B1007 B 0.49681 0.50622 0.47837
 B1008 B 0.51536 0.50972 0.49023
 B1009 B 0.51083 0.99082 0.51409
 B1010 B 0.51974 0.99325 0.49278
 B1011 B 0.50344 0.97959 0.49578
 B1012 B 0.48929 0.98813 0.51201
 B1013 B 0.49716 1.00756 0.51888
 B1014 B 0.51615 1.01057 0.50688
 B1015 B 0.49020 1.00891 0.48174
 B1016 B 0.48134 1.00641 0.50311
 B1017 B 0.49761 1.02017 0.49996
 B1018 B 0.51172 1.01169 0.48382
 B1019 B 0.50398 0.99228 0.47690
 B1020 B 0.48503 0.98902 0.48889
 B1021 B 0.01201 0.49755 1.01281
 B1022 B 0.02089 0.50071 0.99165
 B1023 B 0.00465 0.48684 0.99410
 B1024 B -0.00949 0.49476 1.01055
 B1025 B -0.00183 0.51395 1.01822
 B1026 B 0.01716 0.51765 1.00644
 B1027 B -0.00873 0.51652 0.98113
 B1028 B -0.01759 0.51336 1.00230
 B1029 B -0.00138 0.52724 0.99987
 B1030 B 0.01278 0.51934 0.98340
 B1031 B 0.00513 0.50011 0.97574
 B1032 B -0.01386 0.49643 0.98752
 B1033 B 0.01500 0.50513 0.48219
 B1034 B 0.02332 0.50383 0.50365
 B1035 B 0.00667 0.51756 0.49967
 B1036 B -0.00669 0.50827 0.48427
 B1037 B 0.00205 0.48835 0.47875
 B1038 B 0.02073 0.48577 0.49079
 B1039 B -0.00597 0.48933 0.51606
 B1040 B -0.01429 0.49065 0.49460
 B1041 B 0.00236 0.47691 0.49857
 B1042 B 0.01573 0.48620 0.51398
 B1043 B 0.00698 0.50612 0.51950
 B1044 B -0.01169 0.50870 0.50747
 B1045 B 0.51211 0.00443 -0.01511
 B1046 B 0.52027 0.00177 0.00623
 B1047 B 0.50404 0.01622 0.00306
 B1048 B 0.49050 0.00820 -0.01285
 B1049 B 0.49856 -0.01162 -0.01960
 B1050 B 0.51716 -0.01560 -0.00774
 B1051 B 0.49050 -0.01239 0.01767
 B1052 B 0.48227 -0.00977 -0.00358
 B1053 B 0.49855 -0.02414 -0.00059
 B1054 B 0.51212 -0.01606 0.01542
 B1055 B 0.50391 0.00378 0.02214
 B1056 B 0.48531 0.00753 0.01028
 B1057 B 0.49014 0.48628 -0.01536
 B1058 B 0.48059 0.49036 0.00552
 B1059 B 0.49707 0.47584 0.00356
 B1060 B 0.51160 0.48280 -0.01235
 B1061 B 0.50391 0.50206 -0.02015
 B1062 B 0.48452 0.50675 -0.00901
 B1063 B 0.50961 0.50544 0.01721
 B1064 B 0.51917 0.50137 -0.00366
 B1065 B 0.50269 0.51587 -0.00172
 B1066 B 0.48816 0.50893 0.01420
 B1067 B 0.49585 0.48966 0.02200
 B1068 B 0.51525 0.48497 0.01086
 B1069 B -0.00776 0.98565 0.48360
 B1070 B -0.01679 0.98891 0.50492
 B1071 B 0.00002 0.97493 0.50191
 B1072 B 0.01389 0.98275 0.48570
 B1073 B 0.00530 1.00206 0.47886
 B1074 B -0.01382 1.00571 0.49085
 B1075 B 0.01214 1.00456 0.51603
 B1076 B 0.02114 1.00123 0.49466
 B1077 B 0.00435 1.01531 0.49780
 B1078 B -0.00947 1.00754 0.51392
 B1079 B -0.00102 0.98826 0.52081
 B1080 B 0.01808 0.98436 0.50883
 B1081 B 0.76390 0.23680 0.23748
 B1082 B 0.75934 0.22752 0.25786
 B1083 B 0.77410 0.24304 0.25688
 B1084 B 0.76750 0.25788 0.24151
 B1085 B 0.74820 0.25138 0.23304
 B1086 B 0.74314 0.23239 0.24323
 B1087 B 0.74413 0.25720 0.27058
 B1088 B 0.74870 0.26647 0.25020
 B1089 B 0.73394 0.25095 0.25118
 B1090 B 0.74054 0.23610 0.26657
 B1091 B 0.75983 0.24261 0.27504
 B1092 B 0.76490 0.26160 0.26484
 B1093 B 0.74912 0.75869 0.73780
 B1094 B 0.75270 0.76838 0.75838
 B1095 B 0.73846 0.75240 0.75713
 B1096 B 0.74603 0.73755 0.74133
 B1097 B 0.76539 0.74450 0.73286
 B1098 B 0.76953 0.76378 0.74349
 B1099 B 0.76835 0.73930 0.77026
 B1100 B 0.76477 0.72961 0.74968
 B1101 B 0.77901 0.74558 0.75093
 B1102 B 0.77145 0.76046 0.76673
 B1103 B 0.75208 0.75349 0.77519
 B1104 B 0.74794 0.73422 0.76457
 B1105 B 0.25087 0.26302 0.76719
 B1106 B 0.24792 0.27198 0.74629
 B1107 B 0.26230 0.25554 0.74846
 B1108 B 0.25432 0.24162 0.76401
 B1109 B 0.23457 0.24965 0.77154
 B1110 B 0.23061 0.26861 0.76052
 B1111 B 0.23303 0.24304 0.73407
 B1112 B 0.23594 0.23406 0.75490
 B1113 B 0.22163 0.25052 0.75287
 B1114 B 0.22967 0.26449 0.73722
 B1115 B 0.24943 0.25631 0.72973
 B1116 B 0.25315 0.23735 0.74076
 B1117 B 0.23332 0.74344 0.26438
 B1118 B 0.23809 0.73400 0.24363
 B1119 B 0.22356 0.75045 0.24508
 B1120 B 0.23011 0.76479 0.26127
 B1121 B 0.24914 0.75696 0.26978
 B1122 B 0.25408 0.73771 0.25879
 B1123 B 0.25393 0.76273 0.23257
 B1124 B 0.24918 0.77218 0.25330
 B1125 B 0.26368 0.75570 0.25188
 B1126 B 0.25714 0.74142 0.23567
 B1127 B 0.23810 0.74922 0.22715
 B1128 B 0.23315 0.76847 0.23815
 B1129 B 0.26606 0.74102 0.73502
 B1130 B 0.26182 0.73161 0.75541
 B1131 B 0.27637 0.74731 0.75433
 B1132 B 0.26945 0.76215 0.73911
 B1133 B 0.25015 0.75544 0.73083
 B1134 B 0.24542 0.73635 0.74098
 B1135 B 0.24638 0.76106 0.76843
 B1136 B 0.25063 0.77048 0.74806
 B1137 B 0.23608 0.75478 0.74911
 B1138 B 0.24300 0.73995 0.76435
 B1139 B 0.26229 0.74665 0.77264
 B1140 B 0.26704 0.76574 0.76248
 B1141 B 0.24490 0.26286 0.23812
 B1142 B 0.24909 0.27216 0.25875
 B1143 B 0.23449 0.25651 0.25758
 B1144 B 0.24144 0.24174 0.24139
 B1145 B 0.26078 0.24842 0.23258
 B1146 B 0.26553 0.26745 0.24341
 B1147 B 0.26438 0.24261 0.26979
 B1148 B 0.26019 0.23331 0.24916
 B1149 B 0.27479 0.24896 0.25032
 B1150 B 0.26785 0.26373 0.26652
 B1151 B 0.24849 0.25705 0.27533
 B1152 B 0.24375 0.23803 0.26450
 B1153 B 0.75179 0.76103 0.26543
 B1154 B 0.74806 0.76981 0.24459
 B1155 B 0.76290 0.75371 0.24641
 B1156 B 0.75567 0.73967 0.26226
 B1157 B 0.73596 0.74729 0.27036
 B1158 B 0.73124 0.76611 0.25937
 B1159 B 0.73354 0.74047 0.23300
 B1160 B 0.73723 0.73165 0.25376
 B1161 B 0.72248 0.74778 0.25212
 B1162 B 0.72974 0.76185 0.23614
 B1163 B 0.74950 0.75409 0.22808
 B1164 B 0.75398 0.73527 0.23909
 B1165 B 0.73097 0.23847 0.76273
 B1166 B 0.73551 0.22924 0.74179
 B1167 B 0.72097 0.24565 0.74370
 B1168 B 0.72772 0.25987 0.76000
 B1169 B 0.74693 0.25189 0.76807
 B1170 B 0.75160 0.23280 0.75671
 B1171 B 0.75118 0.25814 0.73090
 B1172 B 0.74658 0.26735 0.75188
 B1173 B 0.76121 0.25096 0.74988
 B1174 B 0.75452 0.23680 0.73364
 B1175 B 0.73531 0.24463 0.72554
 B1176 B 0.73040 0.26370 0.73688
 C1177 C 0.41678 1.04034 0.34120
 C1178 C 0.42584 1.02754 0.35077
 C1179 C 0.42517 1.01034 0.34478
 C1180 C 0.41525 1.00584 0.32953
 C1181 C 0.40582 1.01851 0.32001
 C1182 C 0.40687 1.03586 0.32583
 C1183 C 0.43501 1.03156 0.36745
 C1184 C 0.44242 1.03350 0.38189
 C1185 C 0.45069 1.03391 0.39918
 C1186 C 0.45728 1.03248 0.41413
 C1187 C 0.46440 1.02850 0.43191
 C1188 C 0.47868 1.03711 0.43891
 C1189 C 0.48648 1.03143 0.45522
 C1190 C 0.48008 1.01707 0.46468
 C1191 C 0.46557 1.00878 0.45750
 C1192 C 0.45776 1.01454 0.44143
 H1193 H 0.41711 1.05368 0.34581
 H1194 H 0.43210 1.00033 0.35211
 H1195 H 0.41489 0.99243 0.32520
 H1196 H 0.39964 1.04586 0.31885
 H1197 H 0.48407 1.04783 0.43151
 H1198 H 0.49780 1.03798 0.46010
 H1199 H 0.46058 0.99732 0.46369
 H1200 H 0.44690 1.00759 0.43598
 C1201 C -0.07951 0.50687 0.84816
 C1202 C -0.07516 0.52409 0.85058
 C1203 C -0.08008 0.53614 0.83739
 C1204 C -0.08943 0.53100 0.82186
 C1205 C -0.09418 0.51362 0.81925
 C1206 C -0.08888 0.50166 0.83274
 C1207 C -0.06596 0.52916 0.86691
 C1208 C -0.05848 0.53232 0.88106
 C1209 C -0.05005 0.53452 0.89812
 C1210 C -0.04324 0.53493 0.91304
 C1211 C -0.03570 0.53342 0.93107
 C1212 C -0.01904 0.53932 0.93452
 C1213 C -0.01082 0.53504 0.95106
 C1214 C -0.01914 0.52472 0.96430
 C1215 C -0.03615 0.51945 0.96084
 C1216 C -0.04435 0.52388 0.94449
 H1217 H -0.07563 0.49738 0.85823
 H1218 H -0.07689 0.54957 0.83922
 H1219 H -0.09353 0.54095 0.81248
 H1220 H -0.09133 0.48807 0.83126
 H1221 H -0.01211 0.54652 0.92408
 H1222 H 0.00238 0.53903 0.95293
 H1223 H -0.04293 0.51117 0.97034
 H1224 H -0.05716 0.51905 0.94188
 C1225 C 0.06573 -0.01213 0.83062
 C1226 C 0.07069 -0.02564 0.84213
 C1227 C 0.08533 -0.03593 0.83737
 C1228 C 0.09520 -0.03246 0.82139
 C1229 C 0.09060 -0.01858 0.81001
 C1230 C 0.07558 -0.00862 0.81465
 C1231 C 0.06163 -0.02789 0.85958
 C1232 C 0.05433 -0.02882 0.87450
 C1233 C 0.04616 -0.02863 0.89225
 C1234 C 0.03953 -0.02724 0.90755
 C1235 C 0.03208 -0.02398 0.92582
 C1236 C 0.01585 -0.03034 0.93088
 C1237 C 0.00780 -0.02508 0.94775
 C1238 C 0.01587 -0.01335 0.95977
 C1239 C 0.03242 -0.00746 0.95465
 C1240 C 0.04045 -0.01282 0.93792
 H1241 H 0.05453 -0.00397 0.83428
 H1242 H 0.08933 -0.04638 0.84623
 H1243 H 0.10655 -0.04051 0.81805
 H1244 H 0.07181 0.00228 0.80634
 H1245 H 0.00915 -0.03883 0.92149
 H1246 H -0.00506 -0.02960 0.95090
 H1247 H 0.03900 0.00177 0.96326
 H1248 H 0.05293 -0.00767 0.93407
 C1249 C 0.57483 0.46665 0.33272
 C1250 C 0.58137 0.47182 0.34990
 C1251 C 0.59714 0.48031 0.35055
 C1252 C 0.60627 0.48379 0.33413
 C1253 C 0.59976 0.47882 0.31676
 C1254 C 0.58397 0.47012 0.31624
 C1255 C 0.57161 0.46938 0.36688
 C1256 C 0.56372 0.46827 0.38144
 C1257 C 0.55484 0.46818 0.39879
 C1258 C 0.54756 0.46927 0.41378
 C1259 C 0.53929 0.47211 0.43173
 C1260 C 0.54714 0.48285 0.44467
 C1261 C 0.53836 0.48776 0.46114
 C1262 C 0.52157 0.48185 0.46511
 C1263 C 0.51402 0.47054 0.45224
 C1264 C 0.52282 0.46572 0.43565
 H1265 H 0.56259 0.46014 0.33207
 H1266 H 0.60223 0.48452 0.36375
 H1267 H 0.61822 0.49076 0.33501
 H1268 H 0.57872 0.46596 0.30310
 H1269 H 0.55981 0.48801 0.44170
 H1270 H 0.54459 0.49666 0.47046
 H1271 H 0.50102 0.46600 0.45451
 H1272 H 0.51654 0.45755 0.42560
 C1273 C 0.58161 0.53674 0.15913
 C1274 C 0.57389 0.52333 0.14928
 C1275 C 0.57591 0.50637 0.15525
 C1276 C 0.58586 0.50273 0.17075
 C1277 C 0.59397 0.51603 0.18053
 C1278 C 0.59155 0.53312 0.17472
 C1279 C 0.56465 0.52656 0.13247
 C1280 C 0.55722 0.52809 0.11800
 C1281 C 0.54895 0.52842 0.10069
 C1282 C 0.54232 0.52735 0.08570
 C1283 C 0.53501 0.52431 0.06773
 C1284 C 0.51839 0.53056 0.06357
 C1285 C 0.51059 0.52540 0.04702
 C1286 C 0.51933 0.51388 0.03443
 C1287 C 0.53623 0.50809 0.03867
 C1288 C 0.54400 0.51335 0.05506
 H1289 H 0.58021 0.54991 0.15456
 H1290 H 0.57001 0.49590 0.14774
 H1291 H 0.58726 0.48949 0.17505
 H1292 H 0.59776 0.54360 0.18190
 H1293 H 0.51120 0.53887 0.07341
 H1294 H 0.49745 0.52982 0.04458
 H1295 H 0.54333 0.49896 0.02965
 H1296 H 0.55679 0.50825 0.05822
 C1297 C 0.09688 1.02988 0.64292
 C1298 C 0.07916 1.03406 0.64461
 C1299 C 0.07102 1.03464 0.66222
 C1300 C 0.08049 1.03063 0.67802
 C1301 C 0.09819 1.02583 0.67634
 C1302 C 0.10635 1.02582 0.65866
 C1303 C 0.06911 1.03582 0.62809
 C1304 C 0.06105 1.03600 0.61392
 C1305 C 0.05214 1.03453 0.59706
 C1306 C 0.04510 1.03168 0.58257
 C1307 C 0.03755 1.02620 0.56540
 C1308 C 0.02377 1.03535 0.55749
 C1309 C 0.01594 1.02881 0.54149
 C1310 C 0.02192 1.01312 0.53315
 C1311 C 0.03574 1.00413 0.54143
 C1312 C 0.04354 1.01068 0.55723
 H1313 H 0.10329 1.02927 0.62935
 H1314 H 0.05726 1.03764 0.66367
 H1315 H 0.07383 1.03060 0.69143
 H1316 H 0.12000 1.02243 0.65698
 H1317 H 0.01885 1.04728 0.56387
 H1318 H 0.00501 1.03585 0.53591
 H1319 H 0.04028 0.99165 0.53624
 H1320 H 0.05399 1.00333 0.56342
 C1321 C -0.06652 0.48016 0.66304
 C1322 C -0.07135 0.46734 0.65039
 C1323 C -0.08570 0.45727 0.65443
 C1324 C -0.09539 0.46024 0.67090
 C1325 C -0.09086 0.47338 0.68351
 C1326 C -0.07618 0.48316 0.67949
 C1327 C -0.06236 0.46559 0.63269
 C1328 C -0.05503 0.46516 0.61772
 C1329 C -0.04673 0.46600 0.60010
 C1330 C -0.03996 0.46800 0.58506
 C1331 C -0.03235 0.47205 0.56728
 C1332 C -0.03817 0.48689 0.55843
 C1333 C -0.03011 0.49207 0.54202
 C1334 C -0.01620 0.48232 0.53386
 C1335 C -0.01045 0.46732 0.54288
 C1336 C -0.01853 0.46218 0.55944
 H1337 H -0.05554 0.48815 0.65996
 H1338 H -0.08961 0.44737 0.64468
 H1339 H -0.10648 0.45233 0.67372
 H1340 H -0.07249 0.49352 0.68875
 H1341 H -0.04865 0.49481 0.56456
 H1342 H -0.03447 0.50411 0.53623
 H1343 H 0.00055 0.45976 0.53740
 H1344 H -0.01375 0.45078 0.56633
 C1345 C 0.42755 -0.01561 0.16321
 C1346 C 0.42257 -0.02888 0.15120
 C1347 C 0.40847 -0.03901 0.15603
 C1348 C 0.39920 -0.03569 0.17271
 C1349 C 0.40391 -0.02215 0.18471
 C1350 C 0.41831 -0.01227 0.17986
 C1351 C 0.43132 -0.03127 0.13344
 C1352 C 0.43857 -0.03237 0.11843
 C1353 C 0.44694 -0.03249 0.10080
 C1354 C 0.45396 -0.03151 0.08574
 C1355 C 0.46215 -0.02891 0.06789
 C1356 C 0.47875 -0.03579 0.06375
 C1357 C 0.48749 -0.03127 0.04736
 C1358 C 0.47973 -0.01979 0.03488
 C1359 C 0.46282 -0.01333 0.03906
 C1360 C 0.45411 -0.01793 0.05535
 H1361 H 0.43835 -0.00760 0.15951
 H1362 H 0.40448 -0.04928 0.14680
 H1363 H 0.38832 -0.04366 0.17617
 H1364 H 0.42212 -0.00160 0.18865
 H1365 H 0.48519 -0.04413 0.07350
 H1366 H 0.50059 -0.03621 0.04496
 H1367 H 0.45643 -0.00428 0.03003
 H1368 H 0.44133 -0.01238 0.05849
 C1369 C 0.33154 0.45309 0.02972
 C1370 C 0.34706 0.44459 0.02414
 C1371 C 0.34680 0.42765 0.01727
 C1372 C 0.33111 0.41923 0.01580
 C1373 C 0.31539 0.42765 0.02121
 C1374 C 0.31577 0.44466 0.02827
 C1375 C 0.36333 0.45320 0.02468
 C1376 C 0.37738 0.45963 0.02434
 C1377 C 0.39422 0.46622 0.02301
 C1378 C 0.40886 0.47104 0.02108
 C1379 C 0.42654 0.47581 0.01784
 C1380 C 0.43751 0.46490 0.00704
 C1381 C 0.45459 0.46941 0.00327
 C1382 C 0.46108 0.48499 0.01025
 C1383 C 0.44990 0.49585 0.02125
 C1384 C 0.43275 0.49129 0.02500
 H1385 H 0.33161 0.46623 0.03503
 H1386 H 0.35873 0.42100 0.01278
 H1387 H 0.33126 0.40628 0.00997
 H1388 H 0.30389 0.45142 0.03269
 H1389 H 0.43282 0.45290 0.00138
 H1390 H 0.46257 0.46069 -0.00532
 H1391 H 0.45430 0.50795 0.02690
 H1392 H 0.42433 0.49986 0.03336
 C1393 C -0.15016 0.92471 0.51467
 C1394 C -0.14977 0.94128 0.52256
 C1395 C -0.16519 0.94945 0.52902
 C1396 C -0.18098 0.94107 0.52749
 C1397 C -0.18148 0.92441 0.51948
 C1398 C -0.16587 0.91634 0.51312
 C1399 C -0.13348 0.94984 0.52338
 C1400 C -0.11943 0.95629 0.52329
 C1401 C -0.10262 0.96298 0.52226
 C1402 C -0.08801 0.96795 0.52055
 C1403 C -0.07037 0.97300 0.51751
 C1404 C -0.06434 0.98836 0.52513
 C1405 C -0.04730 0.99330 0.52140
 C1406 C -0.03605 0.98293 0.50994
 C1407 C -0.04234 0.96742 0.50256
 C1408 C -0.05930 0.96253 0.50632
 H1409 H -0.13832 0.91832 0.50950
 H1410 H -0.16502 0.96230 0.53513
 H1411 H -0.19276 0.94755 0.53264
 H1412 H -0.16583 0.90367 0.50657
 H1413 H -0.07284 0.99659 0.53380
 H1414 H -0.04307 1.00534 0.52737
 H1415 H -0.03430 0.95907 0.49360
 H1416 H -0.06385 0.95062 0.50029
 C1417 C -0.17339 0.05279 0.96944
 C1418 C -0.15804 0.05996 0.97556
 C1419 C -0.15841 0.07645 0.98357
 C1420 C -0.17403 0.08577 0.98568
 C1421 C -0.18983 0.07878 0.97981
 C1422 C -0.18913 0.06207 0.97152
 C1423 C -0.14183 0.05042 0.97437
 C1424 C -0.12779 0.04328 0.97425
 C1425 C -0.11093 0.03597 0.97514
 C1426 C -0.09625 0.03066 0.97675
 C1427 C -0.07852 0.02547 0.97969
 C1428 C -0.06820 0.03609 0.99046
 C1429 C -0.05104 0.03130 0.99379
 C1430 C -0.04380 0.01574 0.98641
 C1431 C -0.05433 0.00515 0.97550
 C1432 C -0.07158 0.00999 0.97218
 H1433 H -0.17321 0.04002 0.96312
 H1434 H -0.14660 0.08204 0.98856
 H1435 H -0.17357 0.09808 0.99286
 H1436 H -0.20057 0.05619 0.96609
 H1437 H -0.07346 0.04810 0.99638
 H1438 H -0.04357 0.03983 1.00233
 H1439 H -0.04934 -0.00692 0.96953
 H1440 H -0.07949 0.00165 0.96382
 C1441 C 0.33454 0.55504 0.46990
 C1442 C 0.34900 0.56116 0.47918
 C1443 C 0.34751 0.57632 0.48994
 C1444 C 0.33167 0.58536 0.49148
 C1445 C 0.31703 0.57937 0.48222
 C1446 C 0.31863 0.56409 0.47142
 C1447 C 0.36539 0.55188 0.47807
 C1448 C 0.37935 0.54456 0.47781
 C1449 C 0.39592 0.53649 0.47830
 C1450 C 0.41019 0.52999 0.47942
 C1451 C 0.42733 0.52267 0.48161
 C1452 C 0.42995 0.50930 0.49408
 C1453 C 0.44674 0.50327 0.49763
 C1454 C 0.46123 0.51078 0.48908
 C1455 C 0.45833 0.52347 0.47565
 C1456 C 0.44152 0.52953 0.47214
 H1457 H 0.33556 0.54330 0.46154
 H1458 H 0.35859 0.58110 0.49727
 H1459 H 0.33080 0.59689 0.50017
 H1460 H 0.30763 0.55924 0.46403
 H1461 H 0.41903 0.50373 0.50130
 H1462 H 0.44825 0.49279 0.50715
 H1463 H 0.46907 0.52914 0.46822
 H1464 H 0.43964 0.53980 0.46233
 C1465 C 0.16663 0.55302 0.50498
 C1466 C 0.15261 0.56089 0.51481
 C1467 C 0.15430 0.57737 0.52264
 C1468 C 0.16987 0.58604 0.52048
 C1469 C 0.18396 0.57834 0.51041
 C1470 C 0.18221 0.56167 0.50279
 C1471 C 0.13626 0.55241 0.51610
 C1472 C 0.12245 0.54549 0.51670
 C1473 C 0.10617 0.53758 0.51677
 C1474 C 0.09221 0.53096 0.51618
 C1475 C 0.07553 0.52324 0.51460
 C1476 C 0.06111 0.53005 0.52461
 C1477 C 0.04466 0.52343 0.52173
 C1478 C 0.04233 0.51019 0.50842
 C1479 C 0.05712 0.50278 0.49932
 C1480 C 0.07354 0.50937 0.50225
 H1481 H 0.16545 0.54028 0.49883
 H1482 H 0.14349 0.58364 0.53015
 H1483 H 0.17071 0.59895 0.52628
 H1484 H 0.19288 0.55533 0.49515
 H1485 H 0.06251 0.54072 0.53434
 H1486 H 0.03370 0.52915 0.52946
 H1487 H 0.05612 0.49198 0.48978
 H1488 H 0.08465 0.50382 0.49461
 C1489 C 0.66419 0.04821 0.01154
 C1490 C 0.65005 0.05580 0.02138
 C1491 C 0.65129 0.07243 0.02897
 C1492 C 0.66650 0.08159 0.02641
 C1493 C 0.68066 0.07423 0.01614
 C1494 C 0.67942 0.05735 0.00895
 C1495 C 0.63386 0.04705 0.02255
 C1496 C 0.62011 0.04003 0.02287
 C1497 C 0.60382 0.03221 0.02246
 C1498 C 0.58977 0.02587 0.02141
 C1499 C 0.57290 0.01872 0.01926
 C1500 C 0.55848 0.02614 0.02874
 C1501 C 0.54187 0.02029 0.02518
 C1502 C 0.53938 0.00726 0.01166
 C1503 C 0.55413 -0.00085 0.00317
 C1504 C 0.57072 0.00498 0.00678
 H1505 H 0.66334 0.03536 0.00555
 H1506 H 0.64036 0.07848 0.03647
 H1507 H 0.66696 0.09464 0.03189
 H1508 H 0.69017 0.05127 0.00118
 H1509 H 0.56002 0.03670 0.03857
 H1510 H 0.53094 0.02641 0.03260
 H1511 H 0.55295 -0.01162 -0.00636
 H1512 H 0.58184 -0.00104 -0.00043
 C1513 C 0.66560 0.94002 0.46683
 C1514 C 0.65638 0.94818 0.48164
 C1515 C 0.66317 0.94800 0.49952
 C1516 C 0.67881 0.93925 0.50274
 C1517 C 0.68790 0.93053 0.48810
 C1518 C 0.68134 0.93129 0.47002
 C1519 C 0.63933 0.95556 0.47905
 C1520 C 0.62471 0.96122 0.47790
 C1521 C 0.60730 0.96724 0.47775
 C1522 C 0.59227 0.97186 0.47863
 C1523 C 0.57422 0.97673 0.48089
 C1524 C 0.56340 0.96651 0.49164
 C1525 C 0.54613 0.97152 0.49506
 C1526 C 0.53927 0.98691 0.48779
 C1527 C 0.55024 0.99696 0.47667
 C1528 C 0.56759 0.99191 0.47329
 H1529 H 0.66040 0.93998 0.45295
 H1530 H 0.65613 0.95424 0.51109
 H1531 H 0.68367 0.93907 0.51676
 H1532 H 0.68800 0.92456 0.45852
 H1533 H 0.56841 0.95477 0.49770
 H1534 H 0.53833 0.96344 0.50380
 H1535 H 0.54557 1.00890 0.47081
 H1536 H 0.57589 0.99998 0.46500
 C1537 C 0.16546 0.44501 0.96393
 C1538 C 0.15646 0.45366 0.97858
 C1539 C 0.16303 0.45327 0.99655
 C1540 C 0.17819 0.44382 1.00003
 C1541 C 0.18702 0.43459 0.98557
 C1542 C 0.18074 0.43558 0.96738
 C1543 C 0.13973 0.46169 0.97580
 C1544 C 0.12531 0.46785 0.97466
 C1545 C 0.10807 0.47435 0.97468
 C1546 C 0.09314 0.47925 0.97583
 C1547 C 0.07517 0.48427 0.97852
 C1548 C 0.06438 0.47373 0.98891
 C1549 C 0.04720 0.47878 0.99278
 C1550 C 0.04038 0.49451 0.98632
 C1551 C 0.05133 0.50492 0.97558
 C1552 C 0.06861 0.49983 0.97175
 H1553 H 0.16041 0.44513 0.94999
 H1554 H 0.15614 0.45987 1.00800
 H1555 H 0.18287 0.44347 1.01412
 H1556 H 0.18723 0.42850 0.95602
 H1557 H 0.06935 0.46170 0.99435
 H1558 H 0.03944 0.47042 1.00125
 H1559 H 0.04669 0.51713 0.97034
 H1560 H 0.07689 0.50815 0.96375
 C1561 C -0.02012 0.33187 0.44977
 C1562 C -0.00527 0.34167 0.45179
 C1563 C 0.01045 0.33592 0.44347
 C1564 C 0.01132 0.32055 0.43304
 C1565 C -0.00356 0.31066 0.43075
 C1566 C -0.01929 0.31646 0.43933
 C1567 C -0.00615 0.35800 0.46166
 C1568 C -0.00637 0.37196 0.46933
 C1569 C -0.00593 0.38864 0.47748
 C1570 C -0.00487 0.40315 0.48354
 C1571 C -0.00266 0.42077 0.48948
 C1572 C 0.01265 0.42890 0.48449
 C1573 C 0.01447 0.44643 0.48818
 C1574 C 0.00092 0.45632 0.49694
 C1575 C -0.01412 0.44778 0.50278
 C1576 C -0.01595 0.43016 0.49894
 H1577 H -0.03237 0.33620 0.45611
 H1578 H 0.02201 0.34346 0.44481
 H1579 H 0.02356 0.31662 0.42640
 H1580 H -0.03092 0.30906 0.43803
 H1581 H 0.02305 0.42177 0.47718
 H1582 H 0.02637 0.45223 0.48354
 H1583 H -0.02481 0.45478 0.50964
 H1584 H -0.02791 0.42401 0.50287
 C1585 C 0.48556 -0.16889 -0.05226
 C1586 C 0.50062 -0.15943 -0.05009
 C1587 C 0.51622 -0.16535 -0.05856
 C1588 C 0.51673 -0.18054 -0.06932
 C1589 C 0.50160 -0.19002 -0.07182
 C1590 C 0.48603 -0.18409 -0.06302
 C1591 C 0.49987 -0.14315 -0.04013
 C1592 C 0.49918 -0.12922 -0.03243
 C1593 C 0.49831 -0.11251 -0.02431
 C1594 C 0.49751 -0.09789 -0.01834
 C1595 C 0.49648 -0.08002 -0.01259
 C1596 C 0.50494 -0.07414 0.00326
 C1597 C 0.50506 -0.05647 0.00761
 C1598 C 0.49665 -0.04446 -0.00381
 C1599 C 0.48803 -0.05067 -0.01958
 C1600 C 0.48786 -0.06825 -0.02382
 H1601 H 0.47339 -0.16441 -0.04582
 H1602 H 0.52792 -0.15805 -0.05712
 H1603 H 0.52886 -0.18463 -0.07609
 H1604 H 0.47422 -0.19120 -0.06446
 H1605 H 0.51184 -0.08313 0.01194
 H1606 H 0.51227 -0.05226 0.01951
 H1607 H 0.48169 -0.04194 -0.02898
 H1608 H 0.48140 -0.07261 -0.03622
 C1609 C 0.00943 -0.14794 1.06825
 C1610 C 0.00048 -0.14688 1.05157
 C1611 C -0.00944 -0.16072 1.04565
 C1612 C -0.01047 -0.17552 1.05642
 C1613 C -0.00163 -0.17663 1.07331
 C1614 C 0.00840 -0.16269 1.07904
 C1615 C 0.00115 -0.13135 1.04093
 C1616 C 0.00174 -0.11799 1.03265
 C1617 C 0.00245 -0.10191 1.02380
 C1618 C 0.00304 -0.08778 1.01715
 C1619 C 0.00368 -0.07041 1.01049
 C1620 C -0.00541 -0.06544 0.99473
 C1621 C -0.00616 -0.04810 0.98966
 C1622 C 0.00220 -0.03548 1.00029
 C1623 C 0.01163 -0.04080 1.01586
 C1624 C 0.01242 -0.05808 1.02081
 H1625 H 0.01715 -0.13732 1.07298
 H1626 H -0.01650 -0.16001 1.03281
 H1627 H -0.01845 -0.18594 1.05172
 H1628 H 0.01557 -0.16323 1.09181
 H1629 H -0.01238 -0.07486 0.98672
 H1630 H -0.01386 -0.04457 0.97788
 H1631 H 0.01805 -0.03156 1.02462
 H1632 H 0.01940 -0.06172 1.03311
 C1633 C 0.50822 0.34479 0.56787
 C1634 C 0.50076 0.34552 0.55032
 C1635 C 0.49198 0.33129 0.54338
 C1636 C 0.49058 0.31643 0.55401
 C1637 C 0.49789 0.31567 0.57177
 C1638 C 0.50681 0.33000 0.57851
 C1639 C 0.50174 0.36114 0.53987
 C1640 C 0.50262 0.37463 0.53190
 C1641 C 0.50371 0.39093 0.52360
 C1642 C 0.50465 0.40528 0.51757
 C1643 C 0.50577 0.42291 0.51184
 C1644 C 0.49732 0.42874 0.49601
 C1645 C 0.49706 0.44630 0.49183
 C1646 C 0.50528 0.45827 0.50343
 C1647 C 0.51399 0.45209 0.51911
 C1648 C 0.51432 0.43461 0.52317
 H1649 H 0.51505 0.35572 0.57339
 H1650 H 0.48607 0.33174 0.52986
 H1651 H 0.48348 0.30569 0.54851
 H1652 H 0.51282 0.32973 0.59198
 H1653 H 0.49048 0.41981 0.48724
 H1654 H 0.48983 0.45051 0.47996
 H1655 H 0.52023 0.46081 0.52863
 H1656 H 0.52078 0.43030 0.53555
 C1657 C 0.47133 1.16145 0.56006
 C1658 C 0.48589 1.15528 0.54979
 C1659 C 0.50121 1.16458 0.54993
 C1660 C 0.50207 1.17983 0.56048
 C1661 C 0.48759 1.18601 0.57109
 C1662 C 0.47215 1.17673 0.57061
 C1663 C 0.48551 1.13893 0.53999
 C1664 C 0.48570 1.12498 0.53231
 C1665 C 0.48660 1.10830 0.52407
 C1666 C 0.48807 1.09379 0.51785
 C1667 C 0.49080 1.07615 0.51166
 C1668 C 0.50565 1.06720 0.51726
 C1669 C 0.50800 1.04972 0.51294
 C1670 C 0.49548 1.04071 0.50287
 C1671 C 0.48085 1.05003 0.49666
 C1672 C 0.47848 1.06760 0.50112
 H1673 H 0.45945 1.15430 0.56019
 H1674 H 0.51258 1.15991 0.54208
 H1675 H 0.51406 1.18679 0.56033
 H1676 H 0.46085 1.18102 0.57878
 H1677 H 0.51528 1.07365 0.52543
 H1678 H 0.51950 1.04328 0.51802
 H1679 H 0.47084 1.04367 0.48903
 H1680 H 0.46687 1.07438 0.49675
 C1681 C -0.01186 0.66170 1.07211
 C1682 C -0.00467 0.66119 1.05406
 C1683 C 0.00234 0.67609 1.04661
 C1684 C 0.00217 0.69143 1.05718
 C1685 C -0.00505 0.69206 1.07535
 C1686 C -0.01206 0.67699 1.08268
 C1687 C -0.00436 0.64524 1.04345
 C1688 C -0.00426 0.63154 1.03525
 C1689 C -0.00432 0.61506 1.02658
 C1690 C -0.00452 0.60059 1.02016
 C1691 C -0.00494 0.58286 1.01393
 C1692 C 0.00327 0.57729 0.99724
 C1693 C 0.00388 0.55972 0.99229
 C1694 C -0.00373 0.54751 1.00398
 C1695 C -0.01219 0.55343 1.02056
 C1696 C -0.01285 0.57089 1.02540
 H1697 H -0.01724 0.65023 1.07807
 H1698 H 0.00794 0.67587 1.03265
 H1699 H 0.00748 0.70284 1.05105
 H1700 H -0.01746 0.67694 1.09670
 H1701 H 0.00956 0.58643 0.98830
 H1702 H 0.01076 0.55572 0.97962
 H1703 H -0.01811 0.54454 1.03007
 H1704 H -0.01918 0.57502 1.03839
 C1705 C 0.51461 0.64956 -0.07044
 C1706 C 0.50439 0.64853 -0.05419
 C1707 C 0.49398 0.66269 -0.04828
 C1708 C 0.49374 0.67780 -0.05861
 C1709 C 0.50389 0.67891 -0.07505
 C1710 C 0.51437 0.66462 -0.08080
 C1711 C 0.50435 0.63273 -0.04397
 C1712 C 0.50446 0.61918 -0.03604
 C1713 C 0.50474 0.60287 -0.02763
 C1714 C 0.50511 0.58856 -0.02138
 C1715 C 0.50570 0.57099 -0.01526
 C1716 C 0.49684 0.56612 0.00095
 C1717 C 0.49640 0.54872 0.00576
 C1718 C 0.50483 0.53597 -0.00559
 C1719 C 0.51389 0.54117 -0.02170
 C1720 C 0.51439 0.55848 -0.02639
 H1721 H 0.52272 0.63869 -0.07516
 H1722 H 0.48594 0.66201 -0.03577
 H1723 H 0.48538 0.68849 -0.05393
 H1724 H 0.52253 0.66514 -0.09322
 H1725 H 0.48993 0.57569 0.00960
 H1726 H 0.48896 0.54528 0.01799
 H1727 H 0.52039 0.53183 -0.03098
 H1728 H 0.52120 0.56207 -0.03903
 C1729 C 0.01458 1.16365 0.45462
 C1730 C 0.00942 1.14807 0.44676
 C1731 C 0.00275 1.14780 0.42885
 C1732 C 0.00126 1.16297 0.41879
 C1733 C 0.00642 1.17893 0.42640
 C1734 C 0.01310 1.17891 0.44462
 C1735 C 0.01068 1.13230 0.45697
 C1736 C 0.01128 1.11874 0.46490
 C1737 C 0.01132 1.10246 0.47336
 C1738 C 0.01063 1.08821 0.47971
 C1739 C 0.00877 1.07083 0.48604
 C1740 C -0.00614 1.06203 0.48143
 C1741 C -0.00770 1.04472 0.48579
 C1742 C 0.00569 1.03573 0.49488
 C1743 C 0.02037 1.04495 0.50017
 C1744 C 0.02195 1.06234 0.49567
 H1745 H 0.01985 1.16402 0.46846
 H1746 H -0.00148 1.13582 0.42269
 H1747 H -0.00463 1.16204 0.40532
 H1748 H 0.01789 1.19046 0.45110
 H1749 H -0.01645 1.06844 0.47399
 H1750 H -0.01934 1.03839 0.48151
 H1751 H 0.03094 1.03864 0.50723
 H1752 H 0.03360 1.06903 0.49931
 C1753 C 0.76011 0.67761 0.90853
 C1754 C 0.77773 0.67833 0.90364
 C1755 C 0.79007 0.66977 0.91434
 C1756 C 0.78475 0.66028 0.92972
 C1757 C 0.76700 0.65916 0.93446
 C1758 C 0.75477 0.66810 0.92382
 C1759 C 0.78276 0.68700 0.88693
 C1760 C 0.78579 0.69395 0.87242
 C1761 C 0.78777 0.70167 0.85493
 C1762 C 0.78792 0.70783 0.83967
 C1763 C 0.78605 0.71456 0.82131
 C1764 C 0.79213 0.73083 0.81677
 C1765 C 0.78755 0.73832 0.79992
 C1766 C 0.77674 0.72965 0.78748
 C1767 C 0.77126 0.71304 0.79205
 C1768 C 0.77599 0.70556 0.80869
 H1769 H 0.75044 0.68416 0.90032
 H1770 H 0.80374 0.67014 0.91059
 H1771 H 0.79445 0.65338 0.93755
 H1772 H 0.74105 0.66767 0.92728
 H1773 H 0.79973 0.73803 0.82658
 H1774 H 0.79172 0.75124 0.79720
 H1775 H 0.76262 0.70604 0.78318
 H1776 H 0.77101 0.69306 0.81216
 C1777 C 0.28193 0.18324 0.41707
 C1778 C 0.28230 0.17527 0.39944
 C1779 C 0.27790 0.15797 0.39755
 C1780 C 0.27277 0.14875 0.41314
 C1781 C 0.27194 0.15673 0.43086
 C1782 C 0.27684 0.17400 0.43272
 C1783 C 0.28561 0.18509 0.38303
 C1784 C 0.28728 0.19296 0.36884
 C1785 C 0.28775 0.20168 0.35182
 C1786 C 0.28673 0.20862 0.33703
 C1787 C 0.28363 0.21620 0.31927
 C1788 C 0.27259 0.20787 0.30710
 C1789 C 0.26720 0.21595 0.29102
 C1790 C 0.27298 0.23248 0.28657
 C1791 C 0.28459 0.24054 0.29863
 C1792 C 0.28986 0.23244 0.31490
 H1793 H 0.28513 0.19668 0.41865
 H1794 H 0.27805 0.15170 0.38396
 H1795 H 0.26933 0.13540 0.41132
 H1796 H 0.27619 0.18052 0.44617
 H1797 H 0.26751 0.19539 0.31045
 H1798 H 0.25797 0.20939 0.28245
 H1799 H 0.28898 0.25341 0.29603
 H1800 H 0.29822 0.23912 0.32439
 C1801 C 0.73547 0.33889 0.40270
 C1802 C 0.72635 0.32361 0.40418
 C1803 C 0.72126 0.31778 0.42173
 C1804 C 0.72534 0.32722 0.43777
 C1805 C 0.73457 0.34258 0.43639
 C1806 C 0.73956 0.34830 0.41865
 C1807 C 0.72313 0.31371 0.38757
 C1808 C 0.72147 0.30590 0.37311
 C1809 C 0.72093 0.29737 0.35567
 C1810 C 0.72188 0.29062 0.34045
 C1811 C 0.72485 0.28328 0.32212
 C1812 C 0.71849 0.26715 0.31719
 C1813 C 0.72370 0.25921 0.30025
 C1814 C 0.73539 0.26731 0.28809
 C1815 C 0.74123 0.28377 0.29308
 C1816 C 0.73590 0.29170 0.30984
 H1817 H 0.73963 0.34342 0.38920
 H1818 H 0.71427 0.30592 0.42303
 H1819 H 0.72116 0.32258 0.45121
 H1820 H 0.74693 0.35989 0.41711
 H1821 H 0.71009 0.26041 0.32672
 H1822 H 0.71922 0.24640 0.29719
 H1823 H 0.75049 0.29036 0.28441
 H1824 H 0.74106 0.30411 0.31360
 C1825 C 0.23465 0.84321 0.90075
 C1826 C 0.22575 0.82779 0.90195
 C1827 C 0.22020 0.82195 0.91934
 C1828 C 0.22360 0.83152 0.93549
 C1829 C 0.23263 0.84702 0.93439
 C1830 C 0.23808 0.85276 0.91682
 C1831 C 0.22319 0.81776 0.88527
 C1832 C 0.22205 0.80984 0.87080
 C1833 C 0.22207 0.80118 0.85340
 C1834 C 0.22342 0.79434 0.83824
 C1835 C 0.22679 0.78692 0.82002
 C1836 C 0.22055 0.77075 0.81500
 C1837 C 0.22594 0.76284 0.79811
 C1838 C 0.23768 0.77101 0.78607
 C1839 C 0.24346 0.78747 0.79117
 C1840 C 0.23796 0.79536 0.80789
 H1841 H 0.23917 0.84776 0.88737
 H1842 H 0.21336 0.80998 0.92043
 H1843 H 0.21908 0.82686 0.94880
 H1844 H 0.24530 0.86447 0.91551
 H1845 H 0.21205 0.76400 0.82442
 H1846 H 0.22151 0.75003 0.79497
 H1847 H 0.25273 0.79412 0.78257
 H1848 H 0.24302 0.80780 0.81171
 C1849 C 0.26938 0.84628 0.10596
 C1850 C 0.27826 0.83047 0.10388
 C1851 C 0.28341 0.82446 0.08612
 C1852 C 0.27940 0.83411 0.07045
 C1853 C 0.26990 0.84991 0.07222
 C1854 C 0.26526 0.85591 0.09041
 C1855 C 0.28083 0.82008 0.11999
 C1856 C 0.28175 0.81185 0.13400
 C1857 C 0.28126 0.80286 0.15086
 C1858 C 0.27939 0.79581 0.16553
 C1859 C 0.27532 0.78825 0.18316
 C1860 C 0.28126 0.77165 0.18743
 C1861 C 0.27523 0.76376 0.20363
 C1862 C 0.26315 0.77240 0.21572
 C1863 C 0.25762 0.78925 0.21135
 C1864 C 0.26375 0.79711 0.19533
 H1865 H 0.26541 0.85111 0.11968
 H1866 H 0.29015 0.81211 0.08434
 H1867 H 0.28298 0.82855 0.05698
 H1868 H 0.25879 0.86827 0.09290
 H1869 H 0.29004 0.76457 0.17795
 H1870 H 0.27946 0.75066 0.20617
 H1871 H 0.24809 0.79628 0.21998
 H1872 H 0.25890 0.80989 0.19206
 C1873 C 0.77719 0.34222 0.60673
 C1874 C 0.78503 0.32591 0.60449
 C1875 C 0.78931 0.31954 0.58663
 C1876 C 0.78532 0.32928 0.57102
 C1877 C 0.77664 0.34551 0.57298
 C1878 C 0.77306 0.35193 0.59124
 C1879 C 0.78688 0.31527 0.62053
 C1880 C 0.78687 0.30684 0.63443
 C1881 C 0.78490 0.29767 0.65106
 C1882 C 0.78142 0.29053 0.66535
 C1883 C 0.77503 0.28299 0.68220
 C1884 C 0.75868 0.28840 0.68902
 C1885 C 0.75138 0.28075 0.70457
 C1886 C 0.76043 0.26770 0.71398
 C1887 C 0.77692 0.26223 0.70693
 C1888 C 0.78422 0.26991 0.69118
 H1889 H 0.77387 0.34732 0.62052
 H1890 H 0.79521 0.30680 0.58472
 H1891 H 0.78811 0.32345 0.55748
 H1892 H 0.76731 0.36462 0.59381
 H1893 H 0.75130 0.29829 0.68198
 H1894 H 0.73835 0.28480 0.70872
 H1895 H 0.78405 0.25182 0.71335
 H1896 H 0.79681 0.26543 0.68584
 C1897 C 0.22961 0.18434 0.58726
 C1898 C 0.21629 0.17911 0.59925
 C1899 C 0.20662 0.16472 0.59457
 C1900 C 0.21050 0.15537 0.57814
 C1901 C 0.22416 0.16027 0.56622
 C1902 C 0.23352 0.17501 0.57085
 C1903 C 0.21357 0.18777 0.61696
 C1904 C 0.21227 0.19482 0.63201
 C1905 C 0.21200 0.20283 0.64977
 C1906 C 0.21296 0.20941 0.66500
 C1907 C 0.21565 0.21691 0.68311
 C1908 C 0.22643 0.20823 0.69539
 C1909 C 0.23126 0.21624 0.71191
 C1910 C 0.22521 0.23307 0.71663
 C1911 C 0.21391 0.24149 0.70441
 C1912 C 0.20917 0.23345 0.68775
 H1913 H 0.23729 0.19536 0.59085
 H1914 H 0.19633 0.16052 0.60380
 H1915 H 0.20291 0.14422 0.57483
 H1916 H 0.24426 0.17899 0.56212
 H1917 H 0.23168 0.19549 0.69184
 H1918 H 0.24020 0.20938 0.72069
 H1919 H 0.20932 0.25456 0.70720
 H1920 H 0.20100 0.24039 0.67820
 C1921 C 0.71697 0.65383 0.10260
 C1922 C 0.71191 0.67119 0.10209
 C1923 C 0.71039 0.67926 0.08499
 C1924 C 0.71430 0.67010 0.06843
 C1925 C 0.71997 0.65261 0.06863
 C1926 C 0.72090 0.64462 0.08614
 C1927 C 0.70977 0.68097 0.11920
 C1928 C 0.70903 0.68890 0.13376
 C1929 C 0.70950 0.69782 0.15099
 C1930 C 0.71115 0.70506 0.16578
 C1931 C 0.71473 0.71314 0.18338
 C1932 C 0.70791 0.72955 0.18812
 C1933 C 0.71324 0.73801 0.20431
 C1934 C 0.72546 0.73015 0.21596
 C1935 C 0.73191 0.71349 0.21112
 C1936 C 0.72650 0.70506 0.19508
 H1937 H 0.71843 0.64752 0.11582
 H1938 H 0.70643 0.69272 0.08443
 H1939 H 0.71251 0.67684 0.05557
 H1940 H 0.72568 0.63151 0.08749
 H1941 H 0.69895 0.73602 0.17902
 H1942 H 0.70828 0.75094 0.20723
 H1943 H 0.74152 0.70704 0.21946
 H1944 H 0.73201 0.69244 0.19145
 C1945 C 0.18632 0.59418 0.21030
 C1946 C 0.19887 0.59897 0.22304
 C1947 C 0.20400 0.58750 0.23677
 C1948 C 0.19627 0.57148 0.23812
 C1949 C 0.18324 0.56676 0.22576
 C1950 C 0.17857 0.57816 0.21162
 C1951 C 0.20542 0.61613 0.22304
 C1952 C 0.21041 0.63069 0.22374
 C1953 C 0.21569 0.64788 0.22537
 C1954 C 0.21975 0.66265 0.22743
 C1955 C 0.22407 0.68033 0.23066
 C1956 C 0.23986 0.68662 0.22412
 C1957 C 0.24421 0.70365 0.22802
 C1958 C 0.23283 0.71467 0.23858
 C1959 C 0.21690 0.70815 0.24488
 C1960 C 0.21259 0.69116 0.24095
 H1961 H 0.18222 0.60300 0.19965
 H1962 H 0.21360 0.59115 0.24680
 H1963 H 0.19998 0.56310 0.24931
 H1964 H 0.16873 0.57479 0.20176
 H1965 H 0.24888 0.67831 0.21617
 H1966 H 0.25660 0.70806 0.22288
 H1967 H 0.20778 0.71603 0.25313
 H1968 H 0.20035 0.68640 0.24616
 C1969 C 0.70353 0.08135 0.73361
 C1970 C 0.69579 0.09418 0.72298
 C1971 C 0.68046 0.09086 0.71375
 C1972 C 0.67253 0.07500 0.71563
 C1973 C 0.67972 0.06204 0.72695
 C1974 C 0.69568 0.06542 0.73551
 C1975 C 0.70274 0.11119 0.72278
 C1976 C 0.70794 0.12568 0.72326
 C1977 C 0.71336 0.14286 0.72457
 C1978 C 0.71743 0.15766 0.72636
 C1979 C 0.72167 0.17541 0.72931
 C1980 C 0.71025 0.18622 0.73970
 C1981 C 0.71447 0.20328 0.74339
 C1982 C 0.73025 0.20990 0.73678
 C1983 C 0.74156 0.19890 0.72609
 C1984 C 0.73729 0.18179 0.72242
 H1985 H 0.71534 0.08386 0.74098
 H1986 H 0.67442 0.10069 0.70536
 H1987 H 0.66086 0.07299 0.70790
 H1988 H 0.70170 0.05634 0.74474
 H1989 H 0.69813 0.18140 0.74517
 H1990 H 0.70541 0.21113 0.75175
 H1991 H 0.75383 0.20338 0.72072
 H1992 H 0.74626 0.17350 0.71438
 C1993 C 0.81784 0.09004 0.25498
 C1994 C 0.80471 0.09236 0.26858
 C1995 C 0.80053 0.07879 0.28028
 C1996 C 0.80958 0.06296 0.27845
 C1997 C 0.82297 0.06063 0.26494
 C1998 C 0.82689 0.07431 0.25315
 C1999 C 0.79596 0.10889 0.27044
 C2000 C 0.78946 0.12315 0.27115
 C2001 C 0.78285 0.14024 0.27097
 C2002 C 0.77808 0.15507 0.26995
 C2003 C 0.77345 0.17295 0.26770
 C2004 C 0.75776 0.17994 0.27489
 C2005 C 0.75334 0.19726 0.27197
 C2006 C 0.76456 0.20783 0.26177
 C2007 C 0.78036 0.20056 0.25478
 C2008 C 0.78473 0.18333 0.25772
 H2009 H 0.82114 0.10043 0.24580
 H2010 H 0.79040 0.08047 0.29088
 H2011 H 0.80636 0.05267 0.28778
 H2012 H 0.83689 0.07282 0.24239
 H2013 H 0.74890 0.17199 0.28261
 H2014 H 0.74106 0.20226 0.27760
 H2015 H 0.78935 0.20804 0.24673
 H2016 H 0.79690 0.17804 0.25202
 C2017 C 0.29749 0.58236 0.76361
 C2018 C 0.30601 0.59597 0.77218
 C2019 C 0.32246 0.59314 0.77956
 C2020 C 0.33055 0.57687 0.77798
 C2021 C 0.32231 0.56320 0.76894
 C2022 C 0.30557 0.56606 0.76202
 C2023 C 0.29849 0.61312 0.77221
 C2024 C 0.29270 0.62764 0.77163
 C2025 C 0.28651 0.64481 0.77026
 C2026 C 0.28179 0.65959 0.76851
 C2027 C 0.27685 0.67732 0.76572
 C2028 C 0.26118 0.68421 0.77309
 C2029 C 0.25644 0.70141 0.76992
 C2030 C 0.26731 0.71197 0.75929
 C2031 C 0.28307 0.70479 0.75205
 C2032 C 0.28777 0.68767 0.75524
 H2033 H 0.28478 0.58442 0.75781
 H2034 H 0.32923 0.60363 0.78608
 H2035 H 0.34353 0.57516 0.78322
 H2036 H 0.29880 0.55575 0.75518
 H2037 H 0.25260 0.67629 0.78121
 H2038 H 0.24421 0.70632 0.77577
 H2039 H 0.29182 0.71230 0.74374
 H2040 H 0.29991 0.68246 0.74942
 C2041 C 0.32045 0.40246 0.72585
 C2042 C 0.30396 0.40092 0.73397
 C2043 C 0.29631 0.41488 0.74384
 C2044 C 0.30519 0.43025 0.74588
 C2045 C 0.32210 0.43199 0.73813
 C2046 C 0.32941 0.41778 0.72786
 C2047 C 0.29526 0.38476 0.73295
 C2048 C 0.28820 0.37109 0.73262
 C2049 C 0.28020 0.35495 0.73285
 C2050 C 0.27361 0.34106 0.73365
 C2051 C 0.26607 0.32439 0.73538
 C2052 C 0.25296 0.32190 0.74872
 C2053 C 0.24671 0.30543 0.75168
 C2054 C 0.25373 0.29109 0.74161
 C2055 C 0.26614 0.29395 0.72738
 C2056 C 0.27241 0.31044 0.72446
 H2057 H 0.32646 0.39175 0.71805
 H2058 H 0.28359 0.41376 0.75037
 H2059 H 0.29898 0.44030 0.75443
 H2060 H 0.34192 0.41843 0.72086
 H2061 H 0.24778 0.33265 0.75709
 H2062 H 0.23649 0.30402 0.76199
 H2063 H 0.27150 0.28336 0.71891
 H2064 H 0.28248 0.31223 0.71398
 C2065 C 0.81886 0.90055 0.22389
 C2066 C 0.80223 0.89926 0.23182
 C2067 C 0.79464 0.91334 0.24165
 C2068 C 0.80376 0.92856 0.24379
 C2069 C 0.82062 0.92988 0.23614
 C2070 C 0.82800 0.91575 0.22600
 C2071 C 0.79338 0.88319 0.23078
 C2072 C 0.78628 0.86954 0.23039
 C2073 C 0.77834 0.85337 0.23058
 C2074 C 0.77191 0.83941 0.23133
 C2075 C 0.76468 0.82260 0.23302
 C2076 C 0.75131 0.81994 0.24601
 C2077 C 0.74549 0.80333 0.24911
 C2078 C 0.75326 0.78903 0.23958
 C2079 C 0.76583 0.79205 0.22557
 C2080 C 0.77166 0.80867 0.22251
 H2081 H 0.82491 0.88968 0.21639
 H2082 H 0.78179 0.91246 0.24788
 H2083 H 0.79765 0.93927 0.25147
 H2084 H 0.84104 0.91626 0.22017
 H2085 H 0.74559 0.83068 0.25402
 H2086 H 0.73503 0.80177 0.25910
 H2087 H 0.77165 0.78150 0.21738
 H2088 H 0.78191 0.81060 0.21226
 C2089 C 0.70006 0.90698 0.74845
 C2090 C 0.70542 0.90327 0.76637
 C2091 C 0.70165 0.91499 0.78097
 C2092 C 0.69216 0.93022 0.77771
 C2093 C 0.68602 0.93389 0.75976
 C2094 C 0.69054 0.92206 0.74513
 C2095 C 0.71388 0.88691 0.76960
 C2096 C 0.72030 0.87272 0.77116
 C2097 C 0.72698 0.85566 0.77168
 C2098 C 0.73192 0.84082 0.77104
 C2099 C 0.73687 0.82289 0.76900
 C2100 C 0.75255 0.81648 0.77587
 C2101 C 0.75746 0.79916 0.77280
 C2102 C 0.74677 0.78801 0.76275
 C2103 C 0.73095 0.79469 0.75615
 C2104 C 0.72607 0.81191 0.75926
 H2105 H 0.70306 0.89807 0.73699
 H2106 H 0.70566 0.91218 0.79497
 H2107 H 0.68889 0.93850 0.78958
 H2108 H 0.68712 0.92447 0.73089
 H2109 H 0.76106 0.82490 0.78337
 H2110 H 0.76975 0.79464 0.77811
 H2111 H 0.72236 0.78676 0.74820
 H2112 H 0.71395 0.81674 0.75378
 C2113 C 0.19883 0.41782 0.28273
 C2114 C 0.20743 0.40861 0.26821
 C2115 C 0.20736 0.41503 0.25017
 C2116 C 0.19824 0.43028 0.24648
 C2117 C 0.18905 0.43933 0.26081
 C2118 C 0.18974 0.43317 0.27907
 C2119 C 0.21495 0.39179 0.27123
 C2120 C 0.22061 0.37730 0.27267
 C2121 C 0.22645 0.35998 0.27309
 C2122 C 0.23074 0.34496 0.27238
 C2123 C 0.23500 0.32690 0.27027
 C2124 C 0.22362 0.31631 0.26081
 C2125 C 0.22792 0.29899 0.25747
 C2126 C 0.24373 0.29184 0.26354
 C2127 C 0.25499 0.30259 0.27336
 C2128 C 0.25065 0.32001 0.27666
 H2129 H 0.19869 0.41288 0.29672
 H2130 H 0.21392 0.40797 0.23882
 H2131 H 0.19811 0.43486 0.23234
 H2132 H 0.18265 0.43982 0.29034
 H2133 H 0.21151 0.32154 0.25568
 H2134 H 0.21893 0.29138 0.24970
 H2135 H 0.26729 0.29770 0.27827
 H2136 H 0.25961 0.32813 0.28393
 C2137 C 0.08547 0.24179 0.82190
 C2138 C 0.08594 0.24901 0.80421
 C2139 C 0.07088 0.25658 0.79710
 C2140 C 0.05543 0.25702 0.80771
 C2141 C 0.05487 0.24991 0.82559
 C2142 C 0.07007 0.24222 0.83251
 C2143 C 0.10209 0.24902 0.79374
 C2144 C 0.11600 0.24895 0.78573
 C2145 C 0.13274 0.24874 0.77736
 C2146 C 0.14744 0.24844 0.77126
 C2147 C 0.16543 0.24788 0.76542
 C2148 C 0.17120 0.25669 0.74972
 C2149 C 0.18897 0.25710 0.74525
 C2150 C 0.20120 0.24865 0.75641
 C2151 C 0.19511 0.23974 0.77207
 C2152 C 0.17744 0.23927 0.77642
 H2153 H 0.09708 0.23599 0.82759
 H2154 H 0.07109 0.26221 0.78343
 H2155 H 0.04391 0.26286 0.80190
 H2156 H 0.07016 0.23687 0.84631
 H2157 H 0.16202 0.26358 0.74121
 H2158 H 0.19308 0.26449 0.73343
 H2159 H 0.20401 0.23330 0.78125
 H2160 H 0.17316 0.23254 0.78871
 C2161 C 0.58833 0.73729 0.32640
 C2162 C 0.58835 0.74424 0.30857
 C2163 C 0.57295 0.75117 0.30155
 C2164 C 0.55762 0.75122 0.31235
 C2165 C 0.55749 0.74433 0.33035
 C2166 C 0.57304 0.73731 0.33721
 C2167 C 0.60431 0.74452 0.29778
 C2168 C 0.61802 0.74468 0.28937
 C2169 C 0.63451 0.74473 0.28040
 C2170 C 0.64900 0.74464 0.27369
 C2171 C 0.66678 0.74433 0.26706
 C2172 C 0.67182 0.75324 0.25115
 C2173 C 0.68942 0.75387 0.24589
 C2174 C 0.70219 0.74553 0.25645
 C2175 C 0.69682 0.73650 0.27233
 C2176 C 0.67932 0.73582 0.27747
 H2177 H 0.60019 0.73197 0.33203
 H2178 H 0.57279 0.75658 0.28777
 H2179 H 0.54583 0.75652 0.30657
 H2180 H 0.57346 0.73214 0.35108
 H2181 H 0.66223 0.76005 0.24309
 H2182 H 0.69298 0.76137 0.23394
 H2183 H 0.70615 0.73015 0.28109
 H2184 H 0.67562 0.72899 0.28989
 C2185 C 0.58822 0.26355 0.19831
 C2186 C 0.60217 0.25201 0.19476
 C2187 C 0.60115 0.23965 0.18044
 C2188 C 0.58632 0.23888 0.16964
 C2189 C 0.57226 0.25050 0.17300
 C2190 C 0.57334 0.26280 0.18754
 C2191 C 0.61780 0.25312 0.20533
 C2192 C 0.63119 0.25395 0.21363
 C2193 C 0.64729 0.25479 0.22259
 C2194 C 0.66143 0.25540 0.22941
 C2195 C 0.67882 0.25595 0.23633
 C2196 C 0.69154 0.26431 0.22602
 C2197 C 0.70884 0.26336 0.23126
 C2198 C 0.71379 0.25413 0.24709
 C2199 C 0.70078 0.24619 0.25772
 C2200 C 0.68342 0.24709 0.25236
 H2201 H 0.58890 0.27325 0.20928
 H2202 H 0.61187 0.23064 0.17755
 H2203 H 0.58580 0.22910 0.15875
 H2204 H 0.56283 0.27205 0.19034
 H2205 H 0.68817 0.27111 0.21352
 H2206 H 0.71838 0.26951 0.22254
 H2207 H 0.70403 0.23869 0.26973
 H2208 H 0.67369 0.24043 0.26037
 C2209 C 0.08866 0.76232 0.69922
 C2210 C 0.10453 0.75503 0.69283
 C2211 C 0.10557 0.74654 0.67550
 C2212 C 0.09086 0.74529 0.66459
 C2213 C 0.07483 0.75254 0.67087
 C2214 C 0.07390 0.76110 0.68831
 C2215 C 0.11989 0.75640 0.70378
 C2216 C 0.13316 0.75735 0.71228
 C2217 C 0.14920 0.75826 0.72134
 C2218 C 0.16334 0.75889 0.72813
 C2219 C 0.18077 0.75949 0.73490
 C2220 C 0.18559 0.75046 0.75074
 C2221 C 0.20302 0.74960 0.75588
 C2222 C 0.21586 0.75776 0.74522
 C2223 C 0.21069 0.76711 0.72957
 C2224 C 0.19333 0.76803 0.72455
 H2225 H 0.08770 0.76894 0.71261
 H2226 H 0.11780 0.74094 0.67035
 H2227 H 0.09210 0.73886 0.65112
 H2228 H 0.06172 0.76665 0.69362
 H2229 H 0.17600 0.74363 0.75877
 H2230 H 0.20644 0.74198 0.76775
 H2231 H 0.22010 0.77341 0.72081
 H2232 H 0.18979 0.77494 0.71218
 C2233 C 0.91935 0.72862 0.68496
 C2234 C 0.91345 0.74335 0.69482
 C2235 C 0.92286 0.75845 0.69376
 C2236 C 0.93803 0.75890 0.68275
 C2237 C 0.94413 0.74422 0.67238
 C2238 C 0.93447 0.72899 0.67390
 C2239 C 0.89731 0.74312 0.70533
 C2240 C 0.88352 0.74283 0.71355
 C2241 C 0.86698 0.74241 0.72239
 C2242 C 0.85251 0.74201 0.72909
 C2243 C 0.83480 0.74150 0.73585
 C2244 C 0.82940 0.75043 0.75214
 C2245 C 0.81180 0.75113 0.75750
 C2246 C 0.79937 0.74290 0.74661
 C2247 C 0.80512 0.73365 0.73048
 C2248 C 0.82264 0.73291 0.72524
 H2249 H 0.91221 0.71681 0.68574
 H2250 H 0.91831 0.77002 0.70119
 H2251 H 0.94436 0.77112 0.68183
 H2252 H 0.93871 0.71706 0.66707
 H2253 H 0.83869 0.75726 0.76041
 H2254 H 0.80794 0.75862 0.76978
 H2255 H 0.79604 0.72726 0.72158
 H2256 H 0.82663 0.72603 0.71255
 C2257 C 0.40972 0.23680 0.17466
 C2258 C 0.40890 0.24375 0.19276
 C2259 C 0.42368 0.25099 0.20036
 C2260 C 0.43917 0.25134 0.18987
 C2261 C 0.44009 0.24445 0.17161
 C2262 C 0.42518 0.23713 0.16416
 C2263 C 0.39276 0.24373 0.20326
 C2264 C 0.37896 0.24371 0.21150
 C2265 C 0.36242 0.24368 0.22039
 C2266 C 0.34797 0.24366 0.22717
 C2267 C 0.33030 0.24367 0.23413
 C2268 C 0.32536 0.25257 0.25059
 C2269 C 0.30785 0.25371 0.25624
 C2270 C 0.29503 0.24593 0.24549
 C2271 C 0.30029 0.23676 0.22913
 C2272 C 0.31773 0.23559 0.22359
 H2273 H 0.39835 0.23125 0.16859
 H2274 H 0.42321 0.25641 0.21436
 H2275 H 0.45046 0.25687 0.19609
 H2276 H 0.42535 0.23195 0.15007
 H2277 H 0.33497 0.25901 0.25878
 H2278 H 0.30438 0.26118 0.26865
 H2279 H 0.29090 0.23073 0.22032
 H2280 H 0.32136 0.22875 0.21077
 C2281 C 0.39591 0.74095 0.32470
 C2282 C 0.39542 0.75129 0.30896
 C2283 C 0.41001 0.76064 0.30386
 C2284 C 0.42497 0.75973 0.31451
 C2285 C 0.42553 0.74948 0.33045
 C2286 C 0.41084 0.74003 0.33536
 C2287 C 0.37975 0.75265 0.29848
 C2288 C 0.36632 0.75379 0.29023
 C2289 C 0.35019 0.75510 0.28133
 C2290 C 0.33604 0.75619 0.27455
 C2291 C 0.31867 0.75746 0.26764
 C2292 C 0.31419 0.74889 0.25119
 C2293 C 0.29687 0.74890 0.24565
 C2294 C 0.28379 0.75751 0.25649
 C2295 C 0.28861 0.76634 0.27283
 C2296 C 0.30586 0.76637 0.27825
 H2297 H 0.38470 0.73365 0.32879
 H2298 H 0.40976 0.76877 0.29178
 H2299 H 0.43598 0.76732 0.31048
 H2300 H 0.41092 0.73184 0.34738
 H2301 H 0.32397 0.74179 0.24294
 H2302 H 0.29372 0.74163 0.23327
 H2303 H 0.27901 0.77296 0.28173
 H2304 H 0.30914 0.77295 0.29108
 C2305 C 0.90549 0.27214 0.80410
 C2306 C 0.89195 0.26095 0.80784
 C2307 C 0.89353 0.24906 0.82213
 C2308 C 0.90856 0.24831 0.83265
 C2309 C 0.92227 0.25947 0.82901
 C2310 C 0.92056 0.27141 0.81460
 C2311 C 0.87635 0.26157 0.79715
 C2312 C 0.86303 0.26158 0.78866
 C2313 C 0.84707 0.26091 0.77941
 C2314 C 0.83312 0.25965 0.77228
 C2315 C 0.81611 0.25716 0.76493
 C2316 C 0.80746 0.24212 0.76922
 C2317 C 0.79039 0.23997 0.76380
 C2318 C 0.78151 0.25289 0.75394
 C2319 C 0.79063 0.26770 0.74899
 C2320 C 0.80777 0.26987 0.75456
 H2321 H 0.90439 0.28144 0.79311
 H2322 H 0.88315 0.24030 0.82513
 H2323 H 0.90955 0.23881 0.84344
 H2324 H 0.93079 0.28031 0.81160
 H2325 H 0.81377 0.23217 0.77723
 H2326 H 0.78413 0.22827 0.76787
 H2327 H 0.78441 0.27791 0.74135
 H2328 H 0.81434 0.28161 0.75115
 C2329 C 0.56887 0.98534 0.66014
 C2330 C 0.57553 0.97368 0.64657
 C2331 C 0.59149 0.96521 0.64919
 C2332 C 0.60092 0.96864 0.66515
 C2333 C 0.59454 0.98064 0.67868
 C2334 C 0.57829 0.98878 0.67613
 C2335 C 0.56666 0.97145 0.62934
 C2336 C 0.55952 0.97036 0.61464
 C2337 C 0.55151 0.97014 0.59721
 C2338 C 0.54493 0.97104 0.58220
 C2339 C 0.53742 0.97355 0.56430
 C2340 C 0.54601 0.98370 0.55137
 C2341 C 0.53791 0.98841 0.53502
 C2342 C 0.52106 0.98289 0.53117
 C2343 C 0.51277 0.97214 0.54400
 C2344 C 0.52090 0.96752 0.56046
 H2345 H 0.55661 0.99209 0.65815
 H2346 H 0.59679 0.95621 0.63873
 H2347 H 0.61327 0.96198 0.66686
 H2348 H 0.57312 0.99821 0.68618
 H2349 H 0.55873 0.98858 0.55427
 H2350 H 0.54468 0.99691 0.52574
 H2351 H 0.49969 0.96795 0.54186
 H2352 H 0.51404 0.95982 0.57050
 C2353 C 0.09843 0.48309 1.13994
 C2354 C 0.08149 0.47737 1.14157
 C2355 C 0.07408 0.47499 1.15916
 C2356 C 0.08350 0.47850 1.17514
 C2357 C 0.10071 0.48463 1.17396
 C2358 C 0.10793 0.48666 1.15579
 C2359 C 0.07149 0.47509 1.12510
 C2360 C 0.06347 0.47411 1.11095
 C2361 C 0.05453 0.47421 1.09406
 C2362 C 0.04733 0.47551 1.07944
 C2363 C 0.03932 0.47868 1.06192
 C2364 C 0.02260 0.47306 1.05838
 C2365 C 0.01416 0.47826 1.04229
 C2366 C 0.02238 0.48915 1.02954
 C2367 C 0.03937 0.49435 1.03318
 C2368 C 0.04777 0.48906 1.04912
 H2369 H 0.10420 0.48527 1.12633
 H2370 H 0.06094 0.47047 1.16057
 H2371 H 0.07720 0.47568 1.18825
 H2372 H 0.12054 0.49201 1.15335
 H2373 H 0.01583 0.46521 1.06836
 H2374 H 0.00095 0.47437 1.04036
 H2375 H 0.04607 0.50303 1.02403
 H2376 H 0.06065 0.49366 1.05183
 C2377 C -0.06889 0.02324 1.16418
 C2378 C -0.07773 0.02420 1.14747
 C2379 C -0.09529 0.02031 1.14709
 C2380 C -0.10401 0.01538 1.16327
 C2381 C -0.09535 0.01419 1.18038
 C2382 C -0.07755 0.01831 1.18046
 C2383 C -0.06871 0.02811 1.13038
 C2384 C -0.06159 0.03055 1.11561
 C2385 C -0.05375 0.03221 1.09784
 C2386 C -0.04748 0.03238 1.08235
 C2387 C -0.04051 0.03083 1.06366
 C2388 C -0.04939 0.02103 1.05066
 C2389 C -0.04166 0.01675 1.03345
 C2390 C -0.02493 0.02240 1.02873
 C2391 C -0.01643 0.03298 1.04161
 C2392 C -0.02417 0.03713 1.05898
 H2393 H -0.05525 0.02622 1.16462
 H2394 H -0.10220 0.02072 1.13413
 H2395 H -0.11736 0.01173 1.16189
 H2396 H -0.07025 0.01830 1.19312
 H2397 H -0.06196 0.01591 1.05419
 H2398 H -0.04854 0.00826 1.02425
 H2399 H -0.00341 0.03726 1.03879
 H2400 H -0.01708 0.04456 1.06905
 C2401 C 0.43078 0.52944 0.66685
 C2402 C 0.42230 0.52911 0.64983
 C2403 C 0.40494 0.52434 0.64923
 C2404 C 0.39619 0.51956 0.66546
 C2405 C 0.40470 0.51944 0.68256
 C2406 C 0.42201 0.52471 0.68316
 C2407 C 0.43169 0.53199 0.63269
 C2408 C 0.43923 0.53322 0.61793
 C2409 C 0.44762 0.53306 0.60029
 C2410 C 0.45435 0.53134 0.58506
 C2411 C 0.46176 0.52717 0.56695
 C2412 C 0.47524 0.53662 0.55914
 C2413 C 0.48334 0.53100 0.54238
 C2414 C 0.47802 0.51587 0.53322
 C2415 C 0.46431 0.50670 0.54125
 C2416 C 0.45621 0.51238 0.55779
 H2417 H 0.44428 0.53292 0.66744
 H2418 H 0.39828 0.52394 0.63612
 H2419 H 0.38279 0.51584 0.66462
 H2420 H 0.42893 0.52462 0.69610
 H2421 H 0.47980 0.54801 0.56625
 H2422 H 0.49410 0.53820 0.53692
 H2423 H 0.46022 0.49462 0.53535
 H2424 H 0.44599 0.50479 0.56385
 C2425 C 0.41410 0.45849 -0.15394
 C2426 C 0.42839 0.46836 -0.14935
 C2427 C 0.43354 0.48161 -0.16103
 C2428 C 0.42425 0.48523 -0.17703
 C2429 C 0.40962 0.47566 -0.18155
 C2430 C 0.40479 0.46209 -0.16996
 C2431 C 0.43697 0.46585 -0.13199
 C2432 C 0.44390 0.46462 -0.11719
 C2433 C 0.45167 0.46436 -0.09960
 C2434 C 0.45797 0.46530 -0.08443
 C2435 C 0.46505 0.46801 -0.06628
 C2436 C 0.45591 0.47868 -0.05345
 C2437 C 0.46354 0.48366 -0.03687
 C2438 C 0.48045 0.47789 -0.03264
 C2439 C 0.48931 0.46661 -0.04537
 C2440 C 0.48165 0.46172 -0.06209
 H2441 H 0.40996 0.44825 -0.14497
 H2442 H 0.44447 0.48944 -0.15751
 H2443 H 0.42817 0.49590 -0.18551
 H2444 H 0.39374 0.45434 -0.17319
 H2445 H 0.44313 0.48379 -0.05662
 H2446 H 0.45636 0.49262 -0.02773
 H2447 H 0.50247 0.46222 -0.04295
 H2448 H 0.48895 0.45363 -0.07205
 C2449 C -0.07153 0.95729 0.33649
 C2450 C -0.07153 0.96972 0.35083
 C2451 C -0.08033 0.98550 0.34870
 C2452 C -0.08914 0.98887 0.33236
 C2453 C -0.08929 0.97649 0.31785
 C2454 C -0.08038 0.96064 0.32008
 C2455 C -0.06262 0.96656 0.36787
 C2456 C -0.05546 0.96493 0.38249
 C2457 C -0.04745 0.96434 0.39993
 C2458 C -0.04094 0.96509 0.41501
 C2459 C -0.03361 0.96762 0.43306
 C2460 C -0.04264 0.97806 0.44620
 C2461 C -0.03476 0.98297 0.46266
 C2462 C -0.01770 0.97735 0.46645
 C2463 C -0.00897 0.96624 0.45344
 C2464 C -0.01688 0.96144 0.43684
 H2465 H -0.06472 0.94504 0.33798
 H2466 H -0.08046 0.99520 0.35974
 H2467 H -0.09612 1.00107 0.33124
 H2468 H -0.08013 0.95091 0.30910
 H2469 H -0.05553 0.98308 0.44335
 H2470 H -0.04188 0.99174 0.47207
 H2471 H 0.00426 0.96193 0.45556
 H2472 H -0.00968 0.95351 0.42665
 C2473 C 0.08043 0.53541 0.33388
 C2474 C 0.07983 0.52256 0.34725
 C2475 C 0.08833 0.50667 0.34375
 C2476 C 0.09746 0.50361 0.32700
 C2477 C 0.09823 0.51643 0.31346
 C2478 C 0.08959 0.53237 0.31707
 C2479 C 0.07062 0.52540 0.36468
 C2480 C 0.06320 0.52670 0.37958
 C2481 C 0.05494 0.52675 0.39727
 C2482 C 0.04831 0.52534 0.41246
 C2483 C 0.04098 0.52174 0.43049
 C2484 C 0.02740 0.53187 0.43844
 C2485 C 0.01951 0.52701 0.45522
 C2486 C 0.02520 0.51203 0.46432
 C2487 C 0.03891 0.50206 0.45606
 C2488 C 0.04678 0.50697 0.43945
 H2489 H 0.07385 0.54773 0.33644
 H2490 H 0.08799 0.49665 0.35404
 H2491 H 0.10420 0.49132 0.32479
 H2492 H 0.08980 0.54243 0.30683
 H2493 H 0.02262 0.54322 0.43145
 H2494 H 0.00865 0.53473 0.46078
 H2495 H 0.04321 0.49001 0.46188
 H2496 H 0.05707 0.49885 0.43325
 C2497 C 0.58717 0.00496 -0.15155
 C2498 C 0.57878 0.02099 -0.14862
 C2499 C 0.57958 0.03344 -0.16241
 C2500 C 0.58881 0.02987 -0.17907
 C2501 C 0.59732 0.01377 -0.18212
 C2502 C 0.59638 0.00136 -0.16816
 C2503 C 0.56940 0.02439 -0.13137
 C2504 C 0.56181 0.02614 -0.11660
 C2505 C 0.55331 0.02665 -0.09902
 C2506 C 0.54649 0.02550 -0.08387
 C2507 C 0.53901 0.02197 -0.06588
 C2508 C 0.54495 0.00733 -0.05678
 C2509 C 0.53682 0.00221 -0.04041
 C2510 C 0.52271 0.01182 -0.03248
 C2511 C 0.51700 0.02681 -0.04157
 C2512 C 0.52512 0.03186 -0.05817
 H2513 H 0.58667 -0.00476 -0.14094
 H2514 H 0.57307 0.04587 -0.16031
 H2515 H 0.58914 0.03962 -0.18964
 H2516 H 0.60300 -0.01103 -0.16995
 H2517 H 0.55549 -0.00059 -0.06277
 H2518 H 0.54123 -0.00979 -0.03458
 H2519 H 0.50594 0.03434 -0.03617
 H2520 H 0.52027 0.04313 -0.06524
 C2521 C 0.65492 0.56273 -0.03431
 C2522 C 0.65229 0.54820 -0.02348
 C2523 C 0.66500 0.54285 -0.01109
 C2524 C 0.68010 0.55225 -0.00918
 C2525 C 0.68263 0.56718 -0.01959
 C2526 C 0.67001 0.57216 -0.03241
 C2527 C 0.63592 0.53975 -0.02379
 C2528 C 0.62189 0.53329 -0.02329
 C2529 C 0.60515 0.52650 -0.02179
 C2530 C 0.59061 0.52145 -0.01971
 C2531 C 0.57304 0.51641 -0.01626
 C2532 C 0.56691 0.50092 -0.02349
 C2533 C 0.54983 0.49616 -0.01961
 C2534 C 0.53866 0.50683 -0.00839
 C2535 C 0.54509 0.52240 -0.00132
 C2536 C 0.56208 0.52712 -0.00522
 H2537 H 0.64512 0.56703 -0.04387
 H2538 H 0.66300 0.53173 -0.00249
 H2539 H 0.68945 0.54822 0.00099
 H2540 H 0.67170 0.58347 -0.04078
 H2541 H 0.57532 0.49251 -0.03205
 H2542 H 0.54548 0.48408 -0.02535
 H2543 H 0.53711 0.53102 0.00740
 H2544 H 0.56670 0.53912 0.00049
 C2545 C 0.16373 1.04973 0.49146
 C2546 C 0.15163 1.05511 0.47841
 C2547 C 0.15522 1.06910 0.46707
 C2548 C 0.17071 1.07788 0.46902
 C2549 C 0.18280 1.07279 0.48237
 C2550 C 0.17922 1.05848 0.49342
 C2551 C 0.13515 1.04689 0.47744
 C2552 C 0.12121 1.04022 0.47725
 C2553 C 0.10478 1.03264 0.47781
 C2554 C 0.09068 1.02635 0.47902
 C2555 C 0.07383 1.01905 0.48141
 C2556 C 0.05966 1.02550 0.47166
 C2557 C 0.04305 1.01938 0.47532
 C2558 C 0.04031 1.00705 0.48917
 C2559 C 0.05487 0.99995 0.49801
 C2560 C 0.07144 1.00603 0.49431
 H2561 H 0.16102 1.03899 0.50039
 H2562 H 0.14593 1.07339 0.45694
 H2563 H 0.17319 1.08871 0.46015
 H2564 H 0.18814 1.05439 0.50400
 H2565 H 0.06137 1.03549 0.46151
 H2566 H 0.03229 1.02473 0.46770
 H2567 H 0.05356 0.98976 0.50792
 H2568 H 0.08237 1.00076 0.50175
 C2569 C 0.14995 -0.06713 1.01069
 C2570 C 0.14926 -0.04970 1.01575
 C2571 C 0.16450 -0.04134 1.02019
 C2572 C 0.18044 -0.05038 1.01941
 C2573 C 0.18146 -0.06806 1.01415
 C2574 C 0.16578 -0.07622 1.00989
 C2575 C 0.13286 -0.04050 1.01571
 C2576 C 0.11874 -0.03358 1.01504
 C2577 C 0.10187 -0.02644 1.01351
 C2578 C 0.08721 -0.02119 1.01154
 C2579 C 0.06951 -0.01598 1.00842
 C2580 C 0.06254 -0.00052 1.01596
 C2581 C 0.04528 0.00428 1.01267
 C2582 C 0.03475 -0.00633 1.00177
 C2583 C 0.04204 -0.02185 0.99433
 C2584 C 0.05922 -0.02660 0.99763
 H2585 H 0.13823 -0.07368 1.00700
 H2586 H 0.16408 -0.02783 1.02423
 H2587 H 0.19177 -0.04347 1.02352
 H2588 H 0.16557 -0.08944 1.00499
 H2589 H 0.07042 0.00781 1.02435
 H2590 H 0.04026 0.01633 1.01867
 H2591 H 0.03454 -0.03043 0.98588
 H2592 H 0.06449 -0.03861 0.99172
 C2593 C 0.66889 0.45314 0.52393
 C2594 C 0.65367 0.44447 0.52015
 C2595 C 0.65455 0.42703 0.51515
 C2596 C 0.67053 0.41824 0.51381
 C2597 C 0.68619 0.42669 0.51748
 C2598 C 0.68498 0.44439 0.52261
 C2599 C 0.63705 0.45333 0.52072
 C2600 C 0.62275 0.45993 0.52054
 C2601 C 0.60567 0.46672 0.51954
 C2602 C 0.59087 0.47174 0.51795
 C2603 C 0.57306 0.47681 0.51515
 C2604 C 0.56289 0.46651 0.50385
 C2605 C 0.54574 0.47136 0.50049
 C2606 C 0.53835 0.48666 0.50837
 C2607 C 0.54870 0.49686 0.51992
 C2608 C 0.56593 0.49196 0.52326
 H2609 H 0.66834 0.46668 0.52788
 H2610 H 0.64285 0.42023 0.51195
 H2611 H 0.67041 0.40498 0.50899
 H2612 H 0.69632 0.45154 0.52622
 H2613 H 0.56828 0.45476 0.49746
 H2614 H 0.53842 0.46314 0.49146
 H2615 H 0.54361 0.50873 0.52626
 H2616 H 0.57371 0.50005 0.53204
 C2617 C -0.15110 0.43332 0.50226
 C2618 C -0.14616 0.43977 0.48495
 C2619 C -0.15765 0.43914 0.47016
 C2620 C -0.17400 0.43197 0.47267
 C2621 C -0.17902 0.42537 0.49002
 C2622 C -0.16739 0.42617 0.50480
 C2623 C -0.12924 0.44691 0.48256
 C2624 C -0.11495 0.45277 0.48134
 C2625 C -0.09817 0.45959 0.48089
 C2626 C -0.08385 0.46542 0.48141
 C2627 C -0.06688 0.47247 0.48320
 C2628 C -0.05252 0.46502 0.47361
 C2629 C -0.03590 0.47115 0.47671
 C2630 C -0.03337 0.48452 0.48983
 C2631 C -0.04807 0.49247 0.49857
 C2632 C -0.06464 0.48639 0.49541
 H2633 H -0.14228 0.43370 0.51378
 H2634 H -0.15398 0.44414 0.45671
 H2635 H -0.18273 0.43166 0.46108
 H2636 H -0.17072 0.42093 0.51822
 H2637 H -0.05412 0.45430 0.46401
 H2638 H -0.02499 0.46506 0.46923
 H2639 H -0.04691 0.50337 0.50794
 H2640 H -0.07569 0.49241 0.50274
 C2641 C 0.33566 -0.05211 -0.02867
 C2642 C 0.34692 -0.05103 -0.01371
 C2643 C 0.34206 -0.05770 0.00352
 C2644 C 0.32613 -0.06563 0.00578
 C2645 C 0.31478 -0.06700 -0.00920
 C2646 C 0.31966 -0.06004 -0.02644
 C2647 C 0.36381 -0.04382 -0.01599
 C2648 C 0.37826 -0.03834 -0.01708
 C2649 C 0.39547 -0.03262 -0.01731
 C2650 C 0.41036 -0.02837 -0.01657
 C2651 C 0.42825 -0.02409 -0.01450
 C2652 C 0.43881 -0.03461 -0.00372
 C2653 C 0.45594 -0.03028 -0.00059
 C2654 C 0.46292 -0.01530 -0.00821
 C2655 C 0.45222 -0.00493 -0.01934
 C2656 C 0.43499 -0.00930 -0.02243
 H2657 H 0.33931 -0.04701 -0.04208
 H2658 H 0.35074 -0.05705 0.01515
 H2659 H 0.32292 -0.07111 0.01912
 H2660 H 0.31113 -0.06075 -0.03817
 H2661 H 0.43371 -0.04607 0.00257
 H2662 H 0.46353 -0.03860 0.00816
 H2663 H 0.45699 0.00672 -0.02545
 H2664 H 0.42689 -0.00102 -0.03076
 C2665 C 0.34368 1.06713 0.49974
 C2666 C 0.34787 1.05970 0.51668
 C2667 C 0.33564 1.06001 0.53137
 C2668 C 0.31927 1.06780 0.52910
 C2669 C 0.31496 1.07531 0.51208
 C2670 C 0.32737 1.07489 0.49744
 C2671 C 0.36478 1.05183 0.51876
 C2672 C 0.37911 1.04539 0.51967
 C2673 C 0.39600 1.03802 0.51971
 C2674 C 0.41048 1.03183 0.51883
 C2675 C 0.42776 1.02456 0.51666
 C2676 C 0.44171 1.03230 0.52532
 C2677 C 0.45865 1.02613 0.52163
 C2678 C 0.46192 1.01248 0.50875
 C2679 C 0.44764 1.00407 0.50118
 C2680 C 0.43073 1.01020 0.50492
 H2681 H 0.35307 1.06702 0.48830
 H2682 H 0.33875 1.05426 0.54454
 H2683 H 0.30994 1.06780 0.54058
 H2684 H 0.32458 1.08083 0.48429
 H2685 H 0.43954 1.04330 0.53464
 H2686 H 0.46920 1.03237 0.52854
 H2687 H 0.44940 0.99279 0.49228
 H2688 H 0.42000 1.00391 0.49838
 C2689 C -0.15798 0.56638 0.99934
 C2690 C -0.15416 0.55780 1.01574
 C2691 C -0.16683 0.55678 1.02989
 C2692 C -0.18327 0.56443 1.02764
 C2693 C -0.18718 0.57315 1.01119
 C2694 C -0.17434 0.57401 0.99706
 C2695 C -0.13706 0.55044 1.01791
 C2696 C -0.12244 0.54477 1.01881
 C2697 C -0.10505 0.53875 1.01873
 C2698 C -0.09002 0.53417 1.01766
 C2699 C -0.07198 0.52940 1.01516
 C2700 C -0.06533 0.51392 1.02202
 C2701 C -0.04800 0.50899 1.01833
 C2702 C -0.03710 0.51948 1.00764
 C2703 C -0.04399 0.53517 1.00113
 C2704 C -0.06123 0.54006 1.00487
 H2705 H -0.14822 0.56732 0.98835
 H2706 H -0.16400 0.55017 1.04265
 H2707 H -0.19294 0.56343 1.03869
 H2708 H -0.17682 0.58089 0.98439
 H2709 H -0.07359 0.50553 1.02995
 H2710 H -0.04330 0.49681 1.02360
 H2711 H -0.03627 0.54357 0.99268
 H2712 H -0.06629 0.55203 0.99937
 C2713 C 0.00426 0.65227 0.56602
 C2714 C 0.01512 0.65110 0.55017
 C2715 C 0.02524 0.66511 0.54529
 C2716 C 0.02454 0.68020 0.55629
 C2717 C 0.01374 0.68143 0.57233
 C2718 C 0.00356 0.66730 0.57701
 C2719 C 0.01587 0.63535 0.53924
 C2720 C 0.01598 0.62177 0.53081
 C2721 C 0.01540 0.60541 0.52195
 C2722 C 0.01421 0.59109 0.51540
 C2723 C 0.01183 0.57362 0.50905
 C2724 C 0.02507 0.56426 0.49946
 C2725 C 0.02316 0.54669 0.49545
 C2726 C 0.00810 0.53815 0.50128
 C2727 C -0.00541 0.54803 0.51011
 C2728 C -0.00352 0.56552 0.51395
 H2729 H -0.00368 0.64153 0.56990
 H2730 H 0.03373 0.66433 0.53309
 H2731 H 0.03267 0.69079 0.55242
 H2732 H -0.00509 0.66791 0.58908
 H2733 H 0.03705 0.57039 0.49561
 H2734 H 0.03381 0.53970 0.48850
 H2735 H -0.01732 0.54224 0.51473
 H2736 H -0.01388 0.57262 0.52136
 C2737 C 0.52254 0.16446 0.04801
 C2738 C 0.51599 0.14939 0.05556
 C2739 C 0.50878 0.14981 0.07360
 C2740 C 0.50806 0.16517 0.08404
 C2741 C 0.51457 0.18041 0.07661
 C2742 C 0.52184 0.17988 0.05845
 C2743 C 0.51630 0.13346 0.04491
 C2744 C 0.51604 0.11980 0.03665
 C2745 C 0.51504 0.10343 0.02786
 C2746 C 0.51351 0.08916 0.02128
 C2747 C 0.51074 0.07180 0.01473
 C2748 C 0.49545 0.06378 0.02001
 C2749 C 0.49312 0.04645 0.01560
 C2750 C 0.50610 0.03667 0.00577
 C2751 C 0.52115 0.04511 -0.00024
 C2752 C 0.52350 0.06252 0.00433
 H2753 H 0.52816 0.16430 0.03407
 H2754 H 0.50357 0.13825 0.07957
 H2755 H 0.50212 0.16517 0.09783
 H2756 H 0.52712 0.19134 0.05239
 H2757 H 0.48547 0.07082 0.02807
 H2758 H 0.48126 0.04071 0.02047
 H2759 H 0.53147 0.03815 -0.00777
 H2760 H 0.53546 0.06857 0.00019
 C2761 C -0.02860 0.16214 0.92974
 C2762 C -0.01595 0.15884 0.94298
 C2763 C -0.00323 0.17100 0.94630
 C2764 C -0.00304 0.18630 0.93630
 C2765 C -0.01556 0.18962 0.92276
 C2766 C -0.02842 0.17740 0.91971
 C2767 C -0.01562 0.14264 0.95247
 C2768 C -0.01533 0.12879 0.95983
 C2769 C -0.01497 0.11221 0.96765
 C2770 C -0.01467 0.09773 0.97347
 C2771 C -0.01431 0.08002 0.97919
 C2772 C -0.00571 0.07499 0.99525
 C2773 C -0.00431 0.05752 0.99971
 C2774 C -0.01151 0.04484 0.98816
 C2775 C -0.02037 0.05018 0.97223
 C2776 C -0.02181 0.06758 0.96787
 H2777 H -0.03850 0.15282 0.92702
 H2778 H 0.00670 0.16855 0.95642
 H2779 H 0.00716 0.19532 0.93883
 H2780 H -0.03838 0.17965 0.90958
 H2781 H 0.00027 0.08451 1.00406
 H2782 H 0.00285 0.05397 1.01188
 H2783 H -0.02602 0.04092 0.96287
 H2784 H -0.02844 0.07128 0.95537
 C2785 C 0.49263 0.66524 0.45352
 C2786 C 0.48169 0.65202 0.44813
 C2787 C 0.47147 0.65399 0.43242
 C2788 C 0.47235 0.66900 0.42200
 C2789 C 0.48351 0.68227 0.42714
 C2790 C 0.49352 0.68027 0.44313
 C2791 C 0.48172 0.63604 0.45803
 C2792 C 0.48225 0.62239 0.46581
 C2793 C 0.48353 0.60608 0.47416
 C2794 C 0.48533 0.59186 0.48045
 C2795 C 0.48844 0.57455 0.48672
 C2796 C 0.47585 0.56582 0.49692
 C2797 C 0.47860 0.54845 0.50127
 C2798 C 0.49390 0.53949 0.49523
 C2799 C 0.50669 0.54874 0.48561
 C2800 C 0.50396 0.56603 0.48142
 H2801 H 0.50072 0.66381 0.46556
 H2802 H 0.46299 0.64383 0.42806
 H2803 H 0.46430 0.67023 0.40992
 H2804 H 0.50240 0.69012 0.44734
 H2805 H 0.46373 0.57228 0.50108
 H2806 H 0.46842 0.54191 0.50867
 H2807 H 0.51872 0.54259 0.48073
 H2808 H 0.51382 0.57263 0.47352
 C2809 C 0.51431 0.83608 0.43883
 C2810 C 0.49965 0.84406 0.44736
 C2811 C 0.48347 0.83643 0.44590
 C2812 C 0.48191 0.82101 0.43578
 C2813 C 0.49653 0.81300 0.42694
 C2814 C 0.51278 0.82065 0.42871
 C2815 C 0.50108 0.86049 0.45677
 C2816 C 0.50223 0.87451 0.46408
 C2817 C 0.50352 0.89125 0.47187
 C2818 C 0.50457 0.90585 0.47771
 C2819 C 0.50573 0.92363 0.48351
 C2820 C 0.49708 0.92991 0.49966
 C2821 C 0.49694 0.94755 0.50410
 C2822 C 0.50550 0.95918 0.49245
 C2823 C 0.51439 0.95258 0.47641
 C2824 C 0.51457 0.93500 0.47208
 H2825 H 0.52688 0.84193 0.43973
 H2826 H 0.47202 0.84250 0.45241
 H2827 H 0.46926 0.81534 0.43490
 H2828 H 0.52425 0.81496 0.42188
 H2829 H 0.49001 0.92125 0.50852
 H2830 H 0.48957 0.95208 0.51625
 H2831 H 0.52092 0.96103 0.46688
 H2832 H 0.52120 0.93033 0.45946
 C2833 C 0.01161 0.33893 0.94512
 C2834 C -0.00139 0.35178 0.94441
 C2835 C -0.01622 0.34893 0.93402
 C2836 C -0.01797 0.33339 0.92419
 C2837 C -0.00486 0.32047 0.92458
 C2838 C 0.00989 0.32337 0.93529
 C2839 C 0.00075 0.36820 0.95363
 C2840 C 0.00243 0.38220 0.96082
 C2841 C 0.00423 0.39891 0.96852
 C2842 C 0.00558 0.41345 0.97441
 C2843 C 0.00690 0.43114 0.98049
 C2844 C -0.00131 0.43707 0.99702
 C2845 C -0.00142 0.45462 1.00183
 C2846 C 0.00674 0.46652 0.99019
 C2847 C 0.01526 0.46027 0.97377
 C2848 C 0.01539 0.44276 0.96904
 H2849 H 0.02315 0.34100 0.95311
 H2850 H -0.02632 0.35883 0.93326
 H2851 H -0.02936 0.33168 0.91588
 H2852 H 0.02010 0.31360 0.93608
 H2853 H -0.00809 0.42821 1.00590
 H2854 H -0.00847 0.45886 1.01430
 H2855 H 0.02152 0.46895 0.96428
 H2856 H 0.02170 0.43836 0.95614
 C2857 C 0.48712 0.33084 0.05401
 C2858 C 0.50087 0.34228 0.05396
 C2859 C 0.51581 0.33834 0.06391
 C2860 C 0.51695 0.32315 0.07402
 C2861 C 0.50312 0.31167 0.07438
 C2862 C 0.48823 0.31563 0.06413
 C2863 C 0.49939 0.35841 0.04444
 C2864 C 0.49821 0.37219 0.03701
 C2865 C 0.49690 0.38868 0.02906
 C2866 C 0.49586 0.40306 0.02303
 C2867 C 0.49474 0.42063 0.01693
 C2868 C 0.50338 0.42567 0.00066
 C2869 C 0.50353 0.44308 -0.00412
 C2870 C 0.49502 0.45571 0.00732
 C2871 C 0.48609 0.45036 0.02345
 C2872 C 0.48589 0.43300 0.02813
 H2873 H 0.47547 0.33375 0.04640
 H2874 H 0.52649 0.34715 0.06409
 H2875 H 0.52849 0.32063 0.08195
 H2876 H 0.47745 0.30697 0.06391
 H2877 H 0.51041 0.41622 -0.00804
 H2878 H 0.51085 0.44663 -0.01639
 H2879 H 0.47952 0.45960 0.03278
 H2880 H 0.47924 0.42930 0.04081
 C2881 C -0.00843 0.83045 0.55261
 C2882 C 0.00559 0.84156 0.55219
 C2883 C 0.02044 0.83758 0.56227
 C2884 C 0.02123 0.82266 0.57286
 C2885 C 0.00712 0.81151 0.57357
 C2886 C -0.00768 0.81553 0.56320
 C2887 C 0.00441 0.85748 0.54223
 C2888 C 0.00337 0.87112 0.53450
 C2889 C 0.00206 0.88749 0.52630
 C2890 C 0.00087 0.90185 0.52024
 C2891 C -0.00065 0.91945 0.51436
 C2892 C 0.00778 0.92493 0.49814
 C2893 C 0.00743 0.94242 0.49364
 C2894 C -0.00139 0.95467 0.50531
 C2895 C -0.01004 0.94886 0.52140
 C2896 C -0.00975 0.93145 0.52579
 H2897 H -0.02002 0.83342 0.54491
 H2898 H 0.03131 0.84615 0.56218
 H2899 H 0.03271 0.82008 0.58086
 H2900 H -0.01866 0.80710 0.56324
 H2901 H 0.01501 0.91577 0.48926
 H2902 H 0.01458 0.94635 0.48140
 H2903 H -0.01678 0.95779 0.53094
 H2904 H -0.01623 0.92740 0.53844
 C2905 C 0.23621 0.34265 0.10782
 C2906 C 0.22525 0.32858 0.10743
 C2907 C 0.21766 0.32358 0.09073
 C2908 C 0.22110 0.33264 0.07445
 C2909 C 0.23217 0.34679 0.07473
 C2910 C 0.23967 0.35169 0.09162
 C2911 C 0.22250 0.31905 0.12415
 C2912 C 0.22124 0.31145 0.13856
 C2913 C 0.22112 0.30307 0.15578
 C2914 C 0.22234 0.29636 0.17069
 C2915 C 0.22553 0.28895 0.18850
 C2916 C 0.21938 0.27270 0.19298
 C2917 C 0.22469 0.26472 0.20929
 C2918 C 0.23625 0.27291 0.22131
 C2919 C 0.24195 0.28945 0.21677
 C2920 C 0.23653 0.29740 0.20062
 H2921 H 0.24228 0.34652 0.12064
 H2922 H 0.20920 0.31267 0.09027
 H2923 H 0.21500 0.32868 0.06170
 H2924 H 0.24847 0.36232 0.09225
 H2925 H 0.21105 0.26593 0.18354
 H2926 H 0.22038 0.25184 0.21194
 H2927 H 0.25113 0.29608 0.22532
 H2928 H 0.24154 0.30990 0.19719
 C2929 C 0.72205 0.81917 0.58988
 C2930 C 0.73007 0.82367 0.60649
 C2931 C 0.74134 0.83750 0.60693
 C2932 C 0.74463 0.84681 0.59088
 C2933 C 0.73667 0.84243 0.57409
 C2934 C 0.72533 0.82850 0.57375
 C2935 C 0.72735 0.81395 0.62308
 C2936 C 0.72606 0.80625 0.63742
 C2937 C 0.72589 0.79780 0.65461
 C2938 C 0.72706 0.79112 0.66953
 C2939 C 0.73017 0.78386 0.68744
 C2940 C 0.74083 0.79263 0.69966
 C2941 C 0.74613 0.78494 0.71600
 C2942 C 0.74065 0.76835 0.72063
 C2943 C 0.72945 0.75982 0.70849
 C2944 C 0.72426 0.76754 0.69198
 H2945 H 0.71334 0.80845 0.58938
 H2946 H 0.74773 0.84100 0.61968
 H2947 H 0.75364 0.85727 0.59153
 H2948 H 0.71886 0.82493 0.56108
 H2949 H 0.74566 0.80519 0.69619
 H2950 H 0.75504 0.79184 0.72465
 H2951 H 0.72531 0.74690 0.71123
 H2952 H 0.71618 0.76053 0.68247
 C2953 C 0.27005 0.66313 0.60008
 C2954 C 0.27901 0.67854 0.59908
 C2955 C 0.28334 0.68528 0.58171
 C2956 C 0.27870 0.67661 0.56538
 C2957 C 0.26965 0.66110 0.56628
 C2958 C 0.26540 0.65448 0.58383
 C2959 C 0.28289 0.68764 0.61603
 C2960 C 0.28517 0.69482 0.63074
 C2961 C 0.28649 0.70268 0.64847
 C2962 C 0.28625 0.70894 0.66394
 C2963 C 0.28412 0.71581 0.68258
 C2964 C 0.29036 0.73200 0.68748
 C2965 C 0.28569 0.73961 0.70474
 C2966 C 0.27463 0.73113 0.71727
 C2967 C 0.26901 0.71457 0.71233
 C2968 C 0.27381 0.70697 0.69524
 H2969 H 0.26647 0.65790 0.61345
 H2970 H 0.29020 0.69725 0.58079
 H2971 H 0.28232 0.68193 0.55208
 H2972 H 0.25820 0.64274 0.58502
 H2973 H 0.29817 0.73906 0.67766
 H2974 H 0.28997 0.75250 0.70775
 H2975 H 0.26019 0.70771 0.72127
 H2976 H 0.26873 0.69451 0.69151
 C2977 C 0.76836 0.15900 0.10198
 C2978 C 0.77560 0.17531 0.10119
 C2979 C 0.77783 0.18324 0.08400
 C2980 C 0.77278 0.17487 0.06765
 C2981 C 0.76542 0.15848 0.06835
 C2982 C 0.76330 0.15064 0.08571
 C2983 C 0.77973 0.18411 0.11825
 C2984 C 0.78223 0.19103 0.13304
 C2985 C 0.78381 0.19864 0.15086
 C2986 C 0.78378 0.20472 0.16640
 C2987 C 0.78185 0.21146 0.18510
 C2988 C 0.78830 0.22755 0.19007
 C2989 C 0.78370 0.23516 0.20735
 C2990 C 0.77252 0.22679 0.21983
 C2991 C 0.76674 0.21029 0.21486
 C2992 C 0.77147 0.20269 0.19774
 H2993 H 0.76639 0.15283 0.11523
 H2994 H 0.78333 0.19592 0.08325
 H2995 H 0.77474 0.18115 0.05448
 H2996 H 0.75742 0.13818 0.08677
 H2997 H 0.79618 0.23456 0.18027
 H2998 H 0.78812 0.24799 0.21039
 H2999 H 0.75781 0.20352 0.22376
 H3000 H 0.76623 0.19032 0.19397
 C3001 C 0.73131 0.17249 0.89992
 C3002 C 0.71475 0.17968 0.89733
 C3003 C 0.70213 0.17897 0.91157
 C3004 C 0.70607 0.17096 0.92831
 C3005 C 0.72269 0.16360 0.93097
 C3006 C 0.73526 0.16451 0.91658
 C3007 C 0.71099 0.18759 0.87989
 C3008 C 0.70901 0.19395 0.86490
 C3009 C 0.70817 0.20108 0.84704
 C3010 C 0.70886 0.20693 0.83164
 C3011 C 0.71148 0.21362 0.81330
 C3012 C 0.70523 0.23007 0.80889
 C3013 C 0.71042 0.23760 0.79219
 C3014 C 0.72201 0.22877 0.77971
 C3015 C 0.72764 0.21194 0.78407
 C3016 C 0.72233 0.20443 0.80064
 H3017 H 0.74115 0.17291 0.88896
 H3018 H 0.68928 0.18454 0.90972
 H3019 H 0.69616 0.17059 0.93920
 H3020 H 0.74806 0.15870 0.91803
 H3021 H 0.69701 0.23740 0.81873
 H3022 H 0.70611 0.25068 0.78966
 H3023 H 0.73680 0.20478 0.77511
 H3024 H 0.72743 0.19177 0.80401
 C3025 C 0.20554 0.67583 0.40908
 C3026 C 0.21825 0.68398 0.39847
 C3027 C 0.23553 0.68338 0.40400
 C3028 C 0.24020 0.67436 0.41981
 C3029 C 0.22763 0.66577 0.43035
 C3030 C 0.21019 0.66682 0.42500
 C3031 C 0.21405 0.69216 0.38128
 C3032 C 0.21175 0.69875 0.36646
 C3033 C 0.21062 0.70613 0.34873
 C3034 C 0.21113 0.71212 0.33339
 C3035 C 0.21365 0.71884 0.31504
 C3036 C 0.20766 0.73541 0.31072
 C3037 C 0.21287 0.74288 0.29398
 C3038 C 0.22419 0.73387 0.28136
 C3039 C 0.22955 0.71694 0.28566
 C3040 C 0.22422 0.70949 0.30225
 H3041 H 0.19213 0.67613 0.40486
 H3042 H 0.24548 0.68963 0.39589
 H3043 H 0.25368 0.67398 0.42374
 H3044 H 0.20026 0.66020 0.43276
 H3045 H 0.19967 0.74287 0.32066
 H3046 H 0.20879 0.75605 0.29151
 H3047 H 0.23857 0.70966 0.27666
 H3048 H 0.22913 0.69674 0.30554
 C3049 C 0.78632 0.82421 0.41276
 C3050 C 0.77346 0.82361 0.39935
 C3051 C 0.75738 0.83192 0.40285
 C3052 C 0.75415 0.84087 0.41962
 C3053 C 0.76698 0.84165 0.43319
 C3054 C 0.78311 0.83319 0.42959
 C3055 C 0.77647 0.81460 0.38187
 C3056 C 0.77779 0.80739 0.36691
 C3057 C 0.77768 0.79940 0.34915
 C3058 C 0.77591 0.79305 0.33392
 C3059 C 0.77158 0.78617 0.31595
 C3060 C 0.78129 0.77272 0.30725
 C3061 C 0.77549 0.76516 0.29072
 C3062 C 0.75994 0.77102 0.28270
 C3063 C 0.75050 0.78467 0.29163
 C3064 C 0.75635 0.79224 0.30793
 H3065 H 0.79879 0.81777 0.41021
 H3066 H 0.74735 0.83157 0.39253
 H3067 H 0.74172 0.84747 0.42182
 H3068 H 0.79318 0.83341 0.43985
 H3069 H 0.79301 0.76776 0.31349
 H3070 H 0.78291 0.75442 0.28455
 H3071 H 0.73810 0.78913 0.28667
 H3072 H 0.74856 0.80244 0.31471
 C3073 C 0.26558 0.31695 0.91646
 C3074 C 0.27533 0.32416 0.90205
 C3075 C 0.28187 0.34069 0.90432
 C3076 C 0.27844 0.35009 0.92080
 C3077 C 0.26835 0.34310 0.93522
 C3078 C 0.26212 0.32634 0.93295
 C3079 C 0.27721 0.31527 0.88436
 C3080 C 0.27777 0.30819 0.86931
 C3081 C 0.27699 0.30037 0.85150
 C3082 C 0.27486 0.29415 0.83628
 C3083 C 0.27033 0.28737 0.81833
 C3084 C 0.25489 0.29325 0.81062
 C3085 C 0.24909 0.28591 0.79417
 C3086 C 0.25881 0.27270 0.78478
 C3087 C 0.27449 0.26695 0.79259
 C3088 C 0.28025 0.27429 0.80924
 H3089 H 0.26034 0.30421 0.91479
 H3090 H 0.28923 0.34648 0.89316
 H3091 H 0.28322 0.36305 0.92201
 H3092 H 0.25451 0.32053 0.94389
 H3093 H 0.24695 0.30316 0.81770
 H3094 H 0.23657 0.29023 0.78937
 H3095 H 0.28208 0.25646 0.78614
 H3096 H 0.29213 0.26946 0.81525
 C3097 C 0.81939 0.39550 0.75707
 C3098 C 0.80371 0.39532 0.76721
 C3099 C 0.79720 0.41045 0.77596
 C3100 C 0.80633 0.42574 0.77450
 C3101 C 0.82209 0.42605 0.76427
 C3102 C 0.82852 0.41073 0.75559
 C3103 C 0.79425 0.37960 0.76818
 C3104 C 0.78669 0.36621 0.76840
 C3105 C 0.77826 0.35030 0.76793
 C3106 C 0.77145 0.33653 0.76684
 C3107 C 0.76381 0.31993 0.76469
 C3108 C 0.76922 0.30618 0.77562
 C3109 C 0.76314 0.28965 0.77213
 C3110 C 0.75190 0.28654 0.75730
 C3111 C 0.74569 0.30071 0.74723
 C3112 C 0.75174 0.31722 0.75076
 H3113 H 0.82449 0.38388 0.75014
 H3114 H 0.78507 0.41045 0.78384
 H3115 H 0.80114 0.43728 0.78148
 H3116 H 0.84045 0.41059 0.74736
 H3117 H 0.77848 0.30814 0.78653
 H3118 H 0.76783 0.27921 0.78060
 H3119 H 0.73632 0.29911 0.73644
 H3120 H 0.74728 0.32782 0.74236
 C3121 C 0.29141 0.91870 0.27570
 C3122 C 0.29964 0.90270 0.27249
 C3123 C 0.31728 0.90182 0.26785
 C3124 C 0.32670 0.91683 0.26612
 C3125 C 0.31870 0.93338 0.26897
 C3126 C 0.30076 0.93383 0.27403
 C3127 C 0.29004 0.88707 0.27305
 C3128 C 0.28276 0.87353 0.27275
 C3129 C 0.27524 0.85720 0.27146
 C3130 C 0.26978 0.84290 0.26950
 C3131 C 0.26453 0.82551 0.26610
 C3132 C 0.27561 0.81441 0.25567
 C3133 C 0.27080 0.79760 0.25175
 C3134 C 0.25475 0.79146 0.25819
 C3135 C 0.24369 0.80276 0.26880
 C3136 C 0.24856 0.81968 0.27271
 H3137 H 0.27773 0.91951 0.27947
 H3138 H 0.32374 0.88945 0.26509
 H3139 H 0.34001 0.91505 0.26139
 H3140 H 0.29373 0.94570 0.27745
 H3141 H 0.28799 0.81879 0.25043
 H3142 H 0.27971 0.78952 0.24347
 H3143 H 0.23123 0.79863 0.27403
 H3144 H 0.23986 0.82821 0.28079
 C3145 C 0.20760 0.91846 0.72412
 C3146 C 0.20045 0.90376 0.73189
 C3147 C 0.18395 0.90480 0.74036
 C3148 C 0.17462 0.92042 0.74113
 C3149 C 0.18163 0.93530 0.73339
 C3150 C 0.19825 0.93417 0.72487
 C3151 C 0.20989 0.88754 0.73156
 C3152 C 0.21702 0.87357 0.73194
 C3153 C 0.22439 0.85684 0.73318
 C3154 C 0.22981 0.84229 0.73493
 C3155 C 0.23517 0.82469 0.73786
 C3156 C 0.22441 0.81424 0.74840
 C3157 C 0.22927 0.79717 0.75158
 C3158 C 0.24505 0.79012 0.74426
 C3159 C 0.25581 0.80079 0.73361
 C3160 C 0.25088 0.81795 0.73044
 H3161 H 0.22037 0.91779 0.71752
 H3162 H 0.17834 0.89353 0.74652
 H3163 H 0.16202 0.92092 0.74810
 H3164 H 0.20394 0.94537 0.71867
 H3165 H 0.21221 0.81931 0.75424
 H3166 H 0.22058 0.78959 0.75988
 H3167 H 0.26805 0.79596 0.72771
 H3168 H 0.25933 0.82595 0.72225
 C3169 C 0.71010 0.41477 0.24218
 C3170 C 0.70475 0.40162 0.23021
 C3171 C 0.69064 0.40450 0.21866
 C3172 C 0.68157 0.42030 0.21947
 C3173 C 0.68648 0.43342 0.23190
 C3174 C 0.70105 0.43061 0.24299
 C3175 C 0.71274 0.38472 0.23091
 C3176 C 0.71876 0.37032 0.23203
 C3177 C 0.72503 0.35325 0.23395
 C3178 C 0.72971 0.33852 0.23611
 C3179 C 0.73449 0.32083 0.23930
 C3180 C 0.72331 0.31069 0.24972
 C3181 C 0.72776 0.29354 0.25311
 C3182 C 0.74352 0.28615 0.24616
 C3183 C 0.75467 0.29652 0.23563
 C3184 C 0.75018 0.31372 0.23224
 H3185 H 0.72091 0.41262 0.25129
 H3186 H 0.68637 0.39438 0.20939
 H3187 H 0.67054 0.42217 0.21059
 H3188 H 0.70501 0.44037 0.25285
 H3189 H 0.71114 0.31606 0.25529
 H3190 H 0.71879 0.28618 0.26133
 H3191 H 0.76692 0.29143 0.22999
 H3192 H 0.75894 0.32148 0.22416
 C3193 C 0.70507 0.58332 0.25543
 C3194 C 0.69654 0.59668 0.26557
 C3195 C 0.68022 0.59399 0.27372
 C3196 C 0.67231 0.57812 0.27152
 C3197 C 0.68063 0.56469 0.26108
 C3198 C 0.69719 0.56741 0.25321
 C3199 C 0.70390 0.61350 0.26658
 C3200 C 0.70946 0.62786 0.26694
 C3201 C 0.71522 0.64494 0.26669
 C3202 C 0.71946 0.65973 0.26580
 C3203 C 0.72366 0.67755 0.26381
 C3204 C 0.71250 0.68830 0.25398
 C3205 C 0.71662 0.70543 0.25113
 C3206 C 0.73202 0.71223 0.25807
 C3207 C 0.74306 0.70132 0.26822
 C3208 C 0.73890 0.68409 0.27104
 H3209 H 0.71768 0.58529 0.24899
 H3210 H 0.67342 0.60430 0.28144
 H3211 H 0.65946 0.57655 0.27751
 H3212 H 0.70400 0.55726 0.24528
 H3213 H 0.70068 0.68336 0.24826
 H3214 H 0.70778 0.71317 0.24312
 H3215 H 0.75504 0.70594 0.27379
 H3216 H 0.74766 0.67585 0.27866
 C3217 C 0.20292 0.08597 0.75997
 C3218 C 0.19349 0.09961 0.76865
 C3219 C 0.17662 0.09704 0.77538
 C3220 C 0.16903 0.08101 0.77309
 C3221 C 0.17823 0.06732 0.76396
 C3222 C 0.19536 0.06991 0.75766
 C3223 C 0.20056 0.11657 0.76942
 C3224 C 0.20599 0.13098 0.76946
 C3225 C 0.21175 0.14806 0.76878
 C3226 C 0.21616 0.16277 0.76753
 C3227 C 0.22081 0.18044 0.76521
 C3228 C 0.21031 0.19121 0.75463
 C3229 C 0.21493 0.20818 0.75161
 C3230 C 0.23020 0.21478 0.75911
 C3231 C 0.24057 0.20383 0.76996
 C3232 C 0.23591 0.18679 0.77296
 H3233 H 0.21598 0.08784 0.75464
 H3234 H 0.16914 0.10756 0.78197
 H3235 H 0.15574 0.07953 0.77784
 H3236 H 0.20284 0.05957 0.75077
 H3237 H 0.19861 0.18642 0.74851
 H3238 H 0.20658 0.21600 0.74312
 H3239 H 0.25242 0.20829 0.77601
 H3240 H 0.24416 0.17853 0.78116
 C3241 C 0.30103 0.08429 0.22431
 C3242 C 0.30069 0.09629 0.23908
 C3243 C 0.30818 0.09201 0.25597
 C3244 C 0.31621 0.07589 0.25807
 C3245 C 0.31686 0.06378 0.24327
 C3246 C 0.30906 0.06810 0.22639
 C3247 C 0.29344 0.11334 0.23687
 C3248 C 0.28798 0.12794 0.23581
 C3249 C 0.28234 0.14533 0.23554
 C3250 C 0.27819 0.16037 0.23620
 C3251 C 0.27405 0.17847 0.23812
 C3252 C 0.28554 0.18910 0.24735
 C3253 C 0.28134 0.20647 0.25048
 C3254 C 0.26552 0.21362 0.24443
 C3255 C 0.25416 0.20282 0.23481
 C3256 C 0.25840 0.18536 0.23171
 H3257 H 0.29529 0.08750 0.21116
 H3258 H 0.30810 0.10127 0.26743
 H3259 H 0.32235 0.07310 0.27112
 H3260 H 0.30921 0.05898 0.21481
 H3261 H 0.29765 0.18387 0.25248
 H3262 H 0.29039 0.21411 0.25813
 H3263 H 0.24185 0.20771 0.22993
 H3264 H 0.24937 0.17720 0.22461
 C3265 C 0.80679 0.58098 0.72367
 C3266 C 0.80631 0.59235 0.73901
 C3267 C 0.81312 0.58710 0.75593
 C3268 C 0.82058 0.57065 0.75749
 C3269 C 0.82135 0.55916 0.74212
 C3270 C 0.81426 0.56446 0.72521
 C3271 C 0.79949 0.60966 0.73743
 C3272 C 0.79426 0.62438 0.73679
 C3273 C 0.78870 0.64182 0.73685
 C3274 C 0.78443 0.65685 0.73765
 C3275 C 0.77990 0.67489 0.73951
 C3276 C 0.79096 0.68581 0.74898
 C3277 C 0.78636 0.70314 0.75188
 C3278 C 0.77056 0.70995 0.74533
 C3279 C 0.75966 0.69885 0.73550
 C3280 C 0.76430 0.68145 0.73265
 H3281 H 0.80157 0.58492 0.71050
 H3282 H 0.81292 0.59585 0.76785
 H3283 H 0.82619 0.56711 0.77060
 H3284 H 0.81452 0.55586 0.71318
 H3285 H 0.80304 0.68086 0.75445
 H3286 H 0.79508 0.71104 0.75968
 H3287 H 0.74739 0.70346 0.73024
 H3288 H 0.75560 0.67308 0.72533
 C3289 C 0.89601 0.76375 0.17132
 C3290 C 0.89611 0.76756 0.19035
 C3291 C 0.91180 0.77089 0.19884
 C3292 C 0.92736 0.77028 0.18841
 C3293 C 0.92772 0.76625 0.16902
 C3294 C 0.91147 0.76312 0.16080
 C3295 C 0.88009 0.76750 0.20108
 C3296 C 0.86639 0.76696 0.20948
 C3297 C 0.85000 0.76569 0.21850
 C3298 C 0.83574 0.76396 0.22536
 C3299 C 0.81841 0.76103 0.23234
 C3300 C 0.80940 0.77328 0.24361
 C3301 C 0.79203 0.77075 0.24883
 C3302 C 0.78335 0.75600 0.24265
 C3303 C 0.79285 0.74354 0.23184
 C3304 C 0.81015 0.74606 0.22676
 H3305 H 0.88393 0.76093 0.16460
 H3306 H 0.91203 0.77400 0.21359
 H3307 H 0.93885 0.77372 0.19579
 H3308 H 0.91036 0.75915 0.14642
 H3309 H 0.81563 0.78498 0.24798
 H3310 H 0.78528 0.78069 0.25706
 H3311 H 0.78692 0.73195 0.22676
 H3312 H 0.81696 0.73647 0.21803
 C3313 C 0.39481 0.25712 0.67384
 C3314 C 0.39517 0.26451 0.69172
 C3315 C 0.41082 0.27048 0.69859
 C3316 C 0.42605 0.26897 0.68764
 C3317 C 0.42581 0.26146 0.66967
 C3318 C 0.40998 0.25560 0.66289
 C3319 C 0.37948 0.26552 0.70298
 C3320 C 0.36597 0.26576 0.71179
 C3321 C 0.34973 0.26525 0.72121
 C3322 C 0.33550 0.26404 0.72831
 C3323 C 0.31814 0.26152 0.73539
 C3324 C 0.30915 0.27428 0.74601
 C3325 C 0.29168 0.27213 0.75105
 C3326 C 0.28288 0.25733 0.74527
 C3327 C 0.29241 0.24433 0.73527
 C3328 C 0.30980 0.24643 0.73040
 H3329 H 0.38280 0.25237 0.66841
 H3330 H 0.41126 0.27624 0.71240
 H3331 H 0.43797 0.27379 0.69318
 H3332 H 0.40938 0.24952 0.64926
 H3333 H 0.31548 0.28605 0.74996
 H3334 H 0.28495 0.28240 0.75885
 H3335 H 0.28641 0.23262 0.73061
 H3336 H 0.31662 0.23645 0.72220
 C3337 C 0.42314 0.75170 0.80235
 C3338 C 0.40965 0.74074 0.80703
 C3339 C 0.41127 0.72994 0.82231
 C3340 C 0.42620 0.73022 0.83298
 C3341 C 0.43976 0.74133 0.82854
 C3342 C 0.43811 0.75198 0.81300
 C3343 C 0.39382 0.74099 0.79673
 C3344 C 0.38021 0.74118 0.78874
 C3345 C 0.36384 0.74137 0.78027
 C3346 C 0.34947 0.74151 0.77397
 C3347 C 0.33182 0.74165 0.76777
 C3348 C 0.31917 0.73376 0.77864
 C3349 C 0.30175 0.73507 0.77395
 C3350 C 0.29658 0.74418 0.75813
 C3351 C 0.30948 0.75174 0.74700
 C3352 C 0.32698 0.75048 0.75181
 H3353 H 0.42199 0.76020 0.79063
 H3354 H 0.40091 0.72141 0.82608
 H3355 H 0.42717 0.72168 0.84468
 H3356 H 0.44822 0.76082 0.80934
 H3357 H 0.32273 0.72696 0.79108
 H3358 H 0.29231 0.72917 0.78301
 H3359 H 0.30606 0.75912 0.73495
 H3360 H 0.33666 0.75677 0.74336
 C3361 C 0.90924 0.22668 0.32580
 C3362 C 0.90712 0.23756 0.31065
 C3363 C 0.92017 0.24903 0.30600
 C3364 C 0.93519 0.24975 0.31656
 C3365 C 0.93733 0.23903 0.33197
 C3366 C 0.92422 0.22739 0.33637
 C3367 C 0.89123 0.23738 0.30045
 C3368 C 0.87761 0.23727 0.29249
 C3369 C 0.86126 0.23721 0.28396
 C3370 C 0.84694 0.23719 0.27753
 C3371 C 0.82936 0.23724 0.27108
 C3372 C 0.82474 0.24598 0.25498
 C3373 C 0.80730 0.24724 0.24992
 C3374 C 0.79425 0.23978 0.26092
 C3375 C 0.79921 0.23072 0.27686
 C3376 C 0.81657 0.22942 0.28181
 H3377 H 0.89922 0.21775 0.32954
 H3378 H 0.91864 0.25759 0.29439
 H3379 H 0.94493 0.25899 0.31293
 H3380 H 0.92556 0.21880 0.34797
 H3381 H 0.83452 0.25221 0.24663
 H3382 H 0.80406 0.25456 0.23778
 H3383 H 0.78964 0.22489 0.28582
 H3384 H 0.81996 0.22269 0.29434
 C3385 C 0.08465 0.26104 0.30680
 C3386 C 0.10053 0.25650 0.31466
 C3387 C 0.10085 0.25027 0.33279
 C3388 C 0.08539 0.24851 0.34301
 C3389 C 0.06934 0.25295 0.33524
 C3390 C 0.06914 0.25931 0.31702
 C3391 C 0.11659 0.25810 0.30426
 C3392 C 0.13036 0.25920 0.29612
 C3393 C 0.14687 0.26021 0.28734
 C3394 C 0.16130 0.26085 0.28060
 C3395 C 0.17893 0.26132 0.27360
 C3396 C 0.19138 0.26958 0.28416
 C3397 C 0.20884 0.26862 0.27864
 C3398 C 0.21423 0.25948 0.26231
 C3399 C 0.20151 0.25156 0.25154
 C3400 C 0.18400 0.25249 0.25715
 H3401 H 0.08424 0.26585 0.29276
 H3402 H 0.11306 0.24678 0.33906
 H3403 H 0.08603 0.24385 0.35709
 H3404 H 0.05699 0.26267 0.31057
 H3405 H 0.18765 0.27635 0.29699
 H3406 H 0.21816 0.27474 0.28748
 H3407 H 0.20508 0.24408 0.23916
 H3408 H 0.17450 0.24589 0.24896
 C3409 C 0.58804 0.75692 0.80397
 C3410 C 0.60368 0.75157 0.81181
 C3411 C 0.60364 0.74498 0.82980
 C3412 C 0.58806 0.74373 0.83992
 C3413 C 0.57224 0.74906 0.83220
 C3414 C 0.57241 0.75568 0.81409
 C3415 C 0.61988 0.75292 0.80162
 C3416 C 0.63375 0.75392 0.79366
 C3417 C 0.65036 0.75492 0.78511
 C3418 C 0.66487 0.75564 0.77860
 C3419 C 0.68260 0.75632 0.77195
 C3420 C 0.69468 0.76498 0.78261
 C3421 C 0.71223 0.76428 0.77747
 C3422 C 0.71808 0.75501 0.76139
 C3423 C 0.70573 0.74668 0.75049
 C3424 C 0.68812 0.74734 0.75573
 H3425 H 0.58791 0.76202 0.79005
 H3426 H 0.61567 0.74088 0.83605
 H3427 H 0.58842 0.73882 0.85392
 H3428 H 0.56044 0.75971 0.80767
 H3429 H 0.69060 0.77187 0.79526
 H3430 H 0.72125 0.77072 0.78640
 H3431 H 0.70967 0.73910 0.73829
 H3432 H 0.67890 0.74043 0.74745
 C3433 C 0.57881 0.26112 0.68820
 C3434 C 0.58749 0.24531 0.69066
 C3435 C 0.58097 0.23030 0.68267
 C3436 C 0.56596 0.23111 0.67208
 C3437 C 0.55729 0.24698 0.66929
 C3438 C 0.56383 0.26197 0.67761
 C3439 C 0.60353 0.24464 0.70058
 C3440 C 0.61725 0.24415 0.70833
 C3441 C 0.63370 0.24364 0.71664
 C3442 C 0.64808 0.24321 0.72291
 C3443 C 0.66570 0.24268 0.72921
 C3444 C 0.67852 0.23425 0.71816
 C3445 C 0.69588 0.23478 0.72311
 C3446 C 0.70082 0.24362 0.73939
 C3447 C 0.68776 0.25183 0.75061
 C3448 C 0.67032 0.25134 0.74555
 H3449 H 0.58375 0.27284 0.69429
 H3450 H 0.58764 0.21800 0.68436
 H3451 H 0.56140 0.21938 0.66569
 H3452 H 0.55732 0.27434 0.67596
 H3453 H 0.67514 0.22760 0.70541
 H3454 H 0.70546 0.22846 0.71393
 H3455 H 0.69100 0.25910 0.76296
 H3456 H 0.66052 0.25806 0.75413
 C3457 C 0.08144 0.76747 0.19009
 C3458 C 0.08989 0.75150 0.19221
 C3459 C 0.08303 0.73670 0.18412
 C3460 C 0.06790 0.73788 0.17376
 C3461 C 0.05945 0.75393 0.17130
 C3462 C 0.06632 0.76869 0.17973
 C3463 C 0.10605 0.75045 0.20190
 C3464 C 0.11985 0.74967 0.20949
 C3465 C 0.13636 0.74887 0.21766
 C3466 C 0.15076 0.74825 0.22389
 C3467 C 0.16837 0.74759 0.23025
 C3468 C 0.18123 0.73929 0.21915
 C3469 C 0.19858 0.73976 0.22421
 C3470 C 0.20344 0.74843 0.24062
 C3471 C 0.19033 0.75646 0.25190
 C3472 C 0.17291 0.75603 0.24675
 H3473 H 0.08663 0.77903 0.19626
 H3474 H 0.08952 0.72428 0.18555
 H3475 H 0.06308 0.72631 0.16727
 H3476 H 0.06001 0.78119 0.17833
 H3477 H 0.17791 0.73279 0.20630
 H3478 H 0.20820 0.73352 0.21501
 H3479 H 0.19349 0.76355 0.26440
 H3480 H 0.16307 0.76264 0.25539
   
