data_POSCAR
  _audit_creation_date              2014-09-24
  _audit_creation_method            'ToBaCCo'
  _symmetry_space_group_name_H-M    'P1'
  _symmetry_Int_Tables_number       1
  _symmetry_cell_setting            triclinic
  loop_
  _symmetry_equiv_pos_as_xyz
 x,y,z
_cell_length_a 54.8992
_cell_length_b 54.8374
_cell_length_c 54.8561
_cell_angle_alpha 90.044800
_cell_angle_beta 89.976500
_cell_angle_gamma 89.910700
loop_
  _atom_site_label
  _atom_site_type_symbol
  _atom_site_fract_x
  _atom_site_fract_y
  _atom_site_fract_z
C1 C 0.34988 0.35007 0.31842
 C2 C 0.37052 0.33933 0.30780
 C3 C 0.38103 0.31826 0.31786
 C4 C 0.37044 0.30777 0.33879
 C5 C 0.34979 0.31832 0.34962
 C6 C 0.33949 0.33957 0.33944
 C7 C 0.33924 0.37090 0.30809
 C8 C 0.31834 0.38149 0.31843
 C9 C 0.30792 0.37076 0.33931
 C10 C 0.31841 0.34996 0.34989
 C11 C 0.30779 0.33906 0.37044
 C12 C 0.31807 0.31794 0.38086
 C13 C 0.33898 0.30766 0.37019
 H14 H 0.37839 0.34733 0.29153
 H15 H 0.37765 0.29103 0.34634
 H16 H 0.34717 0.37887 0.29183
 H17 H 0.29129 0.37802 0.34705
 H18 H 0.29116 0.34677 0.37772
 H19 H 0.34681 0.29123 0.37793
 C20 C 0.35289 0.85498 -0.17737
 C21 C 0.37368 0.84482 -0.18837
 C22 C 0.38400 0.82288 -0.17951
 C23 C 0.37314 0.81167 -0.15911
 C24 C 0.35250 0.82173 -0.14787
 C25 C 0.34228 0.84342 -0.15708
 C26 C 0.34230 0.87636 -0.18668
 C27 C 0.32106 0.88643 -0.17623
 C28 C 0.31079 0.87470 -0.15571
 C29 C 0.32122 0.85335 -0.14621
 C30 C 0.31061 0.84157 -0.12617
 C31 C 0.32074 0.82005 -0.11671
 C32 C 0.34169 0.81013 -0.12779
 H33 H 0.38123 0.85414 -0.20395
 H34 H 0.38070 0.79484 -0.15194
 H35 H 0.35052 0.88502 -0.20244
 H36 H 0.29459 0.88158 -0.14694
 H37 H 0.29433 0.84914 -0.11788
 H38 H 0.34930 0.79310 -0.12137
 C39 C 0.85348 0.35496 -0.17876
 C40 C 0.87445 0.34467 -0.18921
 C41 C 0.88485 0.32310 -0.17983
 C42 C 0.87375 0.31210 -0.15932
 C43 C 0.85281 0.32224 -0.14870
 C44 C 0.84261 0.34371 -0.15845
 C45 C 0.84299 0.37612 -0.18862
 C46 C 0.82160 0.38632 -0.17865
 C47 C 0.81098 0.37483 -0.15814
 C48 C 0.82131 0.35368 -0.14812
 C49 C 0.81039 0.34212 -0.12808
 C50 C 0.82046 0.32079 -0.11814
 C51 C 0.84166 0.31087 -0.12869
 H52 H 0.88258 0.35344 -0.20496
 H53 H 0.88079 0.29552 -0.15143
 H54 H 0.85146 0.38454 -0.20438
 H55 H 0.79455 0.38173 -0.14981
 H56 H 0.79390 0.34969 -0.12021
 H57 H 0.84922 0.29394 -0.12195
 C58 C 0.85008 0.85255 0.31951
 C59 C 0.87062 0.84183 0.30860
 C60 C 0.88094 0.82037 0.31830
 C61 C 0.87026 0.80966 0.33894
 C62 C 0.84975 0.82017 0.35003
 C63 C 0.83964 0.84171 0.34031
 C64 C 0.83955 0.87368 0.30962
 C65 C 0.81861 0.88432 0.32009
 C66 C 0.80844 0.87327 0.34105
 C67 C 0.81878 0.85213 0.35109
 C68 C 0.80819 0.84096 0.37152
 C69 C 0.81827 0.81952 0.38146
 C70 C 0.83899 0.80924 0.37047
 H71 H 0.87796 0.84993 0.29219
 H72 H 0.87793 0.79300 0.34635
 H73 H 0.84766 0.88176 0.29350
 H74 H 0.79235 0.88050 0.34974
 H75 H 0.79170 0.84872 0.37907
 H76 H 0.84671 0.79258 0.37783
 C77 C 0.64953 0.64710 0.31892
 C78 C 0.62883 0.65797 0.30858
 C79 C 0.61835 0.67890 0.31903
 C80 C 0.62906 0.68913 0.34000
 C81 C 0.64975 0.67845 0.35057
 C82 C 0.66003 0.65734 0.34002
 C83 C 0.66016 0.62645 0.30816
 C84 C 0.68121 0.61577 0.31829
 C85 C 0.69160 0.62621 0.33925
 C86 C 0.68118 0.64688 0.35019
 C87 C 0.69183 0.65751 0.37087
 C88 C 0.68167 0.67846 0.38161
 C89 C 0.66065 0.68892 0.37118
 H90 H 0.62086 0.65019 0.29225
 H91 H 0.62189 0.70578 0.34782
 H92 H 0.65234 0.61934 0.29152
 H93 H 0.70797 0.61827 0.34698
 H94 H 0.70819 0.64954 0.37860
 H95 H 0.65305 0.70561 0.37849
 C96 C 0.64745 0.14725 -0.18243
 C97 C 0.62704 0.15846 -0.19305
 C98 C 0.61723 0.18000 -0.18323
 C99 C 0.62830 0.19050 -0.16259
 C100 C 0.64862 0.17946 -0.15170
 C101 C 0.65826 0.15777 -0.16165
 C102 C 0.65741 0.12595 -0.19258
 C103 C 0.67836 0.11490 -0.18233
 C104 C 0.68880 0.12563 -0.16143
 C105 C 0.67900 0.14690 -0.15112
 C106 C 0.68988 0.15771 -0.13064
 C107 C 0.68033 0.17922 -0.12049
 C108 C 0.65976 0.19011 -0.13131
 H109 H 0.61879 0.15046 -0.20914
 H110 H 0.62168 0.20759 -0.15525
 H111 H 0.64869 0.11859 -0.20860
 H112 H 0.70488 0.11755 -0.15323
 H113 H 0.70592 0.14941 -0.12260
 H114 H 0.65266 0.20720 -0.12443
 C115 C 0.14884 0.64778 -0.17902
 C116 C 0.12831 0.65860 -0.18978
 C117 C 0.11811 0.68006 -0.17998
 C118 C 0.12889 0.69068 -0.15934
 C119 C 0.14940 0.68007 -0.14837
 C120 C 0.15944 0.65854 -0.15826
 C121 C 0.15919 0.62666 -0.18913
 C122 C 0.18031 0.61600 -0.17887
 C123 C 0.19057 0.62696 -0.15800
 C124 C 0.18037 0.64807 -0.14771
 C125 C 0.19105 0.65911 -0.12726
 C126 C 0.18111 0.68047 -0.11712
 C127 C 0.16030 0.69094 -0.12795
 H128 H 0.12091 0.65059 -0.20621
 H129 H 0.12131 0.70736 -0.15185
 H130 H 0.15063 0.61916 -0.20516
 H131 H 0.20680 0.61918 -0.14980
 H132 H 0.20725 0.65113 -0.11922
 H133 H 0.15285 0.70788 -0.12109
 C134 C 0.14746 0.14596 0.32070
 C135 C 0.12662 0.15593 0.30967
 C136 C 0.11602 0.17772 0.31860
 C137 C 0.12665 0.18897 0.33913
 C138 C 0.14735 0.17909 0.35040
 C139 C 0.15785 0.15754 0.34109
 C140 C 0.15831 0.12476 0.31128
 C141 C 0.17962 0.11488 0.32171
 C142 C 0.18967 0.12659 0.34236
 C143 C 0.17896 0.14778 0.35196
 C144 C 0.18936 0.15957 0.37211
 C145 C 0.17900 0.18096 0.38166
 C146 C 0.15798 0.19071 0.37060
 H147 H 0.11928 0.14657 0.29401
 H148 H 0.11886 0.20568 0.34634
 H149 H 0.15025 0.11610 0.29543
 H150 H 0.20590 0.11981 0.35114
 H151 H 0.20570 0.15212 0.38038
 H152 H 0.15015 0.20762 0.37711
 C153 C 0.64988 0.35264 0.68010
 C154 C 0.62932 0.34193 0.69085
 C155 C 0.61869 0.32092 0.68059
 C156 C 0.62907 0.31064 0.65955
 C157 C 0.64961 0.32116 0.64859
 C158 C 0.66005 0.34226 0.65887
 C159 C 0.66074 0.37329 0.69055
 C160 C 0.68155 0.38385 0.68008
 C161 C 0.69169 0.37328 0.65895
 C162 C 0.68105 0.35261 0.64830
 C163 C 0.69139 0.34181 0.62754
 C164 C 0.68104 0.32088 0.61705
 C165 C 0.66014 0.31057 0.62781
 H166 H 0.62222 0.34966 0.70756
 H167 H 0.62116 0.29430 0.65173
 H168 H 0.65304 0.38115 0.70699
 H169 H 0.70825 0.38051 0.65110
 H170 H 0.70766 0.34965 0.61953
 H171 H 0.65238 0.29392 0.62065
 C172 C 0.64668 0.85074 1.18055
 C173 C 0.62574 0.84054 1.19111
 C174 C 0.61515 0.81912 1.18136
 C175 C 0.62591 0.80848 1.16058
 C176 C 0.64676 0.81855 1.14983
 C177 C 0.65723 0.83973 1.15986
 C178 C 0.65751 0.87158 1.19069
 C179 C 0.67870 0.88165 1.18048
 C180 C 0.68919 0.87043 1.15987
 C181 C 0.67855 0.84962 1.14950
 C182 C 0.68918 0.83825 1.12919
 C183 C 0.67879 0.81722 1.11893
 C184 C 0.65757 0.80740 1.12948
 H185 H 0.61829 0.84942 1.20701
 H186 H 0.61814 0.79205 1.15277
 H187 H 0.64951 0.87997 1.20673
 H188 H 0.70600 0.87728 1.15220
 H189 H 0.70568 0.84576 1.12133
 H190 H 0.64974 0.79071 1.12248
 C191 C 0.14718 0.35281 1.18139
 C192 C 0.12627 0.34251 1.19189
 C193 C 0.11546 0.32139 1.18181
 C194 C 0.12603 0.31107 1.16075
 C195 C 0.14688 0.32123 1.15004
 C196 C 0.15753 0.34215 1.16042
 C197 C 0.15819 0.37335 1.19194
 C198 C 0.17942 0.38352 1.18171
 C199 C 0.18961 0.37268 1.16084
 C200 C 0.17883 0.35213 1.15012
 C201 C 0.18925 0.34117 1.12947
 C202 C 0.17870 0.32040 1.11886
 C203 C 0.15750 0.31044 1.12938
 H204 H 0.11903 0.35111 1.20805
 H205 H 0.11810 0.29484 1.15269
 H206 H 0.15052 0.38078 1.20852
 H207 H 0.20610 0.38023 1.15301
 H208 H 0.20572 0.34877 1.12166
 H209 H 0.14955 0.29393 1.12212
 C210 C 0.14933 0.85439 0.68238
 C211 C 0.12830 0.84427 0.69284
 C212 C 0.11720 0.82335 0.68260
 C213 C 0.12759 0.81311 0.66139
 C214 C 0.14859 0.82308 0.65077
 C215 C 0.15951 0.84378 0.66131
 C216 C 0.16057 0.87479 0.69297
 C217 C 0.18184 0.88477 0.68283
 C218 C 0.19201 0.87389 0.66191
 C219 C 0.18092 0.85359 0.65105
 C220 C 0.19125 0.84267 0.63037
 C221 C 0.18032 0.82214 0.61951
 C222 C 0.15907 0.81241 0.62997
 H223 H 0.12117 0.85286 0.70904
 H224 H 0.11945 0.79706 0.65318
 H225 H 0.15283 0.88290 0.70927
 H226 H 0.20889 0.88065 0.65431
 H227 H 0.20816 0.84989 0.62330
 H228 H 0.15075 0.79639 0.62191
 C229 C 0.35037 0.65092 0.68210
 C230 C 0.37101 0.66174 0.69254
 C231 C 0.38130 0.68286 0.68238
 C232 C 0.37047 0.69328 0.66154
 C233 C 0.34980 0.68263 0.65089
 C234 C 0.33973 0.66135 0.66117
 C235 C 0.33996 0.63005 0.69255
 C236 C 0.31905 0.61936 0.68240
 C237 C 0.30840 0.63002 0.66159
 C238 C 0.31866 0.65086 0.65090
 C239 C 0.30779 0.66170 0.63043
 C240 C 0.31782 0.68287 0.61993
 C241 C 0.33874 0.69323 0.63041
 H242 H 0.37907 0.65378 0.70874
 H243 H 0.37750 0.71004 0.65391
 H244 H 0.34807 0.62214 0.70874
 H245 H 0.29177 0.62268 0.65400
 H246 H 0.29117 0.65390 0.62328
 H247 H 0.34639 0.70970 0.62261
 C248 C 0.35060 0.14677 1.17775
 C249 C 0.37149 0.15685 1.18857
 C250 C 0.38175 0.17874 1.17961
 C251 C 0.37075 0.18998 1.15929
 C252 C 0.35001 0.17998 1.14823
 C253 C 0.33984 0.15834 1.15755
 C254 C 0.34010 0.12546 1.18719
 C255 C 0.31876 0.11546 1.17699
 C256 C 0.30831 0.12718 1.15654
 C257 C 0.31868 0.14847 1.14688
 C258 C 0.30796 0.16025 1.12687
 C259 C 0.31806 0.18171 1.11728
 C260 C 0.33907 0.19158 1.12822
 H261 H 0.37914 0.14749 1.20408
 H262 H 0.37828 0.20677 1.15205
 H263 H 0.34846 0.11680 1.20289
 H264 H 0.29204 0.12028 1.14793
 H265 H 0.29162 0.15273 1.11872
 H266 H 0.34666 0.20858 1.12174
 C267 C 0.85266 0.64743 1.18050
 C268 C 0.87312 0.65843 1.19119
 C269 C 0.88297 0.68002 1.18142
 C270 C 0.87191 0.69062 1.16093
 C271 C 0.85150 0.67981 1.15003
 C272 C 0.84181 0.65814 1.15985
 C273 C 0.84267 0.62617 1.19057
 C274 C 0.82165 0.61529 1.18037
 C275 C 0.81113 0.62621 1.15960
 C276 C 0.82098 0.64747 1.14933
 C277 C 0.81011 0.65847 1.12893
 C278 C 0.81975 0.67997 1.11885
 C279 C 0.84040 0.69064 1.12972
 H280 H 0.88076 0.65046 1.20753
 H281 H 0.87923 0.70740 1.15349
 H282 H 0.85144 0.61875 1.20652
 H283 H 0.79498 0.61826 1.15144
 H284 H 0.79401 0.65034 1.12088
 H285 H 0.84759 0.70770 1.12297
 C286 C 0.85001 0.14985 0.67983
 C287 C 0.87063 0.16090 0.69018
 C288 C 0.88075 0.18208 0.67975
 C289 C 0.86978 0.19220 0.65894
 C290 C 0.84914 0.18141 0.64845
 C291 C 0.83922 0.16015 0.65889
 C292 C 0.83968 0.12901 0.69047
 C293 C 0.81871 0.11821 0.68035
 C294 C 0.80805 0.12872 0.65959
 C295 C 0.81815 0.14953 0.64875
 C296 C 0.80719 0.16017 0.62824
 C297 C 0.81710 0.18133 0.61758
 C298 C 0.83802 0.19182 0.62792
 H299 H 0.87819 0.15327 0.70671
 H300 H 0.87729 0.20865 0.65098
 H301 H 0.84767 0.12180 0.70698
 H302 H 0.79173 0.12067 0.65189
 H303 H 0.79059 0.15224 0.62120
 H304 H 0.84559 0.20827 0.62001
 C305 C 0.35042 0.35092 0.67916
 C306 C 0.33984 0.37155 0.68996
 C307 C 0.31871 0.38214 0.68016
 C308 C 0.30800 0.37165 0.65929
 C309 C 0.31842 0.35102 0.64824
 C310 C 0.33971 0.34061 0.65820
 C311 C 0.37129 0.34018 0.68926
 C312 C 0.38172 0.31927 0.67875
 C313 C 0.37082 0.30895 0.65791
 C314 C 0.34994 0.31953 0.64759
 C315 C 0.33882 0.30900 0.62713
 C316 C 0.31768 0.31926 0.61697
 C317 C 0.30750 0.34027 0.62774
 H318 H 0.34801 0.37935 0.70619
 H319 H 0.29122 0.37894 0.65195
 H320 H 0.37941 0.34803 0.70549
 H321 H 0.37795 0.29232 0.65003
 H322 H 0.34659 0.29267 0.61909
 H323 H 0.29073 0.34797 0.62080
 C324 C 0.35151 0.85007 0.18201
 C325 C 0.34089 0.87083 0.19257
 C326 C 0.32016 0.88173 0.18205
 C327 C 0.31000 0.87136 0.16094
 C328 C 0.32038 0.85057 0.15022
 C329 C 0.34125 0.83989 0.16076
 C330 C 0.37190 0.83899 0.19277
 C331 C 0.38232 0.81788 0.18245
 C332 C 0.37186 0.80782 0.16136
 C333 C 0.35146 0.81867 0.15041
 C334 C 0.34083 0.80830 0.12959
 C335 C 0.32008 0.81896 0.11883
 C336 C 0.30996 0.84002 0.12939
 H337 H 0.34847 0.87789 0.20934
 H338 H 0.29386 0.87947 0.15293
 H339 H 0.37904 0.84654 0.20952
 H340 H 0.37961 0.79139 0.15350
 H341 H 0.34840 0.79156 0.12238
 H342 H 0.29381 0.84815 0.12140
 C343 C 0.85068 0.34853 0.17860
 C344 C 0.84000 0.36936 0.18899
 C345 C 0.81907 0.37995 0.17869
 C346 C 0.80871 0.36926 0.15775
 C347 C 0.81922 0.34847 0.14714
 C348 C 0.84029 0.33807 0.15756
 C349 C 0.87132 0.33775 0.18918
 C350 C 0.88181 0.31665 0.17906
 C351 C 0.87119 0.30621 0.15813
 C352 C 0.85060 0.31684 0.14730
 C353 C 0.83982 0.30619 0.12670
 C354 C 0.81888 0.31659 0.11607
 C355 C 0.80867 0.33762 0.12655
 H356 H 0.84791 0.37729 0.20528
 H357 H 0.79210 0.37648 0.15000
 H358 H 0.87920 0.34572 0.20546
 H359 H 0.87834 0.28946 0.15053
 H360 H 0.84744 0.28945 0.11952
 H361 H 0.79236 0.34552 0.11863
 C362 C 0.85227 0.84962 0.67961
 C363 C 0.84153 0.87032 0.69017
 C364 C 0.82052 0.88089 0.67986
 C365 C 0.81026 0.87028 0.65892
 C366 C 0.82079 0.84956 0.64818
 C367 C 0.84191 0.83921 0.65852
 C368 C 0.87293 0.83885 0.69014
 C369 C 0.88351 0.81787 0.67989
 C370 C 0.87295 0.80749 0.65892
 C371 C 0.85229 0.81807 0.64817
 C372 C 0.84152 0.80743 0.62756
 C373 C 0.82054 0.81778 0.61696
 C374 C 0.81027 0.83878 0.62751
 H375 H 0.84924 0.87756 0.70681
 H376 H 0.79392 0.87813 0.65105
 H377 H 0.88079 0.84676 0.70646
 H378 H 0.88020 0.79081 0.65124
 H379 H 0.84921 0.79073 0.62038
 H380 H 0.79393 0.84665 0.61965
 C381 C 0.64928 0.65101 0.68109
 C382 C 0.66015 0.63034 0.69156
 C383 C 0.68114 0.61986 0.68124
 C384 C 0.69140 0.63055 0.66028
 C385 C 0.68071 0.65118 0.64960
 C386 C 0.65955 0.66144 0.65998
 C387 C 0.62855 0.66167 0.69165
 C388 C 0.61785 0.68260 0.68144
 C389 C 0.62834 0.69300 0.66042
 C390 C 0.64903 0.68251 0.64961
 C391 C 0.65972 0.69312 0.62893
 C392 C 0.68080 0.68286 0.61839
 C393 C 0.69118 0.66200 0.62897
 H394 H 0.65233 0.62241 0.70788
 H395 H 0.70810 0.62344 0.65255
 H396 H 0.62076 0.65373 0.70799
 H397 H 0.62101 0.70963 0.65275
 H398 H 0.65193 0.70971 0.62163
 H399 H 0.70756 0.65419 0.62111
 C400 C 0.64792 0.14891 0.17786
 C401 C 0.65866 0.12832 0.18858
 C402 C 0.67969 0.11770 0.17850
 C403 C 0.69012 0.12815 0.15749
 C404 C 0.67956 0.14872 0.14656
 C405 C 0.65837 0.15913 0.15673
 C406 C 0.62715 0.15970 0.18819
 C407 C 0.61659 0.18057 0.17773
 C408 C 0.62726 0.19078 0.15673
 C409 C 0.64799 0.18014 0.14614
 C410 C 0.65884 0.19058 0.12548
 C411 C 0.67992 0.18018 0.11510
 C412 C 0.69019 0.15935 0.12589
 H413 H 0.65071 0.12056 0.20493
 H414 H 0.70684 0.12089 0.14994
 H415 H 0.61923 0.15192 0.20454
 H416 H 0.62004 0.20738 0.14889
 H417 H 0.65116 0.20717 0.11807
 H418 H 0.70660 0.15145 0.11818
 C419 C 0.15021 0.65058 0.18159
 C420 C 0.16122 0.62992 0.19191
 C421 C 0.18218 0.61955 0.18144
 C422 C 0.19231 0.63036 0.16047
 C423 C 0.18151 0.65102 0.14996
 C424 C 0.16037 0.66116 0.16050
 C425 C 0.12951 0.66110 0.19235
 C426 C 0.11872 0.68211 0.18221
 C427 C 0.12909 0.69258 0.16128
 C428 C 0.14976 0.68226 0.15031
 C429 C 0.16028 0.69301 0.12963
 C430 C 0.18134 0.68289 0.11892
 C431 C 0.19185 0.66199 0.12933
 H432 H 0.15351 0.62188 0.20824
 H433 H 0.20898 0.62331 0.15262
 H434 H 0.12242 0.65323 0.20897
 H435 H 0.12104 0.70892 0.15355
 H436 H 0.15239 0.70962 0.12248
 H437 H 0.20822 0.65428 0.12134
 C438 C 0.14934 0.15093 0.68197
 C439 C 0.16010 0.13073 0.69342
 C440 C 0.18132 0.11995 0.68375
 C441 C 0.19180 0.12986 0.66259
 C442 C 0.18128 0.15008 0.65096
 C443 C 0.15995 0.16065 0.66068
 C444 C 0.12844 0.16190 0.69185
 C445 C 0.11786 0.18245 0.68062
 C446 C 0.12867 0.19207 0.65952
 C447 C 0.14959 0.18133 0.64947
 C448 C 0.16054 0.19123 0.62862
 C449 C 0.18171 0.18078 0.61868
 C450 C 0.19205 0.16018 0.63007
 H451 H 0.15220 0.12402 0.71018
 H452 H 0.20830 0.12184 0.65521
 H453 H 0.12100 0.15475 0.70865
 H454 H 0.12081 0.20807 0.65097
 H455 H 0.15264 0.20725 0.62012
 H456 H 0.20884 0.15235 0.62330
 C457 C 0.34951 0.64964 0.32108
 C458 C 0.33856 0.62908 0.31061
 C459 C 0.31753 0.61878 0.32090
 C460 C 0.30732 0.62951 0.34192
 C461 C 0.31812 0.65009 0.35263
 C462 C 0.33931 0.66019 0.34219
 C463 C 0.37027 0.66007 0.31049
 C464 C 0.38109 0.68091 0.32066
 C465 C 0.37070 0.69147 0.34167
 C466 C 0.34993 0.68122 0.35248
 C467 C 0.33931 0.69198 0.37312
 C468 C 0.31828 0.68202 0.38376
 C469 C 0.30770 0.66108 0.37328
 H470 H 0.34634 0.62109 0.29427
 H471 H 0.29064 0.62244 0.34966
 H472 H 0.37799 0.65202 0.29415
 H473 H 0.37816 0.70805 0.34931
 H474 H 0.34736 0.70826 0.38091
 H475 H 0.29098 0.65363 0.38057
 C476 C 0.35144 0.15281 0.81953
 C477 C 0.34111 0.13189 0.80909
 C478 C 0.32038 0.12099 0.81955
 C479 C 0.30997 0.13149 0.84049
 C480 C 0.32010 0.15244 0.85110
 C481 C 0.34096 0.16312 0.84063
 C482 C 0.37180 0.16389 0.80884
 C483 C 0.38202 0.18505 0.81895
 C484 C 0.37140 0.19534 0.83998
 C485 C 0.35097 0.18447 0.85089
 C486 C 0.34004 0.19498 0.87153
 C487 C 0.31926 0.18431 0.88219
 C488 C 0.30941 0.16311 0.87174
 H489 H 0.34891 0.12472 0.79245
 H490 H 0.29382 0.12338 0.84846
 H491 H 0.37973 0.15604 0.79250
 H492 H 0.37843 0.21213 0.84756
 H493 H 0.34741 0.21181 0.87868
 H494 H 0.29325 0.15497 0.87967
 C495 C 0.85162 0.65088 0.81981
 C496 C 0.84136 0.63005 0.80906
 C497 C 0.82054 0.61906 0.81911
 C498 C 0.80982 0.62940 0.84005
 C499 C 0.81993 0.65014 0.85104
 C500 C 0.84091 0.66094 0.84092
 C501 C 0.87217 0.66206 0.80953
 C502 C 0.88227 0.68315 0.82001
 C503 C 0.87135 0.69315 0.84104
 C504 C 0.85080 0.68215 0.85154
 C505 C 0.83967 0.69232 0.87223
 C506 C 0.81884 0.68160 0.88255
 C507 C 0.80898 0.66055 0.87167
 H508 H 0.84950 0.62240 0.79274
 H509 H 0.79321 0.62190 0.84753
 H510 H 0.88029 0.65440 0.79320
 H511 H 0.87821 0.70985 0.84896
 H512 H 0.84718 0.70872 0.88032
 H513 H 0.79241 0.65252 0.87867
 C514 C 0.85004 0.14864 0.31863
 C515 C 0.83918 0.12801 0.30814
 C516 C 0.81813 0.11765 0.31838
 C517 C 0.80782 0.12840 0.33934
 C518 C 0.81850 0.14903 0.35005
 C519 C 0.83969 0.15918 0.33968
 C520 C 0.87083 0.15917 0.30814
 C521 C 0.88151 0.18008 0.31837
 C522 C 0.87089 0.19062 0.33926
 C523 C 0.85017 0.18025 0.35000
 C524 C 0.83945 0.19102 0.37058
 C525 C 0.81841 0.18088 0.38120
 C526 C 0.80801 0.15998 0.37068
 H527 H 0.84705 0.12002 0.29184
 H528 H 0.79111 0.12134 0.34703
 H529 H 0.87870 0.15114 0.29186
 H530 H 0.87816 0.20728 0.34690
 H531 H 0.84723 0.20767 0.37773
 H532 H 0.79162 0.15228 0.37856
 C533 C 0.64899 0.34859 0.31649
 C534 C 0.65990 0.36912 0.30582
 C535 C 0.68093 0.37962 0.31618
 C536 C 0.69100 0.36912 0.33725
 C537 C 0.68030 0.34861 0.34809
 C538 C 0.65919 0.33832 0.33773
 C539 C 0.62831 0.33788 0.30597
 C540 C 0.61755 0.31710 0.31638
 C541 C 0.62798 0.30686 0.33750
 C542 C 0.64864 0.31739 0.34826
 C543 C 0.65923 0.30693 0.36907
 C544 C 0.68023 0.31723 0.37963
 C545 C 0.69065 0.33799 0.36891
 H546 H 0.65232 0.37631 0.28910
 H547 H 0.70733 0.37691 0.34516
 H548 H 0.62056 0.34567 0.28954
 H549 H 0.62062 0.29033 0.34532
 H550 H 0.65141 0.29041 0.37645
 H551 H 0.70699 0.34585 0.37677
 C552 C 0.65026 0.85020 0.81962
 C553 C 0.66077 0.87072 0.80860
 C554 C 0.68190 0.88146 0.81846
 C555 C 0.69250 0.87120 0.83939
 C556 C 0.68219 0.85068 0.85062
 C557 C 0.66096 0.84014 0.84071
 C558 C 0.62948 0.83926 0.80955
 C559 C 0.61909 0.81846 0.82026
 C560 C 0.62998 0.80845 0.84127
 C561 C 0.65079 0.81918 0.85154
 C562 C 0.66190 0.80895 0.87217
 C563 C 0.68298 0.81937 0.88228
 C564 C 0.69308 0.84026 0.87129
 H565 H 0.65280 0.87771 0.79198
 H566 H 0.70893 0.87919 0.84689
 H567 H 0.62138 0.84690 0.79322
 H568 H 0.62287 0.79193 0.84934
 H569 H 0.65418 0.79271 0.88037
 H570 H 0.70978 0.84811 0.87818
 C571 C 0.14870 0.35141 0.81799
 C572 C 0.15975 0.37197 0.80755
 C573 C 0.18069 0.38236 0.81817
 C574 C 0.19053 0.37173 0.83927
 C575 C 0.17969 0.35118 0.84989
 C576 C 0.15866 0.34099 0.83927
 C577 C 0.12813 0.34081 0.80718
 C578 C 0.11723 0.31998 0.81732
 C579 C 0.12739 0.30960 0.83851
 C580 C 0.14796 0.32002 0.84957
 C581 C 0.15836 0.30941 0.87042
 C582 C 0.17929 0.31961 0.88123
 C583 C 0.18983 0.34043 0.87073
 H584 H 0.15235 0.37927 0.79079
 H585 H 0.20681 0.37944 0.84738
 H586 H 0.12058 0.34872 0.79071
 H587 H 0.11990 0.29305 0.84615
 H588 H 0.15044 0.29287 0.87764
 H589 H 0.20611 0.34820 0.87878
 C590 C 0.14890 0.85135 0.31947
 C591 C 0.15981 0.87184 0.30879
 C592 C 0.18078 0.88238 0.31914
 C593 C 0.19091 0.87187 0.34020
 C594 C 0.18025 0.85130 0.35103
 C595 C 0.15913 0.84102 0.34066
 C596 C 0.12823 0.84071 0.30890
 C597 C 0.11747 0.81989 0.31934
 C598 C 0.12792 0.80961 0.34032
 C599 C 0.14861 0.82004 0.35109
 C600 C 0.15921 0.80948 0.37183
 C601 C 0.18022 0.81972 0.38245
 C602 C 0.19062 0.84058 0.37181
 H603 H 0.15222 0.87896 0.29204
 H604 H 0.20724 0.87969 0.34810
 H605 H 0.12109 0.84835 0.29218
 H606 H 0.11992 0.79338 0.34825
 H607 H 0.15136 0.79293 0.37908
 H608 H 0.20695 0.84840 0.37969
 O609 O 0.25248 1.02393 0.21898
 O610 O 0.21995 0.97612 0.25324
 O611 O 0.21881 1.02361 0.25229
 O612 O 0.25230 0.97633 0.21855
 O613 O 0.28115 0.97658 0.24660
 O614 O 0.24760 1.02414 0.28039
 O615 O 0.24882 0.97659 0.28127
 O616 O 0.28128 1.02416 0.24707
 Cu617 Cu 0.23301 0.99994 0.23294
 Cu618 Cu 0.26761 1.00040 0.26664
 C619 C 0.27239 1.03229 0.22734
 C620 C 0.22892 0.96818 0.27309
 C621 C 0.22751 1.03205 0.27197
 C622 C 0.27232 0.96829 0.22683
 O623 O 0.25073 0.52393 0.78382
 O624 O 0.28393 0.47636 0.74985
 O625 O 0.28416 0.52394 0.75025
 O626 O 0.25035 0.47635 0.78334
 O627 O 0.22194 0.47679 0.75486
 O628 O 0.25576 0.52429 0.72174
 O629 O 0.25549 0.47677 0.72140
 O630 O 0.22237 0.52432 0.75529
 Cu631 Cu 0.27015 0.50009 0.76967
 Cu632 Cu 0.23603 0.50058 0.73547
 C633 C 0.23096 0.53234 0.77526
 C634 C 0.27533 0.46839 0.72991
 C635 C 0.27566 0.53232 0.73043
 C636 C 0.23044 0.46840 0.77470
 O637 O 0.77960 0.02348 0.25010
 O638 O 0.74447 -0.02400 0.21815
 O639 O 0.74478 0.02354 0.21792
 O640 O 0.77934 -0.02416 0.25018
 O641 O 0.75201 -0.02379 0.27971
 O642 O 0.71751 0.02395 0.24752
 O643 O 0.71715 -0.02361 0.24770
 O644 O 0.75232 0.02377 0.27969
 Cu645 Cu 0.76479 -0.00030 0.23112
 Cu646 Cu 0.73202 0.00013 0.26663
 C647 C 0.77190 0.03178 0.27030
 C648 C 0.72488 -0.03197 0.22755
 C649 C 0.72530 0.03193 0.22726
 C650 C 0.77146 -0.03224 0.27037
 O651 O 0.71994 0.52552 0.74885
 O652 O 0.75457 0.47756 0.78041
 O653 O 0.75536 0.52506 0.78030
 O654 O 0.71983 0.47797 0.74827
 O655 O 0.74694 0.47786 0.71851
 O656 O 0.78243 0.52489 0.75052
 O657 O 0.78169 0.47724 0.75068
 O658 O 0.74698 0.52538 0.71903
 Cu659 Cu 0.73472 0.50156 0.76745
 Cu660 Cu 0.76723 0.50134 0.73170
 C661 C 0.72757 0.53369 0.72861
 C662 C 0.77392 0.46910 0.77090
 C663 C 0.77490 0.53307 0.77081
 C664 C 0.72741 0.46981 0.72796
 O665 O 0.25404 0.47647 0.28024
 O666 O 0.21959 0.52431 0.24821
 O667 O 0.22029 0.47681 0.24695
 O668 O 0.25371 0.52404 0.28101
 O669 O 0.28177 0.52474 0.25216
 O670 O 0.24838 0.47757 0.21814
 O671 O 0.24761 0.52508 0.21933
 O672 O 0.28209 0.47717 0.25139
 Cu673 Cu 0.23410 0.50031 0.26701
 Cu674 Cu 0.26779 0.50123 0.23237
 C675 C 0.27387 0.46858 0.27123
 C676 C 0.22776 0.53291 0.22837
 C677 C 0.22869 0.46910 0.22676
 C678 C 0.27340 0.53253 0.27228
 O679 O 0.75203 1.02276 0.71722
 O680 O 0.71988 0.97533 0.75220
 O681 O 0.71949 1.02288 0.75160
 O682 O 0.75204 0.97517 0.71736
 O683 O 0.78141 0.97548 0.74486
 O684 O 0.74879 1.02331 0.77915
 O685 O 0.74923 0.97570 0.77971
 O686 O 0.78136 1.02305 0.74476
 Cu687 Cu 0.73292 0.99898 0.73184
 Cu688 Cu 0.76814 0.99940 0.76488
 C689 C 0.77210 1.03109 0.72512
 C690 C 0.72915 0.96737 0.77189
 C691 C 0.72865 1.03136 0.77110
 C692 C 0.77222 0.96712 0.72530
 O693 O 0.78323 0.47490 0.24659
 O694 O 0.74954 0.52178 0.28077
 O695 O 0.74962 0.47424 0.28000
 O696 O 0.78187 0.52249 0.24617
 O697 O 0.75310 0.52213 0.21807
 O698 O 0.72079 0.47411 0.25195
 O699 O 0.72071 0.52169 0.25270
 O700 O 0.75443 0.47449 0.21851
 Cu701 Cu 0.76896 0.49837 0.26617
 Cu702 Cu 0.73437 0.49807 0.23249
 C703 C 0.77455 0.46657 0.22685
 C704 C 0.72950 0.52983 0.27255
 C705 C 0.72971 0.46591 0.27168
 C706 C 0.77288 0.53064 0.22642
 O707 O 0.25390 -0.02181 0.78332
 O708 O 0.22058 0.02623 0.74998
 O709 O 0.21950 -0.02128 0.75077
 O710 O 0.25341 0.02578 0.78416
 O711 O 0.28177 0.02575 0.75559
 O712 O 0.24783 -0.02168 0.72217
 O713 O 0.24895 0.02581 0.72143
 O714 O 0.28223 -0.02184 0.75472
 Cu715 Cu 0.23402 0.00226 0.76994
 Cu716 Cu 0.26805 0.00199 0.73563
 C717 C 0.27372 -0.03009 0.77456
 C718 C 0.22919 0.03422 0.73000
 C719 C 0.22787 -0.02959 0.73088
 C720 C 0.27323 0.03392 0.77556
 O721 O 0.24646 0.28314 0.97655
 O722 O 0.27896 0.24858 1.02411
 O723 O 0.27925 0.24887 0.97658
 O724 O 0.24652 0.28319 1.02415
 O725 O 0.21735 0.25552 1.02404
 O726 O 0.25007 0.22119 0.97635
 O727 O 0.24980 0.22089 1.02390
 O728 O 0.21730 0.25546 0.97645
 Cu729 Cu 0.26572 0.26873 1.00037
 Cu730 Cu 0.23070 0.23550 1.00017
 C731 C 0.22642 0.27511 0.96830
 C732 C 0.26985 0.22887 1.03216
 C733 C 0.27019 0.22924 0.96827
 C734 C 0.22644 0.27516 1.03230
 O735 O 0.24747 0.78434 0.47799
 O736 O 0.28089 0.75122 0.52574
 O737 O 0.28120 0.75102 0.47817
 O738 O 0.24603 0.78340 0.52550
 O739 O 0.21831 0.75427 0.52479
 O740 O 0.25342 0.72195 0.47764
 O741 O 0.25315 0.72210 0.52518
 O742 O 0.21965 0.75530 0.47722
 Cu743 Cu 0.26667 0.77041 0.50193
 Cu744 Cu 0.23335 0.73549 0.50113
 C745 C 0.22797 0.77546 0.46937
 C746 C 0.27272 0.73112 0.53369
 C747 C 0.27321 0.73098 0.46977
 C748 C 0.22622 0.77427 0.53328
 O749 O 0.22014 0.74668 -0.02353
 O750 O 0.25216 0.78155 0.02409
 O751 O 0.25245 0.78135 -0.02346
 O752 O 0.21976 0.74706 0.02400
 O753 O 0.24912 0.71949 0.02431
 O754 O 0.28179 0.75376 -0.02324
 O755 O 0.28155 0.75400 0.02429
 O756 O 0.24950 0.71911 -0.02325
 Cu757 Cu 0.23318 0.76692 0.00023
 Cu758 Cu 0.26844 0.73382 0.00056
 C759 C 0.22940 0.72699 -0.03156
 C760 C 0.27227 0.77366 0.03238
 C761 C 0.27262 0.77337 -0.03150
 C762 C 0.22895 0.72749 0.03234
 O763 O 0.21887 0.24639 0.47539
 O764 O 0.25287 0.27969 0.52275
 O765 O 0.25318 0.27904 0.47522
 O766 O 0.21872 0.24690 0.52298
 O767 O 0.24660 0.21784 0.52352
 O768 O 0.28094 0.24986 0.47556
 O769 O 0.28075 0.25061 0.52310
 O770 O 0.24664 0.21722 0.47599
 Cu771 Cu 0.23311 0.26593 0.49903
 Cu772 Cu 0.26652 0.23096 0.49959
 C773 C 0.22704 0.22616 0.46755
 C774 C 0.27256 0.27076 0.53106
 C775 C 0.27288 0.26987 0.46717
 C776 C 0.22686 0.22698 0.53150
 O777 O 0.74719 0.78043 0.97754
 O778 O 0.77999 0.74637 1.02545
 O779 O 0.78150 0.74773 0.97796
 O780 O 0.74724 0.78076 1.02512
 O781 O 0.71883 0.75229 1.02467
 O782 O 0.75313 0.71923 0.97710
 O783 O 0.75156 0.71794 1.02463
 O784 O 0.71880 0.75195 0.97711
 Cu785 Cu 0.76682 0.76668 1.00161
 Cu786 Cu 0.73273 0.73250 1.00081
 C787 C 0.72740 0.77184 0.96910
 C788 C 0.77127 0.72635 1.03323
 C789 C 0.77314 0.72798 0.96937
 C790 C 0.72732 0.77217 1.03304
 O791 O 0.71926 0.25513 0.52305
 O792 O 0.75119 0.21957 0.47590
 O793 O 0.75216 0.22092 0.52342
 O794 O 0.71891 0.25427 0.47550
 O795 O 0.74807 0.28195 0.47461
 O796 O 0.78128 0.24864 0.52240
 O797 O 0.78037 0.24723 0.47494
 O798 O 0.74842 0.28281 0.52216
 Cu799 Cu 0.73244 0.23470 0.49959
 Cu800 Cu 0.76745 0.26794 0.49842
 C801 C 0.72843 0.27496 0.53073
 C802 C 0.77116 0.22739 0.46730
 C803 C 0.77237 0.22918 0.53112
 C804 C 0.72793 0.27375 0.46680
 O805 O 0.78070 0.25282 -0.02623
 O806 O 0.74846 0.21749 0.02087
 O807 O 0.74898 0.21760 -0.02670
 O808 O 0.78067 0.25216 0.02123
 O809 O 0.75105 0.27945 0.02138
 O810 O 0.71933 0.24486 -0.02660
 O811 O 0.71885 0.24479 0.02087
 O812 O 0.75104 0.28007 -0.02613
 Cu813 Cu 0.76768 0.23227 -0.00274
 Cu814 Cu 0.73208 0.26502 -0.00263
 C815 C 0.77133 0.27246 -0.03422
 C816 C 0.72820 0.22521 0.02898
 C817 C 0.72879 0.22536 -0.03487
 C818 C 0.77123 0.27163 0.02955
 O819 O 0.78266 0.75052 0.47588
 O820 O 0.74912 0.71746 0.52364
 O821 O 0.74984 0.71640 0.47608
 O822 O 0.78184 0.75169 0.52337
 O823 O 0.75279 0.77957 0.52246
 O824 O 0.72082 0.74431 0.47516
 O825 O 0.72010 0.74538 0.52268
 O826 O 0.75369 0.77848 0.47498
 Cu827 Cu 0.76877 0.73121 0.49985
 Cu828 Cu 0.73392 0.76473 0.49869
 C829 C 0.77387 0.77012 0.46727
 C830 C 0.72899 0.72584 0.53139
 C831 C 0.72991 0.72440 0.46749
 C832 C 0.77273 0.77159 0.53104
 O833 O 0.97620 0.25162 0.21856
 O834 O 1.02403 0.21787 0.25172
 O835 O 0.97645 0.21689 0.25085
 O836 O 1.02370 0.25135 0.21820
 O837 O 1.02356 0.27921 0.24729
 O838 O 0.97587 0.24491 0.27977
 O839 O 1.02329 0.24574 0.28080
 O840 O 0.97601 0.27963 0.24750
 Cu841 Cu 1.00013 0.23162 0.23193
 Cu842 Cu 0.99963 0.26519 0.26673
 C843 C 0.96792 0.27139 0.22747
 C844 C 1.03186 0.22616 0.27191
 C845 C 0.96800 0.22505 0.27077
 C846 C 1.03183 0.27102 0.22723
 O847 O 0.52451 0.28124 0.74501
 O848 O 0.47684 0.24825 0.77867
 O849 O 0.52429 0.24698 0.77780
 O850 O 0.47702 0.28212 0.74557
 O851 O 0.47614 0.25410 0.71664
 O852 O 0.52336 0.21900 0.74885
 O853 O 0.47590 0.22022 0.74976
 O854 O 0.52361 0.25322 0.71609
 Cu855 Cu 0.50078 0.26747 0.76467
 Cu856 Cu 0.49966 0.23383 0.72993
 C857 C 0.53226 0.27281 0.72486
 C858 C 0.46817 0.22866 0.76988
 C859 C 0.53193 0.22703 0.76877
 C860 C 0.46844 0.27402 0.72567
 O861 O 0.02274 0.25658 0.77651
 O862 O -0.02476 0.22305 0.74307
 O863 O 0.02271 0.22310 0.74297
 O864 O -0.02472 0.25678 0.77637
 O865 O -0.02481 0.28521 0.74789
 O866 O 0.02275 0.25150 0.71445
 O867 O -0.02480 0.25145 0.71456
 O868 O 0.02276 0.28501 0.74803
 Cu869 Cu -0.00101 0.23703 0.76259
 Cu870 Cu -0.00103 0.27115 0.72837
 C871 C 0.03093 0.27645 0.76791
 C872 C -0.03296 0.23159 0.72317
 C873 C 0.03091 0.23163 0.72307
 C874 C -0.03295 0.27667 0.76778
 O875 O 0.47438 0.21927 0.24511
 O876 O 0.52249 0.25300 0.27767
 O877 O 0.47500 0.25330 0.27810
 O878 O 0.52196 0.21828 0.24534
 O879 O 0.52236 0.24607 0.21622
 O880 O 0.47510 0.28099 0.24890
 O881 O 0.52265 0.28077 0.24854
 O882 O 0.47488 0.24692 0.21587
 Cu883 Cu 0.49843 0.23317 0.26448
 Cu884 Cu 0.49877 0.26647 0.22946
 C885 C 0.46637 0.22744 0.22496
 C886 C 0.53082 0.27261 0.26857
 C887 C 0.46694 0.27303 0.26904
 C888 C 0.53027 0.22626 0.22529
 O889 O 1.02530 0.78170 0.74876
 O890 O 0.97686 0.74845 0.78145
 O891 O 1.02436 0.74873 0.78280
 O892 O 0.97774 0.78242 0.74840
 O893 O 0.97807 0.75393 0.71993
 O894 O 1.02486 0.72020 0.75437
 O895 O 0.97740 0.71997 0.75296
 O896 O 1.02562 0.75318 0.72032
 Cu897 Cu 1.00102 0.76819 0.76819
 Cu898 Cu 1.00154 0.73397 0.73404
 C899 C 1.03380 0.77299 0.72901
 C900 C 0.96884 0.72854 0.77268
 C901 C 1.03263 0.72880 0.77444
 C902 C 0.96983 0.77388 0.72842
 O903 O 0.47618 0.74870 0.21824
 O904 O 0.52344 0.71482 0.25160
 O905 O 0.47593 0.71532 0.25186
 O906 O 0.52364 0.74878 0.21856
 O907 O 0.52370 0.77706 0.24724
 O908 O 0.47605 0.74369 0.28046
 O909 O 0.52354 0.74314 0.28025
 O910 O 0.47622 0.77708 0.24683
 Cu911 Cu 0.49979 0.72906 0.23220
 Cu912 Cu 0.49987 0.76309 0.26657
 C913 C 0.46808 0.76860 0.22686
 C914 C 0.53164 0.72324 0.27152
 C915 C 0.46779 0.72388 0.27179
 C916 C 0.53189 0.76856 0.22730
 O917 O 0.02309 0.75235 0.28182
 O918 O -0.02369 0.71976 0.24663
 O919 O 0.02375 0.72017 0.24703
 O920 O -0.02442 0.75228 0.28116
 O921 O -0.02427 0.78171 0.25371
 O922 O 0.02377 0.74956 0.21953
 O923 O -0.02372 0.74920 0.21918
 O924 O 0.02321 0.78174 0.25433
 Cu925 Cu -0.00034 0.73319 0.26692
 Cu926 Cu -0.00025 0.76851 0.23393
 C927 C 0.03123 0.77252 0.27400
 C928 C -0.03174 0.72895 0.22696
 C929 C 0.03203 0.72945 0.22749
 C930 C -0.03261 0.77242 0.27321
 O931 O 0.47592 0.78158 0.75422
 O932 O 0.52338 0.74732 0.72111
 O933 O 0.47586 0.74747 0.72129
 O934 O 0.52352 0.78178 0.75373
 O935 O 0.52393 0.75389 0.78274
 O936 O 0.47601 0.71971 0.75043
 O937 O 0.52356 0.71946 0.75015
 O938 O 0.47642 0.75387 0.78340
 Cu939 Cu 0.49965 0.76734 0.73468
 Cu940 Cu 0.50000 0.73395 0.76959
 C941 C 0.46801 0.77348 0.77442
 C942 C 0.53162 0.72759 0.73006
 C943 C 0.46771 0.72781 0.73040
 C944 C 0.53197 0.77362 0.77366
 C945 C 0.40214 0.30707 0.30513
 C946 C 0.41808 0.29193 0.31591
 C947 C 0.43833 0.27958 0.30303
 C948 C 0.44761 0.28683 0.28160
 H949 H 0.41602 0.28740 0.33497
 H950 H 0.44606 0.26380 0.31205
 H951 H 0.40433 0.31159 0.28608
 H952 H 0.44102 0.30319 0.27279
 C953 C 0.40437 0.81122 0.80977
 C954 C 0.41689 0.81941 0.79029
 C955 C 0.43741 0.80622 0.77855
 C956 C 0.44861 0.78648 0.78773
 H957 H 0.41190 0.83620 0.78139
 H958 H 0.44344 0.81339 0.76117
 H959 H 0.40984 0.79410 0.81781
 H960 H 0.44351 0.77911 0.80524
 C961 C -0.09450 0.31330 0.80821
 C962 C -0.08254 0.29292 0.81502
 C963 C -0.06186 0.28180 0.80166
 C964 C -0.05247 0.28995 0.78061
 H965 H -0.08781 0.28295 0.83108
 H966 H -0.05444 0.26532 0.80966
 H967 H -0.08819 0.32298 0.79229
 H968 H -0.05931 0.30626 0.77198
 C969 C -0.09801 0.80781 0.30679
 C970 C -0.08197 0.81887 0.29200
 C971 C -0.06160 0.80618 0.27962
 C972 C -0.05225 0.78474 0.28679
 H973 H -0.08394 0.83804 0.28786
 H974 H -0.05378 0.81540 0.26403
 H975 H -0.09591 0.78863 0.31082
 H976 H -0.05892 0.77576 0.30301
 C977 C 0.59712 0.69019 0.30666
 C978 C 0.58127 0.70524 0.31775
 C979 C 0.56084 0.71750 0.30513
 C980 C 0.55108 0.70972 0.28412
 H981 H 0.58353 0.70974 0.33680
 H982 H 0.55339 0.73354 0.31395
 H983 H 0.59475 0.68583 0.28758
 H984 H 0.55738 0.69306 0.27564
 C985 C 0.59631 0.19163 0.80417
 C986 C 0.58094 0.20733 0.81503
 C987 C 0.56088 0.22014 0.80236
 C988 C 0.55119 0.21299 0.78109
 H989 H 0.58332 0.21195 0.83403
 H990 H 0.55361 0.23614 0.81142
 H991 H 0.59379 0.18697 0.78519
 H992 H 0.55731 0.19644 0.77227
 C993 C 1.09715 0.69273 0.80851
 C994 C 1.08124 0.68181 0.79344
 C995 C 1.06122 0.69473 0.78081
 C996 C 1.05174 0.71600 0.78825
 H997 H 1.08315 0.66267 0.78915
 H998 H 1.05382 0.68588 0.76479
 H999 H 1.09509 0.71190 0.81263
 H1000 H 1.05796 0.72453 0.80490
 C1001 C 1.09559 0.18915 0.30779
 C1002 C 1.08334 0.18084 0.28817
 C1003 C 1.06274 0.19374 0.27629
 C1004 C 1.05133 0.21343 0.28532
 H1005 H 1.08860 0.16413 0.27925
 H1006 H 1.05686 0.18640 0.25892
 H1007 H 1.08983 0.20617 0.31588
 H1008 H 1.05633 0.22099 0.30278
 C1009 C 0.59761 0.30834 0.69192
 C1010 C 0.58187 0.31918 0.70724
 C1011 C 0.56156 0.30635 0.71945
 C1012 C 0.55173 0.28544 0.71145
 H1013 H 0.58411 0.33816 0.71200
 H1014 H 0.55419 0.31499 0.73562
 H1015 H 0.59525 0.28931 0.68732
 H1016 H 0.55793 0.27715 0.69466
 C1017 C 0.59462 0.80741 0.19160
 C1018 C 0.58231 0.81503 0.21146
 C1019 C 0.56168 0.80180 0.22282
 C1020 C 0.55141 0.78137 0.21410
 H1021 H 0.58742 0.83149 0.22088
 H1022 H 0.55490 0.80945 0.23973
 H1023 H 0.58882 0.79080 0.18278
 H1024 H 0.55740 0.77327 0.19719
 C1025 C 1.09488 0.30970 0.19199
 C1026 C 1.08265 0.31723 0.21195
 C1027 C 1.06195 0.30406 0.22326
 C1028 C 1.05134 0.28399 0.21417
 H1029 H 1.08788 0.33356 0.22152
 H1030 H 1.05542 0.31141 0.24040
 H1031 H 1.08896 0.29323 0.18300
 H1032 H 1.05709 0.27622 0.19702
 C1033 C 1.09650 0.81180 0.69274
 C1034 C 1.08464 0.81908 0.71303
 C1035 C 1.06374 0.80615 0.72432
 C1036 C 1.05362 0.78553 0.71593
 H1037 H 1.09023 0.83516 0.72282
 H1038 H 1.05672 0.81414 0.74097
 H1039 H 1.09010 0.79569 0.68342
 H1040 H 1.06004 0.77697 0.69941
 C1041 C 0.40247 0.69410 0.69493
 C1042 C 0.41817 0.70941 0.68409
 C1043 C 0.43857 0.72166 0.69679
 C1044 C 0.44815 0.71423 0.71803
 H1045 H 0.41585 0.71411 0.66510
 H1046 H 0.44618 0.73748 0.68778
 H1047 H 0.40492 0.68944 0.71392
 H1048 H 0.44167 0.69784 0.72684
 C1049 C 0.40223 0.19028 0.19017
 C1050 C 0.41485 0.18201 0.20956
 C1051 C 0.43552 0.19502 0.22113
 C1052 C 0.44676 0.21465 0.21185
 H1053 H 0.40987 0.16526 0.21851
 H1054 H 0.44164 0.18780 0.23846
 H1055 H 0.40770 0.20737 0.18207
 H1056 H 0.44156 0.22207 0.19438
 C1057 C -0.09613 0.69280 0.19281
 C1058 C -0.07973 0.68177 0.20724
 C1059 C -0.05972 0.69467 0.21984
 C1060 C -0.05088 0.71639 0.21301
 H1061 H -0.08120 0.66249 0.21101
 H1062 H -0.05176 0.68539 0.23535
 H1063 H -0.09452 0.71210 0.18911
 H1064 H -0.05764 0.72541 0.19685
 C1065 C -0.09813 0.19499 0.69068
 C1066 C -0.08200 0.18443 0.70575
 C1067 C -0.06171 0.19754 0.71773
 C1068 C -0.05243 0.21876 0.70989
 H1069 H -0.08387 0.16541 0.71052
 H1070 H -0.05389 0.18886 0.73364
 H1071 H -0.09611 0.21404 0.68602
 H1072 H -0.05910 0.22717 0.69336
 C1073 C 0.30725 0.40286 0.30607
 C1074 C 0.29231 0.41878 0.31719
 C1075 C 0.28006 0.43929 0.30467
 C1076 C 0.28749 0.44897 0.28350
 H1077 H 0.28785 0.41652 0.33624
 H1078 H 0.26426 0.44690 0.31377
 H1079 H 0.31166 0.40527 0.28702
 H1080 H 0.30391 0.44252 0.27469
 C1081 C 0.31086 -0.09259 0.81276
 C1082 C 0.29044 -0.08107 0.82023
 C1083 C 0.27896 -0.06004 0.80765
 C1084 C 0.28707 -0.04980 0.78699
 H1085 H 0.28067 -0.08709 0.83615
 H1086 H 0.26234 -0.05315 0.81581
 H1087 H 0.32023 -0.08569 0.79690
 H1088 H 0.30351 -0.05612 0.77822
 C1089 C 0.81160 0.40719 0.80993
 C1090 C 0.79132 0.41900 0.81723
 C1091 C 0.78004 0.43997 0.80445
 C1092 C 0.78743 0.44930 0.78307
 H1093 H 0.78162 0.41344 0.83336
 H1094 H 0.76403 0.44761 0.81316
 H1095 H 0.82106 0.41387 0.79401
 H1096 H 0.80318 0.44214 0.77368
 C1097 C 0.80856 -0.09482 0.30869
 C1098 C 0.78874 -0.08255 0.31650
 C1099 C 0.77733 -0.06163 0.30374
 C1100 C 0.78499 -0.05194 0.28263
 H1101 H 0.77943 -0.08776 0.33298
 H1102 H 0.76111 -0.05426 0.31227
 H1103 H 0.81754 -0.08863 0.29231
 H1104 H 0.80108 -0.05868 0.27351
 C1105 C 0.30821 0.59798 0.69491
 C1106 C 0.29320 0.58201 0.68403
 C1107 C 0.28122 0.56150 0.69677
 C1108 C 0.28903 0.55186 0.71783
 H1109 H 0.28848 0.58424 0.66504
 H1110 H 0.26529 0.55388 0.68797
 H1111 H 0.31285 0.59562 0.71392
 H1112 H 0.30557 0.55833 0.72634
 C1113 C 0.30869 1.09455 0.18819
 C1114 C 0.28812 1.08313 0.18116
 C1115 C 0.27690 1.06215 0.19404
 C1116 C 0.28544 1.05194 0.21456
 H1117 H 0.27804 1.08922 0.16545
 H1118 H 0.26012 1.05528 0.18625
 H1119 H 0.31833 1.08763 0.20389
 H1120 H 0.30204 1.05824 0.22297
 C1121 C 0.81030 0.59434 0.19027
 C1122 C 0.81826 0.58185 0.20990
 C1123 C 0.80562 0.56084 0.22125
 C1124 C 0.78508 0.55048 0.21303
 H1125 H 0.83474 0.58701 0.21920
 H1126 H 0.81382 0.55389 0.23781
 H1127 H 0.79382 0.58830 0.18139
 H1128 H 0.77641 0.55672 0.19651
 C1129 C 0.80655 1.09683 0.69159
 C1130 C 0.81786 1.08090 0.70635
 C1131 C 0.80550 1.06034 0.71866
 C1132 C 0.78430 1.05064 0.71137
 H1133 H 0.83694 1.08321 0.71061
 H1134 H 0.81471 1.05276 0.73439
 H1135 H 0.78746 1.09440 0.68742
 H1136 H 0.77537 1.05708 0.69503
 C1137 C 0.69374 0.59465 0.30681
 C1138 C 0.68288 0.57902 0.29139
 C1139 C 0.69565 0.55879 0.27882
 C1140 C 0.71681 0.54912 0.28630
 H1141 H 0.66388 0.58129 0.28679
 H1142 H 0.68681 0.55143 0.26278
 H1143 H 0.71276 0.59224 0.31130
 H1144 H 0.72537 0.55536 0.30291
 C1145 C 0.68980 1.09397 0.80778
 C1146 C 0.68223 1.08171 0.78787
 C1147 C 0.69514 1.06075 0.77664
 C1148 C 0.71620 1.05109 0.78450
 H1149 H 0.66590 1.08702 0.77835
 H1150 H 0.68677 1.05334 0.76036
 H1151 H 0.70606 1.08773 0.81694
 H1152 H 0.72517 1.05789 0.80063
 C1153 C 0.19207 0.59526 0.81123
 C1154 C 0.18449 0.58274 0.79148
 C1155 C 0.19765 0.56200 0.78018
 C1156 C 0.21826 0.55190 0.78863
 H1157 H 0.16801 0.58772 0.78205
 H1158 H 0.18980 0.55503 0.76346
 H1159 H 0.20858 0.58943 0.82021
 H1160 H 0.22658 0.55811 0.80534
 C1161 C 0.19008 1.09411 0.31055
 C1162 C 0.21064 1.08280 0.31790
 C1163 C 0.22234 1.06202 0.30510
 C1164 C 0.21401 1.05151 0.28465
 H1165 H 0.22038 1.08888 0.33382
 H1166 H 0.23926 1.05551 0.31292
 H1167 H 0.18083 1.08724 0.29461
 H1168 H 0.19723 1.05737 0.27626
 C1169 C 0.69288 0.40499 0.69258
 C1170 C 0.70767 0.42099 0.68146
 C1171 C 0.72023 0.44124 0.69407
 C1172 C 0.71341 0.45050 0.71567
 H1173 H 0.71176 0.41897 0.66229
 H1174 H 0.73576 0.44899 0.68470
 H1175 H 0.68879 0.40715 0.71175
 H1176 H 0.69728 0.44391 0.72483
 C1177 C 0.69002 -0.09704 0.19275
 C1178 C 0.70541 -0.08158 0.18167
 C1179 C 0.71796 -0.06117 0.19409
 C1180 C 0.71093 -0.05144 0.21540
 H1181 H 0.70999 -0.08416 0.16268
 H1182 H 0.73372 -0.05375 0.18482
 H1183 H 0.68540 -0.09432 0.21171
 H1184 H 0.69464 -0.05774 0.22448
 C1185 C 0.19227 0.40450 0.19297
 C1186 C 0.18164 0.42042 0.20828
 C1187 C 0.19471 0.44045 0.22074
 C1188 C 0.21590 0.44986 0.21312
 H1189 H 0.16261 0.41854 0.21290
 H1190 H 0.18599 0.44797 0.23680
 H1191 H 0.21133 0.40655 0.18845
 H1192 H 0.22431 0.44354 0.19644
 C1193 C 0.19352 -0.09431 0.69540
 C1194 C 0.20908 -0.07887 0.68450
 C1195 C 0.22173 -0.05875 0.69723
 C1196 C 0.21416 -0.04888 0.71827
 H1197 H 0.21366 -0.08121 0.66549
 H1198 H 0.23787 -0.05158 0.68842
 H1199 H 0.18902 -0.09185 0.71443
 H1200 H 0.19745 -0.05491 0.72677
 C1201 C 0.30684 0.30531 0.40199
 C1202 C 0.29183 0.31627 0.41796
 C1203 C 0.27942 0.30357 0.43825
 C1204 C 0.28658 0.28215 0.44763
 H1205 H 0.28747 0.33538 0.41594
 H1206 H 0.26375 0.31278 0.44600
 H1207 H 0.31120 0.28620 0.40417
 H1208 H 0.30284 0.27317 0.44104
 C1209 C 0.30812 0.80796 -0.09609
 C1210 C 0.31902 0.79238 -0.08068
 C1211 C 0.30628 0.77971 -0.06056
 C1212 C 0.28508 0.78711 -0.05087
 H1213 H 0.33806 0.78789 -0.08297
 H1214 H 0.31524 0.76371 -0.05321
 H1215 H 0.28907 0.81236 -0.09371
 H1216 H 0.27636 0.80366 -0.05709
 C1217 C 0.80755 0.30874 -0.09765
 C1218 C 0.81833 0.29321 -0.08208
 C1219 C 0.80543 0.28008 -0.06238
 C1220 C 0.78372 0.28668 -0.05329
 H1221 H 0.83748 0.28903 -0.08396
 H1222 H 0.81473 0.26438 -0.05481
 H1223 H 0.78842 0.31298 -0.09562
 H1224 H 0.77460 0.30294 -0.05969
 C1225 C 0.80703 0.80657 0.40238
 C1226 C 0.79192 0.81722 0.41847
 C1227 C 0.77960 0.80410 0.43853
 C1228 C 0.78732 0.78287 0.44788
 H1229 H 0.78739 0.83632 0.41673
 H1230 H 0.76361 0.81283 0.44616
 H1231 H 0.81143 0.78744 0.40429
 H1232 H 0.80397 0.77448 0.44146
 C1233 C 0.69342 0.30960 0.59577
 C1234 C 0.68230 0.29458 0.57996
 C1235 C 0.69483 0.28198 0.55965
 C1236 C 0.71619 0.28900 0.55008
 H1237 H 0.66323 0.29030 0.58219
 H1238 H 0.68561 0.26623 0.55213
 H1239 H 0.71249 0.31387 0.59339
 H1240 H 0.72516 0.30535 0.55643
 C1241 C 0.69142 0.80547 1.09806
 C1242 C 0.68062 0.79006 1.08239
 C1243 C 0.69351 0.77764 1.06217
 C1244 C 0.71443 0.78557 1.05240
 H1245 H 0.66161 0.78548 1.08455
 H1246 H 0.68495 0.76143 1.05484
 H1247 H 0.71049 0.80984 1.09580
 H1248 H 0.72265 0.80236 1.05861
 C1249 C 0.19116 0.30898 1.09768
 C1250 C 0.18015 0.29392 1.08181
 C1251 C 0.19279 0.28150 1.06142
 C1252 C 0.21404 0.28881 1.05185
 H1253 H 0.16109 0.28954 1.08398
 H1254 H 0.18372 0.26571 1.05379
 H1255 H 0.21024 0.31326 1.09537
 H1256 H 0.22286 0.30519 1.05834
 C1257 C 0.19131 0.80958 0.59817
 C1258 C 0.20657 0.82052 0.58246
 C1259 C 0.21917 0.80794 0.56217
 C1260 C 0.21222 0.78654 0.55266
 H1261 H 0.21107 0.83956 0.58475
 H1262 H 0.23488 0.81718 0.55462
 H1263 H 0.18666 0.79059 0.59570
 H1264 H 0.19594 0.77751 0.55906
 C1265 C 0.30635 0.69549 0.59889
 C1266 C 0.29113 0.68461 0.58310
 C1267 C 0.27875 0.69736 0.56278
 C1268 C 0.28618 0.71860 0.55326
 H1269 H 0.28664 0.66555 0.58523
 H1270 H 0.26294 0.68838 0.55513
 H1271 H 0.31076 0.71456 0.59663
 H1272 H 0.30257 0.72733 0.55979
 C1273 C 0.30538 0.19381 1.09666
 C1274 C 0.31620 0.20947 1.08128
 C1275 C 0.30346 0.22227 1.06123
 C1276 C 0.28225 0.21501 1.05152
 H1277 H 0.33523 0.21395 1.08357
 H1278 H 0.31244 0.23825 1.05394
 H1279 H 0.28634 0.18939 1.09426
 H1280 H 0.27351 0.19847 1.05768
 C1281 C 0.80698 0.69140 1.09787
 C1282 C 0.81759 0.70729 1.08253
 C1283 C 0.80480 0.71997 1.06243
 C1284 C 0.78369 0.71259 1.05266
 H1285 H 0.83649 0.71217 1.08492
 H1286 H 0.81368 0.73603 1.05516
 H1287 H 0.78810 0.68647 1.09530
 H1288 H 0.77506 0.69598 1.05880
 C1289 C 0.80553 0.19383 0.59654
 C1290 C 0.79002 0.18299 0.58102
 C1291 C 0.77768 0.19578 0.56073
 C1292 C 0.78575 0.21651 0.55063
 H1293 H 0.78523 0.16404 0.58339
 H1294 H 0.76138 0.18726 0.55358
 H1295 H 0.81010 0.21284 0.59404
 H1296 H 0.80265 0.22465 0.55661
 C1297 C 0.69432 0.68963 0.40277
 C1298 C 0.68341 0.70474 0.41869
 C1299 C 0.69613 0.71736 0.43884
 C1300 C 0.71762 0.71040 0.44816
 H1301 H 0.66432 0.70909 0.41670
 H1302 H 0.68689 0.73307 0.44650
 H1303 H 0.71340 0.68523 0.40495
 H1304 H 0.72663 0.69409 0.44168
 C1305 C 0.69310 0.19044 -0.09945
 C1306 C 0.68230 0.20581 -0.08371
 C1307 C 0.69500 0.21836 -0.06350
 C1308 C 0.71661 0.21153 -0.05437
 H1309 H 0.66325 0.21033 -0.08584
 H1310 H 0.68565 0.23390 -0.05565
 H1311 H 0.71209 0.18574 -0.09717
 H1312 H 0.72581 0.19543 -0.06109
 C1313 C 0.19379 0.69194 -0.09614
 C1314 C 0.18299 0.70747 -0.08055
 C1315 C 0.19570 0.72011 -0.06039
 C1316 C 0.21713 0.71309 -0.05097
 H1317 H 0.16397 0.71206 -0.08278
 H1318 H 0.18651 0.73589 -0.05281
 H1319 H 0.21278 0.68730 -0.09376
 H1320 H 0.22614 0.69677 -0.05742
 C1321 C 0.19153 0.19302 0.40237
 C1322 C 0.18074 0.20882 0.41768
 C1323 C 0.19361 0.22120 0.43792
 C1324 C 0.21414 0.21279 0.44821
 H1325 H 0.16184 0.21373 0.41519
 H1326 H 0.18536 0.23777 0.44483
 H1327 H 0.21052 0.18842 0.40494
 H1328 H 0.22199 0.19564 0.44244
 C1329 C 0.30773 0.40323 0.69311
 C1330 C 0.29249 0.41927 0.68262
 C1331 C 0.28057 0.43961 0.69579
 C1332 C 0.28855 0.44893 0.71694
 H1333 H 0.28760 0.41727 0.66364
 H1334 H 0.26458 0.44740 0.68722
 H1335 H 0.31253 0.40535 0.71210
 H1336 H 0.30513 0.44228 0.72524
 C1337 C 0.30773 0.90301 0.19327
 C1338 C 0.31867 0.91870 0.20856
 C1339 C 0.30601 0.93913 0.22089
 C1340 C 0.28494 0.94885 0.21327
 H1341 H 0.33764 0.91633 0.21322
 H1342 H 0.31486 0.94658 0.23689
 H1343 H 0.28874 0.90551 0.18867
 H1344 H 0.27637 0.94251 0.19670
 C1345 C 0.80788 0.40126 0.19117
 C1346 C 0.79240 0.41689 0.18038
 C1347 C 0.78010 0.43725 0.19319
 C1348 C 0.78806 0.44721 0.21403
 H1349 H 0.78751 0.41449 0.16146
 H1350 H 0.76384 0.44448 0.18463
 H1351 H 0.81262 0.40380 0.21014
 H1352 H 0.80490 0.44111 0.22225
 C1353 C 0.80792 0.90208 0.69111
 C1354 C 0.81878 0.91793 0.70629
 C1355 C 0.80606 0.93826 0.71873
 C1356 C 0.78463 0.94761 0.71160
 H1357 H 0.83783 0.91579 0.71076
 H1358 H 0.81521 0.94601 0.73441
 H1359 H 0.78887 0.90437 0.68665
 H1360 H 0.77569 0.94099 0.69535
 C1361 C 0.69253 0.59867 0.69367
 C1362 C 0.70767 0.58290 0.68255
 C1363 C 0.72035 0.56259 0.69500
 C1364 C 0.71367 0.55326 0.71657
 H1365 H 0.71189 0.58509 0.66344
 H1366 H 0.73584 0.55483 0.68551
 H1367 H 0.68822 0.59632 0.71275
 H1368 H 0.69762 0.55989 0.72588
 C1369 C 0.69092 0.09663 0.19126
 C1370 C 0.70600 0.08064 0.18043
 C1371 C 0.71846 0.06042 0.19325
 C1372 C 0.71154 0.05137 0.21487
 H1373 H 0.71037 0.08257 0.16132
 H1374 H 0.73400 0.05248 0.18399
 H1375 H 0.68649 0.09455 0.21035
 H1376 H 0.69542 0.05816 0.22395
 C1377 C 0.19363 0.59833 0.19374
 C1378 C 0.20877 0.58264 0.18256
 C1379 C 0.22132 0.56226 0.19501
 C1380 C 0.21400 0.55246 0.21616
 H1381 H 0.21314 0.58497 0.16350
 H1382 H 0.23719 0.55485 0.18589
 H1383 H 0.18932 0.59586 0.21281
 H1384 H 0.19752 0.55871 0.22499
 C1385 C 0.19386 0.09918 0.69578
 C1386 C 0.18299 0.08385 0.71148
 C1387 C 0.19572 0.06372 0.72418
 C1388 C 0.21662 0.05367 0.71644
 H1389 H 0.16400 0.08624 0.71609
 H1390 H 0.18701 0.05663 0.74041
 H1391 H 0.21290 0.09668 0.69136
 H1392 H 0.22499 0.05962 0.69963
 C1393 C 0.30615 0.59773 0.30829
 C1394 C 0.29095 0.58191 0.31911
 C1395 C 0.27883 0.56154 0.30621
 C1396 C 0.28672 0.55194 0.28514
 H1397 H 0.28628 0.58410 0.33812
 H1398 H 0.26280 0.55399 0.31489
 H1399 H 0.31066 0.59545 0.28924
 H1400 H 0.30334 0.55836 0.27675
 C1401 C 0.30818 0.09955 0.80844
 C1402 C 0.31924 0.08388 0.79317
 C1403 C 0.30670 0.06335 0.78097
 C1404 C 0.28592 0.05336 0.78897
 H1405 H 0.33816 0.08637 0.78839
 H1406 H 0.31535 0.05606 0.76477
 H1407 H 0.28922 0.09695 0.81306
 H1408 H 0.27761 0.05953 0.80576
 C1409 C 0.80971 0.59774 0.80645
 C1410 C 0.79505 0.58154 0.81748
 C1411 C 0.78249 0.56132 0.80485
 C1412 C 0.78898 0.55237 0.78304
 H1413 H 0.79100 0.58340 0.83667
 H1414 H 0.76717 0.55334 0.81438
 H1415 H 0.81393 0.59571 0.78730
 H1416 H 0.80490 0.55919 0.77368
 C1417 C 0.80678 0.09653 0.30580
 C1418 C 0.79153 0.08082 0.31672
 C1419 C 0.77895 0.06058 0.30406
 C1420 C 0.78584 0.05119 0.28254
 H1421 H 0.78710 0.08303 0.33579
 H1422 H 0.76332 0.05294 0.31336
 H1423 H 0.81125 0.09416 0.28675
 H1424 H 0.80203 0.05769 0.27342
 C1425 C 0.69372 0.40066 0.30496
 C1426 C 0.68307 0.41655 0.28967
 C1427 C 0.69599 0.43688 0.27753
 C1428 C 0.71724 0.44628 0.28509
 H1429 H 0.66408 0.41447 0.28494
 H1430 H 0.68708 0.44464 0.26171
 H1431 H 0.71272 0.40288 0.30964
 H1432 H 0.72592 0.43967 0.30149
 C1433 C 0.69425 0.90250 0.80676
 C1434 C 0.68311 0.91815 0.79156
 C1435 C 0.69561 0.93836 0.77882
 C1436 C 0.71693 0.94799 0.78585
 H1437 H 0.66403 0.91590 0.78732
 H1438 H 0.68638 0.94580 0.76304
 H1439 H 0.71334 0.90488 0.81094
 H1440 H 0.72591 0.94171 0.80222
 C1441 C 0.19365 0.40338 0.80715
 C1442 C 0.18319 0.41939 0.79186
 C1443 C 0.19637 0.43967 0.77992
 C1444 C 0.21751 0.44895 0.78790
 H1445 H 0.16424 0.41744 0.78695
 H1446 H 0.18781 0.44745 0.76393
 H1447 H 0.21263 0.40545 0.81196
 H1448 H 0.22580 0.44232 0.80449
 C1449 C 0.19341 0.90345 0.30778
 C1450 C 0.18255 0.91914 0.29240
 C1451 C 0.19525 0.93928 0.27975
 C1452 C 0.21657 0.94877 0.28689
 H1453 H 0.16352 0.91701 0.28792
 H1454 H 0.18615 0.94680 0.26393
 H1455 H 0.21244 0.90575 0.31228
 H1456 H 0.22543 0.94240 0.30330
 C1457 C 0.40308 0.30802 0.69096
 C1458 C 0.41882 0.29297 0.67976
 C1459 C 0.43925 0.28053 0.69221
 C1460 C 0.44903 0.28789 0.71337
 H1461 H 0.41644 0.28854 0.66071
 H1462 H 0.44667 0.26462 0.68311
 H1463 H 0.40559 0.31238 0.71002
 H1464 H 0.44278 0.30440 0.72218
 C1465 C 0.40324 0.80502 0.19379
 C1466 C 0.41910 0.81569 0.20907
 C1467 C 0.43926 0.80263 0.22133
 C1468 C 0.44876 0.78151 0.21346
 H1469 H 0.41710 0.83474 0.21373
 H1470 H 0.44678 0.81126 0.23742
 H1471 H 0.40536 0.78594 0.18925
 H1472 H 0.44239 0.77319 0.19677
 C1473 C 0.90295 0.30538 0.19169
 C1474 C 0.91865 0.28993 0.18092
 C1475 C 0.93893 0.27752 0.19370
 C1476 C 0.94846 0.28498 0.21493
 H1477 H 0.91642 0.28521 0.16192
 H1478 H 0.94650 0.26160 0.18476
 H1479 H 0.90532 0.31007 0.21069
 H1480 H 0.94201 0.30147 0.22363
 C1481 C 0.90469 0.80669 0.69247
 C1482 C 0.92059 0.79153 0.68161
 C1483 C 0.94093 0.77935 0.69449
 C1484 C 0.95057 0.78733 0.71548
 H1485 H 0.91845 0.78684 0.66260
 H1486 H 0.94839 0.76319 0.68589
 H1487 H 0.90694 0.81122 0.71152
 H1488 H 0.94423 0.80409 0.72374
 C1489 C 0.59631 0.30595 0.30386
 C1490 C 0.58036 0.29100 0.31485
 C1491 C 0.55993 0.27874 0.30222
 C1492 C 0.55045 0.28610 0.28093
 H1493 H 0.58247 0.28658 0.33393
 H1494 H 0.55219 0.26304 0.31133
 H1495 H 0.59404 0.31033 0.28478
 H1496 H 0.55706 0.30240 0.27207
 C1497 C 0.59776 0.80711 0.80811
 C1498 C 0.58209 0.79202 0.81932
 C1499 C 0.56154 0.77971 0.80692
 C1500 C 0.55160 0.78722 0.78589
 H1501 H 0.58458 0.78752 0.83833
 H1502 H 0.55413 0.76382 0.81599
 H1503 H 0.59514 0.81147 0.78907
 H1504 H 0.55789 0.80370 0.77711
 C1505 C 0.09614 0.30899 0.80442
 C1506 C 0.08002 0.29395 0.81501
 C1507 C 0.05973 0.28195 0.80192
 C1508 C 0.05042 0.28975 0.78070
 H1509 H 0.08191 0.28924 0.83404
 H1510 H 0.05193 0.26605 0.81064
 H1511 H 0.09411 0.31359 0.78536
 H1512 H 0.05706 0.30626 0.77226
 C1513 C 0.09623 0.80752 0.30813
 C1514 C 0.08031 0.81874 0.29330
 C1515 C 0.05998 0.80625 0.28081
 C1516 C 0.05052 0.78488 0.28792
 H1517 H 0.08247 0.83787 0.28911
 H1518 H 0.05239 0.81547 0.26509
 H1519 H 0.09395 0.78840 0.31233
 H1520 H 0.05696 0.77593 0.30424
 C1521 C 0.59665 0.69375 0.69410
 C1522 C 0.58076 0.70896 0.68332
 C1523 C 0.56045 0.72130 0.69615
 C1524 C 0.55105 0.71393 0.71747
 H1525 H 0.58288 0.71357 0.66429
 H1526 H 0.55277 0.73714 0.68718
 H1527 H 0.59438 0.68918 0.71314
 H1528 H 0.55760 0.69752 0.72621
 C1529 C 0.59534 0.19189 0.19013
 C1530 C 0.57954 0.20697 0.17904
 C1531 C 0.55923 0.21953 0.19161
 C1532 C 0.54963 0.21235 0.21290
 H1533 H 0.58177 0.21132 0.15996
 H1534 H 0.55173 0.23537 0.18249
 H1535 H 0.59296 0.18758 0.20921
 H1536 H 0.55597 0.19592 0.22176
 C1537 C 0.09750 0.69449 0.19361
 C1538 C 0.08176 0.68340 0.20870
 C1539 C 0.06130 0.69593 0.22110
 C1540 C 0.05169 0.71723 0.21387
 H1541 H 0.08407 0.66433 0.21310
 H1542 H 0.05366 0.68672 0.23680
 H1543 H 0.09506 0.71357 0.18927
 H1544 H 0.05819 0.72619 0.19758
 C1545 C 0.09644 0.19525 0.69109
 C1546 C 0.08029 0.18462 0.70607
 C1547 C 0.05977 0.19762 0.71780
 C1548 C 0.05042 0.21878 0.70984
 H1549 H 0.08239 0.16565 0.71099
 H1550 H 0.05192 0.18896 0.73371
 H1551 H 0.09422 0.21421 0.68618
 H1552 H 0.05712 0.22717 0.69332
 C1553 C 0.40233 0.69176 0.30793
 C1554 C 0.41847 0.70666 0.31869
 C1555 C 0.43891 0.71853 0.30573
 C1556 C 0.44826 0.71065 0.28454
 H1557 H 0.41647 0.71136 0.33772
 H1558 H 0.44674 0.73440 0.31449
 H1559 H 0.40445 0.68718 0.28888
 H1560 H 0.44159 0.69416 0.27606
 C1561 C 0.40292 0.19643 0.80616
 C1562 C 0.41888 0.21154 0.81688
 C1563 C 0.43925 0.22350 0.80387
 C1564 C 0.44864 0.21553 0.78273
 H1565 H 0.41685 0.21621 0.83591
 H1566 H 0.44700 0.23945 0.81254
 H1567 H 0.40503 0.19192 0.78708
 H1568 H 0.44201 0.19898 0.77432
 C1569 C 0.90336 0.69476 0.80763
 C1570 C 0.91867 0.71048 0.81850
 C1571 C 0.93905 0.72290 0.80590
 C1572 C 0.94915 0.71512 0.78503
 H1573 H 0.91607 0.71536 0.83741
 H1574 H 0.94626 0.73902 0.81472
 H1575 H 0.90609 0.69003 0.78869
 H1576 H 0.94306 0.69843 0.77650
 C1577 C 0.90282 0.19112 0.30592
 C1578 C 0.91868 0.20613 0.31698
 C1579 C 0.93901 0.21856 0.30440
 C1580 C 0.94857 0.21130 0.28311
 H1581 H 0.91649 0.21053 0.33605
 H1582 H 0.94657 0.23434 0.31355
 H1583 H 0.90516 0.18670 0.28685
 H1584 H 0.94216 0.19491 0.27423
 C1585 C 0.30617 0.30663 0.59599
 C1586 C 0.29086 0.31749 0.58027
 C1587 C 0.27852 0.30465 0.56000
 C1588 C 0.28612 0.28345 0.55043
 H1589 H 0.28627 0.33653 0.58247
 H1590 H 0.26255 0.31350 0.55249
 H1591 H 0.31066 0.28757 0.59369
 H1592 H 0.30267 0.27486 0.55681
 C1593 C 0.30759 0.80792 0.09751
 C1594 C 0.31853 0.79274 0.08168
 C1595 C 0.30593 0.78037 0.06128
 C1596 C 0.28451 0.78746 0.05189
 H1597 H 0.33755 0.78819 0.08392
 H1598 H 0.31517 0.76470 0.05355
 H1599 H 0.28858 0.81253 0.09511
 H1600 H 0.27546 0.80370 0.05848
 C1601 C 0.80637 0.30536 0.09490
 C1602 C 0.81746 0.29054 0.07885
 C1603 C 0.80489 0.27822 0.05843
 C1604 C 0.78342 0.28530 0.04915
 H1605 H 0.83658 0.28631 0.08090
 H1606 H 0.81422 0.26269 0.05054
 H1607 H 0.78726 0.30962 0.09272
 H1608 H 0.77431 0.30144 0.05590
 C1609 C 0.80801 0.80646 0.59581
 C1610 C 0.81901 0.79129 0.58001
 C1611 C 0.80639 0.77861 0.55984
 C1612 C 0.78498 0.78561 0.55037
 H1613 H 0.83810 0.78695 0.58214
 H1614 H 0.81562 0.76284 0.55230
 H1615 H 0.78893 0.81083 0.59352
 H1616 H 0.77599 0.80197 0.55674
 C1617 C 0.30723 0.69483 0.40491
 C1618 C 0.29220 0.68408 0.42093
 C1619 C 0.27986 0.69699 0.44117
 C1620 C 0.28703 0.71847 0.45041
 H1621 H 0.28773 0.66500 0.41896
 H1622 H 0.26417 0.68791 0.44895
 H1623 H 0.31174 0.71390 0.40704
 H1624 H 0.30331 0.72734 0.44380
 C1625 C 0.30644 0.19542 0.90332
 C1626 C 0.31705 0.21076 0.91918
 C1627 C 0.30412 0.22298 0.93950
 C1628 C 0.28274 0.21564 0.94877
 H1629 H 0.33603 0.21550 0.91705
 H1630 H 0.31309 0.23874 0.94731
 H1631 H 0.28748 0.19065 0.90559
 H1632 H 0.27395 0.19933 0.94209
 C1633 C 0.80724 0.69371 0.90382
 C1634 C 0.79203 0.68241 0.91932
 C1635 C 0.77937 0.69475 0.93972
 C1636 C 0.78692 0.71562 0.94992
 H1637 H 0.78768 0.66337 0.91681
 H1638 H 0.76326 0.68582 0.94677
 H1639 H 0.81145 0.71279 0.90648
 H1640 H 0.80363 0.72418 0.94400
 C1641 C 0.80601 0.19232 0.40238
 C1642 C 0.81720 0.20729 0.41820
 C1643 C 0.80473 0.22010 0.43841
 C1644 C 0.78334 0.21325 0.44798
 H1645 H 0.83633 0.21137 0.41606
 H1646 H 0.81405 0.23581 0.44589
 H1647 H 0.78689 0.18823 0.40469
 H1648 H 0.77428 0.19692 0.44168
 C1649 C 0.69264 0.30617 0.40098
 C1650 C 0.68161 0.29137 0.41704
 C1651 C 0.69423 0.27936 0.43764
 C1652 C 0.71539 0.28701 0.44714
 H1653 H 0.66256 0.28691 0.41488
 H1654 H 0.68527 0.26361 0.44546
 H1655 H 0.71170 0.31053 0.40325
 H1656 H 0.72408 0.30337 0.44043
 C1657 C 0.69448 0.80703 0.90346
 C1658 C 0.71005 0.81792 0.91891
 C1659 C 0.72225 0.80527 0.93941
 C1660 C 0.71416 0.78454 0.94951
 H1661 H 0.71496 0.83681 0.91632
 H1662 H 0.73848 0.81384 0.94664
 H1663 H 0.68978 0.78808 0.90614
 H1664 H 0.69737 0.77630 0.94336
 C1665 C 0.19156 0.30841 0.90259
 C1666 C 0.18042 0.29350 0.91847
 C1667 C 0.19292 0.28128 0.93903
 C1668 C 0.21408 0.28873 0.94873
 H1669 H 0.16139 0.28906 0.91614
 H1670 H 0.18385 0.26549 0.94663
 H1671 H 0.21061 0.31274 0.90504
 H1672 H 0.22288 0.30512 0.94226
 C1673 C 0.19267 0.80851 0.40374
 C1674 C 0.18188 0.79301 0.41932
 C1675 C 0.19460 0.78077 0.43973
 C1676 C 0.21535 0.78880 0.44978
 H1677 H 0.16299 0.78810 0.41690
 H1678 H 0.18603 0.76454 0.44698
 H1679 H 0.21160 0.81326 0.40632
 H1680 H 0.22358 0.80563 0.44368
 C1681 C 0.69334 0.69401 0.59719
 C1682 C 0.68238 0.70879 0.58105
 C1683 C 0.69516 0.72064 0.56048
 C1684 C 0.71628 0.71272 0.55102
 H1685 H 0.66332 0.71330 0.58311
 H1686 H 0.68636 0.73649 0.55264
 H1687 H 0.71244 0.68966 0.59505
 H1688 H 0.72479 0.69625 0.55774
 C1689 C 0.69255 0.19125 0.09391
 C1690 C 0.68151 0.20589 0.07770
 C1691 C 0.69422 0.21827 0.05741
 C1692 C 0.71584 0.21133 0.04833
 H1693 H 0.66235 0.21001 0.07956
 H1694 H 0.68490 0.23378 0.04949
 H1695 H 0.71171 0.18710 0.09192
 H1696 H 0.72495 0.19521 0.05508
 C1697 C 0.19374 0.69424 0.09775
 C1698 C 0.18263 0.70911 0.08180
 C1699 C 0.19524 0.72136 0.06135
 C1700 C 0.21651 0.71392 0.05184
 H1701 H 0.16354 0.71345 0.08396
 H1702 H 0.18616 0.73713 0.05367
 H1703 H 0.21285 0.69001 0.09549
 H1704 H 0.22533 0.69755 0.05839
 C1705 C 0.19309 0.19281 0.59730
 C1706 C 0.20849 0.18160 0.58190
 C1707 C 0.22081 0.19389 0.56128
 C1708 C 0.21322 0.21482 0.55116
 H1709 H 0.21322 0.16266 0.58466
 H1710 H 0.23681 0.18485 0.55402
 H1711 H 0.18846 0.21176 0.59442
 H1712 H 0.19667 0.22359 0.55730
   
