data_POSCAR
  _audit_creation_date              2014-09-24
  _audit_creation_method            'ToBaCCo'
  _symmetry_space_group_name_H-M    'P1'
  _symmetry_Int_Tables_number       1
  _symmetry_cell_setting            triclinic
  loop_
  _symmetry_equiv_pos_as_xyz
 x,y,z
_cell_length_a 62.5208
_cell_length_b 62.4902
_cell_length_c 62.1998
_cell_angle_alpha 90.031600
_cell_angle_beta 90.042900
_cell_angle_gamma 90.037600
loop_
  _atom_site_label
  _atom_site_type_symbol
  _atom_site_fract_x
  _atom_site_fract_y
  _atom_site_fract_z
C1 C 0.32588 0.45117 0.92616
 C2 C 0.31763 0.46115 0.90773
 C3 C 0.29990 0.45251 0.89680
 C4 C 0.29010 0.43392 0.90499
 C5 C 0.29801 0.42392 0.92357
 C6 C 0.31610 0.43248 0.93407
 C7 C 0.34410 0.45937 0.93641
 C8 C 0.35303 0.44919 0.95467
 C9 C 0.34274 0.43059 0.96249
 C10 C 0.32457 0.42218 0.95229
 C11 C 0.31498 0.40337 0.95991
 C12 C 0.29684 0.39470 0.94968
 C13 C 0.28838 0.40526 0.93157
 H14 H 0.32509 0.47568 0.90190
 H15 H 0.27669 0.42679 0.89659
 H16 H 0.35185 0.47307 0.92919
 H17 H 0.34832 0.42276 0.97695
 H18 H 0.32207 0.39518 0.97350
 H19 H 0.27425 0.39901 0.92365
 C20 C 0.45485 0.82507 0.42725
 C21 C 0.46314 0.84379 0.43644
 C22 C 0.45259 0.85430 0.45359
 C23 C 0.43387 0.84462 0.46198
 C24 C 0.42570 0.82554 0.45323
 C25 C 0.43614 0.81585 0.43570
 C26 C 0.46471 0.81581 0.40924
 C27 C 0.45562 0.79791 0.39893
 C28 C 0.43729 0.78841 0.40795
 C29 C 0.42762 0.79717 0.42631
 C30 C 0.40910 0.78792 0.43491
 C31 C 0.39829 0.79755 0.45225
 C32 C 0.40676 0.81645 0.46127
 H33 H 0.47810 0.84983 0.43017
 H34 H 0.42479 0.85229 0.47459
 H35 H 0.47919 0.82296 0.40293
 H36 H 0.42988 0.77478 0.40018
 H37 H 0.40309 0.77321 0.42793
 H38 H 0.39838 0.82445 0.47421
 C39 C 0.95191 0.92356 0.82570
 C40 C 0.96122 0.90573 0.81561
 C41 C 0.95263 0.89714 0.79637
 C42 C 0.93497 0.90781 0.78702
 C43 C 0.92534 0.92538 0.79715
 C44 C 0.93371 0.93317 0.81664
 C45 C 0.96033 0.93152 0.84505
 C46 C 0.95060 0.94884 0.85599
 C47 C 0.93204 0.95798 0.84671
 C48 C 0.92366 0.95035 0.82723
 C49 C 0.90495 0.95929 0.81851
 C50 C 0.89639 0.95156 0.79905
 C51 C 0.90708 0.93490 0.78826
 H52 H 0.97435 0.89793 0.82377
 H53 H 0.92859 0.90275 0.77167
 H54 H 0.97495 0.92443 0.85100
 H55 H 0.92332 0.97049 0.85492
 H56 H 0.89677 0.97188 0.82720
 H57 H 0.90098 0.92905 0.77304
 C58 C 0.45247 -0.07402 0.32570
 C59 C 0.46137 -0.09274 0.31699
 C60 C 0.45391 -0.10108 0.29732
 C61 C 0.43760 -0.09010 0.28625
 C62 C 0.42814 -0.07176 0.29508
 C63 C 0.43561 -0.06365 0.31484
 C64 C 0.45975 -0.06589 0.34542
 C65 C 0.45056 -0.04736 0.35441
 C66 C 0.43363 -0.03725 0.34348
 C67 C 0.42590 -0.04544 0.32397
 C68 C 0.40815 -0.03610 0.31383
 C69 C 0.40008 -0.04452 0.29444
 C70 C 0.41076 -0.06191 0.28482
 H71 H 0.47366 -0.10114 0.32591
 H72 H 0.43194 -0.09605 0.27090
 H73 H 0.47233 -0.07426 0.35394
 H74 H 0.42645 -0.02291 0.35008
 H75 H 0.40007 -0.02289 0.32164
 H76 H 0.40519 -0.06822 0.26959
 C77 C 0.82563 0.29771 0.32339
 C78 C 0.81768 0.28934 0.34271
 C79 C 0.80052 0.29926 0.35345
 C80 C 0.79145 0.31790 0.34453
 C81 C 0.79896 0.32622 0.32499
 C82 C 0.81592 0.31591 0.31424
 C83 C 0.84356 0.28854 0.31342
 C84 C 0.85173 0.29706 0.29412
 C85 C 0.84095 0.31432 0.28441
 C86 C 0.82349 0.32407 0.29456
 C87 C 0.81404 0.34237 0.28570
 C88 C 0.79781 0.35345 0.29675
 C89 C 0.79020 0.34505 0.31634
 H90 H 0.82482 0.27496 0.34926
 H91 H 0.77872 0.32616 0.35295
 H92 H 0.85166 0.27538 0.32127
 H93 H 0.84653 0.32065 0.26921
 H94 H 0.81974 0.34823 0.27035
 H95 H 0.77792 0.35345 0.32524
 C96 C -0.20286 0.82401 0.82250
 C97 C -0.21113 0.84342 0.81480
 C98 C -0.20130 0.85449 0.79753
 C99 C -0.18273 0.84533 0.78831
 C100 C -0.17447 0.82580 0.79569
 C101 C -0.18472 0.81498 0.81265
 C102 C -0.21214 0.81377 0.84033
 C103 C -0.20366 0.79444 0.84829
 C104 C -0.18630 0.78499 0.83748
 C105 C -0.17653 0.79533 0.82010
 C106 C -0.15813 0.78670 0.81064
 C107 C -0.14713 0.79786 0.79442
 C108 C -0.15563 0.81730 0.78683
 H109 H -0.22569 0.84933 0.82203
 H110 H -0.17387 0.85368 0.77597
 H111 H -0.22538 0.82140 0.84853
 H112 H -0.17994 0.76982 0.84296
 H113 H -0.15209 0.77147 0.81634
 H114 H -0.14724 0.82622 0.77451
 C115 C 0.92729 0.32167 0.45511
 C116 C 0.93739 0.33893 0.46534
 C117 C 0.95479 0.34977 0.45567
 C118 C 0.96299 0.34130 0.43621
 C119 C 0.95329 0.32370 0.42607
 C120 C 0.93503 0.31423 0.43526
 C121 C 0.90908 0.31221 0.46421
 C122 C 0.89770 0.29612 0.45321
 C123 C 0.90558 0.28882 0.43330
 C124 C 0.92429 0.29755 0.42442
 C125 C 0.93209 0.29025 0.40458
 C126 C 0.95070 0.29917 0.39549
 C127 C 0.96119 0.31590 0.40646
 H128 H 0.93145 0.34374 0.48093
 H129 H 0.97602 0.34907 0.42788
 H130 H 0.90356 0.31774 0.47975
 H131 H 0.89690 0.27673 0.42436
 H132 H 0.92343 0.27784 0.39608
 H133 H 0.97561 0.32286 0.39981
 C134 C 0.42352 0.45190 0.82709
 C135 C 0.43140 0.45990 0.84662
 C136 C 0.44850 0.44975 0.85728
 C137 C 0.45768 0.43136 0.84798
 C138 C 0.45024 0.42342 0.82824
 C139 C 0.43322 0.43383 0.81767
 C140 C 0.40571 0.46134 0.81712
 C141 C 0.39758 0.45312 0.79766
 C142 C 0.40816 0.43581 0.78784
 C143 C 0.42563 0.42592 0.79787
 C144 C 0.43513 0.40780 0.78870
 C145 C 0.45163 0.39681 0.79943
 C146 C 0.45920 0.40489 0.81917
 H147 H 0.42423 0.47415 0.85344
 H148 H 0.47039 0.42296 0.85627
 H149 H 0.39768 0.47453 0.82502
 H150 H 0.40250 0.42966 0.77257
 H151 H 0.42940 0.40206 0.77330
 H152 H 0.47166 0.39647 0.82782
 C153 C 0.82406 0.92390 0.95364
 C154 C 0.81506 0.90508 0.96199
 C155 C 0.79750 0.89484 0.95185
 C156 C 0.78893 0.90458 0.93319
 C157 C 0.79747 0.92367 0.92499
 C158 C 0.81506 0.93337 0.93527
 C159 C 0.84240 0.93295 0.96310
 C160 C 0.85212 0.95152 0.95443
 C161 C 0.84192 0.96145 0.93672
 C162 C 0.82386 0.95235 0.92695
 C163 C 0.81488 0.96170 0.90855
 C164 C 0.79776 0.95181 0.89769
 C165 C 0.78910 0.93281 0.90616
 H166 H 0.82169 0.89893 0.97680
 H167 H 0.77622 0.89701 0.92419
 H168 H 0.84968 0.92445 0.97633
 H169 H 0.84778 0.97645 0.93036
 H170 H 0.82151 0.97654 0.90250
 H171 H 0.77619 0.92474 0.89780
 C172 C 0.32571 0.82512 0.29503
 C173 C 0.31715 0.84428 0.28697
 C174 C 0.29816 0.85322 0.29558
 C175 C 0.28816 0.84221 0.31277
 C176 C 0.29678 0.82329 0.32121
 C177 C 0.31536 0.81448 0.31205
 C178 C 0.34495 0.81685 0.28682
 C179 C 0.35377 0.79782 0.29510
 C180 C 0.34269 0.78685 0.31143
 C181 C 0.32386 0.79527 0.32024
 C182 C 0.31391 0.78519 0.33772
 C183 C 0.29614 0.79458 0.34797
 C184 C 0.28740 0.81343 0.33918
 H185 H 0.32607 0.85255 0.27463
 H186 H 0.27322 0.84779 0.31947
 H187 H 0.35338 0.82566 0.27444
 H188 H 0.34895 0.77194 0.31768
 H189 H 0.32049 0.77031 0.34370
 H190 H 0.27390 0.82110 0.34687
 C191 C 0.82339 0.42566 0.45573
 C192 C 0.81381 0.40723 0.46422
 C193 C 0.79763 0.39633 0.45285
 C194 C 0.79034 0.40495 0.43325
 C195 C 0.79921 0.42389 0.42500
 C196 C 0.81598 0.43414 0.43617
 C197 C 0.84074 0.43529 0.46629
 C198 C 0.85158 0.45304 0.45729
 C199 C 0.84317 0.46193 0.43810
 C200 C 0.82555 0.45265 0.42760
 C201 C 0.81782 0.46124 0.40824
 C202 C 0.80098 0.45125 0.39698
 C203 C 0.79195 0.43241 0.40546
 H204 H 0.81930 0.40117 0.47957
 H205 H 0.77818 0.39666 0.42404
 H206 H 0.84559 0.42875 0.48163
 H207 H 0.85100 0.47522 0.43025
 H208 H 0.82489 0.47580 0.40201
 H209 H 0.77945 0.42412 0.39670
 C210 C 0.95271 0.82385 -0.07471
 C211 C 0.96174 0.84192 -0.06478
 C212 C 0.95351 0.84975 -0.04522
 C213 C 0.93668 0.83860 -0.03524
 C214 C 0.92718 0.82089 -0.04525
 C215 C 0.93508 0.81359 -0.06515
 C216 C 0.96076 0.81629 -0.09433
 C217 C 0.95118 0.79877 -0.10515
 C218 C 0.93307 0.78911 -0.09547
 C219 C 0.92506 0.79634 -0.07568
 C220 C 0.90667 0.78703 -0.06662
 C221 C 0.89847 0.79444 -0.04688
 C222 C 0.90933 0.81096 -0.03603
 H223 H 0.97457 0.85040 -0.07280
 H224 H 0.93053 0.84404 -0.01990
 H225 H 0.97500 0.82386 -0.10059
 H226 H 0.92440 0.77649 -0.10360
 H227 H 0.89839 0.77452 -0.07535
 H228 H 0.90360 0.81652 -0.02057
 C229 C 0.32696 0.32797 0.79818
 C230 C 0.31887 0.34753 0.79064
 C231 C 0.30019 0.35646 0.79957
 C232 C 0.28986 0.34564 0.81647
 C233 C 0.29796 0.32631 0.82444
 C234 C 0.31635 0.31724 0.81503
 C235 C 0.34581 0.31927 0.78956
 C236 C 0.35403 0.29974 0.79730
 C237 C 0.34283 0.28883 0.81359
 C238 C 0.32436 0.29764 0.82276
 C239 C 0.31422 0.28747 0.84007
 C240 C 0.29659 0.29702 0.85039
 C241 C 0.28830 0.31625 0.84210
 H242 H 0.32736 0.35596 0.77804
 H243 H 0.27538 0.35218 0.82342
 H244 H 0.35437 0.32805 0.77726
 H245 H 0.34866 0.27358 0.81943
 H246 H 0.32045 0.27236 0.84585
 H247 H 0.27489 0.32397 0.84993
 C248 C 0.17533 0.54683 0.57274
 C249 C 0.15728 0.53760 0.56303
 C250 C 0.14840 0.54650 0.54425
 C251 C 0.15851 0.56427 0.53476
 C252 C 0.17621 0.57397 0.54460
 C253 C 0.18453 0.56539 0.56379
 C254 C 0.18385 0.53817 0.59168
 C255 C 0.20105 0.54818 0.60233
 C256 C 0.20980 0.56702 0.59350
 C257 C 0.20174 0.57561 0.57428
 C258 C 0.21016 0.59464 0.56572
 C259 C 0.20188 0.60340 0.54657
 C260 C 0.18520 0.59259 0.53590
 H261 H 0.14962 0.52407 0.57072
 H262 H 0.15226 0.57096 0.51996
 H263 H 0.17702 0.52358 0.59811
 H264 H 0.22261 0.57529 0.60180
 H265 H 0.22277 0.60290 0.57434
 H266 H 0.17892 0.59884 0.52093
 C267 C 0.57478 0.70302 0.07223
 C268 C 0.59362 0.71047 0.06253
 C269 C 0.60224 0.70012 0.04437
 C270 C 0.59151 0.68215 0.03591
 C271 C 0.57280 0.67434 0.04562
 C272 C 0.56438 0.68485 0.06379
 C273 C 0.56655 0.71310 0.09062
 C274 C 0.54831 0.70496 0.10112
 C275 C 0.53795 0.68692 0.09238
 C276 C 0.54579 0.67692 0.07381
 C277 C 0.53567 0.65866 0.06555
 C278 C 0.54421 0.64767 0.04776
 C279 C 0.56276 0.65580 0.03779
 H280 H 0.60192 0.72397 0.06962
 H281 H 0.59770 0.67417 0.02176
 H282 H 0.57451 0.72721 0.09683
 H283 H 0.52422 0.68007 0.10046
 H284 H 0.52118 0.65293 0.07316
 H285 H 0.56987 0.64734 0.02439
 C286 C 0.70457 0.17733 0.67768
 C287 C 0.71214 0.18548 0.65806
 C288 C 0.70286 0.20382 0.64876
 C289 C 0.68569 0.21385 0.65938
 C290 C 0.67765 0.20561 0.67870
 C291 C 0.68734 0.18749 0.68806
 C292 C 0.71344 0.15867 0.68657
 C293 C 0.70549 0.14986 0.70597
 C294 C 0.68880 0.16098 0.71655
 C295 C 0.67945 0.17926 0.70753
 C296 C 0.66173 0.18893 0.71736
 C297 C 0.65107 0.20617 0.70748
 C298 C 0.65954 0.21473 0.68836
 H299 H 0.72493 0.17718 0.64979
 H300 H 0.67847 0.22809 0.65261
 H301 H 0.72573 0.15055 0.67747
 H302 H 0.68293 0.15567 0.73201
 H303 H 0.65582 0.18253 0.73242
 H304 H 0.65149 0.22783 0.68034
 C305 C 1.07273 0.04500 0.17875
 C306 C 1.09209 0.03720 0.18704
 C307 C 1.10285 0.04803 0.20376
 C308 C 1.09360 0.06671 0.21238
 C309 C 1.07395 0.07438 0.20464
 C310 C 1.06347 0.06342 0.18781
 C311 C 1.06303 0.03512 0.16093
 C312 C 1.04395 0.04336 0.15181
 C313 C 1.03413 0.06087 0.16232
 C314 C 1.04393 0.07115 0.17976
 C315 C 1.03479 0.08959 0.18870
 C316 C 1.04545 0.10116 0.20490
 C317 C 1.06499 0.09327 0.21293
 H318 H 1.09878 0.02267 0.18036
 H319 H 1.10189 0.07562 0.22479
 H320 H 1.07143 0.02196 0.15347
 H321 H 1.01875 0.06682 0.15705
 H322 H 1.01955 0.09520 0.18263
 H323 H 1.07360 0.10214 0.22515
 C324 C 0.04293 0.17707 1.07112
 C325 C 0.03458 0.15766 1.06347
 C326 C 0.04404 0.14674 1.04592
 C327 C 0.06219 0.15621 1.03615
 C328 C 0.07048 0.17579 1.04342
 C329 C 0.06068 0.18636 1.06081
 C330 C 0.03422 0.18693 1.08943
 C331 C 0.04290 0.20615 1.09749
 C332 C 0.05978 0.21593 1.08621
 C333 C 0.06899 0.20596 1.06828
 C334 C 0.08704 0.21482 1.05837
 C335 C 0.09772 0.20385 1.04178
 C336 C 0.08906 0.18447 1.03416
 H337 H 0.02028 0.15158 1.07110
 H338 H 0.07077 0.14802 1.02350
 H339 H 0.02136 0.17903 1.09797
 H340 H 0.06628 0.23103 1.09179
 H341 H 0.09317 0.23002 1.06410
 H342 H 0.09719 0.17566 1.02159
 C343 C 0.17916 0.67944 0.70479
 C344 C 0.16084 0.68838 0.71421
 C345 C 0.15047 0.70608 0.70477
 C346 C 0.15942 0.71533 0.68618
 C347 C 0.17800 0.70684 0.67686
 C348 C 0.18779 0.68873 0.68606
 C349 C 0.18847 0.66085 0.71333
 C350 C 0.20640 0.65139 0.70346
 C351 C 0.21526 0.66124 0.68515
 C352 C 0.20589 0.67956 0.67622
 C353 C 0.21387 0.68832 0.65708
 C354 C 0.20414 0.70632 0.64762
 C355 C 0.18643 0.71571 0.65796
 H356 H 0.15451 0.68129 0.72876
 H357 H 0.15147 0.72861 0.67836
 H358 H 0.18114 0.65329 0.72716
 H359 H 0.22934 0.65451 0.67760
 H360 H 0.22716 0.68051 0.64915
 H361 H 0.17897 0.72983 0.65120
 C362 C 1.20395 0.17608 0.17614
 C363 C 1.21328 0.15792 0.18556
 C364 C 1.20468 0.14864 0.20445
 C365 C 1.18721 0.15917 0.21434
 C366 C 1.17754 0.17708 0.20486
 C367 C 1.18571 0.18538 0.18553
 C368 C 1.21214 0.18454 0.15695
 C369 C 1.20189 0.20170 0.14648
 C370 C 1.18344 0.21063 0.15586
 C371 C 1.17539 0.20270 0.17535
 C372 C 1.15676 0.21135 0.18443
 C373 C 1.14846 0.20320 0.20382
 C374 C 1.15932 0.18636 0.21414
 H375 H 1.22633 0.15038 0.17706
 H376 H 1.18093 0.15364 0.22955
 H377 H 1.22649 0.17762 0.15014
 H378 H 1.17498 0.22343 0.14776
 H379 H 1.14840 0.22400 0.17600
 H380 H 1.15338 0.18012 0.22925
 C381 C 0.67870 1.07184 0.54353
 C382 C 0.65953 1.06361 0.53518
 C383 C 0.64867 1.04678 0.54559
 C384 C 0.65763 1.03797 0.56440
 C385 C 0.67709 1.04565 0.57262
 C386 C 0.68768 1.06260 0.56208
 C387 C 0.68847 1.08977 0.53408
 C388 C 0.70731 1.09886 0.54290
 C389 C 0.71687 1.08823 0.56055
 C390 C 0.70701 1.07062 0.57038
 C391 C 0.71584 1.06149 0.58895
 C392 C 0.70506 1.04514 0.60013
 C393 C 0.68572 1.03718 0.59165
 H394 H 0.65304 1.07046 0.52058
 H395 H 0.64922 1.02547 0.57302
 H396 H 0.68025 1.09733 0.52082
 H397 H 0.73207 1.09353 0.56695
 H398 H 0.73094 1.06754 0.59499
 H399 H 0.67699 1.02486 0.60019
 C400 C 0.54340 0.57099 0.18259
 C401 C 0.53417 0.56120 0.16455
 C402 C 0.54469 0.54440 0.15375
 C403 C 0.56409 0.53662 0.16223
 C404 C 0.57309 0.54573 0.18081
 C405 C 0.56286 0.56318 0.19083
 C406 C 0.53393 0.58912 0.19187
 C407 C 0.54408 0.60019 0.20878
 C408 C 0.56305 0.59167 0.21751
 C409 C 0.57239 0.57319 0.20875
 C410 C 0.59158 0.56511 0.21711
 C411 C 0.60198 0.54766 0.20730
 C412 C 0.59260 0.53819 0.18900
 H413 H 0.51899 0.56711 0.15862
 H414 H 0.57265 0.52398 0.15400
 H415 H 0.51897 0.59502 0.18539
 H416 H 0.57123 0.59998 0.23041
 H417 H 0.59842 0.57255 0.23127
 H418 H 0.60070 0.52524 0.18077
 C419 C 0.67730 0.70464 0.17604
 C420 C 0.65954 0.71417 0.18599
 C421 C 0.65191 0.70655 0.20587
 C422 C 0.66310 0.68993 0.21621
 C423 C 0.68046 0.67987 0.20618
 C424 C 0.68744 0.68704 0.18590
 C425 C 0.68461 0.71198 0.15605
 C426 C 0.70154 0.70158 0.14536
 C427 C 0.71105 0.68356 0.15506
 C428 C 0.70420 0.67631 0.17527
 C429 C 0.71338 0.65807 0.18467
 C430 C 0.70638 0.65062 0.20486
 C431 C 0.69032 0.66212 0.21574
 H432 H 0.65110 0.72685 0.17768
 H433 H 0.65786 0.68429 0.23181
 H434 H 0.67714 0.72590 0.14889
 H435 H 0.72358 0.67492 0.14675
 H436 H 0.72548 0.64929 0.17586
 H437 H 0.68503 0.65697 0.23149
 C438 C 0.17673 0.04377 1.07225
 C439 C 0.15854 0.03417 1.06310
 C440 C 0.14908 0.04240 1.04414
 C441 C 0.15956 0.05967 1.03381
 C442 C 0.17746 0.06961 1.04303
 C443 C 0.18588 0.06184 1.06249
 C444 C 0.18533 0.03593 1.09153
 C445 C 0.20259 0.04635 1.10198
 C446 C 0.21128 0.06476 1.09197
 C447 C 0.20318 0.07241 1.07239
 C448 C 0.21161 0.09102 1.06301
 C449 C 0.20329 0.09899 1.04355
 C450 C 0.18655 0.08776 1.03342
 H451 H 0.15109 0.02126 1.07190
 H452 H 0.15393 0.06564 1.01850
 H453 H 0.17863 0.02131 1.09788
 H454 H 0.22375 0.07398 1.09968
 H455 H 0.22421 0.09965 1.07126
 H456 H 0.18019 0.09342 1.01825
 C457 C 0.56949 0.18040 0.54149
 C458 C 0.58797 0.18905 0.53219
 C459 C 0.59951 0.20542 0.54258
 C460 C 0.59150 0.21388 0.56199
 C461 C 0.57261 0.20582 0.57115
 C462 C 0.56172 0.18883 0.56098
 C463 C 0.55929 0.16271 0.53213
 C464 C 0.54205 0.15252 0.54252
 C465 C 0.53380 0.16169 0.56145
 C466 C 0.54343 0.17982 0.57062
 C467 C 0.53562 0.18842 0.58987
 C468 C 0.54638 0.20529 0.60033
 C469 C 0.56494 0.21386 0.59079
 H470 H 0.59367 0.18261 0.51707
 H471 H 0.60034 0.22622 0.57042
 H472 H 0.56540 0.15637 0.51713
 H473 H 0.52065 0.15408 0.56981
 H474 H 0.52117 0.18176 0.59676
 H475 H 0.57380 0.22641 0.59888
 C476 C 0.07504 0.54625 0.67824
 C477 C 0.09305 0.53744 0.68843
 C478 C 0.10089 0.54621 0.70777
 C479 C 0.08973 0.56326 0.71735
 C480 C 0.07212 0.57258 0.70705
 C481 C 0.06489 0.56426 0.68729
 C482 C 0.06747 0.53776 0.65878
 C483 C 0.05025 0.54739 0.64784
 C484 C 0.04074 0.56585 0.65670
 C485 C 0.04786 0.57427 0.67636
 C486 C 0.03870 0.59296 0.68490
 C487 C 0.04602 0.60154 0.70453
 C488 C 0.06228 0.59072 0.71579
 H489 H 0.10149 0.52440 0.68072
 H490 H 0.09517 0.56979 0.73255
 H491 H 0.07496 0.52355 0.65226
 H492 H 0.02799 0.57391 0.64813
 H493 H 0.02639 0.60118 0.67584
 H494 H 0.06776 0.59673 0.73119
 C495 C 0.67661 0.57186 0.04455
 C496 C 0.65735 0.56362 0.03652
 C497 C 0.64685 0.54663 0.04700
 C498 C 0.65615 0.53777 0.06561
 C499 C 0.67568 0.54554 0.07356
 C500 C 0.68602 0.56254 0.06289
 C501 C 0.68613 0.58987 0.03505
 C502 C 0.70513 0.59859 0.04349
 C503 C 0.71513 0.58824 0.06090
 C504 C 0.70550 0.57061 0.07090
 C505 C 0.71457 0.56161 0.08939
 C506 C 0.70395 0.54527 0.10073
 C507 C 0.68459 0.53715 0.09249
 H508 H 0.65052 0.57055 0.02211
 H509 H 0.64795 0.52516 0.07427
 H510 H 0.67810 0.59768 0.02177
 H511 H 0.73010 0.59436 0.06720
 H512 H 0.72970 0.56777 0.09525
 H513 H 0.67601 0.52481 0.10116
 C514 C 0.04705 0.67573 0.57267
 C515 C 0.03775 0.68573 0.59059
 C516 C 0.04589 0.70524 0.59847
 C517 C 0.06278 0.71519 0.58734
 C518 C 0.07263 0.70506 0.56985
 C519 C 0.06495 0.68512 0.56265
 C520 C 0.03916 0.65612 0.56510
 C521 C 0.04931 0.64531 0.54804
 C522 C 0.06764 0.65451 0.53865
 C523 C 0.07547 0.67436 0.54576
 C524 C 0.09404 0.68329 0.53674
 C525 C 0.10197 0.70316 0.54398
 C526 C 0.09062 0.71420 0.56009
 H527 H 0.02484 0.67773 0.59897
 H528 H 0.06881 0.73054 0.59274
 H529 H 0.02500 0.64936 0.57247
 H530 H 0.07607 0.64609 0.52600
 H531 H 0.10265 0.67437 0.52458
 H532 H 0.09606 0.72976 0.56549
 C533 C 0.54374 1.07143 0.68000
 C534 C 0.53451 1.06187 0.66178
 C535 C 0.54356 1.04335 0.65229
 C536 C 0.56123 1.03383 0.66284
 C537 C 0.57083 1.04350 0.68076
 C538 C 0.56231 1.06256 0.68915
 C539 C 0.53522 1.09036 0.68857
 C540 C 0.54551 1.10116 0.70559
 C541 C 0.56431 1.09230 0.71433
 C542 C 0.57266 1.07303 0.70636
 C543 C 0.59168 1.06452 0.71477
 C544 C 0.60034 1.04544 0.70646
 C545 C 0.58940 1.03476 0.68982
 H546 H 0.52122 1.07005 0.65430
 H547 H 0.56782 1.01885 0.65721
 H548 H 0.52060 1.09675 0.68178
 H549 H 0.57284 1.10065 0.72697
 H550 H 0.60008 1.07318 0.72729
 H551 H 0.59562 1.01986 0.68350
 C552 C 0.42293 0.32512 0.95291
 C553 C 0.43238 0.34298 0.96285
 C554 C 0.45140 0.35225 0.95467
 C555 C 0.46127 0.34208 0.93692
 C556 C 0.45176 0.32454 0.92662
 C557 C 0.43239 0.31618 0.93445
 C558 C 0.40374 0.31648 0.96080
 C559 C 0.39350 0.29940 0.95012
 C560 C 0.40292 0.29093 0.93142
 C561 C 0.42232 0.29908 0.92362
 C562 C 0.43153 0.29075 0.90483
 C563 C 0.45095 0.29897 0.89689
 C564 C 0.46113 0.31561 0.90821
 H565 H 0.42391 0.35026 0.97612
 H566 H 0.47656 0.34756 0.93093
 H567 H 0.39683 0.32308 0.97532
 H568 H 0.39498 0.27822 0.92264
 H569 H 0.42326 0.27821 0.89613
 H570 H 0.47627 0.32189 0.90254
 C571 C 0.92677 0.45436 0.32283
 C572 C 0.93466 0.46232 0.34235
 C573 C 0.95202 0.45241 0.35304
 C574 C 0.96123 0.43409 0.34332
 C575 C 0.95365 0.42614 0.32362
 C576 C 0.93656 0.43650 0.31320
 C577 C 0.90875 0.46366 0.31313
 C578 C 0.90054 0.45557 0.29366
 C579 C 0.91133 0.43857 0.28352
 C580 C 0.92891 0.42870 0.29338
 C581 C 0.93836 0.41059 0.28412
 C582 C 0.95466 0.39934 0.29491
 C583 C 0.96240 0.40748 0.31457
 H584 H 0.92746 0.47674 0.34865
 H585 H 0.97373 0.42520 0.35137
 H586 H 0.90060 0.47657 0.32135
 H587 H 0.90567 0.43252 0.26821
 H588 H 0.93256 0.40496 0.26871
 H589 H 0.97473 0.39895 0.32329
 C590 C 0.32396 0.95472 0.42758
 C591 C 0.31576 0.96284 0.40820
 C592 C 0.29733 0.95389 0.39876
 C593 C 0.28720 0.93656 0.40905
 C594 C 0.29553 0.92793 0.42807
 C595 C 0.31380 0.93724 0.43754
 C596 C 0.34269 0.96328 0.43662
 C597 C 0.35159 0.95476 0.45574
 C598 C 0.34059 0.93771 0.46584
 C599 C 0.32217 0.92871 0.45669
 C600 C 0.31249 0.91075 0.46607
 C601 C 0.29509 0.90048 0.45602
 C602 C 0.28638 0.90958 0.43726
 H603 H 0.32412 0.97577 0.40021
 H604 H 0.27284 0.92962 0.40223
 H605 H 0.35080 0.97582 0.42784
 H606 H 0.34607 0.93132 0.48103
 H607 H 0.31899 0.90437 0.48089
 H608 H 0.27315 0.90184 0.42913
 O609 O 0.24950 0.55835 0.72118
 O610 O 0.28708 0.55021 0.72211
 O611 O 0.22107 0.50330 0.69471
 O612 O 0.22180 0.46772 0.70098
 O613 O 0.19494 0.53126 0.75049
 O614 O 0.20407 0.53011 0.78809
 O615 O 0.27753 0.44584 0.75225
 O616 O 0.27304 0.45124 0.71515
 O617 O 0.30839 0.50074 0.77565
 O618 O 0.30141 0.53902 0.77412
 O619 O 0.25364 0.47691 0.80764
 O620 O 0.21527 0.47828 0.80088
 O621 O 0.25416 0.44779 0.78018
 O622 O 0.21424 0.45532 0.77798
 O623 O 0.28130 0.50041 0.80534
 O624 O 0.27856 0.54035 0.79711
 O625 O 0.30615 0.47317 0.75190
 O626 O 0.29816 0.47605 0.71249
 O627 O 0.22582 0.56030 0.74890
 O628 O 0.22864 0.55305 0.78683
 O629 O 0.19291 0.50396 0.72633
 O630 O 0.20094 0.46592 0.72969
 O631 O 0.24814 0.52759 0.69247
 O632 O 0.28613 0.52527 0.69927
 Zr633 Zr 0.26225 0.52727 0.72323
 O634 O 0.28317 0.50869 0.74203
 Zr635 Zr 0.22380 0.49066 0.72594
 O636 O 0.24322 0.47015 0.74445
 Zr637 Zr 0.22638 0.52945 0.76258
 O638 O 0.24549 0.51054 0.78300
 Zr639 Zr 0.27562 0.47619 0.73799
 O640 O 0.25615 0.49465 0.71722
 Zr641 Zr 0.27782 0.51473 0.77483
 O642 O 0.25884 0.53554 0.75590
 Zr643 Zr 0.23945 0.47795 0.77710
 O644 O 0.21824 0.49696 0.75871
 O645 O 0.23003 0.52302 0.73008
 O646 O 0.27181 0.48225 0.77067
 C647 C 0.23559 0.56836 0.73260
 C648 C 0.23198 0.51756 0.68456
 C649 C 0.18476 0.51981 0.73664
 C650 C 0.26854 0.43807 0.76908
 C651 C 0.31612 0.48418 0.76620
 C652 C 0.27031 0.48614 0.81534
 H653 H 0.29810 0.51189 0.73795
 H654 H 0.24263 0.51444 0.79812
 H655 H 0.22068 0.53211 0.72106
 H656 H 0.23959 0.45504 0.74143
 H657 H 0.26573 0.45733 0.70241
 H658 H 0.23008 0.45505 0.70561
 H659 H 0.26778 0.53744 0.80837
 H660 H 0.24307 0.55945 0.78553
 H661 H 0.30879 0.48748 0.71512
 H662 H 0.28485 0.51085 0.69280
 H663 H 0.21651 0.49195 0.80880
 H664 H 0.19645 0.51622 0.78775
 H665 H 0.28687 0.55778 0.73609
 H666 H 0.30880 0.53807 0.76010
 H667 H 0.19394 0.46820 0.74378
 H668 H 0.21710 0.44432 0.76690
 O669 O 0.27785 -0.05618 0.25045
 O670 O 0.27557 -0.04806 0.21265
 O671 O 0.30845 -0.00016 0.27568
 O672 O 0.30228 0.03508 0.27661
 O673 O 0.25291 -0.02700 0.30645
 O674 O 0.21515 -0.02449 0.29929
 O675 O 0.24916 0.05725 0.22233
 O676 O 0.28649 0.05065 0.22545
 O677 O 0.22279 0.00297 0.19379
 O678 O 0.22425 -0.03584 0.20122
 O679 O 0.19480 0.02854 0.24894
 O680 O 0.20318 0.02679 0.28769
 O681 O 0.22342 0.05685 0.24811
 O682 O 0.22637 0.04922 0.28751
 O683 O 0.19492 0.00368 0.22226
 O684 O 0.20200 -0.03583 0.22470
 O685 O 0.24838 0.02881 0.19343
 O686 O 0.28683 0.02626 0.19989
 O687 O 0.25249 -0.05609 0.27666
 O688 O 0.21462 -0.04819 0.27484
 O689 O 0.27860 -0.00116 0.30664
 O690 O 0.27502 0.03729 0.29863
 O691 O 0.30755 -0.02654 0.25043
 O692 O 0.29945 -0.02412 0.21256
 Zr693 Zr 0.27653 -0.02500 0.23751
 O694 O 0.25748 -0.00602 0.21719
 Zr695 Zr 0.27715 0.01241 0.27558
 O696 O 0.25824 0.03314 0.25674
 Zr697 Zr 0.23937 -0.02514 0.27561
 O698 O 0.21865 -0.00603 0.25711
 Zr699 Zr 0.26279 0.02652 0.22395
 O700 O 0.28383 0.00756 0.24267
 Zr701 Zr 0.22507 -0.01100 0.22437
 O702 O 0.24406 -0.03213 0.24286
 Zr703 Zr 0.22571 0.02643 0.26231
 O704 O 0.24466 0.00730 0.28299
 O705 O 0.27168 -0.01988 0.27009
 O706 O 0.23034 0.02150 0.22954
 C707 C 0.26747 -0.06519 0.26585
 C708 C 0.31709 -0.01560 0.26509
 C709 C 0.26808 -0.01647 0.31557
 C710 C 0.23373 0.06599 0.23279
 C711 C 0.23289 0.01841 0.18470
 C712 C 0.18601 0.01879 0.23301
 H713 H 0.26067 -0.00958 0.20206
 H714 H 0.20365 -0.00944 0.26077
 H715 H 0.28099 -0.02906 0.27905
 H716 H 0.26188 0.04818 0.26003
 H717 H 0.29930 0.04408 0.23210
 H718 H 0.29774 0.04756 0.26797
 H719 H 0.19227 -0.03329 0.23697
 H720 H 0.21537 -0.05515 0.26056
 H721 H 0.28515 0.01309 0.19124
 H722 H 0.30661 -0.01002 0.21356
 H723 H 0.19426 0.01378 0.28637
 H724 H 0.21627 -0.01043 0.30654
 H725 H 0.26139 -0.05507 0.21356
 H726 H 0.23710 -0.03439 0.19206
 H727 H 0.26168 0.03489 0.30685
 H728 H 0.23869 0.05885 0.28502
 O729 O 0.55902 0.72392 0.24948
 O730 O 0.55127 0.72594 0.28704
 O731 O 0.50356 0.69498 0.22296
 O732 O 0.46846 0.70099 0.22216
 O733 O 0.53127 0.75027 0.19384
 O734 O 0.52888 0.78772 0.20114
 O735 O 0.44672 0.75447 0.27834
 O736 O 0.45185 0.71709 0.27433
 O737 O 0.50002 0.77998 0.30628
 O738 O 0.53859 0.77827 0.29982
 O739 O 0.47437 0.80745 0.25220
 O740 O 0.47676 0.80069 0.21335
 O741 O 0.44625 0.77890 0.25128
 O742 O 0.45516 0.77667 0.21192
 O743 O 0.50056 0.80817 0.27754
 O744 O 0.54005 0.79971 0.27561
 O745 O 0.47501 0.75354 0.30678
 O746 O 0.47718 0.71491 0.29901
 O747 O 0.56013 0.75056 0.22457
 O748 O 0.55178 0.78845 0.22611
 O749 O 0.50471 0.72535 0.19291
 O750 O 0.46610 0.72885 0.20104
 O751 O 0.52846 0.69438 0.24966
 O752 O 0.52681 0.70296 0.28752
 Zr753 Zr 0.52798 0.72569 0.26238
 O754 O 0.50931 0.74496 0.28280
 Zr755 Zr 0.49105 0.72615 0.22394
 O756 O 0.47029 0.74469 0.24310
 Zr757 Zr 0.52898 0.76347 0.22482
 O758 O 0.50965 0.78412 0.24322
 Zr759 Zr 0.47684 0.73986 0.27589
 O760 O 0.49545 0.71885 0.25682
 Zr761 Zr 0.51447 0.77749 0.27592
 O762 O 0.53551 0.75824 0.25757
 Zr763 Zr 0.47713 0.77718 0.23784
 O764 O 0.49653 0.75862 0.21705
 O765 O 0.52335 0.73109 0.22980
 O766 O 0.48200 0.77234 0.27058
 C767 C 0.56868 0.73498 0.23501
 C768 C 0.51795 0.68551 0.23425
 C769 C 0.52034 0.73565 0.18430
 C770 C 0.43760 0.76929 0.26734
 C771 C 0.48499 0.76934 0.31543
 C772 C 0.48474 0.81664 0.26746
 H773 H 0.51278 0.74158 0.29792
 H774 H 0.51313 0.79914 0.23971
 H775 H 0.53253 0.72179 0.22083
 H776 H 0.45524 0.74112 0.23975
 H777 H 0.45777 0.70433 0.26701
 H778 H 0.45612 0.70514 0.23117
 H779 H 0.53750 0.80992 0.26373
 H780 H 0.55911 0.78720 0.24017
 H781 H 0.48970 0.71700 0.30850
 H782 H 0.51282 0.69564 0.28632
 H783 H 0.49003 0.80921 0.21465
 H784 H 0.51454 0.78737 0.19439
 H785 H 0.55790 0.74033 0.28677
 H786 H 0.53762 0.76483 0.30814
 H787 H 0.46897 0.74190 0.19249
 H788 H 0.44511 0.76468 0.21434
 O789 O 0.05736 0.72384 0.74777
 O790 O 0.04934 0.72605 0.78530
 O791 O 0.00180 0.69391 0.72161
 O792 O -0.03328 0.69997 0.72065
 O793 O 0.02889 0.74954 0.69155
 O794 O 0.02675 0.78711 0.69890
 O795 O -0.05520 0.75365 0.77595
 O796 O -0.04967 0.71618 0.77215
 O797 O -0.00244 0.77987 0.80390
 O798 O 0.03686 0.77757 0.79733
 O799 O -0.02741 0.80694 0.74958
 O800 O -0.02495 0.79939 0.71050
 O801 O -0.05559 0.77835 0.74914
 O802 O -0.04715 0.77594 0.70994
 O803 O -0.00132 0.80775 0.77501
 O804 O 0.03767 0.79973 0.77378
 O805 O -0.02741 0.75343 0.80432
 O806 O -0.02461 0.71473 0.79728
 O807 O 0.05822 0.74993 0.72226
 O808 O 0.04993 0.78772 0.72347
 O809 O 0.00278 0.72415 0.69102
 O810 O -0.03565 0.72755 0.69909
 O811 O 0.02769 0.69448 0.74736
 O812 O 0.02500 0.70257 0.78543
 Zr813 Zr 0.02627 0.72547 0.76045
 O814 O 0.00741 0.74463 0.78078
 Zr815 Zr -0.01073 0.72519 0.72207
 O816 O -0.03155 0.74392 0.74096
 Zr817 Zr 0.02702 0.76283 0.72255
 O818 O 0.00768 0.78350 0.74091
 Zr819 Zr -0.02499 0.73929 0.77374
 O820 O -0.00619 0.71825 0.75497
 Zr821 Zr 0.01246 0.77709 0.77370
 O822 O 0.03361 0.75798 0.75535
 Zr823 Zr -0.02480 0.77644 0.73552
 O824 O -0.00542 0.75768 0.71491
 O825 O 0.02155 0.73050 0.72781
 O826 O -0.01996 0.77177 0.76828
 C827 C 0.06689 0.73461 0.73301
 C828 C 0.01700 0.68510 0.73240
 C829 C 0.01809 0.73471 0.68217
 C830 C -0.06424 0.76863 0.76513
 C831 C -0.01768 0.76940 0.81293
 C832 C -0.01702 0.81624 0.76479
 H833 H 0.01083 0.74138 0.79593
 H834 H 0.01113 0.79850 0.73730
 H835 H 0.03079 0.72128 0.71882
 H836 H -0.04659 0.74031 0.73763
 H837 H -0.04344 0.70331 0.76529
 H838 H -0.04573 0.70430 0.72943
 H839 H 0.03584 0.80907 0.76107
 H840 H 0.05702 0.78681 0.73768
 H841 H -0.01202 0.71692 0.80666
 H842 H 0.01108 0.69513 0.78401
 H843 H -0.01218 0.80857 0.71230
 H844 H 0.01245 0.78660 0.69208
 H845 H 0.05577 0.74053 0.78509
 H846 H 0.03468 0.76515 0.80692
 H847 H -0.03307 0.74079 0.69074
 H848 H -0.05684 0.76363 0.71222
 O849 O 0.05590 0.02479 0.00344
 O850 O 0.04818 0.02296 -0.03402
 O851 O 0.00028 0.05448 0.02949
 O852 O -0.03511 0.04864 0.02909
 O853 O 0.02636 -0.00098 0.05990
 O854 O 0.02493 -0.03830 0.05227
 O855 O -0.05643 -0.00485 -0.02593
 O856 O -0.05077 0.03244 -0.02235
 O857 O -0.00310 -0.03134 -0.05312
 O858 O 0.03623 -0.02862 -0.04593
 O859 O -0.02876 -0.05831 0.00058
 O860 O -0.02698 -0.05092 0.03967
 O861 O -0.05705 -0.02979 0.00064
 O862 O -0.04905 -0.02736 0.04005
 O863 O -0.00197 -0.05919 -0.02407
 O864 O 0.03674 -0.05086 -0.02252
 O865 O -0.02817 -0.00504 -0.05396
 O866 O -0.02540 0.03380 -0.04704
 O867 O 0.05640 -0.00087 0.02938
 O868 O 0.04823 -0.03880 0.02794
 O869 O 0.00076 0.02486 0.05943
 O870 O -0.03759 0.02107 0.05119
 O871 O 0.02589 0.05456 0.00351
 O872 O 0.02393 0.04622 -0.03446
 Zr873 Zr 0.02489 0.02338 -0.00941
 O874 O 0.00637 0.00407 -0.02998
 Zr875 Zr -0.01255 0.02342 0.02839
 O876 O -0.03311 0.00464 0.00923
 Zr877 Zr 0.02525 -0.01400 0.02866
 O878 O 0.00620 -0.03474 0.00998
 Zr879 Zr -0.02613 0.00929 -0.02345
 O880 O -0.00764 0.03044 -0.00441
 Zr881 Zr 0.01144 -0.02836 -0.02274
 O882 O 0.03223 -0.00911 -0.00408
 Zr883 Zr -0.02641 -0.02785 0.01476
 O884 O -0.00734 -0.00903 0.03569
 O885 O 0.01983 0.01829 0.02317
 O886 O -0.02109 -0.02317 -0.01790
 C887 C 0.06530 0.01417 0.01840
 C888 C 0.01525 0.06363 0.01870
 C889 C 0.01566 0.01420 0.06883
 C890 C -0.06562 -0.01989 -0.01532
 C891 C -0.01828 -0.02098 -0.06239
 C892 C -0.01791 -0.06766 -0.01423
 H893 H 0.00999 0.00729 -0.04509
 H894 H 0.00964 -0.04972 0.01367
 H895 H 0.02900 0.02751 0.03226
 H896 H -0.04819 0.00823 0.01236
 H897 H -0.04467 0.04527 -0.01527
 H898 H -0.04768 0.04397 0.02063
 H899 H 0.03503 -0.05994 -0.00961
 H900 H 0.05568 -0.03766 0.01395
 H901 H -0.01286 0.03144 -0.05642
 H902 H 0.00990 0.05348 -0.03341
 H903 H -0.01412 -0.06000 0.03813
 H904 H 0.01038 -0.03826 0.05855
 H905 H 0.05445 0.00842 -0.03394
 H906 H 0.03379 -0.01657 -0.05593
 H907 H -0.03508 0.00783 0.05955
 H908 H -0.05872 -0.01507 0.03762
 O909 O -0.05780 0.49671 0.47666
 O910 O -0.05008 0.53397 0.47751
 O911 O -0.00261 0.47147 0.44390
 O912 O 0.03277 0.47143 0.44856
 O913 O -0.02640 0.44091 0.50099
 O914 O -0.02317 0.44861 0.53851
 O915 O 0.05557 0.52715 0.50125
 O916 O 0.04844 0.52305 0.46384
 O917 O 0.00358 0.55351 0.52996
 O918 O -0.03608 0.54614 0.52857
 O919 O 0.03089 0.50099 0.55585
 O920 O 0.02866 0.46172 0.54893
 O921 O 0.05768 0.50033 0.52584
 O922 O 0.04983 0.46129 0.52445
 O923 O 0.00355 0.52485 0.55790
 O924 O -0.03531 0.52312 0.55129
 O925 O 0.02708 0.55473 0.50211
 O926 O 0.02287 0.54754 0.46345
 O927 O -0.05637 0.47032 0.50181
 O928 O -0.04700 0.47257 0.53969
 O929 O -0.00178 0.44115 0.47409
 O930 O 0.03662 0.44998 0.47615
 O931 O -0.02933 0.49614 0.44538
 O932 O -0.02686 0.53420 0.45303
 Zr933 Zr -0.02671 0.50958 0.47633
 O934 O -0.00753 0.53036 0.49474
 Zr935 Zr 0.01119 0.47232 0.47474
 O936 O 0.03231 0.49173 0.49264
 Zr937 Zr -0.02491 0.47193 0.51398
 O938 O -0.00524 0.49083 0.53391
 Zr939 Zr 0.02480 0.52417 0.48811
 O940 O 0.00556 0.50491 0.46783
 Zr941 Zr -0.01109 0.52329 0.52754
 O942 O -0.03254 0.50438 0.50928
 Zr943 Zr 0.02705 0.48632 0.52559
 O944 O 0.00747 0.46518 0.50758
 O945 O -0.02097 0.47724 0.48131
 O946 O 0.02122 0.51874 0.52093
 C947 C -0.06626 0.48129 0.48738
 C948 C -0.01850 0.48159 0.43559
 C949 C -0.01627 0.43190 0.48544
 C950 C 0.06554 0.51645 0.51575
 C951 C 0.01806 0.56291 0.51875
 C952 C 0.02015 0.51555 0.56567
 H953 H -0.01144 0.54535 0.49160
 H954 H -0.00801 0.48722 0.54912
 H955 H -0.03040 0.46804 0.47246
 H956 H 0.04725 0.48874 0.48840
 H957 H 0.04178 0.51604 0.45121
 H958 H 0.04521 0.48040 0.45246
 H959 H -0.03343 0.51005 0.56006
 H960 H -0.05476 0.48633 0.53862
 H961 H 0.01000 0.55637 0.46597
 H962 H -0.01324 0.53297 0.44501
 H963 H 0.01657 0.46367 0.55898
 H964 H -0.00858 0.44250 0.53780
 H965 H -0.05551 0.53421 0.49245
 H966 H -0.03373 0.55653 0.51682
 H967 H 0.03469 0.44157 0.48950
 H968 H 0.05867 0.46340 0.51143
 O969 O 0.55534 0.02925 0.50256
 O970 O 0.54716 0.02696 0.46471
 O971 O 0.49967 0.05839 0.52865
 O972 O 0.46464 0.05170 0.53022
 O973 O 0.52728 0.00222 0.55837
 O974 O 0.52558 -0.03526 0.55023
 O975 O 0.44212 -0.00033 0.47533
 O976 O 0.44848 0.03667 0.47847
 O977 O 0.49664 -0.02568 0.44509
 O978 O 0.53527 -0.02417 0.45231
 O979 O 0.47176 -0.05515 0.50017
 O980 O 0.47412 -0.04755 0.53916
 O981 O 0.44325 -0.02692 0.50021
 O982 O 0.45137 -0.02466 0.53967
 O983 O 0.49639 -0.05434 0.47336
 O984 O 0.53584 -0.04677 0.47539
 O985 O 0.46937 -0.00168 0.44651
 O986 O 0.47309 0.03773 0.45300
 O987 O 0.55653 0.00273 0.52760
 O988 O 0.54874 -0.03499 0.52573
 O989 O 0.50126 0.02763 0.55926
 O990 O 0.46290 0.02410 0.55149
 O991 O 0.52531 0.05825 0.50269
 O992 O 0.52294 0.05048 0.46497
 Zr993 Zr 0.52425 0.02732 0.48969
 O994 O 0.50523 0.00843 0.46923
 Zr995 Zr 0.48752 0.02685 0.52829
 O996 O 0.46671 0.00804 0.50940
 Zr997 Zr 0.52550 -0.01048 0.52711
 O998 O 0.50631 -0.03109 0.50846
 Zr999 Zr 0.47280 0.01323 0.47664
 O1000 O 0.49175 0.03417 0.49547
 Zr1001 Zr 0.51074 -0.02403 0.47575
 O1002 O 0.53189 -0.00513 0.49434
 Zr1003 Zr 0.47383 -0.02453 0.51421
 O1004 O 0.49310 -0.00573 0.53496
 O1005 O 0.51979 0.02191 0.52233
 O1006 O 0.47829 -0.01925 0.48151
 C1007 C 0.56501 0.01834 0.51715
 C1008 C 0.51458 0.06747 0.51766
 C1009 C 0.51649 0.01687 0.56801
 C1010 C 0.43376 -0.01623 0.48534
 C1011 C 0.48021 -0.01635 0.43699
 C1012 C 0.48145 -0.06360 0.48405
 H1013 H 0.50849 0.01196 0.45411
 H1014 H 0.50992 -0.04611 0.51179
 H1015 H 0.52893 0.03117 0.53140
 H1016 H 0.45169 0.01146 0.51297
 H1017 H 0.45494 0.04944 0.48532
 H1018 H 0.45232 0.04743 0.52120
 H1019 H 0.53351 -0.05683 0.48743
 H1020 H 0.55529 -0.03417 0.51127
 H1021 H 0.48442 0.03450 0.44242
 H1022 H 0.50849 0.05689 0.46562
 H1023 H 0.48701 -0.05652 0.53727
 H1024 H 0.51147 -0.03477 0.55743
 H1025 H 0.55458 0.01299 0.46563
 H1026 H 0.53393 -0.01089 0.44379
 H1027 H 0.46531 0.01049 0.55926
 H1028 H 0.44146 -0.01253 0.53743
 O1029 O 0.49849 0.55507 0.03225
 O1030 O 0.46082 0.54633 0.03102
 O1031 O 0.52591 0.49979 0.06115
 O1032 O 0.52705 0.46457 0.05466
 O1033 O 0.55353 0.52791 0.00476
 O1034 O 0.54526 0.52521 -0.03303
 O1035 O 0.47161 0.44150 0.00287
 O1036 O 0.47593 0.44764 0.04023
 O1037 O 0.44090 0.49582 -0.02145
 O1038 O 0.44781 0.53440 -0.02038
 O1039 O 0.49561 0.47145 -0.05226
 O1040 O 0.53439 0.47396 -0.04519
 O1041 O 0.49614 0.44291 -0.02403
 O1042 O 0.53542 0.45122 -0.02219
 O1043 O 0.46812 0.49517 -0.05071
 O1044 O 0.47046 0.53501 -0.04351
 O1045 O 0.44277 0.46871 0.00281
 O1046 O 0.45023 0.47195 0.04201
 O1047 O 0.52259 0.55642 0.00486
 O1048 O 0.52062 0.54825 -0.03279
 O1049 O 0.55532 0.50151 0.02990
 O1050 O 0.54800 0.46298 0.02641
 O1051 O 0.49987 0.52523 0.06155
 O1052 O 0.46205 0.52214 0.05474
 Zr1053 Zr 0.48600 0.52377 0.03083
 O1054 O 0.46550 0.50451 0.01223
 Zr1055 Zr 0.52469 0.48735 0.02962
 O1056 O 0.50576 0.46631 0.01109
 Zr1057 Zr 0.52246 0.52526 -0.00795
 O1058 O 0.50372 0.50590 -0.02827
 Zr1059 Zr 0.47320 0.47210 0.01690
 O1060 O 0.49214 0.49128 0.03760
 Zr1061 Zr 0.47130 0.51003 -0.02053
 O1062 O 0.48992 0.53138 -0.00190
 Zr1063 Zr 0.50993 0.47351 -0.02169
 O1064 O 0.53074 0.49297 -0.00321
 O1065 O 0.51833 0.51956 0.02467
 O1066 O 0.47745 0.47765 -0.01580
 C1067 C 0.51254 0.56487 0.02077
 C1068 C 0.51522 0.51478 0.07043
 C1069 C 0.56345 0.51722 0.01933
 C1070 C 0.48140 0.43332 -0.01333
 C1071 C 0.43300 0.47947 -0.01181
 C1072 C 0.47901 0.48058 -0.06027
 H1073 H 0.45050 0.50767 0.01605
 H1074 H 0.50671 0.50951 -0.04344
 H1075 H 0.52735 0.52893 0.03375
 H1076 H 0.50947 0.45131 0.01442
 H1077 H 0.48286 0.45415 0.05298
 H1078 H 0.51856 0.45194 0.05029
 H1079 H 0.48167 0.53218 -0.05436
 H1080 H 0.50606 0.55442 -0.03209
 H1081 H 0.44011 0.48385 0.03959
 H1082 H 0.46323 0.50779 0.06135
 H1083 H 0.53253 0.48706 -0.05390
 H1084 H 0.55294 0.51140 -0.03209
 H1085 H 0.46136 0.55380 0.01700
 H1086 H 0.43971 0.53317 -0.00678
 H1087 H 0.55550 0.46553 0.01263
 H1088 H 0.53337 0.44120 -0.01006
 O1089 O 0.69354 0.22040 0.49970
 O1090 O 0.70191 0.22227 0.46200
 O1091 O 0.74900 0.19200 0.52680
 O1092 O 0.78415 0.19843 0.52802
 O1093 O 0.72063 0.24720 0.55536
 O1094 O 0.72302 0.28485 0.54776
 O1095 O 0.80696 0.25007 0.47321
 O1096 O 0.80053 0.21324 0.47600
 O1097 O 0.75270 0.27588 0.44273
 O1098 O 0.71423 0.27406 0.44904
 O1099 O 0.77721 0.30473 0.49751
 O1100 O 0.77473 0.29789 0.53635
 O1101 O 0.80558 0.27677 0.49799
 O1102 O 0.79703 0.27448 0.53762
 O1103 O 0.75180 0.30469 0.47136
 O1104 O 0.71242 0.29589 0.47282
 O1105 O 0.77991 0.25181 0.44429
 O1106 O 0.77574 0.21209 0.45068
 O1107 O 0.69211 0.24737 0.52426
 O1108 O 0.70017 0.28507 0.52286
 O1109 O 0.74730 0.22247 0.55675
 O1110 O 0.78582 0.22626 0.54924
 O1111 O 0.72423 0.19108 0.50000
 O1112 O 0.72634 0.19919 0.46223
 Zr1113 Zr 0.72478 0.22225 0.48705
 O1114 O 0.74377 0.24136 0.46670
 Zr1115 Zr 0.76128 0.22328 0.52593
 O1116 O 0.78216 0.24192 0.50706
 Zr1117 Zr 0.72317 0.26033 0.52433
 O1118 O 0.74245 0.28094 0.50587
 Zr1119 Zr 0.77619 0.23666 0.47426
 O1120 O 0.75730 0.21571 0.49311
 Zr1121 Zr 0.73816 0.27389 0.47314
 O1122 O 0.71703 0.25477 0.49153
 Zr1123 Zr 0.77492 0.27441 0.51181
 O1124 O 0.75553 0.25579 0.53253
 O1125 O 0.72902 0.22795 0.51964
 O1126 O 0.77059 0.26914 0.47910
 C1127 C 0.68368 0.23167 0.51391
 C1128 C 0.73468 0.18236 0.51553
 C1129 C 0.73150 0.23269 0.56511
 C1130 C 0.81520 0.26605 0.48322
 C1131 C 0.76924 0.26661 0.43478
 C1132 C 0.76713 0.31358 0.48188
 H1133 H 0.74065 0.23783 0.45154
 H1134 H 0.73877 0.29596 0.50919
 H1135 H 0.71977 0.21865 0.52855
 H1136 H 0.79716 0.23853 0.51074
 H1137 H 0.79416 0.20053 0.48304
 H1138 H 0.79646 0.20265 0.51900
 H1139 H 0.71468 0.30621 0.48467
 H1140 H 0.69331 0.28401 0.50855
 H1141 H 0.76514 0.21586 0.43950
 H1142 H 0.74082 0.19283 0.46298
 H1143 H 0.76137 0.30621 0.53490
 H1144 H 0.73706 0.28421 0.55510
 H1145 H 0.69478 0.23641 0.46247
 H1146 H 0.71532 0.26047 0.44098
 H1147 H 0.78308 0.23968 0.55724
 H1148 H 0.80730 0.26269 0.53520
 O1149 O 0.80735 0.74874 -0.02847
 O1150 O 0.79978 0.71131 -0.02725
 O1151 O 0.75128 0.77314 -0.06076
 O1152 O 0.71619 0.77394 -0.05536
 O1153 O 0.77631 0.80416 -0.00381
 O1154 O 0.77327 0.79681 0.03372
 O1155 O 0.69446 0.71751 -0.00182
 O1156 O 0.70070 0.72176 -0.03948
 O1157 O 0.74752 0.69160 0.02543
 O1158 O 0.78632 0.69924 0.02462
 O1159 O 0.71967 0.74461 0.05185
 O1160 O 0.72165 0.78377 0.04459
 O1161 O 0.69250 0.74490 0.02217
 O1162 O 0.70015 0.78386 0.02042
 O1163 O 0.74684 0.72052 0.05362
 O1164 O 0.78605 0.72293 0.04651
 O1165 O 0.72353 0.69009 -0.00202
 O1166 O 0.72650 0.69757 -0.04056
 O1167 O 0.80600 0.77507 -0.00322
 O1168 O 0.79712 0.77276 0.03484
 O1169 O 0.75164 0.80386 -0.03071
 O1170 O 0.71286 0.79510 -0.02767
 O1171 O 0.77842 0.74891 -0.05933
 O1172 O 0.77626 0.71087 -0.05151
 Zr1173 Zr 0.77630 0.73560 -0.02830
 O1174 O 0.75743 0.71489 -0.00956
 Zr1175 Zr 0.73825 0.77276 -0.02959
 O1176 O 0.71741 0.75331 -0.01140
 Zr1177 Zr 0.77479 0.77331 0.00931
 O1178 O 0.75542 0.75454 0.02952
 Zr1179 Zr 0.72494 0.72083 -0.01576
 O1180 O 0.74385 0.74010 -0.03637
 Zr1181 Zr 0.76138 0.72212 0.02319
 O1182 O 0.78255 0.74092 0.00457
 Zr1183 Zr 0.72306 0.75895 0.02144
 O1184 O 0.74236 0.78006 0.00319
 O1185 O 0.77048 0.76790 -0.02334
 O1186 O 0.72894 0.72647 0.01698
 C1187 C 0.81576 0.76428 -0.01785
 C1188 C 0.76722 0.76317 -0.06913
 C1189 C 0.76636 0.81305 -0.01951
 C1190 C 0.68461 0.72848 0.01259
 C1191 C 0.73316 0.68193 0.01429
 C1192 C 0.73045 0.73003 0.06158
 H1193 H 0.76141 0.69993 -0.01274
 H1194 H 0.75834 0.75826 0.04468
 H1195 H 0.77976 0.77701 -0.03239
 H1196 H 0.70240 0.75620 -0.01547
 H1197 H 0.70696 0.72897 -0.05218
 H1198 H 0.70401 0.76461 -0.05150
 H1199 H 0.78357 0.73549 0.05586
 H1200 H 0.80504 0.75911 0.03360
 H1201 H 0.73973 0.68914 -0.03857
 H1202 H 0.76262 0.71212 -0.05951
 H1203 H 0.73390 0.78199 0.05449
 H1204 H 0.75873 0.80302 0.03300
 H1205 H 0.80580 0.71156 -0.01253
 H1206 H 0.78514 0.68996 0.01179
 H1207 H 0.71537 0.80390 -0.01467
 H1208 H 0.69129 0.78174 0.00741
 O1209 O 1.00148 0.19423 0.22056
 O1210 O 0.96377 0.20193 0.22214
 O1211 O 1.02796 0.24935 0.19161
 O1212 O 1.02838 0.28471 0.19751
 O1213 O 1.05611 0.22237 0.24795
 O1214 O 1.04803 0.22504 0.28557
 O1215 O 0.97255 0.30706 0.24986
 O1216 O 0.97676 0.30119 0.21241
 O1217 O 0.94307 0.25265 0.27453
 O1218 O 0.95024 0.21478 0.27414
 O1219 O 0.99676 0.27952 0.30393
 O1220 O 1.03606 0.27631 0.29775
 O1221 O 0.99874 0.30741 0.27522
 O1222 O 1.03744 0.29862 0.27429
 O1223 O 0.97137 0.25346 0.30408
 O1224 O 0.97389 0.21370 0.29608
 O1225 O 0.94423 0.27921 0.24960
 O1226 O 0.95183 0.27623 0.21055
 O1227 O 1.02570 0.19339 0.24788
 O1228 O 1.02349 0.20186 0.28574
 O1229 O 1.05736 0.24848 0.22248
 O1230 O 1.04951 0.28696 0.22569
 O1231 O 1.00129 0.22455 0.19078
 O1232 O 0.96374 0.22602 0.19866
 Zr1233 Zr 0.98832 0.22521 0.22200
 O1234 O 0.96769 0.24415 0.24072
 Zr1235 Zr 1.02653 0.26220 0.22284
 O1236 O 1.00731 0.28311 0.24113
 Zr1237 Zr 1.02504 0.22460 0.26064
 O1238 O 1.00623 0.24397 0.28090
 Zr1239 Zr 0.97478 0.27663 0.23570
 O1240 O 0.99396 0.25773 0.21503
 Zr1241 Zr 0.97382 0.23909 0.27354
 O1242 O 0.99255 0.21792 0.25480
 Zr1243 Zr 1.01185 0.27642 0.27392
 O1244 O 1.03284 0.25701 0.25565
 O1245 O 1.02062 0.22995 0.22798
 O1246 O 0.97935 0.27157 0.26844
 C1247 C 1.01573 0.18470 0.23202
 C1248 C 1.01679 0.23491 0.18203
 C1249 C 1.06579 0.23300 0.23317
 C1250 C 0.98316 0.31618 0.26503
 C1251 C 0.93470 0.26846 0.26438
 C1252 C 0.98129 0.26927 0.31279
 H1253 H 0.95272 0.24068 0.23701
 H1254 H 1.00939 0.24056 0.29609
 H1255 H 1.02971 0.22072 0.21884
 H1256 H 1.01078 0.29812 0.23756
 H1257 H 0.98404 0.29495 0.19973
 H1258 H 1.01975 0.29727 0.20177
 H1259 H 0.98520 0.21663 0.30682
 H1260 H 1.00940 0.19473 0.28449
 H1261 H 0.94197 0.26409 0.21298
 H1262 H 0.96447 0.24031 0.19183
 H1263 H 1.03353 0.26392 0.30730
 H1264 H 1.05480 0.23936 0.28516
 H1265 H 0.96456 0.19463 0.23624
 H1266 H 0.94306 0.21476 0.25997
 H1267 H 1.05751 0.28437 0.23918
 H1268 H 1.03592 0.30794 0.26154
 O1269 O 0.74899 1.05803 0.72372
 O1270 O 0.78657 1.04987 0.72510
 O1271 O 0.72360 1.00168 0.69300
 O1272 O 0.72314 0.96642 0.69929
 O1273 O 0.69309 1.02772 0.74971
 O1274 O 0.70143 1.02608 0.78741
 O1275 O 0.77763 0.94468 0.75194
 O1276 O 0.77391 0.95121 0.71439
 O1277 O 0.80651 0.99914 0.77778
 O1278 O 0.79850 1.03810 0.77622
 O1279 O 0.75179 0.97352 0.80691
 O1280 O 0.71290 0.97510 0.79873
 O1281 O 0.75276 0.94515 0.77856
 O1282 O 0.71348 0.95207 0.77594
 O1283 O 0.77848 0.99823 0.80628
 O1284 O 0.77586 1.03763 0.79936
 O1285 O 0.80569 0.97246 0.75293
 O1286 O 0.79933 0.97584 0.71378
 O1287 O 0.72299 1.05768 0.74928
 O1288 O 0.72519 1.04995 0.78714
 O1289 O 0.69351 1.00281 0.72302
 O1290 O 0.70124 0.96440 0.72691
 O1291 O 0.74839 1.02836 0.69360
 O1292 O 0.78617 1.02612 0.70104
 Zr1293 Zr 0.76181 1.02683 0.72457
 O1294 O 0.78244 1.00789 0.74337
 Zr1295 Zr 0.72422 0.98920 0.72446
 O1296 O 0.74318 0.96854 0.74328
 Zr1297 Zr 0.72434 1.02672 0.76244
 O1298 O 0.74330 1.00783 0.78299
 Zr1299 Zr 0.77563 0.97534 0.73819
 O1300 O 0.75677 0.99424 0.71727
 Zr1301 Zr 0.77581 1.01293 0.77604
 O1302 O 0.75687 1.03388 0.75728
 Zr1303 Zr 0.73812 0.97533 0.77603
 O1304 O 0.71718 0.99425 0.75720
 O1305 O 0.72947 1.02156 0.72989
 O1306 O 0.77058 0.98045 0.77085
 C1307 C 0.73378 1.06698 0.73436
 C1308 C 0.73380 1.01726 0.68418
 C1309 C 0.68423 1.01745 0.73414
 C1310 C 0.76788 0.93609 0.76796
 C1311 C 0.81487 0.98303 0.76805
 C1312 C 0.76782 0.98321 0.81544
 H1313 H 0.79744 1.01145 0.73993
 H1314 H 0.73986 1.01124 0.79811
 H1315 H 0.72037 1.03074 0.72072
 H1316 H 0.73995 0.95346 0.73973
 H1317 H 0.76724 0.95780 0.70155
 H1318 H 0.73154 0.95386 0.70396
 H1319 H 0.76361 1.03521 0.80912
 H1320 H 0.73953 1.05665 0.78651
 H1321 H 0.80877 0.98830 0.71625
 H1322 H 0.78556 1.01175 0.69434
 H1323 H 0.71473 0.98771 0.80818
 H1324 H 0.69430 1.01196 0.78660
 H1325 H 0.78593 1.05685 0.73938
 H1326 H 0.80784 1.03628 0.76352
 H1327 H 0.69343 0.96668 0.74056
 H1328 H 0.71573 0.94260 0.76340
 O1329 O 0.69513 0.52959 0.25047
 O1330 O 0.70370 0.52711 0.28824
 O1331 O 0.75063 0.55890 0.22402
 O1332 O 0.78575 0.55227 0.22256
 O1333 O 0.72310 0.50283 0.19386
 O1334 O 0.72442 0.46544 0.20192
 O1335 O 0.80874 0.50008 0.27615
 O1336 O 0.80208 0.53696 0.27395
 O1337 O 0.75446 0.47391 0.30674
 O1338 O 0.71540 0.47615 0.29993
 O1339 O 0.77885 0.44557 0.25192
 O1340 O 0.77577 0.45306 0.21259
 O1341 O 0.80728 0.47371 0.25100
 O1342 O 0.79868 0.47575 0.21200
 O1343 O 0.75321 0.44525 0.27779
 O1344 O 0.71451 0.45354 0.27702
 O1345 O 0.78158 0.49813 0.30551
 O1346 O 0.77780 0.53756 0.29955
 O1347 O 0.69382 0.50347 0.22495
 O1348 O 0.70142 0.46567 0.22652
 O1349 O 0.74838 0.52905 0.19369
 O1350 O 0.78700 0.52481 0.20060
 O1351 O 0.72502 0.55867 0.25000
 O1352 O 0.72797 0.55071 0.28784
 Zr1353 Zr 0.72634 0.52766 0.26302
 O1354 O 0.74547 0.50850 0.28313
 Zr1355 Zr 0.76278 0.52746 0.22424
 O1356 O 0.78368 0.50848 0.24272
 Zr1357 Zr 0.72477 0.49012 0.22517
 O1358 O 0.74401 0.46936 0.24353
 Zr1359 Zr 0.77788 0.51336 0.27559
 O1360 O 0.75882 0.53452 0.25714
 Zr1361 Zr 0.73980 0.47608 0.27635
 O1362 O 0.71862 0.49521 0.25806
 Zr1363 Zr 0.77645 0.47599 0.23765
 O1364 O 0.75713 0.49497 0.21719
 O1365 O 0.73056 0.52243 0.23034
 O1366 O 0.77226 0.48090 0.27045
 C1367 C 0.68540 0.51890 0.23572
 C1368 C 0.73562 0.56789 0.23490
 C1369 C 0.73338 0.51815 0.18470
 C1370 C 0.81700 0.48437 0.26573
 C1371 C 0.77089 0.48327 0.31489
 C1372 C 0.76859 0.43649 0.26732
 H1373 H 0.74235 0.51188 0.29832
 H1374 H 0.74034 0.45437 0.24005
 H1375 H 0.72131 0.53174 0.22145
 H1376 H 0.79866 0.51194 0.23900
 H1377 H 0.79559 0.54970 0.26708
 H1378 H 0.79829 0.54768 0.23109
 H1379 H 0.71578 0.44442 0.26409
 H1380 H 0.69463 0.46671 0.24086
 H1381 H 0.76645 0.53428 0.31011
 H1382 H 0.74240 0.55719 0.28699
 H1383 H 0.76337 0.44353 0.21506
 H1384 H 0.73865 0.46563 0.19494
 H1385 H 0.69639 0.51307 0.28740
 H1386 H 0.71750 0.48888 0.30914
 H1387 H 0.78417 0.51147 0.19249
 H1388 H 0.80806 0.48839 0.21365
 O1389 O 0.50235 0.19407 0.72304
 O1390 O 0.46490 0.20184 0.72441
 O1391 O 0.52845 0.24967 0.69313
 O1392 O 0.52903 0.28482 0.69905
 O1393 O 0.55761 0.22315 0.74976
 O1394 O 0.54965 0.22543 0.78729
 O1395 O 0.47258 0.30645 0.75226
 O1396 O 0.47725 0.30107 0.71461
 O1397 O 0.44522 0.25372 0.77810
 O1398 O 0.45203 0.21438 0.77595
 O1399 O 0.49827 0.27945 0.80590
 O1400 O 0.53751 0.27703 0.79911
 O1401 O 0.49907 0.30727 0.77730
 O1402 O 0.53817 0.29927 0.77551
 O1403 O 0.47347 0.25285 0.80655
 O1404 O 0.47513 0.21384 0.79862
 O1405 O 0.44474 0.27837 0.75125
 O1406 O 0.45263 0.27554 0.71249
 O1407 O 0.52746 0.19361 0.74954
 O1408 O 0.52532 0.20202 0.78752
 O1409 O 0.55838 0.24912 0.72412
 O1410 O 0.54986 0.28761 0.72719
 O1411 O 0.50316 0.22345 0.69340
 O1412 O 0.46507 0.22607 0.70070
 Zr1413 Zr 0.48947 0.22508 0.72423
 O1414 O 0.46876 0.24383 0.74306
 Zr1415 Zr 0.52733 0.26242 0.72448
 O1416 O 0.50800 0.28319 0.74286
 Zr1417 Zr 0.52655 0.22484 0.76247
 O1418 O 0.50780 0.24413 0.78282
 Zr1419 Zr 0.47550 0.27630 0.73770
 O1420 O 0.49474 0.25758 0.71695
 Zr1421 Zr 0.47535 0.23897 0.77581
 O1422 O 0.49408 0.21790 0.75700
 Zr1423 Zr 0.51296 0.27663 0.77564
 O1424 O 0.53396 0.25733 0.75726
 O1425 O 0.52181 0.23012 0.72988
 O1426 O 0.48052 0.27141 0.77040
 C1427 C 0.51705 0.18476 0.73404
 C1428 C 0.51809 0.23423 0.68420
 C1429 C 0.56710 0.23392 0.73498
 C1430 C 0.48305 0.31564 0.76747
 C1431 C 0.43617 0.26874 0.76733
 C1432 C 0.48319 0.26888 0.81505
 H1433 H 0.45378 0.24024 0.73954
 H1434 H 0.51118 0.24080 0.79797
 H1435 H 0.53100 0.22091 0.72083
 H1436 H 0.51120 0.29826 0.73924
 H1437 H 0.48438 0.29494 0.70180
 H1438 H 0.52002 0.29717 0.70312
 H1439 H 0.48763 0.21579 0.80817
 H1440 H 0.51135 0.19466 0.78622
 H1441 H 0.44342 0.26284 0.71452
 H1442 H 0.46662 0.23990 0.69310
 H1443 H 0.53535 0.26458 0.80868
 H1444 H 0.55619 0.23985 0.78697
 H1445 H 0.46485 0.19552 0.73900
 H1446 H 0.44255 0.21654 0.76340
 H1447 H 0.55803 0.28514 0.74060
 H1448 H 0.53599 0.30887 0.76306
 O1449 O 0.25193 0.77702 0.44056
 O1450 O 0.21449 0.77616 0.44818
 O1451 O 0.27778 0.80667 0.49710
 O1452 O 0.27739 0.80091 0.53254
 O1453 O 0.30683 0.75107 0.47053
 O1454 O 0.29895 0.71341 0.47303
 O1455 O 0.22157 0.74885 0.55386
 O1456 O 0.22569 0.78610 0.54770
 O1457 O 0.19333 0.72354 0.49875
 O1458 O 0.20151 0.72408 0.46055
 O1459 O 0.24761 0.69428 0.52600
 O1460 O 0.28574 0.70103 0.52503
 O1461 O 0.24767 0.72354 0.55470
 O1462 O 0.28704 0.72516 0.54644
 O1463 O 0.22133 0.69487 0.50073
 O1464 O 0.22507 0.70200 0.46058
 O1465 O 0.19387 0.74841 0.52540
 O1466 O 0.20106 0.78736 0.52230
 O1467 O 0.27734 0.75095 0.44098
 O1468 O 0.27477 0.71314 0.44918
 O1469 O 0.30730 0.77645 0.49676
 O1470 O 0.29867 0.77303 0.53529
 O1471 O 0.25198 0.80733 0.47124
 O1472 O 0.21426 0.79948 0.47234
 Zr1473 Zr 0.23880 0.77623 0.47181
 O1474 O 0.21787 0.75750 0.49049
 Zr1475 Zr 0.27623 0.77566 0.50989
 O1476 O 0.25668 0.75739 0.53048
 Zr1477 Zr 0.27583 0.73807 0.47215
 O1478 O 0.25671 0.71781 0.49120
 Zr1479 Zr 0.22429 0.76263 0.52324
 O1480 O 0.24375 0.78324 0.50461
 Zr1481 Zr 0.22433 0.72488 0.48569
 O1482 O 0.24341 0.74357 0.46477
 Zr1483 Zr 0.26165 0.72478 0.52390
 O1484 O 0.28295 0.74306 0.50484
 O1485 O 0.27102 0.77053 0.47733
 O1486 O 0.22921 0.73005 0.51841
 C1487 C 0.26691 0.76603 0.43163
 C1488 C 0.26713 0.81609 0.48218
 C1489 C 0.31612 0.76596 0.48136
 C1490 C 0.23205 0.73385 0.56324
 C1491 C 0.18466 0.73349 0.51458
 C1492 C 0.23173 0.68578 0.51605
 H1493 H 0.20294 0.76102 0.48670
 H1494 H 0.26006 0.70272 0.48785
 H1495 H 0.28020 0.77965 0.46817
 H1496 H 0.25983 0.76104 0.54562
 H1497 H 0.23289 0.79876 0.54141
 H1498 H 0.26853 0.79661 0.54498
 H1499 H 0.23614 0.69125 0.46410
 H1500 H 0.26071 0.71422 0.44194
 H1501 H 0.19150 0.78481 0.50990
 H1502 H 0.21484 0.80629 0.48671
 H1503 H 0.28540 0.69320 0.51121
 H1504 H 0.30605 0.71441 0.48723
 H1505 H 0.21485 0.76185 0.44134
 H1506 H 0.19347 0.73770 0.46099
 H1507 H 0.30700 0.75980 0.53273
 H1508 H 0.28463 0.73729 0.55637
 O1509 O 0.22035 0.24657 1.05420
 O1510 O 0.22176 0.28445 1.04602
 O1511 O 0.19027 0.22129 0.99742
 O1512 O 0.19685 0.22114 0.96188
 O1513 O 0.24679 0.19096 1.02371
 O1514 O 0.28441 0.19978 1.02231
 O1515 O 0.24886 0.27538 0.94033
 O1516 O 0.21149 0.27157 0.94687
 O1517 O 0.27366 0.30487 0.99567
 O1518 O 0.27171 0.29625 1.03512
 O1519 O 0.30363 0.25076 0.96993
 O1520 O 0.29588 0.21131 0.97197
 O1521 O 0.27567 0.25084 0.94132
 O1522 O 0.27389 0.21189 0.94813
 O1523 O 0.30244 0.27735 0.99486
 O1524 O 0.29580 0.27478 1.03395
 O1525 O 0.24971 0.30368 0.96817
 O1526 O 0.21075 0.29720 0.97140
 O1527 O 0.24568 0.22040 1.05379
 O1528 O 0.28338 0.22330 1.04673
 O1529 O 0.22022 0.19133 0.99868
 O1530 O 0.22432 0.19896 0.96025
 O1531 O 0.19062 0.24620 1.02414
 O1532 O 0.19771 0.28378 1.02233
 Zr1533 Zr 0.22136 0.25963 1.02290
 O1534 O 0.23989 0.28044 1.00394
 Zr1535 Zr 0.22167 0.22207 0.98502
 O1536 O 0.24054 0.24112 0.96446
 Zr1537 Zr 0.25923 0.22233 1.02296
 O1538 O 0.27968 0.24162 1.00432
 Zr1539 Zr 0.23511 0.27356 0.97115
 O1540 O 0.21433 0.25459 0.99009
 Zr1541 Zr 0.27236 0.27408 1.00938
 O1542 O 0.25384 0.25483 1.03025
 Zr1543 Zr 0.27313 0.23639 0.97164
 O1544 O 0.25428 0.21524 0.99030
 O1545 O 0.22685 0.22733 1.01754
 O1546 O 0.26758 0.26880 0.97669
 C1547 C 0.23073 0.23110 1.06304
 C1548 C 0.18138 0.23153 1.01300
 C1549 C 0.23130 0.18207 1.01341
 C1550 C 0.26501 0.26573 0.93199
 C1551 C 0.26431 0.31308 0.97922
 C1552 C 0.31176 0.26698 0.97972
 H1553 H 0.23628 0.29542 1.00749
 H1554 H 0.29474 0.23836 1.00787
 H1555 H 0.21767 0.21814 1.02662
 H1556 H 0.23720 0.23780 0.94929
 H1557 H 0.19872 0.26492 0.95352
 H1558 H 0.20178 0.22922 0.94915
 H1559 H 0.30488 0.26193 1.03233
 H1560 H 0.28263 0.23768 1.05337
 H1561 H 0.21317 0.30679 0.98382
 H1562 H 0.19158 0.28367 1.00766
 H1563 H 0.30572 0.21383 0.98417
 H1564 H 0.28362 0.19254 1.00817
 H1565 H 0.23565 0.28343 1.05359
 H1566 H 0.25948 0.30601 1.03277
 H1567 H 0.23805 0.19140 0.96249
 H1568 H 0.26092 0.21333 0.93913
 C1569 C 0.29291 0.38261 0.76965
 C1570 C 0.29165 0.37723 0.79158
 C1571 C 0.28221 0.39193 0.80586
 C1572 C 0.27417 0.41140 0.79841
 C1573 C 0.27572 0.41684 0.77658
 C1574 C 0.28521 0.40228 0.76227
 H1575 H 0.29972 0.37157 0.75812
 H1576 H 0.28140 0.38862 0.82292
 H1577 H 0.26729 0.42249 0.80988
 H1578 H 0.28657 0.40605 0.74533
 C1579 C 0.29476 -0.11943 0.26680
 C1580 C 0.28970 -0.12707 0.28763
 C1581 C 0.27618 -0.11416 0.30046
 C1582 C 0.26840 -0.09462 0.29298
 C1583 C 0.27406 -0.08696 0.27258
 C1584 C 0.28720 -0.09964 0.25951
 H1585 H 0.30414 -0.12878 0.25565
 H1586 H 0.27231 -0.11827 0.31686
 H1587 H 0.25855 -0.08510 0.30364
 H1588 H 0.29169 -0.09426 0.24359
 C1589 C 0.77768 0.88764 0.80317
 C1590 C 0.79044 0.87439 0.78992
 C1591 C 0.79489 0.88179 0.76887
 C1592 C 0.78739 0.90161 0.76168
 C1593 C 0.77492 0.91461 0.77509
 C1594 C 0.77001 0.90732 0.79583
 H1595 H 0.77432 0.88361 0.81971
 H1596 H 0.80363 0.87217 0.75743
 H1597 H 0.79127 0.90669 0.74550
 H1598 H 0.76074 0.91715 0.80673
 C1599 C 0.44855 0.86385 0.27824
 C1600 C 0.46230 0.87821 0.28889
 C1601 C 0.48381 0.87225 0.29196
 C1602 C 0.49123 0.85232 0.28489
 C1603 C 0.47742 0.83809 0.27425
 C1604 C 0.45606 0.84416 0.27085
 H1605 H 0.43178 0.86752 0.27607
 H1606 H 0.49496 0.88299 0.29978
 H1607 H 0.50780 0.84807 0.28767
 H1608 H 0.44493 0.83338 0.26302
 C1609 C -0.05209 0.86468 0.77402
 C1610 C -0.03916 0.87786 0.78724
 C1611 C -0.01816 0.87066 0.79172
 C1612 C -0.01084 0.85094 0.78408
 C1613 C -0.02406 0.83786 0.77144
 C1614 C -0.04461 0.84512 0.76621
 H1615 H -0.06857 0.86855 0.77055
 H1616 H -0.00697 0.88028 0.80078
 H1617 H 0.00524 0.84590 0.78814
 H1618 H -0.05534 0.83527 0.75674
 C1619 C -0.05294 -0.11555 -0.02586
 C1620 C -0.03860 -0.12968 -0.03600
 C1621 C -0.01706 -0.12347 -0.03809
 C1622 C -0.01021 -0.10343 -0.03076
 C1623 C -0.02465 -0.08935 -0.02082
 C1624 C -0.04600 -0.09574 -0.01818
 H1625 H -0.06975 -0.11943 -0.02443
 H1626 H -0.00548 -0.13403 -0.04547
 H1627 H 0.00639 -0.09894 -0.03289
 H1628 H -0.05757 -0.08508 -0.01088
 C1629 C -0.04988 0.38211 0.47819
 C1630 C -0.03707 0.36921 0.46460
 C1631 C -0.01643 0.37700 0.45939
 C1632 C -0.00945 0.39706 0.46655
 C1633 C -0.02264 0.40986 0.47946
 C1634 C -0.04272 0.40196 0.48555
 H1635 H -0.06611 0.37783 0.48226
 H1636 H -0.00528 0.36766 0.45003
 H1637 H 0.00628 0.40260 0.46186
 H1638 H -0.05343 0.41156 0.49526
 C1639 C 0.47299 -0.11213 0.44867
 C1640 C 0.46024 -0.12569 0.46161
 C1641 C 0.45505 -0.11835 0.48251
 C1642 C 0.46206 -0.09837 0.48991
 C1643 C 0.47467 -0.08515 0.47682
 C1644 C 0.48013 -0.09235 0.45619
 H1645 H 0.47676 -0.11600 0.43217
 H1646 H 0.44610 -0.12813 0.49366
 H1647 H 0.45770 -0.09333 0.50598
 H1648 H 0.48947 -0.08237 0.44548
 C1649 C 0.47293 0.38524 -0.04932
 C1650 C 0.45986 0.37168 -0.03668
 C1651 C 0.45489 0.37865 -0.01560
 C1652 C 0.46214 0.39841 -0.00785
 C1653 C 0.47483 0.41175 -0.02074
 C1654 C 0.48033 0.40479 -0.04144
 H1655 H 0.47665 0.38165 -0.06588
 H1656 H 0.44578 0.36881 -0.00464
 H1657 H 0.45779 0.40323 0.00829
 H1658 H 0.48978 0.41484 -0.05198
 C1659 C 0.76794 0.36909 0.45709
 C1660 C 0.78924 0.37546 0.46093
 C1661 C 0.80279 0.36138 0.47216
 C1662 C 0.79530 0.34168 0.47945
 C1663 C 0.77424 0.33515 0.47521
 C1664 C 0.76060 0.34903 0.46394
 H1665 H 0.75688 0.37958 0.44885
 H1666 H 0.81943 0.36528 0.47493
 H1667 H 0.80624 0.33127 0.48793
 H1668 H 0.74424 0.34444 0.46055
 C1669 C 0.80174 0.86146 -0.02718
 C1670 C 0.78916 0.87506 -0.04023
 C1671 C 0.76824 0.86798 -0.04547
 C1672 C 0.76065 0.84805 -0.03855
 C1673 C 0.77346 0.83475 -0.02581
 C1674 C 0.79395 0.84183 -0.01998
 H1675 H 0.81817 0.86510 -0.02323
 H1676 H 0.75726 0.87784 -0.05449
 H1677 H 0.74467 0.84310 -0.04311
 H1678 H 0.80441 0.83180 -0.01045
 C1679 C 0.77044 0.29147 0.37926
 C1680 C 0.79233 0.29037 0.37412
 C1681 C 0.80637 0.28079 0.38897
 C1682 C 0.79873 0.27253 0.40837
 C1683 C 0.77694 0.27400 0.41359
 C1684 C 0.76286 0.28358 0.39886
 H1685 H 0.75907 0.29833 0.36809
 H1686 H 0.82339 0.28005 0.38587
 H1687 H 0.81001 0.26556 0.41959
 H1688 H 0.74596 0.28486 0.40246
 C1689 C 0.80250 0.77493 -0.11692
 C1690 C 0.78823 0.78493 -0.13128
 C1691 C 0.76657 0.78662 -0.12536
 C1692 C 0.75955 0.77913 -0.10536
 C1693 C 0.77396 0.76943 -0.09102
 C1694 C 0.79541 0.76709 -0.09718
 H1695 H 0.81939 0.77381 -0.12053
 H1696 H 0.75503 0.79387 -0.13609
 H1697 H 0.74288 0.78107 -0.10104
 H1698 H 0.80697 0.76001 -0.08633
 C1699 C 0.30657 0.47162 0.86177
 C1700 C 0.29209 0.46247 0.87648
 C1701 C 0.27019 0.46234 0.87126
 C1702 C 0.26306 0.47047 0.85160
 C1703 C 0.27760 0.47930 0.83685
 C1704 C 0.29938 0.48011 0.84227
 H1705 H 0.32359 0.47164 0.86496
 H1706 H 0.25851 0.45588 0.88234
 H1707 H 0.24615 0.46975 0.84787
 H1708 H 0.31098 0.48653 0.83106
 C1709 C 0.27995 -0.05233 0.36283
 C1710 C 0.28919 -0.03808 0.37771
 C1711 C 0.29094 -0.01632 0.37204
 C1712 C 0.28398 -0.00913 0.35189
 C1713 C 0.27466 -0.02346 0.33724
 C1714 C 0.27255 -0.04506 0.34300
 H1715 H 0.27886 -0.06928 0.36622
 H1716 H 0.29762 -0.00478 0.38316
 H1717 H 0.28574 0.00763 0.34782
 H1718 H 0.26578 -0.05653 0.33185
 C1719 C -0.04529 -0.02233 -0.11693
 C1720 C -0.04101 -0.04339 -0.12413
 C1721 C -0.02830 -0.05652 -0.11069
 C1722 C -0.02051 -0.04904 -0.09101
 C1723 C -0.02529 -0.02829 -0.08391
 C1724 C -0.03769 -0.01500 -0.09712
 H1725 H -0.05399 -0.01100 -0.12671
 H1726 H -0.02506 -0.07306 -0.11457
 H1727 H -0.01130 -0.05983 -0.08101
 H1728 H -0.04145 0.00119 -0.09219
 C1729 C -0.01926 0.45608 0.38029
 C1730 C -0.04032 0.46036 0.37313
 C1731 C -0.05358 0.47267 0.38681
 C1732 C -0.04624 0.48006 0.40667
 C1733 C -0.02550 0.47527 0.41376
 C1734 C -0.01206 0.46330 0.40031
 H1735 H -0.00787 0.44765 0.37035
 H1736 H -0.07014 0.47584 0.38298
 H1737 H -0.05716 0.48892 0.41684
 H1738 H 0.00412 0.45952 0.40523
 C1739 C 0.44400 -0.02956 0.39012
 C1740 C 0.45834 -0.03884 0.37539
 C1741 C 0.48013 -0.04010 0.38099
 C1742 C 0.48729 -0.03266 0.40093
 C1743 C 0.47292 -0.02339 0.41554
 C1744 C 0.45124 -0.02175 0.40987
 H1745 H 0.42706 -0.02873 0.38665
 H1746 H 0.49171 -0.04674 0.36992
 H1747 H 0.50411 -0.03404 0.40488
 H1748 H 0.43974 -0.01499 0.42099
 C1749 C 0.47835 0.45681 -0.11633
 C1750 C 0.45651 0.45810 -0.12173
 C1751 C 0.44233 0.46728 -0.10678
 C1752 C 0.44977 0.47502 -0.08708
 C1753 C 0.47152 0.47341 -0.08163
 C1754 C 0.48573 0.46417 -0.09642
 H1755 H 0.48983 0.45023 -0.12754
 H1756 H 0.42535 0.46812 -0.11007
 H1757 H 0.43838 0.48174 -0.07583
 H1758 H 0.50259 0.46281 -0.09266
 C1759 C 0.47296 0.80472 0.36311
 C1760 C 0.46435 0.79012 0.37802
 C1761 C 0.46319 0.76835 0.37224
 C1762 C 0.46994 0.76150 0.35193
 C1763 C 0.47846 0.77618 0.33716
 C1764 C 0.48014 0.79779 0.34305
 H1765 H 0.47359 0.82167 0.36661
 H1766 H 0.45704 0.75656 0.38337
 H1767 H 0.46862 0.74471 0.34780
 H1768 H 0.48637 0.80950 0.33184
 C1769 C -0.04465 0.77018 0.86751
 C1770 C -0.04068 0.79129 0.87476
 C1771 C -0.02839 0.80473 0.86122
 C1772 C -0.02058 0.79743 0.84150
 C1773 C -0.02492 0.77658 0.83441
 C1774 C -0.03703 0.76304 0.84763
 H1775 H -0.05304 0.75864 0.87731
 H1776 H -0.02548 0.82133 0.86507
 H1777 H -0.01165 0.80843 0.83146
 H1778 H -0.04048 0.74677 0.84269
 C1779 C 0.38156 0.79256 0.26608
 C1780 C 0.37502 0.78995 0.28758
 C1781 C 0.38925 0.78021 0.30213
 C1782 C 0.40933 0.77315 0.29539
 C1783 C 0.41592 0.77600 0.27401
 C1784 C 0.40186 0.78584 0.25942
 H1785 H 0.37097 0.79970 0.25433
 H1786 H 0.38513 0.77844 0.31893
 H1787 H 0.41995 0.76595 0.30710
 H1788 H 0.40651 0.78817 0.24281
 C1789 C -0.11994 0.79263 0.76487
 C1790 C -0.12618 0.78980 0.78642
 C1791 C -0.11191 0.77966 0.80064
 C1792 C -0.09206 0.77242 0.79351
 C1793 C -0.08576 0.77546 0.77208
 C1794 C -0.09985 0.78570 0.75781
 H1795 H -0.13060 0.80013 0.75341
 H1796 H -0.11581 0.77773 0.81747
 H1797 H -0.08138 0.76493 0.80498
 H1798 H -0.09538 0.78822 0.74118
 C1799 C 0.86335 0.30140 0.47361
 C1800 C 0.87708 0.28782 0.46198
 C1801 C 0.87056 0.26656 0.45828
 C1802 C 0.85061 0.25933 0.46543
 C1803 C 0.83692 0.27304 0.47687
 C1804 C 0.84370 0.29401 0.48120
 H1805 H 0.86743 0.31800 0.47639
 H1806 H 0.88082 0.25546 0.44980
 H1807 H 0.84589 0.24301 0.46198
 H1808 H 0.83351 0.30499 0.48990
 C1809 C 0.86368 0.79978 -0.02741
 C1810 C 0.87786 0.78601 -0.03823
 C1811 C 0.87174 0.76454 -0.04137
 C1812 C 0.85172 0.75726 -0.03439
 C1813 C 0.83761 0.77116 -0.02375
 C1814 C 0.84395 0.79239 -0.02006
 H1815 H 0.86744 0.81654 -0.02517
 H1816 H 0.88233 0.75337 -0.04931
 H1817 H 0.84726 0.74078 -0.03741
 H1818 H 0.83331 0.80359 -0.01220
 C1819 C -0.12075 -0.04549 -0.01643
 C1820 C -0.12800 -0.04057 -0.03745
 C1821 C -0.11429 -0.02812 -0.05053
 C1822 C -0.09442 -0.02114 -0.04311
 C1823 C -0.08726 -0.02649 -0.02244
 C1824 C -0.10066 -0.03869 -0.00915
 H1825 H -0.13063 -0.05414 -0.00515
 H1826 H -0.11809 -0.02452 -0.06709
 H1827 H -0.08433 -0.01208 -0.05395
 H1828 H -0.09568 -0.04288 0.00699
 C1829 C -0.12155 0.48185 0.46234
 C1830 C -0.12906 0.46092 0.46659
 C1831 C -0.11600 0.44763 0.47956
 C1832 C -0.09612 0.45461 0.48705
 C1833 C -0.08843 0.47501 0.48178
 C1834 C -0.10153 0.48869 0.46968
 H1835 H -0.13107 0.49333 0.45356
 H1836 H -0.12017 0.43119 0.48292
 H1837 H -0.08631 0.44356 0.49615
 H1838 H -0.09621 0.50469 0.46564
 C1839 C 0.37898 -0.01673 0.45919
 C1840 C 0.37139 -0.03749 0.46410
 C1841 C 0.38458 -0.05060 0.47709
 C1842 C 0.40445 -0.04345 0.48442
 C1843 C 0.41200 -0.02306 0.47892
 C1844 C 0.39898 -0.00972 0.46637
 H1845 H 0.36941 -0.00543 0.45022
 H1846 H 0.38039 -0.06696 0.48080
 H1847 H 0.41424 -0.05428 0.49380
 H1848 H 0.40424 0.00623 0.46207
 C1849 C 0.37840 0.47871 -0.03794
 C1850 C 0.37211 0.45709 -0.03559
 C1851 C 0.38583 0.44346 -0.02374
 C1852 C 0.40517 0.45095 -0.01534
 C1853 C 0.41155 0.47220 -0.01861
 C1854 C 0.39785 0.48605 -0.02974
 H1855 H 0.36824 0.49035 -0.04573
 H1856 H 0.38255 0.42659 -0.02188
 H1857 H 0.41556 0.43979 -0.00707
 H1858 H 0.40220 0.50265 -0.03222
 C1859 C 0.37194 0.48340 0.79006
 C1860 C 0.37733 0.46160 0.78831
 C1861 C 0.36269 0.44763 0.77833
 C1862 C 0.34318 0.45518 0.77051
 C1863 C 0.33760 0.47681 0.77279
 C1864 C 0.35221 0.49088 0.78256
 H1865 H 0.38292 0.49470 0.79732
 H1866 H 0.36594 0.43067 0.77716
 H1867 H 0.33211 0.44387 0.76337
 H1868 H 0.34834 0.50767 0.78446
 C1869 C 0.36521 -0.05060 0.27527
 C1870 C 0.37960 -0.03637 0.28523
 C1871 C 0.37356 -0.01476 0.28744
 C1872 C 0.35339 -0.00780 0.28059
 C1873 C 0.33903 -0.02218 0.27094
 C1874 C 0.34532 -0.04355 0.26803
 H1875 H 0.36890 -0.06744 0.27376
 H1876 H 0.38431 -0.00322 0.29466
 H1877 H 0.34897 0.00880 0.28293
 H1878 H 0.33447 -0.05510 0.26094
 C1879 C 0.13574 0.55362 0.72654
 C1880 C 0.12161 0.53882 0.71702
 C1881 C 0.12806 0.51732 0.71532
 C1882 C 0.14839 0.51099 0.72219
 C1883 C 0.16258 0.52593 0.73128
 C1884 C 0.15588 0.54720 0.73377
 H1885 H 0.13164 0.57040 0.72769
 H1886 H 0.11750 0.50540 0.70845
 H1887 H 0.15311 0.49443 0.72021
 H1888 H 0.16657 0.55913 0.74044
 C1889 C 0.13843 0.03032 0.19736
 C1890 C 0.12403 0.04022 0.21161
 C1891 C 0.13022 0.04276 0.23326
 C1892 C 0.15034 0.03583 0.24033
 C1893 C 0.16450 0.02576 0.22603
 C1894 C 0.15824 0.02297 0.20454
 H1895 H 0.13464 0.02858 0.18047
 H1896 H 0.11950 0.04996 0.24483
 H1897 H 0.15473 0.03814 0.25702
 H1898 H 0.16891 0.01554 0.19308
 C1899 C 0.61737 0.70050 0.22557
 C1900 C 0.63136 0.71463 0.21494
 C1901 C 0.62487 0.73600 0.21200
 C1902 C 0.60466 0.74282 0.21887
 C1903 C 0.59068 0.72853 0.22918
 C1904 C 0.59742 0.70741 0.23277
 H1905 H 0.62144 0.68380 0.22766
 H1906 H 0.63530 0.74745 0.20423
 H1907 H 0.59992 0.75924 0.21599
 H1908 H 0.58689 0.69592 0.24040
 C1909 C 0.11499 0.69958 0.72272
 C1910 C 0.12963 0.71397 0.71343
 C1911 C 0.12366 0.73565 0.71159
 C1912 C 0.10337 0.74252 0.71814
 C1913 C 0.08883 0.72800 0.72723
 C1914 C 0.09500 0.70656 0.72977
 H1915 H 0.11859 0.68269 0.72395
 H1916 H 0.13459 0.74735 0.70496
 H1917 H 0.09905 0.75919 0.71613
 H1918 H 0.08402 0.69495 0.73647
 C1919 C 0.63441 0.19798 0.52387
 C1920 C 0.62052 0.21267 0.53385
 C1921 C 0.62730 0.23403 0.53615
 C1922 C 0.64764 0.24034 0.52927
 C1923 C 0.66154 0.22554 0.51958
 C1924 C 0.65457 0.20438 0.51665
 H1925 H 0.63006 0.18129 0.52224
 H1926 H 0.61694 0.24589 0.54338
 H1927 H 0.65256 0.25680 0.53164
 H1928 H 0.66504 0.19254 0.50952
 C1929 C 0.63760 0.69285 0.02626
 C1930 C 0.62284 0.70759 0.03482
 C1931 C 0.62829 0.72945 0.03486
 C1932 C 0.64821 0.73628 0.02731
 C1933 C 0.66298 0.72148 0.01908
 C1934 C 0.65735 0.69975 0.01830
 H1935 H 0.63425 0.67586 0.02632
 H1936 H 0.61721 0.74136 0.04081
 H1937 H 0.65210 0.75316 0.02795
 H1938 H 0.66856 0.68796 0.01230
 C1939 C 0.12128 0.01396 0.04217
 C1940 C 0.12904 0.03449 0.03645
 C1941 C 0.11555 0.04747 0.02365
 C1942 C 0.09528 0.04054 0.01742
 C1943 C 0.08749 0.02050 0.02385
 C1944 C 0.10078 0.00718 0.03612
 H1945 H 0.13099 0.00270 0.05101
 H1946 H 0.11979 0.06366 0.01933
 H1947 H 0.08534 0.05136 0.00817
 H1948 H 0.09535 -0.00853 0.04105
 C1949 C 0.11274 0.55255 0.52661
 C1950 C 0.12777 0.53829 0.53548
 C1951 C 0.12236 0.51646 0.53692
 C1952 C 0.10223 0.50924 0.53029
 C1953 C 0.08727 0.52361 0.52164
 C1954 C 0.09284 0.54526 0.51958
 H1955 H 0.11601 0.56954 0.52573
 H1956 H 0.13361 0.50494 0.54330
 H1957 H 0.09834 0.49243 0.53192
 H1958 H 0.08149 0.55674 0.51326
 C1959 C 0.62142 0.01749 0.53958
 C1960 C 0.62761 0.03906 0.53733
 C1961 C 0.61321 0.05338 0.52756
 C1962 C 0.59325 0.04640 0.52034
 C1963 C 0.58691 0.02503 0.52313
 C1964 C 0.60121 0.01061 0.53279
 H1965 H 0.63218 0.00587 0.54660
 H1966 H 0.61704 0.07020 0.52599
 H1967 H 0.58247 0.05794 0.51322
 H1968 H 0.59676 -0.00599 0.53506
 C1969 C 0.62013 0.51701 0.04081
 C1970 C 0.62580 0.53875 0.03900
 C1971 C 0.61095 0.55304 0.02989
 C1972 C 0.59101 0.54584 0.02286
 C1973 C 0.58522 0.52426 0.02517
 C1974 C 0.59996 0.50989 0.03417
 H1975 H 0.63126 0.50546 0.04734
 H1976 H 0.61446 0.56996 0.02870
 H1977 H 0.57981 0.55734 0.01631
 H1978 H 0.59591 0.49314 0.03605
 C1979 C 0.02254 0.04810 0.11870
 C1980 C 0.03559 0.03521 0.13205
 C1981 C 0.04084 0.01451 0.12441
 C1982 C 0.03406 0.00748 0.10413
 C1983 C 0.02156 0.02071 0.09095
 C1984 C 0.01560 0.04092 0.09865
 H1985 H 0.01856 0.06441 0.12281
 H1986 H 0.04988 0.00334 0.13405
 H1987 H 0.03868 -0.00835 0.09875
 H1988 H 0.00622 0.05168 0.08878
 C1989 C 0.02056 0.53931 0.62166
 C1990 C 0.04242 0.53845 0.62703
 C1991 C 0.05672 0.52921 0.61222
 C1992 C 0.04938 0.52117 0.59257
 C1993 C 0.02764 0.52252 0.58710
 C1994 C 0.01330 0.53164 0.60185
 H1995 H 0.00899 0.54586 0.63279
 H1996 H 0.07371 0.52863 0.61553
 H1997 H 0.06084 0.51451 0.58136
 H1998 H -0.00358 0.53279 0.59808
 C1999 C 0.51528 0.04010 0.62437
 C2000 C 0.53603 0.03532 0.63215
 C2001 C 0.54956 0.02317 0.61858
 C2002 C 0.54293 0.01672 0.59815
 C2003 C 0.52266 0.02231 0.59035
 C2004 C 0.50881 0.03385 0.60376
 H2005 H 0.50364 0.04837 0.63415
 H2006 H 0.56591 0.01956 0.62286
 H2007 H 0.55410 0.00803 0.58811
 H2008 H 0.49291 0.03808 0.59832
 C2009 C 0.53931 0.51468 0.12653
 C2010 C 0.53616 0.53611 0.13290
 C2011 C 0.52545 0.54997 0.11870
 C2012 C 0.51808 0.54270 0.09884
 C2013 C 0.52170 0.52152 0.09229
 C2014 C 0.53238 0.50754 0.10632
 H2015 H 0.54716 0.50340 0.13710
 H2016 H 0.52324 0.56671 0.12255
 H2017 H 0.51017 0.55395 0.08827
 H2018 H 0.53531 0.49109 0.10168
 C2019 C 0.23117 0.54086 0.62833
 C2020 C 0.20933 0.53934 0.62299
 C2021 C 0.19534 0.52962 0.63778
 C2022 C 0.20292 0.52178 0.65737
 C2023 C 0.22460 0.52384 0.66288
 C2024 C 0.23867 0.53339 0.64815
 H2025 H 0.24251 0.54784 0.61722
 H2026 H 0.17836 0.52858 0.63456
 H2027 H 0.19161 0.51485 0.66858
 H2028 H 0.25549 0.53515 0.65198
 C2029 C 0.23127 0.04436 0.12960
 C2030 C 0.21054 0.03889 0.12216
 C2031 C 0.19783 0.02593 0.13576
 C2032 C 0.20540 0.01890 0.15562
 C2033 C 0.22571 0.02491 0.16299
 C2034 C 0.23861 0.03766 0.14975
 H2035 H 0.24236 0.05333 0.11980
 H2036 H 0.18150 0.02182 0.13187
 H2037 H 0.19498 0.00918 0.16549
 H2038 H 0.25451 0.04231 0.15488
 C2039 C 0.69603 0.22102 0.61282
 C2040 C 0.71052 0.21205 0.62762
 C2041 C 0.73224 0.21065 0.62182
 C2042 C 0.73917 0.21757 0.60161
 C2043 C 0.72462 0.22649 0.58694
 C2044 C 0.70304 0.22836 0.59284
 H2045 H 0.67912 0.22191 0.61638
 H2046 H 0.74395 0.20423 0.63290
 H2047 H 0.75592 0.21602 0.59747
 H2048 H 0.69141 0.23483 0.58169
 C2049 C 0.73079 0.70793 0.11825
 C2050 C 0.70905 0.70929 0.12397
 C2051 C 0.69455 0.71796 0.10900
 C2052 C 0.70160 0.72514 0.08894
 C2053 C 0.72325 0.72343 0.08320
 C2054 C 0.73776 0.71471 0.09802
 H2055 H 0.74252 0.70177 0.12946
 H2056 H 0.67763 0.71885 0.11256
 H2057 H 0.69000 0.73150 0.07769
 H2058 H 0.75457 0.71332 0.09404
 C2059 C 0.55551 0.72290 0.13667
 C2060 C 0.54076 0.71444 0.12180
 C2061 C 0.51892 0.71417 0.12740
 C2062 C 0.51217 0.72131 0.14760
 C2063 C 0.52702 0.72944 0.16242
 C2064 C 0.54868 0.73052 0.15662
 H2065 H 0.57248 0.72297 0.13328
 H2066 H 0.50699 0.70827 0.11625
 H2067 H 0.49535 0.72047 0.15165
 H2068 H 0.56051 0.73645 0.16789
 C2069 C 0.05243 0.72450 0.63334
 C2070 C 0.03806 0.71431 0.61921
 C2071 C 0.01663 0.71184 0.62571
 C2072 C 0.00997 0.71874 0.64604
 C2073 C 0.02449 0.72866 0.66013
 C2074 C 0.04568 0.73177 0.65342
 H2075 H 0.06917 0.72621 0.62927
 H2076 H 0.00500 0.70442 0.61517
 H2077 H -0.00651 0.71627 0.65079
 H2078 H 0.05731 0.73908 0.66405
 C2079 C 0.53850 0.62845 0.23739
 C2080 C 0.53592 0.62146 0.21600
 C2081 C 0.52658 0.63558 0.20107
 C2082 C 0.52019 0.65607 0.20724
 C2083 C 0.52337 0.66322 0.22840
 C2084 C 0.53249 0.64918 0.24346
 H2085 H 0.54527 0.61798 0.24945
 H2086 H 0.52484 0.63115 0.18434
 H2087 H 0.51346 0.66663 0.19520
 H2088 H 0.53498 0.65424 0.25993
 C2089 C 0.01658 0.62896 0.70905
 C2090 C 0.03787 0.62248 0.71262
 C2091 C 0.05176 0.63660 0.72341
 C2092 C 0.04463 0.65652 0.73046
 C2093 C 0.02358 0.66317 0.72645
 C2094 C 0.00958 0.64920 0.71570
 H2095 H 0.00532 0.61844 0.70110
 H2096 H 0.06841 0.63262 0.72592
 H2097 H 0.05590 0.66703 0.73843
 H2098 H -0.00677 0.65391 0.71245
 C2099 C 0.04012 0.11895 0.01768
 C2100 C 0.03597 0.12660 0.03871
 C2101 C 0.02385 0.11324 0.05247
 C2102 C 0.01661 0.09322 0.04567
 C2103 C 0.02139 0.08562 0.02501
 C2104 C 0.03311 0.09874 0.01105
 H2105 H 0.04833 0.12861 0.00588
 H2106 H 0.02075 0.11744 0.06902
 H2107 H 0.00792 0.08331 0.05697
 H2108 H 0.03683 0.09340 -0.00509
 C2109 C 0.03183 0.60963 0.55488
 C2110 C 0.04098 0.62428 0.54036
 C2111 C 0.04212 0.61860 0.51847
 C2112 C 0.03457 0.59874 0.51138
 C2113 C 0.02532 0.58427 0.52593
 C2114 C 0.02392 0.58997 0.54772
 H2115 H 0.03113 0.61312 0.57190
 H2116 H 0.04868 0.62958 0.50674
 H2117 H 0.03581 0.59475 0.49448
 H2118 H 0.01724 0.57896 0.55937
 C2119 C 0.51279 0.12478 0.53788
 C2120 C 0.53417 0.13130 0.53482
 C2121 C 0.54858 0.11670 0.52552
 C2122 C 0.54191 0.09630 0.51950
 C2123 C 0.52078 0.08963 0.52308
 C2124 C 0.50623 0.10405 0.53231
 H2125 H 0.50112 0.13562 0.54469
 H2126 H 0.56530 0.12068 0.52349
 H2127 H 0.55356 0.08545 0.51266
 H2128 H 0.48979 0.09933 0.53511
 C2129 C 0.53510 0.62107 0.01856
 C2130 C 0.53446 0.62714 0.04036
 C2131 C 0.52518 0.61295 0.05527
 C2132 C 0.51710 0.59319 0.04865
 C2133 C 0.51857 0.58685 0.02707
 C2134 C 0.52747 0.60104 0.01204
 H2135 H 0.54166 0.63170 0.00651
 H2136 H 0.52479 0.61671 0.07225
 H2137 H 0.51056 0.58247 0.06063
 H2138 H 0.52869 0.59658 -0.00475
 C2139 C 0.72826 0.13199 0.54859
 C2140 C 0.71563 0.11872 0.53518
 C2141 C 0.71067 0.12655 0.51440
 C2142 C 0.71720 0.14695 0.50782
 C2143 C 0.72918 0.16010 0.52159
 C2144 C 0.73497 0.15219 0.54185
 H2145 H 0.73205 0.12768 0.56497
 H2146 H 0.70202 0.11697 0.50283
 H2147 H 0.71276 0.15246 0.49192
 H2148 H 0.74399 0.16201 0.55300
 C2149 C 0.72261 0.63419 0.04985
 C2150 C 0.71352 0.61940 0.03542
 C2151 C 0.71151 0.62525 0.01365
 C2152 C 0.71798 0.64553 0.00665
 C2153 C 0.72698 0.66019 0.02119
 C2154 C 0.72944 0.65422 0.04279
 H2155 H 0.72388 0.63061 0.06683
 H2156 H 0.70487 0.61420 0.00201
 H2157 H 0.71602 0.64971 -0.01013
 H2158 H 0.73602 0.66532 0.05443
 C2159 C 0.21457 0.62525 0.73337
 C2160 C 0.21508 0.63059 0.71138
 C2161 C 0.22325 0.61546 0.69675
 C2162 C 0.23060 0.59562 0.70384
 C2163 C 0.22954 0.59013 0.72569
 C2164 C 0.22149 0.60513 0.74041
 H2165 H 0.20876 0.63656 0.74518
 H2166 H 0.22339 0.61861 0.67964
 H2167 H 0.23637 0.58421 0.69207
 H2168 H 0.22057 0.60130 0.75737
 C2169 C 0.19949 0.11534 0.22533
 C2170 C 0.21259 0.12880 0.21261
 C2171 C 0.23335 0.12128 0.20756
 C2172 C 0.24031 0.10107 0.21426
 C2173 C 0.22696 0.08782 0.22653
 C2174 C 0.20661 0.09532 0.23222
 H2175 H 0.18314 0.11941 0.22914
 H2176 H 0.24467 0.13100 0.19881
 H2177 H 0.25625 0.09586 0.20989
 H2178 H 0.19577 0.08537 0.24142
 C2179 C 0.73367 1.12193 0.70835
 C2180 C 0.71328 1.12996 0.71410
 C2181 C 0.70048 1.11704 0.72765
 C2182 C 0.70749 1.09705 0.73469
 C2183 C 0.72744 1.08902 0.72833
 C2184 C 0.74053 1.10175 0.71525
 H2185 H 0.74477 1.13124 0.69888
 H2186 H 0.68437 1.12149 0.73202
 H2187 H 0.69682 1.08752 0.74451
 H2188 H 0.75614 1.09610 0.71026
 C2189 C 0.70106 0.61657 0.22569
 C2190 C 0.71469 0.63013 0.21391
 C2191 C 0.73586 0.62339 0.21012
 C2192 C 0.74291 0.60335 0.21729
 C2193 C 0.72911 0.58983 0.22882
 C2194 C 0.70826 0.59684 0.23325
 H2195 H 0.68451 0.62077 0.22850
 H2196 H 0.74697 0.63350 0.20148
 H2197 H 0.75912 0.59839 0.21371
 H2198 H 0.69714 0.58670 0.24187
 C2199 C 0.52732 0.13646 0.69908
 C2200 C 0.53726 0.12218 0.71342
 C2201 C 0.53977 0.12849 0.73504
 C2202 C 0.53304 0.14873 0.74192
 C2203 C 0.52316 0.16287 0.72748
 C2204 C 0.52012 0.15638 0.70609
 H2205 H 0.52558 0.13259 0.68221
 H2206 H 0.54694 0.11783 0.74669
 H2207 H 0.53549 0.15331 0.75854
 H2208 H 0.51278 0.16703 0.69452
 C2209 C 1.03932 0.12883 0.23386
 C2210 C 1.03676 0.12208 0.21242
 C2211 C 1.02638 0.13586 0.19787
 C2212 C 1.01889 0.15582 0.20450
 C2213 C 1.02193 0.16274 0.22575
 C2214 C 1.03215 0.14902 0.24040
 H2215 H 1.04692 0.11855 0.24560
 H2216 H 1.02458 0.13155 0.18111
 H2217 H 1.01140 0.16617 0.19273
 H2218 H 1.03466 0.15393 0.25692
 C2219 C 0.19574 0.63873 0.52822
 C2220 C 0.20989 0.62427 0.53817
 C2221 C 0.23152 0.63016 0.54035
 C2222 C 0.23870 0.65009 0.53306
 C2223 C 0.22451 0.66438 0.52306
 C2224 C 0.20301 0.65843 0.52057
 H2225 H 0.17888 0.63510 0.52674
 H2226 H 0.24295 0.61935 0.54760
 H2227 H 0.25539 0.65427 0.53511
 H2228 H 0.19163 0.66928 0.51325
 C2229 C 0.23257 0.12610 1.03690
 C2230 C 0.21108 0.11970 1.03457
 C2231 C 0.19672 0.13375 1.02436
 C2232 C 0.20357 0.15363 1.01685
 C2233 C 0.22486 0.16021 1.01973
 C2234 C 0.23933 0.14624 1.02976
 H2235 H 0.24418 0.11560 1.04433
 H2236 H 0.17996 0.12975 1.02274
 H2237 H 0.19196 0.16420 1.00949
 H2238 H 0.25585 0.15090 1.03211
 C2239 C 0.19708 0.72313 0.61153
 C2240 C 0.21171 0.71449 0.62640
 C2241 C 0.23339 0.71297 0.62039
 C2242 C 0.24007 0.71928 0.59988
 C2243 C 0.22536 0.72779 0.58516
 C2244 C 0.20389 0.72996 0.59131
 H2245 H 0.18020 0.72410 0.61519
 H2246 H 0.24525 0.70689 0.63148
 H2247 H 0.25678 0.71764 0.59559
 H2248 H 0.19220 0.73633 0.58022
 C2249 C 0.20810 0.23138 1.11959
 C2250 C 0.20995 0.20966 1.12537
 C2251 C 0.21919 0.19538 1.11054
 C2252 C 0.22646 0.20259 1.09063
 C2253 C 0.22427 0.22417 1.08477
 C2254 C 0.21496 0.23851 1.09939
 H2255 H 0.20142 0.24294 1.13066
 H2256 H 0.22037 0.17846 1.11404
 H2257 H 0.23320 0.19108 1.07950
 H2258 H 0.21312 0.25524 1.09525
 C2259 C 0.70983 0.51640 0.12853
 C2260 C 0.71240 0.53777 0.12183
 C2261 C 0.72251 0.55228 0.13587
 C2262 C 0.72983 0.54566 0.15597
 C2263 C 0.72686 0.52447 0.16279
 C2264 C 0.71680 0.50987 0.14889
 H2265 H 0.70242 0.50469 0.11807
 H2266 H 0.72427 0.56898 0.13163
 H2267 H 0.73721 0.55737 0.16648
 H2268 H 0.71438 0.49341 0.15375
 C2269 C 0.71059 1.01603 0.62779
 C2270 C 0.71335 1.03742 0.62124
 C2271 C 0.72353 1.05174 0.63541
 C2272 C 0.73074 1.04492 0.65549
 C2273 C 0.72758 1.02371 0.66218
 C2274 C 0.71745 1.00930 0.64813
 H2275 H 0.70311 1.00445 0.61723
 H2276 H 0.72543 1.06846 0.63131
 H2277 H 0.73815 1.05652 0.66611
 H2278 H 0.71485 0.99282 0.65287
 C2279 C 0.52905 0.19894 0.63623
 C2280 C 0.53869 0.21317 0.62162
 C2281 C 0.54111 0.23476 0.62775
 C2282 C 0.53433 0.24177 0.64803
 C2283 C 0.52453 0.22748 0.66238
 C2284 C 0.52181 0.20606 0.65616
 H2285 H 0.52745 0.18209 0.63253
 H2286 H 0.54815 0.24629 0.61687
 H2287 H 0.53660 0.25839 0.65242
 H2288 H 0.51462 0.19460 0.66701
 C2289 C 1.05033 0.22479 0.13256
 C2290 C 1.03557 0.21507 0.11849
 C2291 C 1.01418 0.21294 0.12525
 C2292 C 1.00794 0.21969 0.14576
 C2293 C 1.02282 0.22912 0.15980
 C2294 C 1.04398 0.23191 0.15285
 H2295 H 1.06704 0.22624 0.12828
 H2296 H 1.00227 0.20591 0.11477
 H2297 H 0.99147 0.21747 0.15068
 H2298 H 1.05588 0.23885 0.16343
 C2299 C 0.61578 0.19950 0.72558
 C2300 C 0.63022 0.21397 0.71609
 C2301 C 0.62393 0.23550 0.71378
 C2302 C 0.60350 0.24215 0.72014
 C2303 C 0.58914 0.22753 0.72937
 C2304 C 0.59562 0.20624 0.73234
 H2305 H 0.61967 0.18270 0.72713
 H2306 H 0.63469 0.24721 0.70692
 H2307 H 0.59893 0.25870 0.71781
 H2308 H 0.58476 0.19455 0.73913
 C2309 C 1.11344 0.19737 0.22281
 C2310 C 1.12784 0.21140 0.21262
 C2311 C 1.12193 0.23301 0.21021
 C2312 C 1.10192 0.24020 0.21721
 C2313 C 1.08757 0.22606 0.22718
 C2314 C 1.09367 0.20465 0.23019
 H2315 H 1.11708 0.18052 0.22451
 H2316 H 1.13271 0.24439 0.20282
 H2317 H 1.09763 0.25682 0.21476
 H2318 H 1.08280 0.19329 0.23750
 C2319 C 0.12953 0.70792 0.51456
 C2320 C 0.12268 0.71185 0.53577
 C2321 C 0.13619 0.72367 0.54947
 C2322 C 0.15584 0.73135 0.54223
 C2323 C 0.16294 0.72687 0.52132
 C2324 C 0.14954 0.71514 0.50750
 H2325 H 0.11948 0.69926 0.50337
 H2326 H 0.13194 0.72659 0.56607
 H2327 H 0.16579 0.74027 0.55329
 H2328 H 0.15452 0.71155 0.49122
 C2329 C 0.12504 0.20879 1.01218
 C2330 C 0.11871 0.21182 1.03371
 C2331 C 0.13307 0.22183 1.04794
 C2332 C 0.15307 0.22869 1.04092
 C2333 C 0.15953 0.22535 1.01957
 C2334 C 0.14535 0.21531 1.00524
 H2335 H 0.11435 0.20138 1.00069
 H2336 H 0.12917 0.22386 1.06477
 H2337 H 0.16380 0.23601 1.05248
 H2338 H 0.14993 0.21257 0.98868
 C2339 C 0.63776 0.55433 0.22468
 C2340 C 0.62299 0.53990 0.21561
 C2341 C 0.62873 0.51815 0.21412
 C2342 C 0.64890 0.51118 0.22092
 C2343 C 0.66355 0.52570 0.22986
 C2344 C 0.65766 0.54726 0.23196
 H2345 H 0.63428 0.57126 0.22566
 H2346 H 0.61768 0.50645 0.20768
 H2347 H 0.65304 0.49444 0.21921
 H2348 H 0.66877 0.55886 0.23849
 C2349 C 0.63571 1.02771 0.69956
 C2350 C 0.62144 1.03737 0.71411
 C2351 C 0.62790 1.03986 0.73567
 C2352 C 0.64823 1.03324 0.74235
 C2353 C 0.66235 1.02360 0.72771
 C2354 C 0.65578 1.02072 0.70632
 H2355 H 0.63166 1.02604 0.68272
 H2356 H 0.61726 1.04693 0.74741
 H2357 H 0.65290 1.03559 0.75895
 H2358 H 0.66646 1.01369 0.69458
 C2359 C 0.86562 0.44959 0.27450
 C2360 C 0.87985 0.46367 0.28490
 C2361 C 0.87350 0.48509 0.28792
 C2362 C 0.85318 0.49196 0.28149
 C2363 C 0.83897 0.47772 0.27141
 C2364 C 0.84559 0.45661 0.26760
 H2365 H 0.86955 0.43288 0.27230
 H2366 H 0.88412 0.49656 0.29541
 H2367 H 0.84858 0.50841 0.28443
 H2368 H 0.83497 0.44525 0.25994
 C2369 C 0.87025 0.98177 0.79298
 C2370 C 0.87582 0.96008 0.79049
 C2371 C 0.86126 0.94630 0.78017
 C2372 C 0.84178 0.95398 0.77244
 C2373 C 0.83612 0.97554 0.77519
 C2374 C 0.85051 0.98938 0.78558
 H2375 H 0.88115 0.99292 0.80056
 H2376 H 0.86463 0.92940 0.77847
 H2377 H 0.83084 0.94283 0.76486
 H2378 H 0.84654 1.00609 0.78789
 C2379 C 0.38891 0.28063 0.80324
 C2380 C 0.37478 0.29119 0.78918
 C2381 C 0.38093 0.29388 0.76758
 C2382 C 0.40080 0.28646 0.76035
 C2383 C 0.41476 0.27585 0.77446
 C2384 C 0.40853 0.27290 0.79594
 H2385 H 0.38508 0.27875 0.82010
 H2386 H 0.37038 0.30165 0.75620
 H2387 H 0.40519 0.28893 0.74369
 H2388 H 0.41912 0.26513 0.80731
 C2389 C 0.87855 0.26755 0.28734
 C2390 C 0.87230 0.28908 0.28500
 C2391 C 0.88650 0.30334 0.27481
 C2392 C 0.90637 0.29638 0.26742
 C2393 C 0.91287 0.27513 0.27052
 C2394 C 0.89871 0.26072 0.28041
 H2395 H 0.86796 0.25597 0.29467
 H2396 H 0.88265 0.32013 0.27314
 H2397 H 0.91697 0.30786 0.25996
 H2398 H 0.90324 0.24417 0.28282
 C2399 C 0.37171 0.79023 0.48199
 C2400 C 0.37772 0.78837 0.46023
 C2401 C 0.36359 0.77806 0.44595
 C2402 C 0.34408 0.76994 0.45313
 C2403 C 0.33784 0.77244 0.47464
 C2404 C 0.35186 0.78260 0.48904
 H2405 H 0.38227 0.79763 0.49360
 H2406 H 0.36721 0.77676 0.42899
 H2407 H 0.33349 0.76244 0.44161
 H2408 H 0.34746 0.78467 0.50575
 C2409 C 0.36762 0.26892 0.95609
 C2410 C 0.37272 0.29080 0.95815
 C2411 C 0.35761 0.30452 0.96766
 C2412 C 0.33807 0.29660 0.97503
 C2413 C 0.33293 0.27484 0.97272
 C2414 C 0.34784 0.26107 0.96308
 H2415 H 0.37895 0.25778 0.94920
 H2416 H 0.36063 0.32152 0.96905
 H2417 H 0.32671 0.30767 0.98205
 H2418 H 0.34428 0.24422 0.96116
 C2419 C 0.77133 0.45873 0.37056
 C2420 C 0.79310 0.46019 0.37621
 C2421 C 0.80730 0.46996 0.36165
 C2422 C 0.79996 0.47795 0.34200
 C2423 C 0.77831 0.47604 0.33626
 C2424 C 0.76407 0.46637 0.35074
 H2425 H 0.75982 0.45175 0.38150
 H2426 H 0.82422 0.47100 0.36517
 H2427 H 0.81136 0.48507 0.33102
 H2428 H 0.74727 0.46480 0.34678
 C2429 C 0.76794 0.95909 0.87131
 C2430 C 0.78969 0.96075 0.87701
 C2431 C 0.80389 0.97046 0.86243
 C2432 C 0.79659 0.97827 0.84274
 C2433 C 0.77499 0.97619 0.83692
 C2434 C 0.76072 0.96653 0.85137
 H2435 H 0.75646 0.95205 0.88224
 H2436 H 0.82081 0.97155 0.86591
 H2437 H 0.80802 0.98533 0.83174
 H2438 H 0.74396 0.96480 0.84730
 C2439 C 0.26630 0.78816 0.37481
 C2440 C 0.28788 0.78571 0.36870
 C2441 C 0.30198 0.77574 0.38324
 C2442 C 0.29483 0.76864 0.40323
 C2443 C 0.27355 0.77185 0.40959
 C2444 C 0.25929 0.78157 0.39515
 H2445 H 0.25479 0.79530 0.36398
 H2446 H 0.31881 0.77404 0.37962
 H2447 H 0.30623 0.76136 0.41408
 H2448 H 0.24274 0.78409 0.39961
 C2449 C 0.26608 0.28955 0.87595
 C2450 C 0.28791 0.28776 0.87067
 C2451 C 0.30178 0.27801 0.88555
 C2452 C 0.29411 0.27035 0.90512
 C2453 C 0.27245 0.27262 0.91057
 C2454 C 0.25847 0.28226 0.89580
 H2455 H 0.25484 0.29665 0.86480
 H2456 H 0.31877 0.27686 0.88243
 H2457 H 0.30534 0.26331 0.91634
 H2458 H 0.24167 0.28411 0.89959
 C2459 C 0.47048 0.30495 0.86208
 C2460 C 0.46012 0.29087 0.87634
 C2461 C 0.45810 0.26920 0.87046
 C2462 C 0.46581 0.26194 0.85066
 C2463 C 0.47608 0.27609 0.83649
 C2464 C 0.47853 0.29761 0.84250
 H2465 H 0.47189 0.32183 0.86574
 H2466 H 0.45057 0.25781 0.88116
 H2467 H 0.46378 0.24525 0.84644
 H2468 H 0.48606 0.30896 0.83173
 C2469 C 0.96860 0.30551 0.35977
 C2470 C 0.95893 0.29131 0.37440
 C2471 C 0.95704 0.26960 0.36860
 C2472 C 0.96431 0.26238 0.34860
 C2473 C 0.97407 0.27660 0.33417
 C2474 C 0.97627 0.29820 0.34001
 H2475 H 0.96990 0.32241 0.36336
 H2476 H 0.95008 0.25809 0.37955
 H2477 H 0.96251 0.24562 0.34452
 H2478 H 0.98341 0.30959 0.32902
 C2479 C 0.44642 0.36208 0.77974
 C2480 C 0.46014 0.37639 0.79049
 C2481 C 0.48178 0.37071 0.79305
 C2482 C 0.48937 0.35108 0.78537
 C2483 C 0.47558 0.33690 0.77463
 C2484 C 0.45408 0.34269 0.77174
 H2485 H 0.42955 0.36555 0.77796
 H2486 H 0.49289 0.38144 0.80094
 H2487 H 0.50604 0.34701 0.78779
 H2488 H 0.44297 0.33191 0.76389
 C2489 C 0.94859 0.36473 0.27513
 C2490 C 0.96258 0.37850 0.28627
 C2491 C 0.98381 0.37176 0.28966
 C2492 C 0.99064 0.35161 0.28261
 C2493 C 0.97654 0.33795 0.27157
 C2494 C 0.95557 0.34489 0.26763
 H2495 H 0.93199 0.36893 0.27265
 H2496 H 0.99520 0.38200 0.29779
 H2497 H 1.00696 0.34673 0.28575
 H2498 H 0.94429 0.33469 0.25931
 C2499 C 0.30176 0.86467 0.47303
 C2500 C 0.28727 0.87940 0.46407
 C2501 C 0.26569 0.87324 0.46179
 C2502 C 0.25899 0.85271 0.46778
 C2503 C 0.27361 0.83811 0.47662
 C2504 C 0.29497 0.84441 0.47944
 H2505 H 0.31859 0.86844 0.47449
 H2506 H 0.25398 0.88422 0.45530
 H2507 H 0.24239 0.84825 0.46556
 H2508 H 0.30666 0.83336 0.48591
 C2509 C 0.27864 0.35937 0.94291
 C2510 C 0.28730 0.37426 0.95751
 C2511 C 0.28744 0.36907 0.97955
 C2512 C 0.27978 0.34929 0.98669
 C2513 C 0.27131 0.33447 0.97202
 C2514 C 0.27055 0.33981 0.95011
 H2515 H 0.27865 0.36249 0.92580
 H2516 H 0.29351 0.38027 0.99135
 H2517 H 0.28042 0.34559 1.00369
 H2518 H 0.26439 0.32852 0.93842
 C2519 C 0.80363 0.38828 0.27734
 C2520 C 0.78975 0.37434 0.28837
 C2521 C 0.76847 0.38088 0.29180
 C2522 C 0.76146 0.40099 0.28482
 C2523 C 0.77542 0.41479 0.27383
 C2524 C 0.79646 0.40807 0.26992
 H2525 H 0.82026 0.38423 0.27486
 H2526 H 0.75718 0.37050 0.29986
 H2527 H 0.74509 0.40571 0.28795
 H2528 H 0.80764 0.41842 0.26167
   
