data_POSCAR
  _audit_creation_date              2014-09-24
  _audit_creation_method            'ToBaCCo'
  _symmetry_space_group_name_H-M    'P1'
  _symmetry_Int_Tables_number       1
  _symmetry_cell_setting            triclinic
  loop_
  _symmetry_equiv_pos_as_xyz
 x,y,z
_cell_length_a 62.4405
_cell_length_b 62.4910
_cell_length_c 62.9284
_cell_angle_alpha 89.921700
_cell_angle_beta 89.911100
_cell_angle_gamma 89.916500
loop_
  _atom_site_label
  _atom_site_type_symbol
  _atom_site_fract_x
  _atom_site_fract_y
  _atom_site_fract_z
N1 N 0.37371 0.31463 0.33022
 N2 N 0.37317 0.32905 0.31499
 C3 C 0.38979 0.32568 0.30171
 C4 C 0.40117 0.30823 0.30902
 C5 C 0.39058 0.30157 0.32710
 H6 H 0.39329 0.33502 0.28765
 H7 H 0.39475 0.28812 0.33710
 Cu8 Cu 0.35071 0.35064 0.31357
 Cu9 Cu 0.35220 0.31344 0.35257
 Cu10 Cu 0.31317 0.35273 0.35220
 N11 N 0.32940 0.37339 0.31475
 N12 N 0.31481 0.37413 0.32983
 C13 C 0.30201 0.39116 0.32656
 C14 C 0.30899 0.40161 0.30853
 C15 C 0.32639 0.39000 0.30141
 H16 H 0.28846 0.39554 0.33637
 H17 H 0.33592 0.39329 0.28743
 N18 N 0.31410 0.32978 0.37360
 N19 N 0.32907 0.31485 0.37383
 C20 C 0.32541 0.30155 0.39031
 C21 C 0.30731 0.30849 0.40085
 C22 C 0.30051 0.32636 0.38990
 H23 H 0.33504 0.28775 0.39434
 H24 H 0.28663 0.33605 0.39352
 H25 H 0.32786 0.32800 0.33578
 H26 H 0.34571 0.34590 0.35166
 N27 N 0.37442 0.81532 -0.17064
 N28 N 0.37363 0.82980 -0.18581
 C29 C 0.39015 0.82662 -0.19927
 C30 C 0.40171 0.80920 -0.19211
 C31 C 0.39134 0.80239 -0.17396
 H32 H 0.39347 0.83607 -0.21330
 H33 H 0.39567 0.78895 -0.16401
 Cu34 Cu 0.35096 0.85123 -0.18685
 Cu35 Cu 0.35319 0.81378 -0.14807
 Cu36 Cu 0.31382 0.85268 -0.14789
 N37 N 0.32936 0.87372 -0.18540
 N38 N 0.31490 0.87415 -0.17019
 C39 C 0.30176 0.89096 -0.17323
 C40 C 0.30843 0.90164 -0.19125
 C41 C 0.32597 0.89038 -0.19861
 H42 H 0.28830 0.89501 -0.16319
 H43 H 0.33537 0.89398 -0.21261
 N44 N 0.31521 0.82974 -0.12656
 N45 N 0.33027 0.81490 -0.12658
 C46 C 0.32688 0.80148 -0.11014
 C47 C 0.30887 0.80826 -0.09935
 C48 C 0.30185 0.82615 -0.11011
 H49 H 0.33665 0.78771 -0.10636
 H50 H 0.28792 0.83570 -0.10625
 H51 H 0.32874 0.82806 -0.16463
 H52 H 0.34659 0.84605 -0.14880
 N53 N 0.87415 0.31590 -0.16993
 N54 N 0.87338 0.33031 -0.18516
 C55 C 0.88979 0.32700 -0.19868
 C56 C 0.90129 0.30955 -0.19156
 C57 C 0.89101 0.30287 -0.17332
 H58 H 0.89307 0.33642 -0.21272
 H59 H 0.89539 0.28940 -0.16342
 Cu60 Cu 0.85074 0.35167 -0.18645
 Cu61 Cu 0.85274 0.31451 -0.14751
 Cu62 Cu 0.81319 0.35337 -0.14784
 N63 N 0.82914 0.37408 -0.18537
 N64 N 0.81453 0.37469 -0.17031
 C65 C 0.80152 0.39156 -0.17365
 C66 C 0.80843 0.40203 -0.19170
 C67 C 0.82598 0.39061 -0.19877
 H68 H 0.78799 0.39587 -0.16377
 H69 H 0.83566 0.39406 -0.21260
 N70 N 0.81450 0.33047 -0.12634
 N71 N 0.82965 0.31570 -0.12616
 C72 C 0.82619 0.30235 -0.10968
 C73 C 0.80808 0.30909 -0.09905
 C74 C 0.80104 0.32690 -0.10994
 H75 H 0.83597 0.28861 -0.10578
 H76 H 0.78702 0.33637 -0.10625
 H77 H 0.82822 0.32890 -0.16430
 H78 H 0.84588 0.34705 -0.14838
 N79 N 0.87345 0.81492 0.33007
 N80 N 0.87331 0.82968 0.31516
 C81 C 0.88987 0.82623 0.30185
 C82 C 0.90081 0.80839 0.30884
 C83 C 0.89003 0.80155 0.32674
 H84 H 0.89364 0.83578 0.28801
 H85 H 0.89386 0.78780 0.33646
 Cu86 Cu 0.85129 0.85169 0.31436
 Cu87 Cu 0.85206 0.81390 0.35252
 Cu88 Cu 0.81322 0.85352 0.35229
 N89 N 0.82973 0.87415 0.31486
 N90 N 0.81488 0.87475 0.32970
 C91 C 0.80180 0.89149 0.32605
 C92 C 0.80890 0.90187 0.30802
 C93 C 0.82663 0.89054 0.30128
 H94 H 0.78798 0.89566 0.33557
 H95 H 0.83632 0.89384 0.28741
 N96 N 0.81427 0.83063 0.37383
 N97 N 0.82910 0.81556 0.37393
 C98 C 0.82548 0.80228 0.39043
 C99 C 0.80757 0.80937 0.40112
 C100 C 0.80081 0.82732 0.39027
 H101 H 0.83502 0.78838 0.39437
 H102 H 0.78704 0.83712 0.39403
 H103 H 0.82789 0.82904 0.33578
 H104 H 0.84558 0.84644 0.35232
 N105 N 0.62652 0.68567 0.33017
 N106 N 0.62665 0.67056 0.31564
 C107 C 0.61010 0.67375 0.30227
 C108 C 0.59915 0.69176 0.30886
 C109 C 0.60996 0.69896 0.32654
 H110 H 0.60631 0.66391 0.28866
 H111 H 0.60615 0.71292 0.33596
 Cu112 Cu 0.64863 0.64847 0.31594
 Cu113 Cu 0.64776 0.68706 0.35281
 Cu114 Cu 0.68653 0.64716 0.35362
 N115 N 0.67027 0.62604 0.31629
 N116 N 0.68504 0.62563 0.33117
 C117 C 0.69823 0.60893 0.32769
 C118 C 0.69132 0.59838 0.30972
 C119 C 0.67358 0.60959 0.30284
 H120 H 0.71203 0.60497 0.33729
 H121 H 0.66413 0.60614 0.28888
 N122 N 0.68523 0.67041 0.37484
 N123 N 0.67053 0.68564 0.37444
 C124 C 0.67401 0.69919 0.39070
 C125 C 0.69167 0.69214 0.40181
 C126 C 0.69845 0.67394 0.39139
 H127 H 0.66454 0.71325 0.39416
 H128 H 0.71212 0.66415 0.39554
 H129 H 0.67206 0.67143 0.33675
 H130 H 0.65428 0.65460 0.35374
 N131 N 0.62653 0.18465 -0.17000
 N132 N 0.62680 0.16959 -0.18458
 C133 C 0.61036 0.17277 -0.19807
 C134 C 0.59929 0.19071 -0.19151
 C135 C 0.60991 0.19787 -0.17369
 H136 H 0.60680 0.16297 -0.21175
 H137 H 0.60594 0.21181 -0.16429
 Cu138 Cu 0.64879 0.14754 -0.18465
 Cu139 Cu 0.64794 0.18621 -0.14754
 Cu140 Cu 0.68791 0.14758 -0.14814
 N141 N 0.67121 0.12591 -0.18480
 N142 N 0.68677 0.12635 -0.17074
 C143 C 0.70042 0.11013 -0.17462
 C144 C 0.69291 0.09891 -0.19194
 C145 C 0.67434 0.10924 -0.19802
 H146 H 0.71464 0.10667 -0.16544
 H147 H 0.66411 0.10501 -0.21121
 N148 N 0.68631 0.17030 -0.12651
 N149 N 0.67107 0.18498 -0.12624
 C150 C 0.67436 0.19814 -0.10962
 C151 C 0.69244 0.19138 -0.09901
 C152 C 0.69967 0.17376 -0.11007
 H153 H 0.66447 0.21175 -0.10554
 H154 H 0.71368 0.16426 -0.10644
 H155 H 0.67191 0.17152 -0.16458
 H156 H 0.65527 0.15406 -0.14704
 N157 N 0.12592 0.68518 -0.16970
 N158 N 0.12634 0.67039 -0.18453
 C159 C 0.11001 0.67374 -0.19809
 C160 C 0.09878 0.69148 -0.19129
 C161 C 0.10924 0.69841 -0.17328
 H162 H 0.10656 0.66411 -0.21191
 H163 H 0.10520 0.71222 -0.16374
 Cu164 Cu 0.14837 0.64837 -0.18462
 Cu165 Cu 0.14723 0.68646 -0.14708
 Cu166 Cu 0.18677 0.64731 -0.14740
 N167 N 0.17043 0.62639 -0.18470
 N168 N 0.18539 0.62607 -0.17003
 C169 C 0.19856 0.60936 -0.17358
 C170 C 0.19142 0.59874 -0.19141
 C171 C 0.17361 0.60993 -0.19815
 H172 H 0.21243 0.60534 -0.16411
 H173 H 0.16380 0.60633 -0.21180
 N174 N 0.18534 0.67015 -0.12586
 N175 N 0.17025 0.68499 -0.12566
 C176 C 0.17378 0.69830 -0.10920
 C177 C 0.19188 0.69148 -0.09864
 C178 C 0.19884 0.67366 -0.10955
 H179 H 0.16410 0.71209 -0.10524
 H180 H 0.21283 0.66411 -0.10595
 H181 H 0.17152 0.67159 -0.16372
 H182 H 0.15437 0.65410 -0.14676
 N183 N 0.12634 0.18544 0.33025
 N184 N 0.12651 0.17047 0.31557
 C185 C 0.11006 0.17382 0.30213
 C186 C 0.09910 0.19179 0.30882
 C187 C 0.10979 0.19879 0.32665
 H188 H 0.10639 0.16410 0.28842
 H189 H 0.10590 0.21269 0.33613
 Cu190 Cu 0.14833 0.14822 0.31544
 Cu191 Cu 0.14777 0.18677 0.35267
 Cu192 Cu 0.18700 0.14744 0.35252
 N193 N 0.17033 0.12613 0.31563
 N194 N 0.18544 0.12598 0.33017
 C195 C 0.19865 0.10932 0.32661
 C196 C 0.19142 0.09852 0.30895
 C197 C 0.17345 0.10953 0.30232
 H198 H 0.21262 0.10544 0.33601
 H199 H 0.16359 0.10583 0.28870
 N200 N 0.18584 0.17045 0.37385
 N201 N 0.17084 0.18537 0.37400
 C202 C 0.17431 0.19859 0.39053
 C203 C 0.19227 0.19161 0.40120
 C204 C 0.19924 0.17381 0.39027
 H205 H 0.16461 0.21235 0.39456
 H206 H 0.21306 0.16409 0.39403
 H207 H 0.17172 0.17156 0.33590
 H208 H 0.15455 0.15436 0.35320
 N209 N 0.62673 0.31462 0.67031
 N210 N 0.62709 0.32931 0.68525
 C211 C 0.61071 0.32585 0.69878
 C212 C 0.59962 0.30809 0.69190
 C213 C 0.61015 0.30133 0.67383
 H214 H 0.60714 0.33542 0.71264
 H215 H 0.60609 0.28769 0.66408
 Cu216 Cu 0.64898 0.35143 0.68542
 Cu217 Cu 0.64796 0.31362 0.64761
 Cu218 Cu 0.68728 0.35283 0.64796
 N219 N 0.67112 0.37329 0.68562
 N220 N 0.68599 0.37381 0.67081
 C221 C 0.69919 0.39040 0.67452
 C222 C 0.69218 0.40075 0.69258
 C223 C 0.67437 0.38956 0.69927
 H224 H 0.71292 0.39461 0.66490
 H225 H 0.66460 0.39302 0.71304
 N226 N 0.68581 0.33020 0.62620
 N227 N 0.67082 0.31530 0.62605
 C228 C 0.67430 0.30212 0.60947
 C229 C 0.69227 0.30908 0.59879
 C230 C 0.69921 0.32685 0.60973
 H231 H 0.66470 0.28831 0.60553
 H232 H 0.71312 0.33645 0.60605
 H233 H 0.67221 0.32846 0.66427
 H234 H 0.65492 0.34600 0.64749
 N235 N 0.62573 0.81508 1.16987
 N236 N 0.62597 0.82988 1.18470
 C237 C 0.60949 0.82653 1.19814
 C238 C 0.59847 0.80873 1.19128
 C239 C 0.60912 0.80182 1.17336
 H240 H 0.60589 0.83611 1.21199
 H241 H 0.60523 0.78801 1.16379
 Cu242 Cu 0.64804 0.85177 1.18498
 Cu243 Cu 0.64720 0.81375 1.14745
 Cu244 Cu 0.68679 0.85268 1.14794
 N245 N 0.67023 0.87355 1.18527
 N246 N 0.68529 0.87383 1.17063
 C247 C 0.69855 0.89035 1.17437
 C248 C 0.69140 0.90092 1.19224
 C249 C 0.67343 0.88990 1.19882
 H250 H 0.71249 0.89430 1.16493
 H251 H 0.66357 0.89350 1.21249
 N252 N 0.68539 0.82988 1.12637
 N253 N 0.67030 0.81509 1.12616
 C254 C 0.67385 0.80178 1.10970
 C255 C 0.69195 0.80857 1.09915
 C256 C 0.69892 0.82635 1.11005
 H257 H 0.66416 0.78804 1.10573
 H258 H 0.71292 0.83584 1.10644
 H259 H 0.67147 0.82866 1.16422
 H260 H 0.65447 0.84622 1.14716
 N261 N 0.12590 0.31529 1.16966
 N262 N 0.12672 0.32962 1.18492
 C263 C 0.11023 0.32638 1.19837
 C264 C 0.09859 0.30912 1.19112
 C265 C 0.10892 0.30244 1.17291
 H266 H 0.10705 0.33565 1.21252
 H267 H 0.10457 0.28901 1.16300
 Cu268 Cu 0.14941 0.35093 1.18609
 Cu269 Cu 0.14733 0.31388 1.14724
 Cu270 Cu 0.18728 0.35217 1.14783
 N271 N 0.17129 0.37310 1.18521
 N272 N 0.18606 0.37340 1.17029
 C273 C 0.19919 0.39012 1.17354
 C274 C 0.19224 0.40087 1.19138
 C275 C 0.17453 0.38972 1.19843
 H276 H 0.21286 0.39409 1.16374
 H277 H 0.16488 0.39341 1.21223
 N278 N 0.18578 0.32943 1.12634
 N279 N 0.17042 0.31495 1.12593
 C280 C 0.17379 0.30176 1.10933
 C281 C 0.19208 0.30833 1.09892
 C282 C 0.19932 0.32584 1.11004
 H283 H 0.16383 0.28827 1.10515
 H284 H 0.21347 0.33515 1.10656
 H285 H 0.17202 0.32797 1.16415
 H286 H 0.15476 0.34633 1.14803
 N287 N 0.12585 0.81531 0.67014
 N288 N 0.12653 0.82994 0.68514
 C289 C 0.10994 0.82690 0.69854
 C290 C 0.09841 0.80947 0.69151
 C291 C 0.10888 0.80249 0.67350
 H292 H 0.10663 0.83642 0.71249
 H293 H 0.10459 0.78891 0.66377
 Cu294 Cu 0.14920 0.85128 0.68594
 Cu295 Cu 0.14732 0.81359 0.64778
 Cu296 Cu 0.18744 0.85176 0.64805
 N297 N 0.17131 0.87322 0.68513
 N298 N 0.18630 0.87315 0.67042
 C299 C 0.19964 0.88971 0.67372
 C300 C 0.19258 0.90074 0.69136
 C301 C 0.17459 0.88993 0.69824
 H302 H 0.21350 0.89339 0.66407
 H303 H 0.16480 0.89389 0.71187
 N304 N 0.18577 0.82886 0.62667
 N305 N 0.17041 0.81437 0.62646
 C306 C 0.17363 0.80109 0.60990
 C307 C 0.19182 0.80761 0.59928
 C308 C 0.19914 0.82519 0.61026
 H309 H 0.16361 0.78761 0.60585
 H310 H 0.21323 0.83454 0.60658
 H311 H 0.17201 0.82790 0.66459
 H312 H 0.15498 0.84600 0.64801
 N313 N 0.37318 0.68614 0.67038
 N314 N 0.37317 0.67119 0.68511
 C315 C 0.38956 0.67471 0.69855
 C316 C 0.40031 0.69276 0.69181
 C317 C 0.38954 0.69966 0.67394
 H318 H 0.39341 0.66501 0.71228
 H319 H 0.39330 0.71348 0.66428
 Cu320 Cu 0.35151 0.64886 0.68511
 Cu321 Cu 0.35205 0.68706 0.64765
 Cu322 Cu 0.31358 0.64700 0.64751
 N323 N 0.32990 0.62647 0.68511
 N324 N 0.31510 0.62586 0.67027
 C325 C 0.30201 0.60917 0.67397
 C326 C 0.30899 0.59886 0.69207
 C327 C 0.32668 0.61017 0.69878
 H328 H 0.28830 0.60496 0.66438
 H329 H 0.33630 0.60686 0.71268
 N330 N 0.31476 0.66985 0.62591
 N331 N 0.32936 0.68513 0.62602
 C332 C 0.32574 0.69840 0.60952
 C333 C 0.30809 0.69110 0.59862
 C334 C 0.30148 0.67304 0.60936
 H335 H 0.33505 0.71249 0.60577
 H336 H 0.28789 0.66310 0.60547
 H337 H 0.32802 0.67153 0.66401
 H338 H 0.34588 0.65457 0.64720
 N339 N 0.37419 0.18520 1.16933
 N340 N 0.37443 0.16997 1.18378
 C341 C 0.39101 0.17330 1.19705
 C342 C 0.40161 0.19151 1.19049
 C343 C 0.39057 0.19869 1.17289
 H344 H 0.39497 0.16345 1.21062
 H345 H 0.39403 0.21281 1.16357
 Cu346 Cu 0.35274 0.14762 1.18408
 Cu347 Cu 0.35240 0.18674 1.14731
 Cu348 Cu 0.31285 0.14794 1.14815
 N349 N 0.33018 0.12614 1.18455
 N350 N 0.31460 0.12650 1.17051
 C351 C 0.30113 0.11017 1.17441
 C352 C 0.30869 0.09903 1.19178
 C353 C 0.32710 0.10953 1.19789
 H354 H 0.28684 0.10672 1.16537
 H355 H 0.33735 0.10539 1.21111
 N356 N 0.31391 0.17093 1.12676
 N357 N 0.32904 0.18567 1.12635
 C358 C 0.32547 0.19890 1.10980
 C359 C 0.30732 0.19208 1.09938
 C360 C 0.30035 0.17439 1.11049
 H361 H 0.33527 0.21251 1.10557
 H362 H 0.28642 0.16480 1.10694
 H363 H 0.32875 0.17140 1.16472
 H364 H 0.34519 0.15429 1.14661
 N365 N 0.87309 0.68632 1.17045
 N366 N 0.87348 0.67105 1.18484
 C367 C 0.88980 0.67471 1.19835
 C368 C 0.90009 0.69316 1.19197
 C369 C 0.88912 0.70016 1.17427
 H370 H 0.89404 0.66469 1.21173
 H371 H 0.89261 0.71420 1.16484
 Cu372 Cu 0.85266 0.64790 1.18454
 Cu373 Cu 0.85199 0.68707 1.14774
 Cu374 Cu 0.81415 0.64662 1.14710
 N375 N 0.83070 0.62583 1.18438
 N376 N 0.81579 0.62540 1.16966
 C377 C 0.80251 0.60890 1.17345
 C378 C 0.80946 0.59849 1.19149
 C379 C 0.82736 0.60957 1.19809
 H380 H 0.78866 0.60487 1.16398
 H381 H 0.83704 0.60612 1.21190
 N382 N 0.81513 0.66956 1.12565
 N383 N 0.82945 0.68509 1.12598
 C384 C 0.82572 0.69841 1.10954
 C385 C 0.80830 0.69085 1.09844
 C386 C 0.80194 0.67260 1.10900
 H387 H 0.83478 0.71270 1.10596
 H388 H 0.78854 0.66246 1.10495
 H389 H 0.82840 0.67067 1.16430
 H390 H 0.84627 0.65437 1.14681
 N391 N 0.87438 0.18486 0.66924
 N392 N 0.87399 0.17020 0.68425
 C393 C 0.89043 0.17361 0.69767
 C394 C 0.90159 0.19129 0.69063
 C395 C 0.89104 0.19807 0.67259
 H396 H 0.89393 0.16418 0.71167
 H397 H 0.89501 0.21174 0.66282
 Cu398 Cu 0.85180 0.14836 0.68470
 Cu399 Cu 0.85294 0.18620 0.64682
 Cu400 Cu 0.81282 0.14790 0.64795
 N401 N 0.82932 0.12684 0.68519
 N402 N 0.81414 0.12683 0.67072
 C403 C 0.80075 0.11040 0.67447
 C404 C 0.80795 0.09958 0.69219
 C405 C 0.82606 0.11038 0.69866
 H406 H 0.78683 0.10661 0.66501
 H407 H 0.83601 0.10649 0.71218
 N408 N 0.81439 0.17054 0.62619
 N409 N 0.82981 0.18497 0.62558
 C410 C 0.82644 0.19811 0.60891
 C411 C 0.80809 0.19159 0.59865
 C412 C 0.80081 0.17414 0.60995
 H413 H 0.83642 0.21156 0.60460
 H414 H 0.78660 0.16489 0.60664
 H415 H 0.82858 0.17176 0.66401
 H416 H 0.84521 0.15384 0.64691
 N417 N 0.31424 0.37317 0.66966
 N418 N 0.32915 0.37313 0.68440
 C419 C 0.32563 0.38962 0.69775
 C420 C 0.30762 0.40045 0.69095
 C421 C 0.30076 0.38963 0.67312
 H422 H 0.33532 0.39348 0.71144
 H423 H 0.28695 0.39341 0.66346
 Cu424 Cu 0.35154 0.35139 0.68461
 Cu425 Cu 0.31337 0.35185 0.64710
 Cu426 Cu 0.35295 0.31285 0.64746
 N427 N 0.37355 0.32929 0.68487
 N428 N 0.37400 0.31428 0.67024
 C429 C 0.39057 0.30104 0.67407
 C430 C 0.40101 0.30814 0.69202
 C431 C 0.38985 0.32607 0.69852
 H432 H 0.39469 0.28717 0.66463
 H433 H 0.39334 0.33591 0.71219
 N434 N 0.33023 0.31412 0.62574
 N435 N 0.31516 0.32898 0.62561
 C436 C 0.30196 0.32541 0.60908
 C437 C 0.30908 0.30752 0.59840
 C438 C 0.32697 0.30071 0.60931
 H439 H 0.28804 0.33492 0.60516
 H440 H 0.33672 0.28690 0.60562
 H441 H 0.32865 0.32786 0.66384
 H442 H 0.34588 0.34518 0.64676
 N443 N 0.31490 0.87400 0.16925
 N444 N 0.32952 0.87344 0.18426
 C445 C 0.32594 0.88963 0.19794
 C446 C 0.30819 0.90083 0.19107
 C447 C 0.30155 0.89055 0.17286
 H448 H 0.33538 0.89296 0.21193
 H449 H 0.28791 0.89472 0.16312
 Cu450 Cu 0.35160 0.85144 0.18458
 Cu451 Cu 0.31390 0.85289 0.14653
 Cu452 Cu 0.35270 0.81309 0.14714
 N453 N 0.37351 0.82927 0.18452
 N454 N 0.37376 0.81425 0.16990
 C455 C 0.39033 0.80095 0.17358
 C456 C 0.40096 0.80804 0.19141
 C457 C 0.38994 0.82600 0.19801
 H458 H 0.39433 0.78710 0.16408
 H459 H 0.39359 0.83583 0.21165
 N460 N 0.33009 0.81476 0.12536
 N461 N 0.31547 0.83006 0.12496
 C462 C 0.30238 0.82679 0.10828
 C463 C 0.30910 0.80864 0.09778
 C464 C 0.32665 0.80137 0.10895
 H465 H 0.28878 0.83667 0.10414
 H466 H 0.33604 0.78726 0.10546
 H467 H 0.32836 0.82840 0.16356
 H468 H 0.34623 0.84540 0.14675
 N469 N 0.81414 0.37364 0.16946
 N470 N 0.82890 0.37323 0.18435
 C471 C 0.82551 0.38960 0.19785
 C472 C 0.80772 0.40077 0.19100
 C473 C 0.80087 0.39027 0.17299
 H474 H 0.83503 0.39302 0.21176
 H475 H 0.78716 0.39434 0.16331
 Cu476 Cu 0.85080 0.35103 0.18483
 Cu477 Cu 0.81308 0.35241 0.14687
 Cu478 Cu 0.85228 0.31297 0.14715
 N479 N 0.87295 0.32907 0.18462
 N480 N 0.87338 0.31417 0.16988
 C481 C 0.88994 0.30088 0.17364
 C482 C 0.90037 0.30786 0.19165
 C483 C 0.88924 0.32575 0.19825
 H484 H 0.89403 0.28708 0.16412
 H485 H 0.89263 0.33542 0.21208
 N486 N 0.82956 0.31455 0.12548
 N487 N 0.81467 0.32959 0.12534
 C488 C 0.80148 0.32623 0.10876
 C489 C 0.80842 0.30830 0.09806
 C490 C 0.82619 0.30123 0.10900
 H491 H 0.78769 0.33593 0.10480
 H492 H 0.83580 0.28732 0.10529
 H493 H 0.82788 0.32796 0.16353
 H494 H 0.84546 0.34529 0.14685
 N495 N 0.81426 0.87428 0.66974
 N496 N 0.82912 0.87411 0.68455
 C497 C 0.82566 0.89054 0.69797
 C498 C 0.80764 0.90136 0.69123
 C499 C 0.80077 0.89069 0.67333
 H500 H 0.83528 0.89430 0.71175
 H501 H 0.78703 0.89456 0.66365
 Cu502 Cu 0.85132 0.85228 0.68463
 Cu503 Cu 0.81326 0.85314 0.64705
 Cu504 Cu 0.85303 0.81427 0.64715
 N505 N 0.87358 0.83051 0.68471
 N506 N 0.87413 0.81566 0.66991
 C507 C 0.89061 0.80234 0.67376
 C508 C 0.90092 0.80927 0.69185
 C509 C 0.88983 0.82720 0.69840
 H510 H 0.89475 0.78856 0.66424
 H511 H 0.89319 0.83682 0.71228
 N512 N 0.83027 0.81558 0.62552
 N513 N 0.81512 0.83036 0.62549
 C514 C 0.80190 0.82681 0.60898
 C515 C 0.80909 0.80901 0.59820
 C516 C 0.82703 0.80223 0.60904
 H517 H 0.78789 0.83624 0.60515
 H518 H 0.83680 0.78845 0.60530
 H519 H 0.82838 0.82902 0.66366
 H520 H 0.84559 0.84660 0.64677
 N521 N 0.68504 0.62595 0.67016
 N522 N 0.67009 0.62614 0.68491
 C523 C 0.67349 0.60970 0.69839
 C524 C 0.69146 0.59874 0.69162
 C525 C 0.69840 0.60943 0.67371
 H526 H 0.66389 0.60607 0.71225
 H527 H 0.71229 0.60562 0.66416
 Cu528 Cu 0.64817 0.64836 0.68504
 Cu529 Cu 0.68654 0.64740 0.64769
 Cu530 Cu 0.64758 0.68706 0.64803
 N531 N 0.62629 0.67060 0.68527
 N532 N 0.62625 0.68569 0.67067
 C533 C 0.60978 0.69910 0.67431
 C534 C 0.59896 0.69204 0.69211
 C535 C 0.60982 0.67398 0.69875
 H536 H 0.60603 0.71304 0.66482
 H537 H 0.60601 0.66420 0.71243
 N538 N 0.67053 0.68562 0.62646
 N539 N 0.68533 0.67049 0.62634
 C540 C 0.69876 0.67394 0.60991
 C541 C 0.69205 0.69202 0.59924
 C542 C 0.67416 0.69905 0.61006
 H543 H 0.71249 0.66415 0.60603
 H544 H 0.66466 0.71302 0.60630
 H545 H 0.67171 0.67167 0.66453
 H546 H 0.65430 0.65477 0.64731
 N547 N 0.68543 0.12529 0.16906
 N548 N 0.67092 0.12567 0.18424
 C549 C 0.67437 0.10907 0.19751
 C550 C 0.69198 0.09789 0.19025
 C551 C 0.69864 0.10856 0.17222
 H552 H 0.66509 0.10555 0.21162
 H553 H 0.71228 0.10466 0.16236
 Cu554 Cu 0.64911 0.14795 0.18476
 Cu555 Cu 0.68671 0.14695 0.14672
 Cu556 Cu 0.64762 0.18651 0.14782
 N557 N 0.62686 0.16979 0.18523
 N558 N 0.62635 0.18473 0.17048
 C559 C 0.60951 0.19770 0.17405
 C560 C 0.59892 0.19047 0.19189
 C561 C 0.61026 0.17274 0.19865
 H562 H 0.60538 0.21153 0.16456
 H563 H 0.60677 0.16294 0.21240
 N564 N 0.67046 0.18547 0.12616
 N565 N 0.68524 0.17032 0.12562
 C566 C 0.69849 0.17408 0.10910
 C567 C 0.69169 0.19239 0.09887
 C568 C 0.67394 0.19922 0.11002
 H569 H 0.71216 0.16436 0.10482
 H570 H 0.66437 0.21324 0.10662
 H571 H 0.67216 0.17108 0.16367
 H572 H 0.65439 0.15411 0.14692
 N573 N 0.18447 0.62573 0.16936
 N574 N 0.16967 0.62633 0.18424
 C575 C 0.17285 0.60996 0.19783
 C576 C 0.19058 0.59863 0.19107
 C577 C 0.19758 0.60901 0.17301
 H578 H 0.16323 0.60665 0.21174
 H579 H 0.21137 0.60485 0.16345
 Cu580 Cu 0.14801 0.64875 0.18475
 Cu581 Cu 0.18600 0.64692 0.14672
 Cu582 Cu 0.14714 0.68652 0.14656
 N583 N 0.12588 0.67068 0.18392
 N584 N 0.12571 0.68546 0.16903
 C585 C 0.10916 0.69885 0.17245
 C586 C 0.09841 0.69204 0.19038
 C587 C 0.10935 0.67415 0.19729
 H588 H 0.10537 0.71265 0.16278
 H589 H 0.10565 0.66461 0.21116
 N590 N 0.17011 0.68491 0.12512
 N591 N 0.18489 0.66977 0.12513
 C592 C 0.19839 0.67312 0.10873
 C593 C 0.19173 0.69117 0.09797
 C594 C 0.17383 0.69827 0.10870
 H595 H 0.21215 0.66332 0.10496
 H596 H 0.16439 0.71227 0.10487
 H597 H 0.17132 0.67138 0.16323
 H598 H 0.15359 0.65397 0.14675
 N599 N 0.18564 0.12552 0.67012
 N600 N 0.17093 0.12589 0.68510
 C601 C 0.17439 0.10951 0.69860
 C602 C 0.19215 0.09839 0.69164
 C603 C 0.19894 0.10891 0.67358
 H604 H 0.16487 0.10599 0.71253
 H605 H 0.21268 0.10491 0.66389
 Cu606 Cu 0.14894 0.14793 0.68570
 Cu607 Cu 0.18685 0.14689 0.64761
 Cu608 Cu 0.14761 0.18618 0.64816
 N609 N 0.12661 0.16966 0.68539
 N610 N 0.12625 0.18461 0.67067
 C611 C 0.10953 0.19773 0.67425
 C612 C 0.09892 0.19060 0.69213
 C613 C 0.11010 0.17278 0.69885
 H614 H 0.10549 0.21160 0.66476
 H615 H 0.10654 0.16300 0.71259
 N616 N 0.17052 0.18506 0.62663
 N617 N 0.18535 0.16997 0.62627
 C618 C 0.19857 0.17355 0.60971
 C619 C 0.19171 0.19170 0.59925
 C620 C 0.17395 0.19863 0.61032
 H621 H 0.21230 0.16383 0.60557
 H622 H 0.16435 0.21258 0.60678
 H623 H 0.17214 0.17097 0.66453
 H624 H 0.15452 0.15370 0.64782
 N625 N 0.31416 0.62619 0.33010
 N626 N 0.32892 0.62644 0.31517
 C627 C 0.32562 0.60985 0.30192
 C628 C 0.30788 0.59877 0.30895
 C629 C 0.30096 0.60951 0.32682
 H630 H 0.33519 0.60617 0.28806
 H631 H 0.28723 0.60561 0.33656
 Cu632 Cu 0.35076 0.64862 0.31418
 Cu633 Cu 0.31298 0.64760 0.35248
 Cu634 Cu 0.35262 0.68626 0.35250
 N635 N 0.37329 0.67009 0.31501
 N636 N 0.37396 0.68469 0.33002
 C637 C 0.39082 0.69764 0.32657
 C638 C 0.40122 0.69074 0.30850
 C639 C 0.38977 0.67324 0.30153
 H640 H 0.39505 0.71126 0.33627
 H641 H 0.39308 0.66376 0.28755
 N642 N 0.32963 0.68523 0.37392
 N643 N 0.31446 0.67054 0.37385
 C644 C 0.30107 0.67417 0.39026
 C645 C 0.30823 0.69191 0.40112
 C646 C 0.32629 0.69858 0.39040
 H647 H 0.28708 0.66471 0.39402
 H648 H 0.33612 0.71224 0.39430
 H649 H 0.32814 0.67183 0.33588
 H650 H 0.34559 0.65387 0.35221
 N651 N 0.31454 0.12644 0.82908
 N652 N 0.32991 0.12658 0.81477
 C653 C 0.32693 0.11016 0.80123
 C654 C 0.30882 0.09921 0.80751
 C655 C 0.30132 0.10990 0.82519
 H656 H 0.33708 0.10641 0.78781
 H657 H 0.28727 0.10594 0.83445
 Cu658 Cu 0.35227 0.14823 0.81541
 Cu659 Cu 0.31303 0.14741 0.85196
 Cu660 Cu 0.35302 0.18585 0.85349
 N661 N 0.37426 0.17025 0.81601
 N662 N 0.37452 0.18482 0.83107
 C663 C 0.39110 0.19816 0.82776
 C664 C 0.40172 0.19158 0.80968
 C665 C 0.39069 0.17388 0.80258
 H666 H 0.39497 0.21180 0.83758
 H667 H 0.39426 0.16461 0.78851
 N668 N 0.32981 0.18428 0.87464
 N669 N 0.31439 0.16986 0.87389
 C670 C 0.30075 0.17331 0.89015
 C671 C 0.30800 0.19066 0.90158
 C672 C 0.32638 0.19726 0.89138
 H673 H 0.28651 0.16405 0.89338
 H674 H 0.33634 0.21067 0.89577
 H675 H 0.32904 0.17168 0.83610
 H676 H 0.34551 0.15368 0.85322
 N677 N 0.81433 0.62637 0.83068
 N678 N 0.82901 0.62666 0.81565
 C679 C 0.82565 0.61008 0.80242
 C680 C 0.80796 0.59897 0.80955
 C681 C 0.80114 0.60968 0.82747
 H682 H 0.83516 0.60642 0.78851
 H683 H 0.78748 0.60576 0.83730
 Cu684 Cu 0.85084 0.64885 0.81461
 Cu685 Cu 0.81317 0.64774 0.85305
 Cu686 Cu 0.85268 0.68651 0.85282
 N687 N 0.87335 0.67038 0.81529
 N688 N 0.87396 0.68500 0.83030
 C689 C 0.89076 0.69801 0.82686
 C690 C 0.90121 0.69115 0.80879
 C691 C 0.88983 0.67360 0.80182
 H692 H 0.89491 0.71161 0.83661
 H693 H 0.89322 0.66414 0.78784
 N694 N 0.82977 0.68546 0.87430
 N695 N 0.81468 0.67068 0.87438
 C696 C 0.80132 0.67436 0.89081
 C697 C 0.80838 0.69224 0.90147
 C698 C 0.82639 0.69893 0.89066
 H699 H 0.78736 0.66490 0.89470
 H700 H 0.83616 0.71268 0.89438
 H701 H 0.82814 0.67196 0.83629
 H702 H 0.84571 0.65410 0.85261
 N703 N 0.81501 0.12565 0.33029
 N704 N 0.82952 0.12642 0.31514
 C705 C 0.82648 0.10983 0.30182
 C706 C 0.80913 0.09820 0.30902
 C707 C 0.80222 0.10863 0.32707
 H708 H 0.83599 0.10654 0.28783
 H709 H 0.78874 0.10426 0.33697
 Cu710 Cu 0.85081 0.14919 0.31385
 Cu711 Cu 0.81347 0.14708 0.35262
 Cu712 Cu 0.85251 0.18628 0.35286
 N713 N 0.87332 0.17071 0.31522
 N714 N 0.87398 0.18504 0.33048
 C715 C 0.89090 0.19801 0.32732
 C716 C 0.90138 0.19139 0.30918
 C717 C 0.88989 0.17405 0.30187
 H718 H 0.89518 0.21139 0.33732
 H719 H 0.89328 0.16472 0.28781
 N720 N 0.82941 0.18492 0.37414
 N721 N 0.81445 0.17002 0.37398
 C722 C 0.80088 0.17350 0.39029
 C723 C 0.80768 0.19139 0.40114
 C724 C 0.82575 0.19826 0.39055
 H725 H 0.78699 0.16386 0.39396
 H726 H 0.83537 0.21207 0.39449
 H727 H 0.82817 0.17191 0.33618
 H728 H 0.84610 0.15390 0.35196
 N729 N 0.68519 0.37364 0.32963
 N730 N 0.67103 0.37260 0.31422
 C731 C 0.67429 0.38903 0.30071
 C732 C 0.69138 0.40086 0.30807
 C733 C 0.69793 0.39071 0.32643
 H734 H 0.66513 0.39208 0.28645
 H735 H 0.71114 0.39527 0.33655
 Cu736 Cu 0.64994 0.34971 0.31280
 Cu737 Cu 0.68634 0.35258 0.35237
 Cu738 Cu 0.64708 0.31369 0.35284
 N739 N 0.62698 0.32870 0.31464
 N740 N 0.62593 0.31474 0.33026
 C741 C 0.60892 0.30190 0.32725
 C742 C 0.59879 0.30820 0.30881
 C743 C 0.61057 0.32524 0.30120
 H744 H 0.60442 0.28875 0.33750
 H745 H 0.60756 0.33415 0.28677
 N746 N 0.66985 0.31516 0.37436
 N747 N 0.68492 0.32995 0.37413
 C748 C 0.69827 0.32654 0.39059
 C749 C 0.69121 0.30882 0.40163
 C750 C 0.67322 0.30196 0.39098
 H751 H 0.71221 0.33609 0.39421
 H752 H 0.66349 0.28823 0.39500
 H753 H 0.67195 0.32761 0.33625
 H754 H 0.65376 0.34613 0.35116
 N755 N 0.68594 0.87299 0.82963
 N756 N 0.67154 0.87232 0.81440
 C757 C 0.67495 0.88874 0.80089
 C758 C 0.69242 0.90013 0.80806
 C759 C 0.69902 0.88976 0.82629
 H760 H 0.66556 0.89219 0.78687
 H761 H 0.71237 0.89407 0.83633
 Cu762 Cu 0.64988 0.84999 0.81431
 Cu763 Cu 0.68675 0.85205 0.85270
 Cu764 Cu 0.64709 0.81303 0.85269
 N765 N 0.62720 0.82871 0.81440
 N766 N 0.62625 0.81428 0.82963
 C767 C 0.60929 0.80148 0.82629
 C768 C 0.59907 0.80832 0.80808
 C769 C 0.61076 0.82560 0.80090
 H770 H 0.60477 0.78814 0.83629
 H771 H 0.60754 0.83503 0.78684
 N772 N 0.66966 0.81460 0.87455
 N773 N 0.68474 0.82942 0.87457
 C774 C 0.69784 0.82597 0.89123
 C775 C 0.69063 0.80821 0.90210
 C776 C 0.67280 0.80137 0.89118
 H777 H 0.71177 0.83544 0.89509
 H778 H 0.66304 0.78760 0.89496
 H779 H 0.67210 0.82725 0.83676
 H780 H 0.65430 0.84526 0.85244
 N781 N 0.18540 0.37330 0.82980
 N782 N 0.17107 0.37261 0.81452
 C783 C 0.17459 0.38899 0.80100
 C784 C 0.19202 0.40038 0.80824
 C785 C 0.19852 0.39005 0.82650
 H786 H 0.16533 0.39235 0.78688
 H787 H 0.21186 0.39434 0.83655
 Cu788 Cu 0.14929 0.35035 0.81361
 Cu789 Cu 0.18625 0.35237 0.85262
 Cu790 Cu 0.14672 0.31366 0.85293
 N791 N 0.12661 0.32902 0.81483
 N792 N 0.12568 0.31479 0.83022
 C793 C 0.10875 0.30189 0.82702
 C794 C 0.09853 0.30845 0.80871
 C795 C 0.11020 0.32568 0.80136
 H796 H 0.10433 0.28860 0.83711
 H797 H 0.10707 0.33485 0.78711
 N798 N 0.16941 0.31509 0.87457
 N799 N 0.18452 0.32985 0.87443
 C800 C 0.19785 0.32634 0.89089
 C801 C 0.19075 0.30858 0.90181
 C802 C 0.17274 0.30181 0.89112
 H803 H 0.21187 0.33576 0.89456
 H804 H 0.16301 0.28805 0.89498
 H805 H 0.17157 0.32775 0.83629
 H806 H 0.15370 0.34604 0.85182
 N807 N 0.18466 0.87415 0.33006
 N808 N 0.17001 0.87343 0.31508
 C809 C 0.17322 0.88979 0.30147
 C810 C 0.19080 0.90120 0.30830
 C811 C 0.19770 0.89091 0.32644
 H812 H 0.16369 0.89302 0.28749
 H813 H 0.21137 0.89515 0.33608
 Cu814 Cu 0.14846 0.85098 0.31450
 Cu815 Cu 0.18614 0.85292 0.35267
 Cu816 Cu 0.14739 0.81334 0.35295
 N817 N 0.12627 0.82916 0.31558
 N818 N 0.12601 0.81445 0.33054
 C819 C 0.10932 0.80125 0.32730
 C820 C 0.09856 0.80814 0.30942
 C821 C 0.10965 0.82585 0.30236
 H822 H 0.10543 0.78754 0.33706
 H823 H 0.10595 0.83542 0.28851
 N824 N 0.17034 0.81495 0.37429
 N825 N 0.18509 0.83007 0.37424
 C826 C 0.19858 0.82669 0.39060
 C827 C 0.19193 0.80866 0.40140
 C828 C 0.17405 0.80159 0.39071
 H829 H 0.21234 0.83647 0.39432
 H830 H 0.16463 0.78761 0.39456
 H831 H 0.17149 0.82826 0.33623
 H832 H 0.15358 0.84579 0.35252
 O833 O 0.25262 1.02128 0.22371
 O834 O 0.22307 0.97915 0.25223
 O835 O 0.22322 1.02107 0.25264
 O836 O 0.25180 0.97936 0.22266
 O837 O 0.27695 0.97859 0.24735
 O838 O 0.24847 1.02053 0.27724
 O839 O 0.24822 0.97861 0.27692
 O840 O 0.27786 1.02052 0.24831
 Cu841 Cu 0.23514 1.00030 0.23532
 Cu842 Cu 0.26542 0.99948 0.26494
 C843 C 0.27004 1.02829 0.23139
 C844 C 0.23086 0.97150 0.26924
 C845 C 0.23119 1.02814 0.26978
 C846 C 0.26899 0.97160 0.23016
 O847 O 0.27707 0.47870 0.74769
 O848 O 0.24805 0.52049 0.77722
 O849 O 0.24786 0.47860 0.77677
 O850 O 0.27714 0.52071 0.74799
 O851 O 0.25209 0.52095 0.72320
 O852 O 0.22275 0.47895 0.75203
 O853 O 0.22298 0.52087 0.75244
 O854 O 0.25196 0.47898 0.72296
 Cu855 Cu 0.26508 0.49960 0.76489
 Cu856 Cu 0.23492 0.49999 0.73516
 C857 C 0.26920 0.47143 0.73058
 C858 C 0.23080 0.52803 0.76962
 C859 C 0.23056 0.47138 0.76905
 C860 C 0.26935 0.52823 0.73093
 O861 O 0.74841 -0.02132 0.22342
 O862 O 0.77734 0.02054 0.25276
 O863 O 0.77751 -0.02141 0.25244
 O864 O 0.74860 0.02051 0.22309
 O865 O 0.72329 0.02052 0.24770
 O866 O 0.75224 -0.02140 0.27710
 O867 O 0.75203 0.02053 0.27737
 O868 O 0.72314 -0.02131 0.24808
 Cu869 Cu 0.76554 -0.00038 0.23546
 Cu870 Cu 0.73513 -0.00037 0.26505
 C871 C 0.73108 -0.02867 0.23102
 C872 C 0.76943 0.02783 0.26988
 C873 C 0.76955 -0.02881 0.26949
 C874 C 0.73119 0.02780 0.23056
 O875 O 0.75203 0.47919 0.77792
 O876 O 0.72273 0.52088 0.74857
 O877 O 0.72321 0.47891 0.74850
 O878 O 0.75202 0.52106 0.77753
 O879 O 0.77724 0.52104 0.75283
 O880 O 0.74835 0.47909 0.72371
 O881 O 0.74795 0.52103 0.72387
 O882 O 0.77716 0.47915 0.75313
 Cu883 Cu 0.73495 0.50001 0.76561
 Cu884 Cu 0.76521 0.50008 0.73589
 C885 C 0.76936 0.47185 0.77030
 C886 C 0.73058 0.52831 0.73149
 C887 C 0.73113 0.47159 0.73140
 C888 C 0.76934 0.52841 0.76990
 O889 O 0.25173 0.47931 0.27700
 O890 O 0.22257 0.52108 0.24759
 O891 O 0.22270 0.47917 0.24781
 O892 O 0.25177 0.52120 0.27666
 O893 O 0.27692 0.52109 0.25189
 O894 O 0.24787 0.47905 0.22305
 O895 O 0.24773 0.52096 0.22283
 O896 O 0.27689 0.47918 0.25224
 Cu897 Cu 0.23464 0.50021 0.26476
 Cu898 Cu 0.26489 0.50006 0.23500
 C899 C 0.26907 0.47193 0.26941
 C900 C 0.23041 0.52836 0.23043
 C901 C 0.23058 0.47173 0.23075
 C902 C 0.26908 0.52850 0.26898
 O903 O 0.77687 0.97922 0.74814
 O904 O 0.74760 1.02119 0.77710
 O905 O 0.74757 0.97907 0.77713
 O906 O 0.77727 1.02102 0.74861
 O907 O 0.75223 1.02151 0.72381
 O908 O 0.72287 0.97908 0.75199
 O909 O 0.72244 1.02106 0.75242
 O910 O 0.75212 0.97968 0.72304
 Cu911 Cu 0.76480 1.00008 0.76531
 Cu912 Cu 0.73489 1.00039 0.73531
 C913 C 0.76926 0.97213 0.73084
 C914 C 0.73027 1.02851 0.76946
 C915 C 0.73052 0.97157 0.76912
 C916 C 0.76954 1.02864 0.73158
 O917 O 0.75150 0.52131 0.22249
 O918 O 0.72197 0.47923 0.25109
 O919 O 0.72210 0.52123 0.25150
 O920 O 0.75110 0.47941 0.22190
 O921 O 0.77609 0.47891 0.24674
 O922 O 0.74718 0.52081 0.27626
 O923 O 0.74695 0.47892 0.27596
 O924 O 0.77654 0.52082 0.24729
 Cu925 Cu 0.73413 0.50036 0.23425
 Cu926 Cu 0.76422 0.49981 0.26406
 C927 C 0.76884 0.52841 0.23023
 C928 C 0.72969 0.47168 0.26817
 C929 C 0.72993 0.52836 0.26868
 C930 C 0.76829 0.47179 0.22954
 O931 O 0.25277 -0.02140 0.77704
 O932 O 0.22394 0.02056 0.74756
 O933 O 0.22364 -0.02128 0.74788
 O934 O 0.25284 0.02059 0.77682
 O935 O 0.27800 0.02048 0.75206
 O936 O 0.24891 -0.02160 0.72322
 O937 O 0.24911 0.02027 0.72280
 O938 O 0.27803 -0.02152 0.75238
 Cu939 Cu 0.23576 -0.00037 0.76483
 Cu940 Cu 0.26608 -0.00064 0.73514
 C941 C 0.27011 -0.02880 0.76949
 C942 C 0.23184 0.02777 0.73039
 C943 C 0.23150 -0.02876 0.73083
 C944 C 0.27009 0.02798 0.76908
 O945 O 0.25204 0.22280 0.97918
 O946 O 0.22263 0.25196 1.02075
 O947 O 0.22302 0.25239 0.97913
 O948 O 0.25212 0.22311 1.02089
 O949 O 0.27716 0.24809 1.02083
 O950 O 0.24807 0.27737 0.97914
 O951 O 0.24766 0.27696 1.02082
 O952 O 0.27706 0.24780 0.97914
 Cu953 Cu 0.23494 0.23504 0.99995
 Cu954 Cu 0.26502 0.26507 0.99996
 C955 C 0.26930 0.23055 0.97184
 C956 C 0.23042 0.26913 1.02816
 C957 C 0.23082 0.26965 0.97181
 C958 C 0.26931 0.23093 1.02826
 O959 O 0.24756 0.77707 0.47936
 O960 O 0.27707 0.74803 0.52097
 O961 O 0.27733 0.74841 0.47935
 O962 O 0.24725 0.77666 0.52110
 O963 O 0.22260 0.75129 0.52085
 O964 O 0.25268 0.72304 0.47910
 O965 O 0.25241 0.72267 0.52075
 O966 O 0.22290 0.75171 0.47914
 Cu967 Cu 0.26476 0.76513 0.50023
 Cu968 Cu 0.23517 0.73461 0.49993
 C969 C 0.23050 0.76907 0.47188
 C970 C 0.26950 0.73065 0.52819
 C971 C 0.26984 0.73113 0.47187
 C972 C 0.23012 0.76854 0.52837
 O973 O 0.27691 0.75290 -0.02132
 O974 O 0.24788 0.72354 0.02045
 O975 O 0.24781 0.72361 -0.02121
 O976 O 0.27696 0.75290 0.02034
 O977 O 0.25183 0.77786 0.02038
 O978 O 0.22267 0.74857 -0.02117
 O979 O 0.22275 0.74850 0.02051
 O980 O 0.25178 0.77787 -0.02131
 Cu981 Cu 0.26493 0.73573 -0.00043
 Cu982 Cu 0.23472 0.76572 -0.00038
 C983 C 0.26904 0.77010 -0.02870
 C984 C 0.23060 0.73126 0.02782
 C985 C 0.23053 0.73136 -0.02852
 C986 C 0.26912 0.77012 0.02767
 O987 O 0.27677 0.25196 0.47900
 O988 O 0.24796 0.22263 0.52094
 O989 O 0.24760 0.22278 0.47929
 O990 O 0.27706 0.25192 0.52070
 O991 O 0.25199 0.27695 0.52088
 O992 O 0.22249 0.24775 0.47952
 O993 O 0.22289 0.24766 0.52121
 O994 O 0.25167 0.27695 0.47917
 Cu995 Cu 0.26488 0.23481 0.49996
 Cu996 Cu 0.23472 0.26485 0.50023
 C997 C 0.26886 0.26916 0.47166
 C998 C 0.23077 0.23041 0.52847
 C999 C 0.23031 0.23058 0.47207
 C1000 C 0.26929 0.26914 0.52810
 O1001 O 0.74750 0.77720 0.97971
 O1002 O 0.77704 0.74781 1.02099
 O1003 O 0.77664 0.74788 0.97935
 O1004 O 0.74754 0.77672 1.02135
 O1005 O 0.72258 0.75166 1.02141
 O1006 O 0.75166 0.72284 0.97941
 O1007 O 0.75210 0.72272 1.02103
 O1008 O 0.72251 0.75217 0.97976
 Cu1009 Cu 0.76470 0.76494 1.00034
 Cu1010 Cu 0.73469 0.73481 1.00041
 C1011 C 0.73023 0.76946 0.97245
 C1012 C 0.76935 0.73052 1.02830
 C1013 C 0.76884 0.73069 0.97199
 C1014 C 0.73036 0.76885 1.02877
 O1015 O 0.72286 0.25210 0.52108
 O1016 O 0.75200 0.22305 0.47920
 O1017 O 0.75225 0.22308 0.52094
 O1018 O 0.72236 0.25193 0.47946
 O1019 O 0.74719 0.27713 0.47918
 O1020 O 0.77713 0.24822 0.52060
 O1021 O 0.77682 0.24825 0.47890
 O1022 O 0.74773 0.27725 0.52081
 Cu1023 Cu 0.73488 0.23498 0.50020
 Cu1024 Cu 0.76472 0.26525 0.49983
 C1025 C 0.73060 0.26937 0.52832
 C1026 C 0.76910 0.23097 0.47166
 C1027 C 0.76948 0.23100 0.52812
 C1028 C 0.72993 0.26922 0.47203
 O1029 O 0.74780 0.22368 0.02061
 O1030 O 0.77638 0.25314 -0.02136
 O1031 O 0.77674 0.25303 0.02024
 O1032 O 0.74767 0.22347 -0.02110
 O1033 O 0.72233 0.24822 -0.02099
 O1034 O 0.75146 0.27785 0.02035
 O1035 O 0.75106 0.27791 -0.02125
 O1036 O 0.72251 0.24849 0.02077
 Cu1037 Cu 0.76470 0.23582 -0.00043
 Cu1038 Cu 0.73426 0.26560 -0.00029
 C1039 C 0.73057 0.23137 0.02814
 C1040 C 0.76837 0.27030 -0.02867
 C1041 C 0.76881 0.27019 0.02760
 C1042 C 0.73032 0.23108 -0.02837
 O1043 O 0.72296 0.74822 0.47949
 O1044 O 0.75219 0.77786 0.52077
 O1045 O 0.75199 0.77760 0.47914
 O1046 O 0.72297 0.74870 0.52122
 O1047 O 0.74809 0.72374 0.52138
 O1048 O 0.77712 0.75264 0.47925
 O1049 O 0.77733 0.75290 0.52088
 O1050 O 0.74811 0.72327 0.47965
 Cu1051 Cu 0.73498 0.76561 0.50014
 Cu1052 Cu 0.76519 0.73561 0.50031
 C1053 C 0.73084 0.73097 0.47225
 C1054 C 0.76949 0.77017 0.52810
 C1055 C 0.76924 0.76981 0.47179
 C1056 C 0.73084 0.73157 0.52873
 O1057 O 0.97922 0.24867 0.27751
 O1058 O 1.02076 0.27749 0.24738
 O1059 O 0.97873 0.27712 0.24770
 O1060 O 1.02116 0.24888 0.27712
 O1061 O 1.02125 0.22339 0.25279
 O1062 O 0.97886 0.25161 0.22338
 O1063 O 1.02082 0.25199 0.22307
 O1064 O 0.97927 0.22317 0.25319
 Cu1065 Cu 0.99997 0.26564 0.26485
 Cu1066 Cu 1.00007 0.23496 0.23567
 C1067 C 0.97195 0.23121 0.27023
 C1068 C 1.02810 0.26944 0.23036
 C1069 C 0.97133 0.26894 0.23079
 C1070 C 1.02861 0.23151 0.26974
 O1071 O 0.47928 0.25141 0.72314
 O1072 O 0.52137 0.22231 0.75220
 O1073 O 0.47944 0.22239 0.75241
 O1074 O 0.52131 0.25128 0.72289
 O1075 O 0.52140 0.27645 0.74755
 O1076 O 0.47951 0.24758 0.77706
 O1077 O 0.52138 0.24748 0.77686
 O1078 O 0.47935 0.27659 0.74779
 Cu1079 Cu 0.50034 0.23432 0.73516
 Cu1080 Cu 0.50042 0.26459 0.76477
 C1081 C 0.47188 0.26870 0.73078
 C1082 C 0.52874 0.23017 0.76926
 C1083 C 0.47213 0.23028 0.76952
 C1084 C 0.52875 0.26853 0.73047
 O1085 O -0.02133 0.27710 0.75181
 O1086 O 0.02089 0.24792 0.72291
 O1087 O -0.02105 0.24783 0.72274
 O1088 O 0.02064 0.27746 0.75165
 O1089 O 0.02073 0.25254 0.77662
 O1090 O -0.02094 0.22291 0.74772
 O1091 O 0.02100 0.22303 0.74792
 O1092 O -0.02118 0.25216 0.77676
 Cu1093 Cu -0.00023 0.26509 0.73475
 Cu1094 Cu -0.00010 0.23516 0.76476
 C1095 C -0.02861 0.26940 0.76903
 C1096 C 0.02834 0.23072 0.73073
 C1097 C -0.02830 0.23055 0.73052
 C1098 C 0.02801 0.26981 0.76883
 O1099 O 0.47918 0.27713 0.25207
 O1100 O 0.52081 0.24760 0.22274
 O1101 O 0.47890 0.24799 0.22298
 O1102 O 0.52117 0.27693 0.25174
 O1103 O 0.52108 0.25196 0.27666
 O1104 O 0.47896 0.22291 0.24780
 O1105 O 0.52086 0.22263 0.24767
 O1106 O 0.47911 0.25206 0.27689
 Cu1107 Cu 0.50002 0.26495 0.23488
 Cu1108 Cu 0.50001 0.23487 0.26477
 C1109 C 0.47183 0.26939 0.26924
 C1110 C 0.52814 0.23030 0.23044
 C1111 C 0.47157 0.23072 0.23069
 C1112 C 0.52851 0.26918 0.26889
 O1113 O 1.02046 0.77710 0.74740
 O1114 O 0.97887 0.74732 0.77653
 O1115 O 1.02080 0.74821 0.77686
 O1116 O 0.97851 0.77697 0.74792
 O1117 O 0.97875 0.75198 0.72309
 O1118 O 1.02118 0.72320 0.75205
 O1119 O 0.97921 0.72231 0.75170
 O1120 O 1.02071 0.75210 0.72257
 Cu1121 Cu 0.99964 0.76491 0.76468
 Cu1122 Cu 1.00001 0.73488 0.73484
 C1123 C 1.02787 0.76944 0.73022
 C1124 C 0.97171 0.72999 0.76882
 C1125 C 1.02839 0.73104 0.76920
 C1126 C 0.97120 0.76916 0.73083
 O1127 O 0.52098 0.77633 0.24724
 O1128 O 0.47906 0.74758 0.27671
 O1129 O 0.52098 0.74730 0.27648
 O1130 O 0.47906 0.77635 0.24720
 O1131 O 0.47910 0.75114 0.22258
 O1132 O 0.52091 0.72202 0.25193
 O1133 O 0.47895 0.72235 0.25210
 O1134 O 0.52102 0.75105 0.22268
 Cu1135 Cu 0.50003 0.76444 0.26438
 Cu1136 Cu 0.49999 0.73408 0.23485
 C1137 C 0.52836 0.76839 0.23019
 C1138 C 0.47164 0.73030 0.26919
 C1139 C 0.52831 0.72994 0.26896
 C1140 C 0.47173 0.76847 0.23013
 O1141 O -0.02121 0.72343 0.24798
 O1142 O 0.02077 0.75241 0.27700
 O1143 O -0.02109 0.75254 0.27693
 O1144 O 0.02082 0.72336 0.24778
 O1145 O 0.02082 0.74845 0.22297
 O1146 O -0.02104 0.77767 0.25214
 O1147 O 0.02085 0.77751 0.25220
 O1148 O -0.02123 0.74856 0.22320
 Cu1149 Cu -0.00015 0.73537 0.26490
 Cu1150 Cu -0.00012 0.76557 0.23510
 C1151 C -0.02868 0.73135 0.23095
 C1152 C 0.02813 0.76970 0.26936
 C1153 C -0.02844 0.76983 0.26925
 C1154 C 0.02819 0.73116 0.23064
 O1155 O 0.47876 0.77847 0.75126
 O1156 O 0.52053 0.74820 0.72286
 O1157 O 0.47850 0.74862 0.72294
 O1158 O 0.52072 0.77809 0.75120
 O1159 O 0.52049 0.75353 0.77654
 O1160 O 0.47838 0.72404 0.74825
 O1161 O 0.52036 0.72368 0.74822
 O1162 O 0.47859 0.75388 0.77656
 Cu1163 Cu 0.49965 0.76581 0.73448
 Cu1164 Cu 0.49943 0.73631 0.76494
 C1165 C 0.47136 0.77107 0.76855
 C1166 C 0.52783 0.73107 0.73096
 C1167 C 0.47102 0.73158 0.73102
 C1168 C 0.52800 0.77057 0.76849
 C1169 C 0.43188 0.26932 0.28349
 C1170 C 0.43149 0.27762 0.30665
 C1171 C 0.42034 0.29815 0.29888
 C1172 C 0.42053 0.28995 0.27586
 C1173 C 0.44209 0.30918 0.29558
 C1174 C 0.45351 0.28849 0.30319
 C1175 C 0.45365 0.28031 0.28017
 C1176 C 0.44251 0.30084 0.27240
 H1177 H 0.42788 0.25281 0.27838
 H1178 H 0.42686 0.26802 0.32077
 H1179 H 0.40680 0.29060 0.26470
 H1180 H 0.44608 0.32570 0.30067
 H1181 H 0.46727 0.28777 0.31432
 H1182 H 0.44723 0.31032 0.25823
 C1183 C 0.45314 0.79048 0.80222
 C1184 C 0.44147 0.81103 0.79456
 C1185 C 0.41987 0.79979 0.79811
 C1186 C 0.43127 0.77941 0.80593
 C1187 C 0.41992 0.79146 0.77514
 C1188 C 0.44178 0.80252 0.77143
 C1189 C 0.45316 0.78215 0.77926
 C1190 C 0.43153 0.77099 0.78283
 H1191 H 0.46704 0.78995 0.81319
 H1192 H 0.44539 0.82762 0.79952
 H1193 H 0.42697 0.76976 0.82012
 H1194 H 0.40608 0.79188 0.76410
 H1195 H 0.44631 0.81193 0.75714
 H1196 H 0.42765 0.75441 0.77783
 C1197 C -0.05773 0.27252 0.80040
 C1198 C -0.05787 0.29579 0.80885
 C1199 C -0.07971 0.29937 0.79814
 C1200 C -0.07978 0.27626 0.78983
 C1201 C -0.06871 0.30725 0.77769
 C1202 C -0.04661 0.30352 0.78824
 C1203 C -0.04674 0.28040 0.77995
 C1204 C -0.06859 0.28400 0.76928
 H1205 H -0.05311 0.25810 0.80963
 H1206 H -0.05361 0.30072 0.82525
 H1207 H -0.09365 0.26519 0.79056
 H1208 H -0.07332 0.32160 0.76834
 H1209 H -0.03272 0.31456 0.78742
 H1210 H -0.07287 0.27902 0.75290
 C1211 C -0.04688 0.78898 0.30295
 C1212 C -0.05852 0.80946 0.29515
 C1213 C -0.08013 0.79825 0.29866
 C1214 C -0.06876 0.77791 0.30660
 C1215 C -0.07998 0.78981 0.27573
 C1216 C -0.05813 0.80089 0.27207
 C1217 C -0.04675 0.78057 0.28003
 C1218 C -0.06839 0.76938 0.28353
 H1219 H -0.03306 0.78855 0.31401
 H1220 H -0.05472 0.82608 0.30004
 H1221 H -0.07326 0.76845 0.32085
 H1222 H -0.09378 0.79020 0.26463
 H1223 H -0.05356 0.81026 0.25777
 H1224 H -0.07222 0.75276 0.27861
 C1225 C 0.54677 0.71112 0.30289
 C1226 C 0.55836 0.69050 0.29538
 C1227 C 0.58002 0.70171 0.29859
 C1228 C 0.56869 0.72218 0.30625
 C1229 C 0.57981 0.70983 0.27553
 C1230 C 0.55793 0.69876 0.27216
 C1231 C 0.54660 0.71922 0.27983
 C1232 C 0.56828 0.73040 0.28306
 H1233 H 0.53297 0.71172 0.31401
 H1234 H 0.55452 0.67396 0.30057
 H1235 H 0.57318 0.73185 0.32034
 H1236 H 0.59359 0.70924 0.26437
 H1237 H 0.55333 0.68918 0.25805
 H1238 H 0.57216 0.74693 0.27786
 C1239 C 0.56890 0.21612 0.76932
 C1240 C 0.58000 0.22393 0.78985
 C1241 C 0.58027 0.20078 0.79811
 C1242 C 0.56939 0.19282 0.77768
 C1243 C 0.55839 0.20398 0.80889
 C1244 C 0.55790 0.22728 0.80049
 C1245 C 0.54701 0.21932 0.78008
 C1246 C 0.54724 0.19617 0.78832
 H1247 H 0.57303 0.22126 0.75292
 H1248 H 0.59365 0.23528 0.79054
 H1249 H 0.57424 0.17859 0.76829
 H1250 H 0.55426 0.19889 0.82530
 H1251 H 0.55299 0.24154 0.80981
 H1252 H 0.53356 0.18488 0.78759
 C1253 C 1.06861 0.71701 0.76943
 C1254 C 1.07965 0.72482 0.79000
 C1255 C 1.07982 0.70167 0.79830
 C1256 C 1.06899 0.69373 0.77783
 C1257 C 1.05790 0.70495 0.80899
 C1258 C 1.05751 0.72824 0.80055
 C1259 C 1.04668 0.72028 0.78010
 C1260 C 1.04682 0.69714 0.78838
 H1261 H 1.07281 0.72211 0.75304
 H1262 H 1.09333 0.73612 0.79073
 H1263 H 1.07383 0.67947 0.76848
 H1264 H 1.05374 0.69988 0.82539
 H1265 H 1.05262 0.74253 0.80986
 H1266 H 1.03312 0.68587 0.78764
 C1267 C 1.04704 0.19764 0.28885
 C1268 C 1.06913 0.19419 0.27816
 C1269 C 1.08011 0.20203 0.29858
 C1270 C 1.05826 0.20534 0.30942
 C1271 C 1.07995 0.22522 0.29037
 C1272 C 1.06876 0.21750 0.26985
 C1273 C 1.04690 0.22081 0.28066
 C1274 C 1.05787 0.22867 0.30107
 H1275 H 1.03329 0.18643 0.28813
 H1276 H 1.07386 0.17997 0.26871
 H1277 H 1.05416 0.20019 0.32582
 H1278 H 1.09367 0.23647 0.29104
 H1279 H 1.07286 0.22268 0.25346
 H1280 H 1.05304 0.24294 0.31042
 C1281 C 0.56893 0.28227 0.73060
 C1282 C 0.58020 0.27467 0.71003
 C1283 C 0.58053 0.29792 0.70205
 C1284 C 0.56947 0.30566 0.72251
 C1285 C 0.55873 0.29490 0.69112
 C1286 C 0.55817 0.27149 0.69925
 C1287 C 0.54712 0.27925 0.71970
 C1288 C 0.54742 0.30250 0.71173
 H1289 H 0.57294 0.27689 0.74694
 H1290 H 0.59388 0.26333 0.70928
 H1291 H 0.57422 0.31975 0.73212
 H1292 H 0.55475 0.30020 0.67475
 H1293 H 0.55339 0.25735 0.68973
 H1294 H 0.53370 0.31380 0.71251
 C1295 C 0.54634 0.80237 0.21098
 C1296 C 0.56826 0.80622 0.22181
 C1297 C 0.57956 0.79840 0.20152
 C1298 C 0.55790 0.79469 0.19055
 C1299 C 0.57974 0.77527 0.20987
 C1300 C 0.56822 0.78296 0.23027
 C1301 C 0.54654 0.77925 0.21932
 C1302 C 0.55785 0.77142 0.19904
 H1303 H 0.53236 0.81335 0.21153
 H1304 H 0.57263 0.82059 0.23118
 H1305 H 0.55389 0.79967 0.17409
 H1306 H 0.59371 0.76427 0.20936
 H1307 H 0.57228 0.77797 0.24672
 H1308 H 0.55345 0.75701 0.18973
 C1309 C 1.05724 0.27244 0.19881
 C1310 C 1.05766 0.29582 0.19059
 C1311 C 1.07952 0.29898 0.20136
 C1312 C 1.07932 0.27575 0.20944
 C1313 C 1.06856 0.30676 0.22186
 C1314 C 1.04644 0.30346 0.21124
 C1315 C 1.04629 0.28024 0.21931
 C1316 C 1.06817 0.28340 0.23005
 H1317 H 1.05245 0.25826 0.18936
 H1318 H 1.05358 0.30105 0.17422
 H1319 H 1.09303 0.26445 0.20865
 H1320 H 1.07331 0.32092 0.23137
 H1321 H 1.03271 0.31472 0.21203
 H1322 H 1.07230 0.27811 0.24639
 C1323 C 1.06773 0.78394 0.73035
 C1324 C 1.07917 0.77626 0.70992
 C1325 C 1.07927 0.79943 0.70170
 C1326 C 1.06802 0.80725 0.72203
 C1327 C 1.05756 0.79603 0.69070
 C1328 C 1.05725 0.77271 0.69906
 C1329 C 1.04601 0.78052 0.71939
 C1330 C 1.04604 0.80369 0.71119
 H1331 H 1.07170 0.77879 0.74677
 H1332 H 1.09298 0.76507 0.70936
 H1333 H 1.07256 0.82152 0.73148
 H1334 H 1.05362 0.80113 0.67426
 H1335 H 1.05270 0.75842 0.68963
 H1336 H 1.03219 0.81484 0.71176
 C1337 C 0.43088 0.73180 0.71719
 C1338 C 0.43048 0.72336 0.69409
 C1339 C 0.41933 0.70291 0.70201
 C1340 C 0.41952 0.71124 0.72498
 C1341 C 0.44108 0.69183 0.70531
 C1342 C 0.45248 0.71242 0.69752
 C1343 C 0.45265 0.72075 0.72048
 C1344 C 0.44151 0.70031 0.72843
 H1345 H 0.42685 0.74835 0.72222
 H1346 H 0.42584 0.73286 0.67991
 H1347 H 0.40577 0.71068 0.73617
 H1348 H 0.44509 0.67527 0.70033
 H1349 H 0.46626 0.71302 0.68637
 H1350 H 0.44624 0.69092 0.74267
 C1351 C 0.43150 0.23061 0.21654
 C1352 C 0.43136 0.22251 0.19331
 C1353 C 0.42048 0.20177 0.20087
 C1354 C 0.42041 0.20977 0.22396
 C1355 C 0.44238 0.19098 0.20414
 C1356 C 0.45351 0.21186 0.19673
 C1357 C 0.45341 0.21985 0.21981
 C1358 C 0.44254 0.19912 0.22738
 H1359 H 0.42719 0.24703 0.22177
 H1360 H 0.42665 0.23214 0.17924
 H1361 H 0.40662 0.20884 0.23506
 H1362 H 0.44663 0.17455 0.19893
 H1363 H 0.46731 0.21281 0.18562
 H1364 H 0.44731 0.18957 0.24149
 C1365 C -0.06891 0.73198 0.21728
 C1366 C -0.06957 0.72367 0.19414
 C1367 C -0.08079 0.70325 0.20206
 C1368 C -0.08034 0.71146 0.22506
 C1369 C -0.05907 0.69202 0.20512
 C1370 C -0.04760 0.71258 0.19733
 C1371 C -0.04718 0.72077 0.22033
 C1372 C -0.05840 0.70037 0.22827
 H1373 H -0.07279 0.74853 0.22242
 H1374 H -0.07430 0.73328 0.18006
 H1375 H -0.09400 0.71095 0.23636
 H1376 H -0.05523 0.67544 0.20005
 H1377 H -0.03393 0.71312 0.18605
 H1378 H -0.05365 0.69087 0.24242
 C1379 C -0.05767 0.19919 0.72769
 C1380 C -0.07961 0.21007 0.72382
 C1381 C -0.07947 0.20149 0.70094
 C1382 C -0.05776 0.19047 0.70466
 C1383 C -0.06822 0.22186 0.69296
 C1384 C -0.06816 0.23055 0.71597
 C1385 C -0.04643 0.21956 0.71969
 C1386 C -0.04625 0.21100 0.69682
 H1387 H -0.05312 0.18994 0.74207
 H1388 H -0.09350 0.20962 0.73484
 H1389 H -0.05368 0.17385 0.69990
 H1390 H -0.07265 0.23121 0.67861
 H1391 H -0.07227 0.24716 0.72073
 H1392 H -0.03235 0.21146 0.68582
 C1393 C 0.30319 0.45383 0.28860
 C1394 C 0.29546 0.44251 0.30917
 C1395 C 0.29894 0.42073 0.29834
 C1396 C 0.30683 0.43178 0.27793
 C1397 C 0.27578 0.42079 0.29010
 C1398 C 0.27215 0.44278 0.30078
 C1399 C 0.28003 0.45382 0.28037
 C1400 C 0.28354 0.43203 0.26958
 H1401 H 0.31431 0.46766 0.28789
 H1402 H 0.30046 0.44663 0.32559
 H1403 H 0.32116 0.42716 0.26854
 H1404 H 0.26460 0.40701 0.29077
 H1405 H 0.25778 0.44746 0.31010
 H1406 H 0.27848 0.42791 0.25319
 C1407 C 0.30153 -0.05808 0.77278
 C1408 C 0.30979 -0.05848 0.79598
 C1409 C 0.29878 -0.08023 0.79920
 C1410 C 0.29067 -0.08007 0.77616
 C1411 C 0.27816 -0.06918 0.80693
 C1412 C 0.28900 -0.04714 0.80353
 C1413 C 0.28091 -0.04701 0.78048
 C1414 C 0.26995 -0.06879 0.78373
 H1415 H 0.31106 -0.05335 0.75863
 H1416 H 0.32629 -0.05443 0.80115
 H1417 H 0.29142 -0.09380 0.76501
 H1418 H 0.26847 -0.07379 0.82100
 H1419 H 0.28817 -0.03341 0.81468
 H1420 H 0.25346 -0.07287 0.77857
 C1421 C 0.78335 0.43183 0.77024
 C1422 C 0.80675 0.43127 0.77828
 C1423 C 0.79896 0.42025 0.79875
 C1424 C 0.77571 0.42060 0.79081
 C1425 C 0.79591 0.44203 0.80972
 C1426 C 0.80352 0.45332 0.78907
 C1427 C 0.78026 0.45363 0.78113
 C1428 C 0.77249 0.44261 0.80161
 H1429 H 0.77801 0.42778 0.75391
 H1430 H 0.82087 0.42658 0.76861
 H1431 H 0.76440 0.40693 0.79159
 H1432 H 0.80117 0.44609 0.82607
 H1433 H 0.81476 0.46705 0.78821
 H1434 H 0.75829 0.44742 0.81110
 C1435 C 0.78359 -0.06895 0.26949
 C1436 C 0.80700 -0.06932 0.27757
 C1437 C 0.79926 -0.08021 0.29812
 C1438 C 0.77601 -0.08011 0.29014
 C1439 C 0.79604 -0.05839 0.30891
 C1440 C 0.80362 -0.04722 0.28821
 C1441 C 0.78037 -0.04710 0.28026
 C1442 C 0.77263 -0.05803 0.30078
 H1443 H 0.77828 -0.07307 0.25317
 H1444 H 0.82116 -0.07403 0.26796
 H1445 H 0.76474 -0.09382 0.29096
 H1446 H 0.80128 -0.05424 0.32524
 H1447 H 0.81481 -0.03347 0.28730
 H1448 H 0.75841 -0.05322 0.31024
 C1449 C 0.27254 0.55746 0.69971
 C1450 C 0.27563 0.57954 0.71036
 C1451 C 0.29893 0.57985 0.70245
 C1452 C 0.29599 0.55798 0.69168
 C1453 C 0.30662 0.56898 0.72303
 C1454 C 0.28317 0.56844 0.73104
 C1455 C 0.28023 0.54657 0.72027
 C1456 C 0.30353 0.54685 0.71240
 H1457 H 0.25843 0.55259 0.69018
 H1458 H 0.26426 0.59318 0.70946
 H1459 H 0.30137 0.55386 0.67538
 H1460 H 0.32069 0.57384 0.73263
 H1461 H 0.27772 0.57258 0.74733
 H1462 H 0.31485 0.53317 0.71335
 C1463 C 0.27002 1.06846 0.21786
 C1464 C 0.29083 1.07959 0.22527
 C1465 C 0.29871 1.07994 0.20213
 C1466 C 0.27801 1.06902 0.19459
 C1467 C 0.30970 1.05809 0.20504
 C1468 C 0.30166 1.05750 0.22834
 C1469 C 0.28097 1.04660 0.22077
 C1470 C 0.28885 1.04693 0.19764
 H1471 H 0.25357 1.07247 0.22330
 H1472 H 0.29172 1.09324 0.23650
 H1473 H 0.26824 1.07384 0.18066
 H1474 H 0.32615 1.05409 0.19963
 H1475 H 0.31129 1.05256 0.24233
 H1476 H 0.28791 1.03323 0.18646
 C1477 C 0.77241 0.55766 0.19908
 C1478 C 0.77588 0.57965 0.20981
 C1479 C 0.79917 0.57961 0.20186
 C1480 C 0.79584 0.55784 0.19100
 C1481 C 0.80673 0.56854 0.22237
 C1482 C 0.78329 0.56837 0.23043
 C1483 C 0.77996 0.54659 0.21958
 C1484 C 0.80325 0.54651 0.21166
 H1485 H 0.75819 0.55305 0.18958
 H1486 H 0.76473 0.59348 0.20900
 H1487 H 0.80112 0.55368 0.17467
 H1488 H 0.82089 0.57316 0.23196
 H1489 H 0.77795 0.57252 0.24675
 H1490 H 0.81435 0.53264 0.21254
 C1491 C 0.76926 1.06869 0.71784
 C1492 C 0.78982 1.08008 0.72549
 C1493 C 0.79802 1.08044 0.70245
 C1494 C 0.77755 1.06924 0.69467
 C1495 C 0.80922 1.05873 0.70559
 C1496 C 0.80087 1.05814 0.72879
 C1497 C 0.78041 1.04697 0.72098
 C1498 C 0.78861 1.04729 0.69796
 H1499 H 0.75270 1.07258 0.72302
 H1500 H 0.79036 1.09375 0.73672
 H1501 H 0.76791 1.07388 0.68060
 H1502 H 0.82578 1.05485 0.70044
 H1503 H 0.81040 1.05337 0.74291
 H1504 H 0.78803 1.03358 0.68678
 C1505 C 0.73032 0.56813 0.28356
 C1506 C 0.70977 0.57980 0.27615
 C1507 C 0.70147 0.57949 0.29917
 C1508 C 0.72193 0.56804 0.30671
 C1509 C 0.69032 0.55791 0.29539
 C1510 C 0.69875 0.55799 0.27222
 C1511 C 0.71919 0.54653 0.27978
 C1512 C 0.71091 0.54620 0.30279
 H1513 H 0.74689 0.57219 0.27855
 H1514 H 0.70921 0.59381 0.26530
 H1515 H 0.73148 0.57224 0.32096
 H1516 H 0.67374 0.55389 0.30037
 H1517 H 0.68928 0.55371 0.25794
 H1518 H 0.71148 0.53216 0.31360
 C1519 C 0.69675 1.05512 0.77579
 C1520 C 0.69338 1.05791 0.80005
 C1521 C 0.70233 1.08074 0.79836
 C1522 C 0.70553 1.07824 0.77427
 C1523 C 0.72518 1.07261 0.80265
 C1524 C 0.71639 1.04949 0.80419
 C1525 C 0.71958 1.04696 0.78011
 C1526 C 0.72848 1.06984 0.77843
 H1527 H 0.68513 1.04767 0.76471
 H1528 H 0.67886 1.05323 0.80912
 H1529 H 0.70093 1.09023 0.76207
 H1530 H 0.73697 1.07995 0.81361
 H1531 H 0.72102 1.03749 0.81637
 H1532 H 0.74298 1.07453 0.76932
 C1533 C 0.22793 0.55722 0.80092
 C1534 C 0.22469 0.57928 0.79020
 C1535 C 0.20147 0.57964 0.79836
 C1536 C 0.20457 0.55780 0.80922
 C1537 C 0.19358 0.56873 0.77793
 C1538 C 0.21693 0.56816 0.76967
 C1539 C 0.22003 0.54630 0.78050
 C1540 C 0.19682 0.54662 0.78864
 H1541 H 0.24214 0.55231 0.81034
 H1542 H 0.23607 0.59289 0.79090
 H1543 H 0.19936 0.55378 0.82561
 H1544 H 0.17939 0.57359 0.76847
 H1545 H 0.22217 0.57221 0.75329
 H1546 H 0.18547 0.53299 0.78793
 C1547 C 0.22862 1.05767 0.30087
 C1548 C 0.22460 1.07954 0.29000
 C1549 C 0.20159 1.07949 0.29873
 C1550 C 0.20546 1.05785 0.30975
 C1551 C 0.19343 1.06816 0.27863
 C1552 C 0.21657 1.06801 0.26979
 C1553 C 0.22044 1.04635 0.28078
 C1554 C 0.19744 1.04626 0.28950
 H1555 H 0.24319 1.05321 0.30995
 H1556 H 0.23565 1.09344 0.29025
 H1557 H 0.20075 1.05388 0.32631
 H1558 H 0.17890 1.07256 0.26947
 H1559 H 0.22127 1.07202 0.25324
 H1560 H 0.18642 1.03235 0.28920
 C1561 C 0.69725 0.45280 0.71269
 C1562 C 0.70501 0.44171 0.69204
 C1563 C 0.70212 0.41983 0.70286
 C1564 C 0.69421 0.43066 0.72337
 C1565 C 0.72536 0.42028 0.71087
 C1566 C 0.72840 0.44238 0.70018
 C1567 C 0.72048 0.45322 0.72067
 C1568 C 0.71759 0.43133 0.73148
 H1569 H 0.68583 0.46641 0.71353
 H1570 H 0.69974 0.44580 0.67569
 H1571 H 0.68010 0.42574 0.73294
 H1572 H 0.73684 0.40672 0.71007
 H1573 H 0.74254 0.44736 0.69070
 H1574 H 0.72293 0.42725 0.74782
 C1575 C 0.72819 -0.05802 0.19992
 C1576 C 0.72467 -0.07998 0.21074
 C1577 C 0.70150 -0.08010 0.20252
 C1578 C 0.70487 -0.05835 0.19157
 C1579 C 0.69359 -0.06899 0.22288
 C1580 C 0.71690 -0.06866 0.23120
 C1581 C 0.72027 -0.04691 0.22026
 C1582 C 0.69710 -0.04698 0.21207
 H1583 H 0.74251 -0.05334 0.19054
 H1584 H 0.73592 -0.09374 0.21015
 H1585 H 0.69980 -0.05429 0.17515
 H1586 H 0.67930 -0.07360 0.23234
 H1587 H 0.72202 -0.07270 0.24761
 H1588 H 0.68592 -0.03317 0.21272
 C1589 C 0.21159 0.45324 0.19702
 C1590 C 0.22266 0.43131 0.19359
 C1591 C 0.20223 0.42004 0.20146
 C1592 C 0.19102 0.44171 0.20475
 C1593 C 0.21052 0.42028 0.22445
 C1594 C 0.23104 0.43175 0.21670
 C1595 C 0.21985 0.45343 0.22000
 C1596 C 0.19944 0.44217 0.22789
 H1597 H 0.21213 0.46700 0.18586
 H1598 H 0.23225 0.42675 0.17944
 H1599 H 0.17444 0.44560 0.19970
 H1600 H 0.21007 0.40654 0.23564
 H1601 H 0.24763 0.42786 0.22174
 H1602 H 0.18995 0.44682 0.24208
 C1603 C 0.23137 -0.06887 0.71727
 C1604 C 0.21040 -0.07977 0.72462
 C1605 C 0.20272 -0.08014 0.70143
 C1606 C 0.22359 -0.06943 0.69395
 C1607 C 0.19191 -0.05818 0.70413
 C1608 C 0.19972 -0.05759 0.72748
 C1609 C 0.22059 -0.04691 0.72000
 C1610 C 0.21294 -0.04722 0.69681
 H1611 H 0.24774 -0.07295 0.72283
 H1612 H 0.20927 -0.09336 0.73593
 H1613 H 0.23342 -0.07444 0.68011
 H1614 H 0.17555 -0.05407 0.69856
 H1615 H 0.18997 -0.05249 0.74135
 H1616 H 0.21413 -0.03359 0.68553
 C1617 C 0.29981 0.27187 0.44203
 C1618 C 0.28873 0.27525 0.42030
 C1619 C 0.29707 0.29839 0.41986
 C1620 C 0.30828 0.29515 0.44137
 C1621 C 0.27666 0.30641 0.43106
 C1622 C 0.26822 0.28314 0.43172
 C1623 C 0.27943 0.27991 0.45324
 C1624 C 0.28774 0.30303 0.45283
 H1625 H 0.30926 0.25757 0.44670
 H1626 H 0.28916 0.26390 0.40675
 H1627 H 0.32488 0.30017 0.44515
 H1628 H 0.26710 0.32066 0.42644
 H1629 H 0.25162 0.27805 0.42796
 H1630 H 0.28723 0.31433 0.46641
 C1631 C 0.30297 0.78905 -0.04728
 C1632 C 0.30655 0.77784 -0.06895
 C1633 C 0.29865 0.79816 -0.08034
 C1634 C 0.29520 0.80951 -0.05893
 C1635 C 0.27548 0.78986 -0.08007
 C1636 C 0.28325 0.76944 -0.06846
 C1637 C 0.27981 0.78077 -0.04703
 C1638 C 0.27189 0.80107 -0.05843
 H1639 H 0.31411 0.78863 -0.03357
 H1640 H 0.32084 0.76823 -0.07336
 H1641 H 0.30024 0.82611 -0.05521
 H1642 H 0.26427 0.79020 -0.09374
 H1643 H 0.27818 0.75284 -0.07216
 H1644 H 0.25754 0.81057 -0.05396
 C1645 C 0.77110 0.30160 -0.05805
 C1646 C 0.79443 0.31000 -0.05856
 C1647 C 0.79775 0.29891 -0.08011
 C1648 C 0.77458 0.29065 -0.07984
 C1649 C 0.80566 0.27844 -0.06899
 C1650 C 0.80221 0.28940 -0.04719
 C1651 C 0.77905 0.28115 -0.04693
 C1652 C 0.78236 0.27007 -0.06851
 H1653 H 0.75681 0.31112 -0.05342
 H1654 H 0.79953 0.32657 -0.05477
 H1655 H 0.76332 0.29122 -0.09346
 H1656 H 0.81991 0.26890 -0.07365
 H1657 H 0.81352 0.28884 -0.03360
 H1658 H 0.77726 0.25353 -0.07245
 C1659 C 0.76864 0.78392 0.43198
 C1660 C 0.77705 0.80720 0.43144
 C1661 C 0.79743 0.79925 0.42015
 C1662 C 0.78912 0.77611 0.42048
 C1663 C 0.80871 0.79590 0.44161
 C1664 C 0.78819 0.80371 0.45316
 C1665 C 0.77990 0.78057 0.45346
 C1666 C 0.80026 0.77261 0.44216
 H1667 H 0.75204 0.77886 0.42820
 H1668 H 0.76749 0.82147 0.42690
 H1669 H 0.78954 0.76487 0.40684
 H1670 H 0.82532 0.80093 0.44534
 H1671 H 0.78772 0.81493 0.46681
 H1672 H 0.80975 0.75829 0.44671
 C1673 C 0.69948 0.27236 0.55779
 C1674 C 0.71054 0.27569 0.57952
 C1675 C 0.70240 0.29891 0.57981
 C1676 C 0.69120 0.29574 0.55830
 C1677 C 0.72289 0.30668 0.56862
 C1678 C 0.73113 0.28333 0.56812
 C1679 C 0.71995 0.28016 0.54660
 C1680 C 0.71183 0.30337 0.54685
 H1681 H 0.68992 0.25815 0.55318
 H1682 H 0.70996 0.26442 0.59316
 H1683 H 0.67465 0.30097 0.55447
 H1684 H 0.73252 0.32085 0.57319
 H1685 H 0.74767 0.27805 0.57198
 H1686 H 0.71246 0.31460 0.53319
 C1687 C 0.73089 0.78289 1.06853
 C1688 C 0.72251 0.80620 1.06897
 C1689 C 0.70210 0.79834 1.08023
 C1690 C 0.71038 0.77517 1.08002
 C1691 C 0.69086 0.79502 1.05877
 C1692 C 0.71141 0.80274 1.04724
 C1693 C 0.71967 0.77958 1.04705
 C1694 C 0.69928 0.77170 1.05832
 H1695 H 0.74747 0.77772 1.07235
 H1696 H 0.73208 0.82044 1.07345
 H1697 H 0.70991 0.76397 1.09371
 H1698 H 0.67427 0.80016 1.05499
 H1699 H 0.71193 0.81392 1.03354
 H1700 H 0.68977 0.75741 1.05381
 C1701 C 0.21167 0.30302 1.04698
 C1702 C 0.19099 0.29533 1.05832
 C1703 C 0.20216 0.29823 1.07987
 C1704 C 0.22270 0.30607 1.06880
 C1705 C 0.21024 0.27500 1.07937
 C1706 C 0.19920 0.27194 1.05758
 C1707 C 0.21972 0.27979 1.04650
 C1708 C 0.23087 0.28269 1.06807
 H1709 H 0.21238 0.31434 1.03340
 H1710 H 0.17446 0.30068 1.05459
 H1711 H 0.23238 0.32016 1.07353
 H1712 H 0.20960 0.26364 1.09293
 H1713 H 0.18962 0.25780 1.05279
 H1714 H 0.24740 0.27731 1.07181
 C1715 C 0.19884 0.77104 0.55794
 C1716 C 0.20996 0.77423 0.57968
 C1717 C 0.20174 0.79743 0.58018
 C1718 C 0.19048 0.79439 0.55868
 C1719 C 0.22217 0.80534 0.56897
 C1720 C 0.23048 0.78203 0.56827
 C1721 C 0.21926 0.77900 0.54675
 C1722 C 0.21105 0.80218 0.54723
 H1723 H 0.18931 0.75683 0.55326
 H1724 H 0.20948 0.76285 0.59324
 H1725 H 0.17390 0.79960 0.55496
 H1726 H 0.23182 0.81949 0.57358
 H1727 H 0.24705 0.77677 0.57202
 H1728 H 0.21158 0.81353 0.53365
 C1729 C 0.28851 0.69669 0.54672
 C1730 C 0.30911 0.70442 0.55806
 C1731 C 0.29794 0.70122 0.57962
 C1732 C 0.27748 0.69334 0.56854
 C1733 C 0.28970 0.72440 0.57928
 C1734 C 0.30073 0.72775 0.55750
 C1735 C 0.28028 0.71986 0.54642
 C1736 C 0.26914 0.71667 0.56799
 H1737 H 0.28790 0.68547 0.53307
 H1738 H 0.32569 0.69922 0.55425
 H1739 H 0.26794 0.67913 0.57327
 H1740 H 0.29027 0.73566 0.59290
 H1741 H 0.31020 0.74200 0.55273
 H1742 H 0.25258 0.72192 0.57183
 C1743 C 0.28803 0.19709 1.04733
 C1744 C 0.30859 0.20490 1.05870
 C1745 C 0.29728 0.20201 1.08024
 C1746 C 0.27686 0.19406 1.06912
 C1747 C 0.28911 0.22521 1.07956
 C1748 C 0.30029 0.22825 1.05781
 C1749 C 0.27989 0.22029 1.04668
 C1750 C 0.26859 0.21740 1.06823
 H1751 H 0.28750 0.18567 1.03385
 H1752 H 0.32516 0.19962 1.05502
 H1753 H 0.26720 0.17995 1.07389
 H1754 H 0.28958 0.23666 1.09303
 H1755 H 0.30988 0.24240 1.05301
 H1756 H 0.25202 0.22270 1.07195
 C1757 C 0.78911 0.69673 1.04640
 C1758 C 0.80935 0.70487 1.05813
 C1759 C 0.79804 0.70094 1.07949
 C1760 C 0.77796 0.69265 1.06804
 C1761 C 0.78909 0.72386 1.07948
 C1762 C 0.80027 0.72795 1.05789
 C1763 C 0.78020 0.71966 1.04643
 C1764 C 0.76891 0.71572 1.06781
 H1765 H 0.78902 0.68576 1.03255
 H1766 H 0.82612 0.70022 1.05448
 H1767 H 0.76884 0.67806 1.07241
 H1768 H 0.78915 0.73482 1.09335
 H1769 H 0.80937 0.74257 1.05354
 H1770 H 0.75215 0.72037 1.07155
 C1771 C 0.76935 0.21765 0.56813
 C1772 C 0.77720 0.19417 0.56890
 C1773 C 0.79796 0.20175 0.57965
 C1774 C 0.79020 0.22509 0.57910
 C1775 C 0.80894 0.20443 0.55793
 C1776 C 0.78805 0.19699 0.54692
 C1777 C 0.78032 0.22033 0.54639
 C1778 C 0.80105 0.22793 0.55715
 H1779 H 0.75294 0.22328 0.57207
 H1780 H 0.76740 0.18023 0.57388
 H1781 H 0.79116 0.23647 0.59260
 H1782 H 0.82536 0.19881 0.55403
 H1783 H 0.78704 0.18562 0.53342
 H1784 H 0.81079 0.24191 0.55214
 C1785 C 0.71675 0.73129 0.43249
 C1786 C 0.72480 0.71086 0.42111
 C1787 C 0.70173 0.70234 0.42081
 C1788 C 0.69354 0.72266 0.43198
 C1789 C 0.70510 0.69117 0.44234
 C1790 C 0.72832 0.69984 0.44286
 C1791 C 0.72013 0.72015 0.45403
 C1792 C 0.69706 0.71164 0.45377
 H1793 H 0.72166 0.74792 0.42864
 H1794 H 0.73610 0.71050 0.40748
 H1795 H 0.67918 0.73207 0.42741
 H1796 H 0.70020 0.67454 0.44616
 H1797 H 0.74272 0.69050 0.44749
 H1798 H 0.68579 0.71205 0.46742
 C1799 C 0.69924 0.22796 -0.05778
 C1800 C 0.71039 0.22476 -0.07953
 C1801 C 0.70238 0.20151 -0.07992
 C1802 C 0.69109 0.20457 -0.05839
 C1803 C 0.72288 0.19376 -0.06874
 C1804 C 0.73098 0.21714 -0.06815
 C1805 C 0.71972 0.22020 -0.04661
 C1806 C 0.71174 0.19696 -0.04695
 H1807 H 0.68959 0.24212 -0.05309
 H1808 H 0.70981 0.23612 -0.09309
 H1809 H 0.67456 0.19931 -0.05456
 H1810 H 0.73264 0.17964 -0.07335
 H1811 H 0.74751 0.22243 -0.07197
 H1812 H 0.71238 0.18566 -0.03335
 C1813 C 0.19943 0.72848 -0.05794
 C1814 C 0.21049 0.72481 -0.07966
 C1815 C 0.20207 0.70171 -0.07975
 C1816 C 0.19089 0.70522 -0.05824
 C1817 C 0.22246 0.69375 -0.06852
 C1818 C 0.23097 0.71699 -0.06822
 C1819 C 0.21980 0.72050 -0.04670
 C1820 C 0.21142 0.69740 -0.04676
 H1821 H 0.19002 0.74286 -0.05343
 H1822 H 0.21006 0.73599 -0.09338
 H1823 H 0.17427 0.70028 -0.05432
 H1824 H 0.23197 0.67941 -0.07296
 H1825 H 0.24758 0.72195 -0.07215
 H1826 H 0.21190 0.68627 -0.03301
 C1827 C 0.19929 0.22796 0.44254
 C1828 C 0.21051 0.22473 0.42084
 C1829 C 0.20225 0.20158 0.42032
 C1830 C 0.19089 0.20466 0.44180
 C1831 C 0.22260 0.19354 0.43155
 C1832 C 0.23096 0.21682 0.43228
 C1833 C 0.21963 0.21991 0.45378
 C1834 C 0.21139 0.19677 0.45330
 H1835 H 0.18973 0.24220 0.44721
 H1836 H 0.21011 0.23611 0.40729
 H1837 H 0.17428 0.19954 0.44549
 H1838 H 0.23220 0.17933 0.42691
 H1839 H 0.24756 0.22196 0.42853
 H1840 H 0.21182 0.18539 0.46685
 C1841 C 0.30020 0.44163 0.72762
 C1842 C 0.28908 0.41980 0.72410
 C1843 C 0.29748 0.41957 0.70112
 C1844 C 0.30873 0.44119 0.70450
 C1845 C 0.27712 0.43098 0.69326
 C1846 C 0.26862 0.43141 0.71637
 C1847 C 0.27985 0.45304 0.71974
 C1848 C 0.28822 0.45284 0.69677
 H1849 H 0.30962 0.44617 0.74186
 H1850 H 0.28948 0.40603 0.73526
 H1851 H 0.32535 0.44500 0.69952
 H1852 H 0.26761 0.42649 0.67907
 H1853 H 0.25201 0.42757 0.72138
 H1854 H 0.28777 0.46662 0.68563
 C1855 C 0.27156 0.94234 0.19879
 C1856 C 0.29491 0.94168 0.19045
 C1857 C 0.29798 0.91984 0.20133
 C1858 C 0.27477 0.92027 0.20952
 C1859 C 0.30593 0.93077 0.22174
 C1860 C 0.30274 0.95286 0.21100
 C1861 C 0.27955 0.95327 0.21918
 C1862 C 0.28260 0.93142 0.23003
 H1863 H 0.25734 0.94727 0.18940
 H1864 H 0.30009 0.94563 0.17403
 H1865 H 0.26335 0.90669 0.20892
 H1866 H 0.32008 0.92591 0.23124
 H1867 H 0.31412 0.96647 0.21165
 H1868 H 0.27735 0.92745 0.24643
 C1869 C 0.77121 0.44244 0.19831
 C1870 C 0.79462 0.44172 0.19014
 C1871 C 0.79759 0.41991 0.20113
 C1872 C 0.77432 0.42041 0.20915
 C1873 C 0.80540 0.43092 0.22155
 C1874 C 0.80230 0.45299 0.21070
 C1875 C 0.77904 0.45344 0.21871
 C1876 C 0.78201 0.43162 0.22967
 H1877 H 0.75709 0.44733 0.18877
 H1878 H 0.79994 0.44562 0.17375
 H1879 H 0.76290 0.40683 0.20847
 H1880 H 0.81951 0.42609 0.23114
 H1881 H 0.81367 0.46660 0.21139
 H1882 H 0.77666 0.42768 0.24604
 C1883 C 0.80033 0.94242 0.72791
 C1884 C 0.78915 0.92064 0.72432
 C1885 C 0.79760 0.92047 0.70138
 C1886 C 0.80892 0.94202 0.70481
 C1887 C 0.77730 0.93193 0.69346
 C1888 C 0.76876 0.93232 0.71654
 C1889 C 0.78004 0.95389 0.71999
 C1890 C 0.78847 0.95375 0.69704
 H1891 H 0.80972 0.94693 0.74218
 H1892 H 0.78950 0.90684 0.73543
 H1893 H 0.82557 0.94576 0.69988
 H1894 H 0.76783 0.92748 0.67923
 H1895 H 0.75212 0.92851 0.72151
 H1896 H 0.78810 0.96757 0.68595
 C1897 C 0.69909 0.55758 0.72839
 C1898 C 0.70987 0.57961 0.72498
 C1899 C 0.70171 0.57977 0.70195
 C1900 C 0.69080 0.55797 0.70520
 C1901 C 0.72235 0.56875 0.69422
 C1902 C 0.73061 0.56838 0.71739
 C1903 C 0.71972 0.54656 0.72064
 C1904 C 0.71158 0.54669 0.69761
 H1905 H 0.68958 0.55280 0.74253
 H1906 H 0.70912 0.59331 0.73618
 H1907 H 0.67430 0.55394 0.70008
 H1908 H 0.73197 0.57344 0.68012
 H1909 H 0.74711 0.57244 0.72254
 H1910 H 0.71237 0.53298 0.68645
 C1911 C 0.69971 0.05696 0.22714
 C1912 C 0.71052 0.07894 0.22352
 C1913 C 0.70231 0.07891 0.20050
 C1914 C 0.69138 0.05715 0.20396
 C1915 C 0.72291 0.06780 0.19281
 C1916 C 0.73122 0.06763 0.21597
 C1917 C 0.72031 0.04587 0.21946
 C1918 C 0.71213 0.04578 0.19643
 H1919 H 0.69019 0.05230 0.24131
 H1920 H 0.70980 0.09272 0.23460
 H1921 H 0.67486 0.05312 0.19887
 H1922 H 0.73247 0.07237 0.17863
 H1923 H 0.74775 0.07170 0.22102
 H1924 H 0.71285 0.03197 0.18538
 C1925 C 0.22746 0.55756 0.19913
 C1926 C 0.20416 0.55788 0.19072
 C1927 C 0.20073 0.57968 0.20150
 C1928 C 0.22388 0.57959 0.20978
 C1929 C 0.19279 0.56868 0.22192
 C1930 C 0.19637 0.54661 0.21129
 C1931 C 0.21952 0.54655 0.21954
 C1932 C 0.21608 0.56837 0.23030
 H1933 H 0.24180 0.55282 0.18980
 H1934 H 0.19914 0.55380 0.17431
 H1935 H 0.23511 0.59333 0.20912
 H1936 H 0.17848 0.57339 0.23130
 H1937 H 0.18517 0.53285 0.21198
 H1938 H 0.22112 0.57247 0.24671
 C1939 C 0.22891 0.05705 0.69908
 C1940 C 0.20552 0.05759 0.69092
 C1941 C 0.20239 0.07938 0.70182
 C1942 C 0.22563 0.07908 0.70984
 C1943 C 0.19458 0.06838 0.72228
 C1944 C 0.19785 0.04633 0.71153
 C1945 C 0.22108 0.04605 0.71954
 C1946 C 0.21795 0.06786 0.73040
 H1947 H 0.24311 0.05222 0.68959
 H1948 H 0.20029 0.05365 0.67454
 H1949 H 0.23696 0.09273 0.70910
 H1950 H 0.18042 0.07316 0.73185
 H1951 H 0.18655 0.03265 0.71229
 H1952 H 0.22323 0.07185 0.74676
 C1953 C 0.26885 0.56838 0.28340
 C1954 C 0.27730 0.56851 0.30650
 C1955 C 0.29776 0.57976 0.29870
 C1956 C 0.28941 0.57983 0.27573
 C1957 C 0.30886 0.55807 0.29513
 C1958 C 0.28825 0.54657 0.30279
 C1959 C 0.27992 0.54669 0.27983
 C1960 C 0.30037 0.55792 0.27202
 H1961 H 0.25227 0.57240 0.27843
 H1962 H 0.26777 0.57294 0.32074
 H1963 H 0.28993 0.59367 0.26467
 H1964 H 0.32544 0.55401 0.30006
 H1965 H 0.28767 0.53266 0.31376
 H1966 H 0.30977 0.55336 0.25773
 C1967 C 0.28378 0.06821 0.76861
 C1968 C 0.27585 0.07950 0.78903
 C1969 C 0.29902 0.08003 0.79724
 C1970 C 0.30710 0.06896 0.77691
 C1971 C 0.29601 0.05826 0.80827
 C1972 C 0.27270 0.05753 0.79994
 C1973 C 0.28077 0.04644 0.77964
 C1974 C 0.30394 0.04693 0.78781
 H1975 H 0.27856 0.07207 0.75218
 H1976 H 0.26435 0.09306 0.78958
 H1977 H 0.32129 0.07376 0.76741
 H1978 H 0.30113 0.05433 0.82470
 H1979 H 0.25848 0.05266 0.80937
 H1980 H 0.31532 0.03329 0.78721
 C1981 C 0.76897 0.56835 0.78417
 C1982 C 0.77741 0.56864 0.80728
 C1983 C 0.79785 0.57990 0.79941
 C1984 C 0.78950 0.57980 0.77645
 C1985 C 0.80900 0.55822 0.79599
 C1986 C 0.78842 0.54670 0.80370
 C1987 C 0.78009 0.54665 0.78074
 C1988 C 0.80052 0.55790 0.77287
 H1989 H 0.75239 0.57232 0.77918
 H1990 H 0.76789 0.57317 0.82148
 H1991 H 0.79001 0.59360 0.76533
 H1992 H 0.82559 0.55427 0.80097
 H1993 H 0.78788 0.53289 0.81480
 H1994 H 0.80997 0.55331 0.75863
 C1995 C 0.78381 0.06772 0.27009
 C1996 C 0.77597 0.07895 0.29056
 C1997 C 0.79911 0.07904 0.29887
 C1998 C 0.80708 0.06798 0.27850
 C1999 C 0.79566 0.05723 0.30973
 C2000 C 0.77238 0.05694 0.30126
 C2001 C 0.78035 0.04592 0.28089
 C2002 C 0.80348 0.04591 0.28920
 H2003 H 0.77877 0.07183 0.25367
 H2004 H 0.76469 0.09269 0.29117
 H2005 H 0.82141 0.07258 0.26911
 H2006 H 0.80060 0.05308 0.32617
 H2007 H 0.75801 0.05225 0.31056
 H2008 H 0.81465 0.03208 0.28857
 C2009 C 0.69897 0.44150 0.27067
 C2010 C 0.71035 0.41991 0.27500
 C2011 C 0.70128 0.42001 0.29774
 C2012 C 0.68975 0.44137 0.29354
 C2013 C 0.72120 0.43188 0.30593
 C2014 C 0.73036 0.43197 0.28307
 C2015 C 0.71887 0.45335 0.27889
 C2016 C 0.70982 0.45348 0.30160
 H2017 H 0.68992 0.44564 0.25606
 H2018 H 0.71054 0.40593 0.26414
 H2019 H 0.67293 0.44506 0.29794
 H2020 H 0.73039 0.42786 0.32048
 H2021 H 0.74718 0.42829 0.27862
 H2022 H 0.70968 0.46752 0.31239
 C2023 C 0.69984 0.94139 0.77132
 C2024 C 0.71119 0.91967 0.77510
 C2025 C 0.70235 0.91935 0.79792
 C2026 C 0.69087 0.94083 0.79428
 C2027 C 0.72240 0.93096 0.80614
 C2028 C 0.73133 0.93150 0.78319
 C2029 C 0.71987 0.95300 0.77958
 C2030 C 0.71106 0.95270 0.80237
 H2031 H 0.69068 0.94586 0.75687
 H2032 H 0.71119 0.90590 0.76396
 H2033 H 0.67411 0.94452 0.79891
 H2034 H 0.73174 0.92660 0.82050
 H2035 H 0.74808 0.92783 0.77848
 H2036 H 0.71113 0.96651 0.81344
 C2037 C 0.19949 0.44170 0.77166
 C2038 C 0.21060 0.41983 0.77518
 C2039 C 0.20207 0.41951 0.79810
 C2040 C 0.19082 0.44115 0.79473
 C2041 C 0.22238 0.43082 0.80613
 C2042 C 0.23100 0.43135 0.78307
 C2043 C 0.21978 0.45300 0.77970
 C2044 C 0.21127 0.45272 0.80262
 H2045 H 0.19016 0.44638 0.75739
 H2046 H 0.21029 0.40613 0.76397
 H2047 H 0.17417 0.44497 0.79964
 H2048 H 0.23184 0.42624 0.82034
 H2049 H 0.24765 0.42752 0.77813
 H2050 H 0.21164 0.46645 0.81378
 C2051 C 0.22775 0.94211 0.30026
 C2052 C 0.20445 0.94190 0.30872
 C2053 C 0.20095 0.92016 0.29786
 C2054 C 0.22411 0.92016 0.28952
 C2055 C 0.19306 0.93130 0.27750
 C2056 C 0.19671 0.95330 0.28822
 C2057 C 0.21985 0.95326 0.27992
 C2058 C 0.21636 0.93152 0.26906
 H2059 H 0.24212 0.94669 0.30955
 H2060 H 0.19946 0.94599 0.32516
 H2061 H 0.23530 0.90635 0.29009
 H2062 H 0.17873 0.92675 0.26812
 H2063 H 0.18560 0.96717 0.28758
 H2064 H 0.22144 0.92746 0.25263
 C2065 C 0.44234 0.27151 0.69984
 C2066 C 0.42035 0.27495 0.71069
 C2067 C 0.42006 0.29809 0.70237
 C2068 C 0.44184 0.29479 0.69139
 C2069 C 0.43117 0.30606 0.72268
 C2070 C 0.43169 0.28278 0.73109
 C2071 C 0.45347 0.27948 0.72011
 C2072 C 0.45321 0.30262 0.71183
 H2073 H 0.44707 0.25720 0.69050
 H2074 H 0.40664 0.26367 0.71019
 H2075 H 0.44581 0.29984 0.67494
 H2076 H 0.42645 0.32032 0.73209
 H2077 H 0.42770 0.27769 0.74754
 H2078 H 0.46695 0.31385 0.71241
 C2079 C 0.44235 0.77139 0.19899
 C2080 C 0.42035 0.77477 0.20985
 C2081 C 0.42005 0.79794 0.20162
 C2082 C 0.44183 0.79471 0.19063
 C2083 C 0.43115 0.80585 0.22196
 C2084 C 0.43166 0.78254 0.23028
 C2085 C 0.45345 0.77930 0.21932
 C2086 C 0.45319 0.80247 0.21112
 H2087 H 0.44713 0.75714 0.18959
 H2088 H 0.40667 0.76347 0.20931
 H2089 H 0.44578 0.79985 0.17420
 H2090 H 0.42642 0.82006 0.23144
 H2091 H 0.42771 0.77737 0.24671
 H2092 H 0.46690 0.81373 0.21171
 C2093 C 0.94201 0.27144 0.19955
 C2094 C 0.91990 0.27464 0.21025
 C2095 C 0.91944 0.29781 0.20201
 C2096 C 0.94133 0.29475 0.19117
 C2097 C 0.93033 0.30582 0.22241
 C2098 C 0.93100 0.28252 0.23076
 C2099 C 0.95289 0.27947 0.21994
 C2100 C 0.95247 0.30263 0.21171
 H2101 H 0.94696 0.25723 0.19019
 H2102 H 0.90631 0.26322 0.20959
 H2103 H 0.94535 0.29990 0.17476
 H2104 H 0.92543 0.32000 0.23185
 H2105 H 0.92696 0.27732 0.24716
 H2106 H 0.96608 0.31401 0.21240
 C2107 C 0.94180 0.77221 0.69975
 C2108 C 0.91980 0.77587 0.71050
 C2109 C 0.91981 0.79903 0.70225
 C2110 C 0.94160 0.79552 0.69136
 C2111 C 0.93088 0.80684 0.72262
 C2112 C 0.93109 0.78354 0.73098
 C2113 C 0.95289 0.78002 0.72011
 C2114 C 0.95293 0.80318 0.71188
 H2115 H 0.94641 0.75786 0.69043
 H2116 H 0.90593 0.76479 0.70989
 H2117 H 0.94574 0.80058 0.67494
 H2118 H 0.92626 0.82113 0.73203
 H2119 H 0.92693 0.77847 0.74739
 H2120 H 0.96679 0.81425 0.71259
 C2121 C 0.55817 0.30025 0.27167
 C2122 C 0.55820 0.30915 0.29463
 C2123 C 0.57981 0.29800 0.29855
 C2124 C 0.58001 0.28924 0.27574
 C2125 C 0.56837 0.27776 0.30662
 C2126 C 0.54651 0.28876 0.30256
 C2127 C 0.54674 0.28002 0.27974
 C2128 C 0.56836 0.26890 0.28367
 H2129 H 0.55376 0.30941 0.25719
 H2130 H 0.55422 0.32582 0.29927
 H2131 H 0.59396 0.28948 0.26478
 H2132 H 0.57269 0.26849 0.32105
 H2133 H 0.53252 0.28845 0.31346
 H2134 H 0.57234 0.25223 0.27901
 C2135 C 0.55801 0.80146 0.77113
 C2136 C 0.55838 0.81014 0.79418
 C2137 C 0.57985 0.79862 0.79782
 C2138 C 0.57972 0.79008 0.77492
 C2139 C 0.56815 0.77849 0.80580
 C2140 C 0.54644 0.78986 0.80203
 C2141 C 0.54635 0.78134 0.77914
 C2142 C 0.56783 0.76986 0.78278
 H2143 H 0.55359 0.81081 0.75678
 H2144 H 0.55473 0.82683 0.79902
 H2145 H 0.59359 0.79019 0.76387
 H2146 H 0.57243 0.76900 0.82011
 H2147 H 0.53251 0.78969 0.81301
 H2148 H 0.57146 0.75317 0.77791
 C2149 C 0.05751 0.30112 0.77180
 C2150 C 0.05777 0.30960 0.79492
 C2151 C 0.07945 0.29844 0.79842
 C2152 C 0.07942 0.29009 0.77545
 C2153 C 0.06813 0.27803 0.80625
 C2154 C 0.04620 0.28905 0.80261
 C2155 C 0.04621 0.28072 0.77964
 C2156 C 0.06790 0.26960 0.78315
 H2157 H 0.05292 0.31055 0.75755
 H2158 H 0.05385 0.32618 0.79991
 H2159 H 0.09326 0.29057 0.76437
 H2160 H 0.07263 0.26850 0.82046
 H2161 H 0.03233 0.28854 0.81365
 H2162 H 0.07186 0.25302 0.77815
 C2163 C 0.04624 0.78871 0.30329
 C2164 C 0.06816 0.77767 0.30696
 C2165 C 0.07950 0.79809 0.29921
 C2166 C 0.05784 0.80928 0.29570
 C2167 C 0.07952 0.78982 0.27622
 C2168 C 0.06797 0.76931 0.28383
 C2169 C 0.04631 0.78047 0.28030
 C2170 C 0.05764 0.80088 0.27255
 H2171 H 0.03234 0.78817 0.31430
 H2172 H 0.07257 0.76809 0.32116
 H2173 H 0.05387 0.82584 0.30073
 H2174 H 0.09338 0.79030 0.26517
 H2175 H 0.07193 0.75274 0.27880
 H2176 H 0.05313 0.81037 0.25832
 C2177 C 0.54654 0.71135 0.69767
 C2178 C 0.56844 0.72238 0.69406
 C2179 C 0.57980 0.70214 0.70230
 C2180 C 0.55815 0.69096 0.70578
 C2181 C 0.57945 0.71084 0.72513
 C2182 C 0.56789 0.73118 0.71701
 C2183 C 0.54622 0.72005 0.72049
 C2184 C 0.55756 0.69982 0.72877
 H2185 H 0.53282 0.71162 0.68648
 H2186 H 0.57300 0.73171 0.67974
 H2187 H 0.55442 0.67427 0.70107
 H2188 H 0.59314 0.71061 0.73636
 H2189 H 0.57165 0.74787 0.72176
 H2190 H 0.55286 0.69061 0.74313
 C2191 C 0.56816 0.21616 0.23057
 C2192 C 0.56868 0.19277 0.22253
 C2193 C 0.57975 0.20049 0.20207
 C2194 C 0.57943 0.22374 0.21000
 C2195 C 0.55796 0.20361 0.19112
 C2196 C 0.54662 0.19605 0.21174
 C2197 C 0.54636 0.21930 0.21966
 C2198 C 0.55743 0.22701 0.19919
 H2199 H 0.57212 0.22148 0.24692
 H2200 H 0.57344 0.17863 0.23211
 H2201 H 0.59310 0.23506 0.20924
 H2202 H 0.55401 0.19830 0.17477
 H2203 H 0.53290 0.18479 0.21250
 H2204 H 0.55260 0.24114 0.18961
 C2205 C 0.04628 0.71194 0.19681
 C2206 C 0.06824 0.72280 0.19296
 C2207 C 0.07949 0.70233 0.20076
 C2208 C 0.05779 0.69133 0.20446
 C2209 C 0.07962 0.71075 0.22371
 C2210 C 0.06814 0.73131 0.21605
 C2211 C 0.04643 0.72033 0.21974
 C2212 C 0.05769 0.69988 0.22756
 H2213 H 0.03235 0.71255 0.18588
 H2214 H 0.07267 0.73225 0.17868
 H2215 H 0.05374 0.67476 0.19960
 H2216 H 0.09351 0.71019 0.23468
 H2217 H 0.07221 0.74787 0.22096
 H2218 H 0.05319 0.69054 0.24190
 C2219 C 0.06850 0.21668 0.73085
 C2220 C 0.06894 0.19322 0.72298
 C2221 C 0.07987 0.20076 0.70238
 C2222 C 0.07965 0.22407 0.71014
 C2223 C 0.05802 0.20383 0.69156
 C2224 C 0.04681 0.19644 0.71231
 C2225 C 0.04663 0.21976 0.72004
 C2226 C 0.05758 0.22729 0.69945
 H2227 H 0.07263 0.22212 0.74712
 H2228 H 0.07375 0.17916 0.73266
 H2229 H 0.09337 0.23531 0.70920
 H2230 H 0.05392 0.19839 0.67528
 H2231 H 0.03308 0.18523 0.71330
 H2232 H 0.05275 0.24139 0.68982
 C2233 C 0.43153 0.71632 0.26941
 C2234 C 0.43118 0.69300 0.27770
 C2235 C 0.42024 0.70085 0.29818
 C2236 C 0.42038 0.72404 0.28999
 C2237 C 0.44209 0.70409 0.30892
 C2238 C 0.45330 0.69637 0.28830
 C2239 C 0.45340 0.71955 0.28013
 C2240 C 0.44246 0.72742 0.30059
 H2241 H 0.42738 0.72153 0.25305
 H2242 H 0.42645 0.67878 0.26827
 H2243 H 0.40666 0.73532 0.29075
 H2244 H 0.44623 0.69895 0.32530
 H2245 H 0.46707 0.68515 0.28751
 H2246 H 0.44725 0.74168 0.30995
 C2247 C 0.45397 0.21104 0.80340
 C2248 C 0.43209 0.22211 0.80728
 C2249 C 0.42067 0.20183 0.79939
 C2250 C 0.44229 0.19062 0.79566
 C2251 C 0.42062 0.21040 0.77648
 C2252 C 0.43227 0.23078 0.78423
 C2253 C 0.45389 0.21958 0.78050
 C2254 C 0.44246 0.19931 0.77260
 H2255 H 0.46788 0.21141 0.81434
 H2256 H 0.42773 0.23152 0.82159
 H2257 H 0.44620 0.17398 0.80049
 H2258 H 0.40674 0.21013 0.76549
 H2259 H 0.42837 0.24743 0.77942
 H2260 H 0.44693 0.19001 0.75824
 C2261 C 0.95349 0.71058 0.80254
 C2262 C 0.93154 0.72156 0.80625
 C2263 C 0.92026 0.70118 0.79841
 C2264 C 0.94195 0.69005 0.79484
 C2265 C 0.92029 0.70963 0.77546
 C2266 C 0.93178 0.73011 0.78317
 C2267 C 0.95349 0.71903 0.77961
 C2268 C 0.94222 0.69865 0.77173
 H2269 H 0.96735 0.71108 0.81355
 H2270 H 0.92708 0.73105 0.82048
 H2271 H 0.94594 0.67345 0.79975
 H2272 H 0.90646 0.70919 0.76440
 H2273 H 0.92777 0.74670 0.77824
 H2274 H 0.94680 0.68930 0.75744
 C2275 C 0.93202 0.21706 0.27047
 C2276 C 0.93168 0.19375 0.27874
 C2277 C 0.92055 0.20156 0.29914
 C2278 C 0.92071 0.22476 0.29096
 C2279 C 0.94234 0.20486 0.31005
 C2280 C 0.95372 0.19719 0.28949
 C2281 C 0.95382 0.22037 0.28131
 C2282 C 0.94271 0.22821 0.30171
 H2283 H 0.92799 0.22228 0.25408
 H2284 H 0.92707 0.17953 0.26925
 H2285 H 0.90698 0.23604 0.29161
 H2286 H 0.94637 0.19976 0.32647
 H2287 H 0.96752 0.18599 0.28882
 H2288 H 0.94741 0.24247 0.31109
 C2289 C 0.30341 0.28789 0.54649
 C2290 C 0.29575 0.30853 0.55786
 C2291 C 0.29896 0.29737 0.57942
 C2292 C 0.30676 0.27687 0.56831
 C2293 C 0.27572 0.28926 0.57917
 C2294 C 0.27237 0.30029 0.55740
 C2295 C 0.28018 0.27981 0.54628
 C2296 C 0.28339 0.26866 0.56785
 H2297 H 0.31465 0.28722 0.53282
 H2298 H 0.30095 0.32505 0.55394
 H2299 H 0.32095 0.26722 0.57290
 H2300 H 0.26444 0.28987 0.59280
 H2301 H 0.25814 0.30987 0.55276
 H2302 H 0.27814 0.25215 0.57178
 C2303 C 0.27207 0.80128 0.05703
 C2304 C 0.27571 0.79022 0.07876
 C2305 C 0.29886 0.79855 0.07883
 C2306 C 0.29537 0.80975 0.05733
 C2307 C 0.30676 0.77816 0.06761
 C2308 C 0.28348 0.76973 0.06732
 C2309 C 0.27999 0.78089 0.04580
 C2310 C 0.30314 0.78921 0.04585
 H2311 H 0.25770 0.81074 0.05257
 H2312 H 0.26456 0.79070 0.09250
 H2313 H 0.30038 0.82634 0.05347
 H2314 H 0.32110 0.76866 0.07207
 H2315 H 0.27847 0.75315 0.07128
 H2316 H 0.31431 0.78871 0.03212
 C2317 C 0.80282 0.28893 0.04609
 C2318 C 0.79517 0.30956 0.05749
 C2319 C 0.79827 0.29832 0.07903
 C2320 C 0.80606 0.27784 0.06788
 C2321 C 0.77502 0.29028 0.07868
 C2322 C 0.77177 0.30138 0.05693
 C2323 C 0.77958 0.28092 0.04579
 C2324 C 0.78268 0.26970 0.06734
 H2325 H 0.81410 0.28828 0.03246
 H2326 H 0.80043 0.32608 0.05365
 H2327 H 0.82021 0.26812 0.07249
 H2328 H 0.76368 0.29087 0.09227
 H2329 H 0.75758 0.31100 0.05225
 H2330 H 0.77737 0.25319 0.07118
 C2331 C 0.80347 0.78930 0.54637
 C2332 C 0.79565 0.80991 0.55771
 C2333 C 0.79896 0.79881 0.57928
 C2334 C 0.80692 0.77836 0.56821
 C2335 C 0.77580 0.79052 0.57908
 C2336 C 0.77234 0.80147 0.55728
 C2337 C 0.78031 0.78103 0.54621
 C2338 C 0.78363 0.76996 0.56780
 H2339 H 0.81475 0.78873 0.53273
 H2340 H 0.80072 0.82647 0.55380
 H2341 H 0.82120 0.76885 0.57284
 H2342 H 0.76452 0.79108 0.59272
 H2343 H 0.75804 0.81095 0.55264
 H2344 H 0.77856 0.75341 0.57179
 C2345 C 0.26956 0.71757 0.43204
 C2346 C 0.29011 0.72533 0.42066
 C2347 C 0.29829 0.70212 0.42020
 C2348 C 0.27784 0.69424 0.43138
 C2349 C 0.30953 0.70517 0.44171
 C2350 C 0.30119 0.72853 0.44241
 C2351 C 0.28075 0.72061 0.45357
 C2352 C 0.28893 0.69742 0.45314
 H2353 H 0.25301 0.72285 0.42825
 H2354 H 0.29066 0.73671 0.40711
 H2355 H 0.26819 0.68010 0.42676
 H2356 H 0.32609 0.69995 0.44546
 H2357 H 0.31074 0.74272 0.44712
 H2358 H 0.28838 0.68609 0.46672
 C2359 C 0.26899 0.21632 0.93213
 C2360 C 0.28958 0.22399 0.92074
 C2361 C 0.29781 0.20080 0.92057
 C2362 C 0.27733 0.19299 0.93175
 C2363 C 0.30895 0.20412 0.94210
 C2364 C 0.30057 0.22746 0.94248
 C2365 C 0.28010 0.21964 0.95366
 C2366 C 0.28832 0.19646 0.95353
 H2367 H 0.25243 0.22152 0.92831
 H2368 H 0.29015 0.23520 0.90705
 H2369 H 0.26778 0.17874 0.92723
 H2370 H 0.32552 0.19899 0.94599
 H2371 H 0.30999 0.24176 0.94712
 H2372 H 0.28768 0.18537 0.96731
 C2373 C 0.80278 0.71178 0.95337
 C2374 C 0.79501 0.69123 0.94198
 C2375 C 0.79824 0.70243 0.92044
 C2376 C 0.80616 0.72284 0.93157
 C2377 C 0.77506 0.71072 0.92079
 C2378 C 0.77167 0.69966 0.94255
 C2379 C 0.77961 0.72005 0.95368
 C2380 C 0.78284 0.73123 0.93213
 H2381 H 0.81404 0.71232 0.96699
 H2382 H 0.80013 0.67466 0.94582
 H2383 H 0.82040 0.73239 0.92693
 H2384 H 0.76376 0.71023 0.90720
 H2385 H 0.75739 0.69019 0.94723
 H2386 H 0.77766 0.74779 0.92828
 C2387 C 0.76856 0.21687 0.43185
 C2388 C 0.78901 0.22473 0.42034
 C2389 C 0.79745 0.20160 0.42008
 C2390 C 0.77710 0.19361 0.43137
 C2391 C 0.80868 0.20498 0.44155
 C2392 C 0.80011 0.22825 0.44202
 C2393 C 0.77978 0.22024 0.45332
 C2394 C 0.78819 0.19713 0.45309
 H2395 H 0.75194 0.22194 0.42808
 H2396 H 0.78937 0.23600 0.40669
 H2397 H 0.76760 0.17932 0.42689
 H2398 H 0.82531 0.20000 0.44534
 H2399 H 0.80949 0.24260 0.44658
 H2400 H 0.78777 0.18592 0.46678
 C2401 C 0.73013 0.28325 0.43229
 C2402 C 0.70961 0.27546 0.42096
 C2403 C 0.70128 0.29862 0.42065
 C2404 C 0.72170 0.30654 0.43179
 C2405 C 0.69010 0.29532 0.44220
 C2406 C 0.69858 0.27201 0.44274
 C2407 C 0.71899 0.27996 0.45386
 C2408 C 0.71067 0.30310 0.45359
 H2409 H 0.74671 0.27811 0.42840
 H2410 H 0.70914 0.26417 0.40736
 H2411 H 0.73123 0.32079 0.42718
 H2412 H 0.67350 0.30039 0.44606
 H2413 H 0.68913 0.25772 0.44741
 H2414 H 0.71115 0.31434 0.46723
 C2415 C 0.71590 0.76912 0.93282
 C2416 C 0.69265 0.77771 0.93240
 C2417 C 0.70070 0.79804 0.92113
 C2418 C 0.72381 0.78954 0.92134
 C2419 C 0.70414 0.80922 0.94261
 C2420 C 0.69624 0.78875 0.95414
 C2421 C 0.71935 0.78027 0.95430
 C2422 C 0.72740 0.80059 0.94304
 H2423 H 0.72090 0.75250 0.92899
 H2424 H 0.67831 0.76829 0.92793
 H2425 H 0.73506 0.78990 0.90767
 H2426 H 0.69918 0.82585 0.94643
 H2427 H 0.68503 0.78834 0.96785
 H2428 H 0.74179 0.80994 0.94756
 C2429 C 0.22809 0.30070 0.94223
 C2430 C 0.22409 0.28963 0.92061
 C2431 C 0.20106 0.29836 0.92069
 C2432 C 0.20491 0.30957 0.94208
 C2433 C 0.19297 0.27815 0.93212
 C2434 C 0.21613 0.26932 0.93225
 C2435 C 0.21997 0.28050 0.95366
 C2436 C 0.19695 0.28922 0.95377
 H2437 H 0.24263 0.30992 0.94653
 H2438 H 0.23515 0.28986 0.90678
 H2439 H 0.20018 0.32626 0.94590
 H2440 H 0.17847 0.26886 0.92787
 H2441 H 0.22090 0.25265 0.92839
 H2442 H 0.18594 0.28897 0.96763
 C2443 C 0.19930 0.77196 0.44251
 C2444 C 0.19097 0.79531 0.44193
 C2445 C 0.20213 0.79848 0.42036
 C2446 C 0.21033 0.77527 0.42071
 C2447 C 0.22262 0.80631 0.43143
 C2448 C 0.21160 0.80300 0.45326
 C2449 C 0.21977 0.77981 0.45359
 C2450 C 0.23092 0.78296 0.43200
 H2451 H 0.18978 0.75774 0.44724
 H2452 H 0.17442 0.80050 0.44582
 H2453 H 0.20976 0.76395 0.40714
 H2454 H 0.23224 0.82047 0.42675
 H2455 H 0.21222 0.81427 0.46687
 H2456 H 0.24745 0.77770 0.42810
 C2457 C 0.71180 0.69775 0.54735
 C2458 C 0.72275 0.69427 0.56916
 C2459 C 0.70229 0.70224 0.58029
 C2460 C 0.69119 0.70559 0.55873
 C2461 C 0.71065 0.72537 0.58000
 C2462 C 0.73121 0.71753 0.56865
 C2463 C 0.72013 0.72086 0.54708
 C2464 C 0.69968 0.72886 0.55822
 H2465 H 0.71239 0.68651 0.53372
 H2466 H 0.73228 0.67999 0.57376
 H2467 H 0.67461 0.70058 0.55483
 H2468 H 0.71011 0.73663 0.59362
 H2469 H 0.74778 0.72257 0.57259
 H2470 H 0.69026 0.74320 0.55359
 C2471 C 0.71700 0.23165 0.06821
 C2472 C 0.69370 0.22327 0.06896
 C2473 C 0.70175 0.20276 0.07991
 C2474 C 0.72492 0.21104 0.07939
 C2475 C 0.70481 0.19174 0.05829
 C2476 C 0.69688 0.21238 0.04708
 C2477 C 0.72004 0.22063 0.04656
 C2478 C 0.72813 0.20015 0.05754
 H2479 H 0.72216 0.24818 0.07211
 H2480 H 0.67950 0.23281 0.07380
 H2481 H 0.73635 0.21046 0.09287
 H2482 H 0.69971 0.17519 0.05443
 H2483 H 0.68545 0.21303 0.03360
 H2484 H 0.74239 0.19071 0.05270
 C2485 C 0.21152 0.69719 0.04609
 C2486 C 0.22249 0.69352 0.06787
 C2487 C 0.20204 0.70142 0.07907
 C2488 C 0.19093 0.70494 0.05755
 C2489 C 0.21040 0.72455 0.07896
 C2490 C 0.23095 0.71679 0.06754
 C2491 C 0.21986 0.72031 0.04601
 C2492 C 0.19942 0.72822 0.05722
 H2493 H 0.21207 0.68605 0.03237
 H2494 H 0.23200 0.67920 0.07237
 H2495 H 0.17434 0.69997 0.05364
 H2496 H 0.20990 0.73573 0.09265
 H2497 H 0.24753 0.72179 0.07146
 H2498 H 0.18999 0.74258 0.05269
 C2499 C 0.21716 0.23069 0.56846
 C2500 C 0.19382 0.22244 0.56923
 C2501 C 0.20178 0.20190 0.58021
 C2502 C 0.22499 0.21006 0.57966
 C2503 C 0.20476 0.19084 0.55859
 C2504 C 0.19694 0.21152 0.54735
 C2505 C 0.22014 0.21965 0.54683
 C2506 C 0.22812 0.19913 0.55781
 H2507 H 0.22241 0.24720 0.57233
 H2508 H 0.17967 0.23206 0.57404
 H2509 H 0.23644 0.20942 0.59312
 H2510 H 0.19956 0.17432 0.55474
 H2511 H 0.18552 0.21220 0.53387
 H2512 H 0.24232 0.18960 0.55296
   
