data_POSCAR
  _audit_creation_date              2014-09-24
  _audit_creation_method            'ToBaCCo'
  _symmetry_space_group_name_H-M    'P1'
  _symmetry_Int_Tables_number       1
  _symmetry_cell_setting            triclinic
  loop_
  _symmetry_equiv_pos_as_xyz
 x,y,z
_cell_length_a 44.4647
_cell_length_b 44.6034
_cell_length_c 44.3746
_cell_angle_alpha 89.225100
_cell_angle_beta 89.231400
_cell_angle_gamma 89.294400
loop_
  _atom_site_label
  _atom_site_type_symbol
  _atom_site_fract_x
  _atom_site_fract_y
  _atom_site_fract_z
C1 C 0.11024 -0.00027 0.22008
 C2 C 0.12943 0.02768 0.22151
 C3 C 0.14708 0.02859 0.24617
 C4 C 0.14419 0.00116 0.26746
 C5 C 0.13242 -0.02660 0.22215
 C6 C 0.15012 -0.02599 0.24696
 C7 C 0.09236 -0.00105 0.24987
 C8 C 0.11023 -0.00034 0.27467
 H9 H 0.12797 0.04605 0.20520
 H10 H 0.15882 0.00184 0.28754
 H11 H 0.13262 -0.04521 0.20657
 H12 H 0.06799 -0.00228 0.25123
 C13 C 0.39305 -0.00141 0.72560
 C14 C 0.37150 -0.02768 0.72770
 C15 C 0.35357 -0.02751 0.75273
 C16 C 0.35882 -0.00053 0.77361
 C17 C 0.37298 0.02659 0.72749
 C18 C 0.35516 0.02733 0.75273
 C19 C 0.40991 -0.00228 0.75347
 C20 C 0.39098 -0.00167 0.77993
 H21 H 0.37161 -0.04585 0.71159
 H22 H 0.34394 -0.00028 0.79395
 H23 H 0.37487 0.04548 0.71186
 H24 H 0.43429 -0.00112 0.75426
 C25 C 0.89037 0.49794 0.22253
 C26 C 0.86907 0.47159 0.22430
 C27 C 0.85093 0.47138 0.24911
 C28 C 0.85561 0.49821 0.27028
 C29 C 0.87029 0.52584 0.22465
 C30 C 0.85231 0.52631 0.24974
 C31 C 0.90781 0.49683 0.25213
 C32 C 0.88954 0.49713 0.27719
 H33 H 0.86953 0.45350 0.20809
 H34 H 0.84059 0.49821 0.29049
 H35 H 0.87255 0.54503 0.20945
 H36 H 0.93218 0.49773 0.25318
 C37 C 0.61050 0.50055 0.72161
 C38 C 0.63039 0.52803 0.72269
 C39 C 0.64853 0.52856 0.74701
 C40 C 0.64540 0.50116 0.76835
 C41 C 0.63213 0.47370 0.72327
 C42 C 0.65032 0.47387 0.74777
 C43 C 0.59318 0.50014 0.75173
 C44 C 0.61153 0.50039 0.77621
 H45 H 0.62899 0.54647 0.70645
 H46 H 0.66042 0.50152 0.78815
 H47 H 0.63160 0.45511 0.70770
 H48 H 0.56882 0.49919 0.75356
 C49 C 0.22076 0.10759 1.00099
 C50 C 0.22138 0.12721 1.02875
 C51 C 0.24565 0.14528 1.02977
 C52 C 0.26745 0.14227 1.00266
 C53 C 0.22295 0.12934 0.97415
 C54 C 0.24742 0.14742 0.97495
 C55 C 0.25073 0.09026 1.00102
 C56 C 0.27517 0.10850 1.00182
 H57 H 0.20461 0.12605 1.04680
 H58 H 0.28726 0.15717 1.00348
 H59 H 0.20764 0.12913 0.95527
 H60 H 0.25250 0.06599 0.99980
 C61 C 0.72339 0.38938 0.99787
 C62 C 0.72518 0.36878 0.97291
 C63 C 0.75140 0.35001 0.97320
 C64 C 0.77116 0.35531 0.99896
 C65 C 0.72523 0.37084 1.02498
 C66 C 0.75164 0.35212 1.02587
 C67 C 0.75126 0.40638 0.99658
 C68 C 0.77776 0.38749 0.99726
 H69 H 0.70957 0.36923 0.95419
 H70 H 0.79145 0.34046 0.99932
 H71 H 0.71001 0.37324 1.04424
 H72 H 0.75210 0.43073 0.99701
 C73 C 0.22493 0.89474 0.49775
 C74 C 0.22787 0.87400 0.47092
 C75 C 0.25290 0.85629 0.47117
 C76 C 0.27314 0.86082 0.49883
 C77 C 0.22663 0.87421 0.52550
 C78 C 0.25190 0.85667 0.52640
 C79 C 0.25427 0.91262 0.49783
 C80 C 0.27958 0.89477 0.49855
 H81 H 0.21201 0.87418 0.45247
 H82 H 0.29352 0.84617 0.49917
 H83 H 0.21084 0.87575 0.54436
 H84 H 0.25493 0.93691 0.49895
 C85 C 0.71978 0.60914 0.50095
 C86 C 0.72058 0.62915 0.52843
 C87 C 0.74517 0.64678 0.52931
 C88 C 0.76703 0.64304 0.50241
 C89 C 0.72247 0.63046 0.47382
 C90 C 0.74723 0.64815 0.47454
 C91 C 0.74945 0.59131 0.50142
 C92 C 0.77417 0.60917 0.50213
 H93 H 0.70390 0.62827 0.54657
 H94 H 0.78708 0.65763 0.50311
 H95 H 0.70717 0.63037 0.45493
 H96 H 0.75083 0.56699 0.50067
 C97 C -0.00099 0.21854 0.10784
 C98 C 0.02574 0.21955 0.12886
 C99 C 0.02610 0.24422 0.14639
 C100 C -0.00071 0.26593 0.14157
 C101 C -0.02876 0.22134 0.12833
 C102 C -0.02873 0.24619 0.14592
 C103 C 0.00004 0.24802 0.08971
 C104 C 0.00012 0.27283 0.10744
 H105 H 0.04403 0.20312 0.12842
 H106 H -0.00051 0.28603 0.15609
 H107 H -0.04761 0.20609 0.12764
 H108 H -0.00003 0.24920 0.06524
 C109 C -0.00135 0.72499 0.39196
 C110 C -0.02651 0.72662 0.37182
 C111 C -0.02666 0.75245 0.35274
 C112 C -0.00117 0.77240 0.35709
 C113 C 0.02673 0.72712 0.37181
 C114 C 0.02713 0.75207 0.35369
 C115 C -0.00215 0.75449 0.40951
 C116 C -0.00188 0.77944 0.39113
 H117 H -0.04490 0.71073 0.37253
 H118 H -0.00119 0.79249 0.34199
 H119 H 0.04596 0.71197 0.37396
 H120 H -0.00091 0.75555 0.43390
 C121 C 0.49899 0.22316 0.89285
 C122 C 0.47248 0.22604 0.87169
 C123 C 0.47297 0.25100 0.85390
 C124 C 0.50049 0.27117 0.85875
 C125 C 0.52693 0.22483 0.87256
 C126 C 0.52800 0.25003 0.85492
 C127 C 0.49886 0.25235 0.91079
 C128 C 0.49979 0.27753 0.89283
 H129 H 0.45392 0.21038 0.87187
 H130 H 0.50100 0.29150 0.84400
 H131 H 0.54574 0.20912 0.87439
 H132 H 0.49974 0.25301 0.93523
 C133 C 0.50083 0.72320 0.60791
 C134 C 0.52837 0.72385 0.62788
 C135 C 0.52930 0.74811 0.64593
 C136 C 0.50233 0.76987 0.64258
 C137 C 0.47389 0.72552 0.62952
 C138 C 0.47457 0.74996 0.64759
 C139 C 0.50110 0.75305 0.59034
 C140 C 0.50183 0.77750 0.60860
 H141 H 0.54641 0.70719 0.62683
 H142 H 0.50307 0.78964 0.65751
 H143 H 0.45502 0.71027 0.62924
 H144 H 0.50017 0.75474 0.56592
 C145 C 0.89192 1.00275 0.77862
 C146 C 0.87152 1.02822 0.77632
 C147 C 0.85224 1.02711 0.75082
 C148 C 0.85676 1.00053 0.73229
 C149 C 0.87205 0.97514 0.77872
 C150 C 0.85370 0.97375 0.75458
 C151 C 0.90917 1.00179 0.74844
 C152 C 0.89066 1.00065 0.72410
 H153 H 0.87251 1.04757 0.79091
 H154 H 0.84161 0.99943 0.71261
 H155 H 0.87356 0.95729 0.79561
 H156 H 0.93353 1.00250 0.74647
 C157 C 0.39197 0.50153 0.27992
 C158 C 0.37074 0.52851 0.27637
 C159 C 0.35287 0.52706 0.25171
 C160 C 0.35771 0.49857 0.23286
 C161 C 0.37172 0.47425 0.28022
 C162 C 0.35388 0.47255 0.25576
 C163 C 0.40970 0.49994 0.25012
 C164 C 0.39170 0.49846 0.22548
 H165 H 0.37103 0.54783 0.29103
 H166 H 0.34298 0.49722 0.21291
 H167 H 0.37254 0.45684 0.29760
 H168 H 0.43409 0.50080 0.24857
 C169 C 0.60787 1.00152 0.27601
 C170 C 0.62735 0.97315 0.27320
 C171 C 0.64512 0.97284 0.24788
 C172 C 0.64203 1.00143 0.22790
 C173 C 0.62850 1.02619 0.27447
 C174 C 0.64719 1.02639 0.24825
 C175 C 0.58999 1.00317 0.24662
 C176 C 0.60796 1.00292 0.22130
 H177 H 0.62524 0.95391 0.28835
 H178 H 0.65681 1.00149 0.20749
 H179 H 0.62832 1.04433 0.29064
 H180 H 0.56560 1.00227 0.24587
 C181 C 0.10707 0.50098 0.77420
 C182 C 0.12742 0.47323 0.77217
 C183 C 0.14553 0.47293 0.74714
 C184 C 0.14204 0.50096 0.72658
 C185 C 0.12815 0.52751 0.77248
 C186 C 0.14642 0.52781 0.74777
 C187 C 0.08976 0.50189 0.74453
 C188 C 0.10813 0.50169 0.71954
 H189 H 0.12541 0.45409 0.78746
 H190 H 0.15712 0.50109 0.70641
 H191 H 0.12774 0.54545 0.78886
 H192 H 0.06542 0.50069 0.74337
 C193 C 0.77857 0.89334 0.00256
 C194 C 0.77507 0.87229 0.02981
 C195 C 0.75071 0.85413 0.02822
 C196 C 0.73209 0.85854 -0.00057
 C197 C 0.77935 0.87298 -0.02469
 C198 C 0.75520 0.85486 -0.02646
 C199 C 0.74866 0.91062 0.00057
 C200 C 0.72433 0.89232 -0.00100
 H201 H 0.78968 0.87270 0.04924
 H202 H 0.71237 0.84359 -0.00199
 H203 H 0.79681 0.87394 -0.04208
 H204 H 0.74680 0.93491 0.00126
 C205 C 0.27764 0.39450 0.50268
 C206 C 0.27469 0.37291 0.52957
 C207 C 0.25037 0.35469 0.52809
 C208 C 0.23124 0.35957 0.49968
 C209 C 0.27804 0.37469 0.47501
 C210 C 0.25392 0.35650 0.47330
 C211 C 0.24762 0.41167 0.50157
 C212 C 0.22333 0.39331 0.50007
 H213 H 0.28945 0.37323 0.54890
 H214 H 0.21155 0.34457 0.49831
 H215 H 0.29528 0.37596 0.45742
 H216 H 0.24568 0.43594 0.50270
 C217 C 0.27496 0.60251 -0.00027
 C218 C 0.27268 0.62340 -0.02774
 C219 C 0.24760 0.64127 -0.02764
 C220 C 0.22716 0.63702 0.00051
 C221 C 0.27312 0.62296 0.02686
 C222 C 0.24835 0.64100 0.02757
 C223 C 0.24543 0.58501 0.00034
 C224 C 0.22033 0.60312 0.00057
 H225 H 0.28797 0.62201 -0.04702
 H226 H 0.20693 0.65188 0.00098
 H227 H 0.28971 0.62256 0.04467
 H228 H 0.24445 0.56077 -0.00130
 C229 C 0.77667 0.10778 0.50006
 C230 C 0.77439 0.12698 0.47344
 C231 C 0.74819 0.14603 0.47367
 C232 C 0.72932 0.14243 0.50098
 C233 C 0.77580 0.12779 0.52552
 C234 C 0.74985 0.14690 0.52631
 C235 C 0.74865 0.09110 0.50166
 C236 C 0.72236 0.11029 0.50208
 H237 H 0.78904 0.12479 0.45372
 H238 H 0.70920 0.15751 0.50151
 H239 H 0.79214 0.12704 0.54360
 H240 H 0.74749 0.06681 0.50040
 C241 C 1.00272 0.77675 0.89456
 C242 C 1.02963 0.77374 0.87297
 C243 C 1.02801 0.74966 0.85446
 C244 C 0.99942 0.73084 0.85905
 C245 C 0.97522 0.77754 0.87450
 C246 C 0.97332 0.75371 0.85602
 C247 C 1.00121 0.74664 0.91160
 C248 C 0.99957 0.72259 0.89291
 H249 H 1.04909 0.78822 0.87356
 H250 H 0.99791 0.71139 0.84378
 H251 H 0.95778 0.79482 0.87589
 H252 H 1.00233 0.74446 0.93597
 C253 C 0.49968 0.28137 0.39493
 C254 C 0.52626 0.27850 0.37288
 C255 C 0.52465 0.25416 0.35471
 C256 C 0.49643 0.23495 0.36010
 C257 C 0.47180 0.28153 0.37538
 C258 C 0.46995 0.25741 0.35724
 C259 C 0.49892 0.25150 0.41234
 C260 C 0.49730 0.22720 0.39406
 H261 H 0.54552 0.29327 0.37295
 H262 H 0.49493 0.21525 0.34516
 H263 H 0.45423 0.29867 0.37673
 H264 H 0.50050 0.24967 0.43671
 C265 C 1.00166 0.27659 0.60469
 C266 C 0.97367 0.27382 0.62483
 C267 C 0.97358 0.24863 0.64256
 C268 C 1.00196 0.22863 0.63891
 C269 C 1.02811 0.27488 0.62602
 C270 C 1.02853 0.24999 0.64390
 C271 C 1.00313 0.24738 0.58684
 C272 C 1.00310 0.22222 0.60483
 H273 H 0.95434 0.28887 0.62305
 H274 H 1.00223 0.20832 0.65368
 H275 H 1.04589 0.29142 0.62606
 H276 H 1.00206 0.24663 0.56241
 C277 C 0.50095 0.77480 0.10552
 C278 C 0.47315 0.77182 0.12585
 C279 C 0.47348 0.74679 0.14381
 C280 C 0.50215 0.72716 0.14019
 C281 C 0.52756 0.77368 0.12669
 C282 C 0.52848 0.74895 0.14480
 C283 C 0.50275 0.74544 0.08794
 C284 C 0.50320 0.72044 0.10615
 H285 H 0.45358 0.78655 0.12400
 H286 H 0.50278 0.70698 0.15514
 H287 H 0.54513 0.79044 0.12638
 H288 H 0.50161 0.74444 0.06353
 O289 O -0.01337 0.98008 0.91433
 O290 O 0.03578 0.99357 0.91302
 O291 O -0.01628 0.91346 0.98723
 O292 O -0.00926 0.91138 1.03610
 O293 O -0.08474 0.98569 0.98229
 O294 O -0.08455 1.03679 0.99399
 O295 O 0.05835 0.99216 1.06554
 O296 O 0.06222 0.94585 1.04513
 O297 O 0.06750 1.05446 0.99376
 O298 O 0.04337 1.06281 0.94591
 O299 O -0.00432 1.06496 1.05606
 O300 O -0.05166 1.04116 1.06507
 O301 O 0.01670 1.01674 1.08347
 O302 O -0.03778 1.00326 1.08431
 O303 O 0.01943 1.08268 1.01386
 O304 O 0.00545 1.08227 0.95964
 O305 O 0.08506 1.01290 1.01847
 O306 O 0.08379 0.96174 0.99790
 O307 O -0.05462 1.00555 0.93194
 O308 O -0.06165 1.05273 0.95671
 O309 O -0.06745 0.94377 1.00652
 O310 O -0.04169 0.93914 1.05561
 O311 O 0.00656 0.93080 0.94432
 O312 O 0.05587 0.95568 0.94063
 Zr313 Zr 0.01414 0.97645 0.95231
 O314 O 0.04247 1.00359 0.97752
 Zr315 Zr -0.02168 0.95173 1.01382
 O316 O 0.00606 0.97688 1.04153
 Zr317 Zr -0.04657 1.01263 0.97787
 O318 O -0.02082 1.04063 1.00483
 Zr319 Zr 0.04790 0.98432 1.02050
 O320 O 0.02163 0.95551 0.99445
 Zr321 Zr 0.02215 1.04549 0.98532
 O322 O -0.00469 1.01977 0.95676
 Zr323 Zr -0.01284 1.01987 1.04682
 O324 O -0.04232 0.99368 1.02131
 O325 O -0.02855 0.96996 0.97108
 O326 O 0.02975 1.02707 1.02804
 C327 C -0.03890 0.99331 0.91087
 C328 C -0.00436 0.90983 0.96106
 C329 C -0.08839 0.96000 0.99494
 C330 C 0.04288 1.00473 1.08656
 C331 C 0.08835 1.03893 1.00642
 C332 C 0.00779 1.08588 1.04021
 H333 H 0.06199 1.00543 0.96675
 H334 H -0.03156 1.06004 1.00687
 H335 H -0.04132 0.95724 0.95848
 H336 H 0.00847 0.96606 1.06095
 H337 H 0.05739 0.92827 1.03278
 H338 H 0.01023 0.91506 1.04573
 H339 H -0.01299 1.08986 0.96983
 H340 H -0.04558 1.05889 0.94235
 H341 H 0.10178 0.96225 1.01086
 H342 H 0.05325 0.94350 0.92230
 H343 H -0.05916 1.05562 1.04976
 H344 H -0.08767 1.03039 1.01523
 H345 H 0.03001 1.01502 0.91132
 H346 H 0.05847 1.04782 0.93908
 H347 H -0.05792 0.95394 1.05986
 H348 H -0.02744 0.98495 1.09188
 O349 O 0.48479 0.48301 0.41692
 O350 O 0.53407 0.49682 0.41560
 O351 O 0.48179 0.41693 0.48990
 O352 O 0.48905 0.41502 0.53890
 O353 O 0.41347 0.48895 0.48464
 O354 O 0.41363 0.54016 0.49641
 O355 O 0.55667 0.49570 0.56795
 O356 O 0.56043 0.44941 0.54774
 O357 O 0.56581 0.55770 0.49566
 O358 O 0.54138 0.56569 0.44770
 O359 O 0.49418 0.56884 0.55804
 O360 O 0.44705 0.54539 0.56755
 O361 O 0.51510 0.52039 0.58590
 O362 O 0.46035 0.50719 0.58657
 O363 O 0.51794 0.58616 0.51567
 O364 O 0.50388 0.58568 0.46179
 O365 O 0.58332 0.51629 0.52068
 O366 O 0.58194 0.46501 0.50043
 O367 O 0.44356 0.50865 0.43434
 O368 O 0.43653 0.55603 0.45898
 O369 O 0.43079 0.44717 0.50909
 O370 O 0.45640 0.44287 0.55827
 O371 O 0.50454 0.43418 0.44691
 O372 O 0.55392 0.45866 0.44322
 Zr373 Zr 0.51233 0.47972 0.45486
 O374 O 0.54072 0.50687 0.47989
 Zr375 Zr 0.47652 0.45527 0.51649
 O376 O 0.50430 0.48055 0.54406
 Zr377 Zr 0.45161 0.51600 0.48028
 O378 O 0.47747 0.54410 0.50705
 Zr379 Zr 0.54613 0.48779 0.52295
 O380 O 0.51981 0.45890 0.49705
 Zr381 Zr 0.52042 0.54881 0.48744
 O382 O 0.49347 0.52304 0.45906
 Zr383 Zr 0.48553 0.52363 0.54918
 O384 O 0.45595 0.49731 0.52383
 O385 O 0.46966 0.47334 0.47369
 O386 O 0.52810 0.53064 0.53028
 C387 C 0.45924 0.49616 0.41338
 C388 C 0.49354 0.41329 0.46364
 C389 C 0.40985 0.46323 0.49727
 C390 C 0.54125 0.50827 0.58900
 C391 C 0.58666 0.54219 0.50836
 C392 C 0.50636 0.58961 0.54199
 H393 H 0.56023 0.50860 0.46907
 H394 H 0.46678 0.56354 0.50901
 H395 H 0.45688 0.46058 0.46115
 H396 H 0.50668 0.46980 0.56353
 H397 H 0.55550 0.43178 0.53551
 H398 H 0.50835 0.41889 0.54884
 H399 H 0.48522 0.59305 0.47174
 H400 H 0.45257 0.56209 0.44454
 H401 H 0.59996 0.46559 0.51333
 H402 H 0.55127 0.44666 0.42479
 H403 H 0.43908 0.55917 0.55186
 H404 H 0.41046 0.53367 0.51763
 H405 H 0.52783 0.51812 0.41352
 H406 H 0.55671 0.55082 0.44115
 H407 H 0.44017 0.45770 0.56242
 H408 H 0.47068 0.48894 0.59432
 O409 O 0.51487 0.01937 0.41500
 O410 O 0.46646 0.00226 0.41580
 O411 O 0.51378 0.08786 0.48298
 O412 O 0.50264 0.09084 0.53206
 O413 O 0.58603 0.02193 0.48172
 O414 O 0.58944 -0.02935 0.49682
 O415 O 0.44296 0.00516 0.56825
 O416 O 0.43557 0.05071 0.54590
 O417 O 0.43875 -0.05882 0.49867
 O418 O 0.46554 -0.06594 0.45089
 O419 O 0.51009 -0.06241 0.56154
 O420 O 0.55672 -0.03486 0.56701
 O421 O 0.48645 -0.01520 0.58651
 O422 O 0.53921 0.00182 0.58577
 O423 O 0.48757 -0.08255 0.52092
 O424 O 0.50347 -0.08341 0.46682
 O425 O 0.41799 -0.01834 0.52209
 O426 O 0.41587 0.03271 0.49969
 O427 O 0.55794 -0.00220 0.43299
 O428 O 0.56897 -0.04760 0.45997
 O429 O 0.56525 0.06282 0.50443
 O430 O 0.53859 0.06667 0.55319
 O431 O 0.49245 0.06766 0.44168
 O432 O 0.44425 0.04043 0.44190
 Zr433 Zr 0.48698 0.02211 0.45332
 O434 O 0.46046 -0.00655 0.48038
 Zr435 Zr 0.52007 0.05115 0.51263
 O436 O 0.49413 0.02430 0.54215
 Zr437 Zr 0.55016 -0.00860 0.47959
 O438 O 0.52609 -0.03813 0.50821
 Zr439 Zr 0.45307 0.01313 0.52253
 O440 O 0.47734 0.04345 0.49446
 Zr441 Zr 0.48375 -0.04668 0.48988
 O442 O 0.50910 -0.01954 0.45972
 Zr443 Zr 0.51617 -0.01709 0.54929
 O444 O 0.54377 0.01103 0.52206
 O445 O 0.52884 0.03221 0.47090
 O446 O 0.47439 -0.02790 0.53178
 C447 C 0.54142 0.00827 0.41166
 C448 C 0.50262 0.08977 0.45647
 C449 C 0.58760 0.04830 0.49292
 C450 C 0.45931 -0.00553 0.58958
 C451 C 0.41653 -0.04469 0.51092
 C452 C 0.49870 -0.08436 0.54740
 H453 H 0.44130 -0.01002 0.46998
 H454 H 0.53803 -0.05674 0.51115
 H455 H 0.54094 0.04531 0.45738
 H456 H 0.49072 0.03525 0.56113
 H457 H 0.43933 0.06848 0.53283
 H458 H 0.48527 0.08496 0.54485
 H459 H 0.52215 -0.08928 0.47735
 H460 H 0.55302 -0.05631 0.44757
 H461 H 0.39783 0.03096 0.51296
 H462 H 0.44610 0.05166 0.42252
 H463 H 0.56432 -0.05038 0.55304
 H464 H 0.59184 -0.02168 0.51747
 H465 H 0.47463 -0.01842 0.41441
 H466 H 0.44869 -0.05292 0.44415
 H467 H 0.55539 0.05286 0.55838
 H468 H 0.52811 0.02016 0.59187
 O469 O -0.06507 0.43513 0.99452
 O470 O -0.04128 0.43033 0.94829
 O471 O 0.00803 0.43165 1.05768
 O472 O 0.05049 0.45613 1.06495
 O473 O -0.05972 0.50147 1.06561
 O474 O -0.07064 0.54604 1.03907
 O475 O 0.08206 0.51578 0.97714
 O476 O 0.08623 0.46782 0.99462
 O477 O 0.01184 0.51486 0.91226
 O478 O -0.03966 0.49923 0.91251
 O479 O 0.01244 0.58157 0.97882
 O480 O -0.00165 0.58356 1.03149
 O481 O 0.06135 0.55667 1.00008
 O482 O 0.03388 0.56310 1.04938
 O483 O -0.01053 0.56202 0.93817
 O484 O -0.05877 0.53355 0.93429
 O485 O 0.05553 0.49515 0.93047
 O486 O 0.05934 0.44508 0.95488
 O487 O -0.08622 0.47634 1.01658
 O488 O -0.08960 0.52853 1.00106
 O489 O -0.01656 0.48065 1.08392
 O490 O 0.03515 0.49874 1.08124
 O491 O -0.01511 0.41156 1.01733
 O492 O 0.00409 0.41306 0.96444
 Zr493 Zr -0.02018 0.44777 0.98670
 O494 O 0.00473 0.47509 0.95670
 Zr495 Zr 0.01215 0.47731 1.04619
 O496 O 0.03916 0.50493 1.01857
 Zr497 Zr -0.05087 0.50758 1.01930
 O498 O -0.02646 0.53736 0.99127
 Zr499 Zr 0.04603 0.48560 0.97614
 O500 O 0.02233 0.45583 1.00528
 Zr501 Zr -0.01704 0.51663 0.95000
 O502 O -0.04397 0.48788 0.97704
 Zr503 Zr 0.01614 0.54534 1.00943
 O504 O -0.01002 0.51882 1.03962
 O505 O -0.02939 0.46694 1.02837
 O506 O 0.02499 0.52686 0.96730
 C507 C -0.08755 0.44977 1.00569
 C508 C -0.00310 0.40963 1.04345
 C509 C -0.04324 0.49140 1.08707
 C510 C 0.08357 0.54226 0.98808
 C511 C 0.03905 0.50555 0.90916
 C512 C 0.00115 0.58373 0.95243
 H513 H 0.00779 0.46423 0.93759
 H514 H -0.03823 0.55612 0.98861
 H515 H -0.04150 0.45387 1.04191
 H516 H 0.05847 0.50812 1.02876
 H517 H 0.08086 0.44877 1.00494
 H518 H 0.06794 0.46211 1.05232
 H519 H -0.06435 0.55127 0.94640
 H520 H -0.09267 0.51951 0.98109
 H521 H 0.07895 0.44840 0.94451
 H522 H -0.00645 0.39382 0.96796
 H523 H -0.02209 0.58738 1.02370
 H524 H -0.05454 0.55569 1.05054
 H525 H -0.05483 0.44630 0.94045
 H526 H -0.03053 0.47944 0.90798
 H527 H 0.02383 0.51742 1.08580
 H528 H 0.05219 0.55137 1.05446
 O529 O -0.06590 0.56140 0.50888
 O530 O -0.04092 0.56339 0.55434
 O531 O 0.00398 0.56867 0.44187
 O532 O 0.04485 0.54410 0.42704
 O533 O -0.06313 0.49744 0.43605
 O534 O -0.06998 0.45154 0.46215
 O535 O 0.08410 0.48212 0.51290
 O536 O 0.08609 0.53044 0.49484
 O537 O 0.01955 0.47975 0.58206
 O538 O -0.03257 0.49419 0.58742
 O539 O 0.01631 0.41540 0.51172
 O540 O 0.00072 0.41626 0.46032
 O541 O 0.06373 0.44173 0.49018
 O542 O 0.03535 0.43790 0.44154
 O543 O -0.00390 0.43301 0.55551
 O544 O -0.05190 0.46076 0.56619
 O545 O 0.06059 0.50222 0.56101
 O546 O 0.06042 0.55268 0.53720
 O547 O -0.08667 0.52062 0.48719
 O548 O -0.08751 0.46819 0.50218
 O549 O -0.02239 0.52018 0.41474
 O550 O 0.03077 0.50226 0.41228
 O551 O -0.01738 0.58654 0.48508
 O552 O 0.00300 0.58291 0.53605
 Zr553 Zr -0.02051 0.54875 0.51360
 O554 O 0.00739 0.52103 0.54018
 Zr555 Zr 0.00910 0.52231 0.44984
 O556 O 0.03903 0.49441 0.47401
 Zr557 Zr -0.05069 0.48994 0.48108
 O558 O -0.02341 0.45978 0.50571
 Zr559 Zr 0.04762 0.51219 0.51655
 O560 O 0.02093 0.54229 0.49074
 Zr561 Zr -0.01211 0.47888 0.54704
 O562 O -0.04199 0.50792 0.52356
 Zr563 Zr 0.01815 0.45333 0.48336
 O564 O -0.01093 0.48025 0.45659
 O565 O -0.03141 0.53129 0.47185
 O566 O 0.02891 0.47021 0.52545
 C567 C -0.08825 0.54695 0.49856
 C568 C -0.00638 0.58989 0.45844
 C569 C -0.04877 0.50885 0.41352
 C570 C 0.08576 0.45575 0.50174
 C571 C 0.04629 0.49024 0.58328
 C572 C 0.00661 0.41198 0.53882
 H573 H 0.01119 0.53124 0.55938
 H574 H -0.03440 0.44080 0.50844
 H575 H -0.04447 0.54487 0.45981
 H576 H 0.05793 0.49191 0.46228
 H577 H 0.07965 0.54979 0.48566
 H578 H 0.06302 0.54035 0.43918
 H579 H -0.05855 0.44449 0.55299
 H580 H -0.08980 0.47687 0.52252
 H581 H 0.08084 0.54972 0.54555
 H582 H -0.00892 0.60185 0.53494
 H583 H -0.01934 0.41198 0.46915
 H584 H -0.05492 0.44342 0.44770
 H585 H -0.05385 0.54691 0.56185
 H586 H -0.02458 0.51432 0.59143
 H587 H 0.01948 0.48391 0.40772
 H588 H 0.05343 0.44968 0.43629
 O589 O 0.51577 0.91329 0.01224
 O590 O 0.49836 0.91451 -0.03621
 O591 O 0.58478 0.98041 0.01163
 O592 O 0.58824 1.02914 0.00034
 O593 O 0.51869 0.97948 0.08398
 O594 O 0.46746 0.99412 0.08774
 O595 O 0.50258 1.06630 -0.05869
 O596 O 0.54794 1.04360 -0.06657
 O597 O 0.43751 0.99773 -0.06293
 O598 O 0.42993 0.95017 -0.03669
 O599 O 0.43494 1.05983 0.00866
 O600 O 0.46255 1.06474 0.05533
 O601 O 0.48244 1.08434 -0.01492
 O602 O 0.49972 1.08292 0.03803
 O603 O 0.41420 1.01967 -0.01385
 O604 O 0.41304 0.96556 0.00186
 O605 O 0.47821 1.02093 -0.08379
 O606 O 0.52913 0.99806 -0.08655
 O607 O 0.49453 0.93102 0.05567
 O608 O 0.44881 0.95798 0.06671
 O609 O 0.55984 1.00191 0.06312
 O610 O 0.56435 1.05031 0.03649
 O611 O 0.56424 0.93966 -0.01014
 O612 O 0.53674 0.94042 -0.05845
 Zr613 Zr 0.51860 0.95157 -0.01548
 O614 O 0.48993 0.97887 -0.04169
 Zr615 Zr 0.54825 1.01016 0.01792
 O616 O 0.52155 1.03989 -0.00775
 Zr617 Zr 0.48812 0.97743 0.04810
 O618 O 0.45872 1.00639 0.02439
 Zr619 Zr 0.51003 1.02068 -0.04893
 O620 O 0.54032 0.99239 -0.02497
 Zr621 Zr 0.44986 0.98848 -0.01807
 O622 O 0.47692 0.95802 0.00689
 Zr623 Zr 0.48021 1.04714 0.01461
 O624 O 0.50818 1.01959 0.04193
 O625 O 0.52895 0.96873 0.02654
 O626 O 0.46906 1.03006 -0.02728
 C627 C 0.50488 0.90986 0.03894
 C628 C 0.58650 0.95412 0.00028
 C629 C 0.54514 0.99061 0.08550
 C630 C 0.49217 1.08749 -0.04210
 C631 C 0.45166 1.01006 -0.08513
 C632 C 0.41274 1.04602 -0.00267
 H633 H 0.48626 0.96871 -0.06095
 H634 H 0.44013 1.00940 0.03647
 H635 H 0.54203 0.95518 0.03860
 H636 H 0.53274 1.05869 -0.01108
 H637 H 0.56562 1.03036 -0.06305
 H638 H 0.58244 1.04194 -0.01702
 H639 H 0.40712 0.97614 0.02051
 H640 H 0.44029 0.94543 0.05078
 H641 H 0.52739 1.01142 -0.10451
 H642 H 0.54796 0.92111 -0.05675
 H643 H 0.44685 1.05094 0.06292
 H644 H 0.47479 1.01482 0.09005
 H645 H 0.47762 0.91322 -0.02795
 H646 H 0.44308 0.94325 -0.05342
 H647 H 0.55061 1.05557 0.05340
 H648 H 0.51789 1.08924 0.02664
 O649 O 0.48130 0.51242 0.08602
 O650 O 0.53088 0.49606 0.08806
 O651 O 0.48206 0.58239 0.01858
 O652 O 0.49239 0.58782 -0.03003
 O653 O 0.41465 0.51076 0.01573
 O654 O 0.41659 0.46041 0.00099
 O655 O 0.56325 0.50738 -0.06319
 O656 O 0.56435 0.55284 -0.04004
 O657 O 0.56875 0.44108 0.00419
 O658 O 0.54259 0.42959 0.05024
 O659 O 0.50007 0.43558 -0.06084
 O660 O 0.45311 0.46132 -0.06947
 O661 O 0.52307 0.48447 -0.08390
 O662 O 0.46846 0.49990 -0.08599
 O663 O 0.52189 0.41485 -0.01931
 O664 O 0.50485 0.41216 0.03485
 O665 O 0.58706 0.48411 -0.01678
 O666 O 0.58357 0.53383 0.00703
 O667 O 0.44133 0.48880 0.06563
 O668 O 0.43808 0.44215 0.03841
 O669 O 0.43255 0.55412 -0.00488
 O670 O 0.46121 0.56186 -0.05268
 O671 O 0.50333 0.56195 0.06061
 O672 O 0.55236 0.53601 0.06413
 Zr673 Zr 0.51166 0.51683 0.04952
 O674 O 0.54183 0.49110 0.02325
 Zr675 Zr 0.47904 0.54619 -0.01128
 O676 O 0.50877 0.52252 -0.03991
 Zr677 Zr 0.45306 0.48331 0.01977
 O678 O 0.48076 0.45687 -0.00841
 Zr679 Zr 0.54949 0.51310 -0.01818
 O680 O 0.52130 0.54043 0.00908
 Zr681 Zr 0.52270 0.45004 0.01195
 O682 O 0.49385 0.47414 0.04157
 Zr683 Zr 0.49089 0.48022 -0.04872
 O684 O 0.45958 0.50503 -0.02222
 O685 O 0.47009 0.52517 0.02980
 O686 O 0.53243 0.47121 -0.02913
 C687 C 0.45527 0.50028 0.08781
 C688 C 0.49261 0.58413 0.04531
 C689 C 0.41120 0.53737 0.00501
 C690 C 0.54950 0.49581 -0.08539
 C691 C 0.59011 0.45720 -0.00671
 C692 C 0.51164 0.41344 -0.04615
 H693 H 0.56077 0.48828 0.03443
 H694 H 0.47040 0.43782 -0.01211
 H695 H 0.45640 0.53737 0.04261
 H696 H 0.51229 0.53443 -0.05855
 H697 H 0.55873 0.56964 -0.02665
 H698 H 0.51207 0.58430 -0.04005
 H699 H 0.48709 0.40556 0.02362
 H700 H 0.45306 0.43576 0.05358
 H701 H 0.60225 0.53415 -0.00543
 H702 H 0.54857 0.54629 0.08354
 H703 H 0.44509 0.44572 -0.05560
 H704 H 0.41445 0.46825 -0.01986
 H705 H 0.52367 0.47516 0.08882
 H706 H 0.55541 0.44470 0.05968
 H707 H 0.44584 0.54729 -0.05868
 H708 H 0.47948 0.51814 -0.09221
 O709 O -0.08701 0.01339 0.51495
 O710 O -0.08578 -0.03511 0.49784
 O711 O -0.02008 0.01323 0.58431
 O712 O 0.02874 0.00176 0.58808
 O713 O -0.02020 0.08451 0.51721
 O714 O -0.00540 0.08767 0.46596
 O715 O 0.06655 -0.05778 0.50294
 O716 O 0.04341 -0.06513 0.54839
 O717 O -0.00219 -0.06247 0.43753
 O718 O -0.04968 -0.03644 0.42954
 O719 O 0.06042 0.00846 0.43444
 O720 O 0.06526 0.05536 0.46182
 O721 O 0.08482 -0.01446 0.48237
 O722 O 0.08354 0.03827 0.49904
 O723 O 0.02010 -0.01400 0.41377
 O724 O -0.03412 0.00184 0.41236
 O725 O 0.02090 -0.08289 0.47855
 O726 O -0.00220 -0.08514 0.52955
 O727 O -0.06888 0.05633 0.49334
 O728 O -0.04161 0.06653 0.44734
 O729 O 0.00197 0.06415 0.55877
 O730 O 0.05027 0.03755 0.56392
 O731 O -0.06090 -0.00858 0.56379
 O732 O -0.06017 -0.05689 0.53675
 Zr733 Zr -0.04871 -0.01435 0.51815
 O734 O -0.02120 -0.04079 0.48984
 Zr735 Zr 0.01005 0.01899 0.54776
 O736 O 0.03998 -0.00686 0.52136
 Zr737 Zr -0.02234 0.04848 0.48704
 O738 O 0.00680 0.02454 0.45795
 Zr739 Zr 0.02068 -0.04792 0.51014
 O740 O -0.00785 -0.02372 0.54012
 Zr741 Zr -0.01132 -0.01773 0.44946
 O742 O -0.04195 0.00744 0.47618
 Zr743 Zr 0.04754 0.01493 0.47972
 O744 O 0.01983 0.04242 0.50737
 O745 O -0.03136 0.02749 0.52815
 O746 O 0.03030 -0.02682 0.46890
 C747 C -0.09027 0.03992 0.50385
 C748 C -0.04651 0.00201 0.58606
 C749 C -0.00916 0.08628 0.54372
 C750 C 0.08793 -0.04143 0.49238
 C751 C 0.01007 -0.08444 0.45193
 C752 C 0.04660 -0.00300 0.41227
 H753 H -0.03143 -0.05997 0.48632
 H754 H 0.00994 0.03636 0.43920
 H755 H -0.04495 0.03967 0.54109
 H756 H 0.05877 -0.01009 0.53266
 H757 H 0.03005 -0.06140 0.56601
 H758 H 0.04174 -0.01546 0.58244
 H759 H -0.02336 0.02026 0.40621
 H760 H -0.05441 0.05069 0.43910
 H761 H 0.01116 -0.10304 0.52801
 H762 H -0.07964 -0.05503 0.54780
 H763 H 0.05179 0.06250 0.44560
 H764 H 0.01541 0.08989 0.47319
 H765 H -0.08710 -0.02687 0.47707
 H766 H -0.05685 -0.05279 0.44299
 H767 H 0.05580 0.05409 0.54990
 H768 H 0.08957 0.02726 0.51754
 O769 O 0.66158 0.22634 0.25718
 O770 O 0.66476 0.24435 0.20837
 O771 O 0.73516 0.16231 0.26303
 O772 O 0.78466 0.16178 0.26091
 O773 O 0.72119 0.23149 0.33325
 O774 O 0.73204 0.28306 0.33453
 O775 O 0.81878 0.24729 0.19655
 O776 O 0.80053 0.19999 0.19113
 O777 O 0.74779 0.30762 0.18284
 O778 O 0.69804 0.31441 0.20268
 O779 O 0.80102 0.31658 0.26136
 O780 O 0.80574 0.28940 0.30818
 O781 O 0.83188 0.27059 0.23977
 O782 O 0.82813 0.25351 0.29364
 O783 O 0.76141 0.33442 0.23429
 O784 O 0.70565 0.33132 0.24299
 O785 O 0.77457 0.26699 0.16663
 O786 O 0.75515 0.21540 0.16596
 O787 O 0.67437 0.25048 0.30004
 O788 O 0.69638 0.29878 0.30880
 O789 O 0.74773 0.19065 0.31726
 O790 O 0.79971 0.18864 0.29536
 O791 O 0.69480 0.17984 0.23681
 O792 O 0.69489 0.20774 0.18876
 Zr793 Zr 0.70210 0.22624 0.23190
 O794 O 0.72963 0.25525 0.20613
 Zr795 Zr 0.76009 0.20101 0.27211
 O796 O 0.79000 0.22821 0.24702
 Zr797 Zr 0.72043 0.25999 0.29511
 O798 O 0.74928 0.28982 0.27201
 Zr799 Zr 0.77335 0.23719 0.20375
 O800 O 0.74533 0.20664 0.22739
 Zr801 Zr 0.73449 0.29650 0.22758
 O802 O 0.70377 0.26885 0.25175
 Zr803 Zr 0.79244 0.27052 0.26701
 O804 O 0.76453 0.24228 0.29392
 O805 O 0.71657 0.21802 0.27577
 O806 O 0.77810 0.27933 0.22315
 C807 C 0.65536 0.23771 0.28303
 C808 C 0.71066 0.15861 0.24858
 C809 C 0.73352 0.20569 0.33761
 C810 C 0.83778 0.26021 0.21341
 C811 C 0.76274 0.29307 0.16263
 C812 C 0.78602 0.33785 0.24859
 H813 H 0.72103 0.25775 0.18580
 H814 H 0.74961 0.30869 0.28341
 H815 H 0.70321 0.20420 0.28718
 H816 H 0.80987 0.21807 0.24575
 H817 H 0.78820 0.18189 0.19453
 H818 H 0.79626 0.16658 0.24235
 H819 H 0.71338 0.33815 0.26251
 H820 H 0.68310 0.30465 0.29193
 H821 H 0.76999 0.21663 0.14911
 H822 H 0.67629 0.19565 0.18954
 H823 H 0.78948 0.30326 0.31476
 H824 H 0.75264 0.27631 0.33973
 H825 H 0.66151 0.26503 0.21567
 H826 H 0.69158 0.29879 0.18864
 H827 H 0.80186 0.20302 0.31197
 H828 H 0.83685 0.23580 0.28341
 O829 O 0.75787 0.69431 0.68443
 O830 O 0.80343 0.68841 0.70635
 O831 O 0.69542 0.68400 0.76041
 O832 O 0.68345 0.70745 0.80219
 O833 O 0.68395 0.75873 0.69497
 O834 O 0.70880 0.80426 0.68694
 O835 O 0.77010 0.76411 0.83644
 O836 O 0.75491 0.71650 0.83790
 O837 O 0.83582 0.76925 0.76553
 O838 O 0.83724 0.75791 0.71334
 O839 O 0.76548 0.83552 0.76943
 O840 O 0.71375 0.83703 0.75887
 O841 O 0.74607 0.80610 0.81875
 O842 O 0.69664 0.81361 0.79275
 O843 O 0.80722 0.81811 0.74484
 O844 O 0.81394 0.79154 0.69588
 O845 O 0.81814 0.74553 0.80778
 O846 O 0.79495 0.69553 0.80832
 O847 O 0.73470 0.73660 0.66635
 O848 O 0.74700 0.78869 0.66605
 O849 O 0.66604 0.73448 0.73677
 O850 O 0.66768 0.74964 0.79012
 O851 O 0.73643 0.66635 0.73472
 O852 O 0.78908 0.66819 0.75107
 Zr853 Zr 0.76461 0.70373 0.72999
 O854 O 0.79319 0.72967 0.75612
 Zr855 Zr 0.70349 0.73002 0.76503
 O856 O 0.72981 0.75598 0.79340
 Zr857 Zr 0.72972 0.76477 0.70380
 O858 O 0.75628 0.79310 0.72963
 Zr859 Zr 0.77289 0.73693 0.79835
 O860 O 0.74515 0.70865 0.77323
 Zr861 Zr 0.79835 0.77265 0.73715
 O862 O 0.77271 0.74546 0.70879
 Zr863 Zr 0.73743 0.79800 0.77300
 O864 O 0.70852 0.77298 0.74560
 O865 O 0.72210 0.72248 0.72255
 O866 O 0.78030 0.77984 0.78019
 C867 C 0.74695 0.71062 0.66311
 C868 C 0.71112 0.66288 0.74842
 C869 C 0.66269 0.74738 0.71103
 C870 C 0.75798 0.79011 0.83983
 C871 C 0.83920 0.75726 0.79172
 C872 C 0.79134 0.83906 0.75687
 H873 H 0.81265 0.71888 0.75806
 H874 H 0.75799 0.81250 0.71877
 H875 H 0.70932 0.70976 0.70996
 H876 H 0.71928 0.75756 0.81309
 H877 H 0.74511 0.69784 0.83155
 H878 H 0.69751 0.70914 0.81912
 H879 H 0.80085 0.80899 0.69098
 H880 H 0.76746 0.78059 0.66204
 H881 H 0.80514 0.69734 0.82795
 H882 H 0.78648 0.64952 0.73951
 H883 H 0.71963 0.84115 0.73766
 H884 H 0.69577 0.81202 0.70342
 H885 H 0.81123 0.70572 0.69458
 H886 H 0.84197 0.73725 0.72034
 H887 H 0.66200 0.76854 0.77960
 H888 H 0.69209 0.80068 0.81048
 O889 O 0.30979 0.18420 0.75075
 O890 O 0.31341 0.20159 0.70211
 O891 O 0.31859 0.26593 0.80287
 O892 O 0.29286 0.30782 0.81093
 O893 O 0.24829 0.19991 0.82399
 O894 O 0.20066 0.19064 0.80251
 O895 O 0.23321 0.33281 0.72217
 O896 O 0.28190 0.33567 0.73628
 O897 O 0.22724 0.25749 0.66558
 O898 O 0.24306 0.20573 0.66908
 O899 O 0.16417 0.26577 0.73652
 O900 O 0.16425 0.26004 0.78927
 O901 O 0.19208 0.31686 0.74879
 O902 O 0.18714 0.29559 0.80197
 O903 O 0.18170 0.23758 0.69758
 O904 O 0.21074 0.18913 0.69574
 O905 O 0.24965 0.30112 0.67805
 O906 O 0.30167 0.30350 0.69791
 O907 O 0.26855 0.16796 0.77704
 O908 O 0.21595 0.16601 0.76588
 O909 O 0.27152 0.24307 0.83649
 O910 O 0.25162 0.29530 0.82985
 O911 O 0.33634 0.23673 0.76472
 O912 O 0.33229 0.24755 0.71013
 Zr913 Zr 0.29825 0.22863 0.73826
 O914 O 0.27033 0.25173 0.70749
 Zr915 Zr 0.27193 0.26852 0.79602
 O916 O 0.24390 0.29391 0.76730
 Zr917 Zr 0.23900 0.20517 0.77796
 O918 O 0.20877 0.22790 0.74931
 Zr919 Zr 0.26176 0.29513 0.72330
 O920 O 0.29194 0.27309 0.75289
 Zr921 Zr 0.22788 0.23184 0.70589
 O922 O 0.25701 0.20640 0.73393
 Zr923 Zr 0.20238 0.27247 0.76320
 O924 O 0.22946 0.24828 0.79453
 O925 O 0.28081 0.22505 0.78190
 O926 O 0.21939 0.27584 0.71933
 C927 C 0.29466 0.16395 0.76498
 C928 C 0.33990 0.25272 0.78823
 C929 C 0.26069 0.21718 0.84290
 C930 C 0.20698 0.33686 0.73388
 C931 C 0.23694 0.28387 0.65932
 C932 C 0.16057 0.25096 0.71225
 H933 H 0.28027 0.25238 0.68743
 H934 H 0.18973 0.21670 0.74942
 H935 H 0.29469 0.21399 0.79546
 H936 H 0.24169 0.31434 0.77545
 H937 H 0.30129 0.33012 0.74568
 H938 H 0.28969 0.32327 0.79508
 H939 H 0.19378 0.18510 0.70983
 H940 H 0.22400 0.16003 0.74592
 H941 H 0.29845 0.32205 0.68575
 H942 H 0.35156 0.23668 0.71365
 H943 H 0.16173 0.23820 0.78692
 H944 H 0.19375 0.20781 0.81482
 H945 H 0.29608 0.18944 0.69603
 H946 H 0.26295 0.21331 0.66257
 H947 H 0.23373 0.28441 0.83743
 H948 H 0.19941 0.31381 0.80384
 O949 O 0.18469 0.75086 0.30907
 O950 O 0.20189 0.70256 0.31351
 O951 O 0.26723 0.80244 0.31701
 O952 O 0.30946 0.80935 0.29096
 O953 O 0.20103 0.82309 0.24687
 O954 O 0.19155 0.80139 0.19923
 O955 O 0.33331 0.72054 0.23205
 O956 O 0.33646 0.73497 0.28064
 O957 O 0.25709 0.66469 0.22714
 O958 O 0.20518 0.66892 0.24330
 O959 O 0.26584 0.73433 0.16299
 O960 O 0.26047 0.78701 0.16257
 O961 O 0.31737 0.74664 0.19060
 O962 O 0.29654 0.79945 0.18490
 O963 O 0.23722 0.69607 0.18120
 O964 O 0.18875 0.69510 0.21058
 O965 O 0.30112 0.67698 0.24913
 O966 O 0.30391 0.69723 0.30099
 O967 O 0.16854 0.77670 0.26752
 O968 O 0.16634 0.76541 0.21502
 O969 O 0.24462 0.83535 0.26970
 O970 O 0.29676 0.82814 0.24948
 O971 O 0.23755 0.76501 0.33541
 O972 O 0.24818 0.71046 0.33193
 Zr973 Zr 0.22921 0.73813 0.29760
 O974 O 0.25192 0.70698 0.26983
 Zr975 Zr 0.26971 0.79487 0.27034
 O976 O 0.29469 0.76576 0.24239
 Zr977 Zr 0.20585 0.77716 0.23785
 O978 O 0.22815 0.74804 0.20777
 Zr979 Zr 0.29559 0.72219 0.26080
 O980 O 0.27395 0.75216 0.29086
 Zr981 Zr 0.23177 0.70503 0.22742
 O982 O 0.20672 0.73354 0.25641
 Zr983 Zr 0.27297 0.76135 0.20093
 O984 O 0.24924 0.79309 0.22789
 O985 O 0.22597 0.78135 0.27960
 O986 O 0.27601 0.71789 0.21850
 C987 C 0.16444 0.76494 0.29379
 C988 C 0.25378 0.78837 0.33862
 C989 C 0.21862 0.84186 0.25905
 C990 C 0.33738 0.73190 0.20563
 C991 C 0.28356 0.65835 0.23675
 C992 C 0.25073 0.71024 0.15974
 H993 H 0.25241 0.68713 0.28003
 H994 H 0.21683 0.74799 0.18876
 H995 H 0.21501 0.79505 0.29340
 H996 H 0.31526 0.77368 0.23994
 H997 H 0.33106 0.74454 0.30001
 H998 H 0.32485 0.79357 0.28746
 H999 H 0.18479 0.70890 0.19342
 H1000 H 0.16026 0.74556 0.22309
 H1001 H 0.32242 0.68499 0.29780
 H1002 H 0.23749 0.71437 0.35128
 H1003 H 0.23855 0.78467 0.16012
 H1004 H 0.20888 0.81348 0.19223
 H1005 H 0.18978 0.69617 0.29624
 H1006 H 0.21304 0.66238 0.26310
 H1007 H 0.28588 0.83547 0.23146
 H1008 H 0.31465 0.80157 0.19735
 O1009 O 0.24975 0.81031 0.68434
 O1010 O 0.20127 0.81335 0.70216
 O1011 O 0.30211 0.81864 0.76639
 O1012 O 0.31020 0.79272 0.80837
 O1013 O 0.32350 0.74959 0.69940
 O1014 O 0.30243 0.70199 0.68963
 O1015 O 0.22234 0.73188 0.83309
 O1016 O 0.23611 0.78051 0.83648
 O1017 O 0.16568 0.72655 0.75742
 O1018 O 0.16891 0.74276 0.70560
 O1019 O 0.23716 0.66405 0.76480
 O1020 O 0.28979 0.66481 0.75896
 O1021 O 0.24920 0.69135 0.81650
 O1022 O 0.30224 0.68722 0.79501
 O1023 O 0.19801 0.68150 0.73684
 O1024 O 0.19578 0.71107 0.68847
 O1025 O 0.17805 0.74849 0.80149
 O1026 O 0.19757 0.80035 0.80448
 O1027 O 0.27632 0.76965 0.66754
 O1028 O 0.26572 0.71716 0.66510
 O1029 O 0.33587 0.77227 0.74306
 O1030 O 0.32954 0.75184 0.79531
 O1031 O 0.26383 0.83635 0.73732
 O1032 O 0.20940 0.83170 0.74852
 Zr1033 Zr 0.23761 0.79823 0.72899
 O1034 O 0.20722 0.76981 0.75201
 Zr1035 Zr 0.29553 0.77206 0.76868
 O1036 O 0.26720 0.74352 0.79397
 Zr1037 Zr 0.27764 0.73981 0.70468
 O1038 O 0.24936 0.70914 0.72727
 Zr1039 Zr 0.22315 0.76087 0.79553
 O1040 O 0.25234 0.79153 0.77360
 Zr1041 Zr 0.20587 0.72771 0.73158
 O1042 O 0.23355 0.75732 0.70624
 Zr1043 Zr 0.26339 0.70235 0.77197
 O1044 O 0.29435 0.72995 0.74788
 O1045 O 0.28128 0.78128 0.72509
 O1046 O 0.21947 0.71883 0.77568
 C1047 C 0.26401 0.79559 0.66377
 C1048 C 0.28736 0.83991 0.75331
 C1049 C 0.34231 0.76189 0.71689
 C1050 C 0.23423 0.70578 0.83682
 C1051 C 0.15939 0.73595 0.78402
 C1052 C 0.21292 0.66039 0.74994
 H1053 H 0.18713 0.77955 0.75281
 H1054 H 0.24960 0.69030 0.71580
 H1055 H 0.29466 0.79535 0.71405
 H1056 H 0.27540 0.74112 0.81447
 H1057 H 0.24530 0.80001 0.83110
 H1058 H 0.29464 0.78886 0.82400
 H1059 H 0.20994 0.69433 0.68420
 H1060 H 0.24568 0.72500 0.65925
 H1061 H 0.18557 0.79685 0.82317
 H1062 H 0.21274 0.85107 0.73778
 H1063 H 0.28736 0.66251 0.73700
 H1064 H 0.31487 0.69507 0.70677
 H1065 H 0.19533 0.79619 0.68974
 H1066 H 0.16240 0.76253 0.71332
 H1067 H 0.33716 0.73414 0.78422
 H1068 H 0.30405 0.69927 0.81343
 O1069 O 0.25549 0.19449 0.18459
 O1070 O 0.30092 0.18876 0.20688
 O1071 O 0.19264 0.18444 0.26041
 O1072 O 0.18039 0.20806 0.30200
 O1073 O 0.18127 0.25873 0.19451
 O1074 O 0.20609 0.30438 0.18651
 O1075 O 0.26692 0.26502 0.33643
 O1076 O 0.25158 0.21728 0.33800
 O1077 O 0.33284 0.26983 0.26584
 O1078 O 0.33421 0.25787 0.21332
 O1079 O 0.26260 0.33595 0.26927
 O1080 O 0.21097 0.33758 0.25828
 O1081 O 0.24288 0.30687 0.31845
 O1082 O 0.19346 0.31410 0.29207
 O1083 O 0.30447 0.31837 0.24502
 O1084 O 0.31152 0.29214 0.19623
 O1085 O 0.31497 0.24638 0.30816
 O1086 O 0.29189 0.19628 0.30879
 O1087 O 0.23234 0.23666 0.16618
 O1088 O 0.24442 0.28880 0.16579
 O1089 O 0.16328 0.23466 0.23639
 O1090 O 0.16465 0.25022 0.28965
 O1091 O 0.23372 0.16677 0.23485
 O1092 O 0.28621 0.16862 0.25153
 Zr1093 Zr 0.26191 0.20411 0.23018
 O1094 O 0.29034 0.23013 0.25641
 Zr1095 Zr 0.20060 0.23049 0.26485
 O1096 O 0.22674 0.25659 0.29327
 Zr1097 Zr 0.22702 0.26497 0.20355
 O1098 O 0.25347 0.29341 0.22941
 Zr1099 Zr 0.26980 0.23759 0.29850
 O1100 O 0.24223 0.20919 0.27331
 Zr1101 Zr 0.29552 0.27300 0.23723
 O1102 O 0.27002 0.24574 0.20882
 Zr1103 Zr 0.23443 0.29851 0.27269
 O1104 O 0.20566 0.27337 0.24524
 O1105 O 0.21941 0.22277 0.22247
 O1106 O 0.27725 0.28037 0.28013
 C1107 C 0.24469 0.21068 0.16311
 C1108 C 0.20839 0.16333 0.24849
 C1109 C 0.15998 0.24735 0.21053
 C1110 C 0.25484 0.29107 0.33964
 C1111 C 0.33608 0.25812 0.29217
 C1112 C 0.28862 0.33935 0.25700
 H1113 H 0.30979 0.21937 0.25851
 H1114 H 0.25527 0.31279 0.21853
 H1115 H 0.20673 0.20997 0.20986
 H1116 H 0.21613 0.25827 0.31291
 H1117 H 0.24189 0.19857 0.33166
 H1118 H 0.19433 0.20990 0.31901
 H1119 H 0.29819 0.30932 0.19104
 H1120 H 0.26501 0.28087 0.16206
 H1121 H 0.30196 0.19821 0.32847
 H1122 H 0.28373 0.14993 0.23997
 H1123 H 0.21687 0.34150 0.23704
 H1124 H 0.19297 0.31213 0.20291
 H1125 H 0.30874 0.20602 0.19506
 H1126 H 0.33945 0.23762 0.22110
 H1127 H 0.15895 0.26902 0.27895
 H1128 H 0.18894 0.30139 0.30996
 O1129 O 0.74987 0.69999 0.32379
 O1130 O 0.70228 0.69294 0.30462
 O1131 O 0.80952 0.68414 0.24929
 O1132 O 0.81895 0.70302 0.20378
 O1133 O 0.81949 0.76542 0.30366
 O1134 O 0.79193 0.81079 0.30708
 O1135 O 0.72714 0.75660 0.16543
 O1136 O 0.74684 0.70929 0.16835
 O1137 O 0.66487 0.76576 0.23660
 O1138 O 0.66602 0.75926 0.29066
 O1139 O 0.73260 0.83269 0.22243
 O1140 O 0.78546 0.83529 0.23263
 O1141 O 0.75023 0.80006 0.17759
 O1142 O 0.80104 0.80979 0.19934
 O1143 O 0.69179 0.81690 0.24941
 O1144 O 0.68712 0.79629 0.30170
 O1145 O 0.68254 0.73816 0.19723
 O1146 O 0.70876 0.68920 0.20173
 O1147 O 0.77208 0.74383 0.33635
 O1148 O 0.75501 0.79519 0.33136
 O1149 O 0.83736 0.73745 0.26466
 O1150 O 0.83342 0.74694 0.20971
 O1151 O 0.76943 0.66843 0.27749
 O1152 O 0.71676 0.66775 0.26227
 Zr1153 Zr 0.74005 0.70567 0.27798
 O1154 O 0.70965 0.72837 0.24958
 Zr1155 Zr 0.79924 0.72928 0.23822
 O1156 O 0.77098 0.75205 0.20753
 Zr1157 Zr 0.77304 0.76922 0.29578
 O1158 O 0.74445 0.79448 0.26738
 Zr1159 Zr 0.72856 0.73198 0.20613
 O1160 O 0.75819 0.70669 0.23383
 Zr1161 Zr 0.70300 0.77278 0.26342
 O1162 O 0.73067 0.74896 0.29432
 Zr1163 Zr 0.76208 0.79552 0.22320
 O1164 O 0.79279 0.77371 0.25258
 O1165 O 0.78195 0.72569 0.28175
 O1166 O 0.71987 0.77606 0.21949
 C1167 C 0.76178 0.71765 0.34271
 C1168 C 0.79486 0.66407 0.26427
 C1169 C 0.84088 0.75279 0.28864
 C1170 C 0.73718 0.78283 0.15901
 C1171 C 0.66133 0.75124 0.21209
 C1172 C 0.70648 0.83680 0.23430
 H1173 H 0.69067 0.71705 0.24952
 H1174 H 0.74206 0.81483 0.27569
 H1175 H 0.79584 0.71451 0.29520
 H1176 H 0.78059 0.75220 0.18731
 H1177 H 0.75751 0.69130 0.17628
 H1178 H 0.80490 0.70383 0.18671
 H1179 H 0.70054 0.81349 0.30469
 H1180 H 0.73518 0.78660 0.33666
 H1181 H 0.69820 0.68884 0.18220
 H1182 H 0.71969 0.65076 0.27666
 H1183 H 0.77799 0.84264 0.25232
 H1184 H 0.80420 0.81725 0.28944
 H1185 H 0.69558 0.71085 0.31593
 H1186 H 0.66186 0.73811 0.28597
 H1187 H 0.83807 0.76712 0.21726
 H1188 H 0.80511 0.79550 0.18289
 O1189 O 0.68577 0.24899 0.80991
 O1190 O 0.70352 0.20082 0.81365
 O1191 O 0.76740 0.30159 0.81811
 O1192 O 0.80959 0.30902 0.79205
 O1193 O 0.70088 0.32209 0.74810
 O1194 O 0.69135 0.30055 0.70047
 O1195 O 0.83418 0.22122 0.73159
 O1196 O 0.83757 0.23527 0.78025
 O1197 O 0.75878 0.16446 0.72671
 O1198 O 0.70700 0.16779 0.74290
 O1199 O 0.76607 0.23514 0.66309
 O1200 O 0.75986 0.28835 0.66398
 O1201 O 0.81764 0.24756 0.69053
 O1202 O 0.79676 0.29977 0.68521
 O1203 O 0.73815 0.19623 0.68095
 O1204 O 0.68989 0.19428 0.71084
 O1205 O 0.80270 0.17704 0.74874
 O1206 O 0.80556 0.19702 0.80062
 O1207 O 0.66911 0.27514 0.76876
 O1208 O 0.66661 0.26423 0.71626
 O1209 O 0.74440 0.33470 0.77086
 O1210 O 0.79656 0.32826 0.75077
 O1211 O 0.73852 0.26340 0.83617
 O1212 O 0.74986 0.20906 0.83192
 Zr1213 Zr 0.73034 0.23689 0.79804
 O1214 O 0.75326 0.20632 0.76976
 Zr1215 Zr 0.76994 0.29445 0.77129
 O1216 O 0.79508 0.26594 0.74280
 Zr1217 Zr 0.70618 0.27625 0.73884
 O1218 O 0.72864 0.24771 0.70829
 Zr1219 Zr 0.79668 0.22215 0.76067
 O1220 O 0.77485 0.25154 0.79123
 Zr1221 Zr 0.73295 0.20452 0.72740
 O1222 O 0.70772 0.23243 0.75689
 Zr1223 Zr 0.77322 0.26170 0.70138
 O1224 O 0.74932 0.29283 0.72889
 O1225 O 0.72644 0.28028 0.78055
 O1226 O 0.77695 0.21806 0.71839
 C1227 C 0.66530 0.26304 0.79491
 C1228 C 0.75433 0.28702 0.83963
 C1229 C 0.71831 0.34102 0.76025
 C1230 C 0.83791 0.23288 0.70526
 C1231 C 0.78531 0.15828 0.73629
 C1232 C 0.75124 0.21091 0.65956
 H1233 H 0.75405 0.18638 0.77975
 H1234 H 0.71717 0.24774 0.68937
 H1235 H 0.71539 0.29375 0.79451
 H1236 H 0.81555 0.27410 0.74031
 H1237 H 0.83223 0.24458 0.79976
 H1238 H 0.82525 0.29366 0.78792
 H1239 H 0.68565 0.20819 0.69383
 H1240 H 0.66088 0.24421 0.72415
 H1241 H 0.82425 0.18508 0.79727
 H1242 H 0.73919 0.21257 0.85137
 H1243 H 0.73828 0.28461 0.66072
 H1244 H 0.70851 0.31284 0.69340
 H1245 H 0.69133 0.19454 0.79639
 H1246 H 0.71473 0.16145 0.76281
 H1247 H 0.78575 0.33536 0.73261
 H1248 H 0.81436 0.30250 0.69824
 C1249 C 0.09230 0.99979 1.19278
 C1250 C 0.07941 1.00098 1.16917
 C1251 C 0.06601 1.00291 1.14073
 C1252 C 0.05534 1.00426 1.11602
 C1253 C 0.59198 0.50121 0.69463
 C1254 C 0.57863 0.50301 0.67128
 C1255 C 0.56472 0.50566 0.64308
 C1256 C 0.55376 0.50750 0.61849
 C1257 C 0.41103 -0.00234 0.69777
 C1258 C 0.42356 -0.00352 0.67363
 C1259 C 0.43643 -0.00491 0.64456
 C1260 C 0.44680 -0.00564 0.61941
 C1261 C -0.09143 0.49725 1.19494
 C1262 C -0.07868 0.49594 1.17096
 C1263 C -0.06567 0.49401 1.14205
 C1264 C -0.05538 0.49251 1.11696
 C1265 C -0.09856 0.50035 0.30707
 C1266 C -0.08790 0.50322 0.33173
 C1267 C -0.07473 0.50628 0.36036
 C1268 C -0.06305 0.50813 0.38466
 C1269 C 0.40239 1.00207 -0.19190
 C1270 C 0.41290 1.00531 -0.16720
 C1271 C 0.42580 1.00848 -0.13843
 C1272 C 0.43732 1.01010 -0.11401
 C1273 C 0.59984 0.49907 -0.19332
 C1274 C 0.58936 0.49795 -0.16811
 C1275 C 0.57628 0.49680 -0.13892
 C1276 C 0.56443 0.49611 -0.11430
 C1277 C 0.09800 -0.00129 0.30491
 C1278 C 0.08714 -0.00203 0.32994
 C1279 C 0.07370 -0.00273 0.35895
 C1280 C 0.06163 -0.00306 0.38345
 C1281 C 0.19385 1.08919 1.00102
 C1282 C 0.17054 1.07590 1.00233
 C1283 C 0.14237 1.06211 1.00448
 C1284 C 0.11780 1.05128 1.00596
 C1285 C 0.69260 0.59118 0.50122
 C1286 C 0.66912 0.57825 0.50289
 C1287 C 0.64082 0.56486 0.50555
 C1288 C 0.61616 0.55431 0.50748
 C1289 C 0.69718 0.40667 -0.00308
 C1290 C 0.67339 0.41984 -0.00433
 C1291 C 0.64472 0.43354 -0.00586
 C1292 C 0.61983 0.44446 -0.00672
 C1293 C 0.19685 -0.08776 0.49673
 C1294 C 0.17248 -0.07577 0.49544
 C1295 C 0.14315 -0.06355 0.49382
 C1296 C 0.11786 -0.05364 0.49278
 C1297 C 0.30937 -0.09314 0.50228
 C1298 C 0.33412 -0.08273 0.50545
 C1299 C 0.36301 -0.07007 0.50871
 C1300 C 0.38752 -0.05879 0.51054
 C1301 C -0.19397 0.39907 0.99982
 C1302 C -0.16934 0.41002 1.00203
 C1303 C -0.14074 0.42355 1.00425
 C1304 C -0.11646 0.43542 1.00547
 C1305 C -0.19570 0.59703 0.50156
 C1306 C -0.17071 0.58630 0.50095
 C1307 C -0.14173 0.57313 0.50013
 C1308 C -0.11720 0.56140 0.49940
 C1309 C 0.30549 1.09675 0.00063
 C1310 C 0.33053 1.08613 -0.00044
 C1311 C 0.35950 1.07285 -0.00159
 C1312 C 0.38396 1.06089 -0.00231
 C1313 C -0.00010 1.19134 1.08989
 C1314 C 0.00194 1.16797 1.07685
 C1315 C 0.00488 1.13982 1.06322
 C1316 C 0.00692 1.11530 1.05246
 C1317 C 0.50091 0.69613 0.58976
 C1318 C 0.50220 0.67253 0.57703
 C1319 C 0.50431 0.64400 0.56408
 C1320 C 0.50579 0.61920 0.55389
 C1321 C -0.00179 0.69749 0.41027
 C1322 C -0.00276 0.67360 0.42307
 C1323 C -0.00423 0.64475 0.43610
 C1324 C -0.00542 0.61972 0.44638
 C1325 C 0.49763 1.19538 -0.08941
 C1326 C 0.49594 1.17130 -0.07707
 C1327 C 0.49388 1.14233 -0.06447
 C1328 C 0.49259 1.11725 -0.05434
 C1329 C 0.50351 0.30710 -0.09501
 C1330 C 0.50665 0.33165 -0.08446
 C1331 C 0.50982 0.36027 -0.07162
 C1332 C 0.51151 0.38461 -0.06023
 C1333 C 0.00185 -0.19079 0.40288
 C1334 C 0.00507 -0.16618 0.41334
 C1335 C 0.00832 -0.13757 0.42626
 C1336 C 0.01003 -0.11326 0.43776
 C1337 C 0.50098 -0.19222 0.59680
 C1338 C 0.50022 -0.16709 0.58641
 C1339 C 0.49939 -0.13793 0.57357
 C1340 C 0.49889 -0.11330 0.56199
 C1341 C -0.00040 0.30278 1.09486
 C1342 C -0.00098 0.32756 1.08369
 C1343 C -0.00174 0.35631 1.07001
 C1344 C -0.00240 0.38071 1.05799
 C1345 C 0.75957 0.33859 0.05258
 C1346 C 0.76366 0.32790 0.07743
 C1347 C 0.76549 0.31620 0.10728
 C1348 C 0.76510 0.30611 0.13275
 C1349 C 0.25978 0.84164 0.55428
 C1350 C 0.26368 0.83061 0.57894
 C1351 C 0.26566 0.81870 0.60858
 C1352 C 0.26564 0.80856 0.63395
 C1353 C 0.75050 0.66389 0.55577
 C1354 C 0.75180 0.67635 0.57953
 C1355 C 0.75075 0.68908 0.60832
 C1356 C 0.74892 0.69906 0.63330
 C1357 C 0.25030 0.16283 0.05614
 C1358 C 0.25099 0.17563 0.07979
 C1359 C 0.24929 0.18874 0.10844
 C1360 C 0.24701 0.19895 0.13332
 C1361 C 0.25507 0.16625 0.94943
 C1362 C 0.25935 0.18049 0.92654
 C1363 C 0.26200 0.19528 0.89834
 C1364 C 0.26237 0.20623 0.87337
 C1365 C 0.75519 0.66686 0.44908
 C1366 C 0.75980 0.68110 0.42627
 C1367 C 0.76280 0.69591 0.39815
 C1368 C 0.76338 0.70684 0.37320
 C1369 C 0.25925 0.83772 0.44534
 C1370 C 0.26075 0.82421 0.42193
 C1371 C 0.25945 0.81043 0.39338
 C1372 C 0.25703 0.79993 0.36856
 C1373 C 0.75815 0.33365 0.94800
 C1374 C 0.76033 0.32104 0.92406
 C1375 C 0.75957 0.30814 0.89497
 C1376 C 0.75744 0.29820 0.86983
 C1377 C 0.83286 0.44521 0.25495
 C1378 C 0.82001 0.42151 0.25589
 C1379 C 0.80711 0.39274 0.25402
 C1380 C 0.79723 0.36780 0.25141
 C1381 C 0.33509 0.94671 0.75905
 C1382 C 0.32179 0.92330 0.76054
 C1383 C 0.30840 0.89474 0.75918
 C1384 C 0.29832 0.86988 0.75667
 C1385 C 0.16880 0.94848 0.25458
 C1386 C 0.18280 0.92550 0.25860
 C1387 C 0.19723 0.89722 0.26081
 C1388 C 0.20790 0.87225 0.26088
 C1389 C 0.66862 0.44793 0.75513
 C1390 C 0.68238 0.42478 0.75916
 C1391 C 0.69670 0.39640 0.76159
 C1392 C 0.70740 0.37141 0.76189
 C1393 C 0.66541 0.55516 0.75259
 C1394 C 0.67755 0.57907 0.75395
 C1395 C 0.68993 0.60801 0.75285
 C1396 C 0.69968 0.63304 0.75084
 C1397 C 0.16343 0.05542 0.25203
 C1398 C 0.17525 0.07945 0.25364
 C1399 C 0.18736 0.10846 0.25277
 C1400 C 0.19699 0.13352 0.25087
 C1401 C 0.34015 0.05498 0.76082
 C1402 C 0.32916 0.07948 0.76487
 C1403 C 0.31735 0.10895 0.76691
 C1404 C 0.30735 0.13422 0.76683
 C1405 C 0.83794 0.55417 0.25830
 C1406 C 0.82761 0.57889 0.26271
 C1407 C 0.81659 0.60865 0.26518
 C1408 C 0.80715 0.63413 0.26552
 C1409 C 0.94498 0.25426 0.16356
 C1410 C 0.92163 0.25883 0.17696
 C1411 C 0.89310 0.26171 0.19112
 C1412 C 0.86807 0.26213 0.20196
 C1413 C 0.44896 0.75755 0.66631
 C1414 C 0.42597 0.76163 0.68042
 C1415 C 0.39769 0.76393 0.69506
 C1416 C 0.37271 0.76395 0.70592
 C1417 C 0.44714 0.25775 0.83559
 C1418 C 0.42361 0.25952 0.82242
 C1419 C 0.39490 0.25839 0.80919
 C1420 C 0.36993 0.25600 0.79921
 C1421 C 0.94840 0.75836 0.33588
 C1422 C 0.92472 0.75990 0.32288
 C1423 C 0.89593 0.75850 0.30973
 C1424 C 0.87095 0.75599 0.29972
 C1425 C 0.05485 0.76047 0.33877
 C1426 C 0.07948 0.76470 0.32791
 C1427 C 0.10914 0.76688 0.31629
 C1428 C 0.13456 0.76684 0.30642
 C1429 C 0.55591 0.25804 0.84020
 C1430 C 0.58057 0.26218 0.82940
 C1431 C 0.61017 0.26444 0.81774
 C1432 C 0.63553 0.26459 0.80775
 C1433 C 0.55565 0.75288 0.66350
 C1434 C 0.57931 0.75363 0.67627
 C1435 C 0.60798 0.75195 0.68929
 C1436 C 0.63288 0.74969 0.69942
 C1437 C 0.05253 0.25005 0.16356
 C1438 C 0.07633 0.25166 0.17599
 C1439 C 0.10518 0.25089 0.18873
 C1440 C 0.13017 0.24923 0.19878
 C1441 C -0.08930 1.00274 0.80539
 C1442 C -0.07568 1.00092 0.82856
 C1443 C -0.06164 0.99774 0.85661
 C1444 C -0.05082 0.99516 0.88119
 C1445 C 0.41015 0.50216 0.30705
 C1446 C 0.42324 0.50118 0.33056
 C1447 C 0.43675 0.49912 0.35895
 C1448 C 0.44730 0.49737 0.38369
 C1449 C 0.58982 0.00212 0.30378
 C1450 C 0.57703 0.00349 0.32776
 C1451 C 0.56388 0.00555 0.35663
 C1452 C 0.55349 0.00714 0.38171
 C1453 C 0.08869 0.50164 0.80173
 C1454 C 0.07569 0.50293 0.82560
 C1455 C 0.06228 0.50465 0.85439
 C1456 C 0.05161 0.50563 0.87938
 C1457 C 0.09635 0.49809 0.68963
 C1458 C 0.08574 0.49497 0.66498
 C1459 C 0.07253 0.49182 0.63636
 C1460 C 0.06076 0.49019 0.61208
 C1461 C 0.59563 0.99952 0.19160
 C1462 C 0.58458 0.99646 0.16713
 C1463 C 0.57104 0.99320 0.13870
 C1464 C 0.55924 0.99126 0.11446
 C1465 C 0.40388 0.49858 0.19521
 C1466 C 0.41484 0.49889 0.17021
 C1467 C 0.42841 0.49939 0.14125
 C1468 C 0.44048 0.49984 0.11675
 C1469 C -0.09763 0.00073 0.69363
 C1470 C -0.08684 0.00095 0.66855
 C1471 C -0.07330 0.00130 0.63957
 C1472 C -0.06123 0.00164 0.61506
 C1473 C -0.19461 0.91178 1.00311
 C1474 C -0.17124 0.92494 1.00177
 C1475 C -0.14292 0.93831 0.99907
 C1476 C -0.11817 0.94856 0.99674
 C1477 C 0.30435 0.41315 0.50334
 C1478 C 0.32752 0.42669 0.50237
 C1479 C 0.35560 0.44066 0.50030
 C1480 C 0.38020 0.45141 0.49853
 C1481 C 0.30274 0.58452 -0.00013
 C1482 C 0.32686 0.57200 0.00083
 C1483 C 0.35595 0.55926 0.00246
 C1484 C 0.38115 0.54920 0.00384
 C1485 C -0.19733 0.09018 0.50001
 C1486 C -0.17365 0.07680 0.50070
 C1487 C -0.14503 0.06303 0.50198
 C1488 C -0.12012 0.05224 0.50306
 C1489 C 0.69398 0.09901 0.49935
 C1490 C 0.66935 0.08810 0.49694
 C1491 C 0.64078 0.07451 0.49450
 C1492 C 0.61654 0.06259 0.49316
 C1493 C 0.19044 0.59125 0.99692
 C1494 C 0.16575 0.58073 0.99373
 C1495 C 0.13701 0.56778 0.99041
 C1496 C 0.11259 0.55632 0.98851
 C1497 C 0.19298 0.40496 0.50048
 C1498 C 0.16794 0.41561 0.50096
 C1499 C 0.13901 0.42896 0.50151
 C1500 C 0.11457 0.44095 0.50179
 C1501 C 0.69403 0.90405 -0.00122
 C1502 C 0.66898 0.91467 -0.00114
 C1503 C 0.64000 0.92788 -0.00080
 C1504 C 0.61547 0.93966 -0.00036
 C1505 C 0.00338 0.80344 0.91325
 C1506 C 0.00219 0.82683 0.92639
 C1507 C -0.00033 0.85522 0.93961
 C1508 C -0.00255 0.88003 0.94973
 C1509 C 0.50035 0.30805 0.41358
 C1510 C 0.49925 0.33114 0.42720
 C1511 C 0.49693 0.35910 0.44126
 C1512 C 0.49495 0.38363 0.45201
 C1513 C 0.00217 0.30430 0.58677
 C1514 C 0.00341 0.32827 0.57416
 C1515 C 0.00519 0.35714 0.56124
 C1516 C 0.00633 0.38217 0.55096
 C1517 C 0.50085 0.80234 0.08732
 C1518 C 0.50158 0.82622 0.07448
 C1519 C 0.50294 0.85502 0.06134
 C1520 C 0.50406 0.88002 0.05099
 C1521 C 0.50038 0.69067 0.09413
 C1522 C 0.49777 0.66609 0.08346
 C1523 C 0.49494 0.63750 0.07041
 C1524 C 0.49323 0.61316 0.05901
 C1525 C -0.00022 0.19262 0.59259
 C1526 C -0.00323 0.16814 0.58185
 C1527 C -0.00646 0.13961 0.56880
 C1528 C -0.00841 0.11529 0.55741
 C1529 C 0.49828 0.19699 0.40596
 C1530 C 0.49932 0.17208 0.41681
 C1531 C 0.50063 0.14325 0.43027
 C1532 C 0.50166 0.11879 0.44215
 C1533 C -0.00012 0.69211 0.90419
 C1534 C 0.00031 0.66684 0.91424
 C1535 C 0.00084 0.63753 0.92676
 C1536 C 0.00114 0.61279 0.93810
 C1537 C 0.23918 0.65715 0.94509
 C1538 C 0.23475 0.66894 0.92087
 C1539 C 0.23227 0.68171 0.89161
 C1540 C 0.23215 0.69244 0.86647
 C1541 C 0.73965 0.16011 0.44745
 C1542 C 0.73495 0.17120 0.42289
 C1543 C 0.73235 0.18315 0.39322
 C1544 C 0.73204 0.19317 0.36774
 C1545 C 0.24995 0.33910 0.44668
 C1546 C 0.24961 0.32640 0.42295
 C1547 C 0.25136 0.31331 0.39427
 C1548 C 0.25333 0.30301 0.36939
 C1549 C 0.75150 0.83734 0.94701
 C1550 C 0.75153 0.82466 0.92328
 C1551 C 0.75381 0.81177 0.89459
 C1552 C 0.75619 0.80172 0.86966
 C1553 C 0.74242 0.83504 0.05333
 C1554 C 0.73772 0.82047 0.07592
 C1555 C 0.73486 0.80526 0.10387
 C1556 C 0.73468 0.79399 0.12870
 C1557 C 0.24216 0.33573 0.55335
 C1558 C 0.23750 0.32133 0.57607
 C1559 C 0.23466 0.30630 0.60413
 C1560 C 0.23448 0.29511 0.62901
 C1561 C 0.74454 0.16362 0.55157
 C1562 C 0.74364 0.17648 0.57544
 C1563 C 0.74562 0.18956 0.60436
 C1564 C 0.74831 0.19962 0.62939
 C1565 C 0.24342 0.65988 0.05347
 C1566 C 0.24302 0.67361 0.07679
 C1567 C 0.24525 0.68766 0.10514
 C1568 C 0.24797 0.69840 0.12984
 C1569 C 0.16509 0.55365 0.74243
 C1570 C 0.17844 0.57706 0.74186
 C1571 C 0.19180 0.60558 0.74410
 C1572 C 0.20187 0.63040 0.74695
 C1573 C 0.66410 0.05123 0.24231
 C1574 C 0.67711 0.07483 0.24088
 C1575 C 0.69018 0.10355 0.24251
 C1576 C 0.70000 0.12850 0.24522
 C1577 C 0.83537 0.05167 0.74271
 C1578 C 0.82171 0.07472 0.73773
 C1579 C 0.80732 0.10304 0.73457
 C1580 C 0.79646 0.12798 0.73412
 C1581 C 0.33426 0.55234 0.24306
 C1582 C 0.32015 0.57509 0.23812
 C1583 C 0.30545 0.60318 0.23499
 C1584 C 0.29452 0.62805 0.23457
 C1585 C 0.33643 0.44606 0.25164
 C1586 C 0.32371 0.42242 0.25131
 C1587 C 0.31066 0.39384 0.25319
 C1588 C 0.30042 0.36903 0.25532
 C1589 C 0.83674 0.94694 0.75022
 C1590 C 0.82466 0.92293 0.75000
 C1591 C 0.81241 0.89397 0.75223
 C1592 C 0.80276 0.86893 0.75474
 C1593 C 0.66014 0.94537 0.23914
 C1594 C 0.67126 0.92100 0.23458
 C1595 C 0.68334 0.89164 0.23207
 C1596 C 0.69357 0.86644 0.23204
 C1597 C 0.16072 0.44545 0.73874
 C1598 C 0.17190 0.42109 0.73429
 C1599 C 0.18395 0.39173 0.73180
 C1600 C 0.19414 0.36652 0.73172
 C1601 C 0.05332 0.74135 0.83558
 C1602 C 0.07609 0.73661 0.82128
 C1603 C 0.10420 0.73367 0.80635
 C1604 C 0.12909 0.73344 0.79523
 C1605 C 0.54976 0.24586 0.33553
 C1606 C 0.57230 0.24091 0.32093
 C1607 C 0.60019 0.23745 0.30565
 C1608 C 0.62498 0.23647 0.29431
 C1609 C 0.55454 0.74405 0.16339
 C1610 C 0.57801 0.74365 0.17679
 C1611 C 0.60653 0.74588 0.19036
 C1612 C 0.63134 0.74858 0.20068
 C1613 C 0.05424 0.24463 0.66281
 C1614 C 0.07751 0.24389 0.67650
 C1615 C 0.10588 0.24584 0.69034
 C1616 C 0.13062 0.24838 0.70081
 C1617 C 0.94621 0.23971 0.65782
 C1618 C 0.92196 0.23473 0.66920
 C1619 C 0.89271 0.23160 0.68159
 C1620 C 0.86755 0.23107 0.69209
 C1621 C 0.44617 0.73769 0.15910
 C1622 C 0.42184 0.73278 0.17037
 C1623 C 0.39243 0.72991 0.18251
 C1624 C 0.36715 0.72969 0.19276
 C1625 C 0.44321 0.25339 0.33998
 C1626 C 0.41941 0.25305 0.32740
 C1627 C 0.39069 0.25482 0.31442
 C1628 C 0.36581 0.25676 0.30415
 C1629 C 0.94660 0.75020 0.83862
 C1630 C 0.92277 0.75042 0.82611
 C1631 C 0.89399 0.75290 0.81337
 C1632 C 0.86904 0.75540 0.80337
   
