data_POSCAR
  _audit_creation_date              2014-09-24
  _audit_creation_method            'ToBaCCo'
  _symmetry_space_group_name_H-M    'P1'
  _symmetry_Int_Tables_number       1
  _symmetry_cell_setting            triclinic
  loop_
  _symmetry_equiv_pos_as_xyz
 x,y,z
_cell_length_a 63.9897
_cell_length_b 63.4661
_cell_length_c 67.0923
_cell_angle_alpha 89.643500
_cell_angle_beta 89.303200
_cell_angle_gamma 88.967800
loop_
  _atom_site_label
  _atom_site_type_symbol
  _atom_site_fract_x
  _atom_site_fract_y
  _atom_site_fract_z
C1 C 0.39261 -0.00183 0.25118
 C2 C 0.10488 0.00317 0.74921
 C3 C 0.60562 0.50267 0.24530
 C4 C 0.89322 0.49841 0.74754
 C5 C 0.25279 0.35517 0.99809
 C6 C 0.75214 0.14183 1.00299
 C7 C 0.24662 0.64237 0.50105
 C8 C 0.74938 0.85842 0.49411
 C9 C -0.00750 0.24969 0.37075
 C10 C -0.00002 0.74815 0.12907
 C11 C 0.50290 0.25268 0.62612
 C12 C 0.49647 0.75265 0.87003
 C13 C -0.25119 0.64092 0.99836
 C14 C -0.24825 0.35939 0.50182
 C15 C 0.25649 -0.14164 0.00170
 C16 C 0.24554 1.14226 0.50228
 C17 C 0.10456 0.50229 0.24706
 C18 C -0.10633 0.99794 0.25345
 C19 C 0.39409 0.49915 -0.24987
 C20 C 0.60554 0.00241 -0.25018
 C21 C 0.00078 0.24669 0.88010
 C22 C 0.50201 0.24778 0.12999
 C23 C 0.00278 0.74342 0.62824
 C24 C 0.50002 0.75892 0.37454
 Zr25 Zr 0.02238 -0.01624 1.03108
 O26 O 0.04073 -0.00576 1.05499
 O27 O 0.02217 -0.04878 1.03609
 O28 O 0.00712 -0.02026 1.05922
 O29 O 0.06335 -0.01556 0.99681
 O30 O -0.02622 -0.00875 1.05315
 O31 O 0.05413 -0.02652 1.02813
 O32 O 0.00213 -0.06120 1.01093
 O33 O -0.00805 -0.02442 1.02314
 O34 O 0.02408 -0.02764 1.00189
 O35 O 0.00421 0.01163 1.03364
 O36 O 0.03565 0.00818 1.01381
 Zr37 Zr -0.01248 0.01669 0.97762
 Zr38 Zr -0.02569 0.00362 1.02421
 Zr39 Zr 0.03566 -0.00313 0.98453
 Zr40 Zr -0.00619 -0.03465 0.99366
 O41 O 0.06017 0.01832 0.97972
 O42 O -0.03432 -0.04947 1.00239
 O43 O 0.00580 -0.01119 0.97477
 O44 O -0.02539 -0.00766 0.99499
 O45 O -0.01434 0.02830 1.00675
 O46 O 0.01790 0.02470 0.98568
 C47 C 0.01330 -0.06363 1.02660
 C48 C 0.06741 -0.02458 1.01358
 C49 C -0.01206 -0.01649 1.06459
 O50 O -0.05172 -0.01633 1.02711
 O51 O -0.05234 0.01922 1.01306
 O52 O -0.04367 0.02840 0.98111
 C53 C -0.05646 0.02794 0.99617
 O54 O 0.03660 0.03928 1.03929
 Zr55 Zr 0.01610 0.03513 1.01498
 O56 O -0.01317 0.04934 0.97317
 O57 O -0.03513 0.02760 1.04435
 O58 O 0.00062 0.05496 1.03603
 O59 O 0.04252 0.05211 1.00499
 O60 O 0.00441 0.06189 0.99991
 C61 C -0.00651 0.06431 0.98408
 O62 O -0.03178 0.00644 0.95431
 O63 O 0.04680 -0.02815 0.96632
 O64 O 0.00218 0.01901 0.94902
 O65 O 0.03495 0.00551 0.95444
 O66 O 0.00988 -0.05618 0.97460
 O67 O -0.02336 -0.03925 0.96717
 C68 C 0.02077 0.01342 0.94312
 H69 H 0.03319 -0.04032 1.00046
 H70 H -0.03963 -0.01099 0.99048
 H71 H 0.02390 0.03560 0.97678
 H72 H 0.00397 0.01684 1.04751
 H73 H -0.03299 -0.06451 0.99863
 H74 H -0.06133 -0.00978 1.03707
 H75 H -0.04891 0.02356 1.04994
 H76 H 0.00697 0.06906 1.03503
 H77 H 0.00295 -0.06997 0.97594
 H78 H 0.06053 -0.02389 0.96076
 H79 H 0.06990 0.01175 0.96988
 H80 H 0.04045 0.06692 1.00927
 H81 H -0.02794 -0.05406 0.96661
 H82 H -0.03593 0.01912 0.94649
 H83 H 0.04502 -0.01843 1.06277
 H84 H 0.03873 0.05451 1.04141
 Zr85 Zr 0.51885 0.48928 0.52495
 O86 O 0.53913 0.50157 0.54651
 O87 O 0.51728 0.45761 0.53367
 O88 O 0.50495 0.48943 0.55404
 O89 O 0.55741 0.48281 0.48862
 O90 O 0.47327 0.50553 0.54891
 O91 O 0.54985 0.47699 0.52153
 O92 O 0.49457 0.44369 0.51152
 O93 O 0.48733 0.48265 0.51998
 O94 O 0.51762 0.47395 0.49746
 O95 O 0.50313 0.51871 0.52487
 O96 O 0.53249 0.50999 0.50385
 Zr97 Zr 0.48248 0.51749 0.46992
 Zr98 Zr 0.47204 0.51203 0.51842
 Zr99 Zr 0.52952 0.49481 0.47640
 Zr100 Zr 0.48630 0.46841 0.49205
 O101 O 0.55474 0.51350 0.46661
 O102 O 0.45815 0.45690 0.50466
 O103 O 0.49842 0.48803 0.46962
 O104 O 0.46930 0.49682 0.49105
 O105 O 0.48367 0.53317 0.49726
 O106 O 0.51399 0.52391 0.47499
 C107 C 0.50699 0.44232 0.52639
 C108 C 0.56225 0.47622 0.50617
 C109 C 0.48714 0.49704 0.56021
 O110 O 0.44551 0.49426 0.52634
 O111 O 0.44530 0.52692 0.50692
 O112 O 0.45214 0.53148 0.47373
 C113 C 0.44030 0.53338 0.48941
 O114 O 0.53776 0.54438 0.52479
 Zr115 Zr 0.51518 0.53842 0.50264
 O116 O 0.48405 0.54907 0.46104
 O117 O 0.46542 0.53978 0.53484
 O118 O 0.50281 0.56217 0.52176
 O119 O 0.54209 0.55148 0.48895
 O120 O 0.50439 0.56366 0.48485
 C121 C 0.49276 0.56476 0.46937
 O122 O 0.46105 0.50549 0.44924
 O123 O 0.53804 0.46650 0.46158
 O124 O 0.49543 0.51547 0.44060
 O125 O 0.52649 0.49803 0.44554
 O126 O 0.49931 0.44370 0.47445
 O127 O 0.46628 0.46161 0.46795
 C128 C 0.51253 0.50649 0.43429
 H129 H 0.52587 0.46062 0.49706
 H130 H 0.45454 0.49391 0.48798
 H131 H 0.52014 0.53290 0.46441
 H132 H 0.50440 0.52581 0.53788
 H133 H 0.45819 0.44143 0.50272
 H134 H 0.43700 0.50297 0.53571
 H135 H 0.45185 0.53772 0.54181
 H136 H 0.50999 0.57547 0.51843
 H137 H 0.49181 0.43064 0.47797
 H138 H 0.55150 0.46898 0.45457
 H139 H 0.56311 0.50481 0.45713
 H140 H 0.54138 0.56691 0.49114
 H141 H 0.46103 0.44709 0.46946
 H142 H 0.45714 0.51727 0.44015
 H143 H 0.54321 0.48971 0.55544
 H144 H 0.54116 0.55954 0.52467
 Zr145 Zr 0.47979 1.01804 0.52882
 O146 O 0.46144 1.00692 0.55302
 O147 O 0.47946 1.05056 0.53384
 O148 O 0.49477 1.02199 0.55671
 O149 O 0.43905 1.01702 0.49526
 O150 O 0.52836 1.01128 0.55005
 O151 O 0.44789 1.02780 0.52640
 O152 O 0.49933 1.06360 0.50822
 O153 O 0.51008 1.02693 0.52030
 O154 O 0.47802 1.02974 0.49965
 O155 O 0.49849 0.99050 0.53108
 O156 O 0.46714 0.99348 0.51185
 Zr157 Zr 0.51558 0.98644 0.47476
 Zr158 Zr 0.52827 0.99924 0.52111
 Zr159 Zr 0.46702 1.00516 0.48257
 Zr160 Zr 0.50818 1.03743 0.49082
 O161 O 0.44290 0.98328 0.47849
 O162 O 0.53596 1.05279 0.49889
 O163 O 0.49672 1.01396 0.47218
 O164 O 0.52792 1.01083 0.49187
 O165 O 0.51754 0.97451 0.50386
 O166 O 0.48535 0.97769 0.48342
 C167 C 0.48813 1.06566 0.52416
 C168 C 0.43473 1.02580 0.51208
 C169 C 0.51397 1.01854 0.56175
 O170 O 0.55381 1.01976 0.52345
 O171 O 0.55527 0.98425 0.50961
 O172 O 0.54690 0.97511 0.47788
 C173 C 0.55958 0.97564 0.49272
 O174 O 0.46680 0.96190 0.53738
 Zr175 Zr 0.48725 0.96690 0.51267
 O176 O 0.51683 0.95392 0.47016
 O177 O 0.53810 0.97530 0.54119
 O178 O 0.50320 0.94720 0.53336
 O179 O 0.46118 0.94951 0.50326
 O180 O 0.49947 0.94055 0.49723
 C181 C 0.51040 0.93862 0.48111
 O182 O 0.53486 0.99735 0.45115
 O183 O 0.45555 1.03006 0.46436
 O184 O 0.50107 0.98408 0.44642
 O185 O 0.46794 0.99658 0.45258
 O186 O 0.49177 1.05889 0.47206
 O187 O 0.52531 1.04257 0.46394
 C188 C 0.48229 0.98908 0.44097
 H189 H 0.46869 1.04227 0.49835
 H190 H 0.54212 1.01449 0.48710
 H191 H 0.47959 0.96677 0.47467
 H192 H 0.49875 0.98512 0.54495
 H193 H 0.53433 1.06784 0.49507
 H194 H 0.56349 1.01337 0.53330
 H195 H 0.55174 0.97960 0.54654
 H196 H 0.49726 0.93293 0.53244
 H197 H 0.49847 1.07278 0.47323
 H198 H 0.44193 1.02558 0.45911
 H199 H 0.43313 0.98967 0.46872
 H200 H 0.46356 0.93467 0.50747
 H201 H 0.52959 1.05748 0.46321
 H202 H 0.53933 0.98482 0.44330
 H203 H 0.45686 1.01941 0.56087
 H204 H 0.46516 0.94658 0.53962
 Zr205 Zr -0.01503 0.51724 1.02168
 O206 O -0.03511 0.50455 1.04382
 O207 O -0.01439 0.54900 1.02964
 O208 O -0.00142 0.51807 1.05054
 O209 O -0.05293 0.52299 0.98554
 O210 O 0.03149 0.50481 1.04487
 O211 O -0.04638 0.52857 1.01846
 O212 O 0.00827 0.56335 1.00696
 O213 O 0.01634 0.52471 1.01602
 O214 O -0.01380 0.53227 0.99382
 O215 O 0.00165 0.48836 1.02223
 O216 O -0.02788 0.49593 1.00127
 Zr217 Zr 0.02266 0.48920 0.96683
 Zr218 Zr 0.03257 0.49585 1.01499
 Zr219 Zr -0.02489 0.51082 0.97341
 Zr220 Zr 0.01738 0.53862 0.98780
 O221 O -0.04960 0.49132 0.96469
 O222 O 0.04512 0.55083 0.99984
 O223 O 0.00607 0.51829 0.96603
 O224 O 0.03514 0.51061 0.98716
 O225 O 0.02163 0.47404 0.99463
 O226 O -0.00869 0.48206 0.97258
 C227 C -0.00434 0.56448 1.02202
 C228 C -0.05830 0.52948 1.00302
 C229 C 0.01716 0.51268 1.05627
 O230 O 0.05928 0.51379 1.02114
 O231 O 0.05943 0.48057 1.00367
 O232 O 0.05303 0.47547 0.97068
 C233 C 0.06463 0.47371 0.98630
 O234 O -0.03247 0.46201 1.02326
 Zr235 Zr -0.00973 0.46800 1.00067
 O236 O 0.02180 0.45749 0.95869
 O237 O 0.03916 0.46909 1.03299
 O238 O 0.00300 0.44498 1.02035
 O239 O -0.03594 0.45366 0.98771
 O240 O 0.00214 0.44275 0.98357
 C241 C 0.01373 0.44169 0.96780
 O242 O 0.04417 0.50135 0.94567
 O243 O -0.03389 0.53860 0.95782
 O244 O 0.00998 0.49058 0.93761
 O245 O -0.02148 0.50740 0.94260
 O246 O 0.00388 0.56272 0.96981
 O247 O 0.03747 0.54588 0.96334
 C248 C -0.00721 0.49919 0.93133
 H249 H -0.02234 0.54541 0.99322
 H250 H 0.04987 0.51373 0.98375
 H251 H -0.01453 0.47276 0.96233
 H252 H 0.00057 0.48158 1.03552
 H253 H 0.04470 0.56631 0.99775
 H254 H 0.06770 0.50562 1.03091
 H255 H 0.05264 0.47164 1.03960
 H256 H -0.00380 0.43143 1.01752
 H257 H 0.01082 0.57609 0.97307
 H258 H -0.04724 0.53571 0.95108
 H259 H -0.05811 0.49964 0.95513
 H260 H -0.03481 0.43834 0.99054
 H261 H 0.04228 0.56055 0.96456
 H262 H 0.04840 0.48952 0.93681
 H263 H -0.03963 0.51638 1.05256
 H264 H -0.03539 0.44675 1.02377
 Zr265 Zr -0.01947 0.48732 0.47065
 O266 O -0.04098 0.50253 0.45137
 O267 O -0.01834 0.45673 0.45923
 O268 O -0.00729 0.48949 0.44103
 O269 O -0.05587 0.47882 0.50837
 O270 O 0.02464 0.50420 0.44536
 O271 O -0.05016 0.47553 0.47485
 O272 O 0.00498 0.43958 0.47942
 O273 O 0.01230 0.47911 0.47332
 O274 O -0.01669 0.46936 0.49678
 O275 O -0.00363 0.51606 0.47191
 O276 O -0.03181 0.50641 0.49386
 Zr277 Zr 0.02006 0.50881 0.52532
 Zr278 Zr 0.02782 0.50768 0.47612
 Zr279 Zr -0.02727 0.48855 0.51990
 Zr280 Zr 0.01489 0.46215 0.49995
 O281 O -0.05182 0.50717 0.53238
 O282 O 0.04207 0.45091 0.48475
 O283 O 0.00416 0.47997 0.52442
 O284 O 0.03203 0.48979 0.50211
 O285 O 0.01740 0.52705 0.49933
 O286 O -0.01164 0.51691 0.52247
 C287 C -0.00807 0.44027 0.46498
 C288 C -0.06167 0.47385 0.49075
 C289 C 0.01008 0.49710 0.43439
 O290 O 0.05388 0.48986 0.46556
 O291 O 0.05517 0.52080 0.48729
 O292 O 0.04993 0.52244 0.52097
 C293 C 0.06089 0.52566 0.50496
 O294 O -0.03855 0.54254 0.47602
 Zr295 Zr -0.01433 0.53402 0.49608
 O296 O 0.01936 0.53948 0.53644
 O297 O 0.03351 0.53666 0.46142
 O298 O -0.00343 0.55896 0.47774
 O299 O -0.03992 0.54717 0.51242
 O300 O -0.00164 0.55718 0.51447
 C301 C 0.01086 0.55634 0.52934
 O302 O 0.04251 0.49385 0.54378
 O303 O -0.03506 0.45924 0.53302
 O304 O 0.00860 0.50515 0.55502
 O305 O -0.02245 0.48871 0.55069
 O306 O 0.00299 0.43636 0.51655
 O307 O 0.03650 0.45224 0.52208
 C308 C -0.00807 0.49615 0.56167
 H309 H -0.02494 0.45632 0.49666
 H310 H 0.04696 0.48615 0.50418
 H311 H -0.01709 0.52517 0.53394
 H312 H -0.00567 0.52439 0.45954
 H313 H 0.04201 0.43531 0.48541
 H314 H 0.06183 0.49919 0.45644
 H315 H 0.04664 0.53480 0.45358
 H316 H -0.01033 0.57216 0.48242
 H317 H 0.01010 0.42338 0.51160
 H318 H -0.04811 0.46153 0.54087
 H319 H -0.05970 0.49788 0.54158
 H320 H -0.03913 0.56270 0.51110
 H321 H 0.04159 0.43776 0.51913
 H322 H 0.04707 0.50452 0.55347
 H323 H -0.04565 0.49179 0.44179
 H324 H -0.04192 0.55776 0.47730
 Zr325 Zr 0.48523 -0.01254 -0.02398
 O326 O 0.46369 0.00148 -0.04400
 O327 O 0.48719 -0.04354 -0.03437
 O328 O 0.49782 -0.01088 -0.05350
 O329 O 0.44851 -0.02114 0.01347
 O330 O 0.52920 0.00490 -0.04913
 O331 O 0.45475 -0.02487 -0.01993
 O332 O 0.51138 -0.05910 -0.01401
 O333 O 0.51714 -0.01975 -0.02070
 O334 O 0.48812 -0.02971 0.00261
 O335 O 0.50022 0.01670 -0.02321
 O336 O 0.47203 0.00684 -0.00138
 Zr337 Zr 0.52332 0.01156 0.03068
 Zr338 Zr 0.53178 0.00933 -0.01841
 Zr339 Zr 0.47664 -0.01021 0.02512
 Zr340 Zr 0.51983 -0.03587 0.00639
 O341 O 0.45142 0.00807 0.03681
 O342 O 0.54775 -0.04661 -0.00789
 O343 O 0.50821 -0.01774 0.03026
 O344 O 0.53613 -0.00771 0.00805
 O345 O 0.52055 0.02903 0.00422
 O346 O 0.49147 0.01866 0.02723
 C347 C 0.49828 -0.05936 -0.02838
 C348 C 0.44308 -0.02656 -0.00415
 C349 C 0.51507 -0.00296 -0.06012
 O350 O 0.55842 -0.00804 -0.02830
 O351 O 0.55864 0.02330 -0.00725
 O352 O 0.55303 0.02567 0.02634
 C353 C 0.56413 0.02864 0.01035
 O354 O 0.46454 0.04230 -0.02009
 Zr355 Zr 0.48870 0.03500 0.00042
 O356 O 0.52162 0.04249 0.04102
 O357 O 0.53689 0.03812 -0.03364
 O358 O 0.49916 0.05975 -0.01839
 O359 O 0.46255 0.04786 0.01615
 O360 O 0.50045 0.05903 0.01843
 C361 C 0.51275 0.05892 0.03346
 O362 O 0.54582 -0.00221 0.04987
 O363 O 0.46947 -0.03939 0.03883
 O364 O 0.51149 0.00829 0.06033
 O365 O 0.48097 -0.00912 0.05596
 O366 O 0.50833 -0.06177 0.02309
 O367 O 0.54105 -0.04449 0.02929
 C368 C 0.49498 -0.00105 0.06697
 H369 H 0.48026 -0.04300 0.00267
 H370 H 0.55110 -0.01092 0.01040
 H371 H 0.48562 0.02706 0.03844
 H372 H 0.49813 0.02462 -0.03580
 H373 H 0.54820 -0.06219 -0.00684
 H374 H 0.56624 0.00126 -0.03755
 H375 H 0.55015 0.03643 -0.04130
 H376 H 0.49184 0.07289 -0.01410
 H377 H 0.51608 -0.07457 0.01860
 H378 H 0.45626 -0.03727 0.04648
 H379 H 0.44365 -0.00119 0.04613
 H380 H 0.46292 0.06337 0.01447
 H381 H 0.54675 -0.05885 0.02676
 H382 H 0.54993 0.00888 0.05933
 H383 H 0.45949 -0.00968 -0.05336
 H384 H 0.46076 0.05747 -0.01923
 Zr385 Zr 0.51916 0.51307 -0.02914
 O386 O 0.54276 0.50175 -0.04891
 O387 O 0.51406 0.54368 -0.03999
 O388 O 0.50784 0.51011 -0.05876
 O389 O 0.55196 0.52727 0.00910
 O390 O 0.47901 0.48977 -0.05467
 O391 O 0.54822 0.52819 -0.02471
 O392 O 0.48663 0.55586 -0.02095
 O393 O 0.48652 0.51603 -0.02659
 O394 O 0.51274 0.53002 -0.00302
 O395 O 0.50800 0.48207 -0.02807
 O396 O 0.53346 0.49578 -0.00578
 Zr397 Zr 0.48171 0.48442 0.02528
 Zr398 Zr 0.47561 0.48524 -0.02396
 Zr399 Zr 0.52526 0.51229 0.02023
 Zr400 Zr 0.48042 0.53198 0.00001
 O401 O 0.55220 0.49781 0.03265
 O402 O 0.45207 0.53888 -0.01495
 O403 O 0.49285 0.51558 0.02456
 O404 O 0.46785 0.50188 0.00198
 O405 O 0.48809 0.46722 -0.00073
 O406 O 0.51430 0.48163 0.02256
 C407 C 0.50046 0.55783 -0.03487
 C408 C 0.55825 0.53219 -0.00857
 C409 C 0.49214 0.49988 -0.06552
 O410 O 0.44762 0.49898 -0.03493
 O411 O 0.45002 0.46831 -0.01305
 O412 O 0.45357 0.46769 0.02076
 C413 C 0.44379 0.46323 0.00459
 O414 O 0.54617 0.46135 -0.02399
 Zr415 Zr 0.52059 0.46562 -0.00382
 O416 O 0.48636 0.45354 0.03558
 O417 O 0.47502 0.45575 -0.03848
 O418 O 0.51400 0.43934 -0.02193
 O419 O 0.54775 0.45684 0.01227
 O420 O 0.51210 0.44052 0.01497
 C421 C 0.49853 0.43871 0.02914
 O422 O 0.45726 0.49541 0.04427
 O423 O 0.52739 0.54227 0.03369
 O424 O 0.49192 0.48879 0.05505
 O425 O 0.51979 0.51044 0.05098
 O426 O 0.48786 0.55933 0.01630
 O427 O 0.45719 0.53813 0.02224
 C428 C 0.50672 0.50024 0.06184
 H429 H 0.51886 0.54423 -0.00312
 H430 H 0.45253 0.50329 0.00392
 H431 H 0.52070 0.47408 0.03399
 H432 H 0.51165 0.47440 -0.04047
 H433 H 0.44957 0.55431 -0.01426
 H434 H 0.44149 0.48861 -0.04406
 H435 H 0.46207 0.45561 -0.04643
 H436 H 0.52279 0.42732 -0.01727
 H437 H 0.47897 0.57109 0.01124
 H438 H 0.54036 0.54211 0.04162
 H439 H 0.55811 0.50811 0.04198
 H440 H 0.54976 0.44140 0.01085
 H441 H 0.45012 0.55181 0.01940
 H442 H 0.45411 0.48383 0.05379
 H443 H 0.54596 0.51342 -0.05831
 H444 H 0.55162 0.44669 -0.02297
 Zr445 Zr 0.01665 1.01294 0.47566
 O446 O 0.04012 1.00215 0.45548
 O447 O 0.01139 1.04378 0.46539
 O448 O 0.00508 1.01034 0.44606
 O449 O 0.05056 1.02514 0.51369
 O450 O -0.02385 0.99016 0.45020
 O451 O 0.04569 1.02810 0.48011
 O452 O -0.01580 1.05563 0.48490
 O453 O -0.01596 1.01576 0.47855
 O454 O 0.01056 1.02939 0.50212
 O455 O 0.00561 0.98188 0.47640
 O456 O 0.03120 0.99520 0.49859
 Zr457 Zr -0.02018 0.98329 0.53005
 Zr458 Zr -0.02673 0.98486 0.48085
 Zr459 Zr 0.02335 1.01120 0.52495
 Zr460 Zr -0.02177 1.03125 0.50545
 O461 O 0.05002 0.99634 0.53752
 O462 O -0.05024 1.03834 0.49077
 O463 O -0.00903 1.01445 0.52962
 O464 O -0.03430 1.00107 0.50709
 O465 O -0.01400 0.96653 0.50373
 O466 O 0.01239 0.98053 0.52699
 C467 C -0.00212 1.05786 0.47089
 C468 C 0.05645 1.03079 0.49609
 C469 C -0.01075 1.00028 0.43933
 O470 O -0.05520 0.99843 0.47084
 O471 O -0.05147 0.96668 0.49172
 O472 O -0.04841 0.96669 0.52557
 C473 C -0.05775 0.96162 0.50934
 O474 O 0.04374 0.96086 0.47979
 Zr475 Zr 0.01844 0.96501 0.50029
 O476 O -0.01538 0.95219 0.53985
 O477 O -0.02717 0.95593 0.46535
 O478 O 0.01161 0.93903 0.48187
 O479 O 0.04581 0.95617 0.51601
 O480 O 0.01013 0.93960 0.51876
 C481 C -0.00327 0.93749 0.53302
 O482 O -0.04448 0.99388 0.54941
 O483 O 0.02613 1.04117 0.53828
 O484 O -0.00972 0.98742 0.55980
 O485 O 0.01793 1.00936 0.55571
 O486 O -0.01420 1.05824 0.52219
 O487 O -0.04488 1.03694 0.52790
 C488 C 0.00500 0.99899 0.56659
 H489 H 0.01677 1.04356 0.50217
 H490 H -0.04962 1.00232 0.50915
 H491 H 0.01885 0.97281 0.53828
 H492 H 0.00915 0.97444 0.46384
 H493 H -0.05279 1.05375 0.49173
 H494 H -0.06134 0.98820 0.46157
 H495 H -0.04032 0.95579 0.45769
 H496 H 0.02046 0.92693 0.48625
 H497 H -0.02315 1.07010 0.51745
 H498 H 0.03914 1.04077 0.54614
 H499 H 0.05613 1.00658 0.54678
 H500 H 0.04774 0.94072 0.51462
 H501 H -0.05195 1.05068 0.52534
 H502 H -0.04747 0.98216 0.55881
 H503 H 0.04318 1.01403 0.44628
 H504 H 0.04934 0.94625 0.48079
 Zr505 Zr 0.73124 0.26688 0.22544
 O506 O 0.74169 0.28569 0.20126
 O507 O 0.69902 0.26618 0.22053
 O508 O 0.72832 0.25159 0.19746
 O509 O 0.73011 0.30795 0.25928
 O510 O 0.74110 0.21843 0.20374
 O511 O 0.72050 0.29867 0.22791
 O512 O 0.68670 0.24528 0.24575
 O513 O 0.72391 0.23582 0.23347
 O514 O 0.71906 0.26786 0.25452
 O515 O 0.75955 0.24960 0.22330
 O516 O 0.75443 0.28090 0.24291
 Zr517 Zr 0.76359 0.23224 0.27949
 Zr518 Zr 0.75237 0.21907 0.23283
 Zr519 Zr 0.74237 0.28013 0.27208
 Zr520 Zr 0.71292 0.23697 0.26286
 O521 O 0.76296 0.30506 0.27775
 O522 O 0.69935 0.20845 0.25365
 O523 O 0.73520 0.24959 0.28187
 O524 O 0.74039 0.21862 0.26196
 O525 O 0.77591 0.23117 0.25045
 O526 O 0.77065 0.26328 0.27138
 C527 C 0.68429 0.25699 0.23022
 C528 C 0.72176 0.31202 0.24231
 C529 C 0.73304 0.23251 0.19220
 O530 O 0.73358 0.19218 0.22991
 O531 O 0.76834 0.19259 0.24429
 O532 O 0.77633 0.20117 0.27626
 C533 C 0.77665 0.18847 0.26125
 O534 O 0.78584 0.28347 0.21783
 Zr535 Zr 0.78184 0.26222 0.24213
 O536 O 0.79586 0.23252 0.28413
 O537 O 0.77708 0.21062 0.21303
 O538 O 0.80267 0.24784 0.22123
 O539 O 0.79744 0.28924 0.25232
 O540 O 0.80831 0.25094 0.25729
 C541 C 0.81071 0.23975 0.27315
 O542 O 0.75345 0.21217 0.30286
 O543 O 0.71642 0.29096 0.28932
 O544 O 0.76459 0.24682 0.30804
 O545 O 0.74843 0.27867 0.30257
 O546 O 0.69087 0.25206 0.28211
 O547 O 0.70802 0.21864 0.28907
 C548 C 0.75686 0.26472 0.31400
 H549 H 0.70626 0.27675 0.25582
 H550 H 0.73744 0.20408 0.26650
 H551 H 0.78091 0.26955 0.28044
 H552 H 0.76511 0.24972 0.20947
 H553 H 0.68428 0.20924 0.25719
 H554 H 0.74067 0.18284 0.22006
 H555 H 0.77377 0.19662 0.20755
 H556 H 0.81633 0.25483 0.22230
 H557 H 0.67737 0.24485 0.28067
 H558 H 0.72016 0.30478 0.29495
 H559 H 0.75568 0.31454 0.28735
 H560 H 0.81231 0.28772 0.24822
 H561 H 0.69346 0.21361 0.28940
 H562 H 0.76595 0.20832 0.31080
 H563 H 0.72919 0.28980 0.19342
 H564 H 0.80088 0.28644 0.21598
 Zr565 Zr 0.76112 0.73038 0.71725
 O566 O 0.74928 0.71114 0.69450
 O567 O 0.79281 0.73150 0.70962
 O568 O 0.76273 0.74547 0.68875
 O569 O 0.76426 0.68983 0.75200
 O570 O 0.74894 0.77823 0.69499
 O571 O 0.77257 0.69873 0.71986
 O572 O 0.80666 0.75182 0.73396
 O573 O 0.76890 0.76148 0.72417
 O574 O 0.77469 0.72958 0.74551
 O575 O 0.73278 0.74774 0.71672
 O576 O 0.73876 0.71665 0.73658
 Zr577 Zr 0.73167 0.76563 0.77277
 Zr578 Zr 0.74050 0.77831 0.72516
 Zr579 Zr 0.75219 0.71760 0.76489
 Zr580 Zr 0.78139 0.76045 0.75278
 O581 O 0.73223 0.69222 0.77154
 O582 O 0.79472 0.78881 0.74220
 O583 O 0.76005 0.74812 0.77368
 O584 O 0.75401 0.77893 0.75337
 O585 O 0.71783 0.76655 0.74463
 O586 O 0.72406 0.73461 0.76564
 C587 C 0.80809 0.74048 0.71816
 C588 C 0.77208 0.68560 0.73471
 C589 C 0.75673 0.76418 0.68324
 O590 O 0.75973 0.80456 0.71975
 O591 O 0.72586 0.80520 0.73732
 O592 O 0.71913 0.79681 0.76987
 C593 C 0.71842 0.80951 0.75473
 O594 O 0.70601 0.71406 0.71371
 Zr595 Zr 0.71141 0.73547 0.73727
 O596 O 0.69972 0.76555 0.77969
 O597 O 0.71449 0.78718 0.70759
 O598 O 0.68970 0.75005 0.71765
 O599 O 0.69617 0.70854 0.74883
 O600 O 0.68586 0.74679 0.75425
 C601 C 0.68432 0.75804 0.77008
 O602 O 0.74338 0.78556 0.79505
 O603 O 0.77868 0.70765 0.78131
 O604 O 0.73123 0.75109 0.80152
 O605 O 0.74560 0.71853 0.79547
 O606 O 0.80435 0.74538 0.77072
 O607 O 0.78765 0.77892 0.77828
 C608 C 0.73761 0.73255 0.80715
 H609 H 0.78758 0.72076 0.74613
 H610 H 0.75731 0.79347 0.75738
 H611 H 0.71412 0.72837 0.77533
 H612 H 0.72644 0.74746 0.70335
 H613 H 0.80994 0.78788 0.74472
 H614 H 0.75208 0.81400 0.71043
 H615 H 0.71764 0.80104 0.70146
 H616 H 0.67602 0.74329 0.71986
 H617 H 0.81778 0.75252 0.76819
 H618 H 0.77537 0.69377 0.78729
 H619 H 0.73980 0.68283 0.78097
 H620 H 0.68113 0.71014 0.74568
 H621 H 0.80226 0.78380 0.77759
 H622 H 0.73137 0.78969 0.80377
 H623 H 0.76130 0.70699 0.68582
 H624 H 0.69083 0.71160 0.71267
 Zr625 Zr 0.23672 0.23113 0.77621
 O626 O 0.24923 0.20795 0.79574
 O627 O 0.20625 0.23473 0.78730
 O628 O 0.23903 0.24266 0.80587
 O629 O 0.22662 0.19601 0.73829
 O630 O 0.25663 0.27338 0.80166
 O631 O 0.22289 0.20126 0.77181
 O632 O 0.19179 0.26004 0.76713
 O633 O 0.23140 0.26373 0.77348
 O634 O 0.21993 0.23594 0.74993
 O635 O 0.26654 0.24455 0.77523
 O636 O 0.25517 0.21756 0.75312
 Zr637 Zr 0.26319 0.27004 0.72171
 Zr638 Zr 0.26109 0.27687 0.77093
 Zr639 Zr 0.23873 0.22423 0.72693
 Zr640 Zr 0.21562 0.26829 0.74671
 O641 O 0.25538 0.19835 0.71431
 O642 O 0.20643 0.29626 0.76184
 O643 O 0.23319 0.25658 0.72241
 O644 O 0.24454 0.28310 0.74478
 O645 O 0.28013 0.26520 0.74793
 O646 O 0.26825 0.23746 0.72463
 C647 C 0.19102 0.24663 0.78158
 C648 C 0.22087 0.19014 0.75587
 C649 C 0.24795 0.25927 0.81257
 O650 O 0.24524 0.30419 0.78154
 O651 O 0.27637 0.30359 0.75999
 O652 O 0.27831 0.29927 0.72627
 C653 C 0.28177 0.30966 0.74239
 O654 O 0.28971 0.20736 0.77147
 Zr655 Zr 0.28403 0.23266 0.75122
 O656 O 0.29420 0.26726 0.71149
 O657 O 0.28992 0.27993 0.78568
 O658 O 0.30920 0.24117 0.76966
 O659 O 0.29503 0.20593 0.73513
 O660 O 0.30857 0.24315 0.73295
 C661 C 0.30967 0.25653 0.71854
 O662 O 0.25103 0.29391 0.70274
 O663 O 0.20937 0.21914 0.71371
 O664 O 0.25957 0.25920 0.69196
 O665 O 0.23998 0.22974 0.69619
 O666 O 0.18973 0.25872 0.72975
 O667 O 0.20819 0.29132 0.72464
 C668 C 0.24912 0.24354 0.68525
 H669 H 0.20634 0.22873 0.74997
 H670 H 0.24218 0.29842 0.74272
 H671 H 0.27632 0.23149 0.71325
 H672 H 0.27425 0.24155 0.78766
 H673 H 0.19100 0.29757 0.76111
 H674 H 0.25485 0.31122 0.79076
 H675 H 0.28894 0.29305 0.79361
 H676 H 0.32175 0.23304 0.76519
 H677 H 0.17724 0.26667 0.73465
 H678 H 0.21072 0.20600 0.70586
 H679 H 0.24575 0.19149 0.70500
 H680 H 0.31042 0.20515 0.73662
 H681 H 0.19409 0.29738 0.72742
 H682 H 0.26238 0.29770 0.69325
 H683 H 0.23785 0.20402 0.80515
 H684 H 0.30452 0.20267 0.77037
 Zr685 Zr 0.26263 0.76836 0.27843
 O686 O 0.24950 0.79055 0.29863
 O687 O 0.29302 0.76487 0.28906
 O688 O 0.26026 0.75567 0.30783
 O689 O 0.27242 0.80513 0.24123
 O690 O 0.24352 0.72465 0.30315
 O691 O 0.27601 0.79862 0.27455
 O692 O 0.30812 0.74061 0.26812
 O693 O 0.26859 0.73597 0.27487
 O694 O 0.27974 0.76490 0.25181
 O695 O 0.23310 0.75438 0.27758
 O696 O 0.24414 0.78249 0.25593
 Zr697 Zr 0.23741 0.73112 0.22345
 Zr698 Zr 0.23921 0.72234 0.27243
 Zr699 Zr 0.26092 0.77717 0.22935
 Zr700 Zr 0.28468 0.73277 0.24778
 O701 O 0.24397 0.80325 0.21759
 O702 O 0.29422 0.70433 0.26203
 O703 O 0.26713 0.74511 0.22400
 O704 O 0.25608 0.71747 0.24591
 O705 O 0.22017 0.73458 0.25000
 O706 O 0.23169 0.76347 0.22719
 C707 C 0.30850 0.75346 0.28287
 C708 C 0.27794 0.81041 0.25885
 C709 C 0.25175 0.73856 0.31427
 O710 O 0.25540 0.69482 0.28205
 O711 O 0.22441 0.69582 0.26105
 O712 O 0.22256 0.70161 0.22750
 C713 C 0.21912 0.69049 0.24339
 O714 O 0.20930 0.79126 0.27507
 Zr715 Zr 0.21560 0.76690 0.25412
 O716 O 0.20650 0.73372 0.21367
 O717 O 0.21038 0.71819 0.28763
 O718 O 0.19043 0.75720 0.27267
 O719 O 0.20421 0.79403 0.23884
 O720 O 0.19145 0.75662 0.23593
 C721 C 0.19075 0.74382 0.22121
 O722 O 0.25022 0.70813 0.20387
 O723 O 0.29030 0.78322 0.21583
 O724 O 0.24113 0.74307 0.19389
 O725 O 0.25988 0.77289 0.19850
 O726 O 0.31064 0.74349 0.23084
 O727 O 0.29274 0.71088 0.22497
 C728 C 0.25123 0.75924 0.18738
 H729 H 0.29319 0.77235 0.25185
 H730 H 0.25871 0.70228 0.24344
 H731 H 0.22361 0.76972 0.21607
 H732 H 0.22524 0.75672 0.29019
 H733 H 0.30967 0.70335 0.26108
 H734 H 0.24585 0.68728 0.29127
 H735 H 0.21152 0.70473 0.29515
 H736 H 0.17777 0.76527 0.26856
 H737 H 0.32318 0.73550 0.23538
 H738 H 0.28882 0.79666 0.20834
 H739 H 0.25361 0.81073 0.20843
 H740 H 0.18881 0.79446 0.24059
 H741 H 0.30687 0.70488 0.22744
 H742 H 0.23907 0.70448 0.19442
 H743 H 0.26069 0.79431 0.30800
 H744 H 0.19443 0.79572 0.27429
 Zr745 Zr 0.23078 0.76790 0.72382
 O746 O 0.24061 0.78671 0.69939
 O747 O 0.19850 0.76681 0.71946
 O748 O 0.22742 0.75239 0.69600
 O749 O 0.22988 0.80914 0.75742
 O750 O 0.24083 0.71946 0.70219
 O751 O 0.21967 0.79957 0.72632
 O752 O 0.18686 0.74584 0.74493
 O753 O 0.22400 0.73679 0.73211
 O754 O 0.21909 0.76888 0.75309
 O755 O 0.25926 0.75100 0.72127
 O756 O 0.25408 0.78230 0.74086
 Zr757 Zr 0.26452 0.73390 0.77746
 Zr758 Zr 0.25266 0.72042 0.73107
 Zr759 Zr 0.24255 0.78151 0.77021
 Zr760 Zr 0.21349 0.73794 0.76165
 O761 O 0.26289 0.80674 0.77550
 O762 O 0.20007 0.70921 0.75282
 O763 O 0.23595 0.75091 0.78025
 O764 O 0.24118 0.71993 0.76037
 O765 O 0.27640 0.73287 0.74825
 O766 O 0.27098 0.76502 0.76910
 C767 C 0.18405 0.75748 0.72940
 C768 C 0.22114 0.81303 0.74060
 C769 C 0.23228 0.73333 0.69075
 O770 O 0.23414 0.69329 0.72856
 O771 O 0.26910 0.69417 0.74232
 O772 O 0.27758 0.70295 0.77411
 C773 C 0.27774 0.69017 0.75915
 O774 O 0.28517 0.78488 0.71503
 Zr775 Zr 0.28172 0.76398 0.73969
 O776 O 0.29681 0.73497 0.78169
 O777 O 0.27710 0.71219 0.71088
 O778 O 0.30244 0.74935 0.71886
 O779 O 0.29683 0.79159 0.74917
 O780 O 0.30860 0.75388 0.75489
 C781 C 0.31138 0.74289 0.77080
 O782 O 0.25515 0.71375 0.80106
 O783 O 0.21674 0.79208 0.78778
 O784 O 0.26579 0.74863 0.80594
 O785 O 0.24924 0.78031 0.80059
 O786 O 0.19162 0.75288 0.78119
 O787 O 0.20930 0.71966 0.78800
 C788 C 0.25807 0.76652 0.81194
 H789 H 0.20621 0.77762 0.75455
 H790 H 0.23849 0.70538 0.76500
 H791 H 0.28127 0.77155 0.77795
 H792 H 0.26457 0.75110 0.70735
 H793 H 0.18506 0.70984 0.75665
 H794 H 0.24115 0.68399 0.71861
 H795 H 0.27384 0.69814 0.70548
 H796 H 0.31606 0.75647 0.71967
 H797 H 0.17817 0.74552 0.77999
 H798 H 0.22036 0.80602 0.79322
 H799 H 0.25567 0.81613 0.78523
 H800 H 0.31167 0.79039 0.74484
 H801 H 0.19478 0.71456 0.78866
 H802 H 0.26785 0.71017 0.80882
 H803 H 0.22793 0.79063 0.69174
 H804 H 0.30018 0.78772 0.71277
 Zr805 Zr 0.26038 0.23038 0.22268
 O806 O 0.24762 0.20966 0.20163
 O807 O 0.29144 0.23227 0.21282
 O808 O 0.25965 0.24417 0.19363
 O809 O 0.26743 0.19179 0.25882
 O810 O 0.24377 0.27615 0.19906
 O811 O 0.27299 0.19929 0.22586
 O812 O 0.30582 0.25493 0.23490
 O813 O 0.26701 0.26221 0.22746
 O814 O 0.27617 0.23184 0.24977
 O815 O 0.23117 0.24620 0.22342
 O816 O 0.24030 0.21676 0.24428
 Zr817 Zr 0.23349 0.26737 0.27836
 Zr818 Zr 0.23790 0.27759 0.22970
 Zr819 Zr 0.25591 0.21998 0.27135
 Zr820 Zr 0.28173 0.26345 0.25501
 O821 O 0.23758 0.19460 0.28161
 O822 O 0.29282 0.29174 0.24203
 O823 O 0.26275 0.25138 0.27796
 O824 O 0.25354 0.28054 0.25671
 O825 O 0.21742 0.26598 0.25139
 O826 O 0.22704 0.23558 0.27344
 C827 C 0.30678 0.24260 0.21978
 C828 C 0.27388 0.18686 0.24120
 C829 C 0.25203 0.26209 0.18761
 O830 O 0.25521 0.30439 0.22130
 O831 O 0.22330 0.30459 0.24156
 O832 O 0.21939 0.29788 0.27485
 C833 C 0.21714 0.30970 0.25919
 O834 O 0.20589 0.21100 0.22438
 Zr835 Zr 0.21211 0.23419 0.24614
 O836 O 0.20234 0.26593 0.28796
 O837 O 0.20998 0.28402 0.21401
 O838 O 0.18826 0.24637 0.22741
 O839 O 0.19919 0.20734 0.26028
 O840 O 0.18743 0.24552 0.26431
 C841 C 0.18660 0.25735 0.27980
 O842 O 0.24593 0.28904 0.29872
 O843 O 0.28432 0.21151 0.28542
 O844 O 0.23589 0.25431 0.30760
 O845 O 0.25337 0.22312 0.30228
 O846 O 0.30655 0.25045 0.27208
 O847 O 0.28912 0.28394 0.27877
 C848 C 0.24498 0.23712 0.31372
 H849 H 0.28943 0.22357 0.24982
 H850 H 0.25645 0.29545 0.25970
 H851 H 0.21831 0.22944 0.28421
 H852 H 0.22388 0.24481 0.21058
 H853 H 0.30822 0.29169 0.24347
 H854 H 0.24633 0.31284 0.21213
 H855 H 0.21183 0.29762 0.20692
 H856 H 0.17510 0.23925 0.23111
 H857 H 0.31949 0.25781 0.26809
 H858 H 0.28206 0.19792 0.29241
 H859 H 0.24639 0.18623 0.29090
 H860 H 0.18387 0.20810 0.25834
 H861 H 0.30355 0.28903 0.27691
 H862 H 0.23446 0.29303 0.30811
 H863 H 0.25913 0.20551 0.19234
 H864 H 0.19081 0.20775 0.22466
 Zr865 Zr 0.73062 0.73330 0.27256
 O866 O 0.73974 0.71346 0.29653
 O867 O 0.69819 0.73512 0.27659
 O868 O 0.72595 0.74790 0.30081
 O869 O 0.73144 0.69317 0.23773
 O870 O 0.73801 0.78111 0.29545
 O871 O 0.72008 0.70197 0.26903
 O872 O 0.68713 0.75700 0.25152
 O873 O 0.72333 0.76465 0.26479
 O874 O 0.72032 0.73316 0.24307
 O875 O 0.75846 0.74995 0.27612
 O876 O 0.75517 0.71910 0.25577
 Zr877 Zr 0.76587 0.76828 0.22044
 Zr878 Zr 0.75139 0.78081 0.26685
 Zr879 Zr 0.74500 0.72067 0.22621
 Zr880 Zr 0.71427 0.76431 0.23502
 O881 O 0.76574 0.69469 0.22195
 O882 O 0.69984 0.79325 0.24358
 O883 O 0.73798 0.75152 0.21657
 O884 O 0.74134 0.78209 0.23731
 O885 O 0.77630 0.76856 0.24991
 O886 O 0.77286 0.73697 0.22839
 C887 C 0.68397 0.74527 0.26692
 C888 C 0.72204 0.68900 0.25431
 C889 C 0.72977 0.76685 0.30652
 O890 O 0.73199 0.80803 0.26944
 O891 O 0.76778 0.80711 0.25657
 O892 O 0.77819 0.79888 0.22486
 C893 C 0.77735 0.81128 0.24010
 O894 O 0.78498 0.71570 0.28218
 Zr895 Zr 0.78219 0.73726 0.25795
 O896 O 0.79835 0.76711 0.21678
 O897 O 0.77450 0.78839 0.28781
 O898 O 0.80139 0.75130 0.27954
 O899 O 0.79881 0.70989 0.24830
 O900 O 0.80950 0.74767 0.24351
 C901 C 0.81267 0.75898 0.22784
 O902 O 0.75699 0.78912 0.19716
 O903 O 0.72076 0.71179 0.20696
 O904 O 0.76911 0.75417 0.19174
 O905 O 0.75531 0.72155 0.19656
 O906 O 0.69329 0.74990 0.21525
 O907 O 0.71109 0.78267 0.20858
 C908 C 0.76394 0.73569 0.18562
 H909 H 0.70763 0.72475 0.24119
 H910 H 0.73851 0.79677 0.23290
 H911 H 0.78388 0.73053 0.21979
 H912 H 0.76312 0.74946 0.29013
 H913 H 0.68506 0.79290 0.23936
 H914 H 0.73820 0.81702 0.27976
 H915 H 0.77049 0.80229 0.29348
 H916 H 0.81528 0.74415 0.27886
 H917 H 0.67974 0.75766 0.21628
 H918 H 0.72481 0.69785 0.20139
 H919 H 0.75942 0.68560 0.21178
 H920 H 0.81333 0.71094 0.25310
 H921 H 0.69652 0.78808 0.20761
 H922 H 0.76995 0.79281 0.18977
 H923 H 0.72683 0.70959 0.30393
 H924 H 0.79996 0.71289 0.28490
 Zr925 Zr 0.76568 0.26763 0.77906
 O926 O 0.75402 0.28959 0.80025
 O927 O 0.79670 0.26357 0.78805
 O928 O 0.76437 0.25439 0.80837
 O929 O 0.77439 0.30481 0.74200
 O930 O 0.74664 0.22392 0.80389
 O931 O 0.77913 0.29787 0.77510
 O932 O 0.80973 0.23841 0.76686
 O933 O 0.77071 0.23520 0.77478
 O934 O 0.78150 0.26425 0.75173
 O935 O 0.73577 0.25433 0.77917
 O936 O 0.74643 0.28246 0.75753
 Zr937 Zr 0.73718 0.23188 0.72462
 Zr938 Zr 0.74091 0.22227 0.77336
 Zr939 Zr 0.76192 0.27728 0.73024
 Zr940 Zr 0.78548 0.23209 0.74702
 O941 O 0.74506 0.30391 0.71947
 O942 O 0.79494 0.20294 0.75999
 O943 O 0.76721 0.24523 0.72415
 O944 O 0.75649 0.21746 0.74614
 O945 O 0.72113 0.23523 0.75185
 O946 O 0.73231 0.26425 0.72905
 C947 C 0.81135 0.25130 0.78144
 C948 C 0.78055 0.30984 0.75948
 C949 C 0.75571 0.23737 0.81489
 O950 O 0.75694 0.19430 0.78202
 O951 O 0.72518 0.19622 0.76225
 O952 O 0.72202 0.20255 0.72888
 C953 C 0.71910 0.19123 0.74474
 O954 O 0.71234 0.29147 0.77825
 Zr955 Zr 0.71744 0.26755 0.75660
 O956 O 0.70597 0.23541 0.71611
 O957 O 0.71264 0.21853 0.78959
 O958 O 0.69286 0.25777 0.77584
 O959 O 0.70625 0.29538 0.74234
 O960 O 0.69227 0.25846 0.73899
 C961 C 0.69077 0.24592 0.72413
 O962 O 0.74849 0.20899 0.70417
 O963 O 0.79087 0.28291 0.71570
 O964 O 0.73991 0.24427 0.69510
 O965 O 0.75943 0.27363 0.69941
 O966 O 0.81116 0.24270 0.72963
 O967 O 0.79193 0.21081 0.72329
 C968 C 0.75003 0.26037 0.68843
 H969 H 0.79511 0.27141 0.75136
 H970 H 0.75871 0.20228 0.74335
 H971 H 0.72391 0.27090 0.71834
 H972 H 0.72853 0.25661 0.79212
 H973 H 0.81030 0.20155 0.75826
 H974 H 0.74765 0.18682 0.79152
 H975 H 0.71379 0.20493 0.79688
 H976 H 0.68017 0.26611 0.77236
 H977 H 0.82361 0.23419 0.73350
 H978 H 0.78937 0.29650 0.70845
 H979 H 0.75449 0.31136 0.71008
 H980 H 0.69091 0.29616 0.74455
 H981 H 0.80608 0.20450 0.72490
 H982 H 0.73679 0.20579 0.69517
 H983 H 0.76575 0.29293 0.80916
 H984 H 0.69750 0.29616 0.77810
 C985 C 0.42512 0.99838 0.30601
 N986 N 0.43567 0.99459 0.28868
 N987 N 0.42574 0.99542 0.27130
 C988 C 0.40492 1.00027 0.27050
 N989 N 0.39456 1.00427 0.28790
 N990 N 0.40444 1.00341 0.30523
 C991 C 0.43524 0.99597 0.32553
 N992 N 0.42335 0.99726 0.34234
 N993 N 0.43186 0.99455 0.36016
 C994 C 0.45263 0.99043 0.36201
 N995 N 0.46468 0.98919 0.34520
 N996 N 0.45609 0.99182 0.32725
 C997 C 0.46129 0.98797 0.38217
 N998 N 0.48219 0.98640 0.38571
 N999 N 0.48929 0.98578 0.40442
 C1000 C 0.47565 0.98663 0.42015
 N1001 N 0.45488 0.98778 0.41643
 N1002 N 0.44786 0.98839 0.39791
 C1003 C -0.06784 0.50230 0.79824
 N1004 N -0.08194 0.51797 0.79418
 N1005 N -0.09405 0.51706 0.77817
 C1006 C -0.09258 0.50038 0.76558
 N1007 N -0.07822 0.48487 0.76957
 N1008 N -0.06614 0.48578 0.78557
 C1009 C -0.05540 0.50279 0.81657
 N1010 N -0.04221 0.48657 0.82149
 N1011 N -0.03202 0.48654 0.83875
 C1012 C -0.03465 0.50278 0.85170
 N1013 N -0.04764 0.51905 0.84662
 N1014 N -0.05778 0.51908 0.82941
 C1015 C -0.02528 0.50234 0.87166
 N1016 N -0.03119 0.51734 0.88494
 N1017 N -0.02463 0.51645 0.90362
 C1018 C -0.01171 0.50064 0.90989
 N1019 N -0.00531 0.48574 0.89655
 N1020 N -0.01206 0.48656 0.87774
 C1021 C 0.07370 0.00287 0.80542
 N1022 N 0.06296 0.00783 0.78865
 N1023 N 0.07240 0.00696 0.77080
 C1024 C 0.09288 0.00090 0.76898
 N1025 N 0.10342 -0.00421 0.78584
 N1026 N 0.09403 -0.00332 0.80362
 C1027 C 0.06428 0.00534 0.82544
 N1028 N 0.07649 0.00257 0.84165
 N1029 N 0.06869 0.00538 0.85990
 C1030 C 0.04835 0.01108 0.86281
 N1031 N 0.03598 0.01380 0.84662
 N1032 N 0.04385 0.01107 0.82823
 C1033 C 0.04045 0.01367 0.88340
 N1034 N 0.01984 0.01704 0.88790
 N1035 N 0.01328 0.01788 0.90692
 C1036 C 0.02717 0.01547 0.92201
 N1037 N 0.04768 0.01249 0.91735
 N1038 N 0.05418 0.01165 0.89851
 C1039 C 0.56746 0.49990 0.29750
 N1040 N 0.56539 0.51608 0.28433
 N1041 N 0.57708 0.51659 0.26775
 C1042 C 0.59141 0.50101 0.26371
 N1043 N 0.59308 0.48460 0.27674
 N1044 N 0.58139 0.48409 0.29329
 C1045 C 0.55602 0.50004 0.31667
 N1046 N 0.56007 0.48477 0.33036
 N1047 N 0.55111 0.48546 0.34834
 C1048 C 0.53766 0.50139 0.35338
 N1049 N 0.53333 0.51660 0.33961
 N1050 N 0.54239 0.51593 0.32157
 C1051 C 0.52952 0.50253 0.37397
 N1052 N 0.51484 0.51708 0.37987
 N1053 N 0.50872 0.51826 0.39899
 C1054 C 0.51726 0.50501 0.41281
 N1055 N 0.53177 0.49050 0.40676
 N1056 N 0.53770 0.48923 0.38778
 C1057 C 0.56619 0.50530 0.19477
 N1058 N 0.56539 0.48892 0.20782
 N1059 N 0.57763 0.48838 0.22375
 C1060 C 0.59130 0.50409 0.22725
 N1061 N 0.59186 0.52062 0.21428
 N1062 N 0.57957 0.52119 0.19836
 C1063 C 0.55352 0.50545 0.17658
 N1064 N 0.55420 0.52212 0.16387
 N1065 N 0.54384 0.52187 0.14679
 C1066 C 0.53237 0.50497 0.14169
 N1067 N 0.53146 0.48834 0.15450
 N1068 N 0.54182 0.48861 0.17166
 C1069 C 0.52289 0.50431 0.12180
 N1070 N 0.51231 0.48726 0.11534
 N1071 N 0.50594 0.48620 0.09646
 C1072 C 0.50998 0.50215 0.08343
 N1073 N 0.52017 0.51925 0.09009
 N1074 N 0.52640 0.52036 0.10886
 C1075 C 0.06348 1.00577 0.70004
 N1076 N 0.07663 1.02189 0.70348
 N1077 N 0.08931 1.02143 0.71910
 C1078 C 0.08939 1.00480 0.73198
 N1079 N 0.07586 0.98889 0.72872
 N1080 N 0.06323 0.98932 0.71305
 C1081 C 0.05078 1.00563 0.68184
 N1082 N 0.03949 0.98851 0.67687
 N1083 N 0.02936 0.98792 0.65960
 C1084 C 0.03011 1.00448 0.64669
 N1085 N 0.04115 1.02165 0.65183
 N1086 N 0.05128 1.02223 0.66903
 C1087 C 0.02090 1.00351 0.62666
 N1088 N 0.02432 1.01951 0.61364
 N1089 N 0.01823 1.01821 0.59484
 C1090 C 0.00828 1.00096 0.58820
 N1091 N 0.00433 0.98503 0.60129
 N1092 N 0.01058 0.98629 0.62021
 C1093 C -0.06722 0.49320 0.69635
 N1094 N -0.06599 0.50991 0.70877
 N1095 N -0.07826 0.51127 0.72492
 C1096 C -0.09237 0.49607 0.72929
 N1097 N -0.09333 0.47920 0.71697
 N1098 N -0.08105 0.47783 0.70082
 C1099 C -0.05468 0.49224 0.67781
 N1100 N -0.05688 0.47592 0.66510
 N1101 N -0.04676 0.47561 0.64765
 C1102 C -0.03398 0.49155 0.64219
 N1103 N -0.03152 0.50779 0.65500
 N1104 N -0.04169 0.50811 0.67250
 C1105 C -0.02480 0.49186 0.62194
 N1106 N -0.01184 0.50740 0.61563
 N1107 N -0.00544 0.50839 0.59659
 C1108 C -0.01189 0.49392 0.58325
 N1109 N -0.02453 0.47830 0.58972
 N1110 N -0.03076 0.47722 0.60866
 C1111 C 0.43378 -0.00542 0.20095
 N1112 N 0.42043 -0.02132 0.20507
 N1113 N 0.40775 -0.02047 0.22097
 C1114 C 0.40784 -0.00365 0.23342
 N1115 N 0.42148 0.01209 0.22940
 N1116 N 0.43415 0.01126 0.21349
 C1117 C 0.44667 -0.00585 0.18257
 N1118 N 0.45894 0.01063 0.17734
 N1119 N 0.46936 0.01070 0.15996
 C1120 C 0.46789 -0.00574 0.14720
 N1121 N 0.45584 -0.02227 0.15260
 N1122 N 0.44547 -0.02235 0.16992
 C1123 C 0.47740 -0.00519 0.12707
 N1124 N 0.47255 -0.02040 0.11392
 N1125 N 0.47907 -0.01930 0.09507
 C1126 C 0.49093 -0.00308 0.08854
 N1127 N 0.49627 0.01200 0.10176
 N1128 N 0.48957 0.01098 0.12071
 C1129 C 0.30826 0.39107 0.00263
 N1130 N 0.30151 0.37911 0.01816
 N1131 N 0.28403 0.36812 0.01680
 C1132 C 0.27248 0.36852 -0.00013
 N1133 N 0.27906 0.38092 -0.01552
 N1134 N 0.29661 0.39186 -0.01420
 C1135 C 0.32820 0.40242 0.00381
 N1136 N 0.33614 0.41239 -0.01248
 N1137 N 0.35444 0.42205 -0.01166
 C1138 C 0.36556 0.42221 0.00548
 N1139 N 0.35758 0.41235 0.02184
 N1140 N 0.33928 0.40260 0.02099
 C1141 C 0.38604 0.43267 0.00586
 N1142 N 0.39689 0.43500 0.02304
 N1143 N 0.41535 0.44460 0.02292
 C1144 C 0.42367 0.45209 0.00557
 N1145 N 0.41279 0.44964 -0.01149
 N1146 N 0.39440 0.44018 -0.01136
 C1147 C -0.19371 0.89139 0.50072
 N1148 N -0.20917 0.89296 0.51474
 N1149 N -0.22726 0.88317 0.51232
 C1150 C -0.23072 0.87141 0.49579
 N1151 N -0.21519 0.86999 0.48180
 N1152 N -0.19718 0.87983 0.48417
 C1153 C -0.17329 0.90155 0.50333
 N1154 N -0.15885 0.90083 0.48835
 N1155 N -0.14028 0.90965 0.49041
 C1156 C -0.13523 0.91947 0.50757
 N1157 N -0.14963 0.92019 0.52266
 N1158 N -0.16831 0.91139 0.52057
 C1159 C -0.11466 0.92963 0.50905
 N1160 N -0.10793 0.93844 0.52625
 N1161 N -0.08953 0.94814 0.52679
 C1162 C -0.07724 0.94940 0.51013
 N1163 N -0.08399 0.94044 0.49312
 N1164 N -0.10221 0.93070 0.49261
 C1165 C -0.19263 0.10356 0.99730
 N1166 N -0.20587 0.10118 1.01312
 N1167 N -0.22331 0.11294 1.01475
 C1168 C -0.22824 0.12769 1.00068
 N1169 N -0.21507 0.12972 0.98469
 N1170 N -0.19767 0.11796 0.98304
 C1171 C -0.17284 0.09122 0.99593
 N1172 N -0.15944 0.09378 0.98023
 N1173 N -0.14126 0.08314 0.97937
 C1174 C -0.13574 0.06955 0.99420
 N1175 N -0.14918 0.06695 1.00983
 N1176 N -0.16735 0.07754 1.01068
 C1177 C -0.11533 0.05823 0.99390
 N1178 N -0.10982 0.04586 1.00961
 N1179 N -0.09124 0.03610 1.00998
 C1180 C -0.07734 0.03818 0.99466
 N1181 N -0.08285 0.05044 0.97881
 N1182 N -0.10150 0.06029 0.97845
 C1183 C 0.30248 0.60549 0.49342
 N1184 N 0.29017 0.60313 0.50991
 N1185 N 0.27254 0.61446 0.51219
 C1186 C 0.26652 0.62880 0.49813
 N1187 N 0.27875 0.63080 0.48148
 N1188 N 0.29634 0.61945 0.47918
 C1189 C 0.32249 0.59366 0.49137
 N1190 N 0.33492 0.59593 0.47491
 N1191 N 0.35336 0.58580 0.47350
 C1192 C 0.36008 0.57304 0.48854
 N1193 N 0.34759 0.57072 0.50490
 N1194 N 0.32918 0.58079 0.50629
 C1195 C 0.38080 0.56235 0.48783
 N1196 N 0.38748 0.55149 0.50406
 N1197 N 0.40628 0.54225 0.50418
 C1198 C 0.41929 0.54335 0.48808
 N1199 N 0.41263 0.55410 0.47166
 N1200 N 0.39371 0.56348 0.47157
 C1201 C 0.19314 0.60327 0.50430
 N1202 N 0.20678 0.60182 0.48863
 N1203 N 0.22367 0.61388 0.48768
 C1204 C 0.22759 0.62797 0.50233
 N1205 N 0.21384 0.62932 0.51795
 N1206 N 0.19706 0.61723 0.51894
 C1207 C 0.17412 0.59039 0.50527
 N1208 N 0.16126 0.59113 0.52156
 N1209 N 0.14375 0.58002 0.52228
 C1210 C 0.13838 0.56776 0.50670
 N1211 N 0.15128 0.56698 0.49045
 N1212 N 0.16881 0.57802 0.48976
 C1213 C 0.11857 0.55610 0.50693
 N1214 N 0.11234 0.54617 0.49024
 N1215 N 0.09417 0.53630 0.48992
 C1216 C 0.08147 0.53577 0.50629
 N1217 N 0.08775 0.54554 0.52312
 N1218 N 0.10595 0.55555 0.52341
 C1219 C 0.69764 0.10421 0.00738
 N1220 N 0.71126 0.10187 -0.00822
 N1221 N 0.72845 0.11347 -0.00955
 C1222 C 0.73272 0.12797 0.00464
 N1223 N 0.71898 0.13019 0.02019
 N1224 N 0.70189 0.11858 0.02157
 C1225 C 0.67832 0.09181 0.00880
 N1226 N 0.66548 0.09343 0.02506
 N1227 N 0.64773 0.08271 0.02617
 C1228 C 0.64209 0.06999 0.01102
 N1229 N 0.65497 0.06834 -0.00520
 N1230 N 0.67274 0.07899 -0.00628
 C1231 C 0.62208 0.05869 0.01161
 N1232 N 0.61575 0.04831 -0.00478
 N1233 N 0.59747 0.03864 -0.00484
 C1234 C 0.58473 0.03877 0.01151
 N1235 N 0.59107 0.04901 0.02806
 N1236 N 0.60941 0.05883 0.02808
 C1237 C 0.69442 0.89761 0.49222
 N1238 N 0.69810 0.88256 0.47833
 N1239 N 0.71534 0.87055 0.47894
 C1240 C 0.72988 0.87303 0.49337
 N1241 N 0.72612 0.88814 0.50736
 N1242 N 0.70876 0.90017 0.50679
 C1243 C 0.67493 0.91048 0.49148
 N1244 N 0.67009 0.92474 0.50590
 N1245 N 0.65219 0.93584 0.50530
 C1246 C 0.63843 0.93318 0.49025
 N1247 N 0.64334 0.91900 0.47578
 N1248 N 0.66121 0.90789 0.47640
 C1249 C 0.61827 0.94495 0.49008
 N1250 N 0.60445 0.94274 0.47499
 N1251 N 0.58592 0.95281 0.47542
 C1252 C 0.58051 0.96547 0.49099
 N1253 N 0.59441 0.96773 0.50595
 N1254 N 0.61290 0.95775 0.50550
 C1255 C 0.19916 0.39532 0.99090
 N1256 N 0.20496 0.38142 0.97650
 N1257 N 0.22188 0.36911 0.97866
 C1258 C 0.23379 0.37002 0.99532
 N1259 N 0.22817 0.38430 1.00956
 N1260 N 0.21119 0.39662 1.00741
 C1261 C 0.17978 0.40821 0.98890
 N1262 N 0.17335 0.42127 1.00378
 N1263 N 0.15549 0.43229 1.00234
 C1264 C 0.14329 0.43074 0.98598
 N1265 N 0.14976 0.41776 0.97101
 N1266 N 0.16765 0.40671 0.97246
 C1267 C 0.12311 0.44246 0.98513
 N1268 N 0.11044 0.44165 0.96897
 N1269 N 0.09194 0.45183 0.96891
 C1270 C 0.08543 0.46316 0.98506
 N1271 N 0.09819 0.46398 1.00105
 N1272 N 0.11661 0.45392 1.00109
 C1273 C -0.02565 0.30539 0.40077
 N1274 N -0.02018 0.28786 0.41121
 N1275 N -0.01510 0.27011 0.40181
 C1276 C -0.01526 0.26919 0.38160
 N1277 N -0.02093 0.28679 0.37119
 N1278 N -0.02604 0.30457 0.38060
 C1279 C -0.02803 0.32542 0.41105
 N1280 N -0.03237 0.34346 0.40082
 N1281 N -0.03139 0.36206 0.40980
 C1282 C -0.02588 0.36315 0.42922
 N1283 N -0.02203 0.34510 0.43952
 N1284 N -0.02312 0.32655 0.43059
 C1285 C -0.02196 0.38332 0.43850
 N1286 N -0.01132 0.38380 0.45583
 N1287 N -0.00657 0.40206 0.46402
 C1288 C -0.01230 0.42047 0.45516
 N1289 N -0.02306 0.42005 0.43786
 N1290 N -0.02765 0.40174 0.42954
 C1291 C 0.48548 -0.19517 -0.09252
 N1292 N 0.47286 -0.19834 -0.10826
 N1293 N 0.47590 -0.21505 -0.11990
 C1294 C 0.49179 -0.22900 -0.11629
 N1295 N 0.50431 -0.22576 -0.10046
 N1296 N 0.50117 -0.20919 -0.08877
 C1297 C 0.48390 -0.17591 -0.08099
 N1298 N 0.49662 -0.17341 -0.06522
 N1299 N 0.49738 -0.15498 -0.05604
 C1300 C 0.48555 -0.13841 -0.06240
 N1301 N 0.47247 -0.14099 -0.07793
 N1302 N 0.47167 -0.15949 -0.08710
 C1303 C 0.48826 -0.11785 -0.05349
 N1304 N 0.47759 -0.10062 -0.06024
 N1305 N 0.48097 -0.08176 -0.05246
 C1306 C 0.49525 -0.07958 -0.03786
 N1307 N 0.50588 -0.09681 -0.03118
 N1308 N 0.50249 -0.11562 -0.03891
 C1309 C 0.01277 -0.19981 1.09176
 N1310 N 0.02624 -0.20529 1.10642
 N1311 N 0.02227 -0.22162 1.11831
 C1312 C 0.00456 -0.23284 1.11611
 N1313 N -0.00893 -0.22717 1.10148
 N1314 N -0.00489 -0.21096 1.08952
 C1315 C 0.01643 -0.18138 1.07933
 N1316 N 0.00396 -0.17727 1.06355
 N1317 N 0.00584 -0.15943 1.05327
 C1318 C 0.02021 -0.14511 1.05850
 N1319 N 0.03296 -0.14938 1.07407
 N1320 N 0.03116 -0.16730 1.08429
 C1321 C 0.02016 -0.12447 1.04899
 N1322 N 0.03107 -0.10851 1.05692
 N1323 N 0.02912 -0.08906 1.04959
 C1324 C 0.01616 -0.08500 1.03413
 N1325 N 0.00553 -0.10103 1.02600
 N1326 N 0.00742 -0.12044 1.03338
 C1327 C 0.51620 0.30441 0.58863
 N1328 N 0.50011 0.29157 0.58467
 N1329 N 0.49613 0.27519 0.59643
 C1330 C 0.50816 0.27099 0.61255
 N1331 N 0.52442 0.28380 0.61637
 N1332 N 0.52830 0.30030 0.60467
 C1333 C 0.51885 0.32354 0.57696
 N1334 N 0.53135 0.33907 0.58342
 N1335 N 0.53146 0.35768 0.57417
 C1336 C 0.51910 0.36125 0.55817
 N1337 N 0.50706 0.34553 0.55144
 N1338 N 0.50690 0.32700 0.56071
 C1339 C 0.51700 0.38219 0.54947
 N1340 N 0.50352 0.38553 0.53432
 N1341 N 0.50023 0.40482 0.52714
 C1342 C 0.51019 0.42145 0.53498
 N1343 N 0.52379 0.41814 0.55008
 N1344 N 0.52707 0.39879 0.55730
 C1345 C 0.48988 1.20093 0.58941
 N1346 N 0.50735 1.21232 0.58634
 N1347 N 0.51149 1.22847 0.59808
 C1348 C 0.49827 1.23385 0.61328
 N1349 N 0.48076 1.22237 0.61628
 N1350 N 0.47671 1.20612 0.60463
 C1351 C 0.48606 1.18259 0.57721
 N1352 N 0.47149 1.16841 0.58284
 N1353 N 0.46942 1.15064 0.57270
 C1354 C 0.48175 1.14661 0.55654
 N1355 N 0.49597 1.16102 0.55066
 N1356 N 0.49812 1.17871 0.56085
 C1357 C 0.48152 1.12613 0.54696
 N1358 N 0.49386 1.12239 0.53076
 N1359 N 0.49559 1.10312 0.52324
 C1360 C 0.48518 1.08692 0.53179
 N1361 N 0.47260 1.09069 0.54784
 N1362 N 0.47081 1.11001 0.55532
 C1363 C -0.01262 0.69823 1.09010
 N1364 N 0.00423 0.71051 1.08715
 N1365 N 0.00809 0.72613 1.09954
 C1366 C -0.00480 0.73011 1.11535
 N1367 N -0.02178 0.71785 1.11822
 N1368 N -0.02555 0.70206 1.10588
 C1369 C -0.01547 0.68009 1.07740
 N1370 N -0.02872 0.66458 1.08283
 N1371 N -0.02916 0.64678 1.07248
 C1372 C -0.01644 0.64404 1.05634
 N1373 N -0.00363 0.65979 1.05063
 N1374 N -0.00312 0.67751 1.06102
 C1375 C -0.01465 0.62371 1.04658
 N1376 N -0.00106 0.62105 1.03111
 N1377 N 0.00219 0.60210 1.02325
 C1378 C -0.00791 0.58516 1.03074
 N1379 N -0.02166 0.58783 1.04610
 N1380 N -0.02493 0.60681 1.05396
 C1381 C 0.50557 0.69744 -0.09574
 N1382 N 0.51953 0.70239 -0.11032
 N1383 N 0.51714 0.72010 -0.12083
 C1384 C 0.50064 0.73337 -0.11717
 N1385 N 0.48688 0.72843 -0.10239
 N1386 N 0.48932 0.71081 -0.09186
 C1387 C 0.50667 0.67719 -0.08557
 N1388 N 0.49211 0.67248 -0.07149
 N1389 N 0.49164 0.65336 -0.06339
 C1390 C 0.50565 0.63828 -0.06916
 N1391 N 0.52043 0.64302 -0.08306
 N1392 N 0.52091 0.66220 -0.09119
 C1393 C 0.50428 0.61719 -0.06077
 N1394 N 0.51791 0.60166 -0.06638
 N1395 N 0.51646 0.58245 -0.05847
 C1396 C 0.50125 0.57820 -0.04483
 N1397 N 0.48757 0.59372 -0.03938
 N1398 N 0.48902 0.61287 -0.04726
 C1399 C 0.00140 1.19687 0.40841
 N1400 N 0.01650 1.20222 0.39505
 N1401 N 0.01415 1.21931 0.38366
 C1402 C -0.00339 1.23164 0.38522
 N1403 N -0.01841 1.22620 0.39866
 N1404 N -0.01602 1.20920 0.41011
 C1405 C 0.00271 1.17706 0.41937
 N1406 N -0.01255 1.17206 0.43267
 N1407 N -0.01269 1.15317 0.44129
 C1408 C 0.00233 1.13859 0.43679
 N1409 N 0.01779 1.14365 0.42368
 N1410 N 0.01796 1.16260 0.41508
 C1411 C 0.00127 1.11754 0.44542
 N1412 N 0.01535 1.10228 0.44014
 N1413 N 0.01406 1.08302 0.44795
 C1414 C -0.00141 1.07841 0.46120
 N1415 N -0.01550 1.09367 0.46639
 N1416 N -0.01423 1.11289 0.45857
 C1417 C 0.74343 0.67434 0.94330
 N1418 N 0.74808 0.65343 0.94395
 N1419 N 0.75016 0.64338 0.96126
 C1420 C 0.74787 0.65372 0.97885
 N1421 N 0.74297 0.67472 0.97820
 N1422 N 0.74091 0.68487 0.96077
 C1423 C 0.74101 0.68473 0.92369
 N1424 N 0.73709 0.70579 0.92163
 N1425 N 0.73522 0.71453 0.90350
 C1426 C 0.73715 0.70245 0.88685
 N1427 N 0.74096 0.68149 0.88906
 N1428 N 0.74284 0.67283 0.90704
 C1429 C 0.73594 0.71122 0.86645
 N1430 N 0.73893 0.69789 0.85096
 N1431 N 0.73893 0.70497 0.83232
 C1432 C 0.73584 0.72572 0.82819
 N1433 N 0.73255 0.73926 0.84364
 N1434 N 0.73262 0.73211 0.86248
 C1435 C 0.24959 0.17954 0.44954
 N1436 N 0.26473 0.16493 0.45372
 N1437 N 0.26380 0.15341 0.47039
 C1438 C 0.24763 0.15596 0.48354
 N1439 N 0.23267 0.17083 0.47942
 N1440 N 0.23360 0.18235 0.46277
 C1441 C 0.24995 0.19119 0.43047
 N1442 N 0.23438 0.20514 0.42567
 N1443 N 0.23411 0.21458 0.40783
 C1444 C 0.24941 0.21037 0.39413
 N1445 N 0.26504 0.19661 0.39906
 N1446 N 0.26533 0.18724 0.41686
 C1447 C 0.24864 0.21910 0.37373
 N1448 N 0.26253 0.21180 0.35993
 N1449 N 0.26143 0.21817 0.34108
 C1450 C 0.24654 0.23227 0.33516
 N1451 N 0.23271 0.23994 0.34899
 N1452 N 0.23372 0.23339 0.36797
 C1453 C 0.75011 0.32125 0.44998
 N1454 N 0.76569 0.31882 0.46339
 N1455 N 0.76580 0.33046 0.47988
 C1456 C 0.75040 0.34505 0.48363
 N1457 N 0.73462 0.34711 0.47035
 N1458 N 0.73451 0.33549 0.45387
 C1459 C 0.75065 0.30982 0.43090
 N1460 N 0.73591 0.31416 0.41706
 N1461 N 0.73692 0.30519 0.39920
 C1462 C 0.75265 0.29143 0.39440
 N1463 N 0.76732 0.28679 0.40832
 N1464 N 0.76635 0.29587 0.42625
 C1465 C 0.75403 0.28323 0.37389
 N1466 N 0.76781 0.26767 0.36825
 N1467 N 0.76884 0.26123 0.34927
 C1468 C 0.75627 0.27035 0.33531
 N1469 N 0.74261 0.28578 0.34112
 N1470 N 0.74145 0.29202 0.35994
 C1471 C 0.25446 0.82243 0.94845
 N1472 N 0.26994 0.81919 0.96183
 N1473 N 0.27021 0.83018 0.97871
 C1474 C 0.25504 0.84489 0.98293
 N1475 N 0.23938 0.84781 0.96963
 N1476 N 0.23913 0.83685 0.95275
 C1477 C 0.25473 0.81153 0.92908
 N1478 N 0.24029 0.81683 0.91522
 N1479 N 0.24096 0.80813 0.89724
 C1480 C 0.25603 0.79367 0.89231
 N1481 N 0.27041 0.78811 0.90623
 N1482 N 0.26979 0.79693 0.92428
 C1483 C 0.25695 0.78551 0.87176
 N1484 N 0.26989 0.76928 0.86605
 N1485 N 0.27040 0.76274 0.84709
 C1486 C 0.25813 0.77241 0.83321
 N1487 N 0.24531 0.78853 0.83908
 N1488 N 0.24467 0.79488 0.85788
 C1489 C 0.25923 0.81782 0.05237
 N1490 N 0.27479 0.83161 0.04856
 N1491 N 0.27430 0.84402 0.03247
 C1492 C 0.25818 0.84322 0.01949
 N1493 N 0.24284 0.82904 0.02314
 N1494 N 0.24331 0.81665 0.03926
 C1495 C 0.25908 0.80541 0.07103
 N1496 N 0.24275 0.79290 0.07601
 N1497 N 0.24210 0.78298 0.09363
 C1498 C 0.25779 0.78521 0.10688
 N1499 N 0.27418 0.79750 0.10174
 N1500 N 0.27483 0.80738 0.08420
 C1501 C 0.25662 0.77618 0.12718
 N1502 N 0.27117 0.78164 0.14060
 N1503 N 0.26960 0.77542 0.15950
 C1504 C 0.25355 0.76331 0.16582
 N1505 N 0.23910 0.75739 0.15234
 N1506 N 0.24060 0.76378 0.13333
 C1507 C 0.75438 0.32042 0.55361
 N1508 N 0.77001 0.33402 0.54939
 N1509 N 0.76949 0.34605 0.53303
 C1510 C 0.75326 0.34503 0.52019
 N1511 N 0.73781 0.33111 0.52430
 N1512 N 0.73832 0.31911 0.54068
 C1513 C 0.75447 0.30816 0.57237
 N1514 N 0.73821 0.29568 0.57764
 N1515 N 0.73792 0.28568 0.59523
 C1516 C 0.75392 0.28778 0.60816
 N1517 N 0.77022 0.30007 0.60274
 N1518 N 0.77051 0.31003 0.58523
 C1519 C 0.75331 0.27846 0.62837
 N1520 N 0.76845 0.28343 0.64138
 N1521 N 0.76752 0.27685 0.66019
 C1522 C 0.75154 0.26483 0.66687
 N1523 N 0.73648 0.25940 0.65381
 N1524 N 0.73734 0.26615 0.63487
 C1525 C 0.24258 0.18349 0.55203
 N1526 N 0.22667 0.17017 0.54850
 N1527 N 0.22728 0.15742 0.53276
 C1528 C 0.24389 0.15741 0.51992
 N1529 N 0.25959 0.17109 0.52331
 N1530 N 0.25900 0.18381 0.53905
 C1531 C 0.24253 0.19639 0.57023
 N1532 N 0.25928 0.20821 0.57497
 N1533 N 0.25974 0.21860 0.59221
 C1534 C 0.24342 0.21760 0.60531
 N1535 N 0.22662 0.20601 0.60040
 N1536 N 0.22617 0.19563 0.58323
 C1537 C 0.24433 0.22710 0.62528
 N1538 N 0.22868 0.22338 0.63854
 N1539 N 0.23002 0.22969 0.65731
 C1540 C 0.24695 0.24020 0.66367
 N1541 N 0.26251 0.24445 0.65034
 N1542 N 0.26122 0.23797 0.63145
 C1543 C 0.75523 0.67577 0.05194
 N1544 N 0.75002 0.65516 0.05221
 N1545 N 0.74733 0.64472 0.03534
 C1546 C 0.74963 0.65436 0.01731
 N1547 N 0.75496 0.67506 0.01706
 N1548 N 0.75756 0.68562 0.03402
 C1549 C 0.75900 0.68648 0.07101
 N1550 N 0.76116 0.70774 0.07232
 N1551 N 0.76421 0.71683 0.08998
 C1552 C 0.76543 0.70491 0.10688
 N1553 N 0.76343 0.68374 0.10541
 N1554 N 0.76025 0.67474 0.08790
 C1555 C 0.76777 0.71411 0.12690
 N1556 N 0.76948 0.70082 0.14268
 N1557 N 0.76942 0.70812 0.16118
 C1558 C 0.76781 0.72909 0.16482
 N1559 N 0.76662 0.74263 0.14904
 N1560 N 0.76663 0.73525 0.13036
 C1561 C 0.14225 0.55697 0.24351
 N1562 N 0.14391 0.54338 0.25919
 N1563 N 0.13230 0.52611 0.26021
 C1564 C 0.11847 0.52174 0.24561
 N1565 N 0.11692 0.53543 0.22996
 N1566 N 0.12855 0.55261 0.22890
 C1567 C 0.15465 0.57640 0.24255
 N1568 N 0.15379 0.58934 0.22633
 N1569 N 0.16458 0.60716 0.22566
 C1570 C 0.17660 0.61276 0.24125
 N1571 N 0.17748 0.59978 0.25743
 N1572 N 0.16677 0.58195 0.25806
 C1573 C 0.18805 0.63280 0.24111
 N1574 N 0.19785 0.63901 0.25783
 N1575 N 0.20778 0.65725 0.25825
 C1576 C 0.20849 0.67005 0.24197
 N1577 N 0.19881 0.66383 0.22511
 N1578 N 0.18873 0.64555 0.22472
 C1579 C 0.64285 0.05734 0.74586
 N1580 N 0.64531 0.04340 0.76117
 N1581 N 0.63384 0.02604 0.76232
 C1582 C 0.61936 0.02192 0.74822
 N1583 N 0.61702 0.03598 0.73295
 N1584 N 0.62852 0.05324 0.73176
 C1585 C 0.65509 0.07687 0.74474
 N1586 N 0.65348 0.09007 0.72875
 N1587 N 0.66409 0.10798 0.72794
 C1588 C 0.67669 0.11343 0.74315
 N1589 N 0.67833 0.10019 0.75909
 N1590 N 0.66779 0.08226 0.75986
 C1591 C 0.68800 0.13354 0.74287
 N1592 N 0.69834 0.13960 0.75933
 N1593 N 0.70822 0.15786 0.75962
 C1594 C 0.70832 0.17087 0.74347
 N1595 N 0.69808 0.16482 0.72687
 N1596 N 0.68805 0.14650 0.72661
 C1597 C 0.85462 0.05281 0.25948
 N1598 N 0.86857 0.04749 0.27379
 N1599 N 0.88056 0.03019 0.27202
 C1600 C 0.87925 0.01742 0.25585
 N1601 N 0.86495 0.02262 0.24171
 N1602 N 0.85295 0.03996 0.24346
 C1603 C 0.84199 0.07251 0.26101
 N1604 N 0.82861 0.07820 0.24631
 N1605 N 0.81772 0.09628 0.24731
 C1606 C 0.81973 0.10944 0.26305
 N1607 N 0.83304 0.10373 0.27785
 N1608 N 0.84396 0.08562 0.27683
 C1609 C 0.80805 0.12978 0.26348
 N1610 N 0.80957 0.14347 0.27893
 N1611 N 0.79936 0.16207 0.27863
 C1612 C 0.78728 0.16763 0.26283
 N1613 N 0.78576 0.15384 0.24753
 N1614 N 0.79586 0.13534 0.24785
 C1615 C 0.35533 0.55420 0.75640
 N1616 N 0.36920 0.54868 0.77072
 N1617 N 0.38108 0.53132 0.76888
 C1618 C 0.37974 0.51867 0.75263
 N1619 N 0.36551 0.52405 0.73847
 N1620 N 0.35362 0.54146 0.74030
 C1621 C 0.34283 0.57399 0.75805
 N1622 N 0.32947 0.57988 0.74339
 N1623 N 0.31871 0.59803 0.74452
 C1624 C 0.32083 0.61107 0.76034
 N1625 N 0.33412 0.60516 0.77508
 N1626 N 0.34491 0.58698 0.77394
 C1627 C 0.30923 0.63147 0.76092
 N1628 N 0.31086 0.64508 0.77643
 N1629 N 0.30067 0.66370 0.77628
 C1630 C 0.28850 0.66936 0.76057
 N1631 N 0.28688 0.65566 0.74521
 N1632 N 0.29697 0.63715 0.74538
 C1633 C 0.35690 0.44430 0.74538
 N1634 N 0.35604 0.45631 0.76210
 N1635 N 0.36748 0.47362 0.76353
 C1636 C 0.38043 0.47958 0.74834
 N1637 N 0.38095 0.46765 0.73153
 N1638 N 0.36949 0.45041 0.73008
 C1639 C 0.34485 0.42467 0.74401
 N1640 N 0.34519 0.41306 0.72702
 N1641 N 0.33477 0.39505 0.72599
 C1642 C 0.32366 0.38791 0.74196
 N1643 N 0.32330 0.39956 0.75890
 N1644 N 0.33364 0.41757 0.75991
 C1645 C 0.31253 0.36767 0.74139
 N1646 N 0.30337 0.36017 0.75825
 N1647 N 0.29362 0.34184 0.75826
 C1648 C 0.29246 0.33016 0.74142
 N1649 N 0.30153 0.33765 0.72442
 N1650 N 0.31142 0.35606 0.72443
 C1651 C 0.85702 0.94272 0.24847
 N1652 N 0.85337 0.95662 0.26355
 N1653 N 0.86482 0.97392 0.26520
 C1654 C 0.88040 0.97807 0.25182
 N1655 N 0.88406 0.96397 0.23690
 N1656 N 0.87264 0.94675 0.23523
 C1657 C 0.84445 0.92352 0.24639
 N1658 N 0.84799 0.91015 0.23089
 N1659 N 0.83685 0.89270 0.22900
 C1660 C 0.82171 0.88793 0.24256
 N1661 N 0.81815 0.90132 0.25804
 N1662 N 0.82926 0.91878 0.25991
 C1663 C 0.80965 0.86833 0.24101
 N1664 N 0.79568 0.86330 0.25555
 N1665 N 0.78524 0.84537 0.25482
 C1666 C 0.78818 0.83170 0.23949
 N1667 N 0.80204 0.83676 0.22477
 N1668 N 0.81257 0.85475 0.22553
 C1669 C 0.64347 0.94674 0.75517
 N1670 N 0.62934 0.95199 0.76962
 N1671 N 0.61767 0.96951 0.76806
 C1672 C 0.61949 0.98259 0.75197
 N1673 N 0.63396 0.97745 0.73769
 N1674 N 0.64563 0.95988 0.73923
 C1675 C 0.65576 0.92682 0.75644
 N1676 N 0.66907 0.92112 0.74144
 N1677 N 0.67962 0.90284 0.74218
 C1678 C 0.67734 0.88948 0.75794
 N1679 N 0.66412 0.89521 0.77303
 N1680 N 0.65352 0.91352 0.77228
 C1681 C 0.68858 0.86891 0.75803
 N1682 N 0.68698 0.85510 0.77358
 N1683 N 0.69672 0.83627 0.77294
 C1684 C 0.70838 0.83059 0.75669
 N1685 N 0.70999 0.84448 0.74129
 N1686 N 0.70036 0.86322 0.74195
 C1687 C 0.14235 0.44689 0.25499
 N1688 N 0.12802 0.45274 0.26905
 N1689 N 0.11637 0.47017 0.26666
 C1690 C 0.11842 0.48254 0.25010
 N1691 N 0.13310 0.47682 0.23623
 N1692 N 0.14475 0.45934 0.23859
 C1693 C 0.15459 0.42703 0.25714
 N1694 N 0.16791 0.42066 0.24240
 N1695 N 0.17840 0.40239 0.24386
 C1696 C 0.17607 0.38974 0.26012
 N1697 N 0.16285 0.39614 0.27497
 N1698 N 0.15230 0.41444 0.27349
 C1699 C 0.18724 0.36914 0.26089
 N1700 N 0.18612 0.35609 0.27707
 N1701 N 0.19587 0.33724 0.27698
 C1702 C 0.20702 0.33079 0.26067
 N1703 N 0.20813 0.34394 0.24466
 N1704 N 0.19853 0.36268 0.24477
 C1705 C 0.05580 0.23167 0.84766
 N1706 N 0.03837 0.23834 0.83807
 N1707 N 0.02077 0.24222 0.84818
 C1708 C 0.01989 0.23957 0.86828
 N1709 N 0.03739 0.23274 0.87782
 N1710 N 0.05501 0.22879 0.86769
 C1711 C 0.07565 0.23042 0.83691
 N1712 N 0.09335 0.22405 0.84630
 N1713 N 0.11183 0.22545 0.83713
 C1714 C 0.11318 0.23345 0.81837
 N1715 N 0.09546 0.23949 0.80889
 N1716 N 0.07700 0.23798 0.81801
 C1717 C 0.13343 0.23677 0.80891
 N1718 N 0.13483 0.24871 0.79213
 N1719 N 0.15331 0.25227 0.78365
 C1720 C 0.17100 0.24399 0.79169
 N1721 N 0.16961 0.23205 0.80848
 N1722 N 0.15112 0.22862 0.81705
 C1723 C 0.54911 0.74747 0.33311
 N1724 N 0.53849 0.76613 0.33310
 N1725 N 0.52309 0.76968 0.34620
 C1726 C 0.51771 0.75466 0.35975
 N1727 N 0.52847 0.73599 0.35973
 N1728 N 0.54394 0.73250 0.34670
 C1729 C 0.56695 0.74423 0.31977
 N1730 N 0.58022 0.72761 0.32260
 N1731 N 0.59778 0.72589 0.31190
 C1732 C 0.60255 0.74063 0.29794
 N1733 N 0.58901 0.75696 0.29476
 N1734 N 0.57150 0.75875 0.30553
 C1735 C 0.62305 0.74039 0.28834
 N1736 N 0.62777 0.75481 0.27405
 N1737 N 0.64717 0.75610 0.26689
 C1738 C 0.66252 0.74319 0.27398
 N1739 N 0.65775 0.72862 0.28809
 N1740 N 0.63833 0.72724 0.29516
 C1741 C 0.54795 0.26372 0.17172
 N1742 N 0.53771 0.24528 0.17331
 N1743 N 0.52323 0.24040 0.16019
 C1744 C 0.51842 0.25377 0.14497
 N1745 N 0.52855 0.27239 0.14361
 N1746 N 0.54318 0.27720 0.15664
 C1747 C 0.56570 0.26752 0.18443
 N1748 N 0.57999 0.28212 0.17914
 N1749 N 0.59805 0.28304 0.18866
 C1750 C 0.60231 0.26946 0.20383
 N1751 N 0.58770 0.25539 0.20956
 N1752 N 0.56971 0.25439 0.19997
 C1753 C 0.62326 0.26780 0.21186
 N1754 N 0.62746 0.25378 0.22666
 N1755 N 0.64699 0.25037 0.23252
 C1756 C 0.66299 0.26065 0.22358
 N1757 N 0.65879 0.27483 0.20889
 N1758 N 0.63923 0.27829 0.20307
 C1759 C 0.04857 0.76011 0.66983
 N1760 N 0.03910 0.74123 0.67107
 N1761 N 0.02481 0.73603 0.65788
 C1762 C 0.01943 0.74952 0.64293
 N1763 N 0.02886 0.76854 0.64185
 N1764 N 0.04331 0.77366 0.65496
 C1765 C 0.06590 0.76453 0.68283
 N1766 N 0.07963 0.77979 0.67791
 N1767 N 0.09741 0.78144 0.68780
 C1768 C 0.10191 0.76797 0.70299
 N1769 N 0.08782 0.75323 0.70836
 N1770 N 0.07012 0.75149 0.69840
 C1771 C 0.12278 0.76704 0.71127
 N1772 N 0.12729 0.75310 0.72606
 N1773 N 0.14689 0.75016 0.73194
 C1774 C 0.16263 0.76081 0.72299
 N1775 N 0.15811 0.77494 0.70835
 N1776 N 0.13848 0.77795 0.70253
 C1777 C 0.94665 0.72870 0.65835
 N1778 N 0.94903 0.72457 0.63864
 N1779 N 0.96690 0.72884 0.62925
 C1780 C 0.98298 0.73744 0.63924
 N1781 N 0.98048 0.74149 0.65899
 N1782 N 0.96267 0.73719 0.66836
 C1783 C 0.92653 0.72629 0.66830
 N1784 N 0.92399 0.73280 0.68739
 N1785 N 0.90516 0.73312 0.69594
 C1786 C 0.88826 0.72692 0.68568
 N1787 N 0.89084 0.71994 0.66672
 N1788 N 0.90970 0.71967 0.65814
 C1789 C 0.86749 0.72955 0.69439
 N1790 N 0.85041 0.72301 0.68456
 N1791 N 0.83137 0.72657 0.69213
 C1792 C 0.82883 0.73699 0.70961
 N1793 N 0.84592 0.74349 0.71942
 N1794 N 0.86494 0.73985 0.71191
 C1795 C 0.44506 0.23338 0.15880
 N1796 N 0.44783 0.22944 0.13910
 N1797 N 0.46594 0.23368 0.13011
 C1798 C 0.48186 0.24206 0.14052
 N1799 N 0.47895 0.24595 0.16023
 N1800 N 0.46091 0.24169 0.16920
 C1801 C 0.42480 0.23078 0.16844
 N1802 N 0.42209 0.23688 0.18761
 N1803 N 0.40322 0.23689 0.19604
 C1804 C 0.38643 0.23074 0.18559
 N1805 N 0.38915 0.22416 0.16652
 N1806 N 0.40808 0.22423 0.15804
 C1807 C 0.36567 0.23304 0.19442
 N1808 N 0.34856 0.22573 0.18514
 N1809 N 0.32960 0.22882 0.19312
 C1810 C 0.32723 0.23957 0.21045
 N1811 N 0.34435 0.24687 0.21965
 N1812 N 0.36325 0.24365 0.21177
 C1813 C 0.44364 0.77234 0.34485
 N1814 N 0.46115 0.76710 0.33435
 N1815 N 0.47915 0.76378 0.34360
 C1816 C 0.48035 0.76557 0.36371
 N1817 N 0.46279 0.77111 0.37417
 N1818 N 0.44476 0.77448 0.36490
 C1819 C 0.42352 0.77272 0.33501
 N1820 N 0.40572 0.77763 0.34527
 N1821 N 0.38718 0.77541 0.33684
 C1822 C 0.38589 0.76797 0.31799
 N1823 N 0.40370 0.76336 0.30766
 N1824 N 0.42221 0.76571 0.31603
 C1825 C 0.36572 0.76398 0.30918
 N1826 N 0.36467 0.75263 0.29218
 N1827 N 0.34630 0.74877 0.28407
 C1828 C 0.32838 0.75614 0.29271
 N1829 N 0.32942 0.76745 0.30976
 N1830 N 0.34780 0.77118 0.31796
 C1831 C 0.94788 0.25539 0.84385
 N1832 N 0.95293 0.27040 0.85715
 N1833 N 0.96993 0.26806 0.86823
 C1834 C 0.98243 0.25061 0.86641
 N1835 N 0.97722 0.23562 0.85309
 N1836 N 0.96033 0.23802 0.84195
 C1837 C 0.92844 0.25684 0.83289
 N1838 N 0.92414 0.24206 0.81912
 N1839 N 0.90567 0.24204 0.81031
 C1840 C 0.89084 0.25672 0.81509
 N1841 N 0.89520 0.27170 0.82869
 N1842 N 0.91374 0.27176 0.83746
 C1843 C 0.87023 0.25566 0.80632
 N1844 N 0.85448 0.26878 0.81241
 N1845 N 0.83552 0.26724 0.80467
 C1846 C 0.83174 0.25249 0.79067
 N1847 N 0.84751 0.23941 0.78461
 N1848 N 0.86641 0.24091 0.79237
 C1849 C 0.57224 1.00491 0.69551
 N1850 N 0.59279 0.99932 0.69586
 N1851 N 0.60284 0.99743 0.71304
 C1852 C 0.59280 1.00096 0.73070
 N1853 N 0.57208 1.00630 0.73033
 N1854 N 0.56196 1.00812 0.71309
 C1855 C 0.56205 1.00871 0.67620
 N1856 N 0.54110 1.01238 0.67474
 N1857 N 0.53242 1.01615 0.65701
 C1858 C 0.54446 1.01664 0.64017
 N1859 N 0.56534 1.01306 0.64175
 N1860 N 0.57395 1.00917 0.65935
 C1861 C 0.53557 1.01999 0.62020
 N1862 N 0.54881 1.02136 0.60436
 N1863 N 0.54157 1.02220 0.58591
 C1864 C 0.52075 1.02185 0.58240
 N1865 N 0.50731 1.02102 0.59825
 N1866 N 0.51461 1.02017 0.61686
 C1867 C 0.07261 0.50252 1.19190
 N1868 N 0.06193 0.50642 1.20913
 N1869 N 0.07167 0.50548 1.22661
 C1870 C 0.09243 0.50041 1.22761
 N1871 N 0.10293 0.49630 1.21030
 N1872 N 0.09323 0.49727 1.19287
 C1873 C 0.06272 0.50502 1.17228
 N1874 N 0.07475 0.50345 1.15558
 N1875 N 0.06648 0.50626 1.13767
 C1876 C 0.04580 0.51076 1.13561
 N1877 N 0.03360 0.51229 1.15230
 N1878 N 0.04195 0.50956 1.17034
 C1879 C 0.03742 0.51335 1.11534
 N1880 N 0.01658 0.51527 1.11156
 N1881 N 0.00973 0.51602 1.09277
 C1882 C 0.02355 0.51495 1.07719
 N1883 N 0.04425 0.51344 1.08116
 N1884 N 0.05103 0.51271 1.09976
 C1885 C -0.07229 -0.00325 1.19877
 N1886 N -0.06220 -0.00647 1.21624
 N1887 N -0.07256 -0.00498 1.23359
 C1888 C -0.09337 0.00003 1.23419
 N1889 N -0.10324 0.00358 1.21663
 N1890 N -0.09293 0.00203 1.19934
 C1891 C -0.06179 -0.00684 1.17937
 N1892 N -0.07342 -0.00727 1.16264
 N1893 N -0.06454 -0.01114 1.14500
 C1894 C -0.04363 -0.01473 1.14327
 N1895 N -0.03185 -0.01425 1.16000
 N1896 N -0.04081 -0.01050 1.17777
 C1897 C -0.03443 -0.01814 1.12327
 N1898 N -0.01342 -0.01811 1.11971
 N1899 N -0.00585 -0.01895 1.10103
 C1900 C -0.01906 -0.02000 1.08534
 N1901 N -0.03992 -0.02058 1.08908
 N1902 N -0.04743 -0.01975 1.10759
 C1903 C 0.43102 0.50190 0.69710
 N1904 N 0.41660 0.51730 0.70120
 N1905 N 0.40534 0.51687 0.71803
 C1906 C 0.40796 0.50096 0.73147
 N1907 N 0.42268 0.48574 0.72746
 N1908 N 0.43397 0.48619 0.71063
 C1909 C 0.44219 0.50171 0.67775
 N1910 N 0.45654 0.48636 0.67308
 N1911 N 0.46553 0.48570 0.65500
 C1912 C 0.46040 0.50034 0.64093
 N1913 N 0.44622 0.51571 0.64573
 N1914 N 0.43733 0.51642 0.66375
 C1915 C 0.46862 0.49928 0.62033
 N1916 N 0.45964 0.51181 0.60635
 N1917 N 0.46591 0.51088 0.58745
 C1918 C 0.48155 0.49750 0.58160
 N1919 N 0.49086 0.48499 0.59559
 N1920 N 0.48441 0.48580 0.61465
 C1921 C 0.43371 0.49605 -0.19944
 N1922 N 0.42037 0.48018 -0.20317
 N1923 N 0.40817 0.48080 -0.21914
 C1924 C 0.40877 0.49738 -0.23206
 N1925 N 0.42250 0.51303 -0.22848
 N1926 N 0.43465 0.51244 -0.21248
 C1927 C 0.44602 0.49595 -0.18099
 N1928 N 0.45776 0.51271 -0.17591
 N1929 N 0.46768 0.51302 -0.15850
 C1930 C 0.46623 0.49652 -0.14558
 N1931 N 0.45470 0.47972 -0.15083
 N1932 N 0.44480 0.47942 -0.16816
 C1933 C 0.47533 0.49710 -0.12550
 N1934 N 0.47111 0.48124 -0.11257
 N1935 N 0.47733 0.48206 -0.09379
 C1936 C 0.48823 0.49868 -0.08708
 N1937 N 0.49294 0.51448 -0.10007
 N1938 N 0.48655 0.51371 -0.11898
 C1939 C -0.06748 0.99545 0.30449
 N1940 N -0.08070 0.97949 0.30066
 N1941 N -0.09257 0.97989 0.28446
 C1942 C -0.09172 0.99630 0.27137
 N1943 N -0.07816 1.01207 0.27508
 N1944 N -0.06633 1.01169 0.29130
 C1945 C -0.05557 0.99560 0.32318
 N1946 N -0.04387 1.01240 0.32828
 N1947 N -0.03432 1.01292 0.34587
 C1948 C -0.03611 0.99663 0.35899
 N1949 N -0.04760 0.97980 0.35373
 N1950 N -0.05712 0.97928 0.33622
 C1951 C -0.02736 0.99740 0.37922
 N1952 N -0.03209 0.98182 0.39230
 N1953 N -0.02603 0.98274 0.41113
 C1954 C -0.01481 0.99916 0.41777
 N1955 N -0.00961 1.01469 0.40464
 N1956 N -0.01584 1.01383 0.38568
 C1957 C 0.06401 0.50578 0.29766
 N1958 N 0.07758 0.52151 0.29365
 N1959 N 0.08988 0.52085 0.27749
 C1960 C 0.08917 0.50440 0.26465
 N1961 N 0.07519 0.48891 0.26849
 N1962 N 0.06290 0.48955 0.28467
 C1963 C 0.05209 0.50564 0.31658
 N1964 N 0.03962 0.48928 0.32171
 N1965 N 0.03042 0.48847 0.33968
 C1966 C 0.03343 0.50399 0.35315
 N1967 N 0.04565 0.52042 0.34786
 N1968 N 0.05477 0.52125 0.32995
 C1969 C 0.02549 0.50253 0.37380
 N1970 N 0.03287 0.51602 0.38747
 N1971 N 0.02739 0.51428 0.40655
 C1972 C 0.01414 0.49911 0.41283
 N1973 N 0.00634 0.48571 0.39916
 N1974 N 0.01203 0.48734 0.37995
 C1975 C 0.56707 0.00503 -0.19804
 N1976 N 0.58067 0.02068 -0.20224
 N1977 N 0.59227 0.02029 -0.21886
 C1978 C 0.59082 0.00420 -0.23202
 N1979 N 0.57682 -0.01123 -0.22798
 N1980 N 0.56521 -0.01085 -0.21133
 C1981 C 0.55588 0.00467 -0.17870
 N1982 N 0.54306 -0.01139 -0.17349
 N1983 N 0.53441 -0.01229 -0.15528
 C1984 C 0.53834 0.00282 -0.14163
 N1985 N 0.55093 0.01894 -0.14699
 N1986 N 0.55950 0.01987 -0.16513
 C1987 C 0.53076 0.00139 -0.12082
 N1988 N 0.53884 0.01449 -0.10718
 N1989 N 0.53339 0.01301 -0.08808
 C1990 C 0.51949 -0.00152 -0.08170
 N1991 N 0.51104 -0.01456 -0.09533
 N1992 N 0.51669 -0.01319 -0.11458
 C1993 C 0.69285 0.60575 -0.00414
 N1994 N 0.69540 0.62042 0.01024
 N1995 N 0.71312 0.63106 0.01142
 C1996 C 0.72926 0.62728 -0.00154
 N1997 N 0.72673 0.61237 -0.01579
 N1998 N 0.70892 0.60186 -0.01709
 C1999 C 0.67282 0.59465 -0.00575
 N2000 N 0.66826 0.58311 -0.02212
 N2001 N 0.64993 0.57347 -0.02349
 C2002 C 0.63551 0.57493 -0.00849
 N2003 N 0.64015 0.58641 0.00785
 N2004 N 0.65835 0.59615 0.00915
 C2005 C 0.61533 0.56395 -0.00928
 N2006 N 0.60355 0.56229 0.00756
 N2007 N 0.58547 0.55229 0.00746
 C2008 C 0.57818 0.54366 -0.00951
 N2009 N 0.58984 0.54542 -0.02652
 N2010 N 0.60814 0.55533 -0.02638
 C2011 C 0.19070 1.10532 0.49814
 N2012 N 0.20258 1.10462 0.51481
 N2013 N 0.21988 1.11599 0.51604
 C2014 C 0.22597 1.12870 0.50070
 N2015 N 0.21416 1.12907 0.48394
 N2016 N 0.19693 1.11768 0.48269
 C2017 C 0.17114 1.09329 0.49694
 N2018 N 0.15943 1.09385 0.48015
 N2019 N 0.14152 1.08344 0.47925
 C2020 C 0.13458 1.07207 0.49515
 N2021 N 0.14634 1.07147 0.51190
 N2022 N 0.16424 1.08184 0.51278
 C2023 C 0.11444 1.06095 0.49470
 N2024 N 0.10727 1.05125 0.51142
 N2025 N 0.08897 1.04161 0.51154
 C2026 C 0.07701 1.04113 0.49496
 N2027 N 0.08419 1.05072 0.47810
 N2028 N 0.10256 1.06048 0.47799
 C2029 C 0.20212 -0.10233 1.00877
 N2030 N 0.20709 -0.11711 1.02270
 N2031 N 0.22415 -0.12928 1.02056
 C2032 C 0.23701 -0.12734 1.00434
 N2033 N 0.23212 -0.11231 0.99052
 N2034 N 0.21503 -0.10011 0.99267
 C2035 C 0.18279 -0.08934 1.01089
 N2036 N 0.17766 -0.07466 0.99689
 N2037 N 0.15991 -0.06341 0.99849
 C2038 C 0.14656 -0.06635 1.01414
 N2039 N 0.15173 -0.08096 1.02821
 N2040 N 0.16950 -0.09222 1.02662
 C2041 C 0.12646 -0.05447 1.01516
 N2042 N 0.11238 -0.05761 1.03022
 N2043 N 0.09379 -0.04763 1.03026
 C2044 C 0.08862 -0.03410 1.01524
 N2045 N 0.10282 -0.03085 1.00037
 N2046 N 0.12134 -0.04077 1.00034
 C2047 C 0.69747 0.39914 0.50656
 N2048 N 0.70246 0.38541 0.52142
 N2049 N 0.71952 0.37311 0.52003
 C2050 C 0.73234 0.37388 0.50369
 N2051 N 0.72747 0.38792 0.48898
 N2052 N 0.71038 0.40023 0.49036
 C2053 C 0.67807 0.41212 0.50774
 N2054 N 0.67253 0.42503 0.49241
 N2055 N 0.65464 0.43614 0.49310
 C2056 C 0.64156 0.43485 0.50917
 N2057 N 0.64716 0.42205 0.52459
 N2058 N 0.66505 0.41090 0.52388
 C2059 C 0.62133 0.44650 0.50926
 N2060 N 0.60788 0.44565 0.52512
 N2061 N 0.58924 0.45551 0.52454
 C2062 C 0.58337 0.46657 0.50805
 N2063 N 0.59691 0.46749 0.49232
 N2064 N 0.61549 0.45773 0.49293
 C2065 C -0.19476 0.39816 0.49567
 N2066 N -0.19989 0.38461 0.48103
 N2067 N -0.21663 0.37253 0.48295
 C2068 C -0.22898 0.37335 0.49962
 N2069 N -0.22395 0.38718 0.51415
 N2070 N -0.20717 0.39926 0.51225
 C2071 C -0.17581 0.41104 0.49373
 N2072 N -0.17000 0.42379 0.50879
 N2073 N -0.15254 0.43488 0.50731
 C2074 C -0.14018 0.43374 0.49072
 N2075 N -0.14604 0.42109 0.47558
 N2076 N -0.16351 0.40997 0.47707
 C2077 C -0.12033 0.44531 0.48976
 N2078 N -0.10760 0.44461 0.47335
 N2079 N -0.08917 0.45423 0.47321
 C2080 C -0.08280 0.46490 0.48950
 N2081 N -0.09566 0.46571 0.50576
 N2082 N -0.11403 0.45620 0.50587
 C2083 C 0.31014 -0.10288 -0.00272
 N2084 N 0.29751 -0.10226 0.01373
 N2085 N 0.28064 -0.11428 0.01505
 C2086 C 0.27572 -0.12757 0.00003
 N2087 N 0.28830 -0.12791 -0.01650
 N2088 N 0.30513 -0.11589 -0.01783
 C2089 C 0.32920 -0.09008 -0.00398
 N2090 N 0.34172 -0.09062 -0.02051
 N2091 N 0.35926 -0.07955 -0.02141
 C2092 C 0.36497 -0.06749 -0.00580
 N2093 N 0.35240 -0.06689 0.01068
 N2094 N 0.33487 -0.07793 0.01157
 C2095 C 0.38482 -0.05589 -0.00619
 N2096 N 0.39095 -0.04552 0.01030
 N2097 N 0.40923 -0.03585 0.01059
 C2098 C 0.42217 -0.03598 -0.00562
 N2099 N 0.41599 -0.04615 -0.02227
 N2100 N 0.39765 -0.05593 -0.02253
 C2101 C 0.29942 1.10237 0.50899
 N2102 N 0.29403 1.11665 0.52319
 N2103 N 0.27705 1.12892 0.52119
 C2104 C 0.26469 1.12757 0.50488
 N2105 N 0.26995 1.11298 0.49081
 N2106 N 0.28697 1.10068 0.49281
 C2107 C 0.31876 1.08940 0.51090
 N2108 N 0.32424 1.07506 0.49675
 N2109 N 0.34204 1.06391 0.49815
 C2110 C 0.35510 1.06662 0.51372
 N2111 N 0.34958 1.08088 0.52794
 N2112 N 0.33175 1.09203 0.52656
 C2113 C 0.37529 1.05491 0.51449
 N2114 N 0.38915 1.05794 0.52941
 N2115 N 0.40786 1.04819 0.52919
 C2116 C 0.41338 1.03498 0.51405
 N2117 N 0.39939 1.03182 0.49934
 N2118 N 0.38076 1.04151 0.49956
 C2119 C -0.19503 0.60394 1.00129
 N2120 N -0.21031 0.60183 1.01535
 N2121 N -0.22816 0.61296 1.01406
 C2122 C -0.23147 0.62678 0.99874
 N2123 N -0.21607 0.62879 0.98472
 N2124 N -0.19836 0.61751 0.98588
 C2125 C -0.17504 0.59201 1.00259
 N2126 N -0.16234 0.59045 0.98631
 N2127 N -0.14412 0.58004 0.98724
 C2128 C -0.13767 0.57095 1.00453
 N2129 N -0.15029 0.57256 1.02092
 N2130 N -0.16869 0.58283 1.01994
 C2131 C -0.11737 0.55947 1.00495
 N2132 N -0.10738 0.55469 1.02227
 N2133 N -0.08863 0.54497 1.02199
 C2134 C -0.07933 0.53950 1.00437
 N2135 N -0.08948 0.54416 0.98720
 N2136 N -0.10801 0.55398 0.98747
 C2137 C 0.02294 0.68960 0.59620
 N2138 N 0.01671 0.70729 0.58638
 N2139 N 0.01068 0.72435 0.59642
 C2140 C 0.01058 0.72439 0.61667
 N2141 N 0.01682 0.70659 0.62645
 N2142 N 0.02288 0.68950 0.61640
 C2143 C 0.02702 0.67027 0.58518
 N2144 N 0.03199 0.65208 0.59489
 N2145 N 0.03265 0.63388 0.58516
 C2146 C 0.02827 0.63331 0.56544
 N2147 N 0.02386 0.65157 0.55565
 N2148 N 0.02329 0.66975 0.56535
 C2149 C 0.02549 0.61329 0.55549
 N2150 N 0.01579 0.61289 0.53765
 N2151 N 0.01113 0.59465 0.52934
 C2152 C 0.01599 0.57621 0.53860
 N2153 N 0.02597 0.57657 0.55633
 N2154 N 0.03049 0.59484 0.56473
 C2155 C 0.52213 0.19357 0.09856
 N2156 N 0.51580 0.21109 0.08855
 N2157 N 0.50978 0.22828 0.09841
 C2158 C 0.50982 0.22860 0.11865
 N2159 N 0.51612 0.21095 0.12863
 N2160 N 0.52218 0.19374 0.11876
 C2161 C 0.52629 0.17413 0.08775
 N2162 N 0.53168 0.15618 0.09764
 N2163 N 0.53257 0.13785 0.08812
 C2164 C 0.52799 0.13693 0.06846
 N2165 N 0.52312 0.15496 0.05850
 N2166 N 0.52234 0.17327 0.06798
 C2167 C 0.52565 0.11671 0.05878
 N2168 N 0.51595 0.11576 0.04097
 N2169 N 0.51181 0.09726 0.03290
 C2170 C 0.51720 0.07910 0.04242
 N2171 N 0.52716 0.08002 0.06012
 N2172 N 0.53117 0.09855 0.06826
 C2173 C -0.01493 0.20047 0.92306
 N2174 N 0.00358 0.21044 0.92382
 N2175 N 0.00851 0.22485 0.91020
 C2176 C -0.00489 0.22985 0.89528
 N2177 N -0.02352 0.21990 0.89468
 N2178 N -0.02837 0.20534 0.90821
 C2179 C -0.01907 0.18302 0.93658
 N2180 N -0.03367 0.16866 0.93202
 N2181 N -0.03497 0.15078 0.94238
 C2182 C -0.02183 0.14682 0.95771
 N2183 N -0.00778 0.16156 0.96273
 N2184 N -0.00638 0.17934 0.95229
 C2185 C -0.02020 0.12579 0.96631
 N2186 N -0.00687 0.12191 0.98150
 N2187 N -0.00280 0.10225 0.98741
 C2188 C -0.01168 0.08582 0.97810
 N2189 N -0.02529 0.08969 0.96312
 N2190 N -0.02944 0.10937 0.95729
 C2191 C 0.48742 0.70263 0.40593
 N2192 N 0.48205 0.70480 0.38654
 N2193 N 0.48592 0.72262 0.37673
 C2194 C 0.49528 0.73888 0.38598
 N2195 N 0.50075 0.73652 0.40538
 N2196 N 0.49688 0.71874 0.41516
 C2197 C 0.48449 0.68276 0.41643
 N2198 N 0.49132 0.68046 0.43537
 N2199 N 0.49044 0.66187 0.44451
 C2200 C 0.48266 0.64498 0.43504
 N2201 N 0.47545 0.64734 0.41621
 N2202 N 0.47636 0.66596 0.40704
 C2203 C 0.48387 0.62428 0.44442
 N2204 N 0.47651 0.60706 0.43511
 N2205 N 0.47912 0.58798 0.44316
 C2206 C 0.48933 0.58556 0.46066
 N2207 N 0.49652 0.60281 0.47000
 N2208 N 0.49384 0.62184 0.46201
 C2209 C 0.51672 0.80549 0.41580
 N2210 N 0.49832 0.79541 0.41763
 N2211 N 0.49304 0.78104 0.40439
 C2212 C 0.50597 0.77616 0.38883
 N2213 N 0.52446 0.78629 0.38708
 N2214 N 0.52965 0.80085 0.40022
 C2215 C 0.52138 0.82246 0.42941
 N2216 N 0.53563 0.83716 0.42430
 N2217 N 0.53744 0.85447 0.43520
 C2218 C 0.52520 0.85749 0.45162
 N2219 N 0.51151 0.84241 0.45710
 N2220 N 0.50960 0.82520 0.44615
 C2221 C 0.52396 0.87803 0.46110
 N2222 N 0.51114 0.88112 0.47710
 N2223 N 0.50722 0.90047 0.48383
 C2224 C 0.51577 0.91736 0.47459
 N2225 N 0.52892 0.91425 0.45884
 N2226 N 0.53292 0.89489 0.45218
 C2227 C 0.01658 0.30326 0.90846
 N2228 N 0.01945 0.30102 0.88853
 N2229 N 0.01441 0.28317 0.87965
 C2230 C 0.00628 0.26696 0.89038
 N2231 N 0.00327 0.26940 0.91031
 N2232 N 0.00832 0.28721 0.91918
 C2233 C 0.02088 0.32312 0.91814
 N2234 N 0.01647 0.32550 0.93781
 N2235 N 0.01835 0.34415 0.94641
 C2236 C 0.02477 0.36102 0.93564
 N2237 N 0.02965 0.35857 0.91605
 N2238 N 0.02774 0.33989 0.90742
 C2239 C 0.02393 0.38185 0.94453
 N2240 N 0.02984 0.39909 0.93397
 N2241 N 0.02695 0.41829 0.94151
 C2242 C 0.01784 0.42080 0.95973
 N2243 N 0.01217 0.40355 0.97034
 N2244 N 0.01516 0.38440 0.96286
 C2245 C 0.49277 0.30059 0.09237
 N2246 N 0.51050 0.28869 0.09105
 N2247 N 0.51313 0.27188 0.10268
 C2248 C 0.49802 0.26618 0.11592
 N2249 N 0.48020 0.27813 0.11718
 N2250 N 0.47764 0.29509 0.10563
 C2251 C 0.49107 0.32002 0.08090
 N2252 N 0.47608 0.33472 0.08528
 N2253 N 0.47611 0.35341 0.07618
 C2254 C 0.49111 0.35792 0.06242
 N2255 N 0.50581 0.34306 0.05779
 N2256 N 0.50583 0.32445 0.06692
 C2257 C 0.49244 0.37882 0.05356
 N2258 N 0.50752 0.38278 0.03976
 N2259 N 0.50953 0.40200 0.03214
 C2260 C 0.49665 0.41795 0.03820
 N2261 N 0.48154 0.41402 0.05202
 N2262 N 0.47950 0.39474 0.05963
 C2263 C -0.00775 0.79705 0.59196
 N2264 N -0.02247 0.79114 0.60547
 N2265 N -0.01956 0.77385 0.61648
 C2266 C -0.00180 0.76192 0.61442
 N2267 N 0.01289 0.76800 0.60089
 N2268 N 0.00991 0.78515 0.58980
 C2269 C -0.00969 0.81696 0.58123
 N2270 N 0.00474 0.82194 0.56711
 N2271 N 0.00457 0.84093 0.55869
 C2272 C -0.00994 0.85564 0.56422
 N2273 N -0.02461 0.85060 0.57813
 N2274 N -0.02449 0.83153 0.58651
 C2275 C -0.00878 0.87687 0.55603
 N2276 N -0.02174 0.89255 0.56265
 N2277 N -0.01989 0.91207 0.55553
 C2278 C -0.00495 0.91649 0.54167
 N2279 N 0.00795 0.90079 0.53509
 N2280 N 0.00612 0.88134 0.54220
 C2281 C 0.24860 0.31830 0.05104
 N2282 N 0.26446 0.31516 0.03774
 N2283 N 0.26536 0.32648 0.02096
 C2284 C 0.25051 0.34145 0.01678
 N2285 N 0.23445 0.34428 0.03000
 N2286 N 0.23355 0.33297 0.04679
 C2287 C 0.24832 0.30702 0.07031
 N2288 N 0.23337 0.31180 0.08412
 N2289 N 0.23372 0.30281 0.10208
 C2290 C 0.24897 0.28862 0.10699
 N2291 N 0.26384 0.28358 0.09311
 N2292 N 0.26352 0.29265 0.07509
 C2293 C 0.24976 0.28035 0.12755
 N2294 N 0.26331 0.26467 0.13321
 N2295 N 0.26406 0.25827 0.15225
 C2296 C 0.25142 0.26753 0.16624
 N2297 N 0.23794 0.28306 0.16042
 N2298 N 0.23707 0.28928 0.14152
 C2299 C 0.74940 0.82050 0.54652
 N2300 N 0.76494 0.81847 0.53268
 N2301 N 0.76456 0.82997 0.51596
 C2302 C 0.74860 0.84393 0.51236
 N2303 N 0.73291 0.84563 0.52612
 N2304 N 0.73333 0.83420 0.54283
 C2305 C 0.75045 0.80944 0.56589
 N2306 N 0.73657 0.81471 0.58052
 N2307 N 0.73802 0.80609 0.59857
 C2308 C 0.75330 0.79170 0.60279
 N2309 N 0.76710 0.78610 0.58810
 N2310 N 0.76574 0.79489 0.56998
 C2311 C 0.75513 0.78381 0.62344
 N2312 N 0.76654 0.76625 0.62844
 N2313 N 0.76741 0.75966 0.64744
 C2314 C 0.75712 0.77063 0.66204
 N2315 N 0.74596 0.78815 0.65688
 N2316 N 0.74492 0.79455 0.63805
 C2317 C 0.24421 0.67479 0.55625
 N2318 N 0.24980 0.65409 0.55536
 N2319 N 0.25156 0.64428 0.53793
 C2320 C 0.24790 0.65473 0.52054
 N2321 N 0.24252 0.67559 0.52147
 N2322 N 0.24082 0.68545 0.53895
 C2323 C 0.24075 0.68482 0.57580
 N2324 N 0.23645 0.70582 0.57756
 N2325 N 0.23299 0.71440 0.59548
 C2326 C 0.23348 0.70222 0.61222
 N2327 N 0.23769 0.68129 0.61035
 N2328 N 0.24126 0.67277 0.59254
 C2329 C 0.23047 0.71108 0.63234
 N2330 N 0.23051 0.69776 0.64818
 N2331 N 0.22986 0.70513 0.66666
 C2332 C 0.22900 0.72615 0.67020
 N2333 N 0.22844 0.73964 0.65435
 N2334 N 0.22911 0.73221 0.63572
 C2335 C 0.74929 0.17510 0.05764
 N2336 N 0.75559 0.15459 0.05699
 N2337 N 0.75763 0.14460 0.03968
 C2338 C 0.75358 0.15466 0.02218
 N2339 N 0.74750 0.17535 0.02285
 N2340 N 0.74552 0.18541 0.04022
 C2341 C 0.74529 0.18512 0.07711
 N2342 N 0.74044 0.20602 0.07882
 N2343 N 0.73638 0.21449 0.09669
 C2344 C 0.73677 0.20227 0.11342
 N2345 N 0.74154 0.18145 0.11159
 N2346 N 0.74571 0.17306 0.09385
 C2347 C 0.73300 0.21094 0.13351
 N2348 N 0.73245 0.19745 0.14921
 N2349 N 0.73119 0.20460 0.16775
 C2350 C 0.73029 0.22558 0.17148
 N2351 N 0.73031 0.23925 0.15576
 N2352 N 0.73159 0.23203 0.13707
 C2353 C 0.74981 0.18106 0.95137
 N2354 N 0.73426 0.16733 0.95540
 N2355 N 0.73457 0.15543 0.97183
 C2356 C 0.75049 0.15674 0.98497
 N2357 N 0.76584 0.17085 0.98109
 N2358 N 0.76554 0.18274 0.96462
 C2359 C 0.75013 0.19275 0.93229
 N2360 N 0.76622 0.20553 0.92714
 N2361 N 0.76696 0.21476 0.90918
 C2362 C 0.75164 0.21149 0.89574
 N2363 N 0.73553 0.19892 0.90105
 N2364 N 0.73477 0.18976 0.91893
 C2365 C 0.75273 0.21982 0.87518
 N2366 N 0.73891 0.21276 0.86177
 N2367 N 0.73998 0.21884 0.84283
 C2368 C 0.75480 0.23239 0.83639
 N2369 N 0.76858 0.23983 0.84981
 N2370 N 0.76761 0.23356 0.86890
 C2371 C 0.24333 0.68295 0.45047
 N2372 N 0.22791 0.66900 0.45430
 N2373 N 0.22848 0.65669 0.47045
 C2374 C 0.24453 0.65778 0.48346
 N2375 N 0.25971 0.67213 0.47980
 N2376 N 0.25915 0.68442 0.46363
 C2377 C 0.24358 0.69493 0.43160
 N2378 N 0.25973 0.70768 0.42661
 N2379 N 0.26061 0.71701 0.40872
 C2380 C 0.24537 0.71387 0.39518
 N2381 N 0.22915 0.70137 0.40034
 N2382 N 0.22825 0.69211 0.41816
 C2383 C 0.24682 0.72208 0.37464
 N2384 N 0.23322 0.71504 0.36102
 N2385 N 0.23484 0.72082 0.34203
 C2386 C 0.25002 0.73405 0.33577
 N2387 N 0.26355 0.74151 0.34941
 N2388 N 0.26203 0.73552 0.36854
 C2389 C 0.74434 0.82464 0.43996
 N2390 N 0.74260 0.81430 0.45768
 N2391 N 0.74520 0.82450 0.47482
 C2392 C 0.74987 0.84538 0.47490
 N2393 N 0.75194 0.85547 0.45707
 N2394 N 0.74928 0.84533 0.44003
 C2395 C 0.73977 0.81442 0.42086
 N2396 N 0.73768 0.82654 0.40427
 N2397 N 0.73331 0.81794 0.38683
 C2398 C 0.73087 0.79684 0.38515
 N2399 N 0.73295 0.78458 0.40174
 N2400 N 0.73719 0.79325 0.41933
 C2401 C 0.72729 0.78797 0.36523
 N2402 N 0.72844 0.76690 0.36157
 N2403 N 0.72771 0.75970 0.34288
 C2404 C 0.72571 0.77335 0.32727
 N2405 N 0.72400 0.79427 0.33111
 N2406 N 0.72468 0.80141 0.34965
 C2407 C 0.25529 0.31478 0.94776
 N2408 N 0.27133 0.32788 0.95148
 N2409 N 0.27093 0.34025 0.96747
 C2410 C 0.25442 0.34009 0.98040
 N2411 N 0.23861 0.32657 0.97686
 N2412 N 0.23898 0.31424 0.96085
 C2413 C 0.25503 0.30257 0.92916
 N2414 N 0.23822 0.29095 0.92419
 N2415 N 0.23748 0.28137 0.90655
 C2416 C 0.25356 0.28307 0.89326
 N2417 N 0.27043 0.29444 0.89840
 N2418 N 0.27117 0.30398 0.91597
 C2419 C 0.25240 0.27462 0.87289
 N2420 N 0.26733 0.28003 0.85945
 N2421 N 0.26593 0.27438 0.84050
 C2422 C 0.24965 0.26291 0.83413
 N2423 N 0.23479 0.25702 0.84761
 N2424 N 0.23611 0.26286 0.86669
 C2425 C 0.85523 0.44432 0.75471
 N2426 N 0.85391 0.45657 0.73806
 N2427 N 0.86566 0.47362 0.73589
 C2428 C 0.87934 0.47910 0.75026
 N2429 N 0.88036 0.46693 0.76703
 N2430 N 0.86862 0.44991 0.76920
 C2431 C 0.84283 0.42499 0.75678
 N2432 N 0.84439 0.41251 0.77328
 N2433 N 0.83369 0.39468 0.77479
 C2434 C 0.82101 0.38866 0.75984
 N2435 N 0.81940 0.40121 0.74342
 N2436 N 0.83007 0.41900 0.74192
 C2437 C 0.80975 0.36853 0.76075
 N2438 N 0.79861 0.36244 0.74480
 N2439 N 0.78910 0.34398 0.74482
 C2440 C 0.79018 0.33079 0.76080
 N2441 N 0.80115 0.33691 0.77695
 N2442 N 0.81078 0.35545 0.77690
 C2443 C 0.35516 0.94342 0.25574
 N2444 N 0.36941 0.94770 0.26988
 N2445 N 0.38111 0.96481 0.26842
 C2446 C 0.37908 0.97848 0.25280
 N2447 N 0.36478 0.97412 0.23861
 N2448 N 0.35309 0.95694 0.24005
 C2449 C 0.34244 0.92425 0.25732
 N2450 N 0.32912 0.91914 0.24259
 N2451 N 0.31801 0.90159 0.24382
 C2452 C 0.31969 0.88847 0.25983
 N2453 N 0.33292 0.89363 0.27464
 N2454 N 0.34408 0.91118 0.27339
 C2455 C 0.30793 0.86864 0.26053
 N2456 N 0.30869 0.85542 0.27659
 N2457 N 0.29870 0.83709 0.27651
 C2458 C 0.28762 0.83131 0.26033
 N2459 N 0.28679 0.84463 0.24442
 N2460 N 0.29665 0.86291 0.24453
 C2461 C 0.14446 0.94895 0.74171
 N2462 N 0.12914 0.95342 0.72845
 N2463 N 0.11693 0.97051 0.73063
 C2464 C 0.11938 0.98388 0.74620
 N2465 N 0.13500 0.97951 0.75926
 N2466 N 0.14723 0.96241 0.75709
 C2467 C 0.15735 0.92949 0.73987
 N2468 N 0.17217 0.92475 0.75357
 N2469 N 0.18323 0.90679 0.75245
 C2470 C 0.17996 0.89282 0.73758
 N2471 N 0.16523 0.89761 0.72377
 N2472 N 0.15415 0.91560 0.72490
 C2473 C 0.19159 0.87249 0.73722
 N2474 N 0.18847 0.85796 0.72277
 N2475 N 0.19830 0.83919 0.72333
 C2476 C 0.21160 0.83429 0.73839
 N2477 N 0.21480 0.84892 0.75267
 N2478 N 0.20507 0.86762 0.75207
 C2479 C 0.64526 0.44815 0.24080
 N2480 N 0.63148 0.45300 0.22620
 N2481 N 0.61925 0.47018 0.22748
 C2482 C 0.62015 0.48324 0.24346
 N2483 N 0.63422 0.47849 0.25793
 N2484 N 0.64648 0.46130 0.25665
 C2485 C 0.65817 0.42863 0.23973
 N2486 N 0.67177 0.42356 0.25445
 N2487 N 0.68286 0.40558 0.25383
 C2488 C 0.68084 0.39194 0.23846
 N2489 N 0.66734 0.39706 0.22366
 N2490 N 0.65623 0.41505 0.22429
 C2491 C 0.69247 0.37160 0.23847
 N2492 N 0.69041 0.35743 0.22350
 N2493 N 0.70016 0.33864 0.22427
 C2494 C 0.71235 0.33334 0.24005
 N2495 N 0.71451 0.34761 0.25486
 N2496 N 0.70484 0.36634 0.25407
 C2497 C 0.64356 0.55689 0.25015
 N2498 N 0.64515 0.54421 0.23392
 N2499 N 0.63327 0.52722 0.23238
 C2500 C 0.61923 0.52223 0.24699
 N2501 N 0.61789 0.53490 0.26329
 N2502 N 0.62973 0.55185 0.26482
 C2503 C 0.65638 0.57593 0.25180
 N2504 N 0.65422 0.58886 0.26782
 N2505 N 0.66548 0.60629 0.26915
 C2506 C 0.67936 0.61145 0.25453
 N2507 N 0.68155 0.59848 0.23856
 N2508 N 0.67030 0.58107 0.23722
 C2509 C 0.69134 0.63111 0.25543
 N2510 N 0.70436 0.63634 0.24015
 N2511 N 0.71449 0.65448 0.24024
 C2512 C 0.71213 0.66817 0.25563
 N2513 N 0.69925 0.66289 0.27107
 N2514 N 0.68907 0.64468 0.27097
 C2515 C 0.14216 0.05804 0.75252
 N2516 N 0.12825 0.05336 0.76722
 N2517 N 0.11656 0.03627 0.76609
 C2518 C 0.11822 0.02301 0.75025
 N2519 N 0.13216 0.02777 0.73548
 N2520 N 0.14386 0.04494 0.73659
 C2521 C 0.15499 0.07711 0.75389
 N2522 N 0.16802 0.08271 0.73872
 N2523 N 0.17929 0.10013 0.73987
 C2524 C 0.17806 0.11262 0.75625
 N2525 N 0.16510 0.10698 0.77148
 N2526 N 0.15379 0.08957 0.77030
 C2527 C 0.19004 0.13230 0.75698
 N2528 N 0.18971 0.14480 0.77341
 N2529 N 0.19993 0.16299 0.77347
 C2530 C 0.21083 0.16936 0.75705
 N2531 N 0.21123 0.15675 0.74075
 N2532 N 0.20112 0.13860 0.74073
 C2533 C 0.35284 0.05227 0.24403
 N2534 N 0.36760 0.04739 0.23003
 N2535 N 0.37998 0.03042 0.23219
 C2536 C 0.37824 0.01759 0.24846
 N2537 N 0.36321 0.02239 0.26230
 N2538 N 0.35084 0.03938 0.26017
 C2539 C 0.33961 0.07149 0.24206
 N2540 N 0.32551 0.07672 0.25655
 N2541 N 0.31407 0.09442 0.25522
 C2542 C 0.31620 0.10762 0.23933
 N2543 N 0.33021 0.10235 0.22473
 N2544 N 0.34169 0.08463 0.22608
 C2545 C 0.30416 0.12772 0.23869
 N2546 N 0.30587 0.14144 0.22309
 N2547 N 0.29574 0.16006 0.22338
 C2548 C 0.28353 0.16562 0.23930
 N2549 N 0.28173 0.15177 0.25472
 N2550 N 0.29175 0.13322 0.25440
 C2551 C 0.85354 0.55259 0.74039
 N2552 N 0.86781 0.54724 0.72611
 N2553 N 0.88019 0.53029 0.72834
 C2554 C 0.87899 0.51797 0.74500
 N2555 N 0.86454 0.52329 0.75923
 N2556 N 0.85212 0.54025 0.75698
 C2557 C 0.84009 0.57163 0.73805
 N2558 N 0.82561 0.57683 0.75221
 N2559 N 0.81380 0.59424 0.75036
 C2560 C 0.81596 0.60720 0.73428
 N2561 N 0.83038 0.60197 0.72004
 N2562 N 0.84219 0.58452 0.72188
 C2563 C 0.80342 0.62697 0.73304
 N2564 N 0.80586 0.64096 0.71774
 N2565 N 0.79533 0.65937 0.71764
 C2566 C 0.78193 0.66443 0.73284
 N2567 N 0.77937 0.65028 0.74791
 N2568 N 0.78981 0.63196 0.74799
 C2569 C 0.95003 0.76161 0.16885
 N2570 N 0.96108 0.74325 0.17033
 N2571 N 0.97664 0.73897 0.15761
 C2572 C 0.98169 0.75288 0.14293
 N2573 N 0.97063 0.77131 0.14159
 N2574 N 0.95498 0.77552 0.15423
 C2575 C 0.93186 0.76539 0.18161
 N2576 N 0.91792 0.78097 0.17706
 N2577 N 0.89987 0.78265 0.18701
 C2578 C 0.89531 0.76892 0.20193
 N2579 N 0.90954 0.75376 0.20689
 N2580 N 0.92753 0.75200 0.19687
 C2581 C 0.87429 0.76834 0.21035
 N2582 N 0.86973 0.75461 0.22527
 N2583 N 0.85004 0.75194 0.23114
 C2584 C 0.83427 0.76270 0.22210
 N2585 N 0.83885 0.77668 0.20739
 N2586 N 0.85855 0.77943 0.20159
 C2587 C 0.44887 0.26624 0.66064
 N2588 N 0.46219 0.25039 0.66591
 N2589 N 0.47937 0.24642 0.65518
 C2590 C 0.48394 0.25826 0.63884
 N2591 N 0.47062 0.27427 0.63369
 N2592 N 0.45334 0.27814 0.64435
 C2593 C 0.42903 0.26879 0.67121
 N2594 N 0.41337 0.28093 0.66353
 N2595 N 0.39441 0.28094 0.67192
 C2596 C 0.39059 0.26881 0.68823
 N2597 N 0.40639 0.25711 0.69614
 N2598 N 0.42528 0.25706 0.68775
 C2599 C 0.36955 0.26664 0.69630
 N2600 N 0.36622 0.25289 0.71148
 N2601 N 0.34702 0.24962 0.71832
 C2602 C 0.33043 0.25988 0.71017
 N2603 N 0.33369 0.27375 0.69501
 N2604 N 0.35298 0.27700 0.68810
 C2605 C 0.44690 0.74079 0.83105
 N2606 N 0.45788 0.75879 0.82934
 N2607 N 0.47329 0.76265 0.84184
 C2608 C 0.47820 0.74866 0.85655
 N2609 N 0.46716 0.73062 0.85812
 N2610 N 0.45170 0.72683 0.84570
 C2611 C 0.42907 0.73728 0.81841
 N2612 N 0.41553 0.72173 0.82296
 N2613 N 0.39784 0.72005 0.81298
 C2614 C 0.39325 0.73374 0.79801
 N2615 N 0.40708 0.74890 0.79307
 N2616 N 0.42472 0.75067 0.80314
 C2617 C 0.37255 0.73416 0.78940
 N2618 N 0.36807 0.74758 0.77419
 N2619 N 0.34853 0.75004 0.76800
 C2620 C 0.33282 0.73938 0.77700
 N2621 N 0.33732 0.72573 0.79203
 N2622 N 0.35689 0.72318 0.79814
 C2623 C 0.94699 0.23181 0.32932
 N2624 N 0.95205 0.21877 0.34465
 N2625 N 0.96648 0.22425 0.35763
 C2626 C 0.97609 0.24314 0.35599
 N2627 N 0.97094 0.25611 0.34056
 N2628 N 0.95666 0.25054 0.32748
 C2629 C 0.92946 0.22720 0.31661
 N2630 N 0.92558 0.23948 0.30043
 N2631 N 0.90765 0.23798 0.29083
 C2632 C 0.89296 0.22426 0.29717
 N2633 N 0.89712 0.21147 0.31295
 N2634 N 0.91514 0.21287 0.32248
 C2635 C 0.87190 0.22603 0.28940
 N2636 N 0.85576 0.21683 0.29921
 N2637 N 0.83614 0.22108 0.29397
 C2638 C 0.83208 0.23478 0.27886
 N2639 N 0.84823 0.24365 0.26882
 N2640 N 0.86782 0.23947 0.27411
 C2641 C 0.04891 0.26485 0.34128
 N2642 N 0.04647 0.26833 0.36109
 N2643 N 0.02860 0.26365 0.37031
 C2644 C 0.01260 0.25526 0.36004
 N2645 N 0.01520 0.25176 0.34021
 N2646 N 0.03301 0.25646 0.33101
 C2647 C 0.06888 0.26830 0.33132
 N2648 N 0.07130 0.26322 0.31184
 N2649 N 0.08998 0.26407 0.30308
 C2650 C 0.10686 0.27007 0.31349
 N2651 N 0.10439 0.27563 0.33288
 N2652 N 0.08567 0.27475 0.34168
 C2653 C 0.12755 0.26830 0.30440
 N2654 N 0.14479 0.27427 0.31434
 N2655 N 0.16375 0.27097 0.30646
 C2656 C 0.16602 0.26136 0.28853
 N2657 N 0.14877 0.25554 0.27858
 N2658 N 0.12986 0.25895 0.28639
 C2659 C 0.54819 0.76587 0.83279
 N2660 N 0.53605 0.74907 0.82924
 N2661 N 0.51989 0.74487 0.84113
 C2662 C 0.51525 0.75736 0.85699
 N2663 N 0.52744 0.77425 0.86046
 N2664 N 0.54372 0.77834 0.84865
 C2665 C 0.56676 0.76931 0.82065
 N2666 N 0.58186 0.78236 0.82694
 N2667 N 0.59999 0.78338 0.81711
 C2668 C 0.60349 0.77151 0.80062
 N2669 N 0.58815 0.75895 0.79404
 N2670 N 0.57009 0.75783 0.80392
 C2671 C 0.62420 0.77000 0.79160
 N2672 N 0.62745 0.75763 0.77543
 N2673 N 0.64669 0.75405 0.76846
 C2674 C 0.66332 0.76254 0.77755
 N2675 N 0.66008 0.77516 0.79358
 N2676 N 0.64080 0.77878 0.80054
 C2677 C 0.55421 0.24017 0.66348
 N2678 N 0.54149 0.25714 0.66665
 N2679 N 0.52523 0.26087 0.65495
 C2680 C 0.52106 0.24771 0.63968
 N2681 N 0.53372 0.23057 0.63668
 N2682 N 0.55009 0.22692 0.64832
 C2683 C 0.57316 0.23756 0.67501
 N2684 N 0.58841 0.22373 0.66916
 N2685 N 0.60679 0.22331 0.67823
 C2686 C 0.61042 0.23667 0.69346
 N2687 N 0.59499 0.25013 0.69958
 N2688 N 0.57668 0.25060 0.69047
 C2689 C 0.63111 0.23806 0.70199
 N2690 N 0.63447 0.25189 0.71687
 N2691 N 0.65358 0.25439 0.72386
 C2692 C 0.67000 0.24330 0.71607
 N2693 N 0.66665 0.22937 0.70124
 N2694 N 0.64749 0.22684 0.69425
 C2695 C 0.05309 0.73433 0.16368
 N2696 N 0.04876 0.72219 0.14776
 N2697 N 0.03181 0.72620 0.13701
 C2698 C 0.01873 0.74261 0.14169
 N2699 N 0.02316 0.75468 0.15767
 N2700 N 0.03999 0.75057 0.16849
 C2701 C 0.07257 0.73155 0.17436
 N2702 N 0.07592 0.74319 0.19082
 N2703 N 0.09457 0.74299 0.19926
 C2704 C 0.11052 0.73124 0.19148
 N2705 N 0.10709 0.71919 0.17525
 N2706 N 0.08836 0.71933 0.16682
 C2707 C 0.13136 0.73337 0.19949
 N2708 N 0.14819 0.72347 0.19101
 N2709 N 0.16733 0.72683 0.19776
 C2710 C 0.17017 0.74036 0.21305
 N2711 N 0.15332 0.75013 0.22150
 N2712 N 0.13427 0.74676 0.21480
   
