data_POSCAR
  _audit_creation_date              2014-09-24
  _audit_creation_method            'ToBaCCo'
  _symmetry_space_group_name_H-M    'P1'
  _symmetry_Int_Tables_number       1
  _symmetry_cell_setting            triclinic
  loop_
  _symmetry_equiv_pos_as_xyz
 x,y,z
_cell_length_a 52.6443
_cell_length_b 52.6579
_cell_length_c 52.8013
_cell_angle_alpha 90.466600
_cell_angle_beta 89.212500
_cell_angle_gamma 89.747500
loop_
  _atom_site_label
  _atom_site_type_symbol
  _atom_site_fract_x
  _atom_site_fract_y
  _atom_site_fract_z
C1 C 0.08238 0.02005 0.21883
 H2 H 0.07847 0.03305 0.23438
 C3 C 0.07012 0.02319 0.19570
 H4 H 0.05646 0.03842 0.19351
 C5 C 0.10607 -0.01477 0.20204
 H6 H 0.12078 -0.02891 0.20419
 C7 C 0.09438 -0.01223 0.17865
 H8 H 0.09974 -0.02480 0.16312
 N9 N 0.10014 0.00143 0.22148
 C10 C 0.11575 0.00300 0.30259
 H11 H 0.13558 0.00813 0.30107
 C12 C 0.10463 -0.00048 0.32636
 H13 H 0.11578 0.00290 0.34313
 C14 C 0.07720 -0.00748 0.28241
 H15 H 0.06683 -0.01064 0.26513
 C16 C 0.06552 -0.01206 0.30593
 H17 H 0.04599 -0.01840 0.30666
 Zn18 Zn 0.12078 0.00129 0.25057
 N19 N 0.10196 -0.00028 0.28124
 C20 C 0.13395 0.05103 0.26546
 N21 N 0.14005 0.03158 0.24933
 C22 C 0.15746 0.03465 0.23030
 C23 C 0.16976 0.05793 0.22719
 C24 C 0.14569 0.07458 0.26296
 C25 C 0.12713 -0.05012 0.25184
 C26 C 0.13907 -0.07373 0.25182
 C27 C 0.17955 -0.05247 0.24934
 C28 C 0.16671 -0.02912 0.24953
 N29 N 0.14091 -0.02847 0.25024
 H30 H 0.11924 0.04870 0.27968
 H31 H 0.16130 0.01920 0.21715
 H32 H 0.18338 0.06033 0.21185
 H33 H 0.14045 0.09001 0.27571
 H34 H 0.10661 -0.04899 0.25274
 H35 H 0.12714 -0.09043 0.25190
 H36 H 0.20010 -0.05237 0.24989
 H37 H 0.17736 -0.01163 0.24943
 C38 C 0.07949 -0.00901 0.32827
 C39 C 0.07663 0.00726 0.17519
 C40 C 0.16579 -0.07551 0.24973
 C41 C 0.16353 0.07825 0.24345
 C42 C 0.40665 0.02059 0.78004
 H43 H 0.40663 0.03649 0.76718
 C44 C 0.41931 0.02246 0.80312
 H45 H 0.42944 0.03965 0.80792
 C46 C 0.39274 -0.02096 0.79007
 H47 H 0.38183 -0.03759 0.78536
 C48 C 0.40527 -0.01997 0.81314
 H49 H 0.40432 -0.03601 0.82582
 N50 N 0.39370 -0.00090 0.77399
 C51 C 0.38057 -0.00587 0.69280
 H52 H 0.36032 -0.00923 0.69379
 C53 C 0.39305 -0.00585 0.66939
 H54 H 0.38240 -0.00915 0.65227
 C55 C 0.41911 0.00265 0.71399
 H56 H 0.42908 0.00584 0.73148
 C57 C 0.43239 0.00286 0.69086
 H58 H 0.45266 0.00627 0.69049
 Zn59 Zn 0.37371 -0.00154 0.74441
 N60 N 0.39359 -0.00133 0.71443
 C61 C 0.35464 0.04475 0.72622
 N62 N 0.35280 0.02776 0.74544
 C63 C 0.33899 0.03311 0.76683
 C64 C 0.32715 0.05680 0.76986
 C65 C 0.34305 0.06849 0.72842
 C66 C 0.36872 -0.05319 0.73801
 C67 C 0.35708 -0.07686 0.73748
 C68 C 0.31698 -0.05631 0.74758
 C69 C 0.32941 -0.03288 0.74778
 N70 N 0.35491 -0.03189 0.74347
 H71 H 0.36610 0.04050 0.70963
 H72 H 0.33826 0.01947 0.78203
 H73 H 0.31706 0.06136 0.78733
 H74 H 0.34537 0.08219 0.71338
 H75 H 0.38895 -0.05174 0.73449
 H76 H 0.36834 -0.09377 0.73369
 H77 H 0.29678 -0.05719 0.75164
 H78 H 0.31881 -0.01565 0.75177
 C79 C 0.41915 -0.00111 0.66828
 C80 C 0.41863 0.00194 0.81984
 C81 C 0.33105 -0.07854 0.74269
 C82 C 0.32983 0.07494 0.75075
 C83 C 0.92057 0.50468 0.28237
 H84 H 0.93062 0.50783 0.26468
 C85 C 0.93389 0.50419 0.30510
 H86 H 0.95418 0.50751 0.30473
 C87 C 0.88171 0.49797 0.30444
 H88 H 0.86132 0.49555 0.30394
 C89 C 0.89414 0.49765 0.32752
 H90 H 0.88311 0.49457 0.34468
 N91 N 0.89495 0.50166 0.28251
 C92 C 0.90627 0.48057 0.21455
 H93 H 0.90267 0.46341 0.22507
 C94 C 0.91860 0.47908 0.19102
 H95 H 0.92458 0.46079 0.18348
 C96 C 0.90185 0.52523 0.21081
 H97 H 0.89491 0.54309 0.21847
 C98 C 0.91419 0.52460 0.18721
 H99 H 0.91672 0.54199 0.17667
 Zn100 Zn 0.87592 0.50283 0.25246
 N101 N 0.89758 0.50330 0.22362
 C102 C 0.84267 0.53951 0.23181
 N103 N 0.85513 0.53258 0.25311
 C104 C 0.85441 0.54758 0.27425
 C105 C 0.84048 0.57016 0.27467
 C106 C 0.82888 0.56223 0.23127
 C107 C 0.86499 0.45206 0.26303
 C108 C 0.85343 0.42850 0.26006
 C109 C 0.82389 0.44758 0.23115
 C110 C 0.83610 0.47087 0.23461
 N111 N 0.85631 0.47269 0.25034
 H112 H 0.84425 0.52790 0.21487
 H113 H 0.86498 0.54248 0.29078
 H114 H 0.84017 0.58187 0.29164
 H115 H 0.81975 0.56791 0.21394
 H116 H 0.88154 0.45362 0.27481
 H117 H 0.86071 0.41219 0.27006
 H118 H 0.80799 0.44621 0.21842
 H119 H 0.82972 0.48728 0.22434
 C120 C 0.92198 0.50121 0.17688
 C121 C 0.92070 0.50034 0.32815
 C122 C 0.83293 0.42604 0.24364
 C123 C 0.82748 0.57770 0.25302
 C124 C 0.58289 0.51956 0.72209
 H125 H 0.58010 0.53306 0.73743
 C126 C 0.57012 0.52283 0.69927
 H127 H 0.55725 0.53874 0.69709
 C128 C 0.60442 0.48333 0.70538
 H129 H 0.61858 0.46862 0.70734
 C130 C 0.59214 0.48595 0.68233
 H131 H 0.59654 0.47293 0.66688
 N132 N 0.59983 0.50016 0.72463
 C133 C 0.61732 0.49703 0.80513
 H134 H 0.63776 0.49808 0.80307
 C135 C 0.60634 0.49421 0.82907
 H136 H 0.61833 0.49329 0.84555
 C137 C 0.57680 0.49643 0.78600
 H138 H 0.56550 0.49687 0.76908
 C139 C 0.56498 0.49349 0.80973
 H140 H 0.54450 0.49206 0.81112
 Zn141 Zn 0.62096 0.49960 0.75333
 N142 N 0.60255 0.49819 0.78423
 C143 C 0.63638 0.54838 0.76950
 N144 N 0.64051 0.52962 0.75202
 C145 C 0.65623 0.53319 0.73169
 C146 C 0.66846 0.55645 0.72829
 C147 C 0.64809 0.57195 0.76674
 C148 C 0.62796 0.44786 0.75315
 C149 C 0.64059 0.42464 0.75421
 C150 C 0.68051 0.44712 0.75490
 C151 C 0.66706 0.47006 0.75343
 N152 N 0.64124 0.46994 0.75264
 H153 H 0.62325 0.54547 0.78509
 H154 H 0.65869 0.51817 0.71776
 H155 H 0.68064 0.55928 0.71187
 H156 H 0.64433 0.58692 0.78048
 H157 H 0.60742 0.44839 0.75280
 H158 H 0.62973 0.40721 0.75426
 H159 H 0.70104 0.44731 0.75585
 H160 H 0.67719 0.48787 0.75351
 C161 C 0.57994 0.49217 0.83149
 C162 C 0.57525 0.50620 0.67899
 C163 C 0.66714 0.42412 0.75571
 C164 C 0.66399 0.57621 0.74573
 C165 C 0.27901 0.08558 0.98219
 H166 H 0.26341 0.08141 0.96982
 C167 C 0.30156 0.07164 0.97968
 H168 H 0.30334 0.05699 0.96524
 C169 C 0.29585 0.10915 1.01644
 H170 H 0.29371 0.12362 1.03085
 C171 C 0.31873 0.09577 1.01450
 H172 H 0.33400 0.10007 1.02738
 N173 N 0.27673 0.10439 0.99996
 C174 C 0.19615 0.11655 0.99135
 H175 H 0.19690 0.13548 0.98357
 C176 C 0.17309 0.10375 0.99271
 H177 H 0.15606 0.11267 0.98558
 C178 C 0.21733 0.08210 1.01080
 H179 H 0.23461 0.07410 1.01827
 C180 C 0.19456 0.06865 1.01267
 H181 H 0.19430 0.05009 1.02135
 Zn182 Zn 0.24722 0.12551 1.00009
 N183 N 0.21765 0.10557 1.00022
 C184 C 0.24561 0.13148 0.94790
 N185 N 0.24761 0.14483 0.96994
 C186 C 0.25002 0.17057 0.96995
 C187 C 0.25180 0.18365 0.94705
 C188 C 0.24735 0.14374 0.92469
 C189 C 0.22728 0.14252 1.04679
 C190 C 0.22718 0.15500 1.07015
 C191 C 0.26534 0.17683 1.05729
 C192 C 0.26465 0.16394 1.03409
 N193 N 0.24623 0.14654 1.02957
 H194 H 0.24259 0.11125 0.94828
 H195 H 0.25073 0.18101 0.98758
 H196 H 0.25404 0.20408 0.94714
 H197 H 0.24616 0.13280 0.90728
 H198 H 0.21265 0.12877 1.04295
 H199 H 0.21257 0.14990 1.08380
 H200 H 0.27991 0.19101 1.06000
 H201 H 0.27932 0.16724 1.01998
 C202 C 0.17219 0.07953 1.00340
 C203 C 0.32177 0.07705 0.99575
 C204 C 0.24719 0.17156 1.07648
 C205 C 0.25102 0.17001 0.92416
 C206 C 0.71672 0.40151 0.97620
 H207 H 0.72786 0.39876 0.95902
 C208 C 0.69272 0.41286 0.97512
 H209 H 0.68541 0.41907 0.95711
 C210 C 0.71207 0.39582 1.02055
 H211 H 0.71957 0.38882 1.03813
 C212 C 0.68806 0.40722 1.02033
 H213 H 0.67711 0.40903 1.03777
 N214 N 0.72567 0.39285 0.99860
 C215 C 0.80799 0.38329 0.99431
 H216 H 0.80919 0.36278 0.99366
 C217 C 0.83014 0.39761 0.99487
 H218 H 0.84845 0.38812 0.99433
 C219 C 0.78265 0.42062 0.99682
 H220 H 0.76406 0.42939 0.99806
 C221 C 0.80445 0.43573 0.99741
 H222 H 0.80267 0.45619 0.99895
 Zn223 Zn 0.75599 0.37344 0.99795
 N224 N 0.78483 0.39487 0.99553
 C225 C 0.77205 0.35520 0.94974
 N226 N 0.75461 0.35199 0.96872
 C227 C 0.73426 0.33644 0.96552
 C228 C 0.73066 0.32381 0.94243
 C229 C 0.76922 0.34293 0.92648
 C230 C 0.77725 0.36083 1.04498
 C231 C 0.77824 0.35009 1.06893
 C232 C 0.74021 0.32675 1.05958
 C233 C 0.74010 0.33782 1.03556
 N234 N 0.75824 0.35487 1.02881
 H235 H 0.78750 0.36836 0.95191
 H236 H 0.71999 0.33496 0.98029
 H237 H 0.71392 0.31227 0.93973
 H238 H 0.78278 0.34634 0.91128
 H239 H 0.79146 0.37455 1.03982
 H240 H 0.79442 0.35450 1.08059
 H241 H 0.72456 0.31443 1.06462
 H242 H 0.72476 0.33368 1.02287
 C243 C 0.82847 0.42408 0.99658
 C244 C 0.67803 0.41534 0.99733
 C245 C 0.75887 0.33368 1.07737
 C246 C 0.74802 0.32757 0.92251
 C247 C 0.21702 0.90810 0.48310
 H248 H 0.23164 0.91088 0.46880
 C249 C 0.19329 0.91979 0.48060
 H250 H 0.18972 0.93191 0.46455
 C251 C 0.20319 0.88772 0.52070
 H252 H 0.20677 0.87452 0.53580
 C253 C 0.17920 0.89887 0.51882
 H254 H 0.16457 0.89461 0.53276
 N255 N 0.22149 0.89235 0.50288
 C256 C 0.30373 0.88058 0.50307
 H257 H 0.30356 0.86006 0.50375
 C258 C 0.32678 0.89347 0.50257
 H259 H 0.34447 0.88290 0.50271
 C260 C 0.28082 0.91945 0.50179
 H261 H 0.26284 0.92942 0.50165
 C262 C 0.30356 0.93315 0.50131
 H263 H 0.30311 0.95369 0.50050
 Zn264 Zn 0.25199 0.87307 0.50265
 N265 N 0.28138 0.89361 0.50227
 C266 C 0.26803 0.85812 0.45354
 N267 N 0.25129 0.85304 0.47270
 C268 C 0.23172 0.83659 0.46935
 C269 C 0.22816 0.82485 0.44581
 C270 C 0.26509 0.84691 0.42974
 C271 C 0.25511 0.86721 0.55430
 C272 C 0.25738 0.85508 0.57751
 C273 C 0.25784 0.81468 0.55543
 C274 C 0.25541 0.82764 0.53250
 N275 N 0.25392 0.85346 0.53244
 H276 H 0.28296 0.87182 0.45624
 H277 H 0.21829 0.83341 0.48468
 H278 H 0.21217 0.81229 0.44309
 H279 H 0.27809 0.85163 0.41443
 H280 H 0.25424 0.88772 0.55362
 H281 H 0.25808 0.86625 0.59480
 H282 H 0.25888 0.79414 0.55546
 H283 H 0.25490 0.81713 0.51485
 C284 C 0.32676 0.91999 0.50149
 C285 C 0.17402 0.91477 0.49838
 C286 C 0.25887 0.82856 0.57819
 C287 C 0.24466 0.83052 0.42561
 C288 C 0.79070 0.60563 0.47271
 H289 H 0.78490 0.61678 0.45673
 C290 C 0.81321 0.59165 0.47092
 H291 H 0.82480 0.59272 0.45386
 C292 C 0.78316 0.59087 0.51439
 H293 H 0.77152 0.59064 0.53135
 C294 C 0.80545 0.57635 0.51328
 H295 H 0.81087 0.56515 0.52947
 N296 N 0.77639 0.60548 0.49440
 C297 C 0.69506 0.62061 0.50062
 H298 H 0.69536 0.64113 0.50176
 C299 C 0.67202 0.60775 0.50218
 H300 H 0.65447 0.61841 0.50433
 C301 C 0.71767 0.58169 0.49648
 H302 H 0.73556 0.57170 0.49435
 C303 C 0.69502 0.56803 0.49827
 H304 H 0.69549 0.54747 0.49757
 Zn305 Zn 0.74717 0.62698 0.49642
 N306 N 0.71721 0.60751 0.49757
 C307 C 0.72907 0.64395 0.44933
 N308 N 0.74707 0.64789 0.46719
 C309 C 0.76669 0.66419 0.46301
 C310 C 0.76902 0.67683 0.43993
 C311 C 0.73077 0.65609 0.42598
 C312 C 0.74208 0.63340 0.54846
 C313 C 0.74170 0.64577 0.57190
 C314 C 0.75131 0.68508 0.55064
 C315 C 0.75141 0.67195 0.52750
 N316 N 0.74741 0.64642 0.52688
 H317 H 0.71402 0.63045 0.45262
 H318 H 0.78127 0.66635 0.47709
 H319 H 0.78511 0.68913 0.43646
 H320 H 0.71681 0.65221 0.41159
 H321 H 0.73777 0.61339 0.54746
 H322 H 0.73774 0.63511 0.58896
 H323 H 0.75488 0.70532 0.55106
 H324 H 0.75465 0.68224 0.51018
 C325 C 0.67185 0.58117 0.50076
 C326 C 0.82079 0.57677 0.49136
 C327 C 0.74674 0.67179 0.57312
 C328 C 0.75119 0.67231 0.42102
 C329 C 0.00613 0.22403 0.07959
 H330 H 0.00538 0.24144 0.06894
 C331 C 0.00941 0.20078 0.06691
 H332 H 0.01079 0.20031 0.04643
 C333 C 0.00591 0.20317 0.11923
 H334 H 0.00473 0.20436 0.13968
 C335 C 0.00888 0.17963 0.10738
 H336 H 0.00946 0.16260 0.11873
 N337 N 0.00425 0.22470 0.10530
 C338 C 0.01660 0.30371 0.11077
 H339 H 0.03034 0.30132 0.12556
 C340 C 0.01447 0.32719 0.09908
 H341 H 0.02683 0.34237 0.10519
 C342 C -0.01751 0.28748 0.08687
 H343 H -0.03020 0.27197 0.08260
 C344 C -0.02013 0.31069 0.07443
 H345 H -0.03412 0.31237 0.05968
 Zn346 Zn 0.00161 0.25488 0.12466
 N347 N 0.00065 0.28446 0.10468
 C348 C 0.05313 0.25420 0.13058
 N349 N 0.03117 0.25542 0.14441
 C350 C 0.03129 0.25590 0.17017
 C351 C 0.05441 0.25556 0.18297
 C352 C 0.07651 0.25392 0.14253
 C353 C -0.04582 0.23580 0.14126
 C354 C -0.06920 0.23669 0.15395
 C355 C -0.05725 0.27690 0.17259
 C356 C -0.03392 0.27515 0.15967
 N357 N -0.02864 0.25478 0.14442
 H358 H 0.05237 0.25351 0.11012
 H359 H 0.01356 0.25636 0.18074
 H360 H 0.05451 0.25584 0.20348
 H361 H 0.09384 0.25311 0.13126
 H362 H -0.04176 0.22024 0.12839
 H363 H -0.08276 0.22153 0.15128
 H364 H -0.06141 0.29320 0.18461
 H365 H -0.02018 0.29027 0.16137
 C366 C -0.00454 0.33135 0.08105
 C367 C 0.01101 0.17828 0.08093
 C368 C -0.07506 0.25746 0.16969
 C369 C 0.07731 0.25480 0.16899
 C370 C 0.00066 0.77653 0.42022
 H371 H 0.00130 0.75857 0.42997
 C372 C 0.00431 0.79922 0.43370
 H373 H 0.00747 0.79866 0.45391
 C374 C -0.00296 0.79928 0.38187
 H375 H -0.00531 0.79907 0.36154
 C376 C -0.00005 0.82228 0.39461
 H377 H -0.00082 0.83983 0.38409
 N378 N -0.00282 0.77704 0.39474
 C379 C -0.02449 0.71407 0.41068
 H380 H -0.03787 0.72932 0.41450
 C381 C -0.02721 0.69081 0.42300
 H382 H -0.04259 0.68816 0.43654
 C383 C 0.01132 0.69839 0.38759
 H384 H 0.02585 0.70113 0.37325
 C385 C 0.00919 0.67486 0.39933
 H386 H 0.02237 0.65972 0.39433
 Zn387 Zn -0.00459 0.74757 0.37421
 N388 N -0.00546 0.71739 0.39333
 C389 C 0.02496 0.74954 0.32813
 N390 N 0.02515 0.74820 0.35386
 C391 C 0.04725 0.74880 0.36687
 C392 C 0.07046 0.75024 0.35401
 C393 C 0.04786 0.75102 0.31447
 C394 C -0.05203 0.76671 0.35838
 C395 C -0.07393 0.76742 0.34390
 C396 C -0.05993 0.72912 0.32244
 C397 C -0.03812 0.72930 0.33727
 N398 N -0.03430 0.74825 0.35440
 H399 H 0.00715 0.74976 0.31821
 H400 H 0.04676 0.74817 0.38734
 H401 H 0.08795 0.75050 0.36458
 H402 H 0.04768 0.75208 0.29399
 H403 H -0.04954 0.78070 0.37318
 H404 H -0.08807 0.78179 0.34850
 H405 H -0.06168 0.71426 0.30829
 H406 H -0.02403 0.71441 0.33495
 C407 C -0.01048 0.67083 0.41694
 C408 C 0.00438 0.82242 0.42073
 C409 C -0.07805 0.74894 0.32486
 C410 C 0.07089 0.75115 0.32753
 C411 C 0.52166 0.27927 0.91421
 H412 H 0.53670 0.26520 0.91406
 C413 C 0.52393 0.30126 0.92900
 H414 H 0.54050 0.30397 0.94063
 C415 C 0.48238 0.29382 0.89816
 H416 H 0.46662 0.29138 0.88552
 C417 C 0.48377 0.31588 0.91280
 H418 H 0.46888 0.33007 0.91168
 N419 N 0.50120 0.27606 0.89900
 C420 C 0.49347 0.19618 0.87877
 H421 H 0.48956 0.19839 0.85887
 C422 C 0.49052 0.17245 0.88987
 H423 H 0.48520 0.15629 0.87831
 C424 C 0.50383 0.21469 0.91836
 H425 H 0.50841 0.23127 0.92951
 C426 C 0.50110 0.19120 0.93026
 H427 H 0.50401 0.18972 0.95046
 Zn428 Zn 0.50040 0.24822 0.87592
 N429 N 0.50015 0.21670 0.89298
 C430 C 0.53567 0.23071 0.83804
 N431 N 0.52903 0.25042 0.85366
 C432 C 0.54324 0.27194 0.85446
 C433 C 0.56556 0.27380 0.84014
 C434 C 0.55779 0.23189 0.82315
 C435 C 0.44841 0.24484 0.87167
 C436 C 0.42492 0.24385 0.85995
 C437 C 0.44596 0.25203 0.81984
 C438 C 0.46916 0.25296 0.83239
 N439 N 0.46988 0.24928 0.85783
 H440 H 0.52412 0.21387 0.83737
 H441 H 0.53750 0.28772 0.86642
 H442 H 0.57709 0.29072 0.84169
 H443 H 0.56314 0.21592 0.81114
 H444 H 0.44966 0.24188 0.89186
 H445 H 0.40793 0.24032 0.87116
 H446 H 0.44543 0.25474 0.79954
 H447 H 0.48655 0.25635 0.82184
 C448 C 0.49402 0.16989 0.91594
 C449 C 0.50481 0.31979 0.92824
 C450 C 0.42363 0.24703 0.83370
 C451 C 0.57304 0.25363 0.82424
 C452 C 0.51077 0.70271 0.61902
 H453 H 0.51430 0.70318 0.63908
 C454 C 0.51109 0.67949 0.60620
 H455 H 0.51500 0.66218 0.61641
 C456 C 0.50013 0.72434 0.58137
 H457 H 0.49510 0.74174 0.57195
 C458 C 0.50011 0.70143 0.56781
 H459 H 0.49539 0.70126 0.54791
 N460 N 0.50540 0.72455 0.60655
 C461 C 0.48199 0.80128 0.61321
 H462 H 0.47021 0.79809 0.62977
 C463 C 0.47919 0.82378 0.59984
 H464 H 0.46533 0.83777 0.60622
 C465 C 0.51530 0.78780 0.58549
 H466 H 0.52956 0.77380 0.58024
 C467 C 0.51304 0.81007 0.57147
 H468 H 0.52557 0.81321 0.55537
 Zn469 Zn 0.50334 0.75460 0.62640
 N470 N 0.49989 0.78385 0.60598
 C471 C 0.55273 0.77151 0.63779
 N472 N 0.53311 0.75694 0.64622
 C473 C 0.53546 0.74228 0.66721
 C474 C 0.55838 0.74150 0.68022
 C475 C 0.57598 0.77118 0.65014
 C476 C 0.45288 0.74344 0.63430
 C477 C 0.42937 0.74253 0.64661
 C478 C 0.44873 0.76011 0.68410
 C479 C 0.47203 0.76066 0.67103
 N480 N 0.47363 0.75222 0.64662
 H481 H 0.55069 0.78293 0.62109
 H482 H 0.51969 0.73082 0.67362
 H483 H 0.56022 0.72949 0.69665
 H484 H 0.59161 0.78250 0.64301
 H485 H 0.45457 0.73749 0.61470
 H486 H 0.41296 0.73558 0.63656
 H487 H 0.44746 0.76688 0.70350
 H488 H 0.48862 0.76834 0.68014
 C489 C 0.49473 0.82827 0.57864
 C490 C 0.50543 0.67876 0.58043
 C491 C 0.42720 0.75077 0.67181
 C492 C 0.57895 0.75590 0.67146
 C493 C 0.90016 0.97553 0.71058
 H494 H 0.89269 0.95779 0.71760
 C495 C 0.91346 0.97586 0.68879
 H496 H 0.91599 0.95834 0.67816
 C497 C 0.90399 1.02032 0.71632
 H498 H 0.89973 1.03759 0.72678
 C499 C 0.91850 1.02165 0.69226
 H500 H 0.92522 1.04001 0.68601
 N501 N 0.89532 0.99870 0.72442
 C502 C 0.87764 1.00570 0.80639
 H503 H 0.85718 1.00744 0.80548
 C504 C 0.88912 1.00698 0.82872
 H505 H 0.87772 1.01030 0.84566
 C506 C 0.91683 0.99980 0.78379
 H507 H 0.92737 0.99657 0.76634
 C508 C 0.93037 1.00094 0.80814
 H509 H 0.95068 0.99758 0.80802
 Zn510 Zn 0.87338 0.99916 0.75317
 N511 N 0.89221 1.00197 0.78343
 C512 C 0.85840 0.95278 0.77493
 N513 N 0.85476 0.96801 0.75454
 C514 C 0.84054 0.95996 0.73467
 C515 C 0.82982 0.93563 0.73471
 C516 C 0.84799 0.92852 0.77577
 C517 C 0.85934 1.04924 0.76479
 C518 C 0.84772 1.07275 0.76142
 C519 C 0.82178 1.05403 0.72894
 C520 C 0.83398 1.03071 0.73291
 N521 N 0.85247 1.02873 0.75059
 H522 H 0.87026 0.95883 0.79028
 H523 H 0.83853 0.97184 0.71824
 H524 H 0.81918 0.92910 0.71852
 H525 H 0.85155 0.91650 0.79190
 H526 H 0.87478 1.04785 0.77792
 H527 H 0.85377 1.08896 0.77252
 H528 H 0.80744 1.05558 0.71451
 H529 H 0.82925 1.01453 0.72126
 C530 C 0.91725 1.00480 0.83002
 C531 C 0.92350 1.00029 0.67879
 C532 C 0.82912 1.07543 0.74297
 C533 C 0.83406 0.91952 0.75525
 C534 C 0.40449 0.47843 0.22008
 H535 H 0.40191 0.46128 0.23095
 C536 C 0.41867 0.47772 0.19746
 H537 H 0.42697 0.45995 0.19090
 C538 C 0.39571 0.52218 0.21446
 H539 H 0.38643 0.53945 0.22073
 C540 C 0.40986 0.52236 0.19197
 H541 H 0.41144 0.53977 0.18129
 N542 N 0.39329 0.50047 0.22810
 C543 C 0.38102 0.51046 0.30890
 H544 H 0.36227 0.51888 0.30833
 C545 C 0.39367 0.50901 0.33187
 H546 H 0.38486 0.51681 0.34890
 C547 C 0.41505 0.48927 0.28759
 H548 H 0.42306 0.48124 0.27035
 C549 C 0.42833 0.48729 0.31025
 H550 H 0.44669 0.47795 0.31038
 Zn551 Zn 0.37213 0.50090 0.25759
 N552 N 0.39186 0.50077 0.28733
 C553 C 0.35058 0.45770 0.27978
 N554 N 0.35167 0.47127 0.25795
 C555 C 0.34095 0.46235 0.23632
 C556 C 0.32948 0.43839 0.23594
 C557 C 0.33931 0.43383 0.28023
 C558 C 0.36454 0.55276 0.26452
 C559 C 0.35273 0.57631 0.26204
 C560 C 0.31593 0.55509 0.24520
 C561 C 0.32851 0.53180 0.24797
 N562 N 0.35250 0.53114 0.25724
 H563 H 0.35923 0.46491 0.29678
 H564 H 0.34234 0.47333 0.21913
 H565 H 0.32183 0.43096 0.21846
 H566 H 0.33931 0.42290 0.29752
 H567 H 0.38375 0.55175 0.27144
 H568 H 0.36275 0.59340 0.26745
 H569 H 0.29695 0.55558 0.23757
 H570 H 0.31941 0.51439 0.24212
 C571 C 0.41762 0.49740 0.33264
 C572 C 0.42154 0.49997 0.18324
 C573 C 0.32837 0.57767 0.25184
 C574 C 0.32926 0.42370 0.25797
 C575 C 0.58842 0.98581 0.27776
 H576 H 0.58580 0.97023 0.26458
 C577 C 0.57726 0.98518 0.30067
 H578 H 0.56482 0.96951 0.30529
 C579 C 0.60729 1.02600 0.28618
 H580 H 0.61981 1.04137 0.28120
 C581 C 0.59540 1.02609 0.31162
 H582 H 0.59971 1.04170 0.32430
 N583 N 0.60440 1.00677 0.27080
 C584 C 0.61625 1.00839 0.18864
 H585 H 0.63573 1.01481 0.18858
 C586 C 0.60356 1.00568 0.16578
 H587 H 0.61335 1.00985 0.14814
 C588 C 0.57956 0.99565 0.21164
 H589 H 0.57017 0.99197 0.22950
 C590 C 0.56614 0.99258 0.18913
 H591 H 0.54650 0.98656 0.18977
 Zn592 Zn 0.62454 1.00523 0.24049
 N593 N 0.60436 1.00294 0.21097
 C594 C 0.65859 0.96808 0.22032
 N595 N 0.64614 0.97617 0.24171
 C596 C 0.64754 0.96279 0.26361
 C597 C 0.66102 0.93992 0.26430
 C598 C 0.67223 0.94525 0.22017
 C599 C 0.63108 1.05698 0.23285
 C600 C 0.64249 1.08060 0.23604
 C601 C 0.68049 1.05934 0.25003
 C602 C 0.66827 1.03603 0.24664
 N603 N 0.64378 1.03539 0.23885
 H604 H 0.65748 0.97896 0.20315
 H605 H 0.63791 0.96961 0.28054
 H606 H 0.66148 0.92916 0.28169
 H607 H 0.68158 0.93871 0.20291
 H608 H 0.61162 1.05587 0.22663
 H609 H 0.63195 1.09752 0.23111
 H610 H 0.69956 1.05942 0.25745
 H611 H 0.67786 1.01857 0.25151
 C612 C 0.57837 0.99727 0.16590
 C613 C 0.58196 1.00584 0.31949
 C614 C 0.66712 1.08220 0.24599
 C615 C 0.67337 0.93087 0.24233
 C616 C 0.10766 0.48349 0.79727
 H617 H 0.12003 0.46749 0.79332
 C618 C 0.09668 0.48625 0.82133
 H619 H 0.10024 0.47213 0.83568
 C620 C 0.08912 0.52230 0.78419
 H621 H 0.08698 0.53664 0.76982
 C622 C 0.07761 0.52570 0.80801
 H623 H 0.06623 0.54250 0.81191
 N624 N 0.10385 0.50147 0.77931
 C625 C 0.11487 0.49608 0.69746
 H626 H 0.13534 0.49413 0.69730
 C627 C 0.10165 0.49455 0.67485
 H628 H 0.11190 0.49153 0.65715
 C629 C 0.07644 0.50200 0.72083
 H630 H 0.06674 0.50451 0.73885
 C631 C 0.06242 0.50073 0.69852
 H632 H 0.04192 0.50251 0.69931
 Zn633 Zn 0.12290 0.50003 0.74871
 N634 N 0.10221 0.49986 0.71981
 C635 C 0.12816 0.44796 0.74468
 N636 N 0.14194 0.46961 0.74709
 C637 C 0.16778 0.46905 0.74750
 C638 C 0.18069 0.44580 0.74625
 C639 C 0.14027 0.42440 0.74325
 C640 C 0.14133 0.54686 0.73033
 C641 C 0.15408 0.56996 0.73222
 C642 C 0.17210 0.55594 0.77162
 C643 C 0.15901 0.53307 0.76899
 N644 N 0.14386 0.52906 0.74867
 H645 H 0.10765 0.44906 0.74412
 H646 H 0.17835 0.48653 0.74899
 H647 H 0.20123 0.44531 0.74720
 H648 H 0.12912 0.40722 0.74190
 H649 H 0.12867 0.54365 0.71473
 H650 H 0.15147 0.58431 0.71790
 H651 H 0.18361 0.55931 0.78815
 H652 H 0.16017 0.51884 0.78360
 C653 C 0.07518 0.49688 0.67534
 C654 C 0.08176 0.50770 0.82689
 C655 C 0.16932 0.57470 0.75322
 C656 C 0.16677 0.42325 0.74428
 C657 C 0.78912 0.90285 0.02056
 H658 H 0.78218 0.89448 0.03791
 C659 C 0.81102 0.91769 0.02091
 H660 H 0.82109 0.92037 0.03848
 C661 C 0.78495 0.90935 -0.02357
 H662 H 0.77487 0.90587 -0.04091
 C663 C 0.80680 0.92426 -0.02407
 H664 H 0.81348 0.93219 -0.04180
 N665 N 0.77687 0.89853 -0.00159
 C666 C 0.69771 0.88072 -0.01348
 H667 H 0.69968 0.86113 -0.01956
 C668 C 0.67376 0.89208 -0.01253
 H669 H 0.65727 0.88135 -0.01827
 C670 C 0.71664 0.91823 0.00266
 H671 H 0.73339 0.92803 0.00911
 C672 C 0.69298 0.93034 0.00393
 H673 H 0.69152 0.94967 0.01097
 Zn674 Zn 0.74923 0.87562 -0.00277
 N675 N 0.71845 0.89376 -0.00562
 C676 C 0.72520 0.85711 0.04124
 N677 N 0.74740 0.85653 0.02768
 C678 C 0.76827 0.84437 0.03666
 C679 C 0.76758 0.83324 0.06064
 C680 C 0.72360 0.84596 0.06502
 C681 C 0.74540 0.86429 -0.05410
 C682 C 0.74790 0.85032 -0.07650
 C683 C 0.76716 0.81634 -0.05289
 C684 C 0.76412 0.83095 -0.03078
 N685 N 0.75336 0.85448 -0.03179
 H686 H 0.70877 0.86681 0.03407
 H687 H 0.78579 0.84432 0.02571
 H688 H 0.78451 0.82438 0.06802
 H689 H 0.70590 0.84689 0.07570
 H690 H 0.73697 0.88304 -0.05447
 H691 H 0.74125 0.85830 -0.09407
 H692 H 0.77578 0.79766 -0.05199
 H693 H 0.77042 0.82352 -0.01292
 C694 C 0.67122 0.91694 -0.00321
 C695 C 0.82016 0.92835 -0.00167
 C696 C 0.75870 0.82600 -0.07600
 C697 C 0.74519 0.83466 0.07532
 C698 C 0.28421 0.40849 0.52058
 H699 H 0.27227 0.40796 0.53741
 C700 C 0.30709 0.42187 0.52085
 H701 H 0.31278 0.43162 0.53798
 C702 C 0.29211 0.39532 0.47816
 H703 H 0.28660 0.38452 0.46169
 C704 C 0.31491 0.40872 0.47750
 H705 H 0.32657 0.40836 0.46043
 N706 N 0.27716 0.39558 0.49941
 C707 C 0.19543 0.38402 0.49776
 H708 H 0.19568 0.36387 0.49361
 C709 C 0.17235 0.39679 0.50057
 H710 H 0.15474 0.38652 0.49819
 C711 C 0.21815 0.42187 0.50635
 H712 H 0.23609 0.43140 0.50887
 C713 C 0.19536 0.43542 0.50944
 H714 H 0.19578 0.45545 0.51419
 Zn715 Zn 0.24711 0.37589 0.50048
 N716 N 0.21768 0.39653 0.50111
 C717 C 0.22897 0.36195 0.54871
 N718 N 0.24704 0.35652 0.53073
 C719 C 0.26566 0.33916 0.53510
 C720 C 0.26620 0.32613 0.55805
 C721 C 0.22928 0.34995 0.57214
 C722 C 0.24017 0.36786 0.44912
 C723 C 0.24055 0.35505 0.42591
 C724 C 0.25236 0.31666 0.44767
 C725 C 0.25141 0.33015 0.47057
 N726 N 0.24588 0.35542 0.47081
 H727 H 0.21469 0.37624 0.54535
 H728 H 0.28034 0.33572 0.52094
 H729 H 0.28093 0.31212 0.56117
 H730 H 0.21517 0.35505 0.58644
 H731 H 0.23585 0.38796 0.44984
 H732 H 0.23622 0.36525 0.40877
 H733 H 0.25750 0.29672 0.44755
 H734 H 0.25557 0.32045 0.48794
 C735 C 0.17217 0.42261 0.50717
 C736 C 0.32256 0.42230 0.49897
 C737 C 0.24679 0.32917 0.42503
 C738 C 0.24830 0.33211 0.57720
 C739 C 0.21570 0.59172 0.01972
 H740 H 0.22688 0.59181 0.03675
 C741 C 0.19259 0.57870 0.01916
 H742 H 0.18598 0.56940 0.03622
 C743 C 0.20976 0.60583 -0.02223
 H744 H 0.21626 0.61658 -0.03835
 C745 C 0.18670 0.59303 -0.02366
 H746 H 0.17627 0.59380 -0.04118
 N747 N 0.22388 0.60485 -0.00086
 C748 C 0.30599 0.61408 -0.00565
 H749 H 0.30613 0.63396 -0.01067
 C750 C 0.32885 0.60089 -0.00357
 H751 H 0.34663 0.61052 -0.00731
 C752 C 0.28268 0.57757 0.00646
 H753 H 0.26464 0.56878 0.01080
 C754 C 0.30523 0.56367 0.00897
 H755 H 0.30457 0.54408 0.01500
 Zn756 Zn 0.25446 0.62382 0.00026
 N757 N 0.28353 0.60242 -0.00038
 C758 C 0.27474 0.63858 0.04706
 N759 N 0.25527 0.64317 0.03095
 C760 C 0.23639 0.65987 0.03739
 C761 C 0.23730 0.67346 0.06028
 C762 C 0.27614 0.65138 0.07018
 C763 C 0.26439 0.63273 -0.05070
 C764 C 0.26189 0.64447 -0.07410
 C765 C 0.24219 0.68042 -0.05286
 C766 C 0.24522 0.66805 -0.02974
 N767 N 0.25573 0.64439 -0.02914
 H768 H 0.28909 0.62460 0.04236
 H769 H 0.22044 0.66239 0.02497
 H770 H 0.22226 0.68679 0.06514
 H771 H 0.29150 0.64705 0.08291
 H772 H 0.27221 0.61374 -0.04986
 H773 H 0.26842 0.63475 -0.09115
 H774 H 0.23312 0.69892 -0.05326
 H775 H 0.23830 0.67699 -0.01254
 C776 C 0.32858 0.57559 0.00425
 C777 C 0.17779 0.57879 -0.00295
 C778 C 0.24988 0.66820 -0.07539
 C779 C 0.25761 0.66948 0.07681
 C780 C 0.70538 0.10527 0.51571
 H781 H 0.71059 0.11513 0.53287
 C782 C 0.68214 0.09261 0.51470
 H783 H 0.66954 0.09277 0.53109
 C784 C 0.71514 0.09287 0.47342
 H785 H 0.72800 0.09308 0.45733
 C786 C 0.69200 0.08013 0.47154
 H787 H 0.68721 0.07046 0.45408
 N788 N 0.72122 0.10546 0.49512
 C789 C 0.80276 0.11633 0.48739
 H790 H 0.80254 0.13606 0.48188
 C791 C 0.82585 0.10356 0.48964
 H792 H 0.84343 0.11338 0.48545
 C793 C 0.78016 0.07988 0.50096
 H794 H 0.76229 0.07109 0.50602
 C795 C 0.80293 0.06636 0.50348
 H796 H 0.80258 0.04693 0.51002
 Zn797 Zn 0.75124 0.12536 0.49531
 N798 N 0.78058 0.10453 0.49342
 C799 C 0.77323 0.14019 0.54137
 N800 N 0.75317 0.14475 0.52598
 C801 C 0.73473 0.16177 0.53289
 C802 C 0.73651 0.17544 0.55563
 C803 C 0.77557 0.15320 0.56428
 C804 C 0.75819 0.13500 0.44393
 C805 C 0.75705 0.14828 0.42124
 C806 C 0.74131 0.18488 0.44454
 C807 C 0.74291 0.17092 0.46688
 N808 N 0.75097 0.14631 0.46617
 H809 H 0.78734 0.12610 0.53625
 H810 H 0.71839 0.16440 0.52100
 H811 H 0.72170 0.18888 0.56096
 H812 H 0.79138 0.14891 0.57648
 H813 H 0.76474 0.11551 0.44379
 H814 H 0.76275 0.13898 0.40368
 H815 H 0.73445 0.20430 0.44521
 H816 H 0.73737 0.17974 0.48460
 C817 C 0.82609 0.07852 0.49837
 C818 C 0.67524 0.08006 0.49233
 C819 C 0.74851 0.17349 0.42142
 C820 C 0.75732 0.17136 0.57146
 C821 C 0.98433 0.71420 0.91338
 H822 H 0.96690 0.72512 0.91474
 C823 C 0.98596 0.69150 0.92456
 H824 H 0.96960 0.68423 0.93476
 C825 C 1.02676 0.71125 0.89717
 H826 H 1.04234 0.71824 0.88582
 C827 C 1.02955 0.68649 0.90950
 H828 H 1.04779 0.67692 0.90818
 N829 N 1.00541 0.72378 0.89880
 C830 C 1.00210 0.80615 0.88501
 H831 H 1.00671 0.80535 0.86499
 C832 C 0.99890 0.82853 0.89659
 H833 H 1.00079 0.84575 0.88564
 C834 C 0.99350 0.78314 0.92296
 H835 H 0.99103 0.76545 0.93290
 C836 C 0.98965 0.80756 0.93658
 H837 H 0.98573 0.80730 0.95677
 Zn838 Zn 1.00125 0.75323 0.87886
 N839 N 0.99899 0.78299 0.89884
 C840 C 0.95167 0.76713 0.86575
 N841 N 0.97063 0.75014 0.86051
 C842 C 0.96718 0.73074 0.84375
 C843 C 0.94435 0.72861 0.83069
 C844 C 0.92829 0.76512 0.85387
 C845 C 1.05163 0.76483 0.86898
 C846 C 1.07515 0.76311 0.85666
 C847 C 1.05430 0.74533 0.82014
 C848 C 1.03107 0.74761 0.83310
 N849 N 1.03031 0.75631 0.85745
 H850 H 0.95437 0.78205 0.87956
 H851 H 0.98208 0.71684 0.84058
 H852 H 0.94219 0.71360 0.81675
 H853 H 0.91333 0.77859 0.85861
 H854 H 1.05055 0.77163 0.88835
 H855 H 1.09211 0.76912 0.86638
 H856 H 1.05492 0.73730 0.80119
 H857 H 1.01396 0.74139 0.82400
 C858 C 0.99164 0.82961 0.92389
 C859 C 1.00960 0.67599 0.92160
 C860 C 1.07672 0.75220 0.83241
 C861 C 0.92433 0.74562 0.83616
 C862 C 0.48618 0.21743 0.41399
 H863 H 0.47207 0.23123 0.42015
 C864 C 0.48696 0.19352 0.42525
 H865 H 0.47376 0.18916 0.44050
 C866 C 0.51998 0.20581 0.38606
 H867 H 0.53236 0.21033 0.37028
 C868 C 0.52102 0.18155 0.39639
 H869 H 0.53438 0.16772 0.38869
 N870 N 0.50262 0.22315 0.39480
 C871 C 0.49627 0.30540 0.38610
 H872 H 0.49645 0.30539 0.36561
 C873 C 0.49313 0.32814 0.39942
 H874 H 0.49128 0.34577 0.38916
 C875 C 0.49852 0.28234 0.42441
 H876 H 0.50077 0.26446 0.43402
 C877 C 0.49541 0.30478 0.43854
 H878 H 0.49522 0.30411 0.45904
 Zn879 Zn 0.49931 0.25414 0.37714
 N880 N 0.49831 0.28305 0.39865
 C881 C 0.44847 0.26708 0.36868
 N882 N 0.46823 0.25289 0.35938
 C883 C 0.46515 0.23687 0.33932
 C884 C 0.44175 0.23554 0.32715
 C885 C 0.42466 0.26579 0.35756
 C886 C 0.55039 0.25967 0.36852
 C887 C 0.57351 0.26003 0.35542
 C888 C 0.55065 0.25743 0.31611
 C889 C 0.52782 0.25734 0.33002
 N890 N 0.52820 0.25779 0.35579
 H891 H 0.45089 0.27895 0.38522
 H892 H 0.48080 0.22503 0.33282
 H893 H 0.43972 0.22324 0.31078
 H894 H 0.40910 0.27697 0.36545
 H895 H 0.55009 0.26009 0.38901
 H896 H 0.59106 0.26098 0.36585
 H897 H 0.55030 0.25621 0.29563
 H898 H 0.51001 0.25640 0.32020
 C899 C 0.49206 0.32789 0.42592
 C900 C 0.50400 0.17500 0.41583
 C901 C 0.57380 0.25864 0.32894
 C902 C 0.42101 0.24977 0.33663
 C903 C 0.98918 0.28330 0.58549
 H904 H 0.97623 0.26853 0.57988
 C905 C 0.98814 0.30685 0.57354
 H906 H 0.97455 0.30962 0.55858
 C907 C 1.02383 0.29691 0.61006
 H908 H 1.03784 0.29319 0.62424
 C909 C 1.02338 0.32074 0.59871
 H910 H 1.03680 0.33493 0.60493
 N911 N 1.00618 0.27907 0.60418
 C912 C 0.99829 0.19779 0.61804
 H913 H 0.99601 0.19912 0.63840
 C914 C 0.99611 0.17434 0.60594
 H915 H 0.99219 0.15751 0.61696
 C916 C 1.00616 0.21818 0.57881
 H917 H 1.01018 0.23534 0.56842
 C918 C 1.00412 0.19496 0.56587
 H919 H 1.00651 0.19419 0.54548
 Zn920 Zn 1.00426 0.24906 0.62428
 N921 N 1.00314 0.21910 0.60445
 C922 C 0.95151 0.25078 0.63062
 N923 N 0.97353 0.24927 0.64373
 C924 C 0.97322 0.24585 0.66927
 C925 C 0.95008 0.24453 0.68259
 C926 C 0.92808 0.24992 0.64317
 C927 C 1.05190 0.23055 0.63889
 C928 C 1.07472 0.23019 0.65198
 C929 C 1.05920 0.26494 0.67805
 C930 C 1.03655 0.26453 0.66452
 N931 N 1.03334 0.24753 0.64528
 H932 H 0.95200 0.25218 0.61029
 H933 H 0.99080 0.24352 0.67930
 H934 H 0.95000 0.24161 0.70287
 H935 H 0.91076 0.25144 0.63243
 H936 H 1.04945 0.21781 0.62298
 H937 H 1.08957 0.21724 0.64562
 H938 H 1.06123 0.27862 0.69330
 H939 H 1.02176 0.27827 0.66889
 C940 C 0.99893 0.17286 0.57962
 C941 C 1.00448 0.32655 0.58106
 C942 C 1.07866 0.24730 0.67216
 C943 C 0.92719 0.24704 0.66948
 C944 C 0.48334 0.78239 0.08702
 H945 H 0.46958 0.76779 0.08292
 C946 C 0.48408 0.80451 0.07246
 H947 H 0.47101 0.80679 0.05698
 C948 C 0.51660 0.79780 0.11262
 H949 H 0.52882 0.79562 0.12870
 C950 C 0.51776 0.82020 0.09883
 H951 H 0.53095 0.83491 0.10435
 N952 N 0.49999 0.77914 0.10625
 C953 C 0.50504 0.69754 0.12054
 H954 H 0.50672 0.69906 0.14089
 C955 C 0.50425 0.67368 0.10901
 H956 H 0.50554 0.65677 0.12047
 C957 C 0.50054 0.71778 0.08087
 H958 H 0.49910 0.73498 0.07000
 C959 C 0.49954 0.69417 0.06854
 H960 H 0.49731 0.69325 0.04819
 Zn961 Zn 0.50009 0.74919 0.12617
 N962 N 0.50256 0.71896 0.10654
 C963 C 0.45241 0.72934 0.13939
 N964 N 0.46937 0.74782 0.14541
 C965 C 0.46393 0.76537 0.16376
 C966 C 0.44109 0.76404 0.17760
 C967 C 0.42936 0.72750 0.15250
 C968 C 0.55159 0.74935 0.13322
 C969 C 0.57466 0.75217 0.14546
 C970 C 0.55182 0.75511 0.18540
 C971 C 0.52901 0.75228 0.17233
 N972 N 0.52935 0.75003 0.14662
 H973 H 0.45641 0.71622 0.12403
 H974 H 0.47729 0.78041 0.16765
 H975 H 0.43698 0.77800 0.19228
 H976 H 0.41593 0.71296 0.14715
 H977 H 0.55126 0.74737 0.11282
 H978 H 0.59219 0.75212 0.13446
 H979 H 0.55150 0.75714 0.20583
 H980 H 0.51119 0.75225 0.18269
 C981 C 0.50087 0.67188 0.08284
 C982 C 0.50185 0.82349 0.07808
 C983 C 0.57488 0.75558 0.17176
 C984 C 0.42369 0.74466 0.17219
 O985 O -0.01602 0.99021 0.93081
 O986 O 0.02809 0.99346 0.93055
 O987 O -0.02067 0.93228 0.99269
 O988 O -0.01592 0.93151 1.03383
 O989 O -0.07647 0.99614 0.98922
 O990 O -0.07384 1.03987 0.99759
 O991 O 0.04460 0.99978 1.05828
 O992 O 0.04451 0.95689 1.04015
 O993 O 0.05551 1.04850 0.99811
 O994 O 0.03475 1.05371 0.95602
 O995 O -0.00333 1.06166 1.04980
 O996 O -0.04664 1.04343 1.05603
 O997 O 0.01028 1.02173 1.07340
 O998 O -0.03519 1.01252 1.07448
 O999 O 0.01693 1.07453 1.01383
 O1000 O 0.00571 1.07452 0.96947
 O1001 O 0.06883 1.01220 1.01695
 O1002 O 0.06817 0.97021 1.00822
 O1003 O -0.05139 1.01025 0.94630
 O1004 O -0.05345 1.05146 0.96636
 O1005 O -0.06311 0.95945 1.00737
 O1006 O -0.04302 0.95709 1.04946
 O1007 O -0.00457 0.94625 0.95527
 O1008 O 0.03841 0.96281 0.95008
 Zr1009 Zr 0.00633 0.98383 0.96293
 O1010 O 0.03194 1.00568 0.98408
 Zr1011 Zr -0.02444 0.96558 1.01474
 O1012 O -0.00006 0.98655 1.03833
 Zr1013 Zr -0.04297 1.01739 0.98449
 O1014 O -0.01959 1.04069 1.00674
 Zr1015 Zr 0.03555 0.99061 1.02060
 O1016 O 0.01230 0.96672 0.99831
 Zr1017 Zr 0.01695 1.04226 0.99027
 O1018 O -0.00732 1.02134 0.96635
 Zr1019 Zr -0.01396 1.02391 1.04221
 O1020 O -0.03998 1.00206 1.02100
 O1021 O -0.02984 0.98045 0.97877
 O1022 O 0.02238 1.02762 1.02642
 C1023 C -0.03788 1.00073 0.92814
 C1024 C -0.01346 0.92870 0.96959
 C1025 C -0.08040 0.97394 0.99837
 C1026 C 0.03240 1.01182 1.07591
 C1027 C 0.07272 1.03431 1.00768
 C1028 C 0.00816 1.07832 1.03630
 H1029 H 0.04842 1.00603 0.97490
 H1030 H -0.02752 1.05768 1.00837
 H1031 H -0.04132 0.97020 0.96809
 H1032 H 0.00152 0.97798 1.05483
 H1033 H 0.03845 0.94252 1.02965
 H1034 H -0.00107 0.93495 1.04457
 H1035 H -0.01078 1.08049 0.97654
 H1036 H -0.03976 1.05527 0.95394
 H1037 H 0.06660 0.96795 0.98975
 H1038 H 0.04077 0.94864 0.96204
 H1039 H -0.04927 1.05853 1.04534
 H1040 H -0.07488 1.03734 1.01610
 H1041 H 0.02827 1.01221 0.93006
 H1042 H 0.04988 1.04282 0.95307
 H1043 H -0.05600 0.97047 1.05250
 H1044 H -0.02873 0.99571 1.07967
 O1045 O 0.55581 0.54788 0.49860
 O1046 O 0.53502 0.55326 0.45896
 O1047 O 0.49097 0.56179 0.54955
 O1048 O 0.45511 0.54290 0.56056
 O1049 O 0.54484 0.49921 0.56224
 O1050 O 0.54925 0.45806 0.54387
 O1051 O 0.42581 0.49057 0.48976
 O1052 O 0.42764 0.53584 0.50058
 O1053 O 0.48630 0.48396 0.43427
 O1054 O 0.52864 0.48948 0.43245
 O1055 O 0.47902 0.43050 0.49567
 O1056 O 0.48945 0.43149 0.53964
 O1057 O 0.43943 0.45592 0.51116
 O1058 O 0.46065 0.45274 0.55325
 O1059 O 0.49980 0.44312 0.45992
 O1060 O 0.54418 0.46425 0.45596
 O1061 O 0.45036 0.50384 0.44855
 O1062 O 0.44487 0.54434 0.46448
 O1063 O 0.56979 0.51311 0.51972
 O1064 O 0.56813 0.46833 0.51099
 O1065 O 0.51023 0.52155 0.57611
 O1066 O 0.46518 0.50777 0.57560
 O1067 O 0.51492 0.57391 0.51558
 O1068 O 0.50319 0.57217 0.47192
 Zr1069 Zr 0.51704 0.54104 0.49278
 O1070 O 0.49432 0.51836 0.46945
 Zr1071 Zr 0.48614 0.52251 0.54455
 O1072 O 0.46143 0.49958 0.52328
 Zr1073 Zr 0.53708 0.49063 0.52417
 O1074 O 0.51461 0.46577 0.50255
 Zr1075 Zr 0.45827 0.51357 0.48633
 O1076 O 0.48024 0.53862 0.50862
 Zr1077 Zr 0.50910 0.48136 0.46659
 O1078 O 0.53397 0.50508 0.48720
 Zr1079 Zr 0.47789 0.46338 0.51848
 O1080 O 0.50150 0.48562 0.54205
 O1081 O 0.52234 0.52710 0.52902
 O1082 O 0.47256 0.47674 0.48177
 C1083 C 0.57329 0.53449 0.50874
 C1084 C 0.50279 0.57850 0.53636
 C1085 C 0.53212 0.51132 0.57944
 C1086 C 0.42207 0.46900 0.50037
 C1087 C 0.46408 0.49347 0.43101
 C1088 C 0.48854 0.42643 0.47352
 H1089 H 0.49349 0.52644 0.45267
 H1090 H 0.52309 0.44901 0.50152
 H1091 H 0.53327 0.53838 0.53923
 H1092 H 0.44471 0.49906 0.53201
 H1093 H 0.43496 0.55096 0.50898
 H1094 H 0.44033 0.53959 0.54969
 H1095 H 0.54554 0.44785 0.46488
 H1096 H 0.57218 0.47408 0.49361
 H1097 H 0.45950 0.55137 0.45499
 H1098 H 0.48617 0.57639 0.47904
 H1099 H 0.50685 0.42686 0.53395
 H1100 H 0.53511 0.45332 0.55543
 H1101 H 0.54789 0.54024 0.45427
 H1102 H 0.53158 0.50798 0.43257
 H1103 H 0.47416 0.49227 0.58119
 H1104 H 0.44607 0.46427 0.55653
 O1105 O 0.45280 0.00780 0.55070
 O1106 O 0.44812 0.04702 0.52739
 O1107 O 0.44359 -0.04658 0.48803
 O1108 O 0.46476 -0.05852 0.45327
 O1109 O 0.50416 -0.05497 0.54406
 O1110 O 0.54467 -0.03434 0.54864
 O1111 O 0.51574 0.01450 0.42214
 O1112 O 0.47530 -0.00037 0.42030
 O1113 O 0.51691 0.07088 0.47855
 O1114 O 0.50477 0.07236 0.52384
 O1115 O 0.57307 0.01168 0.47880
 O1116 O 0.57426 -0.03108 0.48876
 O1117 O 0.54965 -0.00707 0.43744
 O1118 O 0.55589 -0.04693 0.46158
 O1119 O 0.55752 0.04822 0.49635
 O1120 O 0.53609 0.05586 0.53647
 O1121 O 0.49622 0.05495 0.44444
 O1122 O 0.45700 0.03362 0.43972
 O1123 O 0.48727 -0.01283 0.56617
 O1124 O 0.53098 -0.00105 0.56555
 O1125 O 0.48354 -0.07076 0.50991
 O1126 O 0.49957 -0.07292 0.46622
 O1127 O 0.42874 -0.01170 0.50931
 O1128 O 0.42693 0.02885 0.49827
 Zr1129 Zr 0.46067 0.01197 0.51167
 O1130 O 0.48299 0.03505 0.48793
 Zr1131 Zr 0.48292 -0.04060 0.48407
 O1132 O 0.50621 -0.01968 0.45912
 Zr1133 Zr 0.51147 -0.01697 0.53453
 O1134 O 0.53597 0.00496 0.51187
 Zr1135 Zr 0.49054 0.01648 0.45327
 O1136 O 0.46551 -0.00557 0.47577
 Zr1137 Zr 0.51902 0.04020 0.50384
 O1138 O 0.49559 0.01934 0.52916
 Zr1139 Zr 0.54126 -0.01231 0.47622
 O1140 O 0.51911 -0.03610 0.50010
 O1141 O 0.47589 -0.02357 0.51917
 O1142 O 0.52636 0.02359 0.46836
 C1143 C 0.46555 -0.00201 0.56879
 C1144 C 0.42565 -0.03332 0.49839
 C1145 C 0.49311 -0.07298 0.53199
 C1146 C 0.53744 0.00354 0.41941
 C1147 C 0.50628 0.07329 0.45695
 C1148 C 0.57573 0.03435 0.48752
 H1149 H 0.47384 0.05126 0.48555
 H1150 H 0.55218 0.00685 0.52086
 H1151 H 0.46443 -0.03362 0.53020
 H1152 H 0.50831 -0.02919 0.44300
 H1153 H 0.46117 -0.01137 0.42597
 H1154 H 0.47084 -0.05027 0.43759
 H1155 H 0.54874 0.04347 0.54255
 H1156 H 0.52415 0.01635 0.56805
 H1157 H 0.44251 0.02352 0.44616
 H1158 H 0.43178 0.04009 0.48411
 H1159 H 0.57337 -0.03083 0.50743
 H1160 H 0.54892 -0.04878 0.53720
 H1161 H 0.46146 0.05277 0.53909
 H1162 H 0.48915 0.07810 0.51535
 H1163 H 0.51431 -0.07809 0.47646
 H1164 H 0.54199 -0.05519 0.45234
 O1165 O -0.04720 0.50929 1.05823
 O1166 O -0.05088 0.54972 1.03897
 O1167 O -0.05662 0.45913 0.99370
 O1168 O -0.03683 0.44927 0.95824
 O1169 O 0.00408 0.44656 1.04825
 O1170 O 0.04431 0.46612 1.05500
 O1171 O 0.01557 0.52146 0.93044
 O1172 O -0.02709 0.50948 0.92963
 O1173 O 0.02080 0.57511 0.99003
 O1174 O 0.00935 0.57578 1.03432
 O1175 O 0.07426 0.51377 0.98672
 O1176 O 0.07431 0.47106 0.99267
 O1177 O 0.05051 0.50104 0.94497
 O1178 O 0.05204 0.45643 0.96580
 O1179 O 0.06008 0.54995 1.00613
 O1180 O 0.03790 0.55513 1.04806
 O1181 O 0.00150 0.56101 0.95432
 O1182 O -0.04132 0.54325 0.94978
 O1183 O -0.01257 0.48834 1.07293
 O1184 O 0.03188 0.49875 1.07283
 O1185 O -0.01686 0.43287 1.01332
 O1186 O -0.00086 0.43412 0.96875
 O1187 O -0.07082 0.49377 1.01592
 O1188 O -0.06878 0.53803 1.00593
 Zr1189 Zr -0.03821 0.51640 1.02000
 O1190 O -0.01501 0.54027 0.99793
 Zr1191 Zr -0.01734 0.46476 0.98949
 O1192 O 0.00609 0.48656 0.96545
 Zr1193 Zr 0.01181 0.48497 1.04118
 O1194 O 0.03713 0.50690 1.01945
 Zr1195 Zr -0.00864 0.52343 0.96221
 O1196 O -0.03401 0.50066 0.98337
 Zr1197 Zr 0.02130 0.54311 1.01372
 O1198 O -0.00306 0.52193 1.03779
 Zr1199 Zr 0.04143 0.49156 0.98275
 O1200 O 0.01887 0.46744 1.00580
 O1201 O -0.02384 0.48005 1.02544
 O1202 O 0.02749 0.52819 0.97738
 C1203 C -0.03467 0.49846 1.07587
 C1204 C -0.07423 0.47253 1.00436
 C1205 C -0.00703 0.42937 1.03514
 C1206 C 0.03805 0.51231 0.92753
 C1207 C 0.01249 0.57820 0.96750
 C1208 C 0.07775 0.53593 0.99638
 H1209 H -0.02324 0.55710 0.99668
 H1210 H 0.05351 0.50756 1.02835
 H1211 H -0.03544 0.46951 1.03584
 H1212 H 0.00767 0.47814 0.94870
 H1213 H -0.04183 0.49946 0.93566
 H1214 H -0.03161 0.45907 0.94317
 H1215 H 0.05205 0.54336 1.05177
 H1216 H 0.02521 0.51600 1.07657
 H1217 H -0.04469 0.55768 0.96146
 H1218 H -0.07154 0.53206 0.98836
 H1219 H 0.07332 0.46890 1.01122
 H1220 H 0.04916 0.45299 1.04229
 H1221 H -0.03700 0.55495 1.05032
 H1222 H -0.00778 0.58045 1.02841
 H1223 H 0.01405 0.42821 0.97833
 H1224 H 0.04392 0.45532 0.94905
 O1225 O 0.01447 0.42884 0.51634
 O1226 O 0.00611 0.42766 0.47207
 O1227 O 0.06891 0.49141 0.51906
 O1228 O 0.06918 0.53240 0.51095
 O1229 O 0.00690 0.48523 0.57376
 O1230 O -0.03792 0.49848 0.57115
 O1231 O 0.00016 0.55481 0.45215
 O1232 O 0.04337 0.53756 0.45210
 O1233 O -0.04758 0.49345 0.44325
 O1234 O -0.05372 0.45338 0.46269
 O1235 O -0.06140 0.54606 0.50130
 O1236 O -0.04313 0.55317 0.54382
 O1237 O -0.02210 0.57005 0.48622
 O1238 O -0.01256 0.57226 0.53146
 O1239 O -0.07394 0.50943 0.48259
 O1240 O -0.07088 0.46281 0.49505
 O1241 O -0.01165 0.51290 0.42910
 O1242 O 0.03050 0.50481 0.42945
 O1243 O -0.01061 0.44336 0.54882
 O1244 O -0.04832 0.46436 0.55665
 O1245 O 0.04163 0.50715 0.56026
 O1246 O 0.04363 0.54854 0.53903
 O1247 O 0.05603 0.45391 0.50184
 O1248 O 0.03867 0.44654 0.46040
 Zr1249 Zr 0.01786 0.46029 0.49226
 O1250 O -0.00443 0.48064 0.46662
 Zr1251 Zr 0.03545 0.51326 0.52147
 O1252 O 0.01387 0.53597 0.49695
 Zr1253 Zr -0.01581 0.48223 0.54139
 O1254 O -0.03976 0.50344 0.51783
 Zr1255 Zr 0.01000 0.51745 0.46193
 O1256 O 0.03436 0.49600 0.48526
 Zr1257 Zr -0.04113 0.48639 0.48181
 O1258 O -0.01970 0.46334 0.50634
 Zr1259 Zr -0.02348 0.53925 0.51128
 O1260 O -0.00099 0.51902 0.53739
 O1261 O 0.02109 0.47704 0.52780
 O1262 O -0.02710 0.52280 0.47543
 C1263 C 0.00166 0.42567 0.53693
 C1264 C 0.07295 0.46860 0.51122
 C1265 C 0.02844 0.49590 0.57743
 C1266 C -0.01229 0.57238 0.46398
 C1267 C -0.03365 0.50317 0.42572
 C1268 C -0.07820 0.53213 0.49062
 H1269 H -0.00468 0.47121 0.45037
 H1270 H -0.05679 0.50464 0.52589
 H1271 H 0.03159 0.46655 0.53912
 H1272 H 0.02208 0.55269 0.49486
 H1273 H 0.05794 0.52742 0.45816
 H1274 H 0.06490 0.54401 0.49700
 H1275 H -0.08085 0.47250 0.50791
 H1276 H -0.05825 0.45857 0.54198
 H1277 H 0.03228 0.48622 0.43094
 H1278 H 0.05212 0.45912 0.45669
 H1279 H -0.05682 0.54104 0.54796
 H1280 H -0.03014 0.51505 0.57535
 H1281 H -0.01164 0.42436 0.47748
 H1282 H -0.03949 0.44706 0.45192
 H1283 H 0.03000 0.55188 0.55175
 H1284 H 0.00401 0.57784 0.52448
 O1285 O 0.51224 0.92414 0.00706
 O1286 O 0.50040 0.92405 -0.03719
 O1287 O 0.56759 0.98326 0.01012
 O1288 O 0.56719 1.02752 -0.00250
 O1289 O 0.50829 0.98080 0.06564
 O1290 O 0.46383 0.99292 0.06527
 O1291 O 0.50079 1.05235 -0.05357
 O1292 O 0.54389 1.02889 -0.05695
 O1293 O 0.44911 0.99278 -0.06296
 O1294 O 0.44592 0.94907 -0.04135
 O1295 O 0.43849 1.04318 -0.00192
 O1296 O 0.45902 1.04948 0.03873
 O1297 O 0.47826 1.06680 -0.01928
 O1298 O 0.48967 1.06761 0.02585
 O1299 O 0.42416 1.00731 -0.02112
 O1300 O 0.42337 0.96444 -0.01472
 O1301 O 0.48526 1.01129 -0.07775
 O1302 O 0.52728 1.00299 -0.07950
 O1303 O 0.49150 0.93930 0.04214
 O1304 O 0.45118 0.96004 0.04812
 O1305 O 0.54299 1.00187 0.05074
 O1306 O 0.54875 1.04086 0.03007
 O1307 O 0.55344 0.94815 -0.01072
 O1308 O 0.53310 0.94105 -0.05010
 Zr1309 Zr 0.51482 0.95565 -0.01712
 O1310 O 0.49265 0.97763 -0.04159
 Zr1311 Zr 0.53565 1.00741 0.01222
 O1312 O 0.51369 1.03154 -0.01039
 Zr1313 Zr 0.48444 0.97769 0.03398
 O1314 O 0.46027 0.99988 0.01166
 Zr1315 Zr 0.50822 1.01401 -0.04568
 O1316 O 0.53249 0.99079 -0.02405
 Zr1317 Zr 0.45677 0.98411 -0.02483
 O1318 O 0.47808 0.95975 -0.00120
 Zr1319 Zr 0.47695 1.03553 0.00526
 O1320 O 0.50009 1.01416 0.02985
 O1321 O 0.52040 0.97164 0.01846
 O1322 O 0.47163 1.02029 -0.03094
 C1323 C 0.50243 0.92145 0.02930
 C1324 C 0.57085 0.96116 0.00007
 C1325 C 0.53014 0.99118 0.06848
 C1326 C 0.48900 1.06980 -0.04101
 C1327 C 0.46285 1.00238 -0.08071
 C1328 C 0.42078 1.02955 -0.01138
 H1329 H 0.49159 0.96870 -0.05806
 H1330 H 0.44364 1.00111 0.02052
 H1331 H 0.53122 0.96100 0.02935
 H1332 H 0.52249 1.04800 -0.01197
 H1333 H 0.54625 1.04524 -0.04793
 H1334 H 0.57194 1.01931 -0.01883
 H1335 H 0.42463 0.96106 0.00359
 H1336 H 0.44678 0.94637 0.03599
 H1337 H 0.52859 0.98429 -0.07915
 H1338 H 0.54579 0.95382 -0.05547
 H1339 H 0.44598 1.03702 0.04391
 H1340 H 0.47115 1.00983 0.06889
 H1341 H 0.48353 0.92027 -0.02966
 H1342 H 0.45522 0.94702 -0.05766
 H1343 H 0.53440 1.04745 0.04054
 H1344 H 0.50576 1.07337 0.01795
 O1345 O 0.49114 0.50969 0.07985
 O1346 O 0.53474 0.50436 0.07929
 O1347 O 0.48692 0.56690 0.01857
 O1348 O 0.49644 0.56762 -0.02236
 O1349 O 0.43062 0.50795 0.02425
 O1350 O 0.43097 0.46377 0.01344
 O1351 O 0.55081 0.49687 -0.04953
 O1352 O 0.55429 0.53807 -0.03126
 O1353 O 0.55927 0.44609 0.00999
 O1354 O 0.53743 0.44403 0.05444
 O1355 O 0.49938 0.43638 -0.03881
 O1356 O 0.45836 0.45681 -0.04477
 O1357 O 0.51573 0.47631 -0.06336
 O1358 O 0.47024 0.48769 -0.06272
 O1359 O 0.51800 0.42221 -0.00293
 O1360 O 0.51004 0.42249 0.04013
 O1361 O 0.57428 0.48104 -0.01014
 O1362 O 0.57542 0.52459 0.00148
 O1363 O 0.45508 0.49111 0.06566
 O1364 O 0.44918 0.45105 0.04545
 O1365 O 0.44527 0.54192 0.00216
 O1366 O 0.46655 0.54440 -0.03855
 O1367 O 0.50616 0.55293 0.05419
 O1368 O 0.54771 0.53273 0.05775
 Zr1369 Zr 0.51389 0.51425 0.04696
 O1370 O 0.53829 0.49046 0.02531
 Zr1371 Zr 0.48399 0.53416 -0.00416
 O1372 O 0.50724 0.51150 -0.02810
 Zr1373 Zr 0.46266 0.48400 0.02707
 O1374 O 0.48481 0.45913 0.00447
 Zr1375 Zr 0.54262 0.50534 -0.01132
 O1376 O 0.52053 0.53075 0.01130
 Zr1377 Zr 0.52123 0.45500 0.01968
 O1378 O 0.49809 0.47762 0.04410
 Zr1379 Zr 0.49141 0.47502 -0.03141
 O1380 O 0.46658 0.49869 -0.00970
 O1381 O 0.47792 0.51998 0.03213
 O1382 O 0.52753 0.46910 -0.01671
 C1383 C 0.46896 0.50004 0.08340
 C1384 C 0.49615 0.57043 0.04070
 C1385 C 0.42752 0.52936 0.01315
 C1386 C 0.53795 0.48572 -0.06686
 C1387 C 0.57697 0.45863 -0.00120
 C1388 C 0.50897 0.41881 -0.02512
 H1389 H 0.55468 0.48865 0.03402
 H1390 H 0.47584 0.44275 0.00342
 H1391 H 0.46697 0.53095 0.04306
 H1392 H 0.50916 0.51994 -0.04467
 H1393 H 0.54814 0.55298 -0.02136
 H1394 H 0.50928 0.56256 -0.03531
 H1395 H 0.49151 0.42076 0.03804
 H1396 H 0.46237 0.44598 0.05762
 H1397 H 0.57896 0.51895 0.01889
 H1398 H 0.55182 0.54510 0.04429
 H1399 H 0.45300 0.44428 -0.03192
 H1400 H 0.42807 0.46976 -0.00401
 H1401 H 0.53711 0.48576 0.07832
 H1402 H 0.55486 0.45096 0.05511
 H1403 H 0.45386 0.53115 -0.04240
 H1404 H 0.47818 0.50348 -0.06898
 O1405 O -0.07208 0.01065 0.51908
 O1406 O -0.07260 -0.03330 0.50893
 O1407 O -0.01162 0.01186 0.57506
 O1408 O 0.02936 0.00539 0.57643
 O1409 O -0.01550 0.06869 0.51450
 O1410 O -0.00313 0.06741 0.47106
 O1411 O 0.05542 -0.05345 0.50645
 O1412 O 0.03688 -0.05550 0.54757
 O1413 O -0.00369 -0.06114 0.45554
 O1414 O -0.04502 -0.04046 0.45009
 O1415 O 0.04847 -0.00275 0.44629
 O1416 O 0.05484 0.03879 0.46620
 O1417 O 0.07091 -0.01899 0.48582
 O1418 O 0.07169 0.02669 0.49769
 O1419 O 0.01265 -0.02168 0.43189
 O1420 O -0.03290 -0.00925 0.43270
 O1421 O 0.01500 -0.07601 0.49112
 O1422 O 0.00282 -0.07541 0.53511
 O1423 O -0.05677 0.04453 0.49729
 O1424 O -0.03511 0.04890 0.45759
 O1425 O 0.00450 0.05447 0.54960
 O1426 O 0.04622 0.03273 0.55218
 O1427 O -0.04806 -0.00618 0.56087
 O1428 O -0.05394 -0.04651 0.54078
 Zr1429 Zr -0.04041 -0.01369 0.52224
 O1430 O -0.01886 -0.03890 0.49935
 Zr1431 Zr 0.01132 0.01559 0.54242
 O1432 O 0.03516 -0.00881 0.52084
 Zr1433 Zr -0.01808 0.03624 0.49129
 O1434 O 0.00474 0.01328 0.46732
 Zr1435 Zr 0.01735 -0.04389 0.51485
 O1436 O -0.00516 -0.02074 0.53936
 Zr1437 Zr -0.01180 -0.02276 0.46371
 O1438 O -0.03618 0.00118 0.48551
 Zr1439 Zr 0.03993 0.00628 0.48434
 O1440 O 0.01824 0.03210 0.50688
 O1441 O -0.02447 0.02198 0.52746
 O1442 O 0.02407 -0.02952 0.47867
 C1443 C -0.07479 0.03221 0.50818
 C1444 C -0.03401 0.00280 0.57847
 C1445 C -0.00577 0.07207 0.53642
 C1446 C 0.07332 -0.04133 0.49506
 C1447 C 0.00643 -0.07884 0.46865
 C1448 C 0.03533 -0.01327 0.42885
 H1449 H -0.02807 -0.05513 0.49782
 H1450 H 0.00670 0.02178 0.45079
 H1451 H -0.03532 0.03310 0.53834
 H1452 H 0.05150 -0.01107 0.52958
 H1453 H 0.02745 -0.04830 0.56234
 H1454 H 0.04040 -0.00939 0.57250
 H1455 H -0.02437 0.00615 0.42624
 H1456 H -0.04694 0.03539 0.45222
 H1457 H -0.01411 -0.07954 0.52840
 H1458 H -0.04037 -0.05198 0.55237
 H1459 H 0.04268 0.04399 0.45308
 H1460 H 0.01436 0.07000 0.47720
 H1461 H -0.07477 -0.02815 0.49110
 H1462 H -0.05019 -0.05357 0.46241
 H1463 H 0.04972 0.04603 0.53946
 H1464 H 0.07745 0.01850 0.51341
 O1465 O 0.67625 0.24161 0.25970
 O1466 O 0.67819 0.25050 0.21592
 O1467 O 0.73493 0.18259 0.26346
 O1468 O 0.77625 0.17978 0.25522
 O1469 O 0.73353 0.24376 0.32077
 O1470 O 0.74050 0.28640 0.32128
 O1471 O 0.80692 0.24927 0.20134
 O1472 O 0.78753 0.20864 0.19770
 O1473 O 0.74827 0.30220 0.19267
 O1474 O 0.70573 0.30850 0.21290
 O1475 O 0.79841 0.30945 0.25118
 O1476 O 0.80039 0.28808 0.29538
 O1477 O 0.82146 0.26768 0.23746
 O1478 O 0.82134 0.26007 0.28054
 O1479 O 0.76326 0.32538 0.23241
 O1480 O 0.71808 0.32641 0.24371
 O1481 O 0.76811 0.26655 0.17773
 O1482 O 0.75519 0.22329 0.17623
 O1483 O 0.69084 0.26016 0.29576
 O1484 O 0.71243 0.30111 0.29976
 O1485 O 0.75059 0.20677 0.30565
 O1486 O 0.79239 0.20217 0.28569
 O1487 O 0.69993 0.19841 0.24422
 O1488 O 0.69700 0.21809 0.20352
 Zr1489 Zr 0.70904 0.23652 0.23698
 O1490 O 0.73204 0.25890 0.21318
 Zr1491 Zr 0.75890 0.21419 0.26738
 O1492 O 0.78418 0.23539 0.24474
 Zr1493 Zr 0.72966 0.26641 0.28837
 O1494 O 0.75379 0.29001 0.26687
 Zr1495 Zr 0.76826 0.24224 0.20915
 O1496 O 0.74421 0.21815 0.23066
 Zr1497 Zr 0.73870 0.29422 0.23050
 O1498 O 0.71306 0.27300 0.25299
 Zr1499 Zr 0.78888 0.27182 0.26059
 O1500 O 0.76590 0.24952 0.28490
 O1501 O 0.72322 0.23054 0.27306
 O1502 O 0.77468 0.27823 0.22455
 C1503 C 0.67304 0.25137 0.28187
 C1504 C 0.71260 0.18026 0.25423
 C1505 C 0.74217 0.22113 0.32365
 C1506 C 0.82465 0.25861 0.21500
 C1507 C 0.75951 0.28922 0.17511
 C1508 C 0.78595 0.32745 0.24067
 H1509 H 0.72360 0.26089 0.19672
 H1510 H 0.75578 0.30646 0.27574
 H1511 H 0.71190 0.22012 0.28388
 H1512 H 0.80046 0.22606 0.24315
 H1513 H 0.77707 0.19420 0.20361
 H1514 H 0.78962 0.18409 0.24267
 H1515 H 0.72533 0.33170 0.26010
 H1516 H 0.69975 0.30536 0.28676
 H1517 H 0.73796 0.22966 0.17258
 H1518 H 0.71053 0.20578 0.19870
 H1519 H 0.79331 0.30550 0.29654
 H1520 H 0.75925 0.28699 0.32074
 H1521 H 0.67619 0.26862 0.22070
 H1522 H 0.70210 0.29753 0.19809
 H1523 H 0.79560 0.21442 0.29960
 H1524 H 0.82221 0.24139 0.27895
 O1525 O 0.75615 0.70099 0.69038
 O1526 O 0.79370 0.68944 0.71187
 O1527 O 0.70079 0.69253 0.75239
 O1528 O 0.69608 0.70926 0.79147
 O1529 O 0.69686 0.75712 0.70321
 O1530 O 0.72080 0.79549 0.70014
 O1531 O 0.76905 0.75375 0.82216
 O1532 O 0.75213 0.71100 0.81913
 O1533 O 0.82520 0.75630 0.76426
 O1534 O 0.82522 0.74484 0.71839
 O1535 O 0.77177 0.81505 0.76941
 O1536 O 0.72651 0.81913 0.75861
 O1537 O 0.75383 0.79171 0.80870
 O1538 O 0.71292 0.80199 0.78908
 O1539 O 0.80479 0.79875 0.74654
 O1540 O 0.81093 0.77725 0.70670
 O1541 O 0.80866 0.73453 0.79759
 O1542 O 0.78767 0.69770 0.80251
 O1543 O 0.73680 0.73746 0.67794
 O1544 O 0.75186 0.77990 0.68014
 O1545 O 0.68010 0.73798 0.73807
 O1546 O 0.68097 0.74582 0.78197
 O1547 O 0.73414 0.67611 0.72979
 O1548 O 0.77787 0.67118 0.74176
 Zr1549 Zr 0.76112 0.70552 0.72961
 O1550 O 0.78676 0.72434 0.75348
 Zr1551 Zr 0.71162 0.73002 0.76083
 O1552 O 0.73511 0.75018 0.78597
 Zr1553 Zr 0.73582 0.75997 0.71103
 O1554 O 0.76058 0.78116 0.73382
 Zr1555 Zr 0.76994 0.73102 0.78922
 O1556 O 0.74535 0.70915 0.76633
 Zr1557 Zr 0.79444 0.76079 0.73941
 O1558 O 0.77090 0.74082 0.71388
 Zr1559 Zr 0.74493 0.78552 0.77043
 O1560 O 0.71869 0.76667 0.74674
 O1561 O 0.72666 0.72419 0.72460
 O1562 O 0.77957 0.76705 0.77584
 C1563 C 0.74653 0.71546 0.67353
 C1564 C 0.71202 0.67439 0.74020
 C1565 C 0.67808 0.74880 0.71646
 C1566 C 0.76199 0.77685 0.82596
 C1567 C 0.82726 0.74477 0.78552
 C1568 C 0.79369 0.81703 0.75859
 H1569 H 0.80232 0.71390 0.75488
 H1570 H 0.76359 0.79762 0.72547
 H1571 H 0.71504 0.71496 0.71320
 H1572 H 0.72630 0.75203 0.80253
 H1573 H 0.74277 0.69663 0.81148
 H1574 H 0.70432 0.71524 0.80714
 H1575 H 0.79907 0.79049 0.70078
 H1576 H 0.76843 0.77172 0.67618
 H1577 H 0.78960 0.68622 0.78775
 H1578 H 0.76864 0.66594 0.75731
 H1579 H 0.73474 0.82459 0.74262
 H1580 H 0.70936 0.80124 0.71410
 H1581 H 0.80236 0.70348 0.70298
 H1582 H 0.83044 0.72894 0.72676
 H1583 H 0.68304 0.76442 0.78110
 H1584 H 0.70838 0.79125 0.80374
 O1585 O 0.30071 0.19494 0.74500
 O1586 O 0.30829 0.21783 0.70664
 O1587 O 0.30711 0.25820 0.79943
 O1588 O 0.28697 0.29499 0.80630
 O1589 O 0.24678 0.20312 0.80742
 O1590 O 0.20747 0.19644 0.78513
 O1591 O 0.23597 0.32183 0.73454
 O1592 O 0.27856 0.32351 0.75067
 O1593 O 0.23760 0.26399 0.67924
 O1594 O 0.25308 0.21772 0.68083
 O1595 O 0.18015 0.26445 0.73619
 O1596 O 0.18092 0.25095 0.78276
 O1597 O 0.20153 0.30603 0.75546
 O1598 O 0.19217 0.28591 0.79220
 O1599 O 0.19665 0.24338 0.70195
 O1600 O 0.21828 0.20740 0.69309
 O1601 O 0.25714 0.29912 0.69472
 O1602 O 0.29347 0.30801 0.71490
 O1603 O 0.26708 0.17973 0.76734
 O1604 O 0.22345 0.17766 0.75438
 O1605 O 0.26599 0.23855 0.82261
 O1606 O 0.25075 0.28200 0.82226
 O1607 O 0.32306 0.23578 0.76572
 O1608 O 0.32524 0.24860 0.72182
 Zr1609 Zr 0.29266 0.23379 0.74030
 O1610 O 0.27087 0.25637 0.71605
 Zr1611 Zr 0.26839 0.26277 0.79124
 O1612 O 0.24506 0.28608 0.76913
 Zr1613 Zr 0.24143 0.21051 0.76873
 O1614 O 0.21743 0.23155 0.74519
 Zr1615 Zr 0.26191 0.29137 0.73335
 O1616 O 0.28691 0.27021 0.75638
 Zr1617 Zr 0.23545 0.23916 0.71034
 O1618 O 0.25833 0.21494 0.73261
 Zr1619 Zr 0.21070 0.26760 0.76134
 O1620 O 0.23272 0.24554 0.78645
 O1621 O 0.27627 0.22721 0.77562
 O1622 O 0.22672 0.27493 0.72570
 C1623 C 0.28900 0.17706 0.75661
 C1624 C 0.32521 0.24675 0.78737
 C1625 C 0.25667 0.21626 0.82535
 C1626 C 0.21387 0.32415 0.74486
 C1627 C 0.24773 0.28596 0.67655
 C1628 C 0.17807 0.25340 0.71457
 H1629 H 0.28064 0.25865 0.70012
 H1630 H 0.20167 0.22173 0.74297
 H1631 H 0.28706 0.21662 0.78655
 H1632 H 0.24227 0.30238 0.77815
 H1633 H 0.29388 0.31749 0.75958
 H1634 H 0.27899 0.31027 0.79902
 H1635 H 0.21544 0.19496 0.70672
 H1636 H 0.23245 0.17290 0.73844
 H1637 H 0.30706 0.29505 0.71482
 H1638 H 0.33025 0.26410 0.73121
 H1639 H 0.17402 0.23669 0.77271
 H1640 H 0.20156 0.20928 0.79771
 H1641 H 0.29568 0.20559 0.70017
 H1642 H 0.26668 0.22823 0.67323
 H1643 H 0.23525 0.27240 0.82686
 H1644 H 0.20566 0.29201 0.80350
 O1645 O 0.18812 0.74727 0.29622
 O1646 O 0.20940 0.70816 0.30328
 O1647 O 0.24917 0.80078 0.30726
 O1648 O 0.28807 0.80668 0.29054
 O1649 O 0.19928 0.80880 0.24406
 O1650 O 0.19632 0.78754 0.20405
 O1651 O 0.31926 0.73483 0.23968
 O1652 O 0.31795 0.75008 0.28243
 O1653 O 0.26174 0.68040 0.23484
 O1654 O 0.21595 0.68017 0.24570
 O1655 O 0.26663 0.73764 0.17999
 O1656 O 0.25474 0.78333 0.17957
 O1657 O 0.30566 0.75411 0.20396
 O1658 O 0.28548 0.79545 0.19712
 O1659 O 0.24636 0.70261 0.19461
 O1660 O 0.20405 0.69750 0.21461
 O1661 O 0.29553 0.69545 0.25666
 O1662 O 0.29971 0.71530 0.29626
 O1663 O 0.17468 0.76707 0.26059
 O1664 O 0.17692 0.75578 0.21716
 O1665 O 0.23422 0.82436 0.26371
 O1666 O 0.27836 0.82362 0.25498
 O1667 O 0.22807 0.76608 0.32168
 O1668 O 0.24042 0.72245 0.32251
 Zr1669 Zr 0.22726 0.74151 0.29009
 O1670 O 0.25117 0.71689 0.26904
 Zr1671 Zr 0.25760 0.79234 0.26903
 O1672 O 0.28299 0.76993 0.24701
 Zr1673 Zr 0.20775 0.77015 0.23803
 O1674 O 0.23082 0.74675 0.21469
 Zr1675 Zr 0.28681 0.73389 0.26331
 O1676 O 0.26383 0.75736 0.28712
 Zr1677 Zr 0.23692 0.71172 0.23242
 O1678 O 0.21126 0.73404 0.25448
 Zr1679 Zr 0.26723 0.76263 0.21130
 O1680 O 0.24322 0.78764 0.23228
 O1681 O 0.22154 0.77705 0.27415
 O1682 O 0.27312 0.72690 0.22700
 C1683 C 0.17082 0.75693 0.28232
 C1684 C 0.23780 0.78819 0.32479
 C1685 C 0.21241 0.82700 0.25340
 C1686 C 0.32287 0.74344 0.21723
 C1687 C 0.28346 0.67768 0.24528
 C1688 C 0.25778 0.71513 0.17710
 H1689 H 0.25252 0.70061 0.27808
 H1690 H 0.22262 0.74470 0.19808
 H1691 H 0.21005 0.78809 0.28443
 H1692 H 0.29958 0.77858 0.24561
 H1693 H 0.31094 0.75938 0.29736
 H1694 H 0.30392 0.79886 0.28382
 H1695 H 0.20008 0.70879 0.20030
 H1696 H 0.17423 0.73814 0.22292
 H1697 H 0.28571 0.70469 0.30287
 H1698 H 0.25733 0.72959 0.32632
 H1699 H 0.23910 0.77516 0.17334
 H1700 H 0.21013 0.79924 0.19902
 H1701 H 0.19916 0.70158 0.28910
 H1702 H 0.22345 0.67467 0.26184
 H1703 H 0.27586 0.82367 0.23649
 H1704 H 0.29970 0.79963 0.20845
 O1705 O 0.17890 0.73439 0.76379
 O1706 O 0.18012 0.74470 0.71983
 O1707 O 0.23789 0.67589 0.76576
 O1708 O 0.27917 0.67316 0.75750
 O1709 O 0.23488 0.73580 0.82314
 O1710 O 0.24624 0.77978 0.82309
 O1711 O 0.30881 0.74061 0.70355
 O1712 O 0.28622 0.70060 0.69922
 O1713 O 0.24952 0.79551 0.69507
 O1714 O 0.20773 0.80192 0.71634
 O1715 O 0.29992 0.80343 0.75637
 O1716 O 0.30812 0.78373 0.79357
 O1717 O 0.32317 0.76248 0.73775
 O1718 O 0.32078 0.74880 0.78447
 O1719 O 0.26591 0.81848 0.73493
 O1720 O 0.22110 0.81998 0.74676
 O1721 O 0.26981 0.76019 0.68010
 O1722 O 0.25719 0.71925 0.67688
 O1723 O 0.19403 0.75320 0.79948
 O1724 O 0.21505 0.79356 0.80395
 O1725 O 0.25372 0.69974 0.80784
 O1726 O 0.29585 0.69574 0.78680
 O1727 O 0.20218 0.69185 0.74782
 O1728 O 0.19800 0.71154 0.70713
 Zr1729 Zr 0.21114 0.72997 0.74016
 O1730 O 0.23383 0.75222 0.71596
 Zr1731 Zr 0.26174 0.70754 0.76953
 O1732 O 0.28664 0.72864 0.74636
 Zr1733 Zr 0.23266 0.75948 0.79134
 O1734 O 0.25642 0.78282 0.76943
 Zr1735 Zr 0.26989 0.73554 0.71123
 O1736 O 0.24614 0.71156 0.73313
 Zr1737 Zr 0.24102 0.78748 0.73321
 O1738 O 0.21559 0.76639 0.75620
 Zr1739 Zr 0.29155 0.76488 0.76250
 O1740 O 0.26886 0.74275 0.78736
 O1741 O 0.22616 0.72381 0.77577
 O1742 O 0.27694 0.77146 0.72659
 C1743 C 0.17611 0.74369 0.78621
 C1744 C 0.21523 0.67367 0.75734
 C1745 C 0.24373 0.71324 0.82576
 C1746 C 0.32646 0.75139 0.71622
 C1747 C 0.26075 0.78267 0.67738
 C1748 C 0.28753 0.82124 0.74545
 H1749 H 0.22520 0.75418 0.69958
 H1750 H 0.25844 0.79911 0.77857
 H1751 H 0.21499 0.71325 0.78658
 H1752 H 0.30280 0.71917 0.74447
 H1753 H 0.27444 0.68693 0.70448
 H1754 H 0.29057 0.67725 0.74309
 H1755 H 0.22815 0.82463 0.76342
 H1756 H 0.20316 0.79870 0.79053
 H1757 H 0.23845 0.72002 0.67722
 H1758 H 0.21073 0.69831 0.70259
 H1759 H 0.29392 0.78934 0.80471
 H1760 H 0.26263 0.77191 0.82770
 H1761 H 0.17743 0.76232 0.72601
 H1762 H 0.20331 0.79052 0.70210
 H1763 H 0.29920 0.70785 0.80078
 H1764 H 0.32874 0.73487 0.77444
 O1765 O 0.25678 0.20355 0.19187
 O1766 O 0.29291 0.19244 0.21515
 O1767 O 0.19893 0.19483 0.25226
 O1768 O 0.19116 0.21281 0.28994
 O1769 O 0.19530 0.25910 0.20151
 O1770 O 0.21916 0.29720 0.19756
 O1771 O 0.26247 0.25917 0.32295
 O1772 O 0.24692 0.21596 0.32014
 O1773 O 0.32113 0.26171 0.26721
 O1774 O 0.32309 0.24951 0.22145
 O1775 O 0.26628 0.31926 0.26948
 O1776 O 0.22171 0.32240 0.25641
 O1777 O 0.24617 0.29622 0.30825
 O1778 O 0.20649 0.30492 0.28608
 O1779 O 0.30061 0.30329 0.24833
 O1780 O 0.30870 0.28163 0.20895
 O1781 O 0.30384 0.24017 0.30033
 O1782 O 0.28375 0.20337 0.30536
 O1783 O 0.23652 0.23892 0.17786
 O1784 O 0.25119 0.28167 0.17962
 O1785 O 0.17799 0.23820 0.23510
 O1786 O 0.17748 0.25019 0.27934
 O1787 O 0.23321 0.17896 0.23069
 O1788 O 0.27667 0.17532 0.24512
 Zr1789 Zr 0.25968 0.20884 0.23123
 O1790 O 0.28391 0.22878 0.25565
 Zr1791 Zr 0.20847 0.23286 0.25976
 O1792 O 0.23048 0.25392 0.28540
 Zr1793 Zr 0.23408 0.26229 0.21030
 O1794 O 0.25728 0.28454 0.23373
 Zr1795 Zr 0.26554 0.23577 0.29057
 O1796 O 0.24233 0.21286 0.26720
 Zr1797 Zr 0.29129 0.26511 0.24116
 O1798 O 0.26938 0.24400 0.21510
 Zr1799 Zr 0.23997 0.28922 0.26957
 O1800 O 0.21529 0.26932 0.24508
 O1801 O 0.22515 0.22662 0.22431
 O1802 O 0.27479 0.27176 0.27686
 C1803 C 0.24719 0.21720 0.17432
 C1804 C 0.21084 0.17686 0.24045
 C1805 C 0.17646 0.24947 0.21375
 C1806 C 0.25416 0.28195 0.32607
 C1807 C 0.32263 0.25054 0.28867
 C1808 C 0.28866 0.32145 0.25973
 H1809 H 0.29962 0.21872 0.25781
 H1810 H 0.26031 0.30094 0.22526
 H1811 H 0.21426 0.21685 0.21263
 H1812 H 0.22090 0.25575 0.30152
 H1813 H 0.23823 0.20122 0.31238
 H1814 H 0.19925 0.21850 0.30578
 H1815 H 0.29671 0.29434 0.20225
 H1816 H 0.26798 0.27358 0.17655
 H1817 H 0.28566 0.19119 0.29117
 H1818 H 0.26650 0.16993 0.26004
 H1819 H 0.23060 0.32778 0.24074
 H1820 H 0.20771 0.30364 0.21120
 H1821 H 0.30276 0.20664 0.20792
 H1822 H 0.32879 0.23426 0.23064
 H1823 H 0.17526 0.26731 0.27206
 H1824 H 0.20030 0.29303 0.29917
 O1825 O 0.79530 0.69537 0.24165
 O1826 O 0.80086 0.71609 0.20217
 O1827 O 0.80763 0.75897 0.29344
 O1828 O 0.78834 0.79444 0.30546
 O1829 O 0.74473 0.70528 0.30428
 O1830 O 0.70329 0.70322 0.28545
 O1831 O 0.73972 0.82659 0.23409
 O1832 O 0.78224 0.82509 0.24554
 O1833 O 0.73245 0.76888 0.17801
 O1834 O 0.74246 0.72370 0.17614
 O1835 O 0.67803 0.77256 0.23808
 O1836 O 0.67781 0.76279 0.28188
 O1837 O 0.70337 0.81273 0.25315
 O1838 O 0.69838 0.79148 0.29550
 O1839 O 0.69229 0.75329 0.20197
 O1840 O 0.71257 0.71087 0.19495
 O1841 O 0.75371 0.80316 0.19306
 O1842 O 0.79585 0.80575 0.21159
 O1843 O 0.75908 0.68137 0.26080
 O1844 O 0.71471 0.68369 0.25406
 O1845 O 0.76649 0.73930 0.31923
 O1846 O 0.75231 0.78434 0.31946
 O1847 O 0.82098 0.73599 0.25901
 O1848 O 0.82063 0.74763 0.21555
 Zr1849 Zr 0.78865 0.73432 0.23605
 O1850 O 0.76731 0.75828 0.21272
 Zr1851 Zr 0.76846 0.76421 0.28826
 O1852 O 0.74655 0.78970 0.26704
 Zr1853 Zr 0.73700 0.71444 0.26647
 O1854 O 0.71337 0.73767 0.24454
 Zr1855 Zr 0.76223 0.79376 0.23057
 O1856 O 0.78605 0.77074 0.25279
 Zr1857 Zr 0.73040 0.74401 0.20896
 O1858 O 0.75271 0.71818 0.22980
 Zr1859 Zr 0.71039 0.77409 0.26104
 O1860 O 0.73151 0.74968 0.28478
 O1861 O 0.77343 0.72837 0.27205
 O1862 O 0.72550 0.78017 0.22486
 C1863 C 0.78121 0.67770 0.25079
 C1864 C 0.82488 0.74766 0.28004
 C1865 C 0.75626 0.71736 0.32190
 C1866 C 0.71732 0.83016 0.24334
 C1867 C 0.74216 0.79105 0.17547
 C1868 C 0.67470 0.76365 0.21567
 H1869 H 0.77599 0.75973 0.19610
 H1870 H 0.69667 0.72932 0.24308
 H1871 H 0.78439 0.71703 0.28209
 H1872 H 0.74567 0.80619 0.27606
 H1873 H 0.79616 0.81808 0.25583
 H1874 H 0.78463 0.80990 0.29565
 H1875 H 0.69718 0.70781 0.20542
 H1876 H 0.71622 0.68355 0.23540
 H1877 H 0.79951 0.79386 0.19740
 H1878 H 0.82404 0.76499 0.22195
 H1879 H 0.67392 0.74515 0.27671
 H1880 H 0.69946 0.71644 0.29841
 H1881 H 0.78646 0.70560 0.19641
 H1882 H 0.75934 0.73021 0.17100
 H1883 H 0.73642 0.77552 0.32429
 H1884 H 0.70981 0.80592 0.29896
 O1885 O 0.70239 0.30784 0.74245
 O1886 O 0.69974 0.28852 0.70135
 O1887 O 0.69125 0.24655 0.79265
 O1888 O 0.70877 0.20864 0.80004
 O1889 O 0.75340 0.29820 0.80418
 O1890 O 0.79376 0.30388 0.78439
 O1891 O 0.76305 0.17890 0.72900
 O1892 O 0.72035 0.17862 0.74149
 O1893 O 0.76957 0.23785 0.67569
 O1894 O 0.76024 0.28178 0.67480
 O1895 O 0.82272 0.23436 0.73684
 O1896 O 0.82144 0.24225 0.78027
 O1897 O 0.79783 0.19328 0.74962
 O1898 O 0.79977 0.21425 0.79361
 O1899 O 0.80949 0.25368 0.70094
 O1900 O 0.78804 0.29607 0.69583
 O1901 O 0.74918 0.20256 0.68953
 O1902 O 0.70655 0.19852 0.70807
 O1903 O 0.73720 0.32248 0.76301
 O1904 O 0.78191 0.32177 0.75181
 O1905 O 0.73155 0.26374 0.81798
 O1906 O 0.74510 0.21905 0.81686
 O1907 O 0.67796 0.26552 0.75670
 O1908 O 0.68058 0.25600 0.71255
 Zr1909 Zr 0.71108 0.26949 0.73447
 O1910 O 0.73405 0.24661 0.71066
 Zr1911 Zr 0.73019 0.23951 0.78600
 O1912 O 0.75353 0.21474 0.76419
 Zr1913 Zr 0.76110 0.29046 0.76574
 O1914 O 0.78612 0.26796 0.74373
 Zr1915 Zr 0.73938 0.21097 0.72739
 O1916 O 0.71403 0.23296 0.75016
 Zr1917 Zr 0.77074 0.26187 0.70771
 O1918 O 0.74669 0.28677 0.72890
 Zr1919 Zr 0.78941 0.23142 0.75909
 O1920 O 0.76689 0.25514 0.78318
 O1921 O 0.72505 0.27529 0.77066
 O1922 O 0.77595 0.22561 0.72253
 C1923 C 0.71514 0.32544 0.75337
 C1924 C 0.67392 0.25661 0.77893
 C1925 C 0.74162 0.28569 0.82145
 C1926 C 0.78528 0.17583 0.73818
 C1927 C 0.76048 0.21551 0.67225
 C1928 C 0.82669 0.24373 0.71479
 H1929 H 0.72597 0.24527 0.69393
 H1930 H 0.80261 0.27675 0.74289
 H1931 H 0.71373 0.28603 0.78138
 H1932 H 0.75462 0.19804 0.77255
 H1933 H 0.70567 0.18491 0.75169
 H1934 H 0.71564 0.19301 0.79196
 H1935 H 0.80234 0.29964 0.70728
 H1936 H 0.77523 0.32551 0.73479
 H1937 H 0.70327 0.21029 0.69398
 H1938 H 0.67720 0.23843 0.71818
 H1939 H 0.82387 0.26063 0.77756
 H1940 H 0.79876 0.29054 0.79648
 H1941 H 0.71352 0.30052 0.69699
 H1942 H 0.74227 0.27774 0.67148
 H1943 H 0.76111 0.22747 0.82170
 H1944 H 0.79004 0.19833 0.79539
 C1945 C 0.02940 1.00697 1.12234
 C1946 C 0.04000 1.00582 1.14635
 C1947 C 0.06569 1.01132 1.14986
 C1948 C 0.08067 1.01952 1.12896
 C1949 C 0.06986 1.02080 1.10452
 C1950 C 0.04418 1.01362 1.10113
 C1951 C 0.08505 1.02986 1.08442
 N1952 N 0.10945 1.03668 1.08857
 N1953 N 0.11966 1.03521 1.11144
 C1954 C 0.10613 1.02693 1.13177
 H1955 H 0.00967 1.00169 1.12017
 H1956 H 0.02828 0.99975 1.16219
 H1957 H 0.07768 1.03212 1.06559
 H1958 H 0.11529 1.02658 1.14997
 C1959 C 0.52825 0.50722 0.62595
 C1960 C 0.53863 0.50586 0.65006
 C1961 C 0.56444 0.51069 0.65372
 C1962 C 0.57979 0.51849 0.63297
 C1963 C 0.56923 0.51999 0.60847
 C1964 C 0.54342 0.51340 0.60486
 C1965 C 0.58484 0.52859 0.58848
 N1966 N 0.60940 0.53471 0.59279
 N1967 N 0.61938 0.53301 0.61574
 C1968 C 0.60543 0.52518 0.63597
 H1969 H 0.50844 0.50236 0.62359
 H1970 H 0.52666 0.50009 0.66583
 H1971 H 0.57768 0.53101 0.56959
 H1972 H 0.61444 0.52461 0.65425
 C1973 C 0.44435 -0.02302 0.60474
 C1974 C 0.43328 -0.02278 0.62885
 C1975 C 0.43225 -0.00038 0.64336
 C1976 C 0.44259 0.02228 0.63334
 C1977 C 0.45402 0.02196 0.60887
 C1978 C 0.45448 -0.00082 0.59445
 C1979 C 0.46477 0.04454 0.59967
 N1980 N 0.46338 0.06612 0.61382
 N1981 N 0.45202 0.06660 0.63651
 C1982 C 0.44154 0.04548 0.64673
 H1983 H 0.44476 -0.04060 0.59391
 H1984 H 0.42532 -0.04021 0.63624
 H1985 H 0.47439 0.04519 0.58148
 H1986 H 0.43244 0.04710 0.66515
 C1987 C -0.03250 0.50731 1.12173
 C1988 C -0.04307 0.50844 1.14605
 C1989 C -0.06772 0.49967 1.15074
 C1990 C -0.08204 0.48949 1.13053
 C1991 C -0.07125 0.48827 1.10579
 C1992 C -0.04640 0.49767 1.10138
 C1993 C -0.08562 0.47719 1.08636
 N1994 N -0.10944 0.46873 1.09136
 N1995 N -0.11982 0.47051 1.11444
 C1996 C -0.10698 0.48061 1.13417
 H1997 H -0.01346 0.51452 1.11866
 H1998 H -0.03194 0.51621 1.16137
 H1999 H -0.07809 0.47489 1.06736
 H2000 H -0.11642 0.48160 1.15248
 C2001 C -0.06584 0.51624 0.39512
 C2002 C -0.07728 0.51498 0.37161
 C2003 C -0.06670 0.50035 0.35162
 C2004 C -0.04414 0.48606 0.35616
 C2005 C -0.03252 0.48747 0.38030
 C2006 C -0.04362 0.50265 0.39980
 C2007 C -0.01076 0.47258 0.38455
 N2008 N -0.00151 0.45700 0.36605
 N2009 N -0.01279 0.45499 0.34373
 C2010 C -0.03387 0.46864 0.33828
 H2011 H -0.07432 0.52816 0.40976
 H2012 H -0.09425 0.52629 0.36884
 H2013 H -0.00128 0.47275 0.40252
 H2014 H -0.04272 0.46502 0.32031
 C2015 C 0.43116 1.01714 -0.11162
 C2016 C 0.42090 1.01756 -0.13586
 C2017 C 0.43175 1.00304 -0.15561
 C2018 C 0.45365 0.98819 -0.15100
 C2019 C 0.46401 0.98763 -0.12638
 C2020 C 0.45264 1.00233 -0.10659
 C2021 C 0.48510 0.97176 -0.12227
 N2022 N 0.49546 0.95812 -0.14174
 N2023 N 0.48609 0.95915 -0.16500
 C2024 C 0.46555 0.97368 -0.17030
 H2025 H 0.42228 1.02842 -0.09667
 H2026 H 0.40402 1.02885 -0.13912
 H2027 H 0.49328 0.96980 -0.10378
 H2028 H 0.45878 0.97381 -0.18954
 C2029 C 0.56117 0.50743 -0.10120
 C2030 C 0.57071 0.50930 -0.12579
 C2031 C 0.56834 0.48917 -0.14302
 C2032 C 0.55657 0.46637 -0.13507
 C2033 C 0.54694 0.46434 -0.10986
 C2034 C 0.54896 0.48532 -0.09288
 C2035 C 0.53648 0.44097 -0.10239
 N2036 N 0.53533 0.42136 -0.11913
 N2037 N 0.54411 0.42340 -0.14278
 C2038 C 0.55478 0.44516 -0.15129
 H2039 H 0.56294 0.52370 -0.08866
 H2040 H 0.57995 0.52673 -0.13150
 H2041 H 0.52969 0.43782 -0.08334
 H2042 H 0.56197 0.44555 -0.17055
 C2043 C 0.03371 -0.00298 0.38355
 C2044 C 0.04424 -0.00201 0.35925
 C2045 C 0.06772 -0.01357 0.35363
 C2046 C 0.08012 -0.02755 0.37288
 C2047 C 0.06997 -0.02746 0.39793
 C2048 C 0.04664 -0.01488 0.40320
 C2049 C 0.08328 -0.04053 0.41677
 N2050 N 0.10478 -0.05358 0.41063
 N2051 N 0.11379 -0.05450 0.38696
 C2052 C 0.10214 -0.04212 0.36789
 H2053 H 0.01578 0.00661 0.38730
 H2054 H 0.03434 0.00864 0.34492
 H2055 H 0.07659 -0.04098 0.43619
 H2056 H 0.10998 -0.04419 0.34897
 C2057 C 0.10398 1.06641 1.02062
 C2058 C 0.12804 1.07725 1.01963
 C2059 C 0.14766 1.06604 1.00514
 C2060 C 0.14295 1.04332 0.99146
 C2061 C 0.11845 1.03225 0.99254
 C2062 C 0.09890 1.04399 1.00729
 C2063 C 0.11407 1.01032 0.97786
 N2064 N 0.13307 1.00010 0.96344
 N2065 N 0.15607 1.01047 0.96247
 C2066 C 0.16162 1.03178 0.97583
 H2067 H 0.08913 1.07571 1.03172
 H2068 H 0.13133 1.09474 1.03001
 H2069 H 0.09568 1.00142 0.97736
 H2070 H 0.18048 1.03958 0.97381
 C2071 C 0.60823 0.56003 0.52610
 C2072 C 0.63201 0.57136 0.52397
 C2073 C 0.64739 0.56743 0.50237
 C2074 C 0.63860 0.55153 0.48254
 C2075 C 0.61459 0.53964 0.48497
 C2076 C 0.59933 0.54421 0.50682
 C2077 C 0.60634 0.52388 0.46510
 N2078 N 0.62105 0.52074 0.44402
 N2079 N 0.64333 0.53237 0.44145
 C2080 C 0.65254 0.54773 0.45987
 H2081 H 0.59649 0.56407 0.54266
 H2082 H 0.63835 0.58361 0.53919
 H2083 H 0.58834 0.51408 0.46610
 H2084 H 0.67050 0.55699 0.45641
 C2085 C 0.62315 0.46077 0.00572
 C2086 C 0.64748 0.45027 0.00574
 C2087 C 0.65190 0.42566 -0.00355
 C2088 C 0.63137 0.41137 -0.01320
 C2089 C 0.60657 0.42206 -0.01323
 C2090 C 0.60245 0.44686 -0.00328
 C2091 C 0.58682 0.40765 -0.02371
 N2092 N 0.59157 0.38391 -0.03279
 N2093 N 0.61472 0.37366 -0.03219
 C2094 C 0.63476 0.38654 -0.02271
 H2095 H 0.62034 0.47976 0.01335
 H2096 H 0.66302 0.46139 0.01314
 H2097 H 0.56775 0.41508 -0.02507
 H2098 H 0.65313 0.37725 -0.02272
 C2099 C 0.11989 -0.03834 0.49935
 C2100 C 0.14419 -0.04885 0.50029
 C2101 C 0.14817 -0.07468 0.49525
 C2102 C 0.12743 -0.09001 0.48793
 C2103 C 0.10267 -0.07931 0.48679
 C2104 C 0.09880 -0.05335 0.49336
 C2105 C 0.08277 -0.09490 0.47845
 N2106 N 0.08737 -0.11954 0.47223
 N2107 N 0.11053 -0.12964 0.47364
 C2108 C 0.13071 -0.11574 0.48122
 H2109 H 0.11742 -0.01844 0.50419
 H2110 H 0.15994 -0.03686 0.50567
 H2111 H 0.06373 -0.08771 0.47632
 H2112 H 0.14915 -0.12484 0.48162
 C2113 C 0.38639 -0.04632 0.52091
 C2114 C 0.36244 -0.05754 0.52170
 C2115 C 0.35115 -0.06641 0.49949
 C2116 C 0.36388 -0.06335 0.47594
 C2117 C 0.38813 -0.05175 0.47508
 C2118 C 0.39970 -0.04380 0.49790
 C2119 C 0.39971 -0.04803 0.45122
 N2120 N 0.38805 -0.05616 0.42992
 N2121 N 0.36554 -0.06757 0.43081
 C2122 C 0.35304 -0.07141 0.45306
 H2123 H 0.39490 -0.04018 0.53849
 H2124 H 0.35286 -0.05982 0.53983
 H2125 H 0.41767 -0.03837 0.44922
 H2126 H 0.33467 -0.08053 0.45264
 C2127 C -0.10964 0.44767 1.02221
 C2128 C -0.13317 0.43592 1.02018
 C2129 C -0.14798 0.43910 0.99855
 C2130 C -0.13906 0.45485 0.97874
 C2131 C -0.11508 0.46680 0.98085
 C2132 C -0.10026 0.46284 1.00264
 C2133 C -0.10650 0.48203 0.96074
 N2134 N -0.12101 0.48488 0.93993
 N2135 N -0.14341 0.47345 0.93784
 C2136 C -0.15289 0.45848 0.95646
 H2137 H -0.09838 0.44428 1.03885
 H2138 H -0.13969 0.42378 1.03540
 H2139 H -0.08841 0.49167 0.96139
 H2140 H -0.17106 0.44950 0.95358
 C2141 C -0.11229 0.55956 0.50833
 C2142 C -0.13667 0.56973 0.50905
 C2143 C -0.15433 0.56341 0.49052
 C2144 C -0.14724 0.54606 0.47096
 C2145 C -0.12204 0.53615 0.46971
 C2146 C -0.10441 0.54275 0.48894
 C2147 C -0.11548 0.52045 0.44886
 N2148 N -0.13320 0.51406 0.43157
 N2149 N -0.15706 0.52235 0.43353
 C2150 C -0.16469 0.53805 0.45263
 H2151 H -0.09948 0.56483 0.52335
 H2152 H -0.14169 0.58304 0.52408
 H2153 H -0.09651 0.51341 0.44568
 H2154 H -0.18438 0.54394 0.45337
 C2155 C 0.39084 1.06490 -0.01888
 C2156 C 0.36697 1.07634 -0.01727
 C2157 C 0.34619 1.06334 -0.00694
 C2158 C 0.34953 1.03836 0.00211
 C2159 C 0.37395 1.02685 0.00093
 C2160 C 0.39469 1.04013 -0.01020
 C2161 C 0.37693 1.00291 0.01217
 N2162 N 0.35664 0.99097 0.02266
 N2163 N 0.33360 1.00148 0.02305
 C2164 C 0.32936 1.02481 0.01326
 H2165 H 0.40651 1.07561 -0.02674
 H2166 H 0.36471 1.09563 -0.02392
 H2167 H 0.39522 0.99386 0.01339
 H2168 H 0.31036 1.03263 0.01456
 C2169 C -0.00662 1.12242 1.04016
 C2170 C -0.00564 1.14673 1.05059
 C2171 C 0.01307 1.15318 1.06813
 C2172 C 0.03186 1.13490 1.07439
 C2173 C 0.03051 1.11000 1.06410
 C2174 C 0.01093 1.10384 1.04713
 C2175 C 0.04898 1.09208 1.07102
 N2176 N 0.06789 1.09896 1.08681
 N2177 N 0.06954 1.12250 1.09605
 C2178 C 0.05228 1.14070 1.09032
 H2179 H -0.02158 1.11787 1.02700
 H2180 H -0.02015 1.16039 1.04557
 H2181 H 0.04865 1.07277 1.06388
 H2182 H 0.05490 1.15959 1.09800
 C2183 C 0.52564 0.61663 0.55083
 C2184 C 0.52628 0.64087 0.56157
 C2185 C 0.50373 0.65402 0.56732
 C2186 C 0.48005 0.64274 0.56183
 C2187 C 0.47939 0.61812 0.55084
 C2188 C 0.50243 0.60484 0.54589
 C2189 C 0.45559 0.60776 0.54489
 N2190 N 0.43401 0.62093 0.55042
 N2191 N 0.43461 0.64378 0.56139
 C2192 C 0.45685 0.65512 0.56731
 H2193 H 0.54339 0.60671 0.54702
 H2194 H 0.54449 0.64930 0.56580
 H2195 H 0.45391 0.58947 0.53565
 H2196 H 0.45615 0.67368 0.57620
 C2197 C -0.00897 0.61912 0.46560
 C2198 C -0.00843 0.64292 0.45427
 C2199 C -0.01366 0.64556 0.42852
 C2200 C -0.02094 0.62397 0.41418
 C2201 C -0.02172 0.59976 0.42575
 C2202 C -0.01479 0.59728 0.45149
 C2203 C -0.03008 0.57895 0.41123
 N2204 N -0.03656 0.58221 0.38671
 N2205 N -0.03546 0.60487 0.37576
 C2206 C -0.02796 0.62586 0.38865
 H2207 H -0.00388 0.61763 0.48535
 H2208 H -0.00306 0.65931 0.46549
 H2209 H -0.03208 0.56026 0.41923
 H2210 H -0.02791 0.64384 0.37891
 C2211 C 0.51138 1.10921 -0.05143
 C2212 C 0.51248 1.13360 -0.06130
 C2213 C 0.49102 1.14476 -0.07207
 C2214 C 0.46779 1.13117 -0.07236
 C2215 C 0.46678 1.10623 -0.06246
 C2216 C 0.48877 1.09536 -0.05190
 C2217 C 0.44380 1.09284 -0.06379
 N2218 N 0.42301 1.10411 -0.07371
 N2219 N 0.42373 1.12778 -0.08239
 C2220 C 0.44535 1.14171 -0.08202
 H2221 H 0.52834 1.10102 -0.04336
 H2222 H 0.53037 1.14369 -0.06102
 H2223 H 0.44223 1.07353 -0.05713
 H2224 H 0.44471 1.16090 -0.08910
 C2225 C 0.52564 0.38580 -0.05452
 C2226 C 0.52494 0.36163 -0.06545
 C2227 C 0.50697 0.34379 -0.05734
 C2228 C 0.49003 0.35005 -0.03720
 C2229 C 0.49072 0.37461 -0.02610
 C2230 C 0.50849 0.39266 -0.03514
 C2231 C 0.47314 0.38041 -0.00657
 N2232 N 0.45645 0.36257 0.00150
 N2233 N 0.45609 0.33936 -0.00869
 C2234 C 0.47229 0.33249 -0.02774
 H2235 H 0.53950 0.39929 -0.06141
 H2236 H 0.53798 0.35706 -0.08089
 H2237 H 0.47245 0.39889 0.00234
 H2238 H 0.47124 0.31334 -0.03520
 C2239 C -0.00726 -0.12351 0.46674
 C2240 C -0.00755 -0.14748 0.45536
 C2241 C 0.00810 -0.15306 0.43430
 C2242 C 0.02539 -0.13434 0.42548
 C2243 C 0.02486 -0.10966 0.43641
 C2244 C 0.00823 -0.10428 0.45704
 C2245 C 0.04137 -0.09120 0.42653
 N2246 N 0.05796 -0.09741 0.40760
 N2247 N 0.05914 -0.12082 0.39793
 C2248 C 0.04356 -0.13950 0.40629
 H2249 H -0.01993 -0.11963 0.48267
 H2250 H -0.02078 -0.16149 0.46250
 H2251 H 0.04148 -0.07203 0.43396
 H2252 H 0.04583 -0.15827 0.39812
 C2253 C 0.51407 -0.10758 0.55482
 C2254 C 0.51475 -0.13172 0.56524
 C2255 C 0.49315 -0.14713 0.56540
 C2256 C 0.47036 -0.13800 0.55461
 C2257 C 0.46950 -0.11315 0.54443
 C2258 C 0.49178 -0.09805 0.54419
 C2259 C 0.44611 -0.10412 0.53540
 N2260 N 0.42552 -0.11950 0.53537
 N2261 N 0.42666 -0.14320 0.54387
 C2262 C 0.44835 -0.15299 0.55343
 H2263 H 0.53127 -0.09634 0.55477
 H2264 H 0.53224 -0.13831 0.57361
 H2265 H 0.44378 -0.08493 0.52872
 H2266 H 0.44817 -0.17242 0.55988
 C2267 C 0.01488 0.39197 1.05138
 C2268 C 0.01551 0.36832 1.06272
 C2269 C -0.00696 0.35551 1.06960
 C2270 C -0.03079 0.36780 1.06512
 C2271 C -0.03125 0.39173 1.05273
 C2272 C -0.00817 0.40377 1.04604
 C2273 C -0.05484 0.40357 1.04870
 N2274 N -0.07651 0.39263 1.05727
 N2275 N -0.07612 0.37090 1.06994
 C2276 C -0.05411 0.35836 1.07447
 H2277 H 0.03268 0.40110 1.04648
 H2278 H 0.03398 0.35970 1.06545
 H2279 H -0.05626 0.42163 1.03925
 H2280 H -0.05519 0.34167 1.08612
 C2281 C 0.75229 0.28776 0.12917
 C2282 C 0.75066 0.29908 0.10553
 C2283 C 0.75863 0.32435 0.10151
 C2284 C 0.76711 0.33860 0.12313
 C2285 C 0.76996 0.32641 0.14684
 C2286 C 0.76175 0.30107 0.14994
 C2287 C 0.78055 0.34022 0.16701
 N2288 N 0.78519 0.36535 0.16453
 N2289 N 0.77981 0.37755 0.14329
 C2290 C 0.77053 0.36522 0.12279
 H2291 H 0.74570 0.26841 0.13134
 H2292 H 0.74434 0.28718 0.09006
 H2293 H 0.78512 0.33130 0.18473
 H2294 H 0.76529 0.37656 0.10673
 C2295 C 0.24015 0.80642 0.64323
 C2296 C 0.23945 0.81698 0.61920
 C2297 C 0.26062 0.81570 0.60294
 C2298 C 0.28320 0.80386 0.61130
 C2299 C 0.28408 0.79331 0.63599
 C2300 C 0.26211 0.79429 0.65193
 C2301 C 0.30730 0.78305 0.64411
 N2302 N 0.32782 0.78278 0.62830
 N2303 N 0.32683 0.79228 0.60504
 C2304 C 0.30529 0.80289 0.59604
 H2305 H 0.22319 0.80746 0.65506
 H2306 H 0.22216 0.82625 0.61318
 H2307 H 0.30962 0.77574 0.66298
 H2308 H 0.30572 0.81068 0.57716
 C2309 C 0.72458 0.69802 0.63624
 C2310 C 0.72474 0.68731 0.61200
 C2311 C 0.74747 0.68476 0.59804
 C2312 C 0.77049 0.69342 0.60861
 C2313 C 0.77029 0.70436 0.63322
 C2314 C 0.74720 0.70620 0.64719
 C2315 C 0.79336 0.71318 0.64307
 N2316 N 0.81517 0.71055 0.62933
 N2317 N 0.81545 0.69974 0.60644
 C2318 C 0.79392 0.69103 0.59564
 H2319 H 0.70681 0.69937 0.64678
 H2320 H 0.70703 0.68067 0.60416
 H2321 H 0.79422 0.72229 0.66146
 H2322 H 0.79537 0.68229 0.57708
 C2323 C 0.22569 0.20174 0.13616
 C2324 C 0.22565 0.18963 0.11266
 C2325 C 0.24848 0.18223 0.10013
 C2326 C 0.27192 0.18663 0.11303
 C2327 C 0.27175 0.20001 0.13652
 C2328 C 0.24843 0.20690 0.14833
 C2329 C 0.29510 0.20571 0.14784
 N2330 N 0.31701 0.19633 0.13776
 N2331 N 0.31707 0.18151 0.11725
 C2332 C 0.29537 0.17598 0.10486
 H2333 H 0.20771 0.20689 0.14508
 H2334 H 0.20737 0.18727 0.10380
 H2335 H 0.29611 0.21749 0.16465
 H2336 H 0.29674 0.16263 0.08928
 C2337 C 0.23471 0.19261 0.85910
 C2338 C 0.23312 0.18184 0.88300
 C2339 C 0.25364 0.18294 0.89952
 C2340 C 0.27645 0.19491 0.89163
 C2341 C 0.27810 0.20603 0.86724
 C2342 C 0.25685 0.20495 0.85091
 C2343 C 0.30139 0.21695 0.85979
 N2344 N 0.32134 0.21686 0.87575
 N2345 N 0.31974 0.20644 0.89858
 C2346 C 0.29806 0.19537 0.90702
 H2347 H 0.21831 0.19154 0.84696
 H2348 H 0.21567 0.17250 0.88869
 H2349 H 0.30425 0.22516 0.84137
 H2350 H 0.29810 0.18679 0.92553
 C2351 C 0.75106 0.71999 0.36838
 C2352 C 0.74958 0.70913 0.39233
 C2353 C 0.75464 0.68327 0.39555
 C2354 C 0.76254 0.66827 0.37445
 C2355 C 0.76430 0.67935 0.35009
 C2356 C 0.75767 0.70529 0.34701
 C2357 C 0.77330 0.66415 0.32978
 N2358 N 0.77939 0.63945 0.33365
 N2359 N 0.77732 0.62896 0.35644
 C2360 C 0.76918 0.64251 0.37696
 H2361 H 0.74617 0.73988 0.36640
 H2362 H 0.74379 0.72082 0.40839
 H2363 H 0.77611 0.67170 0.31100
 H2364 H 0.76830 0.63309 0.39507
 C2365 C 0.24280 0.78423 0.37103
 C2366 C 0.24464 0.79439 0.39538
 C2367 C 0.24016 0.82024 0.39991
 C2368 C 0.23230 0.83591 0.37973
 C2369 C 0.23019 0.82553 0.35495
 C2370 C 0.23639 0.79961 0.35048
 C2371 C 0.22131 0.84142 0.33562
 N2372 N 0.21561 0.86608 0.34079
 N2373 N 0.21797 0.87589 0.36395
 C2374 C 0.22604 0.86166 0.38359
 H2375 H 0.24738 0.76433 0.36806
 H2376 H 0.25042 0.78216 0.41069
 H2377 H 0.21828 0.83445 0.31661
 H2378 H 0.22713 0.87054 0.40208
 C2379 C 0.74424 0.28130 0.86799
 C2380 C 0.74587 0.29129 0.89245
 C2381 C 0.74316 0.31739 0.89685
 C2382 C 0.73720 0.33359 0.87647
 C2383 C 0.73563 0.32352 0.85154
 C2384 C 0.73999 0.29715 0.84719
 C2385 C 0.72921 0.34026 0.83194
 N2386 N 0.72494 0.36520 0.83704
 N2387 N 0.72653 0.37461 0.86042
 C2388 C 0.73245 0.35969 0.88029
 H2389 H 0.74743 0.26113 0.86516
 H2390 H 0.75020 0.27869 0.90793
 H2391 H 0.72701 0.33384 0.81270
 H2392 H 0.73302 0.36832 0.89893
 C2393 C 0.78465 0.37381 0.24748
 C2394 C 0.79592 0.39767 0.24814
 C2395 C 0.82103 0.40093 0.23982
 C2396 C 0.83459 0.37996 0.22925
 C2397 C 0.82310 0.35564 0.22854
 C2398 C 0.79820 0.35251 0.23855
 C2399 C 0.83676 0.33543 0.21720
 N2400 N 0.86044 0.33935 0.20763
 N2401 N 0.87130 0.36213 0.20847
 C2402 C 0.85918 0.38256 0.21886
 H2403 H 0.76547 0.37178 0.25489
 H2404 H 0.78525 0.41356 0.25606
 H2405 H 0.82872 0.31669 0.21536
 H2406 H 0.86874 0.40069 0.21851
 C2407 C 0.30476 0.85823 0.72260
 C2408 C 0.31513 0.88252 0.72192
 C2409 C 0.31909 0.89625 0.74435
 C2410 C 0.31258 0.88531 0.76794
 C2411 C 0.30194 0.86066 0.76864
 C2412 C 0.29841 0.84694 0.74574
 C2413 C 0.29475 0.85077 0.79233
 N2414 N 0.29885 0.86436 0.81380
 N2415 N 0.30952 0.88722 0.81318
 C2416 C 0.31655 0.89816 0.79102
 H2417 H 0.30192 0.84802 0.70496
 H2418 H 0.32019 0.89068 0.70378
 H2419 H 0.28570 0.83253 0.79402
 H2420 H 0.32512 0.91676 0.79169
 C2421 C 0.17920 0.85788 0.26547
 C2422 C 0.16744 0.88149 0.26409
 C2423 C 0.17759 0.90127 0.24908
 C2424 C 0.19979 0.89568 0.23391
 C2425 C 0.21195 0.87157 0.23592
 C2426 C 0.20159 0.85279 0.25200
 C2427 C 0.23335 0.86636 0.22045
 N2428 N 0.24152 0.88367 0.20341
 N2429 N 0.22942 0.90563 0.20041
 C2430 C 0.20868 0.91199 0.21461
 H2431 H 0.17088 0.84348 0.27754
 H2432 H 0.15095 0.88453 0.27624
 H2433 H 0.24319 0.84838 0.22113
 H2434 H 0.19885 0.92924 0.20974
 C2435 C 0.71009 0.36918 0.73798
 C2436 C 0.69882 0.39318 0.73881
 C2437 C 0.68064 0.39942 0.75752
 C2438 C 0.67451 0.38132 0.77643
 C2439 C 0.68548 0.35670 0.77514
 C2440 C 0.70327 0.35069 0.75565
 C2441 C 0.67838 0.33893 0.79365
 N2442 N 0.66197 0.34571 0.81255
 N2443 N 0.65224 0.36904 0.81421
 C2444 C 0.65802 0.38709 0.79691
 H2445 H 0.72384 0.36481 0.72310
 H2446 H 0.70379 0.40676 0.72427
 H2447 H 0.68588 0.31981 0.79342
 H2448 H 0.64993 0.40583 0.79958
 C2449 C 0.71327 0.62765 0.74339
 C2450 C 0.70172 0.60396 0.74497
 C2451 C 0.67550 0.60149 0.74188
 C2452 C 0.66080 0.62314 0.73572
 C2453 C 0.67259 0.64727 0.73381
 C2454 C 0.69896 0.64960 0.73860
 C2455 C 0.65759 0.66810 0.72650
 N2456 N 0.63248 0.66495 0.72214
 N2457 N 0.62137 0.64240 0.72435
 C2458 C 0.63465 0.62140 0.73090
 H2459 H 0.73345 0.62896 0.74688
 H2460 H 0.71322 0.58752 0.74943
 H2461 H 0.66559 0.68672 0.72362
 H2462 H 0.62471 0.60350 0.73193
 C2463 C 0.21239 0.13013 0.24395
 C2464 C 0.20104 0.10630 0.24473
 C2465 C 0.17513 0.10353 0.23990
 C2466 C 0.16066 0.12502 0.23277
 C2467 C 0.17223 0.14929 0.23182
 C2468 C 0.19818 0.15191 0.23832
 C2469 C 0.15750 0.16999 0.22372
 N2470 N 0.13282 0.16657 0.21757
 N2471 N 0.12191 0.14385 0.21875
 C2472 C 0.13497 0.12297 0.22605
 H2473 H 0.23228 0.13169 0.24871
 H2474 H 0.21237 0.09000 0.24998
 H2475 H 0.16541 0.18874 0.22167
 H2476 H 0.12524 0.10492 0.22615
 C2477 C 0.28478 0.13030 0.75642
 C2478 C 0.29438 0.10566 0.75511
 C2479 C 0.32054 0.10124 0.75457
 C2480 C 0.33745 0.12199 0.75660
 C2481 C 0.32779 0.14722 0.75785
 C2482 C 0.30101 0.15143 0.75717
 C2483 C 0.34545 0.16712 0.76034
 N2484 N 0.37068 0.16201 0.76130
 N2485 N 0.37961 0.13837 0.76009
 C2486 C 0.36390 0.11821 0.75787
 H2487 H 0.26436 0.13287 0.75601
 H2488 H 0.28127 0.08991 0.75375
 H2489 H 0.33979 0.18668 0.76218
 H2490 H 0.37226 0.09942 0.75749
 C2491 C 0.81700 0.64837 0.25808
 C2492 C 0.82801 0.62434 0.25900
 C2493 C 0.81412 0.60258 0.25270
 C2494 C 0.78841 0.60524 0.24548
 C2495 C 0.77748 0.62985 0.24356
 C2496 C 0.79178 0.65157 0.25056
 C2497 C 0.75276 0.63180 0.23397
 N2498 N 0.73933 0.61056 0.22864
 N2499 N 0.74902 0.58746 0.23201
 C2500 C 0.77305 0.58407 0.24029
 H2501 H 0.82829 0.66466 0.26345
 H2502 H 0.84771 0.62273 0.26450
 H2503 H 0.74419 0.64991 0.23011
 H2504 H 0.77980 0.56487 0.24283
 C2505 C 0.85629 0.27318 0.18334
 C2506 C 0.88072 0.27340 0.17278
 C2507 C 0.90012 0.25852 0.18300
 C2508 C 0.89496 0.24343 0.20449
 C2509 C 0.87014 0.24314 0.21520
 C2510 C 0.85073 0.25823 0.20450
 C2511 C 0.86547 0.22711 0.23591
 N2512 N 0.88460 0.21300 0.24556
 N2513 N 0.90804 0.21369 0.23579
 C2514 C 0.91388 0.22838 0.21559
 H2515 H 0.84160 0.28476 0.17497
 H2516 H 0.88443 0.28488 0.15621
 H2517 H 0.84679 0.22541 0.24434
 H2518 H 0.93322 0.22818 0.20841
 C2519 C 0.36573 0.77291 0.70202
 C2520 C 0.39024 0.77274 0.69167
 C2521 C 0.40223 0.74982 0.68490
 C2522 C 0.38965 0.72655 0.68950
 C2523 C 0.36474 0.72670 0.70002
 C2524 C 0.35254 0.75018 0.70575
 C2525 C 0.35318 0.70320 0.70515
 N2526 N 0.36565 0.68121 0.69964
 N2527 N 0.38897 0.68110 0.68959
 C2528 C 0.40143 0.70296 0.68442
 H2529 H 0.35676 0.79096 0.70665
 H2530 H 0.39969 0.79066 0.68832
 H2531 H 0.33459 0.70199 0.71388
 H2532 H 0.42055 0.70166 0.67678
 C2533 C 0.36542 0.26732 0.79856
 C2534 C 0.38948 0.26719 0.80918
 C2535 C 0.39883 0.24541 0.82102
 C2536 C 0.38379 0.22314 0.82173
 C2537 C 0.35921 0.22340 0.81115
 C2538 C 0.35014 0.24568 0.79942
 C2539 C 0.34440 0.20131 0.81289
 N2540 N 0.35396 0.18021 0.82388
 N2541 N 0.37732 0.17973 0.83322
 C2542 C 0.39258 0.20039 0.83244
 H2543 H 0.35865 0.28445 0.78956
 H2544 H 0.40073 0.28436 0.80858
 H2545 H 0.32534 0.20058 0.80558
 H2546 H 0.41148 0.19875 0.84003
 C2547 C 0.86413 0.72620 0.29380
 C2548 C 0.88835 0.72645 0.30413
 C2549 C 0.90047 0.74951 0.31054
 C2550 C 0.88863 0.77268 0.30272
 C2551 C 0.86372 0.77227 0.29274
 C2552 C 0.85116 0.74884 0.28922
 C2553 C 0.85259 0.79537 0.28528
 N2554 N 0.86596 0.81723 0.28667
 N2555 N 0.88982 0.81751 0.29461
 C2556 C 0.90171 0.79606 0.30221
 H2557 H 0.85495 0.70812 0.29044
 H2558 H 0.89636 0.70825 0.30920
 H2559 H 0.83372 0.79620 0.27756
 H2560 H 0.92156 0.79743 0.30693
 C2561 C 0.13496 0.77541 0.30680
 C2562 C 0.11077 0.77389 0.31773
 C2563 C 0.09556 0.75243 0.31387
 C2564 C 0.10485 0.73218 0.29846
 C2565 C 0.12942 0.73381 0.28729
 C2566 C 0.14453 0.75550 0.29179
 C2567 C 0.13828 0.71335 0.27225
 N2568 N 0.12349 0.69260 0.26894
 N2569 N 0.10055 0.69090 0.27972
 C2570 C 0.09077 0.70989 0.29443
 H2571 H 0.14647 0.79202 0.31047
 H2572 H 0.10397 0.78942 0.32962
 H2573 H 0.15681 0.71363 0.26316
 H2574 H 0.07219 0.70725 0.30292
 C2575 C 0.64013 0.23714 0.80508
 C2576 C 0.61575 0.23590 0.81541
 C2577 C 0.59768 0.25466 0.81033
 C2578 C 0.60423 0.27485 0.79394
 C2579 C 0.62939 0.27666 0.78393
 C2580 C 0.64752 0.25728 0.78939
 C2581 C 0.63538 0.29823 0.76938
 N2582 N 0.61720 0.31563 0.76410
 N2583 N 0.59339 0.31315 0.77242
 C2584 C 0.58628 0.29336 0.78707
 H2585 H 0.65338 0.22205 0.80945
 H2586 H 0.61111 0.22038 0.82797
 H2587 H 0.65427 0.30196 0.76242
 H2588 H 0.56660 0.29222 0.79307
 C2589 C 0.64802 0.74125 0.68177
 C2590 C 0.62406 0.74281 0.67100
 C2591 C 0.60380 0.75456 0.68405
 C2592 C 0.60787 0.76541 0.70826
 C2593 C 0.63234 0.76415 0.71909
 C2594 C 0.65242 0.75149 0.70586
 C2595 C 0.63609 0.77652 0.74242
 N2596 N 0.61644 0.78853 0.75438
 N2597 N 0.59335 0.78927 0.74443
 C2598 C 0.58841 0.77825 0.72175
 H2599 H 0.66321 0.73173 0.67133
 H2600 H 0.62123 0.73463 0.65236
 H2601 H 0.65454 0.77730 0.75097
 H2602 H 0.56942 0.77989 0.71438
 C2603 C 0.14209 0.23182 0.18786
 C2604 C 0.11797 0.23304 0.17744
 C2605 C 0.10223 0.25427 0.18162
 C2606 C 0.11115 0.27483 0.19650
 C2607 C 0.13565 0.27346 0.20726
 C2608 C 0.15111 0.25180 0.20275
 C2609 C 0.14398 0.29404 0.22209
 N2610 N 0.12884 0.31472 0.22546
 N2611 N 0.10603 0.31622 0.21498
 C2612 C 0.09671 0.29707 0.20055
 H2613 H 0.15384 0.21522 0.18420
 H2614 H 0.11151 0.21727 0.16592
 H2615 H 0.16240 0.29391 0.23093
 H2616 H 0.07821 0.29955 0.19229
 C2617 C -0.07141 0.99060 0.89770
 C2618 C -0.08246 0.99199 0.87399
 C2619 C -0.07076 1.00521 0.85390
 C2620 C -0.04767 1.01846 0.85879
 C2621 C -0.03629 1.01662 0.88301
 C2622 C -0.04820 1.00229 0.90238
 C2623 C -0.01396 1.03043 0.88755
 N2624 N -0.00396 1.04543 0.86928
 N2625 N -0.01501 1.04791 0.84693
 C2626 C -0.03661 1.03532 0.84120
 H2627 H -0.08094 0.97996 0.91250
 H2628 H -0.09995 0.98165 0.87117
 H2629 H -0.00471 1.03004 0.90566
 H2630 H -0.04526 1.03944 0.82329
 C2631 C 0.43107 0.48113 0.40053
 C2632 C 0.41988 0.48216 0.37679
 C2633 C 0.43118 0.49585 0.35697
 C2634 C 0.45428 0.50882 0.36122
 C2635 C 0.46571 0.50773 0.38537
 C2636 C 0.45396 0.49366 0.40510
 C2637 C 0.48802 0.52178 0.38925
 N2638 N 0.49827 0.53556 0.37013
 N2639 N 0.48758 0.53652 0.34746
 C2640 C 0.46589 0.52378 0.34239
 H2641 H 0.42171 0.47062 0.41552
 H2642 H 0.40208 0.47236 0.37388
 H2643 H 0.49722 0.52232 0.40733
 H2644 H 0.45784 0.52581 0.32381
 C2645 C 0.55057 0.02567 0.38024
 C2646 C 0.56192 0.02641 0.35627
 C2647 C 0.57241 0.00441 0.34473
 C2648 C 0.57212 -0.01864 0.35878
 C2649 C 0.55917 -0.01959 0.38254
 C2650 C 0.54904 0.00295 0.39367
 C2651 C 0.55660 -0.04331 0.39430
 N2652 N 0.56879 -0.06398 0.38460
 N2653 N 0.58329 -0.06251 0.36384
 C2654 C 0.58562 -0.04056 0.35080
 H2655 H 0.54282 0.04306 0.38836
 H2656 H 0.56152 0.04431 0.34632
 H2657 H 0.54477 -0.04570 0.41087
 H2658 H 0.59847 -0.04044 0.33470
 C2659 C 0.03498 0.50723 0.88121
 C2660 C 0.04547 0.50598 0.85688
 C2661 C 0.07113 0.51144 0.85268
 C2662 C 0.08627 0.51951 0.87318
 C2663 C 0.07554 0.52107 0.89795
 C2664 C 0.04984 0.51399 0.90204
 C2665 C 0.09082 0.53028 0.91764
 N2666 N 0.11532 0.53672 0.91281
 N2667 N 0.12552 0.53475 0.88966
 C2668 C 0.11185 0.52641 0.86968
 H2669 H 0.01525 0.50200 0.88390
 H2670 H 0.03366 0.49998 0.84131
 H2671 H 0.08348 0.53294 0.93668
 H2672 H 0.12100 0.52555 0.85123
 C2673 C 0.04492 0.51784 0.61507
 C2674 C 0.05570 0.51813 0.63899
 C2675 C 0.06121 0.49542 0.65137
 C2676 C 0.05543 0.47192 0.63963
 C2677 C 0.04436 0.47158 0.61529
 C2678 C 0.03913 0.49483 0.60301
 C2679 C 0.03975 0.44787 0.60377
 N2680 N 0.04542 0.42614 0.61614
 N2681 N 0.05548 0.42650 0.63914
 C2682 C 0.06071 0.44861 0.65129
 H2683 H 0.04115 0.53573 0.60581
 H2684 H 0.06035 0.53620 0.64768
 H2685 H 0.03196 0.44632 0.58500
 H2686 H 0.06895 0.44780 0.66993
 C2687 C 0.54905 1.01465 0.10390
 C2688 C 0.56053 1.01618 0.12742
 C2689 C 0.56486 0.99432 0.14166
 C2690 C 0.55759 0.97031 0.13182
 C2691 C 0.54589 0.96874 0.10776
 C2692 C 0.54146 0.99122 0.09387
 C2693 C 0.54001 0.94454 0.09803
 N2694 N 0.54516 0.92351 0.11172
 N2695 N 0.55596 0.92500 0.13434
 C2696 C 0.56243 0.94763 0.14481
 H2697 H 0.54604 1.03197 0.09339
 H2698 H 0.56624 1.03461 0.13456
 H2699 H 0.53175 0.94205 0.07957
 H2700 H 0.57154 0.94762 0.16303
 C2701 C 0.43279 0.50678 0.11307
 C2702 C 0.42146 0.50696 0.13702
 C2703 C 0.43511 0.49972 0.15840
 C2704 C 0.46085 0.49213 0.15543
 C2705 C 0.47223 0.49126 0.13085
 C2706 C 0.45822 0.49943 0.10955
 C2707 C 0.49702 0.48141 0.12847
 N2708 N 0.51005 0.47473 0.14938
 N2709 N 0.49990 0.47698 0.17251
 C2710 C 0.47579 0.48547 0.17627
 H2711 H 0.42152 0.51247 0.09712
 H2712 H 0.40171 0.51263 0.13887
 H2713 H 0.50597 0.47835 0.11025
 H2714 H 0.46860 0.48695 0.19549
 C2715 C -0.06112 0.02040 0.61295
 C2716 C -0.07079 0.02024 0.63765
 C2717 C -0.06378 0.00122 0.65494
 C2718 C -0.04510 -0.01703 0.64707
 C2719 C -0.03554 -0.01691 0.62177
 C2720 C -0.04385 0.00184 0.60468
 C2721 C -0.01758 -0.03551 0.61438
 N2722 N -0.00882 -0.05226 0.63157
 N2723 N -0.01667 -0.05155 0.65563
 C2724 C -0.03422 -0.03442 0.66401
 H2725 H -0.06734 0.03504 0.60011
 H2726 H -0.08494 0.03444 0.64277
 H2727 H -0.01023 -0.03674 0.59518
 H2728 H -0.03891 -0.03417 0.68398
 C2729 C -0.11125 0.94227 0.98364
 C2730 C -0.13532 0.93146 0.98341
 C2731 C -0.15534 0.94204 0.99780
 C2732 C -0.15112 0.96442 1.01220
 C2733 C -0.12652 0.97530 1.01260
 C2734 C -0.10651 0.96403 0.99817
 C2735 C -0.12269 0.99683 1.02798
 N2736 N -0.14244 1.00721 1.04124
 N2737 N -0.16570 0.99745 1.04025
 C2738 C -0.17073 0.97644 1.02619
 H2739 H -0.09615 0.93354 0.97243
 H2740 H -0.13823 0.91433 0.97233
 H2741 H -0.10419 1.00539 1.02974
 H2742 H -0.19000 0.96946 1.02598
 C2743 C 0.39323 0.43273 0.49356
 C2744 C 0.36931 0.42159 0.49293
 C2745 C 0.34734 0.43570 0.49885
 C2746 C 0.34965 0.46179 0.50528
 C2747 C 0.37411 0.47292 0.50684
 C2748 C 0.39606 0.45835 0.50027
 C2749 C 0.37569 0.49814 0.51569
 N2750 N 0.35424 0.51172 0.52066
 N2751 N 0.33128 0.50174 0.51763
 C2752 C 0.32825 0.47730 0.51008
 H2753 H 0.40972 0.42120 0.48874
 H2754 H 0.36795 0.40162 0.48803
 H2755 H 0.39368 0.50707 0.51923
 H2756 H 0.30914 0.47032 0.50779
 C2757 C 0.39098 0.54397 -0.01142
 C2758 C 0.36693 0.55474 -0.01363
 C2759 C 0.35291 0.56213 0.00793
 C2760 C 0.36343 0.55868 0.03224
 C2761 C 0.38804 0.54786 0.03445
 C2762 C 0.40174 0.54030 0.01239
 C2763 C 0.39851 0.54594 0.05869
 N2764 N 0.38492 0.55381 0.07933
 N2765 N 0.36169 0.56366 0.07730
 C2766 C 0.35052 0.56645 0.05448
 H2767 H 0.40137 0.53851 -0.02849
 H2768 H 0.35928 0.55766 -0.03234
 H2769 H 0.41749 0.53865 0.06135
 H2770 H 0.33176 0.57486 0.05395
 C2771 C -0.10939 0.05092 0.48357
 C2772 C -0.13338 0.06168 0.48108
 C2773 C -0.14926 0.06552 0.50226
 C2774 C -0.14055 0.05856 0.52658
 C2775 C -0.11605 0.04748 0.52910
 C2776 C -0.10048 0.04352 0.50729
 C2777 C -0.10761 0.04172 0.55357
 N2778 N -0.12283 0.04649 0.57398
 N2779 N -0.14579 0.05684 0.57163
 C2780 C -0.15511 0.06315 0.54869
 H2781 H -0.09768 0.04817 0.46671
 H2782 H -0.13961 0.06720 0.46243
 H2783 H -0.08895 0.03386 0.55676
 H2784 H -0.17367 0.07196 0.54806
 C2785 C 0.60746 0.06652 0.47458
 C2786 C 0.63158 0.07736 0.47554
 C2787 C 0.65051 0.06691 0.49076
 C2788 C 0.64519 0.04481 0.50491
 C2789 C 0.62064 0.03388 0.50409
 C2790 C 0.60171 0.04478 0.48859
 C2791 C 0.61571 0.01271 0.51945
 N2792 N 0.63440 0.00269 0.53374
 N2793 N 0.65766 0.01249 0.53387
 C2794 C 0.66370 0.03318 0.51997
 H2795 H 0.59314 0.07519 0.46285
 H2796 H 0.63540 0.09432 0.46468
 H2797 H 0.59717 0.00421 0.52049
 H2798 H 0.68291 0.04029 0.52079
 C2799 C 0.10895 0.56902 0.98521
 C2800 C 0.13337 0.57908 0.98477
 C2801 C 0.15393 0.56632 0.99601
 C2802 C 0.14938 0.54192 1.00671
 C2803 C 0.12423 0.53223 1.00798
 C2804 C 0.10400 0.54577 0.99677
 C2805 C 0.12014 0.50919 1.02068
 N2806 N 0.14012 0.49561 1.02928
 N2807 N 0.16389 0.50354 1.02607
 C2808 C 0.16922 0.52601 1.01489
 H2809 H 0.09369 0.57958 0.97653
 H2810 H 0.13580 0.59770 0.97654
 H2811 H 0.10130 0.50190 1.02401
 H2812 H 0.18896 0.53085 1.01203
 C2813 C 0.11748 0.46728 0.49633
 C2814 C 0.14156 0.45619 0.49540
 C2815 C 0.14764 0.43597 0.51134
 C2816 C 0.12951 0.42782 0.52967
 C2817 C 0.10494 0.43893 0.53039
 C2818 C 0.09884 0.45834 0.51314
 C2819 C 0.08731 0.43038 0.54863
 N2820 N 0.09406 0.41204 0.56515
 N2821 N 0.11722 0.40177 0.56467
 C2822 C 0.13518 0.40905 0.54758
 H2823 H 0.11302 0.48227 0.48315
 H2824 H 0.15523 0.46275 0.48142
 H2825 H 0.06836 0.43830 0.55009
 H2826 H 0.15379 0.40036 0.54842
 C2827 C 0.60777 0.94271 -0.02237
 C2828 C 0.63208 0.93231 -0.02321
 C2829 C 0.64571 0.92864 -0.00095
 C2830 C 0.63432 0.93510 0.02277
 C2831 C 0.60953 0.94579 0.02361
 C2832 C 0.59641 0.94986 0.00074
 C2833 C 0.59837 0.95118 0.04744
 N2834 N 0.61138 0.94636 0.06887
 N2835 N 0.63466 0.93636 0.06809
 C2836 C 0.64652 0.93048 0.04583
 H2837 H 0.59782 0.94549 -0.03997
 H2838 H 0.64042 0.92715 -0.04142
 H2839 H 0.57933 0.95878 0.04931
 H2840 H 0.66521 0.92195 0.04644
 C2841 C 0.00567 0.89590 0.94199
 C2842 C 0.00692 0.87206 0.93078
 C2843 C -0.01145 0.85351 0.93595
 C2844 C -0.03243 0.86006 0.95221
 C2845 C -0.03378 0.88473 0.96358
 C2846 C -0.01421 0.90266 0.95863
 C2847 C -0.05544 0.89096 0.97837
 N2848 N -0.07431 0.87383 0.98152
 N2849 N -0.07330 0.85102 0.97057
 C2850 C -0.05328 0.84368 0.95584
 H2851 H 0.02081 0.90915 0.93780
 H2852 H 0.02316 0.86782 0.91861
 H2853 H -0.05814 0.90942 0.98693
 H2854 H -0.05441 0.82543 0.94651
 C2855 C 0.50738 0.38407 0.46725
 C2856 C 0.50811 0.36007 0.45598
 C2857 C 0.48853 0.35204 0.44014
 C2858 C 0.46715 0.36812 0.43664
 C2859 C 0.46656 0.39263 0.44796
 C2860 C 0.48704 0.40062 0.46303
 C2861 C 0.44549 0.40843 0.44365
 N2862 N 0.42606 0.39989 0.42935
 N2863 N 0.42634 0.37670 0.41909
 C2864 C 0.44616 0.36052 0.42227
 H2865 H 0.52316 0.39007 0.47879
 H2866 H 0.52456 0.34805 0.45884
 H2867 H 0.44424 0.42740 0.45163
 H2868 H 0.44517 0.34180 0.41377
 C2869 C 0.02425 0.38789 0.55260
 C2870 C 0.02496 0.36415 0.56396
 C2871 C 0.00249 0.35134 0.57090
 C2872 C -0.02127 0.36384 0.56695
 C2873 C -0.02186 0.38758 0.55437
 C2874 C 0.00113 0.39991 0.54780
 C2875 C -0.04564 0.39824 0.54868
 N2876 N -0.06726 0.38723 0.55728
 N2877 N -0.06668 0.36628 0.57117
 C2878 C -0.04452 0.35441 0.57654
 H2879 H 0.04198 0.39701 0.54756
 H2880 H 0.04340 0.35537 0.56642
 H2881 H -0.04727 0.41510 0.53732
 H2882 H -0.04539 0.33810 0.58876
 C2883 C 0.48114 0.88620 0.05138
 C2884 C 0.48077 0.86230 0.06245
 C2885 C 0.50288 0.84748 0.06352
 C2886 C 0.52578 0.85687 0.05264
 C2887 C 0.52632 0.88153 0.04196
 C2888 C 0.50362 0.89610 0.04102
 C2889 C 0.54982 0.89097 0.03322
 N2890 N 0.57087 0.87609 0.03380
 N2891 N 0.57009 0.85250 0.04262
 C2892 C 0.54830 0.84236 0.05197
 H2893 H 0.46365 0.89710 0.05089
 H2894 H 0.46317 0.85557 0.07081
 H2895 H 0.55182 0.91009 0.02626
 H2896 H 0.54880 0.82302 0.05864
 C2897 C 0.51850 0.60596 0.06105
 C2898 C 0.51985 0.63057 0.07069
 C2899 C 0.49854 0.64653 0.07084
 C2900 C 0.47518 0.63730 0.06146
 C2901 C 0.47373 0.61211 0.05177
 C2902 C 0.49578 0.59648 0.05130
 C2903 C 0.44994 0.60315 0.04384
 N2904 N 0.42929 0.61862 0.04506
 N2905 N 0.43074 0.64232 0.05388
 C2906 C 0.45290 0.65215 0.06221
 H2907 H 0.53549 0.59425 0.06098
 H2908 H 0.53772 0.63725 0.07816
 H2909 H 0.44735 0.58391 0.03715
 H2910 H 0.45280 0.67137 0.06956
 C2911 C 0.01705 0.10792 0.55565
 C2912 C 0.01841 0.13252 0.56536
 C2913 C -0.00325 0.14793 0.56690
 C2914 C -0.02684 0.13837 0.55859
 C2915 C -0.02831 0.11325 0.54880
 C2916 C -0.00602 0.09804 0.54715
 C2917 C -0.05230 0.10398 0.54186
 N2918 N -0.07310 0.11919 0.54400
 N2919 N -0.07159 0.14291 0.55277
 C2920 C -0.04921 0.15301 0.56019
 H2921 H 0.03423 0.09653 0.55459
 H2922 H 0.03647 0.13952 0.57204
 H2923 H -0.05487 0.08474 0.53516
 H2924 H -0.04910 0.17232 0.56733
 C2925 C 0.52672 0.11391 0.44510
 C2926 C 0.52616 0.13833 0.43508
 C2927 C 0.50361 0.14865 0.42564
 C2928 C 0.48118 0.13381 0.42611
 C2929 C 0.48145 0.10953 0.43754
 C2930 C 0.50467 0.09915 0.44627
 C2931 C 0.45817 0.09679 0.44045
 N2932 N 0.43672 0.10657 0.43042
 N2933 N 0.43689 0.12841 0.41792
 C2934 C 0.45836 0.14231 0.41534
 H2935 H 0.54454 0.10644 0.45197
 H2936 H 0.54349 0.14935 0.43482
 H2937 H 0.45663 0.07950 0.45108
 H2938 H 0.45733 0.15975 0.40478
 C2939 C 0.00313 0.62400 0.96824
 C2940 C 0.00116 0.64745 0.95644
 C2941 C 0.01115 0.65130 0.93192
 C2942 C 0.02280 0.63024 0.91887
 C2943 C 0.02540 0.60662 0.93136
 C2944 C 0.01487 0.60343 0.95591
 C2945 C 0.03822 0.58663 0.91867
 N2946 N 0.04609 0.58948 0.89434
 N2947 N 0.04188 0.61090 0.88186
 C2948 C 0.03027 0.63117 0.89310
 H2949 H -0.00526 0.62170 0.98694
 H2950 H -0.00769 0.66290 0.96702
 H2951 H 0.04207 0.56879 0.92788
 H2952 H 0.02649 0.64748 0.88148
 C2953 C 0.25477 0.71462 0.87093
 C2954 C 0.25634 0.70373 0.89481
 C2955 C 0.24540 0.68003 0.89967
 C2956 C 0.23132 0.66775 0.88038
 C2957 C 0.23008 0.67867 0.85596
 C2958 C 0.24245 0.70200 0.85118
 C2959 C 0.21594 0.66610 0.83726
 N2960 N 0.20377 0.64417 0.84284
 N2961 N 0.20471 0.63404 0.86584
 C2962 C 0.21795 0.64509 0.88479
 H2963 H 0.26410 0.73261 0.86756
 H2964 H 0.26690 0.71349 0.90939
 H2965 H 0.21407 0.67367 0.81841
 H2966 H 0.21752 0.63626 0.90320
 C2967 C 0.72892 0.18922 0.35505
 C2968 C 0.73059 0.17773 0.37863
 C2969 C 0.74665 0.18747 0.39729
 C2970 C 0.76135 0.20934 0.39200
 C2971 C 0.75956 0.22111 0.36801
 C2972 C 0.74313 0.21091 0.34950
 C2973 C 0.77518 0.24214 0.36296
 N2974 N 0.79120 0.25086 0.38090
 N2975 N 0.79288 0.23983 0.40341
 C2976 C 0.77866 0.21931 0.40952
 H2977 H 0.71660 0.18102 0.34091
 H2978 H 0.71940 0.16089 0.38230
 H2979 H 0.77512 0.25150 0.34485
 H2980 H 0.78134 0.21086 0.42787
 C2981 C 0.26687 0.31383 0.35786
 C2982 C 0.26490 0.32525 0.38169
 C2983 C 0.24835 0.31567 0.40031
 C2984 C 0.23338 0.29408 0.39466
 C2985 C 0.23571 0.28218 0.37051
 C2986 C 0.25263 0.29226 0.35206
 C2987 C 0.22019 0.26112 0.36532
 N2988 N 0.20353 0.25269 0.38312
 N2989 N 0.20114 0.26402 0.40566
 C2990 C 0.21532 0.28448 0.41198
 H2991 H 0.27959 0.32192 0.34380
 H2992 H 0.27636 0.34183 0.38563
 H2993 H 0.22088 0.25143 0.34725
 H2994 H 0.21200 0.29320 0.43031
 C2995 C 0.77629 0.80918 0.85661
 C2996 C 0.77556 0.82094 0.88033
 C2997 C 0.76083 0.81102 0.90019
 C2998 C 0.74674 0.78850 0.89610
 C2999 C 0.74754 0.77645 0.87194
 C3000 C 0.76244 0.78702 0.85207
 C3001 C 0.73232 0.75486 0.86818
 N3002 N 0.71772 0.74586 0.88742
 N3003 N 0.71702 0.75713 0.91007
 C3004 C 0.73086 0.77819 0.91502
 H3005 H 0.78746 0.81766 0.84153
 H3006 H 0.78618 0.83830 0.88308
 H3007 H 0.73153 0.74524 0.85011
 H3008 H 0.72900 0.78677 0.93361
 C3009 C 0.74730 0.78812 0.12901
 C3010 C 0.74893 0.79876 0.10499
 C3011 C 0.74426 0.82467 0.10147
 C3012 C 0.73777 0.84021 0.12272
 C3013 C 0.73538 0.82922 0.14709
 C3014 C 0.74092 0.80305 0.15029
 C3015 C 0.72707 0.84483 0.16736
 N3016 N 0.72302 0.86996 0.16368
 N3017 N 0.72657 0.88052 0.14110
 C3018 C 0.73387 0.86657 0.12055
 H3019 H 0.75164 0.76811 0.13107
 H3020 H 0.75379 0.78663 0.08896
 H3021 H 0.72333 0.83732 0.18599
 H3022 H 0.73670 0.87630 0.10280
 C3023 C 0.22732 0.29709 0.63603
 C3024 C 0.22748 0.30845 0.61226
 C3025 C 0.24943 0.32018 0.60260
 C3026 C 0.27180 0.32016 0.61730
 C3027 C 0.27203 0.30720 0.64074
 C3028 C 0.24925 0.29667 0.65072
 C3029 C 0.29536 0.30478 0.65318
 N3030 N 0.31629 0.31675 0.64412
 N3031 N 0.31552 0.33078 0.62329
 C3032 C 0.29401 0.33300 0.60965
 H3033 H 0.20982 0.28887 0.64317
 H3034 H 0.21020 0.30822 0.60134
 H3035 H 0.29732 0.29298 0.66961
 H3036 H 0.29454 0.34491 0.59311
 C3037 C 0.74005 0.19124 0.63807
 C3038 C 0.73882 0.18139 0.61361
 C3039 C 0.75903 0.18437 0.59642
 C3040 C 0.78092 0.19790 0.60413
 C3041 C 0.78252 0.20734 0.62937
 C3042 C 0.76159 0.20435 0.64636
 C3043 C 0.80535 0.21891 0.63675
 N3044 N 0.82447 0.22213 0.61963
 N3045 N 0.82242 0.21447 0.59567
 C3046 C 0.80132 0.20255 0.58732
 H3047 H 0.72377 0.18879 0.65058
 H3048 H 0.72202 0.17097 0.60817
 H3049 H 0.80848 0.22506 0.65597
 H3050 H 0.80067 0.19699 0.56760
 C3051 C 0.23812 0.69050 0.14264
 C3052 C 0.23766 0.68034 0.11824
 C3053 C 0.25860 0.68266 0.10179
 C3054 C 0.28051 0.69572 0.11029
 C3055 C 0.28133 0.70528 0.13552
 C3056 C 0.25960 0.70321 0.15160
 C3057 C 0.30419 0.71608 0.14388
 N3058 N 0.32408 0.71870 0.12755
 N3059 N 0.32276 0.71113 0.10350
 C3060 C 0.30168 0.69984 0.09429
 H3061 H 0.22131 0.68867 0.15455
 H3062 H 0.22086 0.67025 0.11225
 H3063 H 0.30670 0.72206 0.16327
 H3064 H 0.30165 0.69436 0.07453
 C3065 C 0.21640 0.62782 0.74752
 C3066 C 0.20529 0.60388 0.74636
 C3067 C 0.18099 0.59988 0.75654
 C3068 C 0.16788 0.62014 0.76883
 C3069 C 0.17915 0.64451 0.77002
 C3070 C 0.20337 0.64841 0.75866
 C3071 C 0.16591 0.66404 0.78299
 N3072 N 0.14277 0.65942 0.79353
 N3073 N 0.13202 0.63662 0.79204
 C3074 C 0.14375 0.61684 0.78006
 H3075 H 0.23500 0.63049 0.73893
 H3076 H 0.21551 0.58847 0.73701
 H3077 H 0.17383 0.68281 0.78516
 H3078 H 0.13420 0.59869 0.77959
 C3079 C 0.71467 0.13411 0.24587
 C3080 C 0.70374 0.11014 0.24407
 C3081 C 0.67825 0.10611 0.25130
 C3082 C 0.66454 0.12662 0.26311
 C3083 C 0.67568 0.15113 0.26457
 C3084 C 0.70066 0.15493 0.25507
 C3085 C 0.66184 0.17084 0.27665
 N3086 N 0.63868 0.16615 0.28704
 N3087 N 0.62858 0.14305 0.28653
 C3088 C 0.64079 0.12314 0.27529
 H3089 H 0.73397 0.13664 0.23898
 H3090 H 0.71495 0.09506 0.23535
 H3091 H 0.66943 0.18975 0.27867
 H3092 H 0.63210 0.10467 0.27683
 C3093 C 0.78196 0.12935 0.74333
 C3094 C 0.79244 0.10502 0.74438
 C3095 C 0.81806 0.10084 0.73823
 C3096 C 0.83304 0.12134 0.72935
 C3097 C 0.82238 0.14611 0.72823
 C3098 C 0.79682 0.15021 0.73615
 C3099 C 0.83758 0.16582 0.71861
 N3100 N 0.86187 0.16102 0.71110
 N3101 N 0.87194 0.13783 0.71236
 C3102 C 0.85837 0.11784 0.72114
 H3103 H 0.76232 0.13206 0.74917
 H3104 H 0.78072 0.08952 0.75103
 H3105 H 0.83030 0.18486 0.71648
 H3106 H 0.86739 0.09935 0.72123
 C3107 C 0.30155 0.64196 0.26875
 C3108 C 0.31189 0.61770 0.27040
 C3109 C 0.31614 0.60282 0.24864
 C3110 C 0.31016 0.61290 0.22458
 C3111 C 0.29950 0.63766 0.22291
 C3112 C 0.29499 0.65211 0.24529
 C3113 C 0.29464 0.64747 0.19874
 N3114 N 0.29989 0.63326 0.17777
 N3115 N 0.30986 0.61004 0.17932
 C3116 C 0.31528 0.59944 0.20195
 H3117 H 0.29834 0.65282 0.28603
 H3118 H 0.31665 0.61043 0.28889
 H3119 H 0.28713 0.66640 0.19624
 H3120 H 0.32381 0.58074 0.20195
 C3121 C 0.28440 0.36825 0.25796
 C3122 C 0.29400 0.39282 0.25663
 C3123 C 0.32011 0.39716 0.25768
 C3124 C 0.33698 0.37628 0.25998
 C3125 C 0.32727 0.35118 0.26163
 C3126 C 0.30057 0.34708 0.26030
 C3127 C 0.34478 0.33126 0.26510
 N3128 N 0.37003 0.33608 0.26585
 N3129 N 0.37909 0.35950 0.26350
 C3130 C 0.36347 0.37973 0.26057
 H3131 H 0.26404 0.36576 0.25670
 H3132 H 0.28090 0.40863 0.25500
 H3133 H 0.33887 0.31193 0.26759
 H3134 H 0.37194 0.39830 0.25865
 C3135 C 0.78950 0.86391 0.75876
 C3136 C 0.79891 0.88852 0.75704
 C3137 C 0.82499 0.89290 0.75512
 C3138 C 0.84201 0.87195 0.75467
 C3139 C 0.83255 0.84677 0.75683
 C3140 C 0.80581 0.84265 0.75859
 C3141 C 0.85043 0.82681 0.75763
 N3142 N 0.87561 0.83168 0.75530
 N3143 N 0.88431 0.85516 0.75234
 C3144 C 0.86841 0.87542 0.75190
 H3145 H 0.76909 0.86153 0.75982
 H3146 H 0.78568 0.90435 0.75748
 H3147 H 0.84496 0.80742 0.76041
 H3148 H 0.87658 0.89403 0.74927
 C3149 C 0.68697 0.86202 0.22743
 C3150 C 0.67669 0.88644 0.22692
 C3151 C 0.68637 0.90585 0.24229
 C3152 C 0.70739 0.90066 0.25795
 C3153 C 0.71776 0.87577 0.25857
 C3154 C 0.70726 0.85632 0.24329
 C3155 C 0.73822 0.87113 0.27480
 N3156 N 0.74791 0.89034 0.28888
 N3157 N 0.73853 0.91382 0.28787
 C3158 C 0.71866 0.91966 0.27288
 H3159 H 0.67915 0.84751 0.21523
 H3160 H 0.66071 0.89013 0.21474
 H3161 H 0.74659 0.85247 0.27648
 H3162 H 0.71203 0.93911 0.27264
 C3163 C 0.19605 0.36126 0.72266
 C3164 C 0.18470 0.38525 0.72250
 C3165 C 0.17961 0.39834 0.74522
 C3166 C 0.18614 0.38720 0.76854
 C3167 C 0.19774 0.36289 0.76872
 C3168 C 0.20231 0.34969 0.74555
 C3169 C 0.20486 0.35282 0.79220
 N3170 N 0.19991 0.36596 0.81391
 N3171 N 0.18847 0.38856 0.81375
 C3172 C 0.18143 0.39964 0.79184
 H3173 H 0.19966 0.35149 0.70482
 H3174 H 0.17971 0.39364 0.70456
 H3175 H 0.21456 0.33484 0.79351
 H3176 H 0.17232 0.41807 0.79285
 C3177 C 0.13122 0.75693 0.78585
 C3178 C 0.10721 0.75910 0.79706
 C3179 C 0.10182 0.74747 0.82027
 C3180 C 0.12068 0.73218 0.83174
 C3181 C 0.14526 0.73041 0.82057
 C3182 C 0.15055 0.74332 0.79771
 C3183 C 0.16361 0.71522 0.83242
 N3184 N 0.15750 0.70248 0.85384
 N3185 N 0.13430 0.70382 0.86414
 C3186 C 0.11569 0.71812 0.85381
 H3187 H 0.13503 0.76669 0.76822
 H3188 H 0.09292 0.77057 0.78792
 H3189 H 0.18260 0.71303 0.82467
 H3190 H 0.09709 0.71799 0.86274
 C3191 C 0.63888 0.23513 0.30956
 C3192 C 0.61489 0.23702 0.32086
 C3193 C 0.59844 0.25716 0.31512
 C3194 C 0.60638 0.27570 0.29740
 C3195 C 0.63071 0.27356 0.28567
 C3196 C 0.64699 0.25318 0.29202
 C3197 C 0.63824 0.29238 0.26840
 N3198 N 0.62244 0.31206 0.26344
 N3199 N 0.59974 0.31428 0.27470
 C3200 C 0.59122 0.29689 0.29158
 H3201 H 0.65132 0.21962 0.31474
 H3202 H 0.60918 0.22276 0.33445
 H3203 H 0.65658 0.29171 0.25893
 H3204 H 0.57284 0.30000 0.30043
 C3205 C 0.64120 0.74120 0.19261
 C3206 C 0.61709 0.73894 0.18252
 C3207 C 0.59950 0.75882 0.18462
 C3208 C 0.60648 0.78162 0.19716
 C3209 C 0.63116 0.78396 0.20759
 C3210 C 0.64867 0.76342 0.20527
 C3211 C 0.63764 0.80720 0.21908
 N3212 N 0.62054 0.82652 0.22021
 N3213 N 0.59747 0.82430 0.21046
 C3214 C 0.58990 0.80261 0.19888
 H3215 H 0.65410 0.72520 0.19067
 H3216 H 0.61214 0.72147 0.17282
 H3217 H 0.65617 0.81047 0.22682
 H3218 H 0.57110 0.80211 0.19093
 C3219 C 0.13824 0.27284 0.69939
 C3220 C 0.11368 0.27137 0.68992
 C3221 C 0.10217 0.24775 0.68497
 C3222 C 0.11536 0.22521 0.69202
 C3223 C 0.14054 0.22680 0.70124
 C3224 C 0.15222 0.25083 0.70429
 C3225 C 0.15282 0.20419 0.70834
 N3226 N 0.14052 0.18170 0.70690
 N3227 N 0.11662 0.18027 0.69922
 C3228 C 0.10355 0.20119 0.69210
 H3229 H 0.14666 0.29135 0.70235
 H3230 H 0.10426 0.28898 0.68510
 H3231 H 0.17180 0.20417 0.71565
 H3232 H 0.08380 0.19884 0.68739
 C3233 C 0.86039 0.22689 0.68617
 C3234 C 0.88465 0.22777 0.67532
 C3235 C 0.90223 0.24624 0.68286
 C3236 C 0.89510 0.26414 0.70191
 C3237 C 0.87056 0.26290 0.71329
 C3238 C 0.85307 0.24426 0.70509
 C3239 C 0.86408 0.28094 0.73210
 N3240 N 0.88090 0.29917 0.73870
 N3241 N 0.90371 0.30068 0.72764
 C3242 C 0.91132 0.28394 0.70941
 H3243 H 0.84719 0.21262 0.67965
 H3244 H 0.88970 0.21405 0.66067
 H3245 H 0.84581 0.28086 0.74155
 H3246 H 0.92984 0.28655 0.70081
 C3247 C 0.35834 0.76413 0.19473
 C3248 C 0.38285 0.76476 0.18461
 C3249 C 0.39874 0.74341 0.18555
 C3250 C 0.38967 0.72098 0.19734
 C3251 C 0.36440 0.72012 0.20710
 C3252 C 0.34879 0.74212 0.20612
 C3253 C 0.35548 0.69698 0.21688
 N3254 N 0.37131 0.67666 0.21815
 N3255 N 0.39537 0.67786 0.21019
 C3256 C 0.40511 0.69929 0.19991
 H3257 H 0.34673 0.78113 0.19378
 H3258 H 0.38932 0.78197 0.17550
 H3259 H 0.33606 0.69463 0.22320
 H3260 H 0.42485 0.69919 0.19401
 C3261 C 0.36047 0.27173 0.30613
 C3262 C 0.38411 0.27147 0.31762
 C3263 C 0.39567 0.24855 0.32460
 C3264 C 0.38279 0.22537 0.31996
 C3265 C 0.35927 0.22563 0.30710
 C3266 C 0.34783 0.24910 0.30062
 C3267 C 0.34812 0.20221 0.30090
 N3268 N 0.35884 0.18022 0.30869
 N3269 N 0.38003 0.18006 0.32215
 C3270 C 0.39230 0.20183 0.32814
 H3271 H 0.35182 0.28981 0.30190
 H3272 H 0.39347 0.28941 0.32115
 H3273 H 0.33118 0.20113 0.28969
 H3274 H 0.40917 0.20045 0.33946
 C3275 C 0.86666 0.76573 0.79960
 C3276 C 0.88984 0.76591 0.81194
 C3277 C 0.89956 0.74383 0.82303
 C3278 C 0.88549 0.72095 0.82118
 C3279 C 0.86268 0.72048 0.80712
 C3280 C 0.85271 0.74334 0.79712
 C3281 C 0.85080 0.69694 0.80327
 N3282 N 0.85978 0.67584 0.81471
 N3283 N 0.87997 0.67668 0.82958
 C3284 C 0.89304 0.69849 0.83332
 H3285 H 0.85931 0.78342 0.79248
 H3286 H 0.90018 0.78362 0.81309
 H3287 H 0.83482 0.69501 0.79088
 H3288 H 0.90900 0.69800 0.84593
   
