data_POSCAR
  _audit_creation_date              2014-09-24
  _audit_creation_method            'ToBaCCo'
  _symmetry_space_group_name_H-M    'P1'
  _symmetry_Int_Tables_number       1
  _symmetry_cell_setting            triclinic
  loop_
  _symmetry_equiv_pos_as_xyz
 x,y,z
_cell_length_a 42.8664
_cell_length_b 42.8657
_cell_length_c 42.8668
_cell_angle_alpha 89.996900
_cell_angle_beta 90.008800
_cell_angle_gamma 90.001900
loop_
  _atom_site_label
  _atom_site_type_symbol
  _atom_site_fract_x
  _atom_site_fract_y
  _atom_site_fract_z
N1 N 0.31858 1.31946 0.31841
 N2 N 0.31873 0.81949 0.81847
 N3 N 0.81853 1.31923 0.81875
 N4 N 0.81857 0.81924 0.31857
 N5 N 0.68125 0.68072 0.31962
 N6 N 0.68167 0.18128 0.81878
 N7 N 1.18157 0.68088 0.81932
 N8 N 1.18180 0.18117 0.31888
 N9 N 0.68136 1.31822 0.68082
 N10 N 0.68050 0.81811 1.18153
 N11 N 1.18098 1.31825 1.18080
 N12 N 1.18024 0.81853 0.68140
 N13 N 0.31864 0.68140 0.68147
 N14 N 0.31932 0.18112 1.18121
 N15 N 0.81886 0.68159 1.18125
 N16 N 0.81942 0.18107 0.68094
 N17 N 1.31886 0.31946 0.68034
 N18 N 1.31856 0.81884 1.18088
 N19 N 0.81839 0.31861 1.18080
 N20 N 0.81832 0.81843 0.68113
 N21 N 0.68151 0.68041 0.68171
 N22 N 0.68112 1.18032 1.18178
 N23 N 0.18134 0.68092 1.18117
 N24 N 0.18147 1.18111 0.68153
 N25 N 1.31866 0.68180 0.31918
 N26 N 1.31950 1.18206 0.81866
 N27 N 0.81910 0.68160 0.81936
 N28 N 0.81936 1.18131 0.31877
 N29 N 0.68125 0.31854 0.31854
 N30 N 0.68082 0.81896 0.81871
 N31 N 0.18114 0.31879 0.81864
 N32 N 0.18076 0.81912 0.31876
 O33 O 0.96985 0.88552 0.84600
 O34 O 0.97014 0.84875 0.81002
 C35 C 0.95903 0.87394 0.82094
 C36 C 0.93224 0.88902 0.80517
 C37 C 0.91755 0.87417 0.77990
 H38 H 0.92683 0.85245 0.77102
 O39 O 1.02889 1.11224 0.84376
 O40 O 1.02827 1.14847 0.80725
 C41 C 1.03953 1.12346 0.81848
 C42 C 1.06637 1.10830 0.80288
 C43 C 1.08129 1.12323 0.77782
 H44 H 1.07204 1.14494 0.76891
 O45 O 0.84457 0.96711 0.88781
 O46 O 0.80823 0.96644 0.85140
 C47 C 0.81949 0.95588 0.87670
 C48 C 0.80408 0.92929 0.89248
 C49 C 0.77900 0.91392 0.87803
 H50 H 0.76996 0.92233 0.85597
 O51 O 1.15463 1.03151 0.88630
 O52 O 1.19072 1.03148 0.84964
 C53 C 1.17967 1.04246 0.87485
 C54 C 1.19524 1.06930 0.89006
 C55 C 1.22055 1.08402 0.87537
 H56 H 1.22960 1.07465 0.85377
 O57 O 0.88762 0.84352 0.97101
 O58 O 0.85151 0.80687 0.97127
 C59 C 0.87653 0.81825 0.96017
 C60 C 0.89208 0.80279 0.93342
 C61 C 0.87741 0.77790 0.91785
 H62 H 0.85524 0.76901 0.92615
 O63 O 1.11152 1.15633 0.96787
 O64 O 1.14754 1.19306 0.96753
 C65 C 1.12245 1.18153 0.95675
 C66 C 1.10676 1.19673 0.92996
 C67 C 1.12124 1.22172 0.91448
 H68 H 1.14322 1.23089 0.92298
 O69 O 0.88668 1.02819 0.84448
 O70 O 0.85025 1.02751 0.80816
 C71 C 0.87530 1.03881 0.81925
 C72 C 0.89038 1.06569 0.80356
 C73 C 0.87550 1.08047 0.77834
 H74 H 0.85386 1.07113 0.76933
 O75 O 1.11230 0.96974 0.84424
 O76 O 1.14845 0.96971 0.80763
 C77 C 1.12348 0.95863 0.81913
 C78 C 1.10814 0.93156 0.80405
 C79 C 1.12263 0.91618 0.77895
 H80 H 1.14445 0.92486 0.76960
 O81 O 1.03180 0.84392 0.88862
 O82 O 1.03206 0.80733 0.85246
 C83 C 1.04304 0.81886 0.87744
 C84 C 1.07012 0.80382 0.89275
 C85 C 1.08547 0.77874 0.87824
 H86 H 1.07673 0.76939 0.85644
 O87 O 0.96761 1.15464 0.88641
 O88 O 0.96702 1.19079 0.84981
 C89 C 0.95635 1.17962 0.87509
 C90 C 0.92961 1.19496 0.89065
 C91 C 0.91434 1.22016 0.87624
 H92 H 0.92293 1.22938 0.85433
 O93 O 0.84331 1.11075 0.96868
 O94 O 0.80672 1.14692 0.96846
 C95 C 0.81814 1.12183 0.95760
 C96 C 0.80285 1.10629 0.93080
 C97 C 0.77803 1.12100 0.91523
 H98 H 0.76904 1.14307 0.92367
 O99 O 1.15679 0.88899 0.96946
 O100 O 1.19346 0.85290 0.96956
 C101 C 1.18195 0.87784 0.95844
 C102 C 1.19706 0.89314 0.93138
 C103 C 1.22202 0.87848 0.91596
 H104 H 1.23125 0.85661 0.92464
 O105 O 0.96779 1.11156 0.84417
 O106 O 0.96720 1.14781 0.80767
 C107 C 0.95660 1.12257 0.81902
 C108 C 0.92999 1.10677 0.80364
 C109 C 0.91458 1.12125 0.77861
 H110 H 0.92297 1.14332 0.76958
 O111 O 1.03084 0.88682 0.84613
 O112 O 1.03097 0.85009 0.81010
 C113 C 1.04161 0.87554 0.82093
 C114 C 1.06788 0.89116 0.80487
 C115 C 1.08250 0.87646 0.77953
 H116 H 1.07340 0.85459 0.77086
 O117 O 1.15518 0.97051 0.88672
 O118 O 1.19123 0.97054 0.85002
 C119 C 1.18038 0.95977 0.87541
 C120 C 1.19637 0.93337 0.89094
 C121 C 1.22155 0.91853 0.87614
 H122 H 1.23020 0.92752 0.85421
 O123 O 0.84398 1.02816 0.88713
 O124 O 0.80764 1.02749 0.85071
 C125 C 0.81872 1.03874 0.87579
 C126 C 0.80299 1.06552 0.89091
 C127 C 0.77798 1.08048 0.87591
 H128 H 0.76917 1.07131 0.85410
 O129 O 0.88573 1.15372 0.96873
 O130 O 0.84900 1.18975 0.96872
 C131 C 0.87432 1.17883 0.95788
 C132 C 0.88967 1.19468 0.93133
 C133 C 0.87500 1.22008 0.91673
 H134 H 0.85332 1.22902 0.92603
 O135 O 1.11459 0.84584 0.97003
 O136 O 1.15137 0.80986 0.97021
 C137 C 1.12600 0.82065 0.95936
 C138 C 1.11055 0.80459 0.93298
 C139 C 1.12529 0.77927 0.91828
 H140 H 1.14718 0.77057 0.92733
 O141 O 1.11185 1.03098 0.84372
 O142 O 1.14803 1.03098 0.80716
 C143 C 1.12290 1.04188 0.81847
 C144 C 1.10729 1.06855 0.80298
 C145 C 1.12198 1.08406 0.77809
 H146 H 1.14410 1.07568 0.76918
 O147 O 0.88710 0.96702 0.84502
 O148 O 0.85066 0.96635 0.80870
 C149 C 0.87591 0.95572 0.82001
 C150 C 0.89151 0.92894 0.80479
 C151 C 0.87707 0.91354 0.77971
 H152 H 0.85514 0.92209 0.77049
 O153 O 1.02873 1.15517 0.88625
 O154 O 1.02813 1.19130 0.84963
 C155 C 1.03932 1.18039 0.87481
 C156 C 1.06602 1.19629 0.88999
 C157 C 1.08079 1.22149 0.87507
 H158 H 1.07160 1.23028 0.85327
 O159 O 0.97054 0.84363 0.88954
 O160 O 0.97093 0.80703 0.85340
 C161 C 0.95988 0.81829 0.87848
 C162 C 0.93314 0.80265 0.89380
 C163 C 0.91829 0.77754 0.87891
 H164 H 0.92763 0.76862 0.85724
 O165 O 1.15476 1.11429 0.96777
 O166 O 1.19073 1.15107 0.96730
 C167 C 1.17970 1.12574 0.95657
 C168 C 1.19517 1.11021 0.92983
 C169 C 1.22028 1.12472 0.91453
 H170 H 1.22937 1.14672 0.92305
 O171 O 0.84482 0.88608 0.97110
 O172 O 0.80878 0.84937 0.97153
 C173 C 0.81970 0.87457 0.96038
 C174 C 0.80398 0.88968 0.93356
 C175 C 0.77871 0.87486 0.91883
 H176 H 0.76968 0.85323 0.92819
 Cu177 Cu 1.00073 0.86862 0.87125
 Cu178 Cu 1.00106 0.82459 0.82792
 Cu179 Cu 0.99831 1.12978 0.86883
 Cu180 Cu 0.99761 1.17321 0.82492
 Cu181 Cu 0.86925 0.99769 0.86974
 Cu182 Cu 0.82556 0.99688 0.82609
 Cu183 Cu 1.12982 1.00068 0.86887
 Cu184 Cu 1.17319 1.00068 0.82492
 C185 C 0.91927 0.91663 0.81720
 H186 H 0.93011 0.92787 0.83707
 C187 C 0.88985 0.88614 0.76737
 C188 C 1.07933 1.08074 0.81506
 H189 H 1.06832 1.06946 0.83481
 C190 C 1.10924 1.11146 0.76565
 C191 C 0.81625 0.91714 0.92042
 H192 H 0.83614 0.92834 0.93125
 C193 C 0.76644 0.88668 0.89094
 C194 C 1.18296 1.08234 0.91753
 H195 H 1.16306 1.07145 0.92865
 C196 C 1.23288 1.11184 0.88727
 C197 C 0.92009 0.81488 0.92129
 H198 H 0.93107 0.83466 0.93254
 C199 C 0.89029 0.76540 0.89053
 C200 C 1.07898 1.18432 0.91766
 H201 H 1.06813 1.16448 0.92894
 C202 C 1.10853 1.23399 0.88702
 C203 C 0.91784 1.07883 0.81582
 H204 H 0.92908 1.06798 0.83568
 C205 C 0.88730 1.10838 0.76608
 C206 C 1.08061 0.91896 0.81671
 H207 H 1.06978 0.93010 0.83664
 C208 C 1.10998 0.88861 0.76676
 C209 C 1.08273 0.81643 0.92028
 H210 H 1.07155 0.83632 0.93115
 C211 C 1.11306 0.76653 0.89080
 C212 C 0.91722 1.18254 0.91836
 H213 H 0.92832 1.16257 0.92916
 C214 C 0.88701 1.23263 0.88908
 C215 C 0.81502 1.07840 0.91858
 H216 H 0.83473 1.06737 0.92993
 C217 C 0.76573 1.10836 0.88774
 C218 C 1.18455 0.92074 0.91880
 H219 H 1.16473 0.93171 0.93000
 C220 C 1.23418 0.89097 0.88832
 O221 O 1.03217 0.88883 1.15572
 O222 O 1.03275 0.85258 1.19222
 C223 C 1.04337 0.87780 1.18085
 C224 C 1.07007 0.89353 1.19617
 C225 C 1.08548 0.87904 1.22119
 H226 H 1.07701 0.85703 1.23030
 O227 O 0.96914 1.11307 1.15425
 O228 O 0.96903 1.14979 1.19028
 C229 C 0.95837 1.12435 1.17945
 C230 C 0.93206 1.10877 1.19549
 C231 C 0.91740 1.12347 1.22082
 H232 H 0.92651 1.14533 1.22954
 O233 O 0.84441 1.03009 1.11345
 O234 O 0.80836 1.03026 1.15015
 C235 C 0.81930 1.04102 1.12480
 C236 C 0.80353 1.06749 1.10913
 C237 C 0.77859 1.08293 1.12381
 H238 H 0.76988 1.07471 1.14607
 O239 O 1.15638 0.97187 1.11232
 O240 O 1.19274 0.97253 1.14872
 C241 C 1.18166 0.96130 1.12363
 C242 C 1.19744 0.93457 1.10845
 C243 C 1.22249 0.91964 1.12343
 H244 H 1.23126 0.92878 1.14525
 O245 O 1.11455 0.84650 1.03098
 O246 O 1.15131 0.81049 1.03109
 C247 C 1.12599 0.82146 1.04193
 C248 C 1.11064 0.80575 1.06859
 C249 C 1.12524 0.78034 1.08323
 H250 H 1.14691 0.77134 1.07394
 O251 O 0.88559 1.15394 1.02972
 O252 O 0.84878 1.18989 1.02957
 C253 C 0.87411 1.17906 1.04049
 C254 C 0.88946 1.19501 1.06701
 C255 C 0.87466 1.22025 1.08175
 H256 H 0.85278 1.22897 1.07267
 O257 O 0.88770 0.96934 1.15603
 O258 O 0.85149 0.96924 1.19257
 C259 C 0.87663 0.95836 1.18124
 C260 C 0.89228 0.93166 1.19667
 C261 C 0.87767 0.91615 1.22160
 H262 H 0.85556 0.92451 1.23055
 O263 O 1.11322 1.03293 1.15456
 O264 O 1.14968 1.03357 1.19085
 C265 C 1.12441 1.04419 1.17959
 C266 C 1.10876 1.07090 1.19492
 C267 C 1.12320 1.08625 1.22002
 H268 H 1.14518 1.07774 1.22918
 O269 O 0.97132 0.84517 1.11355
 O270 O 0.97192 0.80904 1.15017
 C271 C 0.96072 0.81996 1.12499
 C272 C 0.93400 0.80407 1.10985
 C273 C 0.91924 0.77887 1.12478
 H274 H 0.92848 0.77005 1.14655
 O275 O 1.02941 1.15626 1.11075
 O276 O 1.02900 1.19287 1.14689
 C277 C 1.04004 1.18163 1.12180
 C278 C 1.06674 1.19732 1.10646
 C279 C 1.08163 1.22241 1.12137
 H280 H 1.07237 1.23125 1.14310
 O281 O 0.84492 0.88607 1.03222
 O282 O 0.80894 0.84931 1.03270
 C283 C 0.81995 0.87465 1.04341
 C284 C 0.80443 0.89023 1.07010
 C285 C 0.77934 0.87571 1.08545
 H286 H 0.77033 0.85365 1.07702
 O287 O 1.15507 1.11436 1.02886
 O288 O 1.19109 1.15109 1.02844
 C289 C 1.18021 1.12585 1.03956
 C290 C 1.19602 1.11069 1.06630
 C291 C 1.22129 1.12550 1.08104
 H292 H 1.23025 1.14719 1.07177
 O293 O 1.03016 1.11415 1.15406
 O294 O 1.02990 1.15091 1.19006
 C295 C 1.04103 1.12574 1.17909
 C296 C 1.06789 1.11068 1.19477
 C297 C 1.08259 1.12549 1.22006
 H298 H 1.07326 1.14714 1.22904
 O299 O 0.97100 0.88816 1.15599
 O300 O 0.97161 0.85192 1.19250
 C301 C 0.96030 0.87691 1.18124
 C302 C 0.93335 0.89200 1.19678
 C303 C 0.91847 0.87708 1.22190
 H304 H 0.92780 0.85542 1.23086
 O305 O 1.15573 1.03295 1.11175
 O306 O 1.19209 1.03359 1.14815
 C307 C 1.18079 1.04419 1.12288
 C308 C 1.19613 1.07087 1.10718
 C309 C 1.22121 1.08623 1.12164
 H310 H 1.23032 1.07773 1.14363
 O311 O 0.84486 0.96905 1.11352
 O312 O 0.80871 0.96917 1.15012
 C313 C 0.81978 0.95815 1.12492
 C314 C 0.80421 0.93129 1.10974
 C315 C 0.77894 0.91655 1.12447
 H316 H 0.76986 0.92597 1.14603
 O317 O 1.11208 1.15672 1.02901
 O318 O 1.14817 1.19339 1.02878
 C319 C 1.12316 1.18198 1.03989
 C320 C 1.10766 1.19735 1.06670
 C321 C 1.12236 1.22221 1.08227
 H322 H 1.14448 1.23114 1.07392
 O323 O 0.88832 0.84415 1.03214
 O324 O 0.85227 0.80743 1.03251
 C325 C 0.87739 0.81895 1.04326
 C326 C 0.89313 0.80373 1.07000
 C327 C 0.87867 0.77874 1.08549
 H328 H 0.85666 0.76960 1.07705
 O329 O 1.11367 0.97180 1.15502
 O330 O 1.15013 0.97246 1.19132
 C331 C 1.12504 0.96119 1.18026
 C332 C 1.10990 0.93440 1.19602
 C333 C 1.12476 0.91962 1.22124
 H334 H 1.14648 0.92887 1.23016
 O335 O 0.88740 1.03051 1.15579
 O336 O 0.85127 1.03051 1.19242
 C337 C 0.87628 1.04154 1.18096
 C338 C 0.89170 1.06847 1.19615
 C339 C 0.87720 1.08382 1.22125
 H340 H 0.85534 1.07517 1.23054
 O341 O 0.96817 1.15567 1.11147
 O342 O 0.96787 1.19226 1.14765
 C343 C 0.95690 1.18071 1.12266
 C344 C 0.92980 1.19571 1.10733
 C345 C 0.91439 1.22073 1.12187
 H346 H 0.92309 1.23004 1.14371
 O347 O 1.03249 0.84583 1.11339
 O348 O 1.03306 0.80969 1.15000
 C349 C 1.04378 0.82087 1.12474
 C350 C 1.07061 0.80555 1.10924
 C351 C 1.08584 0.78034 1.12367
 H352 H 1.07720 0.77111 1.14557
 O353 O 1.15712 0.88930 1.03071
 O354 O 1.19377 0.85320 1.03084
 C355 C 1.18235 0.87828 1.04171
 C356 C 1.19767 0.89386 1.06849
 C357 C 1.22253 0.87918 1.08404
 H358 H 1.23155 0.85713 1.07559
 O359 O 0.84337 1.11077 1.02991
 O360 O 0.80671 1.14685 1.02958
 C361 C 0.81812 1.12188 1.04073
 C362 C 0.80279 1.10675 1.06774
 C363 C 0.77767 1.12157 1.08264
 H364 H 0.76848 1.14306 1.07314
 Cu365 Cu 1.00169 0.87062 1.13099
 Cu366 Cu 1.00238 0.82720 1.17489
 Cu367 Cu 0.99924 1.13113 1.12897
 Cu368 Cu 0.99892 1.17516 1.17229
 Cu369 Cu 0.87002 0.86863 1.00158
 Cu370 Cu 0.82678 0.82456 1.00205
 Cu371 Cu 1.13213 0.87133 1.00027
 Cu372 Cu 1.17620 0.82805 1.00045
 Cu373 Cu 0.86816 1.12863 0.99927
 Cu374 Cu 0.82409 1.17192 0.99907
 Cu375 Cu 1.12975 1.13175 0.99843
 Cu376 Cu 1.17297 1.17585 0.99798
 Cu377 Cu 0.86973 0.99976 1.13105
 Cu378 Cu 0.82636 0.99978 1.17500
 Cu379 Cu 1.13109 1.00232 1.12978
 Cu380 Cu 1.17480 1.00309 1.17341
 C381 C 1.08232 0.92138 1.18389
 H382 H 1.07109 0.93224 1.16403
 C383 C 1.11286 0.89180 1.23361
 C384 C 0.91929 1.08101 1.18358
 H385 H 0.93013 1.06989 1.16365
 C386 C 0.88986 1.11135 1.23351
 C387 C 0.81532 1.07947 1.08094
 H388 H 0.83512 1.06828 1.06993
 C389 C 0.76580 1.11006 1.11081
 C390 C 1.18544 0.92171 1.08075
 H391 H 1.16570 0.93271 1.06943
 C392 C 1.23481 0.89180 1.11155
 C393 C 1.08308 0.81794 1.08154
 H394 H 1.07201 0.83792 1.07071
 C395 C 1.11317 0.76781 1.11087
 C396 C 0.91727 1.18315 1.07974
 H397 H 0.92849 1.16331 1.06884
 C398 C 0.88682 1.23293 1.10929
 C399 C 0.92027 0.91950 1.18456
 H400 H 0.93123 0.93078 1.16478
 C401 C 0.89050 0.88880 1.23408
 C402 C 1.08094 1.08316 1.18261
 H403 H 1.07010 1.07195 1.16272
 C404 C 1.11036 1.11356 1.23249
 C405 C 0.92096 0.81609 1.08223
 H406 H 0.93180 0.83593 1.07094
 C407 C 0.89145 0.76643 1.11291
 C408 C 1.07970 1.18520 1.07888
 H409 H 1.06870 1.16544 1.06761
 C410 C 1.10957 1.23461 1.10967
 C411 C 0.81655 0.91818 1.08231
 H412 H 0.83643 0.92908 1.07117
 C413 C 0.76670 0.88865 1.11268
 C414 C 1.18386 1.08314 1.07933
 H415 H 1.16396 1.07194 1.06849
 C416 C 1.23367 1.11356 1.10884
 O417 O 0.97041 0.38563 0.34496
 O418 O 0.97077 0.34900 0.30884
 C419 C 0.95966 0.37419 0.31983
 C420 C 0.93289 0.38937 0.30412
 C421 C 0.91811 0.37458 0.27888
 H422 H 0.92739 0.35290 0.26991
 O423 O 1.02868 0.61234 0.34352
 O424 O 1.02809 0.64861 0.30703
 C425 C 1.03934 0.62359 0.31826
 C426 C 1.06619 0.60844 0.30270
 C427 C 1.08114 0.62334 0.27763
 H428 H 1.07187 0.64503 0.26867
 O429 O 0.84511 0.46690 0.38731
 O430 O 0.80863 0.46625 0.35104
 C431 C 0.82005 0.45560 0.37623
 C432 C 0.80487 0.42883 0.39190
 C433 C 0.77978 0.41342 0.37750
 H434 H 0.77056 0.42194 0.35555
 O435 O 1.15388 0.53128 0.38653
 O436 O 1.19018 0.53137 0.35007
 C437 C 1.17900 0.54225 0.37527
 C438 C 1.19454 0.56900 0.39059
 C439 C 1.21989 0.58369 0.37597
 H440 H 1.22902 0.57430 0.35441
 O441 O 0.88936 0.34332 0.47065
 O442 O 0.85323 0.30670 0.47122
 C443 C 0.87826 0.31796 0.46005
 C444 C 0.89348 0.30229 0.43328
 C445 C 0.87851 0.27721 0.41842
 H446 H 0.85682 0.26834 0.42775
 O447 O 1.11083 0.65654 0.46788
 O448 O 1.14696 0.69317 0.46750
 C449 C 1.12186 0.68168 0.45671
 C450 C 1.10628 0.69687 0.42986
 C451 C 1.12081 0.72187 0.41442
 H452 H 1.14275 0.73105 0.42298
 O453 O 0.88685 0.52824 0.34405
 O454 O 0.85028 0.52757 0.30786
 C455 C 0.87535 0.53889 0.31889
 C456 C 0.89030 0.56582 0.30322
 C457 C 0.87530 0.58067 0.27812
 H458 H 0.85363 0.57134 0.26916
 O459 O 1.11166 0.46977 0.34394
 O460 O 1.14801 0.47015 0.30754
 C461 C 1.12299 0.45893 0.31879
 C462 C 1.10802 0.43187 0.30339
 C463 C 1.12289 0.41709 0.27822
 H464 H 1.14434 0.42668 0.26904
 O465 O 1.03183 0.34375 0.38792
 O466 O 1.03211 0.30709 0.35183
 C467 C 1.04300 0.31863 0.37687
 C468 C 1.06997 0.30358 0.39237
 C469 C 1.08541 0.27854 0.37790
 H470 H 1.07677 0.26921 0.35605
 O471 O 0.96742 0.65463 0.38621
 O472 O 0.96682 0.69083 0.34964
 C473 C 0.95618 0.67963 0.37493
 C474 C 0.92950 0.69499 0.39055
 C475 C 0.91421 0.72017 0.37615
 H476 H 0.92275 0.72937 0.35421
 O477 O 0.84378 0.61063 0.46883
 O478 O 0.80710 0.64671 0.46863
 C479 C 0.81857 0.62164 0.45776
 C480 C 0.80327 0.60606 0.43098
 C481 C 0.77829 0.62066 0.41557
 H482 H 0.76923 0.64266 0.42409
 O483 O 1.15640 0.38879 0.46927
 O484 O 1.19314 0.35279 0.46939
 C485 C 1.18156 0.37769 0.45823
 C486 C 1.19662 0.39296 0.43113
 C487 C 1.22160 0.37834 0.41572
 H488 H 1.23089 0.35650 0.42444
 O489 O 0.96761 0.61171 0.34382
 O490 O 0.96702 0.64800 0.30735
 C491 C 0.95643 0.62274 0.31868
 C492 C 0.92984 0.60695 0.30330
 C493 C 0.91432 0.62150 0.27839
 H494 H 0.92264 0.64363 0.26942
 O495 O 1.03140 0.38590 0.34477
 O496 O 1.03184 0.34918 0.30873
 C497 C 1.04245 0.37459 0.31970
 C498 C 1.06888 0.39037 0.30400
 C499 C 1.08434 0.37582 0.27901
 H500 H 1.07615 0.35359 0.27020
 O501 O 1.15460 0.47026 0.38643
 O502 O 1.19080 0.47050 0.34988
 C503 C 1.17985 0.45958 0.37516
 C504 C 1.19583 0.43315 0.39065
 C505 C 1.22104 0.41833 0.37586
 H506 H 1.22967 0.42732 0.35392
 O507 O 0.84443 0.52801 0.38700
 O508 O 0.80796 0.52735 0.35072
 C509 C 0.81912 0.53858 0.37578
 C510 C 0.80339 0.56532 0.39103
 C511 C 0.77821 0.58019 0.37618
 H512 H 0.76932 0.57101 0.35442
 O513 O 0.88594 0.65387 0.46885
 O514 O 0.84911 0.68979 0.46885
 C515 C 0.87443 0.67894 0.45798
 C516 C 0.88968 0.69477 0.43135
 C517 C 0.87497 0.72014 0.41674
 H518 H 0.85331 0.72910 0.42608
 O519 O 1.11419 0.34564 0.46987
 O520 O 1.15105 0.30975 0.47007
 C521 C 1.12566 0.32048 0.45919
 C522 C 1.11027 0.30440 0.43275
 C523 C 1.12511 0.27913 0.41806
 H524 H 1.14700 0.27047 0.42715
 O525 O 1.11147 0.53100 0.34355
 O526 O 1.14791 0.53127 0.30724
 C527 C 1.12269 0.54205 0.31843
 C528 C 1.10713 0.56872 0.30291
 C529 C 1.12184 0.58420 0.27802
 H530 H 1.14396 0.57580 0.26913
 O531 O 0.88762 0.46711 0.34451
 O532 O 0.85104 0.46645 0.30833
 C533 C 0.87637 0.45587 0.31949
 C534 C 0.89203 0.42919 0.30408
 C535 C 0.87752 0.41384 0.27903
 H536 H 0.85550 0.42233 0.26995
 O537 O 1.02847 0.65528 0.38596
 O538 O 1.02787 0.69145 0.34937
 C539 C 1.03904 0.68052 0.37456
 C540 C 1.06567 0.69644 0.38979
 C541 C 1.08045 0.72164 0.37492
 H542 H 1.07130 0.73043 0.35310
 O543 O 0.97066 0.34305 0.38773
 O544 O 0.97082 0.30647 0.35156
 C545 C 0.95981 0.31779 0.37664
 C546 C 0.93310 0.30233 0.39223
 C547 C 0.91749 0.27747 0.37757
 H548 H 0.92578 0.26857 0.35541
 O549 O 1.15376 0.61415 0.46804
 O550 O 1.18978 0.65088 0.46758
 C551 C 1.17876 0.62553 0.45690
 C552 C 1.19432 0.60994 0.43028
 C553 C 1.21948 0.62444 0.41504
 H554 H 1.22852 0.64648 0.42353
 O555 O 0.84612 0.38549 0.47026
 O556 O 0.81014 0.34871 0.47065
 C557 C 0.82104 0.37390 0.45950
 C558 C 0.80523 0.38897 0.43271
 C559 C 0.77993 0.37412 0.41805
 H560 H 0.77104 0.35241 0.42735
 Cu561 Cu 1.00104 0.36822 0.36999
 Cu562 Cu 1.00140 0.32423 0.32665
 Cu563 Cu 0.99810 0.62986 0.36855
 Cu564 Cu 0.99740 0.67334 0.32467
 Cu565 Cu 0.86968 0.49763 0.36935
 Cu566 Cu 0.82582 0.49684 0.32586
 Cu567 Cu 1.12921 0.50056 0.36874
 Cu568 Cu 1.17284 0.50084 0.32501
 C569 C 0.91989 0.41692 0.31632
 H570 H 0.93077 0.42810 0.33619
 C571 C 0.89031 0.38650 0.26654
 C572 C 1.07915 0.58090 0.31493
 H573 H 1.06811 0.56964 0.33468
 C574 C 1.10910 0.61157 0.26552
 C575 C 0.81729 0.41655 0.41967
 H576 H 0.83717 0.42780 0.43047
 C577 C 0.76741 0.38606 0.39033
 C578 C 1.18216 0.58206 0.41799
 H579 H 1.16221 0.57118 0.42905
 C580 C 1.23216 0.61153 0.38783
 C581 C 0.92100 0.31443 0.42024
 H582 H 0.93231 0.33419 0.43123
 C583 C 0.89012 0.26505 0.39042
 C584 C 1.07855 0.68447 0.41749
 H585 H 1.06766 0.66463 0.42875
 C586 C 1.10815 0.73415 0.38693
 C587 C 0.91780 0.57895 0.31541
 H588 H 0.92913 0.56803 0.33518
 C589 C 0.88701 0.60864 0.26593
 C590 C 1.08078 0.41855 0.31588
 H591 H 1.06955 0.42947 0.33570
 C592 C 1.11141 0.38894 0.26625
 C593 C 1.08246 0.31620 0.41996
 H594 H 1.07123 0.33608 0.43079
 C595 C 1.11298 0.26640 0.39053
 C596 C 0.91720 0.68262 0.41832
 H597 H 0.92833 0.66266 0.42911
 C598 C 0.88692 0.73265 0.38903
 C599 C 0.81552 0.57823 0.41865
 H600 H 0.83534 0.56729 0.42987
 C601 C 0.76589 0.60800 0.38812
 C602 C 1.18404 0.42052 0.41852
 H603 H 1.16421 0.43147 0.42973
 C604 C 1.23374 0.39081 0.38806
 O605 O 1.03234 0.38873 0.65605
 O606 O 1.03293 0.35245 0.69252
 C607 C 1.04353 0.37769 0.68117
 C608 C 1.07020 0.39342 0.69648
 C609 C 1.08570 0.37889 0.72144
 H610 H 1.07727 0.35685 0.73051
 O611 O 0.96850 0.61358 0.65516
 O612 O 0.96811 0.65030 0.69120
 C613 C 0.95742 0.62492 0.68021
 C614 C 0.93088 0.60925 0.69588
 C615 C 0.91553 0.62381 0.72094
 H616 H 0.92388 0.64597 0.72981
 O617 O 0.84460 0.52977 0.61347
 O618 O 0.80832 0.52966 0.64993
 C619 C 0.81940 0.54060 0.62471
 C620 C 0.80370 0.56717 0.60911
 C621 C 0.77875 0.58262 0.62379
 H622 H 0.76998 0.57434 0.64601
 O623 O 1.15594 0.47198 0.61233
 O624 O 1.19244 0.47266 0.64859
 C625 C 1.18128 0.46143 0.62353
 C626 C 1.19706 0.43472 0.60826
 C627 C 1.22224 0.41989 0.62313
 H628 H 1.23109 0.42908 0.64490
 O629 O 1.11432 0.34625 0.53087
 O630 O 1.15116 0.31033 0.53099
 C631 C 1.12584 0.32126 0.54186
 C632 C 1.11060 0.30559 0.56861
 C633 C 1.12529 0.28025 0.58329
 H634 H 1.14693 0.27124 0.57396
 O635 O 0.88595 0.65402 0.52989
 O636 O 0.84904 0.68986 0.52974
 C637 C 0.87441 0.67911 0.54067
 C638 C 0.88971 0.69511 0.56720
 C639 C 0.87485 0.72034 0.58193
 H640 H 0.85297 0.72902 0.57283
 O641 O 0.88786 0.46903 0.65612
 O642 O 0.85142 0.46869 0.69243
 C643 C 0.87668 0.45797 0.68125
 C644 C 0.89237 0.43135 0.69675
 C645 C 0.87773 0.41585 0.72166
 H646 H 0.85558 0.42419 0.73056
 O647 O 1.11279 0.53286 0.65494
 O648 O 1.14940 0.53350 0.69108
 C649 C 1.12403 0.54406 0.67998
 C650 C 1.10829 0.57061 0.69552
 C651 C 1.12277 0.58591 0.72063
 H652 H 1.14483 0.57747 0.72964
 O653 O 0.97158 0.34510 0.61381
 O654 O 0.97218 0.30893 0.65039
 C655 C 0.96101 0.31986 0.62521
 C656 C 0.93436 0.30396 0.60999
 C657 C 0.91960 0.27873 0.62485
 H658 H 0.92880 0.26990 0.64663
 O659 O 1.02938 0.65638 0.61218
 O660 O 1.02919 0.69295 0.64835
 C661 C 1.04023 0.68164 0.62328
 C662 C 1.06697 0.69715 0.60773
 C663 C 1.08248 0.72203 0.62244
 H664 H 1.07413 0.73089 0.64460
 O665 O 0.84631 0.38639 0.53132
 O666 O 0.81028 0.34966 0.53155
 C667 C 0.82118 0.37507 0.54222
 C668 C 0.80529 0.39058 0.56867
 C669 C 0.77991 0.37592 0.58328
 H670 H 0.77106 0.35417 0.57405
 O671 O 1.15418 0.61466 0.52914
 O672 O 1.19021 0.65138 0.52867
 C673 C 1.17932 0.62618 0.53983
 C674 C 1.19516 0.61107 0.56659
 C675 C 1.22042 0.62593 0.58133
 H676 H 1.22931 0.64766 0.57207
 O677 O 1.02957 0.61386 0.65502
 O678 O 1.02923 0.65050 0.69114
 C679 C 1.04036 0.62533 0.68013
 C680 C 1.06722 0.61020 0.69576
 C681 C 1.08196 0.62495 0.72106
 H682 H 1.07257 0.64653 0.73016
 O683 O 0.97119 0.38803 0.65628
 O684 O 0.97180 0.35176 0.69276
 C685 C 0.96048 0.37674 0.68151
 C686 C 0.93350 0.39179 0.69701
 C687 C 0.91859 0.37687 0.72210
 H688 H 0.92794 0.35523 0.73111
 O689 O 1.15520 0.53311 0.61200
 O690 O 1.19171 0.53376 0.64825
 C691 C 1.18027 0.54440 0.62307
 C692 C 1.19547 0.57118 0.60739
 C693 C 1.22053 0.58658 0.62183
 H694 H 1.22972 0.57805 0.64378
 O695 O 0.84520 0.46865 0.61346
 O696 O 0.80883 0.46843 0.64984
 C697 C 0.82013 0.45753 0.62470
 C698 C 0.80486 0.43067 0.60923
 C699 C 0.77970 0.41536 0.62368
 H700 H 0.77046 0.42396 0.64558
 O701 O 1.11079 0.65666 0.52906
 O702 O 1.14691 0.69328 0.52864
 C703 C 1.12190 0.68194 0.53980
 C704 C 1.10665 0.69742 0.56669
 C705 C 1.12152 0.72251 0.58164
 H706 H 1.14318 0.73149 0.57234
 O707 O 0.88921 0.34385 0.53186
 O708 O 0.85303 0.30728 0.53231
 C709 C 0.87812 0.31877 0.54311
 C710 C 0.89367 0.30361 0.56999
 C711 C 0.87916 0.27859 0.58542
 H712 H 0.85721 0.26942 0.57687
 O713 O 1.11353 0.47176 0.65533
 O714 O 1.15013 0.47242 0.69148
 C715 C 1.12502 0.46114 0.68051
 C716 C 1.10998 0.43431 0.69629
 C717 C 1.12495 0.41950 0.72143
 H718 H 1.14669 0.42875 0.73030
 O719 O 0.88759 0.53015 0.65584
 O720 O 0.85125 0.52985 0.69224
 C721 C 0.87631 0.54100 0.68099
 C722 C 0.89144 0.56799 0.69641
 C723 C 0.87670 0.58280 0.72164
 H724 H 0.85520 0.57332 0.73081
 O725 O 0.96818 0.65574 0.61202
 O726 O 0.96789 0.69240 0.64812
 C727 C 0.95700 0.68086 0.62308
 C728 C 0.93001 0.69590 0.60760
 C729 C 0.91456 0.72091 0.62209
 H730 H 0.92320 0.73023 0.64395
 O731 O 1.03268 0.34582 0.61364
 O732 O 1.03326 0.30964 0.65021
 C733 C 1.04395 0.32084 0.62495
 C734 C 1.07073 0.30550 0.60940
 C735 C 1.08601 0.28036 0.62386
 H736 H 1.07745 0.27119 0.64581
 O737 O 1.15667 0.38928 0.53055
 O738 O 1.19340 0.35326 0.53068
 C739 C 1.18193 0.37833 0.54155
 C740 C 1.19726 0.39397 0.56831
 C741 C 1.22224 0.37940 0.58377
 H742 H 1.23132 0.35738 0.57528
 O743 O 0.84378 0.61073 0.53007
 O744 O 0.80703 0.64672 0.52974
 C745 C 0.81849 0.62177 0.54088
 C746 C 0.80313 0.60657 0.56784
 C747 C 0.77799 0.62137 0.58273
 H748 H 0.76886 0.64291 0.57327
 Cu749 Cu 1.00189 0.37056 0.63128
 Cu750 Cu 1.00259 0.32708 0.67514
 Cu751 Cu 0.99894 0.63124 0.62997
 Cu752 Cu 0.99859 0.67523 0.67329
 Cu753 Cu 0.87140 0.36843 0.50098
 Cu754 Cu 0.82809 0.32439 0.50149
 Cu755 Cu 1.13175 0.37115 0.50012
 Cu756 Cu 1.17591 0.32798 0.50031
 Cu757 Cu 0.86854 0.62867 0.49942
 Cu758 Cu 0.82435 0.67183 0.49924
 Cu759 Cu 1.12877 0.63182 0.49856
 Cu760 Cu 1.17205 0.67587 0.49808
 Cu761 Cu 0.86994 0.49942 0.63107
 Cu762 Cu 0.82632 0.49915 0.67476
 Cu763 Cu 1.13069 0.50236 0.63002
 Cu764 Cu 1.17459 0.50315 0.67346
 C765 C 1.08238 0.42130 0.68423
 H766 H 1.07107 0.43219 0.66443
 C767 C 1.11310 0.39165 0.73379
 C768 C 0.91877 0.58118 0.68393
 H769 H 0.92991 0.57024 0.66406
 C770 C 0.88838 0.61083 0.73370
 C771 C 0.81559 0.57923 0.58099
 H772 H 0.83539 0.56805 0.56998
 C773 C 0.76603 0.60981 0.61084
 C774 C 1.18497 0.42179 0.58063
 H775 H 1.16513 0.43270 0.56940
 C776 C 1.23461 0.39209 0.61122
 C777 C 1.08308 0.31781 0.58161
 H778 H 1.07196 0.33774 0.57076
 C779 C 1.11331 0.26782 0.61102
 C780 C 0.91753 0.68330 0.57999
 H781 H 0.92878 0.66345 0.56913
 C782 C 0.88697 0.73305 0.60948
 C783 C 0.92040 0.41925 0.68473
 H784 H 0.93139 0.43053 0.66497
 C785 C 0.89057 0.38855 0.73420
 C786 C 1.08035 0.58279 0.68340
 H787 H 1.06949 0.57165 0.66349
 C788 C 1.10986 0.61311 0.73329
 C789 C 0.92143 0.31599 0.58233
 H790 H 0.93230 0.33583 0.57108
 C791 C 0.89188 0.26625 0.61286
 C792 C 1.07915 0.68513 0.57971
 H793 H 1.06792 0.66537 0.56867
 C794 C 1.10982 0.73458 0.60965
 C795 C 0.81734 0.41821 0.58156
 H796 H 0.83730 0.42930 0.57074
 C797 C 0.76730 0.38796 0.61090
 C798 C 1.18309 0.58347 0.57961
 H799 H 1.16321 0.57222 0.56878
 C800 C 1.23289 0.61397 0.60907
 O801 O 0.46964 0.88507 0.34638
 O802 O 0.46984 0.84832 0.31037
 C803 C 0.45885 0.87359 0.32126
 C804 C 0.43223 0.88888 0.30540
 C805 C 0.41757 0.87418 0.28003
 H806 H 0.42680 0.85244 0.27113
 O807 O 0.52921 1.11228 0.34396
 O808 O 0.52897 1.14840 0.30732
 C809 C 0.54012 1.12342 0.31875
 C810 C 0.56700 1.10796 0.30342
 C811 C 0.58251 1.12258 0.27847
 H812 H 0.57411 1.14465 0.26946
 O813 O 0.34465 0.96720 0.38790
 O814 O 0.30831 0.96656 0.35148
 C815 C 0.31957 0.95598 0.37677
 C816 C 0.30415 0.92937 0.39253
 C817 C 0.27909 0.91399 0.37805
 H818 H 0.27006 0.92240 0.35598
 O819 O 0.65440 1.03064 0.38684
 O820 O 0.69043 1.03052 0.35013
 C821 C 0.67939 1.04163 0.37529
 C822 C 0.69492 1.06862 0.39030
 C823 C 0.72024 1.08328 0.37552
 H824 H 0.72931 1.07379 0.35398
 O825 O 0.38763 0.84373 0.47162
 O826 O 0.35141 0.80719 0.47215
 C827 C 0.37650 0.81837 0.46103
 C828 C 0.39187 0.80261 0.43440
 C829 C 0.37694 0.77759 0.41940
 H830 H 0.35507 0.76886 0.42845
 O831 O 0.61148 1.15633 0.46795
 O832 O 0.64761 1.19295 0.46752
 C833 C 0.62245 1.18151 0.45681
 C834 C 0.60674 1.19675 0.43006
 C835 C 0.62125 1.22172 0.41458
 H836 H 0.64326 1.23085 0.42304
 O837 O 0.38682 1.02827 0.34457
 O838 O 0.35038 1.02761 0.30826
 C839 C 0.37546 1.03888 0.31932
 C840 C 0.39059 1.06569 0.30356
 C841 C 0.37570 1.08048 0.27835
 H842 H 0.35398 1.07121 0.26944
 O843 O 0.61216 0.96850 0.34507
 O844 O 0.64839 0.96837 0.30855
 C845 C 0.62342 0.95731 0.32003
 C846 C 0.60817 0.93020 0.30493
 C847 C 0.62273 0.91490 0.27983
 H848 H 0.64454 0.92366 0.27053
 O849 O 0.53110 0.84306 0.38932
 O850 O 0.53121 0.80639 0.35324
 C851 C 0.54222 0.81791 0.37823
 C852 C 0.56925 0.80280 0.39361
 C853 C 0.58464 0.77776 0.37906
 H854 H 0.57593 0.76847 0.35722
 O855 O 0.46759 1.15460 0.38622
 O856 O 0.46707 1.19061 0.34949
 C857 C 0.45630 1.17950 0.37477
 C858 C 0.42942 1.19481 0.39022
 C859 C 0.41414 1.21998 0.37577
 H860 H 0.42275 1.22919 0.35386
 O861 O 0.34328 1.11089 0.46905
 O862 O 0.30663 1.14699 0.46884
 C863 C 0.31807 1.12189 0.45800
 C864 C 0.30280 1.10629 0.43121
 C865 C 0.27794 1.12094 0.41564
 H866 H 0.26888 1.14297 0.42410
 O867 O 0.65649 0.88758 0.47010
 O868 O 0.69314 0.85147 0.47015
 C869 C 0.68163 0.87643 0.45904
 C870 C 0.69675 0.89185 0.43204
 C871 C 0.72173 0.87732 0.41651
 H872 H 0.73095 0.85538 0.42502
 O873 O 0.46806 1.11148 0.34405
 O874 O 0.46773 1.14755 0.30737
 C875 C 0.45701 1.12240 0.31880
 C876 C 0.43037 1.10662 0.30344
 C877 C 0.41493 1.12111 0.27842
 H878 H 0.42337 1.14315 0.26935
 O879 O 0.53061 0.88563 0.34653
 O880 O 0.53074 0.84886 0.31054
 C881 C 0.54147 0.87426 0.32141
 C882 C 0.56791 0.88980 0.30551
 C883 C 0.58263 0.87514 0.28019
 H884 H 0.57355 0.85330 0.27141
 O885 O 0.65484 0.96954 0.38779
 O886 O 0.69091 0.96960 0.35111
 C887 C 0.68006 0.95883 0.37649
 C888 C 0.69609 0.93242 0.39194
 C889 C 0.72132 0.91774 0.37708
 H890 H 0.73001 0.92693 0.35524
 O891 O 0.34418 1.02828 0.38737
 O892 O 0.30785 1.02762 0.35095
 C893 C 0.31892 1.03886 0.37604
 C894 C 0.30313 1.06559 0.39122
 C895 C 0.27807 1.08049 0.37623
 H896 H 0.26932 1.07135 0.35440
 O897 O 0.38562 1.15392 0.46867
 O898 O 0.34886 1.18992 0.46855
 C899 C 0.37416 1.17895 0.45768
 C900 C 0.38946 1.19463 0.43095
 C901 C 0.37481 1.22001 0.41630
 H902 H 0.35316 1.22901 0.42562
 O903 O 0.61390 0.84481 0.47087
 O904 O 0.65060 0.80875 0.47111
 C905 C 0.62523 0.81957 0.46024
 C906 C 0.60970 0.80352 0.43387
 C907 C 0.62446 0.77825 0.41911
 H908 H 0.64637 0.76957 0.42812
 O909 O 0.61118 1.02975 0.34462
 O910 O 0.64737 1.02948 0.30807
 C911 C 0.62222 1.04043 0.31927
 C912 C 0.60681 1.06707 0.30353
 C913 C 0.62163 1.08186 0.27835
 H914 H 0.64334 1.07256 0.26949
 O915 O 0.38728 0.96709 0.34521
 O916 O 0.35085 0.96646 0.30889
 C917 C 0.37608 0.95580 0.32020
 C918 C 0.39166 0.92899 0.30497
 C919 C 0.37726 0.91372 0.27979
 H920 H 0.35540 0.92237 0.27049
 O921 O 0.52871 1.15526 0.38635
 O922 O 0.52824 1.19131 0.34965
 C923 C 0.53933 1.18047 0.37491
 C924 C 0.56597 1.19640 0.39014
 C925 C 0.58075 1.22158 0.37522
 H926 H 0.57156 1.23037 0.35342
 O927 O 0.46981 0.84285 0.38954
 O928 O 0.46991 0.80622 0.35342
 C929 C 0.45888 0.81763 0.37845
 C930 C 0.43201 0.80232 0.39387
 C931 C 0.41649 0.77750 0.37910
 H932 H 0.42501 0.76848 0.35707
 O933 O 0.65450 1.11406 0.46782
 O934 O 0.69058 1.15073 0.46720
 C935 C 0.67946 1.12540 0.45655
 C936 C 0.69487 1.10975 0.42986
 C937 C 0.71999 1.12416 0.41450
 H938 H 0.72910 1.14619 0.42293
 O939 O 0.34474 0.88624 0.47129
 O940 O 0.30862 0.84962 0.47177
 C941 C 0.31963 0.87474 0.46054
 C942 C 0.30399 0.88978 0.43363
 C943 C 0.27874 0.87495 0.41887
 H944 H 0.26968 0.85334 0.42824
 Cu945 Cu 0.50027 0.86778 0.37162
 Cu946 Cu 0.50045 0.82373 0.32833
 Cu947 Cu 0.49845 1.12980 0.36881
 Cu948 Cu 0.49797 1.17307 0.32478
 Cu949 Cu 0.36940 0.99778 0.36989
 Cu950 Cu 0.32572 0.99701 0.32625
 Cu951 Cu 0.62949 0.99961 0.36974
 Cu952 Cu 0.67287 0.99950 0.32579
 C953 C 0.41931 0.91652 0.31746
 H954 H 0.43011 0.92765 0.33742
 C955 C 0.38997 0.88630 0.26741
 C956 C 0.57925 1.08006 0.31567
 H957 H 0.56804 1.06912 0.33549
 C958 C 0.60989 1.10974 0.26603
 C959 C 0.31629 0.91722 0.42048
 H960 H 0.33616 0.92844 0.43134
 C961 C 0.26649 0.88676 0.39096
 C962 C 0.68264 1.08182 0.41769
 H963 H 0.66274 1.07099 0.42888
 C964 C 0.73259 1.11116 0.38730
 C965 C 0.41963 0.81457 0.42168
 H966 H 0.43091 0.83430 0.43274
 C967 C 0.38889 0.76526 0.39160
 C968 C 0.57893 1.18440 0.41780
 H969 H 0.56807 1.16456 0.42907
 C970 C 0.60852 1.23402 0.38713
 C971 C 0.41815 1.07874 0.31570
 H972 H 0.42939 1.06788 0.33556
 C973 C 0.38756 1.10832 0.26600
 C974 C 0.58061 0.91757 0.31747
 H975 H 0.56971 0.92868 0.33737
 C976 C 0.61015 0.88737 0.26752
 C977 C 0.58186 0.81537 0.42118
 H978 H 0.57069 0.83525 0.43206
 C979 C 0.61225 0.76557 0.39158
 C980 C 0.41700 1.18245 0.41797
 H981 H 0.42810 1.16250 0.42882
 C982 C 0.38682 1.23251 0.38861
 C983 C 0.31509 1.07845 0.41894
 H984 H 0.33483 1.06748 0.43026
 C985 C 0.26570 1.10831 0.38811
 C986 C 0.68423 0.91955 0.41966
 H987 H 0.66439 0.93042 0.43091
 C988 C 0.73393 0.89008 0.38900
 O989 O 0.53225 0.88873 0.65570
 O990 O 0.53274 0.85257 0.69230
 C991 C 0.54346 0.87771 0.68083
 C992 C 0.57020 0.89339 0.69609
 C993 C 0.58563 0.87889 0.72110
 H994 H 0.57717 0.85686 0.73018
 O995 O 0.46915 1.11348 0.65417
 O996 O 0.46913 1.15020 0.69021
 C997 C 0.45842 1.12479 0.67938
 C998 C 0.43209 1.10926 0.69543
 C999 C 0.41744 1.12402 0.72073
 H1000 H 0.42656 1.14588 0.72941
 O1001 O 0.34489 1.03015 0.61323
 O1002 O 0.30884 1.03021 0.64993
 C1003 C 0.31971 1.04093 0.62453
 C1004 C 0.30376 1.06731 0.60895
 C1005 C 0.27860 1.08217 0.62372
 H1006 H 0.26995 1.07321 0.64567
 O1007 O 0.65632 0.97169 0.61229
 O1008 O 0.69267 0.97237 0.64869
 C1009 C 0.68157 0.96108 0.62364
 C1010 C 0.69725 0.93422 0.60857
 C1011 C 0.72229 0.91930 0.62359
 H1012 H 0.73113 0.92854 0.64534
 O1013 O 0.61460 0.84521 0.53185
 O1014 O 0.65132 0.80917 0.53216
 C1015 C 0.62606 0.82025 0.54300
 C1016 C 0.61058 0.80481 0.56976
 C1017 C 0.62505 0.77965 0.58505
 H1018 H 0.64704 0.77054 0.57655
 O1019 O 0.38579 1.15446 0.52965
 O1020 O 0.34902 1.19043 0.52945
 C1021 C 0.37438 1.17964 0.54033
 C1022 C 0.38982 1.19566 0.56675
 C1023 C 0.37510 1.22099 0.58142
 H1024 H 0.35327 1.22977 0.57230
 O1025 O 0.38807 0.96968 0.65629
 O1026 O 0.35188 0.96970 0.69285
 C1027 C 0.37702 0.95881 0.68155
 C1028 C 0.39268 0.93221 0.69708
 C1029 C 0.37804 0.91670 0.72199
 H1030 H 0.35589 0.92503 0.73088
 O1031 O 0.61322 1.03290 0.65442
 O1032 O 0.64968 1.03357 0.69072
 C1033 C 0.62442 1.04420 0.67943
 C1034 C 0.60879 1.07095 0.69472
 C1035 C 0.62322 1.08630 0.71983
 H1036 H 0.64519 1.07778 0.72900
 O1037 O 0.47093 0.84537 0.61396
 O1038 O 0.47132 0.80943 0.65077
 C1039 C 0.46018 0.82029 0.62555
 C1040 C 0.43337 0.80450 0.61050
 C1041 C 0.41862 0.77930 0.62542
 H1042 H 0.42789 0.77043 0.64716
 O1043 O 0.52951 1.15653 0.61069
 O1044 O 0.52918 1.19313 0.64684
 C1045 C 0.54020 1.18187 0.62175
 C1046 C 0.56692 1.19751 0.60642
 C1047 C 0.58185 1.22256 0.62135
 H1048 H 0.57258 1.23143 0.64307
 O1049 O 0.34473 0.88661 0.53243
 O1050 O 0.30861 0.84998 0.53290
 C1051 C 0.31970 0.87529 0.54358
 C1052 C 0.30421 0.89086 0.57024
 C1053 C 0.27908 0.87635 0.58551
 H1054 H 0.26996 0.85438 0.57694
 O1055 O 0.65502 1.11427 0.52889
 O1056 O 0.69116 1.15089 0.52833
 C1057 C 0.68023 1.12570 0.53950
 C1058 C 0.69608 1.11051 0.56619
 C1059 C 0.72139 1.12531 0.58089
 H1060 H 0.73033 1.14700 0.57160
 O1061 O 0.53017 1.11431 0.65387
 O1062 O 0.53001 1.15106 0.68988
 C1063 C 0.54108 1.12586 0.67890
 C1064 C 0.56793 1.11076 0.69456
 C1065 C 0.58262 1.12554 0.71987
 H1066 H 0.57328 1.14720 0.72885
 O1067 O 0.47110 0.88848 0.65625
 O1068 O 0.47170 0.85238 0.69291
 C1069 C 0.46050 0.87738 0.68161
 C1070 C 0.43371 0.89259 0.69723
 C1071 C 0.41884 0.87767 0.72233
 H1072 H 0.42815 0.85599 0.73127
 O1073 O 0.65582 1.03280 0.61168
 O1074 O 0.69218 1.03345 0.64808
 C1075 C 0.68089 1.04404 0.62280
 C1076 C 0.69624 1.07070 0.60707
 C1077 C 0.72134 1.08605 0.62150
 H1078 H 0.73047 1.07756 0.64349
 O1079 O 0.34504 0.96920 0.61394
 O1080 O 0.30895 0.96932 0.65060
 C1081 C 0.31996 0.95833 0.62538
 C1082 C 0.30427 0.93161 0.61013
 C1083 C 0.27896 0.91689 0.62482
 H1084 H 0.26997 0.92619 0.64648
 O1085 O 0.61214 1.15675 0.52908
 O1086 O 0.64835 1.19330 0.52876
 C1087 C 0.62332 1.18198 0.53991
 C1088 C 0.60787 1.19742 0.56671
 C1089 C 0.62263 1.22224 0.58230
 H1090 H 0.64479 1.23111 0.57396
 O1091 O 0.38790 0.84450 0.53268
 O1092 O 0.35168 0.80796 0.53321
 C1093 C 0.37684 0.81941 0.54391
 C1094 C 0.39250 0.80422 0.57069
 C1095 C 0.37802 0.77923 0.58616
 H1096 H 0.35602 0.77009 0.57770
 O1097 O 0.61370 0.97175 0.65504
 O1098 O 0.65015 0.97243 0.69134
 C1099 C 0.62507 0.96114 0.68028
 C1100 C 0.60997 0.93432 0.69602
 C1101 C 0.62485 0.91952 0.72122
 H1102 H 0.64655 0.92879 0.73016
 O1103 O 0.38752 1.03087 0.65595
 O1104 O 0.35138 1.03094 0.69256
 C1105 C 0.37636 1.04197 0.68107
 C1106 C 0.39174 1.06897 0.69618
 C1107 C 0.37724 1.08438 0.72125
 H1108 H 0.35538 1.07574 0.73055
 O1109 O 0.46830 1.15607 0.61134
 O1110 O 0.46807 1.19263 0.64753
 C1111 C 0.45710 1.18114 0.62252
 C1112 C 0.43010 1.19626 0.60713
 C1113 C 0.41478 1.22137 0.62161
 H1114 H 0.42347 1.23067 0.64345
 O1115 O 0.53205 0.84560 0.61343
 O1116 O 0.53228 0.80959 0.65017
 C1117 C 0.54303 0.82054 0.62482
 C1118 C 0.56968 0.80482 0.60949
 C1119 C 0.58432 0.77945 0.62415
 H1120 H 0.57491 0.77043 0.64575
 O1121 O 0.65664 0.88846 0.53125
 O1122 O 0.69329 0.85236 0.53143
 C1123 C 0.68190 0.87751 0.54222
 C1124 C 0.69730 0.89324 0.56886
 C1125 C 0.72214 0.87860 0.58445
 H1126 H 0.73109 0.85647 0.57611
 O1127 O 0.34337 1.11153 0.53032
 O1128 O 0.30670 1.14761 0.53014
 C1129 C 0.31822 1.12271 0.54134
 C1130 C 0.30310 1.10748 0.56845
 C1131 C 0.27816 1.12218 0.58388
 H1132 H 0.26894 1.14406 0.57517
 Cu1133 Cu 0.50154 0.87068 0.63114
 Cu1134 Cu 0.50206 0.82740 0.67522
 Cu1135 Cu 0.49929 1.13144 0.62885
 Cu1136 Cu 0.49908 1.17545 0.67220
 Cu1137 Cu 0.36986 0.86896 0.50195
 Cu1138 Cu 0.32646 0.82502 0.50254
 Cu1139 Cu 0.63176 0.87015 0.50099
 Cu1140 Cu 0.67580 0.82685 0.50121
 Cu1141 Cu 0.36815 1.12903 0.49945
 Cu1142 Cu 0.32408 1.17231 0.49921
 Cu1143 Cu 0.62966 1.13170 0.49849
 Cu1144 Cu 0.67303 1.17565 0.49790
 Cu1145 Cu 0.37006 0.99996 0.63122
 Cu1146 Cu 0.32667 1.00005 0.67519
 Cu1147 Cu 0.63110 1.00222 0.62972
 Cu1148 Cu 0.67481 1.00302 0.67335
 C1149 C 0.58242 0.92127 0.68385
 H1150 H 0.57117 0.93215 0.66401
 C1151 C 0.61298 0.89167 0.73354
 C1152 C 0.41933 1.08149 0.68358
 H1153 H 0.43017 1.07031 0.66368
 C1154 C 0.38990 1.11193 0.73345
 C1155 C 0.31560 1.07989 0.58107
 H1156 H 0.33540 1.06889 0.56988
 C1157 C 0.26599 1.10972 0.61154
 C1158 C 0.68516 0.92121 0.58097
 H1159 H 0.66543 0.93218 0.56962
 C1160 C 0.73449 0.89135 0.61187
 C1161 C 0.58274 0.81708 0.58204
 H1162 H 0.57189 0.83702 0.57094
 C1163 C 0.61210 0.76705 0.61229
 C1164 C 0.41756 1.18371 0.57954
 H1165 H 0.42871 1.16380 0.56870
 C1166 C 0.38727 1.23367 0.60896
 C1167 C 0.42068 0.92009 0.68501
 H1168 H 0.43165 0.93134 0.66522
 C1169 C 0.39086 0.88935 0.73447
 C1170 C 0.58098 1.08323 0.68239
 H1171 H 0.57014 1.07204 0.66250
 C1172 C 0.61038 1.11362 0.73231
 C1173 C 0.42034 0.81655 0.58290
 H1174 H 0.43121 0.83637 0.57160
 C1175 C 0.39083 0.76688 0.61354
 C1176 C 0.57987 1.18536 0.57887
 H1177 H 0.56882 1.16563 0.56759
 C1178 C 0.60984 1.23469 0.60969
 C1179 C 0.31648 0.91865 0.58260
 H1180 H 0.33640 0.92953 0.57149
 C1181 C 0.26655 0.88914 0.61283
 C1182 C 0.68393 1.08297 0.57924
 H1183 H 0.66401 1.07178 0.56843
 C1184 C 0.73380 1.11338 0.60867
 O1185 O 0.47078 0.38597 0.84500
 O1186 O 0.47110 0.34934 0.80888
 C1187 C 0.46001 0.37454 0.81987
 C1188 C 0.43322 0.38974 0.80417
 C1189 C 0.41851 0.37505 0.77881
 H1190 H 0.42785 0.35344 0.76974
 O1191 O 0.52915 0.61235 0.84365
 O1192 O 0.52890 0.64854 0.80708
 C1193 C 0.54011 0.62358 0.81850
 C1194 C 0.56712 0.60824 0.80329
 C1195 C 0.58263 0.62288 0.77834
 H1196 H 0.57412 0.64486 0.76922
 O1197 O 0.34507 0.46711 0.88746
 O1198 O 0.30863 0.46647 0.85114
 C1199 C 0.32001 0.45583 0.87634
 C1200 C 0.30476 0.42909 0.89202
 C1201 C 0.27967 0.41370 0.87761
 H1202 H 0.27048 0.42219 0.85564
 O1203 O 0.65494 0.53128 0.88692
 O1204 O 0.69124 0.53151 0.85047
 C1205 C 0.67995 0.54247 0.87556
 C1206 C 0.69520 0.56943 0.89087
 C1207 C 0.72037 0.58469 0.87637
 H1208 H 0.72963 0.57600 0.85451
 O1209 O 0.38930 0.34382 0.97083
 O1210 O 0.35319 0.30718 0.97130
 C1211 C 0.37822 0.31847 0.96017
 C1212 C 0.39348 0.30286 0.93339
 C1213 C 0.37853 0.27781 0.91848
 H1214 H 0.35682 0.26892 0.92776
 O1215 O 0.61091 0.65640 0.96796
 O1216 O 0.64705 0.69302 0.96759
 C1217 C 0.62198 0.68152 0.95675
 C1218 C 0.60643 0.69671 0.92989
 C1219 C 0.62097 0.72171 0.91446
 H1220 H 0.64295 0.73084 0.92298
 O1221 O 0.38694 0.52841 0.84422
 O1222 O 0.35040 0.52771 0.80801
 C1223 C 0.37550 0.53900 0.81901
 C1224 C 0.39054 0.56581 0.80323
 C1225 C 0.37554 0.58063 0.77812
 H1226 H 0.35379 0.57137 0.76928
 O1227 O 0.61283 0.46930 0.84487
 O1228 O 0.64930 0.46953 0.80859
 C1229 C 0.62424 0.45838 0.81978
 C1230 C 0.60919 0.43140 0.80431
 C1231 C 0.62399 0.41663 0.77909
 H1232 H 0.64555 0.42608 0.77002
 O1233 O 0.53198 0.34386 0.88816
 O1234 O 0.53218 0.30721 0.85206
 C1235 C 0.54306 0.31868 0.87713
 C1236 C 0.56989 0.30344 0.89271
 C1237 C 0.58532 0.27844 0.87817
 H1238 H 0.57677 0.26929 0.85621
 O1239 O 0.46748 0.65445 0.88601
 O1240 O 0.46693 0.69054 0.84935
 C1241 C 0.45619 0.67938 0.87463
 C1242 C 0.42939 0.69471 0.89018
 C1243 C 0.41411 0.71990 0.87578
 H1244 H 0.42266 0.72908 0.85384
 O1245 O 0.34360 0.61078 0.96912
 O1246 O 0.30694 0.64687 0.96893
 C1247 C 0.31839 0.62178 0.95807
 C1248 C 0.30311 0.60619 0.93125
 C1249 C 0.27817 0.62080 0.91578
 H1250 H 0.26908 0.64280 0.92429
 O1251 O 0.65642 0.38779 0.97001
 O1252 O 0.69309 0.35170 0.97008
 C1253 C 0.68160 0.37668 0.95899
 C1254 C 0.69679 0.39215 0.93205
 C1255 C 0.72175 0.37759 0.91652
 H1256 H 0.73087 0.35559 0.92498
 O1257 O 0.46799 0.61155 0.84360
 O1258 O 0.46762 0.64770 0.80699
 C1259 C 0.45693 0.62251 0.81838
 C1260 C 0.43028 0.60675 0.80304
 C1261 C 0.41473 0.62130 0.77812
 H1262 H 0.42309 0.64338 0.76909
 O1263 O 0.53187 0.38607 0.84507
 O1264 O 0.53224 0.34936 0.80903
 C1265 C 0.54298 0.37469 0.82006
 C1266 C 0.56964 0.39028 0.80453
 C1267 C 0.58504 0.37573 0.77950
 H1268 H 0.57664 0.35364 0.77052
 O1269 O 0.65522 0.47010 0.88793
 O1270 O 0.69153 0.47044 0.85149
 C1271 C 0.68050 0.45946 0.87672
 C1272 C 0.69639 0.43290 0.89209
 C1273 C 0.72159 0.41816 0.87722
 H1274 H 0.73036 0.42739 0.85544
 O1275 O 0.34450 0.52824 0.88721
 O1276 O 0.30807 0.52758 0.85088
 C1277 C 0.31919 0.53881 0.87596
 C1278 C 0.30340 0.56552 0.89122
 C1279 C 0.27826 0.58039 0.87633
 H1280 H 0.26945 0.57125 0.85452
 O1281 O 0.38582 0.65393 0.96885
 O1282 O 0.34905 0.68991 0.96875
 C1283 C 0.37434 0.67895 0.95785
 C1284 C 0.38957 0.69461 0.93107
 C1285 C 0.37491 0.72001 0.91644
 H1286 H 0.35331 0.72906 0.92582
 O1287 O 0.61393 0.34493 0.97060
 O1288 O 0.65065 0.30890 0.97087
 C1289 C 0.62533 0.31975 0.95991
 C1290 C 0.60998 0.30383 0.93334
 C1291 C 0.62481 0.27861 0.91855
 H1292 H 0.64662 0.26982 0.92769
 O1293 O 0.61163 0.53040 0.84484
 O1294 O 0.64808 0.53046 0.80854
 C1295 C 0.62276 0.54119 0.81958
 C1296 C 0.60723 0.56767 0.80374
 C1297 C 0.62203 0.58243 0.77855
 H1298 H 0.64384 0.57325 0.76981
 O1299 O 0.38773 0.46730 0.84478
 O1300 O 0.35119 0.46664 0.80856
 C1301 C 0.37653 0.45608 0.81973
 C1302 C 0.39226 0.42948 0.80426
 C1303 C 0.37784 0.41424 0.77909
 H1304 H 0.35584 0.42275 0.77000
 O1305 O 0.52853 0.65527 0.88604
 O1306 O 0.52805 0.69140 0.84941
 C1307 C 0.53912 0.68051 0.87465
 C1308 C 0.56573 0.69642 0.88992
 C1309 C 0.58051 0.72163 0.87505
 H1310 H 0.57133 0.73046 0.85327
 O1311 O 0.47084 0.34355 0.88793
 O1312 O 0.47092 0.30697 0.85176
 C1313 C 0.45992 0.31832 0.87683
 C1314 C 0.43317 0.30292 0.89239
 C1315 C 0.41758 0.27808 0.87769
 H1316 H 0.42590 0.26918 0.85554
 O1317 O 0.65375 0.61384 0.96854
 O1318 O 0.68975 0.65059 0.96832
 C1319 C 0.67888 0.62517 0.95767
 C1320 C 0.69478 0.60963 0.93128
 C1321 C 0.72017 0.62424 0.91666
 H1322 H 0.72903 0.64600 0.92585
 O1323 O 0.34587 0.38582 0.97047
 O1324 O 0.30992 0.34902 0.97080
 C1325 C 0.32081 0.37423 0.95968
 C1326 C 0.30502 0.38930 0.93289
 C1327 C 0.27972 0.37445 0.91822
 H1328 H 0.27079 0.35277 0.92754
 Cu1329 Cu 0.50134 0.36852 0.87016
 Cu1330 Cu 0.50162 0.32453 0.82683
 Cu1331 Cu 0.49833 0.62977 0.86847
 Cu1332 Cu 0.49782 0.67315 0.82452
 Cu1333 Cu 0.36972 0.49783 0.86956
 Cu1334 Cu 0.32592 0.49704 0.82602
 Cu1335 Cu 0.63002 0.50026 0.86982
 Cu1336 Cu 0.67367 0.50050 0.82614
 C1337 C 0.42013 0.41720 0.81648
 H1338 H 0.43094 0.42830 0.83644
 C1339 C 0.39069 0.38699 0.76648
 C1340 C 0.57952 0.58049 0.81570
 H1341 H 0.56832 0.56953 0.83552
 C1342 C 0.61013 0.61016 0.76606
 C1343 C 0.31712 0.41685 0.91983
 H1344 H 0.33701 0.42808 0.93064
 C1345 C 0.26724 0.38637 0.89046
 C1346 C 0.68272 0.58197 0.91849
 H1347 H 0.66277 0.57090 0.92934
 C1348 C 0.73279 0.61212 0.88909
 C1349 C 0.42103 0.31502 0.92039
 H1350 H 0.43232 0.33477 0.93140
 C1351 C 0.39018 0.26567 0.89049
 C1352 C 0.57864 0.68438 0.91757
 H1353 H 0.56775 0.66454 0.92882
 C1354 C 0.60826 0.73406 0.88701
 C1355 C 0.41814 0.57884 0.81527
 H1356 H 0.42948 0.56794 0.83506
 C1357 C 0.38732 0.60851 0.76579
 C1358 C 0.58178 0.41826 0.81662
 H1359 H 0.57058 0.42920 0.83646
 C1360 C 0.61226 0.38868 0.76688
 C1361 C 0.58228 0.31583 0.92046
 H1362 H 0.57106 0.33568 0.93135
 C1363 C 0.61279 0.26613 0.89084
 C1364 C 0.41705 0.68237 0.91798
 H1365 H 0.42815 0.66241 0.92880
 C1366 C 0.38685 0.73247 0.88870
 C1367 C 0.31543 0.57839 0.91891
 H1368 H 0.33523 0.56745 0.93016
 C1369 C 0.26587 0.60817 0.88828
 C1370 C 0.68441 0.41996 0.91974
 H1371 H 0.66458 0.43086 0.93100
 C1372 C 0.73405 0.39039 0.88907
 O1373 O 0.53234 0.38875 1.15603
 O1374 O 0.53280 0.35251 1.19256
 C1375 C 0.54354 0.37766 1.18114
 C1376 C 0.57032 0.39327 1.19640
 C1377 C 0.58581 0.37869 1.22132
 H1378 H 0.57737 0.35664 1.23037
 O1379 O 0.46878 0.61331 1.15497
 O1380 O 0.46863 0.65000 1.19103
 C1381 C 0.45790 0.62462 1.18011
 C1382 C 0.43138 0.60913 1.19594
 C1383 C 0.41663 0.62385 1.22121
 H1384 H 0.42579 0.64564 1.23001
 O1385 O 0.34464 0.52974 1.11310
 O1386 O 0.30831 0.52950 1.14952
 C1387 C 0.31932 0.54036 1.12424
 C1388 C 0.30342 0.56678 1.10864
 C1389 C 0.27820 0.58163 1.12336
 H1390 H 0.26944 0.57259 1.14523
 O1391 O 0.65615 0.47176 1.11241
 O1392 O 0.69261 0.47244 1.14870
 C1393 C 0.68145 0.46117 1.12366
 C1394 C 0.69713 0.43435 1.10850
 C1395 C 0.72222 0.41944 1.12345
 H1396 H 0.73111 0.42868 1.14519
 O1397 O 0.61450 0.34522 1.03166
 O1398 O 0.65126 0.30922 1.03200
 C1399 C 0.62599 0.32028 1.04284
 C1400 C 0.61054 0.30487 1.06965
 C1401 C 0.62497 0.27967 1.08494
 H1402 H 0.64692 0.27050 1.07641
 O1403 O 0.38602 0.65427 1.02990
 O1404 O 0.34922 0.69023 1.02972
 C1405 C 0.37457 0.67942 1.04063
 C1406 C 0.38993 0.69538 1.06715
 C1407 C 0.37516 0.72068 1.08184
 H1408 H 0.35333 0.72945 1.07269
 O1409 O 0.38805 0.46964 1.15642
 O1410 O 0.35168 0.46944 1.19280
 C1411 C 0.37696 0.45873 1.18164
 C1412 C 0.39270 0.43222 1.19723
 C1413 C 0.37805 0.41670 1.22212
 H1414 H 0.35589 0.42500 1.23100
 O1415 O 0.61299 0.53268 1.15492
 O1416 O 0.64955 0.53334 1.19111
 C1417 C 0.62421 0.54390 1.17996
 C1418 C 0.60848 0.57049 1.19543
 C1419 C 0.62290 0.58577 1.22059
 H1420 H 0.64492 0.57729 1.22968
 O1421 O 0.47113 0.34548 1.11409
 O1422 O 0.47149 0.30947 1.15083
 C1423 C 0.46042 0.32035 1.12559
 C1424 C 0.43379 0.30445 1.11037
 C1425 C 0.41904 0.27921 1.12522
 H1426 H 0.42819 0.27043 1.14704
 O1427 O 0.52942 0.65647 1.11204
 O1428 O 0.52921 0.69303 1.14824
 C1429 C 0.54020 0.68176 1.12314
 C1430 C 0.56682 0.69737 1.10757
 C1431 C 0.58236 0.72219 1.12234
 H1432 H 0.57407 0.73097 1.14455
 O1433 O 0.34617 0.38674 1.03155
 O1434 O 0.31016 0.34998 1.03172
 C1435 C 0.32107 0.37536 1.04246
 C1436 C 0.30524 0.39074 1.06903
 C1437 C 0.27987 0.37604 1.08359
 H1438 H 0.27095 0.35438 1.07423
 O1439 O 0.65399 0.61473 1.02955
 O1440 O 0.68994 0.65154 1.02918
 C1441 C 0.67908 0.62631 1.04029
 C1442 C 0.69498 0.61118 1.06699
 C1443 C 0.72025 0.62605 1.08166
 H1444 H 0.72905 0.64783 1.07245
 O1445 O 0.52982 0.61384 1.15479
 O1446 O 0.52959 0.65051 1.19088
 C1447 C 0.54067 0.62532 1.17987
 C1448 C 0.56749 0.61017 1.19552
 C1449 C 0.58216 0.62487 1.22087
 H1450 H 0.57277 0.64647 1.22995
 O1451 O 0.47118 0.38858 1.15643
 O1452 O 0.47174 0.35241 1.19302
 C1453 C 0.46055 0.37743 1.18176
 C1454 C 0.43375 0.39262 1.19738
 C1455 C 0.41887 0.37768 1.22247
 H1456 H 0.42817 0.35600 1.23140
 O1457 O 0.65545 0.53292 1.11208
 O1458 O 0.69192 0.53358 1.14837
 C1459 C 0.68048 0.54425 1.12320
 C1460 C 0.69557 0.57112 1.10760
 C1461 C 0.72064 0.58654 1.12202
 H1462 H 0.72993 0.57796 1.14391
 O1463 O 0.34518 0.46872 1.11399
 O1464 O 0.30887 0.46841 1.15044
 C1465 C 0.32018 0.45750 1.12531
 C1466 C 0.30495 0.43060 1.10983
 C1467 C 0.27980 0.41523 1.12424
 H1468 H 0.27058 0.42375 1.14618
 O1469 O 0.61062 0.65677 1.02913
 O1470 O 0.64672 0.69343 1.02866
 C1471 C 0.62169 0.68212 1.03977
 C1472 C 0.60642 0.69768 1.06654
 C1473 C 0.62134 0.72272 1.08150
 H1474 H 0.64302 0.73166 1.07222
 O1475 O 0.38891 0.34411 1.03205
 O1476 O 0.35276 0.30750 1.03240
 C1477 C 0.37780 0.31902 1.04327
 C1478 C 0.39327 0.30391 1.07022
 C1479 C 0.37875 0.27889 1.08564
 H1480 H 0.35685 0.26964 1.07703
 O1481 O 0.61370 0.47160 1.15534
 O1482 O 0.65027 0.47226 1.19153
 C1483 C 0.62517 0.46097 1.18053
 C1484 C 0.61012 0.43414 1.19627
 C1485 C 0.62509 0.41927 1.22138
 H1486 H 0.64683 0.42851 1.23025
 O1487 O 0.38699 0.53078 1.15609
 O1488 O 0.35062 0.53070 1.19246
 C1489 C 0.37563 0.54187 1.18113
 C1490 C 0.39088 0.56893 1.19633
 C1491 C 0.37629 0.58432 1.22137
 H1492 H 0.35437 0.57569 1.23055
 O1493 O 0.46824 0.65573 1.11203
 O1494 O 0.46799 0.69232 1.14819
 C1495 C 0.45707 0.68083 1.12314
 C1496 C 0.43012 0.69596 1.10766
 C1497 C 0.41474 0.72103 1.12213
 H1498 H 0.42336 0.73030 1.14402
 O1499 O 0.53217 0.34585 1.11354
 O1500 O 0.53238 0.30976 1.15021
 C1501 C 0.54312 0.32075 1.12488
 C1502 C 0.56972 0.30500 1.10948
 C1503 C 0.58429 0.27958 1.12410
 H1504 H 0.57489 0.27059 1.14571
 O1505 O 0.65645 0.38857 1.03116
 O1506 O 0.69314 0.35251 1.03134
 C1507 C 0.68172 0.37765 1.04213
 C1508 C 0.69713 0.39338 1.06877
 C1509 C 0.72202 0.37877 1.08429
 H1510 H 0.73098 0.35666 1.07592
 O1511 O 0.34351 0.61136 1.03039
 O1512 O 0.30683 0.64743 1.03020
 C1513 C 0.31831 0.62249 1.04135
 C1514 C 0.30305 0.60716 1.06833
 C1515 C 0.27806 0.62183 1.08370
 H1516 H 0.26893 0.64377 1.07506
 Cu1517 Cu 0.50166 0.37082 1.13135
 Cu1518 Cu 0.50215 0.32744 1.17534
 Cu1519 Cu 0.49910 0.63119 1.12980
 Cu1520 Cu 0.49882 0.67515 1.17319
 Cu1521 Cu 0.37121 0.36879 1.00118
 Cu1522 Cu 0.32793 0.32473 1.00159
 Cu1523 Cu 0.63166 0.37024 1.00084
 Cu1524 Cu 0.67573 0.32700 1.00108
 Cu1525 Cu 0.36838 0.62893 0.99960
 Cu1526 Cu 0.32431 0.67218 0.99938
 Cu1527 Cu 0.62866 0.63176 0.99883
 Cu1528 Cu 0.67194 0.67585 0.99839
 Cu1529 Cu 0.36988 0.49974 1.13128
 Cu1530 Cu 0.32624 0.49951 1.17497
 Cu1531 Cu 0.63091 0.50217 1.13005
 Cu1532 Cu 0.67476 0.50296 1.17354
 C1533 C 0.58251 0.42116 1.18418
 H1534 H 0.57119 0.43211 1.16442
 C1535 C 0.61323 0.39141 1.23368
 C1536 C 0.41858 0.58143 1.18393
 H1537 H 0.42952 0.57028 1.16407
 C1538 C 0.38899 0.61180 1.23374
 C1539 C 0.31542 0.57948 1.08088
 H1540 H 0.33527 0.56850 1.06974
 C1541 C 0.26573 0.60929 1.11125
 C1542 C 0.68498 0.42134 1.08093
 H1543 H 0.66520 0.43229 1.06964
 C1544 C 0.73443 0.39151 1.11168
 C1545 C 0.58275 0.31721 1.08200
 H1546 H 0.57193 0.33719 1.07093
 C1547 C 0.61201 0.26709 1.11220
 C1548 C 0.41766 0.68344 1.08000
 H1549 H 0.42885 0.66355 1.06916
 C1550 C 0.38725 0.73331 1.10944
 C1551 C 0.42072 0.42012 1.18517
 H1552 H 0.43169 0.43138 1.16539
 C1553 C 0.39087 0.38935 1.23459
 C1554 C 0.58061 0.58273 1.18321
 H1555 H 0.56979 0.57161 1.16326
 C1556 C 0.60998 0.61298 1.23321
 C1557 C 0.42095 0.31638 1.08264
 H1558 H 0.43183 0.33622 1.07139
 C1559 C 0.39141 0.26662 1.11315
 C1560 C 0.57892 0.68542 1.07951
 H1561 H 0.56765 0.66569 1.06845
 C1562 C 0.60970 0.73473 1.10955
 C1563 C 0.31737 0.41827 1.08206
 H1564 H 0.33731 0.42941 1.07127
 C1565 C 0.26733 0.38793 1.11130
 C1566 C 0.68305 0.58349 1.07991
 H1567 H 0.66318 0.57223 1.06910
 C1568 C 0.73289 0.61401 1.10929
 C1569 C 1.15957 1.14727 1.24909
 C1570 C 1.14896 1.17649 1.26736
 C1571 C 1.16264 1.16230 1.29729
 C1572 C 1.17377 1.13335 1.27914
 C1573 C 1.13144 1.14653 1.30513
 C1574 C 1.11739 1.16051 1.27484
 C1575 C 1.12827 1.13144 1.25674
 C1576 C 1.14220 1.11730 1.28664
 H1577 H 1.17094 1.14751 1.22582
 H1578 H 1.15222 1.20090 1.25933
 H1579 H 1.19663 1.12135 1.27981
 H1580 H 1.11989 1.14604 1.32829
 H1581 H 1.09424 1.17200 1.27341
 H1582 H 1.13930 1.09277 1.29440
 C1583 C 1.15911 0.64683 0.74968
 C1584 C 1.14856 0.67608 0.76792
 C1585 C 1.16234 0.66196 0.79783
 C1586 C 1.17341 0.63297 0.77971
 C1587 C 1.13117 0.64620 0.80582
 C1588 C 1.11701 0.66012 0.77555
 C1589 C 1.12783 0.63101 0.75747
 C1590 C 1.14187 0.61693 0.78735
 H1591 H 1.17040 0.64702 0.72637
 H1592 H 1.15180 0.70047 0.75982
 H1593 H 1.19628 0.62097 0.78032
 H1594 H 1.11971 0.64576 0.82902
 H1595 H 1.09387 0.67161 0.77418
 H1596 H 1.13899 0.59241 0.79517
 C1597 C 0.65946 1.14750 0.74892
 C1598 C 0.64876 1.17663 0.76729
 C1599 C 0.66254 1.16242 0.79715
 C1600 C 0.67376 1.13356 0.77892
 C1601 C 0.63142 1.14649 0.80501
 C1602 C 0.61726 1.16049 0.77477
 C1603 C 0.62824 1.13151 0.75658
 C1604 C 0.64228 1.11735 0.78642
 H1605 H 0.67080 1.14784 0.72564
 H1606 H 0.65190 1.20107 0.75932
 H1607 H 0.69667 1.12164 0.77950
 H1608 H 0.61991 1.14590 0.82817
 H1609 H 0.59406 1.17188 0.77341
 H1610 H 0.63949 1.09279 0.79412
 C1611 C 0.65902 0.64691 1.24978
 C1612 C 0.64829 0.67601 1.26818
 C1613 C 0.66215 0.66181 1.29801
 C1614 C 0.67341 0.63299 1.27974
 C1615 C 0.63108 0.64581 1.30591
 C1616 C 0.61684 0.65980 1.27571
 C1617 C 0.62785 0.63086 1.25748
 C1618 C 0.64197 0.61671 1.28728
 H1619 H 0.67031 0.64729 1.22647
 H1620 H 0.65137 0.70045 1.26021
 H1621 H 0.69634 0.62112 1.28027
 H1622 H 0.61961 0.64517 1.32910
 H1623 H 0.59362 0.67115 1.27441
 H1624 H 0.63924 0.59213 1.29497
 C1625 C 0.85816 0.88402 1.28801
 C1626 C 0.82670 0.86802 1.27996
 C1627 C 0.83779 0.83872 1.29758
 C1628 C 0.86888 0.85444 1.30599
 C1629 C 0.85174 0.82522 1.26747
 C1630 C 0.84117 0.85478 1.24973
 C1631 C 0.87237 0.87055 1.25793
 C1632 C 0.88320 0.84114 1.27553
 H1633 H 0.86093 0.90840 1.29630
 H1634 H 0.80379 0.87991 1.28075
 H1635 H 0.88026 0.85448 1.32924
 H1636 H 0.84863 0.80098 1.25891
 H1637 H 0.82996 0.85498 1.22638
 H1638 H 0.90637 0.82970 1.27411
 C1639 C 0.84117 0.35465 0.74985
 C1640 C 0.85167 0.32508 0.76760
 C1641 C 0.83777 0.33864 0.79771
 C1642 C 0.82674 0.36795 0.78008
 C1643 C 0.86891 0.35428 0.80610
 C1644 C 0.88317 0.34091 0.77564
 C1645 C 0.87241 0.37034 0.75803
 C1646 C 0.85826 0.38388 0.78811
 H1647 H 0.82995 0.35487 0.72650
 H1648 H 0.84848 0.30085 0.75905
 H1649 H 0.80386 0.37990 0.78087
 H1650 H 0.88030 0.35432 0.82933
 H1651 H 0.90631 0.32942 0.77421
 H1652 H 0.86110 0.40825 0.79637
 C1653 C 0.34158 0.85516 0.74976
 C1654 C 0.35213 0.82557 0.76748
 C1655 C 0.33802 0.83897 0.79755
 C1656 C 0.32694 0.86829 0.77996
 C1657 C 0.36903 0.85473 0.80615
 C1658 C 0.38351 0.84154 0.77572
 C1659 C 0.37270 0.87098 0.75816
 C1660 C 0.35833 0.88434 0.78821
 H1661 H 0.33048 0.85541 0.72636
 H1662 H 0.34910 0.80136 0.75881
 H1663 H 0.30401 0.88015 0.78059
 H1664 H 0.38032 0.85472 0.82944
 H1665 H 0.40672 0.83016 0.77439
 H1666 H 0.36100 0.90870 0.79657
 C1667 C 0.34155 0.35518 1.24976
 C1668 C 0.35205 0.32558 1.26747
 C1669 C 0.33790 0.33896 1.29753
 C1670 C 0.32687 0.36830 1.27994
 C1671 C 0.36890 0.35470 1.30619
 C1672 C 0.38343 0.34151 1.27578
 C1673 C 0.37266 0.37098 1.25823
 C1674 C 0.35825 0.38432 1.28826
 H1675 H 0.33049 0.35546 1.22634
 H1676 H 0.34901 0.30137 1.25877
 H1677 H 0.30393 0.38016 1.28056
 H1678 H 0.38015 0.35468 1.32950
 H1679 H 0.40663 0.33013 1.27448
 H1680 H 0.36092 0.40868 1.29664
 C1681 C 0.85353 1.15773 0.75025
 C1682 C 0.86736 1.17235 0.72036
 C1683 C 0.83833 1.16153 0.70216
 C1684 C 0.82423 1.14742 0.73193
 C1685 C 0.85402 1.13042 0.69380
 C1686 C 0.88334 1.14087 0.71235
 C1687 C 0.86930 1.12652 0.74209
 C1688 C 0.84014 1.11593 0.72395
 H1689 H 0.85339 1.16877 0.77368
 H1690 H 0.87939 1.19520 0.71999
 H1691 H 0.79986 1.15060 0.74010
 H1692 H 0.85441 1.11922 0.67047
 H1693 H 0.90783 1.13805 0.70445
 H1694 H 0.82866 1.09277 0.72512
 C1695 C 0.88282 0.64124 0.21231
 C1696 C 0.85341 0.63086 0.19388
 C1697 C 0.83780 0.66198 0.20238
 C1698 C 0.86693 0.67272 0.22047
 C1699 C 0.82381 0.64783 0.23218
 C1700 C 0.83965 0.61634 0.22406
 C1701 C 0.86889 0.62684 0.24209
 C1702 C 0.85321 0.65806 0.25038
 H1703 H 0.90728 0.63839 0.20430
 H1704 H 0.85368 0.61970 0.17054
 H1705 H 0.87899 0.69555 0.22010
 H1706 H 0.79949 0.65104 0.24046
 H1707 H 0.82814 0.59318 0.22524
 H1708 H 0.85320 0.66905 0.27384
 C1709 C 0.35367 1.15765 0.25036
 C1710 C 0.36739 1.17239 0.22048
 C1711 C 0.33834 1.16155 0.20232
 C1712 C 0.32435 1.14733 0.23209
 C1713 C 0.35408 1.13050 0.19383
 C1714 C 0.38342 1.14097 0.21234
 C1715 C 0.36949 1.12650 0.24208
 C1716 C 0.34032 1.11590 0.22397
 H1717 H 0.35356 1.16863 0.27382
 H1718 H 0.37936 1.19527 0.22013
 H1719 H 0.29999 1.15042 0.24032
 H1720 H 0.35443 1.11937 0.17047
 H1721 H 0.40790 1.13823 0.20437
 H1722 H 0.32889 1.09270 0.22511
 C1723 C 0.35317 0.65775 0.75047
 C1724 C 0.36676 0.67265 0.72062
 C1725 C 0.33771 0.66179 0.70248
 C1726 C 0.32384 0.64739 0.73222
 C1727 C 0.35355 0.63083 0.69383
 C1728 C 0.38289 0.64134 0.71230
 C1729 C 0.36909 0.62670 0.74201
 C1730 C 0.33991 0.61606 0.72394
 H1731 H 0.35309 0.66862 0.77398
 H1732 H 0.37866 0.69558 0.72039
 H1733 H 0.29949 0.65036 0.74052
 H1734 H 0.35387 0.61980 0.67042
 H1735 H 0.40737 0.63873 0.70426
 H1736 H 0.32858 0.59281 0.72500
 C1737 C 1.14248 0.88390 0.71289
 C1738 C 1.17343 0.86686 0.72081
 C1739 C 1.16154 0.83816 0.70270
 C1740 C 1.13098 0.85492 0.69443
 C1741 C 1.14711 0.82461 0.73255
 C1742 C 1.15846 0.85358 0.75078
 C1743 C 1.12779 0.87039 0.74270
 C1744 C 1.11618 0.84157 0.72462
 H1745 H 1.14047 0.90847 0.70497
 H1746 H 1.19667 0.87811 0.72039
 H1747 H 1.11967 0.85563 0.67116
 H1748 H 1.14948 0.80017 0.74077
 H1749 H 1.16958 0.85312 0.77417
 H1750 H 1.09266 0.83081 0.72572
 C1751 C 1.14556 0.33984 0.25006
 C1752 C 1.13230 0.32566 0.21969
 C1753 C 1.16151 0.33708 0.20213
 C1754 C 1.17504 0.35073 0.23236
 C1755 C 1.14564 0.36820 0.19412
 C1756 C 1.11615 0.35715 0.21204
 C1757 C 1.12965 0.37106 0.24224
 C1758 C 1.15898 0.38220 0.22470
 H1759 H 1.14545 0.32837 0.27328
 H1760 H 1.12049 0.30271 0.21870
 H1761 H 1.19930 0.34760 0.24086
 H1762 H 1.14549 0.37987 0.17102
 H1763 H 1.09174 0.35992 0.20385
 H1764 H 1.17038 0.40538 0.22631
 C1765 C 0.65887 0.85277 0.25116
 C1766 C 0.64762 0.82382 0.23283
 C1767 C 0.66183 0.83761 0.20298
 C1768 C 0.67361 0.86629 0.22118
 C1769 C 0.63110 0.85420 0.19494
 C1770 C 0.61654 0.84059 0.22513
 C1771 C 0.62803 0.86938 0.24332
 C1772 C 0.64249 0.88316 0.21350
 H1773 H 0.67010 0.85226 0.27450
 H1774 H 0.65020 0.79935 0.24091
 H1775 H 0.69678 0.87769 0.22062
 H1776 H 0.61968 0.85499 0.17173
 H1777 H 0.59311 0.82965 0.22630
 H1778 H 0.64027 0.90776 0.20572
 C1779 C 0.61668 0.35706 0.71251
 C1780 C 0.64609 0.36815 0.69448
 C1781 C 0.66197 0.33700 0.70229
 C1782 C 0.63285 0.32553 0.71996
 C1783 C 0.67566 0.35052 0.73251
 C1784 C 0.65959 0.38203 0.72504
 C1785 C 0.63034 0.37085 0.74270
 C1786 C 0.64627 0.33958 0.75032
 H1787 H 0.59223 0.35987 0.70446
 H1788 H 0.64582 0.37990 0.67142
 H1789 H 0.62101 0.30259 0.71893
 H1790 H 0.69997 0.34736 0.74085
 H1791 H 0.67100 0.40520 0.72668
 H1792 H 0.64628 0.32802 0.77349
 C1793 C 1.28755 1.11733 1.14111
 C1794 C 1.30611 1.14661 1.13060
 C1795 C 1.29794 1.16229 1.16177
 C1796 C 1.27972 1.13329 1.17264
 C1797 C 1.26814 1.17648 1.14782
 C1798 C 1.27593 1.16059 1.11628
 C1799 C 1.25777 1.13147 1.12692
 C1800 C 1.24980 1.14721 1.15818
 H1801 H 1.29537 1.09282 1.13822
 H1802 H 1.32938 1.14617 1.11929
 H1803 H 1.28017 1.12123 1.19548
 H1804 H 1.26005 1.20086 1.15107
 H1805 H 1.27468 1.17210 1.09314
 H1806 H 1.22642 1.14739 1.16933
 C1807 C 1.27515 0.66102 0.61654
 C1808 C 1.26741 0.67683 0.64814
 C1809 C 1.29725 0.66261 0.66199
 C1810 C 1.30537 0.64702 0.63077
 C1811 C 1.27906 0.63358 0.67282
 C1812 C 1.24910 0.64753 0.65845
 C1813 C 1.25702 0.63187 0.62713
 C1814 C 1.28683 0.61771 0.64123
 H1815 H 1.27384 0.67259 0.59342
 H1816 H 1.25933 0.70121 0.65146
 H1817 H 1.32861 0.64662 0.61941
 H1818 H 1.27956 0.62146 0.69562
 H1819 H 1.22574 0.64768 0.66964
 H1820 H 1.29465 0.59321 0.63826
 C1821 C 0.74989 1.14722 0.65788
 C1822 C 0.77975 1.13330 0.67247
 C1823 C 0.79805 1.16222 0.66151
 C1824 C 0.76831 1.17641 0.64743
 C1825 C 0.80627 1.14638 0.63044
 C1826 C 0.78762 1.11719 0.64103
 C1827 C 0.75790 1.13132 0.62671
 C1828 C 0.77615 1.16035 0.61598
 H1829 H 0.72648 1.14750 0.66896
 H1830 H 0.78010 1.12134 0.69536
 H1831 H 0.76026 1.20082 0.65054
 H1832 H 0.82957 1.14586 0.61919
 H1833 H 0.79540 1.09264 0.63827
 H1834 H 0.77498 1.17176 0.59277
 C1835 C 0.74917 0.64788 1.15844
 C1836 C 0.77906 0.63391 1.17293
 C1837 C 0.79738 0.66279 1.16190
 C1838 C 0.76762 0.67703 1.14791
 C1839 C 0.80546 0.64692 1.13080
 C1840 C 0.78679 0.61777 1.14148
 C1841 C 0.75705 0.63194 1.12725
 C1842 C 0.77531 0.66094 1.11644
 H1843 H 0.72581 0.64820 1.16961
 H1844 H 0.77945 0.62195 1.19582
 H1845 H 0.75963 0.70147 1.15103
 H1846 H 0.82871 0.64635 1.11946
 H1847 H 0.79452 0.59321 1.13871
 H1848 H 0.77408 0.67233 1.09323
 C1849 C 1.27614 0.88408 0.84118
 C1850 C 1.30624 0.86913 0.85457
 C1851 C 1.29767 0.83849 0.83809
 C1852 C 1.26790 0.85308 0.82450
 C1853 C 1.27955 0.82698 0.86691
 C1854 C 1.28777 0.85800 0.88369
 C1855 C 1.25804 0.87285 0.87013
 C1856 C 1.24966 0.84210 0.85360
 H1857 H 1.27516 0.90753 0.83026
 H1858 H 1.32961 0.88024 0.85517
 H1859 H 1.25960 0.85058 0.80010
 H1860 H 1.27988 0.80381 0.87832
 H1861 H 1.29577 0.86015 0.90822
 H1862 H 1.22617 0.83118 0.85329
 C1863 C 1.28742 0.35796 0.38355
 C1864 C 1.27931 0.32691 0.36679
 C1865 C 1.29746 0.33843 0.33798
 C1866 C 1.30593 0.36910 0.35446
 C1867 C 1.26768 0.35294 0.32433
 C1868 C 1.24941 0.34194 0.35341
 C1869 C 1.25768 0.37273 0.36993
 C1870 C 1.27581 0.38398 0.34101
 H1871 H 1.29538 0.36015 0.40810
 H1872 H 1.27969 0.30375 0.37822
 H1873 H 1.32927 0.38027 0.35510
 H1874 H 1.25944 0.35041 0.29991
 H1875 H 1.22595 0.33096 0.35306
 H1876 H 1.27478 0.40742 0.33007
 C1877 C 0.77585 0.88368 0.34170
 C1878 C 0.80602 0.86869 0.35493
 C1879 C 0.79747 0.83816 0.33823
 C1880 C 0.76766 0.85279 0.32479
 C1881 C 0.77940 0.82642 0.36701
 C1882 C 0.78760 0.85732 0.38400
 C1883 C 0.75782 0.87219 0.37060
 C1884 C 0.74948 0.84156 0.35384
 H1885 H 0.77483 0.90720 0.33094
 H1886 H 0.82937 0.87983 0.35552
 H1887 H 0.75933 0.85045 0.30038
 H1888 H 0.77971 0.80319 0.37829
 H1889 H 0.79564 0.85929 0.40853
 H1890 H 0.72602 0.83059 0.35348
 C1891 C 0.77592 0.38379 0.84173
 C1892 C 0.80609 0.36881 0.85498
 C1893 C 0.79750 0.33823 0.83840
 C1894 C 0.76769 0.35284 0.82494
 C1895 C 0.77946 0.32660 0.86724
 C1896 C 0.78770 0.35757 0.88411
 C1897 C 0.75791 0.37242 0.87069
 C1898 C 0.74953 0.34173 0.85405
 H1899 H 0.77489 0.40727 0.83089
 H1900 H 0.82945 0.37993 0.85551
 H1901 H 0.75933 0.35043 0.80055
 H1902 H 0.77979 0.30341 0.87859
 H1903 H 0.79577 0.35962 0.90862
 H1904 H 0.72606 0.33078 0.85376
 C1905 C 0.71235 0.85700 1.11698
 C1906 C 0.71980 0.82549 1.13320
 C1907 C 0.70202 0.83695 1.16226
 C1908 C 0.69421 0.86808 1.14633
 C1909 C 0.73218 0.85052 1.17604
 C1910 C 0.75009 0.83960 1.14671
 C1911 C 0.74248 0.87083 1.13073
 C1912 C 0.72472 0.88202 1.15991
 H1913 H 0.70437 0.85978 1.09251
 H1914 H 0.71887 0.80256 1.12135
 H1915 H 0.67113 0.87979 1.14602
 H1916 H 0.74044 0.84739 1.20038
 H1917 H 0.77328 0.82807 1.14679
 H1918 H 0.72630 0.90520 1.17131
 C1919 C 0.75096 0.35312 0.65944
 C1920 C 0.72092 0.36651 0.67418
 C1921 C 0.70281 0.33783 0.66226
 C1922 C 0.73272 0.32417 0.64805
 C1923 C 0.69478 0.35452 0.63159
 C1924 C 0.71325 0.38349 0.64313
 C1925 C 0.74311 0.36985 0.62866
 C1926 C 0.72502 0.34105 0.61702
 H1927 H 0.77428 0.35263 0.67071
 H1928 H 0.72032 0.37781 0.69740
 H1929 H 0.74086 0.29971 0.65055
 H1930 H 0.67159 0.35530 0.62013
 H1931 H 0.70541 0.40807 0.64099
 H1932 H 0.72623 0.33020 0.59356
 C1933 C 0.24989 0.83999 0.64667
 C1934 C 0.23193 0.85087 0.67598
 C1935 C 0.20180 0.83732 0.66212
 C1936 C 0.21962 0.82590 0.63308
 C1937 C 0.19402 0.86848 0.64623
 C1938 C 0.22450 0.88239 0.65991
 C1939 C 0.24231 0.87126 0.63075
 C1940 C 0.21222 0.85745 0.61691
 H1941 H 0.27309 0.82847 0.64678
 H1942 H 0.24016 0.84767 0.70032
 H1943 H 0.21867 0.80298 0.62122
 H1944 H 0.17096 0.88020 0.64584
 H1945 H 0.22606 0.90556 0.67133
 H1946 H 0.20429 0.86028 0.59242
 C1947 C 0.25073 0.35303 1.15974
 C1948 C 0.22064 0.36645 1.17434
 C1949 C 0.20256 0.33780 1.16232
 C1950 C 0.23251 0.32411 1.14825
 C1951 C 0.19468 0.35452 1.13162
 C1952 C 0.21313 0.38346 1.14326
 C1953 C 0.24306 0.36979 1.12894
 C1954 C 0.22498 0.34102 1.11719
 H1955 H 0.27400 0.35251 1.17111
 H1956 H 0.21997 0.37777 1.19755
 H1957 H 0.24061 0.29964 1.15077
 H1958 H 0.17155 0.35530 1.12005
 H1959 H 0.20533 0.40805 1.14111
 H1960 H 0.22629 0.33017 1.09373
 C1961 C 0.71216 1.14110 0.88315
 C1962 C 0.72048 1.17254 0.86724
 C1963 C 0.70262 1.16174 0.83798
 C1964 C 0.69397 1.13067 0.85360
 C1965 C 0.73253 1.14754 0.82429
 C1966 C 0.75050 1.15782 0.85382
 C1967 C 0.74204 1.12665 0.86951
 C1968 C 0.72424 1.11610 0.84013
 H1969 H 0.70395 1.13832 0.90755
 H1970 H 0.72003 1.19541 0.87923
 H1971 H 0.67062 1.11952 0.85370
 H1972 H 0.74104 1.15067 0.80003
 H1973 H 0.77396 1.16879 0.85398
 H1974 H 0.72544 1.09293 0.82866
 C1975 C 0.71211 0.64050 0.38384
 C1976 C 0.72020 0.67204 0.36799
 C1977 C 0.70232 0.66123 0.33876
 C1978 C 0.69387 0.63007 0.35431
 C1979 C 0.73226 0.64722 0.32494
 C1980 C 0.75026 0.65751 0.35444
 C1981 C 0.74202 0.62624 0.37005
 C1982 C 0.72417 0.61569 0.34070
 H1983 H 0.70398 0.63761 0.40825
 H1984 H 0.71964 0.69487 0.38005
 H1985 H 0.67057 0.61881 0.35445
 H1986 H 0.74067 0.65047 0.30066
 H1987 H 0.77367 0.66860 0.35455
 H1988 H 0.72546 0.59256 0.32915
 C1989 C 0.21216 1.14112 0.38341
 C1990 C 0.22054 1.17250 0.36740
 C1991 C 0.20269 1.16163 0.33816
 C1992 C 0.19397 1.13063 0.35388
 C1993 C 0.23258 1.14734 0.32454
 C1994 C 0.25054 1.15769 0.35405
 C1995 C 0.24202 1.12658 0.36983
 C1996 C 0.22422 1.11597 0.34047
 H1997 H 0.20391 1.13844 0.40780
 H1998 H 0.22011 1.19540 0.37933
 H1999 H 0.17059 1.11953 0.35398
 H2000 H 0.24111 1.15038 0.30028
 H2001 H 0.27402 1.16862 0.35420
 H2002 H 0.22540 1.09276 0.32908
 C2003 C 0.21222 0.64092 0.88380
 C2004 C 0.22048 0.67230 0.86774
 C2005 C 0.20253 0.66140 0.83858
 C2006 C 0.19393 0.63039 0.85434
 C2007 C 0.23240 0.64714 0.82485
 C2008 C 0.25046 0.65753 0.85428
 C2009 C 0.24206 0.62641 0.87011
 C2010 C 0.22416 0.61576 0.84083
 H2011 H 0.20408 0.63823 0.90823
 H2012 H 0.22005 0.69522 0.87965
 H2013 H 0.17057 0.61925 0.85455
 H2014 H 0.24082 0.65018 0.80055
 H2015 H 0.27393 0.66850 0.85432
 H2016 H 0.22532 0.59255 0.82944
 C2017 C 1.15848 1.24969 1.14458
 C2018 C 1.17353 1.27981 1.13174
 C2019 C 1.16200 1.29746 1.16085
 C2020 C 1.14748 1.26745 1.17397
 C2021 C 1.13135 1.30623 1.14451
 C2022 C 1.14248 1.28822 1.11509
 C2023 C 1.12770 1.25826 1.12818
 C2024 C 1.11646 1.27589 1.15743
 H2025 H 1.16945 1.22623 1.14453
 H2026 H 1.19669 1.28037 1.12032
 H2027 H 1.15001 1.25877 1.19823
 H2028 H 1.12018 1.32957 1.14430
 H2029 H 1.14031 1.29660 1.09069
 H2030 H 1.09305 1.27475 1.16841
 C2031 C 1.15756 0.77591 0.61678
 C2032 C 1.14448 0.80631 0.63142
 C2033 C 1.16052 0.79767 0.66227
 C2034 C 1.17380 0.76762 0.64800
 C2035 C 1.13130 0.78005 0.67358
 C2036 C 1.11496 0.78833 0.64233
 C2037 C 1.12821 0.75830 0.62781
 C2038 C 1.14431 0.74987 0.65878
 H2039 H 1.16876 0.77466 0.59348
 H2040 H 1.14438 0.82962 0.62017
 H2041 H 1.19805 0.75897 0.65079
 H2042 H 1.11965 0.78070 0.69662
 H2043 H 1.09058 0.79668 0.63989
 H2044 H 1.14417 0.72646 0.66985
 C2045 C 0.64272 1.28829 0.61517
 C2046 C 0.63163 1.30624 0.64464
 C2047 C 0.66232 1.29745 0.66092
 C2048 C 0.67380 1.27985 0.63175
 C2049 C 0.64784 1.26742 0.67401
 C2050 C 0.61678 1.27587 0.65753
 C2051 C 0.62798 1.25829 0.62823
 C2052 C 0.65878 1.24970 0.64456
 H2053 H 0.64051 1.29671 0.59079
 H2054 H 0.62046 1.32958 0.64451
 H2055 H 0.69693 1.28041 0.62028
 H2056 H 0.65041 1.25869 0.69825
 H2057 H 0.59339 1.27471 0.66855
 H2058 H 0.66977 1.22625 0.64445
 C2059 C 0.64440 0.74962 1.15863
 C2060 C 0.67388 0.76737 1.14786
 C2061 C 0.66070 0.79736 1.16236
 C2062 C 0.63150 0.77972 1.17367
 C2063 C 0.64456 0.80622 1.13163
 C2064 C 0.65753 0.77590 1.11675
 C2065 C 0.62820 0.75828 1.12778
 C2066 C 0.61506 0.78822 1.14255
 H2067 H 0.64425 0.72613 1.16955
 H2068 H 0.69811 0.75864 1.15052
 H2069 H 0.61994 0.78019 1.19676
 H2070 H 0.64445 0.82959 1.12052
 H2071 H 0.66864 0.77478 1.09341
 H2072 H 0.59068 0.79663 1.14025
 C2073 C 0.84015 1.27501 0.88264
 C2074 C 0.85394 1.30533 0.86850
 C2075 C 0.83772 1.29756 0.83751
 C2076 C 0.82374 1.26759 0.85129
 C2077 C 0.86652 1.27946 0.82592
 C2078 C 0.88302 1.28687 0.85728
 C2079 C 0.86908 1.25694 0.87132
 C2080 C 0.85282 1.24936 0.84023
 H2081 H 0.82895 1.27360 0.90593
 H2082 H 0.85459 1.32844 0.88012
 H2083 H 0.79930 1.25954 0.84834
 H2084 H 0.87820 1.28017 0.80290
 H2085 H 0.90759 1.29462 0.85987
 H2086 H 0.85244 1.22612 0.82880
 C2087 C 0.84000 0.77495 0.38246
 C2088 C 0.85381 0.80532 0.36843
 C2089 C 0.83775 0.79759 0.33735
 C2090 C 0.82376 0.76757 0.35101
 C2091 C 0.86663 0.77956 0.32586
 C2092 C 0.88297 0.78693 0.35732
 C2093 C 0.86901 0.75695 0.37124
 C2094 C 0.85291 0.74940 0.34005
 H2095 H 0.82869 0.77347 0.40569
 H2096 H 0.85439 0.82841 0.38011
 H2097 H 0.79935 0.75948 0.34792
 H2098 H 0.87841 0.78036 0.30289
 H2099 H 0.90752 0.79472 0.36004
 H2100 H 0.85263 0.72618 0.32858
 C2101 C 0.33999 1.27499 0.38223
 C2102 C 0.35383 1.30535 0.36823
 C2103 C 0.33768 1.29772 0.33717
 C2104 C 0.32363 1.26772 0.35082
 C2105 C 0.36649 1.27962 0.32558
 C2106 C 0.38293 1.28689 0.35701
 C2107 C 0.36893 1.25691 0.37090
 C2108 C 0.35271 1.24948 0.33975
 H2109 H 0.32873 1.27351 0.40549
 H2110 H 0.35446 1.32843 0.37993
 H2111 H 0.29918 1.25973 0.34780
 H2112 H 0.37824 1.28041 0.30260
 H2113 H 0.40750 1.29461 0.35967
 H2114 H 0.35233 1.22629 0.32822
 C2115 C 0.34007 0.77500 0.88230
 C2116 C 0.35396 0.80535 0.86831
 C2117 C 0.33782 0.79774 0.83724
 C2118 C 0.32373 0.76775 0.85087
 C2119 C 0.36662 0.77961 0.82567
 C2120 C 0.38304 0.78686 0.85711
 C2121 C 0.36899 0.75690 0.87099
 C2122 C 0.35280 0.74948 0.83982
 H2123 H 0.32879 0.77352 0.90554
 H2124 H 0.35461 0.82842 0.88001
 H2125 H 0.29928 0.75979 0.84783
 H2126 H 0.37838 0.78041 0.80269
 H2127 H 0.40762 0.79455 0.85980
 H2128 H 0.35239 0.72629 0.82829
 C2129 C 1.14740 0.75042 0.84191
 C2130 C 1.17642 0.73196 0.85276
 C2131 C 1.16242 0.70224 0.83846
 C2132 C 1.13367 0.72058 0.82709
 C2133 C 1.14612 0.69401 0.86929
 C2134 C 1.15991 0.72410 0.88396
 C2135 C 1.13104 0.74240 0.87283
 C2136 C 1.11709 0.71270 0.85829
 H2137 H 1.14785 0.77384 0.83084
 H2138 H 1.20089 0.73999 0.85002
 H2139 H 1.12203 0.72027 0.80404
 H2140 H 1.14543 0.67071 0.88052
 H2141 H 1.17100 0.72518 0.90732
 H2142 H 1.09250 0.70494 0.86068
 C2143 C 1.15994 0.22411 0.38363
 C2144 C 1.14623 0.19406 0.36881
 C2145 C 1.16258 0.20244 0.33805
 C2146 C 1.17650 0.23213 0.35250
 C2147 C 1.13383 0.22078 0.32669
 C2148 C 1.11720 0.21274 0.35783
 C2149 C 1.13107 0.24239 0.37252
 C2150 C 1.14747 0.25058 0.34166
 H2151 H 1.17097 0.22513 0.40702
 H2152 H 1.14553 0.17072 0.37996
 H2153 H 1.20096 0.24021 0.34983
 H2154 H 1.12224 0.22053 0.30361
 H2155 H 1.09262 0.20493 0.36014
 H2156 H 1.14791 0.27404 0.33069
 C2157 C 0.64669 0.74992 0.34262
 C2158 C 0.67580 0.73155 0.35338
 C2159 C 0.66197 0.70185 0.33888
 C2160 C 0.63313 0.72010 0.32761
 C2161 C 0.64569 0.69333 0.36965
 C2162 C 0.65931 0.72340 0.38452
 C2163 C 0.63034 0.74161 0.37349
 C2164 C 0.61656 0.71193 0.35875
 H2165 H 0.64702 0.77340 0.33170
 H2166 H 0.70022 0.73973 0.35071
 H2167 H 0.62151 0.71986 0.30454
 H2168 H 0.64512 0.66995 0.38073
 H2169 H 0.67037 0.72438 0.40789
 H2170 H 0.59202 0.70402 0.36107
 C2171 C 0.64722 0.25053 0.84185
 C2172 C 0.67631 0.23210 0.85257
 C2173 C 0.66242 0.20244 0.83805
 C2174 C 0.63361 0.22074 0.82681
 C2175 C 0.64615 0.19392 0.86882
 C2176 C 0.65983 0.22395 0.88371
 C2177 C 0.63090 0.24221 0.87272
 C2178 C 0.61705 0.21258 0.85796
 H2179 H 0.64758 0.27403 0.83095
 H2180 H 0.70074 0.24025 0.84987
 H2181 H 0.62199 0.22052 0.80374
 H2182 H 0.64552 0.17054 0.87990
 H2183 H 0.67092 0.22491 0.90708
 H2184 H 0.59250 0.20470 0.86030
 C2185 C 0.85868 0.71287 1.11705
 C2186 C 0.86929 0.69423 1.14624
 C2187 C 0.83836 0.70274 1.16222
 C2188 C 0.82739 0.72104 1.13331
 C2189 C 0.85276 0.73241 1.17624
 C2190 C 0.88406 0.72427 1.16004
 C2191 C 0.87332 0.74251 1.13101
 C2192 C 0.84230 0.75083 1.14705
 H2193 H 0.86125 0.70499 1.09252
 H2194 H 0.88036 0.67084 1.14572
 H2195 H 0.80443 0.72082 1.12148
 H2196 H 0.84984 0.74055 1.20065
 H2197 H 0.90734 0.72530 1.17131
 H2198 H 0.83139 0.77432 1.14732
 C2199 C 0.85929 0.21255 0.61686
 C2200 C 0.86989 0.19392 0.64607
 C2201 C 0.83890 0.20231 0.66198
 C2202 C 0.82793 0.22059 0.63305
 C2203 C 0.85314 0.23202 0.67606
 C2204 C 0.88451 0.22401 0.65993
 C2205 C 0.87378 0.24224 0.63088
 C2206 C 0.84269 0.25042 0.64686
 H2207 H 0.86194 0.20470 0.59233
 H2208 H 0.88104 0.17057 0.64558
 H2209 H 0.80501 0.22031 0.62115
 H2210 H 0.85014 0.24013 0.70047
 H2211 H 0.90776 0.22511 0.67126
 H2212 H 0.83169 0.27387 0.64712
 C2213 C 0.35828 0.71320 0.61743
 C2214 C 0.36898 0.69447 0.64654
 C2215 C 0.33801 0.70276 0.66255
 C2216 C 0.32696 0.72115 0.63373
 C2217 C 0.35227 0.73243 0.67672
 C2218 C 0.38360 0.72451 0.66049
 C2219 C 0.37278 0.74284 0.63155
 C2220 C 0.34172 0.75094 0.64762
 H2221 H 0.36089 0.70546 0.59287
 H2222 H 0.38016 0.67114 0.64589
 H2223 H 0.30400 0.72090 0.62189
 H2224 H 0.34930 0.74044 0.70117
 H2225 H 0.40688 0.72559 0.67176
 H2226 H 0.33072 0.77438 0.64800
 C2227 C 0.35889 0.21287 1.11710
 C2228 C 0.36963 0.19418 1.14621
 C2229 C 0.33869 0.20246 1.16226
 C2230 C 0.32758 0.22081 1.13342
 C2231 C 0.35293 0.23216 1.17637
 C2232 C 0.38425 0.22425 1.16011
 C2233 C 0.37337 0.24255 1.13115
 C2234 C 0.34233 0.25063 1.14726
 H2235 H 0.36147 0.20510 1.09253
 H2236 H 0.38083 0.17085 1.14561
 H2237 H 0.30462 0.22054 1.12160
 H2238 H 0.35000 0.24019 1.20081
 H2239 H 0.40753 0.22535 1.17136
 H2240 H 0.33130 0.27406 1.14762
 C2241 C 1.11668 1.15920 0.72433
 C2242 C 1.14810 1.17512 0.73253
 C2243 C 1.16217 1.16165 0.70247
 C2244 C 1.13112 1.14594 0.69391
 C2245 C 1.17320 1.13233 0.72009
 C2246 C 1.15860 1.14553 0.75028
 C2247 C 1.12745 1.12976 0.74192
 C2248 C 1.14177 1.11633 0.71189
 H2249 H 1.09350 1.17062 0.72567
 H2250 H 1.15118 1.19934 0.74116
 H2251 H 1.11982 1.14593 0.67063
 H2252 H 1.19611 1.12043 0.71943
 H2253 H 1.16972 1.14529 0.77368
 H2254 H 1.13905 1.09197 0.70356
 C2255 C 1.15853 0.64548 0.25002
 C2256 C 1.17302 0.63220 0.21981
 C2257 C 1.16204 0.66153 0.20218
 C2258 C 1.14807 0.67507 0.23226
 C2259 C 1.13092 0.64590 0.19371
 C2260 C 1.14153 0.61628 0.21170
 C2261 C 1.12731 0.62979 0.24174
 C2262 C 1.11659 0.65924 0.22414
 H2263 H 1.16970 0.64523 0.27339
 H2264 H 1.19590 0.62024 0.21911
 H2265 H 1.15125 0.69929 0.24085
 H2266 H 1.11958 0.64589 0.17045
 H2267 H 1.13871 0.59192 0.20340
 H2268 H 1.09345 0.67074 0.22552
 C2269 C 0.64505 1.15836 0.25059
 C2270 C 0.67425 1.14706 0.23271
 C2271 C 0.66110 1.16159 0.20272
 C2272 C 0.63217 1.17342 0.22048
 C2273 C 0.64445 1.13105 0.19414
 C2274 C 0.65741 1.11615 0.22446
 C2275 C 0.62835 1.12770 0.24222
 C2276 C 0.61522 1.14249 0.21226
 H2277 H 0.64521 1.16942 0.27401
 H2278 H 0.69858 1.14941 0.24126
 H2279 H 0.62094 1.19667 0.21990
 H2280 H 0.64403 1.11981 0.17084
 H2281 H 0.66821 1.09266 0.22560
 H2282 H 0.59076 1.14050 0.20402
 C2283 C 0.61552 0.64291 0.71231
 C2284 C 0.63262 0.67376 0.72051
 C2285 C 0.66148 0.66179 0.70272
 C2286 C 0.64467 0.63133 0.69416
 C2287 C 0.67460 0.64721 0.73269
 C2288 C 0.64546 0.65864 0.75061
 C2289 C 0.62861 0.62807 0.74224
 C2290 C 0.65760 0.61638 0.72446
 H2291 H 0.59103 0.64104 0.70410
 H2292 H 0.62149 0.69706 0.71999
 H2293 H 0.64418 0.62008 0.67086
 H2294 H 0.69894 0.64945 0.74122
 H2295 H 0.64570 0.66970 0.77403
 H2296 H 0.66829 0.59284 0.72556
 C2297 C 0.88280 0.83912 0.72509
 C2298 C 0.85122 0.82315 0.73262
 C2299 C 0.83752 0.83731 0.70268
 C2300 C 0.86872 0.85306 0.69478
 C2301 C 0.82642 0.86629 0.72079
 C2302 C 0.84064 0.85241 0.75085
 C2303 C 0.87194 0.86822 0.74315
 C2304 C 0.85798 0.88232 0.71324
 H2305 H 0.90595 0.82764 0.72652
 H2306 H 0.84796 0.79876 0.74068
 H2307 H 0.88025 0.85351 0.67162
 H2308 H 0.80357 0.87831 0.72015
 H2309 H 0.82929 0.85221 0.77413
 H2310 H 0.86089 0.90684 0.70544
 C2311 C 0.88304 0.33939 0.22443
 C2312 C 0.85150 0.32347 0.23214
 C2313 C 0.83767 0.33754 0.20223
 C2314 C 0.86884 0.35325 0.19415
 C2315 C 0.82666 0.36658 0.22031
 C2316 C 0.84101 0.35278 0.25034
 C2317 C 0.87228 0.36855 0.24246
 C2318 C 0.85820 0.38257 0.21257
 H2319 H 0.90619 0.32789 0.22578
 H2320 H 0.84825 0.29910 0.24030
 H2321 H 0.88027 0.35364 0.17094
 H2322 H 0.80381 0.37860 0.21973
 H2323 H 0.82976 0.35265 0.27367
 H2324 H 0.86108 0.40707 0.20469
 C2325 C 0.38292 0.83938 0.22504
 C2326 C 0.35130 0.82348 0.23246
 C2327 C 0.33771 0.83769 0.20250
 C2328 C 0.36897 0.85338 0.19471
 C2329 C 0.32662 0.86668 0.22060
 C2330 C 0.34072 0.85274 0.25069
 C2331 C 0.37207 0.86849 0.24310
 C2332 C 0.35824 0.88265 0.21316
 H2333 H 0.40604 0.82784 0.22652
 H2334 H 0.34796 0.79909 0.24049
 H2335 H 0.38057 0.85383 0.17158
 H2336 H 0.30379 0.87874 0.21988
 H2337 H 0.32930 0.85254 0.27394
 H2338 H 0.36122 0.90717 0.20540
 C2339 C 0.38342 0.34001 0.72420
 C2340 C 0.35180 0.32418 0.73177
 C2341 C 0.33812 0.33835 0.70183
 C2342 C 0.36938 0.35398 0.69389
 C2343 C 0.32714 0.36739 0.71991
 C2344 C 0.34134 0.35349 0.74998
 C2345 C 0.37270 0.36917 0.74225
 C2346 C 0.35877 0.38330 0.71234
 H2347 H 0.40652 0.32842 0.72562
 H2348 H 0.34844 0.29982 0.73987
 H2349 H 0.38088 0.35437 0.67071
 H2350 H 0.30433 0.37948 0.71923
 H2351 H 0.33000 0.35335 0.77327
 H2352 H 0.36177 0.40780 0.70451
 C2353 C 1.14661 0.84244 1.24945
 C2354 C 1.17594 0.85274 1.26773
 C2355 C 1.16185 0.83867 1.29753
 C2356 C 1.13280 0.82785 1.27936
 C2357 C 1.14618 0.86979 1.30588
 C2358 C 1.16004 0.88424 1.27571
 C2359 C 1.13087 0.87366 1.25760
 C2360 C 1.11685 0.85934 1.28737
 H2361 H 1.14672 0.83138 1.22603
 H2362 H 1.20030 0.84955 1.25955
 H2363 H 1.12076 0.80500 1.27975
 H2364 H 1.14583 0.88101 1.32920
 H2365 H 1.17154 0.90740 1.27451
 H2366 H 1.09236 0.86218 1.29528
 C2367 C 1.11722 0.35916 0.78749
 C2368 C 1.13307 0.32764 0.77941
 C2369 C 1.16222 0.33838 0.79748
 C2370 C 1.14665 0.36954 0.80590
 C2371 C 1.17622 0.35244 0.76764
 C2372 C 1.14681 0.34221 0.74946
 C2373 C 1.13117 0.37347 0.75768
 C2374 C 1.16044 0.38397 0.77569
 H2375 H 1.09277 0.36206 0.79550
 H2376 H 1.12098 0.30482 0.77983
 H2377 H 1.14640 0.38075 0.82922
 H2378 H 1.20054 0.34918 0.75936
 H2379 H 1.14681 0.33117 0.72603
 H2380 H 1.17198 0.40711 0.77445
 C2381 C 0.64669 0.84228 0.74940
 C2382 C 0.67602 0.85256 0.76769
 C2383 C 0.66192 0.83851 0.79748
 C2384 C 0.63286 0.82771 0.77931
 C2385 C 0.64627 0.86965 0.80582
 C2386 C 0.66015 0.88408 0.77565
 C2387 C 0.63098 0.87352 0.75753
 C2388 C 0.61693 0.85922 0.78730
 H2389 H 0.64680 0.83122 0.72598
 H2390 H 0.70038 0.84934 0.75951
 H2391 H 0.62080 0.80488 0.77972
 H2392 H 0.64591 0.88088 0.82913
 H2393 H 0.67167 0.90723 0.77444
 H2394 H 0.59245 0.86209 0.79521
 C2395 C 0.64691 0.34194 1.24936
 C2396 C 0.67634 0.35216 1.26752
 C2397 C 0.66233 0.33813 1.29737
 C2398 C 0.63317 0.32740 1.27932
 C2399 C 0.64679 0.36930 1.30578
 C2400 C 0.66057 0.38371 1.27556
 C2401 C 0.63129 0.37321 1.25757
 C2402 C 0.61735 0.35893 1.28739
 H2403 H 0.64689 0.33089 1.22593
 H2404 H 0.70065 0.34889 1.25924
 H2405 H 0.62106 0.30459 1.27975
 H2406 H 0.64655 0.38052 1.32910
 H2407 H 0.67213 0.40683 1.27432
 H2408 H 0.59290 0.36185 1.29540
 C2409 C 0.84123 1.14622 1.24943
 C2410 C 0.82628 1.13292 1.27940
 C2411 C 0.83808 1.16165 1.29751
 C2412 C 0.85250 1.17523 1.26766
 C2413 C 0.86869 1.14498 1.30581
 C2414 C 0.85728 1.11596 1.28735
 C2415 C 0.87196 1.12952 1.25754
 C2416 C 0.88347 1.15837 1.27562
 H2417 H 0.83013 1.14665 1.22603
 H2418 H 0.80306 1.12163 1.27987
 H2419 H 0.85005 1.19966 1.25943
 H2420 H 0.87998 1.14428 1.32908
 H2421 H 0.85936 1.09140 1.29527
 H2422 H 0.90696 1.16920 1.27453
 C2423 C 0.85441 0.66002 0.75004
 C2424 C 0.82495 0.64916 0.76779
 C2425 C 0.83856 0.66275 0.79801
 C2426 C 0.86775 0.67415 0.78040
 C2427 C 0.85439 0.63161 0.80596
 C2428 C 0.84097 0.61765 0.77540
 C2429 C 0.87028 0.62876 0.75780
 C2430 C 0.88387 0.64262 0.78799
 H2431 H 0.85448 0.67151 0.72683
 H2432 H 0.80068 0.65233 0.75935
 H2433 H 0.87960 0.69708 0.78142
 H2434 H 0.85457 0.61993 0.82905
 H2435 H 0.82953 0.59449 0.77380
 H2436 H 0.90829 0.63981 0.79612
 C2437 C 0.34136 1.14693 0.74934
 C2438 C 0.32636 1.13366 0.77930
 C2439 C 0.33821 1.16237 0.79741
 C2440 C 0.35268 1.17591 0.76757
 C2441 C 0.36877 1.14564 0.80573
 C2442 C 0.35731 1.11664 0.78727
 C2443 C 0.37204 1.13015 0.75747
 C2444 C 0.38361 1.15898 0.77555
 H2445 H 0.33027 1.14737 0.72593
 H2446 H 0.30312 1.12241 0.77974
 H2447 H 0.35029 1.20035 0.75933
 H2448 H 0.38006 1.14492 0.82901
 H2449 H 0.35933 1.09207 0.79521
 H2450 H 0.40712 1.16975 0.77447
 C2451 C 0.38277 0.65872 1.27604
 C2452 C 0.35189 0.67576 1.26811
 C2453 C 0.33737 0.66215 1.29789
 C2454 C 0.36788 0.64531 1.30617
 C2455 C 0.32546 0.63354 1.27967
 C2456 C 0.34050 0.64687 1.24976
 C2457 C 0.37113 0.62998 1.25783
 C2458 C 0.35636 0.61640 1.28759
 H2459 H 0.40630 0.66945 1.27502
 H2460 H 0.34959 0.70024 1.25998
 H2461 H 0.37914 0.64451 1.32945
 H2462 H 0.30219 0.62232 1.28005
 H2463 H 0.32942 0.64743 1.22635
 H2464 H 0.35831 0.59181 1.29543
 C2465 C 1.15771 1.24959 0.85290
 C2466 C 1.14726 1.26798 0.82370
 C2467 C 1.16164 1.29767 0.83770
 C2468 C 1.17260 1.27939 0.86663
 C2469 C 1.13071 1.30619 0.85365
 C2470 C 1.11595 1.27613 0.83987
 C2471 C 1.12667 1.25791 0.86893
 C2472 C 1.14130 1.28757 0.88287
 H2473 H 1.16862 1.22610 0.85266
 H2474 H 1.15018 1.25982 0.79929
 H2475 H 1.19555 1.27963 0.87847
 H2476 H 1.11964 1.32957 0.85414
 H2477 H 1.09267 1.27509 0.82859
 H2478 H 1.13872 1.29547 0.90739
 C2479 C 1.11560 0.77631 0.33982
 C2480 C 1.13027 0.80640 0.35364
 C2481 C 1.16125 0.79794 0.33775
 C2482 C 1.14696 0.76823 0.32371
 C2483 C 1.17218 0.77968 0.36670
 C2484 C 1.14084 0.78779 0.38288
 C2485 C 1.12630 0.75810 0.36889
 C2486 C 1.15738 0.74985 0.35293
 H2487 H 1.09236 0.77524 0.32848
 H2488 H 1.11915 0.82976 0.35411
 H2489 H 1.14996 0.76008 0.29931
 H2490 H 1.19510 0.77994 0.37861
 H2491 H 1.13819 0.79568 0.40739
 H2492 H 1.16834 0.72638 0.35271
 C2493 C 0.64144 1.28750 0.38286
 C2494 C 0.67269 1.27921 0.36658
 C2495 C 0.66172 1.29748 0.33764
 C2496 C 0.63084 1.30610 0.35364
 C2497 C 0.64724 1.26781 0.32371
 C2498 C 0.65769 1.24943 0.35292
 C2499 C 0.62671 1.25786 0.36899
 C2500 C 0.61598 1.27607 0.33993
 H2501 H 0.63892 1.29544 0.40738
 H2502 H 0.69566 1.27939 0.37838
 H2503 H 0.61983 1.32952 0.35412
 H2504 H 0.65010 1.25961 0.29931
 H2505 H 0.66853 1.22591 0.35269
 H2506 H 0.59268 1.27509 0.32869
 C2507 C 0.65743 0.74971 0.85292
 C2508 C 0.64697 0.76810 0.82371
 C2509 C 0.66132 0.79780 0.83772
 C2510 C 0.67229 0.77953 0.86666
 C2511 C 0.63037 0.80628 0.85367
 C2512 C 0.61565 0.77621 0.83988
 C2513 C 0.62639 0.75800 0.86894
 C2514 C 0.64098 0.78767 0.88289
 H2515 H 0.66837 0.72623 0.85268
 H2516 H 0.64991 0.75994 0.79931
 H2517 H 0.69523 0.77976 0.87853
 H2518 H 0.61928 0.82966 0.85415
 H2519 H 0.59239 0.77516 0.82859
 H2520 H 0.63839 0.79556 0.90742
 C2521 C 0.85247 1.24903 1.15820
 C2522 C 0.86623 1.27886 1.17301
 C2523 C 0.83750 1.29722 1.16166
 C2524 C 0.82346 1.26751 1.14736
 C2525 C 0.85379 1.30543 1.13082
 C2526 C 0.88280 1.28672 1.14181
 C2527 C 0.86882 1.25704 1.12727
 C2528 C 0.83996 1.27536 1.11616
 H2529 H 0.85201 1.22561 1.16927
 H2530 H 0.87788 1.27916 1.19606
 H2531 H 0.79899 1.25951 1.15012
 H2532 H 0.85451 1.32873 1.11957
 H2533 H 0.90740 1.29447 1.13940
 H2534 H 0.82887 1.27428 1.09280
 C2535 C 0.85256 0.74896 0.65839
 C2536 C 0.86625 0.77878 0.67329
 C2537 C 0.83750 0.79712 0.66196
 C2538 C 0.82353 0.76743 0.64757
 C2539 C 0.85380 0.80544 0.63115
 C2540 C 0.88284 0.78675 0.64212
 C2541 C 0.86892 0.75709 0.62749
 C2542 C 0.84004 0.77539 0.61640
 H2543 H 0.85212 0.72552 0.66939
 H2544 H 0.87787 0.77906 0.69636
 H2545 H 0.79906 0.75937 0.65029
 H2546 H 0.85451 0.82877 0.61997
 H2547 H 0.90742 0.79455 0.63975
 H2548 H 0.82897 0.77434 0.59302
 C2549 C 0.34047 1.27616 0.61575
 C2550 C 0.32394 1.26834 0.64694
 C2551 C 0.33798 1.29805 0.66123
 C2552 C 0.35430 1.30623 0.63040
 C2553 C 0.36669 1.27967 0.67262
 C2554 C 0.35293 1.24984 0.65782
 C2555 C 0.36931 1.25783 0.62690
 C2556 C 0.38330 1.28751 0.64142
 H2557 H 0.32939 1.27508 0.59238
 H2558 H 0.29946 1.26034 0.64969
 H2559 H 0.35504 1.32953 0.61915
 H2560 H 0.37833 1.27998 0.69568
 H2561 H 0.35244 1.22644 0.66890
 H2562 H 0.40790 1.29523 0.63903
 C2563 C 0.38315 0.78704 1.14208
 C2564 C 0.35419 0.80579 1.13103
 C2565 C 0.33776 0.79750 1.16177
 C2566 C 0.36644 0.77910 1.17320
 C2567 C 0.32378 0.76783 1.14734
 C2568 C 0.34041 0.77577 1.11622
 C2569 C 0.36921 0.75740 1.12741
 C2570 C 0.35273 0.74931 1.15825
 H2571 H 0.40775 0.79478 1.13980
 H2572 H 0.35496 0.82912 1.11985
 H2573 H 0.37798 0.77935 1.19630
 H2574 H 0.29929 0.75983 1.14997
 H2575 H 0.32941 0.77476 1.09282
 H2576 H 0.35221 0.72587 1.16925
 C2577 C 0.85745 0.71174 0.88508
 C2578 C 0.82645 0.72011 0.86834
 C2579 C 0.83806 0.70243 0.83928
 C2580 C 0.86867 0.69370 0.85571
 C2581 C 0.85259 0.73242 0.82616
 C2582 C 0.84151 0.75023 0.85550
 C2583 C 0.87224 0.74170 0.87199
 C2584 C 0.88357 0.72404 0.84279
 H2585 H 0.85956 0.70340 0.90950
 H2586 H 0.80327 0.71959 0.87972
 H2587 H 0.87985 0.67036 0.85595
 H2588 H 0.85012 0.74108 0.80188
 H2589 H 0.83051 0.77368 0.85549
 H2590 H 0.90701 0.72518 0.83187
 C2591 C 0.84220 0.22389 0.38340
 C2592 C 0.82594 0.23223 0.35220
 C2593 C 0.83911 0.20214 0.33791
 C2594 C 0.85516 0.19344 0.36874
 C2595 C 0.86837 0.21967 0.32657
 C2596 C 0.85547 0.24988 0.34139
 C2597 C 0.87159 0.24139 0.37233
 C2598 C 0.88472 0.21133 0.35779
 H2599 H 0.83104 0.22518 0.40671
 H2600 H 0.80172 0.24097 0.34943
 H2601 H 0.85517 0.17013 0.37999
 H2602 H 0.88001 0.21904 0.30353
 H2603 H 0.85568 0.27330 0.33032
 H2604 H 0.90908 0.20289 0.36020
 C2605 C 0.38380 0.71163 0.35877
 C2606 C 0.35412 0.69377 0.36942
 C2607 C 0.33837 0.70253 0.33845
 C2608 C 0.36775 0.72003 0.32741
 C2609 C 0.32511 0.73262 0.35267
 C2610 C 0.34105 0.72419 0.38401
 C2611 C 0.37056 0.74168 0.37325
 C2612 C 0.35476 0.75024 0.34216
 H2613 H 0.40813 0.70316 0.36141
 H2614 H 0.35407 0.67045 0.38064
 H2615 H 0.37957 0.71935 0.30445
 H2616 H 0.30094 0.74139 0.34967
 H2617 H 0.32969 0.72547 0.40722
 H2618 H 0.35510 0.77368 0.33114
 C2619 C 0.38483 0.21199 0.85778
 C2620 C 0.35524 0.19413 0.86867
 C2621 C 0.33926 0.20285 0.83781
 C2622 C 0.36855 0.22037 0.82654
 C2623 C 0.32608 0.23294 0.85210
 C2624 C 0.34227 0.22456 0.88332
 C2625 C 0.37169 0.24205 0.87232
 C2626 C 0.35565 0.25058 0.84135
 H2627 H 0.40918 0.20354 0.86024
 H2628 H 0.35524 0.17081 0.87991
 H2629 H 0.38022 0.21972 0.80351
 H2630 H 0.30188 0.24170 0.84928
 H2631 H 0.33106 0.22584 0.90661
 H2632 H 0.35590 0.27400 0.83030
 C2633 C 1.14730 0.75091 1.15972
 C2634 C 1.13348 0.72083 1.17400
 C2635 C 1.16223 0.70265 1.16240
 C2636 C 1.17632 0.73258 1.14866
 C2637 C 1.14601 0.69496 1.13140
 C2638 C 1.11697 0.71351 1.14262
 C2639 C 1.13102 0.74342 1.12862
 C2640 C 1.15989 0.72525 1.11729
 H2641 H 1.14775 0.77413 1.17118
 H2642 H 1.12178 0.72013 1.19701
 H2643 H 1.20079 0.74053 1.15162
 H2644 H 1.14530 0.67186 1.11976
 H2645 H 1.09238 0.70584 1.14001
 H2646 H 1.17111 0.72665 1.09401
 C2647 C 1.14732 0.25102 0.66000
 C2648 C 1.13353 0.22091 0.67422
 C2649 C 1.16237 0.20280 0.66272
 C2650 C 1.17643 0.23277 0.64904
 C2651 C 1.14628 0.19508 0.63165
 C2652 C 1.11716 0.21355 0.64277
 C2653 C 1.13119 0.24349 0.62882
 C2654 C 1.16014 0.22541 0.61760
 H2655 H 1.14767 0.27425 0.67146
 H2656 H 1.12176 0.22015 0.69719
 H2657 H 1.20086 0.24079 0.65210
 H2658 H 1.14565 0.17199 0.61999
 H2659 H 1.09260 0.20582 0.64007
 H2660 H 1.17145 0.22685 0.59436
 C2661 C 0.66081 0.75020 0.64674
 C2662 C 0.64944 0.73220 0.67585
 C2663 C 0.66311 0.70206 0.66216
 C2664 C 0.67502 0.71991 0.63332
 C2665 C 0.63219 0.69440 0.64576
 C2666 C 0.61816 0.72488 0.65928
 C2667 C 0.62977 0.74272 0.63032
 C2668 C 0.64371 0.71262 0.61664
 H2669 H 0.67239 0.77336 0.64706
 H2670 H 0.65227 0.74039 0.70025
 H2671 H 0.69812 0.71894 0.62181
 H2672 H 0.62040 0.67137 0.64516
 H2673 H 0.59483 0.72641 0.67038
 H2674 H 0.64124 0.70475 0.59210
 C2675 C 0.64363 0.21266 1.11662
 C2676 C 0.67483 0.21995 1.13351
 C2677 C 0.66276 0.20200 1.16223
 C2678 C 0.63196 0.19434 1.14563
 C2679 C 0.64897 0.23209 1.17592
 C2680 C 0.66050 0.25018 1.14692
 C2681 C 0.62958 0.24271 1.13027
 C2682 C 0.61780 0.22478 1.15913
 H2683 H 0.64134 0.20484 1.09204
 H2684 H 0.69799 0.21908 1.12212
 H2685 H 0.62021 0.17130 1.14493
 H2686 H 0.65163 0.24022 1.20036
 H2687 H 0.67206 0.27336 1.14736
 H2688 H 0.59440 0.22625 1.17008
 C2689 C 1.28729 1.14341 0.88318
 C2690 C 1.30552 1.13224 0.85393
 C2691 C 1.29785 1.16336 0.83792
 C2692 C 1.27999 1.17491 0.86688
 C2693 C 1.26772 1.14983 0.82404
 C2694 C 1.27504 1.11835 0.84024
 C2695 C 1.25719 1.12962 0.86933
 C2696 C 1.24971 1.16085 0.85328
 H2697 H 1.29516 1.14065 0.90769
 H2698 H 1.32856 1.12047 0.85439
 H2699 H 1.28095 1.19787 0.87868
 H2700 H 1.25955 1.15295 0.79966
 H2701 H 1.27346 1.09515 0.82888
 H2702 H 1.22654 1.17243 0.85308
 C2703 C 1.28648 0.64317 0.38369
 C2704 C 1.30473 0.63199 0.35445
 C2705 C 1.29700 0.66307 0.33840
 C2706 C 1.27911 0.67463 0.36735
 C2707 C 1.26690 0.64947 0.32453
 C2708 C 1.27428 0.61802 0.34078
 C2709 C 1.25642 0.62931 0.36986
 C2710 C 1.24887 0.66049 0.35375
 H2711 H 1.29436 0.64046 0.40820
 H2712 H 1.32779 0.62025 0.35492
 H2713 H 1.27997 0.69760 0.37911
 H2714 H 1.25871 0.65255 0.30016
 H2715 H 1.27276 0.59481 0.32945
 H2716 H 1.22568 0.67202 0.35355
 C2717 C 0.78708 1.14258 0.38323
 C2718 C 0.80530 1.13143 0.35397
 C2719 C 0.79770 1.16259 0.33801
 C2720 C 0.77984 1.17413 0.36698
 C2721 C 0.76755 1.14914 0.32409
 C2722 C 0.77480 1.11761 0.34024
 C2723 C 0.75695 1.12887 0.36934
 C2724 C 0.74955 1.16014 0.35333
 H2725 H 0.79493 1.13977 0.40774
 H2726 H 0.82833 1.11963 0.35442
 H2727 H 0.78085 1.19706 0.37881
 H2728 H 0.75941 1.15231 0.29971
 H2729 H 0.77315 1.09443 0.32886
 H2730 H 0.72640 1.17177 0.35314
 C2731 C 0.78699 0.61644 0.85705
 C2732 C 0.77946 0.63336 0.82592
 C2733 C 0.79754 0.66205 0.83786
 C2734 C 0.80543 0.64541 0.86860
 C2735 C 0.76759 0.67577 0.85191
 C2736 C 0.74937 0.64681 0.84051
 C2737 C 0.75707 0.63014 0.87135
 C2738 C 0.77514 0.65895 0.88301
 H2739 H 0.79479 0.59185 0.85927
 H2740 H 0.78014 0.62200 0.80274
 H2741 H 0.82857 0.64465 0.88016
 H2742 H 0.75948 0.70023 0.84932
 H2743 H 0.72610 0.64730 0.82914
 H2744 H 0.77386 0.66987 0.90644
 C2745 C 1.27626 0.88409 1.15921
 C2746 C 1.26784 0.85274 1.17514
 C2747 C 1.29773 0.83840 1.16155
 C2748 C 1.30651 0.86938 1.14583
 C2749 C 1.27989 0.82755 1.13230
 C2750 C 1.24989 0.84241 1.14562
 C2751 C 1.25847 0.87349 1.12983
 C2752 C 1.28832 0.85891 1.11629
 H2753 H 1.27512 0.90731 1.17060
 H2754 H 1.25929 0.84972 1.19940
 H2755 H 1.32990 0.88045 1.14575
 H2756 H 1.28030 0.80464 1.12038
 H2757 H 1.22640 0.83151 1.14546
 H2758 H 1.29659 0.86157 1.09190
 C2759 C 1.28825 0.35931 0.61577
 C2760 C 1.30657 0.36990 0.64520
 C2761 C 1.29793 0.33895 0.66105
 C2762 C 1.27996 0.32799 0.63192
 C2763 C 1.26808 0.35328 0.67475
 C2764 C 1.27636 0.38461 0.65868
 C2765 C 1.25843 0.37388 0.62942
 C2766 C 1.25000 0.34283 0.64535
 H2767 H 1.29639 0.36192 0.59133
 H2768 H 1.32995 0.38100 0.64497
 H2769 H 1.28034 0.30505 0.62006
 H2770 H 1.25967 0.35033 0.69906
 H2771 H 1.27523 0.40785 0.67000
 H2772 H 1.22652 0.33188 0.64535
 C2773 C 0.77597 0.88368 0.65952
 C2774 C 0.76758 0.85233 0.67548
 C2775 C 0.79744 0.83798 0.66184
 C2776 C 0.80620 0.86896 0.64610
 C2777 C 0.77956 0.82712 0.63263
 C2778 C 0.74958 0.84199 0.64599
 C2779 C 0.75814 0.87307 0.63017
 C2780 C 0.78797 0.85847 0.61659
 H2781 H 0.77483 0.90690 0.67089
 H2782 H 0.75906 0.84932 0.69975
 H2783 H 0.82959 0.88003 0.64597
 H2784 H 0.77994 0.80420 0.62073
 H2785 H 0.72608 0.83109 0.64587
 H2786 H 0.79620 0.86113 0.59219
 C2787 C 0.77605 0.38386 1.15920
 C2788 C 0.76767 0.35253 1.17522
 C2789 C 0.79749 0.33814 1.16152
 C2790 C 0.80622 0.36909 1.14571
 C2791 C 0.77951 0.32726 1.13237
 C2792 C 0.74958 0.34217 1.14580
 C2793 C 0.75812 0.37322 1.12992
 C2794 C 0.78790 0.35858 1.11627
 H2795 H 0.77496 0.40709 1.17055
 H2796 H 0.75923 0.34956 1.19952
 H2797 H 0.82962 0.38015 1.14548
 H2798 H 0.77986 0.30432 1.12050
 H2799 H 0.72608 0.33129 1.14576
 H2800 H 0.79606 0.36120 1.09184
 C2801 C 0.71172 1.11512 1.14291
 C2802 C 0.71962 1.13129 1.17434
 C2803 C 0.70221 1.16060 1.16293
 C2804 C 0.69395 1.14472 1.13189
 C2805 C 0.73248 1.17388 1.14913
 C2806 C 0.75002 1.14430 1.16000
 C2807 C 0.74195 1.12838 1.12884
 C2808 C 0.72455 1.15781 1.11772
 H2809 H 0.70336 1.09076 1.14024
 H2810 H 0.71863 1.11954 1.19732
 H2811 H 0.67080 1.14470 1.12032
 H2812 H 0.74117 1.19808 1.15217
 H2813 H 0.77329 1.14405 1.17137
 H2814 H 0.72609 1.16919 1.09453
 C2815 C 0.75032 0.64424 0.65992
 C2816 C 0.73278 0.67379 0.64895
 C2817 C 0.70253 0.66060 0.66287
 C2818 C 0.71993 0.63132 0.67437
 C2819 C 0.69420 0.64459 0.63192
 C2820 C 0.72479 0.65760 0.61764
 C2821 C 0.74219 0.62819 0.62885
 C2822 C 0.71197 0.61502 0.64302
 H2823 H 0.77360 0.64402 0.67126
 H2824 H 0.74149 0.69800 0.65187
 H2825 H 0.71898 0.61965 0.69740
 H2826 H 0.67102 0.64457 0.62039
 H2827 H 0.72628 0.66887 0.59439
 H2828 H 0.70357 0.59066 0.64047
 C2829 C 0.21243 1.14273 0.61625
 C2830 C 0.19394 1.13154 0.64533
 C2831 C 0.20254 1.16211 0.66192
 C2832 C 0.22068 1.17369 0.63313
 C2833 C 0.23229 1.14746 0.67546
 C2834 C 0.22403 1.11652 0.65868
 C2835 C 0.24214 1.12783 0.62976
 C2836 C 0.25055 1.15851 0.64639
 H2837 H 0.20442 1.14067 0.59171
 H2838 H 0.17057 1.12045 0.64472
 H2839 H 0.22041 1.19689 0.62177
 H2840 H 0.24059 1.14987 0.69987
 H2841 H 0.22497 1.09304 0.66954
 H2842 H 0.27404 1.16941 0.64674
 C2843 C 0.25033 0.65816 1.14599
 C2844 C 0.22045 0.67333 1.13271
 C2845 C 0.20234 0.66185 1.16155
 C2846 C 0.23209 0.64720 1.17511
 C2847 C 0.19369 0.63123 1.14507
 C2848 C 0.21216 0.64233 1.11593
 C2849 C 0.24188 0.62743 1.12945
 C2850 C 0.22379 0.61622 1.15842
 H2851 H 0.27383 0.66905 1.14629
 H2852 H 0.22016 0.69650 1.12130
 H2853 H 0.24042 0.64968 1.19950
 H2854 H 0.17031 0.62017 1.14451
 H2855 H 0.20413 0.64020 1.09141
 H2856 H 0.22473 0.59278 1.16935
 C2857 C 0.71267 0.88287 0.85853
 C2858 C 0.72054 0.86670 0.82712
 C2859 C 0.70220 0.83782 0.83811
 C2860 C 0.69398 0.85371 0.86916
 C2861 C 0.73192 0.82362 0.85224
 C2862 C 0.75038 0.85277 0.84176
 C2863 C 0.74236 0.86873 0.87290
 C2864 C 0.72407 0.83973 0.88366
 H2865 H 0.70491 0.90742 0.86125
 H2866 H 0.72022 0.87863 0.80422
 H2867 H 0.67068 0.85429 0.88040
 H2868 H 0.73995 0.79919 0.84916
 H2869 H 0.77379 0.85245 0.83069
 H2870 H 0.72521 0.82835 0.90688
 C2871 C 0.75103 0.35214 0.34124
 C2872 C 0.73252 0.32305 0.35183
 C2873 C 0.70278 0.33734 0.33784
 C2874 C 0.72117 0.36615 0.32674
 C2875 C 0.69476 0.35328 0.36891
 C2876 C 0.72488 0.33922 0.38328
 C2877 C 0.74320 0.36815 0.37240
 C2878 C 0.71348 0.38237 0.35817
 H2879 H 0.77439 0.35174 0.33006
 H2880 H 0.74045 0.29860 0.34875
 H2881 H 0.72077 0.37807 0.30383
 H2882 H 0.67151 0.35394 0.38026
 H2883 H 0.72610 0.32787 0.40650
 H2884 H 0.70582 0.40695 0.36090
 C2885 C 0.21268 0.88300 0.35860
 C2886 C 0.22051 0.86684 0.32717
 C2887 C 0.20216 0.83796 0.33816
 C2888 C 0.19398 0.85384 0.36922
 C2889 C 0.23189 0.82374 0.35225
 C2890 C 0.25035 0.85289 0.34177
 C2891 C 0.24237 0.86883 0.37293
 C2892 C 0.22408 0.83983 0.38368
 H2893 H 0.20494 0.90755 0.36134
 H2894 H 0.22016 0.87878 0.30427
 H2895 H 0.17069 0.85441 0.38048
 H2896 H 0.23989 0.79931 0.34915
 H2897 H 0.27375 0.85256 0.33067
 H2898 H 0.22524 0.82844 0.40689
 C2899 C 0.25089 0.35244 0.84138
 C2900 C 0.23240 0.32334 0.85196
 C2901 C 0.20265 0.33760 0.83796
 C2902 C 0.22102 0.36643 0.82687
 C2903 C 0.19461 0.35353 0.86903
 C2904 C 0.22474 0.33949 0.88340
 C2905 C 0.24304 0.36844 0.87254
 C2906 C 0.21331 0.38264 0.85830
 H2907 H 0.27425 0.35206 0.83020
 H2908 H 0.24035 0.29889 0.84887
 H2909 H 0.22062 0.37835 0.80396
 H2910 H 0.17136 0.35415 0.88037
 H2911 H 0.22596 0.32813 0.90663
 H2912 H 0.20562 0.40721 0.86103
   
