data_POSCAR
  _audit_creation_date              2014-09-24
  _audit_creation_method            'ToBaCCo'
  _symmetry_space_group_name_H-M    'P1'
  _symmetry_Int_Tables_number       1
  _symmetry_cell_setting            triclinic
  loop_
  _symmetry_equiv_pos_as_xyz
 x,y,z
_cell_length_a 46.8528
_cell_length_b 45.5441
_cell_length_c 47.1679
_cell_angle_alpha 88.144300
_cell_angle_beta 90.102000
_cell_angle_gamma 90.593100
loop_
  _atom_site_label
  _atom_site_type_symbol
  _atom_site_fract_x
  _atom_site_fract_y
  _atom_site_fract_z
N1 N 0.21851 0.21729 0.22445
 N2 N 0.69649 0.70429 0.70448
 N3 N 0.27067 0.77578 0.72424
 N4 N 0.79463 0.30162 0.20617
 N5 N 0.80813 0.70506 0.28329
 N6 N 0.28067 0.20325 -0.21023
 N7 N 0.70862 0.29555 -0.21001
 N8 N 0.22319 0.77937 0.28868
 N9 N 0.45814 0.45435 0.46202
 N10 N -0.03212 -0.02114 0.96379
 N11 N 1.05160 0.54273 0.96011
 N12 N 0.53866 0.04270 0.45995
 N13 N -0.05904 0.04261 0.53531
 N14 N 0.45749 0.54061 0.04946
 N15 N 0.54216 -0.04469 0.03789
 N16 N 1.02317 0.47168 0.53632
 C17 C 0.43026 0.01530 0.21271
 H18 H 0.43263 0.03282 0.22750
 C19 C 0.45028 0.01228 0.19116
 H20 H 0.46787 0.02782 0.18924
 C21 C 0.40452 -0.02644 0.19752
 H22 H 0.38696 -0.04179 0.20041
 C23 C 0.42396 -0.03016 0.17553
 H24 H 0.42118 -0.04846 0.16166
 N25 N 0.40793 -0.00390 0.21548
 C26 C 0.34043 0.04044 0.26041
 H27 H 0.33675 0.02500 0.27797
 C28 C 0.32395 0.06575 0.25763
 H29 H 0.30777 0.06982 0.27335
 C30 C 0.36631 0.05400 0.21881
 H31 H 0.38261 0.04920 0.20354
 C32 C 0.35040 0.07961 0.21528
 H33 H 0.35461 0.09426 0.19720
 Zn34 Zn 0.38326 0.00075 0.24669
 N35 N 0.36138 0.03524 0.24135
 C36 C 0.40465 0.02690 0.29650
 N37 N 0.40677 0.00370 0.27920
 C38 C 0.42720 -0.01699 0.28343
 C39 C 0.44665 -0.01475 0.30574
 C40 C 0.42349 0.02984 0.31921
 C41 C 0.33675 -0.03458 0.23114
 C42 C 0.31666 -0.05739 0.23387
 C43 C 0.34016 -0.07388 0.27706
 C44 C 0.35965 -0.05063 0.27363
 N45 N 0.35773 -0.03165 0.25085
 H46 H 0.38875 0.04349 0.29245
 H47 H 0.42867 -0.03499 0.26910
 H48 H 0.46286 -0.03135 0.30874
 H49 H 0.42182 0.04872 0.33247
 H50 H 0.33552 -0.01900 0.21339
 H51 H 0.30016 -0.05945 0.21794
 H52 H 0.34182 -0.08857 0.29549
 H53 H 0.37611 -0.04764 0.28936
 C54 C 0.32900 0.08585 0.23493
 C55 C 0.44731 -0.01074 0.17227
 C56 C 0.31824 -0.07741 0.25709
 C57 C 0.44498 0.00898 0.32389
 C58 C 0.05860 0.00099 0.70736
 H59 H 0.04873 -0.00203 0.72787
 C60 C 0.04121 0.00451 0.68352
 H61 H 0.01823 0.00476 0.68604
 C62 C 0.10003 0.00275 0.67863
 H63 H 0.12291 0.00148 0.67672
 C64 C 0.08335 0.00564 0.65413
 H65 H 0.09353 0.00715 0.63353
 N66 N 0.08755 0.00076 0.70470
 C67 C 0.15518 -0.04299 0.75215
 H68 H 0.16051 -0.02684 0.76768
 C69 C 0.17267 -0.06735 0.74895
 H70 H 0.19155 -0.06974 0.76205
 C71 C 0.12471 -0.05875 0.71534
 H72 H 0.10597 -0.05531 0.70231
 C73 C 0.14160 -0.08333 0.71139
 H74 H 0.13556 -0.09874 0.69538
 Zn75 Zn 0.11085 -0.00401 0.73777
 N76 N 0.13197 -0.03897 0.73517
 C77 C 0.08801 -0.02936 0.78899
 N78 N 0.08725 -0.00576 0.77057
 C79 C 0.06953 0.01715 0.77496
 C80 C 0.05127 0.01669 0.79827
 C81 C 0.07038 -0.03050 0.81290
 C82 C 0.15812 0.03173 0.72066
 C83 C 0.17815 0.05454 0.72274
 C84 C 0.15536 0.06868 0.76599
 C85 C 0.13588 0.04564 0.76313
 N86 N 0.13723 0.02789 0.74051
 H87 H 0.10221 -0.04735 0.78513
 H88 H 0.06944 0.03576 0.76010
 H89 H 0.03724 0.03506 0.80137
 H90 H 0.07104 -0.04947 0.82733
 H91 H 0.15975 0.01667 0.70356
 H92 H 0.19480 0.05699 0.70693
 H93 H 0.15346 0.08279 0.78392
 H94 H 0.11994 0.04191 0.77931
 C95 C 0.16618 -0.08765 0.72802
 C96 C 0.05359 0.00687 0.65656
 C97 C 0.17690 0.07338 0.74568
 C98 C 0.05158 -0.00735 0.81756
 C99 C 0.57631 0.49749 0.22158
 H100 H 0.57322 0.47770 0.23457
 C101 C 0.55730 0.50424 0.19958
 H102 H 0.53938 0.48963 0.19599
 C103 C 0.60318 0.54085 0.21109
 H104 H 0.62108 0.55507 0.21568
 C105 C 0.58477 0.54838 0.18877
 H106 H 0.58901 0.56819 0.17611
 N107 N 0.59890 0.51554 0.22667
 C108 C 0.66801 0.46374 0.26279
 H109 H 0.67231 0.47571 0.28180
 C110 C 0.68510 0.44010 0.25599
 H111 H 0.70236 0.43371 0.27012
 C112 C 0.64008 0.45750 0.22142
 H113 H 0.62275 0.46459 0.20781
 C114 C 0.65658 0.43364 0.21387
 H115 H 0.65181 0.42259 0.19441
 Zn116 Zn 0.62413 0.50437 0.25629
 N117 N 0.64585 0.47178 0.24570
 C118 C 0.60630 0.46858 0.30346
 N119 N 0.60225 0.49453 0.28898
 C120 C 0.58215 0.51381 0.29721
 C121 C 0.56552 0.50755 0.32123
 C122 C 0.59034 0.46156 0.32773
 C123 C 0.67102 0.54116 0.24452
 C124 C 0.69174 0.56259 0.24964
 C125 C 0.66878 0.57169 0.29428
 C126 C 0.64865 0.54990 0.28842
 N127 N 0.65004 0.53526 0.26380
 H128 H 0.62191 0.45324 0.29630
 H129 H 0.57916 0.53414 0.28513
 H130 H 0.54988 0.52331 0.32774
 H131 H 0.59383 0.44082 0.33901
 H132 H 0.67189 0.52882 0.22533
 H133 H 0.70864 0.56642 0.23430
 H134 H 0.66701 0.58338 0.31381
 H135 H 0.63206 0.54465 0.30366
 C136 C 0.67942 0.42468 0.23128
 C137 C 0.56156 0.52984 0.18262
 C138 C 0.69084 0.57817 0.27485
 C139 C 0.56970 0.48121 0.33691
 C140 C 0.92613 0.52188 0.72154
 H141 H 0.92903 0.54038 0.73512
 C142 C 0.94478 0.51797 0.69894
 H143 H 0.96190 0.53373 0.69506
 C144 C 0.90010 0.47899 0.71002
 H145 H 0.88286 0.46366 0.71454
 C146 C 0.91810 0.47439 0.68705
 H147 H 0.91457 0.45544 0.67415
 N148 N 0.90419 0.50263 0.72653
 C149 C 0.83274 0.54603 0.76606
 H150 H 0.82912 0.53161 0.78441
 C151 C 0.81411 0.56920 0.76010
 H152 H 0.79629 0.57271 0.77415
 C153 C 0.86041 0.55896 0.72546
 H154 H 0.87824 0.55473 0.71177
 C155 C 0.84249 0.58253 0.71887
 H156 H 0.84671 0.59617 0.70008
 Zn157 Zn 0.87966 0.50924 0.75759
 N158 N 0.85545 0.54145 0.74888
 C159 C 0.89678 0.54010 0.80642
 N160 N 0.90256 0.51709 0.78973
 C161 C 0.92499 0.49910 0.79546
 C162 C 0.94234 0.50360 0.81906
 C163 C 0.91346 0.54526 0.83038
 C164 C 0.83492 0.46960 0.74676
 C165 C 0.81758 0.44475 0.75120
 C166 C 0.84465 0.43274 0.79357
 C167 C 0.86132 0.45792 0.78844
 N168 N 0.85648 0.47554 0.76512
 H169 H 0.87913 0.55439 0.80133
 H170 H 0.92922 0.48107 0.78175
 H171 H 0.95978 0.48874 0.82354
 H172 H 0.90854 0.56364 0.84346
 H173 H 0.83139 0.48409 0.72848
 H174 H 0.80085 0.44007 0.73609
 H175 H 0.84884 0.41892 0.81220
 H176 H 0.87822 0.46322 0.80305
 C177 C 0.81898 0.58788 0.73630
 C178 C 0.94077 0.49404 0.68126
 C179 C 0.82253 0.42582 0.77475
 C180 C 0.93653 0.52682 0.83699
 C181 C 0.21448 0.41041 0.00877
 H182 H 0.22801 0.41397 0.02698
 C183 C 0.19052 0.42787 0.00406
 H184 H 0.18549 0.44460 0.01900
 C185 C 0.20475 0.38425 -0.03284
 H186 H 0.21062 0.36761 -0.04746
 C187 C 0.18053 0.40114 -0.03831
 H188 H 0.16800 0.39728 -0.05716
 N189 N 0.22100 0.38895 -0.00945
 C190 C 0.27005 0.32149 0.03578
 H191 H 0.28784 0.31967 0.02138
 C192 C 0.26759 0.30221 0.05929
 H193 H 0.28370 0.28564 0.06306
 C194 C 0.22728 0.34521 0.04826
 H195 H 0.21135 0.36165 0.04368
 C196 C 0.22422 0.32666 0.07224
 H197 H 0.20590 0.32900 0.08593
 Zn198 Zn 0.25451 0.36707 -0.00217
 N199 N 0.25008 0.34250 0.03074
 C200 C 0.30195 0.39228 0.02604
 N201 N 0.28481 0.39418 0.00278
 C202 C 0.28854 0.41585 -0.01743
 C203 C 0.31070 0.43635 -0.01504
 C204 C 0.32439 0.41231 0.02927
 C205 C 0.24450 0.31992 -0.03784
 C206 C 0.24972 0.30121 -0.06008
 C207 C 0.29231 0.32951 -0.07146
 C208 C 0.28629 0.34763 -0.04899
 N209 N 0.26253 0.34278 -0.03292
 H210 H 0.29842 0.37512 0.04202
 H211 H 0.27432 0.41707 -0.03551
 H212 H 0.31327 0.45349 -0.03130
 H213 H 0.33822 0.41001 0.04760
 H214 H 0.22603 0.31624 -0.02440
 H215 H 0.23524 0.28299 -0.06352
 H216 H 0.31104 0.33411 -0.08433
 H217 H 0.30068 0.36554 -0.04447
 C218 C 0.24449 0.30477 0.07791
 C219 C 0.17318 0.42332 -0.01975
 C220 C 0.27388 0.30596 -0.07731
 C221 C 0.32909 0.43464 0.00849
 C222 C 0.71007 0.08693 -0.00700
 H223 H 0.72415 0.08363 -0.02474
 C224 C 0.68568 0.06932 -0.00335
 H225 H 0.68091 0.05263 -0.01855
 C226 C 0.69919 0.11274 0.03438
 H227 H 0.70469 0.12940 0.04927
 C228 C 0.67444 0.09584 0.03866
 H229 H 0.66112 0.09966 0.05689
 N230 N 0.71627 0.10825 0.01166
 C231 C 0.76503 0.17963 -0.02924
 H232 H 0.78300 0.18094 -0.01489
 C233 C 0.76207 0.20050 -0.05139
 H234 H 0.77801 0.21774 -0.05417
 C235 C 0.72231 0.15560 -0.04295
 H236 H 0.70665 0.13833 -0.03939
 C237 C 0.71871 0.17579 -0.06556
 H238 H 0.70021 0.17389 -0.07919
 Zn239 Zn 0.75005 0.13092 0.00570
 N240 N 0.74530 0.15773 -0.02546
 C241 C 0.79734 0.10912 -0.02451
 N242 N 0.78020 0.10484 -0.00147
 C243 C 0.78391 0.08156 0.01690
 C244 C 0.80603 0.06184 0.01285
 C245 C 0.81977 0.08995 -0.02935
 C246 C 0.74160 0.17603 0.04390
 C247 C 0.74715 0.19309 0.06740
 C248 C 0.78770 0.16248 0.07859
 C249 C 0.78151 0.14615 0.05477
 N250 N 0.75855 0.15290 0.03818
 H251 H 0.79375 0.12745 -0.03913
 H252 H 0.76979 0.07853 0.03491
 H253 H 0.80900 0.04383 0.02808
 H254 H 0.83315 0.09365 -0.04783
 H255 H 0.72369 0.18115 0.03017
 H256 H 0.73320 0.21117 0.07185
 H257 H 0.80609 0.15683 0.09152
 H258 H 0.79514 0.12814 0.04960
 C259 C 0.73870 0.19864 -0.06993
 C260 C 0.66744 0.07380 0.01966
 C261 C 0.77039 0.18626 0.08517
 C262 C 0.82443 0.06601 -0.01044
 C263 C 0.21272 0.57610 0.49248
 H264 H 0.22758 0.57466 0.47506
 C265 C 0.18906 0.55728 0.49412
 H266 H 0.18560 0.54161 0.47764
 C267 C 0.19940 0.59822 0.53523
 H268 H 0.20381 0.61378 0.55149
 C269 C 0.17535 0.57992 0.53761
 H270 H 0.16140 0.58162 0.55575
 N271 N 0.21739 0.59612 0.51279
 C272 C 0.26957 0.66640 0.47413
 H273 H 0.28730 0.66683 0.48885
 C274 C 0.26852 0.68675 0.45135
 H275 H 0.28570 0.70264 0.44845
 C276 C 0.22566 0.64505 0.46003
 H277 H 0.20876 0.62910 0.46370
 C278 C 0.22385 0.66484 0.43689
 H279 H 0.20547 0.66391 0.42298
 Zn280 Zn 0.25105 0.61926 0.50944
 N281 N 0.24846 0.64593 0.47789
 C282 C 0.29972 0.59612 0.48230
 N283 N 0.28155 0.59299 0.50467
 C284 C 0.28374 0.56999 0.52366
 C285 C 0.30499 0.54907 0.52067
 C286 C 0.32142 0.57582 0.47862
 C287 C 0.23825 0.66304 0.54788
 C288 C 0.24244 0.68064 0.57127
 C289 C 0.28536 0.65365 0.58243
 C290 C 0.28034 0.63656 0.55887
 N291 N 0.25700 0.64140 0.54224
 H292 H 0.29727 0.61415 0.46709
 H293 H 0.26877 0.56786 0.54106
 H294 H 0.30652 0.53099 0.53606
 H295 H 0.33551 0.57845 0.46052
 H296 H 0.22016 0.66677 0.53399
 H297 H 0.22750 0.69802 0.57520
 H298 H 0.30392 0.64927 0.59555
 H299 H 0.29528 0.61964 0.55379
 C300 C 0.24550 0.68599 0.43228
 C301 C 0.17003 0.55904 0.51693
 C302 C 0.26633 0.67610 0.58885
 C303 C 0.32419 0.55187 0.49791
 C304 C 0.70285 0.90797 0.50000
 H305 H 0.71754 0.91079 0.51745
 C306 C 0.67894 0.92590 0.49726
 H307 H 0.67517 0.94234 0.51287
 C308 C 0.68999 0.88306 0.45845
 H309 H 0.69457 0.86670 0.44310
 C310 C 0.66567 0.90032 0.45506
 H311 H 0.65174 0.89703 0.43707
 N312 N 0.70782 0.88691 0.48086
 C313 C 0.75739 0.81735 0.52258
 H314 H 0.77546 0.81639 0.50840
 C315 C 0.75486 0.79715 0.54540
 H316 H 0.77126 0.78084 0.54888
 C317 C 0.71395 0.83971 0.53511
 H318 H 0.69777 0.85596 0.53078
 C319 C 0.71068 0.82010 0.55826
 H320 H 0.69192 0.82148 0.57151
 Zn321 Zn 0.74115 0.86406 0.48591
 N322 N 0.73715 0.83817 0.51795
 C323 C 0.79033 0.88727 0.51317
 N324 N 0.77216 0.89033 0.49078
 C325 C 0.77532 0.91271 0.47122
 C326 C 0.79782 0.93283 0.47341
 C327 C 0.81319 0.90686 0.51614
 C328 C 0.72885 0.81896 0.44834
 C329 C 0.73310 0.80115 0.42520
 C330 C 0.77636 0.82850 0.41427
 C331 C 0.77127 0.84580 0.43758
 N332 N 0.74765 0.84100 0.45388
 H333 H 0.78726 0.86957 0.52869
 H334 H 0.76032 0.91484 0.45383
 H335 H 0.79979 0.95063 0.45774
 H336 H 0.82777 0.90369 0.53378
 H337 H 0.71056 0.81522 0.46200
 H338 H 0.71800 0.78360 0.42123
 H339 H 0.79504 0.83300 0.40129
 H340 H 0.78630 0.86299 0.44260
 C341 C 0.73128 0.79844 0.56363
 C342 C 0.65993 0.92207 0.47463
 C343 C 0.75711 0.80587 0.40778
 C344 C 0.81723 0.92998 0.49603
 C345 C 0.01369 0.21971 0.41771
 H346 H 0.03071 0.23537 0.42141
 C347 C 0.01036 0.19504 0.43577
 H348 H 0.02485 0.19196 0.45349
 C349 C -0.02656 0.20553 0.39070
 H350 H -0.04112 0.20987 0.37334
 C351 C -0.03065 0.18053 0.40820
 H352 H -0.04806 0.16557 0.40371
 N353 N -0.00454 0.22439 0.39561
 C354 C 0.03984 0.27880 0.33183
 H355 H 0.02533 0.29705 0.32963
 C356 C 0.06305 0.27694 0.31346
 H357 H 0.06657 0.29414 0.29743
 C358 C 0.05231 0.23371 0.35487
 H359 H 0.04760 0.21646 0.37045
 C360 C 0.07585 0.23106 0.33705
 H361 H 0.08905 0.21174 0.33921
 Zn362 Zn 0.00061 0.25909 0.37304
 N363 N 0.03482 0.25727 0.35191
 C364 C 0.02328 0.31081 0.39750
 N365 N 0.00138 0.29095 0.39785
 C366 C -0.01998 0.29217 0.41725
 C367 C -0.01984 0.31394 0.43743
 C368 C 0.02412 0.33313 0.41714
 C369 C -0.03034 0.24393 0.32503
 C370 C -0.05135 0.24628 0.30409
 C371 C -0.07027 0.28814 0.32774
 C372 C -0.04877 0.28510 0.34814
 N373 N -0.02949 0.26311 0.34653
 H374 H 0.04035 0.30913 0.38230
 H375 H -0.03697 0.27589 0.41726
 H376 H -0.03700 0.31454 0.45274
 H377 H 0.04191 0.34850 0.41685
 H378 H -0.01452 0.22684 0.32412
 H379 H -0.05182 0.23069 0.28724
 H380 H -0.08528 0.30595 0.32915
 H381 H -0.04740 0.30046 0.36507
 C382 C 0.08122 0.25265 0.31576
 C383 C -0.01207 0.17505 0.43113
 C384 C -0.07169 0.26860 0.30532
 C385 C 0.00247 0.33473 0.43758
 C386 C -0.00200 0.72042 0.07594
 H387 H -0.01925 0.73603 0.07504
 C388 C -0.00071 0.69840 0.05610
 H389 H -0.01725 0.69692 0.04013
 C390 C 0.04087 0.70383 0.09756
 H391 H 0.05735 0.70643 0.11335
 C392 C 0.04284 0.68128 0.07828
 H393 H 0.06091 0.66665 0.07943
 N394 N 0.01866 0.72281 0.09606
 C395 C -0.01663 0.77028 0.16654
 H396 H -0.00125 0.78805 0.16794
 C397 C -0.03923 0.76800 0.18579
 H398 H -0.04090 0.78399 0.20218
 C399 C -0.03266 0.72753 0.14373
 H400 H -0.03002 0.71178 0.12734
 C401 C -0.05562 0.72448 0.16245
 H402 H -0.07068 0.70658 0.15989
 Zn403 Zn 0.01659 0.75535 0.11990
 N404 N -0.01398 0.75041 0.14583
 C405 C -0.01219 0.80665 0.09988
 N406 N 0.01042 0.78874 0.09593
 C407 C 0.02824 0.79294 0.07342
 C408 C 0.02373 0.81599 0.05378
 C409 C -0.01742 0.83007 0.08081
 C410 C 0.05651 0.73972 0.16204
 C411 C 0.08094 0.74265 0.17878
 C412 C 0.09335 0.78680 0.15160
 C413 C 0.06854 0.78321 0.13558
 N414 N 0.05082 0.75981 0.14087
 H415 H -0.02651 0.80256 0.11750
 H416 H 0.04580 0.77808 0.07057
 H417 H 0.03821 0.81906 0.03604
 H418 H -0.03578 0.84382 0.08399
 H419 H 0.04190 0.72151 0.16601
 H420 H 0.08521 0.72640 0.19547
 H421 H 0.10711 0.80566 0.14724
 H422 H 0.06341 0.79929 0.11910
 C423 C -0.05924 0.74498 0.18376
 C424 C 0.02202 0.67858 0.05704
 C425 C 0.09973 0.76643 0.17359
 C426 C 0.00056 0.83482 0.05729
 C427 C 0.48823 0.20428 0.58880
 H428 H 0.46929 0.21734 0.58554
 C429 C 0.49384 0.18112 0.57099
 H430 H 0.47892 0.17628 0.55418
 C431 C 0.53043 0.19446 0.61506
 H432 H 0.54478 0.19987 0.63209
 C433 C 0.53678 0.17104 0.59786
 H434 H 0.55609 0.15868 0.60179
 N435 N 0.50624 0.21023 0.61056
 C436 C 0.45750 0.24886 0.67811
 H437 H 0.47017 0.26840 0.68164
 C438 C 0.43409 0.24215 0.69550
 H439 H 0.42900 0.25659 0.71252
 C440 C 0.44950 0.20581 0.65222
 H441 H 0.45570 0.19154 0.63554
 C442 C 0.42591 0.19827 0.66909
 H443 H 0.41391 0.17846 0.66480
 Zn444 Zn 0.49691 0.24131 0.63449
 N445 N 0.46454 0.23094 0.65677
 C446 C 0.46555 0.29133 0.61560
 N447 N 0.48943 0.27527 0.61146
 C448 C 0.50834 0.28284 0.59056
 C449 C 0.50378 0.30771 0.57307
 C450 C 0.46037 0.31656 0.59887
 C451 C 0.53231 0.22840 0.68092
 C452 C 0.55396 0.23297 0.70071
 C453 C 0.56512 0.27928 0.67660
 C454 C 0.54312 0.27391 0.65737
 N455 N 0.52740 0.24868 0.65973
 H456 H 0.45047 0.28473 0.63191
 H457 H 0.52703 0.26955 0.58757
 H458 H 0.51917 0.31364 0.55671
 H459 H 0.44132 0.32916 0.60249
 H460 H 0.51928 0.20866 0.68246
 H461 H 0.55775 0.21644 0.71727
 H462 H 0.57730 0.29957 0.67456
 H463 H 0.53857 0.28999 0.64069
 C464 C 0.41787 0.21660 0.69102
 C465 C 0.51827 0.16398 0.57560
 C466 C 0.57073 0.25867 0.69864
 C467 C 0.47965 0.32503 0.57733
 C468 C 0.50261 0.71280 0.91922
 H469 H 0.52232 0.72525 0.92067
 C470 C 0.49635 0.69060 0.93944
 H471 H 0.51133 0.68626 0.95653
 C472 C 0.45871 0.70427 0.89574
 H473 H 0.44393 0.70982 0.87887
 C474 C 0.45164 0.68183 0.91542
 H475 H 0.43167 0.66998 0.91307
 N476 N 0.48398 0.71903 0.89778
 C477 C 0.53172 0.75746 0.82619
 H478 H 0.51948 0.77713 0.82186
 C479 C 0.55506 0.75113 0.80913
 H480 H 0.56084 0.76617 0.79179
 C481 C 0.53934 0.71429 0.85446
 H482 H 0.53306 0.69985 0.87200
 C483 C 0.56294 0.70722 0.83809
 H484 H 0.57458 0.68731 0.84318
 Zn485 Zn 0.49357 0.75007 0.87169
 N486 N 0.52459 0.73934 0.84861
 C487 C 0.52852 0.79816 0.88805
 N488 N 0.50369 0.78312 0.89302
 C489 C 0.48560 0.79083 0.91397
 C490 C 0.49195 0.81485 0.93058
 C491 C 0.53561 0.82246 0.90405
 C492 C 0.45372 0.73914 0.82858
 C493 C 0.43001 0.74449 0.81123
 C494 C 0.42414 0.79108 0.83346
 C495 C 0.44800 0.78488 0.85029
 N496 N 0.46196 0.75904 0.84793
 H497 H 0.54291 0.79138 0.87171
 H498 H 0.46614 0.77830 0.91766
 H499 H 0.47708 0.82092 0.94688
 H500 H 0.55549 0.83413 0.89989
 H501 H 0.46546 0.71895 0.82683
 H502 H 0.42384 0.72838 0.79593
 H503 H 0.41288 0.81140 0.83630
 H504 H 0.45508 0.80066 0.86545
 C505 C 0.57120 0.72589 0.81523
 C506 C 0.47058 0.67470 0.93766
 C507 C 0.41469 0.77065 0.81374
 C508 C 0.51719 0.83108 0.92562
 C509 C 0.20133 0.21813 0.27398
 C510 C 0.19649 0.22332 0.24484
 C511 C 0.16986 0.23405 0.23575
 C512 C 0.14832 0.23947 0.25547
 C513 C 0.15330 0.23384 0.28470
 C514 C 0.17993 0.22329 0.29374
 C515 C 0.13151 0.23861 0.30436
 C516 C 0.10477 0.24902 0.29520
 C517 C 0.10023 0.25495 0.26611
 C518 C 0.12179 0.25018 0.24642
 H519 H 0.16587 0.23783 0.21330
 H520 H 0.18416 0.21895 0.31607
 H521 H 0.13534 0.23426 0.32676
 H522 H 0.11760 0.25461 0.22409
 H523 H 0.22177 0.21007 0.28141
 H524 H 0.07972 0.26262 0.25848
 C525 C 0.64521 0.71627 0.70721
 C526 C 0.67076 0.70802 0.72081
 C527 C 0.67112 0.70415 0.75050
 C528 C 0.64640 0.70879 0.76643
 C529 C 0.62096 0.71758 0.75255
 C530 C 0.62055 0.72107 0.72292
 C531 C 0.59642 0.72291 0.76853
 C532 C 0.59688 0.71943 0.79826
 C533 C 0.62218 0.71028 0.81179
 C534 C 0.64673 0.70507 0.79604
 H535 H 0.69079 0.69799 0.76114
 H536 H 0.60122 0.72765 0.71191
 H537 H 0.57692 0.72962 0.75786
 H538 H 0.66603 0.69835 0.80703
 H539 H 0.64445 0.71911 0.68434
 H540 H 0.62313 0.70772 0.83468
 C541 C 0.30110 0.74186 0.75237
 C542 C 0.29542 0.77038 0.74180
 C543 C 0.31451 0.79336 0.74772
 C544 C 0.33919 0.78788 0.76386
 C545 C 0.34470 0.75910 0.77447
 C546 C 0.32546 0.73627 0.76869
 C547 C 0.36936 0.75361 0.79063
 C548 C 0.38880 0.77646 0.79624
 C549 C 0.38315 0.80496 0.78539
 C550 C 0.35856 0.81063 0.76941
 H551 H 0.31030 0.81532 0.73930
 H552 H 0.32934 0.71408 0.77663
 H553 H 0.37317 0.73162 0.79918
 H554 H 0.35476 0.83278 0.76131
 H555 H 0.28654 0.72396 0.74796
 H556 H 0.39792 0.82289 0.78901
 C557 C -0.19179 0.29435 0.25645
 C558 C -0.18464 0.29335 0.22758
 C559 C -0.15676 0.28584 0.21989
 C560 C -0.13598 0.28036 0.24084
 C561 C -0.14326 0.28221 0.26981
 C562 C -0.17131 0.28881 0.27739
 C563 C -0.12229 0.27791 0.29073
 C564 C -0.09403 0.27181 0.28316
 C565 C -0.08712 0.26942 0.25434
 C566 C -0.10790 0.27369 0.23335
 H567 H -0.15112 0.28522 0.19765
 H568 H -0.17730 0.29015 0.29949
 H569 H -0.12793 0.27937 0.31292
 H570 H -0.10192 0.27217 0.21127
 H571 H -0.21324 0.29986 0.26273
 H572 H -0.06543 0.26495 0.24799
 C573 C -0.15186 0.68246 0.25824
 C574 C -0.16645 0.70772 0.26611
 C575 C -0.15635 0.73549 0.25665
 C576 C -0.13211 0.73799 0.23926
 C577 C -0.11767 0.71241 0.23137
 C578 C -0.12763 0.68477 0.24110
 C579 C -0.09368 0.71486 0.21367
 C580 C -0.08399 0.74254 0.20342
 C581 C -0.09844 0.76784 0.21157
 C582 C -0.12223 0.76560 0.22936
 H583 H -0.16770 0.75502 0.26247
 H584 H -0.11681 0.66493 0.23530
 H585 H -0.08252 0.69519 0.20795
 H586 H -0.13308 0.78543 0.23512
 H587 H -0.15926 0.66091 0.26549
 H588 H -0.09171 0.78941 0.20370
 C589 C 0.30925 0.23934 0.76144
 C590 C 0.30410 0.21017 0.77080
 C591 C 0.32233 0.18795 0.76196
 C592 C 0.34563 0.19481 0.74423
 C593 C 0.35071 0.22426 0.73508
 C594 C 0.33231 0.24634 0.74369
 C595 C 0.37417 0.23119 0.71760
 C596 C 0.39282 0.20909 0.70918
 C597 C 0.38749 0.17986 0.71834
 C598 C 0.36410 0.17277 0.73568
 H599 H 0.31860 0.16545 0.76931
 H600 H 0.33584 0.26902 0.73683
 H601 H 0.37778 0.25375 0.71036
 H602 H 0.36058 0.15010 0.74256
 H603 H 0.29530 0.25671 0.76789
 H604 H 0.40169 0.16248 0.71247
 C605 C 0.69070 0.29608 0.74064
 C606 C 0.68611 0.29028 0.76973
 C607 C 0.65939 0.27938 0.77887
 C608 C 0.63754 0.27421 0.75922
 C609 C 0.64235 0.28028 0.73002
 C610 C 0.66900 0.29119 0.72095
 C611 C 0.62045 0.27525 0.71037
 C612 C 0.59382 0.26403 0.71947
 C613 C 0.58933 0.25795 0.74854
 C614 C 0.61096 0.26307 0.76825
 H615 H 0.65566 0.27507 0.80130
 H616 H 0.67309 0.29587 0.69865
 H617 H 0.62426 0.27966 0.68796
 H618 H 0.60690 0.25833 0.79055
 H619 H 0.71121 0.30428 0.73318
 H620 H 0.56890 0.24960 0.75608
 C621 C 0.17126 0.77055 0.28397
 C622 C 0.19782 0.77714 0.27134
 C623 C 0.19946 0.78077 0.24166
 C624 C 0.17495 0.77754 0.22482
 C625 C 0.14847 0.77042 0.23777
 C626 C 0.14683 0.76714 0.26737
 C627 C 0.12405 0.76668 0.22094
 C628 C 0.12563 0.77024 0.19128
 C629 C 0.15199 0.77764 0.17862
 C630 C 0.17646 0.78114 0.19522
 H631 H 0.21989 0.78567 0.23176
 H632 H 0.12669 0.76185 0.27767
 H633 H 0.10374 0.76138 0.23093
 H634 H 0.19656 0.78661 0.18492
 H635 H 0.16950 0.76794 0.30680
 H636 H 0.15373 0.78032 0.15578
 C637 C 0.22139 0.16392 0.23537
 C638 C 0.23492 0.19069 0.22770
 C639 C 0.26455 0.19124 0.22308
 C640 C 0.28047 0.16538 0.22596
 C641 C 0.26664 0.13860 0.23377
 C642 C 0.23710 0.13811 0.23843
 C643 C 0.28256 0.11273 0.23670
 C644 C 0.31217 0.11321 0.23182
 C645 C 0.32566 0.13997 0.22399
 C646 C 0.30998 0.16583 0.22114
 H647 H 0.27513 0.21186 0.21733
 H648 H 0.22612 0.11777 0.24435
 H649 H 0.27185 0.09218 0.24240
 H650 H 0.32093 0.18616 0.21519
 H651 H 0.19855 0.16301 0.23877
 H652 H 0.34848 0.14098 0.22045
 C653 C 0.70394 0.65215 0.71883
 C654 C 0.71525 0.67995 0.71099
 C655 C 0.74506 0.68380 0.70978
 C656 C 0.76329 0.66026 0.71631
 C657 C 0.75165 0.63249 0.72443
 C658 C 0.72194 0.62867 0.72557
 C659 C 0.76990 0.60901 0.73115
 C660 C 0.79969 0.61280 0.72958
 C661 C 0.81100 0.64048 0.72134
 C662 C 0.79299 0.66402 0.71487
 H663 H 0.75400 0.70519 0.70397
 H664 H 0.71263 0.60751 0.73161
 H665 H 0.76094 0.58766 0.73714
 H666 H 0.80229 0.68515 0.70871
 H667 H 0.68106 0.64861 0.71963
 H668 H 0.83388 0.64399 0.72023
 C669 C 0.71256 0.34909 0.78011
 C670 C 0.72559 0.32219 0.78726
 C671 C 0.75534 0.32143 0.79108
 C672 C 0.77189 0.34715 0.78756
 C673 C 0.75857 0.37400 0.77995
 C674 C 0.72888 0.37475 0.77643
 C675 C 0.77517 0.39961 0.77588
 C676 C 0.80495 0.39883 0.77948
 C677 C 0.81792 0.37209 0.78738
 C678 C 0.80156 0.34646 0.79131
 H679 H 0.76556 0.30073 0.79639
 H680 H 0.71830 0.39515 0.77073
 H681 H 0.76492 0.42019 0.77014
 H682 H 0.81213 0.32609 0.79713
 H683 H 0.68965 0.35017 0.77731
 H684 H 0.84085 0.37091 0.79003
 C685 C 0.27341 -0.20326 0.28654
 C686 C 0.24414 -0.19762 0.28304
 C687 C 0.23555 -0.16920 0.27438
 C688 C 0.25586 -0.14672 0.26950
 C689 C 0.28518 -0.15259 0.27354
 C690 C 0.29373 -0.18096 0.28192
 C691 C 0.30544 -0.12996 0.26926
 C692 C 0.29685 -0.10150 0.26082
 C693 C 0.26766 -0.09602 0.25646
 C694 C 0.24735 -0.11839 0.26084
 H695 H 0.21304 -0.16454 0.27181
 H696 H 0.31612 -0.18591 0.28497
 H697 H 0.32792 -0.13452 0.27234
 H698 H 0.22497 -0.11349 0.25763
 H699 H 0.28054 -0.22504 0.29288
 H700 H 0.26050 -0.07422 0.25021
 C701 C 0.24599 -0.19223 0.75765
 C702 C 0.25224 -0.19976 0.72968
 C703 C 0.24027 -0.18321 0.70704
 C704 C 0.22209 -0.15972 0.71221
 C705 C 0.21590 -0.15236 0.74041
 C706 C 0.22802 -0.16873 0.76298
 C707 C 0.19767 -0.12883 0.74554
 C708 C 0.18540 -0.11263 0.72280
 C709 C 0.19177 -0.12021 0.69486
 C710 C 0.20995 -0.14349 0.68961
 H711 H 0.24524 -0.18860 0.68540
 H712 H 0.22350 -0.16345 0.78475
 H713 H 0.19273 -0.12337 0.76717
 H714 H 0.21454 -0.14878 0.66786
 H715 H 0.25485 -0.20477 0.77540
 H716 H 0.18297 -0.10781 0.67698
 C717 C 0.79018 0.35331 0.21953
 C718 C 0.77745 0.32725 0.21028
 C719 C 0.74779 0.32609 0.20600
 C720 C 0.73093 0.35056 0.21138
 C721 C 0.74393 0.37653 0.22110
 C722 C 0.77358 0.37777 0.22488
 C723 C 0.72703 0.40074 0.22719
 C724 C 0.69725 0.39939 0.22380
 C725 C 0.68458 0.37362 0.21372
 C726 C 0.70127 0.34940 0.20758
 H727 H 0.73789 0.30594 0.19907
 H728 H 0.78389 0.39753 0.23222
 H729 H 0.73707 0.42066 0.23453
 H730 H 0.69096 0.32967 0.20016
 H731 H 0.81304 0.35459 0.22275
 H732 H 0.66165 0.37198 0.21116
 C733 C 0.77730 0.67963 0.24920
 C734 C 0.78707 0.68286 0.27709
 C735 C 0.77595 0.66451 0.29895
 C736 C 0.75512 0.64322 0.29309
 C737 C 0.74516 0.64031 0.26500
 C738 C 0.75643 0.65859 0.24319
 C739 C 0.72410 0.61922 0.25920
 C740 C 0.71299 0.60070 0.28105
 C741 C 0.72330 0.60368 0.30886
 C742 C 0.74408 0.62480 0.31484
 H743 H 0.78366 0.66683 0.32045
 H744 H 0.74908 0.65665 0.22154
 H745 H 0.71614 0.61750 0.23772
 H746 H 0.75160 0.62662 0.33645
 H747 H 0.78562 0.69372 0.23216
 H748 H 0.71557 0.58939 0.32602
 C749 C 0.25512 0.15954 0.80943
 C750 C 0.26325 0.17736 0.78590
 C751 C 0.25372 0.17010 0.75871
 C752 C 0.23571 0.14567 0.75515
 C753 C 0.22735 0.12815 0.77906
 C754 C 0.23738 0.13511 0.80605
 C755 C 0.20876 0.10423 0.77568
 C756 C 0.19797 0.09766 0.74874
 C757 C 0.20679 0.11491 0.72502
 C758 C 0.22553 0.13868 0.72819
 H759 H 0.25982 0.18388 0.74051
 H760 H 0.23126 0.12185 0.82459
 H761 H 0.20258 0.09078 0.79408
 H762 H 0.23170 0.15187 0.70963
 H763 H 0.26250 0.16467 0.83048
 H764 H 0.19864 0.11046 0.70409
 C765 C 0.22142 0.26776 0.20337
 C766 C 0.22338 0.23722 0.20037
 C767 C 0.22976 0.22634 0.17356
 C768 C 0.23394 0.24560 0.15008
 C769 C 0.23132 0.27621 0.15327
 C770 C 0.22519 0.28706 0.18003
 C771 C 0.23482 0.29543 0.12965
 C772 C 0.24129 0.28449 0.10291
 C773 C 0.24436 0.25407 0.10007
 C774 C 0.24056 0.23477 0.12342
 H775 H 0.23114 0.20284 0.17094
 H776 H 0.22330 0.31047 0.18291
 H777 H 0.23274 0.31891 0.13206
 H778 H 0.24272 0.21138 0.12060
 H779 H 0.21688 0.27666 0.22387
 H780 H 0.24917 0.24520 0.07962
 C781 C 0.69935 0.75547 0.68549
 C782 C 0.70338 0.72529 0.68181
 C783 C 0.71343 0.71579 0.65561
 C784 C 0.71882 0.73612 0.63319
 C785 C 0.71408 0.76635 0.63699
 C786 C 0.70459 0.77581 0.66330
 C787 C 0.71858 0.78659 0.61435
 C788 C 0.72782 0.77710 0.58785
 C789 C 0.73301 0.74707 0.58445
 C790 C 0.72850 0.72675 0.60689
 H791 H 0.71645 0.69254 0.65258
 H792 H 0.70100 0.79891 0.66664
 H793 H 0.71490 0.80974 0.61733
 H794 H 0.73227 0.70368 0.60359
 H795 H 0.69193 0.76324 0.70562
 H796 H 0.73991 0.73920 0.56418
 C797 C 0.82653 0.73245 0.32409
 C798 C 0.80364 0.72425 0.30665
 C799 C 0.77610 0.73437 0.31263
 C800 C 0.77139 0.75207 0.33590
 C801 C 0.79454 0.76008 0.35337
 C802 C 0.82205 0.75025 0.34722
 C803 C 0.78977 0.77762 0.37677
 C804 C 0.76212 0.78727 0.38303
 C805 C 0.73928 0.77916 0.36547
 C806 C 0.74387 0.76176 0.34210
 H807 H 0.75836 0.72836 0.29916
 H808 H 0.84004 0.75612 0.36041
 H809 H 0.80751 0.78339 0.39036
 H810 H 0.72590 0.75587 0.32888
 H811 H 0.84785 0.72468 0.32003
 H812 H 0.71786 0.78661 0.36960
 C813 C 0.24669 0.23030 -0.18109
 C814 C 0.27483 0.22208 -0.18696
 C815 C 0.29718 0.23214 -0.16981
 C816 C 0.29153 0.25017 -0.14699
 C817 C 0.26315 0.25838 -0.14127
 C818 C 0.24089 0.24835 -0.15848
 C819 C 0.25751 0.27650 -0.11850
 C820 C 0.27985 0.28652 -0.10122
 C821 C 0.30797 0.27805 -0.10705
 C822 C 0.31376 0.26008 -0.12973
 H823 H 0.31889 0.22561 -0.17414
 H824 H 0.21901 0.25444 -0.15443
 H825 H 0.23578 0.28316 -0.11449
 H826 H 0.33562 0.25388 -0.13373
 H827 H 0.22925 0.22283 -0.19421
 H828 H 0.32552 0.28509 -0.09385
 C829 C 0.71167 0.24393 -0.19219
 C830 C 0.71413 0.27416 -0.18734
 C831 C 0.72166 0.28327 -0.16007
 C832 C 0.72644 0.26252 -0.13796
 C833 C 0.72335 0.23222 -0.14302
 C834 C 0.71610 0.22317 -0.17023
 C835 C 0.72748 0.21149 -0.12076
 C836 C 0.73496 0.22059 -0.09352
 C837 C 0.73845 0.25073 -0.08882
 C838 C 0.73410 0.27152 -0.11081
 H839 H 0.72346 0.30651 -0.15605
 H840 H 0.71382 0.20004 -0.17454
 H841 H 0.72509 0.18826 -0.12466
 H842 H 0.73662 0.29465 -0.10655
 H843 H 0.70626 0.23639 -0.21308
 H844 H 0.74401 0.25822 -0.06795
 C845 C 0.22155 0.72848 0.30852
 C846 C 0.22729 0.75848 0.31204
 C847 C 0.23636 0.76799 0.33868
 C848 C 0.23931 0.74783 0.36162
 C849 C 0.23302 0.71777 0.35792
 C850 C 0.22434 0.70830 0.33124
 C851 C 0.23531 0.69770 0.38098
 C852 C 0.24389 0.70720 0.40779
 C853 C 0.25049 0.73707 0.41114
 C854 C 0.24816 0.75722 0.38828
 H855 H 0.24063 0.79114 0.34158
 H856 H 0.21957 0.68532 0.32799
 H857 H 0.23056 0.67465 0.37806
 H858 H 0.25307 0.78017 0.39151
 H859 H 0.21477 0.72073 0.28809
 H860 H 0.25692 0.74495 0.43163
 C861 C 0.23730 0.74729 0.69481
 C862 C 0.26515 0.75716 0.70059
 C863 C 0.28765 0.74878 0.68304
 C864 C 0.28244 0.73088 0.65992
 C865 C 0.25433 0.72115 0.65419
 C866 C 0.23191 0.72944 0.67180
 C867 C 0.24915 0.70330 0.63098
 C868 C 0.27172 0.69498 0.61341
 C869 C 0.29957 0.70485 0.61937
 C870 C 0.30488 0.72263 0.64239
 H871 H 0.30916 0.75650 0.68728
 H872 H 0.21024 0.72214 0.66779
 H873 H 0.22764 0.69557 0.62681
 H874 H 0.32654 0.72998 0.64643
 H875 H 0.21975 0.75334 0.70826
 H876 H 0.31726 0.69913 0.60595
 C877 C 0.78448 0.29846 0.15487
 C878 C 0.79077 0.28451 0.18114
 C879 C 0.79250 0.25369 0.18285
 C880 C 0.78756 0.23703 0.15877
 C881 C 0.78076 0.25132 0.13261
 C882 C 0.77947 0.28205 0.13085
 C883 C 0.77523 0.23466 0.10867
 C884 C 0.77655 0.20384 0.11043
 C885 C 0.78367 0.18987 0.13647
 C886 C 0.78905 0.20630 0.16044
 H887 H 0.79715 0.24272 0.20303
 H888 H 0.77444 0.29338 0.11094
 H889 H 0.77013 0.24567 0.08860
 H890 H 0.79424 0.19497 0.18031
 H891 H 0.78336 0.32218 0.15300
 H892 H 0.78460 0.16613 0.13839
 C893 C 0.46935 0.40136 0.46674
 C894 C 0.46254 0.42797 0.47936
 C895 C 0.46034 0.42860 0.50907
 C896 C 0.46494 0.40312 0.52592
 C897 C 0.47223 0.37665 0.51299
 C898 C 0.47430 0.37600 0.48339
 C899 C 0.47724 0.35127 0.52987
 C900 C 0.47461 0.35187 0.55952
 C901 C 0.46703 0.37820 0.57214
 C902 C 0.46239 0.40365 0.55551
 H903 H 0.45529 0.44900 0.51906
 H904 H 0.47968 0.35587 0.47309
 H905 H 0.48276 0.33094 0.51996
 H906 H 0.45678 0.42373 0.56578
 H907 H 0.47081 0.40022 0.44390
 H908 H 0.46507 0.37917 0.59496
 C909 C -0.03073 0.96022 0.01361
 C910 C -0.02807 0.95521 -0.01550
 C911 C -0.02092 0.92703 -0.02427
 C912 C -0.01590 0.90427 -0.00425
 C913 C -0.01845 0.90955 0.02500
 C914 C -0.02603 0.93757 0.03370
 C915 C -0.01318 0.88679 0.04502
 C916 C -0.00518 0.85885 0.03618
 C917 C -0.00277 0.85388 0.00703
 C918 C -0.00814 0.87637 -0.01301
 H919 H -0.01914 0.92297 -0.04671
 H920 H -0.02806 0.94203 0.05603
 H921 H -0.01483 0.89093 0.06746
 H922 H -0.00616 0.87195 -0.03536
 H923 H -0.03609 0.98184 0.02074
 H924 H 0.00295 0.83244 -0.00029
 C925 C 0.04760 0.55614 0.01028
 C926 C 0.04464 0.56373 -0.01870
 C927 C 0.03627 0.59236 -0.02674
 C928 C 0.03163 0.61335 -0.00612
 C929 C 0.03545 0.60565 0.02292
 C930 C 0.04310 0.57689 0.03090
 C931 C 0.03195 0.62691 0.04347
 C932 C 0.02452 0.65581 0.03543
 C933 C 0.02017 0.66309 0.00656
 C934 C 0.02377 0.64207 -0.01404
 H935 H 0.03414 0.59844 -0.04904
 H936 H 0.04594 0.57054 0.05305
 H937 H 0.03501 0.62101 0.06571
 H938 H 0.02072 0.64838 -0.03618
 H939 H 0.05379 0.53413 0.01690
 H940 H 0.01465 0.68528 -0.00014
 C941 C 0.52573 0.09477 0.46492
 C942 C 0.53461 0.06790 0.47730
 C943 C 0.53905 0.06570 0.50676
 C944 C 0.53442 0.08996 0.52370
 C945 C 0.52514 0.11678 0.51106
 C946 C 0.52100 0.11899 0.48164
 C947 C 0.52005 0.14090 0.52805
 C948 C 0.52419 0.13866 0.55757
 C949 C 0.53368 0.11196 0.56987
 C950 C 0.53871 0.08782 0.55310
 H951 H 0.54573 0.04498 0.51643
 H952 H 0.51401 0.13940 0.47157
 H953 H 0.51309 0.16149 0.51829
 H954 H 0.54579 0.06743 0.56316
 H955 H 0.52244 0.09693 0.44222
 H956 H 0.53673 0.10958 0.59259
 C957 C -0.07901 0.08226 0.50444
 C958 C -0.05530 0.06684 0.51515
 C959 C -0.02774 0.07577 0.50660
 C960 C -0.02385 0.09986 0.48770
 C961 C -0.04783 0.11534 0.47717
 C962 C -0.07532 0.10631 0.48560
 C963 C -0.04388 0.13973 0.45860
 C964 C -0.01626 0.14888 0.45033
 C965 C 0.00738 0.13309 0.46077
 C966 C 0.00363 0.10882 0.47928
 H967 H -0.00936 0.06389 0.51466
 H968 H -0.09394 0.11795 0.47779
 H969 H -0.06229 0.15191 0.45104
 H970 H 0.02223 0.09710 0.48705
 H971 H -0.10038 0.07592 0.51104
 H972 H 0.02884 0.13937 0.45441
 C973 C 0.49257 0.56792 1.01943
 C974 C 0.46440 0.56395 1.02911
 C975 C 0.44305 0.58290 1.01872
 C976 C 0.44973 0.60555 0.99888
 C977 C 0.47811 0.60926 0.98920
 C978 C 0.49937 0.59033 0.99961
 C979 C 0.48477 0.63180 0.96924
 C980 C 0.46347 0.65089 0.95886
 C981 C 0.43534 0.64705 0.96880
 C982 C 0.42853 0.62458 0.98858
 H983 H 0.42134 0.58007 1.02629
 H984 H 0.52123 0.59283 0.99241
 H985 H 0.50647 0.63420 0.96151
 H986 H 0.40668 0.62214 0.99587
 H987 H 0.50926 0.55340 1.02704
 H988 H 0.41860 0.66168 0.96154
 C989 C 0.52734 0.90335 1.03419
 C990 C 0.53735 0.92967 1.02119
 C991 C 0.54201 0.93093 0.99175
 C992 C 0.53646 0.90626 0.97544
 C993 C 0.52602 0.88003 0.98872
 C994 C 0.52169 0.87876 1.01812
 C995 C 0.51995 0.85555 0.97238
 C996 C 0.52422 0.85683 0.94288
 C997 C 0.53494 0.88289 0.92992
 C998 C 0.54095 0.90742 0.94605
 H999 H 0.54954 0.95123 0.98159
 H1000 H 0.51382 0.85880 1.02867
 H1001 H 0.51207 0.83543 0.98264
 H1002 H 0.54893 0.92733 0.93551
 H1003 H 0.52385 0.90193 1.05689
 H1004 H 0.53818 0.88447 0.90720
 C1005 C 0.02292 0.45807 0.48599
 C1006 C 0.01844 0.45029 0.51475
 C1007 C 0.01050 0.42122 0.52226
 C1008 C 0.00762 0.40007 0.50139
 C1009 C 0.01283 0.40804 0.47263
 C1010 C 0.02019 0.43716 0.46513
 C1011 C 0.01087 0.38671 0.45186
 C1012 C 0.00361 0.35747 0.45941
 C1013 C -0.00203 0.34990 0.48801
 C1014 C 0.00004 0.37098 0.50882
 H1015 H 0.00723 0.41498 0.54439
 H1016 H 0.02409 0.44370 0.44318
 H1017 H 0.01491 0.39285 0.42983
 H1018 H -0.00404 0.36447 0.53075
 H1019 H 0.02880 0.48040 0.47974
 H1020 H -0.00742 0.32747 0.49436
 C1021 C 0.44382 0.50582 0.46781
 C1022 C 0.43720 0.47567 0.46986
 C1023 C 0.40969 0.46661 0.47842
 C1024 C 0.38883 0.48748 0.48424
 C1025 C 0.39558 0.51777 0.48149
 C1026 C 0.42322 0.52670 0.47356
 C1027 C 0.37450 0.53865 0.48635
 C1028 C 0.34668 0.52972 0.49396
 C1029 C 0.34032 0.49956 0.49718
 C1030 C 0.36120 0.47862 0.49231
 H1031 H 0.40443 0.44338 0.47984
 H1032 H 0.42880 0.54982 0.47149
 H1033 H 0.37973 0.56186 0.48420
 H1034 H 0.35564 0.45551 0.49454
 H1035 H 0.46499 0.51316 0.46146
 H1036 H 0.31898 0.49217 0.50282
 C1037 C 0.94794 0.02895 -0.03864
 C1038 C 0.94420 -0.00138 -0.03340
 C1039 C 0.91720 -0.01229 -0.02514
 C1040 C 0.89426 0.00684 -0.02190
 C1041 C 0.89827 0.03735 -0.02709
 C1042 C 0.92518 0.04817 -0.03552
 C1043 C 0.87537 0.05651 -0.02355
 C1044 C 0.84846 0.04563 -0.01481
 C1045 C 0.84473 0.01522 -0.00990
 C1046 C 0.86739 -0.00400 -0.01343
 H1047 H 0.91412 -0.03570 -0.02132
 H1048 H 0.92866 0.07148 -0.03956
 H1049 H 0.87865 0.07994 -0.02707
 H1050 H 0.86393 -0.02733 -0.00947
 H1051 H 0.96864 0.03776 -0.04485
 H1052 H 0.82415 0.00623 -0.00353
 C1053 C 0.59380 -0.04003 0.02726
 C1054 C 0.56767 -0.02689 0.03375
 C1055 C 0.56672 0.00380 0.03612
 C1056 C 0.59145 0.02109 0.03211
 C1057 C 0.61750 0.00763 0.02530
 C1058 C 0.61844 -0.02294 0.02296
 C1059 C 0.64218 0.02494 0.02108
 C1060 C 0.64129 0.05556 0.02389
 C1061 C 0.61532 0.06868 0.03088
 C1062 C 0.59059 0.05163 0.03483
 H1063 H 0.54667 0.01419 0.04091
 H1064 H 0.63825 -0.03366 0.01791
 H1065 H 0.66219 0.01457 0.01604
 H1066 H 0.57081 0.06233 0.04004
 H1067 H 0.59516 -0.06363 0.02566
 H1068 H 0.61408 0.09225 0.03292
 C1069 C 0.04429 0.52152 0.53915
 C1070 C 0.04737 0.49154 0.53385
 C1071 C 0.07428 0.48101 0.52622
 C1072 C 0.09784 0.50016 0.52387
 C1073 C 0.09457 0.53026 0.52943
 C1074 C 0.06769 0.54072 0.53703
 C1075 C 0.11820 0.54937 0.52724
 C1076 C 0.14506 0.53885 0.51935
 C1077 C 0.14801 0.50890 0.51377
 C1078 C 0.12463 0.48971 0.51608
 H1079 H 0.07680 0.45786 0.52229
 H1080 H 0.06476 0.56373 0.54127
 H1081 H 0.11563 0.57250 0.53127
 H1082 H 0.12752 0.46670 0.51179
 H1083 H 0.02366 0.53003 0.54484
 H1084 H 0.16855 0.50022 0.50798
 C1085 C 0.10246 0.53746 -0.02703
 C1086 C 0.07661 0.52477 -0.03586
 C1087 C 0.07521 0.49442 -0.04021
 C1088 C 0.09932 0.47686 -0.03553
 C1089 C 0.12515 0.48983 -0.02637
 C1090 C 0.12652 0.52016 -0.02232
 C1091 C 0.14915 0.47227 -0.02134
 C1092 C 0.14778 0.44183 -0.02534
 C1093 C 0.12205 0.42919 -0.03466
 C1094 C 0.09802 0.44654 -0.03967
 H1095 H 0.05526 0.48454 -0.04686
 H1096 H 0.14616 0.53048 -0.01540
 H1097 H 0.16898 0.48233 -0.01458
 H1098 H 0.07840 0.43622 -0.04665
 H1099 H 0.10393 0.56086 -0.02379
 H1100 H 0.12039 0.40576 -0.03764
 C1101 C 0.59015 1.03700 0.47048
 C1102 C 0.56349 1.02439 0.46405
 C1103 C 0.56135 0.99377 0.46141
 C1104 C 0.58551 0.97604 0.46478
 C1105 C 0.61217 0.98897 0.47136
 C1106 C 0.61424 1.01946 0.47422
 C1107 C 0.63633 0.97124 0.47476
 C1108 C 0.63431 0.94073 0.47134
 C1109 C 0.60773 0.92813 0.46465
 C1110 C 0.58351 0.94560 0.46153
 H1111 H 0.54085 0.98380 0.45670
 H1112 H 0.63452 1.02977 0.47914
 H1113 H 0.65681 0.98121 0.47958
 H1114 H 0.56325 0.93532 0.45649
 H1115 H 0.59237 1.06054 0.47234
 H1116 H 0.60562 0.90465 0.46217
 C1117 C 0.90321 1.01094 0.55698
 C1118 C 0.91787 1.02163 0.53273
 C1119 C 0.90977 1.01162 0.50598
 C1120 C 0.88717 0.99142 0.50344
 C1121 C 0.87244 0.98102 0.52796
 C1122 C 0.88067 0.99088 0.55462
 C1123 C 0.84969 0.96102 0.52542
 C1124 C 0.84143 0.95107 0.49867
 C1125 C 0.85637 0.96144 0.47445
 C1126 C 0.87900 0.98144 0.47680
 H1127 H 0.92120 1.01949 0.48723
 H1128 H 0.86962 0.98315 0.57364
 H1129 H 0.83815 0.95355 0.54425
 H1130 H 0.89013 0.98907 0.45779
 H1131 H 0.90899 1.01843 0.57779
 H1132 H 0.85076 0.95382 0.45364
 C1133 C 0.41529 0.51489 0.06990
 C1134 C 0.43201 0.52294 0.04615
 C1135 C 0.42424 0.51276 0.01938
 C1136 C 0.40037 0.49425 0.01645
 C1137 C 0.38390 0.48598 0.04055
 C1138 C 0.39139 0.49663 0.06713
 C1139 C 0.36044 0.46691 0.03776
 C1140 C 0.35325 0.45574 0.01120
 C1141 C 0.36962 0.46437 -0.01268
 C1142 C 0.39293 0.48347 -0.01008
 H1143 H 0.43722 0.51870 0.00104
 H1144 H 0.37897 0.49059 0.08582
 H1145 H 0.34776 0.46080 0.05626
 H1146 H 0.40535 0.48952 -0.02877
 H1147 H 0.42088 0.52270 0.09064
 H1148 H 0.36476 0.45583 -0.03331
 C1149 C 0.46136 0.47046 0.41160
 C1150 C 0.47467 0.45977 0.43652
 C1151 C 0.50427 0.45513 0.43655
 C1152 C 0.52042 0.46122 0.41200
 C1153 C 0.50685 0.47232 0.38714
 C1154 C 0.47730 0.47674 0.38713
 C1155 C 0.52304 0.47885 0.36273
 C1156 C 0.55264 0.47422 0.36271
 C1157 C 0.56589 0.46290 0.38743
 C1158 C 0.54994 0.45655 0.41190
 H1159 H 0.51468 0.44713 0.45579
 H1160 H 0.46652 0.48511 0.36825
 H1161 H 0.51259 0.48722 0.34364
 H1162 H 0.56070 0.44807 0.43075
 H1163 H 0.43855 0.47399 0.41115
 H1164 H 0.58871 0.45939 0.38794
 C1165 C 0.01649 -0.02294 0.94360
 C1166 C -0.01288 -0.01797 0.93993
 C1167 C -0.02340 -0.01109 0.91262
 C1168 C -0.00494 -0.00974 0.88921
 C1169 C 0.02444 -0.01555 0.89309
 C1170 C 0.03496 -0.02187 0.92040
 C1171 C 0.04277 -0.01499 0.86958
 C1172 C 0.03220 -0.00823 0.84229
 C1173 C 0.00308 -0.00204 0.83871
 C1174 C -0.01538 -0.00296 0.86194
 H1175 H -0.04603 -0.00741 0.90957
 H1176 H 0.05744 -0.02615 0.92380
 H1177 H 0.06529 -0.01942 0.87251
 H1178 H -0.03781 0.00159 0.85858
 H1179 H 0.02507 -0.02796 0.96451
 H1180 H -0.00545 0.00310 0.81780
 C1181 C -0.04102 0.06082 0.58046
 C1182 C -0.04001 0.04015 0.55914
 C1183 C -0.02029 0.01725 0.56098
 C1184 C -0.00148 0.01501 0.58411
 C1185 C -0.00308 0.03550 0.60596
 C1186 C -0.02288 0.05837 0.60390
 C1187 C 0.01510 0.03276 0.62949
 C1188 C 0.03531 0.01024 0.63119
 C1189 C 0.03736 -0.00951 0.60907
 C1190 C 0.01892 -0.00731 0.58579
 H1191 H -0.01947 0.00155 0.54422
 H1192 H -0.02426 0.07435 0.62036
 H1193 H 0.01369 0.04820 0.64646
 H1194 H 0.02056 -0.02307 0.56916
 H1195 H -0.05620 0.07857 0.57902
 H1196 H 0.05279 -0.02705 0.61017
 C1197 C 0.48451 0.50491 0.07908
 C1198 C 0.47664 0.53405 0.07272
 C1199 C 0.48739 0.55670 0.08935
 C1200 C 0.50565 0.55027 0.11228
 C1201 C 0.51345 0.52085 0.11849
 C1202 C 0.50283 0.49835 0.10171
 C1203 C 0.53172 0.51439 0.14137
 C1204 C 0.54219 0.53689 0.15842
 C1205 C 0.53419 0.56606 0.15210
 C1206 C 0.51614 0.57270 0.12921
 H1207 H 0.48119 0.57918 0.08457
 H1208 H 0.50862 0.47568 0.10614
 H1209 H 0.53805 0.49186 0.14566
 H1210 H 0.51028 0.59535 0.12484
 H1211 H 0.47652 0.48726 0.06632
 H1212 H 0.54163 0.58377 0.16508
 C1213 C 0.49205 -0.03911 0.05283
 C1214 C 0.52135 -0.03740 0.05904
 C1215 C 0.53010 -0.02967 0.08635
 C1216 C 0.50980 -0.02422 0.10734
 C1217 C 0.48037 -0.02654 0.10098
 C1218 C 0.47173 -0.03375 0.07359
 C1219 C 0.46008 -0.02190 0.12217
 C1220 C 0.46876 -0.01486 0.14969
 C1221 C 0.49807 -0.01219 0.15567
 C1222 C 0.51841 -0.01687 0.13471
 H1223 H 0.55266 -0.02854 0.09132
 H1224 H 0.44928 -0.03550 0.06830
 H1225 H 0.43753 -0.02365 0.11724
 H1226 H 0.54086 -0.01501 0.13997
 H1227 H 0.48494 -0.04485 0.03184
 H1228 H 0.50529 -0.00705 0.17678
 C1229 C 0.97470 0.46928 0.55729
 C1230 C 1.00433 0.47313 0.56050
 C1231 C 1.01537 0.47933 0.58744
 C1232 C 0.99711 0.48239 0.61066
 C1233 C 0.96735 0.47863 0.60716
 C1234 C 0.95639 0.47187 0.58043
 C1235 C 0.94907 0.48209 0.63036
 C1236 C 0.96013 0.48964 0.65694
 C1237 C 0.98977 0.49325 0.66013
 C1238 C 1.00811 0.48953 0.63724
 H1239 H 1.03820 0.48205 0.59021
 H1240 H 0.93362 0.46898 0.57733
 H1241 H 0.92621 0.47956 0.62758
 H1242 H 1.03088 0.49245 0.64029
 H1243 H 0.96571 0.46473 0.53672
 H1244 H 0.99880 0.49873 0.68046
 C1245 C 1.04722 0.53454 0.90865
 C1246 C 1.03434 0.54002 0.93484
 C1247 C 1.00446 0.54241 0.93613
 C1248 C 0.98769 0.53914 0.91170
 C1249 C 1.00091 0.53320 0.88561
 C1250 C 1.03069 0.53108 0.88430
 C1251 C 0.98414 0.52936 0.86129
 C1252 C 0.95426 0.53153 0.86260
 C1253 C 0.94137 0.53783 0.88857
 C1254 C 0.95791 0.54152 0.91291
 H1255 H 0.99429 0.54644 0.95624
 H1256 H 1.04120 0.52670 0.86446
 H1257 H 0.99435 0.52489 0.84130
 H1258 H 0.94740 0.54607 0.93272
 H1259 H 1.07020 0.53295 0.90705
 H1260 H 0.91838 0.53935 0.89016
 C1261 C 0.48859 0.03916 0.44361
 C1262 C 0.51791 0.03622 0.43824
 C1263 C 0.52677 0.02749 0.41136
 C1264 C 0.50666 0.02202 0.39004
 C1265 C 0.47727 0.02558 0.39555
 C1266 C 0.46845 0.03397 0.42246
 C1267 C 0.45720 0.02093 0.37400
 C1268 C 0.46609 0.01260 0.34700
 C1269 C 0.49532 0.00860 0.34191
 C1270 C 0.51544 0.01335 0.36321
 H1271 H 0.54935 0.02540 0.40698
 H1272 H 0.44600 0.03665 0.42710
 H1273 H 0.43467 0.02374 0.37822
 H1274 H 0.53788 0.01048 0.35863
 H1275 H 0.48131 0.04559 0.46426
 H1276 H 0.50267 0.00246 0.32119
   
