data_POSCAR
  _audit_creation_date              2014-09-24
  _audit_creation_method            'ToBaCCo'
  _symmetry_space_group_name_H-M    'P1'
  _symmetry_Int_Tables_number       1
  _symmetry_cell_setting            triclinic
  loop_
  _symmetry_equiv_pos_as_xyz
 x,y,z
_cell_length_a 62.9419
_cell_length_b 61.7856
_cell_length_c 60.9571
_cell_angle_alpha 90.150300
_cell_angle_beta 90.195700
_cell_angle_gamma 90.257600
loop_
  _atom_site_label
  _atom_site_type_symbol
  _atom_site_fract_x
  _atom_site_fract_y
  _atom_site_fract_z
C1 C 0.31380 0.45884 0.92944
 C2 C 0.30509 0.46662 0.90985
 C3 C 0.29210 0.45323 0.89676
 C4 C 0.28541 0.43307 0.90488
 C5 C 0.29304 0.42554 0.92510
 C6 C 0.30779 0.43818 0.93711
 C7 C 0.32987 0.47051 0.94032
 C8 C 0.34079 0.46128 0.95813
 C9 C 0.33403 0.44108 0.96626
 C10 C 0.31736 0.42970 0.95615
 C11 C 0.31113 0.40932 0.96389
 C12 C 0.29641 0.39671 0.95206
 C13 C 0.28732 0.40495 0.93276
 H14 H 0.30984 0.48240 0.90379
 H15 H 0.27516 0.42283 0.89495
 H16 H 0.33536 0.48573 0.93349
 H17 H 0.34232 0.43389 0.98006
 H18 H 0.31831 0.40282 0.97866
 H19 H 0.27627 0.39501 0.92342
 C20 C 0.45082 0.82134 0.43336
 C21 C 0.45765 0.84201 0.44019
 C22 C 0.44815 0.85240 0.45839
 C23 C 0.43291 0.84072 0.47055
 C24 C 0.42516 0.82072 0.46324
 C25 C 0.43412 0.81092 0.44461
 C26 C 0.45984 0.81122 0.41498
 C27 C 0.45247 0.79082 0.40790
 C28 C 0.43531 0.78098 0.41868
 C29 C 0.42599 0.79095 0.43690
 C30 C 0.40820 0.78168 0.44709
 C31 C 0.39884 0.79180 0.46529
 C32 C 0.40781 0.81095 0.47368
 H33 H 0.46954 0.85036 0.43055
 H34 H 0.42657 0.84745 0.48560
 H35 H 0.47255 0.81917 0.40608
 H36 H 0.42924 0.76556 0.41281
 H37 H 0.40113 0.76704 0.44040
 H38 H 0.40050 0.81882 0.48765
 C39 C 0.95855 0.93304 0.82483
 C40 C 0.96818 0.91525 0.81456
 C41 C 0.96092 0.90811 0.79388
 C42 C 0.94679 0.92118 0.78197
 C43 C 0.93680 0.93870 0.79214
 C44 C 0.94210 0.94416 0.81396
 C45 C 0.96355 0.93835 0.84661
 C46 C 0.95164 0.95391 0.85821
 C47 C 0.93526 0.96493 0.84708
 C48 C 0.93004 0.95974 0.82531
 C49 C 0.91182 0.96842 0.81536
 C50 C 0.90591 0.96200 0.79405
 C51 C 0.91967 0.94886 0.78184
 H52 H 0.97946 0.90555 0.82370
 H53 H 0.94181 0.91618 0.76566
 H54 H 0.97580 0.92924 0.85503
 H55 H 0.92634 0.97743 0.85546
 H56 H 0.90145 0.97891 0.82472
 H57 H 0.91538 0.94436 0.76519
 C58 C 0.45894 -0.07312 0.32514
 C59 C 0.46783 -0.09299 0.31907
 C60 C 0.45921 -0.10505 0.30156
 C61 C 0.44260 -0.09626 0.28901
 C62 C 0.43413 -0.07594 0.29430
 C63 C 0.44243 -0.06425 0.31238
 C64 C 0.46516 -0.06281 0.34468
 C65 C 0.45544 -0.04342 0.35135
 C66 C 0.44087 -0.03338 0.33716
 C67 C 0.43350 -0.04418 0.31836
 C68 C 0.41615 -0.03613 0.30655
 C69 C 0.40725 -0.04822 0.28933
 C70 C 0.41653 -0.06781 0.28286
 H71 H 0.48070 -0.09973 0.32872
 H72 H 0.43578 -0.10563 0.27564
 H73 H 0.47674 -0.07048 0.35528
 H74 H 0.43401 -0.01795 0.34172
 H75 H 0.40853 -0.02125 0.31173
 H76 H 0.40928 -0.07721 0.26975
 C77 C 0.82994 0.29265 0.31653
 C78 C 0.82355 0.28510 0.33719
 C79 C 0.80484 0.29286 0.34688
 C80 C 0.79298 0.30894 0.33628
 C81 C 0.79912 0.31662 0.31562
 C82 C 0.81733 0.30800 0.30541
 C83 C 0.84912 0.28580 0.30715
 C84 C 0.85563 0.29387 0.28670
 C85 C 0.84210 0.30763 0.27489
 C86 C 0.82333 0.31531 0.28442
 C87 C 0.81124 0.33124 0.27391
 C88 C 0.79378 0.34079 0.28450
 C89 C 0.78778 0.33328 0.30535
 H90 H 0.83302 0.27318 0.34578
 H91 H 0.77885 0.31529 0.34408
 H92 H 0.85945 0.27495 0.31615
 H93 H 0.84705 0.31361 0.25898
 H94 H 0.81606 0.33706 0.25791
 H95 H 0.77472 0.34093 0.31390
 C96 C -0.20050 0.82553 0.82451
 C97 C -0.20953 0.84436 0.81576
 C98 C -0.19935 0.85574 0.79876
 C99 C -0.17976 0.84811 0.79081
 C100 C -0.17096 0.82890 0.79885
 C101 C -0.18129 0.81758 0.81584
 C102 C -0.21010 0.81482 0.84216
 C103 C -0.20077 0.79628 0.85127
 C104 C -0.18192 0.78811 0.84226
 C105 C -0.17219 0.79856 0.82449
 C106 C -0.15329 0.79057 0.81546
 C107 C -0.14331 0.80148 0.79809
 C108 C -0.15193 0.82088 0.79022
 H109 H -0.22408 0.85064 0.82274
 H110 H -0.17169 0.85682 0.77781
 H111 H -0.22460 0.82115 0.84921
 H112 H -0.17460 0.77394 0.84948
 H113 H -0.14632 0.77586 0.82188
 H114 H -0.14383 0.82961 0.77727
 C115 C 0.92563 0.32600 0.45607
 C116 C 0.93094 0.34715 0.46249
 C117 C 0.94740 0.35858 0.45193
 C118 C 0.95935 0.34803 0.43565
 C119 C 0.95390 0.32709 0.42869
 C120 C 0.93712 0.31591 0.43907
 C121 C 0.90820 0.31526 0.46543
 C122 C 0.90208 0.29463 0.45792
 C123 C 0.91374 0.28453 0.44124
 C124 C 0.93110 0.29510 0.43164
 C125 C 0.94141 0.28596 0.41354
 C126 C 0.95686 0.29784 0.40214
 C127 C 0.96377 0.31790 0.41032
 H128 H 0.92204 0.35492 0.47550
 H129 H 0.97189 0.35673 0.42721
 H130 H 0.89883 0.32325 0.47793
 H131 H 0.90869 0.26881 0.43516
 H132 H 0.93614 0.27046 0.40707
 H133 H 0.97567 0.32702 0.40139
 C134 C 0.41999 0.45937 0.81550
 C135 C 0.42791 0.46987 0.83428
 C136 C 0.44649 0.46250 0.84460
 C137 C 0.45749 0.44484 0.83568
 C138 C 0.44980 0.43420 0.81691
 C139 C 0.43083 0.44128 0.80690
 C140 C 0.40082 0.46592 0.80590
 C141 C 0.39221 0.45440 0.78812
 C142 C 0.40293 0.43641 0.77957
 C143 C 0.42218 0.42965 0.78894
 C144 C 0.43219 0.41069 0.78164
 C145 C 0.45070 0.40328 0.79207
 C146 C 0.45999 0.41569 0.80893
 H147 H 0.41931 0.48337 0.84131
 H148 H 0.47154 0.43883 0.84396
 H149 H 0.39212 0.47945 0.81274
 H150 H 0.39584 0.42728 0.76619
 H151 H 0.42503 0.40109 0.76865
 H152 H 0.47433 0.40995 0.81688
 C153 C 0.82118 0.92688 0.96267
 C154 C 0.81093 0.90811 0.97027
 C155 C 0.79336 0.89916 0.95891
 C156 C 0.78690 0.90896 0.93910
 C157 C 0.79714 0.92754 0.93119
 C158 C 0.81419 0.93672 0.94314
 C159 C 0.83854 0.93574 0.97413
 C160 C 0.84873 0.95478 0.96676
 C161 C 0.84162 0.96437 0.94711
 C162 C 0.82458 0.95542 0.93523
 C163 C 0.81820 0.96446 0.91517
 C164 C 0.80157 0.95502 0.90306
 C165 C 0.79086 0.93686 0.91127
 H166 H 0.81704 0.90012 0.98478
 H167 H 0.77349 0.90243 0.93000
 H168 H 0.84387 0.92805 0.98914
 H169 H 0.85002 0.97824 0.94048
 H170 H 0.82644 0.97847 0.90866
 H171 H 0.77808 0.92962 0.90174
 C172 C 0.33194 0.82145 0.29273
 C173 C 0.32425 0.84016 0.28263
 C174 C 0.30880 0.85322 0.29287
 C175 C 0.29905 0.84524 0.31216
 C176 C 0.30566 0.82569 0.32173
 C177 C 0.32256 0.81406 0.31227
 C178 C 0.34954 0.81056 0.28408
 C179 C 0.35808 0.79259 0.29497
 C180 C 0.34824 0.78478 0.31400
 C181 C 0.33039 0.79527 0.32259
 C182 C 0.32065 0.78764 0.34167
 C183 C 0.30334 0.79865 0.35078
 C184 C 0.29617 0.81792 0.34104
 H185 H 0.33075 0.84478 0.26688
 H186 H 0.28704 0.85468 0.32049
 H187 H 0.35725 0.81661 0.26942
 H188 H 0.35495 0.77099 0.32248
 H189 H 0.32649 0.77308 0.34952
 H190 H 0.28323 0.82676 0.34853
 C191 C 0.81955 0.43202 0.45255
 C192 C 0.81414 0.41183 0.46144
 C193 C 0.79791 0.39932 0.45190
 C194 C 0.78772 0.40649 0.43274
 C195 C 0.79300 0.42658 0.42363
 C196 C 0.80837 0.43976 0.43409
 C197 C 0.83680 0.44397 0.46090
 C198 C 0.84284 0.46379 0.45117
 C199 C 0.82941 0.47273 0.43506
 C200 C 0.81324 0.46031 0.42550
 C201 C 0.80347 0.46718 0.40609
 C202 C 0.79028 0.45298 0.39425
 C203 C 0.78415 0.43319 0.40359
 H204 H 0.82245 0.40583 0.47579
 H205 H 0.77577 0.39633 0.42497
 H206 H 0.84648 0.43686 0.47370
 H207 H 0.83273 0.48872 0.42860
 H208 H 0.80794 0.48257 0.39888
 H209 H 0.77359 0.42242 0.39460
 C210 C 0.95225 0.81817 -0.06298
 C211 C 0.96020 0.83661 -0.05213
 C212 C 0.95261 0.84233 -0.03122
 C213 C 0.93873 0.82813 -0.02033
 C214 C 0.92927 0.81087 -0.03167
 C215 C 0.93609 0.80575 -0.05308
 C216 C 0.95893 0.81303 -0.08426
 C217 C 0.94909 0.79620 -0.09631
 C218 C 0.93285 0.78399 -0.08627
 C219 C 0.92582 0.78913 -0.06506
 C220 C 0.90744 0.77941 -0.05643
 C221 C 0.89955 0.78608 -0.03600
 C222 C 0.91140 0.80047 -0.02298
 H223 H 0.97128 0.84721 -0.06049
 H224 H 0.93347 0.83200 -0.00386
 H225 H 0.97171 0.82234 -0.09159
 H226 H 0.92468 0.77143 -0.09552
 H227 H 0.89830 0.76809 -0.06632
 H228 H 0.90518 0.80550 -0.00720
 C229 C 0.32516 0.32239 0.78701
 C230 C 0.31460 0.33982 0.77727
 C231 C 0.29716 0.34957 0.78764
 C232 C 0.29027 0.34151 0.80804
 C233 C 0.30013 0.32344 0.81756
 C234 C 0.31782 0.31402 0.80713
 C235 C 0.34315 0.31341 0.77709
 C236 C 0.35394 0.29622 0.78708
 C237 C 0.34650 0.28777 0.80699
 C238 C 0.32836 0.29637 0.81693
 C239 C 0.32065 0.28767 0.83657
 C240 C 0.30257 0.29639 0.84658
 C241 C 0.29268 0.31461 0.83734
 H242 H 0.32011 0.34602 0.76165
 H243 H 0.27723 0.34931 0.81646
 H244 H 0.34902 0.31998 0.76178
 H245 H 0.35506 0.27468 0.81483
 H246 H 0.32849 0.27387 0.84394
 H247 H 0.27899 0.32162 0.84540
 C248 C 0.17072 0.54283 0.56335
 C249 C 0.15162 0.53488 0.55457
 C250 C 0.14204 0.54514 0.53660
 C251 C 0.15177 0.56338 0.52722
 C252 C 0.17082 0.57161 0.53588
 C253 C 0.18038 0.56132 0.55403
 C254 C 0.17952 0.53348 0.58220
 C255 C 0.19760 0.54262 0.59203
 C256 C 0.20761 0.56058 0.58242
 C257 C 0.19899 0.57014 0.56356
 C258 C 0.20785 0.58916 0.55491
 C259 C 0.19831 0.59949 0.53692
 C260 C 0.17989 0.59059 0.52741
 H261 H 0.14374 0.52119 0.56217
 H262 H 0.14411 0.57148 0.51358
 H263 H 0.17161 0.51995 0.59004
 H264 H 0.22129 0.56784 0.59046
 H265 H 0.22176 0.59637 0.56257
 H266 H 0.17238 0.59879 0.51375
 C267 C 0.57034 0.70961 0.07053
 C268 C 0.58833 0.71809 0.06003
 C269 C 0.59508 0.70940 0.03995
 C270 C 0.58238 0.69397 0.02911
 C271 C 0.56484 0.68478 0.03975
 C272 C 0.55903 0.69230 0.06077
 C273 C 0.56465 0.71685 0.09150
 C274 C 0.54915 0.70575 0.10371
 C275 C 0.53794 0.68848 0.09392
 C276 C 0.54272 0.68174 0.07251
 C277 C 0.53242 0.66372 0.06318
 C278 C 0.53828 0.65617 0.04231
 C279 C 0.55426 0.66692 0.03057
 H280 H 0.59809 0.73014 0.06828
 H281 H 0.58757 0.68748 0.01348
 H282 H 0.57312 0.73035 0.09888
 H283 H 0.52600 0.67986 0.10328
 H284 H 0.52042 0.65504 0.07241
 H285 H 0.55906 0.66071 0.01469
 C286 C 0.70651 0.18018 0.67873
 C287 C 0.71421 0.18905 0.65912
 C288 C 0.70379 0.20655 0.64916
 C289 C 0.68520 0.21483 0.65860
 C290 C 0.67721 0.20605 0.67811
 C291 C 0.68801 0.18877 0.68833
 C292 C 0.71674 0.16252 0.68856
 C293 C 0.70914 0.15351 0.70832
 C294 C 0.69060 0.16238 0.71772
 C295 C 0.67999 0.17974 0.70786
 C296 C 0.66114 0.18785 0.71692
 C297 C 0.65016 0.20465 0.70651
 C298 C 0.65832 0.21387 0.68728
 H299 H 0.72828 0.18237 0.65149
 H300 H 0.67697 0.22807 0.65066
 H301 H 0.73015 0.15525 0.68027
 H302 H 0.68447 0.15592 0.73297
 H303 H 0.65459 0.18066 0.73164
 H304 H 0.64961 0.22671 0.67921
 C305 C 1.07791 0.04134 0.18882
 C306 C 1.09726 0.03359 0.19697
 C307 C 1.10874 0.04543 0.21279
 C308 C 1.09966 0.06396 0.22222
 C309 C 1.07983 0.07149 0.21482
 C310 C 1.06910 0.06033 0.19778
 C311 C 1.06798 0.03113 0.17094
 C312 C 1.04911 0.03946 0.16180
 C313 C 1.04023 0.05824 0.17116
 C314 C 1.05005 0.06867 0.18902
 C315 C 1.04168 0.08792 0.19753
 C316 C 1.05206 0.09893 0.21470
 C317 C 1.07116 0.09069 0.22323
 H318 H 1.10432 0.01927 0.18975
 H319 H 1.10854 0.07311 0.23440
 H320 H 1.07504 0.01667 0.16402
 H321 H 1.02627 0.06549 0.16378
 H322 H 1.02734 0.09469 0.19050
 H323 H 1.07945 0.09951 0.23608
 C324 C 0.04873 0.17627 1.07178
 C325 C 0.03982 0.15658 1.06472
 C326 C 0.04760 0.14614 1.04583
 C327 C 0.06208 0.15725 1.03232
 C328 C 0.07125 0.17680 1.03926
 C329 C 0.06503 0.18605 1.05937
 C330 C 0.04297 0.18532 1.09200
 C331 C 0.05365 0.20365 1.10018
 C332 C 0.06972 0.21343 1.08769
 C333 C 0.07593 0.20436 1.06765
 C334 C 0.09400 0.21209 1.05671
 C335 C 0.10087 0.20214 1.03724
 C336 C 0.08814 0.18594 1.02757
 H337 H 0.02836 0.14841 1.07510
 H338 H 0.06741 0.14979 1.01719
 H339 H 0.03086 0.17757 1.10190
 H340 H 0.07807 0.22746 1.09418
 H341 H 0.10346 0.22490 1.06408
 H342 H 0.09290 0.17881 1.01208
 C343 C 0.17827 0.68341 0.71198
 C344 C 0.16329 0.69508 0.72407
 C345 C 0.15327 0.71326 0.71498
 C346 C 0.15952 0.72064 0.69416
 C347 C 0.17510 0.70959 0.68219
 C348 C 0.18403 0.69050 0.69083
 C349 C 0.18635 0.66390 0.72006
 C350 C 0.19898 0.65066 0.70670
 C351 C 0.20538 0.65811 0.68599
 C352 C 0.19804 0.67801 0.67798
 C353 C 0.20354 0.68508 0.65689
 C354 C 0.19499 0.70428 0.64837
 C355 C 0.18101 0.71661 0.66121
 H356 H 0.15839 0.68926 0.74005
 H357 H 0.15148 0.73433 0.68683
 H358 H 0.18163 0.65819 0.73613
 H359 H 0.21529 0.64794 0.67576
 H360 H 0.21412 0.67544 0.64686
 H361 H 0.17438 0.73140 0.65459
 C362 C 1.20434 0.17509 0.17445
 C363 C 1.21504 0.15729 0.18340
 C364 C 1.20932 0.14895 0.20407
 C365 C 1.19218 0.15842 0.21534
 C366 C 1.18137 0.17619 0.20660
 C367 C 1.18742 0.18459 0.18606
 C368 C 1.21036 0.18360 0.15410
 C369 C 1.20016 0.20193 0.14551
 C370 C 1.18290 0.21096 0.15682
 C371 C 1.17645 0.20240 0.17707
 C372 C 1.15934 0.21140 0.18860
 C373 C 1.15353 0.20331 0.20931
 C374 C 1.16459 0.18568 0.21813
 H375 H 1.22750 0.14957 0.17399
 H376 H 1.18756 0.15227 0.23129
 H377 H 1.22334 0.17633 0.14510
 H378 H 1.17483 0.22491 0.15004
 H379 H 1.15047 0.22467 0.18149
 H380 H 1.16001 0.17930 0.23399
 C381 C 0.67819 1.07011 0.54237
 C382 C 0.66007 1.06002 0.53365
 C383 C 0.65111 1.04186 0.54397
 C384 C 0.66072 1.03351 0.56297
 C385 C 0.67919 1.04313 0.57160
 C386 C 0.68793 1.06157 0.56129
 C387 C 0.68599 1.08933 0.53320
 C388 C 0.70284 1.10076 0.54323
 C389 C 0.71350 1.09122 0.56109
 C390 C 0.70594 1.07194 0.57037
 C391 C 0.71538 1.06357 0.58936
 C392 C 0.70676 1.04528 0.59970
 C393 C 0.68857 1.03522 0.59086
 H394 H 0.65238 1.06673 0.51925
 H395 H 0.65347 1.01988 0.57130
 H396 H 0.67837 1.09590 0.51870
 H397 H 0.72666 1.09964 0.56891
 H398 H 0.72914 1.07157 0.59648
 H399 H 0.68158 1.02147 0.59923
 C400 C 0.53779 0.56495 0.18512
 C401 C 0.52865 0.55848 0.16515
 C402 C 0.53771 0.54171 0.15281
 C403 C 0.55650 0.53185 0.16016
 C404 C 0.56576 0.53804 0.18020
 C405 C 0.55606 0.55430 0.19300
 C406 C 0.52956 0.58258 0.19679
 C407 C 0.53877 0.58920 0.21677
 C408 C 0.55618 0.57764 0.22519
 C409 C 0.56520 0.56064 0.21318
 C410 C 0.58415 0.55104 0.22021
 C411 C 0.59477 0.53623 0.20665
 C412 C 0.58515 0.52915 0.18709
 H413 H 0.51452 0.56652 0.15910
 H414 H 0.56396 0.51954 0.15013
 H415 H 0.51654 0.59176 0.18984
 H416 H 0.56348 0.58274 0.24050
 H417 H 0.59166 0.55642 0.23533
 H418 H 0.59335 0.51763 0.17671
 C419 C 0.68248 0.70621 0.18749
 C420 C 0.66463 0.71357 0.19900
 C421 C 0.65651 0.70156 0.21662
 C422 C 0.66702 0.68285 0.22368
 C423 C 0.68474 0.67517 0.21225
 C424 C 0.69251 0.68684 0.19404
 C425 C 0.68915 0.71668 0.16828
 C426 C 0.70486 0.70736 0.15497
 C427 C 0.71553 0.68878 0.16215
 C428 C 0.70938 0.67837 0.18150
 C429 C 0.71842 0.65851 0.18732
 C430 C 0.70978 0.64625 0.20449
 C431 C 0.69349 0.65497 0.21740
 H432 H 0.65610 0.72770 0.19330
 H433 H 0.66033 0.67342 0.23697
 H434 H 0.68102 0.73110 0.16270
 H435 H 0.72762 0.68161 0.15182
 H436 H 0.73103 0.65170 0.17742
 H437 H 0.68678 0.64541 0.23058
 C438 C 0.17926 0.03872 1.06738
 C439 C 0.16029 0.02865 1.06074
 C440 C 0.14885 0.03612 1.04233
 C441 C 0.15657 0.05445 1.03098
 C442 C 0.17551 0.06476 1.03748
 C443 C 0.18702 0.05667 1.05559
 C444 C 0.18993 0.03186 1.08639
 C445 C 0.20788 0.04325 1.09423
 C446 C 0.21640 0.06003 1.08139
 C447 C 0.20582 0.06717 1.06257
 C448 C 0.21285 0.08574 1.05170
 C449 C 0.20097 0.09444 1.03444
 C450 C 0.18254 0.08377 1.02702
 H451 H 0.15453 0.01476 1.06982
 H452 H 0.14734 0.06125 1.01764
 H453 H 0.18326 0.01875 1.09600
 H454 H 0.23075 0.06830 1.08678
 H455 H 0.22677 0.09440 1.05764
 H456 H 0.17321 0.09085 1.01392
 C457 C 0.57768 0.18055 0.54195
 C458 C 0.59454 0.19054 0.53079
 C459 C 0.60222 0.21089 0.53764
 C460 C 0.59255 0.22142 0.55541
 C461 C 0.57645 0.21120 0.56731
 C462 C 0.56906 0.19061 0.56072
 C463 C 0.56978 0.16034 0.53517
 C464 C 0.55333 0.15020 0.54686
 C465 C 0.54565 0.15973 0.56620
 C466 C 0.55355 0.17980 0.57332
 C467 C 0.54675 0.18893 0.59318
 C468 C 0.55485 0.20902 0.60026
 C469 C 0.56861 0.22065 0.58651
 H470 H 0.60222 0.18217 0.51735
 H471 H 0.59858 0.23702 0.56081
 H472 H 0.57625 0.15252 0.52074
 H473 H 0.53344 0.15152 0.57558
 H474 H 0.53571 0.18011 0.60348
 H475 H 0.57429 0.23649 0.59158
 C476 C 0.06827 0.54875 0.67592
 C477 C 0.08566 0.53766 0.68486
 C478 C 0.09629 0.54576 0.70348
 C479 C 0.08940 0.56511 0.71320
 C480 C 0.07184 0.57618 0.70469
 C481 C 0.06132 0.56812 0.68585
 C482 C 0.05796 0.54099 0.65703
 C483 C 0.04086 0.55238 0.64779
 C484 C 0.03411 0.57178 0.65762
 C485 C 0.04409 0.57961 0.67672
 C486 C 0.03731 0.59886 0.68675
 C487 C 0.04738 0.60658 0.70588
 C488 C 0.06479 0.59534 0.71457
 H489 H 0.09117 0.52286 0.67720
 H490 H 0.09792 0.57163 0.72724
 H491 H 0.06332 0.52616 0.64932
 H492 H 0.02119 0.58079 0.65026
 H493 H 0.02420 0.60786 0.67976
 H494 H 0.07276 0.60151 0.72911
 C495 C 0.67279 0.56809 0.03411
 C496 C 0.65271 0.56154 0.02632
 C497 C 0.64340 0.54223 0.03384
 C498 C 0.65492 0.52860 0.04785
 C499 C 0.67461 0.53520 0.05632
 C500 C 0.68360 0.55506 0.04952
 C501 C 0.68137 0.58833 0.02833
 C502 C 0.70035 0.59576 0.03803
 C503 C 0.71122 0.58252 0.05296
 C504 C 0.70261 0.56258 0.05934
 C505 C 0.71146 0.55119 0.07700
 C506 C 0.70150 0.53243 0.08489
 C507 C 0.68416 0.52356 0.07339
 H508 H 0.64372 0.57206 0.01556
 H509 H 0.64756 0.51381 0.05372
 H510 H 0.67279 0.59879 0.01716
 H511 H 0.72566 0.58849 0.06068
 H512 H 0.72494 0.55791 0.08584
 H513 H 0.67660 0.50898 0.07953
 C514 C 0.04518 0.68504 0.57201
 C515 C 0.04018 0.69338 0.59275
 C516 C 0.05184 0.71076 0.60166
 C517 C 0.06818 0.72031 0.58931
 C518 C 0.07368 0.71184 0.56875
 C519 C 0.06210 0.69420 0.56000
 C520 C 0.03406 0.66722 0.56340
 C521 C 0.03979 0.65830 0.54305
 C522 C 0.05674 0.66734 0.53127
 C523 C 0.06783 0.68529 0.53953
 C524 C 0.08508 0.69394 0.52802
 C525 C 0.09685 0.71125 0.53679
 C526 C 0.09107 0.72016 0.55715
 H527 H 0.02751 0.68606 0.60225
 H528 H 0.07698 0.73393 0.59607
 H529 H 0.02121 0.65996 0.57267
 H530 H 0.06158 0.66003 0.51590
 H531 H 0.08972 0.68691 0.51245
 H532 H 0.10055 0.73314 0.56421
 C533 C 0.54990 1.07231 0.68282
 C534 C 0.54143 1.06211 0.66415
 C535 C 0.55090 1.04334 0.65538
 C536 C 0.56972 1.03555 0.66512
 C537 C 0.57828 1.04551 0.68387
 C538 C 0.56813 1.06373 0.69300
 C539 C 0.54082 1.09136 0.69106
 C540 C 0.54905 1.10133 0.71007
 C541 C 0.56684 1.09226 0.72051
 C542 C 0.57669 1.07386 0.71186
 C543 C 0.59558 1.06609 0.72110
 C544 C 0.60611 1.04856 0.71149
 C545 C 0.59725 1.03802 0.69322
 H546 H 0.52774 1.06915 0.65606
 H547 H 0.57745 1.02135 0.65844
 H548 H 0.52753 1.09865 0.68251
 H549 H 0.57343 1.09998 0.73503
 H550 H 0.60276 1.07434 0.73501
 H551 H 0.60568 1.02463 0.68575
 C552 C 0.42480 0.32001 0.96000
 C553 C 0.43037 0.34088 0.96705
 C554 C 0.44430 0.35407 0.95471
 C555 C 0.45419 0.34482 0.93611
 C556 C 0.44955 0.32352 0.92946
 C557 C 0.43481 0.31107 0.94147
 C558 C 0.40838 0.30848 0.97035
 C559 C 0.40217 0.28794 0.96261
 C560 C 0.41336 0.27846 0.94521
 C561 C 0.42933 0.29001 0.93436
 C562 C 0.43865 0.28148 0.91544
 C563 C 0.45245 0.29418 0.90285
 C564 C 0.45830 0.31496 0.91013
 H565 H 0.42356 0.34691 0.98217
 H566 H 0.46466 0.35451 0.92600
 H567 H 0.39951 0.31605 0.98350
 H568 H 0.40858 0.26263 0.93918
 H569 H 0.43404 0.26555 0.90956
 H570 H 0.46885 0.32476 0.90018
 C571 C 0.91886 0.45231 0.31751
 C572 C 0.92582 0.46341 0.33636
 C573 C 0.94553 0.45846 0.34618
 C574 C 0.95762 0.44132 0.33753
 C575 C 0.95048 0.42955 0.31922
 C576 C 0.93114 0.43518 0.30901
 C577 C 0.89989 0.45810 0.30688
 C578 C 0.89321 0.44709 0.28783
 C579 C 0.90505 0.42956 0.27997
 C580 C 0.92398 0.42353 0.29043
 C581 C 0.93582 0.40598 0.28264
 C582 C 0.95498 0.40021 0.29288
 C583 C 0.96226 0.41206 0.31112
 H584 H 0.91629 0.47649 0.34292
 H585 H 0.97234 0.43668 0.34552
 H586 H 0.89040 0.47131 0.31321
 H587 H 0.89962 0.42083 0.26553
 H588 H 0.93007 0.39660 0.26876
 H589 H 0.97700 0.40748 0.31906
 C590 C 0.32808 0.95618 0.42960
 C591 C 0.32107 0.96436 0.40948
 C592 C 0.30641 0.95268 0.39657
 C593 C 0.29664 0.93414 0.40543
 C594 C 0.30243 0.92659 0.42633
 C595 C 0.31865 0.93731 0.43821
 C596 C 0.34541 0.96570 0.44043
 C597 C 0.35353 0.95646 0.45969
 C598 C 0.34350 0.93830 0.46888
 C599 C 0.32604 0.92867 0.45826
 C600 C 0.31659 0.90987 0.46668
 C601 C 0.29980 0.89968 0.45541
 C602 C 0.29298 0.90795 0.43512
 H603 H 0.32804 0.97915 0.40317
 H604 H 0.28504 0.92520 0.39579
 H605 H 0.35350 0.97946 0.43316
 H606 H 0.35006 0.93099 0.48357
 H607 H 0.32246 0.90293 0.48185
 H608 H 0.28047 0.89967 0.42610
 O609 O 0.23825 0.55577 0.71919
 O610 O 0.27655 0.54935 0.71882
 O611 O 0.21404 0.49907 0.68762
 O612 O 0.21613 0.46282 0.69282
 O613 O 0.18622 0.52164 0.74799
 O614 O 0.19692 0.51914 0.78602
 O615 O 0.27278 0.44142 0.74151
 O616 O 0.26707 0.44980 0.70407
 O617 O 0.30115 0.49658 0.76910
 O618 O 0.29156 0.53706 0.76711
 O619 O 0.25224 0.46809 0.80033
 O620 O 0.21170 0.46928 0.79550
 O621 O 0.24918 0.43954 0.76962
 O622 O 0.21194 0.44561 0.77314
 O623 O 0.27435 0.49716 0.80055
 O624 O 0.27276 0.53459 0.79354
 O625 O 0.30006 0.47038 0.74281
 O626 O 0.29146 0.47571 0.70332
 O627 O 0.21484 0.55368 0.74747
 O628 O 0.21884 0.54438 0.78538
 O629 O 0.18616 0.49787 0.71940
 O630 O 0.19495 0.45948 0.72170
 O631 O 0.23768 0.52714 0.68768
 O632 O 0.27528 0.52656 0.69278
 Zr633 Zr 0.25278 0.52506 0.71839
 O634 O 0.27522 0.50619 0.73538
 Zr635 Zr 0.21709 0.48526 0.71912
 O636 O 0.23779 0.46477 0.73657
 Zr637 Zr 0.21798 0.52184 0.75924
 O638 O 0.23907 0.50330 0.77823
 Zr639 Zr 0.26939 0.47311 0.72946
 O640 O 0.24867 0.49212 0.71005
 Zr641 Zr 0.27055 0.51027 0.76915
 O642 O 0.24952 0.53101 0.75223
 Zr643 Zr 0.23501 0.47038 0.77054
 O644 O 0.21210 0.48879 0.75315
 O645 O 0.22135 0.51794 0.72564
 O646 O 0.26655 0.47721 0.76329
 C647 C 0.22363 0.56377 0.73146
 C648 C 0.22305 0.51556 0.67868
 C649 C 0.17707 0.51175 0.73191
 C650 C 0.26356 0.43128 0.75725
 C651 C 0.30935 0.48080 0.75835
 C652 C 0.26670 0.48003 0.80932
 H653 H 0.28973 0.51051 0.73107
 H654 H 0.23655 0.50633 0.79393
 H655 H 0.21141 0.52707 0.71725
 H656 H 0.23462 0.44954 0.73271
 H657 H 0.25947 0.45677 0.69173
 H658 H 0.22446 0.45001 0.69722
 H659 H 0.25917 0.53453 0.80165
 H660 H 0.23225 0.55268 0.78384
 H661 H 0.30125 0.48790 0.70644
 H662 H 0.27563 0.51195 0.68611
 H663 H 0.21557 0.48013 0.80680
 H664 H 0.19126 0.50418 0.78563
 H665 H 0.27561 0.55665 0.73325
 H666 H 0.30224 0.53391 0.75569
 H667 H 0.18699 0.46170 0.73551
 H668 H 0.20832 0.44116 0.75800
 O669 O 0.25884 0.05976 0.21945
 O670 O 0.29633 0.05153 0.21792
 O671 O 0.23186 0.00395 0.18743
 O672 O 0.23160 -0.03217 0.19250
 O673 O 0.20507 0.02863 0.24724
 O674 O 0.21486 0.02417 0.28516
 O675 O 0.28849 -0.05590 0.24022
 O676 O 0.28376 -0.04708 0.20337
 O677 O 0.31840 -0.00249 0.26955
 O678 O 0.31148 0.03790 0.26802
 O679 O 0.26793 -0.02850 0.30032
 O680 O 0.22868 -0.02778 0.29502
 O681 O 0.26710 -0.05636 0.27000
 O682 O 0.22765 -0.04994 0.27065
 O683 O 0.29162 -0.00076 0.30046
 O684 O 0.29070 0.03765 0.29286
 O685 O 0.31681 -0.02769 0.24230
 O686 O 0.30809 -0.02145 0.20255
 O687 O 0.23477 0.05831 0.24718
 O688 O 0.23869 0.04852 0.28538
 O689 O 0.20352 0.00363 0.21980
 O690 O 0.21163 -0.03528 0.22174
 O691 O 0.25710 0.03045 0.18713
 O692 O 0.29447 0.02895 0.19279
 Zr693 Zr 0.27163 0.02829 0.21812
 O694 O 0.29329 0.00874 0.23526
 Zr695 Zr 0.23424 -0.00998 0.21887
 O696 O 0.25445 -0.03135 0.23594
 Zr697 Zr 0.23661 0.02643 0.25890
 O698 O 0.25680 0.00682 0.27787
 Zr699 Zr 0.28626 -0.02396 0.22890
 O700 O 0.26606 -0.00436 0.20967
 Zr701 Zr 0.28854 0.01273 0.26908
 O702 O 0.26851 0.03430 0.25197
 Zr703 Zr 0.25178 -0.02597 0.26994
 O704 O 0.22953 -0.00636 0.25288
 O705 O 0.23985 0.02255 0.22525
 O706 O 0.28346 -0.02006 0.26276
 C707 C 0.24453 0.06832 0.23173
 C708 C 0.24161 0.01993 0.17833
 C709 C 0.19529 0.01874 0.23156
 C710 C 0.28097 -0.06515 0.25731
 C711 C 0.32620 -0.01816 0.25835
 C712 C 0.28297 -0.01734 0.30934
 H713 H 0.30798 0.01253 0.23106
 H714 H 0.25423 0.00983 0.29357
 H715 H 0.23040 0.03217 0.21675
 H716 H 0.25102 -0.04647 0.23187
 H717 H 0.27578 -0.04013 0.19128
 H718 H 0.24059 -0.04477 0.19608
 H719 H 0.27787 0.03670 0.30214
 H720 H 0.25215 0.05664 0.28350
 H721 H 0.31900 -0.01048 0.20634
 H722 H 0.29405 0.01449 0.18577
 H723 H 0.23044 -0.01484 0.30445
 H724 H 0.20800 0.00976 0.28392
 H725 H 0.29777 0.05673 0.23321
 H726 H 0.32163 0.03465 0.25611
 H727 H 0.20507 -0.03382 0.23641
 H728 H 0.22911 -0.05898 0.25733
 O729 O 0.56218 0.71340 0.26018
 O730 O 0.55345 0.71589 0.29875
 O731 O 0.50602 0.68650 0.23224
 O732 O 0.47258 0.69587 0.22494
 O733 O 0.53772 0.74474 0.20372
 O734 O 0.53702 0.78202 0.21390
 O735 O 0.44935 0.74553 0.28372
 O736 O 0.45568 0.70755 0.27953
 O737 O 0.50285 0.76835 0.31905
 O738 O 0.54022 0.76832 0.31415
 O739 O 0.48069 0.80097 0.26250
 O740 O 0.48522 0.79526 0.22289
 O741 O 0.45213 0.77278 0.25884
 O742 O 0.46297 0.77186 0.21929
 O743 O 0.50420 0.79942 0.29080
 O744 O 0.54380 0.79027 0.29021
 O745 O 0.47543 0.74455 0.31526
 O746 O 0.47767 0.70602 0.30727
 O747 O 0.56532 0.74173 0.23655
 O748 O 0.55859 0.78014 0.24018
 O749 O 0.51262 0.71826 0.20118
 O750 O 0.47355 0.72395 0.20648
 O751 O 0.53060 0.68505 0.25966
 O752 O 0.52859 0.69311 0.29788
 Zr753 Zr 0.53111 0.71649 0.27277
 O754 O 0.51164 0.73534 0.29319
 Zr755 Zr 0.49647 0.71917 0.23149
 O756 O 0.47531 0.73778 0.25035
 Zr757 Zr 0.53497 0.75599 0.23623
 O758 O 0.51536 0.77658 0.25489
 Zr759 Zr 0.47965 0.73130 0.28385
 O760 O 0.49893 0.71054 0.26490
 Zr761 Zr 0.51788 0.76838 0.28821
 O762 O 0.53948 0.74938 0.26980
 Zr763 Zr 0.48333 0.77069 0.24697
 O764 O 0.50314 0.75215 0.22619
 O765 O 0.52824 0.72316 0.23953
 O766 O 0.48585 0.76429 0.28043
 C767 C 0.57263 0.72490 0.24631
 C768 C 0.51936 0.67627 0.24441
 C769 C 0.52802 0.72954 0.19325
 C770 C 0.44175 0.76161 0.27296
 C771 C 0.48630 0.75843 0.32630
 C772 C 0.48970 0.80903 0.27961
 H773 H 0.51421 0.73124 0.30863
 H774 H 0.51939 0.79182 0.25229
 H775 H 0.53717 0.71359 0.23050
 H776 H 0.46056 0.73460 0.24569
 H777 H 0.46245 0.69489 0.27246
 H778 H 0.46129 0.69805 0.23595
 H779 H 0.54171 0.80157 0.27896
 H780 H 0.56471 0.77815 0.25502
 H781 H 0.48969 0.70753 0.31765
 H782 H 0.51412 0.68686 0.29669
 H783 H 0.49812 0.80398 0.22591
 H784 H 0.52319 0.78258 0.20615
 H785 H 0.56222 0.72918 0.29744
 H786 H 0.54238 0.75303 0.31827
 H787 H 0.47793 0.73698 0.19819
 H788 H 0.45280 0.75967 0.22039
 O789 O 0.06104 0.73127 0.75799
 O790 O 0.05017 0.73227 0.79512
 O791 O 0.00756 0.69858 0.72731
 O792 O -0.02678 0.70423 0.72202
 O793 O 0.03625 0.75538 0.69811
 O794 O 0.03196 0.79338 0.70506
 O795 O -0.05337 0.75685 0.77810
 O796 O -0.04645 0.71934 0.77428
 O797 O -0.00392 0.78537 0.81024
 O798 O 0.03549 0.78464 0.80632
 O799 O -0.02472 0.81254 0.75159
 O800 O -0.02086 0.80420 0.71315
 O801 O -0.05266 0.78190 0.75081
 O802 O -0.04164 0.77982 0.71114
 O803 O -0.00160 0.81373 0.78025
 O804 O 0.03731 0.80685 0.78255
 O805 O -0.02819 0.75805 0.80857
 O806 O -0.02304 0.71877 0.80176
 O807 O 0.06283 0.75755 0.73196
 O808 O 0.05300 0.79528 0.73146
 O809 O 0.01129 0.72867 0.69600
 O810 O -0.02786 0.73188 0.70083
 O811 O 0.03237 0.69987 0.75460
 O812 O 0.02659 0.70802 0.79328
 Zr813 Zr 0.02915 0.73127 0.76803
 O814 O 0.00856 0.75012 0.78733
 Zr815 Zr -0.00487 0.72997 0.72620
 O816 O -0.02733 0.74810 0.74394
 Zr817 Zr 0.03143 0.76906 0.72939
 O818 O 0.01043 0.78929 0.74666
 Zr819 Zr -0.02288 0.74363 0.77779
 O820 O -0.00244 0.72301 0.76000
 Zr821 Zr 0.01299 0.78313 0.78045
 O822 O 0.03574 0.76444 0.76333
 Zr823 Zr -0.02121 0.78116 0.73876
 O824 O -0.00003 0.76290 0.71917
 O825 O 0.02664 0.73619 0.73445
 O826 O -0.01858 0.77669 0.77251
 C827 C 0.07122 0.74267 0.74386
 C828 C 0.02218 0.69003 0.73914
 C829 C 0.02685 0.73968 0.68810
 C830 C -0.06194 0.77179 0.76657
 C831 C -0.01963 0.77450 0.81808
 C832 C -0.01612 0.82210 0.76811
 H833 H 0.01099 0.74701 0.80301
 H834 H 0.01375 0.80454 0.74313
 H835 H 0.03678 0.72708 0.72623
 H836 H -0.04190 0.74391 0.73948
 H837 H -0.03935 0.70651 0.76792
 H838 H -0.03923 0.70748 0.73128
 H839 H 0.03578 0.81664 0.76984
 H840 H 0.05773 0.79594 0.74693
 H841 H -0.01185 0.72199 0.81273
 H842 H 0.01316 0.70001 0.79063
 H843 H -0.00733 0.81232 0.71428
 H844 H 0.01876 0.79160 0.69634
 H845 H 0.05556 0.74732 0.79602
 H846 H 0.03306 0.77204 0.81598
 H847 H -0.02431 0.74476 0.69191
 H848 H -0.05012 0.76637 0.71221
 O849 O -0.03243 -0.06139 0.01602
 O850 O -0.02989 -0.05059 0.05341
 O851 O -0.06121 -0.00271 -0.01185
 O852 O -0.05233 0.03212 -0.01455
 O853 O -0.01029 -0.03529 -0.04482
 O854 O 0.02759 -0.03602 -0.03960
 O855 O 0.00545 0.05190 0.03843
 O856 O -0.03283 0.04835 0.03605
 O857 O 0.02790 -0.00348 0.06776
 O858 O 0.02369 -0.04244 0.06124
 O859 O 0.05493 0.01749 0.00744
 O860 O 0.04458 0.01753 -0.02973
 O861 O 0.02849 0.04937 0.00996
 O862 O 0.02173 0.03968 -0.03020
 O863 O 0.05479 -0.00613 0.03595
 O864 O 0.04420 -0.04491 0.03632
 O865 O 0.00346 0.02348 0.06899
 O866 O -0.03302 0.02581 0.06391
 O867 O -0.00979 -0.06404 -0.01263
 O868 O 0.02811 -0.05821 -0.01383
 O869 O -0.03361 -0.00726 -0.04445
 O870 O -0.02624 0.03159 -0.03774
 O871 O -0.06095 -0.02923 0.01398
 O872 O -0.05155 -0.02583 0.05259
 Zr873 Zr -0.02962 -0.02901 0.02656
 O874 O -0.00812 -0.01062 0.04552
 Zr875 Zr -0.02930 0.00732 -0.01345
 O876 O -0.00810 0.02759 0.00406
 Zr877 Zr 0.00503 -0.03345 -0.01410
 O878 O 0.02791 -0.01486 0.00283
 Zr879 Zr -0.01116 0.02233 0.03789
 O880 O -0.03457 0.00418 0.02063
 Zr881 Zr 0.02334 -0.01813 0.03683
 O882 O 0.00177 -0.03869 0.01985
 Zr883 Zr 0.02314 0.01825 -0.00318
 O884 O 0.00198 -0.00060 -0.02256
 O885 O -0.02622 -0.02560 -0.00707
 O886 O 0.02038 0.01492 0.03076
 C887 C -0.02385 -0.07206 0.00033
 C888 C -0.07036 -0.01760 -0.00059
 C889 C -0.02490 -0.02371 -0.05366
 C890 C 0.02045 0.05944 0.02640
 C891 C 0.01833 0.01208 0.07760
 C892 C 0.06421 0.00726 0.02306
 H893 H -0.01099 -0.01340 0.06120
 H894 H 0.04220 -0.01953 -0.00184
 H895 H -0.03643 -0.03476 -0.01532
 H896 H -0.01072 0.04293 0.00042
 H897 H -0.04654 0.04224 0.03087
 H898 H -0.04679 0.04441 -0.00581
 H899 H 0.05259 -0.04413 0.02266
 H900 H 0.02768 -0.06476 0.00097
 H901 H -0.03826 0.01115 0.06737
 H902 H -0.05980 -0.01249 0.04982
 H903 H 0.04751 0.00211 -0.03272
 H904 H 0.02616 -0.02288 -0.04874
 H905 H -0.01609 -0.05820 0.05316
 H906 H 0.01155 -0.03981 0.07114
 H907 H -0.01429 0.02736 -0.04733
 H908 H 0.01183 0.05151 -0.02646
 O909 O 0.04730 0.53488 0.49844
 O910 O 0.04037 0.53400 0.45989
 O911 O -0.00664 0.56655 0.52485
 O912 O -0.04190 0.56228 0.52426
 O913 O 0.01737 0.50937 0.55384
 O914 O 0.01206 0.47150 0.54596
 O915 O -0.06602 0.51377 0.46746
 O916 O -0.05639 0.54957 0.46910
 O917 O -0.01194 0.48313 0.43728
 O918 O 0.02504 0.48168 0.44530
 O919 O -0.04080 0.45469 0.49190
 O920 O -0.04021 0.46095 0.53085
 O921 O -0.06745 0.48584 0.49131
 O922 O -0.05996 0.48649 0.53229
 O923 O -0.01478 0.45379 0.46615
 O924 O 0.02507 0.46026 0.47004
 O925 O -0.03802 0.50847 0.43817
 O926 O -0.03109 0.54851 0.44502
 O927 O 0.04653 0.50674 0.52251
 O928 O 0.03533 0.46937 0.52219
 O929 O -0.00780 0.53568 0.55479
 O930 O -0.04615 0.53434 0.54533
 O931 O 0.01846 0.56641 0.49800
 O932 O 0.01798 0.55850 0.45940
 Zr933 Zr 0.01679 0.53501 0.48449
 O934 O -0.00232 0.51706 0.46264
 Zr935 Zr -0.02073 0.53584 0.52274
 O936 O -0.04187 0.51866 0.50216
 Zr937 Zr 0.01459 0.49615 0.52210
 O938 O -0.00527 0.47675 0.50215
 Zr939 Zr -0.03434 0.52385 0.46900
 O940 O -0.01515 0.54361 0.48951
 Zr941 Zr 0.00077 0.48384 0.46911
 O942 O 0.02225 0.50165 0.48896
 Zr943 Zr -0.03730 0.48532 0.50672
 O944 O -0.01754 0.50257 0.52910
 O945 O 0.01117 0.52924 0.51752
 O946 O -0.03136 0.49059 0.47361
 C947 C 0.05608 0.52225 0.51244
 C948 C 0.00821 0.57553 0.51369
 C949 C 0.00716 0.52452 0.56364
 C950 C -0.07579 0.49800 0.47648
 C951 C -0.02748 0.49339 0.42858
 C952 C -0.03069 0.44544 0.47621
 H953 H 0.00167 0.52049 0.44738
 H954 H -0.00274 0.46133 0.50548
 H955 H 0.02073 0.53797 0.52700
 H956 H -0.05657 0.52314 0.50546
 H957 H -0.04969 0.56164 0.47735
 H958 H -0.05362 0.55920 0.51386
 H959 H 0.02090 0.44902 0.48075
 H960 H 0.04148 0.46860 0.50731
 H961 H -0.02116 0.54352 0.43356
 H962 H 0.00366 0.56499 0.45868
 H963 H -0.02641 0.45340 0.53170
 H964 H -0.00181 0.47352 0.55328
 H965 H 0.04718 0.51963 0.46094
 H966 H 0.02730 0.49639 0.43939
 H967 H -0.04519 0.52012 0.55268
 H968 H -0.06949 0.49886 0.52943
 O969 O 0.50715 0.05746 0.53372
 O970 O 0.46891 0.05229 0.53308
 O971 O 0.53007 -0.00087 0.56162
 O972 O 0.52737 -0.03654 0.55474
 O973 O 0.55772 0.02521 0.50341
 O974 O 0.54781 0.02288 0.46510
 O975 O 0.46982 -0.05498 0.50628
 O976 O 0.47467 -0.04769 0.54351
 O977 O 0.44295 0.00136 0.47923
 O978 O 0.45240 0.04137 0.48383
 O979 O 0.49214 -0.02539 0.44716
 O980 O 0.53117 -0.02740 0.45279
 O981 O 0.49069 -0.05494 0.47607
 O982 O 0.53034 -0.05092 0.47545
 O983 O 0.46982 0.00328 0.44864
 O984 O 0.47279 0.04115 0.45846
 O985 O 0.44308 -0.02500 0.50520
 O986 O 0.45169 -0.02134 0.54518
 O987 O 0.52959 0.05687 0.50448
 O988 O 0.52663 0.04860 0.46623
 O989 O 0.55812 -0.00169 0.52885
 O990 O 0.54734 -0.03954 0.52558
 O991 O 0.50567 0.02616 0.56386
 O992 O 0.46868 0.02927 0.55752
 Zr993 Zr 0.49167 0.02722 0.53249
 O994 O 0.46874 0.00969 0.51445
 Zr995 Zr 0.52647 -0.01306 0.52954
 O996 O 0.50498 -0.03240 0.51139
 Zr997 Zr 0.52634 0.02536 0.49158
 O998 O 0.50496 0.00785 0.47164
 Zr999 Zr 0.47369 -0.02359 0.51895
 O1000 O 0.49504 -0.00604 0.53915
 Zr1001 Zr 0.47362 0.01501 0.48081
 O1002 O 0.49503 0.03461 0.49895
 Zr1003 Zr 0.50797 -0.02552 0.47775
 O1004 O 0.53138 -0.00803 0.49578
 O1005 O 0.52303 0.02004 0.52503
 O1006 O 0.47670 -0.01828 0.48533
 C1007 C 0.52104 0.06621 0.52111
 C1008 C 0.52033 0.01419 0.57210
 C1009 C 0.56712 0.01348 0.51781
 C1010 C 0.47666 -0.06375 0.48861
 C1011 C 0.43429 -0.01441 0.48959
 C1012 C 0.47788 -0.01303 0.43872
 H1013 H 0.45432 0.01404 0.51896
 H1014 H 0.50775 0.01152 0.45614
 H1015 H 0.53311 0.02858 0.53410
 H1016 H 0.50753 -0.04785 0.51461
 H1017 H 0.48293 -0.04159 0.55596
 H1018 H 0.51763 -0.04842 0.55045
 H1019 H 0.48515 0.03967 0.44859
 H1020 H 0.51272 0.05593 0.46680
 H1021 H 0.44117 -0.00999 0.54173
 H1022 H 0.46510 0.01417 0.56141
 H1023 H 0.53042 -0.01386 0.44420
 H1024 H 0.55420 0.00829 0.46596
 H1025 H 0.46963 0.05955 0.51865
 H1026 H 0.44192 0.03786 0.49535
 H1027 H 0.55248 -0.03899 0.51028
 H1028 H 0.52805 -0.06075 0.48802
 O1029 O 0.49294 0.56370 0.02547
 O1030 O 0.45635 0.55708 0.02721
 O1031 O 0.51597 0.50444 0.05670
 O1032 O 0.51823 0.46935 0.04901
 O1033 O 0.54679 0.53161 -0.00142
 O1034 O 0.53836 0.52961 -0.03961
 O1035 O 0.45961 0.44980 -0.00027
 O1036 O 0.46189 0.45746 0.03634
 O1037 O 0.43250 0.50722 -0.02842
 O1038 O 0.44211 0.54489 -0.02872
 O1039 O 0.48600 0.47842 -0.05929
 O1040 O 0.52175 0.47498 -0.05247
 O1041 O 0.48207 0.44922 -0.02915
 O1042 O 0.52318 0.45531 -0.02586
 O1043 O 0.46067 0.50456 -0.05851
 O1044 O 0.46579 0.54452 -0.05035
 O1045 O 0.43241 0.48024 -0.00309
 O1046 O 0.44021 0.48454 0.03746
 O1047 O 0.51829 0.56234 -0.00105
 O1048 O 0.51483 0.55362 -0.04001
 O1049 O 0.54630 0.50586 0.02515
 O1050 O 0.53602 0.46645 0.02038
 O1051 O 0.49332 0.53306 0.05678
 O1052 O 0.45509 0.53200 0.04917
 Zr1053 Zr 0.47942 0.53246 0.02532
 O1054 O 0.45762 0.51463 0.00619
 Zr1055 Zr 0.51516 0.49298 0.02423
 O1056 O 0.49437 0.47290 0.00607
 Zr1057 Zr 0.51565 0.53088 -0.01415
 O1058 O 0.49579 0.51207 -0.03459
 Zr1059 Zr 0.46264 0.48150 0.01172
 O1060 O 0.48325 0.49935 0.03250
 Zr1061 Zr 0.46391 0.51897 -0.02734
 O1062 O 0.48379 0.53939 -0.00820
 Zr1063 Zr 0.49895 0.47893 -0.02746
 O1064 O 0.52137 0.49766 -0.00932
 O1065 O 0.51119 0.52595 0.01923
 O1066 O 0.46708 0.48579 -0.02189
 C1067 C 0.50791 0.57224 0.01405
 C1068 C 0.50666 0.52038 0.06618
 C1069 C 0.55562 0.52084 0.01410
 C1070 C 0.46759 0.44048 -0.01709
 C1071 C 0.42346 0.49168 -0.01804
 C1072 C 0.47103 0.48945 -0.06816
 H1073 H 0.44302 0.51913 0.00987
 H1074 H 0.49939 0.51519 -0.05004
 H1075 H 0.52063 0.53495 0.02857
 H1076 H 0.49694 0.45760 0.00993
 H1077 H 0.47064 0.46297 0.04869
 H1078 H 0.50585 0.45955 0.04753
 H1079 H 0.47686 0.54081 -0.06119
 H1080 H 0.50171 0.56217 -0.03808
 H1081 H 0.42995 0.49600 0.03356
 H1082 H 0.45640 0.51813 0.05714
 H1083 H 0.52658 0.48968 -0.05647
 H1084 H 0.54568 0.51553 -0.03826
 H1085 H 0.45401 0.56197 0.01197
 H1086 H 0.43485 0.54556 -0.01439
 H1087 H 0.54524 0.46970 0.00767
 H1088 H 0.51836 0.44366 -0.01592
 O1089 O 0.74593 0.19252 0.52564
 O1090 O 0.78456 0.19784 0.52448
 O1091 O 0.72304 0.25013 0.55402
 O1092 O 0.72657 0.28593 0.54808
 O1093 O 0.69468 0.22648 0.49408
 O1094 O 0.70594 0.22592 0.45634
 O1095 O 0.78365 0.30477 0.49726
 O1096 O 0.77693 0.29816 0.53587
 O1097 O 0.81030 0.24847 0.47269
 O1098 O 0.79936 0.20837 0.47588
 O1099 O 0.76088 0.27714 0.44060
 O1100 O 0.72081 0.27607 0.44547
 O1101 O 0.75857 0.30632 0.47034
 O1102 O 0.72117 0.30010 0.46719
 O1103 O 0.78342 0.24850 0.44142
 O1104 O 0.78086 0.21119 0.44879
 O1105 O 0.81054 0.27422 0.49941
 O1106 O 0.80223 0.27373 0.53680
 O1107 O 0.72203 0.19377 0.49759
 O1108 O 0.72711 0.20051 0.45909
 O1109 O 0.69536 0.25156 0.52147
 O1110 O 0.70569 0.28933 0.51894
 O1111 O 0.74764 0.22325 0.55588
 O1112 O 0.78483 0.22043 0.54953
 Zr1113 Zr 0.76160 0.22273 0.52454
 O1114 O 0.78423 0.24070 0.50674
 Zr1115 Zr 0.72682 0.26293 0.52228
 O1116 O 0.74776 0.28249 0.50409
 Zr1117 Zr 0.72656 0.22466 0.48372
 O1118 O 0.74775 0.24238 0.46393
 Zr1119 Zr 0.77927 0.27401 0.51133
 O1120 O 0.75841 0.25600 0.53159
 Zr1121 Zr 0.77925 0.23562 0.47303
 O1122 O 0.75803 0.21562 0.49089
 Zr1123 Zr 0.74426 0.27558 0.47046
 O1124 O 0.72130 0.25798 0.48851
 O1125 O 0.73017 0.22993 0.51720
 O1126 O 0.77593 0.26889 0.47768
 C1127 C 0.73075 0.18434 0.51407
 C1128 C 0.73281 0.23489 0.56416
 C1129 C 0.68571 0.23764 0.50927
 C1130 C 0.77374 0.31456 0.48178
 C1131 C 0.81952 0.26329 0.48412
 C1132 C 0.77512 0.26501 0.43198
 H1133 H 0.79868 0.23638 0.51131
 H1134 H 0.74509 0.23884 0.44833
 H1135 H 0.71991 0.22158 0.52611
 H1136 H 0.74497 0.29786 0.50750
 H1137 H 0.77013 0.29133 0.54877
 H1138 H 0.73525 0.29847 0.54341
 H1139 H 0.76624 0.20898 0.44325
 H1140 H 0.73980 0.19151 0.46193
 H1141 H 0.80602 0.25849 0.53950
 H1142 H 0.78527 0.23469 0.55694
 H1143 H 0.72434 0.26476 0.43457
 H1144 H 0.70102 0.24106 0.45538
 H1145 H 0.78274 0.18981 0.51052
 H1146 H 0.80985 0.21139 0.48762
 H1147 H 0.69794 0.28729 0.50492
 H1148 H 0.71940 0.30673 0.48182
 O1149 O 0.80448 0.74981 -0.02420
 O1150 O 0.79686 0.71192 -0.02193
 O1151 O 0.75152 0.77565 -0.05783
 O1152 O 0.71373 0.77283 -0.05285
 O1153 O 0.77229 0.80678 0.00090
 O1154 O 0.77106 0.79851 0.03882
 O1155 O 0.69094 0.71999 -0.00116
 O1156 O 0.70034 0.72049 -0.03955
 O1157 O 0.74355 0.69237 0.02988
 O1158 O 0.78120 0.69967 0.03069
 O1159 O 0.71577 0.74760 0.05607
 O1160 O 0.71770 0.78668 0.04750
 O1161 O 0.68920 0.74651 0.02466
 O1162 O 0.69693 0.78606 0.02257
 O1163 O 0.74226 0.72285 0.05867
 O1164 O 0.78164 0.72467 0.05176
 O1165 O 0.72021 0.69126 0.00138
 O1166 O 0.72418 0.69918 -0.03891
 O1167 O 0.80293 0.77658 0.00149
 O1168 O 0.79326 0.77430 0.04014
 O1169 O 0.74866 0.80598 -0.02743
 O1170 O 0.71139 0.79696 -0.02847
 O1171 O 0.77637 0.74898 -0.05649
 O1172 O 0.77453 0.71094 -0.04751
 Zr1173 Zr 0.77371 0.73649 -0.02443
 O1174 O 0.75418 0.71586 -0.00574
 Zr1175 Zr 0.73634 0.77420 -0.02715
 O1176 O 0.71496 0.75507 -0.00901
 Zr1177 Zr 0.77157 0.77507 0.01358
 O1178 O 0.75153 0.75640 0.03374
 Zr1179 Zr 0.72219 0.72213 -0.01314
 O1180 O 0.74182 0.74119 -0.03371
 Zr1181 Zr 0.75723 0.72343 0.02780
 O1182 O 0.77897 0.74215 0.00926
 Zr1183 Zr 0.71960 0.76092 0.02462
 O1184 O 0.73950 0.78190 0.00639
 O1185 O 0.76816 0.76933 -0.01978
 O1186 O 0.72515 0.72790 0.02047
 C1187 C 0.81273 0.76552 -0.01323
 C1188 C 0.76660 0.76445 -0.06629
 C1189 C 0.76228 0.81576 -0.01508
 C1190 C 0.68116 0.73054 0.01388
 C1191 C 0.72920 0.68286 0.01828
 C1192 C 0.72613 0.73297 0.06643
 H1193 H 0.75796 0.70065 -0.00882
 H1194 H 0.75410 0.76041 0.04924
 H1195 H 0.77756 0.77875 -0.02861
 H1196 H 0.70027 0.75833 -0.01367
 H1197 H 0.69283 0.73450 -0.04020
 H1198 H 0.71529 0.75846 -0.05987
 H1199 H 0.77889 0.73725 0.06140
 H1200 H 0.80123 0.76058 0.03886
 H1201 H 0.73586 0.68909 -0.03539
 H1202 H 0.76068 0.71109 -0.05521
 H1203 H 0.72896 0.78461 0.05865
 H1204 H 0.75601 0.80267 0.04045
 H1205 H 0.80294 0.71301 -0.00697
 H1206 H 0.78174 0.69164 0.01665
 H1207 H 0.71121 0.80435 -0.01405
 H1208 H 0.68814 0.78350 0.00932
 O1209 O 1.00954 0.19359 0.22575
 O1210 O 0.97251 0.20270 0.22284
 O1211 O 1.03936 0.24912 0.19624
 O1212 O 1.03892 0.28509 0.20142
 O1213 O 1.06312 0.22376 0.25680
 O1214 O 1.05142 0.22681 0.29446
 O1215 O 0.98215 0.30969 0.24911
 O1216 O 0.98885 0.30088 0.21067
 O1217 O 0.94909 0.25583 0.27331
 O1218 O 0.95625 0.21594 0.27315
 O1219 O 1.00108 0.28097 0.30831
 O1220 O 1.04038 0.27811 0.30381
 O1221 O 1.00384 0.30915 0.27900
 O1222 O 1.04220 0.30140 0.28073
 O1223 O 0.97466 0.25586 0.30588
 O1224 O 0.97573 0.21668 0.29920
 O1225 O 0.95224 0.28129 0.24670
 O1226 O 0.96133 0.27885 0.21014
 O1227 O 1.03333 0.19419 0.25402
 O1228 O 1.02745 0.20267 0.29199
 O1229 O 1.06620 0.24959 0.23043
 O1230 O 1.05834 0.28802 0.23099
 O1231 O 1.01366 0.22310 0.19439
 O1232 O 0.97577 0.22579 0.19812
 Zr1233 Zr 0.99764 0.22544 0.22453
 O1234 O 0.97597 0.24545 0.24114
 Zr1235 Zr 1.03559 0.26291 0.22759
 O1236 O 1.01562 0.28452 0.24449
 Zr1237 Zr 1.03115 0.22577 0.26675
 O1238 O 1.01085 0.24561 0.28535
 Zr1239 Zr 0.98383 0.27816 0.23607
 O1240 O 1.00394 0.25814 0.21706
 Zr1241 Zr 0.97920 0.24104 0.27512
 O1242 O 0.99926 0.21905 0.25840
 Zr1243 Zr 1.01740 0.27822 0.27837
 O1244 O 1.03942 0.25840 0.26162
 O1245 O 1.02926 0.23037 0.23308
 O1246 O 0.98554 0.27376 0.26992
 C1247 C 1.02351 0.18465 0.23818
 C1248 C 1.02949 0.23361 0.18639
 C1249 C 1.07385 0.23445 0.24250
 C1250 C 0.99064 0.31855 0.26615
 C1251 C 0.94171 0.27149 0.26172
 C1252 C 0.98459 0.27124 0.31583
 H1253 H 0.96139 0.24209 0.23609
 H1254 H 1.01276 0.24235 0.30109
 H1255 H 1.03902 0.22079 0.22493
 H1256 H 1.01963 0.29960 0.24095
 H1257 H 0.99519 0.29295 0.19818
 H1258 H 1.03026 0.29794 0.20499
 H1259 H 0.98817 0.21758 0.30912
 H1260 H 1.01335 0.19585 0.28971
 H1261 H 0.95640 0.26386 0.20759
 H1262 H 0.97823 0.23947 0.19008
 H1263 H 1.03709 0.26585 0.31365
 H1264 H 1.05919 0.24075 0.29377
 H1265 H 0.97113 0.19648 0.23771
 H1266 H 0.94775 0.21819 0.25967
 H1267 H 1.06292 0.28795 0.24652
 H1268 H 1.04126 0.31103 0.26783
 O1269 O 0.70061 1.03430 0.75322
 O1270 O 0.71009 1.03081 0.79209
 O1271 O 0.75530 1.06200 0.72506
 O1272 O 0.79072 1.05410 0.72304
 O1273 O 0.72690 1.00499 0.69490
 O1274 O 0.72548 0.96764 0.70419
 O1275 O 0.81299 0.99985 0.77695
 O1276 O 0.80798 1.03807 0.77429
 O1277 O 0.75917 0.97634 0.80973
 O1278 O 0.71930 0.98118 0.80260
 O1279 O 0.78152 0.94713 0.75440
 O1280 O 0.77630 0.95360 0.71356
 O1281 O 0.81079 0.97561 0.74914
 O1282 O 0.79969 0.97525 0.71127
 O1283 O 0.75579 0.94726 0.78052
 O1284 O 0.71931 0.95557 0.78164
 O1285 O 0.78693 0.99999 0.80774
 O1286 O 0.78520 1.03946 0.80166
 O1287 O 0.69831 1.00853 0.72646
 O1288 O 0.70360 0.96974 0.72967
 O1289 O 0.75205 1.03161 0.69422
 O1290 O 0.79010 1.02688 0.70022
 O1291 O 0.73146 1.06264 0.75303
 O1292 O 0.73449 1.05443 0.79103
 Zr1293 Zr 0.73182 1.03113 0.76571
 O1294 O 0.75096 1.01142 0.78576
 Zr1295 Zr 0.76694 1.02991 0.72516
 O1296 O 0.78756 1.01001 0.74336
 Zr1297 Zr 0.72808 0.99316 0.72718
 O1298 O 0.74689 0.97170 0.74553
 Zr1299 Zr 0.78310 1.01513 0.77709
 O1300 O 0.76419 1.03710 0.75888
 Zr1301 Zr 0.74389 0.97886 0.77909
 O1302 O 0.72290 0.99858 0.76083
 Zr1303 Zr 0.77910 0.97735 0.73854
 O1304 O 0.76010 0.99714 0.71816
 O1305 O 0.73511 1.02562 0.73230
 O1306 O 0.77615 0.98253 0.77213
 C1307 C 0.69064 1.02418 0.73780
 C1308 C 0.74146 1.07165 0.73713
 C1309 C 0.73725 1.02019 0.68527
 C1310 C 0.82091 0.98479 0.76488
 C1311 C 0.77600 0.98534 0.81754
 C1312 C 0.77095 0.93820 0.76999
 H1313 H 0.74843 1.01501 0.80132
 H1314 H 0.74262 0.95662 0.74225
 H1315 H 0.72632 1.03529 0.72326
 H1316 H 0.80238 1.01304 0.73898
 H1317 H 0.80166 1.05133 0.76796
 H1318 H 0.80326 1.04894 0.73128
 H1319 H 0.71632 0.95022 0.76665
 H1320 H 0.69630 0.97241 0.74378
 H1321 H 0.77330 1.03746 0.81201
 H1322 H 0.74924 1.06002 0.79045
 H1323 H 0.76542 0.94293 0.71811
 H1324 H 0.73996 0.96532 0.69844
 H1325 H 0.70141 1.01750 0.79044
 H1326 H 0.72352 0.99223 0.81356
 H1327 H 0.78670 1.01350 0.69193
 H1328 H 0.80813 0.98879 0.71088
 O1329 O 0.74597 0.54719 0.20968
 O1330 O 0.78267 0.53789 0.20848
 O1331 O 0.71583 0.49094 0.18254
 O1332 O 0.71432 0.45557 0.18976
 O1333 O 0.69164 0.52060 0.24138
 O1334 O 0.70158 0.51917 0.27869
 O1335 O 0.77159 0.43249 0.23931
 O1336 O 0.76703 0.43853 0.20189
 O1337 O 0.80437 0.48836 0.26265
 O1338 O 0.79902 0.52519 0.26328
 O1339 O 0.75146 0.46305 0.29656
 O1340 O 0.71246 0.46646 0.29143
 O1341 O 0.74770 0.43343 0.26717
 O1342 O 0.70989 0.44326 0.26891
 O1343 O 0.77734 0.48871 0.29469
 O1344 O 0.77507 0.52924 0.28459
 O1345 O 0.80126 0.46023 0.23869
 O1346 O 0.79194 0.46317 0.19885
 O1347 O 0.72333 0.54922 0.23866
 O1348 O 0.72683 0.54106 0.27763
 O1349 O 0.68838 0.49416 0.21553
 O1350 O 0.69502 0.45486 0.21932
 O1351 O 0.74237 0.51595 0.17996
 O1352 O 0.78036 0.51251 0.18578
 Zr1353 Zr 0.75745 0.51531 0.21090
 O1354 O 0.77835 0.49628 0.22956
 Zr1355 Zr 0.71848 0.47908 0.21471
 O1356 O 0.73809 0.45791 0.23272
 Zr1357 Zr 0.72322 0.51787 0.25229
 O1358 O 0.74225 0.49815 0.27242
 Zr1359 Zr 0.77032 0.46348 0.22549
 O1360 O 0.75051 0.48244 0.20496
 Zr1361 Zr 0.77406 0.50221 0.26318
 O1362 O 0.75528 0.52364 0.24440
 Zr1363 Zr 0.73555 0.46528 0.26628
 O1364 O 0.71428 0.48515 0.24838
 O1365 O 0.72559 0.51166 0.21887
 O1366 O 0.76768 0.46927 0.25908
 C1367 C 0.73280 0.55740 0.22193
 C1368 C 0.72631 0.50553 0.17213
 C1369 C 0.68107 0.51021 0.22665
 C1370 C 0.76171 0.42373 0.25542
 C1371 C 0.81179 0.47180 0.25259
 C1372 C 0.76741 0.47342 0.30462
 H1373 H 0.79311 0.49948 0.22508
 H1374 H 0.73995 0.50209 0.28795
 H1375 H 0.71639 0.52115 0.20993
 H1376 H 0.73396 0.44277 0.22948
 H1377 H 0.75889 0.44468 0.18947
 H1378 H 0.72348 0.44315 0.19351
 H1379 H 0.76541 0.52626 0.29701
 H1380 H 0.74044 0.54868 0.27496
 H1381 H 0.80249 0.47488 0.20110
 H1382 H 0.77813 0.49816 0.17888
 H1383 H 0.71548 0.47933 0.30063
 H1384 H 0.69487 0.50468 0.27955
 H1385 H 0.78296 0.54612 0.22243
 H1386 H 0.80258 0.52802 0.24777
 H1387 H 0.68726 0.45857 0.23292
 H1388 H 0.70842 0.43591 0.25457
 O1389 O 0.44491 0.25265 0.77137
 O1390 O 0.45333 0.21514 0.77188
 O1391 O 0.49757 0.27785 0.81024
 O1392 O 0.53270 0.27981 0.80769
 O1393 O 0.47585 0.31032 0.75199
 O1394 O 0.48273 0.30447 0.71353
 O1395 O 0.55897 0.22381 0.75254
 O1396 O 0.55082 0.22811 0.79058
 O1397 O 0.50754 0.19680 0.72212
 O1398 O 0.47193 0.20466 0.71548
 O1399 O 0.53625 0.25601 0.69617
 O1400 O 0.53578 0.29301 0.70669
 O1401 O 0.56179 0.25136 0.72800
 O1402 O 0.55440 0.29196 0.73385
 O1403 O 0.51352 0.22756 0.69356
 O1404 O 0.47227 0.23104 0.69696
 O1405 O 0.53058 0.19612 0.75095
 O1406 O 0.52492 0.20324 0.78985
 O1407 O 0.44758 0.28010 0.74668
 O1408 O 0.45977 0.27965 0.70909
 O1409 O 0.49888 0.30977 0.78084
 O1410 O 0.53786 0.30180 0.78025
 O1411 O 0.47144 0.25262 0.80592
 O1412 O 0.47506 0.21446 0.79668
 Zr1413 Zr 0.47602 0.24034 0.77406
 O1414 O 0.49638 0.22047 0.75582
 Zr1415 Zr 0.51287 0.27873 0.77962
 O1416 O 0.53529 0.26008 0.76219
 Zr1417 Zr 0.47957 0.27970 0.73718
 O1418 O 0.50067 0.26175 0.71762
 Zr1419 Zr 0.52804 0.22701 0.76502
 O1420 O 0.50744 0.24543 0.78507
 Zr1421 Zr 0.49512 0.22853 0.72240
 O1422 O 0.47228 0.24644 0.74027
 Zr1423 Zr 0.53200 0.26677 0.72856
 O1424 O 0.51106 0.28711 0.74622
 O1425 O 0.48145 0.27326 0.77055
 O1426 O 0.52656 0.23359 0.73153
 C1427 C 0.43702 0.26828 0.76012
 C1428 C 0.48124 0.26728 0.81706
 C1429 C 0.48445 0.31892 0.76911
 C1430 C 0.56901 0.23456 0.73782
 C1431 C 0.52114 0.18723 0.73454
 C1432 C 0.52844 0.23966 0.68593
 H1433 H 0.49216 0.20525 0.75831
 H1434 H 0.49880 0.26602 0.70212
 H1435 H 0.47124 0.28182 0.77925
 H1436 H 0.54987 0.26306 0.76752
 H1437 H 0.54373 0.23476 0.80339
 H1438 H 0.54526 0.27080 0.80450
 H1439 H 0.47779 0.24129 0.68589
 H1440 H 0.45245 0.26544 0.70878
 H1441 H 0.51214 0.19444 0.78654
 H1442 H 0.48757 0.21620 0.80643
 H1443 H 0.52245 0.29415 0.69815
 H1444 H 0.49594 0.31250 0.71718
 H1445 H 0.44839 0.21491 0.75648
 H1446 H 0.46654 0.19967 0.72980
 H1447 H 0.53606 0.31114 0.76721
 H1448 H 0.56461 0.28714 0.74519
 O1449 O 0.30580 0.75045 0.47725
 O1450 O 0.29644 0.71312 0.47538
 O1451 O 0.25309 0.77820 0.44050
 O1452 O 0.21775 0.78038 0.44404
 O1453 O 0.27512 0.80790 0.50127
 O1454 O 0.27010 0.79923 0.53908
 O1455 O 0.19030 0.72459 0.49357
 O1456 O 0.20061 0.72821 0.45635
 O1457 O 0.24199 0.69324 0.52438
 O1458 O 0.27929 0.70048 0.52879
 O1459 O 0.21355 0.74825 0.55244
 O1460 O 0.21856 0.78850 0.54564
 O1461 O 0.18824 0.75126 0.51925
 O1462 O 0.19715 0.78879 0.52164
 O1463 O 0.23837 0.72176 0.55455
 O1464 O 0.27860 0.72445 0.55062
 O1465 O 0.21762 0.69480 0.49677
 O1466 O 0.22388 0.70182 0.45808
 O1467 O 0.30379 0.77692 0.50325
 O1468 O 0.29230 0.77412 0.54108
 O1469 O 0.25337 0.80824 0.47135
 O1470 O 0.21456 0.80186 0.47183
 O1471 O 0.27923 0.75299 0.44320
 O1472 O 0.27465 0.71444 0.44979
 Zr1473 Zr 0.27441 0.73880 0.47421
 O1474 O 0.25360 0.71823 0.49134
 Zr1475 Zr 0.23839 0.77776 0.47136
 O1476 O 0.21580 0.75878 0.48803
 Zr1477 Zr 0.27193 0.77615 0.51352
 O1478 O 0.25072 0.75727 0.53226
 Zr1479 Zr 0.22202 0.72573 0.48304
 O1480 O 0.24300 0.74477 0.46388
 Zr1481 Zr 0.25560 0.72440 0.52517
 O1482 O 0.27854 0.74311 0.50826
 Zr1483 Zr 0.21942 0.76331 0.52204
 O1484 O 0.24047 0.78433 0.50521
 O1485 O 0.26974 0.77155 0.47981
 O1486 O 0.22397 0.73029 0.51690
 C1487 C 0.31403 0.76550 0.48920
 C1488 C 0.26901 0.76776 0.43279
 C1489 C 0.26691 0.81714 0.48438
 C1490 C 0.18004 0.73602 0.50757
 C1491 C 0.22720 0.68494 0.51245
 C1492 C 0.22239 0.73219 0.56216
 H1493 H 0.25721 0.70305 0.48794
 H1494 H 0.25274 0.76047 0.54802
 H1495 H 0.28001 0.78052 0.47154
 H1496 H 0.20142 0.76271 0.48289
 H1497 H 0.20854 0.73497 0.44412
 H1498 H 0.20524 0.77109 0.44691
 H1499 H 0.27457 0.73561 0.56148
 H1500 H 0.29929 0.75982 0.54026
 H1501 H 0.23685 0.69320 0.46055
 H1502 H 0.26155 0.71634 0.44098
 H1503 H 0.22845 0.78475 0.55768
 H1504 H 0.25569 0.80550 0.53821
 H1505 H 0.30123 0.71217 0.49081
 H1506 H 0.28077 0.69313 0.51446
 H1507 H 0.21707 0.81088 0.48505
 H1508 H 0.19327 0.79119 0.50614
 O1509 O 0.25660 0.27231 0.93657
 O1510 O 0.21946 0.27319 0.94138
 O1511 O 0.27935 0.30154 0.99604
 O1512 O 0.27446 0.29592 1.03214
 O1513 O 0.30915 0.24411 0.97272
 O1514 O 0.29998 0.20704 0.97193
 O1515 O 0.21805 0.24433 1.04927
 O1516 O 0.22044 0.28067 1.04277
 O1517 O 0.19396 0.21788 0.98901
 O1518 O 0.20532 0.21947 0.95094
 O1519 O 0.24241 0.18887 1.02267
 O1520 O 0.28324 0.19500 1.02216
 O1521 O 0.24377 0.21871 1.05212
 O1522 O 0.28103 0.21503 1.04710
 O1523 O 0.22212 0.18822 0.99176
 O1524 O 0.22826 0.19737 0.95223
 O1525 O 0.19267 0.24135 1.01760
 O1526 O 0.20014 0.28224 1.01326
 O1527 O 0.28257 0.24682 0.93903
 O1528 O 0.27805 0.20805 0.94591
 O1529 O 0.30779 0.26959 0.99967
 O1530 O 0.29477 0.26838 1.03758
 O1531 O 0.25615 0.30244 0.96733
 O1532 O 0.21780 0.29555 0.96707
 Zr1533 Zr 0.24172 0.27162 0.96733
 O1534 O 0.21911 0.25241 0.98375
 Zr1535 Zr 0.27553 0.27026 1.00915
 O1536 O 0.25417 0.25161 1.02782
 Zr1537 Zr 0.27782 0.23258 0.97017
 O1538 O 0.25703 0.21193 0.98741
 Zr1539 Zr 0.22259 0.25706 1.01771
 O1540 O 0.24387 0.27818 1.00118
 Zr1541 Zr 0.22569 0.21950 0.97866
 O1542 O 0.24653 0.23872 0.95971
 Zr1543 Zr 0.25890 0.21856 1.02124
 O1544 O 0.28194 0.23720 1.00427
 O1545 O 0.27319 0.26538 0.97557
 O1546 O 0.22742 0.22412 1.01256
 C1547 C 0.27240 0.26176 0.92875
 C1548 C 0.27069 0.31095 0.97951
 C1549 C 0.31782 0.25843 0.98521
 C1550 C 0.22820 0.22974 1.05992
 C1551 C 0.18438 0.22659 1.00525
 C1552 C 0.22907 0.17977 1.00957
 H1553 H 0.20469 0.25613 0.97860
 H1554 H 0.26051 0.19669 0.98411
 H1555 H 0.28353 0.27426 0.96730
 H1556 H 0.25632 0.25523 1.04348
 H1557 H 0.22865 0.29342 1.03773
 H1558 H 0.26364 0.29204 1.04318
 H1559 H 0.23996 0.18727 0.95564
 H1560 H 0.26545 0.21046 0.93648
 H1561 H 0.18911 0.27731 1.00277
 H1562 H 0.21861 0.30311 0.98139
 H1563 H 0.27933 0.18319 1.01191
 H1564 H 0.30422 0.20592 0.98753
 H1565 H 0.21836 0.25836 0.93534
 H1566 H 0.19655 0.23269 0.95161
 H1567 H 0.30192 0.25419 1.03693
 H1568 H 0.28282 0.22946 1.05382
 C1569 C 0.26491 0.37160 0.77503
 C1570 C 0.28722 0.36913 0.77770
 C1571 C 0.30072 0.38584 0.77067
 C1572 C 0.29261 0.40510 0.76250
 C1573 C 0.27073 0.40892 0.76209
 C1574 C 0.25661 0.39173 0.76738
 C1575 C 0.25069 0.35430 0.77898
 C1576 C 0.22887 0.35691 0.77616
 C1577 C 0.22080 0.37654 0.76884
 C1578 C 0.23449 0.39371 0.76422
 H1579 H 0.25624 0.33846 0.78372
 H1580 H 0.21818 0.34350 0.77929
 H1581 H 0.20387 0.37832 0.76627
 H1582 H 0.22764 0.40818 0.75740
 H1583 H 0.31781 0.38427 0.77207
 H1584 H 0.30367 0.41758 0.75746
 C1585 C 0.31789 -0.11236 0.27299
 C1586 C 0.30306 -0.12632 0.28380
 C1587 C 0.28171 -0.11973 0.28473
 C1588 C 0.27501 -0.10046 0.27529
 C1589 C 0.28894 -0.08714 0.26348
 C1590 C 0.31052 -0.09393 0.26101
 C1591 C 0.34013 -0.11519 0.27527
 C1592 C 0.35444 -0.10294 0.26314
 C1593 C 0.34705 -0.08717 0.24896
 C1594 C 0.32545 -0.08243 0.24807
 H1595 H 0.34678 -0.12649 0.28688
 H1596 H 0.37135 -0.10565 0.26481
 H1597 H 0.35821 -0.07787 0.23928
 H1598 H 0.32118 -0.06965 0.23709
 H1599 H 0.26973 -0.12976 0.29241
 H1600 H 0.25850 -0.09595 0.27720
 C1601 C 0.77076 0.87760 0.78352
 C1602 C 0.79222 0.87534 0.79078
 C1603 C 0.80566 0.89354 0.79045
 C1604 C 0.79818 0.91365 0.78407
 C1605 C 0.77732 0.91631 0.77685
 C1606 C 0.76333 0.89830 0.77650
 C1607 C 0.75693 0.85958 0.78149
 C1608 C 0.73618 0.86204 0.77386
 C1609 C 0.72888 0.88230 0.76753
 C1610 C 0.74233 0.90024 0.76857
 H1611 H 0.76208 0.84334 0.78520
 H1612 H 0.72580 0.84808 0.77252
 H1613 H 0.71282 0.88405 0.76138
 H1614 H 0.73623 0.91551 0.76274
 H1615 H 0.82194 0.89246 0.79622
 H1616 H 0.80869 0.92748 0.78527
 C1617 C 0.46741 0.85637 0.31350
 C1618 C 0.46681 0.87262 0.29706
 C1619 C 0.47356 0.86754 0.27579
 C1620 C 0.48107 0.84698 0.27066
 C1621 C 0.48263 0.83085 0.28671
 C1622 C 0.47593 0.83556 0.30848
 C1623 C 0.45904 0.86010 0.33470
 C1624 C 0.46067 0.84452 0.35103
 C1625 C 0.46986 0.82468 0.34642
 C1626 C 0.47679 0.81992 0.32529
 H1627 H 0.45097 0.87492 0.33890
 H1628 H 0.45466 0.84781 0.36732
 H1629 H 0.47135 0.81281 0.35925
 H1630 H 0.48271 0.80390 0.32243
 H1631 H 0.47306 0.87967 0.26300
 H1632 H 0.48592 0.84366 0.25395
 C1633 C -0.05078 0.87158 0.78145
 C1634 C -0.03446 0.88694 0.78671
 C1635 C -0.01320 0.88025 0.78641
 C1636 C -0.00775 0.85943 0.77989
 C1637 C -0.02330 0.84427 0.77377
 C1638 C -0.04511 0.85017 0.77483
 C1639 C -0.07262 0.87623 0.78478
 C1640 C -0.08833 0.86092 0.78033
 C1641 C -0.08280 0.84036 0.77335
 C1642 C -0.06150 0.83487 0.77108
 H1643 H -0.07797 0.89134 0.79164
 H1644 H -0.10489 0.86487 0.78285
 H1645 H -0.09506 0.82841 0.77028
 H1646 H -0.05824 0.81832 0.76708
 H1647 H -0.00057 0.89143 0.79083
 H1648 H 0.00891 0.85509 0.77962
 C1649 C -0.05807 -0.12229 -0.01244
 C1650 C -0.04226 -0.13604 -0.02156
 C1651 C -0.02108 -0.12906 -0.02145
 C1652 C -0.01550 -0.10873 -0.01338
 C1653 C -0.03062 -0.09495 -0.00387
 C1654 C -0.05195 -0.10264 -0.00168
 C1655 C -0.07999 -0.12723 -0.01438
 C1656 C -0.09514 -0.11524 -0.00318
 C1657 C -0.08888 -0.09788 0.00979
 C1658 C -0.06765 -0.09134 0.01029
 H1659 H -0.08578 -0.14020 -0.02472
 H1660 H -0.11179 -0.11956 -0.00443
 H1661 H -0.10065 -0.08890 0.01894
 H1662 H -0.06418 -0.07753 0.02043
 H1663 H -0.00874 -0.13925 -0.02820
 H1664 H 0.00093 -0.10362 -0.01480
 C1665 C -0.06434 0.39670 0.45753
 C1666 C -0.04829 0.38046 0.45714
 C1667 C -0.02713 0.38653 0.46141
 C1668 C -0.02191 0.40757 0.46756
 C1669 C -0.03752 0.42351 0.46931
 C1670 C -0.05884 0.41836 0.46365
 C1671 C -0.08530 0.39244 0.45010
 C1672 C -0.10054 0.40870 0.44963
 C1673 C -0.09518 0.42964 0.45585
 C1674 C -0.07456 0.43457 0.46259
 H1675 H -0.09005 0.37681 0.44377
 H1676 H -0.11648 0.40514 0.44389
 H1677 H -0.10693 0.44223 0.45487
 H1678 H -0.07098 0.45129 0.46618
 H1679 H -0.01453 0.37464 0.46089
 H1680 H -0.00547 0.41137 0.47136
 C1681 C 0.43897 -0.11113 0.47366
 C1682 C 0.45388 -0.12608 0.46465
 C1683 C 0.47521 -0.11944 0.46305
 C1684 C 0.48197 -0.09945 0.47109
 C1685 C 0.46805 -0.08542 0.48198
 C1686 C 0.44626 -0.09170 0.48410
 C1687 C 0.41677 -0.11427 0.47112
 C1688 C 0.40228 -0.10085 0.48157
 C1689 C 0.40948 -0.08367 0.49425
 C1690 C 0.43111 -0.07888 0.49527
 H1691 H 0.41035 -0.12690 0.46069
 H1692 H 0.38539 -0.10377 0.47976
 H1693 H 0.39818 -0.07337 0.50255
 H1694 H 0.43525 -0.06478 0.50460
 H1695 H 0.48717 -0.13008 0.45634
 H1696 H 0.49858 -0.09514 0.46926
 C1697 C 0.43284 0.38980 -0.02954
 C1698 C 0.44850 0.37597 -0.03903
 C1699 C 0.46921 0.38424 -0.04140
 C1700 C 0.47470 0.40485 -0.03405
 C1701 C 0.46012 0.41812 -0.02309
 C1702 C 0.43897 0.41009 -0.01988
 C1703 C 0.41089 0.38469 -0.03084
 C1704 C 0.39586 0.39692 -0.01975
 C1705 C 0.40219 0.41491 -0.00775
 C1706 C 0.42332 0.42174 -0.00813
 H1707 H 0.40502 0.37141 -0.04075
 H1708 H 0.37923 0.39243 -0.02050
 H1709 H 0.39049 0.42425 0.00111
 H1710 H 0.42654 0.43644 0.00068
 H1711 H 0.48177 0.37445 -0.04829
 H1712 H 0.49091 0.41026 -0.03652
 C1713 C 0.77121 0.37521 0.47092
 C1714 C 0.79162 0.37846 0.46174
 C1715 C 0.80615 0.36135 0.46126
 C1716 C 0.80036 0.34085 0.46867
 C1717 C 0.77992 0.33698 0.47675
 C1718 C 0.76534 0.35431 0.47857
 C1719 C 0.75660 0.39239 0.47297
 C1720 C 0.73666 0.38898 0.48226
 C1721 C 0.73098 0.36856 0.48990
 C1722 C 0.74517 0.35139 0.48823
 H1723 H 0.76053 0.40863 0.46770
 H1724 H 0.72564 0.40230 0.48375
 H1725 H 0.71558 0.36607 0.49735
 H1726 H 0.74038 0.33598 0.49495
 H1727 H 0.82185 0.36373 0.45443
 H1728 H 0.81165 0.32772 0.46734
 C1729 C 0.77844 0.87588 -0.01110
 C1730 C 0.78324 0.87993 -0.03362
 C1731 C 0.77811 0.86379 -0.04913
 C1732 C 0.77054 0.84363 -0.04273
 C1733 C 0.76774 0.83854 -0.02059
 C1734 C 0.77080 0.85502 -0.00460
 C1735 C 0.77934 0.89255 0.00487
 C1736 C 0.77424 0.88851 0.02670
 C1737 C 0.76731 0.86810 0.03303
 C1738 C 0.76524 0.85162 0.01754
 H1739 H 0.78323 0.90906 0.00062
 H1740 H 0.77515 0.90146 0.03868
 H1741 H 0.76290 0.86519 0.04992
 H1742 H 0.75839 0.83655 0.02296
 H1743 H 0.78132 0.86612 -0.06642
 H1744 H 0.76772 0.83151 -0.05526
 C1745 C 0.79023 0.26290 0.37108
 C1746 C 0.79763 0.28445 0.36835
 C1747 C 0.79722 0.29878 0.38617
 C1748 C 0.78988 0.29209 0.40658
 C1749 C 0.78270 0.27085 0.40984
 C1750 C 0.78260 0.25607 0.39198
 C1751 C 0.78953 0.24820 0.35330
 C1752 C 0.78165 0.22727 0.35605
 C1753 C 0.77400 0.22068 0.37636
 C1754 C 0.77427 0.23493 0.39413
 H1755 H 0.79478 0.25277 0.33709
 H1756 H 0.78121 0.21619 0.34227
 H1757 H 0.76759 0.20451 0.37830
 H1758 H 0.76750 0.22934 0.40934
 H1759 H 0.80264 0.31533 0.38424
 H1760 H 0.78992 0.30360 0.42004
 C1761 C 0.78284 0.76515 -0.12696
 C1762 C 0.79027 0.78683 -0.12840
 C1763 C 0.78936 0.80021 -0.10987
 C1764 C 0.78153 0.79252 -0.09009
 C1765 C 0.77430 0.77119 -0.08808
 C1766 C 0.77483 0.75724 -0.10658
 C1767 C 0.78264 0.75132 -0.14542
 C1768 C 0.77505 0.73014 -0.14378
 C1769 C 0.76729 0.72244 -0.12390
 C1770 C 0.76703 0.73585 -0.10546
 H1771 H 0.78807 0.75677 -0.16129
 H1772 H 0.77501 0.71970 -0.15807
 H1773 H 0.76125 0.70605 -0.12281
 H1774 H 0.76041 0.72942 -0.09049
 H1775 H 0.79507 0.81677 -0.11064
 H1776 H 0.78152 0.80323 -0.07602
 C1777 C 0.30256 0.46655 0.85884
 C1778 C 0.28677 0.45968 0.87393
 C1779 C 0.26548 0.45914 0.86728
 C1780 C 0.25958 0.46562 0.84630
 C1781 C 0.27457 0.47379 0.83146
 C1782 C 0.29638 0.47492 0.83798
 C1783 C 0.32447 0.46467 0.86379
 C1784 C 0.33985 0.47276 0.84964
 C1785 C 0.33383 0.48255 0.83017
 C1786 C 0.31245 0.48340 0.82423
 H1787 H 0.33003 0.45663 0.87842
 H1788 H 0.35653 0.47137 0.85378
 H1789 H 0.34583 0.48890 0.81922
 H1790 H 0.30915 0.49030 0.80851
 H1791 H 0.25326 0.45372 0.87849
 H1792 H 0.24292 0.46471 0.84179
 C1793 C 0.31782 -0.03377 0.35879
 C1794 C 0.30164 -0.04027 0.37367
 C1795 C 0.28038 -0.03923 0.36693
 C1796 C 0.27494 -0.03183 0.34613
 C1797 C 0.29038 -0.02398 0.33159
 C1798 C 0.31217 -0.02402 0.33837
 C1799 C 0.33957 -0.03732 0.36349
 C1800 C 0.35540 -0.02912 0.34996
 C1801 C 0.34997 -0.01764 0.33127
 C1802 C 0.32870 -0.01537 0.32531
 H1803 H 0.34462 -0.04673 0.37747
 H1804 H 0.37197 -0.03174 0.35394
 H1805 H 0.36234 -0.01116 0.32084
 H1806 H 0.32589 -0.00718 0.31012
 H1807 H 0.26776 -0.04410 0.37792
 H1808 H 0.25830 -0.03177 0.34152
 C1809 C -0.05989 -0.03942 -0.10305
 C1810 C -0.04382 -0.04178 -0.11940
 C1811 C -0.02241 -0.03963 -0.11303
 C1812 C -0.01680 -0.03391 -0.09173
 C1813 C -0.03227 -0.03002 -0.07584
 C1814 C -0.05405 -0.03309 -0.08126
 C1815 C -0.08140 -0.04496 -0.10724
 C1816 C -0.09690 -0.04246 -0.09120
 C1817 C -0.09130 -0.03532 -0.07036
 C1818 C -0.07010 -0.03116 -0.06521
 H1819 H -0.08648 -0.05193 -0.12266
 H1820 H -0.11330 -0.04648 -0.09484
 H1821 H -0.10340 -0.03357 -0.05795
 H1822 H -0.06652 -0.02698 -0.04842
 H1823 H -0.00975 -0.04140 -0.12489
 H1824 H -0.00010 -0.03195 -0.08775
 C1825 C -0.02644 0.47796 0.36765
 C1826 C -0.04749 0.46959 0.36521
 C1827 C -0.06158 0.47132 0.38297
 C1828 C -0.05476 0.47926 0.40320
 C1829 C -0.03401 0.48679 0.40622
 C1830 C -0.01973 0.48661 0.38831
 C1831 C -0.01231 0.47924 0.34969
 C1832 C 0.00808 0.48779 0.35224
 C1833 C 0.01471 0.49576 0.37251
 C1834 C 0.00092 0.49542 0.39034
 H1835 H -0.01701 0.47421 0.33338
 H1836 H 0.01869 0.48855 0.33833
 H1837 H 0.03047 0.50262 0.37432
 H1838 H 0.00645 0.50257 0.40553
 H1839 H -0.07762 0.46497 0.38173
 H1840 H -0.06553 0.47855 0.41697
 C1841 C 0.44361 -0.02750 0.38821
 C1842 C 0.45992 -0.03429 0.37360
 C1843 C 0.48114 -0.03270 0.38042
 C1844 C 0.48640 -0.02531 0.40130
 C1845 C 0.47080 -0.01802 0.41589
 C1846 C 0.44915 -0.01778 0.40879
 C1847 C 0.42184 -0.03092 0.38330
 C1848 C 0.40601 -0.02266 0.39677
 C1849 C 0.41142 -0.01123 0.41560
 C1850 C 0.43266 -0.00904 0.42177
 H1851 H 0.41671 -0.04034 0.36931
 H1852 H 0.38944 -0.02520 0.39263
 H1853 H 0.39905 -0.00472 0.42597
 H1854 H 0.43554 -0.00079 0.43701
 H1855 H 0.49385 -0.03766 0.36960
 H1856 H 0.50299 -0.02528 0.40612
 C1857 C 0.47397 0.48004 -0.13016
 C1858 C 0.45323 0.47174 -0.13397
 C1859 C 0.43871 0.47095 -0.11658
 C1860 C 0.44464 0.47729 -0.09550
 C1861 C 0.46534 0.48442 -0.09109
 C1862 C 0.48010 0.48634 -0.10851
 C1863 C 0.48861 0.48270 -0.14746
 C1864 C 0.50891 0.49097 -0.14348
 C1865 C 0.51492 0.49704 -0.12234
 C1866 C 0.50067 0.49492 -0.10501
 H1867 H 0.48442 0.47875 -0.16422
 H1868 H 0.51996 0.49290 -0.15690
 H1869 H 0.53062 0.50366 -0.11939
 H1870 H 0.50579 0.50040 -0.08900
 H1871 H 0.42278 0.46470 -0.11921
 H1872 H 0.43316 0.47596 -0.08235
 C1873 C 0.48380 0.77516 0.38694
 C1874 C 0.46189 0.78026 0.38836
 C1875 C 0.44853 0.77583 0.37046
 C1876 C 0.45671 0.76795 0.35085
 C1877 C 0.47852 0.76412 0.34848
 C1878 C 0.49217 0.76690 0.36688
 C1879 C 0.49749 0.77757 0.40520
 C1880 C 0.51890 0.77212 0.40372
 C1881 C 0.52701 0.76383 0.38425
 C1882 C 0.51380 0.76102 0.36605
 H1883 H 0.49174 0.78327 0.42087
 H1884 H 0.52919 0.77403 0.41787
 H1885 H 0.54356 0.75925 0.38333
 H1886 H 0.52058 0.75366 0.35163
 H1887 H 0.43173 0.77945 0.37134
 H1888 H 0.44600 0.76576 0.33706
 C1889 C -0.04217 0.80839 0.86574
 C1890 C -0.04482 0.79182 0.88177
 C1891 C -0.04102 0.77025 0.87561
 C1892 C -0.03297 0.76513 0.85499
 C1893 C -0.02864 0.78127 0.83954
 C1894 C -0.03391 0.80307 0.84459
 C1895 C -0.04922 0.82982 0.86955
 C1896 C -0.04679 0.84584 0.85374
 C1897 C -0.03817 0.84077 0.83348
 C1898 C -0.03227 0.81958 0.82871
 H1899 H -0.05730 0.83438 0.88446
 H1900 H -0.05204 0.86218 0.85707
 H1901 H -0.03656 0.85325 0.82124
 H1902 H -0.02708 0.81625 0.81228
 H1903 H -0.04320 0.75721 0.88725
 H1904 H -0.02958 0.74833 0.85127
 C1905 C 0.38145 0.76162 0.28179
 C1906 C 0.37873 0.78360 0.28790
 C1907 C 0.39632 0.79757 0.28809
 C1908 C 0.41647 0.79008 0.28295
 C1909 C 0.41975 0.76833 0.27752
 C1910 C 0.40215 0.75392 0.27650
 C1911 C 0.36398 0.74729 0.28023
 C1912 C 0.36684 0.72583 0.27380
 C1913 C 0.38701 0.71834 0.26849
 C1914 C 0.40451 0.73222 0.26964
 H1915 H 0.34797 0.75258 0.28363
 H1916 H 0.35330 0.71502 0.27267
 H1917 H 0.38907 0.70174 0.26322
 H1918 H 0.41973 0.72588 0.26471
 H1919 H 0.39449 0.81440 0.29275
 H1920 H 0.42974 0.80130 0.28368
 C1921 C -0.12093 0.78740 0.76636
 C1922 C -0.12321 0.79307 0.78883
 C1923 C -0.10584 0.79097 0.80304
 C1924 C -0.08633 0.78383 0.79537
 C1925 C -0.08344 0.77864 0.77319
 C1926 C -0.10082 0.78021 0.75845
 C1927 C -0.13831 0.78812 0.75168
 C1928 C -0.13587 0.78233 0.72971
 C1929 C -0.11626 0.77538 0.72202
 C1930 C -0.09891 0.77413 0.73622
 H1931 H -0.15398 0.79283 0.75704
 H1932 H -0.14934 0.78300 0.71865
 H1933 H -0.11454 0.77067 0.70500
 H1934 H -0.08418 0.76802 0.72971
 H1935 H -0.10731 0.79524 0.82022
 H1936 H -0.07318 0.78277 0.80684
 C1937 C 0.87836 0.27931 0.48793
 C1938 C 0.88200 0.28470 0.46566
 C1939 C 0.86586 0.28121 0.45015
 C1940 C 0.84604 0.27347 0.45643
 C1941 C 0.84166 0.26897 0.47845
 C1942 C 0.85804 0.27124 0.49436
 C1943 C 0.89459 0.28128 0.50385
 C1944 C 0.89090 0.27552 0.52561
 C1945 C 0.87117 0.26741 0.53184
 C1946 C 0.85491 0.26511 0.51640
 H1947 H 0.91033 0.28695 0.49959
 H1948 H 0.90350 0.27709 0.53764
 H1949 H 0.86851 0.26264 0.54869
 H1950 H 0.84013 0.25801 0.52177
 H1951 H 0.86844 0.28519 0.43305
 H1952 H 0.83372 0.27176 0.44406
 C1953 C 0.86149 0.79803 -0.03123
 C1954 C 0.87717 0.78157 -0.03018
 C1955 C 0.87135 0.76059 -0.02402
 C1956 C 0.85041 0.75577 -0.01842
 C1957 C 0.83472 0.77181 -0.01872
 C1958 C 0.84010 0.79311 -0.02546
 C1959 C 0.86650 0.81916 -0.03855
 C1960 C 0.85094 0.83509 -0.03979
 C1961 C 0.83006 0.83026 -0.03427
 C1962 C 0.82456 0.80947 -0.02744
 H1963 H 0.88236 0.82358 -0.04367
 H1964 H 0.85507 0.85119 -0.04533
 H1965 H 0.81802 0.84263 -0.03552
 H1966 H 0.80801 0.80641 -0.02410
 H1967 H 0.88314 0.74788 -0.02347
 H1968 H 0.84640 0.73936 -0.01368
 C1969 C -0.12907 -0.01473 -0.01829
 C1970 C -0.13293 -0.03720 -0.02233
 C1971 C -0.11705 -0.05208 -0.01666
 C1972 C -0.09728 -0.04514 -0.00928
 C1973 C -0.09266 -0.02324 -0.00623
 C1974 C -0.10878 -0.00777 -0.01015
 C1975 C -0.14529 0.00085 -0.02072
 C1976 C -0.14142 0.02267 -0.01631
 C1977 C -0.12158 0.02941 -0.00880
 C1978 C -0.10546 0.01437 -0.00546
 H1979 H -0.16128 -0.00369 -0.02541
 H1980 H -0.15402 0.03437 -0.01835
 H1981 H -0.11879 0.04632 -0.00507
 H1982 H -0.09067 0.02020 0.00142
 H1983 H -0.11917 -0.06924 -0.01976
 H1984 H -0.08492 -0.05696 -0.00725
 C1985 C -0.12403 0.48365 0.44049
 C1986 C -0.13748 0.47382 0.45657
 C1987 C -0.13062 0.47380 0.47852
 C1988 C -0.11114 0.48263 0.48459
 C1989 C -0.09799 0.49299 0.46931
 C1990 C -0.10539 0.49520 0.44723
 C1991 C -0.12754 0.48077 0.41765
 C1992 C -0.11592 0.49235 0.40225
 C1993 C -0.10010 0.50649 0.40912
 C1994 C -0.09451 0.50763 0.43123
 H1995 H -0.13895 0.46923 0.41131
 H1996 H -0.11927 0.49039 0.38493
 H1997 H -0.09140 0.51589 0.39715
 H1998 H -0.08174 0.51858 0.43503
 H1999 H -0.14036 0.46680 0.49131
 H2000 H -0.10620 0.48117 0.50157
 C2001 C 0.39233 -0.04551 0.45725
 C2002 C 0.37363 -0.03724 0.46711
 C2003 C 0.37524 -0.02208 0.48418
 C2004 C 0.39506 -0.01468 0.49131
 C2005 C 0.41366 -0.02236 0.48162
 C2006 C 0.41250 -0.03807 0.46468
 C2007 C 0.39143 -0.06127 0.44037
 C2008 C 0.40998 -0.06951 0.43118
 C2009 C 0.42972 -0.06229 0.43854
 C2010 C 0.43104 -0.04673 0.45509
 H2011 H 0.37644 -0.06749 0.43426
 H2012 H 0.40904 -0.08160 0.41833
 H2013 H 0.44408 -0.06874 0.43138
 H2014 H 0.44669 -0.04156 0.46027
 H2015 H 0.36105 -0.01572 0.49184
 H2016 H 0.39590 -0.00284 0.50443
 C2017 C 0.36319 0.49203 -0.02822
 C2018 C 0.36038 0.47009 -0.03492
 C2019 C 0.37823 0.45662 -0.03621
 C2020 C 0.39842 0.46444 -0.03157
 C2021 C 0.40157 0.48560 -0.02428
 C2022 C 0.38397 0.49972 -0.02259
 C2023 C 0.34573 0.50607 -0.02553
 C2024 C 0.34870 0.52725 -0.01814
 C2025 C 0.36896 0.53473 -0.01282
 C2026 C 0.38644 0.52110 -0.01479
 H2027 H 0.32961 0.50073 -0.02865
 H2028 H 0.33516 0.53782 -0.01623
 H2029 H 0.37111 0.55111 -0.00683
 H2030 H 0.40178 0.52735 -0.00988
 H2031 H 0.37673 0.44007 -0.04200
 H2032 H 0.41188 0.45391 -0.03404
 C2033 C 0.35245 0.44932 0.78830
 C2034 C 0.37077 0.45987 0.78007
 C2035 C 0.36861 0.47667 0.76486
 C2036 C 0.34857 0.48316 0.75769
 C2037 C 0.33025 0.47299 0.76559
 C2038 C 0.33201 0.45593 0.78099
 C2039 C 0.35398 0.43271 0.80411
 C2040 C 0.33577 0.42297 0.81261
 C2041 C 0.31577 0.42954 0.80557
 C2042 C 0.31384 0.44578 0.78987
 H2043 H 0.36921 0.42726 0.81019
 H2044 H 0.33717 0.41035 0.82480
 H2045 H 0.30166 0.42203 0.81231
 H2046 H 0.29799 0.45051 0.78500
 H2047 H 0.38256 0.48495 0.75868
 H2048 H 0.34732 0.49632 0.74605
 C2049 C 0.36736 -0.05103 0.28944
 C2050 C 0.38625 -0.04204 0.28069
 C2051 C 0.38508 -0.02593 0.26462
 C2052 C 0.36544 -0.01853 0.25719
 C2053 C 0.34659 -0.02704 0.26572
 C2054 C 0.34736 -0.04351 0.28183
 C2055 C 0.36791 -0.06702 0.30599
 C2056 C 0.34916 -0.07545 0.31467
 C2057 C 0.32959 -0.06820 0.30711
 C2058 C 0.32861 -0.05241 0.29085
 H2059 H 0.38277 -0.07307 0.31243
 H2060 H 0.34983 -0.08767 0.32734
 H2061 H 0.31507 -0.07478 0.31390
 H2062 H 0.31309 -0.04708 0.28560
 H2063 H 0.39947 -0.01884 0.25805
 H2064 H 0.36493 -0.00587 0.24493
 C2065 C 0.11839 0.52833 0.73383
 C2066 C 0.11576 0.53496 0.71168
 C2067 C 0.13253 0.53224 0.69691
 C2068 C 0.15189 0.52395 0.70381
 C2069 C 0.15530 0.51828 0.72578
 C2070 C 0.13840 0.52006 0.74097
 C2071 C 0.10146 0.52928 0.74893
 C2072 C 0.10428 0.52270 0.77060
 C2073 C 0.12381 0.51474 0.77757
 C2074 C 0.14070 0.51324 0.76291
 H2075 H 0.08585 0.53477 0.74409
 H2076 H 0.09116 0.52355 0.78200
 H2077 H 0.12581 0.50943 0.79435
 H2078 H 0.15535 0.50630 0.76883
 H2079 H 0.13085 0.53724 0.67997
 H2080 H 0.16464 0.52271 0.69198
 C2081 C 0.14651 0.03961 0.20002
 C2082 C 0.13131 0.03986 0.21715
 C2083 C 0.13763 0.03431 0.23846
 C2084 C 0.15842 0.02771 0.24283
 C2085 C 0.17346 0.02606 0.22597
 C2086 C 0.16757 0.03229 0.20432
 C2087 C 0.14131 0.04699 0.17872
 C2088 C 0.15592 0.04578 0.16172
 C2089 C 0.17618 0.03802 0.16573
 C2090 C 0.18225 0.03202 0.18685
 H2091 H 0.12602 0.05394 0.17491
 H2092 H 0.15155 0.05104 0.14540
 H2093 H 0.18727 0.03687 0.15238
 H2094 H 0.19852 0.02740 0.18923
 H2095 H 0.12625 0.03473 0.25175
 H2096 H 0.16270 0.02337 0.25947
 C2097 C 0.61728 0.69335 0.21868
 C2098 C 0.63497 0.70629 0.22492
 C2099 C 0.63190 0.72456 0.23814
 C2100 C 0.61163 0.73010 0.24540
 C2101 C 0.59393 0.71743 0.23975
 C2102 C 0.59663 0.69892 0.22621
 C2103 C 0.61954 0.67560 0.20416
 C2104 C 0.60191 0.66363 0.19730
 C2105 C 0.58176 0.66910 0.20461
 C2106 C 0.57909 0.68649 0.21893
 H2107 H 0.63480 0.67105 0.19756
 H2108 H 0.60389 0.65019 0.18608
 H2109 H 0.56808 0.65991 0.19902
 H2110 H 0.56313 0.69024 0.22388
 H2111 H 0.64529 0.73474 0.24267
 H2112 H 0.60969 0.74451 0.25535
 C2113 C 0.13046 0.74466 0.72876
 C2114 C 0.13395 0.72219 0.72560
 C2115 C 0.11784 0.70748 0.73115
 C2116 C 0.09814 0.71461 0.73817
 C2117 C 0.09363 0.73672 0.73970
 C2118 C 0.11010 0.75200 0.73582
 C2119 C 0.14688 0.75995 0.72556
 C2120 C 0.14328 0.78196 0.72887
 C2121 C 0.12346 0.78912 0.73580
 C2122 C 0.10707 0.77432 0.73945
 H2123 H 0.16271 0.75503 0.72094
 H2124 H 0.15602 0.79350 0.72637
 H2125 H 0.12088 0.80620 0.73869
 H2126 H 0.09228 0.78050 0.74574
 H2127 H 0.12009 0.69024 0.72891
 H2128 H 0.08591 0.70265 0.74132
 C2129 C 0.62633 0.22272 0.50605
 C2130 C 0.62241 0.21969 0.52875
 C2131 C 0.63857 0.22433 0.54392
 C2132 C 0.65851 0.23093 0.53707
 C2133 C 0.66329 0.23289 0.51476
 C2134 C 0.64699 0.22934 0.49897
 C2135 C 0.61008 0.21991 0.49028
 C2136 C 0.61411 0.22316 0.46805
 C2137 C 0.63421 0.22964 0.46116
 C2138 C 0.65047 0.23291 0.47642
 H2139 H 0.59407 0.21558 0.49498
 H2140 H 0.60149 0.22093 0.45614
 H2141 H 0.63713 0.23246 0.44391
 H2142 H 0.66552 0.23878 0.47040
 H2143 H 0.63598 0.22208 0.56134
 H2144 H 0.67063 0.23373 0.54941
 C2145 C 0.63244 0.69705 0.03120
 C2146 C 0.61701 0.71373 0.03225
 C2147 C 0.62293 0.73503 0.02735
 C2148 C 0.64369 0.74001 0.02119
 C2149 C 0.65916 0.72384 0.01946
 C2150 C 0.65357 0.70207 0.02446
 C2151 C 0.62765 0.67564 0.03788
 C2152 C 0.64280 0.65936 0.03666
 C2153 C 0.66317 0.66414 0.02956
 C2154 C 0.66872 0.68529 0.02410
 H2155 H 0.61237 0.67115 0.04447
 H2156 H 0.63877 0.64301 0.04151
 H2157 H 0.67480 0.65140 0.02860
 H2158 H 0.68501 0.68825 0.02000
 H2159 H 0.61141 0.74795 0.02850
 H2160 H 0.64773 0.75672 0.01771
 C2161 C 0.12316 0.02161 0.01441
 C2162 C 0.12913 0.02642 0.03651
 C2163 C 0.11448 0.02188 0.05331
 C2164 C 0.09392 0.01492 0.04858
 C2165 C 0.08713 0.01182 0.02693
 C2166 C 0.10209 0.01415 0.00968
 C2167 C 0.13809 0.02238 -0.00289
 C2168 C 0.13225 0.01700 -0.02429
 C2169 C 0.11172 0.00994 -0.02886
 C2170 C 0.09688 0.00817 -0.01206
 H2171 H 0.15459 0.02642 -0.00004
 H2172 H 0.14388 0.01777 -0.03730
 H2173 H 0.10742 0.00524 -0.04541
 H2174 H 0.08164 0.00121 -0.01617
 H2175 H 0.11840 0.02519 0.07031
 H2176 H 0.08290 0.01287 0.06200
 C2177 C 0.11615 0.51707 0.52126
 C2178 C 0.12063 0.53823 0.52917
 C2179 C 0.10417 0.55331 0.53082
 C2180 C 0.08345 0.54770 0.52526
 C2181 C 0.07846 0.52679 0.51797
 C2182 C 0.09485 0.51130 0.51561
 C2183 C 0.13244 0.50173 0.51822
 C2184 C 0.12783 0.48112 0.51007
 C2185 C 0.10706 0.47552 0.50450
 C2186 C 0.09071 0.49046 0.50705
 H2187 H 0.14888 0.50558 0.52177
 H2188 H 0.14048 0.46952 0.50782
 H2189 H 0.10363 0.45958 0.49792
 H2190 H 0.07495 0.48565 0.50191
 H2191 H 0.10734 0.56952 0.53686
 H2192 H 0.07109 0.55975 0.52697
 C2193 C 0.62697 0.01134 0.53013
 C2194 C 0.63033 0.03329 0.53622
 C2195 C 0.61335 0.04783 0.53521
 C2196 C 0.59323 0.04101 0.52879
 C2197 C 0.58927 0.01934 0.52332
 C2198 C 0.60621 0.00428 0.52373
 C2199 C 0.64385 -0.00361 0.52964
 C2200 C 0.64032 -0.02507 0.52341
 C2201 C 0.62007 -0.03195 0.51724
 C2202 C 0.60317 -0.01743 0.51721
 H2203 H 0.65993 0.00115 0.53371
 H2204 H 0.65341 -0.03636 0.52313
 H2205 H 0.61750 -0.04857 0.51219
 H2206 H 0.58788 -0.02330 0.51166
 H2207 H 0.61561 0.06464 0.53982
 H2208 H 0.58045 0.05272 0.52859
 C2209 C 0.60540 0.53740 0.04671
 C2210 C 0.62061 0.53757 0.02953
 C2211 C 0.61404 0.53318 0.00802
 C2212 C 0.59292 0.52791 0.00338
 C2213 C 0.57774 0.52671 0.02012
 C2214 C 0.58383 0.53186 0.04201
 C2215 C 0.61107 0.54324 0.06842
 C2216 C 0.59609 0.54301 0.08517
 C2217 C 0.57510 0.53754 0.08062
 C2218 C 0.56888 0.53238 0.05926
 H2219 H 0.62702 0.54831 0.07269
 H2220 H 0.60074 0.54734 0.10173
 H2221 H 0.56355 0.53755 0.09369
 H2222 H 0.55223 0.52917 0.05651
 H2223 H 0.62544 0.53354 -0.00526
 H2224 H 0.58844 0.52437 -0.01344
 C2225 C 0.01828 0.02685 0.13898
 C2226 C 0.04048 0.03038 0.14230
 C2227 C 0.05446 0.02548 0.12503
 C2228 C 0.04692 0.01926 0.10448
 C2229 C 0.02515 0.01731 0.10033
 C2230 C 0.01064 0.02020 0.11788
 C2231 C 0.00367 0.02806 0.15653
 C2232 C -0.01788 0.02388 0.15324
 C2233 C -0.02528 0.01766 0.13266
 C2234 C -0.01119 0.01548 0.11524
 H2235 H 0.00876 0.03151 0.17313
 H2236 H -0.02881 0.02497 0.16686
 H2237 H -0.04196 0.01393 0.13032
 H2238 H -0.01747 0.00927 0.10000
 H2239 H 0.07144 0.02785 0.12688
 H2240 H 0.05825 0.01667 0.09144
 C2241 C 0.00904 0.53949 0.62494
 C2242 C 0.03100 0.54455 0.62700
 C2243 C 0.04426 0.54200 0.60876
 C2244 C 0.03616 0.53511 0.58866
 C2245 C 0.01447 0.53064 0.58595
 C2246 C 0.00070 0.53258 0.60422
 C2247 C -0.00472 0.54048 0.64316
 C2248 C -0.02619 0.53524 0.64097
 C2249 C -0.03431 0.52857 0.62078
 C2250 C -0.02102 0.52706 0.60260
 H2251 H 0.00098 0.54497 0.65930
 H2252 H -0.03655 0.53611 0.65509
 H2253 H -0.05094 0.52427 0.61927
 H2254 H -0.02784 0.52114 0.58745
 H2255 H 0.06106 0.54569 0.61003
 H2256 H 0.04692 0.53372 0.57488
 C2257 C 0.52031 0.02939 0.63315
 C2258 C 0.54247 0.03338 0.63626
 C2259 C 0.55652 0.02793 0.61922
 C2260 C 0.54901 0.02098 0.59890
 C2261 C 0.52722 0.01885 0.59486
 C2262 C 0.51270 0.02211 0.61229
 C2263 C 0.50570 0.03090 0.65069
 C2264 C 0.48417 0.02651 0.64752
 C2265 C 0.47678 0.01981 0.62709
 C2266 C 0.49088 0.01730 0.60972
 H2267 H 0.51078 0.03479 0.66720
 H2268 H 0.47324 0.02785 0.66112
 H2269 H 0.46011 0.01599 0.62483
 H2270 H 0.48463 0.01080 0.59457
 H2271 H 0.57347 0.03056 0.62099
 H2272 H 0.56034 0.01823 0.58585
 C2273 C 0.52110 0.51399 0.12690
 C2274 C 0.52811 0.53540 0.13148
 C2275 C 0.52606 0.55138 0.11535
 C2276 C 0.51833 0.54628 0.09456
 C2277 C 0.51244 0.52504 0.08921
 C2278 C 0.51314 0.50878 0.10559
 C2279 C 0.52124 0.49779 0.14321
 C2280 C 0.51394 0.47693 0.13858
 C2281 C 0.50603 0.47189 0.11785
 C2282 C 0.50542 0.48765 0.10153
 H2283 H 0.52660 0.50114 0.15975
 H2284 H 0.51414 0.46470 0.15126
 H2285 H 0.50006 0.45576 0.11447
 H2286 H 0.49835 0.48321 0.08597
 H2287 H 0.53115 0.56784 0.11867
 H2288 H 0.51776 0.55891 0.08226
 C2289 C 0.19707 0.54824 0.63289
 C2290 C 0.20355 0.53597 0.61445
 C2291 C 0.21518 0.51695 0.61748
 C2292 C 0.22102 0.51028 0.63850
 C2293 C 0.21542 0.52251 0.65695
 C2294 C 0.20315 0.54154 0.65431
 C2295 C 0.18436 0.56689 0.63045
 C2296 C 0.17788 0.57871 0.64868
 C2297 C 0.18384 0.57221 0.66959
 C2298 C 0.19638 0.55388 0.67251
 H2299 H 0.17911 0.57242 0.61452
 H2300 H 0.16808 0.59291 0.64658
 H2301 H 0.17853 0.58142 0.68354
 H2302 H 0.20042 0.54937 0.68909
 H2303 H 0.21990 0.50733 0.60345
 H2304 H 0.23030 0.49567 0.64037
 C2305 C 0.22041 0.05511 0.13121
 C2306 C 0.21645 0.03866 0.11515
 C2307 C 0.22029 0.01697 0.12069
 C2308 C 0.22889 0.01142 0.14094
 C2309 C 0.23376 0.02724 0.15664
 C2310 C 0.22921 0.04933 0.15203
 C2311 C 0.21359 0.07676 0.12811
 C2312 C 0.21664 0.09246 0.14423
 C2313 C 0.22564 0.08691 0.16420
 C2314 C 0.23144 0.06560 0.16829
 H2315 H 0.20499 0.08180 0.11368
 H2316 H 0.21143 0.10890 0.14144
 H2317 H 0.22751 0.09907 0.17684
 H2318 H 0.23684 0.06209 0.18461
 H2319 H 0.21716 0.00412 0.10896
 H2320 H 0.23180 -0.00551 0.14438
 C2321 C 0.73225 0.22494 0.62609
 C2322 C 0.71175 0.21550 0.62817
 C2323 C 0.69850 0.21404 0.60971
 C2324 C 0.70547 0.22097 0.58925
 C2325 C 0.72587 0.22962 0.58660
 C2326 C 0.73937 0.23200 0.60509
 C2327 C 0.74568 0.22795 0.64446
 C2328 C 0.76573 0.23735 0.64213
 C2329 C 0.77268 0.24416 0.62162
 C2330 C 0.75963 0.24167 0.60325
 H2331 H 0.74074 0.22336 0.66078
 H2332 H 0.77585 0.23953 0.65636
 H2333 H 0.78818 0.25163 0.61997
 H2334 H 0.76538 0.24769 0.58772
 H2335 H 0.68280 0.20692 0.61105
 H2336 H 0.69508 0.21890 0.57520
 C2337 C 0.69281 0.71500 0.11588
 C2338 C 0.70878 0.71543 0.13242
 C2339 C 0.72950 0.72165 0.12691
 C2340 C 0.73465 0.72743 0.10553
 C2341 C 0.71923 0.72742 0.08892
 C2342 C 0.69803 0.72124 0.09400
 C2343 C 0.67202 0.70739 0.12027
 C2344 C 0.65656 0.70685 0.10388
 C2345 C 0.66158 0.71321 0.08270
 C2346 C 0.68214 0.71991 0.07762
 H2347 H 0.66743 0.70146 0.13621
 H2348 H 0.64066 0.70121 0.10759
 H2349 H 0.64950 0.71265 0.07010
 H2350 H 0.68544 0.72362 0.06072
 H2351 H 0.74191 0.72171 0.13928
 H2352 H 0.75092 0.73194 0.10187
 C2353 C 0.56150 0.71385 0.14290
 C2354 C 0.54502 0.71174 0.12699
 C2355 C 0.52397 0.71544 0.13330
 C2356 C 0.51901 0.72126 0.15474
 C2357 C 0.53493 0.72432 0.17057
 C2358 C 0.55655 0.72102 0.16459
 C2359 C 0.58275 0.70831 0.13796
 C2360 C 0.59899 0.71169 0.15316
 C2361 C 0.59437 0.71994 0.17378
 C2362 C 0.57339 0.72396 0.17972
 H2363 H 0.58711 0.70110 0.12247
 H2364 H 0.61523 0.70779 0.14895
 H2365 H 0.60709 0.72279 0.18541
 H2366 H 0.57077 0.72921 0.19630
 H2367 H 0.51117 0.71383 0.12147
 H2368 H 0.50247 0.72367 0.15895
 C2369 C 0.06209 0.71914 0.64132
 C2370 C 0.04686 0.71873 0.62405
 C2371 C 0.02600 0.72534 0.62825
 C2372 C 0.02000 0.73231 0.64902
 C2373 C 0.03471 0.73325 0.66625
 C2374 C 0.05602 0.72670 0.66254
 C2375 C 0.08300 0.71144 0.63826
 C2376 C 0.09778 0.71202 0.65532
 C2377 C 0.09195 0.71968 0.67587
 C2378 C 0.07124 0.72661 0.67964
 H2379 H 0.08813 0.70461 0.62285
 H2380 H 0.11380 0.70628 0.65263
 H2381 H 0.10349 0.71998 0.68903
 H2382 H 0.06733 0.73165 0.69609
 H2383 H 0.01417 0.72498 0.61529
 H2384 H 0.00365 0.73706 0.65168
 C2385 C 0.51087 0.61615 0.23039
 C2386 C 0.53237 0.61006 0.22707
 C2387 C 0.54854 0.62490 0.23231
 C2388 C 0.54381 0.64574 0.23919
 C2389 C 0.52281 0.65295 0.24010
 C2390 C 0.50604 0.63785 0.23675
 C2391 C 0.49411 0.60102 0.22821
 C2392 C 0.47310 0.60720 0.23162
 C2393 C 0.46840 0.62836 0.23771
 C2394 C 0.48466 0.64352 0.24050
 H2395 H 0.49710 0.58421 0.22439
 H2396 H 0.46043 0.59542 0.22986
 H2397 H 0.45208 0.63295 0.24069
 H2398 H 0.48034 0.65943 0.24629
 H2399 H 0.56510 0.62068 0.23023
 H2400 H 0.55682 0.65662 0.24297
 C2401 C 0.01936 0.62992 0.72441
 C2402 C 0.04031 0.62699 0.71641
 C2403 C 0.05503 0.64401 0.71819
 C2404 C 0.04909 0.66401 0.72668
 C2405 C 0.02825 0.66766 0.73360
 C2406 C 0.01326 0.65047 0.73295
 C2407 C 0.00444 0.61278 0.72452
 C2408 C -0.01609 0.61594 0.73240
 C2409 C -0.02208 0.63606 0.74056
 C2410 C -0.00757 0.65317 0.74099
 H2411 H 0.00854 0.59674 0.71884
 H2412 H -0.02736 0.60265 0.73235
 H2413 H -0.03799 0.63835 0.74682
 H2414 H -0.01271 0.66836 0.74802
 H2415 H 0.07112 0.64199 0.71230
 H2416 H 0.06062 0.67706 0.72689
 C2417 C 0.05759 0.10800 0.03734
 C2418 C 0.04208 0.12435 0.04145
 C2419 C 0.02054 0.11839 0.04208
 C2420 C 0.01404 0.09738 0.03718
 C2421 C 0.02878 0.08132 0.03182
 C2422 C 0.05084 0.08640 0.03245
 C2423 C 0.07967 0.11209 0.03987
 C2424 C 0.09459 0.09591 0.03630
 C2425 C 0.08799 0.07508 0.03109
 C2426 C 0.06641 0.07021 0.02963
 H2427 H 0.08578 0.12753 0.04537
 H2428 H 0.11137 0.09944 0.03813
 H2429 H 0.09964 0.06248 0.02876
 H2430 H 0.06223 0.05351 0.02704
 H2431 H 0.00844 0.13033 0.04554
 H2432 H -0.00281 0.09372 0.03720
 C2433 C 0.02041 0.63619 0.51380
 C2434 C 0.02953 0.63814 0.53506
 C2435 C 0.03018 0.62003 0.54882
 C2436 C 0.02277 0.60003 0.54162
 C2437 C 0.01471 0.59744 0.52037
 C2438 C 0.01312 0.61557 0.50633
 C2439 C 0.01793 0.65432 0.49999
 C2440 C 0.00895 0.65208 0.47915
 C2441 C 0.00204 0.63189 0.47179
 C2442 C 0.00394 0.61378 0.48525
 H2443 H 0.02255 0.67039 0.50526
 H2444 H 0.00718 0.66612 0.46873
 H2445 H -0.00506 0.63029 0.45566
 H2446 H -0.00212 0.59851 0.47914
 H2447 H 0.03709 0.62123 0.56509
 H2448 H 0.02390 0.58626 0.55255
 C2449 C 0.53402 0.12673 0.51873
 C2450 C 0.54445 0.12921 0.53929
 C2451 C 0.54616 0.11138 0.55332
 C2452 C 0.53821 0.09121 0.54719
 C2453 C 0.52840 0.08819 0.52677
 C2454 C 0.52600 0.10601 0.51240
 C2455 C 0.53078 0.14451 0.50460
 C2456 C 0.52027 0.14185 0.48459
 C2457 C 0.51252 0.12160 0.47841
 C2458 C 0.51517 0.10385 0.49220
 H2459 H 0.53600 0.16065 0.50895
 H2460 H 0.51794 0.15562 0.47392
 H2461 H 0.50416 0.11969 0.46297
 H2462 H 0.50833 0.08858 0.48708
 H2463 H 0.55393 0.11307 0.56913
 H2464 H 0.54004 0.07771 0.55834
 C2465 C 0.50759 0.63266 0.02876
 C2466 C 0.52943 0.63555 0.03376
 C2467 C 0.54348 0.61827 0.03085
 C2468 C 0.53619 0.59813 0.02387
 C2469 C 0.51460 0.59457 0.01954
 C2470 C 0.50014 0.61204 0.02140
 C2471 C 0.49310 0.64996 0.03035
 C2472 C 0.47176 0.64703 0.02484
 C2473 C 0.46455 0.62700 0.01734
 C2474 C 0.47857 0.60969 0.01545
 H2475 H 0.49815 0.66594 0.03554
 H2476 H 0.46083 0.66044 0.02611
 H2477 H 0.44804 0.62492 0.01272
 H2478 H 0.47249 0.59471 0.00878
 H2479 H 0.56023 0.62028 0.03454
 H2480 H 0.54747 0.58498 0.02246
 C2481 C 0.69335 0.13844 0.53230
 C2482 C 0.70859 0.12177 0.53611
 C2483 C 0.73026 0.12660 0.53334
 C2484 C 0.73692 0.14676 0.52589
 C2485 C 0.72228 0.16300 0.52094
 C2486 C 0.70025 0.15904 0.52435
 C2487 C 0.67167 0.13585 0.53806
 C2488 C 0.65697 0.15219 0.53428
 C2489 C 0.66357 0.17183 0.52569
 C2490 C 0.68497 0.17549 0.52133
 H2491 H 0.66579 0.12156 0.54621
 H2492 H 0.64043 0.14976 0.53849
 H2493 H 0.65210 0.18450 0.52296
 H2494 H 0.68927 0.19152 0.51612
 H2495 H 0.74225 0.11441 0.53629
 H2496 H 0.75379 0.14965 0.52377
 C2497 C 0.70904 0.63385 0.05121
 C2498 C 0.70787 0.61822 0.03411
 C2499 C 0.71346 0.62416 0.01276
 C2500 C 0.72051 0.64506 0.00813
 C2501 C 0.72234 0.66074 0.02471
 C2502 C 0.71640 0.65524 0.04652
 C2503 C 0.70204 0.62899 0.07268
 C2504 C 0.70297 0.64447 0.08929
 C2505 C 0.71025 0.66522 0.08479
 C2506 C 0.71646 0.67074 0.06360
 H2507 H 0.69547 0.61337 0.07687
 H2508 H 0.69775 0.64042 0.10569
 H2509 H 0.71081 0.67715 0.09776
 H2510 H 0.72089 0.68732 0.06082
 H2511 H 0.71241 0.61246 -0.00047
 H2512 H 0.72468 0.64902 -0.00862
 C2513 C 0.18819 0.61267 0.71829
 C2514 C 0.20418 0.62832 0.71371
 C2515 C 0.22559 0.62246 0.71511
 C2516 C 0.23143 0.60160 0.72114
 C2517 C 0.21609 0.58590 0.72624
 C2518 C 0.19415 0.59138 0.72489
 C2519 C 0.16637 0.61740 0.71541
 C2520 C 0.15079 0.60196 0.71979
 C2521 C 0.15652 0.58136 0.72651
 C2522 C 0.17788 0.57595 0.72867
 H2523 H 0.16103 0.63285 0.70933
 H2524 H 0.13417 0.60590 0.71761
 H2525 H 0.14435 0.56934 0.72958
 H2526 H 0.18124 0.55940 0.73261
 H2527 H 0.23793 0.63417 0.71144
 H2528 H 0.24818 0.59769 0.72190
 C2529 C 0.24205 0.12776 0.21299
 C2530 C 0.21954 0.13050 0.21279
 C2531 C 0.20670 0.11379 0.22109
 C2532 C 0.21533 0.09424 0.22766
 C2533 C 0.23723 0.09054 0.22663
 C2534 C 0.25091 0.10762 0.21996
 C2535 C 0.25605 0.14504 0.20802
 C2536 C 0.27800 0.14229 0.20874
 C2537 C 0.28654 0.12259 0.21516
 C2538 C 0.27322 0.10553 0.22105
 H2539 H 0.25030 0.16105 0.20422
 H2540 H 0.28844 0.15567 0.20477
 H2541 H 0.30361 0.12070 0.21613
 H2542 H 0.28064 0.09108 0.22720
 H2543 H 0.18954 0.11521 0.22119
 H2544 H 0.20455 0.08148 0.23273
 C2545 C 0.74116 1.13137 0.71860
 C2546 C 0.71870 1.13478 0.71754
 C2547 C 0.70525 1.11829 0.72536
 C2548 C 0.71322 1.09856 0.73226
 C2549 C 0.73497 1.09405 0.73146
 C2550 C 0.74926 1.11077 0.72531
 C2551 C 0.75580 1.14841 0.71491
 C2552 C 0.77763 1.14497 0.71625
 C2553 C 0.78542 1.12478 0.72208
 C2554 C 0.77145 1.10793 0.72694
 H2555 H 0.75063 1.16476 0.71173
 H2556 H 0.78856 1.15820 0.71322
 H2557 H 0.80239 1.12233 0.72350
 H2558 H 0.77826 1.09301 0.73276
 H2559 H 0.68813 1.11997 0.72489
 H2560 H 0.70200 1.08629 0.73750
 C2561 C 0.71365 0.60755 0.19087
 C2562 C 0.71622 0.62340 0.20763
 C2563 C 0.72398 0.61720 0.22822
 C2564 C 0.72942 0.59580 0.23241
 C2565 C 0.72759 0.57994 0.21606
 C2566 C 0.71969 0.58570 0.19501
 C2567 C 0.70415 0.61264 0.17046
 C2568 C 0.70166 0.59697 0.15420
 C2569 C 0.70796 0.57582 0.15807
 C2570 C 0.71648 0.57005 0.17834
 H2571 H 0.69816 0.62860 0.16688
 H2572 H 0.69457 0.60121 0.13859
 H2573 H 0.70591 0.56379 0.14536
 H2574 H 0.72011 0.55320 0.18080
 H2575 H 0.72570 0.62906 0.24123
 H2576 H 0.73518 0.59156 0.24860
 C2577 C 0.51854 0.12641 0.72117
 C2578 C 0.54054 0.12244 0.71786
 C2579 C 0.55517 0.13918 0.72184
 C2580 C 0.54846 0.15962 0.72814
 C2581 C 0.52686 0.16455 0.72952
 C2582 C 0.51164 0.14773 0.72675
 C2583 C 0.50333 0.10957 0.71997
 C2584 C 0.48184 0.11371 0.72340
 C2585 C 0.47512 0.13450 0.72862
 C2586 C 0.48985 0.15131 0.73056
 H2587 H 0.50787 0.09299 0.71692
 H2588 H 0.47038 0.10062 0.72237
 H2589 H 0.45846 0.13752 0.73164
 H2590 H 0.48406 0.16690 0.73573
 H2591 H 0.57205 0.13655 0.71976
 H2592 H 0.56036 0.17187 0.73152
 C2593 C 1.02328 0.12305 0.23098
 C2594 C 1.04398 0.12021 0.22225
 C2595 C 1.05724 0.13829 0.21962
 C2596 C 1.05023 0.15894 0.22499
 C2597 C 1.02976 0.16224 0.23316
 C2598 C 1.01608 0.14428 0.23634
 C2599 C 1.00973 0.10523 0.23498
 C2600 C 0.98946 0.10830 0.24360
 C2601 C 0.98239 0.12905 0.24862
 C2602 C 0.99556 0.14691 0.24517
 H2603 H 1.01473 0.08881 0.23178
 H2604 H 0.97923 0.09449 0.24655
 H2605 H 0.96668 0.13129 0.25542
 H2606 H 0.98964 0.16272 0.24966
 H2607 H 1.07303 0.13645 0.21286
 H2608 H 1.06073 0.17258 0.22226
 C2609 C 0.22720 0.62352 0.52064
 C2610 C 0.20647 0.62071 0.52927
 C2611 C 0.19308 0.63867 0.53123
 C2612 C 0.20002 0.65926 0.52538
 C2613 C 0.22055 0.66256 0.51733
 C2614 C 0.23429 0.64464 0.51463
 C2615 C 0.24087 0.60576 0.51736
 C2616 C 0.26112 0.60877 0.50865
 C2617 C 0.26804 0.62938 0.50281
 C2618 C 0.25477 0.64718 0.50562
 H2619 H 0.23597 0.58941 0.52122
 H2620 H 0.27144 0.59500 0.50624
 H2621 H 0.28371 0.63158 0.49588
 H2622 H 0.26056 0.66282 0.50038
 H2623 H 0.17721 0.63679 0.53784
 H2624 H 0.18947 0.67284 0.52771
 C2625 C 0.19909 0.13480 1.03932
 C2626 C 0.20606 0.11663 1.02716
 C2627 C 0.21957 0.11958 1.00922
 C2628 C 0.22662 0.14025 1.00350
 C2629 C 0.22065 0.15838 1.01582
 C2630 C 0.20652 0.15585 1.03371
 C2631 C 0.18458 0.13246 1.05680
 C2632 C 0.17712 0.15050 1.06807
 C2633 C 0.18409 0.17109 1.06237
 C2634 C 0.19889 0.17386 1.04561
 H2635 H 0.17850 0.11676 1.06158
 H2636 H 0.16568 0.14851 1.08114
 H2637 H 0.17770 0.18494 1.07086
 H2638 H 0.20371 0.19020 1.04158
 H2639 H 0.22503 0.10575 0.99989
 H2640 H 0.23724 0.14207 0.98967
 C2641 C 0.18537 0.71441 0.60904
 C2642 C 0.20072 0.71135 0.62587
 C2643 C 0.22223 0.71480 0.62125
 C2644 C 0.22875 0.72153 0.60057
 C2645 C 0.21399 0.72523 0.58375
 C2646 C 0.19202 0.72151 0.58784
 C2647 C 0.16361 0.70986 0.61257
 C2648 C 0.14867 0.71298 0.59599
 C2649 C 0.15511 0.72005 0.57544
 C2650 C 0.17655 0.72387 0.57120
 H2651 H 0.15790 0.70361 0.62801
 H2652 H 0.13203 0.70965 0.59902
 H2653 H 0.14345 0.72234 0.56264
 H2654 H 0.18074 0.72835 0.55472
 H2655 H 0.23415 0.71240 0.63388
 H2656 H 0.24556 0.72411 0.59774
 C2657 C 0.22910 0.21844 1.12169
 C2658 C 0.20773 0.21159 1.12463
 C2659 C 0.19334 0.21351 1.10714
 C2660 C 0.20010 0.22051 1.08658
 C2661 C 0.22151 0.22530 1.08272
 C2662 C 0.23601 0.22535 1.10058
 C2663 C 0.24361 0.21924 1.13943
 C2664 C 0.26444 0.22634 1.13638
 C2665 C 0.27111 0.23325 1.11582
 C2666 C 0.25702 0.23300 1.09813
 H2667 H 0.23893 0.21488 1.15589
 H2668 H 0.27535 0.22687 1.15014
 H2669 H 0.28717 0.23918 1.11364
 H2670 H 0.26250 0.23956 1.08277
 H2671 H 0.17686 0.20885 1.10923
 H2672 H 0.18867 0.22136 1.07328
 C2673 C 0.69181 0.52587 0.12464
 C2674 C 0.70671 0.52456 0.10722
 C2675 C 0.72733 0.51724 0.11153
 C2676 C 0.73331 0.51095 0.13261
 C2677 C 0.71879 0.51151 0.14996
 C2678 C 0.69780 0.51900 0.14609
 C2679 C 0.67141 0.53499 0.12153
 C2680 C 0.65698 0.53627 0.13871
 C2681 C 0.66266 0.52916 0.15946
 C2682 C 0.68294 0.52103 0.16331
 H2683 H 0.66640 0.54164 0.10601
 H2684 H 0.64138 0.54308 0.13596
 H2685 H 0.65137 0.53028 0.17269
 H2686 H 0.68687 0.51681 0.17994
 H2687 H 0.73895 0.51661 0.09848
 H2688 H 0.74945 0.50556 0.13541
 C2689 C 0.72322 1.01646 0.62422
 C2690 C 0.71583 1.03787 0.62085
 C2691 C 0.71691 1.05287 0.63811
 C2692 C 0.72452 1.04690 0.65863
 C2693 C 0.73099 1.02566 0.66267
 C2694 C 0.73077 1.01028 0.64537
 C2695 C 0.72387 1.00122 0.60693
 C2696 C 0.73136 0.98031 0.61049
 C2697 C 0.73865 0.97428 0.63115
 C2698 C 0.73855 0.98911 0.64843
 H2699 H 0.71895 1.00536 0.59046
 H2700 H 0.73173 0.96880 0.59708
 H2701 H 0.74468 0.95810 0.63374
 H2702 H 0.74502 0.98398 0.66399
 H2703 H 0.71144 1.06931 0.63579
 H2704 H 0.72486 1.05884 0.67167
 C2705 C 0.56499 0.22484 0.63762
 C2706 C 0.54935 0.21762 0.62232
 C2707 C 0.52788 0.21872 0.62801
 C2708 C 0.52169 0.22643 0.64841
 C2709 C 0.53661 0.23419 0.66371
 C2710 C 0.55858 0.23439 0.65791
 C2711 C 0.58693 0.22201 0.63356
 C2712 C 0.60219 0.23020 0.64794
 C2713 C 0.59600 0.24106 0.66680
 C2714 C 0.57453 0.24294 0.67192
 H2715 H 0.59260 0.21313 0.61948
 H2716 H 0.61891 0.22804 0.64449
 H2717 H 0.60794 0.24745 0.67792
 H2718 H 0.57104 0.25084 0.68715
 H2719 H 0.51573 0.21334 0.61658
 H2720 H 0.50490 0.22634 0.65230
 C2721 C 1.06414 0.21237 0.13955
 C2722 C 1.04873 0.21176 0.12247
 C2723 C 1.02790 0.21830 0.12679
 C2724 C 1.02213 0.22557 0.14753
 C2725 C 1.03706 0.22681 0.16456
 C2726 C 1.05831 0.22020 0.16072
 C2727 C 1.08501 0.20461 0.13633
 C2728 C 1.10000 0.20546 0.15317
 C2729 C 1.09440 0.21343 0.17366
 C2730 C 1.07373 0.22034 0.17762
 H2731 H 1.08996 0.19756 0.12096
 H2732 H 1.11599 0.19970 0.15038
 H2733 H 1.10609 0.21399 0.18662
 H2734 H 1.07004 0.22551 0.19407
 H2735 H 1.01595 0.21770 0.11396
 H2736 H 1.00580 0.23033 0.15032
 C2737 C 0.61012 0.20295 0.70519
 C2738 C 0.62907 0.21128 0.71461
 C2739 C 0.62795 0.22645 0.73168
 C2740 C 0.60835 0.23371 0.73932
 C2741 C 0.58942 0.22588 0.73012
 C2742 C 0.59014 0.21035 0.71297
 C2743 C 0.61061 0.18756 0.68801
 C2744 C 0.59183 0.17987 0.67855
 C2745 C 0.57229 0.18728 0.68599
 C2746 C 0.57138 0.20234 0.70303
 H2747 H 0.62546 0.18141 0.68170
 H2748 H 0.59244 0.16817 0.66532
 H2749 H 0.55776 0.18135 0.67852
 H2750 H 0.55587 0.20767 0.70827
 H2751 H 0.64239 0.23289 0.73896
 H2752 H 0.60793 0.24566 0.75235
 C2753 C 1.13238 0.23472 0.22538
 C2754 C 1.13492 0.21227 0.22116
 C2755 C 1.11881 0.19785 0.22745
 C2756 C 1.09973 0.20539 0.23591
 C2757 C 1.09598 0.22760 0.23817
 C2758 C 1.11273 0.24244 0.23391
 C2759 C 1.14908 0.24961 0.22178
 C2760 C 1.14639 0.27160 0.22611
 C2761 C 1.12724 0.27911 0.23447
 C2762 C 1.11062 0.26470 0.23855
 H2763 H 1.16448 0.24440 0.21607
 H2764 H 1.15934 0.28282 0.22328
 H2765 H 1.12538 0.29614 0.23816
 H2766 H 1.09643 0.27105 0.24600
 H2767 H 1.12052 0.18062 0.22466
 H2768 H 1.08731 0.19377 0.23949
 C2769 C 0.12085 0.74047 0.52086
 C2770 C 0.11659 0.71847 0.52582
 C2771 C 0.13214 0.70285 0.52161
 C2772 C 0.15221 0.70884 0.51436
 C2773 C 0.15745 0.73063 0.51124
 C2774 C 0.14145 0.74659 0.51343
 C2775 C 0.10497 0.75643 0.52268
 C2776 C 0.10934 0.77795 0.51749
 C2777 C 0.12940 0.78390 0.51003
 C2778 C 0.14528 0.76840 0.50781
 H2779 H 0.08897 0.75239 0.52769
 H2780 H 0.09700 0.79002 0.51894
 H2781 H 0.13258 0.80057 0.50564
 H2782 H 0.16029 0.77352 0.50103
 H2783 H 0.12911 0.68593 0.52512
 H2784 H 0.16409 0.69641 0.51232
 C2785 C 0.13684 0.19098 1.02167
 C2786 C 0.12224 0.20733 1.02808
 C2787 C 0.12813 0.22910 1.02584
 C2788 C 0.14807 0.23484 1.01791
 C2789 C 0.16244 0.21915 1.01056
 C2790 C 0.15619 0.19689 1.01107
 C2791 C 0.13300 0.16883 1.02617
 C2792 C 0.14595 0.15279 1.01750
 C2793 C 0.16329 0.15844 1.00476
 C2794 C 0.16873 0.18015 1.00202
 H2795 H 0.12017 0.16356 1.03661
 H2796 H 0.14249 0.13590 1.02065
 H2797 H 0.17312 0.14592 0.99768
 H2798 H 0.18271 0.18317 0.99256
 H2799 H 0.11733 0.24184 1.03066
 H2800 H 0.15232 0.25185 1.01745
 C2801 C 0.63351 0.54621 0.21202
 C2802 C 0.61710 0.53038 0.21158
 C2803 C 0.62212 0.50864 0.21528
 C2804 C 0.64291 0.50245 0.22006
 C2805 C 0.65931 0.51782 0.22147
 C2806 C 0.65474 0.53995 0.21711
 C2807 C 0.62943 0.56805 0.20652
 C2808 C 0.64559 0.58348 0.20690
 C2809 C 0.66620 0.57744 0.21204
 C2810 C 0.67090 0.55589 0.21655
 H2811 H 0.61385 0.57347 0.20155
 H2812 H 0.64215 0.60017 0.20290
 H2813 H 0.67865 0.58952 0.21223
 H2814 H 0.68734 0.55195 0.21909
 H2815 H 0.60978 0.49637 0.21462
 H2816 H 0.64618 0.48550 0.22299
 C2817 C 0.64564 1.05401 0.70892
 C2818 C 0.62796 1.04339 0.71843
 C2819 C 0.63113 1.02748 0.73438
 C2820 C 0.65161 1.02178 0.74088
 C2821 C 0.66937 1.03185 0.73156
 C2822 C 0.66654 1.04811 0.71543
 C2823 C 0.64296 1.07029 0.69290
 C2824 C 0.66050 1.08050 0.68354
 C2825 C 0.68094 1.07465 0.68979
 C2826 C 0.68399 1.05854 0.70545
 H2827 H 0.62735 1.07529 0.68749
 H2828 H 0.65822 1.09301 0.67136
 H2829 H 0.69450 1.08269 0.68252
 H2830 H 0.70010 1.05460 0.70979
 H2831 H 0.61765 1.01930 0.74169
 H2832 H 0.65365 1.00919 0.75304
 C2833 C 0.87101 0.47437 0.26675
 C2834 C 0.87350 0.45363 0.27632
 C2835 C 0.85660 0.43883 0.27554
 C2836 C 0.83702 0.44473 0.26679
 C2837 C 0.83377 0.46543 0.25819
 C2838 C 0.85100 0.48028 0.25754
 C2839 C 0.88805 0.48927 0.26581
 C2840 C 0.88541 0.50954 0.25621
 C2841 C 0.86591 0.51526 0.24713
 C2842 C 0.84887 0.50077 0.24763
 H2843 H 0.90361 0.48531 0.27219
 H2844 H 0.89863 0.52079 0.25560
 H2845 H 0.86404 0.53092 0.23947
 H2846 H 0.83420 0.50560 0.23982
 H2847 H 0.85827 0.42293 0.28277
 H2848 H 0.82394 0.43349 0.26800
 C2849 C 0.87060 0.95039 0.77700
 C2850 C 0.88427 0.96684 0.78549
 C2851 C 0.87714 0.98821 0.78605
 C2852 C 0.85688 0.99351 0.77875
 C2853 C 0.84317 0.97786 0.76964
 C2854 C 0.85060 0.95608 0.76750
 C2855 C 0.87595 0.92820 0.77867
 C2856 C 0.86348 0.91228 0.76884
 C2857 C 0.84523 0.91797 0.75754
 C2858 C 0.83862 0.93945 0.75711
 H2859 H 0.88955 0.92275 0.78794
 H2860 H 0.86801 0.89543 0.77000
 H2861 H 0.83568 0.90554 0.74968
 H2862 H 0.82395 0.94217 0.74862
 H2863 H 0.88727 1.00094 0.79255
 H2864 H 0.85185 1.01020 0.78027
 C2865 C 0.37729 0.26616 0.77201
 C2866 C 0.37405 0.28820 0.77760
 C2867 C 0.39073 0.30306 0.77517
 C2868 C 0.41073 0.29628 0.76860
 C2869 C 0.41474 0.27441 0.76422
 C2870 C 0.39781 0.25921 0.76519
 C2871 C 0.36047 0.25097 0.77256
 C2872 C 0.36384 0.22942 0.76672
 C2873 C 0.38382 0.22269 0.75988
 C2874 C 0.40063 0.23743 0.75892
 H2875 H 0.34455 0.25564 0.77711
 H2876 H 0.35080 0.21796 0.76720
 H2877 H 0.38625 0.20603 0.75501
 H2878 H 0.41562 0.23174 0.75267
 H2879 H 0.38848 0.31995 0.77932
 H2880 H 0.42347 0.30812 0.76791
 C2881 C 0.89272 0.30613 0.27562
 C2882 C 0.87745 0.28939 0.27866
 C2883 C 0.88346 0.26782 0.27552
 C2884 C 0.90414 0.26255 0.26955
 C2885 C 0.91960 0.27863 0.26631
 C2886 C 0.91389 0.30076 0.26924
 C2887 C 0.88779 0.32803 0.28011
 C2888 C 0.90288 0.34432 0.27740
 C2889 C 0.92332 0.33916 0.27086
 C2890 C 0.92894 0.31767 0.26731
 H2891 H 0.87244 0.33290 0.28614
 H2892 H 0.89878 0.36101 0.28068
 H2893 H 0.93499 0.35186 0.26888
 H2894 H 0.94526 0.31466 0.26344
 H2895 H 0.87205 0.25488 0.27803
 H2896 H 0.90819 0.24562 0.26761
 C2897 C 0.37428 0.76267 0.48090
 C2898 C 0.37802 0.78416 0.47366
 C2899 C 0.36117 0.79892 0.47334
 C2900 C 0.34077 0.79262 0.47919
 C2901 C 0.33644 0.77128 0.48535
 C2902 C 0.35326 0.75615 0.48670
 C2903 C 0.39100 0.74767 0.48301
 C2904 C 0.38706 0.72665 0.49027
 C2905 C 0.36653 0.72027 0.49584
 C2906 C 0.34978 0.73488 0.49425
 H2907 H 0.40726 0.75211 0.47944
 H2908 H 0.40003 0.71530 0.49179
 H2909 H 0.36363 0.70400 0.50170
 H2910 H 0.33423 0.72950 0.49940
 H2911 H 0.36369 0.81540 0.46784
 H2912 H 0.32806 0.80436 0.47811
 C2913 C 0.37662 0.27461 0.99230
 C2914 C 0.38187 0.27798 0.96996
 C2915 C 0.36684 0.27286 0.95371
 C2916 C 0.34663 0.26571 0.95917
 C2917 C 0.34049 0.26358 0.98111
 C2918 C 0.35576 0.26733 0.99794
 C2919 C 0.39181 0.27768 1.00913
 C2920 C 0.38654 0.27402 1.03100
 C2921 C 0.36627 0.26683 1.03649
 C2922 C 0.35107 0.26330 1.02015
 H2923 H 0.40796 0.28251 1.00553
 H2924 H 0.39835 0.27644 1.04373
 H2925 H 0.36239 0.26363 1.05346
 H2926 H 0.33593 0.25678 1.02505
 H2927 H 0.37045 0.27533 0.93652
 H2928 H 0.33535 0.26273 0.94605
 C2929 C 0.80163 0.45970 0.35500
 C2930 C 0.78535 0.45759 0.37096
 C2931 C 0.76409 0.45961 0.36463
 C2932 C 0.75872 0.46444 0.34302
 C2933 C 0.77444 0.46755 0.32705
 C2934 C 0.79617 0.46490 0.33292
 C2935 C 0.82323 0.45617 0.36038
 C2936 C 0.83911 0.45873 0.34476
 C2937 C 0.83382 0.46407 0.32333
 C2938 C 0.81261 0.46658 0.31728
 H2939 H 0.82816 0.45117 0.37658
 H2940 H 0.85559 0.45630 0.34923
 H2941 H 0.84622 0.46601 0.31128
 H2942 H 0.80940 0.46949 0.30021
 H2943 H 0.75154 0.45773 0.37660
 H2944 H 0.74208 0.46623 0.33882
 C2945 C 0.80892 0.95830 0.86245
 C2946 C 0.79623 0.96318 0.88096
 C2947 C 0.77745 0.97495 0.87825
 C2948 C 0.77122 0.98216 0.85757
 C2949 C 0.78360 0.97779 0.83907
 C2950 C 0.80250 0.96558 0.84130
 C2951 C 0.82755 0.94577 0.86443
 C2952 C 0.83943 0.94037 0.84597
 C2953 C 0.83297 0.94720 0.82529
 C2954 C 0.81475 0.95972 0.82287
 H2955 H 0.83295 0.93980 0.88015
 H2956 H 0.85359 0.93064 0.84769
 H2957 H 0.84203 0.94255 0.81105
 H2958 H 0.81015 0.96440 0.80646
 H2959 H 0.76750 0.97847 0.89227
 H2960 H 0.75659 0.99121 0.85597
 C2961 C 0.27191 0.78344 0.37209
 C2962 C 0.29345 0.79026 0.37111
 C2963 C 0.30636 0.78833 0.38977
 C2964 C 0.29823 0.78037 0.40935
 C2965 C 0.27689 0.77416 0.41097
 C2966 C 0.26355 0.77535 0.39221
 C2967 C 0.25864 0.78385 0.35336
 C2968 C 0.23760 0.77681 0.35451
 C2969 C 0.22946 0.76892 0.37413
 C2970 C 0.24229 0.76800 0.39279
 H2971 H 0.26441 0.78933 0.33763
 H2972 H 0.22762 0.77725 0.34002
 H2973 H 0.21319 0.76322 0.37483
 H2974 H 0.23550 0.76110 0.40748
 H2975 H 0.32289 0.79328 0.38922
 H2976 H 0.30859 0.77959 0.42357
 C2977 C 0.27370 0.27671 0.86792
 C2978 C 0.29419 0.28633 0.86688
 C2979 C 0.30738 0.28595 0.88545
 C2980 C 0.30032 0.27705 0.90511
 C2981 C 0.27988 0.26823 0.90680
 C2982 C 0.26648 0.26765 0.88808
 C2983 C 0.26037 0.27543 0.84927
 C2984 C 0.24033 0.26582 0.85054
 C2985 C 0.23328 0.25706 0.87024
 C2986 C 0.24623 0.25780 0.88883
 H2987 H 0.26536 0.28156 0.83350
 H2988 H 0.23029 0.26498 0.83611
 H2989 H 0.21779 0.24942 0.87106
 H2990 H 0.24041 0.25023 0.90362
 H2991 H 0.32314 0.29304 0.88485
 H2992 H 0.31063 0.27779 0.91935
 C2993 C 0.44380 0.28443 0.86347
 C2994 C 0.45879 0.28663 0.88079
 C2995 C 0.48025 0.28237 0.87690
 C2996 C 0.48708 0.27574 0.85626
 C2997 C 0.47267 0.27316 0.83885
 C2998 C 0.45078 0.27777 0.84227
 C2999 C 0.42218 0.28982 0.86647
 C3000 C 0.40771 0.28834 0.84920
 C3001 C 0.41451 0.28207 0.82851
 C3002 C 0.43581 0.27722 0.82491
 H3003 H 0.41623 0.29557 0.88203
 H3004 H 0.39120 0.29242 0.85180
 H3005 H 0.40324 0.28123 0.81511
 H3006 H 0.44028 0.27359 0.80830
 H3007 H 0.49182 0.28425 0.88997
 H3008 H 0.50384 0.27264 0.85382
 C3009 C 0.94834 0.29073 0.36224
 C3010 C 0.96317 0.29105 0.37982
 C3011 C 0.98441 0.28574 0.37588
 C3012 C 0.99101 0.27951 0.35500
 C3013 C 0.97657 0.27828 0.33748
 C3014 C 0.95504 0.28418 0.34094
 C3015 C 0.92707 0.29743 0.36523
 C3016 C 0.91259 0.29685 0.34795
 C3017 C 0.91908 0.29026 0.32727
 C3018 C 0.94014 0.28448 0.32359
 H3019 H 0.92137 0.30340 0.38080
 H3020 H 0.89629 0.30175 0.35055
 H3021 H 0.90773 0.28987 0.31401
 H3022 H 0.94460 0.28060 0.30704
 H3023 H 0.99593 0.28633 0.38912
 H3024 H 1.00754 0.27532 0.35256
 C3025 C 0.46025 0.36502 0.80330
 C3026 C 0.45910 0.38140 0.78705
 C3027 C 0.46588 0.37683 0.76569
 C3028 C 0.47419 0.35660 0.76033
 C3029 C 0.47633 0.34037 0.77622
 C3030 C 0.46924 0.34451 0.79799
 C3031 C 0.45198 0.36837 0.82460
 C3032 C 0.45378 0.35256 0.84068
 C3033 C 0.46309 0.33287 0.83573
 C3034 C 0.47014 0.32857 0.81453
 H3035 H 0.44385 0.38308 0.82910
 H3036 H 0.44776 0.35554 0.85703
 H3037 H 0.46462 0.32080 0.84837
 H3038 H 0.47607 0.31260 0.81140
 H3039 H 0.46483 0.38908 0.75306
 H3040 H 0.47919 0.35365 0.74360
 C3041 C 0.97393 0.37811 0.26361
 C3042 C 0.96660 0.38073 0.28544
 C3043 C 0.96914 0.36382 0.30046
 C3044 C 0.97768 0.34413 0.29395
 C3045 C 0.98393 0.34065 0.27219
 C3046 C 0.98268 0.35789 0.25691
 C3047 C 0.97313 0.39528 0.24840
 C3048 C 0.98054 0.39254 0.22705
 C3049 C 0.98915 0.37285 0.22054
 C3050 C 0.99040 0.35570 0.23530
 H3051 H 0.96712 0.41103 0.25293
 H3052 H 0.97983 0.40585 0.21556
 H3053 H 0.99514 0.37093 0.20402
 H3054 H 0.99786 0.34097 0.22974
 H3055 H 0.96363 0.36556 0.31719
 H3056 H 0.97857 0.33115 0.30584
 C3057 C 0.28097 0.87759 0.48494
 C3058 C 0.29049 0.87926 0.46390
 C3059 C 0.29148 0.86092 0.45041
 C3060 C 0.28360 0.84110 0.45744
 C3061 C 0.27465 0.83884 0.47830
 C3062 C 0.27314 0.85713 0.49226
 C3063 C 0.27843 0.89588 0.49860
 C3064 C 0.26891 0.89397 0.51914
 C3065 C 0.26145 0.87398 0.52632
 C3066 C 0.26336 0.85572 0.51300
 H3067 H 0.28345 0.91183 0.49348
 H3068 H 0.26712 0.90814 0.52945
 H3069 H 0.25390 0.87267 0.54220
 H3070 H 0.25684 0.84065 0.51896
 H3071 H 0.29869 0.86189 0.43432
 H3072 H 0.28481 0.82723 0.44657
 C3073 C 0.30655 0.35803 0.96165
 C3074 C 0.29102 0.37449 0.95937
 C3075 C 0.26967 0.36967 0.96366
 C3076 C 0.26351 0.34908 0.97040
 C3077 C 0.27851 0.33268 0.97333
 C3078 C 0.30028 0.33701 0.96886
 C3079 C 0.32807 0.36176 0.95615
 C3080 C 0.34318 0.34554 0.95855
 C3081 C 0.33713 0.32514 0.96580
 C3082 C 0.31590 0.32072 0.97051
 H3083 H 0.33348 0.37708 0.94967
 H3084 H 0.35964 0.34873 0.95452
 H3085 H 0.34893 0.31262 0.96752
 H3086 H 0.31196 0.30439 0.97517
 H3087 H 0.25764 0.38202 0.96180
 H3088 H 0.24683 0.34593 0.97345
 C3089 C 0.76160 0.36391 0.27362
 C3090 C 0.78390 0.36063 0.27513
 C3091 C 0.79762 0.37721 0.26839
 C3092 C 0.78983 0.39692 0.26123
 C3093 C 0.76806 0.40135 0.26130
 C3094 C 0.75361 0.38452 0.26688
 C3095 C 0.74705 0.34699 0.27788
 C3096 C 0.72523 0.35037 0.27620
 C3097 C 0.71747 0.37044 0.26981
 C3098 C 0.73146 0.38730 0.26495
 H3099 H 0.75236 0.33090 0.28203
 H3100 H 0.71428 0.33724 0.27956
 H3101 H 0.70051 0.37284 0.26820
 H3102 H 0.72474 0.40222 0.25908
 H3103 H 0.81470 0.37516 0.26918
 H3104 H 0.80106 0.40910 0.25606
   
