data_POSCAR
  _audit_creation_date              2014-09-24
  _audit_creation_method            'ToBaCCo'
  _symmetry_space_group_name_H-M    'P1'
  _symmetry_Int_Tables_number       1
  _symmetry_cell_setting            triclinic
  loop_
  _symmetry_equiv_pos_as_xyz
 x,y,z
_cell_length_a 53.7682
_cell_length_b 50.0034
_cell_length_c 53.5290
_cell_angle_alpha 89.894600
_cell_angle_beta 90.154800
_cell_angle_gamma 89.964000
loop_
  _atom_site_label
  _atom_site_type_symbol
  _atom_site_fract_x
  _atom_site_fract_y
  _atom_site_fract_z
C1 C 0.27896 0.35569 0.00246
 C2 C 0.29163 0.34758 0.02397
 C3 C 0.31555 0.33691 0.02193
 C4 C 0.32789 0.33608 -0.00132
 C5 C 0.31535 0.34643 -0.02255
 C6 C 0.29048 0.35539 -0.02110
 C7 C 0.35355 0.32426 -0.00328
 C8 C 0.36228 0.31348 -0.02602
 C9 C 0.38628 0.30225 -0.02794
 C10 C 0.40063 0.29975 -0.00602
 C11 C 0.39194 0.30900 0.01707
 C12 C 0.36916 0.32260 0.01791
 H13 H 0.26077 0.36471 0.00463
 H14 H 0.32415 0.32935 0.03878
 H15 H 0.32461 0.34690 -0.04040
 H16 H 0.35066 0.31435 -0.04244
 H17 H 0.41780 0.28847 -0.00652
 H18 H 0.36370 0.33147 0.03543
 C19 C 0.72023 0.63840 0.00096
 C20 C 0.71102 0.64533 0.02447
 C21 C 0.68843 0.65925 0.02615
 C22 C 0.67406 0.66496 0.00457
 C23 C 0.68310 0.65593 -0.01876
 C24 C 0.70646 0.64370 -0.02066
 C25 C 0.65028 0.68078 0.00629
 C26 C 0.64063 0.69432 -0.01486
 C27 C 0.61913 0.71038 -0.01339
 C28 C 0.60755 0.71326 0.00998
 C29 C 0.61671 0.70019 0.03120
 C30 C 0.63762 0.68366 0.02922
 H31 H 0.73773 0.62773 -0.00053
 H32 H 0.68267 0.66580 0.04444
 H33 H 0.67241 0.65845 -0.03572
 H34 H 0.65069 0.69404 -0.03226
 H35 H 0.59095 0.72535 0.01185
 H36 H 0.64364 0.67317 0.04582
 C37 C 0.70196 0.38839 1.00397
 C38 C 0.69104 0.38021 0.98145
 C39 C 0.67643 0.35692 0.98116
 C40 C 0.67401 0.34072 1.00273
 C41 C 0.68648 0.34885 1.02476
 C42 C 0.69963 0.37300 1.02564
 C43 C 0.65907 0.31528 1.00224
 C44 C 0.64933 0.30428 1.02452
 C45 C 0.63733 0.27923 1.02473
 C46 C 0.63330 0.26623 1.00179
 C47 C 0.64075 0.27782 0.97919
 C48 C 0.65441 0.30168 0.97959
 H49 H 0.71344 0.40620 1.00449
 H50 H 0.66703 0.35182 0.96396
 H51 H 0.68622 0.33663 1.04143
 H52 H 0.65178 0.31473 1.04197
 H53 H 0.62232 0.24808 1.00120
 H54 H 0.66135 0.30925 0.96203
 C55 C 0.27439 0.63859 0.99693
 C56 C 0.28300 0.64759 0.97382
 C57 C 0.30491 0.66261 0.97268
 C58 C 0.31939 0.66736 0.99434
 C59 C 0.31100 0.65651 1.01728
 C60 C 0.28819 0.64299 1.01869
 C61 C 0.34286 0.68365 0.99286
 C62 C 0.35253 0.69691 1.01410
 C63 C 0.37444 0.71253 1.01288
 C64 C 0.38571 0.71577 0.98929
 C65 C 0.37619 0.70332 0.96798
 C66 C 0.35543 0.68673 0.96996
 H67 H 0.25741 0.62693 0.99786
 H68 H 0.31014 0.67061 0.95470
 H69 H 0.32185 0.65840 1.03420
 H70 H 0.34317 0.69461 1.03170
 H71 H 0.40106 0.72948 0.98676
 H72 H 0.34937 0.67642 0.95332
 C73 C 0.00720 0.29197 0.38674
 C74 C 0.02904 0.30462 0.37900
 C75 C 0.02820 0.32236 0.35873
 C76 C 0.00589 0.32678 0.34530
 C77 C -0.01591 0.31377 0.35347
 C78 C -0.01528 0.29654 0.37417
 C79 C 0.00580 0.34385 0.32226
 C80 C -0.01589 0.35750 0.31419
 C81 C -0.01577 0.37368 0.29245
 C82 C 0.00666 0.37569 0.27898
 C83 C 0.02824 0.36269 0.28688
 C84 C 0.02772 0.34660 0.30812
 H85 H 0.00775 0.27809 0.40232
 H86 H 0.04516 0.33261 0.35367
 H87 H -0.03323 0.31603 0.34334
 H88 H -0.03244 0.35666 0.32556
 H89 H 0.00763 0.38700 0.26176
 H90 H 0.04454 0.33597 0.31312
 C91 C -0.00305 0.70286 0.61162
 C92 C 0.02003 0.69336 0.62007
 C93 C 0.02099 0.67834 0.64231
 C94 C -0.00055 0.67431 0.65707
 C95 C -0.02319 0.68542 0.64852
 C96 C -0.02466 0.69869 0.62554
 C97 C 0.00051 0.65935 0.68149
 C98 C -0.02122 0.64795 0.69206
 C99 C -0.02100 0.63642 0.71615
 C100 C 0.00193 0.63445 0.72870
 C101 C 0.02395 0.64351 0.71781
 C102 C 0.02313 0.65660 0.69472
 H103 H -0.00422 0.71459 0.59462
 H104 H 0.03865 0.66980 0.64773
 H105 H -0.03998 0.68399 0.65947
 H106 H -0.03858 0.64876 0.68197
 H107 H 0.00321 0.62366 0.74623
 H108 H 0.04032 0.66464 0.68752
 C109 C 1.00861 0.69660 0.38603
 C110 C 0.98568 0.68742 0.37700
 C111 C 0.98491 0.67402 0.35401
 C112 C 1.00631 0.67182 0.33889
 C113 C 1.02883 0.68279 0.34788
 C114 C 1.03052 0.69417 0.37190
 C115 C 1.00507 0.65875 0.31362
 C116 C 1.02653 0.64747 0.30250
 C117 C 1.02593 0.63712 0.27800
 C118 C 1.00291 0.63627 0.26548
 C119 C 0.98109 0.64530 0.27684
 C120 C 0.98239 0.65739 0.30035
 H121 H 1.00901 0.70771 0.40337
 H122 H 0.96741 0.66545 0.34816
 H123 H 1.04531 0.68183 0.33650
 H124 H 1.04393 0.64739 0.31258
 H125 H 1.00138 0.62623 0.24763
 H126 H 0.96545 0.66562 0.30797
 C127 C 0.99046 0.29944 0.61681
 C128 C 0.96849 0.30291 0.63029
 C129 C 0.96923 0.31572 0.65353
 C130 C 0.99162 0.32685 0.66274
 C131 C 1.01345 0.32367 0.64835
 C132 C 1.01318 0.30914 0.62592
 C133 C 0.99224 0.34104 0.68745
 C134 C 1.01456 0.34316 0.70138
 C135 C 1.01507 0.35556 0.72496
 C136 C 0.99257 0.36500 0.73495
 C137 C 0.97050 0.36464 0.72100
 C138 C 0.97047 0.35274 0.69731
 H139 H 0.98990 0.28796 0.59967
 H140 H 0.95223 0.31679 0.66422
 H141 H 1.03084 0.33240 0.65432
 H142 H 1.03153 0.33421 0.69458
 H143 H 0.99243 0.37463 0.75304
 H144 H 0.95354 0.35351 0.68639
 C145 C 0.36490 0.01640 0.28279
 C146 C 0.35621 0.03934 0.29470
 C147 C 0.34392 0.03712 0.31756
 C148 C 0.34143 0.01210 0.32968
 C149 C 0.35197 -0.01065 0.31794
 C150 C 0.36305 -0.00898 0.29404
 C151 C 0.32789 0.00981 0.35429
 C152 C 0.31816 -0.01494 0.36266
 C153 C 0.30567 -0.01701 0.38561
 C154 C 0.30144 0.00606 0.39976
 C155 C 0.30961 0.03104 0.39133
 C156 C 0.32364 0.03261 0.36932
 H157 H 0.37507 0.01894 0.26550
 H158 H 0.33636 0.05524 0.32537
 H159 H 0.35101 -0.02987 0.32700
 H160 H 0.31982 -0.03280 0.35149
 H161 H 0.29040 0.00476 0.41663
 H162 H 0.33087 0.05198 0.36424
 C163 C 0.63740 -0.00826 0.72009
 C164 C 0.63723 0.01487 0.70547
 C165 C 0.64922 0.01487 0.68235
 C166 C 0.66131 -0.00834 0.67348
 C167 C 0.65970 -0.03206 0.68788
 C168 C 0.64753 -0.03229 0.71117
 C169 C 0.67515 -0.00764 0.64920
 C170 C 0.67874 -0.03102 0.63482
 C171 C 0.69220 -0.03019 0.61235
 C172 C 0.70096 -0.00551 0.60356
 C173 C 0.69745 0.01791 0.61729
 C174 C 0.68527 0.01665 0.64034
 H175 H 0.62740 -0.00791 0.73764
 H176 H 0.64816 0.03276 0.67101
 H177 H 0.66861 -0.05023 0.68161
 H178 H 0.67108 -0.04995 0.64078
 H179 H 0.71175 -0.00460 0.58650
 H180 H 0.68387 0.03478 0.65123
 C181 C 0.39252 1.00182 0.69215
 C182 C 0.38016 0.97770 0.68736
 C183 C 0.35673 0.97829 0.67568
 C184 C 0.34595 1.00263 0.66761
 C185 C 0.35908 1.02657 0.67247
 C186 C 0.38181 1.02635 0.68544
 C187 C 0.32086 1.00303 0.65501
 C188 C 0.30605 1.02647 0.65483
 C189 C 0.28238 1.02694 0.64348
 C190 C 0.27314 1.00313 0.63317
 C191 C 0.28777 0.98004 0.63193
 C192 C 0.31153 0.98005 0.64279
 H193 H 0.40985 1.00158 0.70254
 H194 H 0.34697 0.95958 0.67331
 H195 H 0.35193 1.04571 0.66641
 H196 H 0.31224 1.04433 0.66428
 H197 H 0.25512 1.00291 0.62409
 H198 H 0.32285 0.96232 0.64076
 C199 C 0.60599 0.99135 0.30728
 C200 C 0.62016 0.96821 0.31054
 C201 C 0.64399 0.97010 0.32082
 C202 C 0.65338 0.99469 0.32975
 C203 C 0.63865 1.01791 0.32602
 C204 C 0.61523 1.01670 0.31397
 C205 C 0.67848 0.99583 0.34246
 C206 C 0.69152 1.02023 0.34559
 C207 C 0.71496 1.02084 0.35729
 C208 C 0.72621 0.99684 0.36463
 C209 C 0.71377 0.97252 0.36201
 C210 C 0.68974 0.97222 0.35186
 H211 H 0.58859 0.98941 0.29725
 H212 H 0.65495 0.95204 0.32152
 H213 H 0.64481 1.03695 0.33311
 H214 H 0.68393 1.03896 0.33907
 H215 H 0.74419 0.99720 0.37385
 H216 H 0.68018 0.95328 0.35155
 O217 O 0.81357 0.84385 0.51580
 O218 O 0.85652 0.80443 0.47751
 O219 O 0.82278 0.84100 0.46883
 O220 O 0.84817 0.80874 0.52475
 O221 O 0.82149 0.77551 0.52050
 O222 O 0.79337 0.81039 0.46638
 O223 O 0.82781 0.77338 0.47249
 O224 O 0.78597 0.81123 0.51433
 Cu225 Cu 0.83807 0.82765 0.49701
 Cu226 Cu 0.80430 0.78939 0.49309
 C227 C 0.79239 0.83445 0.52151
 C228 C 0.84966 0.78209 0.46859
 C229 C 0.80323 0.83195 0.45858
 C230 C 0.83981 0.78624 0.53174
 O231 O 0.15491 0.19494 0.47996
 O232 O 0.17908 0.15668 0.53318
 O233 O 0.14547 0.19396 0.52691
 O234 O 0.18889 0.15871 0.48571
 O235 O 0.21737 0.18955 0.49287
 O236 O 0.17375 0.22482 0.53474
 O237 O 0.20736 0.18762 0.54055
 O238 O 0.18225 0.22690 0.48748
 Cu239 Cu 0.16438 0.17286 0.50583
 Cu240 Cu 0.19820 0.21028 0.51445
 C241 C 0.16379 0.21787 0.47518
 C242 C 0.19739 0.16528 0.54585
 C243 C 0.15188 0.21567 0.53741
 C244 C 0.21060 0.16794 0.48238
 O245 O 0.14744 0.80999 0.51571
 O246 O 0.18778 0.84639 0.47227
 O247 O 0.15477 0.80928 0.46814
 O248 O 0.18158 0.84725 0.52018
 O249 O 0.21088 0.81681 0.52514
 O250 O 0.18303 0.77773 0.47368
 O251 O 0.21701 0.81577 0.47709
 O252 O 0.17648 0.77943 0.52164
 Cu253 Cu 0.16502 0.83132 0.49376
 Cu254 Cu 0.19979 0.79433 0.49989
 C255 C 0.15466 0.78825 0.52567
 C256 C 0.20931 0.83749 0.46732
 C257 C 0.16398 0.78677 0.46234
 C258 C 0.20116 0.83905 0.53111
 O259 O 0.85073 0.18123 0.52570
 O260 O 0.82133 0.14368 0.47459
 O261 O 0.85701 0.17865 0.47796
 O262 O 0.81589 0.14581 0.52284
 O263 O 0.78791 0.17769 0.51770
 O264 O 0.82961 0.21098 0.47238
 O265 O 0.79376 0.17590 0.46939
 O266 O 0.82348 0.21380 0.52048
 Cu267 Cu 0.83892 0.15907 0.50073
 Cu268 Cu 0.80586 0.19784 0.49455
 C269 C 0.84237 0.20410 0.53162
 C270 C 0.80251 0.15325 0.46326
 C271 C 0.85063 0.20050 0.46768
 C272 C 0.79490 0.15597 0.52796
 O273 O 0.47622 0.84950 0.80352
 O274 O 0.51817 0.81800 0.84833
 O275 O 0.52415 0.85139 0.81150
 O276 O 0.47177 0.81424 0.83861
 O277 O 0.47912 0.78092 0.81264
 O278 O 0.53105 0.81858 0.78492
 O279 O 0.52613 0.78519 0.82194
 O280 O 0.48293 0.81710 0.77641
 Cu281 Cu 0.49693 0.83673 0.82793
 Cu282 Cu 0.50536 0.79722 0.79610
 C283 C 0.47218 0.83884 0.78246
 C284 C 0.52887 0.79609 0.84324
 C285 C 0.53671 0.84131 0.79375
 C286 C 0.46711 0.79079 0.83084
 O287 O 0.47102 0.15220 0.18514
 O288 O 0.52767 0.17438 0.15422
 O289 O 0.51798 0.14324 0.19205
 O290 O 0.48161 0.18530 0.14913
 O291 O 0.48304 0.21856 0.17616
 O292 O 0.52217 0.17719 0.21795
 O293 O 0.53034 0.20915 0.17937
 O294 O 0.47413 0.18471 0.21274
 Cu295 Cu 0.49927 0.16035 0.16767
 Cu296 Cu 0.50275 0.20071 0.19935
 C297 C 0.46294 0.16414 0.20434
 C298 C 0.53810 0.19608 0.16053
 C299 C 0.52631 0.15292 0.21234
 C300 C 0.47646 0.20926 0.15508
 O301 O 0.52412 0.14418 0.81236
 O302 O 0.47651 0.18474 0.84319
 O303 O 0.47673 0.15022 0.80709
 O304 O 0.52407 0.17784 0.84925
 O305 O 0.53171 0.21042 0.82254
 O306 O 0.48416 0.18237 0.77980
 O307 O 0.48390 0.21779 0.81685
 O308 O 0.53155 0.17670 0.78549
 Cu309 Cu 0.49963 0.16106 0.83068
 Cu310 Cu 0.50836 0.20027 0.79853
 C311 C 0.53575 0.15320 0.79351
 C312 C 0.47231 0.20835 0.83555
 C313 C 0.47278 0.16108 0.78601
 C314 C 0.53606 0.19874 0.84322
 O315 O 0.47317 0.82487 0.14909
 O316 O 0.52120 0.84947 0.19163
 O317 O 0.51983 0.81519 0.15594
 O318 O 0.47416 0.85904 0.18606
 O319 O 0.46464 0.82710 0.21282
 O320 O 0.51031 0.78267 0.18220
 O321 O 0.51203 0.81775 0.21882
 O322 O 0.46349 0.79273 0.17560
 Cu323 Cu 0.49785 0.84040 0.16805
 Cu324 Cu 0.48664 0.80187 0.20012
 C325 C 0.46057 0.80424 0.15459
 C326 C 0.52490 0.83797 0.21244
 C327 C 0.52271 0.79138 0.16370
 C328 C 0.46184 0.85084 0.20479
 O329 O 0.85077 0.52658 0.82569
 O330 O 0.80912 0.48308 0.86104
 O331 O 0.84476 0.47563 0.82881
 O332 O 0.81536 0.53372 0.85771
 O333 O 0.78707 0.53487 0.82780
 O334 O 0.81841 0.47765 0.79723
 O335 O 0.78196 0.48331 0.83008
 O336 O 0.82332 0.52953 0.79511
 Cu337 Cu 0.83272 0.50449 0.84631
 Cu338 Cu 0.79994 0.50641 0.80938
 C339 C 0.84439 0.53553 0.80442
 C340 C 0.78823 0.47622 0.85204
 C341 C 0.83728 0.46716 0.80777
 C342 C 0.79584 0.54383 0.84823
 O343 O 0.14607 0.51941 0.16763
 O344 O 0.18182 0.46789 0.13536
 O345 O 0.14691 0.46807 0.16813
 O346 O 0.18134 0.51980 0.13454
 O347 O 0.20979 0.52075 0.16427
 O348 O 0.17477 0.46861 0.19847
 O349 O 0.21010 0.46825 0.16528
 O350 O 0.17395 0.52075 0.19790
 Cu351 Cu 0.16135 0.49383 0.14835
 Cu352 Cu 0.19508 0.49481 0.18448
 C353 C 0.15345 0.52858 0.18846
 C354 C 0.20184 0.45891 0.14479
 C355 C 0.15474 0.45953 0.18906
 C356 C 0.20146 0.52910 0.14342
 O357 O 0.82376 0.52390 0.14022
 O358 O 0.85761 0.47437 0.17755
 O359 O 0.82220 0.47230 0.14430
 O360 O 0.85911 0.52584 0.17295
 O361 O 0.83152 0.52984 0.20315
 O362 O 0.79398 0.47645 0.17388
 O363 O 0.83010 0.47790 0.20783
 O364 O 0.79598 0.52832 0.17018
 Cu365 Cu 0.84342 0.49858 0.15580
 Cu366 Cu 0.81007 0.50328 0.19183
 C367 C 0.80419 0.53475 0.14874
 C368 C 0.85009 0.46797 0.19920
 C369 C 0.80151 0.46563 0.15379
 C370 C 0.85173 0.53705 0.19288
 O371 O 0.13547 0.47098 0.83271
 O372 O 0.17037 0.52332 0.86453
 O373 O 0.13637 0.52268 0.83066
 O374 O 0.17121 0.47184 0.86562
 O375 O 0.19961 0.47050 0.83600
 O376 O 0.16443 0.52166 0.80071
 O377 O 0.19890 0.52281 0.83500
 O378 O 0.16345 0.46915 0.80272
 Cu379 Cu 0.15053 0.49716 0.85128
 Cu380 Cu 0.18444 0.49579 0.81555
 C381 C 0.14309 0.46120 0.81228
 C382 C 0.19047 0.53220 0.85540
 C383 C 0.14449 0.53111 0.80983
 C384 C 0.19155 0.46276 0.85710
 C385 C 0.25583 0.37955 0.08811
 C386 C 0.24358 0.36029 0.07342
 C387 C 0.25591 0.34783 0.05369
 C388 C 0.28083 0.35403 0.04860
 C389 C 0.29385 0.37096 0.06493
 C390 C 0.28143 0.38372 0.08448
 C391 C 0.24131 0.39792 0.10428
 C392 C 0.25100 0.40776 0.12691
 C393 C 0.23811 0.42734 0.14043
 C394 C 0.21536 0.43746 0.13148
 C395 C 0.20549 0.42713 0.10918
 C396 C 0.21829 0.40770 0.09576
 H397 H 0.24559 0.33466 0.04141
 H398 H 0.31304 0.37619 0.06121
 H399 H 0.24611 0.43480 0.15764
 H400 H 0.18801 0.43442 0.10173
 H401 H 0.29141 0.39848 0.09536
 H402 H 0.26864 0.40054 0.13402
 H403 H 0.22403 0.35610 0.07618
 H404 H 0.21052 0.40112 0.07814
 C405 C 0.75094 0.60936 0.08524
 C406 C 0.72481 0.60828 0.08444
 C407 C 0.71164 0.62162 0.06560
 C408 C 0.72436 0.63611 0.04714
 C409 C 0.75029 0.63869 0.04889
 C410 C 0.76343 0.62559 0.06783
 C411 C 0.76521 0.59164 0.10242
 C412 C 0.78673 0.57865 0.09382
 C413 C 0.79944 0.56055 0.10903
 C414 C 0.79093 0.55478 0.13323
 C415 C 0.76959 0.56797 0.14206
 C416 C 0.75686 0.58623 0.12680
 H417 H 0.69165 0.61916 0.06451
 H418 H 0.76047 0.65004 0.03503
 H419 H 0.81575 0.55071 0.10158
 H420 H 0.76264 0.56404 0.16068
 H421 H 0.78349 0.62741 0.06831
 H422 H 0.79339 0.58184 0.07498
 H423 H 0.71462 0.59581 0.09742
 H424 H 0.74045 0.59605 0.13405
 C425 C 0.71982 0.42209 0.91804
 C426 C 0.71055 0.43635 0.93857
 C427 C 0.69913 0.42293 0.95832
 C428 C 0.69704 0.39492 0.95808
 C429 C 0.70437 0.38092 0.93652
 C430 C 0.71563 0.39445 0.91659
 C431 C 0.73697 0.43544 0.90044
 C432 C 0.73352 0.43428 0.87443
 C433 C 0.75020 0.44737 0.85837
 C434 C 0.77086 0.46112 0.86816
 C435 C 0.77443 0.46161 0.89417
 C436 C 0.75762 0.44911 0.91008
 H437 H 0.69320 0.43432 0.97443
 H438 H 0.70313 0.35932 0.93584
 H439 H 0.74699 0.44672 0.83840
 H440 H 0.79002 0.47217 0.90236
 H441 H 0.72274 0.38307 0.90096
 H442 H 0.71775 0.42369 0.86664
 H443 H 0.71335 0.45776 0.93990
 H444 H 0.76086 0.44993 0.93005
 C445 C 0.24384 0.61150 0.91313
 C446 C 0.23132 0.62871 0.92967
 C447 C 0.24430 0.64200 0.94854
 C448 C 0.27010 0.63887 0.95086
 C449 C 0.28297 0.62376 0.93299
 C450 C 0.26995 0.61006 0.91434
 C451 C 0.22956 0.59273 0.89704
 C452 C 0.23817 0.58501 0.87330
 C453 C 0.22546 0.56550 0.85946
 C454 C 0.20392 0.55344 0.86912
 C455 C 0.19518 0.56155 0.89263
 C456 C 0.20785 0.58080 0.90641
 H457 H 0.23407 0.65376 0.96204
 H458 H 0.30289 0.62093 0.93460
 H459 H 0.23258 0.55974 0.84134
 H460 H 0.17872 0.55263 0.90073
 H461 H 0.28018 0.59690 0.90205
 H462 H 0.25477 0.59392 0.86549
 H463 H 0.21130 0.63088 0.92880
 H464 H 0.20101 0.58563 0.92486
 C465 C 0.09643 0.27819 0.41441
 C466 C 0.07719 0.28938 0.42871
 C467 C 0.05553 0.29880 0.41716
 C468 C 0.05299 0.29772 0.39108
 C469 C 0.07275 0.28781 0.37668
 C470 C 0.09419 0.27783 0.38827
 C471 C 0.11731 0.26430 0.42700
 C472 C 0.13062 0.27673 0.44639
 C473 C 0.14762 0.26207 0.46079
 C474 C 0.15104 0.23462 0.45642
 C475 C 0.13863 0.22257 0.43626
 C476 C 0.12214 0.23736 0.42150
 H477 H 0.04050 0.30636 0.42858
 H478 H 0.07107 0.28659 0.35654
 H479 H 0.15671 0.27170 0.47645
 H480 H 0.14087 0.20140 0.43262
 H481 H 0.10876 0.26921 0.37691
 H482 H 0.12715 0.29749 0.45095
 H483 H 0.07839 0.28956 0.44891
 H484 H 0.11194 0.22730 0.40679
 C485 C 0.08314 0.72490 0.58057
 C486 C 0.08436 0.72120 0.60656
 C487 C 0.06443 0.70945 0.61936
 C488 C 0.04306 0.70097 0.60633
 C489 C 0.04284 0.70287 0.58011
 C490 C 0.06255 0.71488 0.56742
 C491 C 0.10195 0.74128 0.56736
 C492 C 0.09407 0.76242 0.55199
 C493 C 0.11132 0.77805 0.53915
 C494 C 0.13691 0.77268 0.54105
 C495 C 0.14490 0.75163 0.55662
 C496 C 0.12755 0.73624 0.56991
 H497 H 0.06515 0.70847 0.63955
 H498 H 0.02697 0.69595 0.56944
 H499 H 0.10450 0.79399 0.52724
 H500 H 0.16451 0.74702 0.55843
 H501 H 0.06139 0.71710 0.54731
 H502 H 0.07446 0.76693 0.54998
 H503 H 0.10004 0.72882 0.61709
 H504 H 0.13405 0.72005 0.58171
 C505 C 0.92200 0.71755 0.41632
 C506 C 0.92122 0.71479 0.39025
 C507 C 0.94130 0.70342 0.37750
 C508 C 0.96242 0.69436 0.39064
 C509 C 0.96219 0.69524 0.41690
 C510 C 0.94229 0.70693 0.42958
 C511 C 0.90307 0.73375 0.42948
 C512 C 0.91078 0.75445 0.44538
 C513 C 0.89335 0.77042 0.45755
 C514 C 0.86776 0.76580 0.45443
 C515 C 0.85997 0.74502 0.43856
 C516 C 0.87751 0.72932 0.42593
 H517 H 0.94093 0.70328 0.35727
 H518 H 0.97786 0.68788 0.42764
 H519 H 0.89995 0.78614 0.46978
 H520 H 0.84036 0.74101 0.43584
 H521 H 0.94311 0.70847 0.44975
 H522 H 0.93039 0.75849 0.44815
 H523 H 0.90579 0.72293 0.37963
 H524 H 0.87116 0.71349 0.41370
 C525 C 0.90440 0.26657 0.59687
 C526 C 0.91117 0.26008 0.62154
 C527 C 0.93123 0.27300 0.63309
 C528 C 0.94503 0.29220 0.61995
 C529 C 0.93767 0.29939 0.59568
 C530 C 0.91743 0.28684 0.58431
 C531 C 0.88568 0.25054 0.58314
 C532 C 0.86793 0.26302 0.56772
 C533 C 0.85282 0.24780 0.55189
 C534 C 0.85548 0.21986 0.55092
 C535 C 0.87245 0.20733 0.56718
 C536 C 0.88729 0.22251 0.58324
 H537 H 0.93673 0.26709 0.65179
 H538 H 0.94811 0.31417 0.58524
 H539 H 0.83991 0.25799 0.53956
 H540 H 0.87483 0.18582 0.56693
 H541 H 0.91281 0.29200 0.56519
 H542 H 0.86629 0.28460 0.56739
 H543 H 0.90136 0.24454 0.63161
 H544 H 0.90098 0.21241 0.59476
 C545 C 0.38641 0.10820 0.25890
 C546 C 0.39178 0.10294 0.28420
 C547 C 0.37995 0.08195 0.29673
 C548 C 0.36279 0.06569 0.28413
 C549 C 0.35582 0.07226 0.25963
 C550 C 0.36724 0.09356 0.24725
 C551 C 0.40317 0.12563 0.24384
 C552 C 0.40971 0.11780 0.21951
 C553 C 0.42820 0.13127 0.20640
 C554 C 0.44092 0.15289 0.21723
 C555 C 0.43363 0.16175 0.24102
 C556 C 0.41491 0.14823 0.25421
 H557 H 0.38576 0.07698 0.31557
 H558 H 0.34256 0.05993 0.24964
 H559 H 0.43323 0.12395 0.18807
 H560 H 0.44301 0.17843 0.24982
 H561 H 0.36210 0.09754 0.22803
 H562 H 0.40156 0.10024 0.21099
 H563 H 0.40652 0.11356 0.29376
 H564 H 0.41014 0.15502 0.27278
 C565 C 0.59602 0.07940 0.73758
 C566 C 0.58496 0.05432 0.73386
 C567 C 0.59805 0.03390 0.72219
 C568 C 0.62252 0.03806 0.71403
 C569 C 0.63311 0.06362 0.71619
 C570 C 0.61989 0.08425 0.72792
 C571 C 0.58289 0.09952 0.75285
 C572 C 0.58006 0.12603 0.74465
 C573 C 0.56537 0.14395 0.75828
 C574 C 0.55352 0.13562 0.78038
 C575 C 0.55747 0.10945 0.78909
 C576 C 0.57195 0.09163 0.77547
 H577 H 0.58933 0.01449 0.72024
 H578 H 0.65196 0.06721 0.70994
 H579 H 0.56271 0.16402 0.75113
 H580 H 0.54881 0.10244 0.80612
 H581 H 0.62871 0.10352 0.73051
 H582 H 0.58836 0.13253 0.72726
 H583 H 0.56635 0.05030 0.74059
 H584 H 0.57427 0.07142 0.78242
 C585 C 0.41371 0.90698 0.71858
 C586 C 0.42770 0.92436 0.70351
 C587 C 0.41656 0.94681 0.69258
 C588 C 0.39117 0.95217 0.69627
 C589 C 0.37688 0.93395 0.71015
 C590 C 0.38806 0.91164 0.72129
 C591 C 0.42641 0.88625 0.73385
 C592 C 0.42133 0.88457 0.75951
 C593 C 0.43559 0.86813 0.77498
 C594 C 0.45502 0.85265 0.76514
 C595 C 0.45925 0.85301 0.73927
 C596 C 0.44520 0.86993 0.72375
 H597 H 0.42794 0.96043 0.68179
 H598 H 0.35731 0.93767 0.71342
 H599 H 0.43191 0.86814 0.79488
 H600 H 0.47423 0.84137 0.73128
 H601 H 0.37684 0.89849 0.73272
 H602 H 0.40720 0.89710 0.76788
 H603 H 0.44752 0.92142 0.70130
 H604 H 0.44942 0.87082 0.70400
 C605 C 0.58840 0.89788 0.27774
 C606 C 0.57494 0.91279 0.29534
 C607 C 0.58576 0.93487 0.30698
 C608 C 0.61030 0.94235 0.30140
 C609 C 0.62436 0.92637 0.28517
 C610 C 0.61347 0.90435 0.27336
 C611 C 0.57523 0.87844 0.26157
 C612 C 0.55722 0.86098 0.27141
 C613 C 0.54175 0.84629 0.25544
 C614 C 0.54382 0.84921 0.22944
 C615 C 0.56277 0.86545 0.21969
 C616 C 0.57838 0.87980 0.23558
 H617 H 0.57464 0.94680 0.31961
 H618 H 0.64328 0.93179 0.28050
 H619 H 0.52727 0.83391 0.26341
 H620 H 0.56489 0.86791 0.19970
 H621 H 0.62429 0.89307 0.25999
 H622 H 0.55452 0.85947 0.29140
 H623 H 0.55553 0.90847 0.29890
 H624 H 0.59187 0.89329 0.22743
 C625 C 0.41567 0.27046 0.90472
 C626 C 0.38994 0.27012 0.90891
 C627 C 0.37999 0.28151 0.93058
 C628 C 0.39572 0.29269 0.94900
 C629 C 0.42151 0.29348 0.94414
 C630 C 0.43127 0.28275 0.92224
 C631 C 0.42678 0.25583 0.88354
 C632 C 0.42181 0.22849 0.88054
 C633 C 0.43582 0.21323 0.86388
 C634 C 0.45469 0.22518 0.84959
 C635 C 0.45841 0.25291 0.85126
 C636 C 0.44475 0.26808 0.86835
 H637 H 0.36015 0.27979 0.93347
 H638 H 0.43434 0.30279 0.95709
 H639 H 0.43256 0.19188 0.86286
 H640 H 0.47294 0.26255 0.84056
 H641 H 0.45121 0.28315 0.91943
 H642 H 0.40819 0.21861 0.89222
 H643 H 0.37760 0.26054 0.89564
 H644 H 0.44885 0.28916 0.87042
 C645 C 0.58601 0.74788 0.92332
 C646 C 0.58613 0.76050 0.94676
 C647 C 0.59725 0.74836 0.96741
 C648 C 0.60939 0.72350 0.96522
 C649 C 0.61080 0.71176 0.94129
 C650 C 0.59894 0.72360 0.92072
 C651 C 0.57148 0.75963 0.90220
 C652 C 0.57907 0.75674 0.87714
 C653 C 0.56507 0.76810 0.85766
 C654 C 0.54363 0.78301 0.86300
 C655 C 0.53596 0.78568 0.88786
 C656 C 0.54946 0.77386 0.90714
 H657 H 0.59682 0.75902 0.98499
 H658 H 0.61957 0.69249 0.93863
 H659 H 0.57130 0.76582 0.83856
 H660 H 0.51918 0.79664 0.89240
 H661 H 0.59912 0.71312 0.90306
 H662 H 0.59599 0.74612 0.87257
 H663 H 0.57747 0.77983 0.94933
 H664 H 0.54238 0.77572 0.92596
 C665 C 0.40571 0.75213 0.07617
 C666 C 0.42042 0.74558 0.05556
 C667 C 0.41028 0.73214 0.03518
 C668 C 0.38478 0.72516 0.03443
 C669 C 0.37024 0.73135 0.05571
 C670 C 0.38065 0.74451 0.07632
 C671 C 0.41683 0.76720 0.09712
 C672 C 0.41544 0.75763 0.12175
 C673 C 0.42884 0.77027 0.14086
 C674 C 0.44353 0.79287 0.13562
 C675 C 0.44364 0.80321 0.11118
 C676 C 0.43056 0.79042 0.09214
 H677 H 0.42295 0.72662 0.02042
 H678 H 0.35051 0.72741 0.05632
 H679 H 0.42836 0.76186 0.15951
 H680 H 0.45469 0.82060 0.10647
 H681 H 0.36894 0.74951 0.09208
 H682 H 0.40497 0.73969 0.12596
 H683 H 0.44002 0.75064 0.05534
 H684 H 0.43168 0.79829 0.07331
 C685 C 0.60653 0.24304 0.08963
 C686 C 0.61822 0.22754 0.07117
 C687 C 0.62863 0.23950 0.05012
 C688 C 0.62865 0.26751 0.04720
 C689 C 0.61897 0.28317 0.06683
 C690 C 0.60768 0.27107 0.08753
 C691 C 0.59128 0.22987 0.10942
 C692 C 0.58780 0.24154 0.13313
 C693 C 0.57125 0.23015 0.15039
 C694 C 0.55817 0.20669 0.14440
 C695 C 0.56255 0.19447 0.12122
 C696 C 0.57858 0.20600 0.10394
 H697 H 0.63703 0.22664 0.03625
 H698 H 0.61821 0.30474 0.06541
 H699 H 0.56827 0.24002 0.16812
 H700 H 0.55265 0.17653 0.11580
 H701 H 0.59873 0.28376 0.10116
 H702 H 0.59751 0.25968 0.13823
 H703 H 0.61889 0.20597 0.07263
 H704 H 0.58004 0.19666 0.08579
 C705 C 0.24266 0.09486 0.61900
 C706 C 0.26857 0.09630 0.62258
 C707 C 0.28159 0.07486 0.63331
 C708 C 0.26905 0.05107 0.63979
 C709 C 0.24285 0.05107 0.63880
 C710 C 0.22987 0.07277 0.62889
 C711 C 0.22949 0.11420 0.60232
 C712 C 0.21039 0.10503 0.58647
 C713 C 0.19949 0.12196 0.56888
 C714 C 0.20757 0.14849 0.56629
 C715 C 0.22622 0.15804 0.58243
 C716 C 0.23700 0.14109 0.60035
 H717 H 0.30170 0.07592 0.63375
 H718 H 0.23230 0.03387 0.64504
 H719 H 0.18529 0.11387 0.55665
 H720 H 0.23275 0.17846 0.58096
 H721 H 0.20979 0.07156 0.62774
 H722 H 0.20448 0.08435 0.58681
 H723 H 0.27912 0.11300 0.61533
 H724 H 0.25144 0.14896 0.61239
 C725 C 0.75228 0.08783 0.38964
 C726 C 0.72625 0.08561 0.39130
 C727 C 0.71368 0.06509 0.37880
 C728 C 0.72693 0.04636 0.36456
 C729 C 0.75261 0.04991 0.36120
 C730 C 0.76514 0.07050 0.37353
 C731 C 0.76618 0.10589 0.40674
 C732 C 0.78806 0.09683 0.41846
 C733 C 0.80007 0.11246 0.43637
 C734 C 0.79051 0.13757 0.44309
 C735 C 0.76898 0.14701 0.43095
 C736 C 0.75692 0.13132 0.41298
 H737 H 0.69391 0.06261 0.38188
 H738 H 0.76318 0.03584 0.35011
 H739 H 0.81659 0.10456 0.44535
 H740 H 0.76119 0.16633 0.43563
 H741 H 0.78510 0.07209 0.37136
 H742 H 0.79545 0.07714 0.41450
 H743 H 0.71579 0.09851 0.40364
 H744 H 0.74021 0.13895 0.40416
 C745 C 0.72349 0.90320 0.57336
 C746 C 0.72054 0.90192 0.59937
 C747 C 0.70858 0.92273 0.61208
 C748 C 0.69928 0.94498 0.59888
 C749 C 0.70027 0.94484 0.57264
 C750 C 0.71245 0.92428 0.56003
 C751 C 0.74084 0.88496 0.56048
 C752 C 0.76077 0.89588 0.54705
 C753 C 0.77771 0.87931 0.53496
 C754 C 0.77489 0.85140 0.53566
 C755 C 0.75491 0.84037 0.54910
 C756 C 0.73817 0.85706 0.56174
 H757 H 0.70824 0.92233 0.63230
 H758 H 0.69280 0.96140 0.56191
 H759 H 0.79279 0.88842 0.52462
 H760 H 0.75233 0.81891 0.54992
 H761 H 0.71431 0.92547 0.53991
 H762 H 0.76333 0.91735 0.54609
 H763 H 0.72904 0.88586 0.60999
 H764 H 0.72295 0.84829 0.57212
 C765 C 0.27143 0.91120 0.41328
 C766 C 0.28776 0.92594 0.42845
 C767 C 0.29953 0.94877 0.41915
 C768 C 0.29550 0.95709 0.39439
 C769 C 0.28017 0.94162 0.37882
 C770 C 0.26808 0.91898 0.38824
 C771 C 0.25611 0.88960 0.42439
 C772 C 0.23024 0.88964 0.42079
 C773 C 0.21515 0.87188 0.43401
 C774 C 0.22563 0.85341 0.45083
 C775 C 0.25162 0.85230 0.45339
 C776 C 0.26672 0.87044 0.44046
 H777 H 0.31134 0.96035 0.43147
 H778 H 0.27665 0.94774 0.35971
 H779 H 0.19517 0.87313 0.43163
 H780 H 0.26016 0.83835 0.46632
 H781 H 0.25563 0.90789 0.37617
 H782 H 0.22155 0.90435 0.40871
 H783 H 0.29047 0.92056 0.44788
 H784 H 0.28665 0.86996 0.44347
 C785 C 0.07823 0.38497 0.76293
 C786 C 0.05870 0.37306 0.77633
 C787 C 0.03856 0.36166 0.76387
 C788 C 0.03768 0.36097 0.73758
 C789 C 0.05895 0.36937 0.72431
 C790 C 0.07879 0.38173 0.73684
 C791 C 0.09590 0.40328 0.77595
 C792 C 0.12073 0.40649 0.76811
 C793 C 0.13635 0.42522 0.77982
 C794 C 0.12745 0.44088 0.79968
 C795 C 0.10277 0.43745 0.80754
 C796 C 0.08722 0.41916 0.79575
 H797 H 0.02333 0.35393 0.77494
 H798 H 0.05921 0.36922 0.70409
 H799 H 0.15532 0.42742 0.77340
 H800 H 0.09516 0.44941 0.82254
 H801 H 0.09358 0.39047 0.72585
 H802 H 0.12810 0.39457 0.75298
 H803 H 0.05828 0.37378 0.79654
 H804 H 0.06807 0.41811 0.80183
 C805 C 0.08682 0.59990 0.24131
 C806 C 0.06942 0.61518 0.22787
 C807 C 0.04995 0.62803 0.24006
 C808 C 0.04744 0.62659 0.26625
 C809 C 0.06627 0.61327 0.27991
 C810 C 0.08552 0.59981 0.26754
 C811 C 0.10476 0.58256 0.22768
 C812 C 0.12899 0.57781 0.23672
 C813 C 0.14513 0.56056 0.22392
 C814 C 0.13736 0.54787 0.20181
 C815 C 0.11325 0.55286 0.19278
 C816 C 0.09717 0.56976 0.20558
 H817 H 0.03691 0.63934 0.22876
 H818 H 0.06520 0.61127 0.30000
 H819 H 0.16360 0.55707 0.23136
 H820 H 0.10649 0.54320 0.17599
 H821 H 0.09857 0.58816 0.27850
 H822 H 0.13549 0.58746 0.25360
 H823 H 0.07047 0.61674 0.20773
 H824 H 0.07848 0.57224 0.19839
 C825 C 0.92091 0.41137 0.26018
 C826 C 0.91769 0.38948 0.27627
 C827 C 0.93835 0.37764 0.28808
 C828 C 0.96267 0.38745 0.28380
 C829 C 0.96508 0.41093 0.26926
 C830 C 0.94462 0.42248 0.25754
 C831 C 0.90041 0.42203 0.24458
 C832 C 0.90408 0.42450 0.21875
 C833 C 0.88694 0.43813 0.20393
 C834 C 0.86569 0.44981 0.21457
 C835 C 0.86119 0.44595 0.24024
 C836 C 0.87844 0.43205 0.25516
 H837 H 0.93525 0.35972 0.29897
 H838 H 0.98284 0.42075 0.26684
 H839 H 0.89090 0.44043 0.18421
 H840 H 0.84497 0.45469 0.24898
 H841 H 0.94741 0.43997 0.24589
 H842 H 0.92078 0.41664 0.21016
 H843 H 0.89943 0.38072 0.27868
 H844 H 0.87529 0.43036 0.27507
 C845 C 0.91652 0.60058 0.75158
 C846 C 0.91781 0.60162 0.72537
 C847 C 0.93771 0.61452 0.71346
 C848 C 0.95714 0.62618 0.72755
 C849 C 0.95473 0.62644 0.75379
 C850 C 0.93471 0.61409 0.76553
 C851 C 0.89749 0.58411 0.76467
 C852 C 0.90426 0.56977 0.78625
 C853 C 0.88689 0.55437 0.79904
 C854 C 0.86224 0.55248 0.79051
 C855 C 0.85537 0.56641 0.76870
 C856 C 0.87284 0.58215 0.75591
 H857 H 0.93864 0.61344 0.69330
 H858 H 0.96821 0.63653 0.76550
 H859 H 0.89297 0.54361 0.81554
 H860 H 0.83651 0.56528 0.76164
 H861 H 0.93373 0.61476 0.78572
 H862 H 0.92320 0.57010 0.79316
 H863 H 0.90412 0.59136 0.71404
 H864 H 0.86700 0.59300 0.73939
 C865 C 0.74101 0.61445 0.91281
 C866 C 0.75220 0.63492 0.92688
 C867 C 0.74033 0.64532 0.94787
 C868 C 0.71683 0.63588 0.95492
 C869 C 0.70469 0.61701 0.93988
 C870 C 0.71674 0.60626 0.91902
 C871 C 0.75575 0.59952 0.89395
 C872 C 0.74469 0.58923 0.87213
 C873 C 0.75811 0.57224 0.85631
 C874 C 0.78276 0.56515 0.86212
 C875 C 0.79413 0.57656 0.88320
 C876 C 0.78081 0.59345 0.89891
 H877 H 0.74986 0.66010 0.95915
 H878 H 0.68657 0.60943 0.94513
 H879 H 0.74885 0.56374 0.84019
 H880 H 0.81311 0.57157 0.88819
 H881 H 0.70767 0.59037 0.90875
 H882 H 0.72550 0.59377 0.86765
 H883 H 0.77060 0.64216 0.92226
 H884 H 0.78986 0.60060 0.91571
 C885 C 0.24955 0.39166 0.91995
 C886 C 0.27569 0.39283 0.92004
 C887 C 0.28949 0.37954 0.93854
 C888 C 0.27738 0.36531 0.95780
 C889 C 0.25129 0.36263 0.95634
 C890 C 0.23768 0.37539 0.93765
 C891 C 0.23446 0.40889 0.90303
 C892 C 0.21261 0.42092 0.91203
 C893 C 0.19855 0.43785 0.89689
 C894 C 0.20606 0.44354 0.87235
 C895 C 0.22785 0.43152 0.86317
 C896 C 0.24191 0.41432 0.87836
 H897 H 0.30942 0.38244 0.93879
 H898 H 0.24119 0.35057 0.96972
 H899 H 0.18202 0.44695 0.90466
 H900 H 0.23411 0.43552 0.84432
 H901 H 0.21766 0.37304 0.93747
 H902 H 0.20661 0.41781 0.93111
 H903 H 0.28544 0.40524 0.90668
 H904 H 0.25855 0.40525 0.87080
 C905 C 0.25547 0.60448 0.08192
 C906 C 0.28036 0.59904 0.07559
 C907 C 0.29186 0.61298 0.05604
 C908 C 0.27857 0.63240 0.04255
 C909 C 0.25441 0.63915 0.05004
 C910 C 0.24304 0.62549 0.06965
 C911 C 0.24151 0.58649 0.09896
 C912 C 0.21727 0.57858 0.09250
 C913 C 0.20428 0.56040 0.10725
 C914 C 0.21516 0.54954 0.12889
 C915 C 0.23926 0.55772 0.13571
 C916 C 0.25238 0.57596 0.12080
 H917 H 0.31048 0.60740 0.05040
 H918 H 0.24394 0.65424 0.03996
 H919 H 0.18577 0.55454 0.10141
 H920 H 0.24813 0.54967 0.15228
 H921 H 0.22408 0.63058 0.07449
 H922 H 0.20853 0.58583 0.07555
 H923 H 0.29037 0.58289 0.08461
 H924 H 0.27101 0.58176 0.12627
 C925 C 0.73840 0.40292 0.08995
 C926 C 0.71986 0.41829 0.07823
 C927 C 0.70675 0.40814 0.05781
 C928 C 0.71163 0.38228 0.04895
 C929 C 0.72931 0.36635 0.06134
 C930 C 0.74278 0.37670 0.08156
 C931 C 0.75459 0.41538 0.10911
 C932 C 0.78055 0.41412 0.10664
 C933 C 0.79591 0.42951 0.12202
 C934 C 0.78563 0.44617 0.14043
 C935 C 0.75975 0.44609 0.14399
 C936 C 0.74435 0.43100 0.12831
 H937 H 0.69316 0.42072 0.04850
 H938 H 0.73343 0.34640 0.05470
 H939 H 0.81581 0.42911 0.11891
 H940 H 0.75130 0.45879 0.15796
 H941 H 0.75699 0.36448 0.09031
 H942 H 0.78891 0.40242 0.09186
 H943 H 0.71634 0.43866 0.08410
 H944 H 0.72437 0.43219 0.13064
 C945 C 0.90724 0.73003 0.59549
 C946 C 0.91438 0.73626 0.62007
 C947 C 0.93613 0.72534 0.63029
 C948 C 0.95125 0.70850 0.61586
 C949 C 0.94376 0.70176 0.59155
 C950 C 0.92188 0.71228 0.58152
 C951 C 0.88625 0.74404 0.58324
 C952 C 0.86937 0.72996 0.56811
 C953 C 0.85264 0.74375 0.55273
 C954 C 0.85287 0.77182 0.55195
 C955 C 0.86858 0.78584 0.56836
 C956 C 0.88501 0.77206 0.58399
 H957 H 0.94163 0.73081 0.64907
 H958 H 0.95511 0.68867 0.58019
 H959 H 0.84079 0.73247 0.54022
 H960 H 0.86906 0.80749 0.56819
 H961 H 0.91699 0.70748 0.56240
 H962 H 0.86991 0.70832 0.56736
 H963 H 0.90339 0.74995 0.63116
 H964 H 0.89794 0.78337 0.59536
 C965 C 0.92233 0.25486 0.40501
 C966 C 0.92211 0.28297 0.40331
 C967 C 0.94183 0.29661 0.39198
 C968 C 0.96218 0.28237 0.38250
 C969 C 0.96193 0.25437 0.38308
 C970 C 0.94208 0.24073 0.39394
 C971 C 0.90329 0.24038 0.41994
 C972 C 0.91032 0.21819 0.43451
 C973 C 0.89305 0.20506 0.44949
 C974 C 0.86830 0.21393 0.45063
 C975 C 0.86108 0.23602 0.43603
 C976 C 0.87839 0.24906 0.42075
 H977 H 0.94184 0.31827 0.39177
 H978 H 0.97742 0.24308 0.37562
 H979 H 0.89930 0.18828 0.46069
 H980 H 0.84210 0.24325 0.43647
 H981 H 0.94255 0.21909 0.39425
 H982 H 0.92941 0.21133 0.43493
 H983 H 0.90735 0.29452 0.41179
 H984 H 0.87228 0.26591 0.40959
 C985 C 0.07762 0.27830 0.58863
 C986 C 0.05750 0.28835 0.57473
 C987 C 0.03731 0.30020 0.58673
 C988 C 0.03663 0.30187 0.61294
 C989 C 0.05754 0.29336 0.62672
 C990 C 0.07792 0.28179 0.61463
 C991 C 0.09699 0.26215 0.57618
 C992 C 0.12239 0.26712 0.58020
 C993 C 0.14040 0.25181 0.56789
 C994 C 0.13325 0.23093 0.55181
 C995 C 0.10782 0.22563 0.54839
 C996 C 0.08991 0.24118 0.56030
 H997 H 0.02178 0.30713 0.57554
 H998 H 0.05753 0.29413 0.64693
 H999 H 0.15988 0.25635 0.57084
 H1000 H 0.10171 0.20982 0.53602
 H1001 H 0.09323 0.27411 0.62572
 H1002 H 0.12824 0.28317 0.59243
 H1003 H 0.05710 0.28628 0.55459
 H1004 H 0.07043 0.23673 0.55720
 C1005 C 0.09746 0.72567 0.40217
 C1006 C 0.09338 0.72630 0.37631
 C1007 C 0.07183 0.71500 0.36606
 C1008 C 0.05342 0.70369 0.38164
 C1009 C 0.05815 0.70266 0.40759
 C1010 C 0.07995 0.71326 0.41763
 C1011 C 0.11843 0.74022 0.41367
 C1012 C 0.12073 0.76785 0.40980
 C1013 C 0.13681 0.78291 0.42470
 C1014 C 0.15121 0.77047 0.44333
 C1015 C 0.15038 0.74253 0.44580
 C1016 C 0.13386 0.72754 0.43127
 H1017 H 0.06900 0.71687 0.34611
 H1018 H 0.04519 0.69324 0.42030
 H1019 H 0.13715 0.80444 0.42245
 H1020 H 0.16115 0.73252 0.46017
 H1021 H 0.08270 0.71266 0.43768
 H1022 H 0.10883 0.77803 0.39647
 H1023 H 0.10663 0.73605 0.36411
 H1024 H 0.13227 0.70622 0.43455
 C1025 C 0.61675 0.90280 0.74981
 C1026 C 0.62136 0.90066 0.72401
 C1027 C 0.63454 0.92073 0.71140
 C1028 C 0.64246 0.94378 0.72428
 C1029 C 0.64070 0.94390 0.75055
 C1030 C 0.62826 0.92355 0.76314
 C1031 C 0.59753 0.88599 0.76218
 C1032 C 0.58146 0.89761 0.77984
 C1033 C 0.56205 0.88295 0.79029
 C1034 C 0.55795 0.85633 0.78320
 C1035 C 0.57408 0.84448 0.76575
 C1036 C 0.59371 0.85915 0.75538
 H1037 H 0.63563 0.91963 0.69123
 H1038 H 0.64790 0.96050 0.76134
 H1039 H 0.54990 0.89272 0.80355
 H1040 H 0.57147 0.82392 0.76002
 H1041 H 0.62624 0.92505 0.78321
 H1042 H 0.58331 0.91842 0.78505
 H1043 H 0.61299 0.88478 0.71315
 H1044 H 0.60579 0.84953 0.74197
 C1045 C 0.39798 0.92619 0.25632
 C1046 C 0.38603 0.94664 0.24294
 C1047 C 0.37392 0.96734 0.25535
 C1048 C 0.37308 0.96829 0.28170
 C1049 C 0.38351 0.94658 0.29505
 C1050 C 0.39599 0.92596 0.28251
 C1051 C 0.41364 0.90629 0.24291
 C1052 C 0.41477 0.87938 0.25052
 C1053 C 0.43013 0.86116 0.23798
 C1054 C 0.44464 0.86950 0.21757
 C1055 C 0.44333 0.89634 0.20991
 C1056 C 0.42815 0.91448 0.22245
 H1057 H 0.36491 0.98249 0.24403
 H1058 H 0.38379 0.94628 0.31525
 H1059 H 0.43074 0.84061 0.24436
 H1060 H 0.45441 0.90354 0.19443
 H1061 H 0.40509 0.91053 0.29342
 H1062 H 0.40370 0.87237 0.26607
 H1063 H 0.38628 0.94687 0.22271
 H1064 H 0.42822 0.93516 0.21640
 C1065 C 0.57682 0.08211 0.28146
 C1066 C 0.60212 0.08464 0.28752
 C1067 C 0.61458 0.06394 0.30013
 C1068 C 0.60198 0.04011 0.30667
 C1069 C 0.57597 0.03934 0.30291
 C1070 C 0.56368 0.05989 0.29033
 C1071 C 0.56455 0.10083 0.26381
 C1072 C 0.55118 0.09048 0.24346
 C1073 C 0.53929 0.10749 0.22658
 C1074 C 0.54022 0.13534 0.22976
 C1075 C 0.55378 0.14582 0.25004
 C1076 C 0.56608 0.12869 0.26680
 H1077 H 0.63450 0.06581 0.30247
 H1078 H 0.56493 0.02255 0.30920
 H1079 H 0.52898 0.09873 0.21123
 H1080 H 0.55485 0.16722 0.25294
 H1081 H 0.54393 0.05795 0.28668
 H1082 H 0.55004 0.06908 0.24051
 H1083 H 0.61262 0.10173 0.28098
 H1084 H 0.57634 0.13712 0.28234
 C1085 C 0.41567 0.09523 0.71914
 C1086 C 0.38979 0.09157 0.72014
 C1087 C 0.37861 0.07009 0.70776
 C1088 C 0.39315 0.05160 0.69448
 C1089 C 0.41889 0.05595 0.69253
 C1090 C 0.43002 0.07771 0.70457
 C1091 C 0.42799 0.11517 0.73546
 C1092 C 0.44670 0.13210 0.72621
 C1093 C 0.46024 0.14853 0.74248
 C1094 C 0.45569 0.14776 0.76832
 C1095 C 0.43642 0.13152 0.77739
 C1096 C 0.42255 0.11560 0.76110
 H1097 H 0.35878 0.06705 0.70977
 H1098 H 0.43048 0.04200 0.68238
 H1099 H 0.47517 0.16068 0.73506
 H1100 H 0.43258 0.13053 0.79723
 H1101 H 0.45003 0.07997 0.70369
 H1102 H 0.45121 0.13210 0.70650
 H1103 H 0.37835 0.10484 0.73121
 H1104 H 0.40840 0.10254 0.76874
 C1105 C 0.58181 0.72607 0.09868
 C1106 C 0.56774 0.71321 0.08010
 C1107 C 0.57929 0.70329 0.05868
 C1108 C 0.60513 0.70565 0.05569
 C1109 C 0.61941 0.71673 0.07507
 C1110 C 0.60781 0.72708 0.09631
 C1111 C 0.56905 0.74145 0.11846
 C1112 C 0.54940 0.73020 0.13217
 C1113 C 0.53517 0.74611 0.14821
 C1114 C 0.54002 0.77363 0.15027
 C1115 C 0.56025 0.78460 0.13727
 C1116 C 0.57477 0.76861 0.12172
 H1117 H 0.56796 0.69484 0.04392
 H1118 H 0.63934 0.71893 0.07303
 H1119 H 0.51957 0.73724 0.15793
 H1120 H 0.56439 0.80575 0.13859
 H1121 H 0.61901 0.73689 0.11043
 H1122 H 0.54466 0.70929 0.12991
 H1123 H 0.54766 0.71242 0.08139
 H1124 H 0.58963 0.77783 0.11114
 C1125 C 0.42964 0.27742 0.08158
 C1126 C 0.40391 0.28183 0.08222
 C1127 C 0.39181 0.29359 0.06182
 C1128 C 0.40530 0.30154 0.04052
 C1129 C 0.43137 0.29901 0.04090
 C1130 C 0.44337 0.28679 0.06110
 C1131 C 0.44170 0.26051 0.10077
 C1132 C 0.45514 0.23784 0.09334
 C1133 C 0.46584 0.22094 0.11112
 C1134 C 0.46374 0.22662 0.13671
 C1135 C 0.45044 0.24945 0.14421
 C1136 C 0.43919 0.26608 0.12635
 H1137 H 0.37171 0.29487 0.06214
 H1138 H 0.44243 0.30549 0.02515
 H1139 H 0.47619 0.20365 0.10478
 H1140 H 0.44862 0.25429 0.16383
 H1141 H 0.46332 0.28385 0.06040
 H1142 H 0.45704 0.23299 0.07372
 H1143 H 0.39296 0.27460 0.09779
 H1144 H 0.42880 0.28344 0.13244
 C1145 C 0.60620 0.24328 0.91439
 C1146 C 0.61954 0.22707 0.93127
 C1147 C 0.63211 0.23838 0.95155
 C1148 C 0.63185 0.26617 0.95528
 C1149 C 0.62002 0.28253 0.93749
 C1150 C 0.60726 0.27122 0.91730
 C1151 C 0.58953 0.23107 0.89529
 C1152 C 0.58633 0.24281 0.87158
 C1153 C 0.56921 0.23220 0.85448
 C1154 C 0.55496 0.20959 0.86071
 C1155 C 0.55853 0.19760 0.88422
 C1156 C 0.57551 0.20822 0.90128
 H1157 H 0.64135 0.22534 0.96483
 H1158 H 0.61927 0.30400 0.94006
 H1159 H 0.56700 0.24183 0.83648
 H1160 H 0.54782 0.18022 0.88969
 H1161 H 0.59704 0.28430 0.90482
 H1162 H 0.59699 0.26027 0.86627
 H1163 H 0.61963 0.20554 0.92924
 H1164 H 0.57707 0.19895 0.91951
 C1165 C 0.40825 0.72980 0.89913
 C1166 C 0.42313 0.71705 0.91718
 C1167 C 0.41256 0.70732 0.93921
 C1168 C 0.38689 0.70972 0.94328
 C1169 C 0.37180 0.72104 0.92459
 C1170 C 0.38244 0.73128 0.90278
 C1171 C 0.42013 0.74424 0.87822
 C1172 C 0.43814 0.73166 0.86337
 C1173 C 0.45217 0.74656 0.84635
 C1174 C 0.44880 0.77436 0.84441
 C1175 C 0.42994 0.78666 0.85839
 C1176 C 0.41555 0.77167 0.87496
 H1177 H 0.42449 0.69872 0.95345
 H1178 H 0.35198 0.72329 0.92750
 H1179 H 0.46675 0.73665 0.83594
 H1180 H 0.42702 0.80807 0.85725
 H1181 H 0.37067 0.74111 0.88911
 H1182 H 0.44195 0.71052 0.86562
 H1183 H 0.44311 0.71598 0.91488
 H1184 H 0.40190 0.78181 0.88639
 C1185 C 0.75102 0.90358 0.39220
 C1186 C 0.72595 0.90861 0.39808
 C1187 C 0.71342 0.93038 0.38745
 C1188 C 0.72580 0.94762 0.37093
 C1189 C 0.75042 0.94191 0.36414
 C1190 C 0.76285 0.92003 0.37452
 C1191 C 0.76545 0.88310 0.40628
 C1192 C 0.78985 0.88881 0.41410
 C1193 C 0.80257 0.87136 0.42994
 C1194 C 0.79122 0.84778 0.43850
 C1195 C 0.76732 0.84129 0.42970
 C1196 C 0.75455 0.85881 0.41375
 H1197 H 0.69448 0.93450 0.39308
 H1198 H 0.76020 0.95474 0.35113
 H1199 H 0.82096 0.87698 0.43635
 H1200 H 0.75808 0.82325 0.43594
 H1201 H 0.78196 0.91639 0.36918
 H1202 H 0.79872 0.90748 0.40905
 H1203 H 0.71638 0.89657 0.41186
 H1204 H 0.73591 0.85366 0.40775
 C1205 C 0.25432 0.91460 0.59229
 C1206 C 0.26675 0.90976 0.61501
 C1207 C 0.27865 0.93077 0.62763
 C1208 C 0.27832 0.95678 0.61760
 C1209 C 0.26717 0.96106 0.59418
 C1210 C 0.25524 0.94028 0.58174
 C1211 C 0.23961 0.89353 0.57961
 C1212 C 0.21577 0.89963 0.57047
 C1213 C 0.20278 0.88131 0.55582
 C1214 C 0.21336 0.85643 0.54988
 C1215 C 0.23666 0.84970 0.56019
 C1216 C 0.24966 0.86809 0.57503
 H1217 H 0.28718 0.92698 0.64565
 H1218 H 0.26719 0.98075 0.58571
 H1219 H 0.18481 0.88709 0.54838
 H1220 H 0.24530 0.83067 0.55597
 H1221 H 0.24639 0.94437 0.56393
 H1222 H 0.20742 0.91895 0.57413
 H1223 H 0.26639 0.89006 0.62342
 H1224 H 0.26801 0.86294 0.58190
 C1225 C 0.27647 0.09859 0.42775
 C1226 C 0.27671 0.09684 0.40158
 C1227 C 0.28893 0.07572 0.38975
 C1228 C 0.30077 0.05568 0.40388
 C1229 C 0.30141 0.05803 0.43003
 C1230 C 0.28956 0.07947 0.44186
 C1231 C 0.26041 0.11848 0.44028
 C1232 C 0.26964 0.13480 0.45952
 C1233 C 0.25367 0.15206 0.47244
 C1234 C 0.22815 0.15267 0.46675
 C1235 C 0.21908 0.13666 0.44723
 C1236 C 0.23509 0.11997 0.43395
 H1237 H 0.28792 0.07423 0.36959
 H1238 H 0.31042 0.04282 0.44131
 H1239 H 0.26105 0.16403 0.48759
 H1240 H 0.19947 0.13675 0.44250
 H1241 H 0.28945 0.08032 0.46208
 H1242 H 0.28911 0.13392 0.46471
 H1243 H 0.26675 0.11138 0.39035
 H1244 H 0.22750 0.10737 0.41936
 C1245 C 0.73178 0.08815 0.58690
 C1246 C 0.71464 0.07343 0.57266
 C1247 C 0.70279 0.05116 0.58291
 C1248 C 0.70758 0.04341 0.60768
 C1249 C 0.72360 0.05900 0.62241
 C1250 C 0.73576 0.08110 0.61203
 C1251 C 0.74747 0.10860 0.57460
 C1252 C 0.77341 0.10746 0.57741
 C1253 C 0.78875 0.12368 0.56288
 C1254 C 0.77846 0.14167 0.54551
 C1255 C 0.75249 0.14400 0.54373
 C1256 C 0.73710 0.12739 0.55800
 H1257 H 0.69038 0.03948 0.57127
 H1258 H 0.72763 0.05331 0.64152
 H1259 H 0.80872 0.12160 0.56471
 H1260 H 0.74411 0.15768 0.53043
 H1261 H 0.74886 0.09220 0.62339
 H1262 H 0.78189 0.09297 0.58986
 H1263 H 0.71145 0.07826 0.55318
 H1264 H 0.71713 0.12866 0.55559
 C1265 C 0.91638 0.61400 0.24081
 C1266 C 0.93300 0.63030 0.22741
 C1267 C 0.95312 0.64239 0.23947
 C1268 C 0.95684 0.63870 0.26521
 C1269 C 0.93899 0.62452 0.27900
 C1270 C 0.91900 0.61219 0.26691
 C1271 C 0.89846 0.59646 0.22740
 C1272 C 0.87503 0.59041 0.23757
 C1273 C 0.85954 0.57151 0.22614
 C1274 C 0.86716 0.55832 0.20429
 C1275 C 0.89023 0.56500 0.19373
 C1276 C 0.90569 0.58374 0.20516
 H1277 H 0.96653 0.65347 0.22849
 H1278 H 0.94158 0.62117 0.29884
 H1279 H 0.84179 0.56693 0.23465
 H1280 H 0.89670 0.55521 0.17693
 H1281 H 0.90668 0.59966 0.27780
 H1282 H 0.86880 0.60003 0.25455
 H1283 H 0.93114 0.63269 0.20738
 H1284 H 0.92379 0.58743 0.19706
 C1285 C 0.90678 0.40240 0.75423
 C1286 C 0.90369 0.37871 0.74055
 C1287 C 0.92424 0.36659 0.72907
 C1288 C 0.94802 0.37820 0.73098
 C1289 C 0.95057 0.40272 0.74354
 C1290 C 0.93025 0.41452 0.75519
 C1291 C 0.88623 0.41442 0.76858
 C1292 C 0.88965 0.41938 0.79412
 C1293 C 0.87266 0.43497 0.80722
 C1294 C 0.85196 0.44620 0.79500
 C1295 C 0.84759 0.43967 0.76979
 C1296 C 0.86462 0.42377 0.75667
 H1297 H 0.92173 0.34773 0.71947
 H1298 H 0.96842 0.41266 0.74466
 H1299 H 0.87650 0.43936 0.82665
 H1300 H 0.83181 0.44802 0.75987
 H1301 H 0.93290 0.43309 0.76526
 H1302 H 0.90612 0.41213 0.80367
 H1303 H 0.88564 0.36915 0.73954
 H1304 H 0.86172 0.42017 0.73693
 C1305 C 0.08614 0.60955 0.75573
 C1306 C 0.08377 0.60676 0.72969
 C1307 C 0.06481 0.62011 0.71677
 C1308 C 0.04784 0.63624 0.72973
 C1309 C 0.05152 0.64090 0.75530
 C1310 C 0.07063 0.62786 0.76814
 C1311 C 0.10232 0.59104 0.77025
 C1312 C 0.09363 0.58013 0.79282
 C1313 C 0.10750 0.56098 0.80568
 C1314 C 0.13039 0.55205 0.79627
 C1315 C 0.13937 0.56317 0.77390
 C1316 C 0.12546 0.58250 0.76102
 H1317 H 0.06213 0.61604 0.69708
 H1318 H 0.03867 0.65339 0.76559
 H1319 H 0.09999 0.55280 0.82283
 H1320 H 0.15703 0.55682 0.76627
 H1321 H 0.07241 0.63102 0.78808
 H1322 H 0.07563 0.58569 0.80020
 H1323 H 0.09529 0.59274 0.71956
 H1324 H 0.13275 0.59063 0.74377
 C1325 C 0.09145 0.38836 0.24537
 C1326 C 0.09061 0.39205 0.27142
 C1327 C 0.07092 0.38164 0.28536
 C1328 C 0.05165 0.36770 0.27345
 C1329 C 0.05333 0.36228 0.24785
 C1330 C 0.07323 0.37222 0.23398
 C1331 C 0.10911 0.40407 0.22986
 C1332 C 0.10098 0.41513 0.20710
 C1333 C 0.11617 0.43241 0.19361
 C1334 C 0.13984 0.43938 0.20262
 C1335 C 0.14840 0.42780 0.22499
 C1336 C 0.13319 0.41023 0.23845
 H1337 H 0.06976 0.38617 0.30511
 H1338 H 0.03863 0.35142 0.23842
 H1339 H 0.10896 0.44102 0.17649
 H1340 H 0.16664 0.43266 0.23229
 H1341 H 0.07368 0.36836 0.21409
 H1342 H 0.08238 0.41143 0.20014
 H1343 H 0.10414 0.40453 0.28081
 H1344 H 0.14014 0.40182 0.25576
   
