data_POSCAR
  _audit_creation_date              2014-09-24
  _audit_creation_method            'ToBaCCo'
  _symmetry_space_group_name_H-M    'P1'
  _symmetry_Int_Tables_number       1
  _symmetry_cell_setting            triclinic
  loop_
  _symmetry_equiv_pos_as_xyz
 x,y,z
_cell_length_a 96.1493
_cell_length_b 96.1573
_cell_length_c 96.2213
_cell_angle_alpha 90.005500
_cell_angle_beta 89.991900
_cell_angle_gamma 89.942800
loop_
  _atom_site_label
  _atom_site_type_symbol
  _atom_site_fract_x
  _atom_site_fract_y
  _atom_site_fract_z
C1 C 0.35542 0.33510 0.34537
 C2 C 0.34511 0.33511 0.35568
 C3 C 0.33493 0.34530 0.35568
 C4 C 0.33493 0.35561 0.34537
 C5 C 0.34510 0.35560 0.33520
 C6 C 0.35542 0.34527 0.33520
 C7 C 0.36631 0.32624 0.34254
 N8 N 0.37288 0.33079 0.33091
 C9 C 0.36630 0.34243 0.32635
 C10 C 0.34227 0.36648 0.32635
 N11 N 0.33064 0.37307 0.33091
 C12 C 0.32607 0.36650 0.34254
 C13 C 0.32608 0.34248 0.36657
 N14 N 0.33065 0.33084 0.37314
 C15 C 0.34229 0.32627 0.36656
 H16 H 0.36912 0.31704 0.34839
 H17 H 0.36911 0.34829 0.31716
 H18 H 0.34813 0.36928 0.31716
 H19 H 0.31687 0.36932 0.34840
 H20 H 0.31688 0.34834 0.36937
 H21 H 0.34815 0.31706 0.36937
 C22 C 0.35527 0.83489 -0.15538
 C23 C 0.34499 0.83493 -0.14504
 C24 C 0.33481 0.84511 -0.14504
 C25 C 0.33477 0.85539 -0.15538
 C26 C 0.34492 0.85535 -0.16558
 C27 C 0.35524 0.84504 -0.16558
 C28 C 0.36616 0.82603 -0.15820
 N29 N 0.37272 0.83054 -0.16988
 C30 C 0.36611 0.84219 -0.17444
 C31 C 0.34207 0.86622 -0.17445
 N32 N 0.33042 0.87283 -0.16988
 C33 C 0.32591 0.86628 -0.15820
 C34 C 0.32599 0.84233 -0.13412
 N35 N 0.33058 0.83071 -0.12753
 C36 C 0.34220 0.82612 -0.13412
 H37 H 0.36898 0.81687 -0.15228
 H38 H 0.36887 0.84806 -0.18364
 H39 H 0.34794 0.86897 -0.18365
 H40 H 0.31674 0.86909 -0.15229
 H41 H 0.31680 0.84820 -0.13131
 H42 H 0.34807 0.81693 -0.13130
 C43 C 0.85523 0.33491 -0.15531
 C44 C 0.84495 0.33494 -0.14497
 C45 C 0.83477 0.34512 -0.14497
 C46 C 0.83473 0.35541 -0.15530
 C47 C 0.84488 0.35537 -0.16550
 C48 C 0.85520 0.34505 -0.16550
 C49 C 0.86612 0.32604 -0.15814
 N50 N 0.87268 0.33056 -0.16981
 C51 C 0.86607 0.34220 -0.17437
 C52 C 0.84204 0.36625 -0.17436
 N53 N 0.83039 0.37286 -0.16979
 C54 C 0.82587 0.36630 -0.15812
 C55 C 0.82595 0.34233 -0.13405
 N56 N 0.83054 0.33071 -0.12746
 C57 C 0.84216 0.32612 -0.13406
 H58 H 0.86893 0.31688 -0.15222
 H59 H 0.86883 0.34808 -0.18357
 H60 H 0.84791 0.36901 -0.18356
 H61 H 0.81671 0.36911 -0.15220
 H62 H 0.81676 0.34820 -0.13123
 H63 H 0.84803 0.31693 -0.13125
 C64 C 0.85538 0.83504 0.34498
 C65 C 0.84510 0.83507 0.35532
 C66 C 0.83491 0.84525 0.35532
 C67 C 0.83487 0.85553 0.34499
 C68 C 0.84502 0.85550 0.33479
 C69 C 0.85535 0.84519 0.33479
 C70 C 0.86628 0.82618 0.34216
 N71 N 0.87284 0.83070 0.33048
 C72 C 0.86622 0.84235 0.32592
 C73 C 0.84217 0.86637 0.32593
 N74 N 0.83052 0.87298 0.33049
 C75 C 0.82601 0.86642 0.34216
 C76 C 0.82609 0.84245 0.36624
 N77 N 0.83069 0.83084 0.37283
 C78 C 0.84231 0.82625 0.36623
 H79 H 0.86909 0.81702 0.34807
 H80 H 0.86897 0.84822 0.31673
 H81 H 0.84805 0.86913 0.31673
 H82 H 0.81684 0.86922 0.34808
 H83 H 0.81690 0.84832 0.36905
 H84 H 0.84818 0.81706 0.36905
 C85 C 0.64458 0.66523 0.34534
 C86 C 0.65489 0.66522 0.35565
 C87 C 0.66506 0.65503 0.35566
 C88 C 0.66506 0.64471 0.34535
 C89 C 0.65489 0.64472 0.33518
 C90 C 0.64458 0.65505 0.33517
 C91 C 0.63370 0.67409 0.34250
 N92 N 0.62713 0.66953 0.33087
 C93 C 0.63370 0.65789 0.32632
 C94 C 0.65772 0.63383 0.32634
 N95 N 0.66935 0.62724 0.33090
 C96 C 0.67391 0.63381 0.34253
 C97 C 0.67391 0.65785 0.36654
 N98 N 0.66934 0.66949 0.37311
 C99 C 0.65771 0.67407 0.36653
 H100 H 0.63089 0.68330 0.34834
 H101 H 0.63090 0.65203 0.31713
 H102 H 0.65186 0.63103 0.31715
 H103 H 0.68311 0.63099 0.34839
 H104 H 0.68310 0.65198 0.36935
 H105 H 0.65186 0.68328 0.36933
 C106 C 0.64464 0.16534 -0.15528
 C107 C 0.65492 0.16531 -0.14494
 C108 C 0.66510 0.15512 -0.14494
 C109 C 0.66514 0.14484 -0.15527
 C110 C 0.65499 0.14487 -0.16547
 C111 C 0.64467 0.15519 -0.16547
 C112 C 0.63375 0.17420 -0.15811
 N113 N 0.62719 0.16968 -0.16978
 C114 C 0.63380 0.15803 -0.17434
 C115 C 0.65784 0.13399 -0.17433
 N116 N 0.66949 0.12738 -0.16976
 C117 C 0.67400 0.13395 -0.15809
 C118 C 0.67392 0.15791 -0.13403
 N119 N 0.66933 0.16953 -0.12744
 C120 C 0.65771 0.17413 -0.13403
 H121 H 0.63094 0.18336 -0.15219
 H122 H 0.63105 0.15215 -0.18353
 H123 H 0.65197 0.13123 -0.18353
 H124 H 0.68316 0.13114 -0.15217
 H125 H 0.68311 0.15204 -0.13121
 H126 H 0.65184 0.18332 -0.13121
 C127 C 0.14470 0.66529 -0.15526
 C128 C 0.15499 0.66526 -0.14493
 C129 C 0.16517 0.65508 -0.14493
 C130 C 0.16520 0.64479 -0.15527
 C131 C 0.15505 0.64483 -0.16546
 C132 C 0.14473 0.65515 -0.16545
 C133 C 0.13381 0.67416 -0.15807
 N134 N 0.12724 0.66964 -0.16974
 C135 C 0.13385 0.65800 -0.17431
 C136 C 0.15789 0.63396 -0.17432
 N137 N 0.16953 0.62734 -0.16977
 C138 C 0.17406 0.63390 -0.15809
 C139 C 0.17399 0.65787 -0.13402
 N140 N 0.16940 0.66949 -0.12743
 C141 C 0.15778 0.67408 -0.13401
 H142 H 0.13101 0.68332 -0.15216
 H143 H 0.13109 0.65212 -0.18351
 H144 H 0.15201 0.63120 -0.18351
 H145 H 0.18322 0.63109 -0.15218
 H146 H 0.18318 0.65201 -0.13121
 H147 H 0.15191 0.68327 -0.13120
 C148 C 0.14476 0.16538 0.34477
 C149 C 0.15503 0.16534 0.35512
 C150 C 0.16522 0.15516 0.35511
 C151 C 0.16527 0.14489 0.34477
 C152 C 0.15513 0.14493 0.33457
 C153 C 0.14481 0.15524 0.33457
 C154 C 0.13387 0.17425 0.34194
 N155 N 0.12732 0.16974 0.33026
 C156 C 0.13394 0.15810 0.32570
 C157 C 0.15798 0.13407 0.32569
 N158 N 0.16963 0.12745 0.33025
 C159 C 0.17413 0.13400 0.34194
 C160 C 0.17403 0.15794 0.36604
 N161 N 0.16943 0.16955 0.37264
 C162 C 0.15781 0.17415 0.36604
 H163 H 0.13106 0.18341 0.34786
 H164 H 0.13120 0.15223 0.31649
 H165 H 0.15212 0.13132 0.31649
 H166 H 0.18330 0.13119 0.34785
 H167 H 0.18322 0.15207 0.36886
 H168 H 0.15194 0.18334 0.36886
 C169 C 0.64448 0.33509 0.65478
 C170 C 0.65479 0.33510 0.64446
 C171 C 0.66496 0.34527 0.64446
 C172 C 0.66495 0.35558 0.65477
 C173 C 0.65478 0.35558 0.66495
 C174 C 0.64448 0.34527 0.66495
 C175 C 0.63361 0.32624 0.65761
 N176 N 0.62703 0.33080 0.66924
 C177 C 0.63360 0.34243 0.67381
 C178 C 0.65761 0.36646 0.67380
 N179 N 0.66924 0.37303 0.66924
 C180 C 0.67380 0.36646 0.65760
 C181 C 0.67381 0.34245 0.63358
 N182 N 0.66925 0.33082 0.62700
 C183 C 0.65762 0.32625 0.63358
 H184 H 0.63080 0.31704 0.65175
 H185 H 0.63079 0.34828 0.68301
 H186 H 0.65176 0.36926 0.68300
 H187 H 0.68299 0.36927 0.65175
 H188 H 0.68300 0.34830 0.63077
 H189 H 0.65178 0.31705 0.63077
 C190 C 0.64436 0.83496 1.15514
 C191 C 0.65464 0.83498 1.14479
 C192 C 0.66479 0.84517 1.14477
 C193 C 0.66481 0.85546 1.15509
 C194 C 0.65467 0.85544 1.16530
 C195 C 0.64438 0.84512 1.16532
 C196 C 0.63349 0.82610 1.15798
 N197 N 0.62693 0.83063 1.16965
 C198 C 0.63352 0.84228 1.17420
 C199 C 0.65752 0.86632 1.17415
 N200 N 0.66913 0.87290 1.16956
 C201 C 0.67366 0.86635 1.15790
 C202 C 0.67362 0.84236 1.13386
 N203 N 0.66905 0.83073 1.12728
 C204 C 0.65744 0.82615 1.13388
 H205 H 0.63070 0.81692 1.15208
 H206 H 0.63075 0.84816 1.18339
 H207 H 0.65169 0.86911 1.18337
 H208 H 0.68283 0.86917 1.15202
 H209 H 0.68279 0.84823 1.13103
 H210 H 0.65160 0.81695 1.13108
 C211 C 0.14438 0.33491 1.15506
 C212 C 0.15466 0.33495 1.14471
 C213 C 0.16479 0.34515 1.14468
 C214 C 0.16479 0.35546 1.15499
 C215 C 0.15465 0.35542 1.16520
 C216 C 0.14438 0.34507 1.16524
 C217 C 0.13354 0.32602 1.15792
 N218 N 0.12697 0.33054 1.16960
 C219 C 0.13354 0.34221 1.17413
 C220 C 0.15747 0.36631 1.17405
 N221 N 0.16907 0.37292 1.16944
 C222 C 0.17361 0.36637 1.15779
 C223 C 0.17361 0.34235 1.13376
 N224 N 0.16907 0.33071 1.12720
 C225 C 0.15747 0.32611 1.13382
 H226 H 0.13077 0.31683 1.15202
 H227 H 0.13076 0.34809 1.18332
 H228 H 0.15164 0.36909 1.18326
 H229 H 0.18278 0.36921 1.15190
 H230 H 0.18278 0.34824 1.13092
 H231 H 0.15164 0.31690 1.13103
 C232 C 0.14472 0.83533 0.65505
 C233 C 0.15502 0.83535 0.64473
 C234 C 0.16522 0.84549 0.64476
 C235 C 0.16526 0.85576 0.65511
 C236 C 0.15510 0.85574 0.66530
 C237 C 0.14476 0.84546 0.66527
 C238 C 0.13383 0.82650 0.65786
 N239 N 0.12728 0.83103 0.66952
 C240 C 0.13388 0.84263 0.67412
 C241 C 0.15795 0.86659 0.67419
 N242 N 0.16962 0.87317 0.66965
 C243 C 0.17413 0.86661 0.65797
 C244 C 0.17405 0.84268 0.63385
 N245 N 0.16945 0.83109 0.62724
 C246 C 0.15782 0.82653 0.63381
 H247 H 0.13099 0.81733 0.65197
 H248 H 0.13110 0.84845 0.68335
 H249 H 0.15207 0.86935 0.68338
 H250 H 0.18331 0.86939 0.65207
 H251 H 0.18326 0.84852 0.63106
 H252 H 0.15194 0.81736 0.63098
 C253 C 0.35551 0.66498 0.65467
 C254 C 0.34521 0.66498 0.64436
 C255 C 0.33503 0.65482 0.64436
 C256 C 0.33501 0.64452 0.65468
 C257 C 0.34518 0.64452 0.66485
 C258 C 0.35550 0.65481 0.66485
 C259 C 0.36640 0.67382 0.65750
 N260 N 0.37296 0.66927 0.66914
 C261 C 0.36638 0.65764 0.67371
 C262 C 0.34234 0.63365 0.67371
 N263 N 0.33070 0.62708 0.66915
 C264 C 0.32615 0.63365 0.65751
 C265 C 0.32618 0.65766 0.63347
 N266 N 0.33076 0.66928 0.62689
 C267 C 0.34239 0.67383 0.63347
 H268 H 0.36921 0.68301 0.65164
 H269 H 0.36917 0.65180 0.68291
 H270 H 0.34818 0.63084 0.68291
 H271 H 0.31695 0.63085 0.65166
 H272 H 0.31698 0.65181 0.63067
 H273 H 0.34826 0.68302 0.63066
 C274 C 0.35530 0.16490 1.15488
 C275 C 0.34499 0.16490 1.14457
 C276 C 0.33478 0.15477 1.14461
 C277 C 0.33475 0.14449 1.15495
 C278 C 0.34492 0.14449 1.16512
 C279 C 0.35526 0.15476 1.16508
 C280 C 0.36621 0.17372 1.15768
 N281 N 0.37277 0.16917 1.16933
 C282 C 0.36616 0.15758 1.17392
 C283 C 0.34206 0.13364 1.17400
 N284 N 0.33039 0.12708 1.16948
 C285 C 0.32586 0.13365 1.15781
 C286 C 0.32594 0.15759 1.13371
 N287 N 0.33054 0.16919 1.12710
 C288 C 0.34219 0.17373 1.13366
 H289 H 0.36904 0.18289 1.15180
 H290 H 0.36894 0.15175 1.18314
 H291 H 0.34795 0.13087 1.18319
 H292 H 0.31667 0.13088 1.15192
 H293 H 0.31673 0.15176 1.13093
 H294 H 0.34807 0.18290 1.13083
 C295 C 0.85556 0.66511 1.15484
 C296 C 0.84526 0.66509 1.14452
 C297 C 0.83511 0.65489 1.14451
 C298 C 0.83512 0.64459 1.15482
 C299 C 0.84528 0.64461 1.16500
 C300 C 0.85557 0.65494 1.16501
 C301 C 0.86642 0.67398 1.15767
 N302 N 0.87299 0.66943 1.16931
 C303 C 0.86644 0.65779 1.17387
 C304 C 0.84247 0.63372 1.17385
 N305 N 0.83085 0.62713 1.16928
 C306 C 0.82629 0.63369 1.15764
 C307 C 0.82626 0.65771 1.13362
 N308 N 0.83080 0.66935 1.12705
 C309 C 0.84242 0.67393 1.13363
 H310 H 0.86921 0.68318 1.15182
 H311 H 0.86925 0.65194 1.18307
 H312 H 0.84832 0.63093 1.18305
 H313 H 0.81710 0.63087 1.15178
 H314 H 0.81708 0.65184 1.13081
 H315 H 0.84826 0.68314 1.13083
 C316 C 0.85571 0.16529 0.65514
 C317 C 0.84545 0.16525 0.64478
 C318 C 0.83531 0.15505 0.64475
 C319 C 0.83529 0.14476 0.65508
 C320 C 0.84542 0.14480 0.66529
 C321 C 0.85569 0.15514 0.66533
 C322 C 0.86656 0.17418 0.65799
 N323 N 0.87311 0.16966 0.66968
 C324 C 0.86653 0.15800 0.67422
 C325 C 0.84257 0.13393 0.67415
 N326 N 0.83098 0.12732 0.66954
 C327 C 0.82645 0.13386 0.65788
 C328 C 0.82650 0.15784 0.63383
 N329 N 0.83105 0.16947 0.62726
 C330 C 0.84264 0.17407 0.63387
 H331 H 0.86934 0.18335 0.65209
 H332 H 0.86929 0.15213 0.68342
 H333 H 0.84839 0.13115 0.68338
 H334 H 0.81729 0.13103 0.65199
 H335 H 0.81733 0.15196 0.63099
 H336 H 0.84848 0.18328 0.63108
 C337 C 0.33475 0.35537 0.65515
 C338 C 0.33475 0.34506 0.64484
 C339 C 0.34493 0.33487 0.64484
 C340 C 0.35524 0.33487 0.65515
 C341 C 0.35524 0.34504 0.66532
 C342 C 0.34492 0.35536 0.66532
 C343 C 0.32589 0.36627 0.65797
 N344 N 0.33045 0.37284 0.66960
 C345 C 0.34209 0.36626 0.67417
 C346 C 0.36613 0.34221 0.67417
 N347 N 0.37272 0.33058 0.66960
 C348 C 0.36614 0.32601 0.65797
 C349 C 0.34212 0.32603 0.63395
 N350 N 0.33049 0.33061 0.62738
 C351 C 0.32591 0.34224 0.63395
 H352 H 0.31670 0.36909 0.65211
 H353 H 0.34794 0.36906 0.68336
 H354 H 0.36894 0.34807 0.68336
 H355 H 0.36896 0.31682 0.65211
 H356 H 0.34798 0.31683 0.63114
 H357 H 0.31671 0.34811 0.63114
 C358 C 0.33493 0.85592 0.15457
 C359 C 0.33493 0.84561 0.14427
 C360 C 0.34512 0.83543 0.14426
 C361 C 0.35544 0.83544 0.15455
 C362 C 0.35544 0.84562 0.16472
 C363 C 0.34511 0.85593 0.16473
 C364 C 0.32606 0.86681 0.15741
 N365 N 0.33063 0.87339 0.16903
 C366 C 0.34228 0.86682 0.17357
 C367 C 0.36634 0.84280 0.17355
 N368 N 0.37293 0.83116 0.16898
 C369 C 0.36635 0.82659 0.15737
 C370 C 0.34229 0.82658 0.13338
 N371 N 0.33065 0.83114 0.12682
 C372 C 0.32607 0.84277 0.13339
 H373 H 0.31685 0.86962 0.15156
 H374 H 0.34815 0.86963 0.18276
 H375 H 0.36915 0.84866 0.18274
 H376 H 0.36916 0.81739 0.15151
 H377 H 0.34816 0.81738 0.13057
 H378 H 0.31686 0.84862 0.13059
 C379 C 0.83522 0.35542 0.15467
 C380 C 0.83523 0.34511 0.14436
 C381 C 0.84541 0.33493 0.14436
 C382 C 0.85573 0.33493 0.15466
 C383 C 0.85572 0.34510 0.16483
 C384 C 0.84540 0.35542 0.16483
 C385 C 0.82636 0.36631 0.15750
 N386 N 0.83093 0.37289 0.16912
 C387 C 0.84257 0.36631 0.17368
 C388 C 0.86662 0.34228 0.17367
 N389 N 0.87320 0.33064 0.16911
 C390 C 0.86663 0.32607 0.15748
 C391 C 0.84258 0.32608 0.13348
 N392 N 0.83094 0.33065 0.12691
 C393 C 0.82637 0.34228 0.13349
 H394 H 0.81716 0.36912 0.15165
 H395 H 0.84843 0.36912 0.18287
 H396 H 0.86942 0.34814 0.18286
 H397 H 0.86944 0.31687 0.15163
 H398 H 0.84845 0.31688 0.13067
 H399 H 0.81717 0.34815 0.13068
 C400 C 0.83509 0.85569 0.65510
 C401 C 0.83511 0.84539 0.64478
 C402 C 0.84529 0.83521 0.64478
 C403 C 0.85559 0.83519 0.65510
 C404 C 0.85557 0.84536 0.66528
 C405 C 0.84525 0.85567 0.66528
 C406 C 0.82623 0.86658 0.65793
 N407 N 0.83078 0.87314 0.66957
 C408 C 0.84241 0.86656 0.67413
 C409 C 0.86646 0.84252 0.67413
 N410 N 0.87305 0.83089 0.66956
 C411 C 0.86648 0.82634 0.65792
 C412 C 0.84248 0.82637 0.63389
 N413 N 0.83085 0.83095 0.62731
 C414 C 0.82627 0.84257 0.63389
 H415 H 0.81703 0.86940 0.65207
 H416 H 0.84826 0.86935 0.68333
 H417 H 0.86925 0.84837 0.68333
 H418 H 0.86931 0.81715 0.65206
 H419 H 0.84835 0.81717 0.63107
 H420 H 0.81707 0.84844 0.63108
 C421 C 0.66521 0.64477 0.65510
 C422 C 0.66520 0.65508 0.64479
 C423 C 0.65502 0.66526 0.64479
 C424 C 0.64470 0.66526 0.65509
 C425 C 0.64471 0.65509 0.66526
 C426 C 0.65503 0.64478 0.66526
 C427 C 0.67406 0.63387 0.65792
 N428 N 0.66950 0.62730 0.66954
 C429 C 0.65786 0.63388 0.67411
 C430 C 0.63381 0.65792 0.67410
 N431 N 0.62722 0.66955 0.66954
 C432 C 0.63380 0.67412 0.65791
 C433 C 0.65784 0.67410 0.63390
 N434 N 0.66948 0.66953 0.62733
 C435 C 0.67405 0.65790 0.63390
 H436 H 0.68326 0.63106 0.65206
 H437 H 0.65200 0.63108 0.68329
 H438 H 0.63100 0.65206 0.68329
 H439 H 0.63099 0.68331 0.65205
 H440 H 0.65197 0.68330 0.63109
 H441 H 0.68325 0.65204 0.63109
 C442 C 0.66520 0.14438 0.15472
 C443 C 0.66519 0.15468 0.14440
 C444 C 0.65499 0.16485 0.14439
 C445 C 0.64467 0.16484 0.15469
 C446 C 0.64468 0.15468 0.16487
 C447 C 0.65502 0.14438 0.16488
 C448 C 0.67408 0.13350 0.15756
 N449 N 0.66951 0.12693 0.16919
 C450 C 0.65786 0.13350 0.17374
 C451 C 0.63379 0.15750 0.17370
 N452 N 0.62719 0.16912 0.16913
 C453 C 0.63376 0.17369 0.15751
 C454 C 0.65781 0.17369 0.13351
 N455 N 0.66946 0.16914 0.12694
 C456 C 0.67404 0.15751 0.13352
 H457 H 0.68328 0.13069 0.15172
 H458 H 0.65200 0.13070 0.18292
 H459 H 0.63098 0.15165 0.18290
 H460 H 0.63094 0.18288 0.15165
 H461 H 0.65193 0.18288 0.13069
 H462 H 0.68325 0.15166 0.13072
 C463 C 0.16483 0.64487 0.15471
 C464 C 0.16483 0.65519 0.14441
 C465 C 0.15467 0.66539 0.14442
 C466 C 0.14436 0.66541 0.15474
 C467 C 0.14436 0.65523 0.16491
 C468 C 0.15466 0.64489 0.16489
 C469 C 0.17367 0.63396 0.15752
 N470 N 0.16910 0.62739 0.16915
 C471 C 0.15748 0.63400 0.17373
 C472 C 0.13349 0.65808 0.17377
 N473 N 0.12692 0.66973 0.16922
 C474 C 0.13349 0.67429 0.15759
 C475 C 0.15750 0.67424 0.13354
 N476 N 0.16912 0.66964 0.12696
 C477 C 0.17367 0.65800 0.13352
 H478 H 0.18285 0.63113 0.15166
 H479 H 0.15163 0.63120 0.18293
 H480 H 0.13068 0.65222 0.18296
 H481 H 0.13068 0.68349 0.15174
 H482 H 0.15165 0.68345 0.13074
 H483 H 0.18286 0.65212 0.13070
 C484 C 0.16482 0.14444 0.65496
 C485 C 0.16480 0.15474 0.64464
 C486 C 0.15462 0.16492 0.64465
 C487 C 0.14432 0.16494 0.65496
 C488 C 0.14433 0.15477 0.66514
 C489 C 0.15465 0.14445 0.66513
 C490 C 0.17367 0.13355 0.65778
 N491 N 0.16912 0.12698 0.66941
 C492 C 0.15748 0.13356 0.67398
 C493 C 0.13344 0.15761 0.67399
 N494 N 0.12685 0.16924 0.66942
 C495 C 0.13342 0.17380 0.65779
 C496 C 0.15744 0.17377 0.63376
 N497 N 0.16907 0.16919 0.62718
 C498 C 0.17365 0.15756 0.63375
 H499 H 0.18287 0.13073 0.65192
 H500 H 0.15163 0.13076 0.68318
 H501 H 0.13064 0.15176 0.68318
 H502 H 0.13061 0.18299 0.65193
 H503 H 0.15157 0.18297 0.63095
 H504 H 0.18285 0.15170 0.63094
 C505 C 0.33503 0.64479 0.34494
 C506 C 0.33504 0.65510 0.35525
 C507 C 0.34521 0.66527 0.35525
 C508 C 0.35551 0.66527 0.34493
 C509 C 0.35550 0.65510 0.33475
 C510 C 0.34520 0.64479 0.33476
 C511 C 0.32618 0.63391 0.34212
 N512 N 0.33074 0.62733 0.33049
 C513 C 0.34236 0.63391 0.32591
 C514 C 0.36638 0.65793 0.32590
 N515 N 0.37296 0.66956 0.33046
 C516 C 0.36639 0.67412 0.34210
 C517 C 0.34238 0.67412 0.36614
 N518 N 0.33076 0.66955 0.37272
 C519 C 0.32619 0.65792 0.36615
 H520 H 0.31700 0.63110 0.34799
 H521 H 0.34821 0.63110 0.31671
 H522 H 0.36919 0.65208 0.31670
 H523 H 0.36920 0.68331 0.34796
 H524 H 0.34824 0.68331 0.36894
 H525 H 0.31700 0.65207 0.36896
 C526 C 0.33511 0.14423 0.84529
 C527 C 0.33509 0.15454 0.85559
 C528 C 0.34527 0.16471 0.85560
 C529 C 0.35560 0.16470 0.84531
 C530 C 0.35561 0.15452 0.83514
 C531 C 0.34530 0.14421 0.83513
 C532 C 0.32626 0.13335 0.84245
 N533 N 0.33084 0.12676 0.83083
 C534 C 0.34248 0.13333 0.82628
 C535 C 0.36651 0.15734 0.82630
 N536 N 0.37308 0.16897 0.83087
 C537 C 0.36649 0.17354 0.84249
 C538 C 0.34242 0.17357 0.86647
 N539 N 0.33078 0.16902 0.87303
 C540 C 0.32622 0.15739 0.86646
 H541 H 0.31705 0.13055 0.84829
 H542 H 0.34835 0.13051 0.81710
 H543 H 0.36933 0.15148 0.81712
 H544 H 0.36929 0.18274 0.84834
 H545 H 0.34828 0.18276 0.86928
 H546 H 0.31702 0.15154 0.86925
 C547 C 0.83530 0.64438 0.84541
 C548 C 0.83528 0.65471 0.85571
 C549 C 0.84545 0.66488 0.85571
 C550 C 0.85578 0.66487 0.84541
 C551 C 0.85580 0.65468 0.83526
 C552 C 0.84549 0.64437 0.83526
 C553 C 0.82646 0.63349 0.84259
 N554 N 0.83105 0.62690 0.83097
 C555 C 0.84268 0.63347 0.82642
 C556 C 0.86669 0.65750 0.82642
 N557 N 0.87325 0.66914 0.83097
 C558 C 0.86666 0.67372 0.84259
 C559 C 0.84260 0.67375 0.86657
 N560 N 0.83095 0.66919 0.87313
 C561 C 0.82641 0.65755 0.86657
 H562 H 0.81726 0.63070 0.84843
 H563 H 0.84855 0.63065 0.81723
 H564 H 0.86952 0.65163 0.81723
 H565 H 0.86945 0.68292 0.84843
 H566 H 0.84844 0.68295 0.86937
 H567 H 0.81721 0.65170 0.86937
 C568 C 0.83555 0.14435 0.34526
 C569 C 0.83555 0.15466 0.35556
 C570 C 0.84571 0.16484 0.35555
 C571 C 0.85602 0.16483 0.34523
 C572 C 0.85602 0.15465 0.33507
 C573 C 0.84572 0.14434 0.33508
 C574 C 0.82670 0.13346 0.34244
 N575 N 0.83127 0.12688 0.33081
 C576 C 0.84289 0.13345 0.32624
 C577 C 0.86690 0.15748 0.32621
 N578 N 0.87347 0.16912 0.33077
 C579 C 0.86690 0.17369 0.34240
 C580 C 0.84288 0.17370 0.36642
 N581 N 0.83125 0.16914 0.37300
 C582 C 0.82669 0.15750 0.36644
 H583 H 0.81751 0.13066 0.34830
 H584 H 0.84875 0.13064 0.31704
 H585 H 0.86971 0.15162 0.31702
 H586 H 0.86970 0.18289 0.34825
 H587 H 0.84872 0.18290 0.36922
 H588 H 0.81750 0.15164 0.36925
 C589 C 0.66495 0.35550 0.34519
 C590 C 0.66496 0.34519 0.35550
 C591 C 0.65479 0.33501 0.35549
 C592 C 0.64449 0.33501 0.34518
 C593 C 0.64448 0.34518 0.33501
 C594 C 0.65478 0.35550 0.33502
 C595 C 0.67379 0.36639 0.34237
 N596 N 0.66923 0.37296 0.33074
 C597 C 0.65760 0.36638 0.32617
 C598 C 0.63360 0.34235 0.32616
 N599 N 0.62703 0.33071 0.33072
 C600 C 0.63361 0.32615 0.34235
 C601 C 0.65763 0.32616 0.36637
 N602 N 0.66926 0.33073 0.37295
 C603 C 0.67381 0.34236 0.36638
 H604 H 0.68299 0.36919 0.34823
 H605 H 0.65175 0.36919 0.31698
 H606 H 0.63079 0.34821 0.31697
 H607 H 0.63081 0.31695 0.34820
 H608 H 0.65179 0.31696 0.36918
 H609 H 0.68300 0.34822 0.36919
 C610 C 0.66460 0.85599 0.84544
 C611 C 0.66460 0.84567 0.85574
 C612 C 0.65442 0.83550 0.85574
 C613 C 0.64411 0.83551 0.84543
 C614 C 0.64411 0.84570 0.83527
 C615 C 0.65442 0.85600 0.83528
 C616 C 0.67345 0.86687 0.84262
 N617 N 0.66888 0.87345 0.83100
 C618 C 0.65725 0.86689 0.82643
 C619 C 0.63322 0.84288 0.82642
 N620 N 0.62665 0.83124 0.83098
 C621 C 0.63323 0.82667 0.84260
 C622 C 0.65726 0.82663 0.86661
 N623 N 0.66890 0.83118 0.87318
 C624 C 0.67346 0.84282 0.86661
 H625 H 0.68265 0.86966 0.84847
 H626 H 0.65139 0.86970 0.81724
 H627 H 0.63041 0.84874 0.81723
 H628 H 0.63043 0.81747 0.84845
 H629 H 0.65141 0.81744 0.86940
 H630 H 0.68266 0.84867 0.86942
 C631 C 0.16454 0.35580 0.84534
 C632 C 0.16455 0.34548 0.85564
 C633 C 0.15438 0.33530 0.85563
 C634 C 0.14406 0.33531 0.84533
 C635 C 0.14405 0.34550 0.83517
 C636 C 0.15436 0.35581 0.83518
 C637 C 0.17338 0.36669 0.84252
 N638 N 0.16881 0.37327 0.83090
 C639 C 0.15718 0.36671 0.82634
 C640 C 0.13317 0.34268 0.82632
 N641 N 0.12660 0.33104 0.83087
 C642 C 0.13319 0.32646 0.84249
 C643 C 0.15722 0.32644 0.86650
 N644 N 0.16885 0.33099 0.87307
 C645 C 0.17341 0.34263 0.86651
 H646 H 0.18258 0.36949 0.84838
 H647 H 0.15132 0.36952 0.81715
 H648 H 0.13035 0.34854 0.81713
 H649 H 0.13039 0.31726 0.84834
 H650 H 0.15137 0.31724 0.86929
 H651 H 0.18260 0.34849 0.86932
 C652 C 0.16480 0.85620 0.34530
 C653 C 0.16481 0.84589 0.35561
 C654 C 0.15463 0.83573 0.35562
 C655 C 0.14430 0.83574 0.34533
 C656 C 0.14429 0.84591 0.33515
 C657 C 0.15461 0.85621 0.33514
 C658 C 0.17365 0.86708 0.34246
 N659 N 0.16908 0.87365 0.33083
 C660 C 0.15743 0.86709 0.32629
 C661 C 0.13340 0.84309 0.32632
 N662 N 0.12683 0.83146 0.33089
 C663 C 0.13341 0.82690 0.34251
 C664 C 0.15747 0.82687 0.36649
 N665 N 0.16911 0.83142 0.37305
 C666 C 0.17367 0.84305 0.36647
 H667 H 0.18286 0.86987 0.34830
 H668 H 0.15157 0.86990 0.31710
 H669 H 0.13058 0.84895 0.31713
 H670 H 0.13061 0.81770 0.34837
 H671 H 0.15161 0.81768 0.36930
 H672 H 0.18288 0.84890 0.36927
 O673 O 0.26759 0.98703 0.24846
 O674 O 0.24849 1.01417 0.26760
 O675 O 0.24847 0.98707 0.26760
 O676 O 0.26761 1.01413 0.24846
 O677 O 0.25135 1.01416 0.23224
 O678 O 0.23221 0.98709 0.25138
 O679 O 0.23223 1.01420 0.25138
 O680 O 0.25132 0.98705 0.23224
 Cu681 Cu 0.25967 1.00060 0.25966
 Cu682 Cu 0.24014 1.00063 0.24018
 C683 C 0.26268 0.98240 0.23711
 C684 C 0.23713 1.01883 0.26272
 C685 C 0.23710 0.98245 0.26273
 C686 C 0.26272 1.01877 0.23711
 O687 O 0.26738 0.48668 0.74872
 O688 O 0.24827 0.51387 0.76779
 O689 O 0.24823 0.48676 0.76783
 O690 O 0.26741 0.51379 0.74867
 O691 O 0.25117 0.51379 0.73243
 O692 O 0.23199 0.48677 0.75159
 O693 O 0.23203 0.51388 0.75155
 O694 O 0.25114 0.48669 0.73248
 Cu695 Cu 0.25945 0.50027 0.75988
 Cu696 Cu 0.23995 0.50028 0.74038
 C697 C 0.26249 0.48204 0.73738
 C698 C 0.23692 0.51852 0.76289
 C699 C 0.23687 0.48214 0.76295
 C700 C 0.26253 0.51841 0.73731
 O701 O 0.73262 0.01344 0.24874
 O702 O 0.75171 -0.01370 0.26788
 O703 O 0.75176 0.01340 0.26785
 O704 O 0.73256 -0.01367 0.24878
 O705 O 0.74880 -0.01373 0.23253
 O706 O 0.76800 0.01334 0.25161
 O707 O 0.76795 -0.01377 0.25163
 O708 O 0.74886 0.01337 0.23249
 Cu709 Cu 0.74053 -0.00012 0.25995
 Cu710 Cu 0.76003 -0.00021 0.24043
 C711 C 0.73751 0.01804 0.23738
 C712 C 0.76306 -0.01838 0.26299
 C713 C 0.76313 0.01800 0.26296
 C714 C 0.73743 -0.01833 0.23743
 O715 O 0.73252 0.51351 0.74873
 O716 O 0.75162 0.48632 0.76781
 O717 O 0.75166 0.51343 0.76785
 O718 O 0.73248 0.48640 0.74869
 O719 O 0.74873 0.48639 0.73245
 O720 O 0.76791 0.51341 0.75161
 O721 O 0.76787 0.48631 0.75156
 O722 O 0.74877 0.51349 0.73249
 Cu723 Cu 0.74044 0.49992 0.75990
 Cu724 Cu 0.75995 0.49990 0.74040
 C725 C 0.73742 0.51815 0.73739
 C726 C 0.76298 0.48167 0.76291
 C727 C 0.76303 0.51805 0.76297
 C728 C 0.73736 0.48177 0.73733
 O729 O 0.24839 0.48658 0.23230
 O730 O 0.26754 0.51370 0.25137
 O731 O 0.26753 0.48659 0.25142
 O732 O 0.24840 0.51369 0.23226
 O733 O 0.23215 0.51374 0.24850
 O734 O 0.25128 0.48665 0.26766
 O735 O 0.25130 0.51375 0.26761
 O736 O 0.23214 0.48664 0.24855
 Cu737 Cu 0.25960 0.50014 0.24021
 Cu738 Cu 0.24009 0.50020 0.25971
 C739 C 0.23703 0.48197 0.23720
 C740 C 0.26266 0.51836 0.26271
 C741 C 0.26264 0.48199 0.26278
 C742 C 0.23704 0.51835 0.23714
 O743 O 0.73217 0.98688 0.75166
 O744 O 0.75138 1.01393 0.73255
 O745 O 0.75134 0.98682 0.73257
 O746 O 0.73220 1.01399 0.75163
 O747 O 0.74841 1.01397 0.76790
 O748 O 0.76756 0.98681 0.74884
 O749 O 0.76759 1.01391 0.74882
 O750 O 0.74839 0.98687 0.76793
 Cu751 Cu 0.74014 1.00041 0.74047
 Cu752 Cu 0.75961 1.00039 0.76000
 C753 C 0.73703 0.98225 0.76303
 C754 C 0.76273 1.01854 0.73745
 C755 C 0.76269 0.98217 0.73748
 C756 C 0.73707 1.01863 0.76298
 O757 O 0.76778 0.48645 0.24856
 O758 O 0.74866 0.51357 0.26772
 O759 O 0.74865 0.48646 0.26769
 O760 O 0.76779 0.51356 0.24858
 O761 O 0.75153 0.51359 0.23236
 O762 O 0.73239 0.48650 0.25146
 O763 O 0.73241 0.51360 0.25149
 O764 O 0.75152 0.48648 0.23233
 Cu765 Cu 0.75985 0.50000 0.25977
 Cu766 Cu 0.74033 0.50005 0.24028
 C767 C 0.76289 0.48183 0.23721
 C768 C 0.73730 0.51822 0.26284
 C769 C 0.73728 0.48185 0.26281
 C770 C 0.76290 0.51820 0.23724
 O771 O 0.24857 -0.01381 0.73233
 O772 O 0.26772 0.01326 0.75146
 O773 O 0.26773 -0.01385 0.75143
 O774 O 0.24857 0.01330 0.73236
 O775 O 0.23233 0.01329 0.74861
 O776 O 0.25149 -0.01385 0.76768
 O777 O 0.25149 0.01326 0.76771
 O778 O 0.23234 -0.01381 0.74858
 Cu779 Cu 0.25978 -0.00027 0.74026
 Cu780 Cu 0.24028 -0.00028 0.75978
 C781 C 0.23722 -0.01844 0.73722
 C782 C 0.26284 0.01789 0.76282
 C783 C 0.26285 -0.01849 0.76278
 C784 C 0.23721 0.01793 0.73726
 O785 O 0.26750 0.24853 1.01350
 O786 O 0.24835 0.26769 0.98643
 O787 O 0.24835 0.26768 1.01351
 O788 O 0.26750 0.24854 0.98642
 O789 O 0.25125 0.23230 0.98642
 O790 O 0.23211 0.25145 1.01351
 O791 O 0.23211 0.25145 0.98642
 O792 O 0.25125 0.23230 1.01350
 Cu793 Cu 0.25956 0.25974 0.99997
 Cu794 Cu 0.24005 0.24024 0.99996
 C795 C 0.26261 0.23718 1.01813
 C796 C 0.23699 0.26281 0.98180
 C797 C 0.23700 0.26280 1.01815
 C798 C 0.26261 0.23718 0.98179
 O799 O 0.26772 0.74885 0.51345
 O800 O 0.24859 0.76806 0.48640
 O801 O 0.24861 0.76803 0.51348
 O802 O 0.26771 0.74889 0.48636
 O803 O 0.25145 0.73268 0.48635
 O804 O 0.23235 0.75182 0.51347
 O805 O 0.23233 0.75185 0.48639
 O806 O 0.25146 0.73264 0.51343
 Cu807 Cu 0.25980 0.76009 0.49992
 Cu808 Cu 0.24026 0.74061 0.49991
 C809 C 0.26283 0.73750 0.51807
 C810 C 0.23722 0.76320 0.48177
 C811 C 0.23725 0.76316 0.51812
 C812 C 0.26281 0.73755 0.48171
 O813 O 0.24849 0.73256 0.01336
 O814 O 0.26764 0.75165 -0.01374
 O815 O 0.26762 0.75169 0.01335
 O816 O 0.24852 0.73252 -0.01372
 O817 O 0.23226 0.74877 -0.01375
 O818 O 0.25136 0.76794 0.01332
 O819 O 0.25138 0.76790 -0.01377
 O820 O 0.23224 0.74881 0.01334
 Cu821 Cu 0.25970 0.74047 -0.00018
 Cu822 Cu 0.24018 0.75999 -0.00022
 C823 C 0.23713 0.73746 0.01798
 C824 C 0.26275 0.76300 -0.01839
 C825 C 0.26272 0.76305 0.01797
 C826 C 0.23716 0.73741 -0.01837
 O827 O 0.23217 0.24857 0.48657
 O828 O 0.25126 0.26766 0.51370
 O829 O 0.25129 0.26770 0.48661
 O830 O 0.23214 0.24854 0.51366
 O831 O 0.24840 0.23228 0.51365
 O832 O 0.26755 0.25145 0.48661
 O833 O 0.26752 0.25141 0.51369
 O834 O 0.24843 0.23232 0.48656
 Cu835 Cu 0.24008 0.25975 0.50014
 Cu836 Cu 0.25961 0.24023 0.50013
 C837 C 0.23707 0.23722 0.48192
 C838 C 0.26262 0.26277 0.51834
 C839 C 0.26265 0.26282 0.48198
 C840 C 0.23703 0.23717 0.51828
 O841 O 0.74840 0.76783 0.98650
 O842 O 0.76755 0.74868 1.01356
 O843 O 0.76756 0.74869 0.98648
 O844 O 0.74839 0.76780 1.01358
 O845 O 0.73216 0.75155 1.01357
 O846 O 0.75133 0.73244 0.98647
 O847 O 0.75133 0.73243 1.01355
 O848 O 0.73217 0.75158 0.98648
 Cu849 Cu 0.75960 0.75988 1.00003
 Cu850 Cu 0.74012 0.74037 1.00001
 C851 C 0.73704 0.76294 0.98186
 C852 C 0.76268 0.73732 1.01819
 C853 C 0.76268 0.73733 0.98184
 C854 C 0.73704 0.76291 1.01821
 O855 O 0.74877 0.26768 0.48643
 O856 O 0.76794 0.24859 0.51353
 O857 O 0.76795 0.24857 0.48645
 O858 O 0.74877 0.26770 0.51352
 O859 O 0.73255 0.25144 0.51353
 O860 O 0.75174 0.23231 0.48646
 O861 O 0.75173 0.23233 0.51354
 O862 O 0.73256 0.25142 0.48644
 Cu863 Cu 0.75999 0.25977 0.49998
 Cu864 Cu 0.74052 0.24024 0.49999
 C865 C 0.73742 0.26278 0.48180
 C866 C 0.76308 0.23723 0.51817
 C867 C 0.76309 0.23720 0.48182
 C868 C 0.73741 0.26281 0.51815
 O869 O 0.76773 0.25146 -0.01374
 O870 O 0.74865 0.23230 0.01335
 O871 O 0.74860 0.23234 -0.01374
 O872 O 0.76777 0.25143 0.01335
 O873 O 0.75152 0.26769 0.01340
 O874 O 0.73235 0.24860 -0.01369
 O875 O 0.73239 0.24856 0.01340
 O876 O 0.75148 0.26772 -0.01369
 Cu877 Cu 0.75982 0.24025 -0.00020
 Cu878 Cu 0.74030 0.25977 -0.00014
 C879 C 0.76283 0.26283 -0.01835
 C880 C 0.73729 0.23719 0.01801
 C881 C 0.73724 0.23724 -0.01835
 C882 C 0.76288 0.26279 0.01800
 O883 O 0.76783 0.75168 0.48660
 O884 O 0.74872 0.73256 0.51370
 O885 O 0.74870 0.73256 0.48662
 O886 O 0.76785 0.75169 0.51369
 O887 O 0.75159 0.76794 0.51370
 O888 O 0.73245 0.74881 0.48663
 O889 O 0.73246 0.74881 0.51371
 O890 O 0.75157 0.76794 0.48661
 Cu891 Cu 0.75991 0.74049 0.50015
 Cu892 Cu 0.74039 0.76001 0.50016
 C893 C 0.76293 0.76304 0.48197
 C894 C 0.73736 0.73745 0.51834
 C895 C 0.73734 0.73745 0.48199
 C896 C 0.76295 0.76305 0.51832
 O897 O 0.98693 0.25140 0.23226
 O898 O 1.01407 0.23232 0.25140
 O899 O 0.98696 0.23228 0.25139
 O900 O 1.01403 0.25145 0.23227
 O901 O 1.01399 0.26770 0.24851
 O902 O 0.98692 0.24854 0.26762
 O903 O 1.01403 0.24857 0.26763
 O904 O 0.98688 0.26766 0.24849
 Cu905 Cu 1.00050 0.24023 0.24020
 Cu906 Cu 1.00045 0.25975 0.25969
 C907 C 0.98226 0.26276 0.23714
 C908 C 1.01869 0.23721 0.26275
 C909 C 0.98231 0.23717 0.26274
 C910 C 1.01864 0.26281 0.23716
 O911 O 0.48655 0.25128 0.73249
 O912 O 0.51373 0.23217 0.75156
 O913 O 0.48662 0.23213 0.75159
 O914 O 0.51366 0.25131 0.73244
 O915 O 0.51364 0.26755 0.74869
 O916 O 0.48660 0.24837 0.76784
 O917 O 0.51371 0.24841 0.76780
 O918 O 0.48653 0.26752 0.74873
 Cu919 Cu 0.50014 0.24009 0.74039
 Cu920 Cu 0.50012 0.25959 0.75990
 C921 C 0.48189 0.26263 0.73738
 C922 C 0.51837 0.23706 0.76290
 C923 C 0.48199 0.23701 0.76295
 C924 C 0.51827 0.26268 0.73732
 O925 O 0.01317 0.24871 0.73241
 O926 O -0.01398 0.26786 0.75148
 O927 O 0.01313 0.26786 0.75151
 O928 O -0.01393 0.24870 0.73238
 O929 O -0.01393 0.23247 0.74864
 O930 O 0.01313 0.25163 0.76776
 O931 O -0.01398 0.25163 0.76774
 O932 O 0.01317 0.23248 0.74866
 Cu933 Cu -0.00040 0.25991 0.74031
 Cu934 Cu -0.00040 0.24042 0.75983
 C935 C 0.01782 0.23735 0.73731
 C936 C -0.01862 0.26298 0.76283
 C937 C 0.01776 0.26299 0.76287
 C938 C -0.01856 0.23735 0.73728
 O939 O 0.48640 0.26759 0.25143
 O940 O 0.51350 0.24845 0.23228
 O941 O 0.48640 0.24846 0.23230
 O942 O 0.51350 0.26758 0.25141
 O943 O 0.51353 0.25133 0.26764
 O944 O 0.48642 0.23221 0.24853
 O945 O 0.51353 0.23220 0.24851
 O946 O 0.48642 0.25133 0.26766
 Cu947 Cu 0.49995 0.25965 0.24023
 Cu948 Cu 0.49998 0.24013 0.25972
 C949 C 0.48178 0.26270 0.26279
 C950 C 0.51815 0.23709 0.23715
 C951 C 0.48177 0.23710 0.23719
 C952 C 0.51815 0.26269 0.26275
 O953 O 0.98673 0.75148 0.73256
 O954 O 1.01388 0.73234 0.75163
 O955 O 0.98677 0.73232 0.75166
 O956 O 1.01383 0.75150 0.73254
 O957 O 1.01382 0.76772 0.74880
 O958 O 0.98676 0.74854 0.76792
 O959 O 1.01386 0.74856 0.76789
 O960 O 0.98671 0.76770 0.74882
 Cu961 Cu 1.00030 0.74028 0.74046
 Cu962 Cu 1.00028 0.75976 0.75999
 C963 C 0.98207 0.76283 0.73746
 C964 C 1.01852 0.73721 0.76298
 C965 C 0.98214 0.73719 0.76302
 C966 C 1.01845 0.76286 0.73744
 O967 O 0.48660 0.75183 0.23212
 O968 O 0.51368 0.73270 0.25130
 O969 O 0.48657 0.73270 0.25125
 O970 O 0.51370 0.75182 0.23217
 O971 O 0.51366 0.76807 0.24840
 O972 O 0.48653 0.74895 0.26748
 O973 O 0.51363 0.74895 0.26753
 O974 O 0.48655 0.76809 0.24835
 Cu975 Cu 0.50014 0.74063 0.24008
 Cu976 Cu 0.50009 0.76015 0.25957
 C977 C 0.48194 0.76319 0.23700
 C978 C 0.51829 0.73759 0.26266
 C979 C 0.48191 0.73759 0.26259
 C980 C 0.51833 0.76318 0.23706
 O981 O -0.01371 0.73284 0.24874
 O982 O 0.01334 0.75202 0.26786
 O983 O -0.01377 0.75197 0.26787
 O984 O 0.01339 0.73289 0.24873
 O985 O 0.01335 0.74914 0.23250
 O986 O -0.01381 0.76822 0.25163
 O987 O 0.01330 0.76827 0.25163
 O988 O -0.01376 0.74909 0.23251
 Cu989 Cu -0.00018 0.74080 0.25993
 Cu990 Cu -0.00024 0.76031 0.24044
 C991 C -0.01836 0.73772 0.23739
 C992 C 0.01795 0.76339 0.26298
 C993 C -0.01843 0.76332 0.26298
 C994 C 0.01801 0.73778 0.23738
 O995 O 0.48617 0.76796 0.75148
 O996 O 0.51337 0.74885 0.73243
 O997 O 0.48626 0.74880 0.73237
 O998 O 0.51328 0.76800 0.75153
 O999 O 0.51329 0.75177 0.76778
 O1000 O 0.48627 0.73257 0.74862
 O1001 O 0.51338 0.73262 0.74867
 O1002 O 0.48618 0.75172 0.76773
 Cu1003 Cu 0.49977 0.76003 0.74032
 Cu1004 Cu 0.49978 0.74054 0.75983
 C1005 C 0.48152 0.76307 0.76282
 C1006 C 0.51802 0.73750 0.73733
 C1007 C 0.48165 0.73744 0.73725
 C1008 C 0.51790 0.76313 0.76290
 C1009 C 0.40627 0.31144 0.31157
 N1010 N 0.40076 0.30610 0.32341
 N1011 N 0.39008 0.31235 0.32966
 C1012 C 0.38452 0.32418 0.32431
 N1013 N 0.39007 0.32955 0.31248
 N1014 N 0.40074 0.32329 0.30623
 C1015 C 0.41787 0.30441 0.30454
 N1016 N 0.42326 0.30966 0.29260
 N1017 N 0.43364 0.30317 0.28610
 C1018 C 0.43902 0.29119 0.29131
 N1019 N 0.43366 0.28597 0.30327
 N1020 N 0.42328 0.29246 0.30977
 C1021 C 0.45030 0.28391 0.28402
 N1022 N 0.45555 0.27184 0.28913
 N1023 N 0.46564 0.26512 0.28241
 C1024 C 0.47084 0.27023 0.27033
 N1025 N 0.46561 0.28232 0.26523
 N1026 N 0.45553 0.28904 0.27196
 C1027 C 0.40567 0.81163 0.81126
 N1028 N 0.40010 0.82343 0.80587
 N1029 N 0.38938 0.82965 0.81207
 C1030 C 0.38380 0.82431 0.82390
 N1031 N 0.38944 0.81251 0.82930
 N1032 N 0.40016 0.80630 0.82309
 C1033 C 0.41734 0.80464 0.80428
 N1034 N 0.42277 0.79273 0.80956
 N1035 N 0.43321 0.78626 0.80312
 C1036 C 0.43858 0.79148 0.79116
 N1037 N 0.43317 0.80342 0.78590
 N1038 N 0.42273 0.80988 0.79234
 C1039 C 0.44991 0.78423 0.78392
 N1040 N 0.45516 0.78934 0.77186
 N1041 N 0.46529 0.78264 0.76518
 C1042 C 0.47054 0.77058 0.77031
 N1043 N 0.46532 0.76548 0.78239
 N1044 N 0.45519 0.77218 0.78907
 C1045 C -0.09439 0.31163 0.81131
 N1046 N -0.09990 0.30630 0.82315
 N1047 N -0.11062 0.31252 0.82935
 C1048 C -0.11625 0.32432 0.82396
 N1049 N -0.11067 0.32966 0.81213
 N1050 N -0.09995 0.32344 0.80593
 C1051 C -0.08273 0.30464 0.80433
 N1052 N -0.07733 0.30987 0.79239
 N1053 N -0.06691 0.30340 0.78594
 C1054 C -0.06150 0.29145 0.79120
 N1055 N -0.06688 0.28624 0.80316
 N1056 N -0.07730 0.29271 0.80961
 C1057 C -0.05018 0.28419 0.78395
 N1058 N -0.04492 0.27213 0.78910
 N1059 N -0.03480 0.26542 0.78241
 C1060 C -0.02958 0.27051 0.77033
 N1061 N -0.03482 0.28258 0.76520
 N1062 N -0.04494 0.28930 0.77189
 C1063 C -0.09422 0.81182 0.31158
 N1064 N -0.09973 0.80647 0.32341
 N1065 N -0.11045 0.81268 0.32963
 C1066 C -0.11609 0.82447 0.32425
 N1067 N -0.11052 0.82983 0.31242
 N1068 N -0.09979 0.82362 0.30621
 C1069 C -0.08256 0.80484 0.30459
 N1070 N -0.07718 0.81009 0.29265
 N1071 N -0.06675 0.80364 0.28619
 C1072 C -0.06133 0.79170 0.29142
 N1073 N -0.06669 0.78646 0.30338
 N1074 N -0.07712 0.79292 0.30985
 C1075 C -0.05001 0.78445 0.28416
 N1076 N -0.04472 0.77240 0.28929
 N1077 N -0.03460 0.76571 0.28258
 C1078 C -0.02940 0.77083 0.27051
 N1079 N -0.03466 0.78290 0.26540
 N1080 N -0.04478 0.78959 0.27210
 C1081 C 0.59375 0.68888 0.31151
 N1082 N 0.59926 0.69423 0.32334
 N1083 N 0.60993 0.68798 0.32960
 C1084 C 0.61549 0.67614 0.32426
 N1085 N 0.60995 0.67077 0.31244
 N1086 N 0.59928 0.67702 0.30618
 C1087 C 0.58215 0.69590 0.30447
 N1088 N 0.57678 0.69064 0.29253
 N1089 N 0.56640 0.69713 0.28602
 C1090 C 0.56102 0.70911 0.29122
 N1091 N 0.56637 0.71434 0.30319
 N1092 N 0.57675 0.70786 0.30969
 C1093 C 0.54974 0.71639 0.28393
 N1094 N 0.54448 0.72846 0.28903
 N1095 N 0.53441 0.73518 0.28229
 C1096 C 0.52922 0.73006 0.27021
 N1097 N 0.53445 0.71797 0.26512
 N1098 N 0.54453 0.71125 0.27186
 C1099 C 0.59423 0.18856 0.81135
 N1100 N 0.59975 0.19391 0.82318
 N1101 N 0.61047 0.18770 0.82939
 C1102 C 0.61611 0.17590 0.82400
 N1103 N 0.61053 0.17055 0.81217
 N1104 N 0.59981 0.17676 0.80597
 C1105 C 0.58257 0.19554 0.80438
 N1106 N 0.57717 0.19029 0.79244
 N1107 N 0.56674 0.19674 0.78600
 C1108 C 0.56132 0.20868 0.79125
 N1109 N 0.56669 0.21391 0.80320
 N1110 N 0.57712 0.20746 0.80965
 C1111 C 0.54998 0.21593 0.78401
 N1112 N 0.54470 0.22797 0.78916
 N1113 N 0.53457 0.23467 0.78247
 C1114 C 0.52935 0.22956 0.77040
 N1115 N 0.53461 0.21749 0.76527
 N1116 N 0.54473 0.21080 0.77196
 C1117 C 1.09430 0.68857 0.81141
 N1118 N 1.09982 0.69390 0.82324
 N1119 N 1.11054 0.68768 0.82944
 C1120 C 1.11617 0.67588 0.82404
 N1121 N 1.11058 0.67054 0.81221
 N1122 N 1.09986 0.67676 0.80602
 C1123 C 1.08264 0.69556 0.80444
 N1124 N 1.07724 0.69033 0.79250
 N1125 N 1.06682 0.69681 0.78606
 C1126 C 1.06141 0.70875 0.79132
 N1127 N 1.06679 0.71396 0.80328
 N1128 N 1.07721 0.70748 0.80972
 C1129 C 1.05009 0.71601 0.78408
 N1130 N 1.04482 0.72806 0.78924
 N1131 N 1.03470 0.73478 0.78256
 C1132 C 1.02948 0.72968 0.77048
 N1133 N 1.03472 0.71762 0.76534
 N1134 N 1.04484 0.71090 0.77202
 C1135 C 1.09441 0.18865 0.31136
 N1136 N 1.09991 0.19399 0.32320
 N1137 N 1.11062 0.18777 0.32942
 C1138 C 1.11626 0.17598 0.32403
 N1139 N 1.11069 0.17063 0.31219
 N1140 N 1.09998 0.17685 0.30598
 C1141 C 1.08276 0.19564 0.30436
 N1142 N 1.07738 0.19040 0.29242
 N1143 N 1.06697 0.19686 0.28595
 C1144 C 1.06155 0.20881 0.29119
 N1145 N 1.06690 0.21403 0.30316
 N1146 N 1.07732 0.20757 0.30963
 C1147 C 1.05024 0.21606 0.28393
 N1148 N 1.04496 0.22812 0.28906
 N1149 N 1.03485 0.23482 0.28235
 C1150 C 1.02965 0.22970 0.27027
 N1151 N 1.03490 0.21763 0.26516
 N1152 N 1.04501 0.21093 0.27187
 C1153 C 0.59367 0.31146 0.68858
 N1154 N 0.59919 0.30612 0.67674
 N1155 N 0.60985 0.31237 0.67049
 C1156 C 0.61540 0.32419 0.67585
 N1157 N 0.60985 0.32955 0.68768
 N1158 N 0.59919 0.32330 0.69393
 C1159 C 0.58208 0.30443 0.69560
 N1160 N 0.57669 0.30967 0.70755
 N1161 N 0.56632 0.30318 0.71404
 C1162 C 0.56096 0.29121 0.70882
 N1163 N 0.56632 0.28599 0.69685
 N1164 N 0.57670 0.29248 0.69036
 C1165 C 0.54969 0.28392 0.71610
 N1166 N 0.54447 0.27185 0.71098
 N1167 N 0.53440 0.26512 0.71770
 C1168 C 0.52919 0.27022 0.72979
 N1169 N 0.53439 0.28231 0.73490
 N1170 N 0.54445 0.28903 0.72817
 C1171 C 0.59403 0.81173 0.18856
 N1172 N 0.59958 0.82354 0.19393
 N1173 N 0.61028 0.82976 0.18772
 C1174 C 0.61587 0.82439 0.17589
 N1175 N 0.61026 0.81259 0.17051
 N1176 N 0.59956 0.80638 0.17673
 C1177 C 0.58239 0.80474 0.19554
 N1178 N 0.57698 0.79282 0.19028
 N1179 N 0.56657 0.78636 0.19674
 C1180 C 0.56118 0.79159 0.20869
 N1181 N 0.56657 0.80354 0.21394
 N1182 N 0.57698 0.80999 0.20748
 C1183 C 0.54987 0.78434 0.21594
 N1184 N 0.54461 0.78947 0.22799
 N1185 N 0.53450 0.78277 0.23468
 C1186 C 0.52928 0.77069 0.22956
 N1187 N 0.53452 0.76558 0.21749
 N1188 N 0.54463 0.77228 0.21080
 C1189 C 1.09415 0.31156 0.18854
 N1190 N 1.09966 0.32339 0.19390
 N1191 N 1.11035 0.32963 0.18767
 C1192 C 1.11594 0.32428 0.17584
 N1193 N 1.11036 0.31246 0.17048
 N1194 N 1.09968 0.30622 0.17671
 C1195 C 1.08254 0.30454 0.19554
 N1196 N 1.07715 0.29260 0.19029
 N1197 N 1.06677 0.28611 0.19676
 C1198 C 1.06138 0.29133 0.20872
 N1199 N 1.06674 0.30329 0.21395
 N1200 N 1.07713 0.30978 0.20748
 C1201 C 1.05010 0.28405 0.21598
 N1202 N 1.04484 0.28916 0.22804
 N1203 N 1.03476 0.28244 0.23475
 C1204 C 1.02957 0.27035 0.22964
 N1205 N 1.03480 0.26525 0.21756
 N1206 N 1.04488 0.27197 0.21086
 C1207 C 1.09389 0.81169 0.68881
 N1208 N 1.09939 0.80638 0.67694
 N1209 N 1.11006 0.81263 0.67071
 C1210 C 1.11564 0.82443 0.67611
 N1211 N 1.11010 0.82976 0.68796
 N1212 N 1.09943 0.82350 0.69419
 C1213 C 1.08229 0.80466 0.69581
 N1214 N 1.07691 0.80987 0.70778
 N1215 N 1.06653 0.80337 0.71425
 C1216 C 1.06116 0.79142 0.70900
 N1217 N 1.06652 0.78623 0.69702
 N1218 N 1.07689 0.79273 0.69054
 C1219 C 1.04989 0.78412 0.71627
 N1220 N 1.04466 0.77207 0.71112
 N1221 N 1.03458 0.76533 0.71783
 C1222 C 1.02937 0.77041 0.72992
 N1223 N 1.03458 0.78248 0.73505
 N1224 N 1.04465 0.78922 0.72835
 C1225 C 0.40631 0.68861 0.68848
 N1226 N 0.40079 0.67677 0.69383
 N1227 N 0.39013 0.67052 0.68758
 C1228 C 0.38459 0.67587 0.67574
 N1229 N 0.39014 0.68769 0.67038
 N1230 N 0.40080 0.69394 0.67663
 C1231 C 0.41789 0.69564 0.69551
 N1232 N 0.42328 0.70758 0.69026
 N1233 N 0.43365 0.71408 0.69676
 C1234 C 0.43900 0.70888 0.70873
 N1235 N 0.43364 0.69691 0.71396
 N1236 N 0.42327 0.69041 0.70746
 C1237 C 0.45026 0.71617 0.71602
 N1238 N 0.45548 0.71107 0.72809
 N1239 N 0.46554 0.71781 0.73482
 C1240 C 0.47074 0.72989 0.72972
 N1241 N 0.46554 0.73498 0.71762
 N1242 N 0.45548 0.72824 0.71090
 C1243 C 0.40620 0.18845 0.18859
 N1244 N 0.40069 0.19379 0.17674
 N1245 N 0.39000 0.18755 0.17052
 C1246 C 0.38442 0.17575 0.17590
 N1247 N 0.38997 0.17040 0.18774
 N1248 N 0.40065 0.17664 0.19396
 C1249 C 0.41782 0.19546 0.19559
 N1250 N 0.42321 0.19022 0.20754
 N1251 N 0.43360 0.19669 0.21401
 C1252 C 0.43899 0.20864 0.20877
 N1253 N 0.43362 0.21386 0.19680
 N1254 N 0.42322 0.20738 0.19033
 C1255 C 0.45028 0.21591 0.21603
 N1256 N 0.45552 0.22797 0.21090
 N1257 N 0.46561 0.23468 0.21760
 C1258 C 0.47083 0.22958 0.22968
 N1259 N 0.46562 0.21750 0.23479
 N1260 N 0.45553 0.21079 0.22809
 C1261 C -0.09370 0.68884 0.18866
 N1262 N -0.09919 0.67698 0.19400
 N1263 N -0.10984 0.67071 0.18775
 C1264 C -0.11539 0.67606 0.17592
 N1265 N -0.10987 0.68790 0.17056
 N1266 N -0.09922 0.69417 0.17681
 C1267 C -0.08212 0.69588 0.19568
 N1268 N -0.07676 0.70784 0.19044
 N1269 N -0.06640 0.71435 0.19693
 C1270 C -0.06102 0.70914 0.20890
 N1271 N -0.06636 0.69717 0.21412
 N1272 N -0.07672 0.69066 0.20763
 C1273 C -0.04977 0.71645 0.21618
 N1274 N -0.04452 0.71134 0.22825
 N1275 N -0.03446 0.71808 0.23496
 C1276 C -0.02928 0.73017 0.22986
 N1277 N -0.03450 0.73527 0.21778
 N1278 N -0.04456 0.72853 0.21106
 C1279 C -0.09407 0.18863 0.68864
 N1280 N -0.09960 0.17681 0.69400
 N1281 N -0.11028 0.17058 0.68777
 C1282 C -0.11586 0.17592 0.67593
 N1283 N -0.11026 0.18773 0.67056
 N1284 N -0.09958 0.19397 0.67679
 C1285 C -0.08246 0.19564 0.69564
 N1286 N -0.07705 0.20757 0.69038
 N1287 N -0.06667 0.21406 0.69685
 C1288 C -0.06130 0.20885 0.70883
 N1289 N -0.06668 0.19690 0.71407
 N1290 N -0.07707 0.19042 0.70759
 C1291 C -0.05002 0.21613 0.71609
 N1292 N -0.04479 0.21102 0.72816
 N1293 N -0.03471 0.21774 0.73487
 C1294 C -0.02949 0.22981 0.72975
 N1295 N -0.03470 0.23490 0.71767
 N1296 N -0.04478 0.22818 0.71096
 C1297 C 0.31132 0.40646 0.31157
 N1298 N 0.30596 0.40096 0.32341
 N1299 N 0.31221 0.39028 0.32966
 C1300 C 0.32404 0.38471 0.32431
 N1301 N 0.32941 0.39025 0.31249
 N1302 N 0.32316 0.40093 0.30623
 C1303 C 0.30430 0.41807 0.30454
 N1304 N 0.30955 0.42345 0.29260
 N1305 N 0.30307 0.43383 0.28610
 C1306 C 0.29110 0.43923 0.29132
 N1307 N 0.28587 0.43388 0.30328
 N1308 N 0.29235 0.42349 0.30978
 C1309 C 0.28383 0.45051 0.28403
 N1310 N 0.27176 0.45578 0.28914
 N1311 N 0.26505 0.46586 0.28241
 C1312 C 0.27016 0.47105 0.27032
 N1313 N 0.28225 0.46581 0.26523
 N1314 N 0.28896 0.45572 0.27196
 C1315 C 0.31150 -0.09424 0.81125
 N1316 N 0.30616 -0.09975 0.82308
 N1317 N 0.31238 -0.11047 0.82929
 C1318 C 0.32418 -0.11610 0.82389
 N1319 N 0.32953 -0.11052 0.81206
 N1320 N 0.32330 -0.09980 0.80586
 C1321 C 0.30450 -0.08259 0.80427
 N1322 N 0.30973 -0.07719 0.79233
 N1323 N 0.30326 -0.06677 0.78588
 C1324 C 0.29132 -0.06136 0.79114
 N1325 N 0.28610 -0.06673 0.80310
 N1326 N 0.29258 -0.07715 0.80955
 C1327 C 0.28405 -0.05004 0.78390
 N1328 N 0.27199 -0.04478 0.78905
 N1329 N 0.26528 -0.03467 0.78236
 C1330 C 0.27038 -0.02945 0.77028
 N1331 N 0.28245 -0.03468 0.76515
 N1332 N 0.28916 -0.04480 0.77184
 C1333 C 0.81150 0.40582 0.81135
 N1334 N 0.80615 0.40030 0.82318
 N1335 N 0.81236 0.38958 0.82938
 C1336 C 0.82416 0.38394 0.82399
 N1337 N 0.82952 0.38952 0.81216
 N1338 N 0.82330 0.40025 0.80596
 C1339 C 0.80452 0.41748 0.80438
 N1340 N 0.80976 0.42288 0.79244
 N1341 N 0.80331 0.43331 0.78600
 C1342 C 0.79137 0.43873 0.79126
 N1343 N 0.78614 0.43336 0.80321
 N1344 N 0.79260 0.42292 0.80966
 C1345 C 0.78412 0.45007 0.78402
 N1346 N 0.77207 0.45534 0.78916
 N1347 N 0.76537 0.46547 0.78248
 C1348 C 0.77048 0.47069 0.77041
 N1349 N 0.78255 0.46544 0.76528
 N1350 N 0.78925 0.45531 0.77196
 C1351 C 0.81161 -0.09410 0.31159
 N1352 N 0.80626 -0.09961 0.32343
 N1353 N 0.81248 -0.11032 0.32964
 C1354 C 0.82429 -0.11595 0.32426
 N1355 N 0.82964 -0.11038 0.31243
 N1356 N 0.82342 -0.09967 0.30622
 C1357 C 0.80462 -0.08245 0.30460
 N1358 N 0.80986 -0.07707 0.29266
 N1359 N 0.80340 -0.06666 0.28620
 C1360 C 0.79146 -0.06124 0.29144
 N1361 N 0.78623 -0.06660 0.30340
 N1362 N 0.79269 -0.07701 0.30987
 C1363 C 0.78420 -0.04992 0.28418
 N1364 N 0.77215 -0.04464 0.28931
 N1365 N 0.76545 -0.03453 0.28260
 C1366 C 0.77056 -0.02934 0.27052
 N1367 N 0.78263 -0.03460 0.26540
 N1368 N 0.78933 -0.04470 0.27211
 C1369 C 0.31134 0.59376 0.68851
 N1370 N 0.30600 0.59927 0.67666
 N1371 N 0.31226 0.60992 0.67040
 C1372 C 0.32409 0.61546 0.67576
 N1373 N 0.32944 0.60992 0.68759
 N1374 N 0.32318 0.59926 0.69385
 C1375 C 0.30431 0.58217 0.69554
 N1376 N 0.30954 0.57679 0.70749
 N1377 N 0.30305 0.56643 0.71399
 C1378 C 0.29107 0.56107 0.70877
 N1379 N 0.28586 0.56643 0.69680
 N1380 N 0.29236 0.57679 0.69030
 C1381 C 0.28378 0.54981 0.71606
 N1382 N 0.27171 0.54458 0.71095
 N1383 N 0.26498 0.53452 0.71768
 C1384 C 0.27008 0.52932 0.72977
 N1385 N 0.28217 0.53452 0.73486
 N1386 N 0.28890 0.54458 0.72813
 C1387 C 0.31142 1.09426 0.18843
 N1388 N 0.30607 1.09979 0.17660
 N1389 N 0.31230 1.11047 0.17037
 C1390 C 0.32413 1.11605 0.17573
 N1391 N 0.32949 1.11046 0.18755
 N1392 N 0.32325 1.09978 0.19378
 C1393 C 0.30441 1.08265 0.19544
 N1394 N 0.30965 1.07725 0.20738
 N1395 N 0.30317 1.06686 0.21385
 C1396 C 0.29120 1.06150 0.20863
 N1397 N 0.28598 1.06688 0.19668
 N1398 N 0.29246 1.07727 0.19020
 C1399 C 0.28393 1.05022 0.21591
 N1400 N 0.27185 1.04500 0.21079
 N1401 N 0.26513 1.03492 0.21751
 C1402 C 0.27025 1.02970 0.22958
 N1403 N 0.28234 1.03490 0.23468
 N1404 N 0.28906 1.04497 0.22796
 C1405 C 0.81157 0.59373 0.18859
 N1406 N 0.80622 0.59924 0.17675
 N1407 N 0.81246 0.60992 0.17050
 C1408 C 0.82427 0.61548 0.17587
 N1409 N 0.82963 0.60994 0.18770
 N1410 N 0.82340 0.59926 0.19394
 C1411 C 0.80456 0.58212 0.19560
 N1412 N 0.80980 0.57672 0.20754
 N1413 N 0.80333 0.56634 0.21402
 C1414 C 0.79137 0.56096 0.20879
 N1415 N 0.78614 0.56633 0.19683
 N1416 N 0.79262 0.57672 0.19035
 C1417 C 0.78409 0.54968 0.21606
 N1418 N 0.77203 0.54445 0.21094
 N1419 N 0.76531 0.53436 0.21764
 C1420 C 0.77042 0.52914 0.22972
 N1421 N 0.78251 0.53435 0.23483
 N1422 N 0.78922 0.54443 0.22812
 C1423 C 0.81162 1.09395 0.68883
 N1424 N 0.82343 1.09949 0.69422
 N1425 N 0.82969 1.11015 0.68799
 C1426 C 0.82437 1.11568 0.67613
 N1427 N 0.81258 1.11011 0.67073
 N1428 N 0.80632 1.09944 0.67696
 C1429 C 0.80458 1.08235 0.69584
 N1430 N 0.79266 1.07696 0.69056
 N1431 N 0.78615 1.06658 0.69703
 C1432 C 0.79133 1.06123 0.70902
 N1433 N 0.80327 1.06660 0.71428
 N1434 N 0.80978 1.07698 0.70781
 C1435 C 0.78402 1.04996 0.71628
 N1436 N 0.78911 1.04473 0.72837
 N1437 N 0.78236 1.03466 0.73507
 C1438 C 0.77029 1.02946 0.72994
 N1439 N 0.76522 1.03467 0.71784
 N1440 N 0.77197 1.04473 0.71113
 C1441 C 0.68865 0.59381 0.31159
 N1442 N 0.67681 0.59935 0.30625
 N1443 N 0.67057 0.61003 0.31249
 C1444 C 0.67594 0.61558 0.32431
 N1445 N 0.68777 0.61001 0.32967
 N1446 N 0.69401 0.59932 0.32342
 C1447 C 0.69566 0.58219 0.30457
 N1448 N 0.70761 0.57678 0.30980
 N1449 N 0.71409 0.56638 0.30331
 C1450 C 0.70885 0.56102 0.29135
 N1451 N 0.69689 0.56641 0.28614
 N1452 N 0.69041 0.57681 0.29263
 C1453 C 0.71612 0.54972 0.28407
 N1454 N 0.71099 0.54450 0.27201
 N1455 N 0.71770 0.53440 0.26528
 C1456 C 0.72978 0.52917 0.27038
 N1457 N 0.73490 0.53437 0.28246
 N1458 N 0.72819 0.54446 0.28918
 C1459 C 0.68841 1.09443 0.81139
 N1460 N 0.69374 1.09995 0.82322
 N1461 N 0.68752 1.11068 0.82942
 C1462 C 0.67573 1.11630 0.82402
 N1463 N 0.67038 1.11072 0.81219
 N1464 N 0.67661 1.10000 0.80600
 C1465 C 0.69541 1.08277 0.80442
 N1466 N 0.69019 1.07737 0.79248
 N1467 N 0.69666 1.06694 0.78604
 C1468 C 0.70860 1.06154 0.79131
 N1469 N 0.71380 1.06691 0.80327
 N1470 N 0.70733 1.07734 0.80971
 C1471 C 0.71586 1.05021 0.78408
 N1472 N 0.72791 1.04494 0.78923
 N1473 N 0.73462 1.03482 0.78256
 C1474 C 0.72954 1.02960 0.77047
 N1475 N 0.71747 1.03484 0.76533
 N1476 N 0.71076 1.04496 0.77201
 C1477 C 0.18841 0.59438 0.81136
 N1478 N 0.17661 0.59995 0.80598
 N1479 N 0.17040 0.61068 0.81219
 C1480 C 0.17576 0.61626 0.82401
 N1481 N 0.18756 0.61062 0.82940
 N1482 N 0.19376 0.59990 0.82319
 C1483 C 0.19539 0.58272 0.80438
 N1484 N 0.20731 0.57727 0.80965
 N1485 N 0.21377 0.56684 0.80320
 C1486 C 0.20854 0.56147 0.79125
 N1487 N 0.19660 0.56688 0.78600
 N1488 N 0.19014 0.57732 0.79245
 C1489 C 0.21578 0.55013 0.78401
 N1490 N 0.21065 0.54488 0.77196
 N1491 N 0.21735 0.53475 0.76527
 C1492 C 0.22941 0.52950 0.77039
 N1493 N 0.23453 0.53472 0.78246
 N1494 N 0.22783 0.54485 0.78915
 C1495 C 0.18855 1.09454 0.31134
 N1496 N 0.19389 1.10004 0.32318
 N1497 N 0.18767 1.11075 0.32940
 C1498 C 0.17587 1.11639 0.32401
 N1499 N 0.17052 1.11082 0.31218
 N1500 N 0.17675 1.10011 0.30596
 C1501 C 0.19555 1.08290 0.30434
 N1502 N 0.19030 1.07752 0.29240
 N1503 N 0.19677 1.06710 0.28593
 C1504 C 0.20872 1.06169 0.29117
 N1505 N 0.21394 1.06705 0.30313
 N1506 N 0.20748 1.07746 0.30960
 C1507 C 0.21597 1.05037 0.28391
 N1508 N 0.22803 1.04510 0.28903
 N1509 N 0.23474 1.03499 0.28232
 C1510 C 0.22962 1.02979 0.27024
 N1511 N 0.21754 1.03503 0.26514
 N1512 N 0.21084 1.04514 0.27185
 C1513 C 0.68857 0.40639 0.68857
 N1514 N 0.67673 0.40087 0.69392
 N1515 N 0.67048 0.39021 0.68767
 C1516 C 0.67584 0.38466 0.67584
 N1517 N 0.68767 0.39021 0.67048
 N1518 N 0.69391 0.40088 0.67673
 C1519 C 0.69560 0.41798 0.69560
 N1520 N 0.70755 0.42337 0.69036
 N1521 N 0.71404 0.43373 0.69685
 C1522 C 0.70883 0.43910 0.70882
 N1523 N 0.69686 0.43374 0.71404
 N1524 N 0.69036 0.42337 0.70755
 C1525 C 0.71612 0.45036 0.71610
 N1526 N 0.71100 0.45560 0.72817
 N1527 N 0.71773 0.46566 0.73490
 C1528 C 0.72982 0.47086 0.72979
 N1529 N 0.73492 0.46565 0.71771
 N1530 N 0.72819 0.45559 0.71098
 C1531 C 0.68851 -0.09374 0.18884
 N1532 N 0.69382 -0.09925 0.17698
 N1533 N 0.68755 -0.10991 0.17075
 C1534 C 0.67574 -0.11546 0.17614
 N1535 N 0.67042 -0.10992 0.18799
 N1536 N 0.67668 -0.09925 0.19422
 C1537 C 0.69556 -0.08214 0.19585
 N1538 N 0.69035 -0.07675 0.20780
 N1539 N 0.69686 -0.06638 0.21427
 C1540 C 0.70882 -0.06103 0.20902
 N1541 N 0.71401 -0.06640 0.19704
 N1542 N 0.70750 -0.07677 0.19058
 C1543 C 0.71613 -0.04976 0.21628
 N1544 N 0.72820 -0.04455 0.21114
 N1545 N 0.73495 -0.03448 0.21784
 C1546 C 0.72987 -0.02925 0.22992
 N1547 N 0.71778 -0.03443 0.23505
 N1548 N 0.71104 -0.04450 0.22835
 C1549 C 0.18835 0.40636 0.18869
 N1550 N 0.17654 0.40082 0.19407
 N1551 N 0.17030 0.39013 0.18785
 C1552 C 0.17565 0.38458 0.17602
 N1553 N 0.18744 0.39016 0.17062
 N1554 N 0.19367 0.40085 0.17684
 C1555 C 0.19535 0.41799 0.19568
 N1556 N 0.20728 0.42339 0.19041
 N1557 N 0.21376 0.43379 0.19687
 C1558 C 0.20855 0.43917 0.20883
 N1559 N 0.19660 0.43378 0.21409
 N1560 N 0.19012 0.42339 0.20763
 C1561 C 0.21582 0.45047 0.21608
 N1562 N 0.21071 0.45572 0.22814
 N1563 N 0.21742 0.46582 0.23483
 C1564 C 0.22950 0.47103 0.22970
 N1565 N 0.23459 0.46580 0.21763
 N1566 N 0.22788 0.45570 0.21094
 C1567 C 0.18856 -0.09399 0.68859
 N1568 N 0.17674 -0.09953 0.69396
 N1569 N 0.17051 -0.11022 0.68773
 C1570 C 0.17586 -0.11579 0.67590
 N1571 N 0.18768 -0.11020 0.67052
 N1572 N 0.19390 -0.09951 0.67675
 C1573 C 0.19556 -0.08237 0.69559
 N1574 N 0.20749 -0.07697 0.69034
 N1575 N 0.21397 -0.06657 0.69681
 C1576 C 0.20875 -0.06121 0.70877
 N1577 N 0.19680 -0.06659 0.71401
 N1578 N 0.19033 -0.07698 0.70754
 C1579 C 0.21602 -0.04992 0.71604
 N1580 N 0.21090 -0.04468 0.72811
 N1581 N 0.21762 -0.03459 0.73482
 C1582 C 0.22969 -0.02937 0.72970
 N1583 N 0.23479 -0.03458 0.71761
 N1584 N 0.22808 -0.04467 0.71090
 C1585 C 0.31134 0.31153 0.40652
 N1586 N 0.32319 0.30618 0.40100
 N1587 N 0.32943 0.31242 0.39033
 C1588 C 0.32406 0.32425 0.38478
 N1589 N 0.31223 0.32962 0.39033
 N1590 N 0.30599 0.32338 0.40101
 C1591 C 0.30433 0.30452 0.41813
 N1592 N 0.29238 0.30977 0.42352
 N1593 N 0.28590 0.30328 0.43390
 C1594 C 0.29113 0.29132 0.43927
 N1595 N 0.30310 0.28609 0.43390
 N1596 N 0.30958 0.29257 0.42352
 C1597 C 0.28386 0.28404 0.45055
 N1598 N 0.28899 0.27196 0.45578
 N1599 N 0.28228 0.26524 0.46585
 C1600 C 0.27018 0.27035 0.47106
 N1601 N 0.26507 0.28244 0.46586
 N1602 N 0.27178 0.28916 0.45578
 C1603 C 0.31135 0.81151 -0.09404
 N1604 N 0.32318 0.80614 -0.09957
 N1605 N 0.32940 0.81234 -0.11027
 C1606 C 0.32402 0.82416 -0.11585
 N1607 N 0.31220 0.82955 -0.11028
 N1608 N 0.30599 0.82334 -0.09958
 C1609 C 0.30436 0.80453 -0.08240
 N1610 N 0.29242 0.80979 -0.07700
 N1611 N 0.28595 0.80334 -0.06659
 C1612 C 0.29119 0.79139 -0.06120
 N1613 N 0.30315 0.78614 -0.06658
 N1614 N 0.30962 0.79259 -0.07699
 C1615 C 0.28393 0.78414 -0.04990
 N1616 N 0.28906 0.77208 -0.04464
 N1617 N 0.28236 0.76538 -0.03454
 C1618 C 0.27027 0.77051 -0.02933
 N1619 N 0.26515 0.78259 -0.03456
 N1620 N 0.27186 0.78928 -0.04466
 C1621 C 0.81133 0.31147 -0.09398
 N1622 N 0.82316 0.30611 -0.09953
 N1623 N 0.82937 0.31233 -0.11023
 C1624 C 0.82398 0.32415 -0.11579
 N1625 N 0.81217 0.32953 -0.11021
 N1626 N 0.80596 0.32330 -0.09951
 C1627 C 0.80435 0.30448 -0.08235
 N1628 N 0.79241 0.30973 -0.07693
 N1629 N 0.78596 0.30326 -0.06652
 C1630 C 0.79121 0.29130 -0.06116
 N1631 N 0.80317 0.28606 -0.06655
 N1632 N 0.80962 0.29254 -0.07696
 C1633 C 0.78396 0.28403 -0.04985
 N1634 N 0.78911 0.27196 -0.04463
 N1635 N 0.78242 0.26525 -0.03453
 C1636 C 0.77034 0.27036 -0.02929
 N1637 N 0.76521 0.28245 -0.03449
 N1638 N 0.77190 0.28916 -0.04459
 C1639 C 0.81147 0.81161 0.40631
 N1640 N 0.82330 0.80624 0.40077
 N1641 N 0.82952 0.81246 0.39007
 C1642 C 0.82413 0.82427 0.38450
 N1643 N 0.81231 0.82965 0.39007
 N1644 N 0.80610 0.82344 0.40078
 C1645 C 0.80449 0.80462 0.41795
 N1646 N 0.79254 0.80988 0.42335
 N1647 N 0.78609 0.80342 0.43376
 C1648 C 0.79133 0.79146 0.43914
 N1649 N 0.80329 0.78622 0.43376
 N1650 N 0.80975 0.79268 0.42335
 C1651 C 0.78408 0.78420 0.45045
 N1652 N 0.78922 0.77214 0.45569
 N1653 N 0.78253 0.76544 0.46579
 C1654 C 0.77044 0.77056 0.47102
 N1655 N 0.76532 0.78264 0.46580
 N1656 N 0.77202 0.78934 0.45570
 C1657 C 0.68860 0.31150 0.59362
 N1658 N 0.67677 0.30614 0.59914
 N1659 N 0.67051 0.31239 0.60981
 C1660 C 0.67586 0.32422 0.61536
 N1661 N 0.68768 0.32959 0.60981
 N1662 N 0.69393 0.32335 0.59914
 C1663 C 0.69563 0.30448 0.58202
 N1664 N 0.70757 0.30974 0.57663
 N1665 N 0.71407 0.30325 0.56625
 C1666 C 0.70887 0.29128 0.56088
 N1667 N 0.69691 0.28605 0.56625
 N1668 N 0.69041 0.29253 0.57663
 C1669 C 0.71616 0.28401 0.54961
 N1670 N 0.71106 0.27193 0.54437
 N1671 N 0.71779 0.26521 0.53430
 C1672 C 0.72987 0.27033 0.52908
 N1673 N 0.73495 0.28243 0.53429
 N1674 N 0.72822 0.28914 0.54437
 C1675 C 0.68833 0.81148 1.09382
 N1676 N 0.67651 0.80611 1.09936
 N1677 N 0.67027 0.81233 1.11006
 C1678 C 0.67563 0.82416 1.11561
 N1679 N 0.68743 0.82954 1.11004
 N1680 N 0.69366 0.82332 1.09934
 C1681 C 0.69533 0.80448 1.08219
 N1682 N 0.70726 0.80975 1.07679
 N1683 N 0.71374 0.80328 1.06639
 C1684 C 0.70853 0.79132 1.06101
 N1685 N 0.69659 0.78607 1.06639
 N1686 N 0.69010 0.79254 1.07680
 C1687 C 0.71581 0.78406 1.04971
 N1688 N 0.71070 0.77200 1.04447
 N1689 N 0.71743 0.76530 1.03437
 C1690 C 0.72950 0.77042 1.02915
 N1691 N 0.73459 0.78250 1.03438
 N1692 N 0.72787 0.78920 1.04447
 C1693 C 0.18834 0.31145 1.09375
 N1694 N 0.17653 0.30608 1.09930
 N1695 N 0.17030 0.31230 1.10999
 C1696 C 0.17565 0.32413 1.11554
 N1697 N 0.18745 0.32952 1.10995
 N1698 N 0.19368 0.32329 1.09926
 C1699 C 0.19535 0.30445 1.08212
 N1700 N 0.20727 0.30970 1.07671
 N1701 N 0.21375 0.30323 1.06631
 C1702 C 0.20853 0.29126 1.06094
 N1703 N 0.19658 0.28603 1.06633
 N1704 N 0.19011 0.29250 1.07673
 C1705 C 0.21580 0.28400 1.04964
 N1706 N 0.21068 0.27193 1.04441
 N1707 N 0.21739 0.26522 1.03431
 C1708 C 0.22947 0.27033 1.02909
 N1709 N 0.23457 0.28241 1.03430
 N1710 N 0.22786 0.28912 1.04439
 C1711 C 0.18869 0.81182 0.59377
 N1712 N 0.17685 0.80649 0.59928
 N1713 N 0.17063 0.81272 0.60998
 C1714 C 0.17602 0.82451 0.61557
 N1715 N 0.18785 0.82986 0.61002
 N1716 N 0.19407 0.82363 0.59932
 C1717 C 0.19568 0.80482 0.58214
 N1718 N 0.20764 0.81005 0.57674
 N1719 N 0.21410 0.80357 0.56634
 C1720 C 0.20885 0.79163 0.56094
 N1721 N 0.19687 0.78642 0.56631
 N1722 N 0.19041 0.79290 0.57672
 C1723 C 0.21610 0.78436 0.54964
 N1724 N 0.21095 0.77231 0.54438
 N1725 N 0.21765 0.76560 0.53428
 C1726 C 0.22974 0.77069 0.52907
 N1727 N 0.23487 0.78275 0.53430
 N1728 N 0.22817 0.78946 0.54440
 C1729 C 0.31147 0.68863 0.59351
 N1730 N 0.30610 0.67680 0.59903
 N1731 N 0.31234 0.67054 0.60970
 C1732 C 0.32417 0.67589 0.61525
 N1733 N 0.32955 0.68770 0.60970
 N1734 N 0.32332 0.69396 0.59903
 C1735 C 0.30446 0.69567 0.58191
 N1736 N 0.30973 0.70761 0.57652
 N1737 N 0.30325 0.71411 0.56615
 C1738 C 0.29128 0.70891 0.56077
 N1739 N 0.28603 0.69696 0.56614
 N1740 N 0.29251 0.69045 0.57651
 C1741 C 0.28401 0.71622 0.54950
 N1742 N 0.27193 0.71112 0.54426
 N1743 N 0.26522 0.71786 0.53419
 C1744 C 0.27035 0.72994 0.52899
 N1745 N 0.28244 0.73502 0.53420
 N1746 N 0.28915 0.72828 0.54427
 C1747 C 0.31127 0.18848 1.09368
 N1748 N 0.30589 0.17666 1.09922
 N1749 N 0.31212 0.17043 1.10991
 C1750 C 0.32396 0.17577 1.11545
 N1751 N 0.32935 0.18757 1.10987
 N1752 N 0.32312 0.19381 1.09918
 C1753 C 0.30426 0.19549 1.08206
 N1754 N 0.30952 0.20742 1.07665
 N1755 N 0.30305 0.21390 1.06626
 C1756 C 0.29107 0.20869 1.06090
 N1757 N 0.28583 0.19674 1.06628
 N1758 N 0.29231 0.19026 1.07667
 C1759 C 0.28380 0.21596 1.04961
 N1760 N 0.27173 0.21085 1.04437
 N1761 N 0.26502 0.21757 1.03429
 C1762 C 0.27013 0.22964 1.02907
 N1763 N 0.28222 0.23474 1.03428
 N1764 N 0.28894 0.22802 1.04436
 C1765 C 0.81146 0.68864 1.09367
 N1766 N 0.80613 0.67679 1.09918
 N1767 N 0.81238 0.67055 1.10985
 C1768 C 0.82420 0.67593 1.11541
 N1769 N 0.82954 0.68777 1.10986
 N1770 N 0.82329 0.69400 1.09919
 C1771 C 0.80443 0.69565 1.08206
 N1772 N 0.80966 0.70760 1.07667
 N1773 N 0.80316 0.71408 1.06629
 C1774 C 0.79120 0.70884 1.06092
 N1775 N 0.78600 0.69687 1.06629
 N1776 N 0.79249 0.69039 1.07667
 C1777 C 0.78392 0.71611 1.04964
 N1778 N 0.77186 0.71098 1.04440
 N1779 N 0.76513 0.71770 1.03432
 C1780 C 0.77022 0.72979 1.02912
 N1781 N 0.78230 0.73490 1.03433
 N1782 N 0.78902 0.72819 1.04441
 C1783 C 0.81179 0.18870 0.59379
 N1784 N 0.80646 0.17685 0.59930
 N1785 N 0.81269 0.17064 0.61000
 C1786 C 0.82448 0.17604 0.61558
 N1787 N 0.82983 0.18787 0.61003
 N1788 N 0.82360 0.19408 0.59934
 C1789 C 0.80478 0.19569 0.58216
 N1790 N 0.81000 0.20764 0.57676
 N1791 N 0.80352 0.21410 0.56636
 C1792 C 0.79158 0.20884 0.56097
 N1793 N 0.78638 0.19687 0.56634
 N1794 N 0.79286 0.19041 0.57674
 C1795 C 0.78431 0.21609 0.54967
 N1796 N 0.77226 0.21094 0.54443
 N1797 N 0.76553 0.21764 0.53433
 C1798 C 0.77062 0.22973 0.52912
 N1799 N 0.78268 0.23486 0.53434
 N1800 N 0.78940 0.22816 0.54443
 C1801 C 0.68865 0.68879 0.40649
 N1802 N 0.69400 0.67694 0.40098
 N1803 N 0.68776 0.67070 0.39030
 C1804 C 0.67594 0.67608 0.38475
 N1805 N 0.67057 0.68792 0.39030
 N1806 N 0.67681 0.69415 0.40097
 C1807 C 0.69566 0.69580 0.41810
 N1808 N 0.69042 0.70775 0.42349
 N1809 N 0.69690 0.71423 0.43388
 C1810 C 0.70886 0.70899 0.43925
 N1811 N 0.71409 0.69702 0.43388
 N1812 N 0.70761 0.69054 0.42349
 C1813 C 0.71614 0.71626 0.45053
 N1814 N 0.72821 0.71113 0.45576
 N1815 N 0.73492 0.71784 0.46585
 C1816 C 0.72981 0.72992 0.47106
 N1817 N 0.71772 0.73504 0.46585
 N1818 N 0.71101 0.72833 0.45577
 C1819 C 0.68857 0.18875 -0.09396
 N1820 N 0.67674 0.19412 -0.09949
 N1821 N 0.67052 0.18791 -0.11019
 C1822 C 0.67590 0.17609 -0.11576
 N1823 N 0.68771 0.17070 -0.11020
 N1824 N 0.69393 0.17691 -0.09950
 C1825 C 0.69557 0.19573 -0.08233
 N1826 N 0.70751 0.19045 -0.07693
 N1827 N 0.71398 0.19691 -0.06653
 C1828 C 0.70875 0.20887 -0.06114
 N1829 N 0.69679 0.21412 -0.06651
 N1830 N 0.69032 0.20767 -0.07691
 C1831 C 0.71602 0.21611 -0.04984
 N1832 N 0.71090 0.22818 -0.04458
 N1833 N 0.71762 0.23487 -0.03449
 C1834 C 0.72970 0.22974 -0.02928
 N1835 N 0.73481 0.21766 -0.03452
 N1836 N 0.72809 0.21097 -0.04461
 C1837 C 0.18863 0.68874 -0.09396
 N1838 N 0.19400 0.67691 -0.09949
 N1839 N 0.18779 0.67069 -0.11019
 C1840 C 0.17597 0.67606 -0.11576
 N1841 N 0.17058 0.68788 -0.11019
 N1842 N 0.17679 0.69410 -0.09949
 C1843 C 0.19561 0.69574 -0.08233
 N1844 N 0.19034 0.70768 -0.07694
 N1845 N 0.19680 0.71416 -0.06654
 C1846 C 0.20876 0.70893 -0.06115
 N1847 N 0.21401 0.69697 -0.06652
 N1848 N 0.20755 0.69049 -0.07693
 C1849 C 0.21601 0.71620 -0.04986
 N1850 N 0.22808 0.71107 -0.04460
 N1851 N 0.23478 0.71779 -0.03451
 C1852 C 0.22965 0.72987 -0.02931
 N1853 N 0.21756 0.73498 -0.03453
 N1854 N 0.21087 0.72827 -0.04462
 C1855 C 0.18861 0.18874 0.40616
 N1856 N 0.17678 0.19412 0.40062
 N1857 N 0.17058 0.18791 0.38991
 C1858 C 0.17597 0.17610 0.38433
 N1859 N 0.18779 0.17072 0.38990
 N1860 N 0.19398 0.17692 0.40062
 C1861 C 0.19558 0.19572 0.41782
 N1862 N 0.20751 0.19045 0.42323
 N1863 N 0.21396 0.19690 0.43365
 C1864 C 0.20871 0.20885 0.43904
 N1865 N 0.19675 0.21410 0.43366
 N1866 N 0.19031 0.20765 0.42323
 C1867 C 0.21595 0.21609 0.45037
 N1868 N 0.21080 0.22815 0.45562
 N1869 N 0.21749 0.23484 0.46574
 C1870 C 0.22956 0.22971 0.47096
 N1871 N 0.23469 0.21764 0.46573
 N1872 N 0.22801 0.21095 0.45562
 C1873 C 0.31114 0.40630 0.68886
 N1874 N 0.30579 0.40077 0.67703
 N1875 N 0.31204 0.39008 0.67080
 C1876 C 0.32386 0.38451 0.67618
 N1877 N 0.32922 0.39007 0.68799
 N1878 N 0.32298 0.40076 0.69422
 C1879 C 0.30413 0.41793 0.69585
 N1880 N 0.30937 0.42334 0.70779
 N1881 N 0.30289 0.43375 0.71425
 C1882 C 0.29093 0.43914 0.70901
 N1883 N 0.28571 0.43376 0.69706
 N1884 N 0.29219 0.42334 0.69060
 C1885 C 0.28367 0.45046 0.71626
 N1886 N 0.27161 0.45572 0.71112
 N1887 N 0.26490 0.46583 0.71781
 C1888 C 0.27001 0.47106 0.72988
 N1889 N 0.28208 0.46583 0.73500
 N1890 N 0.28879 0.45571 0.72831
 C1891 C 0.31131 0.90680 0.18836
 N1892 N 0.32317 0.90127 0.19369
 N1893 N 0.32941 0.89059 0.18744
 C1894 C 0.32403 0.88504 0.17563
 N1895 N 0.31219 0.89060 0.17029
 N1896 N 0.30595 0.90128 0.17654
 C1897 C 0.30430 0.91841 0.19539
 N1898 N 0.29234 0.92382 0.19017
 N1899 N 0.28587 0.93421 0.19666
 C1900 C 0.29111 0.93958 0.20861
 N1901 N 0.30309 0.93420 0.21381
 N1902 N 0.30957 0.92381 0.20732
 C1903 C 0.28385 0.95088 0.21589
 N1904 N 0.28899 0.95611 0.22794
 N1905 N 0.28229 0.96621 0.23467
 C1906 C 0.27019 0.97144 0.22958
 N1907 N 0.26507 0.96623 0.21751
 N1908 N 0.27177 0.95613 0.21079
 C1909 C 0.81159 0.40629 0.18845
 N1910 N 0.82344 0.40076 0.19379
 N1911 N 0.82969 0.39009 0.18754
 C1912 C 0.82433 0.38453 0.17572
 N1913 N 0.81249 0.39010 0.17037
 N1914 N 0.80624 0.40077 0.17662
 C1915 C 0.80457 0.41790 0.19548
 N1916 N 0.79262 0.42330 0.19025
 N1917 N 0.78613 0.43369 0.19674
 C1918 C 0.79136 0.43905 0.20870
 N1919 N 0.80333 0.43367 0.21391
 N1920 N 0.80982 0.42329 0.20741
 C1921 C 0.78408 0.45034 0.21598
 N1922 N 0.78921 0.45557 0.22804
 N1923 N 0.78250 0.46566 0.23477
 C1924 C 0.77041 0.47089 0.22967
 N1925 N 0.76529 0.46568 0.21760
 N1926 N 0.77201 0.45560 0.21087
 C1927 C 0.81143 0.90655 0.68888
 N1928 N 0.80609 0.90104 0.67703
 N1929 N 0.81235 0.89036 0.67079
 C1930 C 0.82417 0.88479 0.67616
 N1931 N 0.82952 0.89033 0.68799
 N1932 N 0.82326 0.90101 0.69423
 C1933 C 0.80440 0.91817 0.69589
 N1934 N 0.80963 0.92355 0.70784
 N1935 N 0.80314 0.93395 0.71431
 C1936 C 0.79118 0.93934 0.70907
 N1937 N 0.78597 0.93397 0.69711
 N1938 N 0.79246 0.92358 0.69063
 C1939 C 0.78390 0.95064 0.71634
 N1940 N 0.77185 0.95590 0.71119
 N1941 N 0.76512 0.96600 0.71789
 C1942 C 0.77022 0.97121 0.72998
 N1943 N 0.78229 0.96598 0.73510
 N1944 N 0.78901 0.95587 0.72840
 C1945 C 0.68880 0.59386 0.68882
 N1946 N 0.69416 0.59938 0.67700
 N1947 N 0.68792 0.61007 0.67076
 C1948 C 0.67609 0.61564 0.67613
 N1949 N 0.67072 0.61008 0.68794
 N1950 N 0.67696 0.59939 0.69417
 C1951 C 0.69581 0.58222 0.69582
 N1952 N 0.69056 0.57683 0.70776
 N1953 N 0.69703 0.56642 0.71422
 C1954 C 0.70899 0.56103 0.70899
 N1955 N 0.71423 0.56640 0.69704
 N1956 N 0.70775 0.57681 0.69057
 C1957 C 0.71626 0.54971 0.71625
 N1958 N 0.72832 0.54445 0.71112
 N1959 N 0.73502 0.53434 0.71781
 C1960 C 0.72991 0.52912 0.72988
 N1961 N 0.71783 0.53435 0.73500
 N1962 N 0.71112 0.54447 0.72830
 C1963 C 0.68886 0.09356 0.18856
 N1964 N 0.69421 0.09907 0.17672
 N1965 N 0.68796 0.10973 0.17046
 C1966 C 0.67612 0.11530 0.17580
 N1967 N 0.67075 0.10976 0.18762
 N1968 N 0.67700 0.09909 0.19389
 C1969 C 0.69587 0.08196 0.19560
 N1970 N 0.69062 0.07659 0.20754
 N1971 N 0.69710 0.06621 0.21404
 C1972 C 0.70907 0.06082 0.20884
 N1973 N 0.71431 0.06617 0.19688
 N1974 N 0.70783 0.07655 0.19037
 C1975 C 0.71634 0.04954 0.21614
 N1976 N 0.72841 0.04426 0.21103
 N1977 N 0.73512 0.03418 0.21776
 C1978 C 0.73000 0.02899 0.22984
 N1979 N 0.71792 0.03424 0.23493
 N1980 N 0.71121 0.04433 0.22820
 C1981 C 0.18839 0.59395 0.18844
 N1982 N 0.17656 0.59950 0.19380
 N1983 N 0.17032 0.61019 0.18756
 C1984 C 0.17569 0.61573 0.17574
 N1985 N 0.18751 0.61015 0.17037
 N1986 N 0.19374 0.59946 0.17660
 C1987 C 0.19540 0.58232 0.19545
 N1988 N 0.20734 0.57690 0.19020
 N1989 N 0.21382 0.56650 0.19669
 C1990 C 0.20859 0.56115 0.20865
 N1991 N 0.19663 0.56654 0.21387
 N1992 N 0.19015 0.57694 0.20739
 C1993 C 0.21586 0.54985 0.21592
 N1994 N 0.21073 0.54463 0.22799
 N1995 N 0.21744 0.53454 0.23471
 C1996 C 0.22952 0.52929 0.22961
 N1997 N 0.23463 0.53449 0.21752
 N1998 N 0.22792 0.54458 0.21080
 C1999 C 0.18846 0.09356 0.68869
 N2000 N 0.17662 0.09909 0.69405
 N2001 N 0.17037 0.10977 0.68782
 C2002 C 0.17572 0.11533 0.67600
 N2003 N 0.18755 0.10976 0.67062
 N2004 N 0.19380 0.09908 0.67685
 C2005 C 0.19548 0.08194 0.69569
 N2006 N 0.20743 0.07653 0.69044
 N2007 N 0.21392 0.06613 0.69690
 C2008 C 0.20870 0.06076 0.70886
 N2009 N 0.19674 0.06614 0.71410
 N2010 N 0.19025 0.07654 0.70763
 C2011 C 0.21599 0.04946 0.71612
 N2012 N 0.21087 0.04421 0.72818
 N2013 N 0.21760 0.03411 0.73487
 C2014 C 0.22968 0.02889 0.72975
 N2015 N 0.23478 0.03411 0.71767
 N2016 N 0.22805 0.04421 0.71098
 C2017 C 0.31141 0.59393 0.31122
 N2018 N 0.32324 0.59945 0.30585
 N2019 N 0.32949 0.61013 0.31208
 C2020 C 0.32414 0.61569 0.32390
 N2021 N 0.31232 0.61014 0.32929
 N2022 N 0.30607 0.59946 0.32306
 C2023 C 0.30439 0.58232 0.30423
 N2024 N 0.29245 0.57694 0.30949
 N2025 N 0.28596 0.56655 0.30303
 C2026 C 0.29117 0.56116 0.29107
 N2027 N 0.30313 0.56651 0.28583
 N2028 N 0.30962 0.57691 0.29229
 C2029 C 0.28389 0.54986 0.28383
 N2030 N 0.28900 0.54460 0.27177
 N2031 N 0.28228 0.53450 0.26508
 C2032 C 0.27020 0.52931 0.27021
 N2033 N 0.26510 0.53455 0.28228
 N2034 N 0.27182 0.54464 0.28897
 C2035 C 0.31153 0.09338 0.81151
 N2036 N 0.30618 0.09891 0.82334
 N2037 N 0.31242 0.10958 0.82959
 C2038 C 0.32425 0.11512 0.82423
 N2039 N 0.32962 0.10956 0.81241
 N2040 N 0.32338 0.09889 0.80617
 C2041 C 0.30452 0.08177 0.80450
 N2042 N 0.30977 0.07638 0.79255
 N2043 N 0.30329 0.06599 0.78607
 C2044 C 0.29132 0.06063 0.79129
 N2045 N 0.28609 0.06600 0.80325
 N2046 N 0.29258 0.07638 0.80974
 C2047 C 0.28405 0.04935 0.78402
 N2048 N 0.27198 0.04411 0.78914
 N2049 N 0.26527 0.03403 0.78243
 C2050 C 0.27037 0.02882 0.77035
 N2051 N 0.28245 0.03403 0.76524
 N2052 N 0.28917 0.04411 0.77195
 C2053 C 0.81175 0.59350 0.81167
 N2054 N 0.80639 0.59903 0.82350
 N2055 N 0.81263 0.60971 0.82974
 C2056 C 0.82446 0.61526 0.82438
 N2057 N 0.82983 0.60969 0.81257
 N2058 N 0.82360 0.59901 0.80633
 C2059 C 0.80474 0.58190 0.80466
 N2060 N 0.80999 0.57649 0.79272
 N2061 N 0.80351 0.56611 0.78624
 C2062 C 0.79154 0.56075 0.79146
 N2063 N 0.78631 0.56613 0.80342
 N2064 N 0.79279 0.57651 0.80990
 C2065 C 0.78426 0.54948 0.78418
 N2066 N 0.77218 0.54425 0.78930
 N2067 N 0.76546 0.53418 0.78258
 C2068 C 0.77057 0.52896 0.77050
 N2069 N 0.78266 0.53416 0.76540
 N2070 N 0.78938 0.54423 0.77212
 C2071 C 0.81194 0.09349 0.31153
 N2072 N 0.80660 0.09902 0.32337
 N2073 N 0.81284 0.10969 0.32960
 C2074 C 0.82467 0.11524 0.32423
 N2075 N 0.83002 0.10967 0.31240
 N2076 N 0.82377 0.09900 0.30617
 C2077 C 0.80491 0.08188 0.30453
 N2078 N 0.81014 0.07647 0.29259
 N2079 N 0.80365 0.06609 0.28612
 C2080 C 0.79168 0.06074 0.29136
 N2081 N 0.78647 0.06612 0.30332
 N2082 N 0.79296 0.07651 0.30979
 C2083 C 0.78439 0.04946 0.28410
 N2084 N 0.77232 0.04425 0.28924
 N2085 N 0.76558 0.03417 0.28254
 C2086 C 0.77068 0.02893 0.27046
 N2087 N 0.78277 0.03411 0.26534
 N2088 N 0.78950 0.04419 0.27204
 C2089 C 0.68855 0.40635 0.31144
 N2090 N 0.69389 0.40082 0.32328
 N2091 N 0.68765 0.39015 0.32952
 C2092 C 0.67583 0.38460 0.32415
 N2093 N 0.67047 0.39016 0.31233
 N2094 N 0.67671 0.40083 0.30609
 C2095 C 0.69557 0.41795 0.30443
 N2096 N 0.69033 0.42336 0.29249
 N2097 N 0.69682 0.43374 0.28602
 C2098 C 0.70878 0.43910 0.29125
 N2099 N 0.71400 0.43372 0.30321
 N2100 N 0.70751 0.42334 0.30968
 C2101 C 0.71606 0.45038 0.28398
 N2102 N 0.72813 0.45560 0.28910
 N2103 N 0.73486 0.46568 0.28240
 C2104 C 0.72975 0.47091 0.27032
 N2105 N 0.71766 0.46571 0.26522
 N2106 N 0.71094 0.45563 0.27192
 C2107 C 0.68822 0.90682 0.81169
 N2108 N 0.69356 0.90130 0.82353
 N2109 N 0.68731 0.89063 0.82977
 C2110 C 0.67549 0.88509 0.82440
 N2111 N 0.67013 0.89065 0.81258
 N2112 N 0.67638 0.90131 0.80634
 C2113 C 0.69525 0.91842 0.80468
 N2114 N 0.69002 0.92382 0.79273
 N2115 N 0.69651 0.93419 0.78625
 C2116 C 0.70848 0.93955 0.79148
 N2117 N 0.71369 0.93418 0.80345
 N2118 N 0.70719 0.92381 0.80993
 C2119 C 0.71577 0.95082 0.78421
 N2120 N 0.72783 0.95605 0.78935
 N2121 N 0.73457 0.96612 0.78264
 C2122 C 0.72948 0.97133 0.77055
 N2123 N 0.71740 0.96613 0.76543
 N2124 N 0.71067 0.95606 0.77214
 C2125 C 0.18812 0.40668 0.81162
 N2126 N 0.19347 0.40114 0.82345
 N2127 N 0.18723 0.39047 0.82969
 C2128 C 0.17540 0.38492 0.82432
 N2129 N 0.17004 0.39049 0.81250
 N2130 N 0.17628 0.40116 0.80627
 C2131 C 0.19514 0.41829 0.80462
 N2132 N 0.18989 0.42369 0.79268
 N2133 N 0.19638 0.43407 0.78620
 C2134 C 0.20835 0.43943 0.79143
 N2135 N 0.21357 0.43405 0.80339
 N2136 N 0.20708 0.42367 0.80986
 C2137 C 0.21563 0.45071 0.78416
 N2138 N 0.22770 0.45593 0.78928
 N2139 N 0.23443 0.46601 0.78256
 C2140 C 0.22932 0.47123 0.77048
 N2141 N 0.21724 0.46603 0.76538
 N2142 N 0.21051 0.45595 0.77209
 C2143 C 0.18839 0.90701 0.31149
 N2144 N 0.19375 0.90149 0.32332
 N2145 N 0.18751 0.89083 0.32957
 C2146 C 0.17567 0.88529 0.32423
 N2147 N 0.17030 0.89085 0.31241
 N2148 N 0.17654 0.90151 0.30616
 C2149 C 0.19541 0.91861 0.30446
 N2150 N 0.19016 0.92401 0.29253
 N2151 N 0.19664 0.93438 0.28603
 C2152 C 0.20862 0.93974 0.29124
 N2153 N 0.21385 0.93436 0.30319
 N2154 N 0.20737 0.92399 0.30969
 C2155 C 0.21589 0.95101 0.28396
 N2156 N 0.22797 0.95623 0.28906
 N2157 N 0.23469 0.96631 0.28234
 C2158 C 0.22957 0.97153 0.27026
 N2159 N 0.21748 0.96633 0.26518
 N2160 N 0.21076 0.95626 0.27190
 C2161 C 0.40616 0.31126 0.68886
 N2162 N 0.40063 0.32310 0.69422
 N2163 N 0.38993 0.32934 0.68800
 C2164 C 0.38438 0.32398 0.67618
 N2165 N 0.38995 0.31216 0.67081
 N2166 N 0.40064 0.30592 0.67703
 C2167 C 0.41780 0.30425 0.69586
 N2168 N 0.42321 0.29232 0.69060
 N2169 N 0.43362 0.28584 0.69706
 C2170 C 0.43900 0.29106 0.70901
 N2171 N 0.43361 0.30302 0.71425
 N2172 N 0.42320 0.30950 0.70779
 C2173 C 0.45032 0.28380 0.71626
 N2174 N 0.45557 0.28892 0.72832
 N2175 N 0.46568 0.28222 0.73501
 C2176 C 0.47092 0.27014 0.72988
 N2177 N 0.46570 0.26503 0.71781
 N2178 N 0.45558 0.27174 0.71112
 C2179 C 0.40637 0.81186 0.18828
 N2180 N 0.40084 0.82371 0.19362
 N2181 N 0.39015 0.82995 0.18738
 C2182 C 0.38459 0.82457 0.17557
 N2183 N 0.39016 0.81274 0.17021
 N2184 N 0.40085 0.80651 0.17645
 C2185 C 0.41799 0.80485 0.19529
 N2186 N 0.42340 0.79290 0.19005
 N2187 N 0.43380 0.78643 0.19653
 C2188 C 0.43917 0.79166 0.20849
 N2189 N 0.43378 0.80363 0.21371
 N2190 N 0.42338 0.81011 0.20722
 C2191 C 0.45046 0.78439 0.21577
 N2192 N 0.45568 0.78952 0.22783
 N2193 N 0.46577 0.78281 0.23455
 C2194 C 0.47101 0.77072 0.22946
 N2195 N 0.46581 0.76561 0.21738
 N2196 N 0.45572 0.77232 0.21066
 C2197 C 0.90663 0.31135 0.18842
 N2198 N 0.90110 0.32319 0.19376
 N2199 N 0.89041 0.32943 0.18752
 C2200 C 0.88486 0.32405 0.17570
 N2201 N 0.89043 0.31222 0.17035
 N2202 N 0.90112 0.30598 0.17659
 C2203 C 0.91826 0.30434 0.19544
 N2204 N 0.92367 0.29239 0.19021
 N2205 N 0.93407 0.28593 0.19669
 C2206 C 0.93944 0.29117 0.20865
 N2207 N 0.93404 0.30314 0.21386
 N2208 N 0.92364 0.30961 0.20737
 C2209 C 0.95074 0.28391 0.21593
 N2210 N 0.95596 0.28905 0.22798
 N2211 N 0.96606 0.28235 0.23470
 C2212 C 0.97131 0.27027 0.22961
 N2213 N 0.96611 0.26514 0.21754
 N2214 N 0.95600 0.27184 0.21082
 C2215 C 0.90646 0.81155 0.68886
 N2216 N 0.90092 0.82339 0.69422
 N2217 N 0.89024 0.82964 0.68798
 C2218 C 0.88470 0.82428 0.67615
 N2219 N 0.89027 0.81246 0.67078
 N2220 N 0.90095 0.80621 0.67702
 C2221 C 0.91808 0.80453 0.69587
 N2222 N 0.92349 0.79259 0.69061
 N2223 N 0.93389 0.78610 0.69709
 C2224 C 0.93925 0.79132 0.70905
 N2225 N 0.93386 0.80327 0.71429
 N2226 N 0.92346 0.80976 0.70782
 C2227 C 0.95055 0.78404 0.71632
 N2228 N 0.95578 0.78915 0.72838
 N2229 N 0.96588 0.78243 0.73508
 C2230 C 0.97112 0.77035 0.72996
 N2231 N 0.96591 0.76526 0.71788
 N2232 N 0.95581 0.77198 0.71118
 C2233 C 0.59366 0.31139 0.31141
 N2234 N 0.59917 0.32323 0.30606
 N2235 N 0.60984 0.32948 0.31231
 C2236 C 0.61540 0.32411 0.32413
 N2237 N 0.60986 0.31228 0.32948
 N2238 N 0.59919 0.30604 0.32324
 C2239 C 0.58206 0.30437 0.30439
 N2240 N 0.57668 0.29242 0.30963
 N2241 N 0.56630 0.28593 0.30315
 C2242 C 0.56092 0.29116 0.29120
 N2243 N 0.56628 0.30313 0.28598
 N2244 N 0.57666 0.30961 0.29246
 C2245 C 0.54963 0.28388 0.28393
 N2246 N 0.54438 0.28901 0.27187
 N2247 N 0.53430 0.28230 0.26516
 C2248 C 0.52909 0.27021 0.27027
 N2249 N 0.53432 0.26510 0.28234
 N2250 N 0.54441 0.27182 0.28905
 C2251 C 0.59329 0.81192 0.81165
 N2252 N 0.59880 0.80657 0.82348
 N2253 N 0.60947 0.81282 0.82973
 C2254 C 0.61502 0.82464 0.82438
 N2255 N 0.60946 0.83001 0.81255
 N2256 N 0.59880 0.82376 0.80631
 C2257 C 0.58169 0.80490 0.80463
 N2258 N 0.57630 0.81013 0.79268
 N2259 N 0.56593 0.80364 0.78619
 C2260 C 0.56057 0.79167 0.79141
 N2261 N 0.56594 0.78645 0.80338
 N2262 N 0.57631 0.79295 0.80987
 C2263 C 0.54930 0.78438 0.78413
 N2264 N 0.54408 0.77231 0.78925
 N2265 N 0.53402 0.76558 0.78252
 C2266 C 0.52881 0.77067 0.77043
 N2267 N 0.53401 0.78276 0.76533
 N2268 N 0.54407 0.78949 0.77206
 C2269 C 0.09323 0.31172 0.81155
 N2270 N 0.09874 0.32357 0.80621
 N2271 N 0.10941 0.32981 0.81245
 C2272 C 0.11497 0.32444 0.82427
 N2273 N 0.10942 0.31262 0.82963
 N2274 N 0.09875 0.30637 0.82339
 C2275 C 0.08162 0.30471 0.80454
 N2276 N 0.07624 0.29276 0.80978
 N2277 N 0.06586 0.28627 0.80330
 C2278 C 0.06049 0.29149 0.79134
 N2279 N 0.06585 0.30346 0.78611
 N2280 N 0.07623 0.30995 0.79259
 C2281 C 0.04921 0.28421 0.78406
 N2282 N 0.04397 0.28933 0.77200
 N2283 N 0.03389 0.28261 0.76528
 C2284 C 0.02869 0.27052 0.77039
 N2285 N 0.03390 0.26543 0.78248
 N2286 N 0.04398 0.27215 0.78919
 C2287 C 0.09343 0.81215 0.31161
 N2288 N 0.09894 0.82399 0.30626
 N2289 N 0.10961 0.83023 0.31249
 C2290 C 0.11518 0.82487 0.32431
 N2291 N 0.10964 0.81304 0.32967
 N2292 N 0.09896 0.80680 0.32344
 C2293 C 0.08182 0.80513 0.30461
 N2294 N 0.07644 0.79318 0.30985
 N2295 N 0.06606 0.78669 0.30338
 C2296 C 0.06067 0.79191 0.29142
 N2297 N 0.06603 0.80388 0.28619
 N2298 N 0.07641 0.81037 0.29267
 C2299 C 0.04940 0.78463 0.28416
 N2300 N 0.04414 0.78975 0.27210
 N2301 N 0.03406 0.78302 0.26539
 C2302 C 0.02887 0.77093 0.27050
 N2303 N 0.03410 0.76583 0.28257
 N2304 N 0.04418 0.77255 0.28928
 C2305 C 0.59377 0.68886 0.68881
 N2306 N 0.59930 0.69421 0.67698
 N2307 N 0.60999 0.68797 0.67075
 C2308 C 0.61556 0.67615 0.67612
 N2309 N 0.61000 0.67079 0.68793
 N2310 N 0.59931 0.67703 0.69416
 C2311 C 0.58213 0.69587 0.69580
 N2312 N 0.57673 0.69063 0.70774
 N2313 N 0.56632 0.69711 0.71420
 C2314 C 0.56093 0.70906 0.70896
 N2315 N 0.56631 0.71429 0.69701
 N2316 N 0.57672 0.70781 0.69055
 C2317 C 0.54961 0.71633 0.71621
 N2318 N 0.54435 0.72839 0.71107
 N2319 N 0.53423 0.73509 0.71776
 C2320 C 0.52900 0.72999 0.72983
 N2321 N 0.53424 0.71791 0.73495
 N2322 N 0.54436 0.71121 0.72826
 C2323 C 0.59375 0.18842 0.18843
 N2324 N 0.59926 0.19378 0.17660
 N2325 N 0.60995 0.18754 0.17036
 C2326 C 0.61553 0.17572 0.17572
 N2327 N 0.60998 0.17035 0.18754
 N2328 N 0.59929 0.17659 0.19378
 C2329 C 0.58212 0.19543 0.19545
 N2330 N 0.57674 0.19018 0.20739
 N2331 N 0.56634 0.19666 0.21387
 C2332 C 0.56095 0.20863 0.20865
 N2333 N 0.56631 0.21386 0.19669
 N2334 N 0.57671 0.20738 0.19021
 C2335 C 0.54965 0.21590 0.21593
 N2336 N 0.54439 0.22797 0.21082
 N2337 N 0.53430 0.23468 0.21754
 C2338 C 0.52910 0.22957 0.22962
 N2339 N 0.53433 0.21748 0.23472
 N2340 N 0.54442 0.21077 0.22799
 C2341 C 0.09355 0.68909 0.18859
 N2342 N 0.09906 0.69444 0.17675
 N2343 N 0.10973 0.68819 0.17049
 C2344 C 0.11528 0.67635 0.17583
 N2345 N 0.10974 0.67098 0.18766
 N2346 N 0.09907 0.67724 0.19392
 C2347 C 0.08195 0.69612 0.19562
 N2348 N 0.07657 0.69087 0.20756
 N2349 N 0.06619 0.69736 0.21406
 C2350 C 0.06081 0.70933 0.20886
 N2351 N 0.06616 0.71457 0.19690
 N2352 N 0.07655 0.70808 0.19040
 C2353 C 0.04952 0.71661 0.21615
 N2354 N 0.04426 0.72868 0.21104
 N2355 N 0.03417 0.73539 0.21777
 C2356 C 0.02896 0.73027 0.22985
 N2357 N 0.03420 0.71819 0.23494
 N2358 N 0.04429 0.71148 0.22821
 C2359 C 0.09344 0.18859 0.68872
 N2360 N 0.09896 0.19393 0.67688
 N2361 N 0.10964 0.18767 0.67064
 C2362 C 0.11520 0.17585 0.67601
 N2363 N 0.10965 0.17050 0.68784
 N2364 N 0.09897 0.17675 0.69408
 C2365 C 0.08182 0.19562 0.69573
 N2366 N 0.07642 0.19039 0.70767
 N2367 N 0.06603 0.19688 0.71414
 C2368 C 0.06064 0.20884 0.70890
 N2369 N 0.06602 0.21405 0.69694
 N2370 N 0.07641 0.20756 0.69047
 C2371 C 0.04934 0.21612 0.71616
 N2372 N 0.04409 0.22819 0.71102
 N2373 N 0.03399 0.23491 0.71772
 C2374 C 0.02877 0.22982 0.72980
 N2375 N 0.03400 0.21774 0.73492
 N2376 N 0.04410 0.21101 0.72823
 C2377 C 0.40634 0.68889 0.31116
 N2378 N 0.40082 0.69423 0.32300
 N2379 N 0.39015 0.68798 0.32924
 C2380 C 0.38460 0.67616 0.32387
 N2381 N 0.39016 0.67081 0.31204
 N2382 N 0.40083 0.67705 0.30581
 C2383 C 0.41795 0.69591 0.30416
 N2384 N 0.42336 0.69067 0.29222
 N2385 N 0.43375 0.69715 0.28575
 C2386 C 0.43911 0.70912 0.29098
 N2387 N 0.43373 0.71434 0.30294
 N2388 N 0.42334 0.70785 0.30941
 C2389 C 0.45040 0.71639 0.28373
 N2390 N 0.45563 0.72846 0.28886
 N2391 N 0.46572 0.73518 0.28216
 C2392 C 0.47096 0.73007 0.27009
 N2393 N 0.46576 0.71799 0.26497
 N2394 N 0.45567 0.71127 0.27167
 C2395 C 0.40649 0.18827 0.81160
 N2396 N 0.40096 0.19362 0.82343
 N2397 N 0.39028 0.18738 0.82966
 C2398 C 0.38473 0.17556 0.82429
 N2399 N 0.39030 0.17019 0.81247
 N2400 N 0.40098 0.17643 0.80624
 C2401 C 0.41811 0.19528 0.80460
 N2402 N 0.42352 0.19004 0.79266
 N2403 N 0.43390 0.19653 0.78618
 C2404 C 0.43926 0.20849 0.79141
 N2405 N 0.43388 0.21371 0.80337
 N2406 N 0.42349 0.20723 0.80984
 C2407 C 0.45054 0.21577 0.78415
 N2408 N 0.45577 0.22784 0.78927
 N2409 N 0.46585 0.23457 0.78256
 C2410 C 0.47107 0.22947 0.77048
 N2411 N 0.46587 0.21738 0.76537
 N2412 N 0.45579 0.21065 0.77208
 C2413 C 0.90665 0.68845 0.81167
 N2414 N 0.90112 0.69380 0.82350
 N2415 N 0.89044 0.68756 0.82974
 C2416 C 0.88490 0.67573 0.82438
 N2417 N 0.89047 0.67036 0.81257
 N2418 N 0.90114 0.67660 0.80633
 C2419 C 0.91826 0.69546 0.80466
 N2420 N 0.92366 0.69022 0.79272
 N2421 N 0.93404 0.69671 0.78625
 C2422 C 0.93940 0.70867 0.79147
 N2423 N 0.93402 0.71389 0.80343
 N2424 N 0.92364 0.70741 0.80991
 C2425 C 0.95068 0.71595 0.78420
 N2426 N 0.95591 0.72802 0.78933
 N2427 N 0.96599 0.73474 0.78263
 C2428 C 0.97121 0.72965 0.77054
 N2429 N 0.96601 0.71757 0.76543
 N2430 N 0.95593 0.71084 0.77214
 C2431 C 0.90684 0.18844 0.31144
 N2432 N 0.90133 0.17659 0.30610
 N2433 N 0.89067 0.17035 0.31234
 C2434 C 0.88511 0.17571 0.32417
 N2435 N 0.89065 0.18754 0.32952
 N2436 N 0.90132 0.19379 0.32327
 C2437 C 0.91844 0.19546 0.30442
 N2438 N 0.92382 0.20741 0.30966
 N2439 N 0.93420 0.21389 0.30317
 C2440 C 0.93958 0.20867 0.29121
 N2441 N 0.93423 0.19670 0.28599
 N2442 N 0.92385 0.19021 0.29248
 C2443 C 0.95086 0.21595 0.28394
 N2444 N 0.95611 0.21082 0.27188
 N2445 N 0.96619 0.21754 0.26516
 C2446 C 0.97138 0.22964 0.27027
 N2447 N 0.96616 0.23474 0.28234
 N2448 N 0.95608 0.22802 0.28906
 C2449 C 0.31121 0.31134 0.59396
 N2450 N 0.32305 0.30597 0.59948
 N2451 N 0.32928 0.31220 0.61016
 C2452 C 0.32390 0.32403 0.61573
 N2453 N 0.31208 0.32941 0.61017
 N2454 N 0.30585 0.32318 0.59948
 C2455 C 0.30421 0.30434 0.58233
 N2456 N 0.29227 0.30960 0.57694
 N2457 N 0.28580 0.30313 0.56654
 C2458 C 0.29104 0.29117 0.56116
 N2459 N 0.30300 0.28593 0.56653
 N2460 N 0.30947 0.29240 0.57693
 C2461 C 0.28378 0.28392 0.54986
 N2462 N 0.28891 0.27185 0.54461
 N2463 N 0.28221 0.26515 0.53451
 C2464 C 0.27013 0.27028 0.52929
 N2465 N 0.26501 0.28235 0.53451
 N2466 N 0.27171 0.28905 0.54461
 C2467 C 0.31134 0.81180 0.09345
 N2468 N 0.32319 0.80646 0.09896
 N2469 N 0.32943 0.81271 0.10963
 C2470 C 0.32405 0.82453 0.11518
 N2471 N 0.31222 0.82989 0.10964
 N2472 N 0.30598 0.82364 0.09897
 C2473 C 0.30434 0.80478 0.08185
 N2474 N 0.29238 0.81002 0.07645
 N2475 N 0.28591 0.80353 0.06607
 C2476 C 0.29115 0.79156 0.06071
 N2477 N 0.30312 0.78634 0.06608
 N2478 N 0.30960 0.79283 0.07646
 C2479 C 0.28389 0.78428 0.04943
 N2480 N 0.28903 0.77221 0.04420
 N2481 N 0.28232 0.76548 0.03412
 C2482 C 0.27024 0.77059 0.02890
 N2483 N 0.26511 0.78268 0.03410
 N2484 N 0.27182 0.78940 0.04418
 C2485 C 0.81162 0.31136 0.09352
 N2486 N 0.82347 0.30600 0.09904
 N2487 N 0.82971 0.31223 0.10971
 C2488 C 0.82435 0.32406 0.11527
 N2489 N 0.81252 0.32944 0.10972
 N2490 N 0.80627 0.32320 0.09905
 C2491 C 0.80460 0.30436 0.08192
 N2492 N 0.79265 0.30962 0.07653
 N2493 N 0.78617 0.30315 0.06615
 C2494 C 0.79139 0.29119 0.06076
 N2495 N 0.80336 0.28595 0.06612
 N2496 N 0.80985 0.29241 0.07651
 C2497 C 0.78411 0.28393 0.04948
 N2498 N 0.78923 0.27187 0.04422
 N2499 N 0.78251 0.26517 0.03413
 C2500 C 0.77042 0.27029 0.02894
 N2501 N 0.76531 0.28238 0.03417
 N2502 N 0.77204 0.28907 0.04426
 C2503 C 0.81158 0.81168 0.59388
 N2504 N 0.80622 0.82351 0.59941
 N2505 N 0.81244 0.82974 0.61009
 C2506 C 0.82427 0.82437 0.61565
 N2507 N 0.82965 0.81254 0.61009
 N2508 N 0.82342 0.80631 0.59941
 C2509 C 0.80458 0.80467 0.58226
 N2510 N 0.80984 0.79273 0.57686
 N2511 N 0.80337 0.78626 0.56647
 C2512 C 0.79140 0.79150 0.56109
 N2513 N 0.78616 0.80346 0.56647
 N2514 N 0.79263 0.80993 0.57687
 C2515 C 0.78414 0.78423 0.54980
 N2516 N 0.77207 0.78937 0.54456
 N2517 N 0.76536 0.78266 0.53448
 C2518 C 0.77048 0.77057 0.52926
 N2519 N 0.78256 0.76546 0.53447
 N2520 N 0.78927 0.77217 0.54456
 C2521 C 0.31146 0.68886 0.40614
 N2522 N 0.30611 0.67702 0.40061
 N2523 N 0.31235 0.67078 0.38993
 C2524 C 0.32417 0.67614 0.38437
 N2525 N 0.32954 0.68796 0.38993
 N2526 N 0.32330 0.69420 0.40061
 C2527 C 0.30445 0.69587 0.41775
 N2528 N 0.30970 0.70781 0.42315
 N2529 N 0.30322 0.71429 0.43355
 C2530 C 0.29126 0.70907 0.43892
 N2531 N 0.28603 0.69712 0.43354
 N2532 N 0.29251 0.69063 0.42315
 C2533 C 0.28399 0.71635 0.45021
 N2534 N 0.27192 0.71123 0.45545
 N2535 N 0.26521 0.71795 0.46554
 C2536 C 0.27033 0.73002 0.47077
 N2537 N 0.28242 0.73512 0.46555
 N2538 N 0.28912 0.72840 0.45546
 C2539 C 0.31140 0.18839 0.90636
 N2540 N 0.30606 0.17655 0.90085
 N2541 N 0.31232 0.17029 0.89019
 C2542 C 0.32416 0.17563 0.88465
 N2543 N 0.32952 0.18746 0.89020
 N2544 N 0.32325 0.19372 0.90086
 C2545 C 0.30437 0.19542 0.91795
 N2546 N 0.30960 0.20737 0.92334
 N2547 N 0.30311 0.21387 0.93371
 C2548 C 0.29113 0.20866 0.93907
 N2549 N 0.28591 0.19669 0.93370
 N2550 N 0.29241 0.19019 0.92333
 C2551 C 0.28384 0.21595 0.95034
 N2552 N 0.27177 0.21084 0.95557
 N2553 N 0.26504 0.21756 0.96564
 C2554 C 0.27014 0.22965 0.97085
 N2555 N 0.28223 0.23474 0.96565
 N2556 N 0.28896 0.22802 0.95557
 C2557 C 0.81155 0.68857 0.90645
 N2558 N 0.80623 0.67672 0.90094
 N2559 N 0.81250 0.67046 0.89029
 C2560 C 0.82433 0.67581 0.88475
 N2561 N 0.82967 0.68765 0.89029
 N2562 N 0.82340 0.69391 0.90094
 C2563 C 0.80451 0.69561 0.91803
 N2564 N 0.80973 0.70756 0.92341
 N2565 N 0.80322 0.71406 0.93378
 C2566 C 0.79125 0.70884 0.93913
 N2567 N 0.78604 0.69686 0.93377
 N2568 N 0.79255 0.69037 0.92341
 C2569 C 0.78395 0.71612 0.95040
 N2570 N 0.77188 0.71100 0.95563
 N2571 N 0.76514 0.71772 0.96570
 C2572 C 0.77023 0.72981 0.97091
 N2573 N 0.78231 0.73492 0.96571
 N2574 N 0.78905 0.72820 0.95563
 C2575 C 0.81190 0.18848 0.40637
 N2576 N 0.80657 0.17663 0.40086
 N2577 N 0.81282 0.17038 0.39020
 C2578 C 0.82464 0.17574 0.38464
 N2579 N 0.82999 0.18758 0.39018
 N2580 N 0.82373 0.19383 0.40085
 C2581 C 0.80487 0.19550 0.41797
 N2582 N 0.81009 0.20746 0.42335
 N2583 N 0.80359 0.21395 0.43373
 C2584 C 0.79164 0.20871 0.43910
 N2585 N 0.78643 0.19674 0.43374
 N2586 N 0.79293 0.19025 0.42337
 C2587 C 0.78434 0.21599 0.45038
 N2588 N 0.77228 0.21086 0.45562
 N2589 N 0.76555 0.21758 0.46569
 C2590 C 0.77063 0.22967 0.47089
 N2591 N 0.78271 0.23479 0.46568
 N2592 N 0.78944 0.22807 0.45560
 C2593 C 0.68861 0.31142 0.40632
 N2594 N 0.67678 0.30606 0.40080
 N2595 N 0.67052 0.31230 0.39014
 C2596 C 0.67587 0.32413 0.38459
 N2597 N 0.68768 0.32951 0.39014
 N2598 N 0.69394 0.32327 0.40081
 C2599 C 0.69564 0.30441 0.41792
 N2600 N 0.70758 0.30966 0.42331
 N2601 N 0.71408 0.30319 0.43369
 C2602 C 0.70888 0.29121 0.43906
 N2603 N 0.69692 0.28598 0.43369
 N2604 N 0.69042 0.29245 0.42331
 C2605 C 0.71617 0.28395 0.45034
 N2606 N 0.71107 0.27187 0.45558
 N2607 N 0.71780 0.26517 0.46566
 C2608 C 0.72988 0.27029 0.47087
 N2609 N 0.73496 0.28238 0.46565
 N2610 N 0.72823 0.28909 0.45557
 C2611 C 0.68825 0.81179 0.90650
 N2612 N 0.67641 0.80646 0.90098
 N2613 N 0.67015 0.81273 0.89033
 C2614 C 0.67551 0.82456 0.88480
 N2615 N 0.68734 0.82991 0.89035
 N2616 N 0.69359 0.82364 0.90100
 C2617 C 0.69529 0.80475 0.91808
 N2618 N 0.70723 0.80998 0.92347
 N2619 N 0.71373 0.80347 0.93383
 C2620 C 0.70852 0.79150 0.93918
 N2621 N 0.69655 0.78628 0.93381
 N2622 N 0.69005 0.79279 0.92345
 C2623 C 0.71581 0.78420 0.95044
 N2624 N 0.71070 0.77212 0.95566
 N2625 N 0.71742 0.76538 0.96573
 C2626 C 0.72951 0.77048 0.97094
 N2627 N 0.73460 0.78258 0.96575
 N2628 N 0.72787 0.78931 0.95568
 C2629 C 0.18822 0.31162 0.90640
 N2630 N 0.17637 0.30628 0.90089
 N2631 N 0.17011 0.31254 0.89023
 C2632 C 0.17547 0.32438 0.88469
 N2633 N 0.18730 0.32973 0.89024
 N2634 N 0.19355 0.32347 0.90089
 C2635 C 0.19525 0.30458 0.91799
 N2636 N 0.20720 0.30982 0.92337
 N2637 N 0.21369 0.30332 0.93374
 C2638 C 0.20848 0.29135 0.93910
 N2639 N 0.19651 0.28613 0.93373
 N2640 N 0.19001 0.29263 0.92337
 C2641 C 0.21577 0.28405 0.95036
 N2642 N 0.21065 0.27198 0.95559
 N2643 N 0.21737 0.26525 0.96566
 C2644 C 0.22946 0.27035 0.97087
 N2645 N 0.23456 0.28243 0.96567
 N2646 N 0.22784 0.28916 0.95560
 C2647 C 0.18847 0.81206 0.40639
 N2648 N 0.17662 0.80673 0.40089
 N2649 N 0.17036 0.81299 0.39023
 C2650 C 0.17572 0.82481 0.38467
 N2651 N 0.18756 0.83015 0.39021
 N2652 N 0.19382 0.82389 0.40087
 C2653 C 0.19550 0.80502 0.41797
 N2654 N 0.20746 0.81024 0.42335
 N2655 N 0.21396 0.80374 0.43372
 C2656 C 0.20872 0.79178 0.43909
 N2657 N 0.19675 0.78658 0.43373
 N2658 N 0.19025 0.79308 0.42337
 C2659 C 0.21601 0.78448 0.45035
 N2660 N 0.21088 0.77241 0.45558
 N2661 N 0.21760 0.76567 0.46565
 C2662 C 0.22970 0.77075 0.47085
 N2663 N 0.23481 0.78283 0.46564
 N2664 N 0.22809 0.78957 0.45558
 C2665 C 0.68876 0.68882 0.59392
 N2666 N 0.69412 0.67698 0.59944
 N2667 N 0.68789 0.67075 0.61012
 C2668 C 0.67606 0.67612 0.61568
 N2669 N 0.67068 0.68794 0.61012
 N2670 N 0.67692 0.69418 0.59944
 C2671 C 0.69576 0.69583 0.58230
 N2672 N 0.69050 0.70777 0.57691
 N2673 N 0.69697 0.71424 0.56651
 C2674 C 0.70894 0.70901 0.56113
 N2675 N 0.71418 0.69705 0.56651
 N2676 N 0.70771 0.69057 0.57690
 C2677 C 0.71620 0.71628 0.54984
 N2678 N 0.72827 0.71114 0.54459
 N2679 N 0.73497 0.71785 0.53450
 C2680 C 0.72985 0.72994 0.52929
 N2681 N 0.71776 0.73505 0.53451
 N2682 N 0.71106 0.72834 0.54460
 C2683 C 0.68873 0.18846 0.09355
 N2684 N 0.69411 0.17662 0.09907
 N2685 N 0.68788 0.17038 0.10974
 C2686 C 0.67604 0.17573 0.11530
 N2687 N 0.67065 0.18755 0.10974
 N2688 N 0.67688 0.19380 0.09907
 C2689 C 0.69573 0.19548 0.08194
 N2690 N 0.69046 0.20742 0.07655
 N2691 N 0.69692 0.21391 0.06616
 C2692 C 0.70889 0.20869 0.06078
 N2693 N 0.71415 0.19672 0.06614
 N2694 N 0.70768 0.19024 0.07653
 C2695 C 0.71615 0.21597 0.04949
 N2696 N 0.72822 0.21085 0.04423
 N2697 N 0.73491 0.21757 0.03414
 C2698 C 0.72978 0.22966 0.02895
 N2699 N 0.71770 0.23476 0.03418
 N2700 N 0.71100 0.22804 0.04427
 C2701 C 0.18843 0.68891 0.09355
 N2702 N 0.19377 0.67706 0.09907
 N2703 N 0.18753 0.67083 0.10975
 C2704 C 0.17571 0.67622 0.11531
 N2705 N 0.17035 0.68806 0.10976
 N2706 N 0.17660 0.69428 0.09908
 C2707 C 0.19544 0.69590 0.08193
 N2708 N 0.19020 0.70785 0.07653
 N2709 N 0.19668 0.71431 0.06614
 C2710 C 0.20865 0.70906 0.06077
 N2711 N 0.21387 0.69709 0.06615
 N2712 N 0.20739 0.69063 0.07654
 C2713 C 0.21592 0.71632 0.04948
 N2714 N 0.22799 0.71117 0.04424
 N2715 N 0.23471 0.71787 0.03415
 C2716 C 0.22960 0.72995 0.02893
 N2717 N 0.21751 0.73508 0.03413
 N2718 N 0.21080 0.72838 0.04422
 C2719 C 0.18836 0.18848 0.59377
 N2720 N 0.19372 0.17664 0.59929
 N2721 N 0.18748 0.17040 0.60997
 C2722 C 0.17566 0.17578 0.61553
 N2723 N 0.17028 0.18760 0.60998
 N2724 N 0.17652 0.19384 0.59930
 C2725 C 0.19537 0.19549 0.58216
 N2726 N 0.19011 0.20744 0.57677
 N2727 N 0.19659 0.21392 0.56638
 C2728 C 0.20856 0.20868 0.56101
 N2729 N 0.21379 0.19672 0.56638
 N2730 N 0.20732 0.19024 0.57676
 C2731 C 0.21583 0.21596 0.54973
 N2732 N 0.22790 0.21083 0.54449
 N2733 N 0.23462 0.21755 0.53441
 C2734 C 0.22950 0.22964 0.52920
 N2735 N 0.21741 0.23475 0.53442
 N2736 N 0.21069 0.22803 0.54450
   
