data_POSCAR
  _audit_creation_date              2014-09-24
  _audit_creation_method            'ToBaCCo'
  _symmetry_space_group_name_H-M    'P1'
  _symmetry_Int_Tables_number       1
  _symmetry_cell_setting            triclinic
  loop_
  _symmetry_equiv_pos_as_xyz
 x,y,z
_cell_length_a 76.6498
_cell_length_b 76.6026
_cell_length_c 76.6124
_cell_angle_alpha 89.758100
_cell_angle_beta 90.049900
_cell_angle_gamma 90.203900
loop_
  _atom_site_label
  _atom_site_type_symbol
  _atom_site_fract_x
  _atom_site_fract_y
  _atom_site_fract_z
C1 C 0.13186 -0.02458 0.25411
 C2 C 0.12438 -0.00841 0.25825
 C3 C 0.11679 -0.00596 0.27467
 C4 C 0.11666 -0.01948 0.28707
 C5 C 0.12464 -0.03542 0.28292
 C6 C 0.13223 -0.03840 0.26639
 C7 C 0.12449 0.00599 0.24532
 C8 C 0.11745 0.00349 0.22858
 C9 C 0.11724 0.01718 0.21614
 C10 C 0.12506 0.03321 0.22091
 C11 C 0.13195 0.03596 0.23767
 C12 C 0.13147 0.02228 0.24985
 H13 H 0.13701 -0.02625 0.24109
 H14 H 0.11056 0.00636 0.27756
 H15 H 0.11131 -0.00894 0.22587
 H16 H 0.13663 0.02421 0.26288
 H17 H 0.12561 -0.04516 0.29312
 H18 H 0.12663 0.04352 0.21135
 C19 C 0.36760 -0.02032 0.74607
 C20 C 0.37478 -0.00388 0.74212
 C21 C 0.38157 -0.00073 0.72539
 C22 C 0.38146 -0.01389 0.71266
 C23 C 0.37403 -0.03020 0.71680
 C24 C 0.36697 -0.03355 0.73343
 C25 C 0.37513 0.01003 0.75550
 C26 C 0.38186 0.00661 0.77222
 C27 C 0.38216 0.01961 0.78526
 C28 C 0.37509 0.03612 0.78100
 C29 C 0.36831 0.03975 0.76432
 C30 C 0.36855 0.02663 0.75161
 H31 H 0.36242 -0.02273 0.75902
 H32 H 0.38702 0.01199 0.72235
 H33 H 0.38641 -0.00646 0.77498
 H34 H 0.36347 0.02926 0.73866
 H35 H 0.37375 -0.04036 0.70704
 H36 H 0.37521 0.04653 0.79046
 C37 C 0.86776 0.47710 0.24725
 C38 C 0.87430 0.49385 0.24352
 C39 C 0.88060 0.49763 0.22672
 C40 C 0.88064 0.48477 0.21368
 C41 C 0.87384 0.46814 0.21760
 C42 C 0.86726 0.46418 0.23428
 C43 C 0.87445 0.50749 0.25717
 C44 C 0.88223 0.50422 0.27346
 C45 C 0.88246 0.51706 0.28667
 C46 C 0.87450 0.53327 0.28292
 C47 C 0.86626 0.53656 0.26687
 C48 C 0.86651 0.52364 0.25396
 H49 H 0.86294 0.47423 0.26024
 H50 H 0.88554 0.51060 0.22388
 H51 H 0.88766 0.49140 0.27577
 H52 H 0.86004 0.52588 0.24158
 H53 H 0.87366 0.45822 0.20759
 H54 H 0.87533 0.54387 0.29215
 C55 C 0.63383 0.47393 0.75527
 C56 C 0.62528 0.48977 0.75839
 C57 C 0.61664 0.49237 0.77431
 C58 C 0.61632 0.47917 0.78709
 C59 C 0.62514 0.46347 0.78385
 C60 C 0.63406 0.46074 0.76808
 C61 C 0.62568 0.50381 0.74515
 C62 C 0.61821 0.50115 0.72864
 C63 C 0.61831 0.51459 0.71607
 C64 C 0.62662 0.53046 0.72009
 C65 C 0.63399 0.53338 0.73662
 C66 C 0.63333 0.51996 0.74915
 H67 H 0.64081 0.47217 0.74311
 H68 H 0.60983 0.50454 0.77649
 H69 H 0.61180 0.48884 0.72587
 H70 H 0.63876 0.52202 0.76205
 H71 H 0.62514 0.45331 0.79372
 H72 H 0.62755 0.54053 0.71018
 C73 C 0.24788 0.13245 1.02333
 C74 C 0.24435 0.12579 1.00671
 C75 C 0.22769 0.11920 1.00288
 C76 C 0.21430 0.11904 1.01555
 C77 C 0.21816 0.12622 1.03210
 C78 C 0.23478 0.13295 1.03609
 C79 C 0.25802 0.12605 0.99312
 C80 C 0.27384 0.11724 0.99579
 C81 C 0.28682 0.11691 0.98270
 C82 C 0.28359 0.12631 0.96711
 C83 C 0.26797 0.13548 0.96443
 C84 C 0.25513 0.13505 0.97743
 H85 H 0.26081 0.13743 1.02621
 H86 H 0.22526 0.11467 0.98974
 H87 H 0.27535 0.10987 1.00777
 H88 H 0.24305 0.14213 0.97562
 H89 H 0.20842 0.12626 1.04228
 H90 H 0.29341 0.12705 0.95703
 C91 C 0.75219 0.36642 1.02228
 C92 C 0.75558 0.37401 1.00590
 C93 C 0.77154 0.38248 1.00290
 C94 C 0.78419 0.38341 1.01611
 C95 C 0.78082 0.37529 1.03224
 C96 C 0.76477 0.36686 1.03578
 C97 C 0.74232 0.37325 0.99187
 C98 C 0.72557 0.38008 0.99460
 C99 C 0.71287 0.37991 0.98118
 C100 C 0.71739 0.37186 0.96525
 C101 C 0.73415 0.36515 0.96227
 C102 C 0.74660 0.36605 0.97566
 H103 H 0.73949 0.36059 1.02439
 H104 H 0.77384 0.38878 0.99042
 H105 H 0.72306 0.38642 1.00692
 H106 H 0.75965 0.36111 0.97353
 H107 H 0.79127 0.37493 1.04170
 H108 H 0.70766 0.37000 0.95521
 C109 C 0.25067 0.86729 0.52279
 C110 C 0.25481 0.87406 0.50629
 C111 C 0.27145 0.88118 0.50326
 C112 C 0.28417 0.88172 0.51664
 C113 C 0.27979 0.87416 0.53293
 C114 C 0.26315 0.86711 0.53619
 C115 C 0.24165 0.87379 0.49215
 C116 C 0.22514 0.88121 0.49477
 C117 C 0.21254 0.88100 0.48142
 C118 C 0.21656 0.87274 0.46559
 C119 C 0.23309 0.86545 0.46264
 C120 C 0.24562 0.86614 0.47602
 H121 H 0.23774 0.86203 0.52511
 H122 H 0.27387 0.88713 0.49067
 H123 H 0.22237 0.88764 0.50702
 H124 H 0.25848 0.86070 0.47396
 H125 H 0.28956 0.87288 0.54302
 H126 H 0.20664 0.87173 0.45557
 C127 C 0.74967 0.63210 0.52187
 C128 C 0.74565 0.62554 0.50526
 C129 C 0.72884 0.61906 0.50190
 C130 C 0.71608 0.61884 0.51507
 C131 C 0.72028 0.62565 0.53156
 C132 C 0.73698 0.63239 0.53511
 C133 C 0.75912 0.62525 0.49142
 C134 C 0.77536 0.61743 0.49463
 C135 C 0.78842 0.61698 0.48164
 C136 C 0.78460 0.62475 0.46532
 C137 C 0.76860 0.63306 0.46207
 C138 C 0.75581 0.63302 0.47516
 H139 H 0.76269 0.63700 0.52444
 H140 H 0.72578 0.61404 0.48905
 H141 H 0.77774 0.61217 0.50753
 H142 H 0.74347 0.63952 0.47296
 H143 H 0.71048 0.62566 0.54172
 H144 H 0.79373 0.62375 0.45463
 C145 C -0.02452 0.25584 0.13254
 C146 C -0.00871 0.25922 0.12402
 C147 C -0.00618 0.27513 0.11523
 C148 C -0.01955 0.28778 0.11446
 C149 C -0.03526 0.28410 0.12341
 C150 C -0.03779 0.26838 0.13258
 C151 C 0.00519 0.24597 0.12424
 C152 C 0.00267 0.22996 0.11576
 C153 C 0.01589 0.21715 0.11558
 C154 C 0.03149 0.22081 0.12475
 C155 C 0.03400 0.23663 0.13364
 C156 C 0.02086 0.24931 0.13303
 H157 H -0.02622 0.24366 0.13959
 H158 H 0.00596 0.27700 0.10825
 H159 H -0.00936 0.22812 0.10859
 H160 H 0.02252 0.26155 0.13988
 H161 H -0.04557 0.29367 0.12385
 H162 H 0.04168 0.21114 0.12559
 C163 C -0.02213 0.74726 0.36473
 C164 C -0.00613 0.74415 0.37307
 C165 C -0.00329 0.72821 0.38167
 C166 C -0.01644 0.71539 0.38221
 C167 C -0.03229 0.71860 0.37356
 C168 C -0.03525 0.73440 0.36468
 C169 C 0.00768 0.75760 0.37276
 C170 C 0.00506 0.77365 0.38107
 C171 C 0.01823 0.78646 0.38105
 C172 C 0.03389 0.78311 0.37217
 C173 C 0.03664 0.76716 0.36361
 C174 C 0.02349 0.75435 0.36418
 H175 H -0.02410 0.75948 0.35785
 H176 H 0.00899 0.72605 0.38835
 H177 H -0.00706 0.77589 0.38797
 H178 H 0.02528 0.74202 0.35754
 H179 H -0.04241 0.70871 0.37372
 H180 H 0.04403 0.79298 0.37193
 C181 C 0.47847 0.24591 0.86521
 C182 C 0.49427 0.24211 0.87357
 C183 C 0.49648 0.22593 0.88194
 C184 C 0.48286 0.21343 0.88241
 C185 C 0.46716 0.21758 0.87363
 C186 C 0.46491 0.23359 0.86492
 C187 C 0.50850 0.25519 0.87363
 C188 C 0.50570 0.27177 0.88083
 C189 C 0.51916 0.28443 0.88126
 C190 C 0.53526 0.28006 0.87346
 C191 C 0.53831 0.26347 0.86637
 C192 C 0.52485 0.25102 0.86665
 H193 H 0.47700 0.25828 0.85846
 H194 H 0.50858 0.22373 0.88887
 H195 H 0.49322 0.27417 0.88691
 H196 H 0.52700 0.23812 0.86136
 H197 H 0.45665 0.20818 0.87300
 H198 H 0.54538 0.28982 0.87205
 C199 C 0.47665 0.75409 0.63539
 C200 C 0.49239 0.75658 0.62638
 C201 C 0.49535 0.77220 0.61721
 C202 C 0.48257 0.78529 0.61677
 C203 C 0.46697 0.78270 0.62608
 C204 C 0.46390 0.76721 0.63550
 C205 C 0.50568 0.74272 0.62633
 C206 C 0.50184 0.72644 0.61892
 C207 C 0.51449 0.71322 0.61856
 C208 C 0.53094 0.71647 0.62598
 C209 C 0.53477 0.73248 0.63404
 C210 C 0.52211 0.74570 0.63385
 H211 H 0.47459 0.74210 0.64266
 H212 H 0.50739 0.77385 0.60997
 H213 H 0.48901 0.72414 0.61345
 H214 H 0.52474 0.75812 0.64006
 H215 H 0.45712 0.79279 0.62594
 H216 H 0.54095 0.70656 0.62526
 C217 C 0.87164 1.02132 0.75460
 C218 C 0.87859 1.00493 0.75866
 C219 C 0.88505 1.00167 0.77549
 C220 C 0.88456 1.01464 0.78852
 C221 C 0.87670 1.03078 0.78426
 C222 C 0.87031 1.03431 0.76739
 C223 C 0.87867 0.99099 0.74535
 C224 C 0.88528 0.99428 0.72859
 C225 C 0.88497 0.98127 0.71559
 C226 C 0.87710 0.96508 0.71978
 C227 C 0.87055 0.96151 0.73657
 C228 C 0.87171 0.97453 0.74935
 H229 H 0.86700 1.02378 0.74147
 H230 H 0.89122 0.98922 0.77790
 H231 H 0.89143 1.00679 0.72620
 H232 H 0.86693 0.97204 0.76243
 H233 H 0.87464 1.04038 0.79433
 H234 H 0.87514 0.95545 0.70969
 C235 C 0.36805 0.52437 0.25435
 C236 C 0.37460 0.50769 0.25801
 C237 C 0.38205 0.50424 0.27438
 C238 C 0.38364 0.51749 0.28696
 C239 C 0.37696 0.53416 0.28303
 C240 C 0.36885 0.53760 0.26693
 C241 C 0.37402 0.49392 0.24458
 C242 C 0.38120 0.49709 0.22803
 C243 C 0.38132 0.48395 0.21532
 C244 C 0.37388 0.46763 0.21925
 C245 C 0.36654 0.46428 0.23574
 C246 C 0.36673 0.47750 0.24838
 H247 H 0.36184 0.52684 0.24187
 H248 H 0.38676 0.49122 0.27716
 H249 H 0.38687 0.50975 0.22513
 H250 H 0.36130 0.47503 0.26121
 H251 H 0.37836 0.54467 0.29232
 H252 H 0.37389 0.45745 0.20948
 C253 C 0.63035 1.02351 0.24584
 C254 C 0.62274 1.00710 0.24282
 C255 C 0.61497 1.00362 0.22661
 C256 C 0.61469 1.01640 0.21344
 C257 C 0.62244 1.03273 0.21662
 C258 C 0.63045 1.03637 0.23271
 C259 C 0.62346 0.99341 0.25645
 C260 C 0.61724 0.99678 0.27330
 C261 C 0.61759 0.98377 0.28641
 C262 C 0.62534 0.96757 0.28230
 C263 C 0.63172 0.96401 0.26546
 C264 C 0.63032 0.97698 0.25254
 H265 H 0.63675 1.02597 0.25820
 H266 H 0.60923 0.99089 0.22425
 H267 H 0.61116 1.00928 0.27561
 H268 H 0.63473 0.97445 0.23937
 H269 H 0.62195 1.04275 0.20661
 H270 H 0.62725 0.95794 0.29247
 C271 C 0.13069 0.52446 0.74739
 C272 C 0.12366 0.50796 0.74364
 C273 C 0.11733 0.50450 0.72685
 C274 C 0.11804 0.51732 0.71375
 C275 C 0.12577 0.53355 0.71746
 C276 C 0.13213 0.53734 0.73430
 C277 C 0.12316 0.49422 0.75722
 C278 C 0.11558 0.49752 0.77352
 C279 C 0.11511 0.48450 0.78647
 C280 C 0.12258 0.46814 0.78301
 C281 C 0.13035 0.46469 0.76678
 C282 C 0.13043 0.47779 0.75390
 H283 H 0.13516 0.52709 0.76052
 H284 H 0.11175 0.49179 0.72404
 H285 H 0.11004 0.51025 0.77609
 H286 H 0.13625 0.47526 0.74128
 H287 H 0.12672 0.54323 0.70719
 H288 H 0.12238 0.45808 0.79299
 C289 C 0.74717 0.86824 -0.02540
 C290 C 0.74360 0.87597 -0.00923
 C291 C 0.72726 0.88362 -0.00635
 C292 C 0.71451 0.88373 -0.01952
 C293 C 0.71823 0.87583 -0.03561
 C294 C 0.73450 0.86801 -0.03865
 C295 C 0.75697 0.87616 0.00468
 C296 C 0.77367 0.88295 0.00136
 C297 C 0.78649 0.88390 0.01466
 C298 C 0.78195 0.87721 0.03132
 C299 C 0.76544 0.86987 0.03460
 C300 C 0.75296 0.86963 0.02127
 H301 H 0.75982 0.86239 -0.02762
 H302 H 0.72451 0.88954 0.00617
 H303 H 0.77647 0.88713 -0.01183
 H304 H 0.74009 0.86425 0.02376
 H305 H 0.70843 0.87578 -0.04581
 H306 H 0.79097 0.87787 0.04212
 C307 C 0.24961 0.37151 0.47527
 C308 C 0.24534 0.37843 0.49165
 C309 C 0.22868 0.38535 0.49439
 C310 C 0.21622 0.38530 0.48097
 C311 C 0.22043 0.37767 0.46488
 C312 C 0.23714 0.37075 0.46180
 C313 C 0.25826 0.37812 0.50601
 C314 C 0.27524 0.38439 0.50328
 C315 C 0.28762 0.38386 0.51677
 C316 C 0.28299 0.37639 0.53290
 C317 C 0.26598 0.37009 0.53595
 C318 C 0.25363 0.37131 0.52240
 H319 H 0.26264 0.36653 0.47320
 H320 H 0.22561 0.39122 0.50686
 H321 H 0.27862 0.39018 0.49080
 H322 H 0.24037 0.36684 0.52446
 H323 H 0.21045 0.37681 0.45493
 H324 H 0.29286 0.37520 0.54294
 C325 C 0.25259 0.62883 -0.02458
 C326 C 0.25609 0.62193 -0.00798
 C327 C 0.27228 0.61411 -0.00465
 C328 C 0.28486 0.61260 -0.01793
 C329 C 0.28106 0.61959 -0.03454
 C330 C 0.26516 0.62805 -0.03786
 C331 C 0.24286 0.62321 0.00599
 C332 C 0.22584 0.61709 0.00310
 C333 C 0.21303 0.61795 0.01630
 C334 C 0.21768 0.62601 0.03221
 C335 C 0.23473 0.63210 0.03538
 C336 C 0.24731 0.63035 0.02219
 H337 H 0.24033 0.63544 -0.02692
 H338 H 0.27499 0.60923 0.00835
 H339 H 0.22315 0.61071 -0.00918
 H340 H 0.26060 0.63464 0.02439
 H341 H 0.29037 0.61830 -0.04507
 H342 H 0.20780 0.62836 0.04197
 C343 C 0.75231 0.13052 0.47622
 C344 C 0.75563 0.12317 0.49262
 C345 C 0.77205 0.11596 0.49621
 C346 C 0.78528 0.11541 0.48334
 C347 C 0.78147 0.12297 0.46687
 C348 C 0.76528 0.13080 0.46337
 C349 C 0.74190 0.12320 0.50614
 C350 C 0.72552 0.11577 0.50264
 C351 C 0.71241 0.11556 0.51543
 C352 C 0.71581 0.12316 0.53176
 C353 C 0.73211 0.13078 0.53540
 C354 C 0.74514 0.13062 0.52253
 H355 H 0.73979 0.13658 0.47372
 H356 H 0.77431 0.11115 0.50929
 H357 H 0.72303 0.11011 0.48993
 H358 H 0.75782 0.13630 0.52522
 H359 H 0.79065 0.12226 0.45622
 H360 H 0.70573 0.12314 0.54166
 C361 C 1.02296 0.75657 0.86842
 C362 C 1.00646 0.76002 0.87533
 C363 C 1.00301 0.77636 0.88270
 C364 C 1.01610 0.78938 0.88390
 C365 C 1.03265 0.78550 0.87667
 C366 C 1.03604 0.76936 0.86871
 C367 C 0.99275 0.74644 0.87491
 C368 C 0.99574 0.73013 0.88269
 C369 C 0.98260 0.71716 0.88314
 C370 C 0.96654 0.72092 0.87488
 C371 C 0.96354 0.73710 0.86672
 C372 C 0.97663 0.74990 0.86705
 H373 H 1.02537 0.74408 0.86230
 H374 H 0.98986 0.77872 0.88715
 H375 H 1.00806 0.72817 0.88933
 H376 H 0.97450 0.76241 0.86076
 H377 H 1.04342 0.79455 0.87779
 H378 H 0.95635 0.71114 0.87425
 C379 C 0.52212 0.25327 0.36857
 C380 C 0.50588 0.25683 0.37616
 C381 C 0.50287 0.27323 0.38363
 C382 C 0.51601 0.28605 0.38364
 C383 C 0.53218 0.28233 0.37590
 C384 C 0.53532 0.26601 0.36826
 C385 C 0.49196 0.24346 0.37593
 C386 C 0.49518 0.22668 0.38248
 C387 C 0.48211 0.21382 0.38209
 C388 C 0.46593 0.21776 0.37440
 C389 C 0.46244 0.23456 0.36776
 C390 C 0.47554 0.24743 0.36893
 H391 H 0.52442 0.24060 0.36278
 H392 H 0.49028 0.27599 0.38940
 H393 H 0.50771 0.22384 0.38838
 H394 H 0.47312 0.26055 0.36424
 H395 H 0.54233 0.29220 0.37576
 H396 H 0.45622 0.20753 0.37331
 C397 C 1.02445 0.24662 0.62840
 C398 C 1.00811 0.24259 0.62125
 C399 C 1.00492 0.22578 0.61479
 C400 C 1.01788 0.21274 0.61543
 C401 C 1.03396 0.21697 0.62346
 C402 C 1.03743 0.23382 0.62989
 C403 C 0.99419 0.25592 0.62092
 C404 C 0.99746 0.27258 0.61400
 C405 C 0.98444 0.28558 0.61395
 C406 C 0.96824 0.28149 0.62183
 C407 C 0.96469 0.26478 0.62871
 C408 C 0.97773 0.25199 0.62785
 H409 H 1.02686 0.25974 0.63303
 H410 H 0.99251 0.22341 0.60848
 H411 H 1.00997 0.27485 0.60786
 H412 H 0.97527 0.23896 0.63282
 H413 H 1.04355 0.20689 0.62561
 H414 H 0.95860 0.29159 0.62351
 C415 C 0.52426 0.74387 0.12993
 C416 C 0.50797 0.74013 0.12249
 C417 C 0.50481 0.72357 0.11541
 C418 C 0.51788 0.71077 0.11553
 C419 C 0.53412 0.71466 0.12316
 C420 C 0.53739 0.73115 0.13048
 C421 C 0.49422 0.75355 0.12216
 C422 C 0.49741 0.76981 0.11430
 C423 C 0.48441 0.78268 0.11392
 C424 C 0.46821 0.77915 0.12177
 C425 C 0.46488 0.76296 0.12981
 C426 C 0.47794 0.75016 0.12981
 H427 H 0.52667 0.75670 0.13536
 H428 H 0.49216 0.72071 0.10975
 H429 H 0.51004 0.77242 0.10847
 H430 H 0.47550 0.73756 0.13585
 H431 H 0.54424 0.70482 0.12341
 H432 H 0.45816 0.78907 0.12165
 O433 O -0.00225 1.03784 1.03824
 O434 O -0.02937 1.02171 1.04072
 O435 O 0.03715 0.99878 1.03732
 O436 O 0.04341 0.97474 1.02195
 O437 O 0.03574 1.03869 0.99713
 O438 O 0.01833 1.04257 0.97152
 O439 O -0.00741 0.95203 0.99106
 O440 O 0.00492 0.95069 1.01842
 O441 O -0.04879 0.98877 0.99549
 O442 O -0.04910 1.02049 1.00668
 O443 O -0.01330 0.99273 0.95349
 O444 O 0.01670 1.00369 0.95044
 O445 O 0.00153 0.96560 0.96611
 O446 O 0.02872 0.98270 0.96038
 O447 O -0.03734 1.00303 0.96727
 O448 O -0.04288 1.02910 0.98249
 O449 O -0.03471 0.96418 1.00428
 O450 O -0.01929 0.96361 1.03308
 O451 O 0.00728 1.05100 1.01329
 O452 O -0.00375 1.05241 0.98402
 O453 O 0.04939 1.01490 1.00841
 O454 O 0.05048 0.98500 0.99675
 O455 O 0.01330 1.01013 1.05078
 O456 O -0.01517 0.99629 1.05213
 Zr457 Zr -0.00558 1.01152 1.03093
 O458 O -0.02232 0.99523 1.01642
 Zr459 Zr 0.02959 0.99596 1.01100
 O460 O 0.01425 0.97892 0.99583
 Zr461 Zr 0.00950 1.03079 0.99492
 O462 O -0.00665 1.01537 0.97895
 Zr463 Zr -0.00896 0.97263 1.00896
 O464 O 0.00738 0.98800 1.02509
 Zr465 Zr -0.02895 1.00765 0.99293
 O466 O -0.01372 1.02482 1.00822
 Zr467 Zr 0.00599 0.99183 0.97304
 O468 O 0.02312 1.00831 0.98726
 O469 O 0.01719 1.01887 1.01801
 O470 O -0.01687 0.98446 0.98575
 C471 C 0.00246 1.05138 1.02937
 C472 C 0.02906 1.00443 1.05089
 C473 C 0.04943 1.03066 1.00256
 C474 C -0.00327 0.95201 0.97480
 C475 C -0.04849 0.97250 0.99964
 C476 C -0.02939 0.99738 0.95368
 H477 H -0.03270 0.99230 1.02352
 H478 H -0.00969 1.02204 0.96831
 H479 H 0.02475 1.02646 1.02523
 H480 H 0.02103 0.96829 0.99323
 H481 H 0.01103 0.95450 1.02916
 H482 H 0.03710 0.96400 1.01857
 H483 H -0.03491 1.03543 0.97451
 H484 H -0.01525 1.05293 0.98987
 H485 H -0.02420 0.95177 1.03121
 H486 H -0.01401 1.00306 1.06308
 H487 H 0.01031 1.01470 0.94833
 H488 H 0.02651 1.03422 0.96611
 H489 H -0.02727 1.02684 1.05240
 H490 H -0.05275 1.01279 1.01642
 H491 H 0.05141 0.99168 0.98570
 H492 H 0.03330 0.97274 0.96721
 O493 O 0.49096 0.49308 0.45095
 O494 O 0.51925 0.50677 0.45087
 O495 O 0.49654 0.45078 0.48741
 O496 O 0.50494 0.44711 0.51519
 O497 O 0.45326 0.48650 0.49250
 O498 O 0.45076 0.51560 0.50322
 O499 O 0.53904 0.49758 0.53640
 O500 O 0.54290 0.47169 0.52142
 O501 O 0.53695 0.53745 0.49855
 O502 O 0.51816 0.54098 0.47077
 O503 O 0.49825 0.53459 0.53766
 O504 O 0.47232 0.51673 0.54239
 O505 O 0.51426 0.50720 0.54951
 O506 O 0.48401 0.49520 0.55108
 O507 O 0.50945 0.54861 0.51398
 O508 O 0.49920 0.55230 0.48523
 O509 O 0.55042 0.51395 0.51064
 O510 O 0.55263 0.48561 0.49502
 O511 O 0.46609 0.50228 0.46430
 O512 O 0.46097 0.52834 0.48112
 O513 O 0.46710 0.46238 0.50277
 O514 O 0.48422 0.45890 0.52979
 O515 O 0.50640 0.46503 0.46321
 O516 O 0.53363 0.48163 0.46255
 Zr517 Zr 0.50918 0.49106 0.47147
 O518 O 0.52509 0.50719 0.48705
 Zr519 Zr 0.49317 0.47041 0.50626
 O520 O 0.50868 0.48552 0.52319
 Zr521 Zr 0.47307 0.50546 0.49069
 O522 O 0.48749 0.52213 0.50705
 Zr523 Zr 0.53129 0.49421 0.51036
 O524 O 0.51684 0.47720 0.49406
 Zr525 Zr 0.51099 0.52922 0.49478
 O526 O 0.49558 0.51410 0.47759
 Zr527 Zr 0.49532 0.50851 0.52959
 O528 O 0.47890 0.49242 0.51419
 O529 O 0.48608 0.48298 0.48336
 O530 O 0.51840 0.51686 0.51788
 C531 C 0.47486 0.49776 0.45075
 C532 C 0.50170 0.45111 0.47142
 C533 C 0.45336 0.47052 0.49765
 C534 C 0.53042 0.50267 0.54983
 C535 C 0.55036 0.52981 0.50511
 C536 C 0.50399 0.54832 0.52983
 H537 H 0.53576 0.51032 0.48047
 H538 H 0.48035 0.53245 0.50990
 H539 H 0.47888 0.47543 0.47574
 H540 H 0.51167 0.47852 0.53363
 H541 H 0.54082 0.46204 0.51311
 H542 H 0.51513 0.45055 0.52232
 H543 H 0.48695 0.55225 0.48926
 H544 H 0.46918 0.53366 0.47264
 H545 H 0.56338 0.48671 0.50215
 H546 H 0.53213 0.47645 0.45080
 H547 H 0.46690 0.52593 0.53511
 H548 H 0.45020 0.50994 0.51486
 H549 H 0.51879 0.50007 0.43983
 H550 H 0.52949 0.53599 0.46720
 H551 H 0.47450 0.46622 0.53406
 H552 H 0.49123 0.48480 0.55359
 O553 O 0.46260 -0.03803 0.49371
 O554 O 0.47877 -0.03905 0.46647
 O555 O 0.50124 -0.03720 0.53338
 O556 O 0.52502 -0.02158 0.54029
 O557 O 0.46085 0.00220 0.53262
 O558 O 0.45652 0.02804 0.51564
 O559 O 0.54744 0.01164 0.48992
 O560 O 0.54937 -0.01587 0.50227
 O561 O 0.51134 0.00767 0.44868
 O562 O 0.47989 -0.00448 0.44756
 O563 O 0.50650 0.04816 0.48524
 O564 O 0.49522 0.05019 0.51504
 O565 O 0.53367 0.03559 0.50057
 O566 O 0.51591 0.04022 0.52734
 O567 O 0.49624 0.03502 0.46077
 O568 O 0.47061 0.01919 0.45448
 O569 O 0.53569 -0.00187 0.46263
 O570 O 0.53673 -0.03066 0.47778
 O571 O 0.44896 -0.01369 0.50371
 O572 O 0.44710 0.01585 0.49317
 O573 O 0.48465 -0.00917 0.54618
 O574 O 0.51433 0.00324 0.54793
 O575 O 0.49048 -0.05031 0.50899
 O576 O 0.50428 -0.05044 0.48056
 Zr577 Zr 0.48875 -0.02989 0.49065
 O578 O 0.50490 -0.01446 0.47449
 Zr579 Zr 0.50375 -0.01064 0.52653
 O580 O 0.52066 0.00535 0.51179
 Zr581 Zr 0.46880 0.00518 0.50646
 O582 O 0.48409 0.02201 0.49095
 Zr583 Zr 0.52728 -0.00690 0.48829
 O584 O 0.51208 -0.02388 0.50403
 Zr585 Zr 0.49219 0.00894 0.46833
 O586 O 0.47517 -0.00725 0.48295
 Zr587 Zr 0.50743 0.02807 0.50404
 O588 O 0.49105 0.01297 0.52056
 O589 O 0.48107 -0.01783 0.51368
 O590 O 0.51517 0.01629 0.48088
 C591 C 0.44891 -0.02968 0.49859
 C592 C 0.49595 -0.05068 0.52486
 C593 C 0.46887 -0.00354 0.54622
 C594 C 0.54735 0.02758 0.49513
 C595 C 0.52753 0.00334 0.44892
 C596 C 0.50175 0.04844 0.46915
 H597 H 0.50799 -0.02119 0.46395
 H598 H 0.47728 0.03258 0.48812
 H599 H 0.47357 -0.02544 0.52100
 H600 H 0.53120 0.00800 0.51875
 H601 H 0.54581 -0.02686 0.50813
 H602 H 0.53576 -0.01759 0.53434
 H603 H 0.46403 0.02666 0.46263
 H604 H 0.44667 0.01015 0.48160
 H605 H 0.54862 -0.02848 0.47313
 H606 H 0.49763 -0.06154 0.48130
 H607 H 0.48419 0.05216 0.50864
 H608 H 0.46476 0.03352 0.52395
 H609 H 0.47376 -0.05089 0.46817
 H610 H 0.48785 -0.01385 0.44369
 H611 H 0.50730 0.01398 0.54923
 H612 H 0.52584 0.03343 0.53199
 O613 O 0.01155 0.51205 0.95071
 O614 O -0.01704 0.49868 0.94890
 O615 O 0.00492 0.55274 0.98833
 O616 O -0.00397 0.55545 1.01599
 O617 O 0.04730 0.51561 0.99378
 O618 O 0.04847 0.48614 1.00427
 O619 O -0.04071 0.50555 1.03357
 O620 O -0.04305 0.53198 1.01930
 O621 O -0.03801 0.46673 0.99535
 O622 O -0.01869 0.46424 0.96754
 O623 O -0.00130 0.46684 1.03544
 O624 O 0.02498 0.48373 1.04197
 O625 O -0.01714 0.49378 1.04727
 O626 O 0.01327 0.50521 1.05097
 O627 O -0.01100 0.45407 1.01055
 O628 O -0.00039 0.45160 0.98197
 O629 O -0.05150 0.49068 1.00631
 O630 O -0.05181 0.51973 0.99189
 O631 O 0.03505 0.50048 0.96471
 O632 O 0.03923 0.47432 0.98149
 O633 O 0.03362 0.53965 1.00423
 O634 O 0.01568 0.54229 1.03083
 O635 O -0.00375 0.53970 0.96311
 O636 O -0.03123 0.52400 0.96035
 Zr637 Zr -0.00761 0.51348 0.97035
 O638 O -0.02477 0.49730 0.98461
 Zr639 Zr 0.00729 0.53218 1.00654
 O640 O -0.00943 0.51688 1.02220
 Zr641 Zr 0.02707 0.49718 0.99081
 O642 O 0.01135 0.48029 1.00581
 Zr643 Zr -0.03166 0.50958 1.00799
 O644 O -0.01593 0.52669 0.99297
 Zr645 Zr -0.01176 0.47449 0.99223
 O646 O 0.00496 0.48978 0.97637
 Zr647 Zr 0.00284 0.49316 1.02841
 O648 O 0.02047 0.50940 1.01442
 O649 O 0.01511 0.52034 0.98359
 O650 O -0.01991 0.48615 1.01532
 C651 C 0.02727 0.50619 0.95094
 C652 C 0.00062 0.55319 0.97207
 C653 C 0.04734 0.53144 0.99931
 C654 C -0.03304 0.49912 1.04707
 C655 C -0.05156 0.47481 1.00095
 C656 C -0.00656 0.45353 1.02670
 H657 H -0.03521 0.49477 0.97744
 H658 H 0.01806 0.46964 1.00859
 H659 H 0.02282 0.52795 0.97649
 H660 H -0.01270 0.52351 1.03273
 H661 H -0.04015 0.54194 1.01153
 H662 H -0.01462 0.55206 1.02244
 H663 H 0.01160 0.45086 0.98669
 H664 H 0.03126 0.46925 0.97267
 H665 H -0.06296 0.51879 0.99839
 H666 H -0.02895 0.52938 0.94878
 H667 H 0.03049 0.47473 1.03460
 H668 H 0.04867 0.49156 1.01598
 H669 H -0.01575 0.50565 0.93804
 H670 H -0.03022 0.46903 0.96430
 H671 H 0.02494 0.53442 1.03521
 H672 H 0.00615 0.51563 1.05351
 O673 O 0.01003 0.45119 0.51155
 O674 O -0.00414 0.45048 0.48333
 O675 O 0.05120 0.48837 0.50509
 O676 O 0.05435 0.51615 0.49650
 O677 O 0.01529 0.49311 0.54845
 O678 O -0.01398 0.50366 0.55071
 O679 O 0.00370 0.53595 0.46195
 O680 O 0.02989 0.52138 0.45838
 O681 O -0.03543 0.49746 0.46447
 O682 O -0.03847 0.46971 0.48360
 O683 O -0.03354 0.53700 0.50236
 O684 O -0.01608 0.54224 0.52853
 O685 O -0.00621 0.54913 0.48657
 O686 O 0.00537 0.55126 0.51684
 O687 O -0.04707 0.51284 0.49176
 O688 O -0.05019 0.48407 0.50238
 O689 O -0.01204 0.50965 0.45086
 O690 O 0.01656 0.49458 0.44901
 O691 O -0.00044 0.46456 0.53585
 O692 O -0.02634 0.48125 0.54106
 O693 O 0.03915 0.50380 0.53440
 O694 O 0.04218 0.53068 0.51694
 O695 O 0.03747 0.46376 0.49567
 O696 O 0.02090 0.46222 0.46861
 Zr697 Zr 0.01130 0.47146 0.49288
 O698 O -0.00501 0.48655 0.47663
 Zr699 Zr 0.03117 0.50684 0.50830
 O700 O 0.01582 0.52329 0.49253
 Zr701 Zr -0.00363 0.49089 0.52863
 O702 O -0.02058 0.50669 0.51388
 Zr703 Zr 0.00753 0.51003 0.47009
 O704 O 0.02474 0.49420 0.48483
 Zr705 Zr -0.02727 0.49402 0.49053
 O706 O -0.01192 0.47734 0.50631
 Zr707 Zr -0.00737 0.52939 0.50574
 O708 O 0.00897 0.51454 0.52243
 O709 O 0.01904 0.48381 0.51579
 O710 O -0.01533 0.51726 0.48279
 C711 C 0.00479 0.45100 0.52751
 C712 C 0.05121 0.47232 0.50014
 C713 C 0.03116 0.49861 0.54823
 C714 C -0.00160 0.54938 0.47043
 C715 C -0.02781 0.50393 0.45095
 C716 C -0.04710 0.52882 0.49677
 H717 H -0.00795 0.47977 0.46606
 H718 H -0.03100 0.50943 0.52093
 H719 H 0.02671 0.47640 0.52310
 H720 H 0.02263 0.53383 0.48941
 H721 H 0.03968 0.51326 0.46059
 H722 H 0.05083 0.52303 0.48615
 H723 H -0.05047 0.48847 0.51449
 H724 H -0.03177 0.47286 0.53288
 H725 H 0.01544 0.50157 0.43814
 H726 H 0.02614 0.45052 0.47035
 H727 H -0.02526 0.53489 0.53392
 H728 H -0.00844 0.51535 0.55107
 H729 H 0.00269 0.43952 0.48406
 H730 H -0.03347 0.46623 0.47224
 H731 H 0.03476 0.53490 0.52660
 H732 H 0.01585 0.55381 0.50973
 O733 O 0.50779 0.94887 0.01025
 O734 O 0.49370 0.94854 -0.01807
 O735 O 0.54881 0.98626 0.00472
 O736 O 0.55187 1.01419 -0.00352
 O737 O 0.51239 0.99027 0.04779
 O738 O 0.48315 1.00064 0.04995
 O739 O 0.50155 1.03431 -0.03818
 O740 O 0.52777 1.01981 -0.04174
 O741 O 0.46233 0.99597 -0.03646
 O742 O 0.45948 0.96759 -0.01811
 O743 O 0.46379 1.03463 0.00178
 O744 O 0.48113 1.03944 0.02837
 O745 O 0.49108 1.04707 -0.01359
 O746 O 0.50244 1.04900 0.01670
 O747 O 0.45039 1.01032 -0.00865
 O748 O 0.44754 0.98130 0.00099
 O749 O 0.48589 1.00823 -0.04973
 O750 O 0.51454 0.99316 -0.05160
 O751 O 0.49686 0.96181 0.03457
 O752 O 0.47091 0.97843 0.03987
 O753 O 0.53635 1.00130 0.03417
 O754 O 0.53951 1.02836 0.01710
 O755 O 0.53524 0.96183 -0.00537
 O756 O 0.51883 0.96049 -0.03245
 Zr757 Zr 0.50905 0.96941 -0.00812
 O758 O 0.49282 0.98466 -0.02430
 Zr759 Zr 0.52865 1.00463 0.00800
 O760 O 0.51334 1.02126 -0.00767
 Zr761 Zr 0.49371 0.98826 0.02776
 O762 O 0.47683 1.00420 0.01309
 Zr763 Zr 0.50533 1.00828 -0.03037
 O764 O 0.52247 0.99231 -0.01571
 Zr765 Zr 0.47041 0.99181 -0.01047
 O766 O 0.48569 0.97498 0.00519
 Zr767 Zr 0.48998 1.02709 0.00537
 O768 O 0.50625 1.01205 0.02198
 O769 O 0.51654 0.98144 0.01504
 O770 O 0.48229 1.01521 -0.01779
 C771 C 0.50228 0.94840 0.02612
 C772 C 0.54893 0.97033 -0.00063
 C773 C 0.52822 0.99589 0.04784
 C774 C 0.49592 1.04757 -0.02966
 C775 C 0.47005 1.00267 -0.04981
 C776 C 0.45024 1.02629 -0.00363
 H777 H 0.48998 0.97807 -0.03501
 H778 H 0.46635 1.00676 0.02012
 H779 H 0.52418 0.97396 0.02231
 H780 H 0.52013 1.03187 -0.01059
 H781 H 0.53755 1.01169 -0.03954
 H782 H 0.54839 1.02127 -0.01375
 H783 H 0.44710 0.98548 0.01317
 H784 H 0.46565 0.97001 0.03161
 H785 H 0.51345 1.00030 -0.06238
 H786 H 0.52402 0.94876 -0.03083
 H787 H 0.47168 1.03217 0.03336
 H788 H 0.48851 1.01241 0.05044
 H789 H 0.50050 0.93758 -0.01740
 H790 H 0.46433 0.96459 -0.02967
 H791 H 0.53186 1.03252 0.02661
 H792 H 0.51305 1.05157 0.00981
 O793 O 0.48648 0.50294 0.05055
 O794 O 0.51491 0.48904 0.05109
 O795 O 0.49218 0.54486 0.01434
 O796 O 0.50031 0.54879 -0.01344
 O797 O 0.44943 0.50744 0.00797
 O798 O 0.44801 0.47823 -0.00225
 O799 O 0.53622 0.49940 -0.03399
 O800 O 0.53905 0.52553 -0.01907
 O801 O 0.53458 0.45940 0.00309
 O802 O 0.51602 0.45544 0.03115
 O803 O 0.49698 0.46123 -0.03612
 O804 O 0.46992 0.47818 -0.04076
 O805 O 0.51179 0.48925 -0.04752
 O806 O 0.48149 0.49980 -0.04975
 O807 O 0.50715 0.44732 -0.01195
 O808 O 0.49721 0.44350 0.01681
 O809 O 0.54774 0.48375 -0.00771
 O810 O 0.54868 0.51221 0.00768
 O811 O 0.46245 0.49199 0.03691
 O812 O 0.45805 0.46604 0.01989
 O813 O 0.46297 0.53241 -0.00093
 O814 O 0.47995 0.53625 -0.02809
 O815 O 0.50206 0.53084 0.03864
 O816 O 0.52919 0.51477 0.04020
 Zr817 Zr 0.50516 0.50487 0.03046
 O818 O 0.52178 0.48938 0.01510
 Zr819 Zr 0.48917 0.52510 -0.00450
 O820 O 0.50529 0.51056 -0.02123
 Zr821 Zr 0.46980 0.48929 0.01058
 O822 O 0.48494 0.47313 -0.00553
 Zr823 Zr 0.52795 0.50266 -0.00806
 O824 O 0.51281 0.51907 0.00806
 Zr825 Zr 0.50844 0.46687 0.00711
 O826 O 0.49232 0.48139 0.02406
 Zr827 Zr 0.49271 0.48709 -0.02790
 O828 O 0.47566 0.50261 -0.01275
 O829 O 0.48204 0.51221 0.01822
 O830 O 0.51584 0.47956 -0.01582
 C831 C 0.47063 0.49732 0.05058
 C832 C 0.49732 0.54467 0.03035
 C833 C 0.44933 0.52360 0.00339
 C834 C 0.52786 0.49415 -0.04756
 C835 C 0.54796 0.46771 -0.00278
 C836 C 0.50246 0.44755 -0.02805
 H837 H 0.53243 0.48660 0.02183
 H838 H 0.47813 0.46257 -0.00850
 H839 H 0.47459 0.51956 0.02572
 H840 H 0.50823 0.51768 -0.03162
 H841 H 0.53650 0.53516 -0.01088
 H842 H 0.51063 0.54570 -0.02049
 H843 H 0.48503 0.44305 0.01258
 H844 H 0.46627 0.46089 0.02844
 H845 H 0.55960 0.51157 0.00078
 H846 H 0.52732 0.51954 0.05207
 H847 H 0.46539 0.46798 -0.03421
 H848 H 0.44771 0.48348 -0.01407
 H849 H 0.51394 0.49550 0.06224
 H850 H 0.52748 0.46042 0.03443
 H851 H 0.47039 0.52863 -0.03233
 H852 H 0.48791 0.51087 -0.05163
 O853 O -0.01397 0.00584 0.55010
 O854 O 0.01441 -0.00806 0.55092
 O855 O -0.00762 0.04782 0.51389
 O856 O 0.00078 0.05167 0.48615
 O857 O -0.05059 0.01080 0.50727
 O858 O -0.05214 -0.01839 0.49684
 O859 O 0.03662 0.00188 0.46615
 O860 O 0.03942 0.02808 0.48094
 O861 O 0.03418 -0.03801 0.50303
 O862 O 0.01539 -0.04161 0.53113
 O863 O -0.00286 -0.03593 0.46361
 O864 O -0.02974 -0.01885 0.45860
 O865 O 0.01226 -0.00805 0.45233
 O866 O -0.01799 0.00276 0.44977
 O867 O 0.00671 -0.04991 0.48799
 O868 O -0.00334 -0.05357 0.51661
 O869 O 0.04772 -0.01366 0.49265
 O870 O 0.04863 0.01484 0.50790
 O871 O -0.03803 -0.00473 0.53621
 O872 O -0.04245 -0.03071 0.51915
 O873 O -0.03678 0.03559 0.49833
 O874 O -0.01949 0.03923 0.47132
 O875 O 0.00164 0.03370 0.53837
 O876 O 0.02883 0.01763 0.54012
 Zr877 Zr 0.00487 0.00776 0.53019
 O878 O 0.02153 -0.00787 0.51504
 Zr879 Zr -0.01060 0.02807 0.49502
 O880 O 0.00559 0.01337 0.47850
 Zr881 Zr -0.03041 -0.00756 0.50996
 O882 O -0.01522 -0.02386 0.49405
 Zr883 Zr 0.02805 0.00534 0.49194
 O884 O 0.01286 0.02189 0.50786
 Zr885 Zr 0.00810 -0.03029 0.50695
 O886 O -0.00810 -0.01563 0.52369
 Zr887 Zr -0.00708 -0.01002 0.47174
 O888 O -0.02419 0.00567 0.48666
 O889 O -0.01805 0.01526 0.51768
 O890 O 0.01586 -0.01769 0.48409
 C891 C -0.02989 0.00044 0.54997
 C892 C -0.00284 0.04757 0.53001
 C893 C -0.05052 0.02695 0.50267
 C894 C 0.02838 -0.00333 0.45248
 C895 C 0.04772 -0.02975 0.49744
 C896 C 0.00228 -0.04965 0.47183
 H897 H 0.03209 -0.01073 0.52190
 H898 H -0.02208 -0.03437 0.49104
 H899 H -0.02554 0.02266 0.52511
 H900 H 0.00871 0.02044 0.46812
 H901 H 0.03685 0.03777 0.48906
 H902 H 0.01116 0.04849 0.47923
 H903 H -0.01554 -0.05385 0.51243
 H904 H -0.03442 -0.03586 0.52788
 H905 H 0.05962 0.01414 0.50113
 H906 H 0.02686 0.02247 0.55193
 H907 H -0.03449 -0.02891 0.46520
 H908 H -0.05229 -0.01306 0.48505
 H909 H 0.01339 -0.00157 0.56205
 H910 H 0.02703 -0.03699 0.53430
 H911 H -0.02907 0.03169 0.46701
 H912 H -0.01142 0.01374 0.44789
 O913 O 0.69909 0.24304 0.26246
 O914 O 0.69873 0.25701 0.23408
 O915 O 0.73499 0.20110 0.25698
 O916 O 0.76268 0.19725 0.24859
 O917 O 0.74072 0.23763 0.29966
 O918 O 0.75212 0.26667 0.30149
 O919 O 0.78392 0.24708 0.21322
 O920 O 0.76870 0.22110 0.21006
 O921 O 0.74645 0.28696 0.21482
 O922 O 0.71910 0.29113 0.23375
 O923 O 0.78608 0.28481 0.25314
 O924 O 0.79076 0.26746 0.27956
 O925 O 0.79737 0.25700 0.23776
 O926 O 0.79921 0.24575 0.26818
 O927 O 0.76243 0.29865 0.24186
 O928 O 0.73368 0.30256 0.25251
 O929 O 0.75799 0.26313 0.20167
 O930 O 0.74224 0.23476 0.20033
 O931 O 0.71269 0.25384 0.28655
 O932 O 0.73016 0.27942 0.29143
 O933 O 0.75063 0.21326 0.28615
 O934 O 0.77752 0.20943 0.26896
 O935 O 0.71089 0.21524 0.24697
 O936 O 0.70977 0.23159 0.21972
 Zr937 Zr 0.71929 0.24123 0.24391
 O938 O 0.73483 0.25700 0.22749
 Zr939 Zr 0.75403 0.22080 0.25992
 O940 O 0.77092 0.23558 0.24397
 Zr941 Zr 0.73911 0.25629 0.27949
 O942 O 0.75542 0.27267 0.26456
 Zr943 Zr 0.75792 0.24384 0.22129
 O944 O 0.74162 0.22717 0.23625
 Zr945 Zr 0.74297 0.27930 0.24103
 O946 O 0.72582 0.26453 0.25694
 Zr947 Zr 0.77770 0.25882 0.25680
 O948 O 0.76236 0.24306 0.27368
 O949 O 0.73137 0.23357 0.26703
 O950 O 0.76583 0.26674 0.23364
 C951 C 0.69902 0.24862 0.27829
 C952 C 0.71900 0.20136 0.25180
 C953 C 0.74567 0.22161 0.29979
 C954 C 0.79748 0.25221 0.22169
 C955 C 0.75264 0.27900 0.20146
 C956 C 0.77835 0.29843 0.24712
 H957 H 0.72814 0.25992 0.21683
 H958 H 0.75847 0.28312 0.27145
 H959 H 0.72374 0.22616 0.27442
 H960 H 0.78125 0.22849 0.24103
 H961 H 0.76036 0.21148 0.21243
 H962 H 0.76971 0.20048 0.23826
 H963 H 0.73841 0.30310 0.26451
 H964 H 0.72202 0.28497 0.28305
 H965 H 0.74924 0.23557 0.18947
 H966 H 0.69793 0.22662 0.22147
 H967 H 0.78371 0.27690 0.28476
 H968 H 0.76363 0.26087 0.30204
 H969 H 0.68760 0.25041 0.23486
 H970 H 0.71518 0.28569 0.22273
 H971 H 0.78190 0.21690 0.27854
 H972 H 0.80139 0.23508 0.26130
 O973 O 0.75396 0.71112 0.71487
 O974 O 0.78008 0.70811 0.73128
 O975 O 0.71441 0.71233 0.75480
 O976 O 0.70769 0.72852 0.77793
 O977 O 0.71435 0.75073 0.71298
 O978 O 0.73092 0.77655 0.70768
 O979 O 0.75895 0.76190 0.79849
 O980 O 0.74679 0.73432 0.80133
 O981 O 0.79924 0.75789 0.76147
 O982 O 0.80178 0.74570 0.73394
 O983 O 0.76213 0.79795 0.75626
 O984 O 0.73229 0.79971 0.74623
 O985 O 0.74799 0.78564 0.78438
 O986 O 0.72034 0.78956 0.76708
 O987 O 0.78676 0.78449 0.74683
 O988 O 0.79049 0.76693 0.71909
 O989 O 0.78602 0.74840 0.78629
 O990 O 0.77133 0.71968 0.78861
 O991 O 0.74274 0.73488 0.70097
 O992 O 0.75351 0.76443 0.69833
 O993 O 0.70118 0.74065 0.73763
 O994 O 0.70037 0.75300 0.76740
 O995 O 0.73806 0.69918 0.74274
 O996 O 0.76687 0.69971 0.75785
 Zr997 Zr 0.75672 0.71931 0.74097
 O998 O 0.77331 0.73518 0.75609
 Zr999 Zr 0.72130 0.73893 0.75626
 O1000 O 0.73644 0.75516 0.77244
 Zr1001 Zr 0.74058 0.75405 0.72044
 O1002 O 0.75625 0.77131 0.73498
 Zr1003 Zr 0.76016 0.74304 0.77873
 O1004 O 0.74395 0.72577 0.76444
 Zr1005 Zr 0.77910 0.75844 0.74287
 O1006 O 0.76426 0.74168 0.72668
 Zr1007 Zr 0.74367 0.77768 0.75844
 O1008 O 0.72692 0.76226 0.74275
 O1009 O 0.73355 0.73129 0.73345
 O1010 O 0.76703 0.76609 0.76592
 C1011 C 0.74842 0.71910 0.70114
 C1012 C 0.72250 0.69884 0.74901
 C1013 C 0.70085 0.74571 0.72162
 C1014 C 0.75376 0.77785 0.79813
 C1015 C 0.79944 0.75377 0.77775
 C1016 C 0.77829 0.79800 0.75183
 H1017 H 0.78408 0.72865 0.75892
 H1018 H 0.75880 0.78180 0.72787
 H1019 H 0.72608 0.72362 0.72622
 H1020 H 0.72976 0.75792 0.78311
 H1021 H 0.74117 0.72309 0.79826
 H1022 H 0.71461 0.73149 0.78840
 H1023 H 0.78462 0.77782 0.71542
 H1024 H 0.76505 0.75870 0.69783
 H1025 H 0.77603 0.72213 0.80042
 H1026 H 0.76475 0.68805 0.75267
 H1027 H 0.73778 0.80106 0.73462
 H1028 H 0.72273 0.78214 0.71591
 H1029 H 0.77762 0.69600 0.72742
 H1030 H 0.79772 0.73545 0.72723
 H1031 H 0.69868 0.76357 0.76012
 H1032 H 0.71654 0.78348 0.77785
 O1033 O 0.28824 0.21916 0.74613
 O1034 O 0.28893 0.23509 0.71888
 O1035 O 0.28643 0.25826 0.78536
 O1036 O 0.27036 0.28201 0.79132
 O1037 O 0.24878 0.21655 0.78590
 O1038 O 0.22282 0.21083 0.76941
 O1039 O 0.23561 0.30180 0.74126
 O1040 O 0.26322 0.30516 0.75301
 O1041 O 0.24145 0.26475 0.70058
 O1042 O 0.25384 0.23353 0.70059
 O1043 O 0.20055 0.25869 0.73805
 O1044 O 0.19936 0.24839 0.76822
 O1045 O 0.21220 0.28714 0.75225
 O1046 O 0.20848 0.26988 0.77961
 O1047 O 0.21418 0.24985 0.71328
 O1048 O 0.23013 0.22418 0.70773
 O1049 O 0.24891 0.29010 0.71403
 O1050 O 0.27798 0.29277 0.72845
 O1051 O 0.26473 0.20480 0.75745
 O1052 O 0.23535 0.20139 0.74697
 O1053 O 0.25846 0.24141 0.79885
 O1054 O 0.24592 0.27069 0.79983
 O1055 O 0.29969 0.24775 0.76100
 O1056 O 0.29908 0.26142 0.73231
 Zr1057 Zr 0.27929 0.24499 0.74287
 O1058 O 0.26318 0.26010 0.72647
 Zr1059 Zr 0.25980 0.25995 0.77856
 O1060 O 0.24303 0.27577 0.76358
 Zr1061 Zr 0.24515 0.22385 0.75963
 O1062 O 0.22765 0.23802 0.74389
 Zr1063 Zr 0.25484 0.28243 0.73975
 O1064 O 0.27252 0.26834 0.75568
 Zr1065 Zr 0.24025 0.24623 0.72091
 O1066 O 0.25714 0.23025 0.73579
 Zr1067 Zr 0.22079 0.26134 0.75645
 O1068 O 0.23665 0.24606 0.77322
 O1069 O 0.26770 0.23729 0.76625
 O1070 O 0.23210 0.26912 0.73296
 C1071 C 0.28054 0.20528 0.75180
 C1072 C 0.30000 0.25335 0.77680
 C1073 C 0.25372 0.22530 0.79931
 C1074 C 0.21970 0.30109 0.74653
 C1075 C 0.24460 0.28123 0.70049
 C1076 C 0.20056 0.25438 0.72186
 H1077 H 0.26975 0.26324 0.71579
 H1078 H 0.21732 0.23070 0.74136
 H1079 H 0.27557 0.23025 0.77370
 H1080 H 0.24004 0.28634 0.77028
 H1081 H 0.27446 0.30223 0.75867
 H1082 H 0.26573 0.29243 0.78528
 H1083 H 0.22321 0.21736 0.71626
 H1084 H 0.24090 0.20109 0.73531
 H1085 H 0.27522 0.30444 0.72356
 H1086 H 0.31050 0.25543 0.73323
 H1087 H 0.19786 0.23703 0.76231
 H1088 H 0.21730 0.21888 0.77782
 H1089 H 0.30101 0.23083 0.72063
 H1090 H 0.26329 0.24145 0.69664
 H1091 H 0.23515 0.26365 0.80123
 H1092 H 0.21480 0.28034 0.78379
 O1093 O 0.21555 0.74583 0.28447
 O1094 O 0.23207 0.71969 0.28788
 O1095 O 0.25477 0.78590 0.28407
 O1096 O 0.27812 0.79335 0.26836
 O1097 O 0.21422 0.78496 0.24426
 O1098 O 0.21012 0.76824 0.21846
 O1099 O 0.30085 0.74237 0.23616
 O1100 O 0.30253 0.75482 0.26364
 O1101 O 0.26468 0.70127 0.23948
 O1102 O 0.23684 0.69792 0.25063
 O1103 O 0.25981 0.73837 0.19884
 O1104 O 0.24940 0.76809 0.19672
 O1105 O 0.28734 0.75297 0.21191
 O1106 O 0.26987 0.78027 0.20723
 O1107 O 0.25050 0.71345 0.21217
 O1108 O 0.22242 0.70890 0.22907
 O1109 O 0.28881 0.71511 0.24976
 O1110 O 0.28980 0.73005 0.27829
 O1111 O 0.20217 0.75577 0.25984
 O1112 O 0.20083 0.74556 0.23027
 O1113 O 0.23796 0.79868 0.25559
 O1114 O 0.26800 0.80036 0.24351
 O1115 O 0.24271 0.76195 0.29702
 O1116 O 0.25815 0.73344 0.29719
 Zr1117 Zr 0.24188 0.74329 0.27696
 O1118 O 0.25790 0.72709 0.26172
 Zr1119 Zr 0.25709 0.77912 0.25756
 O1120 O 0.27414 0.76439 0.24197
 Zr1121 Zr 0.22229 0.75888 0.24142
 O1122 O 0.23775 0.74358 0.22479
 Zr1123 Zr 0.28051 0.74082 0.25446
 O1124 O 0.26529 0.75666 0.27114
 Zr1125 Zr 0.24567 0.72092 0.23809
 O1126 O 0.22858 0.73536 0.25420
 Zr1127 Zr 0.26112 0.75680 0.21908
 O1128 O 0.24455 0.77315 0.23385
 O1129 O 0.23430 0.76625 0.26454
 O1130 O 0.26869 0.73360 0.23107
 C1131 C 0.20195 0.75055 0.27582
 C1132 C 0.24869 0.77765 0.29744
 C1133 C 0.22220 0.79863 0.24986
 C1134 C 0.30090 0.74746 0.22014
 C1135 C 0.28076 0.70146 0.24425
 C1136 C 0.25560 0.72212 0.19872
 H1137 H 0.26072 0.71640 0.26844
 H1138 H 0.23103 0.74087 0.21412
 H1139 H 0.22665 0.77350 0.27195
 H1140 H 0.28477 0.77131 0.23948
 H1141 H 0.29896 0.76046 0.27468
 H1142 H 0.28884 0.78677 0.26566
 H1143 H 0.21895 0.71469 0.21805
 H1144 H 0.20041 0.73389 0.23584
 H1145 H 0.30179 0.72566 0.27629
 H1146 H 0.25244 0.73531 0.30863
 H1147 H 0.23801 0.76224 0.19496
 H1148 H 0.21831 0.77673 0.21312
 H1149 H 0.22769 0.72204 0.29982
 H1150 H 0.22988 0.70175 0.26077
 H1151 H 0.26087 0.80188 0.23284
 H1152 H 0.28020 0.78442 0.21377
 O1153 O 0.28496 0.74976 0.71550
 O1154 O 0.26917 0.72249 0.71314
 O1155 O 0.24478 0.78836 0.71646
 O1156 O 0.22127 0.79478 0.73249
 O1157 O 0.28549 0.78799 0.75627
 O1158 O 0.28979 0.77075 0.78202
 O1159 O 0.19979 0.74292 0.76381
 O1160 O 0.19785 0.75559 0.73646
 O1161 O 0.23716 0.70247 0.75874
 O1162 O 0.26885 0.70284 0.74750
 O1163 O 0.24063 0.73818 0.80074
 O1164 O 0.25123 0.76834 0.80356
 O1165 O 0.21318 0.75305 0.78827
 O1166 O 0.23014 0.78013 0.79382
 O1167 O 0.25126 0.71427 0.78698
 O1168 O 0.27731 0.70917 0.77162
 O1169 O 0.21225 0.71614 0.75027
 O1170 O 0.21108 0.73160 0.72155
 O1171 O 0.29818 0.75954 0.74025
 O1172 O 0.29996 0.74881 0.76960
 O1173 O 0.26148 0.80114 0.74489
 O1174 O 0.23165 0.80177 0.75733
 O1175 O 0.25738 0.76506 0.70320
 O1176 O 0.24341 0.73645 0.70210
 Zr1177 Zr 0.25877 0.74612 0.72307
 O1178 O 0.24292 0.72911 0.73786
 Zr1179 Zr 0.24276 0.78104 0.74297
 O1180 O 0.22612 0.76544 0.75842
 Zr1181 Zr 0.27805 0.76161 0.75879
 O1182 O 0.26305 0.74521 0.77501
 Zr1183 Zr 0.22015 0.74206 0.74553
 O1184 O 0.23507 0.75866 0.72911
 Zr1185 Zr 0.25562 0.72272 0.76124
 O1186 O 0.27238 0.73824 0.74567
 Zr1187 Zr 0.23936 0.75748 0.78112
 O1188 O 0.25541 0.77486 0.76661
 O1189 O 0.26582 0.76904 0.73579
 O1190 O 0.23229 0.73441 0.76866
 C1191 C 0.29848 0.75466 0.72420
 C1192 C 0.25100 0.78056 0.70298
 C1193 C 0.27725 0.80147 0.75061
 C1194 C 0.19966 0.74760 0.77991
 C1195 C 0.22089 0.70248 0.75472
 C1196 C 0.24556 0.72215 0.80059
 H1197 H 0.24013 0.71867 0.73081
 H1198 H 0.26983 0.74229 0.78560
 H1199 H 0.27325 0.77668 0.72842
 H1200 H 0.21540 0.77204 0.76110
 H1201 H 0.20138 0.76170 0.72559
 H1202 H 0.21070 0.78800 0.73554
 H1203 H 0.28357 0.71727 0.77947
 H1204 H 0.30060 0.73724 0.76391
 H1205 H 0.19931 0.72658 0.72357
 H1206 H 0.25002 0.73780 0.69105
 H1207 H 0.26235 0.76211 0.80557
 H1208 H 0.28133 0.77883 0.78743
 H1209 H 0.27406 0.72470 0.70135
 H1210 H 0.26130 0.69915 0.73771
 H1211 H 0.23872 0.80310 0.76806
 H1212 H 0.22035 0.78484 0.78685
 O1213 O 0.25076 0.21317 0.21514
 O1214 O 0.27785 0.21076 0.23086
 O1215 O 0.21212 0.21518 0.25554
 O1216 O 0.20626 0.23141 0.27901
 O1217 O 0.21241 0.25408 0.21414
 O1218 O 0.22979 0.27955 0.20894
 O1219 O 0.25779 0.26270 0.29929
 O1220 O 0.24565 0.23535 0.30178
 O1221 O 0.29831 0.25714 0.26142
 O1222 O 0.29751 0.24504 0.22991
 O1223 O 0.26283 0.29912 0.25743
 O1224 O 0.23275 0.30205 0.24730
 O1225 O 0.24880 0.28736 0.28527
 O1226 O 0.22092 0.29243 0.26866
 O1227 O 0.28649 0.28511 0.24659
 O1228 O 0.29139 0.26923 0.22108
 O1229 O 0.28477 0.24944 0.28672
 O1230 O 0.26959 0.22051 0.28858
 O1231 O 0.24012 0.23737 0.20152
 O1232 O 0.25167 0.26658 0.19885
 O1233 O 0.19936 0.24409 0.23889
 O1234 O 0.19928 0.25617 0.26857
 O1235 O 0.23529 0.20148 0.24313
 O1236 O 0.26397 0.20047 0.25699
 Zr1237 Zr 0.25436 0.22116 0.24115
 O1238 O 0.27160 0.23617 0.25643
 Zr1239 Zr 0.21972 0.24163 0.25716
 O1240 O 0.23556 0.25727 0.27325
 Zr1241 Zr 0.23885 0.25651 0.22117
 O1242 O 0.25544 0.27298 0.23563
 Zr1243 Zr 0.25888 0.24429 0.27918
 O1244 O 0.24206 0.22771 0.26485
 Zr1245 Zr 0.27794 0.25927 0.24309
 O1246 O 0.26221 0.24342 0.22689
 Zr1247 Zr 0.24352 0.27964 0.25939
 O1248 O 0.22594 0.26494 0.24384
 O1249 O 0.23141 0.23386 0.23410
 O1250 O 0.26653 0.26713 0.26642
 C1251 C 0.24532 0.22140 0.20152
 C1252 C 0.21982 0.20151 0.24959
 C1253 C 0.19892 0.24933 0.22293
 C1254 C 0.25380 0.27897 0.29897
 C1255 C 0.29836 0.25365 0.27784
 C1256 C 0.27875 0.29883 0.25222
 H1257 H 0.28204 0.22914 0.25924
 H1258 H 0.25833 0.28341 0.22856
 H1259 H 0.22359 0.22646 0.22695
 H1260 H 0.22907 0.26018 0.28399
 H1261 H 0.23955 0.22443 0.29848
 H1262 H 0.21321 0.23449 0.28942
 H1263 H 0.28305 0.27645 0.21438
 H1264 H 0.26296 0.26039 0.19803
 H1265 H 0.27481 0.22278 0.30021
 H1266 H 0.26242 0.18926 0.25074
 H1267 H 0.23859 0.30360 0.23589
 H1268 H 0.22193 0.28527 0.21739
 H1269 H 0.27556 0.19885 0.22638
 H1270 H 0.30147 0.23560 0.23780
 H1271 H 0.19819 0.26709 0.26170
 H1272 H 0.21699 0.28628 0.27934
 O1273 O 0.78522 0.75368 0.28543
 O1274 O 0.76935 0.78089 0.28724
 O1275 O 0.74612 0.71430 0.28316
 O1276 O 0.72213 0.70853 0.26728
 O1277 O 0.78702 0.71569 0.24479
 O1278 O 0.79162 0.73286 0.21895
 O1279 O 0.70114 0.75966 0.23490
 O1280 O 0.69865 0.74693 0.26218
 O1281 O 0.73818 0.80057 0.24098
 O1282 O 0.76961 0.80054 0.25309
 O1283 O 0.74270 0.76505 0.19907
 O1284 O 0.75368 0.73511 0.19638
 O1285 O 0.71517 0.74961 0.21084
 O1286 O 0.73256 0.72287 0.20560
 O1287 O 0.75312 0.78897 0.21310
 O1288 O 0.77865 0.79445 0.22917
 O1289 O 0.71315 0.78658 0.24882
 O1290 O 0.71140 0.77105 0.27747
 O1291 O 0.79905 0.74439 0.26088
 O1292 O 0.80147 0.75495 0.23158
 O1293 O 0.76244 0.70208 0.25444
 O1294 O 0.73285 0.70117 0.24238
 O1295 O 0.75694 0.73827 0.29698
 O1296 O 0.74341 0.76680 0.29772
 Zr1297 Zr 0.75920 0.75713 0.27713
 O1298 O 0.74359 0.77396 0.26197
 Zr1299 Zr 0.74383 0.72204 0.25677
 O1300 O 0.72749 0.73747 0.24092
 Zr1301 Zr 0.77938 0.74193 0.24189
 O1302 O 0.76469 0.75820 0.22533
 Zr1303 Zr 0.72107 0.76075 0.25369
 O1304 O 0.73571 0.74432 0.27047
 Zr1305 Zr 0.75681 0.78056 0.23894
 O1306 O 0.77328 0.76521 0.25489
 Zr1307 Zr 0.74122 0.74565 0.21859
 O1308 O 0.75699 0.72843 0.23348
 O1309 O 0.76666 0.73431 0.26456
 O1310 O 0.73373 0.76860 0.23090
 C1311 C 0.79898 0.74915 0.27697
 C1312 C 0.75131 0.72244 0.29691
 C1313 C 0.77846 0.70199 0.24950
 C1314 C 0.70142 0.75487 0.21884
 C1315 C 0.72181 0.80035 0.24462
 C1316 C 0.74766 0.78110 0.19936
 H1317 H 0.74059 0.78436 0.26896
 H1318 H 0.77171 0.76123 0.21493
 H1319 H 0.77397 0.72672 0.27205
 H1320 H 0.71688 0.73073 0.23795
 H1321 H 0.70194 0.74087 0.27314
 H1322 H 0.71157 0.71473 0.26324
 H1323 H 0.78517 0.78645 0.22148
 H1324 H 0.80190 0.76656 0.23720
 H1325 H 0.69965 0.77593 0.27517
 H1326 H 0.74980 0.76563 0.30891
 H1327 H 0.76484 0.74143 0.19474
 H1328 H 0.78333 0.72463 0.21341
 H1329 H 0.77406 0.77875 0.29912
 H1330 H 0.76174 0.80422 0.26261
 H1331 H 0.73970 0.70019 0.23148
 H1332 H 0.72248 0.71812 0.21215
 O1333 O 0.76375 0.19795 0.74233
 O1334 O 0.73550 0.19761 0.75603
 O1335 O 0.75762 0.23429 0.69996
 O1336 O 0.74943 0.26213 0.69631
 O1337 O 0.80130 0.24052 0.73610
 O1338 O 0.80355 0.25048 0.76540
 O1339 O 0.71527 0.28298 0.74662
 O1340 O 0.71156 0.26803 0.72062
 O1341 O 0.71732 0.24497 0.78633
 O1342 O 0.73655 0.21732 0.78987
 O1343 O 0.75576 0.28458 0.78385
 O1344 O 0.78221 0.28913 0.76586
 O1345 O 0.74001 0.29630 0.75631
 O1346 O 0.76995 0.29841 0.74486
 O1347 O 0.74467 0.26077 0.79776
 O1348 O 0.75498 0.23242 0.80170
 O1349 O 0.70389 0.25703 0.76276
 O1350 O 0.70186 0.24150 0.73438
 O1351 O 0.78862 0.21158 0.75143
 O1352 O 0.79355 0.22820 0.77765
 O1353 O 0.78719 0.24939 0.71150
 O1354 O 0.77041 0.27665 0.70819
 O1355 O 0.74807 0.20999 0.71427
 O1356 O 0.72099 0.20900 0.73081
 Zr1357 Zr 0.74540 0.21827 0.74026
 O1358 O 0.72936 0.23373 0.75623
 Zr1359 Zr 0.76123 0.25314 0.71961
 O1360 O 0.74571 0.26998 0.73467
 Zr1361 Zr 0.78140 0.23786 0.75481
 O1362 O 0.76685 0.25403 0.77144
 Zr1363 Zr 0.72311 0.25699 0.74320
 O1364 O 0.73763 0.24076 0.72632
 Zr1365 Zr 0.74338 0.24157 0.77835
 O1366 O 0.75895 0.22455 0.76335
 Zr1367 Zr 0.75897 0.27651 0.75778
 O1368 O 0.77543 0.26127 0.74171
 O1369 O 0.76844 0.23034 0.73227
 O1370 O 0.73590 0.26460 0.76595
 C1371 C 0.77989 0.19793 0.74695
 C1372 C 0.75251 0.21826 0.70031
 C1373 C 0.80101 0.24504 0.71993
 C1374 C 0.72385 0.29647 0.75175
 C1375 C 0.70390 0.25141 0.77858
 C1376 C 0.74996 0.27669 0.79753
 H1377 H 0.71872 0.22703 0.75929
 H1378 H 0.77393 0.25693 0.78183
 H1379 H 0.77565 0.22278 0.72472
 H1380 H 0.74270 0.28042 0.72767
 H1381 H 0.71374 0.25977 0.71096
 H1382 H 0.73941 0.26944 0.69974
 H1383 H 0.76744 0.23579 0.80132
 H1384 H 0.78540 0.21958 0.78285
 H1385 H 0.69108 0.24856 0.73538
 H1386 H 0.72255 0.19722 0.72574
 H1387 H 0.78697 0.28254 0.77592
 H1388 H 0.80396 0.26227 0.76008
 H1389 H 0.73606 0.18653 0.74940
 H1390 H 0.72504 0.21382 0.78515
 H1391 H 0.78014 0.28087 0.71559
 H1392 H 0.76336 0.30024 0.73390
 C1393 C 0.09233 1.01141 1.16655
 C1394 C 0.09856 0.99673 1.17560
 C1395 C 0.10685 0.99854 1.19179
 C1396 C 0.10919 1.01515 1.19948
 C1397 C 0.10293 1.02980 1.19011
 C1398 C 0.09477 1.02795 1.17395
 C1399 C 0.08304 1.00962 1.14960
 C1400 C 0.06861 1.02026 1.14579
 C1401 C 0.06004 1.01899 1.12978
 C1402 C 0.06552 1.00692 1.11718
 C1403 C 0.07987 0.99616 1.12100
 C1404 C 0.08854 0.99750 1.13703
 C1405 C 0.05624 1.00567 1.10016
 C1406 C 0.06546 1.00296 1.08454
 C1407 C 0.05667 1.00239 1.06853
 C1408 C 0.03849 1.00462 1.06779
 C1409 C 0.02928 1.00714 1.08343
 C1410 C 0.03803 1.00757 1.09940
 H1411 H 0.09684 0.98377 1.17027
 H1412 H 0.11182 0.98681 1.19787
 H1413 H 0.10352 1.04284 1.19541
 H1414 H 0.09029 1.03958 1.16726
 H1415 H 0.06384 1.02955 1.15525
 H1416 H 0.04920 1.02766 1.12720
 H1417 H 0.08432 0.98659 1.11166
 H1418 H 0.09970 0.98922 1.13949
 H1419 H 0.07952 1.00167 1.08464
 H1420 H 0.06416 1.00049 1.05671
 H1421 H 0.01524 1.00870 1.08338
 H1422 H 0.03047 1.00930 1.11119
 C1423 C 0.59203 0.50892 0.66650
 C1424 C 0.60099 0.49472 0.67397
 C1425 C 0.60956 0.49648 0.69002
 C1426 C 0.60930 0.51246 0.69899
 C1427 C 0.60024 0.52658 0.69154
 C1428 C 0.59184 0.52487 0.67548
 C1429 C 0.58285 0.50723 0.64945
 C1430 C 0.56699 0.51593 0.64653
 C1431 C 0.55862 0.51496 0.63038
 C1432 C 0.56576 0.50507 0.61673
 C1433 C 0.58152 0.49616 0.61970
 C1434 C 0.58998 0.49726 0.63585
 C1435 C 0.55679 0.50417 0.59951
 C1436 C 0.56639 0.50386 0.58387
 C1437 C 0.55787 0.50329 0.56772
 C1438 C 0.53955 0.50321 0.56685
 C1439 C 0.52996 0.50351 0.58246
 C1440 C 0.53846 0.50387 0.59858
 H1441 H 0.60124 0.48219 0.66750
 H1442 H 0.61652 0.48539 0.69532
 H1443 H 0.59949 0.53899 0.69820
 H1444 H 0.58532 0.53616 0.67004
 H1445 H 0.56095 0.52349 0.65678
 H1446 H 0.54665 0.52219 0.62853
 H1447 H 0.58727 0.48823 0.60958
 H1448 H 0.60227 0.49054 0.63758
 H1449 H 0.58051 0.50436 0.58407
 H1450 H 0.56563 0.50318 0.55591
 H1451 H 0.51583 0.50324 0.58225
 H1452 H 0.53063 0.50372 0.61033
 C1453 C 0.40576 -0.00680 0.66224
 C1454 C 0.41300 0.00087 0.67726
 C1455 C 0.40498 -0.00118 0.69352
 C1456 C 0.38943 -0.01083 0.69518
 C1457 C 0.38192 -0.01806 0.68008
 C1458 C 0.39002 -0.01615 0.66384
 C1459 C 0.41487 -0.00555 0.64510
 C1460 C 0.40538 -0.00415 0.62943
 C1461 C 0.41397 -0.00369 0.61333
 C1462 C 0.43228 -0.00448 0.61249
 C1463 C 0.44177 -0.00558 0.62817
 C1464 C 0.43318 -0.00620 0.64424
 C1465 C 0.44147 -0.00437 0.59536
 C1466 C 0.45656 -0.01448 0.59291
 C1467 C 0.46540 -0.01420 0.57698
 C1468 C 0.45929 -0.00397 0.56301
 C1469 C 0.44408 0.00595 0.56532
 C1470 C 0.43532 0.00582 0.58134
 H1471 H 0.42494 0.00842 0.67648
 H1472 H 0.41123 0.00443 0.70487
 H1473 H 0.36979 -0.02532 0.68080
 H1474 H 0.38414 -0.02239 0.65263
 H1475 H 0.39128 -0.00338 0.62959
 H1476 H 0.40622 -0.00302 0.60153
 H1477 H 0.45588 -0.00592 0.62807
 H1478 H 0.44093 -0.00752 0.65599
 H1479 H 0.46146 -0.02278 0.60326
 H1480 H 0.47697 -0.02215 0.57557
 H1481 H 0.43909 0.01405 0.55485
 H1482 H 0.42390 0.01395 0.58282
 C1483 C -0.09612 0.49334 1.16300
 C1484 C -0.08884 0.50096 1.17802
 C1485 C -0.09656 0.49850 1.19437
 C1486 C -0.11186 0.48846 1.19612
 C1487 C -0.11947 0.48134 1.18102
 C1488 C -0.11167 0.48368 1.16469
 C1489 C -0.08720 0.49486 1.14578
 C1490 C -0.09684 0.49630 1.13021
 C1491 C -0.08839 0.49695 1.11403
 C1492 C -0.07009 0.49628 1.11303
 C1493 C -0.06046 0.49516 1.12862
 C1494 C -0.06889 0.49437 1.14476
 C1495 C -0.06101 0.49661 1.09584
 C1496 C -0.04590 0.48660 1.09321
 C1497 C -0.03697 0.48730 1.07734
 C1498 C -0.04301 0.49790 1.06361
 C1499 C -0.05834 0.50760 1.06604
 C1500 C -0.06720 0.50702 1.08200
 H1501 H -0.07705 0.50875 1.17718
 H1502 H -0.09025 0.50406 1.20572
 H1503 H -0.13142 0.47381 1.18182
 H1504 H -0.11758 0.47748 1.15346
 H1505 H -0.11094 0.49693 1.13050
 H1506 H -0.09624 0.49766 1.10230
 H1507 H -0.04634 0.49493 1.12839
 H1508 H -0.06103 0.49302 1.15643
 H1509 H -0.04098 0.47811 1.10341
 H1510 H -0.02532 0.47949 1.07584
 H1511 H -0.06329 0.51595 1.05574
 H1512 H -0.07867 0.51505 1.08362
 C1513 C -0.09270 0.50898 0.33600
 C1514 C -0.10645 0.52088 0.33424
 C1515 C -0.11476 0.52329 0.31819
 C1516 C -0.10953 0.51396 0.30319
 C1517 C -0.09592 0.50168 0.30522
 C1518 C -0.08765 0.49929 0.32134
 C1519 C -0.08341 0.50711 0.35296
 C1520 C -0.06518 0.50528 0.35345
 C1521 C -0.05634 0.50446 0.36940
 C1522 C -0.06550 0.50551 0.38526
 C1523 C -0.08376 0.50704 0.38477
 C1524 C -0.09261 0.50780 0.36882
 C1525 C -0.05601 0.50527 0.40221
 C1526 C -0.06292 0.49640 0.41676
 C1527 C -0.05390 0.49615 0.43265
 C1528 C -0.03773 0.50469 0.43433
 C1529 C -0.03090 0.51369 0.41981
 C1530 C -0.03994 0.51401 0.40398
 H1531 H -0.11067 0.52862 0.34524
 H1532 H -0.12564 0.53223 0.31789
 H1533 H -0.09092 0.49440 0.29427
 H1534 H -0.07718 0.48988 0.32230
 H1535 H -0.05766 0.50490 0.34150
 H1536 H -0.04229 0.50301 0.36930
 H1537 H -0.09122 0.50802 0.39672
 H1538 H -0.10668 0.50897 0.36891
 H1539 H -0.07516 0.48937 0.41580
 H1540 H -0.05951 0.48902 0.44353
 H1541 H -0.01855 0.52054 0.42066
 H1542 H -0.03442 0.52126 0.39314
 C1543 C 0.40569 1.01107 -0.16486
 C1544 C 0.39239 1.02343 -0.16694
 C1545 C 0.38443 1.02600 -0.18315
 C1546 C 0.38957 1.01633 -0.19797
 C1547 C 0.40267 1.00358 -0.19558
 C1548 C 0.41058 1.00103 -0.17932
 C1549 C 0.41480 1.00907 -0.14782
 C1550 C 0.43295 1.00660 -0.14723
 C1551 C 0.44166 1.00539 -0.13125
 C1552 C 0.43246 1.00668 -0.11544
 C1553 C 0.41428 1.00894 -0.11601
 C1554 C 0.40555 1.01011 -0.13201
 C1555 C 0.44187 1.00589 -0.09847
 C1556 C 0.43467 0.99698 -0.08409
 C1557 C 0.44370 0.99607 -0.06823
 C1558 C 0.46017 1.00402 -0.06641
 C1559 C 0.46727 1.01308 -0.08076
 C1560 C 0.45822 1.01403 -0.09656
 H1561 H 0.38830 1.03142 -0.15606
 H1562 H 0.37391 1.03534 -0.18374
 H1563 H 0.40765 0.99604 -0.20637
 H1564 H 0.42068 0.99125 -0.17812
 H1565 H 0.44051 1.00596 -0.15913
 H1566 H 0.45564 1.00340 -0.13128
 H1567 H 0.40681 1.01013 -0.10409
 H1568 H 0.39153 1.01181 -0.13200
 H1569 H 0.42219 0.99041 -0.08518
 H1570 H 0.43787 0.98894 -0.05747
 H1571 H 0.47985 1.01950 -0.07980
 H1572 H 0.46399 1.02130 -0.10726
 C1573 C 0.58950 0.48572 -0.16385
 C1574 C 0.58916 0.46962 -0.17259
 C1575 C 0.59761 0.46763 -0.18858
 C1576 C 0.60683 0.48161 -0.19618
 C1577 C 0.60713 0.49775 -0.18751
 C1578 C 0.59854 0.49979 -0.17154
 C1579 C 0.58048 0.48770 -0.14679
 C1580 C 0.58778 0.49793 -0.13342
 C1581 C 0.57939 0.49945 -0.11729
 C1582 C 0.56353 0.49070 -0.11412
 C1583 C 0.55626 0.48048 -0.12750
 C1584 C 0.56455 0.47910 -0.14364
 C1585 C 0.55454 0.49215 -0.09698
 C1586 C 0.53623 0.49263 -0.09619
 C1587 C 0.52765 0.49330 -0.08015
 C1588 C 0.53716 0.49375 -0.06447
 C1589 C 0.55548 0.49365 -0.06520
 C1590 C 0.56408 0.49277 -0.08128
 H1591 H 0.58256 0.45843 -0.16696
 H1592 H 0.59685 0.45510 -0.19502
 H1593 H 0.61425 0.50874 -0.19292
 H1594 H 0.59888 0.51244 -0.16529
 H1595 H 0.60013 0.50457 -0.13532
 H1596 H 0.58526 0.50759 -0.10736
 H1597 H 0.54422 0.47334 -0.12546
 H1598 H 0.55840 0.47132 -0.15369
 H1599 H 0.52846 0.49259 -0.10799
 H1600 H 0.51353 0.49359 -0.08006
 H1601 H 0.56315 0.49389 -0.05332
 H1602 H 0.57819 0.49219 -0.08138
 C1603 C 0.09133 -0.01319 0.33699
 C1604 C 0.09064 -0.02920 0.32811
 C1605 C 0.09876 -0.03114 0.31195
 C1606 C 0.10802 -0.01720 0.30430
 C1607 C 0.10886 -0.00121 0.31322
 C1608 C 0.10057 0.00078 0.32936
 C1609 C 0.08226 -0.01114 0.35403
 C1610 C 0.08960 -0.00102 0.36746
 C1611 C 0.08104 0.00070 0.38349
 C1612 C 0.06499 -0.00773 0.38649
 C1613 C 0.05771 -0.01788 0.37306
 C1614 C 0.06615 -0.01946 0.35703
 C1615 C 0.05576 -0.00601 0.40349
 C1616 C 0.03745 -0.00521 0.40400
 C1617 C 0.02865 -0.00431 0.41989
 C1618 C 0.03792 -0.00393 0.43571
 C1619 C 0.05624 -0.00434 0.43527
 C1620 C 0.06507 -0.00545 0.41932
 H1621 H 0.08390 -0.04033 0.33369
 H1622 H 0.09760 -0.04356 0.30535
 H1623 H 0.11604 0.00973 0.30781
 H1624 H 0.10121 0.01335 0.33574
 H1625 H 0.10208 0.00541 0.36568
 H1626 H 0.08694 0.00877 0.39346
 H1627 H 0.04551 -0.02479 0.37497
 H1628 H 0.05996 -0.02713 0.34692
 H1629 H 0.02986 -0.00518 0.39208
 H1630 H 0.01453 -0.00379 0.41977
 H1631 H 0.06374 -0.00416 0.44725
 H1632 H 0.07917 -0.00627 0.41944
 C1633 C 0.16460 1.09535 1.00631
 C1634 C 0.17924 1.09049 0.99649
 C1635 C 0.19544 1.09848 0.99922
 C1636 C 0.19758 1.11165 1.01195
 C1637 C 0.18258 1.11682 1.02132
 C1638 C 0.16644 1.10877 1.01858
 C1639 C 0.14764 1.08607 1.00426
 C1640 C 0.13178 1.09517 1.00534
 C1641 C 0.11585 1.08626 1.00445
 C1642 C 0.11540 1.06804 1.00239
 C1643 C 0.13125 1.05899 1.00092
 C1644 C 0.14717 1.06789 1.00188
 C1645 C 0.09849 1.05843 1.00223
 C1646 C 0.09692 1.04215 1.01064
 C1647 C 0.08104 1.03315 1.01068
 C1648 C 0.06628 1.04023 1.00240
 C1649 C 0.06782 1.05654 0.99402
 C1650 C 0.08375 1.06551 0.99391
 H1651 H 0.17823 1.08032 0.98676
 H1652 H 0.20636 1.09351 0.99188
 H1653 H 0.18296 1.12741 1.03059
 H1654 H 0.15544 1.11285 1.02641
 H1655 H 0.13166 1.10921 1.00694
 H1656 H 0.10390 1.09362 1.00578
 H1657 H 0.13138 1.04499 0.99906
 H1658 H 0.15912 1.06043 1.00120
 H1659 H 0.10790 1.03647 1.01746
 H1660 H 0.08031 1.02069 1.01738
 H1661 H 0.05675 1.06234 0.98743
 H1662 H 0.08456 1.07791 0.98712
 C1663 C 0.66565 0.59451 0.50834
 C1664 C 0.66732 0.61020 0.51766
 C1665 C 0.68355 0.61838 0.51936
 C1666 C 0.69857 0.61100 0.51192
 C1667 C 0.69683 0.59557 0.50220
 C1668 C 0.68056 0.58746 0.50037
 C1669 C 0.64856 0.58524 0.50745
 C1670 C 0.64780 0.56691 0.50828
 C1671 C 0.63178 0.55818 0.50798
 C1672 C 0.61605 0.56754 0.50703
 C1673 C 0.61680 0.58587 0.50612
 C1674 C 0.63285 0.59460 0.50627
 C1675 C 0.59899 0.55818 0.50696
 C1676 C 0.58505 0.56423 0.49665
 C1677 C 0.56916 0.55522 0.49631
 C1678 C 0.56689 0.53984 0.50614
 C1679 C 0.58074 0.53388 0.51659
 C1680 C 0.59656 0.54299 0.51706
 H1681 H 0.65617 0.61593 0.52410
 H1682 H 0.68435 0.63041 0.52668
 H1683 H 0.70813 0.58944 0.49641
 H1684 H 0.67971 0.57557 0.49283
 H1685 H 0.65960 0.55927 0.50946
 H1686 H 0.63173 0.54405 0.50841
 H1687 H 0.60496 0.59351 0.50555
 H1688 H 0.63293 0.60871 0.50540
 H1689 H 0.58652 0.57573 0.48852
 H1690 H 0.55879 0.56010 0.48804
 H1691 H 0.57935 0.52218 0.52445
 H1692 H 0.60686 0.53816 0.52544
 C1693 C 0.66334 0.40465 -0.01262
 C1694 C 0.67268 0.39876 0.00202
 C1695 C 0.68885 0.39052 0.00007
 C1696 C 0.69621 0.38788 -0.01663
 C1697 C 0.68655 0.39379 -0.03124
 C1698 C 0.67042 0.40192 -0.02925
 C1699 C 0.64640 0.41388 -0.01069
 C1700 C 0.64231 0.42807 -0.02163
 C1701 C 0.62633 0.43660 -0.02017
 C1702 C 0.61403 0.43129 -0.00761
 C1703 C 0.61812 0.41717 0.00343
 C1704 C 0.63413 0.40855 0.00190
 C1705 C 0.59706 0.44055 -0.00608
 C1706 C 0.58154 0.43133 -0.00258
 C1707 C 0.56559 0.44010 -0.00146
 C1708 C 0.56479 0.45829 -0.00389
 C1709 C 0.58032 0.46749 -0.00733
 C1710 C 0.59624 0.45875 -0.00834
 H1711 H 0.66761 0.40071 0.01505
 H1712 H 0.69516 0.38583 0.01180
 H1713 H 0.69159 0.39297 -0.04438
 H1714 H 0.66350 0.40613 -0.04084
 H1715 H 0.65154 0.43270 -0.03130
 H1716 H 0.62353 0.44727 -0.02904
 H1717 H 0.60903 0.41286 0.01338
 H1718 H 0.63679 0.39757 0.01043
 H1719 H 0.58167 0.41728 -0.00101
 H1720 H 0.55387 0.43259 0.00114
 H1721 H 0.58024 0.48152 -0.00913
 H1722 H 0.60796 0.46632 -0.01072
 C1723 C 0.16288 -0.09319 0.48761
 C1724 C 0.17060 -0.10204 0.50176
 C1725 C 0.18664 -0.11050 0.49980
 C1726 C 0.19538 -0.11023 0.48367
 C1727 C 0.18765 -0.10135 0.46956
 C1728 C 0.17159 -0.09307 0.47146
 C1729 C 0.14594 -0.08396 0.48959
 C1730 C 0.14292 -0.06815 0.48071
 C1731 C 0.12695 -0.05960 0.48217
 C1732 C 0.11358 -0.06647 0.49275
 C1733 C 0.11662 -0.08222 0.50175
 C1734 C 0.13258 -0.09088 0.50015
 C1735 C 0.09663 -0.05717 0.49433
 C1736 C 0.08080 -0.06647 0.49557
 C1737 C 0.06490 -0.05761 0.49673
 C1738 C 0.06447 -0.03927 0.49649
 C1739 C 0.08028 -0.03000 0.49533
 C1740 C 0.09614 -0.03882 0.49438
 H1741 H 0.16436 -0.10224 0.51443
 H1742 H 0.19211 -0.11735 0.51090
 H1743 H 0.19411 -0.10060 0.45702
 H1744 H 0.16594 -0.08666 0.46019
 H1745 H 0.15298 -0.06226 0.47268
 H1746 H 0.12503 -0.04766 0.47483
 H1747 H 0.10671 -0.08779 0.51018
 H1748 H 0.13436 -0.10313 0.50702
 H1749 H 0.08065 -0.08060 0.49531
 H1750 H 0.05293 -0.06513 0.49751
 H1751 H 0.08042 -0.01586 0.49533
 H1752 H 0.10806 -0.03122 0.49385
 C1753 C 0.33351 -0.09320 0.50899
 C1754 C 0.32648 -0.09526 0.52577
 C1755 C 0.31041 -0.10351 0.52825
 C1756 C 0.30075 -0.11018 0.51400
 C1757 C 0.30807 -0.10821 0.49715
 C1758 C 0.32417 -0.09987 0.49472
 C1759 C 0.35037 -0.08384 0.50651
 C1760 C 0.36272 -0.08967 0.49430
 C1761 C 0.37868 -0.08094 0.49231
 C1762 C 0.38263 -0.06619 0.50246
 C1763 C 0.37023 -0.06036 0.51461
 C1764 C 0.35430 -0.06903 0.51655
 C1765 C 0.39960 -0.05689 0.50059
 C1766 C 0.40037 -0.03860 0.50178
 C1767 C 0.41633 -0.02982 0.50095
 C1768 C 0.43197 -0.03909 0.49878
 C1769 C 0.43121 -0.05735 0.49715
 C1770 C 0.41520 -0.06616 0.49809
 H1771 H 0.33340 -0.09042 0.53710
 H1772 H 0.30540 -0.10383 0.54142
 H1773 H 0.30176 -0.11352 0.48571
 H1774 H 0.32922 -0.09846 0.48159
 H1775 H 0.36016 -0.10113 0.48647
 H1776 H 0.38787 -0.08566 0.48271
 H1777 H 0.37292 -0.04921 0.52282
 H1778 H 0.34500 -0.06402 0.52589
 H1779 H 0.38858 -0.03101 0.50333
 H1780 H 0.41640 -0.01573 0.50205
 H1781 H 0.44302 -0.06489 0.49551
 H1782 H 0.41510 -0.08027 0.49731
 C1783 C -0.16715 0.41113 1.00879
 C1784 C -0.17596 0.41156 1.02486
 C1785 C -0.19177 0.40277 1.02707
 C1786 C -0.19913 0.39305 1.01337
 C1787 C -0.19036 0.39259 0.99726
 C1788 C -0.17456 0.40156 0.99499
 C1789 C -0.15030 0.42062 1.00660
 C1790 C -0.13671 0.41356 0.99655
 C1791 C -0.12072 0.42232 0.99502
 C1792 C -0.11789 0.43828 1.00360
 C1793 C -0.13153 0.44535 1.01357
 C1794 C -0.14753 0.43672 1.01493
 C1795 C -0.10081 0.44754 1.00234
 C1796 C -0.10014 0.46589 1.00198
 C1797 C -0.08416 0.47467 1.00157
 C1798 C -0.06842 0.46534 1.00122
 C1799 C -0.06901 0.44701 1.00121
 C1800 C -0.08503 0.43820 1.00187
 H1801 H -0.17055 0.41853 1.03588
 H1802 H -0.19829 0.40367 1.03957
 H1803 H -0.19557 0.38512 0.98648
 H1804 H -0.16824 0.40112 0.98237
 H1805 H -0.13831 0.40111 0.99010
 H1806 H -0.11061 0.41659 0.98704
 H1807 H -0.12978 0.45747 1.02058
 H1808 H -0.15777 0.44272 1.02254
 H1809 H -0.11199 0.47353 1.00191
 H1810 H -0.08415 0.48880 1.00135
 H1811 H -0.05709 0.43947 1.00104
 H1812 H -0.08502 0.42408 1.00240
 C1813 C -0.16235 0.59232 0.49007
 C1814 C -0.17700 0.58742 0.49996
 C1815 C -0.19310 0.59558 0.49738
 C1816 C -0.19511 0.60895 0.48475
 C1817 C -0.18014 0.61398 0.47515
 C1818 C -0.16411 0.60577 0.47773
 C1819 C -0.14539 0.58320 0.49225
 C1820 C -0.12956 0.59249 0.49124
 C1821 C -0.11361 0.58378 0.49237
 C1822 C -0.11308 0.56557 0.49463
 C1823 C -0.12891 0.55633 0.49601
 C1824 C -0.14486 0.56502 0.49479
 C1825 C -0.09613 0.55621 0.49521
 C1826 C -0.09430 0.53990 0.48709
 C1827 C -0.07841 0.53106 0.48758
 C1828 C -0.06388 0.53836 0.49612
 C1829 C -0.06565 0.55473 0.50413
 C1830 C -0.08160 0.56353 0.50372
 H1831 H -0.17605 0.57719 0.50970
 H1832 H -0.20403 0.59069 0.50485
 H1833 H -0.18043 0.62467 0.46589
 H1834 H -0.15312 0.60984 0.46982
 H1835 H -0.12950 0.60653 0.48952
 H1836 H -0.10168 0.59129 0.49110
 H1837 H -0.12898 0.54233 0.49802
 H1838 H -0.15679 0.55744 0.49545
 H1839 H -0.10512 0.53404 0.48012
 H1840 H -0.07748 0.51854 0.48114
 H1841 H -0.05476 0.56069 0.51091
 H1842 H -0.08261 0.57597 0.51030
 C1843 C 0.33457 1.08900 -0.01088
 C1844 C 0.32529 1.09487 0.00374
 C1845 C 0.30955 1.10389 0.00172
 C1846 C 0.30264 1.10743 -0.01504
 C1847 C 0.31207 1.10125 -0.02961
 C1848 C 0.32775 1.09230 -0.02754
 C1849 C 0.35134 1.07948 -0.00891
 C1850 C 0.35524 1.06539 -0.01991
 C1851 C 0.37124 1.05684 -0.01865
 C1852 C 0.38373 1.06205 -0.00626
 C1853 C 0.37977 1.07602 0.00490
 C1854 C 0.36375 1.08464 0.00359
 C1855 C 0.40080 1.05295 -0.00512
 C1856 C 0.41633 1.06230 -0.00208
 C1857 C 0.43239 1.05369 -0.00150
 C1858 C 0.43329 1.03555 -0.00404
 C1859 C 0.41774 1.02621 -0.00695
 C1860 C 0.40171 1.03478 -0.00742
 H1861 H 0.33016 1.09244 0.01679
 H1862 H 0.30332 1.10863 0.01342
 H1863 H 0.30721 1.10266 -0.04278
 H1864 H 0.33460 1.08804 -0.03911
 H1865 H 0.34589 1.06092 -0.02953
 H1866 H 0.37393 1.04628 -0.02760
 H1867 H 0.38902 1.08023 0.01472
 H1868 H 0.36121 1.09555 0.01215
 H1869 H 0.41610 1.07634 -0.00048
 H1870 H 0.44413 1.06129 0.00071
 H1871 H 0.41790 1.01220 -0.00878
 H1872 H 0.38999 1.02713 -0.00946
 C1873 C 0.00958 1.16858 1.08911
 C1874 C 0.02622 1.17567 1.09196
 C1875 C 0.02826 1.19162 1.10045
 C1876 C 0.01369 1.20106 1.10657
 C1877 C -0.00305 1.19386 1.10349
 C1878 C -0.00504 1.17786 1.09495
 C1879 C 0.00762 1.15155 1.08009
 C1880 C -0.00470 1.13915 1.08582
 C1881 C -0.00606 1.12291 1.07761
 C1882 C 0.00485 1.11874 1.06350
 C1883 C 0.01707 1.13120 1.05773
 C1884 C 0.01840 1.14741 1.06588
 C1885 C 0.00365 1.10146 1.05482
 C1886 C 0.00553 1.10018 1.03663
 C1887 C 0.00509 1.08395 1.02844
 C1888 C 0.00263 1.06856 1.03821
 C1889 C 0.00045 1.06982 1.05638
 C1890 C 0.00099 1.08610 1.06460
 H1891 H 0.03778 1.16882 1.08771
 H1892 H 0.04140 1.19667 1.10155
 H1893 H -0.01475 1.20009 1.10824
 H1894 H -0.01807 1.17278 1.09285
 H1895 H -0.01308 1.14187 1.09684
 H1896 H -0.01574 1.11367 1.08225
 H1897 H 0.02583 1.12835 1.04705
 H1898 H 0.02786 1.15675 1.06100
 H1899 H 0.00726 1.11177 1.02867
 H1900 H 0.00662 1.08351 1.01440
 H1901 H -0.00142 1.05822 1.06430
 H1902 H -0.00029 1.08661 1.07866
 C1903 C 0.50572 0.66350 0.59372
 C1904 C 0.49850 0.67885 0.58665
 C1905 C 0.50104 0.69493 0.59485
 C1906 C 0.51074 0.69604 0.61038
 C1907 C 0.51745 0.68061 0.61775
 C1908 C 0.51506 0.66458 0.60948
 C1909 C 0.50418 0.64656 0.58441
 C1910 C 0.50246 0.63080 0.59375
 C1911 C 0.50217 0.61481 0.58503
 C1912 C 0.50343 0.61418 0.56674
 C1913 C 0.50468 0.62997 0.55738
 C1914 C 0.50515 0.64594 0.56610
 C1915 C 0.50371 0.59717 0.55745
 C1916 C 0.51429 0.59492 0.54264
 C1917 C 0.51443 0.57905 0.53375
 C1918 C 0.50416 0.56496 0.53957
 C1919 C 0.49380 0.56706 0.55453
 C1920 C 0.49351 0.58301 0.56331
 H1921 H 0.49099 0.67846 0.57468
 H1922 H 0.49578 0.70656 0.58876
 H1923 H 0.52470 0.68093 0.62987
 H1924 H 0.52098 0.65311 0.61523
 H1925 H 0.50141 0.63079 0.60784
 H1926 H 0.50135 0.60293 0.59268
 H1927 H 0.50535 0.63002 0.54326
 H1928 H 0.50669 0.65777 0.55848
 H1929 H 0.52262 0.60538 0.53798
 H1930 H 0.52269 0.57778 0.52236
 H1931 H 0.48564 0.55648 0.55925
 H1932 H 0.48503 0.58434 0.57452
 C1933 C -0.00973 0.66634 0.40930
 C1934 C 0.00426 0.67395 0.40008
 C1935 C 0.00219 0.68994 0.39143
 C1936 C -0.01389 0.69870 0.39184
 C1937 C -0.02775 0.69121 0.40129
 C1938 C -0.02574 0.67521 0.40979
 C1939 C -0.00778 0.64921 0.41831
 C1940 C -0.01623 0.64605 0.43430
 C1941 C -0.01501 0.62981 0.44251
 C1942 C -0.00510 0.61633 0.43511
 C1943 C 0.00353 0.61953 0.41921
 C1944 C 0.00216 0.63576 0.41089
 C1945 C -0.00382 0.59908 0.44401
 C1946 C -0.00348 0.58347 0.43438
 C1947 C -0.00263 0.56729 0.44290
 C1948 C -0.00230 0.56638 0.46122
 C1949 C -0.00256 0.58196 0.47081
 C1950 C -0.00319 0.59809 0.46233
 H1951 H 0.01684 0.66759 0.39963
 H1952 H 0.01309 0.69528 0.38416
 H1953 H -0.04023 0.69774 0.40215
 H1954 H -0.03687 0.66967 0.41653
 H1955 H -0.02379 0.65617 0.44055
 H1956 H -0.02205 0.62777 0.45460
 H1957 H 0.01145 0.60952 0.41324
 H1958 H 0.00868 0.63767 0.39849
 H1959 H -0.00420 0.58372 0.42027
 H1960 H -0.00253 0.55549 0.43516
 H1961 H -0.00207 0.58172 0.48494
 H1962 H -0.00302 0.60982 0.47016
 C1963 C 0.48824 1.16454 -0.09104
 C1964 C 0.50301 1.17358 -0.09711
 C1965 C 0.50133 1.18965 -0.10572
 C1966 C 0.48475 1.19720 -0.10860
 C1967 C 0.47002 1.18799 -0.10226
 C1968 C 0.47175 1.17196 -0.09373
 C1969 C 0.48989 1.14744 -0.08191
 C1970 C 0.47904 1.14336 -0.06767
 C1971 C 0.48017 1.12715 -0.05935
 C1972 C 0.49227 1.11462 -0.06496
 C1973 C 0.50323 1.11873 -0.07912
 C1974 C 0.50204 1.13495 -0.08750
 C1975 C 0.49342 1.09739 -0.05599
 C1976 C 0.49630 1.08200 -0.06551
 C1977 C 0.49714 1.06581 -0.05701
 C1978 C 0.49504 1.06465 -0.03881
 C1979 C 0.49217 1.08004 -0.02932
 C1980 C 0.49144 1.09619 -0.03779
 H1981 H 0.51594 1.16827 -0.09514
 H1982 H 0.51313 1.19565 -0.11065
 H1983 H 0.45700 1.19328 -0.10318
 H1984 H 0.46006 1.16531 -0.08932
 H1985 H 0.46970 1.15274 -0.06286
 H1986 H 0.47137 1.12436 -0.04864
 H1987 H 0.51284 1.10947 -0.08363
 H1988 H 0.51047 1.13760 -0.09854
 H1989 H 0.49763 1.08242 -0.07957
 H1990 H 0.49928 1.05420 -0.06473
 H1991 H 0.49065 1.07967 -0.01527
 H1992 H 0.48953 1.10780 -0.03001
 C1993 C 0.51256 0.33346 -0.09319
 C1994 C 0.49804 0.32430 -0.09964
 C1995 C 0.50012 0.30829 -0.10814
 C1996 C 0.51685 0.30091 -0.11048
 C1997 C 0.53133 0.31039 -0.10400
 C1998 C 0.52920 0.32636 -0.09562
 C1999 C 0.51047 0.35021 -0.08368
 C2000 C 0.52097 0.35390 -0.06909
 C2001 C 0.51937 0.36971 -0.06028
 C2002 C 0.50712 0.38222 -0.06570
 C2003 C 0.49653 0.37853 -0.08023
 C2004 C 0.49818 0.36269 -0.08913
 C2005 C 0.50548 0.39900 -0.05614
 C2006 C 0.50257 0.41477 -0.06513
 C2007 C 0.50148 0.43055 -0.05605
 C2008 C 0.50337 0.43091 -0.03779
 C2009 C 0.50614 0.41511 -0.02883
 C2010 C 0.50711 0.39937 -0.03787
 H2011 H 0.48500 0.32939 -0.09793
 H2012 H 0.48851 0.30212 -0.11326
 H2013 H 0.54445 0.30530 -0.10458
 H2014 H 0.54071 0.33315 -0.09097
 H2015 H 0.53038 0.34449 -0.06437
 H2016 H 0.52791 0.37221 -0.04930
 H2017 H 0.48683 0.38780 -0.08464
 H2018 H 0.49001 0.36033 -0.10041
 H2019 H 0.50148 0.41498 -0.07922
 H2020 H 0.49940 0.44249 -0.06336
 H2021 H 0.50747 0.41485 -0.01475
 H2022 H 0.50900 0.38743 -0.03049
 C2023 C 0.01185 -0.16458 0.40802
 C2024 C -0.00228 -0.17223 0.39912
 C2025 C -0.00028 -0.18812 0.39041
 C2026 C 0.01588 -0.19676 0.39047
 C2027 C 0.02994 -0.18916 0.39950
 C2028 C 0.02799 -0.17325 0.40805
 C2029 C 0.00987 -0.14767 0.41731
 C2030 C 0.01862 -0.14475 0.43317
 C2031 C 0.01717 -0.12879 0.44176
 C2032 C 0.00675 -0.11536 0.43484
 C2033 C -0.00211 -0.11830 0.41904
 C2034 C -0.00053 -0.13425 0.41035
 C2035 C 0.00517 -0.09844 0.44418
 C2036 C 0.00427 -0.08254 0.43495
 C2037 C 0.00316 -0.06667 0.44387
 C2038 C 0.00310 -0.06635 0.46221
 C2039 C 0.00389 -0.08224 0.47141
 C2040 C 0.00480 -0.09806 0.46252
 H2041 H -0.01495 -0.16602 0.39901
 H2042 H -0.01133 -0.19353 0.38346
 H2043 H 0.04249 -0.19557 0.40007
 H2044 H 0.03923 -0.16765 0.41454
 H2045 H 0.02654 -0.15486 0.43907
 H2046 H 0.02440 -0.12693 0.45375
 H2047 H -0.01041 -0.10833 0.41344
 H2048 H -0.00729 -0.13597 0.39806
 H2049 H 0.00476 -0.08233 0.42083
 H2050 H 0.00265 -0.05464 0.43641
 H2051 H 0.00366 -0.08247 0.48555
 H2052 H 0.00507 -0.11004 0.47007
 C2053 C 0.48969 -0.16694 0.58751
 C2054 C 0.47340 -0.17540 0.58798
 C2055 C 0.47122 -0.19099 0.59721
 C2056 C 0.48522 -0.19844 0.60644
 C2057 C 0.50157 -0.19009 0.60588
 C2058 C 0.50379 -0.17453 0.59650
 C2059 C 0.49178 -0.15015 0.57788
 C2060 C 0.50236 -0.13671 0.58456
 C2061 C 0.50371 -0.12069 0.57582
 C2062 C 0.49440 -0.11768 0.56027
 C2063 C 0.48397 -0.13120 0.55353
 C2064 C 0.48276 -0.14725 0.56215
 C2065 C 0.49532 -0.10047 0.55122
 C2066 C 0.49495 -0.09949 0.53289
 C2067 C 0.49514 -0.08334 0.52437
 C2068 C 0.49593 -0.06776 0.53396
 C2069 C 0.49659 -0.06870 0.55227
 C2070 C 0.49619 -0.08486 0.56081
 H2071 H 0.46218 -0.16984 0.58144
 H2072 H 0.45852 -0.19722 0.59709
 H2073 H 0.51259 -0.19542 0.61294
 H2074 H 0.51658 -0.16848 0.59623
 H2075 H 0.50935 -0.13842 0.59673
 H2076 H 0.51206 -0.11067 0.58127
 H2077 H 0.47644 -0.12931 0.54172
 H2078 H 0.47472 -0.15738 0.55647
 H2079 H 0.49464 -0.11122 0.52507
 H2080 H 0.49480 -0.08308 0.51024
 H2081 H 0.49709 -0.05692 0.56003
 H2082 H 0.49620 -0.08510 0.57494
 C2083 C -0.01357 0.33609 1.08706
 C2084 C 0.00111 0.32708 1.09327
 C2085 C -0.00075 0.31113 1.10208
 C2086 C -0.01742 0.30373 1.10506
 C2087 C -0.03204 0.31286 1.09847
 C2088 C -0.03013 0.32874 1.08973
 C2089 C -0.01178 0.35314 1.07789
 C2090 C -0.02254 0.35714 1.06356
 C2091 C -0.02149 0.37341 1.05537
 C2092 C -0.00955 0.38608 1.06119
 C2093 C 0.00138 0.38203 1.07539
 C2094 C 0.00027 0.36574 1.08365
 C2095 C -0.00858 0.40342 1.05244
 C2096 C -0.00604 0.41876 1.06217
 C2097 C -0.00539 0.43505 1.05387
 C2098 C -0.00736 0.43637 1.03567
 C2099 C -0.00990 0.42102 1.02597
 C2100 C -0.01043 0.40477 1.03424
 H2101 H 0.01409 0.33235 1.09130
 H2102 H 0.01096 0.30514 1.10714
 H2103 H -0.04511 0.30761 1.09942
 H2104 H -0.04175 0.33537 1.08519
 H2105 H -0.03180 0.34765 1.05864
 H2106 H -0.03024 0.37615 1.04461
 H2107 H 0.01087 0.39142 1.08006
 H2108 H 0.00862 0.36314 1.09476
 H2109 H -0.00482 0.41820 1.07624
 H2110 H -0.00349 0.44662 1.06174
 H2111 H -0.01131 0.42152 1.01191
 H2112 H -0.01210 0.39321 1.02631
 C2113 C 0.75683 0.34236 0.08537
 C2114 C 0.74743 0.33679 0.07065
 C2115 C 0.74974 0.34497 0.05444
 C2116 C 0.76163 0.35899 0.05239
 C2117 C 0.77061 0.36476 0.06745
 C2118 C 0.76830 0.35654 0.08357
 C2119 C 0.75511 0.33320 0.10245
 C2120 C 0.75552 0.34262 0.11817
 C2121 C 0.75496 0.33395 0.13425
 C2122 C 0.75388 0.31564 0.13503
 C2123 C 0.75310 0.30624 0.11931
 C2124 C 0.75375 0.31491 0.10323
 C2125 C 0.75376 0.30638 0.15215
 C2126 C 0.76268 0.29050 0.15430
 C2127 C 0.76245 0.28171 0.17032
 C2128 C 0.75339 0.28863 0.18464
 C2129 C 0.74466 0.30462 0.18258
 C2130 C 0.74479 0.31336 0.16652
 H2131 H 0.73833 0.32599 0.07163
 H2132 H 0.74272 0.33959 0.04346
 H2133 H 0.77920 0.37598 0.06712
 H2134 H 0.77581 0.36118 0.09461
 H2135 H 0.75632 0.35673 0.11806
 H2136 H 0.75574 0.34160 0.14607
 H2137 H 0.75198 0.29215 0.11943
 H2138 H 0.75358 0.30723 0.09140
 H2139 H 0.77001 0.28493 0.14362
 H2140 H 0.76943 0.26949 0.17148
 H2141 H 0.73745 0.31028 0.19330
 H2142 H 0.73759 0.32543 0.16528
 C2143 C 0.25358 0.84310 0.58640
 C2144 C 0.24643 0.83587 0.57111
 C2145 C 0.24921 0.84381 0.55487
 C2146 C 0.25912 0.85924 0.55353
 C2147 C 0.26576 0.86677 0.56889
 C2148 C 0.26311 0.85876 0.58508
 C2149 C 0.25178 0.83400 0.60353
 C2150 C 0.25001 0.84353 0.61909
 C2151 C 0.24946 0.83499 0.63525
 C2152 C 0.25051 0.81669 0.63627
 C2153 C 0.25181 0.80715 0.62068
 C2154 C 0.25252 0.81569 0.60454
 C2155 C 0.25066 0.80758 0.65348
 C2156 C 0.26119 0.79279 0.65610
 C2157 C 0.26129 0.78409 0.67215
 C2158 C 0.25101 0.79004 0.68608
 C2159 C 0.24066 0.80496 0.68358
 C2160 C 0.24043 0.81358 0.66744
 H2161 H 0.23877 0.82398 0.57166
 H2162 H 0.24400 0.83759 0.54332
 H2163 H 0.27320 0.87880 0.56837
 H2164 H 0.26898 0.86462 0.59651
 H2165 H 0.24914 0.85763 0.61881
 H2166 H 0.24860 0.84278 0.64698
 H2167 H 0.25233 0.79303 0.62092
 H2168 H 0.25409 0.80792 0.59289
 H2169 H 0.26954 0.78803 0.64579
 H2170 H 0.26957 0.77275 0.67367
 H2171 H 0.23252 0.80982 0.69402
 H2172 H 0.23200 0.82479 0.66584
 C2173 C 0.74619 0.65599 0.58538
 C2174 C 0.75375 0.66310 0.57019
 C2175 C 0.75110 0.65524 0.55396
 C2176 C 0.74094 0.64000 0.55252
 C2177 C 0.73393 0.63254 0.56779
 C2178 C 0.73644 0.64048 0.58399
 C2179 C 0.74779 0.66509 0.60246
 C2180 C 0.74905 0.65559 0.61816
 C2181 C 0.74949 0.66418 0.63423
 C2182 C 0.74881 0.68250 0.63500
 C2183 C 0.74800 0.69200 0.61928
 C2184 C 0.74740 0.68342 0.60324
 C2185 C 0.74862 0.69169 0.65209
 C2186 C 0.73846 0.70678 0.65433
 C2187 C 0.73840 0.71560 0.67023
 C2188 C 0.74833 0.70948 0.68440
 C2189 C 0.75828 0.69426 0.68231
 C2190 C 0.75849 0.68551 0.66631
 H2191 H 0.76161 0.67485 0.57081
 H2192 H 0.75660 0.66142 0.54247
 H2193 H 0.72632 0.62062 0.56723
 H2194 H 0.73027 0.63470 0.59534
 H2195 H 0.74964 0.64147 0.61806
 H2196 H 0.74997 0.65642 0.64606
 H2197 H 0.74778 0.70613 0.61934
 H2198 H 0.74620 0.69119 0.59147
 H2199 H 0.73038 0.71169 0.64382
 H2200 H 0.73042 0.72718 0.67146
 H2201 H 0.76615 0.68925 0.69294
 H2202 H 0.76663 0.67407 0.66501
 C2203 C 0.24239 0.15751 0.08616
 C2204 C 0.25019 0.16449 0.07104
 C2205 C 0.24805 0.15633 0.05488
 C2206 C 0.23819 0.14089 0.05347
 C2207 C 0.23093 0.13357 0.06869
 C2208 C 0.23291 0.14182 0.08480
 C2209 C 0.24361 0.16681 0.10316
 C2210 C 0.24476 0.15747 0.11896
 C2211 C 0.24508 0.16623 0.13493
 C2212 C 0.24444 0.18456 0.13552
 C2213 C 0.24360 0.19391 0.11971
 C2214 C 0.24310 0.18515 0.10375
 C2215 C 0.24453 0.19391 0.15254
 C2216 C 0.23465 0.20918 0.15480
 C2217 C 0.23489 0.21809 0.17068
 C2218 C 0.24485 0.21183 0.18477
 C2219 C 0.25456 0.19646 0.18262
 C2220 C 0.25448 0.18766 0.16667
 H2221 H 0.25785 0.17637 0.07164
 H2222 H 0.25373 0.16239 0.04342
 H2223 H 0.22353 0.12152 0.06814
 H2224 H 0.22657 0.13612 0.09609
 H2225 H 0.24542 0.14336 0.11901
 H2226 H 0.24554 0.15858 0.14683
 H2227 H 0.24338 0.20803 0.11962
 H2228 H 0.24197 0.19279 0.09189
 H2229 H 0.22655 0.21418 0.14435
 H2230 H 0.22713 0.22980 0.17197
 H2231 H 0.26247 0.19137 0.19317
 H2232 H 0.26246 0.17612 0.16534
 C2233 C 0.26093 0.16403 0.91626
 C2234 C 0.27705 0.16422 0.92501
 C2235 C 0.27918 0.15525 0.94076
 C2236 C 0.26532 0.14565 0.94807
 C2237 C 0.24912 0.14559 0.93946
 C2238 C 0.24694 0.15470 0.92374
 C2239 C 0.25890 0.17332 0.89929
 C2240 C 0.24878 0.16611 0.88578
 C2241 C 0.24744 0.17458 0.86963
 C2242 C 0.25629 0.19041 0.86655
 C2243 C 0.26630 0.19767 0.88011
 C2244 C 0.26750 0.18930 0.89628
 C2245 C 0.25526 0.19928 0.84926
 C2246 C 0.25497 0.21761 0.84814
 C2247 C 0.25454 0.22600 0.83194
 C2248 C 0.25417 0.21629 0.81643
 C2249 C 0.25421 0.19797 0.81748
 C2250 C 0.25485 0.18956 0.83371
 H2251 H 0.28818 0.17105 0.91956
 H2252 H 0.29174 0.15586 0.94720
 H2253 H 0.23822 0.13824 0.94470
 H2254 H 0.23428 0.15447 0.91748
 H2255 H 0.24214 0.15373 0.88756
 H2256 H 0.23942 0.16873 0.85958
 H2257 H 0.27348 0.20971 0.87816
 H2258 H 0.27519 0.19538 0.90645
 H2259 H 0.25491 0.22552 0.85982
 H2260 H 0.25431 0.24013 0.83158
 H2261 H 0.25405 0.19012 0.80575
 H2262 H 0.25535 0.17544 0.83405
 C2263 C 0.76042 0.65944 0.41278
 C2264 C 0.74665 0.65027 0.42085
 C2265 C 0.74922 0.64169 0.43683
 C2266 C 0.76561 0.64211 0.44510
 C2267 C 0.77931 0.65133 0.43702
 C2268 C 0.77679 0.65976 0.42105
 C2269 C 0.75784 0.66873 0.39587
 C2270 C 0.76629 0.68475 0.39270
 C2271 C 0.76450 0.69327 0.37667
 C2272 C 0.75402 0.68614 0.36340
 C2273 C 0.74536 0.67023 0.36662
 C2274 C 0.74728 0.66161 0.38266
 C2275 C 0.75236 0.69530 0.34629
 C2276 C 0.75157 0.68589 0.33056
 C2277 C 0.75087 0.69465 0.31449
 C2278 C 0.75114 0.71299 0.31381
 C2279 C 0.75162 0.72236 0.32953
 C2280 C 0.75209 0.71364 0.34555
 H2281 H 0.73382 0.64990 0.41494
 H2282 H 0.73843 0.63458 0.44260
 H2283 H 0.79203 0.65218 0.44313
 H2284 H 0.78777 0.66643 0.41512
 H2285 H 0.77430 0.69079 0.40265
 H2286 H 0.77159 0.70534 0.37461
 H2287 H 0.73702 0.66446 0.35678
 H2288 H 0.74071 0.64921 0.38459
 H2289 H 0.75196 0.67177 0.33062
 H2290 H 0.75058 0.68707 0.30259
 H2291 H 0.75159 0.73650 0.32948
 H2292 H 0.75224 0.72132 0.35738
 C2293 C 0.24290 0.84033 0.41326
 C2294 C 0.23328 0.85590 0.41406
 C2295 C 0.23049 0.86421 0.42999
 C2296 C 0.23706 0.85709 0.44560
 C2297 C 0.24696 0.84170 0.44480
 C2298 C 0.24988 0.83345 0.42882
 C2299 C 0.24509 0.83108 0.39635
 C2300 C 0.24456 0.81274 0.39565
 C2301 C 0.24574 0.80407 0.37968
 C2302 C 0.24732 0.81350 0.36397
 C2303 C 0.24813 0.83183 0.36469
 C2304 C 0.24711 0.84049 0.38068
 C2305 C 0.24779 0.80429 0.34690
 C2306 C 0.25824 0.81053 0.33312
 C2307 C 0.25844 0.80198 0.31703
 C2308 C 0.24834 0.78687 0.31439
 C2309 C 0.23794 0.78059 0.32816
 C2310 C 0.23759 0.78923 0.34417
 H2311 H 0.22752 0.86149 0.40242
 H2312 H 0.22307 0.87622 0.43007
 H2313 H 0.25210 0.83579 0.45658
 H2314 H 0.25758 0.82163 0.42867
 H2315 H 0.24281 0.80506 0.40741
 H2316 H 0.24537 0.78994 0.37967
 H2317 H 0.24917 0.83954 0.35287
 H2318 H 0.24785 0.85461 0.38073
 H2319 H 0.26647 0.82192 0.33482
 H2320 H 0.26670 0.80709 0.30673
 H2321 H 0.22987 0.76907 0.32651
 H2322 H 0.22911 0.78425 0.35434
 C2323 C 0.74454 0.34063 0.91270
 C2324 C 0.75178 0.33387 0.92819
 C2325 C 0.74871 0.34196 0.94423
 C2326 C 0.73840 0.35707 0.94515
 C2327 C 0.73164 0.36413 0.92959
 C2328 C 0.73458 0.35597 0.91360
 C2329 C 0.74672 0.33139 0.89577
 C2330 C 0.74829 0.34079 0.88002
 C2331 C 0.74918 0.33208 0.86404
 C2332 C 0.74868 0.31374 0.86340
 C2333 C 0.74759 0.30435 0.87918
 C2334 C 0.74653 0.31305 0.89513
 C2335 C 0.74892 0.30443 0.84637
 C2336 C 0.73893 0.28918 0.84401
 C2337 C 0.73925 0.28026 0.82816
 C2338 C 0.74940 0.28646 0.81416
 C2339 C 0.75918 0.30185 0.81637
 C2340 C 0.75901 0.31069 0.83232
 H2341 H 0.75975 0.32223 0.92796
 H2342 H 0.75403 0.33610 0.95596
 H2343 H 0.72392 0.37594 0.92977
 H2344 H 0.72862 0.36147 0.90201
 H2345 H 0.74875 0.35491 0.88002
 H2346 H 0.74987 0.33976 0.85217
 H2347 H 0.74750 0.29022 0.87922
 H2348 H 0.74513 0.30536 0.90694
 H2349 H 0.73069 0.28420 0.85437
 H2350 H 0.73141 0.26855 0.82683
 H2351 H 0.76722 0.30690 0.80587
 H2352 H 0.76703 0.32225 0.83373
 C2353 C 0.84306 0.41381 0.24258
 C2354 C 0.85849 0.41534 0.23277
 C2355 C 0.86662 0.43155 0.23053
 C2356 C 0.85944 0.44670 0.23789
 C2357 C 0.84427 0.44511 0.24808
 C2358 C 0.83623 0.42886 0.25046
 C2359 C 0.83380 0.39672 0.24403
 C2360 C 0.81547 0.39600 0.24378
 C2361 C 0.80672 0.37998 0.24448
 C2362 C 0.81606 0.36422 0.24527
 C2363 C 0.83439 0.36494 0.24568
 C2364 C 0.84315 0.38098 0.24513
 C2365 C 0.80666 0.34716 0.24548
 C2366 C 0.81285 0.33307 0.25552
 C2367 C 0.80384 0.31716 0.25586
 C2368 C 0.78832 0.31502 0.24629
 C2369 C 0.78222 0.32905 0.23613
 C2370 C 0.79131 0.34487 0.23566
 H2371 H 0.86406 0.40409 0.22637
 H2372 H 0.87846 0.43223 0.22286
 H2373 H 0.83830 0.45651 0.25383
 H2374 H 0.82455 0.42814 0.25836
 H2375 H 0.80782 0.40780 0.24269
 H2376 H 0.79260 0.37997 0.24444
 H2377 H 0.84202 0.35308 0.24612
 H2378 H 0.85727 0.38104 0.24558
 H2379 H 0.82449 0.33442 0.26342
 H2380 H 0.80884 0.30664 0.26390
 H2381 H 0.77042 0.32778 0.22845
 H2382 H 0.78637 0.35529 0.22746
 C2383 C 0.34166 0.91687 0.74325
 C2384 C 0.35710 0.91778 0.73339
 C2385 C 0.36553 0.93375 0.73057
 C2386 C 0.35864 0.94929 0.73738
 C2387 C 0.34337 0.94835 0.74751
 C2388 C 0.33504 0.93235 0.75048
 C2389 C 0.33222 0.89997 0.74551
 C2390 C 0.31387 0.89942 0.74547
 C2391 C 0.30497 0.88354 0.74694
 C2392 C 0.31416 0.86773 0.74829
 C2393 C 0.33250 0.86828 0.74853
 C2394 C 0.34141 0.88420 0.74723
 C2395 C 0.30464 0.85075 0.74909
 C2396 C 0.31091 0.83685 0.75937
 C2397 C 0.30206 0.82085 0.75985
 C2398 C 0.28664 0.81842 0.75022
 C2399 C 0.28030 0.83233 0.74004
 C2400 C 0.28924 0.84824 0.73941
 H2401 H 0.36250 0.90619 0.72745
 H2402 H 0.37742 0.93392 0.72296
 H2403 H 0.33759 0.96006 0.75283
 H2404 H 0.32335 0.93213 0.75839
 H2405 H 0.30633 0.91125 0.74394
 H2406 H 0.29085 0.88367 0.74700
 H2407 H 0.34003 0.85637 0.74936
 H2408 H 0.35553 0.88412 0.74757
 H2409 H 0.32257 0.83838 0.76721
 H2410 H 0.30723 0.81043 0.76791
 H2411 H 0.26856 0.83085 0.73231
 H2412 H 0.28420 0.85850 0.73106
 C2413 C 0.15697 0.91288 0.25594
 C2414 C 0.16177 0.92798 0.24665
 C2415 C 0.15350 0.94391 0.24982
 C2416 C 0.14015 0.94528 0.26247
 C2417 C 0.13513 0.92984 0.27135
 C2418 C 0.14344 0.91399 0.26819
 C2419 C 0.16638 0.89614 0.25336
 C2420 C 0.15736 0.88012 0.25386
 C2421 C 0.16636 0.86435 0.25261
 C2422 C 0.18460 0.86419 0.25073
 C2423 C 0.19357 0.88022 0.24977
 C2424 C 0.18457 0.89599 0.25110
 C2425 C 0.19428 0.84741 0.25028
 C2426 C 0.21044 0.84579 0.25882
 C2427 C 0.21949 0.83000 0.25863
 C2428 C 0.21255 0.81537 0.25000
 C2429 C 0.19637 0.81696 0.24149
 C2430 C 0.18737 0.83280 0.24159
 H2431 H 0.17204 0.92754 0.23697
 H2432 H 0.15836 0.95521 0.24284
 H2433 H 0.12444 0.92966 0.28054
 H2434 H 0.13943 0.90262 0.27564
 H2435 H 0.14331 0.87977 0.25533
 H2436 H 0.15906 0.85226 0.25356
 H2437 H 0.20758 0.88058 0.24805
 H2438 H 0.19195 0.90806 0.25084
 H2439 H 0.21600 0.85666 0.26592
 H2440 H 0.23186 0.82923 0.26543
 H2441 H 0.19070 0.80599 0.23461
 H2442 H 0.17507 0.83366 0.23469
 C2443 C 0.66186 0.41242 0.76064
 C2444 C 0.66193 0.42085 0.77690
 C2445 C 0.65315 0.43659 0.77917
 C2446 C 0.64386 0.44426 0.76531
 C2447 C 0.64384 0.43592 0.74900
 C2448 C 0.65276 0.42019 0.74668
 C2449 C 0.67115 0.39555 0.75841
 C2450 C 0.66402 0.38218 0.74807
 C2451 C 0.67255 0.36614 0.74650
 C2452 C 0.68835 0.36306 0.75532
 C2453 C 0.69550 0.37649 0.76557
 C2454 C 0.68707 0.39254 0.76701
 C2455 C 0.69735 0.34593 0.75397
 C2456 C 0.71567 0.34514 0.75359
 C2457 C 0.72421 0.32910 0.75292
 C2458 C 0.71466 0.31342 0.75239
 C2459 C 0.69634 0.31416 0.75250
 C2460 C 0.68778 0.33024 0.75337
 H2461 H 0.66858 0.41515 0.78800
 H2462 H 0.65371 0.44280 0.79183
 H2463 H 0.63671 0.44142 0.73809
 H2464 H 0.65261 0.41416 0.73392
 H2465 H 0.65169 0.38398 0.74141
 H2466 H 0.66678 0.35619 0.73831
 H2467 H 0.70751 0.37453 0.77274
 H2468 H 0.69308 0.40261 0.77488
 H2469 H 0.72347 0.35696 0.75366
 H2470 H 0.73834 0.32900 0.75264
 H2471 H 0.68861 0.30229 0.75221
 H2472 H 0.67367 0.33033 0.75391
 C2473 C 0.65926 0.58285 0.74636
 C2474 C 0.64363 0.58201 0.73678
 C2475 C 0.63525 0.56605 0.73403
 C2476 C 0.64238 0.55046 0.74060
 C2477 C 0.65781 0.55130 0.75050
 C2478 C 0.66612 0.56732 0.75339
 C2479 C 0.66863 0.59977 0.74840
 C2480 C 0.68695 0.60048 0.74771
 C2481 C 0.69573 0.61646 0.74858
 C2482 C 0.68643 0.63219 0.74999
 C2483 C 0.66812 0.63146 0.75101
 C2484 C 0.65935 0.61545 0.75031
 C2485 C 0.69574 0.64927 0.74993
 C2486 C 0.68977 0.66325 0.76013
 C2487 C 0.69837 0.67938 0.75976
 C2488 C 0.71325 0.68184 0.74933
 C2489 C 0.71928 0.66786 0.73920
 C2490 C 0.71058 0.65181 0.73942
 H2491 H 0.63806 0.59363 0.73099
 H2492 H 0.62321 0.56592 0.72663
 H2493 H 0.66372 0.53954 0.75565
 H2494 H 0.67799 0.56751 0.76106
 H2495 H 0.69454 0.58871 0.74604
 H2496 H 0.70985 0.61649 0.74808
 H2497 H 0.66051 0.64329 0.75192
 H2498 H 0.64525 0.61539 0.75116
 H2499 H 0.67855 0.66170 0.76858
 H2500 H 0.69348 0.68986 0.76782
 H2501 H 0.73062 0.66936 0.73089
 H2502 H 0.71534 0.64148 0.73111
 C2503 C 0.15626 0.08569 0.24839
 C2504 C 0.14067 0.08474 0.23877
 C2505 C 0.13255 0.06869 0.23577
 C2506 C 0.13991 0.05312 0.24214
 C2507 C 0.15524 0.05408 0.25218
 C2508 C 0.16329 0.07018 0.25531
 C2509 C 0.16555 0.10266 0.25040
 C2510 C 0.18386 0.10344 0.24962
 C2511 C 0.19257 0.11946 0.25028
 C2512 C 0.18322 0.13516 0.25156
 C2513 C 0.16493 0.13438 0.25275
 C2514 C 0.15621 0.11832 0.25226
 C2515 C 0.19249 0.15226 0.25111
 C2516 C 0.18671 0.16640 0.26122
 C2517 C 0.19543 0.18246 0.26061
 C2518 C 0.21023 0.18470 0.25000
 C2519 C 0.21598 0.17059 0.23988
 C2520 C 0.20717 0.15462 0.24035
 H2521 H 0.13497 0.09634 0.23306
 H2522 H 0.12058 0.06845 0.22826
 H2523 H 0.16131 0.04235 0.25719
 H2524 H 0.17512 0.07045 0.26303
 H2525 H 0.19149 0.09170 0.24799
 H2526 H 0.20668 0.11954 0.24967
 H2527 H 0.15728 0.14619 0.25361
 H2528 H 0.14212 0.11820 0.25318
 H2529 H 0.17558 0.16499 0.26981
 H2530 H 0.19074 0.19305 0.26865
 H2531 H 0.22723 0.17192 0.23142
 H2532 H 0.21176 0.14418 0.23208
 C2533 C 0.34459 0.09002 0.75507
 C2534 C 0.33738 0.07478 0.74778
 C2535 C 0.34525 0.05856 0.75048
 C2536 C 0.36062 0.05717 0.76040
 C2537 C 0.36818 0.07248 0.76714
 C2538 C 0.36022 0.08868 0.76459
 C2539 C 0.33545 0.10709 0.75342
 C2540 C 0.34490 0.12280 0.75184
 C2541 C 0.33626 0.13886 0.75129
 C2542 C 0.31795 0.13959 0.75219
 C2543 C 0.30851 0.12385 0.75334
 C2544 C 0.31714 0.10784 0.75405
 C2545 C 0.30868 0.15664 0.75228
 C2546 C 0.29370 0.15888 0.76260
 C2547 C 0.28467 0.17467 0.76247
 C2548 C 0.29049 0.18874 0.75217
 C2549 C 0.30566 0.18670 0.74210
 C2550 C 0.31461 0.17079 0.74209
 H2551 H 0.32553 0.07534 0.74010
 H2552 H 0.33900 0.04703 0.74520
 H2553 H 0.38021 0.07195 0.77454
 H2554 H 0.36608 0.10008 0.77053
 H2555 H 0.35900 0.12272 0.75107
 H2556 H 0.34396 0.15071 0.75054
 H2557 H 0.29440 0.12387 0.75373
 H2558 H 0.30942 0.09607 0.75550
 H2559 H 0.28899 0.14844 0.77095
 H2560 H 0.27316 0.17587 0.77057
 H2561 H 0.31043 0.19727 0.73396
 H2562 H 0.32598 0.16949 0.73383
 C2563 C 0.83985 0.58567 0.25873
 C2564 C 0.84914 0.57784 0.24501
 C2565 C 0.85771 0.56192 0.24757
 C2566 C 0.85714 0.55345 0.26389
 C2567 C 0.84776 0.56125 0.27753
 C2568 C 0.83934 0.57718 0.27502
 C2569 C 0.83070 0.60261 0.25619
 C2570 C 0.81463 0.60568 0.26444
 C2571 C 0.80629 0.62176 0.26271
 C2572 C 0.81366 0.63517 0.25249
 C2573 C 0.82961 0.63204 0.24401
 C2574 C 0.83805 0.61596 0.24587
 C2575 C 0.80476 0.65236 0.25092
 C2576 C 0.81440 0.66803 0.25043
 C2577 C 0.80591 0.68417 0.24967
 C2578 C 0.78760 0.68499 0.24958
 C2579 C 0.77798 0.66934 0.24983
 C2580 C 0.78644 0.65325 0.25037
 H2581 H 0.84965 0.58393 0.23225
 H2582 H 0.86494 0.55635 0.23683
 H2583 H 0.84680 0.55498 0.29018
 H2584 H 0.83256 0.58293 0.28596
 H2585 H 0.80843 0.59563 0.27226
 H2586 H 0.79417 0.62376 0.26965
 H2587 H 0.83556 0.64198 0.23586
 H2588 H 0.85049 0.61411 0.23947
 H2589 H 0.82851 0.66786 0.25107
 H2590 H 0.81369 0.69600 0.24957
 H2591 H 0.76385 0.66952 0.24953
 H2592 H 0.77859 0.64147 0.25032
 C2593 C 0.91389 0.26043 0.16036
 C2594 C 0.92157 0.24661 0.15111
 C2595 C 0.93735 0.24907 0.14224
 C2596 C 0.94578 0.26539 0.14245
 C2597 C 0.93824 0.27908 0.15194
 C2598 C 0.92246 0.27667 0.16067
 C2599 C 0.89695 0.25810 0.16954
 C2600 C 0.89394 0.26643 0.18556
 C2601 C 0.87781 0.26501 0.19386
 C2602 C 0.86428 0.25501 0.18648
 C2603 C 0.86735 0.24644 0.17059
 C2604 C 0.88349 0.24800 0.16219
 C2605 C 0.84707 0.25371 0.19536
 C2606 C 0.83144 0.25351 0.18571
 C2607 C 0.81529 0.25283 0.19419
 C2608 C 0.81444 0.25254 0.21251
 C2609 C 0.83005 0.25260 0.22214
 C2610 C 0.84615 0.25306 0.21368
 H2611 H 0.91542 0.23387 0.15079
 H2612 H 0.94280 0.23830 0.13497
 H2613 H 0.94455 0.29173 0.15264
 H2614 H 0.91683 0.28767 0.16744
 H2615 H 0.90409 0.27410 0.19174
 H2616 H 0.87586 0.27200 0.20594
 H2617 H 0.85730 0.23846 0.16465
 H2618 H 0.88529 0.24155 0.14978
 H2619 H 0.83166 0.25424 0.17159
 H2620 H 0.80347 0.25288 0.18643
 H2621 H 0.82985 0.25214 0.23627
 H2622 H 0.85790 0.25280 0.22152
 C2623 C 0.41530 0.76107 0.66329
 C2624 C 0.42412 0.77719 0.66307
 C2625 C 0.43998 0.77905 0.65433
 C2626 C 0.44736 0.76490 0.64538
 C2627 C 0.43864 0.74873 0.64569
 C2628 C 0.42280 0.74683 0.65457
 C2629 C 0.39827 0.75929 0.67243
 C2630 C 0.38478 0.74900 0.66538
 C2631 C 0.36862 0.74778 0.67377
 C2632 C 0.36553 0.75689 0.68936
 C2633 C 0.37906 0.76711 0.69642
 C2634 C 0.39523 0.76820 0.68813
 C2635 C 0.34828 0.75589 0.69820
 C2636 C 0.34725 0.75579 0.71652
 C2637 C 0.33109 0.75542 0.72490
 C2638 C 0.31554 0.75493 0.71518
 C2639 C 0.31652 0.75474 0.69687
 C2640 C 0.33271 0.75530 0.68847
 H2641 H 0.41864 0.78851 0.66943
 H2642 H 0.44649 0.79161 0.65461
 H2643 H 0.44389 0.73761 0.63881
 H2644 H 0.41647 0.73417 0.65466
 H2645 H 0.38660 0.74212 0.65321
 H2646 H 0.35859 0.73961 0.66808
 H2647 H 0.37709 0.77450 0.70827
 H2648 H 0.40539 0.77604 0.69408
 H2649 H 0.35895 0.75585 0.72444
 H2650 H 0.33080 0.75536 0.73903
 H2651 H 0.30477 0.75446 0.68901
 H2652 H 0.33301 0.75563 0.67434
 C2653 C 0.41668 0.24340 0.83744
 C2654 C 0.42466 0.22692 0.83684
 C2655 C 0.44037 0.22388 0.84552
 C2656 C 0.44845 0.23716 0.85524
 C2657 C 0.44057 0.25370 0.85579
 C2658 C 0.42487 0.25679 0.84697
 C2659 C 0.39983 0.24643 0.82825
 C2660 C 0.38679 0.25689 0.83570
 C2661 C 0.37071 0.25908 0.82732
 C2662 C 0.36726 0.25079 0.81132
 C2663 C 0.38039 0.24049 0.80382
 C2664 C 0.39648 0.23843 0.81210
 C2665 C 0.34998 0.25253 0.80259
 C2666 C 0.34883 0.25309 0.78427
 C2667 C 0.33262 0.25355 0.77597
 C2668 C 0.31712 0.25371 0.78575
 C2669 C 0.31822 0.25371 0.80406
 C2670 C 0.33446 0.25303 0.81239
 H2671 H 0.41864 0.21622 0.82985
 H2672 H 0.44623 0.21108 0.84454
 H2673 H 0.44641 0.26418 0.86326
 H2674 H 0.41920 0.26970 0.84754
 H2675 H 0.38885 0.26310 0.84820
 H2676 H 0.36099 0.26729 0.83337
 H2677 H 0.37815 0.23369 0.79166
 H2678 H 0.40630 0.23052 0.80583
 H2679 H 0.36048 0.25315 0.77630
 H2680 H 0.33223 0.25377 0.76184
 H2681 H 0.30650 0.25374 0.81196
 H2682 H 0.33483 0.25238 0.82650
 C2683 C 0.91571 0.74176 0.33798
 C2684 C 0.92356 0.75568 0.34701
 C2685 C 0.93956 0.75341 0.35555
 C2686 C 0.94804 0.73717 0.35522
 C2687 C 0.94027 0.72335 0.34600
 C2688 C 0.92428 0.72558 0.33760
 C2689 C 0.89864 0.74394 0.32899
 C2690 C 0.89544 0.73556 0.31301
 C2691 C 0.87924 0.73694 0.30483
 C2692 C 0.86584 0.74694 0.31225
 C2693 C 0.86907 0.75552 0.32814
 C2694 C 0.88528 0.75401 0.33642
 C2695 C 0.84860 0.74827 0.30340
 C2696 C 0.83298 0.74841 0.31305
 C2697 C 0.81681 0.74896 0.30454
 C2698 C 0.81594 0.74918 0.28621
 C2699 C 0.83155 0.74930 0.27662
 C2700 C 0.84765 0.74896 0.28509
 H2701 H 0.91741 0.76838 0.34738
 H2702 H 0.94514 0.76428 0.36264
 H2703 H 0.94657 0.71075 0.34523
 H2704 H 0.91853 0.71450 0.33099
 H2705 H 0.90549 0.72791 0.30677
 H2706 H 0.87717 0.72994 0.29275
 H2707 H 0.85911 0.76348 0.33412
 H2708 H 0.88724 0.76049 0.34881
 H2709 H 0.83322 0.74769 0.32716
 H2710 H 0.80500 0.74881 0.31229
 H2711 H 0.83136 0.74974 0.26248
 H2712 H 0.85939 0.74930 0.27725
 C2713 C 0.08521 0.75889 0.33640
 C2714 C 0.07684 0.77519 0.33582
 C2715 C 0.06102 0.77773 0.34441
 C2716 C 0.05320 0.76411 0.35400
 C2717 C 0.06148 0.74777 0.35452
 C2718 C 0.07730 0.74518 0.34580
 C2719 C 0.10216 0.75638 0.32731
 C2720 C 0.11541 0.74614 0.33481
 C2721 C 0.13154 0.74433 0.32648
 C2722 C 0.13483 0.75280 0.31048
 C2723 C 0.12151 0.76293 0.30295
 C2724 C 0.10538 0.76460 0.31119
 C2725 C 0.15209 0.75134 0.30172
 C2726 C 0.15317 0.75075 0.28342
 C2727 C 0.16934 0.75036 0.27508
 C2728 C 0.18487 0.75032 0.28483
 C2729 C 0.18386 0.75044 0.30314
 C2730 C 0.16765 0.75103 0.31150
 H2731 H 0.08265 0.78612 0.32893
 H2732 H 0.05487 0.79040 0.34348
 H2733 H 0.05589 0.73705 0.36191
 H2734 H 0.08328 0.73241 0.34634
 H2735 H 0.11345 0.73977 0.34730
 H2736 H 0.14141 0.73626 0.33255
 H2737 H 0.12363 0.76985 0.29078
 H2738 H 0.09540 0.77237 0.30488
 H2739 H 0.14148 0.75055 0.27547
 H2740 H 0.16966 0.75005 0.26095
 H2741 H 0.19561 0.75051 0.31101
 H2742 H 0.16733 0.75172 0.32560
 C2743 C 0.58820 0.25448 0.84198
 C2744 C 0.57286 0.24740 0.83475
 C2745 C 0.55670 0.24992 0.84284
 C2746 C 0.55554 0.25950 0.85840
 C2747 C 0.57096 0.26602 0.86594
 C2748 C 0.58705 0.26363 0.85779
 C2749 C 0.60524 0.25299 0.83278
 C2750 C 0.62087 0.25110 0.84222
 C2751 C 0.63695 0.25081 0.83363
 C2752 C 0.63781 0.25222 0.81534
 C2753 C 0.62215 0.25370 0.80587
 C2754 C 0.60609 0.25416 0.81448
 C2755 C 0.65494 0.25231 0.80618
 C2756 C 0.65758 0.26287 0.79134
 C2757 C 0.67352 0.26270 0.78249
 C2758 C 0.68727 0.25212 0.78838
 C2759 C 0.68478 0.24182 0.80341
 C2760 C 0.66878 0.24185 0.81214
 H2761 H 0.57329 0.24002 0.82274
 H2762 H 0.54508 0.24480 0.83663
 H2763 H 0.57058 0.27319 0.87808
 H2764 H 0.59852 0.26944 0.86367
 H2765 H 0.62071 0.24990 0.85630
 H2766 H 0.64872 0.24982 0.84137
 H2767 H 0.62227 0.25450 0.79176
 H2768 H 0.59436 0.25584 0.80677
 H2769 H 0.64738 0.27139 0.78659
 H2770 H 0.67507 0.27092 0.77105
 H2771 H 0.69508 0.23343 0.80820
 H2772 H 0.66715 0.23337 0.82337
 C2773 C 0.58413 0.73921 0.66042
 C2774 C 0.57528 0.72312 0.66087
 C2775 C 0.55928 0.72107 0.65244
 C2776 C 0.55177 0.73497 0.64308
 C2777 C 0.56061 0.75109 0.64256
 C2778 C 0.57660 0.75319 0.65116
 C2779 C 0.60112 0.74124 0.66960
 C2780 C 0.61468 0.75128 0.66230
 C2781 C 0.63082 0.75262 0.67074
 C2782 C 0.63381 0.74386 0.68663
 C2783 C 0.62019 0.73394 0.69397
 C2784 C 0.60404 0.73275 0.68564
 C2785 C 0.65107 0.74486 0.69551
 C2786 C 0.65209 0.74520 0.71383
 C2787 C 0.66825 0.74541 0.72225
 C2788 C 0.68380 0.74554 0.71256
 C2789 C 0.68284 0.74554 0.69425
 C2790 C 0.66665 0.74510 0.68581
 H2791 H 0.58078 0.71198 0.66762
 H2792 H 0.55272 0.70857 0.65339
 H2793 H 0.55526 0.76202 0.63536
 H2794 H 0.58298 0.76582 0.65070
 H2795 H 0.61295 0.75786 0.64988
 H2796 H 0.64094 0.76057 0.66483
 H2797 H 0.62205 0.72682 0.70606
 H2798 H 0.59382 0.72515 0.69181
 H2799 H 0.64039 0.74542 0.72173
 H2800 H 0.66854 0.74565 0.73638
 H2801 H 0.69460 0.74554 0.68643
 H2802 H 0.66637 0.74458 0.67170
 C2803 C 0.08181 0.24438 0.16242
 C2804 C 0.07307 0.22821 0.16280
 C2805 C 0.05745 0.22588 0.15376
 C2806 C 0.05023 0.23956 0.14387
 C2807 C 0.05880 0.25581 0.14362
 C2808 C 0.07442 0.25820 0.15281
 C2809 C 0.09869 0.24656 0.17177
 C2810 C 0.11231 0.25650 0.16444
 C2811 C 0.12847 0.25775 0.17286
 C2812 C 0.13143 0.24900 0.18876
 C2813 C 0.11771 0.23926 0.19619
 C2814 C 0.10154 0.23815 0.18787
 C2815 C 0.14879 0.24969 0.19746
 C2816 C 0.15005 0.24993 0.21577
 C2817 C 0.16631 0.24979 0.22399
 C2818 C 0.18174 0.24965 0.21411
 C2819 C 0.18055 0.24976 0.19581
 C2820 C 0.16426 0.24968 0.18758
 H2821 H 0.07847 0.21720 0.16984
 H2822 H 0.05102 0.21329 0.15451
 H2823 H 0.05361 0.26658 0.13606
 H2824 H 0.08068 0.27088 0.15242
 H2825 H 0.11064 0.26301 0.15198
 H2826 H 0.13864 0.26558 0.16689
 H2827 H 0.11955 0.23216 0.20829
 H2828 H 0.09127 0.23062 0.19405
 H2829 H 0.13845 0.25033 0.22380
 H2830 H 0.16679 0.24994 0.23812
 H2831 H 0.19222 0.24955 0.18784
 H2832 H 0.16381 0.24920 0.17346
 C2833 C -0.09284 1.00595 0.83871
 C2834 C -0.09443 1.02290 0.83191
 C2835 C -0.10195 1.02574 0.81556
 C2836 C -0.10814 1.01168 0.80536
 C2837 C -0.10650 0.99465 0.81237
 C2838 C -0.09897 0.99187 0.82878
 C2839 C -0.08458 1.00308 0.85602
 C2840 C -0.07294 0.98918 0.85870
 C2841 C -0.06453 0.98704 0.87477
 C2842 C -0.06761 0.99874 0.88850
 C2843 C -0.07949 1.01244 0.88590
 C2844 C -0.08789 1.01457 0.86986
 C2845 C -0.05808 0.99710 0.90532
 C2846 C -0.06658 1.00047 0.92119
 C2847 C -0.05734 1.00020 0.93690
 C2848 C -0.03938 0.99650 0.93714
 C2849 C -0.03100 0.99259 0.92132
 C2850 C -0.04024 0.99291 0.90558
 H2851 H -0.08943 1.03401 0.83907
 H2852 H -0.10205 1.03902 0.81072
 H2853 H -0.11158 0.98336 0.80562
 H2854 H -0.09822 0.97866 0.83383
 H2855 H -0.07001 0.98019 0.84824
 H2856 H -0.05558 0.97625 0.87643
 H2857 H -0.08201 1.02180 0.89614
 H2858 H -0.09695 1.02527 0.86828
 H2859 H -0.08038 1.00342 0.92145
 H2860 H -0.06427 1.00309 0.94885
 H2861 H -0.01719 0.98969 0.92101
 H2862 H -0.03328 0.99044 0.89356
 C2863 C 0.41004 0.50821 0.33612
 C2864 C 0.39613 0.52011 0.33498
 C2865 C 0.38736 0.52282 0.31922
 C2866 C 0.39251 0.51405 0.30398
 C2867 C 0.40644 0.50218 0.30510
 C2868 C 0.41491 0.49913 0.32097
 C2869 C 0.41955 0.50549 0.35293
 C2870 C 0.43743 0.50137 0.35307
 C2871 C 0.44639 0.49907 0.36880
 C2872 C 0.43787 0.50128 0.38490
 C2873 C 0.41999 0.50541 0.38475
 C2874 C 0.41093 0.50726 0.36903
 C2875 C 0.44760 0.49963 0.40171
 C2876 C 0.43914 0.49379 0.41699
 C2877 C 0.44801 0.49316 0.43291
 C2878 C 0.46569 0.49785 0.43385
 C2879 C 0.47437 0.50314 0.41862
 C2880 C 0.46539 0.50426 0.40278
 H2881 H 0.39211 0.52762 0.34620
 H2882 H 0.37650 0.53180 0.31904
 H2883 H 0.41105 0.49536 0.29367
 H2884 H 0.42529 0.48960 0.32129
 H2885 H 0.44468 0.50017 0.34103
 H2886 H 0.46003 0.49555 0.36826
 H2887 H 0.41295 0.50754 0.39678
 H2888 H 0.39712 0.51006 0.36958
 H2889 H 0.42563 0.48964 0.41671
 H2890 H 0.44110 0.48884 0.44449
 H2891 H 0.48798 0.50699 0.41909
 H2892 H 0.47234 0.50918 0.39149
 C2893 C 0.59294 -0.00756 0.33548
 C2894 C 0.59465 -0.02449 0.32884
 C2895 C 0.60309 -0.02737 0.31298
 C2896 C 0.60996 -0.01332 0.30308
 C2897 C 0.60841 0.00366 0.31007
 C2898 C 0.60012 0.00646 0.32607
 C2899 C 0.58332 -0.00458 0.35197
 C2900 C 0.59008 0.00654 0.36488
 C2901 C 0.58109 0.00896 0.38057
 C2902 C 0.56506 0.00048 0.38353
 C2903 C 0.55821 -0.01043 0.37051
 C2904 C 0.56727 -0.01299 0.35493
 C2905 C 0.55565 0.00257 0.40029
 C2906 C 0.53748 0.00494 0.40048
 C2907 C 0.52842 0.00572 0.41627
 C2908 C 0.53731 0.00397 0.43225
 C2909 C 0.55556 0.00204 0.43205
 C2910 C 0.56463 0.00142 0.41624
 H2911 H 0.58932 -0.03557 0.33590
 H2912 H 0.60330 -0.04062 0.30818
 H2913 H 0.61398 0.01490 0.30352
 H2914 H 0.59903 0.01966 0.33094
 H2915 H 0.60247 0.01311 0.36295
 H2916 H 0.58661 0.01751 0.39036
 H2917 H 0.54597 -0.01726 0.37251
 H2918 H 0.56168 -0.02149 0.34513
 H2919 H 0.53027 0.00607 0.38837
 H2920 H 0.51439 0.00725 0.41594
 H2921 H 0.56283 0.00073 0.44411
 H2922 H 0.57862 -0.00053 0.41647
 C2923 C 0.09040 0.49386 0.83605
 C2924 C 0.08260 0.49963 0.82045
 C2925 C 0.09070 0.49672 0.80439
 C2926 C 0.10674 0.48794 0.80356
 C2927 C 0.11462 0.48231 0.81915
 C2928 C 0.10655 0.48526 0.83521
 C2929 C 0.08156 0.49648 0.85309
 C2930 C 0.08184 0.48329 0.86588
 C2931 C 0.07338 0.48560 0.88183
 C2932 C 0.06440 0.50115 0.88537
 C2933 C 0.06410 0.51436 0.87260
 C2934 C 0.07262 0.51207 0.85664
 C2935 C 0.05523 0.50339 0.90226
 C2936 C 0.03849 0.51078 0.90286
 C2937 C 0.02951 0.51201 0.91870
 C2938 C 0.03711 0.50591 0.93428
 C2939 C 0.05405 0.49892 0.93369
 C2940 C 0.06298 0.49766 0.91788
 H2941 H 0.07004 0.50605 0.82062
 H2942 H 0.08421 0.50101 0.79257
 H2943 H 0.12711 0.47577 0.81893
 H2944 H 0.11305 0.48093 0.84701
 H2945 H 0.08832 0.47100 0.86344
 H2946 H 0.07358 0.47505 0.89129
 H2947 H 0.05746 0.52656 0.87505
 H2948 H 0.07237 0.52258 0.84715
 H2949 H 0.03213 0.51518 0.89102
 H2950 H 0.01650 0.51747 0.91866
 H2951 H 0.06036 0.49417 0.94543
 H2952 H 0.07597 0.49216 0.91786
 C2953 C 0.09461 0.50848 0.66338
 C2954 C 0.08617 0.50297 0.67873
 C2955 C 0.09391 0.50564 0.69502
 C2956 C 0.11025 0.51390 0.69634
 C2957 C 0.11880 0.51925 0.68100
 C2958 C 0.11107 0.51655 0.66469
 C2959 C 0.08603 0.50624 0.64613
 C2960 C 0.08697 0.51952 0.63346
 C2961 C 0.07843 0.51769 0.61745
 C2962 C 0.06873 0.50255 0.61375
 C2963 C 0.06790 0.48920 0.62635
 C2964 C 0.07647 0.49101 0.64236
 C2965 C 0.05933 0.50086 0.59689
 C2966 C 0.04230 0.49400 0.59633
 C2967 C 0.03321 0.49307 0.58053
 C2968 C 0.04096 0.49894 0.56493
 C2969 C 0.05811 0.50552 0.56549
 C2970 C 0.06717 0.50648 0.58128
 H2971 H 0.07336 0.49699 0.67820
 H2972 H 0.08689 0.50163 0.70663
 H2973 H 0.13151 0.52542 0.68161
 H2974 H 0.11802 0.52069 0.65309
 H2975 H 0.09396 0.53154 0.63607
 H2976 H 0.07909 0.52833 0.60811
 H2977 H 0.06073 0.47727 0.62377
 H2978 H 0.07572 0.48042 0.65174
 H2979 H 0.03586 0.48973 0.60818
 H2980 H 0.02003 0.48793 0.58059
 H2981 H 0.06454 0.51009 0.55374
 H2982 H 0.08036 0.51160 0.58127
 C2983 C 0.59009 1.00702 0.16374
 C2984 C 0.58211 1.00135 0.17929
 C2985 C 0.59019 1.00418 0.19541
 C2986 C 0.60639 1.01278 0.19633
 C2987 C 0.61449 1.01820 0.18077
 C2988 C 0.60645 1.01532 0.16467
 C2989 C 0.58126 1.00466 0.14663
 C2990 C 0.58196 1.01792 0.13392
 C2991 C 0.57363 1.01584 0.11785
 C2992 C 0.56434 1.00046 0.11411
 C2993 C 0.56356 0.98719 0.12682
 C2994 C 0.57196 0.98926 0.14290
 C2995 C 0.55537 0.99844 0.09705
 C2996 C 0.53849 0.99129 0.09614
 C2997 C 0.52975 0.99020 0.08014
 C2998 C 0.53774 0.99619 0.06470
 C2999 C 0.55479 1.00297 0.06561
 C3000 C 0.56348 1.00410 0.08159
 H3001 H 0.56942 0.99512 0.17904
 H3002 H 0.58356 1.00003 0.20721
 H3003 H 0.62711 1.02458 0.18106
 H3004 H 0.61310 1.01954 0.15291
 H3005 H 0.58871 1.03008 0.13651
 H3006 H 0.57418 1.02643 0.10846
 H3007 H 0.55666 0.97512 0.12422
 H3008 H 0.57136 0.97871 0.15233
 H3009 H 0.53185 0.98696 0.10786
 H3010 H 0.51664 0.98490 0.07994
 H3011 H 0.56139 1.00764 0.05399
 H3012 H 0.57659 1.00942 0.08185
 C3013 C 0.40640 0.49127 0.16553
 C3014 C 0.41422 0.49755 0.18088
 C3015 C 0.40592 0.49548 0.19700
 C3016 C 0.38965 0.48704 0.19811
 C3017 C 0.38167 0.48106 0.18273
 C3018 C 0.38994 0.48317 0.16662
 C3019 C 0.41558 0.49269 0.14851
 C3020 C 0.41504 0.47879 0.13661
 C3021 C 0.42385 0.47994 0.12070
 C3022 C 0.43343 0.49500 0.11633
 C3023 C 0.43400 0.50891 0.12822
 C3024 C 0.42515 0.50778 0.14414
 C3025 C 0.44284 0.49609 0.09944
 C3026 C 0.45979 0.50309 0.09856
 C3027 C 0.46880 0.50359 0.08270
 C3028 C 0.46103 0.49716 0.06737
 C3029 C 0.44397 0.49038 0.06826
 C3030 C 0.43501 0.48983 0.08410
 H3031 H 0.42699 0.50363 0.18051
 H3032 H 0.41247 0.50002 0.20866
 H3033 H 0.36901 0.47476 0.18317
 H3034 H 0.38343 0.47849 0.15499
 H3035 H 0.40808 0.46686 0.13973
 H3036 H 0.42342 0.46889 0.11194
 H3037 H 0.44110 0.52076 0.12510
 H3038 H 0.42562 0.51879 0.15293
 H3039 H 0.46621 0.50785 0.11020
 H3040 H 0.48191 0.50892 0.08250
 H3041 H 0.43754 0.48537 0.05672
 H3042 H 0.42187 0.48459 0.08434
 C3043 C -0.09218 -0.01011 0.66552
 C3044 C -0.09839 0.00398 0.67533
 C3045 C -0.10595 0.00123 0.69172
 C3046 C -0.10757 -0.01577 0.69882
 C3047 C -0.10124 -0.02983 0.68877
 C3048 C -0.09368 -0.02702 0.67245
 C3049 C -0.08396 -0.00729 0.64819
 C3050 C -0.08721 -0.01896 0.63445
 C3051 C -0.07890 -0.01684 0.61838
 C3052 C -0.06717 -0.00297 0.61563
 C3053 C -0.06413 0.00890 0.62926
 C3054 C -0.07245 0.00676 0.64536
 C3055 C -0.05782 -0.00122 0.59874
 C3056 C -0.04007 0.00342 0.59832
 C3057 C -0.03105 0.00420 0.58249
 C3058 C -0.03958 0.00031 0.56671
 C3059 C -0.05742 -0.00402 0.56711
 C3060 C -0.06643 -0.00475 0.58293
 H3061 H -0.09769 0.01715 0.67018
 H3062 H -0.11110 0.01251 0.69838
 H3063 H -0.10128 -0.04307 0.69372
 H3064 H -0.08859 -0.03812 0.66541
 H3065 H -0.09618 -0.02979 0.63614
 H3066 H -0.08138 -0.02632 0.60822
 H3067 H -0.05531 0.01983 0.62747
 H3068 H -0.06957 0.01589 0.65574
 H3069 H -0.03301 0.00601 0.61029
 H3070 H -0.01732 0.00757 0.58267
 H3071 H -0.06445 -0.00695 0.55521
 H3072 H -0.08017 -0.00808 0.58279
 C3073 C -0.16354 0.90763 1.00584
 C3074 C -0.16611 0.89589 1.01972
 C3075 C -0.18227 0.88783 1.02237
 C3076 C -0.19673 0.89149 1.01146
 C3077 C -0.19390 0.90320 0.99739
 C3078 C -0.17761 0.91096 0.99457
 C3079 C -0.14643 0.91669 1.00343
 C3080 C -0.14571 0.93389 0.99696
 C3081 C -0.12977 0.94263 0.99529
 C3082 C -0.11409 0.93459 1.00040
 C3083 C -0.11478 0.91732 1.00669
 C3084 C -0.13070 0.90844 1.00802
 C3085 C -0.09721 0.94434 0.99966
 C3086 C -0.08141 0.93565 0.99631
 C3087 C -0.06556 0.94476 0.99632
 C3088 C -0.06519 0.96283 0.99930
 C3089 C -0.08093 0.97160 1.00230
 C3090 C -0.09672 0.96246 1.00267
 H3091 H -0.15568 0.89304 1.02882
 H3092 H -0.18299 0.87839 1.03286
 H3093 H -0.20430 0.90720 0.98877
 H3094 H -0.17613 0.91970 0.98353
 H3095 H -0.15749 0.94084 0.99350
 H3096 H -0.12980 0.95577 0.99003
 H3097 H -0.10308 0.91070 1.01098
 H3098 H -0.13061 0.89510 1.01272
 H3099 H -0.08124 0.92181 0.99356
 H3100 H -0.05360 0.93771 0.99381
 H3101 H -0.08100 0.98551 1.00483
 H3102 H -0.10848 0.96959 1.00572
 C3103 C 0.33796 0.40782 0.50910
 C3104 C 0.32885 0.41001 0.52484
 C3105 C 0.31266 0.40200 0.52739
 C3106 C 0.30520 0.39164 0.51424
 C3107 C 0.31439 0.38926 0.49857
 C3108 C 0.33065 0.39723 0.49605
 C3109 C 0.35488 0.41685 0.50627
 C3110 C 0.36896 0.40815 0.49848
 C3111 C 0.38498 0.41665 0.49618
 C3112 C 0.38719 0.43406 0.50151
 C3113 C 0.37304 0.44279 0.50913
 C3114 C 0.35708 0.43428 0.51150
 C3115 C 0.40425 0.44305 0.49952
 C3116 C 0.40500 0.46056 0.49406
 C3117 C 0.42096 0.46936 0.49312
 C3118 C 0.43656 0.46086 0.49769
 C3119 C 0.43583 0.44321 0.50278
 C3120 C 0.41985 0.43440 0.50366
 H3121 H 0.33426 0.41793 0.53521
 H3122 H 0.30581 0.40421 0.53952
 H3123 H 0.30902 0.38123 0.48827
 H3124 H 0.33734 0.39540 0.48375
 H3125 H 0.36767 0.39468 0.49442
 H3126 H 0.39563 0.40965 0.49015
 H3127 H 0.37439 0.45613 0.51355
 H3128 H 0.34640 0.44138 0.51735
 H3129 H 0.39321 0.46749 0.49054
 H3130 H 0.42102 0.48292 0.48905
 H3131 H 0.44758 0.43624 0.50636
 H3132 H 0.41966 0.42095 0.50806
 C3133 C 0.33415 0.58677 -0.00832
 C3134 C 0.31896 0.58161 0.00065
 C3135 C 0.30303 0.58985 -0.00255
 C3136 C 0.30188 0.60381 -0.01449
 C3137 C 0.31715 0.60921 -0.02318
 C3138 C 0.33297 0.60067 -0.02032
 C3139 C 0.35106 0.57757 -0.00537
 C3140 C 0.36705 0.58648 -0.00709
 C3141 C 0.38288 0.57771 -0.00507
 C3142 C 0.38323 0.55982 -0.00080
 C3143 C 0.36723 0.55102 0.00140
 C3144 C 0.35141 0.55969 -0.00108
 C3145 C 0.40015 0.55035 0.00095
 C3146 C 0.40141 0.53258 -0.00352
 C3147 C 0.41730 0.52379 -0.00225
 C3148 C 0.43241 0.53267 0.00306
 C3149 C 0.43130 0.55036 0.00754
 C3150 C 0.41531 0.55904 0.00675
 H3151 H 0.31929 0.57122 0.01025
 H3152 H 0.29158 0.58506 0.00422
 H3153 H 0.31697 0.62012 -0.03220
 H3154 H 0.34422 0.60490 -0.02776
 H3155 H 0.36744 0.60031 -0.01001
 H3156 H 0.39483 0.58497 -0.00718
 H3157 H 0.36684 0.53736 0.00505
 H3158 H 0.33947 0.55221 0.00011
 H3159 H 0.39023 0.52546 -0.00844
 H3160 H 0.41790 0.51018 -0.00596
 H3161 H 0.44278 0.55742 0.01185
 H3162 H 0.41488 0.57255 0.01076
 C3163 C -0.16549 0.09075 0.49283
 C3164 C -0.17999 0.08707 0.50343
 C3165 C -0.19606 0.09509 0.50037
 C3166 C -0.19822 0.10743 0.48673
 C3167 C -0.18336 0.11137 0.47646
 C3168 C -0.16743 0.10304 0.47933
 C3169 C -0.14854 0.08162 0.49559
 C3170 C -0.13262 0.09007 0.49194
 C3171 C -0.11679 0.08124 0.49370
 C3172 C -0.11636 0.06381 0.49954
 C3173 C -0.13225 0.05551 0.50365
 C3174 C -0.14811 0.06422 0.50152
 C3175 C -0.09949 0.05423 0.50094
 C3176 C -0.09870 0.03617 0.49764
 C3177 C -0.08285 0.02726 0.49859
 C3178 C -0.06735 0.03625 0.50245
 C3179 C -0.06803 0.05423 0.50576
 C3180 C -0.08394 0.06309 0.50523
 H3181 H -0.17900 0.07788 0.51415
 H3182 H -0.20681 0.09086 0.50846
 H3183 H -0.18359 0.12123 0.46636
 H3184 H -0.15667 0.10617 0.47072
 H3185 H -0.13231 0.10355 0.48768
 H3186 H -0.10492 0.08806 0.49013
 H3187 H -0.13251 0.04223 0.50852
 H3188 H -0.16004 0.05713 0.50425
 H3189 H -0.11024 0.02892 0.49392
 H3190 H -0.08264 0.01341 0.49582
 H3191 H -0.05627 0.06142 0.50896
 H3192 H -0.08400 0.07687 0.50827
 C3193 C 0.66269 0.09084 0.50604
 C3194 C 0.66362 0.10717 0.51431
 C3195 C 0.67973 0.11526 0.51721
 C3196 C 0.69527 0.10724 0.51185
 C3197 C 0.69434 0.09106 0.50332
 C3198 C 0.67823 0.08293 0.50047
 C3199 C 0.64560 0.08192 0.50361
 C3200 C 0.64195 0.07258 0.48826
 C3201 C 0.62594 0.06400 0.48617
 C3202 C 0.61322 0.06464 0.49935
 C3203 C 0.61687 0.07400 0.51467
 C3204 C 0.63287 0.08252 0.51678
 C3205 C 0.59626 0.05545 0.49732
 C3206 C 0.58073 0.06338 0.50284
 C3207 C 0.56485 0.05446 0.50179
 C3208 C 0.56410 0.03735 0.49522
 C3209 C 0.57959 0.02956 0.48932
 C3210 C 0.59549 0.03852 0.49034
 H3211 H 0.65188 0.11376 0.51847
 H3212 H 0.68002 0.12787 0.52355
 H3213 H 0.70612 0.08447 0.49924
 H3214 H 0.67799 0.07025 0.49430
 H3215 H 0.65138 0.07206 0.47777
 H3216 H 0.62341 0.05706 0.47414
 H3217 H 0.60747 0.07446 0.52519
 H3218 H 0.63539 0.08930 0.52890
 H3219 H 0.58087 0.07651 0.50802
 H3220 H 0.55319 0.06094 0.50637
 H3221 H 0.57950 0.01642 0.48416
 H3222 H 0.60727 0.03203 0.48610
 C3223 C 0.16285 0.59469 1.00920
 C3224 C 0.16990 0.59679 1.02596
 C3225 C 0.18620 0.60462 1.02828
 C3226 C 0.19612 0.61058 1.01387
 C3227 C 0.18881 0.60850 0.99705
 C3228 C 0.17245 0.60070 0.99478
 C3229 C 0.14564 0.58601 1.00685
 C3230 C 0.14289 0.57417 0.99314
 C3231 C 0.12688 0.56555 0.99134
 C3232 C 0.11325 0.56858 1.00321
 C3233 C 0.11596 0.58057 1.01680
 C3234 C 0.13194 0.58919 1.01858
 C3235 C 0.09635 0.55916 1.00163
 C3236 C 0.08056 0.56779 1.00496
 C3237 C 0.06470 0.55882 1.00410
 C3238 C 0.06420 0.54098 0.99983
 C3239 C 0.07998 0.53240 0.99623
 C3240 C 0.09587 0.54138 0.99714
 H3241 H 0.16302 0.59193 1.03732
 H3242 H 0.19127 0.60506 1.04145
 H3243 H 0.19533 0.61341 0.98551
 H3244 H 0.16719 0.59959 0.98171
 H3245 H 0.15323 0.57131 0.98398
 H3246 H 0.12514 0.55654 0.98062
 H3247 H 0.10581 0.58306 1.02628
 H3248 H 0.13357 0.59838 1.02916
 H3249 H 0.08046 0.58154 1.00816
 H3250 H 0.05281 0.56590 1.00681
 H3251 H 0.08009 0.51867 0.99293
 H3252 H 0.10782 0.53430 0.99471
 C3253 C 0.16662 0.41038 0.48870
 C3254 C 0.17376 0.39973 0.50185
 C3255 C 0.18979 0.39145 0.49933
 C3256 C 0.19895 0.39359 0.48357
 C3257 C 0.19170 0.40408 0.47037
 C3258 C 0.17573 0.41239 0.47291
 C3259 C 0.14980 0.41949 0.49142
 C3260 C 0.14770 0.43685 0.48581
 C3261 C 0.13179 0.44537 0.48802
 C3262 C 0.11760 0.43673 0.49585
 C3263 C 0.11974 0.41942 0.50160
 C3264 C 0.13569 0.41090 0.49945
 C3265 C 0.10055 0.44566 0.49764
 C3266 C 0.08494 0.43676 0.49393
 C3267 C 0.06893 0.44535 0.49490
 C3268 C 0.06816 0.46305 0.49966
 C3269 C 0.08378 0.47186 0.50365
 C3270 C 0.09979 0.46327 0.50262
 H3271 H 0.16709 0.39803 0.51420
 H3272 H 0.19499 0.38332 0.50968
 H3273 H 0.19854 0.40612 0.45816
 H3274 H 0.17045 0.42034 0.46245
 H3275 H 0.15840 0.44388 0.47977
 H3276 H 0.13049 0.45865 0.48329
 H3277 H 0.10908 0.41248 0.50783
 H3278 H 0.13689 0.39749 0.50379
 H3279 H 0.08513 0.42324 0.48986
 H3280 H 0.05717 0.43814 0.49175
 H3281 H 0.08368 0.48547 0.50743
 H3282 H 0.11159 0.47040 0.50579
 C3283 C 0.66487 0.90885 -0.01172
 C3284 C 0.68039 0.91676 -0.00592
 C3285 C 0.69646 0.90853 -0.00829
 C3286 C 0.69739 0.89223 -0.01657
 C3287 C 0.68188 0.88423 -0.02223
 C3288 C 0.66581 0.89242 -0.01981
 C3289 C 0.64781 0.91778 -0.00961
 C3290 C 0.63520 0.91703 -0.02293
 C3291 C 0.61918 0.92544 -0.02103
 C3292 C 0.61539 0.93485 -0.00580
 C3293 C 0.62800 0.93568 0.00749
 C3294 C 0.64403 0.92721 0.00562
 C3295 C 0.59834 0.94378 -0.00389
 C3296 C 0.59739 0.96068 0.00312
 C3297 C 0.58136 0.96926 0.00435
 C3298 C 0.56591 0.96110 -0.00134
 C3299 C 0.56687 0.94407 -0.00808
 C3300 C 0.58288 0.93554 -0.00936
 H3301 H 0.68017 0.92952 0.00012
 H3302 H 0.70823 0.91512 -0.00400
 H3303 H 0.68216 0.87154 -0.02840
 H3304 H 0.65407 0.88582 -0.02414
 H3305 H 0.63782 0.91017 -0.03497
 H3306 H 0.60985 0.92482 -0.03163
 H3307 H 0.62537 0.94266 0.01946
 H3308 H 0.65336 0.92784 0.01622
 H3309 H 0.60910 0.96741 0.00730
 H3310 H 0.58111 0.98236 0.00961
 H3311 H 0.55526 0.93734 -0.01253
 H3312 H 0.58317 0.92243 -0.01457
 C3313 C 0.00672 0.83803 0.90960
 C3314 C -0.00409 0.82351 0.91265
 C3315 C -0.00103 0.80763 0.90431
 C3316 C 0.01281 0.80569 0.89225
 C3317 C 0.02337 0.82055 0.88901
 C3318 C 0.02048 0.83631 0.89765
 C3319 C 0.00384 0.85478 0.91901
 C3320 C 0.00765 0.87089 0.91097
 C3321 C 0.00561 0.88654 0.92003
 C3322 C -0.00064 0.88659 0.93730
 C3323 C -0.00485 0.87051 0.94520
 C3324 C -0.00247 0.85483 0.93626
 C3325 C -0.00232 0.90327 0.94712
 C3326 C 0.00076 0.90381 0.96524
 C3327 C -0.00012 0.91956 0.97433
 C3328 C -0.00370 0.93520 0.96546
 C3329 C -0.00698 0.93474 0.94744
 C3330 C -0.00650 0.91894 0.93841
 H3331 H -0.01499 0.82433 0.92157
 H3332 H -0.00931 0.79683 0.90808
 H3333 H 0.03370 0.82047 0.87944
 H3334 H 0.02925 0.84710 0.89502
 H3335 H 0.01221 0.87148 0.89762
 H3336 H 0.00927 0.89857 0.91354
 H3337 H -0.00999 0.86996 0.95834
 H3338 H -0.00531 0.84273 0.94304
 H3339 H 0.00435 0.89215 0.97239
 H3340 H 0.00262 0.91960 0.98820
 H3341 H -0.00998 0.94661 0.94033
 H3342 H -0.00940 0.91905 0.92459
 C3343 C 0.50863 0.33601 0.40804
 C3344 C 0.50262 0.32065 0.41618
 C3345 C 0.50474 0.30446 0.40813
 C3346 C 0.51297 0.30329 0.39180
 C3347 C 0.51870 0.31866 0.38353
 C3348 C 0.51653 0.33485 0.39154
 C3349 C 0.50706 0.35314 0.41690
 C3350 C 0.52077 0.36535 0.41606
 C3351 C 0.51949 0.38135 0.42462
 C3352 C 0.50450 0.38550 0.43427
 C3353 C 0.49076 0.37333 0.43508
 C3354 C 0.49201 0.35733 0.42647
 C3355 C 0.50336 0.40237 0.44362
 C3356 C 0.49657 0.40307 0.46063
 C3357 C 0.49596 0.41888 0.46963
 C3358 C 0.50207 0.43437 0.46179
 C3359 C 0.50867 0.43368 0.44468
 C3360 C 0.50933 0.41785 0.43572
 H3361 H 0.49668 0.32108 0.42899
 H3362 H 0.50038 0.29279 0.41490
 H3363 H 0.52482 0.31818 0.37080
 H3364 H 0.52100 0.34647 0.38479
 H3365 H 0.53266 0.36240 0.40907
 H3366 H 0.53041 0.39034 0.42400
 H3367 H 0.47895 0.37627 0.44222
 H3368 H 0.48113 0.34831 0.42716
 H3369 H 0.49205 0.39131 0.46712
 H3370 H 0.49078 0.41892 0.48277
 H3371 H 0.51344 0.44535 0.43821
 H3372 H 0.51442 0.41775 0.42254
 C3373 C -0.00687 0.33517 0.58983
 C3374 C -0.02379 0.32836 0.59152
 C3375 C -0.02663 0.31220 0.59952
 C3376 C -0.01260 0.30221 0.60611
 C3377 C 0.00441 0.30922 0.60431
 C3378 C 0.00720 0.32543 0.59631
 C3379 C -0.00399 0.35237 0.58125
 C3380 C 0.01003 0.35496 0.56970
 C3381 C 0.01235 0.37102 0.56125
 C3382 C 0.00073 0.38485 0.56422
 C3383 C -0.01317 0.38229 0.57591
 C3384 C -0.01549 0.36626 0.58433
 C3385 C 0.00284 0.40182 0.55500
 C3386 C -0.00030 0.41756 0.56378
 C3387 C 0.00064 0.43350 0.55492
 C3388 C 0.00479 0.43411 0.53705
 C3389 C 0.00839 0.41839 0.52836
 C3390 C 0.00741 0.40242 0.53724
 H3391 H -0.03488 0.33537 0.58628
 H3392 H -0.03989 0.30733 0.59970
 H3393 H 0.01568 0.30264 0.60966
 H3394 H 0.02038 0.33050 0.59549
 H3395 H 0.01902 0.34446 0.56694
 H3396 H 0.02328 0.37265 0.55244
 H3397 H -0.02248 0.39260 0.57833
 H3398 H -0.02630 0.36474 0.59332
 H3399 H -0.00353 0.41756 0.57753
 H3400 H -0.00205 0.44534 0.56209
 H3401 H 0.01161 0.41837 0.51460
 H3402 H 0.00973 0.39051 0.53007
 C3403 C 0.49271 0.83217 0.08824
 C3404 C 0.48468 0.83134 0.10472
 C3405 C 0.48216 0.81531 0.11312
 C3406 C 0.48767 0.79974 0.10527
 C3407 C 0.49600 0.80056 0.08895
 C3408 C 0.49847 0.81660 0.08051
 C3409 C 0.49472 0.84917 0.07903
 C3410 C 0.50991 0.85307 0.06947
 C3411 C 0.51169 0.86912 0.06085
 C3412 C 0.49834 0.88161 0.06167
 C3413 C 0.48313 0.87766 0.07113
 C3414 C 0.48133 0.86163 0.07968
 C3415 C 0.50017 0.89876 0.05275
 C3416 C 0.49465 0.91407 0.06107
 C3417 C 0.49562 0.93016 0.05253
 C3418 C 0.50213 0.93136 0.03540
 C3419 C 0.50799 0.91608 0.02717
 C3420 C 0.50705 0.89995 0.03578
 H3421 H 0.48041 0.84311 0.11118
 H3422 H 0.47598 0.81510 0.12582
 H3423 H 0.50020 0.78875 0.08251
 H3424 H 0.50450 0.81676 0.06773
 H3425 H 0.52055 0.84383 0.06888
 H3426 H 0.52363 0.87188 0.05380
 H3427 H 0.47248 0.88689 0.07171
 H3428 H 0.46931 0.85890 0.08661
 H3429 H 0.48956 0.91360 0.07425
 H3430 H 0.49107 0.94164 0.05932
 H3431 H 0.51308 0.91652 0.01400
 H3432 H 0.51130 0.88834 0.02900
 C3433 C 0.50917 0.66055 0.09181
 C3434 C 0.50341 0.67592 0.08356
 C3435 C 0.50610 0.69218 0.09134
 C3436 C 0.51466 0.69345 0.10751
 C3437 C 0.52030 0.67810 0.11583
 C3438 C 0.51757 0.66183 0.10809
 C3439 C 0.50672 0.64330 0.08332
 C3440 C 0.51992 0.63063 0.08413
 C3441 C 0.51779 0.61452 0.07590
 C3442 C 0.50243 0.61071 0.06663
 C3443 C 0.48919 0.62333 0.06585
 C3444 C 0.49130 0.63944 0.07413
 C3445 C 0.50039 0.59371 0.05760
 C3446 C 0.49327 0.59292 0.04072
 C3447 C 0.49205 0.57699 0.03194
 C3448 C 0.49787 0.56148 0.03989
 C3449 C 0.50467 0.56226 0.05694
 C3450 C 0.50594 0.57819 0.06566
 H3451 H 0.49716 0.67542 0.07089
 H3452 H 0.50183 0.70380 0.08450
 H3453 H 0.52670 0.67867 0.12843
 H3454 H 0.52189 0.65023 0.11493
 H3455 H 0.53208 0.63330 0.09082
 H3456 H 0.52834 0.60517 0.07649
 H3457 H 0.47712 0.62068 0.05899
 H3458 H 0.48077 0.64880 0.07349
 H3459 H 0.48903 0.60469 0.03411
 H3460 H 0.48673 0.57688 0.01884
 H3461 H 0.50922 0.55059 0.06351
 H3462 H 0.51125 0.57836 0.07877
 C3463 C 0.00928 0.16275 0.59252
 C3464 C -0.00481 0.17265 0.59859
 C3465 C -0.00205 0.18897 0.60624
 C3466 C 0.01496 0.19594 0.60808
 C3467 C 0.02904 0.18575 0.60202
 C3468 C 0.02622 0.16948 0.59436
 C3469 C 0.00639 0.14556 0.58408
 C3470 C 0.01778 0.13160 0.58738
 C3471 C 0.01548 0.11561 0.57897
 C3472 C 0.00171 0.11319 0.56709
 C3473 C -0.00983 0.12708 0.56395
 C3474 C -0.00752 0.14309 0.57236
 C3475 C -0.00033 0.09634 0.55776
 C3476 C -0.00476 0.09602 0.53996
 C3477 C -0.00585 0.08020 0.53100
 C3478 C -0.00250 0.06432 0.53964
 C3479 C 0.00160 0.06464 0.55753
 C3480 C 0.00266 0.08046 0.56648
 H3481 H -0.01801 0.16765 0.59768
 H3482 H -0.01336 0.19570 0.61124
 H3483 H 0.04232 0.19056 0.60230
 H3484 H 0.03734 0.16235 0.58944
 H3485 H 0.02849 0.13302 0.59649
 H3486 H 0.02471 0.10524 0.58154
 H3487 H -0.02066 0.12557 0.55500
 H3488 H -0.01642 0.15365 0.56942
 H3489 H -0.00695 0.10805 0.53283
 H3490 H -0.00903 0.08045 0.51723
 H3491 H 0.00413 0.05267 0.56465
 H3492 H 0.00581 0.08024 0.58026
 C3493 C 0.49115 0.16413 0.40695
 C3494 C 0.50408 0.17175 0.39636
 C3495 C 0.50112 0.18780 0.38811
 C3496 C 0.48513 0.19646 0.39020
 C3497 C 0.47212 0.18869 0.40058
 C3498 C 0.47511 0.17272 0.40888
 C3499 C 0.49435 0.14734 0.41612
 C3500 C 0.48888 0.14502 0.43348
 C3501 C 0.49139 0.12909 0.44202
 C3502 C 0.49940 0.11510 0.43339
 C3503 C 0.50509 0.11748 0.41610
 C3504 C 0.50264 0.13347 0.40757
 C3505 C 0.50120 0.09793 0.44224
 C3506 C 0.49737 0.08243 0.43328
 C3507 C 0.49789 0.06634 0.44192
 C3508 C 0.50231 0.06538 0.45972
 C3509 C 0.50664 0.08087 0.46855
 C3510 C 0.50605 0.09696 0.45991
 H3511 H 0.51660 0.16547 0.39473
 H3512 H 0.51132 0.19341 0.38007
 H3513 H 0.45974 0.19515 0.40258
 H3514 H 0.46482 0.16705 0.41678
 H3515 H 0.48265 0.15555 0.44047
 H3516 H 0.48670 0.12759 0.45527
 H3517 H 0.51144 0.10698 0.40917
 H3518 H 0.50690 0.13485 0.39416
 H3519 H 0.49342 0.08278 0.41971
 H3520 H 0.49453 0.05469 0.43468
 H3521 H 0.51018 0.08062 0.48224
 H3522 H 0.50931 0.10868 0.46709
 C3523 C -0.00926 0.66894 0.90985
 C3524 C 0.00486 0.67806 0.90254
 C3525 C 0.00224 0.69387 0.89376
 C3526 C -0.01467 0.70097 0.89185
 C3527 C -0.02879 0.69151 0.89914
 C3528 C -0.02609 0.67582 0.90804
 C3529 C -0.00651 0.65229 0.91936
 C3530 C -0.01510 0.64908 0.93525
 C3531 C -0.01292 0.63321 0.94402
 C3532 C -0.00220 0.62017 0.93700
 C3533 C 0.00653 0.62343 0.92119
 C3534 C 0.00446 0.63937 0.91250
 C3535 C -0.00059 0.60304 0.94592
 C3536 C -0.00168 0.58749 0.93633
 C3537 C -0.00109 0.57132 0.94480
 C3538 C 0.00073 0.57033 0.96305
 C3539 C 0.00221 0.58591 0.97260
 C3540 C 0.00148 0.60209 0.96412
 H3541 H 0.01799 0.67303 0.90374
 H3542 H 0.01353 0.70010 0.88797
 H3543 H -0.04197 0.69648 0.89874
 H3544 H -0.03723 0.66900 0.91350
 H3545 H -0.02349 0.65888 0.94092
 H3546 H -0.01992 0.63099 0.95610
 H3547 H 0.01496 0.61364 0.91557
 H3548 H 0.01114 0.64146 0.90021
 H3549 H -0.00345 0.58784 0.92231
 H3550 H -0.00221 0.55959 0.93704
 H3551 H 0.00364 0.58563 0.98666
 H3552 H 0.00253 0.61388 0.97181
 C3553 C 0.25589 0.65511 0.91361
 C3554 C 0.27226 0.65597 0.92183
 C3555 C 0.27532 0.64692 0.93738
 C3556 C 0.26205 0.63683 0.94512
 C3557 C 0.24571 0.63580 0.93682
 C3558 C 0.24269 0.64479 0.92118
 C3559 C 0.25264 0.66510 0.89730
 C3560 C 0.24366 0.65745 0.88326
 C3561 C 0.24124 0.66672 0.86768
 C3562 C 0.24763 0.68385 0.86587
 C3563 C 0.25630 0.69160 0.88004
 C3564 C 0.25881 0.68232 0.89556
 C3565 C 0.24591 0.69343 0.84908
 C3566 C 0.24172 0.71128 0.84881
 C3567 C 0.24119 0.72053 0.83305
 C3568 C 0.24496 0.71215 0.81720
 C3569 C 0.24875 0.69420 0.81746
 C3570 C 0.24919 0.68495 0.83320
 H3571 H 0.28275 0.66364 0.91619
 H3572 H 0.28797 0.64813 0.94356
 H3573 H 0.23529 0.62803 0.94243
 H3574 H 0.22992 0.64396 0.91518
 H3575 H 0.23885 0.64417 0.88420
 H3576 H 0.23439 0.66047 0.85702
 H3577 H 0.26153 0.70471 0.87898
 H3578 H 0.26559 0.68862 0.90624
 H3579 H 0.23893 0.71811 0.86083
 H3580 H 0.23816 0.73432 0.83334
 H3581 H 0.25166 0.68730 0.80550
 H3582 H 0.25262 0.67125 0.83301
 C3583 C 0.75617 0.15759 0.41465
 C3584 C 0.74322 0.14671 0.42185
 C3585 C 0.74616 0.13790 0.43761
 C3586 C 0.76216 0.13971 0.44641
 C3587 C 0.77514 0.15047 0.43911
 C3588 C 0.77218 0.15932 0.42343
 C3589 C 0.75309 0.16715 0.39805
 C3590 C 0.75870 0.18453 0.39612
 C3591 C 0.75640 0.19338 0.38032
 C3592 C 0.74847 0.18504 0.36606
 C3593 C 0.74261 0.16773 0.36805
 C3594 C 0.74485 0.15889 0.38390
 C3595 C 0.74686 0.19421 0.34902
 C3596 C 0.75061 0.18546 0.33340
 C3597 C 0.75000 0.19429 0.31743
 C3598 C 0.74558 0.21208 0.31668
 C3599 C 0.74148 0.22074 0.33230
 C3600 C 0.74215 0.21191 0.34828
 H3601 H 0.73071 0.14522 0.41543
 H3602 H 0.73596 0.12959 0.44287
 H3603 H 0.78753 0.15228 0.44569
 H3604 H 0.78249 0.16743 0.41809
 H3605 H 0.76490 0.19130 0.40686
 H3606 H 0.76121 0.20664 0.37913
 H3607 H 0.73629 0.16102 0.35734
 H3608 H 0.74049 0.14547 0.38496
 H3609 H 0.75448 0.17187 0.33357
 H3610 H 0.75322 0.18718 0.30568
 H3611 H 0.73796 0.23442 0.33222
 H3612 H 0.73897 0.21893 0.36009
 C3613 C 0.24807 0.34550 0.41251
 C3614 C 0.23650 0.35969 0.41339
 C3615 C 0.23339 0.36818 0.42918
 C3616 C 0.24135 0.36242 0.44472
 C3617 C 0.25304 0.34833 0.44383
 C3618 C 0.25654 0.34017 0.42794
 C3619 C 0.25082 0.33597 0.39576
 C3620 C 0.25447 0.31798 0.39576
 C3621 C 0.25635 0.30889 0.38012
 C3622 C 0.25411 0.31737 0.36394
 C3623 C 0.25067 0.33540 0.36392
 C3624 C 0.24928 0.34460 0.37958
 C3625 C 0.25478 0.30735 0.34727
 C3626 C 0.26029 0.31534 0.33160
 C3627 C 0.25998 0.30614 0.31587
 C3628 C 0.25465 0.28861 0.31554
 C3629 C 0.24962 0.28043 0.33114
 C3630 C 0.24943 0.28974 0.34677
 H3631 H 0.22946 0.36411 0.40196
 H3632 H 0.22464 0.37923 0.42915
 H3633 H 0.25928 0.34326 0.45546
 H3634 H 0.26585 0.32959 0.42786
 H3635 H 0.25550 0.31070 0.40784
 H3636 H 0.25945 0.29514 0.38079
 H3637 H 0.24861 0.34245 0.35184
 H3638 H 0.24689 0.35850 0.37891
 H3639 H 0.26491 0.32870 0.33141
 H3640 H 0.26407 0.31266 0.30397
 H3641 H 0.24525 0.26696 0.33115
 H3642 H 0.24465 0.28316 0.35834
 C3643 C 0.74400 0.84268 0.91216
 C3644 C 0.74935 0.83485 0.92790
 C3645 C 0.74648 0.84318 0.94384
 C3646 C 0.73816 0.85949 0.94439
 C3647 C 0.73306 0.86743 0.92865
 C3648 C 0.73597 0.85914 0.91272
 C3649 C 0.74637 0.83354 0.89526
 C3650 C 0.73324 0.83417 0.88246
 C3651 C 0.73528 0.82545 0.86663
 C3652 C 0.75047 0.81584 0.86322
 C3653 C 0.76361 0.81516 0.87601
 C3654 C 0.76160 0.82394 0.89185
 C3655 C 0.75240 0.80644 0.84643
 C3656 C 0.75912 0.78940 0.84601
 C3657 C 0.75991 0.78020 0.83029
 C3658 C 0.75404 0.78788 0.81465
 C3659 C 0.74779 0.80512 0.81505
 C3660 C 0.74697 0.81426 0.83075
 H3661 H 0.75535 0.82208 0.92795
 H3662 H 0.75037 0.83665 0.95579
 H3663 H 0.72689 0.88013 0.92866
 H3664 H 0.73200 0.86567 0.90081
 H3665 H 0.72121 0.84114 0.88480
 H3666 H 0.72478 0.82594 0.85718
 H3667 H 0.77554 0.80802 0.87366
 H3668 H 0.77204 0.82338 0.90136
 H3669 H 0.76329 0.78298 0.85792
 H3670 H 0.76483 0.76697 0.83047
 H3671 H 0.74325 0.81151 0.80327
 H3672 H 0.74200 0.82748 0.83062
 C3673 C 0.75549 0.84611 0.08470
 C3674 C 0.75030 0.83776 0.06923
 C3675 C 0.75321 0.84565 0.05302
 C3676 C 0.76141 0.86205 0.05190
 C3677 C 0.76626 0.87059 0.06736
 C3678 C 0.76331 0.86272 0.08359
 C3679 C 0.75331 0.83728 0.10188
 C3680 C 0.76650 0.83839 0.11458
 C3681 C 0.76480 0.82967 0.13053
 C3682 C 0.74988 0.81958 0.13415
 C3683 C 0.73663 0.81852 0.12151
 C3684 C 0.73831 0.82730 0.10555
 C3685 C 0.74838 0.80999 0.15096
 C3686 C 0.74205 0.79275 0.15146
 C3687 C 0.74154 0.78343 0.16719
 C3688 C 0.74732 0.79117 0.18279
 C3689 C 0.75327 0.80857 0.18231
 C3690 C 0.75380 0.81784 0.16660
 H3691 H 0.74448 0.82486 0.06962
 H3692 H 0.74953 0.83869 0.04130
 H3693 H 0.77234 0.88336 0.06690
 H3694 H 0.76715 0.86964 0.09527
 H3695 H 0.77837 0.84568 0.11204
 H3696 H 0.77537 0.83049 0.13988
 H3697 H 0.72488 0.81103 0.12403
 H3698 H 0.72781 0.82638 0.09614
 H3699 H 0.73792 0.78631 0.13959
 H3700 H 0.73686 0.77008 0.16706
 H3701 H 0.75773 0.81500 0.19407
 H3702 H 0.75850 0.83119 0.16667
 C3703 C 0.25338 0.34565 0.58548
 C3704 C 0.24496 0.34042 0.57002
 C3705 C 0.24902 0.34830 0.55404
 C3706 C 0.26127 0.36200 0.55308
 C3707 C 0.26925 0.36762 0.56863
 C3708 C 0.26555 0.35943 0.58453
 C3709 C 0.24994 0.33645 0.60237
 C3710 C 0.25140 0.34528 0.61838
 C3711 C 0.24938 0.33635 0.63420
 C3712 C 0.24538 0.31841 0.63451
 C3713 C 0.24321 0.30975 0.61849
 C3714 C 0.24569 0.31856 0.60269
 C3715 C 0.24418 0.30865 0.65139
 C3716 C 0.24923 0.29101 0.65240
 C3717 C 0.24878 0.28199 0.66827
 C3718 C 0.24372 0.29049 0.68361
 C3719 C 0.23857 0.30803 0.68274
 C3720 C 0.23856 0.31694 0.66677
 H3721 H 0.23523 0.33015 0.57016
 H3722 H 0.24274 0.34335 0.54241
 H3723 H 0.27845 0.37837 0.56859
 H3724 H 0.27256 0.36373 0.59600
 H3725 H 0.25424 0.35912 0.61877
 H3726 H 0.25140 0.34352 0.64617
 H3727 H 0.23971 0.29606 0.61807
 H3728 H 0.24467 0.31114 0.59074
 H3729 H 0.25406 0.28420 0.64105
 H3730 H 0.25302 0.26852 0.66865
 H3731 H 0.23447 0.31481 0.69441
 H3732 H 0.23416 0.33034 0.66654
 C3733 C 0.74080 0.15539 0.58517
 C3734 C 0.74664 0.16335 0.56967
 C3735 C 0.74401 0.15527 0.55355
 C3736 C 0.73542 0.13907 0.55257
 C3737 C 0.72974 0.13101 0.56807
 C3738 C 0.73242 0.13906 0.58419
 C3739 C 0.74311 0.16422 0.60226
 C3740 C 0.72981 0.16360 0.61487
 C3741 C 0.73184 0.17209 0.63085
 C3742 C 0.74718 0.18145 0.63458
 C3743 C 0.76050 0.18207 0.62201
 C3744 C 0.75850 0.17352 0.60603
 C3745 C 0.74914 0.19067 0.65148
 C3746 C 0.75632 0.20756 0.65211
 C3747 C 0.75757 0.21647 0.66796
 C3748 C 0.75174 0.20865 0.68355
 C3749 C 0.74483 0.19162 0.68293
 C3750 C 0.74352 0.18276 0.66708
 H3751 H 0.75290 0.17604 0.56994
 H3752 H 0.74832 0.16190 0.54180
 H3753 H 0.72333 0.11839 0.56773
 H3754 H 0.72804 0.13242 0.59590
 H3755 H 0.71767 0.15683 0.61226
 H3756 H 0.72122 0.17162 0.64016
 H3757 H 0.77256 0.18899 0.62461
 H3758 H 0.76910 0.17404 0.59670
 H3759 H 0.76061 0.21405 0.64028
 H3760 H 0.76298 0.22955 0.66795
 H3761 H 0.74026 0.18516 0.69467
 H3762 H 0.73816 0.16966 0.66703
 C3763 C 0.24680 0.65728 0.08447
 C3764 C 0.23452 0.64361 0.08364
 C3765 C 0.23099 0.63519 0.06789
 C3766 C 0.23924 0.64050 0.05235
 C3767 C 0.25159 0.65411 0.05317
 C3768 C 0.25547 0.66223 0.06902
 C3769 C 0.25014 0.66662 0.10123
 C3770 C 0.25454 0.68447 0.10131
 C3771 C 0.25694 0.69338 0.11701
 C3772 C 0.25454 0.68484 0.13314
 C3773 C 0.25035 0.66694 0.13306
 C3774 C 0.24842 0.65792 0.11736
 C3775 C 0.25578 0.69466 0.14990
 C3776 C 0.26116 0.68631 0.16542
 C3777 C 0.26118 0.69525 0.18129
 C3778 C 0.25632 0.71286 0.18193
 C3779 C 0.25153 0.72144 0.16647
 C3780 C 0.25102 0.71239 0.15068
 H3781 H 0.22730 0.63954 0.09509
 H3782 H 0.22170 0.62452 0.06796
 H3783 H 0.25809 0.65879 0.04151
 H3784 H 0.26528 0.67242 0.06909
 H3785 H 0.25577 0.69177 0.08925
 H3786 H 0.26057 0.70703 0.11642
 H3787 H 0.24814 0.65987 0.14511
 H3788 H 0.24546 0.64412 0.11795
 H3789 H 0.26537 0.67285 0.16537
 H3790 H 0.26510 0.68842 0.19306
 H3791 H 0.24754 0.73499 0.16670
 H3792 H 0.24641 0.71925 0.13921
 C3793 C 0.15698 0.58713 0.74470
 C3794 C 0.14328 0.58582 0.73252
 C3795 C 0.13499 0.56984 0.72946
 C3796 C 0.14043 0.55458 0.73813
 C3797 C 0.15411 0.55589 0.75033
 C3798 C 0.16209 0.57195 0.75373
 C3799 C 0.16614 0.60412 0.74766
 C3800 C 0.18394 0.60456 0.75213
 C3801 C 0.19264 0.62043 0.75449
 C3802 C 0.18396 0.63640 0.75196
 C3803 C 0.16612 0.63597 0.74759
 C3804 C 0.15730 0.62009 0.74569
 C3805 C 0.19356 0.65334 0.75339
 C3806 C 0.18501 0.66864 0.75883
 C3807 C 0.19387 0.68463 0.75930
 C3808 C 0.21159 0.68560 0.75483
 C3809 C 0.22030 0.67035 0.74985
 C3810 C 0.21136 0.65447 0.74891
 H3811 H 0.13908 0.59706 0.72505
 H3812 H 0.12427 0.56954 0.72026
 H3813 H 0.15894 0.54447 0.75710
 H3814 H 0.17229 0.57238 0.76349
 H3815 H 0.19137 0.59266 0.75351
 H3816 H 0.20625 0.62010 0.75825
 H3817 H 0.15895 0.64790 0.74527
 H3818 H 0.14352 0.62041 0.74264
 H3819 H 0.17147 0.66833 0.76279
 H3820 H 0.18692 0.69623 0.76333
 H3821 H 0.23393 0.67081 0.74613
 H3822 H 0.21837 0.64319 0.74423
 C3823 C 0.65599 0.08597 0.24068
 C3824 C 0.65726 0.07732 0.22461
 C3825 C 0.64904 0.06124 0.22209
 C3826 C 0.63927 0.05344 0.23557
 C3827 C 0.63809 0.06204 0.25170
 C3828 C 0.64639 0.07812 0.25424
 C3829 C 0.66462 0.10315 0.24317
 C3830 C 0.67376 0.10689 0.25863
 C3831 C 0.68228 0.12294 0.26069
 C3832 C 0.68171 0.13561 0.24738
 C3833 C 0.67240 0.13192 0.23201
 C3834 C 0.66398 0.11588 0.22992
 C3835 C 0.69099 0.15253 0.24930
 C3836 C 0.68314 0.16812 0.24368
 C3837 C 0.69213 0.18397 0.24474
 C3838 C 0.70923 0.18461 0.25140
 C3839 C 0.71697 0.16904 0.25730
 C3840 C 0.70793 0.15318 0.25630
 H3841 H 0.66484 0.08289 0.21402
 H3842 H 0.65053 0.05479 0.20963
 H3843 H 0.63050 0.05647 0.26228
 H3844 H 0.64504 0.08458 0.26671
 H3845 H 0.67458 0.09729 0.26901
 H3846 H 0.68923 0.12548 0.27273
 H3847 H 0.67189 0.14135 0.22145
 H3848 H 0.65689 0.11344 0.21794
 H3849 H 0.67001 0.16805 0.23846
 H3850 H 0.68571 0.19569 0.24014
 H3851 H 0.73010 0.16904 0.26253
 H3852 H 0.71437 0.14136 0.26058
 C3853 C 0.84471 0.08354 0.75680
 C3854 C 0.83959 0.06824 0.74805
 C3855 C 0.84785 0.05235 0.75145
 C3856 C 0.86179 0.05136 0.76337
 C3857 C 0.86726 0.06676 0.77172
 C3858 C 0.85870 0.08255 0.76867
 C3859 C 0.83528 0.10033 0.75391
 C3860 C 0.84400 0.11645 0.75547
 C3861 C 0.83496 0.13216 0.75369
 C3862 C 0.81702 0.13227 0.74980
 C3863 C 0.80841 0.11616 0.74770
 C3864 C 0.81735 0.10044 0.74995
 C3865 C 0.80727 0.14906 0.74837
 C3866 C 0.78958 0.15002 0.75326
 C3867 C 0.78056 0.16582 0.75233
 C3868 C 0.78914 0.18112 0.74697
 C3869 C 0.80673 0.18029 0.74205
 C3870 C 0.81563 0.16441 0.74250
 H3871 H 0.82915 0.06845 0.73854
 H3872 H 0.84302 0.04081 0.74493
 H3873 H 0.87816 0.06667 0.78071
 H3874 H 0.86292 0.09389 0.77593
 H3875 H 0.85785 0.11701 0.75813
 H3876 H 0.84208 0.14420 0.75570
 H3877 H 0.79471 0.11559 0.74433
 H3878 H 0.81002 0.08840 0.74889
 H3879 H 0.78272 0.13869 0.75824
 H3880 H 0.76702 0.16620 0.75635
 H3881 H 0.81355 0.19192 0.73767
 H3882 H 0.82906 0.16421 0.73816
 C3883 C 0.34404 0.58701 0.25684
 C3884 C 0.35438 0.57914 0.24395
 C3885 C 0.36259 0.56317 0.24723
 C3886 C 0.36074 0.55485 0.26351
 C3887 C 0.35063 0.56287 0.27647
 C3888 C 0.34235 0.57874 0.27316
 C3889 C 0.33484 0.60366 0.25330
 C3890 C 0.31751 0.60587 0.25880
 C3891 C 0.30890 0.62166 0.25594
 C3892 C 0.31744 0.63563 0.24758
 C3893 C 0.33472 0.63337 0.24190
 C3894 C 0.34331 0.61751 0.24466
 C3895 C 0.30844 0.65262 0.24535
 C3896 C 0.31718 0.66834 0.24899
 C3897 C 0.30832 0.68424 0.24823
 C3898 C 0.29052 0.68478 0.24375
 C3899 C 0.28196 0.66909 0.23953
 C3900 C 0.29081 0.65319 0.24036
 H3901 H 0.35583 0.58518 0.23122
 H3902 H 0.37041 0.55735 0.23705
 H3903 H 0.34883 0.55668 0.28908
 H3904 H 0.33464 0.58460 0.28341
 H3905 H 0.31059 0.59536 0.26531
 H3906 H 0.29566 0.62306 0.26063
 H3907 H 0.34157 0.64388 0.23531
 H3908 H 0.35669 0.61619 0.24037
 H3909 H 0.33073 0.66829 0.25300
 H3910 H 0.31535 0.69607 0.25151
 H3911 H 0.26830 0.66900 0.23592
 H3912 H 0.28381 0.64130 0.23724
 C3913 C 0.34281 0.41406 0.24515
 C3914 C 0.35917 0.41534 0.23696
 C3915 C 0.36699 0.43161 0.23420
 C3916 C 0.35867 0.44697 0.23961
 C3917 C 0.34254 0.44569 0.24822
 C3918 C 0.33467 0.42941 0.25094
 C3919 C 0.33403 0.39684 0.24710
 C3920 C 0.32464 0.39263 0.26231
 C3921 C 0.31608 0.37654 0.26386
 C3922 C 0.31676 0.36431 0.25025
 C3923 C 0.32623 0.36849 0.23510
 C3924 C 0.33475 0.38456 0.23354
 C3925 C 0.30735 0.34738 0.25161
 C3926 C 0.31504 0.33197 0.24544
 C3927 C 0.30587 0.31618 0.24590
 C3928 C 0.28877 0.31543 0.25251
 C3929 C 0.28122 0.33080 0.25901
 C3930 C 0.29042 0.34659 0.25858
 H3931 H 0.36593 0.40375 0.23267
 H3932 H 0.37959 0.43218 0.22782
 H3933 H 0.33575 0.45733 0.25236
 H3934 H 0.32197 0.42888 0.25710
 H3935 H 0.32404 0.40172 0.27308
 H3936 H 0.30906 0.37360 0.27578
 H3937 H 0.32673 0.35948 0.22426
 H3938 H 0.34158 0.38752 0.22151
 H3939 H 0.32817 0.33213 0.24024
 H3940 H 0.31215 0.30460 0.24087
 H3941 H 0.26810 0.33071 0.26424
 H3942 H 0.28409 0.35827 0.26329
 C3943 C 0.84474 0.91211 0.74652
 C3944 C 0.85895 0.91322 0.73495
 C3945 C 0.86762 0.92905 0.73217
 C3946 C 0.86203 0.94439 0.74048
 C3947 C 0.84792 0.94326 0.75218
 C3948 C 0.83956 0.92732 0.75532
 C3949 C 0.83509 0.89531 0.74896
 C3950 C 0.81707 0.89520 0.75248
 C3951 C 0.80791 0.87949 0.75412
 C3952 C 0.81637 0.86339 0.75183
 C3953 C 0.83441 0.86349 0.74845
 C3954 C 0.84367 0.87919 0.74728
 C3955 C 0.80637 0.84663 0.75248
 C3956 C 0.81438 0.83106 0.75811
 C3957 C 0.80526 0.81524 0.75783
 C3958 C 0.78778 0.81471 0.75243
 C3959 C 0.77955 0.83020 0.74729
 C3960 C 0.78880 0.84595 0.74707
 H3961 H 0.86324 0.90196 0.72766
 H3962 H 0.87866 0.92924 0.72338
 H3963 H 0.84302 0.95475 0.75868
 H3964 H 0.82895 0.92701 0.76463
 H3965 H 0.80986 0.90725 0.75361
 H3966 H 0.79414 0.88005 0.75714
 H3967 H 0.84144 0.85147 0.74632
 H3968 H 0.85757 0.87862 0.74497
 H3969 H 0.82769 0.83103 0.76281
 H3970 H 0.81179 0.80343 0.76205
 H3971 H 0.76611 0.83004 0.74292
 H3972 H 0.78222 0.85747 0.74224
 C3973 C 0.65697 0.91467 0.25477
 C3974 C 0.66201 0.93000 0.24590
 C3975 C 0.65391 0.94591 0.24940
 C3976 C 0.64016 0.94693 0.26151
 C3977 C 0.63478 0.93151 0.27001
 C3978 C 0.64320 0.91568 0.26686
 C3979 C 0.66629 0.89785 0.25173
 C3980 C 0.65757 0.88173 0.25348
 C3981 C 0.66654 0.86600 0.25150
 C3982 C 0.68440 0.86589 0.24728
 C3983 C 0.69297 0.88201 0.24497
 C3984 C 0.68413 0.89772 0.24740
 C3985 C 0.69416 0.84911 0.24580
 C3986 C 0.71192 0.84822 0.25047
 C3987 C 0.72099 0.83247 0.24954
 C3988 C 0.71244 0.81713 0.24438
 C3989 C 0.69476 0.81787 0.23968
 C3990 C 0.68578 0.83373 0.24015
 H3991 H 0.67226 0.92981 0.23621
 H3992 H 0.65869 0.95746 0.24275
 H3993 H 0.62404 0.93160 0.27916
 H3994 H 0.63905 0.90431 0.27421
 H3995 H 0.64378 0.88118 0.25643
 H3996 H 0.65945 0.85395 0.25366
 H3997 H 0.70660 0.88258 0.24134
 H3998 H 0.69146 0.90975 0.24620
 H3999 H 0.71880 0.85956 0.25531
 H4000 H 0.73457 0.83218 0.25345
 H4001 H 0.68793 0.80621 0.23551
 H4002 H 0.67228 0.83388 0.23604
 C4003 C 0.15476 0.41496 0.75750
 C4004 C 0.13848 0.41585 0.76589
 C4005 C 0.13051 0.43196 0.76881
 C4006 C 0.13861 0.44753 0.76337
 C4007 C 0.15479 0.44664 0.75482
 C4008 C 0.16279 0.43055 0.75193
 C4009 C 0.16353 0.39789 0.75489
 C4010 C 0.17273 0.39441 0.73942
 C4011 C 0.18136 0.37852 0.73723
 C4012 C 0.18095 0.36574 0.75043
 C4013 C 0.17163 0.36916 0.76583
 C4014 C 0.16304 0.38504 0.76804
 C4015 C 0.19049 0.34902 0.74839
 C4016 C 0.18302 0.33326 0.75416
 C4017 C 0.19234 0.31766 0.75317
 C4018 C 0.20940 0.31745 0.74643
 C4019 C 0.21671 0.33317 0.74024
 C4020 C 0.20735 0.34877 0.74120
 H4021 H 0.13183 0.40407 0.77008
 H4022 H 0.11791 0.43222 0.77519
 H4023 H 0.16147 0.45844 0.75071
 H4024 H 0.17545 0.43034 0.74569
 H4025 H 0.17314 0.40393 0.72894
 H4026 H 0.18824 0.37617 0.72513
 H4027 H 0.17133 0.35970 0.77637
 H4028 H 0.15634 0.38742 0.78023
 H4029 H 0.16994 0.33299 0.75951
 H4030 H 0.18625 0.30581 0.75798
 H4031 H 0.22980 0.33351 0.73494
 H4032 H 0.21351 0.36074 0.73678
 C4033 C 0.08500 0.75947 0.84303
 C4034 C 0.07671 0.77571 0.84128
 C4035 C 0.06098 0.77897 0.84984
 C4036 C 0.05315 0.76604 0.86030
 C4037 C 0.06151 0.74984 0.86219
 C4038 C 0.07730 0.74660 0.85369
 C4039 C 0.10156 0.75599 0.83366
 C4040 C 0.11538 0.74732 0.84203
 C4041 C 0.13118 0.74463 0.83334
 C4042 C 0.13344 0.75046 0.81606
 C4043 C 0.11950 0.75884 0.80760
 C4044 C 0.10375 0.76160 0.81631
 C4045 C 0.15047 0.74847 0.80708
 C4046 C 0.15119 0.74383 0.78936
 C4047 C 0.16718 0.74309 0.78064
 C4048 C 0.18281 0.74708 0.78941
 C4049 C 0.18209 0.75128 0.80726
 C4050 C 0.16612 0.75194 0.81598
 H4051 H 0.08244 0.78596 0.83334
 H4052 H 0.05476 0.79152 0.84799
 H4053 H 0.05584 0.73968 0.87029
 H4054 H 0.08334 0.73393 0.85520
 H4055 H 0.11410 0.74295 0.85543
 H4056 H 0.14164 0.73800 0.84014
 H4057 H 0.12091 0.76365 0.79436
 H4058 H 0.09326 0.76813 0.80945
 H4059 H 0.13936 0.74085 0.78223
 H4060 H 0.16724 0.73973 0.76692
 H4061 H 0.19386 0.75438 0.81446
 H4062 H 0.16597 0.75573 0.82959
 C4063 C 0.58436 0.25741 0.34239
 C4064 C 0.56866 0.25176 0.33474
 C4065 C 0.55277 0.25426 0.34329
 C4066 C 0.55224 0.26249 0.35964
 C4067 C 0.56796 0.26782 0.36744
 C4068 C 0.58384 0.26528 0.35893
 C4069 C 0.60118 0.25556 0.33298
 C4070 C 0.61363 0.26906 0.33349
 C4071 C 0.62944 0.26747 0.32463
 C4072 C 0.63316 0.25236 0.31501
 C4073 C 0.62069 0.23889 0.31438
 C4074 C 0.60486 0.24047 0.32330
 C4075 C 0.65005 0.25075 0.30574
 C4076 C 0.65080 0.24397 0.28874
 C4077 C 0.66669 0.24311 0.27984
 C4078 C 0.68219 0.24896 0.28779
 C4079 C 0.68142 0.25545 0.30492
 C4080 C 0.66556 0.25634 0.31377
 H4081 H 0.56861 0.24587 0.32193
 H4082 H 0.54083 0.25021 0.33688
 H4083 H 0.56796 0.27393 0.38016
 H4084 H 0.59574 0.26946 0.36532
 H4085 H 0.61104 0.28101 0.34052
 H4086 H 0.63866 0.27820 0.32508
 H4087 H 0.62329 0.22702 0.30723
 H4088 H 0.59561 0.22976 0.32282
 H4089 H 0.63902 0.23970 0.28218
 H4090 H 0.66680 0.23803 0.26667
 H4091 H 0.69308 0.25998 0.31151
 H4092 H 0.66543 0.26136 0.32696
 C4093 C 0.58678 0.74167 0.15527
 C4094 C 0.58608 0.73314 0.13906
 C4095 C 0.57008 0.72981 0.13097
 C4096 C 0.55441 0.73501 0.13885
 C4097 C 0.55510 0.74376 0.15493
 C4098 C 0.57110 0.74702 0.16306
 C4099 C 0.60377 0.74463 0.16417
 C4100 C 0.60704 0.76015 0.17339
 C4101 C 0.62295 0.76272 0.18198
 C4102 C 0.63596 0.74986 0.18146
 C4103 C 0.63271 0.73438 0.17221
 C4104 C 0.61681 0.73178 0.16371
 C4105 C 0.65282 0.75237 0.19066
 C4106 C 0.66849 0.74730 0.18271
 C4107 C 0.68428 0.74857 0.19170
 C4108 C 0.68480 0.75490 0.20891
 C4109 C 0.66916 0.76046 0.21668
 C4110 C 0.65334 0.75924 0.20763
 H4111 H 0.59794 0.72914 0.13255
 H4112 H 0.56995 0.72329 0.11845
 H4113 H 0.54321 0.74771 0.16141
 H4114 H 0.57115 0.75337 0.17566
 H4115 H 0.59736 0.77040 0.17380
 H4116 H 0.62517 0.77485 0.18885
 H4117 H 0.64236 0.72410 0.17185
 H4118 H 0.61460 0.71954 0.15704
 H4119 H 0.66852 0.74223 0.16954
 H4120 H 0.69605 0.74426 0.18523
 H4121 H 0.66908 0.76544 0.22989
 H4122 H 0.64145 0.76315 0.21412
 C4123 C 0.08648 0.24436 0.65603
 C4124 C 0.08558 0.23252 0.64206
 C4125 C 0.06986 0.22947 0.63333
 C4126 C 0.05442 0.23781 0.63861
 C4127 C 0.05532 0.24970 0.65253
 C4128 C 0.07114 0.25309 0.66096
 C4129 C 0.10322 0.24728 0.66562
 C4130 C 0.10324 0.25125 0.68354
 C4131 C 0.11889 0.25354 0.69261
 C4132 C 0.13505 0.25149 0.68417
 C4133 C 0.13503 0.24758 0.66623
 C4134 C 0.11937 0.24574 0.65706
 C4135 C 0.15179 0.25297 0.69407
 C4136 C 0.16715 0.25886 0.68581
 C4137 C 0.18300 0.25933 0.69485
 C4138 C 0.18376 0.25442 0.71248
 C4139 C 0.16845 0.24906 0.72096
 C4140 C 0.15269 0.24811 0.71182
 H4141 H 0.09695 0.22527 0.63798
 H4142 H 0.06985 0.22051 0.62246
 H4143 H 0.04374 0.25622 0.65722
 H4144 H 0.07127 0.26258 0.67138
 H4145 H 0.09116 0.25228 0.69075
 H4146 H 0.11825 0.25691 0.70630
 H4147 H 0.14711 0.24560 0.65923
 H4148 H 0.12002 0.24308 0.64322
 H4149 H 0.16701 0.26318 0.67235
 H4150 H 0.19464 0.26370 0.68810
 H4151 H 0.16878 0.24504 0.73453
 H4152 H 0.14134 0.24312 0.71861
 C4153 C 0.91526 0.25464 0.65432
 C4154 C 0.93052 0.24595 0.65966
 C4155 C 0.94646 0.24923 0.65141
 C4156 C 0.94757 0.26093 0.63724
 C4157 C 0.93220 0.26919 0.63154
 C4158 C 0.91636 0.26629 0.64010
 C4159 C 0.89842 0.25192 0.66379
 C4160 C 0.88233 0.25350 0.65507
 C4161 C 0.86659 0.25183 0.66414
 C4162 C 0.86643 0.24806 0.68214
 C4163 C 0.88252 0.24595 0.69074
 C4164 C 0.89825 0.24809 0.68177
 C4165 C 0.84964 0.24676 0.69196
 C4166 C 0.84875 0.25165 0.70965
 C4167 C 0.83303 0.25065 0.71881
 C4168 C 0.81770 0.24525 0.71040
 C4169 C 0.81841 0.24043 0.69278
 C4170 C 0.83424 0.24093 0.68372
 H4171 H 0.93026 0.23659 0.67026
 H4172 H 0.95796 0.24277 0.65644
 H4173 H 0.93236 0.27799 0.62046
 H4174 H 0.90506 0.27349 0.63569
 H4175 H 0.88179 0.25605 0.64118
 H4176 H 0.85457 0.25383 0.65701
 H4177 H 0.88306 0.24265 0.70447
 H4178 H 0.91026 0.24705 0.68912
 H4179 H 0.86010 0.25663 0.71642
 H4180 H 0.83274 0.25463 0.73236
 H4181 H 0.80675 0.23605 0.68607
 H4182 H 0.83436 0.23664 0.67029
 C4183 C 0.41563 0.75472 0.15569
 C4184 C 0.41629 0.76247 0.13903
 C4185 C 0.43224 0.76491 0.13054
 C4186 C 0.44788 0.75961 0.13847
 C4187 C 0.44721 0.75152 0.15496
 C4188 C 0.43126 0.74913 0.16349
 C4189 C 0.39875 0.75295 0.16506
 C4190 C 0.39493 0.73796 0.17503
 C4191 C 0.37906 0.73646 0.18393
 C4192 C 0.36666 0.74990 0.18300
 C4193 C 0.37051 0.76490 0.17308
 C4194 C 0.38636 0.76641 0.16424
 C4195 C 0.34975 0.74843 0.19232
 C4196 C 0.33429 0.75403 0.18423
 C4197 C 0.31845 0.75343 0.19317
 C4198 C 0.31766 0.74724 0.21047
 C4199 C 0.33308 0.74130 0.21846
 C4200 C 0.34895 0.74186 0.20946
 H4201 H 0.40446 0.76661 0.13252
 H4202 H 0.43233 0.77091 0.11771
 H4203 H 0.45908 0.74750 0.16148
 H4204 H 0.43122 0.74333 0.17640
 H4205 H 0.40411 0.72727 0.17576
 H4206 H 0.37636 0.72468 0.19132
 H4207 H 0.36136 0.77562 0.17238
 H4208 H 0.38904 0.77828 0.15699
 H4209 H 0.33445 0.75888 0.17093
 H4210 H 0.30684 0.75802 0.18654
 H4211 H 0.33295 0.73642 0.23175
 H4212 H 0.36068 0.73757 0.21607
 C4213 C 0.41304 0.24518 0.34248
 C4214 C 0.41408 0.23328 0.35648
 C4215 C 0.42994 0.23018 0.36493
 C4216 C 0.44534 0.23854 0.35934
 C4217 C 0.44428 0.25048 0.34538
 C4218 C 0.42834 0.25392 0.33723
 C4219 C 0.39620 0.24809 0.33312
 C4220 C 0.39597 0.25202 0.31516
 C4221 C 0.38021 0.25424 0.30627
 C4222 C 0.36417 0.25214 0.31495
 C4223 C 0.36439 0.24835 0.33294
 C4224 C 0.38015 0.24658 0.34193
 C4225 C 0.34734 0.25336 0.30520
 C4226 C 0.33205 0.25925 0.31346
 C4227 C 0.31613 0.25941 0.30456
 C4228 C 0.31522 0.25416 0.28706
 C4229 C 0.33047 0.24879 0.27859
 C4230 C 0.34630 0.24817 0.28760
 H4231 H 0.40273 0.22603 0.36080
 H4232 H 0.43006 0.22118 0.37585
 H4233 H 0.45582 0.25700 0.34045
 H4234 H 0.42810 0.26346 0.32678
 H4235 H 0.40795 0.25304 0.30778
 H4236 H 0.38069 0.25754 0.29254
 H4237 H 0.35238 0.24636 0.34011
 H4238 H 0.37969 0.24395 0.35581
 H4239 H 0.33232 0.26378 0.32681
 H4240 H 0.30452 0.26377 0.31130
 H4241 H 0.33004 0.24449 0.26514
 H4242 H 0.35759 0.24315 0.28084
 C4243 C 0.91512 0.74658 0.83981
 C4244 C 0.92230 0.75938 0.85080
 C4245 C 0.93805 0.75635 0.85951
 C4246 C 0.94685 0.74042 0.85750
 C4247 C 0.93965 0.72764 0.84651
 C4248 C 0.92397 0.73070 0.83776
 C4249 C 0.89838 0.74964 0.83057
 C4250 C 0.89629 0.74441 0.81314
 C4251 C 0.88032 0.74652 0.80464
 C4252 C 0.86604 0.75388 0.81339
 C4253 C 0.86819 0.75940 0.83074
 C4254 C 0.88422 0.75735 0.83922
 C4255 C 0.84882 0.75512 0.80461
 C4256 C 0.83348 0.75055 0.81358
 C4257 C 0.81740 0.75047 0.80497
 C4258 C 0.81629 0.75499 0.78719
 C4259 C 0.83159 0.76008 0.77837
 C4260 C 0.84766 0.76011 0.78698
 H4261 H 0.91582 0.77179 0.85252
 H4262 H 0.94327 0.76638 0.86798
 H4263 H 0.94625 0.71533 0.84455
 H4264 H 0.91866 0.72052 0.82953
 H4265 H 0.90703 0.73861 0.80608
 H4266 H 0.87901 0.74197 0.79134
 H4267 H 0.85746 0.76526 0.83776
 H4268 H 0.88541 0.76140 0.85270
 H4269 H 0.83398 0.74649 0.82713
 H4270 H 0.80589 0.74653 0.81219
 H4271 H 0.83122 0.76376 0.76472
 H4272 H 0.85924 0.76394 0.77980
   
