data_POSCAR
  _audit_creation_date              2014-09-24
  _audit_creation_method            'ToBaCCo'
  _symmetry_space_group_name_H-M    'P1'
  _symmetry_Int_Tables_number       1
  _symmetry_cell_setting            triclinic
  loop_
  _symmetry_equiv_pos_as_xyz
 x,y,z
_cell_length_a 72.9094
_cell_length_b 70.4374
_cell_length_c 75.1246
_cell_angle_alpha 90.152600
_cell_angle_beta 90.433800
_cell_angle_gamma 89.521100
loop_
  _atom_site_label
  _atom_site_type_symbol
  _atom_site_fract_x
  _atom_site_fract_y
  _atom_site_fract_z
C1 C 0.30765 0.43514 0.89777
 C2 C 0.32281 0.44720 0.89975
 C3 C 0.33293 0.44807 0.91586
 C4 C 0.32790 0.43575 0.92978
 C5 C 0.31278 0.42364 0.92812
 C6 C 0.30239 0.42403 0.91235
 H7 H 0.32741 0.45505 0.88831
 H8 H 0.33546 0.43574 0.94219
 H9 H 0.29017 0.41548 0.91144
 C10 C 0.43273 0.82748 0.43335
 C11 C 0.41871 0.82435 0.44585
 C12 C 0.40858 0.80748 0.44581
 C13 C 0.41278 0.79335 0.43330
 C14 C 0.42582 0.79640 0.41999
 C15 C 0.43567 0.81349 0.42015
 H16 H 0.41484 0.83547 0.45508
 H17 H 0.40573 0.77993 0.43396
 H18 H 0.44597 0.81559 0.41016
 C19 C 0.95619 0.91909 0.82732
 C20 C 0.95743 0.93116 0.84218
 C21 C 0.94731 0.94834 0.84308
 C22 C 0.93595 0.95307 0.82842
 C23 C 0.93393 0.94078 0.81378
 C24 C 0.94432 0.92396 0.81326
 H25 H 0.96549 0.92634 0.85343
 H26 H 0.92889 0.96660 0.82799
 H27 H 0.94294 0.91444 0.80203
 C28 C 0.43461 -0.08775 0.31723
 C29 C 0.44027 -0.07657 0.33182
 C30 C 0.43154 -0.05917 0.33580
 C31 C 0.41685 -0.05314 0.32492
 C32 C 0.41110 -0.06389 0.31017
 C33 C 0.42004 -0.08119 0.30647
 H34 H 0.45155 -0.08143 0.34007
 H35 H 0.40985 -0.03993 0.32786
 H36 H 0.41566 -0.08954 0.29513
 C37 C 0.81920 0.29557 0.32709
 C38 C 0.83508 0.29326 0.31673
 C39 C 0.83756 0.30395 0.30121
 C40 C 0.82422 0.31749 0.29635
 C41 C 0.80833 0.32015 0.30646
 C42 C 0.80587 0.30903 0.32176
 H43 H 0.84549 0.28303 0.32064
 H44 H 0.82613 0.32586 0.28446
 H45 H 0.79349 0.31082 0.32945
 C46 C -0.18997 0.81086 0.81819
 C47 C -0.20140 0.80666 0.83265
 C48 C -0.19462 0.79822 0.84838
 C49 C -0.17615 0.79209 0.84847
 C50 C -0.16481 0.79436 0.83351
 C51 C -0.17158 0.80468 0.81880
 H52 H -0.21565 0.81074 0.83179
 H53 H -0.17012 0.78613 0.86039
 H54 H -0.16298 0.80688 0.80732
 C55 C 0.93905 0.35079 0.42850
 C56 C 0.92633 0.33881 0.43647
 C57 C 0.91902 0.32342 0.42689
 C58 C 0.92402 0.32054 0.40895
 C59 C 0.93601 0.33322 0.40062
 C60 C 0.94366 0.34798 0.41067
 H61 H 0.92278 0.34092 0.45033
 H62 H 0.91829 0.30880 0.40147
 H63 H 0.95340 0.35746 0.40454
 C64 C 0.43207 0.44261 0.81717
 C65 C 0.41796 0.44458 0.80430
 C66 C 0.41438 0.43024 0.79176
 C67 C 0.42573 0.41408 0.79134
 C68 C 0.44001 0.41166 0.80381
 C69 C 0.44255 0.42565 0.81696
 H70 H 0.41004 0.45758 0.80328
 H71 H 0.42329 0.40339 0.78127
 H72 H 0.45233 0.42276 0.82749
 C73 C 0.81175 0.93047 0.94284
 C74 C 0.82589 0.93796 0.95341
 C75 C 0.83647 0.95326 0.94749
 C76 C 0.83317 0.96053 0.93031
 C77 C 0.81909 0.95320 0.91934
 C78 C 0.80844 0.93818 0.92585
 H79 H 0.82837 0.93208 0.96652
 H80 H 0.84142 0.97214 0.92560
 H81 H 0.79731 0.93262 0.91783
 C82 C 0.28998 0.82629 0.31734
 C83 C 0.28100 0.82021 0.33281
 C84 C 0.28759 0.80493 0.34293
 C85 C 0.30360 0.79553 0.33747
 C86 C 0.31283 0.80112 0.32193
 C87 C 0.30640 0.81708 0.31236
 H88 H 0.26896 0.82785 0.33737
 H89 H 0.30851 0.78338 0.34497
 H90 H 0.31314 0.82110 0.30014
 C91 C 0.80032 0.41990 0.43007
 C92 C 0.81476 0.43173 0.43532
 C93 C 0.82119 0.44608 0.42377
 C94 C 0.81340 0.44727 0.40641
 C95 C 0.79940 0.43496 0.40092
 C96 C 0.79277 0.42169 0.41302
 H97 H 0.81991 0.43048 0.44881
 H98 H 0.81872 0.45713 0.39676
 H99 H 0.78154 0.41254 0.40917
 C100 C 0.93974 0.84183 -0.04216
 C101 C 0.95183 0.83341 -0.05458
 C102 C 0.94909 0.81476 -0.06084
 C103 C 0.93388 0.80455 -0.05488
 C104 C 0.92186 0.81231 -0.04227
 C105 C 0.92528 0.83060 -0.03567
 H106 H 0.96288 0.84149 -0.06023
 H107 H 0.93149 0.79043 -0.06005
 H108 H 0.91693 0.83569 -0.02482
 C109 C 0.31834 0.30902 0.80439
 C110 C 0.31041 0.30498 0.82091
 C111 C 0.31873 0.29201 0.83280
 C112 C 0.33554 0.28348 0.82803
 C113 C 0.34391 0.28782 0.81173
 C114 C 0.33530 0.30070 0.80013
 H115 H 0.29744 0.31159 0.82427
 H116 H 0.34193 0.27310 0.83675
 H117 H 0.34155 0.30374 0.78743
 C118 C 0.15400 0.56120 0.55782
 C119 C 0.16124 0.54484 0.56611
 C120 C 0.18005 0.54346 0.57013
 C121 C 0.19162 0.55859 0.56585
 C122 C 0.18463 0.57536 0.55826
 C123 C 0.16586 0.57631 0.55395
 H124 H 0.15225 0.53334 0.56973
 H125 H 0.20607 0.55750 0.56910
 H126 H 0.16034 0.58906 0.54791
 C127 C 0.57635 0.70580 0.07324
 C128 C 0.56369 0.71133 0.08630
 C129 C 0.54615 0.70328 0.08700
 C130 C 0.54096 0.69011 0.07383
 C131 C 0.55313 0.68498 0.06021
 C132 C 0.57088 0.69258 0.06024
 H133 H 0.56738 0.72219 0.09586
 H134 H 0.52744 0.68389 0.07407
 H135 H 0.58053 0.68785 0.05025
 C136 C 0.70124 0.18619 0.66177
 C137 C 0.70953 0.16871 0.66578
 C138 C 0.70725 0.15988 0.68254
 C139 C 0.69536 0.16873 0.69494
 C140 C 0.68725 0.18646 0.69110
 C141 C 0.69042 0.19508 0.67466
 H142 H 0.71705 0.16159 0.65531
 H143 H 0.69316 0.16263 0.70794
 H144 H 0.68417 0.20876 0.67184
 C145 C 1.07457 0.07159 0.20581
 C146 C 1.07231 0.09122 0.20741
 C147 C 1.06441 0.10191 0.19362
 C148 C 1.05848 0.09282 0.17794
 C149 C 1.06103 0.07299 0.17574
 C150 C 1.06826 0.06257 0.19033
 H151 H 1.07771 0.09851 0.21902
 H152 H 1.05360 0.10158 0.16707
 H153 H 1.06931 0.04726 0.18977
 C154 C 0.07419 0.19384 1.05778
 C155 C 0.06473 0.20569 1.06978
 C156 C 0.07377 0.22107 1.07794
 C157 C 0.09266 0.22335 1.07493
 C158 C 0.10248 0.21062 1.06423
 C159 C 0.09308 0.19627 1.05520
 H160 H 0.05014 0.20376 1.07165
 H161 H 0.10009 0.23456 1.08168
 H162 H 0.10052 0.18664 1.04653
 C163 C 0.17233 0.68045 0.70265
 C164 C 0.18170 0.69183 0.69037
 C165 C 0.19460 0.68379 0.67889
 C166 C 0.19778 0.66421 0.67922
 C167 C 0.18800 0.65246 0.69075
 C168 C 0.17550 0.66069 0.70270
 H169 H 0.17905 0.70697 0.68974
 H170 H 0.20780 0.65810 0.67023
 H171 H 0.16819 0.65173 0.71188
 C172 C 1.20008 0.18727 0.19725
 C173 C 1.18706 0.20149 0.20142
 C174 C 1.18797 0.21976 0.19386
 C175 C 1.20279 0.22382 0.18261
 C176 C 1.21538 0.20966 0.17756
 C177 C 1.21387 0.19145 0.18492
 H178 H 1.17603 0.19815 0.21033
 H179 H 1.20449 0.23803 0.17749
 H180 H 1.22304 0.18028 0.18048
 C181 C 0.67937 1.04981 0.55227
 C182 C 0.69254 1.06370 0.54838
 C183 C 0.70661 1.06867 0.56042
 C184 C 0.70832 1.05803 0.57623
 C185 C 0.69649 1.04287 0.57990
 C186 C 0.68208 1.03892 0.56785
 H187 H 0.69238 1.07005 0.53533
 H188 H 0.71819 1.06209 0.58629
 H189 H 0.67268 1.02776 0.57109
 C190 C 0.53004 0.54112 0.14856
 C191 C 0.52180 0.55580 0.15846
 C192 C 0.52783 0.55956 0.17598
 C193 C 0.54245 0.54881 0.18326
 C194 C 0.55087 0.53431 0.17336
 C195 C 0.54477 0.53090 0.15597
 H196 H 0.51023 0.56359 0.15291
 H197 H 0.54704 0.55149 0.19677
 H198 H 0.55152 0.52006 0.14806
 C199 C 0.65190 0.68794 0.19266
 C200 C 0.66214 0.70009 0.18189
 C201 C 0.67654 0.69283 0.17124
 C202 C 0.68008 0.67306 0.17131
 C203 C 0.66926 0.66084 0.18145
 C204 C 0.65543 0.66843 0.19216
 H205 H 0.65893 0.71512 0.18199
 H206 H 0.69113 0.66708 0.16348
 H207 H 0.64731 0.65900 0.20027
 C208 C 0.17788 0.06493 1.05803
 C209 C 0.17889 0.05610 1.07490
 C210 C 0.19403 0.05852 1.08637
 C211 C 0.20802 0.07096 1.08139
 C212 C 0.20723 0.08049 1.06502
 C213 C 0.19261 0.07679 1.05326
 H214 H 0.16754 0.04796 1.07981
 H215 H 0.21946 0.07339 1.09034
 H216 H 0.19326 0.08299 1.04016
 C217 C 0.59543 0.18261 0.55663
 C218 C 0.59174 0.19515 0.57080
 C219 C 0.57698 0.19215 0.58246
 C220 C 0.56546 0.17650 0.57928
 C221 C 0.56854 0.16397 0.56495
 C222 C 0.58334 0.16744 0.55357
 H223 H 0.60079 0.20696 0.57306
 H224 H 0.55430 0.17370 0.58822
 H225 H 0.58586 0.15782 0.54263
 C226 C 0.06547 0.53994 0.69090
 C227 C 0.06023 0.55517 0.70195
 C228 C 0.04445 0.56603 0.69788
 C229 C 0.03424 0.56190 0.68234
 C230 C 0.03949 0.54689 0.67116
 C231 C 0.05525 0.53629 0.67539
 H232 H 0.06768 0.55780 0.71423
 H233 H 0.02182 0.56987 0.67936
 H234 H 0.05936 0.52477 0.66665
 C235 C 0.66982 0.55988 0.04200
 C236 C 0.68020 0.57661 0.04171
 C237 C 0.69381 0.58006 0.05462
 C238 C 0.69698 0.56645 0.06793
 C239 C 0.68670 0.54969 0.06862
 C240 C 0.67319 0.54649 0.05552
 H241 H 0.67760 0.58706 0.03145
 H242 H 0.70742 0.56902 0.07794
 H243 H 0.66517 0.53365 0.05595
 C244 C 0.05127 0.70160 0.60746
 C245 C 0.06585 0.71021 0.59848
 C246 C 0.06705 0.70883 0.57974
 C247 C 0.05330 0.69886 0.57035
 C248 C 0.03848 0.69072 0.57922
 C249 C 0.03758 0.69231 0.59771
 H250 H 0.07634 0.71747 0.60608
 H251 H 0.05428 0.69695 0.55609
 H252 H 0.02654 0.68547 0.60477
 C253 C 0.58412 1.04682 0.65489
 C254 C 0.58073 1.06615 0.65806
 C255 C 0.58381 1.07443 0.67491
 C256 C 0.59150 1.06284 0.68838
 C257 C 0.59556 1.04358 0.68519
 C258 C 0.59082 1.03541 0.66874
 H259 H 0.57445 1.07423 0.64738
 H260 H 0.59546 1.06888 0.70107
 H261 H 0.59435 1.02070 0.66603
 C262 C 0.45402 0.33849 0.92064
 C263 C 0.45593 0.32727 0.90513
 C264 C 0.44952 0.30856 0.90453
 C265 C 0.44088 0.30111 0.91945
 C266 C 0.43845 0.31203 0.93485
 C267 C 0.44493 0.33074 0.93543
 H268 H 0.46220 0.33312 0.89336
 H269 H 0.43593 0.28665 0.91909
 H270 H 0.44333 0.33892 0.94755
 C271 C 0.91549 0.46412 0.33475
 C272 C 0.90058 0.46884 0.32339
 C273 C 0.89764 0.45953 0.30715
 C274 C 0.90989 0.44542 0.30163
 C275 C 0.92538 0.44093 0.31205
 C276 C 0.92792 0.45003 0.32864
 H277 H 0.89134 0.48041 0.32653
 H278 H 0.90793 0.43882 0.28872
 H279 H 0.93946 0.44559 0.33676
 C280 C 0.31303 0.94404 0.42184
 C281 C 0.33072 0.94504 0.42945
 C282 C 0.33501 0.93531 0.44523
 C283 C 0.32137 0.92470 0.45353
 C284 C 0.30386 0.92271 0.44584
 C285 C 0.29979 0.93257 0.43000
 H286 H 0.34132 0.95302 0.42287
 H287 H 0.32449 0.91801 0.46616
 H288 H 0.28633 0.93135 0.42398
 O289 O 0.19053 0.49026 0.72658
 O290 O 0.19867 0.48937 0.75737
 O291 O 0.23666 0.51442 0.70195
 O292 O 0.26709 0.50989 0.70230
 O293 O 0.21310 0.46579 0.67972
 O294 O 0.21486 0.43274 0.68625
 O295 O 0.28799 0.46320 0.74790
 O296 O 0.28273 0.49626 0.74488
 O297 O 0.24193 0.44150 0.77302
 O298 O 0.20904 0.44230 0.76751
 O299 O 0.26274 0.41514 0.72699
 O300 O 0.26090 0.42051 0.69603
 O301 O 0.28734 0.44083 0.72604
 O302 O 0.27806 0.44253 0.69328
 O303 O 0.24288 0.41611 0.75016
 O304 O 0.20823 0.42256 0.74784
 O305 O 0.26435 0.46370 0.77246
 O306 O 0.26218 0.49769 0.76630
 O307 O 0.18894 0.46610 0.70645
 O308 O 0.19631 0.43252 0.70737
 O309 O 0.23682 0.48655 0.67816
 O310 O 0.26971 0.48504 0.68506
 O311 O 0.21614 0.51603 0.72461
 O312 O 0.21990 0.50968 0.75633
 Zr313 Zr 0.21762 0.48875 0.73622
 O314 O 0.23407 0.47170 0.75304
 Zr315 Zr 0.24832 0.48724 0.70392
 O316 O 0.26656 0.47096 0.71961
 Zr317 Zr 0.21571 0.45456 0.70561
 O318 O 0.23280 0.43636 0.72071
 Zr319 Zr 0.26179 0.47578 0.74684
 O320 O 0.24539 0.49436 0.73107
 Zr321 Zr 0.22960 0.44276 0.74779
 O322 O 0.21109 0.45981 0.73280
 Zr323 Zr 0.26050 0.44217 0.71559
 O324 O 0.24336 0.45842 0.69856
 O325 O 0.22072 0.48322 0.70923
 O326 O 0.25732 0.44693 0.74278
 C327 C 0.18179 0.47996 0.71528
 C328 C 0.22425 0.52306 0.71101
 C329 C 0.22317 0.47762 0.67132
 C330 C 0.29549 0.44997 0.73858
 C331 C 0.25542 0.45039 0.78014
 C332 C 0.25532 0.40787 0.74078
 H333 H 0.23138 0.47488 0.76556
 H334 H 0.22980 0.42299 0.71804
 H335 H 0.21248 0.49107 0.70167
 H336 H 0.27933 0.47403 0.71643
 H337 H 0.27709 0.50769 0.73939
 H338 H 0.27786 0.50641 0.70972
 H339 H 0.21131 0.41248 0.73915
 H340 H 0.19092 0.43342 0.71940
 H341 H 0.25117 0.49648 0.77379
 H342 H 0.23178 0.51607 0.75450
 H343 H 0.24844 0.41510 0.69543
 H344 H 0.22670 0.43314 0.67991
 H345 H 0.19273 0.47678 0.75746
 H346 H 0.20971 0.45441 0.77416
 H347 H 0.26765 0.47325 0.67816
 H348 H 0.28756 0.45223 0.69548
 O349 O 0.19346 0.02898 0.26643
 O350 O 0.20753 0.02985 0.29545
 O351 O 0.23598 0.05420 0.23450
 O352 O 0.26618 0.04826 0.23009
 O353 O 0.20993 0.00320 0.21588
 O354 O 0.21127 -0.02950 0.22467
 O355 O 0.29312 0.00163 0.27274
 O356 O 0.28785 0.03548 0.26779
 O357 O 0.25328 -0.01781 0.30498
 O358 O 0.21883 -0.01469 0.30527
 O359 O 0.26372 -0.04632 0.25736
 O360 O 0.25553 -0.03970 0.22548
 O361 O 0.28851 -0.02138 0.25195
 O362 O 0.27603 -0.02132 0.22195
 O363 O 0.24580 -0.04452 0.28198
 O364 O 0.21456 -0.03600 0.28835
 O365 O 0.27389 0.00557 0.30017
 O366 O 0.27247 0.03774 0.29318
 O367 O 0.18916 0.00647 0.24507
 O368 O 0.19517 -0.02697 0.24728
 O369 O 0.23103 0.02623 0.21119
 O370 O 0.26394 0.02320 0.21192
 O371 O 0.21752 0.05496 0.25882
 O372 O 0.22702 0.05079 0.28950
 Zr373 Zr 0.22196 0.02857 0.27118
 O374 O 0.24131 0.01235 0.28561
 Zr375 Zr 0.24706 0.02636 0.23457
 O376 O 0.26746 0.00968 0.24731
 Zr377 Zr 0.21520 -0.00621 0.24206
 O378 O 0.23403 -0.02404 0.25534
 Zr379 Zr 0.26753 0.01558 0.27466
 O380 O 0.24856 0.03399 0.26168
 Zr381 Zr 0.23565 -0.01661 0.28246
 O382 O 0.21492 -0.00030 0.26958
 Zr383 Zr 0.26053 -0.01924 0.24560
 O384 O 0.24133 -0.00272 0.23092
 O385 O 0.22070 0.02251 0.24411
 O386 O 0.26215 -0.01341 0.27281
 C387 C 0.18330 0.01971 0.25543
 C388 C 0.22420 0.06241 0.24471
 C389 C 0.21755 0.01583 0.20612
 C390 C 0.29862 -0.01240 0.26313
 C391 C 0.26712 -0.00768 0.30970
 C392 C 0.25623 -0.05360 0.27116
 H393 H 0.24100 0.01622 0.29825
 H394 H 0.23009 -0.03730 0.25354
 H395 H 0.21144 0.03017 0.23756
 H396 H 0.27962 0.01222 0.24213
 H397 H 0.28132 0.04705 0.26364
 H398 H 0.27838 0.04354 0.23396
 H399 H 0.21164 -0.04291 0.27723
 H400 H 0.19134 -0.02508 0.25978
 H401 H 0.26095 0.04006 0.29971
 H402 H 0.23799 0.05756 0.28522
 H403 H 0.24568 -0.04812 0.22968
 H404 H 0.22184 -0.02969 0.21648
 H405 H 0.20178 0.01729 0.29700
 H406 H 0.22313 -0.00390 0.31260
 H407 H 0.26138 0.01051 0.20682
 H408 H 0.28337 -0.00964 0.22093
 O409 O 0.52596 0.70407 0.25267
 O410 O 0.51847 0.69825 0.28277
 O411 O 0.47656 0.68486 0.22551
 O412 O 0.44655 0.69223 0.22675
 O413 O 0.50201 0.73696 0.21059
 O414 O 0.50168 0.76844 0.22328
 O415 O 0.42981 0.72883 0.27889
 O416 O 0.43400 0.69696 0.26997
 O417 O 0.47593 0.74463 0.30720
 O418 O 0.51031 0.74009 0.30128
 O419 O 0.45821 0.78043 0.26777
 O420 O 0.45858 0.77967 0.23493
 O421 O 0.43164 0.75694 0.26426
 O422 O 0.43765 0.76147 0.23180
 O423 O 0.48063 0.77426 0.28817
 O424 O 0.51207 0.76436 0.28757
 O425 O 0.45334 0.72317 0.30240
 O426 O 0.45457 0.69070 0.29069
 O427 O 0.52732 0.73046 0.23536
 O428 O 0.52200 0.76310 0.24270
 O429 O 0.47806 0.71700 0.20609
 O430 O 0.44622 0.71987 0.21300
 O431 O 0.49780 0.67886 0.24723
 O432 O 0.49755 0.67949 0.27872
 Zr433 Zr 0.49898 0.70386 0.26245
 O434 O 0.48348 0.71747 0.28231
 Zr435 Zr 0.46720 0.71262 0.23149
 O436 O 0.45028 0.72681 0.25001
 Zr437 Zr 0.50114 0.74296 0.23808
 O438 O 0.48584 0.75843 0.25698
 Zr439 Zr 0.45556 0.71606 0.27552
 O440 O 0.47088 0.70034 0.25681
 Zr441 Zr 0.48942 0.74653 0.28245
 O442 O 0.50659 0.73255 0.26388
 Zr443 Zr 0.45756 0.75566 0.25176
 O444 O 0.47305 0.74187 0.23153
 O445 O 0.49520 0.71420 0.23677
 O446 O 0.46136 0.74497 0.27729
 C447 C 0.53457 0.71565 0.24258
 C448 C 0.48811 0.67395 0.23365
 C449 C 0.49155 0.72687 0.20055
 C450 C 0.42312 0.74492 0.27400
 C451 C 0.46202 0.73496 0.31230
 C452 C 0.46852 0.78518 0.28100
 H453 H 0.48612 0.71165 0.29399
 H454 H 0.48984 0.77180 0.25657
 H455 H 0.50273 0.70725 0.22794
 H456 H 0.43725 0.72519 0.24667
 H457 H 0.43917 0.68674 0.26239
 H458 H 0.43576 0.69589 0.23393
 H459 H 0.51284 0.77338 0.27753
 H460 H 0.52816 0.75942 0.25398
 H461 H 0.46509 0.69048 0.29907
 H462 H 0.48478 0.67489 0.27780
 H463 H 0.47036 0.78612 0.23728
 H464 H 0.48970 0.76947 0.21705
 H465 H 0.52423 0.71055 0.28571
 H466 H 0.50618 0.72934 0.30865
 H467 H 0.44775 0.73346 0.21012
 H468 H 0.42881 0.75089 0.23163
 O469 O 0.00472 0.68630 0.76168
 O470 O -0.02618 0.69602 0.76613
 O471 O 0.02646 0.73578 0.73493
 O472 O 0.02654 0.76692 0.74071
 O473 O 0.05798 0.70969 0.77580
 O474 O 0.05634 0.70875 0.80737
 O475 O -0.01023 0.78604 0.79335
 O476 O -0.01288 0.78205 0.76136
 O477 O -0.03293 0.73670 0.81474
 O478 O -0.02690 0.70300 0.81247
 O479 O 0.01865 0.75772 0.83236
 O480 O 0.05007 0.75468 0.82102
 O481 O 0.01579 0.78396 0.81008
 O482 O 0.04815 0.77509 0.80247
 O483 O -0.00554 0.73776 0.83451
 O484 O -0.00347 0.70178 0.82724
 O485 O -0.03582 0.76148 0.79562
 O486 O -0.03613 0.76207 0.76470
 O487 O 0.03134 0.68389 0.77759
 O488 O 0.03483 0.68897 0.80943
 O489 O 0.05556 0.73482 0.75685
 O490 O 0.04880 0.76844 0.76046
 O491 O 0.00453 0.71315 0.73752
 O492 O -0.02700 0.71803 0.74769
 Zr493 Zr -0.00369 0.71465 0.76435
 O494 O -0.01754 0.73083 0.78368
 Zr495 Zr 0.02927 0.74635 0.76103
 O496 O 0.01667 0.76432 0.77987
 Zr497 Zr 0.03332 0.71078 0.79019
 O498 O 0.02135 0.72746 0.81049
 Zr499 Zr -0.01179 0.75974 0.78014
 O500 O 0.00050 0.74366 0.75937
 Zr501 Zr -0.00724 0.72462 0.80924
 O502 O 0.00479 0.70634 0.79008
 Zr503 Zr 0.02581 0.75637 0.80542
 O504 O 0.03980 0.73963 0.78644
 O505 O 0.02463 0.71754 0.76466
 O506 O -0.00260 0.75347 0.80575
 C507 C 0.01875 0.67697 0.76741
 C508 C 0.01660 0.72228 0.72859
 C509 C 0.06434 0.72080 0.76384
 C510 C 0.00154 0.79295 0.80436
 C511 C -0.04177 0.75097 0.80827
 C512 C 0.00539 0.75031 0.84097
 H513 H -0.03081 0.72821 0.78269
 H514 H 0.02630 0.72364 0.82223
 H515 H 0.03109 0.70940 0.75592
 H516 H 0.01945 0.77771 0.77711
 H517 H -0.01065 0.77629 0.74952
 H518 H 0.01991 0.77791 0.74587
 H519 H 0.00627 0.70526 0.83585
 H520 H 0.02237 0.68357 0.81024
 H521 H -0.04031 0.74905 0.76208
 H522 H -0.02529 0.72995 0.74096
 H523 H 0.04948 0.74302 0.82828
 H524 H 0.06225 0.72135 0.80722
 H525 H -0.02472 0.68918 0.77755
 H526 H -0.03585 0.70420 0.80256
 H527 H 0.05749 0.76616 0.77042
 H528 H 0.04452 0.78493 0.79373
 O529 O 0.05094 0.04257 -0.00234
 O530 O 0.03883 0.04042 -0.03179
 O531 O 0.00989 0.07199 0.02636
 O532 O -0.01978 0.06880 0.03203
 O533 O 0.03367 0.02059 0.04809
 O534 O 0.03088 -0.01200 0.04205
 O535 O -0.04896 0.02015 -0.01026
 O536 O -0.04339 0.05343 -0.00742
 O537 O -0.00899 -0.00399 -0.03966
 O538 O 0.02411 -0.00578 -0.03898
 O539 O -0.02477 -0.02624 0.00915
 O540 O -0.01533 -0.01950 0.04095
 O541 O -0.04657 0.00002 0.01328
 O542 O -0.03354 0.00211 0.04395
 O543 O -0.00719 -0.02890 -0.01562
 O544 O 0.02748 -0.02443 -0.01869
 O545 O -0.02966 0.02010 -0.03655
 O546 O -0.02488 0.05460 -0.03099
 O547 O 0.05454 0.02029 0.01926
 O548 O 0.04613 -0.01331 0.01856
 O549 O 0.01367 0.04518 0.05184
 O550 O -0.02014 0.04459 0.05029
 O551 O 0.02631 0.07018 0.00077
 O552 O 0.01911 0.06184 -0.02958
 Zr553 Zr 0.02282 0.04231 -0.00850
 O554 O 0.00314 0.02602 -0.02204
 Zr555 Zr -0.00231 0.04504 0.02816
 O556 O -0.02363 0.02941 0.01593
 Zr557 Zr 0.02778 0.00963 0.02280
 O558 O 0.00770 -0.00791 0.01112
 Zr559 Zr -0.02293 0.03254 -0.01188
 O560 O -0.00339 0.05044 0.00049
 Zr561 Zr 0.00712 -0.00296 -0.01641
 O562 O 0.02852 0.01322 -0.00493
 Zr563 Zr -0.01847 0.00037 0.02001
 O564 O 0.00188 0.01605 0.03366
 O565 O 0.02374 0.03856 0.01893
 O566 O -0.01907 0.00369 -0.00747
 C567 C 0.06081 0.03324 0.00893
 C568 C 0.02035 0.07920 0.01447
 C569 C 0.02677 0.03422 0.05732
 C570 C -0.05555 0.00775 0.00037
 C571 C -0.02273 0.00600 -0.04514
 C572 C -0.01951 -0.03500 -0.00494
 H573 H 0.00399 0.02864 -0.03492
 H574 H 0.01039 -0.02136 0.01387
 H575 H 0.03312 0.04642 0.02496
 H576 H -0.03570 0.03340 0.02064
 H577 H -0.03703 0.06472 -0.00259
 H578 H -0.03178 0.06567 0.02660
 H579 H 0.02580 -0.03353 -0.00885
 H580 H 0.05034 -0.01234 0.00610
 H581 H -0.01635 0.05159 -0.04079
 H582 H 0.00786 0.06925 -0.02688
 H583 H -0.00672 -0.02953 0.03696
 H584 H 0.01930 -0.01215 0.04883
 H585 H 0.04427 0.02749 -0.03193
 H586 H 0.02359 0.00641 -0.04546
 H587 H -0.01743 0.03276 0.05692
 H588 H -0.04145 0.01358 0.04329
 O589 O 0.02108 0.55670 0.50531
 O590 O 0.01479 0.56130 0.47431
 O591 O -0.02907 0.57327 0.52984
 O592 O -0.05824 0.56454 0.52974
 O593 O -0.00211 0.51976 0.54485
 O594 O 0.00087 0.48968 0.53088
 O595 O -0.07305 0.52941 0.47483
 O596 O -0.07039 0.56109 0.48462
 O597 O -0.02783 0.51318 0.44821
 O598 O 0.00675 0.52087 0.45382
 O599 O -0.04315 0.47818 0.48672
 O600 O -0.04390 0.47827 0.51899
 O601 O -0.07019 0.50092 0.48871
 O602 O -0.06476 0.49717 0.52244
 O603 O -0.02039 0.48470 0.46716
 O604 O 0.01036 0.49605 0.46757
 O605 O -0.05001 0.53550 0.45247
 O606 O -0.04916 0.56857 0.46508
 O607 O 0.02377 0.52944 0.52135
 O608 O 0.02035 0.49671 0.51202
 O609 O -0.02499 0.54135 0.54951
 O610 O -0.05756 0.53638 0.54157
 O611 O -0.00681 0.57979 0.50972
 O612 O -0.00779 0.57985 0.47763
 Zr613 Zr -0.00520 0.55538 0.49371
 O614 O -0.02002 0.54184 0.47318
 Zr615 Zr -0.03675 0.54517 0.52397
 O616 O -0.05317 0.53137 0.50470
 Zr617 Zr -0.00158 0.51576 0.51715
 O618 O -0.01649 0.50047 0.49794
 Zr619 Zr -0.04796 0.54270 0.47948
 O620 O -0.03342 0.55820 0.49896
 Zr621 Zr -0.01319 0.51286 0.47270
 O622 O 0.00354 0.52690 0.49174
 Zr623 Zr -0.04490 0.50275 0.50273
 O624 O -0.02970 0.51610 0.52342
 O625 O -0.00878 0.54423 0.51906
 O626 O -0.04119 0.51399 0.47756
 C627 C 0.02992 0.54540 0.51576
 C628 C -0.01702 0.58426 0.52297
 C629 C -0.01206 0.53025 0.55498
 C630 C -0.07885 0.51275 0.47856
 C631 C -0.04200 0.52275 0.44300
 C632 C -0.03226 0.47357 0.47402
 H633 H -0.01754 0.54788 0.46162
 H634 H -0.01200 0.48719 0.49839
 H635 H -0.00179 0.55110 0.52837
 H636 H -0.06629 0.53270 0.50769
 H637 H -0.06584 0.57107 0.49281
 H638 H -0.06837 0.56192 0.52128
 H639 H 0.01190 0.48730 0.47776
 H640 H 0.02689 0.50168 0.50154
 H641 H -0.03965 0.56826 0.45577
 H642 H -0.02047 0.58465 0.47920
 H643 H -0.03173 0.47225 0.51733
 H644 H -0.01124 0.48725 0.53624
 H645 H 0.02102 0.54909 0.47165
 H646 H 0.00094 0.52974 0.44524
 H647 H -0.05440 0.52329 0.54534
 H648 H -0.07513 0.50615 0.52073
 O649 O 0.55204 0.02467 0.49385
 O650 O 0.53628 0.03080 0.46631
 O651 O 0.50941 0.03265 0.53219
 O652 O 0.48215 0.02016 0.53846
 O653 O 0.54667 -0.01444 0.53468
 O654 O 0.54661 -0.04527 0.52045
 O655 O 0.45721 -0.01495 0.48495
 O656 O 0.45772 0.01617 0.49733
 O657 O 0.49652 -0.01980 0.44748
 O658 O 0.52961 -0.01208 0.44569
 O659 O 0.49298 -0.06014 0.48659
 O660 O 0.50287 -0.06304 0.51731
 O661 O 0.46689 -0.04204 0.49856
 O662 O 0.48296 -0.04668 0.52880
 O663 O 0.50670 -0.04928 0.46160
 O664 O 0.53879 -0.03616 0.45800
 O665 O 0.47303 -0.00194 0.45851
 O666 O 0.47216 0.02900 0.47446
 O667 O 0.56201 -0.00302 0.50629
 O668 O 0.55934 -0.03585 0.49649
 O669 O 0.52256 0.00161 0.54693
 O670 O 0.48944 -0.00853 0.54742
 O671 O 0.52418 0.04381 0.50782
 O672 O 0.51364 0.04556 0.47702
 Zr673 Zr 0.52368 0.02076 0.48967
 O674 O 0.50574 0.00598 0.47260
 Zr675 Zr 0.50321 0.00435 0.52592
 O676 O 0.48381 -0.01050 0.51035
 Zr677 Zr 0.53824 -0.01952 0.50835
 O678 O 0.52055 -0.03602 0.49253
 Zr679 Zr 0.48046 0.00252 0.48537
 O680 O 0.49780 0.01903 0.50191
 Zr681 Zr 0.51558 -0.02182 0.46844
 O682 O 0.53490 -0.00616 0.48350
 Zr683 Zr 0.49472 -0.03750 0.50465
 O684 O 0.51333 -0.02335 0.52178
 O685 O 0.52847 0.00763 0.51386
 O686 O 0.49001 -0.02478 0.48009
 C687 C 0.56465 0.01395 0.50066
 C688 C 0.51800 0.04570 0.52374
 C689 C 0.53894 -0.00531 0.54745
 C690 C 0.45468 -0.03202 0.49038
 C691 C 0.48083 -0.01155 0.44607
 C692 C 0.49775 -0.06186 0.47023
 H693 H 0.50441 0.01298 0.46128
 H694 H 0.52599 -0.04876 0.49063
 H695 H 0.53706 0.01524 0.52113
 H696 H 0.47196 -0.01124 0.51660
 H697 H 0.46274 0.02612 0.50527
 H698 H 0.47043 0.01649 0.53277
 H699 H 0.54046 -0.04816 0.46465
 H700 H 0.56155 -0.03020 0.48466
 H701 H 0.48016 0.03180 0.46425
 H702 H 0.50192 0.04888 0.48288
 H703 H 0.51516 -0.06648 0.51278
 H704 H 0.53713 -0.04839 0.52931
 H705 H 0.54323 0.01992 0.46131
 H706 H 0.52417 0.00030 0.44223
 H707 H 0.49629 -0.02030 0.55042
 H708 H 0.47181 -0.03895 0.53095
 O709 O 0.54796 0.54755 -0.03026
 O710 O 0.54002 0.55228 -0.06075
 O711 O 0.50084 0.57029 -0.00329
 O712 O 0.47017 0.56535 -0.00481
 O713 O 0.52159 0.51530 0.01303
 O714 O 0.52336 0.48482 -0.00005
 O715 O 0.45045 0.52724 -0.05569
 O716 O 0.45574 0.55918 -0.04712
 O717 O 0.49437 0.50741 -0.08294
 O718 O 0.52939 0.51099 -0.07803
 O719 O 0.47696 0.47474 -0.04258
 O720 O 0.47840 0.47708 -0.00925
 O721 O 0.45171 0.49991 -0.03973
 O722 O 0.45776 0.49602 -0.00740
 O723 O 0.49886 0.47900 -0.06348
 O724 O 0.53077 0.48683 -0.06337
 O725 O 0.47308 0.53071 -0.07899
 O726 O 0.47656 0.56387 -0.06819
 O727 O 0.54822 0.52239 -0.01132
 O728 O 0.54264 0.48974 -0.01915
 O729 O 0.50081 0.53917 0.01701
 O730 O 0.46884 0.53814 0.01033
 O731 O 0.52177 0.57408 -0.02530
 O732 O 0.51985 0.57277 -0.05693
 Zr733 Zr 0.52086 0.54882 -0.04005
 O734 O 0.50426 0.53555 -0.05939
 Zr735 Zr 0.48962 0.54325 -0.00856
 O736 O 0.47163 0.52941 -0.02646
 Zr737 Zr 0.52202 0.51044 -0.01461
 O738 O 0.50564 0.49528 -0.03282
 Zr739 Zr 0.47660 0.53892 -0.05239
 O740 O 0.49309 0.55436 -0.03431
 Zr741 Zr 0.50903 0.50621 -0.05861
 O742 O 0.52729 0.51969 -0.04068
 Zr743 Zr 0.47774 0.50009 -0.02731
 O744 O 0.49424 0.51363 -0.00778
 O745 O 0.51731 0.53952 -0.01401
 O746 O 0.48132 0.50969 -0.05312
 C747 C 0.55597 0.53646 -0.01902
 C748 C 0.51305 0.57995 -0.01151
 C749 C 0.51236 0.52681 0.02287
 C750 C 0.44351 0.51160 -0.05031
 C751 C 0.48056 0.51746 -0.08823
 C752 C 0.48652 0.46901 -0.05593
 H753 H 0.50680 0.54075 -0.07130
 H754 H 0.50908 0.48170 -0.03202
 H755 H 0.52516 0.54606 -0.00515
 H756 H 0.45875 0.53190 -0.02312
 H757 H 0.46149 0.56955 -0.04018
 H758 H 0.45883 0.56179 -0.01127
 H759 H 0.53167 0.47840 -0.05288
 H760 H 0.54881 0.49331 -0.03034
 H761 H 0.48635 0.56271 -0.07716
 H762 H 0.50739 0.57830 -0.05576
 H763 H 0.48879 0.46871 -0.01259
 H764 H 0.51109 0.48305 0.00521
 H765 H 0.54532 0.53955 -0.06312
 H766 H 0.52485 0.52096 -0.08625
 H767 H 0.46957 0.52448 0.01335
 H768 H 0.44966 0.50734 -0.00722
 O769 O 0.81677 0.24437 0.48006
 O770 O 0.81447 0.21177 0.48599
 O771 O 0.77181 0.25669 0.44631
 O772 O 0.73990 0.25056 0.44762
 O773 O 0.78229 0.29345 0.48973
 O774 O 0.77849 0.29204 0.52061
 O775 O 0.72206 0.20941 0.49611
 O776 O 0.73189 0.20489 0.46654
 O777 O 0.76829 0.19639 0.52743
 O778 O 0.79842 0.20831 0.53068
 O779 O 0.73494 0.24457 0.53817
 O780 O 0.73302 0.27680 0.52615
 O781 O 0.71526 0.23550 0.51267
 O782 O 0.71792 0.27052 0.50423
 O783 O 0.75848 0.22471 0.54546
 O784 O 0.79318 0.23351 0.54339
 O785 O 0.74916 0.18908 0.50443
 O786 O 0.75601 0.19048 0.47075
 O787 O 0.81113 0.27140 0.49582
 O788 O 0.80017 0.27309 0.52705
 O789 O 0.76232 0.28671 0.46716
 O790 O 0.73232 0.27310 0.46352
 O791 O 0.79521 0.23615 0.45263
 O792 O 0.79650 0.20425 0.46558
 Zr793 Zr 0.79197 0.22976 0.47985
 O794 O 0.77637 0.21274 0.49688
 Zr795 Zr 0.75644 0.25759 0.46987
 O796 O 0.73885 0.24120 0.48563
 Zr797 Zr 0.78360 0.26811 0.50431
 O798 O 0.76651 0.25305 0.52187
 Zr799 Zr 0.74908 0.21329 0.48791
 O800 O 0.76503 0.22894 0.46979
 Zr801 Zr 0.77538 0.22466 0.52261
 O802 O 0.79350 0.24005 0.50620
 Zr803 Zr 0.73953 0.25183 0.51169
 O804 O 0.75595 0.26934 0.49561
 O805 O 0.78358 0.25801 0.47834
 O806 O 0.74828 0.22372 0.51379
 C807 C 0.82165 0.26042 0.48657
 C808 C 0.78624 0.24718 0.44200
 C809 C 0.77255 0.29814 0.47611
 C810 C 0.71128 0.21914 0.50607
 C811 C 0.75753 0.18506 0.51910
 C812 C 0.74316 0.23316 0.54887
 H813 H 0.78162 0.19975 0.49699
 H814 H 0.76689 0.25895 0.53381
 H815 H 0.79122 0.26595 0.47053
 H816 H 0.72631 0.24147 0.48053
 H817 H 0.72606 0.21654 0.46175
 H818 H 0.74310 0.23732 0.44435
 H819 H 0.78643 0.24263 0.55101
 H820 H 0.80884 0.26225 0.52799
 H821 H 0.76579 0.18290 0.47662
 H822 H 0.78606 0.20284 0.45720
 H823 H 0.74285 0.27879 0.53509
 H824 H 0.76534 0.29525 0.51897
 H825 H 0.81830 0.21493 0.49832
 H826 H 0.80187 0.20018 0.52047
 H827 H 0.72970 0.28135 0.47390
 H828 H 0.71053 0.26421 0.49487
 O829 O 0.74229 0.78265 -0.02914
 O830 O 0.71155 0.78285 -0.01829
 O831 O 0.77203 0.81313 0.00997
 O832 O 0.77594 0.81144 0.03979
 O833 O 0.79361 0.75933 -0.00833
 O834 O 0.78556 0.72737 -0.00494
 O835 O 0.73238 0.76869 0.06914
 O836 O 0.73461 0.80043 0.06046
 O837 O 0.70111 0.74127 0.03032
 O838 O 0.70216 0.73885 -0.00226
 O839 O 0.75162 0.71601 0.04575
 O840 O 0.78381 0.72371 0.04153
 O841 O 0.75069 0.74249 0.06737
 O842 O 0.78486 0.74625 0.05850
 O843 O 0.72560 0.71491 0.02895
 O844 O 0.72169 0.71867 -0.00375
 O845 O 0.70522 0.76557 0.04992
 O846 O 0.71061 0.79995 0.04211
 O847 O 0.76443 0.75978 -0.03033
 O848 O 0.76205 0.72684 -0.02076
 O849 O 0.79723 0.78513 0.00962
 O850 O 0.79478 0.78669 0.04187
 O851 O 0.74609 0.81158 -0.00700
 O852 O 0.71446 0.80550 -0.00061
 Zr853 Zr 0.73536 0.78458 -0.00214
 O854 O 0.72028 0.77018 0.01727
 Zr855 Zr 0.77236 0.78697 0.02379
 O856 O 0.75871 0.77293 0.04471
 Zr857 Zr 0.76672 0.75032 -0.00376
 O858 O 0.75337 0.73453 0.01590
 Zr859 Zr 0.73033 0.77761 0.04259
 O860 O 0.74412 0.79377 0.02320
 Zr861 Zr 0.72514 0.74084 0.01502
 O862 O 0.73830 0.75513 -0.00600
 Zr863 Zr 0.76176 0.74342 0.04145
 O864 O 0.77706 0.75746 0.02162
 O865 O 0.76351 0.77953 -0.00157
 O866 O 0.73366 0.74829 0.04055
 C867 C 0.75405 0.77247 -0.03762
 C868 C 0.76046 0.82019 -0.00132
 C869 C 0.80314 0.77296 -0.00183
 C870 C 0.73968 0.75365 0.07580
 C871 C 0.69607 0.75157 0.04357
 C872 C 0.73726 0.70752 0.03989
 H873 H 0.70711 0.77330 0.01588
 H874 H 0.75604 0.72094 0.01377
 H875 H 0.77034 0.78647 -0.01080
 H876 H 0.76336 0.77727 0.05641
 H877 H 0.73989 0.81091 0.05344
 H878 H 0.77051 0.80874 0.05153
 H879 H 0.73282 0.71056 -0.00329
 H880 H 0.74948 0.72838 -0.02566
 H881 H 0.69998 0.79589 0.03484
 H882 H 0.71688 0.81290 0.01036
 H883 H 0.78174 0.71482 0.03151
 H884 H 0.79306 0.72800 0.00608
 H885 H 0.71100 0.76962 -0.02273
 H886 H 0.69515 0.75089 -0.00140
 H887 H 0.80017 0.77376 0.04144
 H888 H 0.78163 0.75518 0.06819
 O889 O 1.02343 0.23721 0.21573
 O890 O 0.99036 0.23997 0.21860
 O891 O 1.03614 0.29058 0.19111
 O892 O 1.03508 0.32117 0.19717
 O893 O 1.06776 0.26956 0.23698
 O894 O 1.06135 0.27001 0.26868
 O895 O 0.98544 0.33262 0.24329
 O896 O 0.98955 0.32928 0.21108
 O897 O 0.96835 0.28101 0.26177
 O898 O 0.98198 0.24740 0.25997
 O899 O 1.01046 0.31221 0.28487
 O900 O 1.04264 0.31375 0.28193
 O901 O 1.01042 0.33658 0.26115
 O902 O 1.04515 0.33088 0.25989
 O903 O 0.99162 0.28666 0.28538
 O904 O 0.99925 0.25507 0.28272
 O905 O 0.96494 0.30381 0.24057
 O906 O 0.97086 0.30465 0.20948
 O907 O 1.04629 0.24037 0.23627
 O908 O 1.04472 0.24613 0.26828
 O909 O 1.06378 0.29167 0.21530
 O910 O 1.05271 0.32499 0.21968
 O911 O 1.01878 0.26391 0.19140
 O912 O 0.98723 0.26054 0.19868
 Zr913 Zr 1.00869 0.26305 0.21760
 O914 O 0.98947 0.27733 0.23367
 Zr915 Zr 1.03620 0.30047 0.21751
 O916 O 1.01811 0.31637 0.23352
 Zr917 Zr 1.04149 0.26694 0.24824
 O918 O 1.02359 0.28122 0.26583
 Zr919 Zr 0.99116 0.30685 0.22973
 O920 O 1.00892 0.29245 0.21197
 Zr921 Zr 0.99634 0.27339 0.26064
 O922 O 1.01451 0.25703 0.24462
 Zr923 Zr 1.02410 0.31041 0.26037
 O924 O 1.04376 0.29635 0.24437
 O925 O 1.03566 0.27136 0.22144
 O926 O 0.99692 0.30255 0.25647
 C927 C 1.03790 0.23118 0.22391
 C928 C 1.02891 0.27607 0.18346
 C929 C 1.07370 0.27966 0.22404
 C930 C 0.99497 0.34213 0.25469
 C931 C 0.95867 0.29297 0.25276
 C932 C 0.99775 0.30226 0.29193
 H933 H 0.97719 0.27231 0.23076
 H934 H 1.02689 0.27846 0.27837
 H935 H 1.04408 0.26460 0.21328
 H936 H 1.01923 0.33001 0.23067
 H937 H 0.99555 0.32466 0.20008
 H938 H 1.02544 0.33046 0.20046
 H939 H 1.01077 0.24789 0.28093
 H940 H 1.03513 0.23651 0.26618
 H941 H 0.96625 0.29149 0.20950
 H942 H 0.98608 0.27303 0.19273
 H943 H 1.04709 0.30097 0.28532
 H944 H 1.06642 0.28293 0.26750
 H945 H 0.99312 0.23302 0.22975
 H946 H 0.97252 0.24840 0.25049
 H947 H 1.06149 0.32280 0.22960
 H948 H 1.04191 0.34016 0.25048
 O949 O 0.81461 0.98291 0.75991
 O950 O 0.80854 1.01543 0.75227
 O951 O 0.77130 0.96744 0.79299
 O952 O 0.74096 0.96766 0.79216
 O953 O 0.78665 0.93100 0.74911
 O954 O 0.78178 0.93190 0.71831
 O955 O 0.71571 1.00715 0.74175
 O956 O 0.72479 1.01098 0.77161
 O957 O 0.76061 1.02585 0.71170
 O958 O 0.79215 1.01721 0.70875
 O959 O 0.73239 0.97564 0.70054
 O960 O 0.73632 0.94211 0.71147
 O961 O 0.71251 0.97890 0.72740
 O962 O 0.72055 0.94540 0.73298
 O963 O 0.75448 0.99664 0.69311
 O964 O 0.78948 0.99250 0.69530
 O965 O 0.74064 1.03149 0.73420
 O966 O 0.74671 1.03156 0.76639
 O967 O 0.81242 0.95680 0.74212
 O968 O 0.80126 0.95260 0.71187
 O969 O 0.76665 0.93580 0.77186
 O970 O 0.73439 0.94550 0.77373
 O971 O 0.79179 0.99050 0.78645
 O972 O 0.79070 1.02127 0.77306
 Zr973 Zr 0.78836 0.99535 0.75901
 O974 O 0.77050 1.01039 0.74194
 Zr975 Zr 0.75669 0.96382 0.76888
 O976 O 0.73711 0.97795 0.75278
 Zr977 Zr 0.78453 0.95629 0.73451
 O978 O 0.76582 0.96935 0.71672
 Zr979 Zr 0.74329 1.00698 0.75036
 O980 O 0.76142 0.99338 0.76869
 Zr981 Zr 0.77101 0.99854 0.71624
 O982 O 0.79096 0.98524 0.73272
 Zr983 Zr 0.73906 0.96733 0.72666
 O984 O 0.75745 0.95197 0.74316
 O985 O 0.78361 0.96633 0.76059
 O986 O 0.74390 0.99634 0.72452
 C987 C 0.82144 0.96813 0.75232
 C988 C 0.78408 0.97909 0.79736
 C989 C 0.77777 0.92541 0.76278
 C990 C 0.70612 0.99463 0.73346
 C991 C 0.74902 1.03642 0.71993
 C992 C 0.73967 0.98747 0.68976
 H993 H 0.77425 1.02384 0.74188
 H994 H 0.76685 0.96363 0.70475
 H995 H 0.79216 0.95948 0.76867
 H996 H 0.72480 0.97617 0.75792
 H997 H 0.73132 1.00698 0.78260
 H998 H 0.73073 0.97635 0.78903
 H999 H 0.78455 0.98179 0.68824
 H1000 H 0.80758 0.96480 0.70996
 H1001 H 0.75741 1.03864 0.76197
 H1002 H 0.77939 1.02269 0.78017
 H1003 H 0.74462 0.94289 0.70115
 H1004 H 0.76896 0.92766 0.71967
 H1005 H 0.81343 1.01156 0.74054
 H1006 H 0.79451 1.02570 0.71900
 H1007 H 0.73435 0.93585 0.76413
 H1008 H 0.71381 0.94933 0.74378
 O1009 O 0.71710 0.52933 0.21201
 O1010 O 0.74960 0.52666 0.21721
 O1011 O 0.70482 0.47561 0.18798
 O1012 O 0.70714 0.44521 0.19469
 O1013 O 0.67090 0.49804 0.23072
 O1014 O 0.67463 0.49966 0.26220
 O1015 O 0.75172 0.43502 0.24598
 O1016 O 0.75133 0.43737 0.21401
 O1017 O 0.76763 0.48921 0.26372
 O1018 O 0.75533 0.52014 0.26346
 O1019 O 0.72259 0.45747 0.28462
 O1020 O 0.68910 0.45664 0.27586
 O1021 O 0.72576 0.43223 0.26229
 O1022 O 0.69245 0.43597 0.25747
 O1023 O 0.74292 0.48172 0.28568
 O1024 O 0.73234 0.51704 0.27887
 O1025 O 0.77283 0.46388 0.24550
 O1026 O 0.76982 0.46212 0.21351
 O1027 O 0.69243 0.52716 0.23029
 O1028 O 0.69273 0.52319 0.26265
 O1029 O 0.67609 0.47438 0.21062
 O1030 O 0.68752 0.44153 0.21578
 O1031 O 0.72277 0.50187 0.18929
 O1032 O 0.75445 0.50424 0.19919
 Zr1033 Zr 0.73135 0.50350 0.21602
 O1034 O 0.74884 0.49028 0.23461
 Zr1035 Zr 0.70378 0.46627 0.21454
 O1036 O 0.72043 0.45116 0.23274
 Zr1037 Zr 0.69627 0.50122 0.24372
 O1038 O 0.71210 0.48739 0.26351
 Zr1039 Zr 0.74772 0.46055 0.23162
 O1040 O 0.73155 0.47389 0.21151
 Zr1041 Zr 0.73959 0.49522 0.26068
 O1042 O 0.72347 0.51079 0.24208
 Zr1043 Zr 0.71193 0.45805 0.25865
 O1044 O 0.69407 0.47163 0.24039
 O1045 O 0.70412 0.49549 0.21771
 O1046 O 0.73938 0.46590 0.25747
 C1047 C 0.70191 0.53563 0.21837
 C1048 C 0.71260 0.49000 0.18084
 C1049 C 0.66569 0.48682 0.21819
 C1050 C 0.74138 0.42611 0.25694
 C1051 C 0.77809 0.47647 0.25684
 C1052 C 0.73545 0.46685 0.29229
 H1053 H 0.76127 0.49535 0.23272
 H1054 H 0.70750 0.49054 0.27550
 H1055 H 0.69616 0.50186 0.20878
 H1056 H 0.71966 0.43740 0.23022
 H1057 H 0.74616 0.44136 0.20237
 H1058 H 0.71627 0.43595 0.19926
 H1059 H 0.72634 0.51116 0.28923
 H1060 H 0.70382 0.53117 0.26209
 H1061 H 0.77464 0.47520 0.21392
 H1062 H 0.75533 0.49161 0.19342
 H1063 H 0.69000 0.46714 0.28458
 H1064 H 0.67113 0.48613 0.26276
 H1065 H 0.74630 0.53411 0.22793
 H1066 H 0.76179 0.52192 0.25206
 H1067 H 0.67846 0.44357 0.22537
 H1068 H 0.69604 0.42732 0.24768
 O1069 O 0.56720 0.22030 0.74598
 O1070 O 0.55860 0.21220 0.77517
 O1071 O 0.52314 0.20075 0.71379
 O1072 O 0.49229 0.20426 0.71288
 O1073 O 0.54477 0.25475 0.70549
 O1074 O 0.54014 0.28510 0.71907
 O1075 O 0.46783 0.23278 0.76631
 O1076 O 0.47626 0.20268 0.75816
 O1077 O 0.51036 0.25318 0.79914
 O1078 O 0.54385 0.25350 0.79682
 O1079 O 0.49050 0.28828 0.76095
 O1080 O 0.49257 0.29155 0.72972
 O1081 O 0.46753 0.26229 0.75416
 O1082 O 0.47647 0.26946 0.72128
 O1083 O 0.51228 0.28381 0.78239
 O1084 O 0.54626 0.27705 0.78187
 O1085 O 0.48897 0.23137 0.79139
 O1086 O 0.49793 0.19799 0.77841
 O1087 O 0.56779 0.24921 0.73247
 O1088 O 0.55770 0.28135 0.74083
 O1089 O 0.52348 0.23293 0.69731
 O1090 O 0.48959 0.23318 0.70225
 O1091 O 0.54341 0.19451 0.73632
 O1092 O 0.53838 0.19184 0.76854
 Zr1093 Zr 0.53992 0.21750 0.75409
 O1094 O 0.52210 0.22827 0.77366
 Zr1095 Zr 0.51011 0.22612 0.72126
 O1096 O 0.49045 0.23613 0.73952
 Zr1097 Zr 0.54026 0.25898 0.73286
 O1098 O 0.52161 0.27122 0.75089
 Zr1099 Zr 0.49514 0.22424 0.76479
 O1100 O 0.51288 0.21183 0.74582
 Zr1101 Zr 0.52495 0.25787 0.77566
 O1102 O 0.54477 0.24672 0.75805
 Zr1103 Zr 0.49428 0.26537 0.74335
 O1104 O 0.51304 0.25569 0.72369
 O1105 O 0.53713 0.23006 0.72925
 O1106 O 0.49773 0.25341 0.76832
 C1107 C 0.57553 0.23375 0.73795
 C1108 C 0.53596 0.19082 0.72113
 C1109 C 0.53707 0.24385 0.69392
 C1110 C 0.45977 0.24846 0.76237
 C1111 C 0.49612 0.24323 0.80243
 C1112 C 0.49905 0.29326 0.77521
 H1113 H 0.52439 0.22192 0.78518
 H1114 H 0.52394 0.28501 0.75155
 H1115 H 0.54615 0.22483 0.72075
 H1116 H 0.47799 0.23322 0.73506
 H1117 H 0.48242 0.19429 0.74942
 H1118 H 0.48163 0.20456 0.72093
 H1119 H 0.54432 0.28858 0.77457
 H1120 H 0.56412 0.27707 0.75178
 H1121 H 0.50275 0.20045 0.79053
 H1122 H 0.52740 0.18510 0.76408
 H1123 H 0.50489 0.29728 0.73032
 H1124 H 0.52850 0.28562 0.71220
 H1125 H 0.56261 0.22479 0.77952
 H1126 H 0.54280 0.24019 0.80080
 H1127 H 0.49192 0.24636 0.69840
 H1128 H 0.46714 0.25935 0.72149
 O1129 O 0.28625 0.76458 0.49106
 O1130 O 0.28306 0.73031 0.49232
 O1131 O 0.23272 0.77968 0.46872
 O1132 O 0.20330 0.77789 0.47692
 O1133 O 0.25687 0.81033 0.51310
 O1134 O 0.25703 0.80400 0.54488
 O1135 O 0.19370 0.72944 0.51933
 O1136 O 0.19924 0.73106 0.48769
 O1137 O 0.24587 0.70817 0.53887
 O1138 O 0.27760 0.71820 0.53468
 O1139 O 0.22071 0.75291 0.56474
 O1140 O 0.21755 0.78773 0.55821
 O1141 O 0.19377 0.75042 0.54241
 O1142 O 0.19607 0.78468 0.54153
 O1143 O 0.24603 0.73403 0.56268
 O1144 O 0.27792 0.73901 0.55274
 O1145 O 0.22148 0.70557 0.52010
 O1146 O 0.22095 0.70862 0.49042
 O1147 O 0.28511 0.78671 0.51312
 O1148 O 0.28005 0.78602 0.54423
 O1149 O 0.23300 0.80759 0.49361
 O1150 O 0.20160 0.79655 0.49900
 O1151 O 0.25893 0.76200 0.46747
 O1152 O 0.26233 0.72872 0.47325
 Zr1153 Zr 0.26109 0.75007 0.49307
 O1154 O 0.24843 0.72997 0.50955
 Zr1155 Zr 0.22504 0.77900 0.49567
 O1156 O 0.21102 0.76031 0.51253
 Zr1157 Zr 0.25928 0.78322 0.52463
 O1158 O 0.24701 0.76448 0.54264
 Zr1159 Zr 0.21974 0.73231 0.50775
 O1160 O 0.23237 0.75074 0.48927
 Zr1161 Zr 0.25441 0.73642 0.53623
 O1162 O 0.26870 0.75535 0.51968
 Zr1163 Zr 0.21838 0.76543 0.53927
 O1164 O 0.23062 0.78588 0.52247
 O1165 O 0.25344 0.77800 0.49796
 O1166 O 0.22580 0.73725 0.53451
 C1167 C 0.29329 0.77814 0.50031
 C1168 C 0.24649 0.77259 0.46032
 C1169 C 0.24587 0.81706 0.50119
 C1170 C 0.18613 0.73764 0.53273
 C1171 C 0.23268 0.69876 0.53177
 C1172 C 0.23265 0.74135 0.57137
 H1173 H 0.25255 0.71703 0.50627
 H1174 H 0.25084 0.76798 0.55485
 H1175 H 0.25975 0.78675 0.48978
 H1176 H 0.19772 0.76199 0.51032
 H1177 H 0.20485 0.73552 0.47649
 H1178 H 0.19578 0.76678 0.47999
 H1179 H 0.27575 0.74970 0.56105
 H1180 H 0.28754 0.77425 0.54373
 H1181 H 0.23168 0.71053 0.48273
 H1182 H 0.25038 0.72891 0.46691
 H1183 H 0.22913 0.78730 0.56516
 H1184 H 0.24433 0.80906 0.54428
 H1185 H 0.29003 0.73194 0.50358
 H1186 H 0.27623 0.71021 0.52391
 H1187 H 0.20363 0.80406 0.50999
 H1188 H 0.18853 0.78349 0.53059
 O1189 O 0.29951 0.30288 1.00582
 O1190 O 0.30310 0.29656 1.03691
 O1191 O 0.32570 0.25109 0.98497
 O1192 O 0.31976 0.22060 0.98251
 O1193 O 0.27243 0.27257 0.96239
 O1194 O 0.24189 0.27219 0.97325
 O1195 O 0.28242 0.20266 1.03505
 O1196 O 0.31359 0.20903 1.02809
 O1197 O 0.26210 0.25158 1.05958
 O1198 O 0.26140 0.28593 1.05156
 O1199 O 0.23235 0.22615 1.01819
 O1200 O 0.23496 0.22641 0.98532
 O1201 O 0.25752 0.20158 1.01669
 O1202 O 0.25528 0.20679 0.98383
 O1203 O 0.23520 0.24911 1.03934
 O1204 O 0.23925 0.28391 1.03539
 O1205 O 0.28451 0.22906 1.05788
 O1206 O 0.31623 0.23164 1.04828
 O1207 O 0.27589 0.30098 0.98592
 O1208 O 0.24429 0.29374 0.99204
 O1209 O 0.29679 0.25226 0.96088
 O1210 O 0.29452 0.21798 0.96901
 O1211 O 0.32634 0.27704 1.00309
 O1212 O 0.32406 0.27632 1.03469
 Zr1213 Zr 0.30150 0.27550 1.01687
 O1214 O 0.28837 0.25909 1.03625
 Zr1215 Zr 0.29872 0.24090 0.98685
 O1216 O 0.28547 0.22288 1.00502
 Zr1217 Zr 0.26563 0.27343 0.98952
 O1218 O 0.25076 0.25690 1.00767
 Zr1219 Zr 0.29297 0.23006 1.03120
 O1220 O 0.30801 0.24654 1.01297
 Zr1221 Zr 0.25991 0.26268 1.03369
 O1222 O 0.27314 0.28098 1.01569
 Zr1223 Zr 0.25699 0.22802 1.00377
 O1224 O 0.27013 0.24448 0.98411
 O1225 O 0.29394 0.26972 0.99067
 O1226 O 0.26464 0.23376 1.02999
 C1227 C 0.28886 0.31003 0.99383
 C1228 C 0.33371 0.26556 0.99190
 C1229 C 0.28506 0.26375 0.95377
 C1230 C 0.26832 0.19425 1.02845
 C1231 C 0.27222 0.23844 1.06644
 C1232 C 0.22675 0.23519 1.03202
 H1233 H 0.29277 0.26292 1.04819
 H1234 H 0.23750 0.25949 1.00620
 H1235 H 0.30064 0.27765 0.98205
 H1236 H 0.28865 0.20950 1.00241
 H1237 H 0.32353 0.21486 1.02111
 H1238 H 0.31868 0.21093 0.99195
 H1239 H 0.23003 0.28139 1.02597
 H1240 H 0.24621 0.30013 1.00365
 H1241 H 0.31547 0.24362 1.05513
 H1242 H 0.33015 0.26373 1.03397
 H1243 H 0.22675 0.23742 0.98744
 H1244 H 0.24151 0.25918 0.96826
 H1245 H 0.29073 0.30239 1.03775
 H1246 H 0.27294 0.28467 1.05847
 H1247 H 0.28252 0.22017 0.96309
 H1248 H 0.26640 0.19870 0.98475
 C1249 C 0.28947 0.34801 0.78326
 C1250 C 0.28975 0.34240 0.76571
 C1251 C 0.29898 0.32621 0.75997
 C1252 C 0.30828 0.31532 0.77283
 C1253 C 0.30838 0.32084 0.79105
 C1254 C 0.29870 0.33745 0.79628
 O1255 O 0.28038 0.36420 0.78582
 C1256 C 0.27485 0.36891 0.76952
 C1257 C 0.28025 0.35606 0.75674
 C1258 C 0.27688 0.35878 0.73867
 C1259 C 0.26789 0.37562 0.73355
 C1260 C 0.26231 0.38916 0.74648
 C1261 C 0.26556 0.38555 0.76475
 H1262 H 0.29905 0.32210 0.74608
 H1263 H 0.31525 0.30247 0.76860
 H1264 H 0.29867 0.34222 0.80999
 H1265 H 0.28149 0.34858 0.72883
 H1266 H 0.26562 0.37834 0.71952
 H1267 H 0.26201 0.39590 0.77481
 C1268 C 0.28287 -0.12930 0.29107
 C1269 C 0.26405 -0.12931 0.28986
 C1270 C 0.25334 -0.14384 0.29635
 C1271 C 0.26230 -0.15885 0.30495
 C1272 C 0.28176 -0.15933 0.30683
 C1273 C 0.29224 -0.14460 0.29904
 O1274 O 0.29011 -0.11298 0.28573
 C1275 C 0.27549 -0.10256 0.28115
 C1276 C 0.25927 -0.11208 0.28338
 C1277 C 0.24217 -0.10364 0.28104
 C1278 C 0.24166 -0.08446 0.27645
 C1279 C 0.25805 -0.07411 0.27424
 C1280 C 0.27530 -0.08333 0.27626
 H1281 H 0.23853 -0.14332 0.29541
 H1282 H 0.25394 -0.17016 0.31015
 H1283 H 0.30701 -0.14415 0.30059
 H1284 H 0.22964 -0.11140 0.28325
 H1285 H 0.22843 -0.07748 0.27495
 H1286 H 0.28798 -0.07555 0.27510
 C1287 C 0.80472 0.85162 0.78751
 C1288 C 0.78628 0.85032 0.78377
 C1289 C 0.77578 0.83493 0.78872
 C1290 C 0.78434 0.82075 0.79886
 C1291 C 0.80309 0.82224 0.80416
 C1292 C 0.81368 0.83739 0.79731
 O1293 O 0.81165 0.86838 0.78316
 C1294 C 0.79721 0.87786 0.77676
 C1295 C 0.78135 0.86741 0.77695
 C1296 C 0.76421 0.87510 0.77292
 C1297 C 0.76336 0.89436 0.76840
 C1298 C 0.77949 0.90538 0.76780
 C1299 C 0.79673 0.89700 0.77180
 H1300 H 0.76127 0.83429 0.78564
 H1301 H 0.77609 0.80891 0.80311
 H1302 H 0.82781 0.83942 0.80136
 H1303 H 0.75187 0.86672 0.77372
 H1304 H 0.75014 0.90073 0.76533
 H1305 H 0.80916 0.90531 0.77179
 C1306 C 0.44354 0.86142 0.30213
 C1307 C 0.46198 0.85976 0.30571
 C1308 C 0.47229 0.87454 0.31272
 C1309 C 0.46322 0.89176 0.31627
 C1310 C 0.44405 0.89387 0.31310
 C1311 C 0.43415 0.87831 0.30588
 O1312 O 0.43642 0.84575 0.29507
 C1313 C 0.45071 0.83394 0.29425
 C1314 C 0.46662 0.84183 0.30074
 C1315 C 0.48318 0.83199 0.30147
 C1316 C 0.48340 0.81324 0.29519
 C1317 C 0.46730 0.80477 0.28808
 C1318 C 0.45068 0.81534 0.28757
 H1319 H 0.48687 0.87295 0.31517
 H1320 H 0.47126 0.90350 0.32124
 H1321 H 0.41952 0.87917 0.30342
 H1322 H 0.49549 0.83849 0.30670
 H1323 H 0.49626 0.80544 0.29557
 H1324 H 0.43817 0.80924 0.28232
 C1325 C -0.03011 0.86800 0.81852
 C1326 C -0.01249 0.86776 0.82516
 C1327 C -0.00433 0.88364 0.83275
 C1328 C -0.01476 0.90047 0.83346
 C1329 C -0.03304 0.90109 0.82674
 C1330 C -0.04078 0.88446 0.81929
 O1331 O -0.03513 0.85158 0.81139
 C1332 C -0.02033 0.84073 0.81354
 C1333 C -0.00612 0.84990 0.82197
 C1334 C 0.01072 0.84121 0.82539
 C1335 C 0.01303 0.82232 0.81978
 C1336 C -0.00135 0.81261 0.81079
 C1337 C -0.01831 0.82202 0.80776
 H1338 H 0.00964 0.88317 0.83771
 H1339 H -0.00846 0.91308 0.83894
 H1340 H -0.05472 0.88426 0.81424
 H1341 H 0.02172 0.84872 0.83203
 H1342 H 0.02613 0.81541 0.82221
 H1343 H -0.02960 0.81507 0.80102
 C1344 C -0.04002 -0.11077 -0.03055
 C1345 C -0.05521 -0.10183 -0.02371
 C1346 C -0.07229 -0.11020 -0.02314
 C1347 C -0.07384 -0.12873 -0.02966
 C1348 C -0.05832 -0.13898 -0.03635
 C1349 C -0.04115 -0.12940 -0.03699
 O1350 O -0.02507 -0.10008 -0.02982
 C1351 C -0.03103 -0.08409 -0.02228
 C1352 C -0.04938 -0.08456 -0.01822
 C1353 C -0.05850 -0.06971 -0.00982
 C1354 C -0.04829 -0.05364 -0.00536
 C1355 C -0.02936 -0.05258 -0.00951
 C1356 C -0.02061 -0.06799 -0.01826
 H1357 H -0.08411 -0.10265 -0.01799
 H1358 H -0.08747 -0.13464 -0.02992
 H1359 H -0.02873 -0.13629 -0.04153
 H1360 H -0.07295 -0.07050 -0.00672
 H1361 H -0.05524 -0.04186 0.00108
 H1362 H -0.00619 -0.06755 -0.02156
 C1363 C -0.05366 0.39682 0.45299
 C1364 C -0.03497 0.39850 0.45122
 C1365 C -0.02398 0.38438 0.44387
 C1366 C -0.03268 0.36807 0.43750
 C1367 C -0.05202 0.36629 0.43844
 C1368 C -0.06262 0.38061 0.44680
 O1369 O -0.06159 0.41241 0.45946
 C1370 C -0.04760 0.42417 0.46167
 C1371 C -0.03107 0.41633 0.45670
 C1372 C -0.01482 0.42645 0.45661
 C1373 C -0.01558 0.44544 0.46205
 C1374 C -0.03236 0.45384 0.46758
 C1375 C -0.04862 0.44301 0.46747
 H1376 H -0.00932 0.38613 0.44254
 H1377 H -0.02448 0.35712 0.43117
 H1378 H -0.07743 0.37974 0.44734
 H1379 H -0.00206 0.42002 0.45232
 H1380 H -0.00301 0.45353 0.46220
 H1381 H -0.06164 0.44916 0.47141
 C1382 C 0.45789 -0.13057 0.45122
 C1383 C 0.46633 -0.12414 0.43615
 C1384 C 0.46386 -0.13265 0.41964
 C1385 C 0.45243 -0.14858 0.41868
 C1386 C 0.44364 -0.15587 0.43415
 C1387 C 0.44651 -0.14631 0.45064
 O1388 O 0.46182 -0.12040 0.46560
 C1389 C 0.47297 -0.10723 0.45945
 C1390 C 0.47624 -0.10886 0.44152
 C1391 C 0.48732 -0.09627 0.43237
 C1392 C 0.49506 -0.08120 0.44206
 C1393 C 0.49157 -0.07901 0.46056
 C1394 C 0.48053 -0.09247 0.46932
 H1395 H 0.47041 -0.12716 0.40786
 H1396 H 0.45010 -0.15463 0.40563
 H1397 H 0.44085 -0.15133 0.46301
 H1398 H 0.48965 -0.09778 0.41822
 H1399 H 0.50330 -0.07098 0.43504
 H1400 H 0.47732 -0.09119 0.48333
 C1401 C 0.46198 0.39067 -0.06841
 C1402 C 0.47757 0.39383 -0.07806
 C1403 C 0.48625 0.37979 -0.08796
 C1404 C 0.47849 0.36168 -0.08804
 C1405 C 0.46207 0.35791 -0.07862
 C1406 C 0.45378 0.37276 -0.06855
 O1407 O 0.45638 0.40593 -0.05940
 C1408 C 0.46873 0.41898 -0.06355
 C1409 C 0.48186 0.41224 -0.07504
 C1410 C 0.49613 0.42325 -0.08118
 C1411 C 0.49711 0.44200 -0.07510
 C1412 C 0.48404 0.44944 -0.06289
 C1413 C 0.46951 0.43768 -0.05713
 H1414 H 0.49873 0.38260 -0.09516
 H1415 H 0.48554 0.35055 -0.09529
 H1416 H 0.44127 0.37057 -0.06120
 H1417 H 0.50627 0.41757 -0.09025
 H1418 H 0.50838 0.45057 -0.07970
 H1419 H 0.45933 0.44282 -0.04783
 C1420 C 0.79468 0.37457 0.45572
 C1421 C 0.77584 0.37415 0.45678
 C1422 C 0.76466 0.38920 0.45153
 C1423 C 0.77317 0.40508 0.44420
 C1424 C 0.79249 0.40550 0.44202
 C1425 C 0.80346 0.39030 0.44844
 O1426 O 0.80259 0.35824 0.46039
 C1427 C 0.78844 0.34727 0.46427
 C1428 C 0.77177 0.35631 0.46209
 C1429 C 0.75511 0.34704 0.46375
 C1430 C 0.75563 0.32768 0.46801
 C1431 C 0.77260 0.31816 0.47079
 C1432 C 0.78926 0.32811 0.46903
 H1433 H 0.74987 0.38843 0.45234
 H1434 H 0.76467 0.41662 0.43923
 H1435 H 0.81816 0.39005 0.44645
 H1436 H 0.74219 0.35437 0.46153
 H1437 H 0.74284 0.32014 0.46941
 H1438 H 0.80238 0.32102 0.47082
 C1439 C 0.79560 0.88664 -0.03273
 C1440 C 0.77698 0.88815 -0.03541
 C1441 C 0.76893 0.90271 -0.04528
 C1442 C 0.78053 0.91640 -0.05258
 C1443 C 0.79982 0.91532 -0.04997
 C1444 C 0.80741 0.90010 -0.03990
 O1445 O 0.80044 0.87151 -0.02317
 C1446 C 0.78449 0.86331 -0.01975
 C1447 C 0.76975 0.87298 -0.02695
 C1448 C 0.75182 0.86674 -0.02543
 C1449 C 0.74895 0.84966 -0.01640
 C1450 C 0.76390 0.83915 -0.00902
 C1451 C 0.78195 0.84630 -0.01050
 H1452 H 0.75422 0.90355 -0.04722
 H1453 H 0.77442 0.92805 -0.05995
 H1454 H 0.82207 0.89870 -0.03780
 H1455 H 0.74046 0.87458 -0.03126
 H1456 H 0.73506 0.84446 -0.01538
 H1457 H 0.79366 0.83851 -0.00529
 C1458 C 0.80479 0.27994 0.37315
 C1459 C 0.81146 0.26163 0.37348
 C1460 C 0.82059 0.25348 0.35916
 C1461 C 0.82293 0.26466 0.34390
 C1462 C 0.81646 0.28378 0.34330
 C1463 C 0.80727 0.29141 0.35830
 O1464 O 0.79619 0.28489 0.38797
 C1465 C 0.79748 0.26938 0.39789
 C1466 C 0.80683 0.25476 0.38973
 C1467 C 0.81005 0.23736 0.39797
 C1468 C 0.80332 0.23495 0.41531
 C1469 C 0.79333 0.24973 0.42383
 C1470 C 0.79040 0.26718 0.41491
 H1471 H 0.82552 0.23895 0.35961
 H1472 H 0.82956 0.25827 0.33250
 H1473 H 0.80233 0.30594 0.35856
 H1474 H 0.81755 0.22609 0.39134
 H1475 H 0.80570 0.22154 0.42200
 H1476 H 0.78306 0.27882 0.42115
 C1477 C 0.78629 0.78169 -0.10807
 C1478 C 0.77106 0.79316 -0.10689
 C1479 C 0.76657 0.80665 -0.11956
 C1480 C 0.77817 0.80838 -0.13420
 C1481 C 0.79393 0.79634 -0.13639
 C1482 C 0.79788 0.78279 -0.12275
 O1483 O 0.78868 0.77067 -0.09388
 C1484 C 0.77462 0.77539 -0.08357
 C1485 C 0.76338 0.78900 -0.09104
 C1486 C 0.74825 0.79661 -0.08240
 C1487 C 0.74477 0.79029 -0.06512
 C1488 C 0.75649 0.77671 -0.05674
 C1489 C 0.77144 0.76887 -0.06634
 H1490 H 0.75483 0.81599 -0.11797
 H1491 H 0.77502 0.81989 -0.14321
 H1492 H 0.80931 0.77297 -0.12345
 H1493 H 0.73967 0.80739 -0.08858
 H1494 H 0.73326 0.79648 -0.05810
 H1495 H 0.78083 0.75873 -0.06031
 C1496 C 0.28788 0.44603 0.85179
 C1497 C 0.27981 0.42898 0.84780
 C1498 C 0.28045 0.41351 0.85918
 C1499 C 0.28978 0.41567 0.87541
 C1500 C 0.29785 0.43329 0.88030
 C1501 C 0.29680 0.44871 0.86813
 O1502 O 0.28618 0.45868 0.83875
 C1503 C 0.27676 0.44938 0.82633
 C1504 C 0.27238 0.43122 0.83136
 C1505 C 0.26222 0.41905 0.82069
 C1506 C 0.25637 0.42581 0.80408
 C1507 C 0.26115 0.44427 0.79819
 C1508 C 0.27149 0.45625 0.80957
 H1509 H 0.27428 0.40011 0.85554
 H1510 H 0.29093 0.40337 0.88395
 H1511 H 0.30258 0.46242 0.87123
 H1512 H 0.25880 0.40489 0.82505
 H1513 H 0.24827 0.41651 0.79573
 H1514 H 0.27522 0.47046 0.80557
 C1515 C 0.29258 -0.04109 0.37722
 C1516 C 0.30004 -0.02335 0.37554
 C1517 C 0.31164 -0.01548 0.38826
 C1518 C 0.31575 -0.02633 0.40341
 C1519 C 0.30843 -0.04482 0.40554
 C1520 C 0.29663 -0.05225 0.39214
 O1521 O 0.28176 -0.04578 0.36360
 C1522 C 0.28243 -0.03064 0.35310
 C1523 C 0.29350 -0.01658 0.35982
 C1524 C 0.29641 0.00042 0.35104
 C1525 C 0.28759 0.00309 0.33461
 C1526 C 0.27597 -0.01109 0.32726
 C1527 C 0.27332 -0.02822 0.33676
 H1528 H 0.31721 -0.00140 0.38666
 H1529 H 0.32444 -0.02016 0.41360
 H1530 H 0.29093 -0.06634 0.39315
 H1531 H 0.30522 0.01124 0.35662
 H1532 H 0.28978 0.01632 0.32766
 H1533 H 0.26467 -0.03937 0.33152
 C1534 C -0.03680 -0.02960 -0.11422
 C1535 C -0.05135 -0.01781 -0.11050
 C1536 C -0.06654 -0.01621 -0.12164
 C1537 C -0.06682 -0.02734 -0.13716
 C1538 C -0.05195 -0.03987 -0.14149
 C1539 C -0.03663 -0.04064 -0.12962
 O1540 O -0.02383 -0.02938 -0.10175
 C1541 C -0.03040 -0.01720 -0.08986
 C1542 C -0.04719 -0.00966 -0.09458
 C1543 C -0.05659 0.00327 -0.08391
 C1544 C -0.04835 0.00857 -0.06770
 C1545 C -0.03109 0.00081 -0.06245
 C1546 C -0.02203 -0.01224 -0.07383
 H1547 H -0.07798 -0.00701 -0.11830
 H1548 H -0.07919 -0.02669 -0.14515
 H1549 H -0.02456 -0.04917 -0.13224
 H1550 H -0.06982 0.00899 -0.08787
 H1551 H -0.05552 0.01853 -0.05918
 H1552 H -0.00886 -0.01845 -0.07032
 C1553 C -0.06289 0.48533 0.37589
 C1554 C -0.07755 0.49546 0.38232
 C1555 C -0.09484 0.49484 0.37468
 C1556 C -0.09712 0.48372 0.35939
 C1557 C -0.08205 0.47384 0.35135
 C1558 C -0.06467 0.47448 0.36032
 O1559 O -0.04781 0.48736 0.38582
 C1560 C -0.05317 0.49913 0.39871
 C1561 C -0.07121 0.50464 0.39694
 C1562 C -0.07979 0.51705 0.40861
 C1563 C -0.06949 0.52382 0.42301
 C1564 C -0.05102 0.51778 0.42585
 C1565 C -0.04267 0.50537 0.41329
 H1566 H -0.10632 0.50242 0.38047
 H1567 H -0.11097 0.48264 0.35434
 H1568 H -0.05253 0.46757 0.35517
 H1569 H -0.09401 0.52123 0.40681
 H1570 H -0.07627 0.53319 0.43236
 H1571 H -0.02871 0.50034 0.41508
 C1572 C 0.45076 -0.04412 0.38084
 C1573 C 0.44824 -0.02478 0.38007
 C1574 C 0.44089 -0.01573 0.36522
 C1575 C 0.43582 -0.02708 0.35063
 C1576 C 0.43766 -0.04723 0.35122
 C1577 C 0.44534 -0.05573 0.36672
 O1578 O 0.45870 -0.04987 0.39585
 C1579 C 0.46117 -0.03381 0.40478
 C1580 C 0.45480 -0.01803 0.39585
 C1581 C 0.45579 0.00022 0.40299
 C1582 C 0.46387 0.00226 0.41994
 C1583 C 0.47111 -0.01376 0.42903
 C1584 C 0.46962 -0.03204 0.42138
 H1585 H 0.43940 -0.00043 0.36475
 H1586 H 0.43070 -0.02000 0.33882
 H1587 H 0.44689 -0.07095 0.36798
 H1588 H 0.45058 0.01242 0.39577
 H1589 H 0.46498 0.01629 0.42577
 H1590 H 0.47493 -0.04450 0.42816
 C1591 C 0.45635 0.47293 -0.14926
 C1592 C 0.44298 0.48613 -0.14554
 C1593 C 0.42566 0.48560 -0.15330
 C1594 C 0.42204 0.47103 -0.16558
 C1595 C 0.43574 0.45723 -0.17015
 C1596 C 0.45323 0.45853 -0.16161
 O1597 O 0.47151 0.47516 -0.13961
 C1598 C 0.46760 0.49014 -0.12956
 C1599 C 0.45037 0.49751 -0.13280
 C1600 C 0.44322 0.51278 -0.12332
 C1601 C 0.45400 0.52032 -0.10952
 C1602 C 0.47149 0.51233 -0.10526
 C1603 C 0.47854 0.49734 -0.11586
 H1604 H 0.41511 0.49577 -0.14968
 H1605 H 0.40822 0.47027 -0.17079
 H1606 H 0.46452 0.44906 -0.16462
 H1607 H 0.42959 0.51830 -0.12605
 H1608 H 0.44823 0.53171 -0.10156
 H1609 H 0.49163 0.49068 -0.11287
 C1610 C 0.44677 0.76817 0.38196
 C1611 C 0.43205 0.75735 0.37685
 C1612 C 0.41524 0.75819 0.38535
 C1613 C 0.41344 0.77085 0.39965
 C1614 C 0.42848 0.78211 0.40550
 C1615 C 0.44552 0.78033 0.39657
 O1616 O 0.46087 0.76671 0.37093
 C1617 C 0.45486 0.75472 0.35857
 C1618 C 0.43739 0.74842 0.36175
 C1619 C 0.42796 0.73664 0.35011
 C1620 C 0.43674 0.73142 0.33433
 C1621 C 0.45453 0.73830 0.33029
 C1622 C 0.46384 0.74985 0.34283
 H1623 H 0.40367 0.75000 0.38066
 H1624 H 0.40005 0.77231 0.40561
 H1625 H 0.45742 0.78844 0.40048
 H1626 H 0.41413 0.73207 0.35284
 H1627 H 0.42924 0.72270 0.32492
 H1628 H 0.47725 0.75559 0.34009
 C1629 C -0.03197 0.78538 0.90106
 C1630 C -0.01345 0.78807 0.90336
 C1631 C -0.00630 0.79957 0.91676
 C1632 C -0.01873 0.80847 0.92837
 C1633 C -0.03794 0.80585 0.92635
 C1634 C -0.04456 0.79416 0.91235
 O1635 O -0.03600 0.77441 0.88720
 C1636 C -0.01966 0.77006 0.88059
 C1637 C -0.00540 0.77807 0.88998
 C1638 C 0.01280 0.77616 0.88479
 C1639 C 0.01638 0.76601 0.86906
 C1640 C 0.00186 0.75788 0.85898
 C1641 C -0.01639 0.75962 0.86511
 H1642 H 0.00834 0.80158 0.91825
 H1643 H -0.01337 0.81715 0.93910
 H1644 H -0.05909 0.79212 0.91014
 H1645 H 0.02379 0.78277 0.89226
 H1646 H 0.03038 0.76498 0.86444
 H1647 H -0.02781 0.75411 0.85744
 C1648 C 0.35717 0.78396 0.30055
 C1649 C 0.35458 0.76467 0.30131
 C1650 C 0.33900 0.75653 0.30840
 C1651 C 0.32546 0.76875 0.31506
 C1652 C 0.32768 0.78878 0.31469
 C1653 C 0.34378 0.79648 0.30713
 O1654 O 0.37322 0.78858 0.29347
 C1655 C 0.38085 0.77181 0.28973
 C1656 C 0.36993 0.75679 0.29430
 C1657 C 0.37523 0.73797 0.29208
 C1658 C 0.39261 0.73439 0.28500
 C1659 C 0.40437 0.74951 0.28023
 C1660 C 0.39826 0.76856 0.28246
 H1661 H 0.33732 0.74128 0.30879
 H1662 H 0.31311 0.76256 0.32034
 H1663 H 0.34592 0.81166 0.30667
 H1664 H 0.36637 0.72643 0.29587
 H1665 H 0.39696 0.71975 0.28336
 H1666 H 0.40699 0.78040 0.27919
 C1667 C -0.11476 0.78303 0.82320
 C1668 C -0.11267 0.76625 0.83228
 C1669 C -0.12668 0.75801 0.84185
 C1670 C -0.14364 0.76745 0.84212
 C1671 C -0.14631 0.78508 0.83319
 C1672 C -0.13148 0.79294 0.82358
 O1673 O -0.09983 0.78781 0.81421
 C1674 C -0.08813 0.77370 0.81775
 C1675 C -0.09536 0.76025 0.82885
 C1676 C -0.08578 0.74411 0.83414
 C1677 C -0.06802 0.74155 0.82759
 C1678 C -0.06018 0.75493 0.81576
 C1679 C -0.07043 0.77137 0.81090
 H1680 H -0.12477 0.74455 0.84856
 H1681 H -0.15480 0.76066 0.84899
 H1682 H -0.13283 0.80629 0.81657
 H1683 H -0.09184 0.73373 0.84286
 H1684 H -0.06055 0.72886 0.83150
 H1685 H -0.06495 0.78184 0.80191
 C1686 C 0.88068 0.30356 0.45462
 C1687 C 0.88583 0.28476 0.45526
 C1688 C 0.90108 0.27760 0.44637
 C1689 C 0.91164 0.29042 0.43660
 C1690 C 0.90691 0.30996 0.43609
 C1691 C 0.89118 0.31661 0.44524
 O1692 O 0.86506 0.30717 0.46306
 C1693 C 0.86028 0.29026 0.46923
 C1694 C 0.87266 0.27614 0.46495
 C1695 C 0.87009 0.25724 0.46935
 C1696 C 0.85375 0.25254 0.47791
 C1697 C 0.84028 0.26663 0.48176
 C1698 C 0.84388 0.28590 0.47785
 H1699 H 0.90466 0.26266 0.44684
 H1700 H 0.92372 0.28524 0.42975
 H1701 H 0.88721 0.33146 0.44490
 H1702 H 0.87999 0.24639 0.46575
 H1703 H 0.85120 0.23773 0.48077
 H1704 H 0.83368 0.29688 0.48016
 C1705 C 0.87421 0.80088 -0.02560
 C1706 C 0.87507 0.78141 -0.02494
 C1707 C 0.89075 0.77114 -0.02941
 C1708 C 0.90617 0.78137 -0.03483
 C1709 C 0.90559 0.80153 -0.03603
 C1710 C 0.88920 0.81130 -0.03133
 O1711 O 0.85812 0.80794 -0.02055
 C1712 C 0.84857 0.79256 -0.01667
 C1713 C 0.85828 0.77595 -0.01929
 C1714 C 0.85075 0.75814 -0.01661
 C1715 C 0.83247 0.75742 -0.01098
 C1716 C 0.82226 0.77434 -0.00786
 C1717 C 0.83048 0.79218 -0.01066
 H1718 H 0.89115 0.75581 -0.02860
 H1719 H 0.91857 0.77352 -0.03788
 H1720 H 0.88794 0.82657 -0.03234
 H1721 H 0.85861 0.74528 -0.01891
 H1722 H 0.82633 0.74367 -0.00884
 H1723 H 0.82294 0.80530 -0.00856
 C1724 C -0.12030 -0.02278 -0.03534
 C1725 C -0.12375 -0.02222 -0.01737
 C1726 C -0.13986 -0.02903 -0.01010
 C1727 C -0.15291 -0.03679 -0.02180
 C1728 C -0.14959 -0.03799 -0.04043
 C1729 C -0.13295 -0.03073 -0.04720
 O1730 O -0.10413 -0.01556 -0.03952
 C1731 C -0.09722 -0.01041 -0.02385
 C1732 C -0.10861 -0.01430 -0.00983
 C1733 C -0.10366 -0.01086 0.00782
 C1734 C -0.08620 -0.00324 0.01115
 C1735 C -0.07435 0.00112 -0.00311
 C1736 C -0.08005 -0.00239 -0.02086
 H1737 H -0.14235 -0.02829 0.00407
 H1738 H -0.16570 -0.04168 -0.01628
 H1739 H -0.12973 -0.03155 -0.06122
 H1740 H -0.11275 -0.01427 0.01865
 H1741 H -0.08187 -0.00079 0.02478
 H1742 H -0.07107 0.00034 -0.03197
 C1743 C -0.13961 0.46831 0.44853
 C1744 C -0.14014 0.48620 0.44136
 C1745 C -0.15259 0.49159 0.42825
 C1746 C -0.16520 0.47804 0.42230
 C1747 C -0.16541 0.45933 0.42957
 C1748 C -0.15220 0.45459 0.44299
 O1749 O -0.12625 0.46604 0.46053
 C1750 C -0.11831 0.48297 0.46101
 C1751 C -0.12643 0.49579 0.44959
 C1752 C -0.12048 0.51433 0.44785
 C1753 C -0.10536 0.51989 0.45812
 C1754 C -0.09620 0.50687 0.46970
 C1755 C -0.10301 0.48813 0.47128
 H1756 H -0.15268 0.50581 0.42282
 H1757 H -0.17531 0.48266 0.41261
 H1758 H -0.15119 0.44050 0.44862
 H1759 H -0.12716 0.52415 0.43878
 H1760 H -0.10056 0.53429 0.45665
 H1761 H -0.09636 0.47777 0.47984
 C1762 C 0.38115 -0.04753 0.46207
 C1763 C 0.38832 -0.06414 0.46886
 C1764 C 0.37913 -0.08131 0.46794
 C1765 C 0.36172 -0.08133 0.45989
 C1766 C 0.35380 -0.06433 0.45300
 C1767 C 0.36382 -0.04721 0.45399
 O1768 O 0.39223 -0.03281 0.46423
 C1769 C 0.40668 -0.04032 0.47258
 C1770 C 0.40494 -0.05943 0.47576
 C1771 C 0.41847 -0.07015 0.48425
 C1772 C 0.43456 -0.06084 0.48952
 C1773 C 0.43688 -0.04113 0.48621
 C1774 C 0.42258 -0.03076 0.47768
 H1775 H 0.38514 -0.09423 0.47324
 H1776 H 0.35442 -0.09462 0.45897
 H1777 H 0.35816 -0.03399 0.44897
 H1778 H 0.41679 -0.08520 0.48655
 H1779 H 0.44535 -0.06915 0.49582
 H1780 H 0.42388 -0.01579 0.47478
 C1781 C 0.37653 0.47008 -0.06797
 C1782 C 0.37636 0.48667 -0.07751
 C1783 C 0.36254 0.49123 -0.08960
 C1784 C 0.34823 0.47821 -0.09188
 C1785 C 0.34781 0.46086 -0.08207
 C1786 C 0.36248 0.45695 -0.06996
 O1787 O 0.39108 0.46827 -0.05737
 C1788 C 0.40026 0.48414 -0.06022
 C1789 C 0.39183 0.49591 -0.07241
 C1790 C 0.39921 0.51318 -0.07750
 C1791 C 0.41602 0.51845 -0.06981
 C1792 C 0.42514 0.50646 -0.05729
 C1793 C 0.41696 0.48908 -0.05241
 H1794 H 0.36266 0.50444 -0.09692
 H1795 H 0.33714 0.48226 -0.10076
 H1796 H 0.36356 0.44378 -0.06266
 H1797 H 0.39236 0.52219 -0.08716
 H1798 H 0.42203 0.53175 -0.07385
 H1799 H 0.42352 0.47947 -0.04305
 C1800 C 0.36669 0.44010 0.77383
 C1801 C 0.36834 0.43384 0.75656
 C1802 C 0.38474 0.42676 0.74979
 C1803 C 0.39997 0.42598 0.76133
 C1804 C 0.39853 0.43202 0.77932
 C1805 C 0.38156 0.43927 0.78555
 O1806 O 0.34999 0.44647 0.77764
 C1807 C 0.34088 0.44416 0.76245
 C1808 C 0.35144 0.43637 0.74916
 C1809 C 0.34448 0.43245 0.73226
 C1810 C 0.32594 0.43678 0.72895
 C1811 C 0.31485 0.44509 0.74239
 C1812 C 0.32253 0.44884 0.75938
 H1813 H 0.38577 0.42206 0.73611
 H1814 H 0.41289 0.42074 0.75620
 H1815 H 0.37986 0.44375 0.79923
 H1816 H 0.35301 0.42625 0.72202
 H1817 H 0.32030 0.43392 0.71585
 H1818 H 0.31441 0.45507 0.76994
 C1819 C 0.36689 -0.04032 0.29476
 C1820 C 0.36768 -0.04349 0.27672
 C1821 C 0.38215 -0.05319 0.26875
 C1822 C 0.39642 -0.05980 0.27982
 C1823 C 0.39586 -0.05689 0.29855
 C1824 C 0.38073 -0.04702 0.30602
 O1825 O 0.35187 -0.03101 0.29972
 C1826 C 0.34295 -0.02827 0.28448
 C1827 C 0.35198 -0.03573 0.27000
 C1828 C 0.34464 -0.03527 0.25287
 C1829 C 0.32717 -0.02704 0.25063
 C1830 C 0.31763 -0.01923 0.26537
 C1831 C 0.32578 -0.01964 0.28250
 H1832 H 0.38250 -0.05548 0.25450
 H1833 H 0.40799 -0.06695 0.27373
 H1834 H 0.37957 -0.04481 0.32023
 H1835 H 0.35189 -0.04144 0.24171
 H1836 H 0.32098 -0.02693 0.23748
 H1837 H 0.31860 -0.01423 0.29404
 C1838 C 0.11189 0.52025 0.70519
 C1839 C 0.10913 0.50120 0.70220
 C1840 C 0.09244 0.49393 0.69655
 C1841 C 0.07806 0.50684 0.69353
 C1842 C 0.08059 0.52668 0.69593
 C1843 C 0.09772 0.53343 0.70222
 O1844 O 0.12901 0.52413 0.71010
 C1845 C 0.13718 0.50717 0.71009
 C1846 C 0.12561 0.49271 0.70527
 C1847 C 0.13145 0.47396 0.70348
 C1848 C 0.15003 0.46992 0.70680
 C1849 C 0.16226 0.48451 0.71200
 C1850 C 0.15567 0.50341 0.71377
 H1851 H 0.09062 0.47887 0.69433
 H1852 H 0.06496 0.50136 0.68910
 H1853 H 0.10013 0.54845 0.70404
 H1854 H 0.12209 0.46288 0.69944
 H1855 H 0.15487 0.45542 0.70541
 H1856 H 0.16474 0.51489 0.71744
 C1857 C 0.11277 0.04129 0.22467
 C1858 C 0.11254 0.04668 0.24228
 C1859 C 0.09911 0.05872 0.24918
 C1860 C 0.08574 0.06590 0.23734
 C1861 C 0.08617 0.06113 0.21895
 C1862 C 0.09965 0.04819 0.21274
 O1863 O 0.12750 0.03120 0.22033
 C1864 C 0.13689 0.03029 0.23547
 C1865 C 0.12842 0.03956 0.24934
 C1866 C 0.13687 0.04205 0.26586
 C1867 C 0.15481 0.03491 0.26804
 C1868 C 0.16381 0.02537 0.25385
 C1869 C 0.15450 0.02277 0.23746
 H1870 H 0.09932 0.06301 0.26302
 H1871 H 0.07551 0.07573 0.24236
 H1872 H 0.10089 0.04477 0.19874
 H1873 H 0.13016 0.04981 0.27646
 H1874 H 0.16183 0.03715 0.28062
 H1875 H 0.16118 0.01617 0.22617
 C1876 C 0.60702 0.70738 0.20998
 C1877 C 0.60809 0.70116 0.22731
 C1878 C 0.62364 0.69242 0.23441
 C1879 C 0.63852 0.68941 0.22305
 C1880 C 0.63759 0.69500 0.20492
 C1881 C 0.62179 0.70460 0.19840
 O1882 O 0.59055 0.71430 0.20569
 C1883 C 0.58104 0.71226 0.22060
 C1884 C 0.59116 0.70418 0.23416
 C1885 C 0.58365 0.69936 0.25047
 C1886 C 0.56494 0.70312 0.25297
 C1887 C 0.55419 0.71172 0.23935
 C1888 C 0.56243 0.71650 0.22294
 H1889 H 0.62405 0.68747 0.24804
 H1890 H 0.65050 0.68194 0.22811
 H1891 H 0.62055 0.70853 0.18452
 H1892 H 0.59184 0.69266 0.26080
 H1893 H 0.55884 0.69944 0.26559
 H1894 H 0.55448 0.72277 0.21220
 C1895 C 0.12970 0.69016 0.72970
 C1896 C 0.13371 0.70782 0.73643
 C1897 C 0.15025 0.71685 0.73339
 C1898 C 0.16312 0.70738 0.72275
 C1899 C 0.15915 0.68937 0.71514
 C1900 C 0.14224 0.68054 0.71894
 O1901 O 0.11292 0.68443 0.73369
 C1902 C 0.10618 0.69887 0.74305
 C1903 C 0.11835 0.71358 0.74499
 C1904 C 0.11377 0.73067 0.75318
 C1905 C 0.09585 0.73273 0.75954
 C1906 C 0.08316 0.71771 0.75787
 C1907 C 0.08840 0.70044 0.74971
 H1908 H 0.15306 0.73077 0.73883
 H1909 H 0.17610 0.71420 0.72030
 H1910 H 0.13862 0.66700 0.71312
 H1911 H 0.12348 0.74216 0.75422
 H1912 H 0.09178 0.74603 0.76567
 H1913 H 0.07873 0.68898 0.74795
 C1914 C 0.63829 0.20248 0.53471
 C1915 C 0.64596 0.18606 0.52816
 C1916 C 0.63799 0.16840 0.53016
 C1917 C 0.62142 0.16753 0.53939
 C1918 C 0.61273 0.18425 0.54608
 C1919 C 0.62142 0.20206 0.54348
 O1920 O 0.64880 0.21761 0.53229
 C1921 C 0.66340 0.21050 0.52398
 C1922 C 0.66215 0.19128 0.52103
 C1923 C 0.67582 0.18073 0.51280
 C1924 C 0.69155 0.19033 0.50746
 C1925 C 0.69360 0.21012 0.51067
 C1926 C 0.67918 0.22038 0.51902
 H1927 H 0.64460 0.15562 0.52527
 H1928 H 0.61580 0.15362 0.54176
 H1929 H 0.61544 0.21521 0.54823
 H1930 H 0.67449 0.16560 0.51069
 H1931 H 0.70234 0.18210 0.50120
 H1932 H 0.68030 0.23542 0.52178
 C1933 C 0.62232 0.72410 0.05777
 C1934 C 0.63037 0.72882 0.07377
 C1935 C 0.62174 0.72619 0.08999
 C1936 C 0.60408 0.71842 0.08969
 C1937 C 0.59523 0.71377 0.07331
 C1938 C 0.60465 0.71674 0.05713
 O1939 O 0.63303 0.72721 0.04391
 C1940 C 0.64815 0.73411 0.05132
 C1941 C 0.64718 0.73555 0.06955
 C1942 C 0.66145 0.74263 0.07995
 C1943 C 0.67740 0.74838 0.07118
 C1944 C 0.67884 0.74662 0.05242
 C1945 C 0.66398 0.73938 0.04237
 H1946 H 0.62846 0.72975 0.10244
 H1947 H 0.59747 0.71581 0.10229
 H1948 H 0.59842 0.71364 0.04434
 H1949 H 0.66037 0.74365 0.09429
 H1950 H 0.68878 0.75373 0.07901
 H1951 H 0.66472 0.73792 0.02804
 C1952 C 0.13446 0.04563 0.03795
 C1953 C 0.13136 0.05849 0.02459
 C1954 C 0.14296 0.07355 0.02138
 C1955 C 0.15840 0.07556 0.03245
 C1956 C 0.16238 0.06237 0.04648
 C1957 C 0.14998 0.04697 0.04884
 O1958 O 0.12103 0.03313 0.03960
 C1959 C 0.10916 0.03830 0.02699
 C1960 C 0.11494 0.05365 0.01732
 C1961 C 0.10438 0.06194 0.00396
 C1962 C 0.08695 0.05439 0.00066
 C1963 C 0.08027 0.03895 0.01087
 C1964 C 0.09180 0.03058 0.02401
 H1965 H 0.13990 0.08385 0.01108
 H1966 H 0.16649 0.08810 0.03036
 H1967 H 0.15211 0.03601 0.05866
 H1968 H 0.10919 0.07410 -0.00339
 H1969 H 0.07844 0.06109 -0.00943
 H1970 H 0.08713 0.01901 0.03223
 C1971 C 0.10550 0.54980 0.54255
 C1972 C 0.09754 0.56753 0.54352
 C1973 C 0.10677 0.58336 0.54983
 C1974 C 0.12511 0.58093 0.55510
 C1975 C 0.13405 0.56297 0.55360
 C1976 C 0.12388 0.54710 0.54746
 O1977 O 0.09418 0.53667 0.53621
 C1978 C 0.07880 0.54640 0.53300
 C1979 C 0.08026 0.56537 0.53711
 C1980 C 0.06616 0.57839 0.53416
 C1981 C 0.04981 0.57157 0.52674
 C1982 C 0.04772 0.55200 0.52273
 C1983 C 0.06243 0.53919 0.52599
 H1984 H 0.10010 0.59711 0.55066
 H1985 H 0.13230 0.59314 0.56032
 H1986 H 0.13019 0.53323 0.54601
 H1987 H 0.06774 0.59329 0.53733
 H1988 H 0.03862 0.58147 0.52443
 H1989 H 0.06124 0.52422 0.52294
 C1990 C 0.63723 0.02980 0.53034
 C1991 C 0.63195 0.04491 0.51994
 C1992 C 0.64164 0.06170 0.51943
 C1993 C 0.65743 0.06305 0.53007
 C1994 C 0.66362 0.04762 0.54104
 C1995 C 0.65305 0.03067 0.54092
 O1996 O 0.62548 0.01551 0.52962
 C1997 C 0.61251 0.02184 0.51857
 C1998 C 0.61585 0.03974 0.51224
 C1999 C 0.60365 0.04946 0.50117
 C2000 C 0.58712 0.04049 0.49670
 C2001 C 0.58310 0.02214 0.50337
 C2002 C 0.59624 0.01260 0.51422
 H2003 H 0.63690 0.07361 0.51152
 H2004 H 0.66405 0.07672 0.53031
 H2005 H 0.65688 0.01826 0.54854
 H2006 H 0.60653 0.06364 0.49649
 H2007 H 0.57728 0.04807 0.48847
 H2008 H 0.59355 -0.00123 0.51985
 C2009 C 0.62463 0.54632 0.02043
 C2010 C 0.62723 0.55269 0.00336
 C2011 C 0.64350 0.56090 -0.00212
 C2012 C 0.65762 0.56276 0.01057
 C2013 C 0.65517 0.55671 0.02843
 C2014 C 0.63838 0.54822 0.03330
 O2015 O 0.60806 0.53922 0.02300
 C2016 C 0.59999 0.54121 0.00721
 C2017 C 0.61108 0.54949 -0.00525
 C2018 C 0.60507 0.55371 -0.02241
 C2019 C 0.58686 0.54927 -0.02688
 C2020 C 0.57522 0.54054 -0.01430
 C2021 C 0.58199 0.53634 0.00296
 H2022 H 0.64526 0.56575 -0.01565
 H2023 H 0.67044 0.56894 0.00643
 H2024 H 0.63582 0.54375 0.04682
 H2025 H 0.61398 0.56043 -0.03193
 H2026 H 0.58185 0.55257 -0.04013
 H2027 H 0.57334 0.53000 0.01293
 C2028 C 0.04404 0.06199 0.12949
 C2029 C 0.05433 0.04604 0.12599
 C2030 C 0.06663 0.03825 0.13807
 C2031 C 0.06854 0.04724 0.15456
 C2032 C 0.05815 0.06389 0.15899
 C2033 C 0.04573 0.07134 0.14592
 O2034 O 0.03312 0.06689 0.11593
 C2035 C 0.03676 0.05373 0.10366
 C2036 C 0.04971 0.04075 0.10925
 C2037 C 0.05586 0.02584 0.09874
 C2038 C 0.04829 0.02410 0.08168
 C2039 C 0.03470 0.03711 0.07538
 C2040 C 0.02888 0.05223 0.08663
 H2041 H 0.07474 0.02579 0.13482
 H2042 H 0.07898 0.04152 0.16336
 H2043 H 0.03723 0.08370 0.14844
 H2044 H 0.06613 0.01587 0.10351
 H2045 H 0.05302 0.01242 0.07346
 H2046 H 0.01856 0.06239 0.08232
 C2047 C 0.01342 0.54661 0.62731
 C2048 C 0.00949 0.52758 0.62601
 C2049 C 0.01401 0.51458 0.63923
 C2050 C 0.02325 0.52137 0.65432
 C2051 C 0.02791 0.54084 0.65592
 C2052 C 0.02255 0.55374 0.64236
 O2053 O 0.00893 0.55624 0.61268
 C2054 C 0.00214 0.54296 0.60192
 C2055 C 0.00224 0.52519 0.60949
 C2056 C -0.00280 0.50892 0.60023
 C2057 C -0.00798 0.51098 0.58233
 C2058 C -0.00825 0.52909 0.57419
 C2059 C -0.00340 0.54539 0.58417
 H2060 H 0.01094 0.49965 0.63777
 H2061 H 0.02716 0.51139 0.66464
 H2062 H 0.02622 0.56858 0.64310
 H2063 H -0.00223 0.49505 0.60639
 H2064 H -0.01151 0.49844 0.57470
 H2065 H -0.00301 0.55928 0.57804
 C2066 C 0.56892 0.01783 0.61633
 C2067 C 0.57774 0.02722 0.60289
 C2068 C 0.58869 0.04296 0.60578
 C2069 C 0.59057 0.04943 0.62329
 C2070 C 0.58229 0.03960 0.63760
 C2071 C 0.57165 0.02322 0.63407
 O2072 O 0.55710 0.00497 0.61033
 C2073 C 0.55869 0.00619 0.59275
 C2074 C 0.57150 0.01931 0.58763
 C2075 C 0.57516 0.02347 0.56999
 C2076 C 0.56496 0.01397 0.55700
 C2077 C 0.55103 0.00110 0.56183
 C2078 C 0.54784 -0.00302 0.57995
 H2079 H 0.59492 0.05048 0.59487
 H2080 H 0.59875 0.06195 0.62577
 H2081 H 0.56461 0.01590 0.64464
 H2082 H 0.58521 0.03397 0.56636
 H2083 H 0.56719 0.01742 0.54315
 H2084 H 0.53699 -0.01249 0.58389
 C2085 C 0.51787 0.54124 0.09954
 C2086 C 0.51681 0.52198 0.09663
 C2087 C 0.51789 0.50871 0.11020
 C2088 C 0.52088 0.51547 0.12747
 C2089 C 0.52311 0.53518 0.13084
 C2090 C 0.52098 0.54834 0.11673
 O2091 O 0.51700 0.55126 0.08457
 C2092 C 0.51555 0.53799 0.07201
 C2093 C 0.51559 0.51986 0.07876
 C2094 C 0.51549 0.50373 0.06809
 C2095 C 0.51506 0.50635 0.04963
 C2096 C 0.51442 0.52486 0.04226
 C2097 C 0.51462 0.54095 0.05362
 H2098 H 0.51696 0.49364 0.10753
 H2099 H 0.52225 0.50528 0.13819
 H2100 H 0.52286 0.56340 0.11889
 H2101 H 0.51587 0.48962 0.07376
 H2102 H 0.51476 0.49397 0.04106
 H2103 H 0.51430 0.55522 0.04829
 C2104 C 0.18889 0.50924 0.60774
 C2105 C 0.20600 0.50250 0.60320
 C2106 C 0.21438 0.50697 0.58720
 C2107 C 0.20501 0.51937 0.57566
 C2108 C 0.18771 0.52723 0.58037
 C2109 C 0.17930 0.52154 0.59640
 O2110 O 0.18414 0.50474 0.62422
 C2111 C 0.19862 0.49511 0.63028
 C2112 C 0.21242 0.49343 0.61795
 C2113 C 0.22965 0.48597 0.62212
 C2114 C 0.23283 0.48018 0.63973
 C2115 C 0.21880 0.48167 0.65261
 C2116 C 0.20134 0.48891 0.64776
 H2117 H 0.22798 0.50175 0.58405
 H2118 H 0.21160 0.52358 0.56343
 H2119 H 0.16642 0.52777 0.60064
 H2120 H 0.24050 0.48540 0.61237
 H2121 H 0.24632 0.47494 0.64349
 H2122 H 0.19068 0.49086 0.65758
 C2123 C 0.20342 0.04620 0.13482
 C2124 C 0.19629 0.02821 0.13557
 C2125 C 0.18852 0.01928 0.12087
 C2126 C 0.18800 0.02932 0.10476
 C2127 C 0.19495 0.04810 0.10363
 C2128 C 0.20278 0.05658 0.11902
 O2129 O 0.21077 0.05184 0.15015
 C2130 C 0.20819 0.03709 0.16079
 C2131 C 0.19927 0.02232 0.15256
 C2132 C 0.19524 0.00546 0.16124
 C2133 C 0.20084 0.00367 0.17909
 C2134 C 0.21048 0.01852 0.18778
 C2135 C 0.21405 0.03554 0.17845
 H2136 H 0.18326 0.00499 0.12170
 H2137 H 0.18239 0.02230 0.09313
 H2138 H 0.20809 0.07087 0.11884
 H2139 H 0.18821 -0.00597 0.15447
 H2140 H 0.19809 -0.00949 0.18597
 H2141 H 0.22135 0.04716 0.18468
 C2142 C 0.72213 0.20316 0.61860
 C2143 C 0.70735 0.21255 0.61122
 C2144 C 0.69029 0.21353 0.61930
 C2145 C 0.68840 0.20459 0.63580
 C2146 C 0.70350 0.19506 0.64400
 C2147 C 0.72060 0.19428 0.63512
 O2148 O 0.73701 0.20372 0.60849
 C2149 C 0.73147 0.21374 0.59445
 C2150 C 0.71345 0.21952 0.59559
 C2151 C 0.70471 0.23016 0.58250
 C2152 C 0.71490 0.23496 0.56750
 C2153 C 0.73351 0.22900 0.56570
 C2154 C 0.74191 0.21823 0.57950
 H2155 H 0.67882 0.22083 0.61307
 H2156 H 0.67510 0.20496 0.64210
 H2157 H 0.73243 0.18725 0.64099
 H2158 H 0.69050 0.23450 0.58372
 H2159 H 0.70803 0.24299 0.55710
 H2160 H 0.75598 0.21334 0.57854
 C2161 C 0.70493 0.71230 0.13327
 C2162 C 0.70811 0.73047 0.13920
 C2163 C 0.70170 0.73713 0.15546
 C2164 C 0.69161 0.72459 0.16603
 C2165 C 0.68778 0.70581 0.16012
 C2166 C 0.69469 0.69969 0.14342
 O2167 O 0.71186 0.70886 0.11728
 C2168 C 0.71955 0.72523 0.11299
 C2169 C 0.71755 0.73898 0.12589
 C2170 C 0.72351 0.75754 0.12358
 C2171 C 0.73155 0.76217 0.10722
 C2172 C 0.73384 0.74819 0.09379
 C2173 C 0.72798 0.72939 0.09686
 H2174 H 0.70440 0.75148 0.15989
 H2175 H 0.68692 0.72954 0.17887
 H2176 H 0.69183 0.68569 0.13818
 H2177 H 0.72147 0.76823 0.13377
 H2178 H 0.73566 0.77668 0.10484
 H2179 H 0.72893 0.71863 0.08656
 C2180 C 0.52838 0.71618 0.13266
 C2181 C 0.50984 0.71734 0.12936
 C2182 C 0.50225 0.71438 0.11255
 C2183 C 0.51428 0.71003 0.09857
 C2184 C 0.53349 0.70847 0.10167
 C2185 C 0.54053 0.71166 0.11906
 O2186 O 0.53280 0.71901 0.14961
 C2187 C 0.51668 0.72194 0.15724
 C2188 C 0.50217 0.72098 0.14544
 C2189 C 0.48400 0.72252 0.15076
 C2190 C 0.48066 0.72490 0.16900
 C2191 C 0.49542 0.72598 0.18139
 C2192 C 0.51369 0.72476 0.17537
 H2193 H 0.48760 0.71535 0.11027
 H2194 H 0.50861 0.70798 0.08536
 H2195 H 0.55501 0.71019 0.12209
 H2196 H 0.47280 0.72145 0.14128
 H2197 H 0.46661 0.72573 0.17353
 H2198 H 0.52517 0.72508 0.18460
 C2199 C 0.04299 0.71499 0.65538
 C2200 C 0.04033 0.69718 0.66235
 C2201 C 0.04331 0.68060 0.65276
 C2202 C 0.04853 0.68241 0.63498
 C2203 C 0.05038 0.70057 0.62708
 C2204 C 0.04814 0.71714 0.63757
 O2205 O 0.03886 0.72884 0.66679
 C2206 C 0.03332 0.71951 0.68113
 C2207 C 0.03377 0.70012 0.67895
 C2208 C 0.02758 0.68757 0.69175
 C2209 C 0.02099 0.69528 0.70769
 C2210 C 0.02099 0.71518 0.71064
 C2211 C 0.02721 0.72751 0.69712
 H2212 H 0.04112 0.66677 0.65858
 H2213 H 0.05016 0.66967 0.62702
 H2214 H 0.04908 0.73114 0.63175
 H2215 H 0.02785 0.67237 0.68957
 H2216 H 0.01657 0.68566 0.71802
 H2217 H 0.02736 0.74274 0.69904
 C2218 C 0.50713 0.60573 0.19289
 C2219 C 0.50316 0.60061 0.21008
 C2220 C 0.50610 0.58239 0.21660
 C2221 C 0.51370 0.56891 0.20501
 C2222 C 0.51832 0.57380 0.18729
 C2223 C 0.51463 0.59243 0.18104
 O2224 O 0.50420 0.62411 0.18977
 C2225 C 0.49836 0.63069 0.20537
 C2226 C 0.49753 0.61682 0.21821
 C2227 C 0.49311 0.62063 0.23582
 C2228 C 0.48960 0.63956 0.24049
 C2229 C 0.49033 0.65418 0.22760
 C2230 C 0.49449 0.64968 0.20968
 H2231 H 0.50299 0.57878 0.23023
 H2232 H 0.51623 0.55467 0.20992
 H2233 H 0.51827 0.59664 0.16768
 H2234 H 0.49289 0.60950 0.24572
 H2235 H 0.48654 0.64292 0.25424
 H2236 H 0.49559 0.66068 0.19971
 C2237 C 0.04075 0.60824 0.72918
 C2238 C 0.02284 0.60646 0.73449
 C2239 C 0.01150 0.59198 0.72851
 C2240 C 0.01889 0.57876 0.71652
 C2241 C 0.03732 0.58016 0.71079
 C2242 C 0.04849 0.59503 0.71739
 O2243 O 0.04870 0.62380 0.73559
 C2244 C 0.03550 0.63198 0.74513
 C2245 C 0.01945 0.62183 0.74491
 C2246 C 0.00347 0.62822 0.75298
 C2247 C 0.00386 0.64605 0.76125
 C2248 C 0.02006 0.65706 0.76143
 C2249 C 0.03627 0.64974 0.75359
 H2250 H -0.00263 0.59107 0.73271
 H2251 H 0.01026 0.56738 0.71169
 H2252 H 0.06253 0.59655 0.71303
 H2253 H -0.00905 0.62008 0.75237
 H2254 H -0.00865 0.65161 0.76704
 H2255 H 0.04863 0.65813 0.75304
 C2256 C 0.04693 0.15057 0.04471
 C2257 C 0.04867 0.15127 0.02650
 C2258 C 0.05792 0.16566 0.01781
 C2259 C 0.06589 0.17986 0.02834
 C2260 C 0.06441 0.17945 0.04714
 C2261 C 0.05455 0.16474 0.05545
 O2262 O 0.03866 0.13495 0.05027
 C2263 C 0.03516 0.12561 0.03525
 C2264 C 0.04100 0.13505 0.02035
 C2265 C 0.03974 0.12746 0.00331
 C2266 C 0.03239 0.10925 0.00154
 C2267 C 0.02646 0.09901 0.01668
 C2268 C 0.02760 0.10749 0.03377
 H2269 H 0.05933 0.16572 0.00348
 H2270 H 0.07345 0.19106 0.02190
 H2271 H 0.05359 0.16394 0.06981
 H2272 H 0.04463 0.13511 -0.00817
 H2273 H 0.03157 0.10302 -0.01163
 H2274 H 0.02353 0.09991 0.04561
 C2275 C 0.01798 0.65267 0.55004
 C2276 C 0.00008 0.65296 0.55573
 C2277 C -0.00646 0.66626 0.56787
 C2278 C 0.00607 0.67946 0.57476
 C2279 C 0.02480 0.67895 0.56963
 C2280 C 0.03065 0.66560 0.55673
 O2281 O 0.02174 0.63824 0.53928
 C2282 C 0.00593 0.62914 0.53825
 C2283 C -0.00777 0.63746 0.54812
 C2284 C -0.02497 0.62931 0.55005
 C2285 C -0.02809 0.61183 0.54152
 C2286 C -0.01415 0.60306 0.53119
 C2287 C 0.00300 0.61206 0.52940
 H2288 H -0.02056 0.66615 0.57226
 H2289 H 0.00131 0.68970 0.58449
 H2290 H 0.04490 0.66443 0.55289
 H2291 H -0.03543 0.63591 0.55818
 H2292 H -0.04128 0.60508 0.54306
 H2293 H 0.01406 0.60558 0.52194
 C2294 C 0.54519 0.12095 0.54426
 C2295 C 0.53897 0.11200 0.55925
 C2296 C 0.54142 0.11938 0.57626
 C2297 C 0.55081 0.13661 0.57795
 C2298 C 0.55736 0.14636 0.56272
 C2299 C 0.55418 0.13835 0.54558
 O2300 O 0.54247 0.11094 0.52945
 C2301 C 0.53436 0.09532 0.53526
 C2302 C 0.53181 0.09536 0.55337
 C2303 C 0.52412 0.08021 0.56237
 C2304 C 0.51902 0.06427 0.55233
 C2305 C 0.52183 0.06357 0.53363
 C2306 C 0.52950 0.07951 0.52497
 H2307 H 0.53676 0.11184 0.58790
 H2308 H 0.55350 0.14189 0.59124
 H2309 H 0.55882 0.14522 0.53358
 H2310 H 0.52241 0.08052 0.57666
 H2311 H 0.51338 0.05225 0.55931
 H2312 H 0.53202 0.07944 0.51079
 C2313 C 0.53248 0.64340 0.03525
 C2314 C 0.53710 0.64800 0.01810
 C2315 C 0.54669 0.66430 0.01382
 C2316 C 0.55178 0.67640 0.02781
 C2317 C 0.54728 0.67202 0.04569
 C2318 C 0.53735 0.65529 0.04941
 O2319 O 0.52398 0.62683 0.03644
 C2320 C 0.52324 0.62086 0.01965
 C2321 C 0.53108 0.63335 0.00795
 C2322 C 0.53259 0.62965 -0.01014
 C2323 C 0.52603 0.61223 -0.01643
 C2324 C 0.51808 0.59891 -0.00466
 C2325 C 0.51640 0.60347 0.01364
 H2326 H 0.55026 0.66752 0.00020
 H2327 H 0.55917 0.68924 0.02472
 H2328 H 0.53394 0.65142 0.06292
 H2329 H 0.53897 0.63965 -0.01904
 H2330 H 0.52741 0.60901 -0.03046
 H2331 H 0.51073 0.59348 0.02300
 C2332 C 0.72401 0.11411 0.54157
 C2333 C 0.74096 0.11513 0.54952
 C2334 C 0.74749 0.10133 0.56119
 C2335 C 0.73609 0.08581 0.56475
 C2336 C 0.71830 0.08429 0.55676
 C2337 C 0.71239 0.09905 0.54504
 O2338 O 0.72022 0.12868 0.53099
 C2339 C 0.73516 0.13919 0.53226
 C2340 C 0.74826 0.13161 0.54350
 C2341 C 0.76476 0.14065 0.54712
 C2342 C 0.76779 0.15822 0.53888
 C2343 C 0.75449 0.16624 0.52713
 C2344 C 0.73799 0.15644 0.52373
 H2345 H 0.76097 0.10237 0.56722
 H2346 H 0.74161 0.07479 0.57328
 H2347 H 0.69881 0.09952 0.53917
 H2348 H 0.77484 0.13451 0.55610
 H2349 H 0.78050 0.16555 0.54164
 H2350 H 0.72746 0.16228 0.51506
 C2351 C 0.70660 0.63180 0.04949
 C2352 C 0.72467 0.63127 0.05479
 C2353 C 0.73357 0.61460 0.05985
 C2354 C 0.72338 0.59779 0.05953
 C2355 C 0.70455 0.59794 0.05443
 C2356 C 0.69613 0.61533 0.04933
 O2357 O 0.70094 0.64897 0.04456
 C2358 C 0.71578 0.65952 0.04683
 C2359 C 0.73063 0.64939 0.05320
 C2360 C 0.74761 0.65759 0.05638
 C2361 C 0.74945 0.67696 0.05256
 C2362 C 0.73448 0.68765 0.04549
 C2363 C 0.71732 0.67875 0.04280
 H2364 H 0.74791 0.61449 0.06369
 H2365 H 0.73028 0.58465 0.06305
 H2366 H 0.68180 0.61613 0.04552
 H2367 H 0.75911 0.64931 0.06137
 H2368 H 0.76271 0.68345 0.05461
 H2369 H 0.70563 0.68645 0.03741
 C2370 C 0.19779 0.60139 0.70352
 C2371 C 0.19987 0.59351 0.68688
 C2372 C 0.19713 0.60362 0.67126
 C2373 C 0.19244 0.62285 0.67279
 C2374 C 0.19085 0.63164 0.68976
 C2375 C 0.19316 0.62060 0.70537
 O2376 O 0.20163 0.58928 0.71660
 C2377 C 0.20633 0.57348 0.70798
 C2378 C 0.20556 0.57545 0.68977
 C2379 C 0.21085 0.56120 0.67806
 C2380 C 0.21720 0.54413 0.68540
 C2381 C 0.21796 0.54154 0.70412
 C2382 C 0.21227 0.55639 0.71562
 H2383 H 0.19884 0.59703 0.65834
 H2384 H 0.19036 0.63099 0.66073
 H2385 H 0.19224 0.62693 0.71849
 H2386 H 0.21032 0.56322 0.66379
 H2387 H 0.22131 0.53280 0.67646
 H2388 H 0.21287 0.55481 0.72994
 C2389 C 0.21382 0.13898 0.21583
 C2390 C 0.19702 0.13203 0.22060
 C2391 C 0.18075 0.14203 0.21785
 C2392 C 0.18181 0.16001 0.20993
 C2393 C 0.19904 0.16790 0.20529
 C2394 C 0.21526 0.15703 0.20837
 O2395 O 0.22757 0.12693 0.21906
 C2396 C 0.21925 0.11206 0.22612
 C2397 C 0.20057 0.11458 0.22752
 C2398 C 0.18917 0.10100 0.23484
 C2399 C 0.19734 0.08410 0.24088
 C2400 C 0.21650 0.08091 0.23920
 C2401 C 0.22762 0.09510 0.23165
 H2402 H 0.16765 0.13608 0.22143
 H2403 H 0.16912 0.16755 0.20721
 H2404 H 0.22870 0.16246 0.20529
 H2405 H 0.17453 0.10333 0.23585
 H2406 H 0.18866 0.07325 0.24647
 H2407 H 0.24227 0.09303 0.23023
 C2408 C 0.72007 1.11227 0.70158
 C2409 C 0.73612 1.10899 0.69263
 C2410 C 0.74357 1.12184 0.68088
 C2411 C 0.73398 1.13880 0.67794
 C2412 C 0.71695 1.14278 0.68654
 C2413 C 0.71019 1.12921 0.69892
 O2414 O 0.71543 1.09782 0.71201
 C2415 C 0.72892 1.08524 0.70949
 C2416 C 0.74184 1.09152 0.69771
 C2417 C 0.75696 1.08079 0.69270
 C2418 C 0.75895 1.06274 0.70014
 C2419 C 0.74595 1.05566 0.71244
 C2420 C 0.73069 1.06720 0.71725
 H2421 H 0.75641 1.11895 0.67422
 H2422 H 0.74037 1.14902 0.66930
 H2423 H 0.69726 1.13116 0.70566
 H2424 H 0.76688 1.08611 0.68334
 H2425 H 0.77081 1.05435 0.69634
 H2426 H 0.72048 1.06223 0.72650
 C2427 C 0.68887 0.61204 0.19022
 C2428 C 0.67338 0.60135 0.18755
 C2429 C 0.65699 0.60891 0.18110
 C2430 C 0.65632 0.62846 0.17783
 C2431 C 0.67182 0.64002 0.18118
 C2432 C 0.68852 0.63161 0.18697
 O2433 O 0.70264 0.60219 0.19747
 C2434 C 0.69559 0.58499 0.19956
 C2435 C 0.67767 0.58383 0.19380
 C2436 C 0.66707 0.56773 0.19603
 C2437 C 0.67528 0.55210 0.20447
 C2438 C 0.69381 0.55274 0.21027
 C2439 C 0.70422 0.56936 0.20762
 H2440 H 0.64495 0.60021 0.17929
 H2441 H 0.64346 0.63481 0.17350
 H2442 H 0.70036 0.64020 0.19009
 H2443 H 0.65289 0.56732 0.19169
 H2444 H 0.66732 0.53935 0.20626
 H2445 H 0.71833 0.57021 0.21212
 C2446 C 0.56863 0.11906 0.69764
 C2447 C 0.56690 0.13093 0.68326
 C2448 C 0.57170 0.12557 0.66616
 C2449 C 0.57811 0.10699 0.66363
 C2450 C 0.57924 0.09381 0.67805
 C2451 C 0.57484 0.10042 0.69546
 O2452 O 0.56295 0.12694 0.71273
 C2453 C 0.55744 0.14413 0.70768
 C2454 C 0.55947 0.14718 0.68972
 C2455 C 0.55372 0.16374 0.68132
 C2456 C 0.54560 0.17782 0.69189
 C2457 C 0.54363 0.17519 0.71051
 C2458 C 0.54976 0.15815 0.71855
 H2459 H 0.57050 0.13534 0.65511
 H2460 H 0.58244 0.10324 0.65035
 H2461 H 0.57495 0.09117 0.70693
 H2462 H 0.55529 0.16570 0.66713
 H2463 H 0.54116 0.19093 0.68563
 H2464 H 0.54831 0.15579 0.73271
 C2465 C 1.04992 0.15320 0.19891
 C2466 C 1.06662 0.16114 0.20299
 C2467 C 1.08298 0.15090 0.20283
 C2468 C 1.08206 0.13155 0.19870
 C2469 C 1.06497 0.12281 0.19502
 C2470 C 1.04869 0.13388 0.19470
 O2471 O 1.03598 0.16533 0.20078
 C2472 C 1.04410 0.18117 0.20626
 C2473 C 1.06282 0.17926 0.20789
 C2474 C 1.07398 0.19354 0.21455
 C2475 C 1.06551 0.21054 0.21979
 C2476 C 1.04622 0.21302 0.21818
 C2477 C 1.03538 0.19817 0.21107
 H2478 H 1.09591 0.15745 0.20625
 H2479 H 1.09458 0.12317 0.19894
 H2480 H 1.03547 0.12744 0.19228
 H2481 H 1.08866 0.19155 0.21594
 H2482 H 1.07402 0.22183 0.22502
 H2483 H 1.02062 0.19962 0.20983
 C2484 C 0.20384 0.62217 0.54196
 C2485 C 0.21753 0.62511 0.55431
 C2486 C 0.22153 0.61230 0.56782
 C2487 C 0.21085 0.59588 0.56880
 C2488 C 0.19661 0.59231 0.55618
 C2489 C 0.19332 0.60571 0.54240
 O2490 O 0.20153 0.63667 0.53088
 C2491 C 0.21404 0.64901 0.53638
 C2492 C 0.22426 0.64255 0.55061
 C2493 C 0.23771 0.65339 0.55887
 C2494 C 0.24066 0.67172 0.55229
 C2495 C 0.23009 0.67894 0.53779
 C2496 C 0.21667 0.66723 0.52966
 H2497 H 0.23212 0.61513 0.57762
 H2498 H 0.21334 0.58636 0.57984
 H2499 H 0.18273 0.60365 0.53245
 H2500 H 0.24549 0.64802 0.57013
 H2501 H 0.25094 0.68039 0.55877
 H2502 H 0.20827 0.67225 0.51868
 C2503 C 0.22875 0.12551 1.04779
 C2504 C 0.24675 0.12297 1.05290
 C2505 C 0.25290 0.10669 1.06164
 C2506 C 0.23994 0.09256 1.06533
 C2507 C 0.22120 0.09498 1.06039
 C2508 C 0.21568 0.11179 1.05143
 O2509 O 0.22557 0.14200 1.03982
 C2510 C 0.24191 0.15012 1.03990
 C2511 C 0.25537 0.13916 1.04781
 C2512 C 0.27336 0.14534 1.04977
 C2513 C 0.27761 0.16352 1.04334
 C2514 C 0.26395 0.17500 1.03497
 C2515 C 0.24586 0.16805 1.03323
 H2516 H 0.26714 0.10494 1.06550
 H2517 H 0.24455 0.07974 1.07197
 H2518 H 0.20150 0.11440 1.04777
 H2519 H 0.28372 0.13656 1.05616
 H2520 H 0.29151 0.16861 1.04482
 H2521 H 0.23502 0.17651 1.02720
 C2522 C 0.20538 0.71468 0.63963
 C2523 C 0.22424 0.71381 0.64001
 C2524 C 0.23413 0.70434 0.65321
 C2525 C 0.22416 0.69509 0.66643
 C2526 C 0.20473 0.69560 0.66623
 C2527 C 0.19520 0.70584 0.65285
 O2528 O 0.19869 0.72286 0.62502
 C2529 C 0.21364 0.72718 0.61596
 C2530 C 0.22961 0.72197 0.62461
 C2531 C 0.24680 0.72363 0.61699
 C2532 C 0.24758 0.73070 0.59963
 C2533 C 0.23133 0.73594 0.59025
 C2534 C 0.21412 0.73452 0.59870
 H2535 H 0.24895 0.70352 0.65297
 H2536 H 0.23149 0.68711 0.67657
 H2537 H 0.18035 0.70591 0.65216
 H2538 H 0.25912 0.71910 0.62395
 H2539 H 0.26086 0.73172 0.59334
 H2540 H 0.20148 0.73794 0.59171
 C2541 C 0.23701 0.22710 1.13509
 C2542 C 0.25377 0.21802 1.13574
 C2543 C 0.25921 0.20675 1.15004
 C2544 C 0.24679 0.20459 1.16411
 C2545 C 0.22919 0.21344 1.16353
 C2546 C 0.22444 0.22504 1.14879
 O2547 O 0.23414 0.23661 1.12011
 C2548 C 0.24938 0.23340 1.11103
 C2549 C 0.26183 0.22204 1.11992
 C2550 C 0.27823 0.21603 1.11229
 C2551 C 0.28179 0.22179 1.09476
 C2552 C 0.26910 0.23350 1.08532
 C2553 C 0.25281 0.23960 1.09381
 H2554 H 0.27245 0.19968 1.15028
 H2555 H 0.25084 0.19588 1.17534
 H2556 H 0.21103 0.23164 1.14757
 H2557 H 0.28772 0.20687 1.11942
 H2558 H 0.29432 0.21695 1.08850
 H2559 H 0.24273 0.24839 1.08704
 C2560 C 0.69782 0.52921 0.11396
 C2561 C 0.69644 0.51007 0.11066
 C2562 C 0.69186 0.50287 0.09396
 C2563 C 0.68869 0.51594 0.08013
 C2564 C 0.68992 0.53582 0.08326
 C2565 C 0.69444 0.54240 0.10057
 O2566 O 0.70243 0.53325 0.13062
 C2567 C 0.70398 0.51628 0.13808
 C2568 C 0.70035 0.50157 0.12653
 C2569 C 0.70069 0.48265 0.13186
 C2570 C 0.70486 0.47882 0.14982
 C2571 C 0.70887 0.49381 0.16186
 C2572 C 0.70848 0.51279 0.15579
 H2573 H 0.69095 0.48774 0.09161
 H2574 H 0.68556 0.51054 0.06696
 H2575 H 0.69514 0.55738 0.10367
 H2576 H 0.69766 0.47129 0.12260
 H2577 H 0.70504 0.46423 0.15434
 H2578 H 0.71111 0.52458 0.16472
 C2579 C 0.71792 1.01893 0.62049
 C2580 C 0.70264 1.01166 0.62849
 C2581 C 0.68507 1.01409 0.62153
 C2582 C 0.68315 1.02440 0.60564
 C2583 C 0.69873 1.03178 0.59677
 C2584 C 0.71640 1.02880 0.60445
 O2585 O 0.73324 1.01597 0.62984
 C2586 C 0.72747 1.00659 0.64403
 C2587 C 0.70888 1.00343 0.64374
 C2588 C 0.69987 0.99416 0.65739
 C2589 C 0.71039 0.98815 0.67207
 C2590 C 0.72954 0.99172 0.67303
 C2591 C 0.73819 1.00096 0.65864
 H2592 H 0.67318 1.00862 0.62831
 H2593 H 0.66943 1.02695 0.60059
 H2594 H 0.72869 1.03402 0.59819
 H2595 H 0.68521 0.99191 0.65690
 H2596 H 0.70342 0.98138 0.68301
 H2597 H 0.75271 1.00410 0.65900
 C2598 C 0.55550 0.21701 0.62253
 C2599 C 0.57055 0.22589 0.62970
 C2600 C 0.58785 0.22453 0.62223
 C2601 C 0.58979 0.21354 0.60675
 C2602 C 0.57442 0.20449 0.59862
 C2603 C 0.55694 0.20660 0.60673
 O2604 O 0.54069 0.21855 0.63266
 C2605 C 0.54655 0.22866 0.64651
 C2606 C 0.56466 0.23372 0.64520
 C2607 C 0.57385 0.24366 0.65850
 C2608 C 0.56412 0.24816 0.67400
 C2609 C 0.54564 0.24234 0.67613
 C2610 C 0.53666 0.23277 0.66194
 H2611 H 0.59964 0.23109 0.62849
 H2612 H 0.60349 0.21165 0.60164
 H2613 H 0.54476 0.20014 0.60121
 H2614 H 0.58816 0.24734 0.65721
 H2615 H 0.57136 0.25527 0.68472
 H2616 H 0.52270 0.22785 0.66319
 C2617 C 1.04583 0.24035 0.11510
 C2618 C 1.05084 0.25912 0.11444
 C2619 C 1.06222 0.26630 0.10143
 C2620 C 1.06922 0.25355 0.08886
 C2621 C 1.06455 0.23396 0.08921
 C2622 C 1.05198 0.22749 0.10217
 O2623 O 1.03693 0.23603 0.12991
 C2624 C 1.03638 0.25242 0.13874
 C2625 C 1.04457 0.26699 0.12972
 C2626 C 1.04702 0.28493 0.13702
 C2627 C 1.04110 0.28794 0.15449
 C2628 C 1.03305 0.27305 0.16439
 C2629 C 1.03029 0.25512 0.15618
 H2630 H 1.06629 0.28105 0.10144
 H2631 H 1.07844 0.25898 0.07888
 H2632 H 1.04864 0.21260 0.10334
 H2633 H 1.05378 0.29605 0.12971
 H2634 H 1.04326 0.30177 0.16043
 H2635 H 1.02456 0.24334 0.16344
 C2636 C 0.64520 0.19900 0.71742
 C2637 C 0.64820 0.21803 0.72042
 C2638 C 0.66455 0.22684 0.71608
 C2639 C 0.67807 0.21578 0.70772
 C2640 C 0.67499 0.19634 0.70377
 C2641 C 0.65855 0.18769 0.70923
 O2642 O 0.62823 0.19376 0.72122
 C2643 C 0.62034 0.20983 0.72656
 C2644 C 0.63191 0.22513 0.72623
 C2645 C 0.62596 0.24361 0.72966
 C2646 C 0.60732 0.24641 0.73362
 C2647 C 0.59519 0.23080 0.73427
 C2648 C 0.60190 0.21224 0.73083
 H2649 H 0.66650 0.24188 0.71832
 H2650 H 0.69056 0.22256 0.70344
 H2651 H 0.65561 0.17306 0.70583
 H2652 H 0.63522 0.25550 0.72887
 H2653 H 0.60233 0.26068 0.73615
 H2654 H 0.59285 0.20012 0.73073
 C2655 C 1.14631 0.24587 0.21268
 C2656 C 1.14301 0.25891 0.19946
 C2657 C 1.15398 0.26037 0.18453
 C2658 C 1.16885 0.24773 0.18303
 C2659 C 1.17287 0.23410 0.19654
 C2660 C 1.16141 0.23356 0.21178
 O2661 O 1.13327 0.24566 0.22494
 C2662 C 1.12148 0.25885 0.21928
 C2663 C 1.12691 0.26750 0.20383
 C2664 C 1.11626 0.28107 0.19510
 C2665 C 1.09912 0.28567 0.20239
 C2666 C 1.09282 0.27648 0.21800
 C2667 C 1.10443 0.26311 0.22672
 H2668 H 1.15079 0.27039 0.17403
 H2669 H 1.17666 0.24821 0.17087
 H2670 H 1.16375 0.22363 0.22251
 H2671 H 1.12079 0.28759 0.18289
 H2672 H 1.09055 0.29593 0.19546
 H2673 H 1.10004 0.25565 0.23850
 C2674 C 0.11566 0.72150 0.56629
 C2675 C 0.11264 0.72666 0.54888
 C2676 C 0.09524 0.72799 0.54135
 C2677 C 0.08031 0.72323 0.55203
 C2678 C 0.08294 0.71664 0.56977
 C2679 C 0.10098 0.71625 0.57709
 O2680 O 0.13335 0.72145 0.57081
 C2681 C 0.14162 0.72651 0.55584
 C2682 C 0.12952 0.72957 0.54199
 C2683 C 0.13513 0.73409 0.52489
 C2684 C 0.15400 0.73582 0.52197
 C2685 C 0.16675 0.73346 0.53614
 C2686 C 0.16050 0.72875 0.55336
 H2687 H 0.09323 0.73246 0.52770
 H2688 H 0.06670 0.72441 0.54629
 H2689 H 0.10366 0.71122 0.59046
 H2690 H 0.12533 0.73619 0.51416
 H2691 H 0.15868 0.73962 0.50881
 H2692 H 0.17002 0.72688 0.56437
 C2693 C 0.15097 0.21449 1.04709
 C2694 C 0.16032 0.21663 1.06293
 C2695 C 0.15181 0.21633 1.07939
 C2696 C 0.13278 0.21391 1.07957
 C2697 C 0.12269 0.21193 1.06345
 C2698 C 0.13197 0.21192 1.04696
 O2699 O 0.16165 0.21627 1.03293
 C2700 C 0.17805 0.21969 1.04003
 C2701 C 0.17790 0.22004 1.05835
 C2702 C 0.19318 0.22452 1.06860
 C2703 C 0.20928 0.22908 1.05961
 C2704 C 0.20984 0.22901 1.04075
 C2705 C 0.19409 0.22388 1.03078
 H2706 H 0.15949 0.21823 1.09164
 H2707 H 0.12585 0.21374 1.09227
 H2708 H 0.12456 0.21072 1.03447
 H2709 H 0.19263 0.22492 1.08299
 H2710 H 0.22130 0.23282 1.06733
 H2711 H 0.19411 0.22404 1.01636
 C2712 C 0.59467 0.51854 0.19655
 C2713 C 0.59494 0.49957 0.19212
 C2714 C 0.58087 0.49095 0.18263
 C2715 C 0.56607 0.50242 0.17718
 C2716 C 0.56571 0.52221 0.18101
 C2717 C 0.58012 0.53026 0.19119
 O2718 O 0.60972 0.52400 0.20513
 C2719 C 0.61970 0.50817 0.20601
 C2720 C 0.61133 0.49284 0.19816
 C2721 C 0.61983 0.47516 0.19660
 C2722 C 0.63774 0.47323 0.20337
 C2723 C 0.64663 0.48880 0.21168
 C2724 C 0.63733 0.50646 0.21317
 H2725 H 0.58137 0.47600 0.17930
 H2726 H 0.55501 0.49591 0.16973
 H2727 H 0.58041 0.54531 0.19412
 H2728 H 0.61305 0.46339 0.19011
 H2729 H 0.64469 0.45965 0.20212
 H2730 H 0.64381 0.51867 0.21921
 C2731 C 0.63681 1.03010 0.71276
 C2732 C 0.63367 1.01111 0.71546
 C2733 C 0.61755 1.00227 0.71007
 C2734 C 0.60434 1.01337 0.70110
 C2735 C 0.60754 1.03286 0.69767
 C2736 C 0.62384 1.04138 0.70405
 O2737 O 0.65364 1.03538 0.71729
 C2738 C 0.66138 1.01935 0.72288
 C2739 C 0.64976 1.00407 0.72200
 C2740 C 0.65557 0.98559 0.72544
 C2741 C 0.67413 0.98274 0.72974
 C2742 C 0.68641 0.99827 0.73062
 C2743 C 0.67983 1.01689 0.72747
 H2744 H 0.61554 0.98721 0.71202
 H2745 H 0.59199 1.00665 0.69619
 H2746 H 0.62704 1.05600 0.70102
 H2747 H 0.64630 0.97373 0.72424
 H2748 H 0.67903 0.96840 0.73207
 H2749 H 0.68900 1.02891 0.72752
 C2750 C 0.85277 0.45996 0.28174
 C2751 C 0.85118 0.47905 0.27818
 C2752 C 0.86471 0.49207 0.28254
 C2753 C 0.88040 0.48522 0.29133
 C2754 C 0.88223 0.46570 0.29563
 C2755 C 0.86840 0.45279 0.29039
 O2756 O 0.83774 0.45031 0.27749
 C2757 C 0.82642 0.46365 0.27123
 C2758 C 0.83405 0.48146 0.27146
 C2759 C 0.82432 0.49778 0.26690
 C2760 C 0.80592 0.49571 0.26196
 C2761 C 0.79767 0.47755 0.26151
 C2762 C 0.80813 0.46120 0.26596
 H2763 H 0.86300 0.50705 0.27976
 H2764 H 0.89093 0.49518 0.29528
 H2765 H 0.86933 0.43791 0.29388
 H2766 H 0.83056 0.51166 0.26752
 H2767 H 0.79802 0.50829 0.25853
 H2768 H 0.80201 0.44724 0.26604
 C2769 C 0.88976 0.95613 0.79130
 C2770 C 0.89261 0.95005 0.77412
 C2771 C 0.90901 0.94166 0.76876
 C2772 C 0.92289 0.93926 0.78169
 C2773 C 0.92003 0.94493 0.79966
 C2774 C 0.90317 0.95364 0.80434
 O2775 O 0.87321 0.96345 0.79386
 C2776 C 0.86535 0.96190 0.77799
 C2777 C 0.87651 0.95366 0.76542
 C2778 C 0.87047 0.94977 0.74816
 C2779 C 0.85221 0.95458 0.74377
 C2780 C 0.84067 0.96340 0.75653
 C2781 C 0.84743 0.96716 0.77383
 H2782 H 0.91101 0.93703 0.75516
 H2783 H 0.93577 0.93289 0.77767
 H2784 H 0.90016 0.95772 0.81792
 H2785 H 0.87937 0.94300 0.73853
 H2786 H 0.84709 0.95155 0.73051
 H2787 H 0.83880 0.97345 0.78396
 C2788 C 0.39012 0.27719 0.79104
 C2789 C 0.39031 0.25772 0.79199
 C2790 C 0.37644 0.24739 0.79996
 C2791 C 0.36154 0.25754 0.80701
 C2792 C 0.36070 0.27763 0.80587
 C2793 C 0.37532 0.28758 0.79784
 O2794 O 0.40490 0.28419 0.78320
 C2795 C 0.41461 0.26875 0.77904
 C2796 C 0.40615 0.25223 0.78406
 C2797 C 0.41373 0.23439 0.78116
 C2798 C 0.43098 0.23347 0.77316
 C2799 C 0.44046 0.25025 0.76831
 C2800 C 0.43192 0.26819 0.77102
 H2801 H 0.37699 0.23205 0.80058
 H2802 H 0.35038 0.24973 0.81285
 H2803 H 0.37507 0.30291 0.79682
 H2804 H 0.40674 0.22161 0.78516
 H2805 H 0.43712 0.21959 0.77115
 H2806 H 0.43882 0.28125 0.76769
 C2807 C 0.88651 0.29613 0.28613
 C2808 C 0.88425 0.29763 0.26800
 C2809 C 0.86725 0.30032 0.25990
 C2810 C 0.85193 0.30180 0.27097
 C2811 C 0.85386 0.30094 0.28979
 C2812 C 0.87147 0.29778 0.29742
 O2813 O 0.90392 0.29376 0.29106
 C2814 C 0.91281 0.29389 0.27569
 C2815 C 0.90137 0.29636 0.26122
 C2816 C 0.90775 0.29783 0.24391
 C2817 C 0.92673 0.29675 0.24139
 C2818 C 0.93884 0.29398 0.25604
 C2819 C 0.93177 0.29234 0.27345
 H2820 H 0.86583 0.30132 0.24558
 H2821 H 0.83856 0.30367 0.26483
 H2822 H 0.87351 0.29723 0.31170
 H2823 H 0.89847 0.29999 0.23277
 H2824 H 0.93202 0.29788 0.22801
 H2825 H 0.94075 0.29042 0.28487
 C2826 C 0.36245 0.79355 0.46421
 C2827 C 0.36360 0.80082 0.48117
 C2828 C 0.37906 0.81016 0.48754
 C2829 C 0.39394 0.81210 0.47593
 C2830 C 0.39304 0.80489 0.45826
 C2831 C 0.37694 0.79549 0.45242
 O2832 O 0.34659 0.78513 0.46075
 C2833 C 0.33749 0.78715 0.47587
 C2834 C 0.34726 0.79674 0.48875
 C2835 C 0.34020 0.80074 0.50548
 C2836 C 0.32237 0.79459 0.50908
 C2837 C 0.31204 0.78448 0.49608
 C2838 C 0.31981 0.78069 0.47923
 H2839 H 0.37968 0.81570 0.50099
 H2840 H 0.40617 0.81909 0.48078
 H2841 H 0.37554 0.79013 0.43897
 H2842 H 0.34811 0.80839 0.51538
 H2843 H 0.31669 0.79758 0.52208
 H2844 H 0.31227 0.77319 0.46897
 C2845 C 0.39991 0.30145 0.96581
 C2846 C 0.40419 0.28295 0.97017
 C2847 C 0.42069 0.27431 0.96556
 C2848 C 0.43292 0.28488 0.95535
 C2849 C 0.42832 0.30357 0.94975
 C2850 C 0.41193 0.31225 0.95571
 O2851 O 0.38287 0.30635 0.97003
 C2852 C 0.37620 0.29056 0.97696
 C2853 C 0.38865 0.27577 0.97721
 C2854 C 0.38393 0.25736 0.98190
 C2855 C 0.36565 0.25409 0.98662
 C2856 C 0.35271 0.26920 0.98681
 C2857 C 0.35810 0.28773 0.98209
 H2858 H 0.42362 0.25965 0.96890
 H2859 H 0.44541 0.27809 0.95075
 H2860 H 0.40784 0.32623 0.95111
 H2861 H 0.39383 0.24583 0.98145
 H2862 H 0.36155 0.23986 0.99018
 H2863 H 0.34830 0.29937 0.98170
 C2864 C 0.77726 0.45274 0.35813
 C2865 C 0.77181 0.43574 0.35089
 C2866 C 0.77630 0.41829 0.35830
 C2867 C 0.78636 0.41830 0.37421
 C2868 C 0.79134 0.43560 0.38269
 C2869 C 0.78712 0.45311 0.37420
 O2870 O 0.77152 0.46766 0.34871
 C2871 C 0.76211 0.45983 0.33537
 C2872 C 0.76176 0.44034 0.33631
 C2873 C 0.75220 0.42913 0.32428
 C2874 C 0.74283 0.43833 0.31045
 C2875 C 0.74340 0.45841 0.30864
 C2876 C 0.75319 0.46934 0.32136
 H2877 H 0.77203 0.40511 0.35215
 H2878 H 0.78990 0.40476 0.38016
 H2879 H 0.79063 0.46656 0.38030
 H2880 H 0.75201 0.41382 0.32545
 H2881 H 0.73570 0.42965 0.30074
 H2882 H 0.75396 0.48464 0.32029
 C2883 C 0.80445 0.95898 0.87079
 C2884 C 0.80754 0.97801 0.86839
 C2885 C 0.81416 0.98968 0.88188
 C2886 C 0.81775 0.98143 0.89855
 C2887 C 0.81508 0.96169 0.90145
 C2888 C 0.80828 0.95037 0.88718
 O2889 O 0.79773 0.95052 0.85632
 C2890 C 0.79662 0.96454 0.84452
 C2891 C 0.80260 0.98161 0.85124
 C2892 C 0.80297 0.99810 0.84114
 C2893 C 0.79695 0.99699 0.82338
 C2894 C 0.79043 0.97964 0.81613
 C2895 C 0.79020 0.96318 0.82695
 H2896 H 0.81623 1.00470 0.87973
 H2897 H 0.82231 0.99062 0.90923
 H2898 H 0.80618 0.93527 0.88865
 H2899 H 0.80781 1.01135 0.84670
 H2900 H 0.79714 1.00972 0.81534
 H2901 H 0.78545 0.94972 0.82176
 C2902 C 0.27559 0.78860 0.38951
 C2903 C 0.25675 0.78962 0.38864
 C2904 C 0.24725 0.79451 0.37322
 C2905 C 0.25757 0.79886 0.35813
 C2906 C 0.27708 0.79858 0.35872
 C2907 C 0.28617 0.79302 0.37465
 O2908 O 0.28186 0.78390 0.40557
 C2909 C 0.26664 0.78199 0.41501
 C2910 C 0.25093 0.78546 0.40528
 C2911 C 0.23351 0.78509 0.41269
 C2912 C 0.23222 0.78094 0.43089
 C2913 C 0.24818 0.77703 0.44121
 C2914 C 0.26565 0.77749 0.43308
 H2915 H 0.23241 0.79510 0.37285
 H2916 H 0.25031 0.80259 0.34600
 H2917 H 0.30099 0.79279 0.37565
 H2918 H 0.22136 0.78809 0.40478
 H2919 H 0.21877 0.78061 0.43691
 H2920 H 0.27810 0.77483 0.44066
 C2921 C 0.31001 0.27860 0.88107
 C2922 C 0.29117 0.27827 0.88108
 C2923 C 0.28064 0.28170 0.86593
 C2924 C 0.28987 0.28579 0.85011
 C2925 C 0.30935 0.28681 0.84969
 C2926 C 0.31952 0.28293 0.86550
 O2927 O 0.31734 0.27493 0.89698
 C2928 C 0.30278 0.27234 0.90723
 C2929 C 0.28645 0.27437 0.89812
 C2930 C 0.26948 0.27307 0.90630
 C2931 C 0.26930 0.26958 0.92466
 C2932 C 0.28590 0.26714 0.93440
 C2933 C 0.30292 0.26840 0.92549
 H2934 H 0.26581 0.28115 0.86625
 H2935 H 0.28175 0.28804 0.83818
 H2936 H 0.33434 0.28368 0.86581
 H2937 H 0.25682 0.27494 0.89886
 H2938 H 0.25620 0.26864 0.93131
 H2939 H 0.31580 0.26687 0.93265
 C2940 C 0.47200 0.28295 0.86615
 C2941 C 0.45811 0.27106 0.86083
 C2942 C 0.44088 0.27137 0.86861
 C2943 C 0.43799 0.28418 0.88268
 C2944 C 0.45225 0.29635 0.88865
 C2945 C 0.46943 0.29582 0.88005
 O2946 O 0.48716 0.28079 0.85671
 C2947 C 0.48276 0.26724 0.84519
 C2948 C 0.46518 0.26073 0.84716
 C2949 C 0.45762 0.24699 0.83604
 C2950 C 0.46844 0.24016 0.82198
 C2951 C 0.48643 0.24719 0.81928
 C2952 C 0.49377 0.26057 0.83146
 H2953 H 0.43007 0.26206 0.86405
 H2954 H 0.42468 0.28459 0.88896
 H2955 H 0.48062 0.30479 0.88435
 H2956 H 0.44369 0.24216 0.83776
 H2957 H 0.46244 0.23013 0.81271
 H2958 H 0.50729 0.26650 0.82974
 C2959 C 0.95556 0.31475 0.35727
 C2960 C 0.95714 0.33163 0.34825
 C2961 C 0.95017 0.34871 0.35461
 C2962 C 0.94185 0.34860 0.37131
 C2963 C 0.94103 0.33168 0.38155
 C2964 C 0.94742 0.31434 0.37412
 O2965 O 0.96360 0.30028 0.34888
 C2966 C 0.97055 0.30830 0.33441
 C2967 C 0.96711 0.32751 0.33360
 C2968 C 0.97410 0.33909 0.32040
 C2969 C 0.98488 0.33050 0.30729
 C2970 C 0.98821 0.31062 0.30736
 C2971 C 0.98086 0.29930 0.32111
 H2972 H 0.95154 0.36177 0.34719
 H2973 H 0.93676 0.36191 0.37667
 H2974 H 0.94717 0.30127 0.38166
 H2975 H 0.97144 0.35424 0.32025
 H2976 H 0.99016 0.33930 0.29672
 H2977 H 0.98317 0.28410 0.32147
 C2978 C 0.45879 0.36218 0.79448
 C2979 C 0.47658 0.36402 0.80037
 C2980 C 0.48328 0.38079 0.80754
 C2981 C 0.47116 0.39632 0.80864
 C2982 C 0.45252 0.39477 0.80299
 C2983 C 0.44635 0.37721 0.79597
 O2984 O 0.45548 0.34545 0.78701
 C2985 C 0.47152 0.33652 0.78828
 C2986 C 0.48484 0.34716 0.79656
 C2987 C 0.50269 0.34056 0.79918
 C2988 C 0.50704 0.32236 0.79274
 C2989 C 0.49371 0.31143 0.78352
 C2990 C 0.47564 0.31858 0.78146
 H2991 H 0.49748 0.38207 0.81165
 H2992 H 0.47655 0.40966 0.81347
 H2993 H 0.43232 0.37516 0.79166
 H2994 H 0.51293 0.34918 0.80576
 H2995 H 0.52094 0.31707 0.79438
 H2996 H 0.46518 0.31056 0.77450
 C2997 C 0.94862 0.40042 0.28746
 C2998 C 0.96662 0.40590 0.28883
 C2999 C 0.97211 0.42194 0.29821
 C3000 C 0.95842 0.43303 0.30627
 C3001 C 0.93966 0.42796 0.30482
 C3002 C 0.93476 0.41126 0.29536
 O3003 O 0.94646 0.38446 0.27819
 C3004 C 0.96349 0.37983 0.27358
 C3005 C 0.97628 0.39257 0.27973
 C3006 C 0.99495 0.39041 0.27682
 C3007 C 1.00077 0.37417 0.26761
 C3008 C 0.98798 0.36047 0.26149
 C3009 C 0.96898 0.36357 0.26422
 H3010 H 0.98640 0.42589 0.29913
 H3011 H 0.96241 0.44588 0.31317
 H3012 H 0.92059 0.40693 0.29412
 H3013 H 1.00473 0.40063 0.28182
 H3014 H 1.01534 0.37200 0.26567
 H3015 H 0.95894 0.35319 0.26007
 C3016 C 0.28369 0.88165 0.47126
 C3017 C 0.26521 0.88538 0.46977
 C3018 C 0.25834 0.90117 0.46075
 C3019 C 0.27106 0.91361 0.45308
 C3020 C 0.29025 0.90987 0.45423
 C3021 C 0.29645 0.89346 0.46343
 O3022 O 0.28754 0.86582 0.48005
 C3023 C 0.27114 0.85930 0.48417
 C3024 C 0.25694 0.87059 0.47809
 C3025 C 0.23862 0.86555 0.47995
 C3026 C 0.23489 0.84806 0.48814
 C3027 C 0.24940 0.83633 0.49458
 C3028 C 0.26774 0.84226 0.49277
 H3029 H 0.24374 0.90388 0.45972
 H3030 H 0.26589 0.92617 0.44640
 H3031 H 0.31082 0.88958 0.46420
 H3032 H 0.22765 0.87443 0.47478
 H3033 H 0.22079 0.84351 0.48923
 H3034 H 0.27913 0.83332 0.49700
 C3035 C 0.29924 0.37829 0.95136
 C3036 C 0.30260 0.38294 0.96885
 C3037 C 0.30851 0.40085 0.97407
 C3038 C 0.31125 0.41442 0.96069
 C3039 C 0.30839 0.40981 0.94243
 C3040 C 0.30213 0.39141 0.93786
 O3041 O 0.29397 0.36046 0.94911
 C3042 C 0.29409 0.35364 0.96554
 C3043 C 0.29941 0.36675 0.97813
 C3044 C 0.30145 0.36223 0.99607
 C3045 C 0.29788 0.34344 1.00118
 C3046 C 0.29211 0.32979 0.98843
 C3047 C 0.29007 0.33506 0.97038
 H3048 H 0.31101 0.40423 0.98794
 H3049 H 0.31566 0.42847 0.96460
 H3050 H 0.30017 0.38711 0.92414
 H3051 H 0.30591 0.37269 1.00571
 H3052 H 0.29954 0.33953 1.01503
 H3053 H 0.28605 0.32483 0.96032
 C3054 C 0.78571 0.36387 0.28646
 C3055 C 0.76752 0.35920 0.28789
 C3056 C 0.76170 0.34240 0.29561
 C3057 C 0.77521 0.32975 0.30194
 C3058 C 0.79413 0.33413 0.30058
 C3059 C 0.79935 0.35161 0.29283
 O3060 O 0.78831 0.38046 0.27854
 C3061 C 0.77137 0.38640 0.27486
 C3062 C 0.75817 0.37390 0.28037
 C3063 C 0.73953 0.37733 0.27809
 C3064 C 0.73425 0.39443 0.26998
 C3065 C 0.74756 0.40765 0.26419
 C3066 C 0.76643 0.40344 0.26654
 H3067 H 0.74729 0.33902 0.29651
 H3068 H 0.77090 0.31635 0.30749
 H3069 H 0.81360 0.35559 0.29175
 H3070 H 0.72940 0.36729 0.28256
 H3071 H 0.71974 0.39742 0.26830
 H3072 H 0.77689 0.41335 0.26252
   
