data_POSCAR
  _audit_creation_date              2014-09-24
  _audit_creation_method            'ToBaCCo'
  _symmetry_space_group_name_H-M    'P1'
  _symmetry_Int_Tables_number       1
  _symmetry_cell_setting            triclinic
  loop_
  _symmetry_equiv_pos_as_xyz
 x,y,z
_cell_length_a 68.8628
_cell_length_b 66.6982
_cell_length_c 66.8672
_cell_angle_alpha 89.517300
_cell_angle_beta 90.333900
_cell_angle_gamma 90.459200
loop_
  _atom_site_label
  _atom_site_type_symbol
  _atom_site_fract_x
  _atom_site_fract_y
  _atom_site_fract_z
C1 C 0.35681 0.33478 0.33560
 N2 N 0.34761 0.35062 0.32708
 C3 C 0.33122 0.35817 0.33517
 N4 N 0.32393 0.34964 0.35210
 C5 C 0.33294 0.33368 0.36083
 N6 N 0.34937 0.32636 0.35247
 C7 C 0.36443 0.83330 -0.17417
 N8 N 0.35742 0.82624 -0.15649
 C9 C 0.34189 0.83499 -0.14769
 N10 N 0.33337 0.85105 -0.15675
 C11 C 0.34020 0.85831 -0.17447
 N12 N 0.35566 0.84927 -0.18297
 C13 C 0.85481 0.33100 -0.16270
 N14 N 0.84548 0.32167 -0.14742
 C15 C 0.82965 0.32989 -0.13886
 N16 N 0.82304 0.34781 -0.14582
 C17 C 0.83215 0.35742 -0.16126
 N18 N 0.84808 0.34887 -0.16956
 C19 C 0.86762 0.83267 0.33052
 N20 N 0.85886 0.84920 0.32278
 C21 C 0.84296 0.85714 0.33152
 N22 N 0.83568 0.84830 0.34830
 C23 C 0.84421 0.83169 0.35626
 N24 N 0.86014 0.82400 0.34728
 C25 C 0.64608 0.66621 0.33004
 N26 N 0.65469 0.65087 0.32018
 C27 C 0.67210 0.64362 0.32656
 N28 N 0.68073 0.65181 0.34290
 C29 C 0.67236 0.66701 0.35295
 N30 N 0.65502 0.67417 0.34641
 C31 C 0.63824 0.16216 -0.17446
 N32 N 0.64580 0.16876 -0.15683
 C33 C 0.66197 0.16015 -0.14883
 N34 N 0.67054 0.14479 -0.15863
 C35 C 0.66319 0.13803 -0.17625
 N36 N 0.64710 0.14686 -0.18396
 C37 C 0.14343 0.66664 -0.15879
 N38 N 0.15293 0.67561 -0.14330
 C39 C 0.16938 0.66731 -0.13553
 N40 N 0.17615 0.64998 -0.14334
 C41 C 0.16684 0.64087 -0.15875
 N42 N 0.15054 0.64938 -0.16635
 C43 C 0.13730 0.16985 0.33340
 N44 N 0.14562 0.15314 0.32567
 C45 C 0.16182 0.14513 0.33431
 N46 N 0.16950 0.15397 0.35087
 C47 C 0.16138 0.17054 0.35876
 N48 N 0.14537 0.17837 0.34990
 C49 C 0.64379 0.33876 0.66691
 N50 N 0.65316 0.33205 0.65045
 C51 C 0.66978 0.34110 0.64405
 N52 N 0.67702 0.35700 0.65432
 C53 C 0.66786 0.36391 0.67080
 N54 N 0.65126 0.35469 0.67701
 C55 C 0.63366 0.83752 1.17305
 N56 N 0.64042 0.83010 1.15557
 C57 C 0.65627 0.83836 1.14654
 N58 N 0.66542 0.85427 1.15518
 C59 C 0.65886 0.86185 1.17268
 N60 N 0.64305 0.85335 1.18146
 C61 C 0.14323 0.32550 1.16044
 N62 N 0.15327 0.31640 1.14558
 C63 C 0.17038 0.32419 1.13899
 N64 N 0.17742 0.34119 1.14739
 C65 C 0.16771 0.35060 1.16216
 N66 N 0.15058 0.34265 1.16861
 C67 C 0.13801 0.82930 0.66465
 N68 N 0.14577 0.84649 0.67209
 C69 C 0.16228 0.85467 0.66429
 N70 N 0.17099 0.84540 0.64865
 C71 C 0.16331 0.82825 0.64094
 N72 N 0.14692 0.82036 0.64909
 C73 C 0.36016 0.65536 0.66612
 N74 N 0.35232 0.63963 0.67638
 C75 C 0.33546 0.63091 0.67012
 N76 N 0.32643 0.63813 0.65347
 C77 C 0.33408 0.65386 0.64307
 N78 N 0.35092 0.66238 0.64952
 C79 C 0.36766 0.15911 1.17066
 N80 N 0.36102 0.16626 1.15284
 C81 C 0.34529 0.15782 1.14375
 N82 N 0.33613 0.14200 1.15268
 C83 C 0.34255 0.13464 1.17055
 N84 N 0.35829 0.14335 1.17935
 C85 C 0.85982 0.67249 1.15721
 N86 N 0.85047 0.68219 1.14209
 C87 C 0.83395 0.67454 1.13396
 N88 N 0.82671 0.65698 1.14119
 C89 C 0.83573 0.64701 1.15640
 N90 N 0.85237 0.65488 1.16435
 C91 C 0.86624 0.16810 0.65762
 N92 N 0.85827 0.15107 0.66533
 C93 C 0.84211 0.14264 0.65703
 N94 N 0.83387 0.15154 0.64066
 C95 C 0.84173 0.16861 0.63275
 N96 N 0.85782 0.17671 0.64136
 C97 C 0.33041 0.35833 0.67180
 N98 N 0.34772 0.35161 0.67880
 C99 C 0.35702 0.33636 0.66956
 N100 N 0.34879 0.32781 0.65308
 C101 C 0.33143 0.33446 0.64594
 N102 N 0.32243 0.34966 0.65543
 C103 C 0.33475 0.86026 0.17616
 N104 N 0.32777 0.85363 0.15837
 C105 C 0.33618 0.83800 0.14890
 N106 N 0.35186 0.82896 0.15743
 C107 C 0.35904 0.83542 0.17528
 N108 N 0.35036 0.85103 0.18452
 C109 C 0.83313 0.35520 0.15955
 N110 N 0.84968 0.34686 0.16699
 C111 C 0.85672 0.32965 0.15923
 N112 N 0.84700 0.32077 0.14396
 C113 C 0.83050 0.32883 0.13628
 N114 N 0.82361 0.34612 0.14412
 C115 C 0.84029 0.85727 0.66497
 N116 N 0.85591 0.84920 0.67438
 C117 C 0.86454 0.83249 0.66736
 N118 N 0.85727 0.82368 0.65063
 C119 C 0.84158 0.83154 0.64096
 N120 N 0.83317 0.84838 0.64822
 C121 C 0.66904 0.64177 0.66554
 N122 N 0.67707 0.65046 0.64903
 C123 C 0.66857 0.66647 0.64000
 N124 N 0.65191 0.67380 0.64768
 C125 C 0.64363 0.66533 0.66411
 N126 N 0.65227 0.64928 0.67301
 C127 C 0.66046 0.14064 0.17395
 N128 N 0.66768 0.14774 0.15631
 C129 C 0.65969 0.16405 0.14723
 N130 N 0.64445 0.17319 0.15597
 C131 C 0.63703 0.16632 0.17349
 N132 N 0.64511 0.15002 0.18243
 C133 C 0.16657 0.64234 0.16060
 N134 N 0.17612 0.65163 0.14538
 C135 C 0.16924 0.66875 0.13696
 N136 N 0.15254 0.67669 0.14399
 C137 C 0.14277 0.66763 0.15927
 N138 N 0.14987 0.65044 0.16750
 C139 C 0.15968 0.14200 0.66920
 N140 N 0.14420 0.15027 0.67842
 C141 C 0.13585 0.16719 0.67112
 N142 N 0.14323 0.17598 0.65439
 C143 C 0.15875 0.16796 0.64496
 N144 N 0.16690 0.15093 0.65244
 C145 C 0.33165 0.63422 0.33650
 N146 N 0.32500 0.64333 0.35318
 C147 C 0.33479 0.65901 0.36136
 N148 N 0.35143 0.66565 0.35263
 C149 C 0.35833 0.65672 0.33594
 N150 N 0.34833 0.64102 0.32793
 C151 C 0.33920 0.13796 0.82667
 N152 N 0.33064 0.14473 0.84354
 C153 C 0.33796 0.16082 0.85343
 N154 N 0.35403 0.17026 0.84621
 C155 C 0.36281 0.16374 0.82933
 N156 N 0.35530 0.14755 0.81964
 C157 C 0.83431 0.64976 0.84281
 N158 N 0.85144 0.65758 0.83624
 C159 C 0.85889 0.67463 0.84422
 N160 N 0.84897 0.68395 0.85886
 C161 C 0.83186 0.67642 0.86569
 N162 N 0.82456 0.65924 0.85763
 C163 C 0.83400 0.14741 0.33396
 N164 N 0.85044 0.15564 0.32613
 C165 C 0.85795 0.17300 0.33364
 N166 N 0.84882 0.18206 0.34911
 C167 C 0.83238 0.17398 0.35703
 N168 N 0.82514 0.15673 0.34933
 C169 C 0.66283 0.36937 0.33297
 N170 N 0.64604 0.36104 0.32595
 C171 C 0.63739 0.34557 0.33588
 N172 N 0.64574 0.33845 0.35286
 C173 C 0.66245 0.34649 0.36012
 N174 N 0.67099 0.36201 0.35010
 C175 C 0.66052 0.86452 0.82482
 N176 N 0.66750 0.85797 0.84272
 C177 C 0.65902 0.84218 0.85238
 N178 N 0.64336 0.83291 0.84393
 C179 C 0.63623 0.83934 0.82601
 N180 N 0.64493 0.85510 0.81660
 C181 C 0.15790 0.35514 0.84815
 N182 N 0.16730 0.34580 0.86354
 C183 C 0.15975 0.32881 0.87191
 N184 N 0.14275 0.32126 0.86474
 C185 C 0.13320 0.33042 0.84947
 N186 N 0.14089 0.34732 0.84122
 C187 C 0.16257 0.85716 0.33837
 N188 N 0.14691 0.84795 0.32994
 C189 C 0.14005 0.83028 0.33756
 N190 N 0.14906 0.82187 0.35373
 C191 C 0.16473 0.83096 0.36225
 N192 N 0.17132 0.84852 0.35444
 O193 O 0.24302 1.02165 0.28086
 O194 O 0.27039 0.98131 0.25742
 O195 O 0.27162 1.02006 0.25569
 O196 O 0.24147 0.98297 0.28202
 O197 O 0.22077 0.98244 0.25670
 O198 O 0.25083 1.02036 0.23046
 O199 O 0.24984 0.98112 0.23199
 O200 O 0.22209 1.02179 0.25575
 Cu201 Cu 0.25868 1.00154 0.27150
 Cu202 Cu 0.23378 1.00144 0.24117
 C203 C 0.22789 1.02861 0.27248
 C204 C 0.26487 0.97426 0.24074
 C205 C 0.26645 1.02658 0.23859
 C206 C 0.22606 0.97625 0.27390
 O207 O 0.24930 0.51568 0.73725
 O208 O 0.22049 0.47672 0.76302
 O209 O 0.22153 0.51548 0.76333
 O210 O 0.24760 0.47683 0.73612
 O211 O 0.26948 0.47494 0.76028
 O212 O 0.24369 0.51480 0.78730
 O213 O 0.24235 0.47552 0.78724
 O214 O 0.27151 0.51393 0.76109
 Cu215 Cu 0.23254 0.49629 0.74752
 Cu216 Cu 0.25895 0.49466 0.77644
 C217 C 0.26538 0.52143 0.74474
 C218 C 0.22647 0.46947 0.77956
 C219 C 0.22812 0.52188 0.77985
 C220 C 0.26291 0.46919 0.74344
 O221 O 0.77617 0.02088 0.25526
 O222 O 0.74746 -0.01848 0.22969
 O223 O 0.74675 0.02068 0.23077
 O224 O 0.77693 -0.01831 0.25438
 O225 O 0.75652 -0.02039 0.27962
 O226 O 0.72692 0.01946 0.25655
 O227 O 0.72716 -0.01935 0.25509
 O228 O 0.75639 0.01866 0.28103
 Cu229 Cu 0.76386 0.00131 0.23996
 Cu230 Cu 0.73978 -0.00055 0.27065
 C231 C 0.77110 0.02650 0.27256
 C232 C 0.73229 -0.02553 0.23803
 C233 C 0.73172 0.02685 0.23969
 C234 C 0.77181 -0.02617 0.27093
 O235 O 0.72838 0.52404 0.75666
 O236 O 0.75482 0.48511 0.78556
 O237 O 0.75493 0.52456 0.78458
 O238 O 0.72722 0.48495 0.75875
 O239 O 0.74984 0.48348 0.73561
 O240 O 0.77713 0.52381 0.76095
 O241 O 0.77738 0.48493 0.76226
 O242 O 0.75060 0.52239 0.73312
 Cu243 Cu 0.73912 0.50477 0.77378
 Cu244 Cu 0.76597 0.50357 0.74566
 C245 C 0.73503 0.52974 0.73981
 C246 C 0.77068 0.47839 0.77871
 C247 C 0.77069 0.53110 0.77710
 C248 C 0.73381 0.47735 0.74284
 O249 O 0.21759 0.51569 0.24517
 O250 O 0.24448 0.47659 0.27329
 O251 O 0.24356 0.51568 0.27377
 O252 O 0.21826 0.47627 0.24507
 O253 O 0.24168 0.47738 0.22271
 O254 O 0.26648 0.51725 0.25089
 O255 O 0.26782 0.47843 0.25087
 O256 O 0.24072 0.51618 0.22247
 Cu257 Cu 0.22859 0.49596 0.26157
 Cu258 Cu 0.25647 0.49740 0.23448
 C259 C 0.22467 0.52259 0.22896
 C260 C 0.26087 0.47095 0.26684
 C261 C 0.25931 0.52324 0.26723
 C262 C 0.22579 0.46996 0.22903
 O263 O 0.77687 0.98244 0.73922
 O264 O 0.74840 1.02184 0.76317
 O265 O 0.74770 0.98272 0.76367
 O266 O 0.77737 1.02129 0.73838
 O267 O 0.75696 1.02139 0.71283
 O268 O 0.72730 0.98275 0.73810
 O269 O 0.72795 1.02168 0.73765
 O270 O 0.75649 0.98211 0.71364
 Cu271 Cu 0.76462 1.00210 0.75368
 Cu272 Cu 0.74015 1.00199 0.72296
 C273 C 0.77156 0.97546 0.72243
 C274 C 0.73328 1.02850 0.75452
 C275 C 0.73242 0.97609 0.75517
 C276 C 0.77225 1.02797 0.72132
 O277 O 0.77856 0.48273 0.23797
 O278 O 0.75228 0.52211 0.26426
 O279 O 0.75125 0.48314 0.26477
 O280 O 0.77925 0.52189 0.23727
 O281 O 0.75731 0.52116 0.21310
 O282 O 0.72858 0.48416 0.24135
 O283 O 0.73031 0.52315 0.24015
 O284 O 0.75582 0.48200 0.21461
 Cu285 Cu 0.76759 0.50242 0.25342
 Cu286 Cu 0.74080 0.50263 0.22488
 C287 C 0.77163 0.47540 0.22196
 C288 C 0.73692 0.52951 0.25674
 C289 C 0.73499 0.47721 0.25782
 C290 C 0.77300 0.52812 0.22042
 O291 O 0.22532 0.01649 0.74414
 O292 O 0.25532 -0.02220 0.76816
 O293 O 0.25562 0.01688 0.76760
 O294 O 0.22591 -0.02255 0.74384
 O295 O 0.24528 -0.02195 0.71769
 O296 O 0.27510 0.01736 0.74153
 O297 O 0.27492 -0.02173 0.74218
 O298 O 0.24487 0.01731 0.71812
 Cu299 Cu 0.23858 -0.00285 0.75852
 Cu300 Cu 0.26198 -0.00224 0.72725
 C301 C 0.22996 0.02365 0.72716
 C302 C 0.27021 -0.02867 0.75926
 C303 C 0.27043 0.02391 0.75860
 C304 C 0.23058 -0.02910 0.72675
 O305 O 0.23473 0.23886 1.02253
 O306 O 0.25918 0.21247 0.98172
 O307 O 0.26245 0.21286 1.02069
 O308 O 0.23176 0.23911 0.98385
 O309 O 0.25358 0.26342 0.98154
 O310 O 0.28426 0.23717 1.01840
 O311 O 0.28084 0.23691 0.97948
 O312 O 0.25640 0.26330 1.02028
 Cu313 Cu 0.24490 0.22332 1.00236
 Cu314 Cu 0.27100 0.25261 0.99975
 C315 C 0.24135 0.25566 1.02834
 C316 C 0.27408 0.22021 0.97351
 C317 C 0.27855 0.22065 1.02599
 C318 C 0.23736 0.25578 0.97646
 O319 O 0.24847 0.76877 0.48406
 O320 O 0.27376 0.73932 0.52301
 O321 O 0.27593 0.74209 0.48418
 O322 O 0.24768 0.76720 0.52299
 O323 O 0.22500 0.74378 0.52063
 O324 O 0.25340 0.71852 0.48180
 O325 O 0.25118 0.71579 0.52064
 O326 O 0.22608 0.74505 0.48171
 Cu327 Cu 0.26373 0.75670 0.50376
 Cu328 Cu 0.23667 0.72842 0.50100
 C329 C 0.23298 0.76188 0.47617
 C330 C 0.26670 0.72251 0.52854
 C331 C 0.26953 0.72609 0.47628
 C332 C 0.23153 0.75978 0.52850
 O333 O 0.28484 0.75930 -0.01841
 O334 O 0.25686 0.73224 0.01984
 O335 O 0.25757 0.73201 -0.01881
 O336 O 0.28335 0.76003 0.02063
 O337 O 0.26117 0.78366 0.01868
 O338 O 0.23488 0.75516 -0.01999
 O339 O 0.23446 0.75570 0.01905
 O340 O 0.26213 0.78237 -0.02050
 Cu341 Cu 0.27295 0.74363 0.00091
 Cu342 Cu 0.24595 0.77162 -0.00081
 C343 C 0.27822 0.77526 -0.02625
 C344 C 0.24095 0.73926 0.02607
 C345 C 0.24175 0.73869 -0.02604
 C346 C 0.27655 0.77661 0.02651
 O347 O 0.27126 0.25138 0.48459
 O348 O 0.24161 0.22629 0.52317
 O349 O 0.24241 0.22593 0.48397
 O350 O 0.27045 0.25175 0.52358
 O351 O 0.24992 0.27693 0.52186
 O352 O 0.22146 0.25079 0.48343
 O353 O 0.22107 0.25149 0.52226
 O354 O 0.25020 0.27610 0.48299
 Cu355 Cu 0.25849 0.23629 0.50394
 Cu356 Cu 0.23359 0.26633 0.50256
 C357 C 0.26572 0.26794 0.47706
 C358 C 0.22634 0.23469 0.52944
 C359 C 0.22715 0.23402 0.47691
 C360 C 0.26495 0.26887 0.52941
 O361 O 0.74288 0.73776 0.98009
 O362 O 0.71422 0.76201 1.01921
 O363 O 0.71485 0.76363 0.98005
 O364 O 0.74336 0.73721 1.01911
 O365 O 0.76440 0.76233 1.01928
 O366 O 0.73557 0.78898 0.98155
 O367 O 0.73545 0.78691 1.02052
 O368 O 0.76366 0.76310 0.98063
 Cu369 Cu 0.72667 0.74766 0.99958
 Cu370 Cu 0.75180 0.77789 1.00054
 C371 C 0.75818 0.74629 0.97364
 C372 C 0.72000 0.77844 1.02674
 C373 C 0.72048 0.78087 0.97410
 C374 C 0.75891 0.74528 1.02571
 O375 O 0.75201 0.23617 0.47921
 O376 O 0.72881 0.26310 0.52035
 O377 O 0.72571 0.26394 0.48159
 O378 O 0.75482 0.23536 0.51800
 O379 O 0.77781 0.25852 0.51619
 O380 O 0.74871 0.28710 0.47964
 O381 O 0.75159 0.28647 0.51865
 O382 O 0.77488 0.25945 0.47739
 Cu383 Cu 0.73803 0.24733 0.49990
 Cu384 Cu 0.76554 0.27525 0.49786
 C385 C 0.76739 0.24314 0.47125
 C386 C 0.73626 0.27937 0.52660
 C387 C 0.73221 0.28031 0.47431
 C388 C 0.77133 0.24208 0.52334
 O389 O 0.76558 0.24224 -0.02032
 O390 O 0.73798 0.21621 0.01924
 O391 O 0.73827 0.21508 -0.01982
 O392 O 0.76546 0.24300 0.01834
 O393 O 0.74336 0.26676 0.01786
 O394 O 0.71662 0.23923 -0.02162
 O395 O 0.71573 0.23977 0.01753
 O396 O 0.74388 0.26639 -0.02120
 Cu397 Cu 0.75397 0.22670 -0.00055
 Cu398 Cu 0.72764 0.25541 -0.00194
 C399 C 0.75954 0.25879 -0.02746
 C400 C 0.72214 0.22363 0.02522
 C401 C 0.72299 0.22246 -0.02752
 C402 C 0.75913 0.25957 0.02471
 O403 O 0.78245 0.74758 0.47899
 O404 O 0.75312 0.72261 0.51800
 O405 O 0.75395 0.72174 0.47896
 O406 O 0.78189 0.74800 0.51783
 O407 O 0.76084 0.77275 0.51709
 O408 O 0.73326 0.74677 0.47720
 O409 O 0.73198 0.74725 0.51626
 O410 O 0.76169 0.77259 0.47795
 Cu411 Cu 0.76991 0.73248 0.49855
 Cu412 Cu 0.74485 0.76234 0.49703
 C413 C 0.77708 0.76435 0.47178
 C414 C 0.73753 0.73073 0.52384
 C415 C 0.73899 0.72978 0.47123
 C416 C 0.77612 0.76477 0.52425
 O417 O 1.01887 0.27460 0.23913
 O418 O 0.98051 0.25058 0.26931
 O419 O 1.01819 0.24941 0.26900
 O420 O 0.98073 0.27540 0.23924
 O421 O 0.97989 0.25005 0.21827
 O422 O 1.01751 0.22412 0.24793
 O423 O 0.97944 0.22517 0.24841
 O424 O 1.01782 0.24932 0.21810
 Cu425 Cu 0.99970 0.26507 0.25621
 Cu426 Cu 0.99856 0.23463 0.23107
 C427 C 1.02508 0.26598 0.22358
 C428 C 0.97333 0.23384 0.26400
 C429 C 1.02434 0.23240 0.26353
 C430 C 0.97370 0.26702 0.22378
 O431 O 0.52140 0.27765 0.74375
 O432 O 0.48307 0.25101 0.77185
 O433 O 0.52088 0.24945 0.77066
 O434 O 0.48348 0.27943 0.74490
 O435 O 0.48132 0.25674 0.72115
 O436 O 0.51855 0.22674 0.74694
 O437 O 0.48083 0.22849 0.74796
 O438 O 0.51927 0.25508 0.71991
 Cu439 Cu 0.50239 0.26669 0.76014
 Cu440 Cu 0.49983 0.23953 0.73158
 C441 C 0.52706 0.27080 0.72712
 C442 C 0.47533 0.23524 0.76469
 C443 C 0.52614 0.23295 0.76314
 C444 C 0.47584 0.27312 0.72876
 O445 O -0.02200 0.27557 0.75806
 O446 O 0.01810 0.24972 0.73263
 O447 O -0.01953 0.25005 0.72890
 O448 O 0.01586 0.27535 0.76155
 O449 O 0.01388 0.25022 0.78313
 O450 O -0.02217 0.22530 0.75084
 O451 O 0.01542 0.22460 0.75414
 O452 O -0.02365 0.25070 0.77997
 Cu453 Cu -0.00169 0.26522 0.74311
 Cu454 Cu -0.00435 0.23520 0.76920
 C455 C -0.02964 0.26749 0.77344
 C456 C 0.02354 0.23266 0.73905
 C457 C -0.02696 0.23340 0.73430
 C458 C 0.02106 0.26703 0.77785
 O459 O 0.51827 0.25132 0.23079
 O460 O 0.47994 0.27867 0.25655
 O461 O 0.51779 0.28017 0.25664
 O462 O 0.48056 0.24977 0.23073
 O463 O 0.48210 0.22716 0.25495
 O464 O 0.51761 0.25839 0.28167
 O465 O 0.47985 0.25596 0.28073
 O466 O 0.51982 0.22957 0.25579
 Cu467 Cu 0.49906 0.26723 0.24122
 Cu468 Cu 0.49993 0.24056 0.27078
 C469 C 0.52573 0.23588 0.23888
 C470 C 0.47313 0.27190 0.27289
 C471 C 0.52397 0.27446 0.27368
 C472 C 0.47509 0.23317 0.23838
 O473 O 1.02203 0.77467 0.75348
 O474 O 0.98454 0.75046 0.78465
 O475 O 1.02247 0.74902 0.78289
 O476 O 0.98428 0.77619 0.75515
 O477 O 0.98186 0.75135 0.73368
 O478 O 1.01987 0.72418 0.76144
 O479 O 0.98209 0.72579 0.76299
 O480 O 1.01953 0.74993 0.73190
 Cu481 Cu 1.00354 0.76506 0.77123
 Cu482 Cu 1.00067 0.73530 0.74537
 C483 C 1.02720 0.76641 0.73734
 C484 C 0.97673 0.73411 0.77903
 C485 C 1.02778 0.73194 0.77678
 C486 C 0.97649 0.76841 0.73974
 O487 O 0.47902 0.74855 0.23014
 O488 O 0.51837 0.72038 0.25556
 O489 O 0.48024 0.71836 0.25516
 O490 O 0.51704 0.74989 0.23005
 O491 O 0.51654 0.77095 0.25531
 O492 O 0.47915 0.73986 0.27999
 O493 O 0.51706 0.74137 0.28082
 O494 O 0.47888 0.76993 0.25513
 Cu495 Cu 0.49871 0.73213 0.24023
 Cu496 Cu 0.49784 0.75760 0.27034
 C497 C 0.47229 0.76415 0.23835
 C498 C 0.52452 0.72624 0.27252
 C499 C 0.47319 0.72385 0.27173
 C500 C 0.52322 0.76573 0.23847
 O501 O -0.01404 0.77494 0.24739
 O502 O 0.02222 0.74773 0.21865
 O503 O -0.01550 0.74901 0.21862
 O504 O 0.02363 0.77263 0.24830
 O505 O 0.02165 0.74787 0.27029
 O506 O -0.01676 0.72384 0.24020
 O507 O 0.02132 0.72283 0.24057
 O508 O -0.01618 0.74979 0.26893
 Cu509 Cu 0.00423 0.76356 0.23106
 Cu510 Cu 0.00239 0.73354 0.25716
 C511 C -0.02147 0.76706 0.26292
 C512 C 0.02817 0.73077 0.22471
 C513 C -0.02289 0.73243 0.22439
 C514 C 0.02928 0.76428 0.26445
 O515 O 0.48143 0.77028 0.74447
 O516 O 0.51936 0.74262 0.71851
 O517 O 0.48175 0.74172 0.71836
 O518 O 0.51895 0.77123 0.74454
 O519 O 0.51957 0.74895 0.76910
 O520 O 0.48200 0.71924 0.74275
 O521 O 0.52016 0.72023 0.74298
 O522 O 0.48156 0.74790 0.76897
 Cu523 Cu 0.50033 0.75868 0.72902
 Cu524 Cu 0.50086 0.73178 0.75841
 C525 C 0.47495 0.76390 0.76110
 C526 C 0.52638 0.72681 0.72629
 C527 C 0.47541 0.72552 0.72606
 C528 C 0.52567 0.76522 0.76124
 C529 C 0.40783 0.31104 0.30855
 C530 C 0.39741 0.32634 0.29882
 C531 C 0.38092 0.33414 0.30775
 C532 C 0.37452 0.32668 0.32628
 C533 C 0.38521 0.31125 0.33545
 N534 N 0.40131 0.30392 0.32647
 C535 C 0.42525 0.30187 0.29956
 N536 N 0.43107 0.28351 0.30624
 C537 C 0.44652 0.27384 0.29833
 C538 C 0.45704 0.28262 0.28257
 C539 C 0.45161 0.30173 0.27579
 C540 C 0.43590 0.31145 0.28431
 H541 H 0.37304 0.34586 0.29996
 H542 H 0.38079 0.30498 0.34971
 H543 H 0.45029 0.25916 0.30410
 H544 H 0.45951 0.30920 0.26387
 H545 H 0.40150 0.33203 0.28426
 H546 H 0.43237 0.32633 0.27897
 C547 C 0.41229 0.80627 0.79811
 C548 C 0.40274 0.82229 0.78862
 C549 C 0.38703 0.83126 0.79789
 C550 C 0.38040 0.82426 0.81656
 C551 C 0.39018 0.80795 0.82542
 N552 N 0.40560 0.79952 0.81610
 C553 C 0.42903 0.79610 0.78880
 N554 N 0.43385 0.77730 0.79511
 C555 C 0.44866 0.76685 0.78687
 C556 C 0.45950 0.77526 0.77113
 C557 C 0.45508 0.79477 0.76473
 C558 C 0.44006 0.80528 0.77360
 H559 H 0.37999 0.84359 0.79018
 H560 H 0.38567 0.80186 0.83973
 H561 H 0.45168 0.75187 0.79234
 H562 H 0.46329 0.80198 0.75288
 H563 H 0.40694 0.82774 0.77400
 H564 H 0.43739 0.82045 0.76857
 C565 C -0.09514 0.30361 0.81181
 C566 C -0.10649 0.29299 0.82577
 C567 C -0.12271 0.30198 0.83401
 C568 C -0.12797 0.32149 0.82828
 C569 C -0.11653 0.33149 0.81394
 N570 N -0.10064 0.32242 0.80618
 C571 C -0.07769 0.29462 0.80271
 N572 N -0.07126 0.30168 0.78472
 C573 C -0.05572 0.29365 0.77526
 C574 C -0.04578 0.27739 0.78387
 C575 C -0.05184 0.27028 0.80263
 C576 C -0.06760 0.27891 0.81214
 H577 H -0.13122 0.29352 0.84477
 H578 H -0.12011 0.34651 0.80898
 H579 H -0.05143 0.29969 0.76086
 H580 H -0.04440 0.25800 0.81001
 H581 H -0.10322 0.27773 0.83013
 H582 H -0.07161 0.27332 0.82678
 C583 C -0.08367 0.80796 0.30224
 C584 C -0.09268 0.82494 0.29395
 C585 C -0.10866 0.83320 0.30342
 C586 C -0.11603 0.82456 0.32111
 C587 C -0.10664 0.80745 0.32883
 N588 N -0.09102 0.79971 0.31931
 C589 C -0.06691 0.79825 0.29253
 N590 N -0.06284 0.77878 0.29716
 C591 C -0.04814 0.76865 0.28836
 C592 C -0.03663 0.77810 0.27376
 C593 C -0.04022 0.79828 0.26915
 C594 C -0.05517 0.80843 0.27857
 H595 H -0.11536 0.84626 0.29664
 H596 H -0.11169 0.80011 0.34235
 H597 H -0.04579 0.75312 0.29245
 H598 H -0.03150 0.80627 0.25821
 H599 H -0.08788 0.83165 0.28005
 H600 H -0.05729 0.82408 0.27491
 C601 C 0.59212 0.69053 0.30895
 C602 C 0.60170 0.69921 0.32540
 C603 C 0.61911 0.69113 0.33234
 C604 C 0.62728 0.67450 0.32292
 C605 C 0.61734 0.66630 0.30645
 N606 N 0.60033 0.67444 0.29996
 C607 C 0.57386 0.69894 0.30053
 N608 N 0.56869 0.69450 0.28135
 C609 C 0.55268 0.70239 0.27230
 C610 C 0.54087 0.71587 0.28260
 C611 C 0.54557 0.72015 0.30256
 C612 C 0.56186 0.71163 0.31161
 H613 H 0.62629 0.69814 0.34495
 H614 H 0.62309 0.65352 0.29865
 H615 H 0.54954 0.69858 0.25691
 H616 H 0.53671 0.73022 0.31118
 H617 H 0.59623 0.71242 0.33265
 H618 H 0.56485 0.71505 0.32709
 C619 C 0.58887 0.18898 0.79947
 C620 C 0.59820 0.17326 0.78967
 C621 C 0.61438 0.16433 0.79842
 C622 C 0.62165 0.17104 0.81693
 C623 C 0.61195 0.18694 0.82620
 N624 N 0.59612 0.19538 0.81734
 C625 C 0.57194 0.19938 0.79048
 N626 N 0.56760 0.21819 0.79674
 C627 C 0.55280 0.22899 0.78863
 C628 C 0.54145 0.22098 0.77307
 C629 C 0.54532 0.20143 0.76676
 C630 C 0.56037 0.19054 0.77550
 H631 H 0.62128 0.15229 0.79043
 H632 H 0.61693 0.19276 0.84042
 H633 H 0.55022 0.24397 0.79405
 H634 H 0.53673 0.19454 0.75503
 H635 H 0.59351 0.16809 0.77514
 H636 H 0.56272 0.17538 0.77053
 C637 C 1.09232 0.69198 0.81457
 C638 C 1.10112 0.67524 0.80595
 C639 C 1.11762 0.66705 0.81477
 C640 C 1.12573 0.67551 0.83210
 C641 C 1.11671 0.69242 0.84015
 N642 N 1.10050 0.70013 0.83129
 C643 C 1.07490 0.70144 0.80545
 N644 N 1.07083 0.72088 0.80978
 C645 C 1.05560 0.73076 0.80130
 C646 C 1.04352 0.72109 0.78732
 C647 C 1.04711 0.70092 0.78308
 C648 C 1.06259 0.69102 0.79221
 H649 H 1.12414 0.65418 0.80779
 H650 H 1.12250 0.69951 0.85344
 H651 H 1.05326 0.74629 0.80510
 H652 H 1.03797 0.69277 0.77266
 H653 H 1.09573 0.66868 0.79226
 H654 H 1.06469 0.67536 0.78887
 C655 C 1.08779 0.19610 0.30682
 C656 C 1.09671 0.20511 0.32345
 C657 C 1.11291 0.19627 0.33226
 C658 C 1.12071 0.17852 0.32453
 C659 C 1.11147 0.17007 0.30771
 N660 N 1.09555 0.17896 0.29944
 C661 C 1.07067 0.20513 0.29659
 N662 N 1.06578 0.19880 0.27788
 C663 C 1.05077 0.20684 0.26726
 C664 C 1.03981 0.22245 0.27531
 C665 C 1.04426 0.22888 0.29471
 C666 C 1.05946 0.22017 0.30545
 H667 H 1.11944 0.20365 0.34504
 H668 H 1.11685 0.15646 0.30108
 H669 H 1.04776 0.20136 0.25236
 H670 H 1.03597 0.24065 0.30162
 H671 H 1.09170 0.21907 0.32954
 H672 H 1.06213 0.22527 0.32050
 C673 C 0.59235 0.30910 0.68835
 C674 C 0.60234 0.30122 0.67193
 C675 C 0.61895 0.31101 0.66480
 C676 C 0.62583 0.32855 0.67400
 C677 C 0.61544 0.33594 0.69033
 N678 N 0.59929 0.32616 0.69698
 C679 C 0.57497 0.29917 0.69724
 N680 N 0.56889 0.30535 0.71552
 C681 C 0.55348 0.29686 0.72508
 C682 C 0.54314 0.28095 0.71631
 C683 C 0.54886 0.27454 0.69731
 C684 C 0.56463 0.28364 0.68769
 H685 H 0.62655 0.30465 0.65225
 H686 H 0.62015 0.34940 0.69793
 H687 H 0.54956 0.30236 0.73968
 H688 H 0.54120 0.26244 0.68990
 H689 H 0.59784 0.28748 0.66479
 H690 H 0.56843 0.27848 0.67297
 C691 C 0.58539 0.81080 0.20162
 C692 C 0.59507 0.82705 0.21060
 C693 C 0.61089 0.83601 0.20103
 C694 C 0.61742 0.82880 0.18255
 C695 C 0.60734 0.81247 0.17410
 N696 N 0.59191 0.80405 0.18372
 C697 C 0.56881 0.80016 0.21123
 N698 N 0.56317 0.78203 0.20387
 C699 C 0.54849 0.77100 0.21201
 C700 C 0.53854 0.77803 0.22878
 C701 C 0.54381 0.79682 0.23643
 C702 C 0.55877 0.80798 0.22766
 H703 H 0.61812 0.84844 0.20836
 H704 H 0.61169 0.80627 0.15992
 H705 H 0.54486 0.75661 0.20557
 H706 H 0.53636 0.80293 0.24921
 H707 H 0.59094 0.83270 0.22503
 H708 H 0.56217 0.82253 0.23378
 C709 C 1.09129 0.29990 0.18261
 C710 C 1.10134 0.29036 0.16717
 C711 C 1.11836 0.29898 0.15965
 C712 C 1.12570 0.31706 0.16749
 C713 C 1.11511 0.32615 0.18286
 N714 N 1.09855 0.31745 0.18991
 C715 C 1.07353 0.29119 0.19197
 N716 N 1.06723 0.29914 0.20945
 C717 C 1.05157 0.29174 0.21947
 C718 C 1.04125 0.27513 0.21207
 C719 C 1.04717 0.26693 0.19386
 C720 C 1.06315 0.27495 0.18371
 H721 H 1.12589 0.29121 0.14787
 H722 H 1.11999 0.34008 0.18947
 H723 H 1.04749 0.29860 0.23343
 H724 H 1.03952 0.25423 0.18749
 H725 H 1.09659 0.27619 0.16111
 H726 H 1.06710 0.26837 0.16963
 C727 C 1.08893 0.80242 0.69138
 C728 C 1.09782 0.79315 0.67507
 C729 C 1.11384 0.80224 0.66603
 C730 C 1.12134 0.82051 0.67321
 C731 C 1.11192 0.82934 0.68951
 N732 N 1.09630 0.82017 0.69805
 C733 C 1.07238 0.79313 0.70226
 N734 N 1.06795 0.80016 0.72073
 C735 C 1.05343 0.79216 0.73201
 C736 C 1.04243 0.77589 0.72489
 C737 C 1.04645 0.76863 0.70575
 C738 C 1.06126 0.77726 0.69434
 H739 H 1.12052 0.79465 0.65360
 H740 H 1.11702 0.84340 0.69567
 H741 H 1.05075 0.79831 0.74666
 H742 H 1.03814 0.75628 0.69956
 H743 H 1.09298 0.77879 0.66951
 H744 H 1.06369 0.77151 0.67953
 C745 C 0.41168 0.68449 0.68775
 C746 C 0.40178 0.69241 0.67106
 C747 C 0.38520 0.68272 0.66386
 C748 C 0.37821 0.66525 0.67328
 C749 C 0.38850 0.65779 0.68991
 N750 N 0.40467 0.66750 0.69665
 C751 C 0.42892 0.69459 0.69663
 N752 N 0.43419 0.68986 0.71576
 C753 C 0.44928 0.69904 0.72529
 C754 C 0.45996 0.71419 0.71555
 C755 C 0.45516 0.71892 0.69566
 C756 C 0.43983 0.70908 0.68611
 H757 H 0.37766 0.68916 0.65111
 H758 H 0.38365 0.64438 0.69767
 H759 H 0.45258 0.69485 0.74060
 H760 H 0.46322 0.73029 0.68747
 H761 H 0.40629 0.70622 0.66384
 H762 H 0.43676 0.71288 0.67068
 C763 C 0.41498 0.18698 0.19972
 C764 C 0.40552 0.17061 0.20887
 C765 C 0.39005 0.16123 0.19912
 C766 C 0.38366 0.16815 0.18028
 C767 C 0.39354 0.18460 0.17166
 N768 N 0.40863 0.19347 0.18148
 C769 C 0.43109 0.19802 0.20962
 N770 N 0.43558 0.21688 0.20306
 C771 C 0.44975 0.22823 0.21170
 C772 C 0.46029 0.22075 0.22812
 C773 C 0.45622 0.20121 0.23486
 C774 C 0.44179 0.18977 0.22561
 H775 H 0.38294 0.14873 0.20659
 H776 H 0.38926 0.19059 0.15721
 H777 H 0.45250 0.24319 0.20594
 H778 H 0.46420 0.19473 0.24730
 H779 H 0.40954 0.16527 0.22360
 H780 H 0.43931 0.17463 0.23094
 C781 C -0.08857 0.69847 0.18255
 C782 C -0.09906 0.70898 0.16780
 C783 C -0.11573 0.70039 0.15951
 C784 C -0.12225 0.68141 0.16590
 C785 C -0.11146 0.67142 0.18078
 N786 N -0.09519 0.68010 0.18862
 C787 C -0.07101 0.70711 0.19232
 N788 N -0.06507 0.69934 0.21022
 C789 C -0.04955 0.70683 0.22046
 C790 C -0.03903 0.72329 0.21283
 C791 C -0.04458 0.73123 0.19419
 C792 C -0.06040 0.72313 0.18384
 H793 H -0.12364 0.70881 0.14824
 H794 H -0.11595 0.65679 0.18622
 H795 H -0.04571 0.70015 0.23474
 H796 H -0.03672 0.74375 0.18761
 H797 H -0.09489 0.72388 0.16293
 H798 H -0.06404 0.72940 0.16936
 C799 C -0.08596 0.19581 0.68592
 C800 C -0.09424 0.20470 0.66881
 C801 C -0.10981 0.19532 0.65924
 C802 C -0.11746 0.17713 0.66667
 C803 C -0.10862 0.16865 0.68374
 N804 N -0.09343 0.17811 0.69279
 C805 C -0.07003 0.20547 0.69743
 N806 N -0.06632 0.19873 0.71634
 C807 C -0.05246 0.20712 0.72822
 C808 C -0.04145 0.22350 0.72127
 C809 C -0.04471 0.23047 0.70171
 C810 C -0.05883 0.22143 0.68970
 H811 H -0.11605 0.20263 0.64621
 H812 H -0.11385 0.15466 0.69011
 H813 H -0.05034 0.20119 0.74318
 H814 H -0.03633 0.24289 0.69565
 H815 H -0.08930 0.21901 0.66302
 H816 H -0.06069 0.22697 0.67459
 C817 C 0.30304 0.40768 0.30631
 C818 C 0.31887 0.39841 0.29714
 C819 C 0.32802 0.38241 0.30665
 C820 C 0.32140 0.37530 0.32523
 C821 C 0.30530 0.38470 0.33378
 N822 N 0.29664 0.40042 0.32423
 C823 C 0.29283 0.42472 0.29664
 N824 N 0.27405 0.42852 0.30161
 C825 C 0.26365 0.44345 0.29272
 C826 C 0.27209 0.45546 0.27772
 C827 C 0.29156 0.45216 0.27281
 C828 C 0.30199 0.43701 0.28231
 H829 H 0.34018 0.37549 0.29928
 H830 H 0.29962 0.37965 0.34803
 H831 H 0.24870 0.44562 0.29706
 H832 H 0.29879 0.46130 0.26160
 H833 H 0.32402 0.40305 0.28257
 H834 H 0.31709 0.43515 0.27844
 C835 C 0.31367 -0.09265 0.79632
 C836 C 0.32937 -0.10235 0.78735
 C837 C 0.33819 -0.11841 0.79714
 C838 C 0.33142 -0.12523 0.81584
 C839 C 0.31557 -0.11519 0.82424
 N840 N 0.30727 -0.09946 0.81441
 C841 C 0.30335 -0.07569 0.78651
 N842 N 0.28598 -0.06991 0.79412
 C843 C 0.27535 -0.05483 0.78590
 C844 C 0.28199 -0.04460 0.76879
 C845 C 0.29996 -0.05004 0.76083
 C846 C 0.31073 -0.06540 0.76968
 H847 H 0.35024 -0.12560 0.78980
 H848 H 0.30971 -0.11977 0.83857
 H849 H 0.26159 -0.05108 0.79259
 H850 H 0.30574 -0.04238 0.74779
 H851 H 0.33475 -0.09805 0.77279
 H852 H 0.32467 -0.06886 0.76332
 C853 C 0.80992 0.41155 0.81533
 C854 C 0.82643 0.40295 0.80675
 C855 C 0.83394 0.38525 0.81471
 C856 C 0.82501 0.37571 0.83113
 C857 C 0.80851 0.38485 0.83931
 N858 N 0.80148 0.40217 0.83126
 C859 C 0.80077 0.42989 0.80688
 N860 N 0.78197 0.43398 0.81155
 C861 C 0.77226 0.44984 0.80348
 C862 C 0.78142 0.46249 0.78951
 C863 C 0.80096 0.45899 0.78503
 C864 C 0.81072 0.44293 0.79379
 H865 H 0.84658 0.37890 0.80766
 H866 H 0.80102 0.37821 0.85195
 H867 H 0.75722 0.45209 0.80743
 H868 H 0.80869 0.46861 0.77459
 H869 H 0.83333 0.40932 0.79367
 H870 H 0.82584 0.44090 0.79018
 C871 C 0.81552 -0.09159 0.30496
 C872 C 0.83081 -0.10105 0.29501
 C873 C 0.83980 -0.11758 0.30380
 C874 C 0.83356 -0.12503 0.32240
 C875 C 0.81812 -0.11530 0.33180
 N876 N 0.80962 -0.09911 0.32297
 C877 C 0.80511 -0.07415 0.29617
 N878 N 0.78746 -0.06919 0.30370
 C879 C 0.77676 -0.05378 0.29619
 C880 C 0.78365 -0.04235 0.27995
 C881 C 0.80195 -0.04691 0.27219
 C882 C 0.81276 -0.06262 0.28032
 H883 H 0.85149 -0.12469 0.29583
 H884 H 0.81278 -0.12053 0.34613
 H885 H 0.76276 -0.05072 0.30270
 H886 H 0.80795 -0.03831 0.25986
 H887 H 0.83566 -0.09620 0.28041
 H888 H 0.82696 -0.06540 0.27421
 C889 C 0.30906 0.58306 0.70363
 C890 C 0.32573 0.59273 0.71123
 C891 C 0.33450 0.60813 0.70018
 C892 C 0.32669 0.61412 0.68166
 C893 C 0.31004 0.60410 0.67461
 N894 N 0.30179 0.58912 0.68561
 C895 C 0.29859 0.56693 0.71469
 N896 N 0.28053 0.56150 0.70821
 C897 C 0.26976 0.54702 0.71743
 C898 C 0.27706 0.53701 0.73437
 C899 C 0.29571 0.54218 0.74125
 C900 C 0.30655 0.55699 0.73144
 H901 H 0.34723 0.61553 0.70632
 H902 H 0.30348 0.60818 0.66042
 H903 H 0.25547 0.54349 0.71156
 H904 H 0.30199 0.53469 0.75415
 H905 H 0.33186 0.58894 0.72566
 H906 H 0.32099 0.56027 0.73693
 C907 C 0.31309 1.08720 0.19967
 C908 C 0.32924 1.09631 0.20887
 C909 C 0.33910 1.11178 0.19909
 C910 C 0.33288 1.11862 0.18016
 C911 C 0.31655 1.10917 0.17152
 N912 N 0.30723 1.09400 0.18136
 C913 C 0.30180 1.07095 0.20961
 N914 N 0.28344 1.06682 0.20300
 C915 C 0.27199 1.05254 0.21171
 C916 C 0.27883 1.04156 0.22827
 C917 C 0.29782 1.04526 0.23505
 C918 C 0.30937 1.05973 0.22570
 H919 H 0.35144 1.11856 0.20662
 H920 H 0.31108 1.11383 0.15701
 H921 H 0.25747 1.05007 0.20593
 H922 H 0.30381 1.03687 0.24755
 H923 H 0.33412 1.09203 0.22367
 H924 H 0.32407 1.06180 0.23107
 C925 C 0.81071 0.59398 0.17984
 C926 C 0.80171 0.60404 0.16381
 C927 C 0.81016 0.62137 0.15593
 C928 C 0.82758 0.62908 0.16398
 C929 C 0.83616 0.61851 0.18004
 N930 N 0.82758 0.60159 0.18749
 C931 C 0.80178 0.57597 0.18932
 N932 N 0.80664 0.57116 0.20855
 C933 C 0.79820 0.55556 0.21858
 C934 C 0.78371 0.54392 0.20930
 C935 C 0.77897 0.54818 0.18931
 C936 C 0.78805 0.56400 0.17923
 H937 H 0.80276 0.62887 0.14367
 H938 H 0.84954 0.62375 0.18686
 H939 H 0.80240 0.55268 0.23395
 H940 H 0.76813 0.53936 0.18145
 H941 H 0.78796 0.59906 0.15767
 H942 H 0.78425 0.56669 0.16374
 C943 C 0.81631 1.09176 0.68411
 C944 C 0.83319 1.10030 0.69245
 C945 C 0.84186 1.11687 0.68325
 C946 C 0.83378 1.12535 0.66579
 C947 C 0.81694 1.11628 0.65784
 N948 N 0.80878 1.10006 0.66709
 C949 C 0.80589 1.07458 0.69361
 N950 N 0.78777 1.06973 0.68683
 C951 C 0.77693 1.05471 0.69510
 C952 C 0.78415 1.04366 0.71143
 C953 C 0.80290 1.04809 0.71844
 C954 C 0.81386 1.06334 0.70952
 H955 H 0.85476 1.12320 0.69016
 H956 H 0.81009 1.12212 0.64442
 H957 H 0.76255 1.05172 0.68916
 H958 H 0.80914 1.03973 0.73083
 H959 H 0.83962 1.09478 0.70616
 H960 H 0.82835 1.06600 0.71519
 C961 C 0.70014 0.59485 0.29737
 C962 C 0.71007 0.60587 0.31207
 C963 C 0.70089 0.62173 0.32140
 C964 C 0.68185 0.62700 0.31606
 C965 C 0.67258 0.61604 0.30084
 N966 N 0.68181 0.60044 0.29202
 C967 C 0.70932 0.57751 0.28747
 N968 N 0.70339 0.57205 0.26879
 C969 C 0.71166 0.55662 0.25877
 C970 C 0.72695 0.54575 0.26753
 C971 C 0.73290 0.55083 0.28694
 C972 C 0.72409 0.56650 0.29697
 H973 H 0.70883 0.62992 0.33278
 H974 H 0.65795 0.61967 0.29612
 H975 H 0.70651 0.55310 0.24388
 H976 H 0.74439 0.54266 0.29446
 H977 H 0.72490 0.60256 0.31625
 H978 H 0.72877 0.56972 0.31207
 C979 C 0.69017 1.09112 0.79273
 C980 C 0.67383 1.10060 0.78440
 C981 C 0.66486 1.11598 0.79476
 C982 C 0.67212 1.12231 0.81341
 C983 C 0.68861 1.11254 0.82114
 N984 N 0.69702 1.09748 0.81077
 C985 C 0.70056 1.07475 0.78243
 N986 N 0.71819 1.06898 0.78972
 C987 C 0.72879 1.05426 0.78120
 C988 C 0.72180 1.04436 0.76414
 C989 C 0.70362 1.04988 0.75644
 C990 C 0.69292 1.06489 0.76555
 H991 H 0.65231 1.12301 0.78794
 H992 H 0.69486 1.11678 0.83539
 H993 H 0.74273 1.05045 0.78769
 H994 H 0.69758 1.04247 0.74343
 H995 H 0.66803 1.09664 0.76992
 H996 H 0.67881 1.06836 0.75940
 C997 C 0.18920 0.58816 0.81620
 C998 C 0.17245 0.59693 0.80796
 C999 C 0.16493 0.61420 0.81643
 C1000 C 0.17410 0.62312 0.83300
 C1001 C 0.19088 0.61389 0.84075
 N1002 N 0.19788 0.59698 0.83226
 C1003 C 0.19830 0.57017 0.80743
 N1004 N 0.21693 0.56564 0.81264
 C1005 C 0.22659 0.54994 0.80461
 C1006 C 0.21753 0.53791 0.79015
 C1007 C 0.19819 0.54193 0.78498
 C1008 C 0.18847 0.55783 0.79368
 H1009 H 0.15206 0.62069 0.80969
 H1010 H 0.19856 0.62008 0.85348
 H1011 H 0.24148 0.54726 0.80909
 H1012 H 0.19053 0.53278 0.77413
 H1013 H 0.16531 0.59103 0.79482
 H1014 H 0.17348 0.56020 0.78956
 C1015 C 0.18909 1.09439 0.31021
 C1016 C 0.19711 1.10396 0.32699
 C1017 C 0.18795 1.12056 0.33499
 C1018 C 0.17084 1.12812 0.32626
 C1019 C 0.16342 1.11828 0.30925
 N1020 N 0.17261 1.10196 0.30179
 C1021 C 0.19852 1.07672 0.30113
 N1022 N 0.19479 1.07220 0.28163
 C1023 C 0.20356 1.05667 0.27222
 C1024 C 0.21717 1.04480 0.28250
 C1025 C 0.22079 1.04887 0.30272
 C1026 C 0.21141 1.06459 0.31210
 H1027 H 0.19456 1.12757 0.34793
 H1028 H 0.15036 1.12349 0.30185
 H1029 H 0.20024 1.05393 0.25664
 H1030 H 0.23087 1.03985 0.31135
 H1031 H 0.21057 1.09909 0.33378
 H1032 H 0.21425 1.06698 0.32782
 C1033 C 0.69268 0.41313 0.70325
 C1034 C 0.67632 0.40296 0.71093
 C1035 C 0.66810 0.38707 0.70027
 C1036 C 0.67615 0.38107 0.68205
 C1037 C 0.69250 0.39156 0.67494
 N1038 N 0.70020 0.40702 0.68555
 C1039 C 0.70249 0.42991 0.71388
 N1040 N 0.72037 0.43596 0.70751
 C1041 C 0.73053 0.45107 0.71635
 C1042 C 0.72276 0.46115 0.73277
 C1043 C 0.70426 0.45536 0.73949
 C1044 C 0.69405 0.43989 0.73008
 H1045 H 0.65560 0.37932 0.70645
 H1046 H 0.69924 0.38750 0.66098
 H1047 H 0.74472 0.45506 0.71061
 H1048 H 0.69761 0.46285 0.75199
 H1049 H 0.67002 0.40677 0.72514
 H1050 H 0.67971 0.43614 0.73544
 C1051 C 0.68802 -0.08895 0.20106
 C1052 C 0.67313 -0.09937 0.21112
 C1053 C 0.66362 -0.11525 0.20176
 C1054 C 0.66894 -0.12111 0.18247
 C1055 C 0.68410 -0.11056 0.17300
 N1056 N 0.69312 -0.09499 0.18240
 C1057 C 0.69870 -0.07201 0.21042
 N1058 N 0.71652 -0.06667 0.20328
 C1059 C 0.72737 -0.05166 0.21149
 C1060 C 0.72044 -0.04116 0.22806
 C1061 C 0.70195 -0.04609 0.23535
 C1062 C 0.69100 -0.06130 0.22652
 H1063 H 0.65222 -0.12309 0.20981
 H1064 H 0.68877 -0.11461 0.15816
 H1065 H 0.74152 -0.04825 0.20532
 H1066 H 0.69587 -0.03815 0.24788
 H1067 H 0.66901 -0.09574 0.22622
 H1068 H 0.67664 -0.06436 0.23226
 C1069 C 0.19164 0.40299 0.18756
 C1070 C 0.20165 0.39296 0.17246
 C1071 C 0.19361 0.37579 0.16402
 C1072 C 0.17561 0.36817 0.17061
 C1073 C 0.16612 0.37856 0.18594
 N1074 N 0.17429 0.39539 0.19391
 C1075 C 0.19990 0.42108 0.19731
 N1076 N 0.19376 0.42606 0.21594
 C1077 C 0.20136 0.44189 0.22614
 C1078 C 0.21626 0.45364 0.21769
 C1079 C 0.22239 0.44914 0.19830
 C1080 C 0.21417 0.43307 0.18802
 H1081 H 0.20175 0.36839 0.15243
 H1082 H 0.15229 0.37335 0.19166
 H1083 H 0.19610 0.44494 0.24102
 H1084 H 0.23360 0.45802 0.19106
 H1085 H 0.21579 0.39789 0.16741
 H1086 H 0.21900 0.43026 0.17296
 C1087 C 0.18772 -0.09429 0.69087
 C1088 C 0.16962 -0.10141 0.69757
 C1089 C 0.16116 -0.11817 0.68864
 C1090 C 0.17042 -0.12789 0.67276
 C1091 C 0.18819 -0.11980 0.66602
 N1092 N 0.19626 -0.10357 0.67517
 C1093 C 0.19791 -0.07710 0.70040
 N1094 N 0.21271 -0.06787 0.69039
 C1095 C 0.22314 -0.05242 0.69831
 C1096 C 0.21896 -0.04540 0.71755
 C1097 C 0.20378 -0.05467 0.72814
 C1098 C 0.19333 -0.07051 0.71972
 H1099 H 0.14731 -0.12345 0.69430
 H1100 H 0.19590 -0.12652 0.65374
 H1101 H 0.23477 -0.04577 0.68962
 H1102 H 0.20018 -0.04992 0.74311
 H1103 H 0.16184 -0.09419 0.70946
 H1104 H 0.18219 -0.07770 0.72862
 C1105 C 0.30816 0.30499 0.41237
 C1106 C 0.32439 0.29653 0.40307
 C1107 C 0.33260 0.30606 0.38649
 C1108 C 0.32469 0.32392 0.37890
 C1109 C 0.30852 0.33192 0.38861
 N1110 N 0.30079 0.32237 0.40479
 C1111 C 0.29820 0.29533 0.42964
 N1112 N 0.28047 0.30232 0.43503
 C1113 C 0.27004 0.29410 0.45027
 C1114 C 0.27730 0.27764 0.46107
 C1115 C 0.29567 0.27037 0.45606
 C1116 C 0.30621 0.27920 0.44051
 H1117 H 0.34498 0.29921 0.37942
 H1118 H 0.30192 0.34566 0.38332
 H1119 H 0.25595 0.30026 0.45367
 H1120 H 0.30192 0.25784 0.46416
 H1121 H 0.33058 0.28252 0.40804
 H1122 H 0.32043 0.27336 0.43733
 C1123 C 0.31841 0.81040 -0.09343
 C1124 C 0.33414 0.80099 -0.10272
 C1125 C 0.34192 0.80919 -0.12019
 C1126 C 0.33407 0.82666 -0.12869
 C1127 C 0.31834 0.83562 -0.11899
 N1128 N 0.31100 0.82734 -0.10194
 C1129 C 0.30903 0.80192 -0.07525
 N1130 N 0.29067 0.80773 -0.07064
 C1131 C 0.28077 0.79998 -0.05476
 C1132 C 0.28926 0.78523 -0.04252
 C1133 C 0.30836 0.77944 -0.04663
 C1134 C 0.31832 0.78783 -0.06279
 H1135 H 0.35392 0.80161 -0.12719
 H1136 H 0.31176 0.84907 -0.12501
 H1137 H 0.26610 0.80496 -0.05206
 H1138 H 0.31560 0.76833 -0.03740
 H1139 H 0.34016 0.78715 -0.09704
 H1140 H 0.33311 0.78323 -0.06529
 C1141 C 0.80160 0.29860 -0.09073
 C1142 C 0.81633 0.28921 -0.10157
 C1143 C 0.82540 0.29949 -0.11716
 C1144 C 0.81980 0.31907 -0.12229
 C1145 C 0.80476 0.32782 -0.11138
 N1146 N 0.79617 0.31751 -0.09610
 C1147 C 0.79146 0.28828 -0.07401
 N1148 N 0.77365 0.29487 -0.06841
 C1149 C 0.76331 0.28591 -0.05348
 C1150 C 0.77081 0.26917 -0.04326
 C1151 C 0.78929 0.26237 -0.04852
 C1152 C 0.79969 0.27192 -0.06371
 H1153 H 0.83672 0.29196 -0.12530
 H1154 H 0.79989 0.34284 -0.11488
 H1155 H 0.74916 0.29174 -0.04982
 H1156 H 0.79576 0.24971 -0.04083
 H1157 H 0.82067 0.27396 -0.09845
 H1158 H 0.81408 0.26658 -0.06705
 C1159 C 0.81941 0.80215 0.40738
 C1160 C 0.83517 0.79345 0.39747
 C1161 C 0.84339 0.80324 0.38103
 C1162 C 0.83595 0.82161 0.37418
 C1163 C 0.82022 0.82982 0.38448
 N1164 N 0.81248 0.82001 0.40050
 C1165 C 0.80948 0.79225 0.42454
 N1166 N 0.79196 0.79945 0.43036
 C1167 C 0.78157 0.79107 0.44554
 C1168 C 0.78865 0.77420 0.45586
 C1169 C 0.80682 0.76670 0.45040
 C1170 C 0.81732 0.77571 0.43491
 H1171 H 0.85540 0.79622 0.37349
 H1172 H 0.81398 0.84394 0.37977
 H1173 H 0.76766 0.79741 0.44929
 H1174 H 0.81294 0.75386 0.45811
 H1175 H 0.84097 0.77908 0.40186
 H1176 H 0.83139 0.76970 0.43138
 C1177 C 0.69975 0.31834 0.59309
 C1178 C 0.70799 0.33415 0.60412
 C1179 C 0.69814 0.34169 0.62058
 C1180 C 0.68014 0.33349 0.62629
 C1181 C 0.67242 0.31768 0.61493
 N1182 N 0.68228 0.31062 0.59894
 C1183 C 0.70958 0.30918 0.57572
 N1184 N 0.70289 0.29117 0.56902
 C1185 C 0.71104 0.28153 0.55338
 C1186 C 0.72703 0.29000 0.54339
 C1187 C 0.73407 0.30867 0.54982
 C1188 C 0.72536 0.31835 0.56586
 H1189 H 0.70476 0.35379 0.62897
 H1190 H 0.65862 0.31085 0.61875
 H1191 H 0.70506 0.26718 0.54890
 H1192 H 0.74626 0.31584 0.54242
 H1193 H 0.72204 0.34049 0.60052
 H1194 H 0.73093 0.33288 0.57016
 C1195 C 0.67932 0.81251 1.09330
 C1196 C 0.66356 0.80320 1.10304
 C1197 C 0.65587 0.81183 1.12017
 C1198 C 0.66385 0.82961 1.12785
 C1199 C 0.67953 0.83849 1.11767
 N1200 N 0.68677 0.82982 1.10099
 C1201 C 0.68878 0.80376 1.07548
 N1202 N 0.70641 0.81117 1.06978
 C1203 C 0.71642 0.80369 1.05408
 C1204 C 0.70881 0.78756 1.04311
 C1205 C 0.69050 0.77992 1.04842
 C1206 C 0.68039 0.78803 1.06443
 H1207 H 0.64387 0.80432 1.12758
 H1208 H 0.68618 0.85220 1.12302
 H1209 H 0.73046 0.81011 1.05047
 H1210 H 0.68397 0.76765 1.04020
 H1211 H 0.65737 0.78919 1.09801
 H1212 H 0.66621 0.78193 1.06784
 C1213 C 0.20232 0.29647 1.09204
 C1214 C 0.21066 0.31238 1.10280
 C1215 C 0.20021 0.32131 1.11805
 C1216 C 0.18150 0.31440 1.12291
 C1217 C 0.17382 0.29817 1.11212
 N1218 N 0.18426 0.28976 1.09718
 C1219 C 0.21272 0.28653 1.07552
 N1220 N 0.20697 0.26782 1.06988
 C1221 C 0.21581 0.25772 1.05491
 C1222 C 0.23148 0.26646 1.04459
 C1223 C 0.23750 0.28582 1.04997
 C1224 C 0.22813 0.29593 1.06528
 H1225 H 0.20691 0.33359 1.12612
 H1226 H 0.15950 0.29226 1.11542
 H1227 H 0.21062 0.24285 1.05118
 H1228 H 0.24935 0.29325 1.04225
 H1229 H 0.22521 0.31778 1.09985
 H1230 H 0.23281 0.31103 1.06866
 C1231 C 0.19003 0.79812 0.59204
 C1232 C 0.17442 0.78905 0.60217
 C1233 C 0.16576 0.79896 0.61799
 C1234 C 0.17265 0.81784 0.62407
 C1235 C 0.18848 0.82629 0.61379
 N1236 N 0.19664 0.81636 0.59829
 C1237 C 0.19995 0.78815 0.57522
 N1238 N 0.21812 0.79445 0.57008
 C1239 C 0.22833 0.78584 0.55512
 C1240 C 0.22032 0.76976 0.54434
 C1241 C 0.20149 0.76326 0.54910
 C1242 C 0.19122 0.77246 0.56437
 H1243 H 0.15375 0.79167 0.62559
 H1244 H 0.19433 0.84077 0.61799
 H1245 H 0.24278 0.79142 0.55187
 H1246 H 0.19465 0.75109 0.54099
 H1247 H 0.16905 0.77430 0.59834
 H1248 H 0.17658 0.76736 0.56733
 C1249 C 0.30432 0.67911 0.59251
 C1250 C 0.29575 0.66312 0.60320
 C1251 C 0.30558 0.65466 0.61947
 C1252 C 0.32385 0.66212 0.62530
 C1253 C 0.33193 0.67805 0.61420
 N1254 N 0.32208 0.68604 0.59842
 C1255 C 0.29442 0.68938 0.57559
 N1256 N 0.30099 0.70785 0.56985
 C1257 C 0.29260 0.71854 0.55477
 C1258 C 0.27647 0.71074 0.54447
 C1259 C 0.26963 0.69158 0.54987
 C1260 C 0.27859 0.68083 0.56529
 H1261 H 0.29870 0.64250 0.62768
 H1262 H 0.34596 0.68433 0.61812
 H1263 H 0.29843 0.73322 0.55105
 H1264 H 0.25735 0.68488 0.54217
 H1265 H 0.28145 0.65742 0.59953
 H1266 H 0.27317 0.66598 0.56882
 C1267 C 0.32181 0.18386 1.09019
 C1268 C 0.33803 0.19279 1.09949
 C1269 C 0.34593 0.18402 1.11667
 C1270 C 0.33772 0.16646 1.12480
 C1271 C 0.32170 0.15785 1.11493
 N1272 N 0.31423 0.16669 1.09823
 C1273 C 0.31185 0.19305 1.07268
 N1274 N 0.29373 0.18630 1.06779
 C1275 C 0.28310 0.19444 1.05264
 C1276 C 0.29053 0.21063 1.04147
 C1277 C 0.30935 0.21754 1.04585
 C1278 C 0.32010 0.20873 1.06128
 H1279 H 0.35822 0.19129 1.12381
 H1280 H 0.31489 0.14429 1.12062
 H1281 H 0.26868 0.18855 1.04970
 H1282 H 0.31574 0.22983 1.03742
 H1283 H 0.34435 0.20668 1.09415
 H1284 H 0.33463 0.21430 1.06406
 C1285 C 0.80417 0.70598 1.08701
 C1286 C 0.81988 0.71521 1.09695
 C1287 C 0.82966 0.70488 1.11209
 C1288 C 0.82377 0.68546 1.11767
 C1289 C 0.80785 0.67685 1.10759
 N1290 N 0.79861 0.68717 1.09277
 C1291 C 0.79313 0.71624 1.07084
 N1292 N 0.77514 0.70918 1.06580
 C1293 C 0.76402 0.71794 1.05133
 C1294 C 0.77087 0.73497 1.04103
 C1295 C 0.78949 0.74227 1.04573
 C1296 C 0.80068 0.73292 1.06043
 H1297 H 0.84168 0.71226 1.11961
 H1298 H 0.80274 0.66193 1.11143
 H1299 H 0.74978 0.71175 1.04810
 H1300 H 0.79549 0.75518 1.03794
 H1301 H 0.82447 0.73037 1.09351
 H1302 H 0.81513 0.73869 1.06327
 C1303 C 0.81491 0.19949 0.58359
 C1304 C 0.83147 0.20767 0.59288
 C1305 C 0.84027 0.19739 0.60863
 C1306 C 0.83263 0.17900 0.61545
 C1307 C 0.81605 0.17130 0.60583
 N1308 N 0.80769 0.18163 0.59042
 C1309 C 0.80452 0.21022 0.56729
 N1310 N 0.78570 0.20516 0.56330
 C1311 C 0.77496 0.21482 0.54914
 C1312 C 0.78305 0.23080 0.53812
 C1313 C 0.80253 0.23597 0.54163
 C1314 C 0.81334 0.22565 0.55601
 H1315 H 0.85292 0.20409 0.61566
 H1316 H 0.80961 0.15722 0.61061
 H1317 H 0.76001 0.21024 0.54680
 H1318 H 0.80945 0.24798 0.53322
 H1319 H 0.83739 0.22211 0.58859
 H1320 H 0.82843 0.22977 0.55802
 C1321 C 0.70081 0.69149 0.40460
 C1322 C 0.70981 0.67637 0.39357
 C1323 C 0.70049 0.66845 0.37683
 C1324 C 0.68223 0.67556 0.37078
 C1325 C 0.67381 0.69091 0.38202
 N1326 N 0.68319 0.69839 0.39836
 C1327 C 0.71028 0.70053 0.42241
 N1328 N 0.70512 0.71931 0.42813
 C1329 C 0.71369 0.72877 0.44389
 C1330 C 0.72852 0.71932 0.45488
 C1331 C 0.73367 0.69978 0.44958
 C1332 C 0.72455 0.69031 0.43353
 H1333 H 0.70771 0.65681 0.36856
 H1334 H 0.65980 0.69696 0.37786
 H1335 H 0.70916 0.74380 0.44755
 H1336 H 0.74482 0.69178 0.45780
 H1337 H 0.72409 0.67090 0.39744
 H1338 H 0.72863 0.67512 0.43007
 C1339 C 0.68724 0.18291 -0.09474
 C1340 C 0.69622 0.16709 -0.10483
 C1341 C 0.68782 0.15954 -0.12226
 C1342 C 0.67056 0.16772 -0.12990
 C1343 C 0.66204 0.18352 -0.11941
 N1344 N 0.67051 0.19064 -0.10243
 C1345 C 0.69593 0.19208 -0.07658
 N1346 N 0.69053 0.21094 -0.07139
 C1347 C 0.69846 0.22071 -0.05548
 C1348 C 0.71294 0.21153 -0.04381
 C1349 C 0.71832 0.19189 -0.04852
 C1350 C 0.70979 0.18209 -0.06472
 H1351 H 0.69506 0.14748 -0.12989
 H1352 H 0.64876 0.19035 -0.12475
 H1353 H 0.69379 0.23580 -0.05231
 H1354 H 0.72923 0.18411 -0.03976
 H1355 H 0.70985 0.16086 -0.09980
 H1356 H 0.71408 0.16686 -0.06772
 C1357 C 0.20120 0.69548 -0.08804
 C1358 C 0.20911 0.67901 -0.09799
 C1359 C 0.19862 0.66984 -0.11329
 C1360 C 0.18032 0.67708 -0.11905
 C1361 C 0.17301 0.69377 -0.10898
 N1362 N 0.18348 0.70241 -0.09396
 C1363 C 0.21180 0.70592 -0.07171
 N1364 N 0.20632 0.72478 -0.06665
 C1365 C 0.21549 0.73544 -0.05208
 C1366 C 0.23132 0.72719 -0.04164
 C1367 C 0.23704 0.70768 -0.04637
 C1368 C 0.22728 0.69696 -0.06121
 H1369 H 0.20504 0.65720 -0.12078
 H1370 H 0.15900 0.69993 -0.11296
 H1371 H 0.21052 0.75041 -0.04884
 H1372 H 0.24898 0.70061 -0.03849
 H1373 H 0.22338 0.67335 -0.09445
 H1374 H 0.23179 0.68179 -0.06407
 C1375 C 0.18638 0.19812 0.41063
 C1376 C 0.17112 0.20761 0.40028
 C1377 C 0.16292 0.19854 0.38350
 C1378 C 0.16993 0.18013 0.37673
 C1379 C 0.18532 0.17121 0.38733
 N1380 N 0.19303 0.18030 0.40372
 C1381 C 0.19597 0.20718 0.42838
 N1382 N 0.21370 0.20027 0.43424
 C1383 C 0.22371 0.20816 0.44996
 C1384 C 0.21598 0.22419 0.46071
 C1385 C 0.19755 0.23123 0.45526
 C1386 C 0.18745 0.22271 0.43929
 H1387 H 0.15123 0.20612 0.37569
 H1388 H 0.19124 0.15703 0.38264
 H1389 H 0.23786 0.20221 0.45372
 H1390 H 0.19090 0.24338 0.46333
 H1391 H 0.16571 0.22208 0.40465
 H1392 H 0.17313 0.22829 0.43579
 C1393 C 0.30079 0.40610 0.70075
 C1394 C 0.29166 0.39570 0.68508
 C1395 C 0.30137 0.38021 0.67568
 C1396 C 0.32011 0.37478 0.68190
 C1397 C 0.32861 0.38526 0.69790
 N1398 N 0.31888 0.40043 0.70678
 C1399 C 0.29109 0.42276 0.71115
 N1400 N 0.29686 0.42761 0.73004
 C1401 C 0.28834 0.44249 0.74059
 C1402 C 0.27296 0.45343 0.73214
 C1403 C 0.26708 0.44895 0.71256
 C1404 C 0.27615 0.43380 0.70200
 H1405 H 0.29408 0.37239 0.66361
 H1406 H 0.34299 0.38151 0.70329
 H1407 H 0.29341 0.44555 0.75561
 H1408 H 0.25549 0.45721 0.70531
 H1409 H 0.27704 0.39910 0.68025
 H1410 H 0.27155 0.43106 0.68677
 C1411 C 0.30718 0.90925 0.20553
 C1412 C 0.32197 0.89856 0.21543
 C1413 C 0.33103 0.88270 0.20582
 C1414 C 0.32533 0.87721 0.18643
 C1415 C 0.31033 0.88808 0.17714
 N1416 N 0.30180 0.90354 0.18678
 C1417 C 0.29690 0.92623 0.21493
 N1418 N 0.27970 0.93238 0.20688
 C1419 C 0.26931 0.94772 0.21465
 C1420 C 0.27612 0.95787 0.23164
 C1421 C 0.29393 0.95198 0.24001
 C1422 C 0.30440 0.93634 0.23168
 H1423 H 0.34236 0.87463 0.21368
 H1424 H 0.30539 0.88436 0.16223
 H1425 H 0.25568 0.95181 0.20765
 H1426 H 0.29989 0.95954 0.25296
 H1427 H 0.32640 0.90197 0.23056
 H1428 H 0.31826 0.93257 0.23828
 C1429 C 0.81006 0.40824 0.18605
 C1430 C 0.82620 0.39872 0.19479
 C1431 C 0.83381 0.38164 0.18599
 C1432 C 0.82535 0.37371 0.16859
 C1433 C 0.80917 0.38356 0.16037
 N1434 N 0.80204 0.40027 0.16919
 C1435 C 0.80100 0.42621 0.19502
 N1436 N 0.78268 0.43139 0.18924
 C1437 C 0.77317 0.44724 0.19719
 C1438 C 0.78206 0.45888 0.21211
 C1439 C 0.80108 0.45412 0.21796
 C1440 C 0.81063 0.43800 0.20939
 H1441 H 0.84616 0.37447 0.19304
 H1442 H 0.80212 0.37799 0.14699
 H1443 H 0.75855 0.45044 0.19216
 H1444 H 0.80862 0.46288 0.22919
 H1445 H 0.83276 0.40392 0.20853
 H1446 H 0.82540 0.43509 0.21402
 C1447 C 0.81360 0.90935 0.68942
 C1448 C 0.82839 0.89950 0.70010
 C1449 C 0.83710 0.88269 0.69199
 C1450 C 0.83106 0.87534 0.67335
 C1451 C 0.81605 0.88540 0.66322
 N1452 N 0.80781 0.90190 0.67141
 C1453 C 0.80364 0.92713 0.69758
 N1454 N 0.78580 0.93214 0.69026
 C1455 C 0.77549 0.94777 0.69753
 C1456 C 0.78299 0.95928 0.71332
 C1457 C 0.80154 0.95473 0.72072
 C1458 C 0.81195 0.93887 0.71281
 H1459 H 0.84842 0.87530 0.70053
 H1460 H 0.81086 0.88023 0.64884
 H1461 H 0.76127 0.95087 0.69130
 H1462 H 0.80803 0.96345 0.73264
 H1463 H 0.83303 0.90427 0.71479
 H1464 H 0.82637 0.93607 0.71861
 C1465 C 0.69739 0.59248 0.69469
 C1466 C 0.70626 0.60214 0.67833
 C1467 C 0.69691 0.61802 0.66876
 C1468 C 0.67879 0.62459 0.67548
 C1469 C 0.67047 0.61470 0.69202
 N1470 N 0.67986 0.59917 0.70108
 C1471 C 0.70685 0.57569 0.70561
 N1472 N 0.70128 0.57134 0.72470
 C1473 C 0.70971 0.55654 0.73580
 C1474 C 0.72483 0.54519 0.72779
 C1475 C 0.73046 0.54910 0.70801
 C1476 C 0.72147 0.56415 0.69685
 H1477 H 0.70404 0.62531 0.65624
 H1478 H 0.65657 0.61929 0.69779
 H1479 H 0.70483 0.55393 0.75096
 H1480 H 0.74184 0.54051 0.70109
 H1481 H 0.72047 0.59793 0.67311
 H1482 H 0.72591 0.56645 0.68153
 C1483 C 0.68751 0.09081 0.20355
 C1484 C 0.67247 0.10112 0.21307
 C1485 C 0.66351 0.11717 0.20331
 C1486 C 0.66951 0.12320 0.18414
 C1487 C 0.68459 0.11255 0.17514
 N1488 N 0.69308 0.09693 0.18494
 C1489 C 0.69809 0.07396 0.21323
 N1490 N 0.71518 0.06802 0.20512
 C1491 C 0.72600 0.05296 0.21312
 C1492 C 0.71981 0.04288 0.23048
 C1493 C 0.70212 0.04851 0.23898
 C1494 C 0.69118 0.06390 0.23039
 H1495 H 0.65206 0.12502 0.21094
 H1496 H 0.68975 0.11664 0.16040
 H1497 H 0.73951 0.04907 0.20600
 H1498 H 0.69668 0.04099 0.25225
 H1499 H 0.66782 0.09733 0.22804
 H1500 H 0.67746 0.06754 0.23713
 C1501 C 0.19008 0.58897 0.18694
 C1502 C 0.20016 0.59900 0.17158
 C1503 C 0.19237 0.61624 0.16297
 C1504 C 0.17462 0.62379 0.16965
 C1505 C 0.16504 0.61347 0.18518
 N1506 N 0.17294 0.59661 0.19336
 C1507 C 0.19810 0.57084 0.19686
 N1508 N 0.19253 0.56610 0.21586
 C1509 C 0.20018 0.55033 0.22620
 C1510 C 0.21456 0.53847 0.21750
 C1511 C 0.21997 0.54267 0.19771
 C1512 C 0.21168 0.55863 0.18731
 H1513 H 0.20044 0.62376 0.15121
 H1514 H 0.15136 0.61880 0.19088
 H1515 H 0.19551 0.54749 0.24140
 H1516 H 0.23074 0.53367 0.19028
 H1517 H 0.21418 0.59402 0.16650
 H1518 H 0.21598 0.56127 0.17198
 C1519 C 0.18637 0.08955 0.69413
 C1520 C 0.17148 0.09915 0.70458
 C1521 C 0.16270 0.11606 0.69631
 C1522 C 0.16876 0.12373 0.67774
 C1523 C 0.18377 0.11382 0.66781
 N1524 N 0.19208 0.09727 0.67615
 C1525 C 0.19665 0.07181 0.70243
 N1526 N 0.21415 0.06675 0.69461
 C1527 C 0.22480 0.05117 0.70183
 C1528 C 0.21804 0.03973 0.71811
 C1529 C 0.19984 0.04433 0.72610
 C1530 C 0.18906 0.06017 0.71823
 H1531 H 0.15134 0.12330 0.70466
 H1532 H 0.18895 0.11921 0.65347
 H1533 H 0.23872 0.04806 0.69516
 H1534 H 0.19393 0.03570 0.73846
 H1535 H 0.16682 0.09415 0.71920
 H1536 H 0.17495 0.06301 0.72454
 C1537 C 0.29924 0.58608 0.31001
 C1538 C 0.29157 0.59633 0.32642
 C1539 C 0.30224 0.61185 0.33515
 C1540 C 0.32047 0.61743 0.32754
 C1541 C 0.32758 0.60691 0.31106
 N1542 N 0.31694 0.59179 0.30285
 C1543 C 0.28853 0.56967 0.29975
 N1544 N 0.29463 0.56396 0.28133
 C1545 C 0.28564 0.54919 0.27077
 C1546 C 0.26938 0.53917 0.27867
 C1547 C 0.26293 0.54461 0.29771
 C1548 C 0.27249 0.55972 0.30833
 H1549 H 0.29604 0.61964 0.34771
 H1550 H 0.34154 0.61070 0.30464
 H1551 H 0.29117 0.54543 0.25617
 H1552 H 0.25058 0.53711 0.30448
 H1553 H 0.27737 0.59288 0.33235
 H1554 H 0.26738 0.56319 0.32313
 C1555 C 0.31359 0.08820 0.79571
 C1556 C 0.33134 0.09634 0.78899
 C1557 C 0.33976 0.11253 0.79908
 C1558 C 0.33071 0.12057 0.81593
 C1559 C 0.31320 0.11177 0.82235
 N1560 N 0.30525 0.09613 0.81223
 C1561 C 0.30347 0.07126 0.78566
 N1562 N 0.28840 0.06215 0.79534
 C1563 C 0.27786 0.04695 0.78716
 C1564 C 0.28219 0.04003 0.76795
 C1565 C 0.29769 0.04912 0.75767
 C1566 C 0.30830 0.06473 0.76638
 H1567 H 0.35337 0.11870 0.79369
 H1568 H 0.30569 0.11737 0.83530
 H1569 H 0.26603 0.04041 0.79565
 H1570 H 0.30145 0.04436 0.74275
 H1571 H 0.33888 0.09034 0.77628
 H1572 H 0.31977 0.07171 0.75779
 C1573 C 0.81050 0.59741 0.81464
 C1574 C 0.82730 0.60666 0.80691
 C1575 C 0.83510 0.62349 0.81629
 C1576 C 0.82623 0.63146 0.83328
 C1577 C 0.80943 0.62188 0.84053
 N1578 N 0.80211 0.60540 0.83117
 C1579 C 0.80114 0.57972 0.80503
 N1580 N 0.78289 0.57426 0.81079
 C1581 C 0.77305 0.55864 0.80242
 C1582 C 0.78152 0.54751 0.78707
 C1583 C 0.80042 0.55260 0.78112
 C1584 C 0.81032 0.56849 0.79012
 H1585 H 0.84797 0.63043 0.80997
 H1586 H 0.80205 0.62749 0.85357
 H1587 H 0.75852 0.55520 0.80753
 H1588 H 0.80760 0.54424 0.76951
 H1589 H 0.83430 0.60145 0.79354
 H1590 H 0.82499 0.57165 0.78535
 C1591 C 0.80887 0.09346 0.31053
 C1592 C 0.80005 0.10322 0.32658
 C1593 C 0.80838 0.12064 0.33421
 C1594 C 0.82545 0.12864 0.32588
 C1595 C 0.83379 0.11856 0.30972
 N1596 N 0.82536 0.10152 0.30250
 C1597 C 0.80011 0.07520 0.30160
 N1598 N 0.80382 0.07082 0.28213
 C1599 C 0.79532 0.05496 0.27271
 C1600 C 0.78199 0.04261 0.28291
 C1601 C 0.77851 0.04645 0.30315
 C1602 C 0.78763 0.06254 0.31257
 H1603 H 0.80125 0.12793 0.34653
 H1604 H 0.84689 0.12423 0.30275
 H1605 H 0.79853 0.05242 0.25711
 H1606 H 0.76861 0.03710 0.31171
 H1607 H 0.78656 0.09788 0.33297
 H1608 H 0.78482 0.06494 0.32826
 C1609 C 0.69098 0.41658 0.30003
 C1610 C 0.67456 0.40690 0.29191
 C1611 C 0.66530 0.39172 0.30278
 C1612 C 0.67238 0.38587 0.32164
 C1613 C 0.68892 0.39577 0.32917
 N1614 N 0.69766 0.41061 0.31833
 C1615 C 0.70164 0.43263 0.28905
 N1616 N 0.72013 0.43731 0.29482
 C1617 C 0.73098 0.45158 0.28532
 C1618 C 0.72332 0.46206 0.26882
 C1619 C 0.70420 0.45773 0.26283
 C1620 C 0.69330 0.44321 0.27293
 H1621 H 0.65274 0.38438 0.29621
 H1622 H 0.69494 0.39173 0.34362
 H1623 H 0.74563 0.45452 0.29051
 H1624 H 0.69759 0.46566 0.25037
 H1625 H 0.66903 0.41052 0.27718
 H1626 H 0.67847 0.44064 0.26817
 C1627 C 0.68831 0.91317 0.79372
 C1628 C 0.67322 0.90238 0.78437
 C1629 C 0.66408 0.88669 0.79461
 C1630 C 0.66997 0.88146 0.81408
 C1631 C 0.68519 0.89248 0.82285
 N1632 N 0.69384 0.90779 0.81260
 C1633 C 0.69889 0.92978 0.78352
 N1634 N 0.71635 0.93584 0.79113
 C1635 C 0.72716 0.95069 0.78255
 C1636 C 0.72057 0.96038 0.76511
 C1637 C 0.70249 0.95463 0.75717
 C1638 C 0.69157 0.93950 0.76636
 H1639 H 0.65256 0.87849 0.78712
 H1640 H 0.69027 0.88897 0.83782
 H1641 H 0.74098 0.95471 0.78924
 H1642 H 0.69672 0.96188 0.74388
 H1643 H 0.66866 0.90554 0.76920
 H1644 H 0.67753 0.93578 0.76006
 C1645 C 0.18347 0.40611 0.81874
 C1646 C 0.16640 0.39737 0.81100
 C1647 C 0.15794 0.38103 0.82083
 C1648 C 0.16643 0.37310 0.83827
 C1649 C 0.18344 0.38225 0.84559
 N1650 N 0.19141 0.39822 0.83576
 C1651 C 0.19365 0.42306 0.80862
 N1652 N 0.21204 0.42782 0.81464
 C1653 C 0.22265 0.44272 0.80587
 C1654 C 0.21488 0.45377 0.78982
 C1655 C 0.19586 0.44940 0.78355
 C1656 C 0.18517 0.43424 0.79296
 H1657 H 0.14492 0.37440 0.81448
 H1658 H 0.19052 0.37666 0.85898
 H1659 H 0.23724 0.44565 0.81125
 H1660 H 0.18920 0.45776 0.77140
 H1661 H 0.15971 0.40255 0.79728
 H1662 H 0.17045 0.43162 0.78792
 C1663 C 0.18678 0.91129 0.31391
 C1664 C 0.19502 0.90251 0.33109
 C1665 C 0.18689 0.88512 0.33911
 C1666 C 0.17061 0.87613 0.33006
 C1667 C 0.16276 0.88530 0.31287
 N1668 N 0.17100 0.90235 0.30527
 C1669 C 0.19562 0.92928 0.30438
 N1670 N 0.19272 0.93269 0.28447
 C1671 C 0.20159 0.94808 0.27451
 C1672 C 0.21455 0.96085 0.28463
 C1673 C 0.21713 0.95809 0.30527
 C1674 C 0.20756 0.94254 0.31521
 H1675 H 0.19361 0.87856 0.35227
 H1676 H 0.15027 0.87885 0.30534
 H1677 H 0.19909 0.94985 0.25860
 H1678 H 0.22668 0.96788 0.31372
 H1679 H 0.20799 0.90853 0.33806
 H1680 H 0.20967 0.94098 0.33118
 C1681 C 0.41032 0.31398 0.69406
 C1682 C 0.40052 0.32950 0.70376
 C1683 C 0.38335 0.33694 0.69557
 C1684 C 0.37568 0.32894 0.67782
 C1685 C 0.38592 0.31350 0.66854
 N1686 N 0.40266 0.30647 0.67682
 C1687 C 0.42810 0.30469 0.70257
 N1688 N 0.43343 0.28632 0.69588
 C1689 C 0.44894 0.27629 0.70352
 C1690 C 0.46003 0.28462 0.71910
 C1691 C 0.45518 0.30377 0.72585
 C1692 C 0.43938 0.31391 0.71755
 H1693 H 0.37593 0.34876 0.70339
 H1694 H 0.38058 0.30684 0.65484
 H1695 H 0.45223 0.26159 0.69777
 H1696 H 0.46350 0.31088 0.73766
 H1697 H 0.40556 0.33558 0.71780
 H1698 H 0.43622 0.32875 0.72294
 C1699 C 0.40823 0.80703 0.20274
 C1700 C 0.39789 0.82166 0.21318
 C1701 C 0.38197 0.83089 0.20417
 C1702 C 0.37602 0.82553 0.18482
 C1703 C 0.38650 0.81058 0.17498
 N1704 N 0.40209 0.80185 0.18406
 C1705 C 0.42529 0.79674 0.21172
 N1706 N 0.43082 0.77865 0.20440
 C1707 C 0.44597 0.76814 0.21227
 C1708 C 0.45650 0.77572 0.22864
 C1709 C 0.45135 0.79454 0.23607
 C1710 C 0.43596 0.80512 0.22761
 H1711 H 0.37422 0.84212 0.21249
 H1712 H 0.38240 0.80587 0.16009
 H1713 H 0.44952 0.75373 0.20599
 H1714 H 0.45925 0.80114 0.24846
 H1715 H 0.40166 0.82579 0.22832
 H1716 H 0.43270 0.81975 0.23347
 C1717 C 0.90831 0.30267 0.18315
 C1718 C 0.89738 0.29269 0.16839
 C1719 C 0.88072 0.30160 0.16055
 C1720 C 0.87464 0.32035 0.16741
 C1721 C 0.88585 0.32979 0.18226
 N1722 N 0.90210 0.32082 0.18966
 C1723 C 0.92588 0.29369 0.19251
 N1724 N 0.93249 0.30119 0.21020
 C1725 C 0.94801 0.29336 0.22012
 C1726 C 0.95781 0.27678 0.21240
 C1727 C 0.95160 0.26912 0.19395
 C1728 C 0.93582 0.27759 0.18390
 H1729 H 0.87247 0.29361 0.14927
 H1730 H 0.88172 0.34423 0.18805
 H1731 H 0.95236 0.29981 0.23427
 H1732 H 0.95889 0.25651 0.18730
 H1733 H 0.90121 0.27798 0.16315
 H1734 H 0.93167 0.27149 0.16957
 C1735 C 0.91347 0.80798 0.69876
 C1736 C 0.90348 0.82433 0.70674
 C1737 C 0.88766 0.83231 0.69641
 C1738 C 0.88149 0.82401 0.67820
 C1739 C 0.89169 0.80752 0.67081
 N1740 N 0.90715 0.80004 0.68114
 C1741 C 0.93021 0.79864 0.70927
 N1742 N 0.93540 0.77968 0.70429
 C1743 C 0.95025 0.76989 0.71353
 C1744 C 0.96085 0.77919 0.72893
 C1745 C 0.95603 0.79887 0.73405
 C1746 C 0.94087 0.80868 0.72421
 H1747 H 0.88015 0.84488 0.70287
 H1748 H 0.88743 0.80058 0.65688
 H1749 H 0.95354 0.75476 0.70902
 H1750 H 0.96398 0.80671 0.74565
 H1751 H 0.90741 0.83077 0.72099
 H1752 H 0.93782 0.82398 0.72826
 C1753 C 0.58625 0.31689 0.31280
 C1754 C 0.59533 0.30931 0.33011
 C1755 C 0.61177 0.31889 0.33770
 C1756 C 0.61947 0.33593 0.32808
 C1757 C 0.61004 0.34305 0.31078
 N1758 N 0.59395 0.33344 0.30365
 C1759 C 0.56921 0.30673 0.30362
 N1760 N 0.56502 0.31032 0.28397
 C1761 C 0.55028 0.30074 0.27424
 C1762 C 0.53894 0.28632 0.28430
 C1763 C 0.54260 0.28285 0.30466
 C1764 C 0.55752 0.29312 0.31441
 H1765 H 0.61861 0.31267 0.35096
 H1766 H 0.61550 0.35610 0.30283
 H1767 H 0.54783 0.30397 0.25854
 H1768 H 0.53396 0.27212 0.31308
 H1769 H 0.59031 0.29580 0.33753
 H1770 H 0.55970 0.29032 0.33020
 C1771 C 0.58764 0.81009 0.79827
 C1772 C 0.59769 0.82538 0.78801
 C1773 C 0.61339 0.83492 0.79716
 C1774 C 0.61939 0.82922 0.81646
 C1775 C 0.60916 0.81366 0.82614
 N1776 N 0.59380 0.80460 0.81692
 C1777 C 0.57100 0.79932 0.78904
 N1778 N 0.56620 0.78062 0.79583
 C1779 C 0.55154 0.76960 0.78757
 C1780 C 0.54085 0.77729 0.77133
 C1781 C 0.54521 0.79672 0.76447
 C1782 C 0.56009 0.80781 0.77334
 H1783 H 0.62094 0.84664 0.78895
 H1784 H 0.61334 0.80869 0.84099
 H1785 H 0.54855 0.75472 0.79342
 H1786 H 0.53711 0.80338 0.75221
 H1787 H 0.59389 0.82976 0.77290
 H1788 H 0.56280 0.82289 0.76793
 C1789 C 0.08221 0.30360 0.82408
 C1790 C 0.09189 0.29393 0.83996
 C1791 C 0.10824 0.30291 0.84853
 C1792 C 0.11514 0.32143 0.84129
 C1793 C 0.10493 0.33074 0.82560
 N1794 N 0.08906 0.32166 0.81746
 C1795 C 0.06559 0.29431 0.81336
 N1796 N 0.06065 0.30178 0.79502
 C1797 C 0.04622 0.29367 0.78369
 C1798 C 0.03588 0.27681 0.79059
 C1799 C 0.04034 0.26912 0.80964
 C1800 C 0.05505 0.27788 0.82112
 H1801 H 0.11570 0.29509 0.86053
 H1802 H 0.10969 0.34504 0.81954
 H1803 H 0.04317 0.30017 0.76913
 H1804 H 0.03253 0.25629 0.81564
 H1805 H 0.08746 0.27932 0.84544
 H1806 H 0.05793 0.27175 0.83583
 C1807 C 0.09178 0.80061 0.30946
 C1808 C 0.10169 0.79111 0.32531
 C1809 C 0.11726 0.80087 0.33459
 C1810 C 0.12321 0.82001 0.32809
 C1811 C 0.11301 0.82895 0.31215
 N1812 N 0.09784 0.81916 0.30338
 C1813 C 0.07536 0.79093 0.29863
 N1814 N 0.06993 0.79854 0.28049
 C1815 C 0.05523 0.79048 0.26944
 C1816 C 0.04498 0.77361 0.27651
 C1817 C 0.05010 0.76567 0.29529
 C1818 C 0.06513 0.77430 0.30642
 H1819 H 0.12479 0.79328 0.34669
 H1820 H 0.11707 0.84366 0.30658
 H1821 H 0.05172 0.79716 0.25508
 H1822 H 0.04243 0.75281 0.30144
 H1823 H 0.09792 0.77616 0.33035
 H1824 H 0.06839 0.76804 0.32100
 C1825 C 0.59161 0.69043 0.68781
 C1826 C 0.60096 0.69977 0.67157
 C1827 C 0.61776 0.69145 0.66383
 C1828 C 0.62555 0.67392 0.67227
 C1829 C 0.61592 0.66512 0.68864
 N1830 N 0.59947 0.67350 0.69591
 C1831 C 0.57393 0.69902 0.69686
 N1832 N 0.56940 0.69420 0.71613
 C1833 C 0.55395 0.70230 0.72567
 C1834 C 0.54217 0.71639 0.71581
 C1835 C 0.54621 0.72106 0.69577
 C1836 C 0.56188 0.71231 0.68621
 H1837 H 0.62476 0.69896 0.65136
 H1838 H 0.62144 0.65164 0.69569
 H1839 H 0.55125 0.69818 0.74110
 H1840 H 0.53728 0.73157 0.68747
 H1841 H 0.59579 0.71365 0.66509
 H1842 H 0.56437 0.71600 0.67066
 C1843 C 0.58895 0.19659 0.19961
 C1844 C 0.59862 0.20516 0.18316
 C1845 C 0.61421 0.19522 0.17471
 C1846 C 0.62050 0.17684 0.18267
 C1847 C 0.61074 0.16894 0.19940
 N1848 N 0.59544 0.17887 0.20732
 C1849 C 0.57221 0.20656 0.20908
 N1850 N 0.56747 0.20167 0.22828
 C1851 C 0.55256 0.21053 0.23803
 C1852 C 0.54149 0.22539 0.22842
 C1853 C 0.54586 0.23033 0.20852
 C1854 C 0.56103 0.22088 0.19878
 H1855 H 0.62144 0.20210 0.16202
 H1856 H 0.61516 0.15487 0.20610
 H1857 H 0.54958 0.20618 0.25334
 H1858 H 0.53750 0.24146 0.20041
 H1859 H 0.59457 0.21956 0.17697
 H1860 H 0.56368 0.22472 0.18329
 C1861 C 0.09160 0.69424 0.18326
 C1862 C 0.10192 0.70416 0.16797
 C1863 C 0.11840 0.69534 0.15998
 C1864 C 0.12485 0.67673 0.16721
 C1865 C 0.11416 0.66730 0.18251
 N1866 N 0.09812 0.67619 0.19006
 C1867 C 0.07442 0.70324 0.19290
 N1868 N 0.06889 0.69637 0.21128
 C1869 C 0.05383 0.70442 0.22148
 C1870 C 0.04348 0.72059 0.21329
 C1871 C 0.04855 0.72751 0.19414
 C1872 C 0.06383 0.71882 0.18386
 H1873 H 0.12626 0.70329 0.14834
 H1874 H 0.11859 0.65295 0.18860
 H1875 H 0.05033 0.69853 0.23616
 H1876 H 0.04075 0.73975 0.18710
 H1877 H 0.09781 0.71882 0.16250
 H1878 H 0.06711 0.72434 0.16901
 C1879 C 0.08729 0.19282 0.70111
 C1880 C 0.09701 0.17641 0.70974
 C1881 C 0.11273 0.16804 0.69989
 C1882 C 0.11906 0.17603 0.68155
 C1883 C 0.10916 0.19262 0.67355
 N1884 N 0.09378 0.20047 0.68339
 C1885 C 0.07053 0.20240 0.71094
 N1886 N 0.06562 0.22144 0.70550
 C1887 C 0.05061 0.23133 0.71402
 C1888 C 0.03953 0.22202 0.72907
 C1889 C 0.04411 0.20229 0.73465
 C1890 C 0.05943 0.19241 0.72558
 H1891 H 0.12004 0.15542 0.70679
 H1892 H 0.11356 0.19934 0.65949
 H1893 H 0.04752 0.24650 0.70918
 H1894 H 0.03578 0.19442 0.74600
 H1895 H 0.09291 0.17021 0.72410
 H1896 H 0.06224 0.17706 0.72992
 C1897 C 0.40937 0.68056 0.30770
 C1898 C 0.39891 0.66490 0.29852
 C1899 C 0.38246 0.65690 0.30786
 C1900 C 0.37624 0.66447 0.32625
 C1901 C 0.38716 0.68000 0.33498
 N1902 N 0.40310 0.68754 0.32560
 C1903 C 0.42645 0.69054 0.29831
 N1904 N 0.43292 0.70816 0.30616
 C1905 C 0.44802 0.71875 0.29827
 C1906 C 0.45758 0.71178 0.28124
 C1907 C 0.45149 0.69345 0.27309
 C1908 C 0.43606 0.68274 0.28160
 H1909 H 0.37445 0.64501 0.30049
 H1910 H 0.38297 0.68632 0.34915
 H1911 H 0.45226 0.73277 0.30512
 H1912 H 0.45857 0.68742 0.26006
 H1913 H 0.40289 0.65908 0.28411
 H1914 H 0.43192 0.66858 0.27504
 C1915 C 0.41222 0.19513 0.80543
 C1916 C 0.40261 0.20274 0.82222
 C1917 C 0.38669 0.19237 0.83012
 C1918 C 0.38008 0.17451 0.82134
 C1919 C 0.39004 0.16742 0.80459
 N1920 N 0.40554 0.17776 0.79718
 C1921 C 0.42892 0.20564 0.79586
 N1922 N 0.43438 0.19988 0.77723
 C1923 C 0.44923 0.20885 0.76717
 C1924 C 0.45961 0.22482 0.77580
 C1925 C 0.45449 0.23083 0.79510
 C1926 C 0.43929 0.22126 0.80521
 H1927 H 0.37940 0.19855 0.84296
 H1928 H 0.38548 0.15374 0.79728
 H1929 H 0.45272 0.20365 0.75234
 H1930 H 0.46223 0.24294 0.80242
 H1931 H 0.40688 0.21671 0.82906
 H1932 H 0.43602 0.22607 0.82019
 C1933 C 0.91157 0.70019 0.82129
 C1934 C 0.90123 0.71034 0.83612
 C1935 C 0.88423 0.70185 0.84379
 C1936 C 0.87733 0.68335 0.83670
 C1937 C 0.88813 0.67364 0.82196
 N1938 N 0.90464 0.68222 0.81470
 C1939 C 0.92914 0.70881 0.81167
 N1940 N 0.93501 0.70093 0.79401
 C1941 C 0.95043 0.70837 0.78367
 C1942 C 0.96091 0.72493 0.79093
 C1943 C 0.95548 0.73300 0.80936
 C1944 C 0.93973 0.72494 0.81982
 H1945 H 0.87633 0.70998 0.85505
 H1946 H 0.88340 0.65936 0.81603
 H1947 H 0.95417 0.70158 0.76958
 H1948 H 0.96330 0.74564 0.81562
 H1949 H 0.90571 0.72490 0.84147
 H1950 H 0.93609 0.73137 0.83408
 C1951 C 0.90878 0.19968 0.30745
 C1952 C 0.89879 0.20983 0.32256
 C1953 C 0.88240 0.20102 0.33122
 C1954 C 0.87567 0.18220 0.32483
 C1955 C 0.88599 0.17258 0.30965
 N1956 N 0.90197 0.18145 0.30147
 C1957 C 0.92600 0.20847 0.29722
 N1958 N 0.93163 0.20059 0.27945
 C1959 C 0.94688 0.20807 0.26883
 C1960 C 0.95745 0.22467 0.27591
 C1961 C 0.95221 0.23277 0.29438
 C1962 C 0.93666 0.22468 0.30512
 H1963 H 0.87484 0.20913 0.34273
 H1964 H 0.88136 0.15807 0.30419
 H1965 H 0.95047 0.20128 0.25469
 H1966 H 0.96010 0.24541 0.30055
 H1967 H 0.90313 0.22459 0.32746
 H1968 H 0.93328 0.23110 0.31945
 C1969 C 0.30396 0.30846 0.59457
 C1970 C 0.29475 0.32380 0.60505
 C1971 C 0.30380 0.33220 0.62165
 C1972 C 0.32202 0.32534 0.62815
 C1973 C 0.33068 0.30974 0.61747
 N1974 N 0.32153 0.30176 0.60121
 C1975 C 0.29461 0.29902 0.57694
 N1976 N 0.29904 0.27977 0.57218
 C1977 C 0.29021 0.26997 0.55679
 C1978 C 0.27582 0.27955 0.54529
 C1979 C 0.27150 0.29956 0.54956
 C1980 C 0.28092 0.30936 0.56519
 H1981 H 0.29637 0.34401 0.62948
 H1982 H 0.34465 0.30388 0.62201
 H1983 H 0.29410 0.25458 0.55387
 H1984 H 0.26076 0.30766 0.54086
 H1985 H 0.28047 0.32907 0.60086
 H1986 H 0.27748 0.32489 0.56789
 C1987 C 0.31155 0.81600 0.09421
 C1988 C 0.30268 0.83193 0.10420
 C1989 C 0.31090 0.83923 0.12181
 C1990 C 0.32787 0.83069 0.12975
 C1991 C 0.33633 0.81481 0.11933
 N1992 N 0.32803 0.80794 0.10216
 C1993 C 0.30299 0.80696 0.07591
 N1994 N 0.30868 0.78826 0.07053
 C1995 C 0.30092 0.77855 0.05453
 C1996 C 0.28630 0.78759 0.04294
 C1997 C 0.28058 0.80707 0.04785
 C1998 C 0.28897 0.81685 0.06414
 H1999 H 0.30372 0.85138 0.12937
 H2000 H 0.34940 0.80773 0.12489
 H2001 H 0.30585 0.76358 0.05121
 H2002 H 0.26955 0.81472 0.03914
 H2003 H 0.28925 0.83845 0.09898
 H2004 H 0.28441 0.83195 0.06729
 C2005 C 0.80133 0.29901 0.08803
 C2006 C 0.81647 0.28942 0.09842
 C2007 C 0.82587 0.29922 0.11405
 C2008 C 0.82019 0.31850 0.11972
 C2009 C 0.80466 0.32742 0.10933
 N2010 N 0.79577 0.31760 0.09395
 C2011 C 0.79107 0.28917 0.07111
 N2012 N 0.77277 0.29507 0.06605
 C2013 C 0.76239 0.28622 0.05107
 C2014 C 0.77035 0.27029 0.04032
 C2015 C 0.78934 0.26436 0.04496
 C2016 C 0.79977 0.27381 0.06013
 H2017 H 0.83753 0.29153 0.12180
 H2018 H 0.79970 0.34222 0.11327
 H2019 H 0.74782 0.29137 0.04787
 H2020 H 0.79621 0.25239 0.03682
 H2021 H 0.82091 0.27436 0.09489
 H2022 H 0.81453 0.26913 0.06297
 C2023 C 0.81708 0.80239 0.58962
 C2024 C 0.83240 0.79332 0.60025
 C2025 C 0.84053 0.80295 0.61678
 C2026 C 0.83341 0.82152 0.62301
 C2027 C 0.81806 0.83007 0.61204
 N2028 N 0.81040 0.82042 0.59594
 C2029 C 0.80740 0.79270 0.57222
 N2030 N 0.78980 0.79967 0.56598
 C2031 C 0.77973 0.79135 0.55052
 C2032 C 0.78725 0.77481 0.54039
 C2033 C 0.80553 0.76763 0.54627
 C2034 C 0.81568 0.77657 0.56200
 H2035 H 0.85221 0.79565 0.62487
 H2036 H 0.81205 0.84435 0.61627
 H2037 H 0.76573 0.79744 0.54643
 H2038 H 0.81202 0.75508 0.53870
 H2039 H 0.83789 0.77876 0.59635
 H2040 H 0.82986 0.77084 0.56582
 C2041 C 0.31106 0.68859 0.41223
 C2042 C 0.32764 0.69665 0.40282
 C2043 C 0.33557 0.68685 0.38644
 C2044 C 0.32702 0.66914 0.37923
 C2045 C 0.31055 0.66154 0.38909
 N2046 N 0.30312 0.67133 0.40501
 C2047 C 0.30132 0.69847 0.42924
 N2048 N 0.28333 0.69178 0.43462
 C2049 C 0.27308 0.70010 0.44970
 C2050 C 0.28083 0.71634 0.46038
 C2051 C 0.29946 0.72334 0.45534
 C2052 C 0.30978 0.71442 0.43992
 H2053 H 0.34820 0.69335 0.37923
 H2054 H 0.30346 0.64792 0.38411
 H2055 H 0.25880 0.69417 0.45310
 H2056 H 0.30608 0.73571 0.46333
 H2057 H 0.33431 0.71053 0.40755
 H2058 H 0.32418 0.72002 0.43669
 C2059 C 0.30986 0.18258 0.90591
 C2060 C 0.30149 0.16662 0.89519
 C2061 C 0.31076 0.15943 0.87822
 C2062 C 0.32826 0.16814 0.87169
 C2063 C 0.33610 0.18410 0.88274
 N2064 N 0.32682 0.19082 0.89926
 C2065 C 0.30054 0.19132 0.92377
 N2066 N 0.30654 0.20976 0.92998
 C2067 C 0.29858 0.21909 0.94592
 C2068 C 0.28347 0.20985 0.95668
 C2069 C 0.27726 0.19069 0.95080
 C2070 C 0.28579 0.18134 0.93450
 H2071 H 0.30404 0.14721 0.87009
 H2072 H 0.34954 0.19132 0.87828
 H2073 H 0.30390 0.23383 0.94996
 H2074 H 0.26580 0.18291 0.95881
 H2075 H 0.28777 0.15992 0.89940
 H2076 H 0.28088 0.16644 0.93063
 C2077 C 0.80196 0.70792 0.91168
 C2078 C 0.81751 0.71716 0.90159
 C2079 C 0.82717 0.70681 0.88670
 C2080 C 0.82133 0.68732 0.88147
 C2081 C 0.80544 0.67874 0.89154
 N2082 N 0.79633 0.68909 0.90619
 C2083 C 0.79125 0.71818 0.92783
 N2084 N 0.77346 0.71099 0.93326
 C2085 C 0.76271 0.71960 0.94782
 C2086 C 0.76974 0.73660 0.95789
 C2087 C 0.78811 0.74413 0.95272
 C2088 C 0.79894 0.73494 0.93789
 H2089 H 0.83913 0.71422 0.87914
 H2090 H 0.80037 0.66380 0.88794
 H2091 H 0.74864 0.71322 0.95140
 H2092 H 0.79422 0.75704 0.96030
 H2093 H 0.82213 0.73232 0.90475
 H2094 H 0.81326 0.74085 0.93473
 C2095 C 0.80316 0.20176 0.40583
 C2096 C 0.79424 0.18580 0.39562
 C2097 C 0.80382 0.17682 0.37979
 C2098 C 0.82220 0.18376 0.37378
 C2099 C 0.83046 0.20004 0.38405
 N2100 N 0.82088 0.20847 0.39959
 C2101 C 0.79369 0.21179 0.42292
 N2102 N 0.80006 0.23034 0.42844
 C2103 C 0.79205 0.24055 0.44383
 C2104 C 0.77657 0.23214 0.45470
 C2105 C 0.76995 0.21294 0.44947
 C2106 C 0.77850 0.20269 0.43376
 H2107 H 0.79670 0.16451 0.37215
 H2108 H 0.84456 0.20596 0.37989
 H2109 H 0.79769 0.25529 0.44742
 H2110 H 0.75823 0.20575 0.45762
 H2111 H 0.77990 0.18036 0.39942
 H2112 H 0.77335 0.18772 0.43052
 C2113 C 0.68887 0.31988 0.41193
 C2114 C 0.67177 0.31158 0.40386
 C2115 C 0.66311 0.32053 0.38725
 C2116 C 0.67142 0.33765 0.37833
 C2117 C 0.68852 0.34554 0.38679
 N2118 N 0.69673 0.33653 0.40309
 C2119 C 0.69917 0.31037 0.42905
 N2120 N 0.71825 0.31493 0.43221
 C2121 C 0.72895 0.30602 0.44691
 C2122 C 0.72052 0.29130 0.45930
 C2123 C 0.70077 0.28678 0.45672
 C2124 C 0.69001 0.29640 0.44183
 H2125 H 0.65004 0.31372 0.38119
 H2126 H 0.69548 0.35869 0.38039
 H2127 H 0.74413 0.31005 0.44851
 H2128 H 0.69362 0.27578 0.46621
 H2129 H 0.66529 0.29798 0.40975
 H2130 H 0.67474 0.29280 0.44053
 C2131 C 0.68350 0.81990 0.90717
 C2132 C 0.69204 0.83652 0.89749
 C2133 C 0.68385 0.84393 0.87985
 C2134 C 0.66725 0.83482 0.87160
 C2135 C 0.65910 0.81826 0.88173
 N2136 N 0.66738 0.81127 0.89893
 C2137 C 0.69217 0.81081 0.92543
 N2138 N 0.68793 0.79133 0.93005
 C2139 C 0.69617 0.78163 0.94591
 C2140 C 0.70982 0.79156 0.95805
 C2141 C 0.71389 0.81182 0.95397
 C2142 C 0.70502 0.82152 0.93786
 H2143 H 0.69077 0.85662 0.87252
 H2144 H 0.64633 0.81071 0.87592
 H2145 H 0.69251 0.76604 0.94862
 H2146 H 0.72408 0.82016 0.96315
 H2147 H 0.70523 0.84348 0.90299
 H2148 H 0.70830 0.83720 0.93531
 C2149 C 0.19018 0.29691 0.91806
 C2150 C 0.17341 0.28850 0.90937
 C2151 C 0.16344 0.29907 0.89457
 C2152 C 0.17014 0.31795 0.88809
 C2153 C 0.18703 0.32581 0.89700
 N2154 N 0.19648 0.31523 0.91151
 C2155 C 0.20163 0.28616 0.93358
 N2156 N 0.22023 0.29225 0.93725
 C2157 C 0.23182 0.28296 0.95093
 C2158 C 0.22485 0.26634 0.96183
 C2159 C 0.20566 0.25999 0.95854
 C2160 C 0.19398 0.26991 0.94462
 H2161 H 0.15062 0.29224 0.88800
 H2162 H 0.19277 0.34028 0.89243
 H2163 H 0.24652 0.28843 0.95309
 H2164 H 0.19960 0.24744 0.96685
 H2165 H 0.16813 0.27374 0.91345
 H2166 H 0.17912 0.26490 0.94285
 C2167 C 0.19455 0.80451 0.41217
 C2168 C 0.20235 0.82158 0.40264
 C2169 C 0.19251 0.83020 0.38652
 C2170 C 0.17497 0.82185 0.37959
 C2171 C 0.16772 0.80468 0.38936
 N2172 N 0.17755 0.79657 0.40514
 C2173 C 0.20453 0.79440 0.42916
 N2174 N 0.19906 0.77535 0.43413
 C2175 C 0.20770 0.76483 0.44918
 C2176 C 0.22299 0.77343 0.46024
 C2177 C 0.22868 0.79315 0.45565
 C2178 C 0.21943 0.80373 0.44028
 H2179 H 0.19883 0.84330 0.37934
 H2180 H 0.15428 0.79768 0.38450
 H2181 H 0.20278 0.74968 0.45228
 H2182 H 0.24022 0.80044 0.46398
 H2183 H 0.21609 0.82812 0.40710
 H2184 H 0.22392 0.81904 0.43747
 C2185 C 0.69473 0.69459 0.58883
 C2186 C 0.67861 0.70345 0.59795
 C2187 C 0.67003 0.69417 0.61447
 C2188 C 0.67748 0.67616 0.62220
 C2189 C 0.69366 0.66783 0.61278
 N2190 N 0.70174 0.67712 0.59662
 C2191 C 0.70485 0.70391 0.57146
 N2192 N 0.72274 0.69702 0.56646
 C2193 C 0.73324 0.70500 0.55113
 C2194 C 0.72588 0.72109 0.53984
 C2195 C 0.70734 0.72820 0.54444
 C2196 C 0.69674 0.71960 0.56006
 H2197 H 0.65770 0.70129 0.62134
 H2198 H 0.69994 0.65398 0.61822
 H2199 H 0.74745 0.69899 0.54806
 H2200 H 0.70100 0.74043 0.53595
 H2201 H 0.67277 0.71759 0.59286
 H2202 H 0.68238 0.72526 0.56288
 C2203 C 0.68284 0.18846 0.09281
 C2204 C 0.66762 0.19822 0.10255
 C2205 C 0.66003 0.19008 0.12009
 C2206 C 0.66759 0.17231 0.12827
 C2207 C 0.68288 0.16302 0.11818
 N2208 N 0.69004 0.17125 0.10101
 C2209 C 0.69193 0.19691 0.07449
 N2210 N 0.71013 0.19095 0.06950
 C2211 C 0.71981 0.19875 0.05352
 C2212 C 0.71125 0.21373 0.04159
 C2213 C 0.69230 0.21967 0.04608
 C2214 C 0.68254 0.21121 0.06233
 H2215 H 0.64839 0.19795 0.12740
 H2216 H 0.68921 0.14933 0.12395
 H2217 H 0.73437 0.19364 0.05050
 H2218 H 0.68502 0.23094 0.03708
 H2219 H 0.66184 0.21229 0.09715
 H2220 H 0.66784 0.21590 0.06514
 C2221 C 0.20051 0.69710 0.08909
 C2222 C 0.20884 0.68103 0.09972
 C2223 C 0.19859 0.67183 0.11521
 C2224 C 0.18011 0.67865 0.12047
 C2225 C 0.17242 0.69502 0.10979
 N2226 N 0.18266 0.70369 0.09460
 C2227 C 0.21081 0.70733 0.07238
 N2228 N 0.20550 0.72625 0.06689
 C2229 C 0.21459 0.73666 0.05198
 C2230 C 0.23014 0.72807 0.04171
 C2231 C 0.23555 0.70845 0.04684
 C2232 C 0.22588 0.69801 0.06196
 H2233 H 0.20528 0.65946 0.12318
 H2234 H 0.15826 0.70087 0.11340
 H2235 H 0.20987 0.75171 0.04842
 H2236 H 0.24724 0.70108 0.03909
 H2237 H 0.22327 0.67571 0.09651
 H2238 H 0.23016 0.68276 0.06514
 C2239 C 0.18375 0.19741 0.59393
 C2240 C 0.16843 0.20651 0.60419
 C2241 C 0.16011 0.19676 0.62061
 C2242 C 0.16704 0.17804 0.62706
 C2243 C 0.18233 0.16944 0.61640
 N2244 N 0.19018 0.17921 0.60043
 C2245 C 0.19378 0.20721 0.57679
 N2246 N 0.21114 0.19970 0.57083
 C2247 C 0.22159 0.20796 0.55563
 C2248 C 0.21473 0.22499 0.54543
 C2249 C 0.19673 0.23280 0.55103
 C2250 C 0.18617 0.22393 0.56655
 H2251 H 0.14846 0.20409 0.62845
 H2252 H 0.18816 0.15504 0.62081
 H2253 H 0.23536 0.20137 0.55176
 H2254 H 0.19078 0.24578 0.54341
 H2255 H 0.16309 0.22117 0.60010
 H2256 H 0.17222 0.23016 0.57019
   
