data_POSCAR
  _audit_creation_date              2014-09-24
  _audit_creation_method            'ToBaCCo'
  _symmetry_space_group_name_H-M    'P1'
  _symmetry_Int_Tables_number       1
  _symmetry_cell_setting            triclinic
  loop_
  _symmetry_equiv_pos_as_xyz
 x,y,z
_cell_length_a 63.0001
_cell_length_b 62.4317
_cell_length_c 62.0981
_cell_angle_alpha 88.784700
_cell_angle_beta 89.992600
_cell_angle_gamma 88.685200
loop_
  _atom_site_label
  _atom_site_type_symbol
  _atom_site_fract_x
  _atom_site_fract_y
  _atom_site_fract_z
Si1 Si 0.75627 0.62050 0.99821
 Si2 Si 0.74255 0.38183 0.50180
 Si3 Si 0.25960 -0.11706 0.01446
 Si4 Si 0.24243 0.12360 0.51229
 Si5 Si 0.11083 0.50544 0.24828
 Si6 Si -0.11777 0.00348 0.24777
 Si7 Si 0.38126 0.51094 0.75350
 Si8 Si 0.62304 1.00270 0.74198
 Si9 Si 0.00665 0.24261 -0.11457
 Si10 Si 0.50336 0.24706 0.11464
 Si11 Si 1.00424 0.74305 0.61910
 Si12 Si 0.50232 0.74672 0.38424
 C13 C 0.41045 -0.01755 0.28736
 H14 H 0.41287 -0.00275 0.29568
 C15 C 0.42063 -0.03651 0.29465
 H16 H 0.43098 -0.03620 0.30855
 C17 C 0.39301 -0.03628 0.25994
 H18 H 0.38192 -0.03632 0.24671
 C19 C 0.40269 -0.05552 0.26676
 H20 H 0.39919 -0.07009 0.25842
 N21 N 0.39684 -0.01780 0.27036
 C22 C 0.38678 0.04572 0.24154
 H23 H 0.36968 0.04518 0.24016
 C24 C 0.39760 0.06259 0.23195
 H25 H 0.38875 0.07510 0.22328
 C26 C 0.41909 0.02978 0.25418
 H27 H 0.42737 0.01673 0.26251
 C28 C 0.43059 0.04663 0.24505
 H29 H 0.44773 0.04648 0.24637
 Zn30 Zn 0.38054 0.00704 0.26249
 N31 N 0.39756 0.02967 0.25224
 C32 C 0.36513 0.03683 0.29264
 N33 N 0.36491 0.01594 0.28689
 C34 C 0.35437 0.00110 0.29887
 C35 C 0.34333 0.00715 0.31741
 C36 C 0.35409 0.04360 0.31082
 C37 C 0.37151 -0.00145 0.21991
 C38 C 0.35958 -0.00698 0.20207
 C39 C 0.32862 -0.00897 0.22496
 C40 C 0.34113 -0.00306 0.24239
 N41 N 0.36223 0.00026 0.23959
 H42 H 0.37392 0.04833 0.28323
 H43 H 0.35468 -0.01547 0.29409
 H44 H 0.33492 -0.00479 0.32676
 H45 H 0.35448 0.06030 0.31517
 H46 H 0.38833 0.00122 0.21818
 H47 H 0.36737 -0.00872 0.18664
 H48 H 0.31192 -0.01194 0.22740
 H49 H 0.33407 -0.00151 0.25815
 C50 C 0.41977 0.06309 0.23350
 C51 C 0.41644 -0.05587 0.28451
 C52 C 0.33791 -0.01105 0.20452
 C53 C 0.34302 0.02869 0.32345
 C54 C 0.08251 1.00548 0.78308
 H55 H 0.08097 0.98979 0.79057
 C56 C 0.07043 1.02278 0.79071
 H57 H 0.05934 1.02014 0.80376
 C58 C 0.09953 1.02816 0.75772
 H59 H 0.11136 1.03042 0.74534
 C60 C 0.08778 1.04587 0.76482
 H61 H 0.09080 1.06151 0.75778
 N62 N 0.09703 1.00850 0.76713
 C63 C 0.11301 0.94377 0.74510
 H64 H 0.13006 0.94460 0.74435
 C65 C 0.10315 0.92532 0.73829
 H66 H 0.11286 0.91211 0.73250
 C67 C 0.07967 0.96057 0.75182
 H68 H 0.07048 0.97451 0.75647
 C69 C 0.06913 0.94240 0.74512
 H70 H 0.05194 0.94244 0.74528
 Zn71 Zn 0.11617 0.98583 0.75940
 N72 N 0.10127 0.96089 0.75187
 C73 C 0.15178 0.96568 0.78057
 N74 N 0.13498 0.97953 0.78298
 C75 C 0.13117 0.98889 0.80224
 C76 C 0.14379 0.98375 0.82015
 C77 C 0.16506 0.96036 0.79800
 C78 C 0.11990 0.99693 0.71625
 C79 C 0.12928 1.00459 0.69737
 C80 C 0.16253 1.00687 0.71651
 C81 C 0.15243 0.99933 0.73515
 N82 N 0.13143 0.99471 0.73469
 H83 H 0.15512 0.95892 0.76505
 H84 H 0.11816 1.00020 0.80401
 H85 H 0.13973 0.99080 0.83541
 H86 H 0.17845 0.94952 0.79554
 H87 H 0.10323 0.99314 0.71637
 H88 H 0.11977 1.00655 0.68290
 H89 H 0.17910 1.01104 0.71718
 H90 H 0.16122 0.99775 0.75006
 C91 C 0.08091 0.92446 0.73818
 C92 C 0.07335 1.04341 0.78187
 C93 C 0.15079 1.00989 0.69741
 C94 C 0.16096 0.96917 0.81828
 C95 C 0.58504 0.52031 0.26950
 H96 H 0.58509 0.50491 0.27783
 C97 C 0.57464 0.53794 0.27856
 H98 H 0.56644 0.53600 0.29378
 C99 C 0.59680 0.54191 0.24019
 H100 H 0.60610 0.54359 0.22567
 C101 C 0.58634 0.55988 0.24850
 H102 H 0.58764 0.57524 0.24023
 N103 N 0.59621 0.52268 0.25090
 C104 C 0.61012 0.46104 0.22220
 H105 H 0.62723 0.46217 0.22170
 C106 C 0.60036 0.44367 0.21303
 H107 H 0.61015 0.43132 0.20574
 C108 C 0.57677 0.47584 0.23258
 H109 H 0.56772 0.48858 0.24006
 C110 C 0.56629 0.45861 0.22357
 H111 H 0.54912 0.45824 0.22410
 Zn112 Zn 0.61401 0.49955 0.24248
 N113 N 0.59832 0.47665 0.23174
 C114 C 0.62900 0.46930 0.27370
 N115 N 0.62962 0.49018 0.26711
 C116 C 0.64003 0.50487 0.27878
 C117 C 0.65021 0.49876 0.29803
 C118 C 0.63903 0.46250 0.29271
 C119 C 0.62358 0.51205 0.20039
 C120 C 0.63622 0.51782 0.18287
 C121 C 0.66691 0.51589 0.20624
 C122 C 0.65369 0.50994 0.22331
 N123 N 0.63242 0.50838 0.22014
 H124 H 0.62040 0.45789 0.26447
 H125 H 0.63996 0.52146 0.27336
 H126 H 0.65792 0.51077 0.30741
 H127 H 0.63840 0.44576 0.29755
 H128 H 0.60665 0.51044 0.19829
 H129 H 0.62887 0.52097 0.16732
 H130 H 0.68381 0.51712 0.20898
 H131 H 0.66045 0.50651 0.23902
 C132 C 0.57815 0.44235 0.21346
 C133 C 0.57559 0.55811 0.26821
 C134 C 0.65816 0.51989 0.18571
 C135 C 0.64954 0.47734 0.30536
 C136 C 0.90906 0.47086 0.77439
 H137 H 0.91051 0.48609 0.78220
 C138 C 0.91973 0.45265 0.78278
 H139 H 0.92935 0.45403 0.79711
 C140 C 0.89371 0.45039 0.74700
 H141 H 0.88318 0.44939 0.73337
 C142 C 0.90410 0.43184 0.75480
 H143 H 0.90182 0.41689 0.74667
 N144 N 0.89632 0.46942 0.75684
 C145 C 0.88703 0.53324 0.72812
 H146 H 0.86994 0.53293 0.72648
 C147 C 0.89798 0.55113 0.72093
 H148 H 0.88922 0.56447 0.71354
 C149 C 0.91910 0.51597 0.73957
 H150 H 0.92721 0.50220 0.74685
 C151 C 0.93077 0.53358 0.73244
 H152 H 0.94784 0.53334 0.73448
 Zn153 Zn 0.88017 0.49391 0.74760
 N154 N 0.89757 0.51633 0.73764
 C155 C 0.86512 0.52405 0.77772
 N156 N 0.86377 0.50341 0.77134
 C157 C 0.85161 0.48914 0.78235
 C158 C 0.84007 0.49554 0.80047
 C159 C 0.85363 0.53118 0.79545
 C160 C 0.87258 0.48206 0.70553
 C161 C 0.86089 0.47729 0.68726
 C162 C 0.82866 0.48320 0.70762
 C163 C 0.84102 0.48781 0.72557
 N164 N 0.86257 0.48697 0.72423
 H165 H 0.87529 0.53506 0.76926
 H166 H 0.85104 0.47274 0.77715
 H167 H 0.83045 0.48406 0.80911
 H168 H 0.85500 0.54765 0.80033
 H169 H 0.88975 0.48177 0.70488
 H170 H 0.86924 0.47294 0.67270
 H171 H 0.81153 0.48410 0.70889
 H172 H 0.83339 0.49221 0.74047
 C173 C 0.92011 0.55159 0.72331
 C174 C 0.91714 0.43274 0.77308
 C175 C 0.83861 0.47782 0.68812
 C176 C 0.84094 0.51686 0.80708
 C177 C 0.27568 0.41069 -0.01914
 H178 H 0.28416 0.40973 -0.00398
 C179 C 0.28416 0.42210 -0.03661
 H180 H 0.29927 0.42974 -0.03470
 C181 C 0.24653 0.40044 -0.04033
 H182 H 0.23218 0.39156 -0.04204
 C183 C 0.25419 0.41196 -0.05804
 H184 H 0.24515 0.41222 -0.07287
 N185 N 0.25730 0.39994 -0.02134
 C186 C 0.22701 0.38707 0.04034
 H187 H 0.22570 0.36989 0.03911
 C188 C 0.21738 0.39765 0.05741
 H189 H 0.20883 0.38847 0.06944
 C190 C 0.23961 0.41987 0.02590
 H191 H 0.24802 0.42843 0.01336
 C192 C 0.23036 0.43112 0.04291
 H193 H 0.23167 0.44837 0.04336
 Zn194 Zn 0.24836 0.38203 0.00183
 N195 N 0.23775 0.39824 0.02498
 C196 C 0.27801 0.36445 0.03200
 N197 N 0.27210 0.36507 0.01093
 C198 C 0.28377 0.35474 -0.00426
 C199 C 0.30230 0.34329 0.00152
 C200 C 0.29624 0.35298 0.03852
 C201 C 0.20730 0.37479 -0.01230
 C202 C 0.19018 0.36323 -0.01962
 C203 C 0.21125 0.33063 -0.01488
 C204 C 0.22817 0.34289 -0.00799
 N205 N 0.22600 0.36460 -0.00720
 H206 H 0.26878 0.37309 0.04378
 H207 H 0.27884 0.35571 -0.02095
 H208 H 0.31149 0.33522 -0.01075
 H209 H 0.30085 0.35288 0.05533
 H210 H 0.20586 0.39202 -0.01101
 H211 H 0.17553 0.37162 -0.02406
 H212 H 0.21321 0.31340 -0.01585
 H213 H 0.24303 0.33508 -0.00342
 C214 C 0.21885 0.41997 0.05876
 C215 C 0.27351 0.42263 -0.05654
 C216 C 0.19212 0.34091 -0.02114
 C217 C 0.30871 0.34235 0.02317
 C218 C 0.77785 0.08832 1.01317
 H219 H 0.78642 0.08660 0.99818
 C220 C 0.78520 0.07759 1.03183
 H221 H 0.79949 0.06766 1.03109
 C222 C 0.74962 0.10447 1.03265
 H223 H 0.73615 0.11543 1.03317
 C224 C 0.75641 0.09413 1.05162
 H225 H 0.74771 0.09689 1.06638
 N226 N 0.76041 0.10155 1.01392
 C227 C 0.73962 0.11206 0.94744
 H228 H 0.73887 0.12940 0.94736
 C229 C 0.73381 0.10111 0.92914
 H230 H 0.72840 0.11016 0.91504
 C231 C 0.74686 0.07934 0.96638
 H232 H 0.75171 0.07098 0.98104
 C233 C 0.74105 0.06768 0.94838
 H234 H 0.74177 0.05034 0.94923
 Zn235 Zn 0.75272 0.11833 0.98918
 N236 N 0.74615 0.10114 0.96550
 C237 C 0.78723 0.13182 0.96390
 N238 N 0.77618 0.13568 0.98229
 C239 C 0.78298 0.15013 0.99673
 C240 C 0.80158 0.16144 0.99284
 C241 C 0.80599 0.14251 0.95955
 C242 C 0.71033 0.12287 0.99908
 C243 C 0.69141 0.13273 1.00550
 C244 C 0.70822 0.16705 1.00223
 C245 C 0.72700 0.15645 0.99597
 N246 N 0.72782 0.13468 0.99515
 H247 H 0.78199 0.11986 0.95291
 H248 H 0.77424 0.15248 1.01152
 H249 H 0.80705 0.17260 1.00463
 H250 H 0.81475 0.13899 0.94499
 H251 H 0.71137 0.10561 0.99795
 H252 H 0.67783 0.12297 1.00919
 H253 H 0.70794 0.18431 1.00368
 H254 H 0.74095 0.16558 0.99230
 C255 C 0.73449 0.07862 0.92941
 C256 C 0.77464 0.08078 1.05147
 C257 C 0.69033 0.15504 1.00764
 C258 C 0.81348 0.15735 0.97422
 C259 C 0.27386 0.58671 0.51764
 H260 H 0.28246 0.58451 0.50274
 C261 C 0.28090 0.57622 0.53654
 H262 H 0.29497 0.56595 0.53606
 C263 C 0.24606 0.60412 0.53670
 H264 H 0.23291 0.61549 0.53694
 C265 C 0.25253 0.59399 0.55589
 H266 H 0.24392 0.59736 0.57057
 N267 N 0.25690 0.60058 0.51811
 C268 C 0.23531 0.61281 0.45219
 H269 H 0.23540 0.63013 0.45240
 C270 C 0.22825 0.60251 0.43395
 H271 H 0.22270 0.61208 0.42024
 C272 C 0.24172 0.57948 0.47030
 H273 H 0.24682 0.57065 0.48461
 C274 C 0.23469 0.56847 0.45232
 H275 H 0.23469 0.55112 0.45285
 Zn276 Zn 0.25046 0.61775 0.49335
 N277 N 0.24202 0.60127 0.46980
 C278 C 0.28493 0.62917 0.46684
 N279 N 0.27531 0.63283 0.48606
 C280 C 0.28418 0.64568 0.50085
 C281 C 0.30348 0.65555 0.49647
 C282 C 0.30422 0.63857 0.46187
 C283 C 0.20841 0.62695 0.50243
 C284 C 0.19032 0.63909 0.50744
 C285 C 0.21129 0.67099 0.50535
 C286 C 0.22905 0.65819 0.50031
 N287 N 0.22734 0.63654 0.49933
 H288 H 0.27798 0.61850 0.45550
 H289 H 0.27647 0.64792 0.51623
 H290 H 0.31054 0.66544 0.50853
 H291 H 0.31162 0.63541 0.44649
 H292 H 0.20749 0.60972 0.50138
 H293 H 0.17558 0.63099 0.51051
 H294 H 0.21289 0.68818 0.50623
 H295 H 0.24415 0.66555 0.49733
 C296 C 0.22792 0.58004 0.43380
 C297 C 0.27047 0.58025 0.55610
 C298 C 0.19163 0.66140 0.50913
 C299 C 0.31385 0.65178 0.47685
 C300 C 0.78003 0.89903 0.47442
 H301 H 0.78896 0.89835 0.48931
 C302 C 0.78797 0.91011 0.45650
 H303 H 0.80317 0.91771 0.45779
 C304 C 0.75005 0.88865 0.45449
 H305 H 0.73550 0.87990 0.45359
 C306 C 0.75724 0.89978 0.43626
 H307 H 0.74775 0.89986 0.42174
 N308 N 0.76148 0.88845 0.47307
 C309 C 0.73858 0.87874 0.53855
 H310 H 0.73860 0.86140 0.53909
 C311 C 0.73168 0.89020 0.55633
 H312 H 0.72626 0.88158 0.57054
 C313 C 0.74504 0.91097 0.51899
 H314 H 0.75008 0.91891 0.50428
 C315 C 0.73796 0.92311 0.53637
 H316 H 0.73779 0.94044 0.53504
 Zn317 Zn 0.75325 0.87167 0.49726
 N318 N 0.74526 0.88919 0.52045
 C319 C 0.78708 0.85842 0.52412
 N320 N 0.77698 0.85409 0.50540
 C321 C 0.78498 0.83917 0.49173
 C322 C 0.80372 0.82771 0.49690
 C323 C 0.80594 0.84765 0.52971
 C324 C 0.71098 0.86788 0.48775
 C325 C 0.69205 0.85841 0.48212
 C326 C 0.71030 0.82394 0.48271
 C327 C 0.72896 0.83412 0.48854
 N328 N 0.72903 0.85580 0.49043
 H329 H 0.78101 0.87084 0.53443
 H330 H 0.77710 0.83655 0.47657
 H331 H 0.81011 0.81608 0.48580
 H332 H 0.81390 0.85152 0.54454
 H333 H 0.71140 0.88503 0.48976
 H334 H 0.67791 0.86843 0.48011
 H335 H 0.71064 0.80677 0.48055
 H336 H 0.74335 0.82472 0.49124
 C337 C 0.73125 0.91267 0.55535
 C338 C 0.77663 0.91047 0.43697
 C339 C 0.69158 0.83620 0.47909
 C340 C 0.81455 0.83221 0.51596
 C341 C -0.02777 0.28139 0.40819
 H342 H -0.01286 0.28958 0.40900
 C343 C -0.04561 0.28952 0.41902
 H344 H -0.04429 0.30403 0.42812
 C345 C -0.04793 0.25324 0.39431
 H346 H -0.04907 0.23943 0.38429
 C347 C -0.06604 0.26073 0.40489
 H348 H -0.08067 0.25215 0.40326
 N349 N -0.02924 0.26355 0.39611
 C350 C 0.03279 0.23308 0.38699
 H351 H 0.03149 0.23060 0.36985
 C352 C 0.05012 0.22442 0.39833
 H353 H 0.06221 0.21535 0.38981
 C354 C 0.01844 0.24780 0.41888
 H355 H 0.00588 0.25666 0.42682
 C356 C 0.03575 0.23962 0.43086
 H357 H 0.03643 0.24219 0.44804
 Zn358 Zn -0.00560 0.25391 0.37968
 N359 N 0.01736 0.24443 0.39732
 C360 C 0.02354 0.28323 0.36246
 N361 N 0.00309 0.27681 0.36152
 C362 C -0.01140 0.28723 0.34861
 C363 C -0.00544 0.30484 0.33585
 C364 C 0.03019 0.30057 0.34991
 C365 C -0.01759 0.21191 0.37515
 C366 C -0.02444 0.19365 0.36498
 C367 C -0.02156 0.21246 0.33072
 C368 C -0.01489 0.23052 0.34162
 N369 N -0.01348 0.23001 0.36349
 H370 H 0.03473 0.27511 0.37317
 H371 H -0.02764 0.28197 0.34838
 H372 H -0.01712 0.31297 0.32561
 H373 H 0.04648 0.30559 0.35115
 H374 H -0.01597 0.21187 0.39250
 H375 H -0.02798 0.17950 0.37459
 H376 H -0.02321 0.21320 0.31336
 H377 H -0.01118 0.24496 0.33264
 C378 C 0.05169 0.22756 0.42055
 C379 C -0.06515 0.27926 0.41721
 C380 C -0.02682 0.19388 0.34252
 C381 C 0.01564 0.31165 0.33640
 C382 C 1.02548 0.77980 0.07923
 H383 H 1.01079 0.78854 0.07585
 C384 C 1.04434 0.78614 0.06931
 H385 H 1.04405 0.79984 0.05831
 C386 C 1.04401 0.75241 0.09902
 H387 H 1.04405 0.73975 0.11113
 C388 C 1.06313 0.75819 0.08952
 H389 H 1.07758 0.74954 0.09411
 N390 N 1.02572 0.76341 0.09404
 C391 C 0.96063 0.74409 0.10504
 H392 H 0.96052 0.74598 0.12232
 C393 C 0.94332 0.73521 0.09494
 H394 H 0.92977 0.73054 0.10453
 C395 C 0.97883 0.74739 0.07175
 H396 H 0.99298 0.75166 0.06296
 C397 C 0.96170 0.73854 0.06090
 H398 H 0.96273 0.73607 0.04372
 Zn399 Zn 1.00104 0.75816 0.11054
 N400 N 0.97801 0.74973 0.09348
 C401 C 0.97530 0.79439 0.12013
 N402 N 0.99384 0.78377 0.12495
 C403 C 1.00795 0.79184 0.13906
 C404 C 1.00332 0.81102 0.14947
 C405 C 0.97016 0.81372 0.12995
 C406 C 1.00986 0.71566 0.12104
 C407 C 1.01385 0.69740 0.13380
 C408 C 1.01020 0.71906 0.16542
 C409 C 1.00619 0.73699 0.15199
 N410 N 1.00640 0.73501 0.13020
 H411 H 0.96455 0.78807 0.10844
 H412 H 1.02284 0.78336 0.14218
 H413 H 1.01468 0.81723 0.16070
 H414 H 0.95523 0.82185 0.12607
 H415 H 1.00970 0.71451 0.10368
 H416 H 1.01707 0.68228 0.12609
 H417 H 1.01000 0.72087 0.18272
 H418 H 1.00285 0.75239 0.15901
 C419 C 0.94389 0.73188 0.07267
 C420 C 1.06357 0.77562 0.07491
 C421 C 1.01414 0.69894 0.15632
 C422 C 0.98422 0.82222 0.14489
 C423 C 0.51046 0.28170 0.58402
 H424 H 0.49517 0.28978 0.58302
 C425 C 0.52710 0.28895 0.57113
 H426 H 0.52432 0.30255 0.56032
 C427 C 0.53259 0.25411 0.59899
 H428 H 0.53479 0.24046 0.60975
 C429 C 0.54970 0.26092 0.58654
 H430 H 0.56493 0.25271 0.58847
 N431 N 0.51368 0.26511 0.59829
 C432 C 0.44962 0.24886 0.61798
 H433 H 0.45042 0.25365 0.63460
 C434 C 0.43072 0.24129 0.60973
 H435 H 0.41691 0.24060 0.62008
 C436 C 0.46684 0.24404 0.58443
 H437 H 0.48112 0.24488 0.57480
 C438 C 0.44820 0.23626 0.57550
 H439 H 0.44832 0.23101 0.55900
 Zn440 Zn 0.49229 0.25859 0.61901
 N441 N 0.46724 0.24983 0.60542
 C442 C 0.47480 0.29985 0.62413
 N443 N 0.48538 0.28363 0.63481
 C444 C 0.49027 0.28521 0.65607
 C445 C 0.48525 0.30393 0.66710
 C446 C 0.46947 0.31882 0.63452
 C447 C 0.49266 0.21685 0.63769
 C448 C 0.50106 0.19935 0.64948
 C449 C 0.52931 0.22168 0.66155
 C450 C 0.52036 0.23876 0.64954
 N451 N 0.50250 0.23603 0.63768
 H452 H 0.47009 0.29793 0.60758
 H453 H 0.49802 0.27201 0.66461
 H454 H 0.48967 0.30500 0.68389
 H455 H 0.46085 0.33140 0.62572
 H456 H 0.47868 0.21481 0.62794
 H457 H 0.49343 0.18404 0.64859
 H458 H 0.54370 0.22412 0.67061
 H459 H 0.52813 0.25403 0.64903
 C460 C 0.42991 0.23448 0.58834
 C461 C 0.54730 0.27903 0.57290
 C462 C 0.51984 0.20154 0.66133
 C463 C 0.47484 0.32113 0.65627
 C464 C 0.48412 0.78452 0.90937
 H465 H 0.49853 0.79358 0.90832
 C466 C 0.46701 0.79210 0.92162
 H467 H 0.46841 0.80715 0.92977
 C468 C 0.46444 0.75464 0.89880
 H469 H 0.46315 0.74033 0.88953
 C470 C 0.44714 0.76141 0.91110
 H471 H 0.43310 0.75174 0.91153
 N472 N 0.48251 0.76614 0.89818
 C473 C 0.54516 0.73928 0.88449
 H474 H 0.54348 0.73811 0.86722
 C475 C 0.56318 0.73070 0.89471
 H476 H 0.57545 0.72298 0.88520
 C477 C 0.53090 0.75045 0.91789
 H478 H 0.51806 0.75784 0.92683
 C479 C 0.54889 0.74227 0.92879
 H480 H 0.54983 0.74333 0.94615
 Zn481 Zn 0.50529 0.75773 0.88001
 N482 N 0.52940 0.74873 0.89613
 C483 C 0.53146 0.79065 0.86506
 N484 N 0.51222 0.78164 0.86230
 C485 C 0.49756 0.79056 0.84850
 C486 C 0.50216 0.80918 0.83661
 C487 C 0.53654 0.80940 0.85383
 C488 C 0.49438 0.71548 0.87538
 C489 C 0.48713 0.69725 0.86545
 C490 C 0.48761 0.71653 0.83130
 C491 C 0.49471 0.73456 0.84198
 N492 N 0.49735 0.73386 0.86374
 H493 H 0.54272 0.78368 0.87644
 H494 H 0.48216 0.78340 0.84701
 H495 H 0.49033 0.81627 0.82583
 H496 H 0.55185 0.81649 0.85640
 H497 H 0.49706 0.71524 0.89260
 H498 H 0.48432 0.68294 0.87510
 H499 H 0.48486 0.71746 0.81409
 H500 H 0.49770 0.74913 0.83292
 C501 C 0.56510 0.73195 0.91713
 C502 C 0.44809 0.78057 0.92249
 C503 C 0.48326 0.69777 0.84321
 C504 C 0.52177 0.81892 0.83950
 C505 C 0.47387 -0.19531 0.34409
 C506 C 0.46043 -0.20842 0.35642
 C507 C 0.46862 -0.22633 0.36777
 C508 C 0.49037 -0.23144 0.36695
 C509 C 0.50355 -0.21932 0.35348
 C510 C 0.49546 -0.20124 0.34235
 C511 C 0.46560 -0.17512 0.33394
 N512 N 0.47904 -0.15968 0.32709
 N513 N 0.47157 -0.14106 0.31901
 C514 C 0.45032 -0.13712 0.31738
 N515 N 0.43690 -0.15263 0.32406
 N516 N 0.44437 -0.17120 0.33224
 C517 C 0.44188 -0.11630 0.30880
 C518 C 0.42035 -0.11395 0.30314
 C519 C 0.41221 -0.09435 0.29523
 C520 C 0.42535 -0.07656 0.29296
 C521 C 0.44684 -0.07877 0.29878
 C522 C 0.45507 -0.09850 0.30649
 H523 H 0.44367 -0.20446 0.35790
 H524 H 0.45795 -0.23582 0.37744
 H525 H 0.52033 -0.22331 0.35232
 H526 H 0.50617 -0.19170 0.33270
 H527 H 0.40975 -0.12730 0.30472
 H528 H 0.39552 -0.09302 0.29113
 H529 H 0.45731 -0.06532 0.29709
 H530 H 0.47171 -0.09975 0.31081
 C531 C 0.98151 0.30084 0.84295
 C532 C 0.99997 0.30249 0.85545
 C533 C 1.00774 0.28498 0.86763
 C534 C 0.99743 0.26532 0.86739
 C535 C 0.97919 0.26345 0.85469
 C536 C 0.97129 0.28104 0.84256
 C537 C 0.97261 0.31994 0.83119
 N538 N 0.95353 0.31929 0.82106
 N539 N 0.94520 0.33673 0.81128
 C540 C 0.95560 0.35557 0.81118
 N541 N 0.97475 0.35617 0.82115
 N542 N 0.98306 0.33874 0.83095
 C543 C 0.94603 0.37519 0.80091
 C544 C 0.95718 0.39446 0.80012
 C545 C 0.94791 0.41308 0.79097
 C546 C 0.92727 0.41288 0.78240
 C547 C 0.91619 0.39358 0.78308
 C548 C 0.92546 0.37496 0.79218
 H549 H 1.00818 0.31749 0.85629
 H550 H 1.02152 0.28719 0.87761
 H551 H 0.97071 0.24856 0.85462
 H552 H 0.95699 0.27920 0.83317
 H553 H 0.97308 0.39522 0.80662
 H554 H 0.95697 0.42761 0.79046
 H555 H 0.90013 0.39293 0.77695
 H556 H 0.91636 0.36046 0.79260
 C557 C 0.02549 1.17966 0.84956
 C558 C 0.03145 1.18281 0.87105
 C559 C 0.02606 1.20183 0.88127
 C560 C 0.01429 1.21804 0.87044
 C561 C 0.00888 1.21535 0.84877
 C562 C 0.01440 1.19628 0.83840
 C563 C 0.03084 1.15907 0.83916
 N564 N 0.02825 1.15659 0.81764
 N565 N 0.03332 1.13802 0.80849
 C566 C 0.04108 1.12114 0.82051
 N567 N 0.04353 1.12363 0.84201
 N568 N 0.03853 1.14217 0.85113
 C569 C 0.04751 1.10066 0.81043
 C570 C 0.05397 1.08292 0.82336
 C571 C 0.06157 1.06410 0.81404
 C572 C 0.06296 1.06252 0.79154
 C573 C 0.05582 1.07997 0.77857
 C574 C 0.04813 1.09882 0.78791
 H575 H 0.04038 1.17058 0.88003
 H576 H 0.03123 1.20386 0.89770
 H577 H 0.00032 1.22780 0.83983
 H578 H 0.00979 1.19448 0.82176
 H579 H 0.05361 1.08370 0.84076
 H580 H 0.06718 1.05108 0.82450
 H581 H 0.05646 1.07914 0.76118
 H582 H 0.04320 1.11213 0.77747
 C583 C 0.52838 0.69247 0.34004
 C584 C 0.54208 0.70236 0.35447
 C585 C 0.53480 0.71940 0.36691
 C586 C 0.51359 0.72653 0.36549
 C587 C 0.50018 0.71746 0.35033
 C588 C 0.50751 0.70060 0.33765
 C589 C 0.53550 0.67308 0.32850
 N590 N 0.52479 0.66627 0.31102
 N591 N 0.53072 0.64825 0.30132
 C592 C 0.54746 0.63619 0.30887
 N593 N 0.55818 0.64305 0.32629
 N594 N 0.55236 0.66113 0.33587
 C595 C 0.55383 0.61588 0.29855
 C596 C 0.56600 0.60035 0.31005
 C597 C 0.57244 0.58132 0.30034
 C598 C 0.56715 0.57754 0.27882
 C599 C 0.55487 0.59296 0.26731
 C600 C 0.54808 0.61188 0.27716
 H601 H 0.55837 0.69672 0.35638
 H602 H 0.54570 0.72654 0.37792
 H603 H 0.48379 0.72292 0.34883
 H604 H 0.49659 0.69340 0.32661
 H605 H 0.57057 0.60290 0.32659
 H606 H 0.58211 0.56979 0.30947
 H607 H 0.55059 0.59038 0.25069
 H608 H 0.53874 0.62357 0.26789
 C609 C 0.52446 0.30861 0.14972
 C610 C 0.50458 0.29975 0.15432
 C611 C 0.49843 0.28091 0.14436
 C612 C 0.51216 0.27056 0.12994
 C613 C 0.53209 0.27918 0.12567
 C614 C 0.53819 0.29793 0.13545
 C615 C 0.53093 0.32914 0.15903
 N616 N 0.54842 0.33905 0.15138
 N617 N 0.55450 0.35749 0.15943
 C618 C 0.54339 0.36690 0.17553
 N619 N 0.52584 0.35703 0.18326
 N620 N 0.51969 0.33855 0.17512
 C621 C 0.55083 0.38717 0.18464
 C622 C 0.54235 0.39524 0.20387
 C623 C 0.55075 0.41356 0.21303
 C624 C 0.56775 0.42411 0.20309
 C625 C 0.57558 0.41651 0.18344
 C626 C 0.56728 0.39827 0.17437
 H627 H 0.49361 0.30761 0.16518
 H628 H 0.48284 0.27463 0.14761
 H629 H 0.54290 0.27185 0.11433
 H630 H 0.55363 0.30420 0.13155
 H631 H 0.52965 0.38708 0.21217
 H632 H 0.54444 0.41902 0.22823
 H633 H 0.58833 0.42457 0.17512
 H634 H 0.57402 0.39273 0.15939
 C635 C 0.02154 0.79808 0.66560
 C636 C 0.00438 0.80074 0.65123
 C637 C -0.00124 0.78417 0.63773
 C638 C 0.01029 0.76471 0.63819
 C639 C 0.02673 0.76158 0.65320
 C640 C 0.03240 0.77814 0.66672
 C641 C 0.02858 0.81626 0.67863
 N642 N 0.04541 0.81393 0.69222
 N643 N 0.05248 0.83057 0.70298
 C644 C 0.04304 0.85027 0.70060
 N645 N 0.02608 0.85254 0.68718
 N646 N 0.01900 0.83590 0.67644
 C647 C 0.05173 0.86907 0.71154
 C648 C 0.04298 0.88973 0.70767
 C649 C 0.05212 0.90763 0.71674
 C650 C 0.07021 0.90531 0.72991
 C651 C 0.07856 0.88461 0.73430
 C652 C 0.06945 0.86671 0.72522
 H653 H -0.00454 0.81575 0.65013
 H654 H -0.01446 0.78680 0.62684
 H655 H 0.03556 0.74649 0.65406
 H656 H 0.04557 0.77544 0.67772
 H657 H 0.02935 0.89217 0.69722
 H658 H 0.04543 0.92337 0.71284
 H659 H 0.09228 0.88225 0.74466
 H660 H 0.07653 0.85104 0.72867
 C661 C 0.98442 0.68290 0.65989
 C662 C 0.97387 0.70283 0.66223
 C663 C 0.98023 0.72079 0.65031
 C664 C 0.99714 0.71917 0.63576
 C665 C 1.00823 0.69958 0.63393
 C666 C 1.00188 0.68157 0.64582
 C667 C 0.97673 0.66353 0.67144
 N668 N 0.98599 0.64397 0.66828
 N669 N 0.97834 0.62644 0.67783
 C670 C 0.96112 0.62774 0.69094
 N671 N 0.95202 0.64733 0.69426
 N672 N 0.95965 0.66483 0.68472
 C673 C 0.95172 0.60819 0.70057
 C674 C 0.93317 0.60979 0.71307
 C675 C 0.92328 0.59141 0.72083
 C676 C 0.93170 0.57096 0.71636
 C677 C 0.95066 0.56928 0.70454
 C678 C 0.96054 0.58772 0.69666
 H679 H 0.96044 0.70451 0.67299
 H680 H 0.97165 0.73588 0.65213
 H681 H 1.02164 0.69801 0.62318
 H682 H 1.01049 0.66654 0.64375
 H683 H 0.92599 0.62525 0.71655
 H684 H 0.90889 0.59319 0.73023
 H685 H 0.95744 0.55371 0.70079
 H686 H 0.97484 0.58589 0.68714
 C687 C 0.48386 0.18691 0.15549
 C688 C 0.48453 0.18675 0.13287
 C689 C 0.49064 0.20480 0.12113
 C690 C 0.49605 0.22351 0.13165
 C691 C 0.49599 0.22376 0.15421
 C692 C 0.48991 0.20554 0.16610
 C693 C 0.47617 0.16785 0.16755
 N694 N 0.47766 0.16613 0.18936
 N695 N 0.47007 0.14910 0.19992
 C696 C 0.46061 0.13320 0.18908
 N697 N 0.45925 0.13494 0.16731
 N698 N 0.46689 0.15184 0.15679
 C699 C 0.45110 0.11471 0.20055
 C700 C 0.43655 0.10199 0.18976
 C701 C 0.42670 0.08510 0.20048
 C702 C 0.43134 0.08031 0.22216
 C703 C 0.44631 0.09255 0.23290
 C704 C 0.45599 0.10976 0.22222
 H705 H 0.48017 0.17268 0.12413
 H706 H 0.49085 0.20425 0.10371
 H707 H 0.50045 0.23797 0.16262
 H708 H 0.48963 0.20615 0.18350
 H709 H 0.43238 0.10533 0.17309
 H710 H 0.41534 0.07575 0.19183
 H711 H 0.45006 0.08915 0.24966
 H712 H 0.46721 0.11921 0.23092
 C713 C 0.34351 0.48658 -0.18632
 C714 C 0.33358 0.48785 -0.20662
 C715 C 0.34463 0.49533 -0.22473
 C716 C 0.36584 0.50126 -0.22285
 C717 C 0.37580 0.49993 -0.20268
 C718 C 0.36471 0.49283 -0.18454
 C719 C 0.33207 0.47841 -0.16714
 N720 N 0.33904 0.48262 -0.14700
 N721 N 0.32915 0.47475 -0.12970
 C722 C 0.31198 0.46222 -0.13184
 N723 N 0.30496 0.45808 -0.15199
 N724 N 0.31475 0.46608 -0.16928
 C725 C 0.30159 0.45268 -0.11267
 C726 C 0.28917 0.43445 -0.11463
 C727 C 0.28010 0.42479 -0.09647
 C728 C 0.28288 0.43334 -0.07589
 C729 C 0.29504 0.45183 -0.07401
 C730 C 0.30442 0.46129 -0.09217
 H731 H 0.31723 0.48321 -0.20847
 H732 H 0.33662 0.49629 -0.24013
 H733 H 0.39221 0.50439 -0.20094
 H734 H 0.37286 0.49190 -0.16919
 H735 H 0.28689 0.42728 -0.13017
 H736 H 0.27131 0.41029 -0.09858
 H737 H 0.29725 0.45910 -0.05852
 H738 H 0.31380 0.47544 -0.09018
 C739 C 0.84573 0.97451 0.30670
 C740 C 0.83578 0.97614 0.28643
 C741 C 0.84655 0.98471 0.26861
 C742 C 0.86751 0.99138 0.27076
 C743 C 0.87756 0.98947 0.29086
 C744 C 0.86674 0.98127 0.30869
 C745 C 0.83439 0.96591 0.32577
 N746 N 0.84122 0.97015 0.34595
 N747 N 0.83131 0.96223 0.36319
 C748 C 0.81421 0.94962 0.36098
 N749 N 0.80734 0.94537 0.34080
 N750 N 0.81718 0.95343 0.32354
 C751 C 0.80371 0.94026 0.38021
 C752 C 0.79117 0.92208 0.37848
 C753 C 0.78224 0.91255 0.39683
 C754 C 0.78537 0.92118 0.41732
 C755 C 0.79747 0.93974 0.41890
 C756 C 0.80666 0.94906 0.40060
 H757 H 0.81958 0.97111 0.28442
 H758 H 0.83849 0.98610 0.25325
 H759 H 0.89376 0.99453 0.29281
 H760 H 0.87491 0.98009 0.32403
 H761 H 0.78873 0.91483 0.36301
 H762 H 0.77337 0.89807 0.39496
 H763 H 0.79986 0.94712 0.43430
 H764 H 0.81606 0.96322 0.40242
 C765 C 0.84051 0.02502 1.18848
 C766 C 0.84831 0.04020 1.20269
 C767 C 0.86021 0.03372 1.22070
 C768 C 0.86430 0.01193 1.22514
 C769 C 0.85607 -0.00337 1.21140
 C770 C 0.84434 0.00311 1.19313
 C771 C 0.82915 0.03229 1.16863
 N772 N 0.82567 0.01867 1.15227
 N773 N 0.81640 0.02568 1.13405
 C774 C 0.81019 0.04658 1.13148
 N775 N 0.81350 0.06008 1.14793
 N776 N 0.82281 0.05311 1.16606
 C777 C 0.80049 0.05480 1.11106
 C778 C 0.79229 0.07591 1.10968
 C779 C 0.78377 0.08414 1.09041
 C780 C 0.78326 0.07152 1.07197
 C781 C 0.79137 0.05037 1.07328
 C782 C 0.79982 0.04205 1.09267
 H783 H 0.84574 0.05720 1.19962
 H784 H 0.86646 0.04593 1.23085
 H785 H 0.85918 -0.02028 1.21449
 H786 H 0.83850 -0.00899 1.18255
 H787 H 0.79255 0.08623 1.12347
 H788 H 0.77797 0.10060 1.08984
 H789 H 0.79106 0.04024 1.05934
 H790 H 0.80604 0.02573 1.09317
 C791 C 0.33967 0.53045 0.69347
 C792 C 0.34900 0.54616 0.70604
 C793 C 0.36107 0.54036 0.72416
 C794 C 0.36378 0.51876 0.73034
 C795 C 0.35422 0.50300 0.71811
 C796 C 0.34232 0.50877 0.69975
 C797 C 0.32779 0.53687 0.67367
 N798 N 0.32315 0.52237 0.65844
 N799 N 0.31330 0.52853 0.64025
 C800 C 0.30761 0.54944 0.63661
 N801 N 0.31209 0.56383 0.65195
 N802 N 0.32199 0.55770 0.67004
 C803 C 0.29728 0.55670 0.61619
 C804 C 0.28911 0.57777 0.61405
 C805 C 0.28017 0.58517 0.59466
 C806 C 0.27920 0.57173 0.57685
 C807 C 0.28720 0.55058 0.57894
 C808 C 0.29606 0.54309 0.59847
 H809 H 0.34741 0.56299 0.70163
 H810 H 0.36843 0.55287 0.73306
 H811 H 0.35628 0.48621 0.72255
 H812 H 0.33529 0.49629 0.69044
 H813 H 0.28977 0.58871 0.62732
 H814 H 0.27448 0.60165 0.59347
 H815 H 0.28656 0.53985 0.56550
 H816 H 0.30224 0.52678 0.59957
 C817 C 0.15595 0.52263 0.30515
 C818 C 0.15676 0.53403 0.28538
 C819 C 0.14362 0.52863 0.26827
 C820 C 0.12953 0.51167 0.27053
 C821 C 0.12893 0.50006 0.29009
 C822 C 0.14202 0.50544 0.30720
 C823 C 0.16881 0.52917 0.32380
 N824 N 0.16644 0.51952 0.34344
 N825 N 0.17718 0.52609 0.36047
 C826 C 0.19079 0.54258 0.35857
 N827 N 0.19334 0.55207 0.33888
 N828 N 0.18258 0.54552 0.32186
 C829 C 0.20175 0.55081 0.37775
 C830 C 0.21591 0.56779 0.37559
 C831 C 0.22492 0.57677 0.39375
 C832 C 0.21996 0.56903 0.41453
 C833 C 0.20644 0.55153 0.41669
 C834 C 0.19743 0.54251 0.39850
 H835 H 0.16722 0.54743 0.28324
 H836 H 0.14412 0.53801 0.25342
 H837 H 0.11809 0.48705 0.29246
 H838 H 0.14093 0.49632 0.32217
 H839 H 0.21977 0.57446 0.35988
 H840 H 0.23559 0.58998 0.39154
 H841 H 0.20219 0.54532 0.43248
 H842 H 0.18662 0.52942 0.40076
 C843 C 0.66801 0.01804 0.79959
 C844 C 0.66929 0.02950 0.77991
 C845 C 0.65627 0.02448 0.76261
 C846 C 0.64163 0.00799 0.76461
 C847 C 0.64106 -0.00418 0.78385
 C848 C 0.65401 0.00087 0.80122
 C849 C 0.68049 0.02457 0.81851
 N850 N 0.67741 0.01529 0.83822
 N851 N 0.68760 0.02215 0.85547
 C852 C 0.70134 0.03855 0.85375
 N853 N 0.70462 0.04762 0.83398
 N854 N 0.69442 0.04079 0.81675
 C855 C 0.71148 0.04732 0.87313
 C856 C 0.72530 0.06462 0.87114
 C857 C 0.73331 0.07427 0.88942
 C858 C 0.72772 0.06688 0.91013
 C859 C 0.71463 0.04903 0.91217
 C860 C 0.70658 0.03936 0.89386
 H861 H 0.68006 0.04268 0.77796
 H862 H 0.65755 0.03372 0.74780
 H863 H 0.63058 -0.01755 0.78567
 H864 H 0.65283 -0.00854 0.81600
 H865 H 0.72959 0.07106 0.85545
 H866 H 0.74367 0.08776 0.88734
 H867 H 0.70993 0.04307 0.92792
 H868 H 0.69602 0.02604 0.89599
 C869 C 0.66103 0.97869 0.68216
 C870 C 0.63999 0.98649 0.68002
 C871 C 0.62870 0.99352 0.69799
 C872 C 0.63829 0.99312 0.71834
 C873 C 0.65926 0.98547 0.72060
 C874 C 0.67052 0.97822 0.70267
 C875 C 0.67282 0.97072 0.66319
 N876 N 0.69123 0.95918 0.66570
 N877 N 0.70149 0.95144 0.64869
 C878 C 0.69386 0.95502 0.62844
 N879 N 0.67556 0.96673 0.62592
 N880 N 0.66525 0.97440 0.64293
 C881 C 0.70470 0.94548 0.60964
 C882 C 0.69889 0.95178 0.58852
 C883 C 0.70810 0.94167 0.57082
 C884 C 0.72311 0.92491 0.57390
 C885 C 0.72936 0.91903 0.59495
 C886 C 0.72034 0.92928 0.61263
 H887 H 0.63215 0.98693 0.66450
 H888 H 0.61246 0.99930 0.69600
 H889 H 0.66691 0.98489 0.73621
 H890 H 0.68668 0.97231 0.70489
 H891 H 0.68698 0.96429 0.58567
 H892 H 0.70292 0.94641 0.55475
 H893 H 0.74106 0.90629 0.59773
 H894 H 0.72522 0.92406 0.62865
 C895 C 0.14582 0.48473 0.18512
 C896 C 0.12385 0.48223 0.18770
 C897 C 0.11365 0.48879 0.20645
 C898 C 0.12508 0.49815 0.22302
 C899 C 0.14704 0.50059 0.22062
 C900 C 0.15731 0.49409 0.20177
 C901 C 0.15662 0.47682 0.16551
 N902 N 0.17759 0.48019 0.16196
 N903 N 0.18726 0.47241 0.14459
 C904 C 0.17637 0.46089 0.13010
 N905 N 0.15541 0.45767 0.13361
 N906 N 0.14575 0.46548 0.15090
 C907 C 0.18714 0.45132 0.11124
 C908 C 0.17666 0.43614 0.09894
 C909 C 0.18693 0.42625 0.08179
 C910 C 0.20786 0.43138 0.07637
 C911 C 0.21823 0.44695 0.08824
 C912 C 0.20800 0.45674 0.10562
 H913 H 0.11449 0.47491 0.17535
 H914 H 0.09689 0.48589 0.20819
 H915 H 0.15642 0.50719 0.23330
 H916 H 0.17429 0.49604 0.20042
 H917 H 0.16059 0.43159 0.10277
 H918 H 0.17848 0.41450 0.07272
 H919 H 0.23441 0.45112 0.08441
 H920 H 0.21649 0.46842 0.11472
 C921 C -0.19833 0.34017 0.48155
 C922 C -0.19777 0.35229 0.50035
 C923 C -0.21576 0.36384 0.50706
 C924 C -0.23463 0.36360 0.49508
 C925 C -0.23560 0.35056 0.47704
 C926 C -0.21763 0.33900 0.47029
 C927 C -0.17873 0.32976 0.47309
 N928 N -0.17896 0.31961 0.45397
 N929 N -0.16117 0.31134 0.44569
 C930 C -0.14234 0.31287 0.45613
 N931 N -0.14211 0.32284 0.47536
 N932 N -0.15992 0.33114 0.48364
 C933 C -0.12248 0.30426 0.44640
 C934 C -0.10302 0.30473 0.45749
 C935 C -0.08435 0.29674 0.44805
 C936 C -0.08475 0.28810 0.42734
 C937 C -0.10418 0.28782 0.41623
 C938 C -0.12279 0.29573 0.42565
 H939 H -0.18328 0.35334 0.50960
 H940 H -0.21465 0.37328 0.52139
 H941 H -0.25002 0.34969 0.46774
 H942 H -0.21876 0.32959 0.45590
 H943 H -0.10220 0.31120 0.47351
 H944 H -0.06966 0.29702 0.45708
 H945 H -0.10499 0.28169 0.40008
 H946 H -0.13741 0.29528 0.41653
 C947 C 0.32035 0.84414 0.99412
 C948 C 0.32147 0.86559 1.00030
 C949 C 0.30324 0.87680 1.00675
 C950 C 0.28363 0.86668 1.00759
 C951 C 0.28248 0.84508 1.00215
 C952 C 0.30069 0.83392 0.99527
 C953 C 0.33941 0.83297 0.98554
 N954 N 0.33751 0.81591 0.97253
 N955 N 0.35460 0.80681 0.96360
 C956 C 0.37430 0.81431 0.96741
 N957 N 0.37622 0.83116 0.98069
 N958 N 0.35912 0.84035 0.98949
 C959 C 0.39315 0.80500 0.95654
 C960 C 0.41370 0.80833 0.96442
 C961 C 0.43151 0.80017 0.95361
 C962 C 0.42919 0.78876 0.93449
 C963 C 0.40857 0.78546 0.92668
 C964 C 0.39079 0.79331 0.93766
 H965 H 0.33633 0.87397 0.99947
 H966 H 0.30441 0.89353 1.01076
 H967 H 0.26752 0.83694 1.00271
 H968 H 0.29937 0.81736 0.99070
 H969 H 0.41601 0.81717 0.97902
 H970 H 0.44708 0.80272 0.96032
 H971 H 0.40609 0.77721 0.91176
 H972 H 0.37519 0.79069 0.93103
 C973 C 1.19944 0.84323 0.03134
 C974 C 1.20787 0.84320 0.01037
 C975 C 1.22620 0.85463 0.00549
 C976 C 1.23626 0.86635 0.02142
 C977 C 1.22770 0.86657 0.04224
 C978 C 1.20965 0.85496 0.04721
 C979 C 1.17990 0.83157 0.03686
 N980 N 1.17499 0.82747 0.05779
 N981 N 1.15714 0.81770 0.06309
 C982 C 1.14333 0.81167 0.04770
 N983 N 1.14825 0.81567 0.02670
 N984 N 1.16622 0.82538 0.02138
 C985 C 1.12317 0.80148 0.05400
 C986 C 1.10644 0.79953 0.03921
 C987 C 1.08707 0.79095 0.04582
 C988 C 1.08420 0.78393 0.06727
 C989 C 1.10107 0.78558 0.08188
 C990 C 1.12026 0.79425 0.07535
 H991 H 1.20032 0.83436 -0.00222
 H992 H 1.23234 0.85458 -0.01080
 H993 H 1.23461 0.87592 0.05475
 H994 H 1.20343 0.85558 0.06345
 H995 H 1.10817 0.80500 0.02265
 H996 H 1.07435 0.78980 0.03421
 H997 H 1.09924 0.78066 0.09859
 H998 H 1.13278 0.79547 0.08718
 C999 C 0.68084 0.34641 0.52194
 C1000 C 0.69981 0.33447 0.51882
 C1001 C 0.71861 0.34481 0.51319
 C1002 C 0.71864 0.36715 0.51064
 C1003 C 0.69983 0.37904 0.51378
 C1004 C 0.68116 0.36883 0.51942
 C1005 C 0.66073 0.33586 0.52780
 N1006 N 0.64301 0.34789 0.53185
 N1007 N 0.62490 0.33872 0.53736
 C1008 C 0.62364 0.31709 0.53900
 N1009 N 0.64133 0.30497 0.53485
 N1010 N 0.65951 0.31417 0.52935
 C1011 C 0.60357 0.30714 0.54601
 C1012 C 0.60147 0.28477 0.54661
 C1013 C 0.58290 0.27557 0.55455
 C1014 C 0.56608 0.28855 0.56216
 C1015 C 0.56800 0.31093 0.56096
 C1016 C 0.58644 0.32009 0.55292
 H1017 H 0.70012 0.31718 0.52067
 H1018 H 0.73298 0.33536 0.51071
 H1019 H 0.69955 0.39632 0.51172
 H1020 H 0.66693 0.37858 0.52165
 H1021 H 0.61428 0.27433 0.54122
 H1022 H 0.58183 0.25829 0.55495
 H1023 H 0.55557 0.32143 0.56703
 H1024 H 0.58747 0.33738 0.55273
 C1025 C 0.29888 0.16454 0.53582
 C1026 C 0.28835 0.15059 0.55009
 C1027 C 0.27116 0.13888 0.54318
 C1028 C 0.26392 0.14096 0.52190
 C1029 C 0.27406 0.15508 0.50761
 C1030 C 0.29142 0.16682 0.51450
 C1031 C 0.31789 0.17593 0.54321
 N1032 N 0.32902 0.18885 0.52964
 N1033 N 0.34645 0.19845 0.53640
 C1034 C 0.35346 0.19549 0.55699
 N1035 N 0.34224 0.18266 0.57050
 N1036 N 0.32488 0.17311 0.56377
 C1037 C 0.37302 0.20569 0.56469
 C1038 C 0.38027 0.20151 0.58581
 C1039 C 0.39868 0.21082 0.59332
 C1040 C 0.41036 0.22467 0.57998
 C1041 C 0.40324 0.22884 0.55880
 C1042 C 0.38474 0.21946 0.55123
 H1043 H 0.29363 0.14835 0.56660
 H1044 H 0.26392 0.12787 0.55450
 H1045 H 0.26881 0.15671 0.49104
 H1046 H 0.29915 0.17740 0.50308
 H1047 H 0.37179 0.19090 0.59662
 H1048 H 0.40394 0.20690 0.60955
 H1049 H 0.41181 0.23956 0.54818
 H1050 H 0.37961 0.22303 0.53489
 C1051 C 0.81717 0.65717 0.01756
 C1052 C 0.80917 0.64063 0.03072
 C1053 C 0.79087 0.63006 0.02496
 C1054 C 0.77996 0.63583 0.00600
 C1055 C 0.78793 0.65210 -0.00744
 C1056 C 0.80633 0.66284 -0.00162
 C1057 C 0.83679 0.66803 0.02410
 N1058 N 0.84439 0.68509 0.01278
 N1059 N 0.86190 0.69479 0.01922
 C1060 C 0.87250 0.68777 0.03720
 N1061 N 0.86490 0.67068 0.04835
 N1062 N 0.84748 0.66104 0.04196
 C1063 C 0.89157 0.69868 0.04515
 C1064 C 0.90156 0.69111 0.06416
 C1065 C 0.91873 0.70172 0.07267
 C1066 C 0.92647 0.72020 0.06243
 C1067 C 0.91708 0.72749 0.04302
 C1068 C 0.89969 0.71686 0.03448
 H1069 H 0.81710 0.63565 0.04553
 H1070 H 0.78561 0.61707 0.03528
 H1071 H 0.77999 0.65641 -0.02243
 H1072 H 0.81215 0.67540 -0.01221
 H1073 H 0.89595 0.67707 0.07276
 H1074 H 0.92594 0.69550 0.08743
 H1075 H 0.92279 0.74171 0.03482
 H1076 H 0.89241 0.72306 0.01976
 C1077 C 0.69460 0.65927 0.97893
 C1078 C 0.71277 0.67046 0.98493
 C1079 C 0.73149 0.65924 0.99096
 C1080 C 0.73218 0.63679 0.99100
 C1081 C 0.71395 0.62569 0.98563
 C1082 C 0.69541 0.63676 0.97958
 C1083 C 0.67495 0.67059 0.97136
 N1084 N 0.65932 0.65938 0.96209
 N1085 N 0.64179 0.66921 0.95466
 C1086 C 0.63903 0.69072 0.95624
 N1087 N 0.65457 0.70203 0.96568
 N1088 N 0.67222 0.69216 0.97306
 C1089 C 0.61974 0.70142 0.94705
 C1090 C 0.61393 0.72260 0.95221
 C1091 C 0.59582 0.73249 0.94295
 C1092 C 0.58351 0.72147 0.92812
 C1093 C 0.58921 0.70030 0.92319
 C1094 C 0.60701 0.69035 0.93261
 H1095 H 0.71263 0.68780 0.98467
 H1096 H 0.74530 0.66810 0.99546
 H1097 H 0.71411 0.60833 0.98582
 H1098 H 0.68173 0.62757 0.97529
 H1099 H 0.62336 0.73150 0.96335
 H1100 H 0.59171 0.74887 0.94693
 H1101 H 0.57983 0.69141 0.91197
 H1102 H 0.61099 0.67405 0.92825
 C1103 C 0.18052 0.15946 0.48858
 C1104 C 0.18214 0.13697 0.48968
 C1105 C 0.20074 0.12671 0.49688
 C1106 C 0.21821 0.13861 0.50299
 C1107 C 0.21673 0.16104 0.50232
 C1108 C 0.19797 0.17144 0.49514
 C1109 C 0.16079 0.17000 0.48014
 N1110 N 0.15759 0.19158 0.48084
 N1111 N 0.13992 0.20078 0.47273
 C1112 C 0.12478 0.18875 0.46354
 N1113 N 0.12799 0.16721 0.46296
 N1114 N 0.14556 0.15805 0.47111
 C1115 C 0.10551 0.19874 0.45356
 C1116 C 0.09284 0.18667 0.43992
 C1117 C 0.07522 0.19602 0.42956
 C1118 C 0.06967 0.21761 0.43274
 C1119 C 0.08187 0.22962 0.44683
 C1120 C 0.09976 0.22030 0.45704
 H1121 H 0.16904 0.12720 0.48492
 H1122 H 0.20154 0.10935 0.49750
 H1123 H 0.22999 0.17050 0.50725
 H1124 H 0.19722 0.18878 0.49453
 H1125 H 0.09675 0.17003 0.43686
 H1126 H 0.06592 0.18639 0.41893
 H1127 H 0.07791 0.24633 0.44945
 H1128 H 0.10914 0.22999 0.46753
 C1129 C 0.58937 0.06719 0.71980
 C1130 C 0.61099 0.06316 0.71554
 C1131 C 0.62080 0.04388 0.72219
 C1132 C 0.60933 0.02828 0.73345
 C1133 C 0.58766 0.03203 0.73744
 C1134 C 0.57778 0.05134 0.73075
 C1135 C 0.57902 0.08766 0.71252
 N1136 N 0.55785 0.09127 0.71527
 N1137 N 0.54860 0.10957 0.70837
 C1138 C 0.56015 0.12505 0.69847
 N1139 N 0.58132 0.12146 0.69584
 N1140 N 0.59055 0.10318 0.70272
 C1141 C 0.54985 0.14516 0.69012
 C1142 C 0.56202 0.16099 0.67988
 C1143 C 0.55231 0.17947 0.67101
 C1144 C 0.53019 0.18261 0.67217
 C1145 C 0.51804 0.16702 0.68280
 C1146 C 0.52776 0.14851 0.69171
 H1147 H 0.62037 0.07483 0.70687
 H1148 H 0.63730 0.04105 0.71812
 H1149 H 0.57826 0.02013 0.74562
 H1150 H 0.56105 0.05382 0.73414
 H1151 H 0.57907 0.15898 0.67835
 H1152 H 0.56209 0.19101 0.66266
 H1153 H 0.50098 0.16910 0.68416
 H1154 H 0.51791 0.13670 0.69956
 C1155 C 1.06830 0.56564 0.22990
 C1156 C 1.08280 0.56639 0.24706
 C1157 C 1.09473 0.54815 0.25332
 C1158 C 1.09259 0.52887 0.24242
 C1159 C 1.07728 0.52775 0.22615
 C1160 C 1.06526 0.54593 0.21991
 C1161 C 1.05738 0.58547 0.22164
 N1162 N 1.04315 0.58470 0.20526
 N1163 N 1.03457 0.60262 0.19671
 C1164 C 1.03985 0.62211 0.20412
 N1165 N 1.05386 0.62287 0.22071
 N1166 N 1.06243 0.60494 0.22929
 C1167 C 1.03162 0.64207 0.19337
 C1168 C 1.03901 0.66222 0.19931
 C1169 C 1.03279 0.68080 0.18775
 C1170 C 1.01907 0.67964 0.16999
 C1171 C 1.01100 0.65964 0.16463
 C1172 C 1.01720 0.64109 0.17616
 H1173 H 1.08531 0.58120 0.25536
 H1174 H 1.10589 0.54942 0.26640
 H1175 H 1.07477 0.51296 0.21792
 H1176 H 1.05403 0.54465 0.20682
 H1177 H 1.05011 0.66359 0.21248
 H1178 H 1.03938 0.69595 0.19219
 H1179 H 1.00008 0.65829 0.15129
 H1180 H 1.01102 0.62590 0.17125
 C1181 C 0.92749 0.95144 0.21848
 C1182 C 0.91850 0.94820 0.23898
 C1183 C 0.90567 0.96408 0.24816
 C1184 C 0.90185 0.98364 0.23720
 C1185 C 0.91151 0.98735 0.21718
 C1186 C 0.92414 0.97134 0.20782
 C1187 C 0.93907 0.93366 0.20782
 N1188 N 0.94257 0.93433 0.18623
 N1189 N 0.95146 0.91763 0.17638
 C1190 C 0.95732 0.89959 0.18771
 N1191 N 0.95414 0.89907 0.20934
 N1192 N 0.94515 0.91572 0.21917
 C1193 C 0.96577 0.88043 0.17658
 C1194 C 0.97482 0.86305 0.18839
 C1195 C 0.98137 0.84436 0.17803
 C1196 C 0.97878 0.84257 0.15568
 C1197 C 0.97021 0.86011 0.14380
 C1198 C 0.96388 0.87888 0.15412
 H1199 H 0.92070 0.93306 0.24762
 H1200 H 0.89835 0.96074 0.26358
 H1201 H 0.90868 1.00234 0.20845
 H1202 H 0.93092 0.97440 0.19206
 H1203 H 0.97657 0.86375 0.20571
 H1204 H 0.98784 0.83104 0.18757
 H1205 H 0.96828 0.85924 0.12651
 H1206 H 0.95698 0.89194 0.14453
 C1207 C 0.42262 0.45401 0.72767
 C1208 C 0.41215 0.45217 0.74759
 C1209 C 0.40061 0.46950 0.75581
 C1210 C 0.39947 0.48909 0.74440
 C1211 C 0.41056 0.49135 0.72496
 C1212 C 0.42205 0.47395 0.71663
 C1213 C 0.43290 0.43488 0.71799
 N1214 N 0.44136 0.43588 0.69788
 N1215 N 0.44929 0.41832 0.68871
 C1216 C 0.44908 0.39902 0.69925
 N1217 N 0.44085 0.39810 0.71945
 N1218 N 0.43293 0.41563 0.72860
 C1219 C 0.45675 0.37924 0.68863
 C1220 C 0.45547 0.35920 0.69929
 C1221 C 0.46160 0.34040 0.68891
 C1222 C 0.46916 0.34118 0.66763
 C1223 C 0.47083 0.36123 0.65711
 C1224 C 0.46469 0.38004 0.66748
 H1225 H 0.41227 0.43712 0.75659
 H1226 H 0.39214 0.46724 0.77079
 H1227 H 0.40973 0.50634 0.71586
 H1228 H 0.42999 0.47596 0.70128
 H1229 H 0.44940 0.35795 0.71556
 H1230 H 0.45989 0.32520 0.69738
 H1231 H 0.47691 0.36240 0.64083
 H1232 H 0.46597 0.39519 0.65881
 C1233 C 0.41576 0.57102 0.77864
 C1234 C 0.39394 0.56822 0.78203
 C1235 C 0.38391 0.55034 0.77416
 C1236 C 0.39545 0.53480 0.76285
 C1237 C 0.41723 0.53739 0.75938
 C1238 C 0.42732 0.55548 0.76709
 C1239 C 0.42621 0.58990 0.78757
 N1240 N 0.44586 0.59577 0.78097
 N1241 N 0.45502 0.61282 0.78922
 C1242 C 0.44494 0.62459 0.80448
 N1243 N 0.42535 0.61867 0.81104
 N1244 N 0.41617 0.60175 0.80274
 C1245 C 0.45500 0.64335 0.81410
 C1246 C 0.44687 0.65175 0.83331
 C1247 C 0.45614 0.66935 0.84265
 C1248 C 0.47365 0.67914 0.83293
 C1249 C 0.48171 0.67098 0.81359
 C1250 C 0.47257 0.65311 0.80433
 H1251 H 0.38452 0.57988 0.79075
 H1252 H 0.36707 0.54859 0.77702
 H1253 H 0.42645 0.52549 0.75080
 H1254 H 0.44417 0.55714 0.76431
 H1255 H 0.43338 0.64463 0.84128
 H1256 H 0.44947 0.67549 0.85743
 H1257 H 0.49525 0.67824 0.80584
 H1258 H 0.47914 0.64704 0.78948
 C1259 C -0.08683 0.06433 0.27571
 C1260 C -0.07463 0.05039 0.26288
 C1261 C -0.08363 0.03201 0.25447
 C1262 C -0.10495 0.02752 0.25859
 C1263 C -0.11711 0.04138 0.27132
 C1264 C -0.10816 0.05956 0.27984
 C1265 C -0.07758 0.08370 0.28501
 N1266 N -0.08838 0.09474 0.30027
 N1267 N -0.08030 0.11213 0.30881
 C1268 C -0.06110 0.11933 0.30241
 N1269 N -0.05026 0.10835 0.28708
 N1270 N -0.05833 0.09085 0.27857
 C1271 C -0.05223 0.13859 0.31228
 C1272 C -0.03444 0.14874 0.30340
 C1273 C -0.02627 0.16692 0.31299
 C1274 C -0.03556 0.17505 0.33178
 C1275 C -0.05336 0.16495 0.34056
 C1276 C -0.06164 0.14700 0.33090
 H1277 H -0.05813 0.05357 0.25948
 H1278 H -0.07395 0.02145 0.24474
 H1279 H -0.13362 0.03816 0.27466
 H1280 H -0.11806 0.06993 0.28958
 H1281 H -0.02688 0.14270 0.28902
 H1282 H -0.01247 0.17439 0.30597
 H1283 H -0.06100 0.17106 0.35488
 H1284 H -0.07535 0.13963 0.33819
 C1285 C 0.07539 0.44347 0.26942
 C1286 C 0.09691 0.44277 0.26340
 C1287 C 0.10714 0.46140 0.25698
 C1288 C 0.09610 0.48110 0.25629
 C1289 C 0.07459 0.48201 0.26198
 C1290 C 0.06429 0.46331 0.26856
 C1291 C 0.06501 0.42362 0.27703
 N1292 N 0.04497 0.42411 0.28517
 N1293 N 0.03618 0.40626 0.29280
 C1294 C 0.04703 0.38718 0.29257
 N1295 N 0.06695 0.38672 0.28423
 N1296 N 0.07573 0.40452 0.27664
 C1297 C 0.03795 0.36744 0.30215
 C1298 C 0.04990 0.34813 0.30244
 C1299 C 0.04232 0.32990 0.31299
 C1300 C 0.02257 0.33047 0.32346
 C1301 C 0.01018 0.34947 0.32248
 C1302 C 0.01781 0.36781 0.31196
 H1303 H 0.10602 0.42785 0.26390
 H1304 H 0.12380 0.46043 0.25271
 H1305 H 0.06583 0.49713 0.26166
 H1306 H 0.04771 0.46443 0.27310
 H1307 H 0.06538 0.34716 0.29491
 H1308 H 0.05205 0.31537 0.31318
 H1309 H -0.00505 0.35039 0.33052
 H1310 H 0.00817 0.38239 0.31199
 C1311 C 0.57786 0.94908 0.76678
 C1312 C 0.57861 0.96884 0.77719
 C1313 C 0.59134 0.98518 0.76911
 C1314 C 0.60372 0.98203 0.75065
 C1315 C 0.60244 0.96265 0.73977
 C1316 C 0.58953 0.94635 0.74769
 C1317 C 0.56622 0.93099 0.77662
 N1318 N 0.56260 0.91298 0.76539
 N1319 N 0.55354 0.89613 0.77483
 C1320 C 0.54784 0.89656 0.79592
 N1321 N 0.55122 0.91465 0.80705
 N1322 N 0.56017 0.93152 0.79760
 C1323 C 0.53949 0.87726 0.80698
 C1324 C 0.54044 0.87532 0.82955
 C1325 C 0.53433 0.85647 0.84005
 C1326 C 0.52679 0.83929 0.82827
 C1327 C 0.52502 0.84143 0.80579
 C1328 C 0.53152 0.86020 0.79520
 H1329 H 0.56975 0.97152 0.79186
 H1330 H 0.59218 1.00000 0.77779
 H1331 H 0.61183 0.95976 0.72550
 H1332 H 0.58934 0.93133 0.73930
 H1333 H 0.54654 0.88812 0.83911
 H1334 H 0.53565 0.85522 0.85743
 H1335 H 0.51929 0.82833 0.79640
 H1336 H 0.53052 0.86126 0.77780
 C1337 C 0.73221 0.58234 0.05860
 C1338 C 0.73707 0.57131 0.03962
 C1339 C 0.74466 0.58237 0.02142
 C1340 C 0.74728 0.60458 0.02197
 C1341 C 0.74215 0.61560 0.04073
 C1342 C 0.73495 0.60460 0.05895
 C1343 C 0.72375 0.57109 0.07787
 N1344 N 0.72387 0.58066 0.09730
 N1345 N 0.71526 0.57126 0.11451
 C1346 C 0.70606 0.55190 0.11304
 N1347 N 0.70611 0.54219 0.09364
 N1348 N 0.71484 0.55156 0.07641
 C1349 C 0.69518 0.54232 0.13193
 C1350 C 0.68091 0.52556 0.12943
 C1351 C 0.66918 0.51797 0.14699
 C1352 C 0.67167 0.52678 0.16744
 C1353 C 0.68649 0.54295 0.17013
 C1354 C 0.69805 0.55071 0.15254
 H1355 H 0.73503 0.55417 0.03886
 H1356 H 0.74814 0.57364 0.00693
 H1357 H 0.74379 0.63282 0.04133
 H1358 H 0.73113 0.61364 0.07318
 H1359 H 0.67835 0.51874 0.11378
 H1360 H 0.65800 0.50532 0.14456
 H1361 H 0.68861 0.55011 0.18569
 H1362 H 0.70897 0.56356 0.15505
 C1363 C 0.21555 1.08358 0.57017
 C1364 C 0.21275 1.10594 0.56867
 C1365 C 0.22124 1.11751 0.55144
 C1366 C 0.23255 1.10701 0.53521
 C1367 C 0.23542 1.08468 0.53647
 C1368 C 0.22714 1.07303 0.55399
 C1369 C 0.20597 1.07163 0.58842
 N1370 N 0.21319 1.05172 0.59448
 N1371 N 0.20461 1.04140 0.61126
 C1372 C 0.18838 1.05054 0.62253
 N1373 N 0.18114 1.07035 0.61634
 N1374 N 0.18978 1.08069 0.59971
 C1375 C 0.17874 1.03944 0.64129
 C1376 C 0.15869 1.04622 0.64876
 C1377 C 0.14962 1.03641 0.66681
 C1378 C 0.16047 1.01972 0.67796
 C1379 C 0.18052 1.01285 0.67056
 C1380 C 0.18951 1.02250 0.65224
 H1381 H 0.20403 1.11459 0.58090
 H1382 H 0.21883 1.13474 0.55072
 H1383 H 0.24389 1.07624 0.52398
 H1384 H 0.22943 1.05579 0.55467
 H1385 H 0.14993 1.05917 0.64067
 H1386 H 0.13424 1.04216 0.67231
 H1387 H 0.18914 0.99993 0.67885
 H1388 H 0.20502 1.01698 0.64690
 C1389 C 0.23587 0.91977 0.95257
 C1390 C 0.25396 0.90623 0.95190
 C1391 C 0.26182 0.89627 0.97066
 C1392 C 0.25167 0.89951 0.99045
 C1393 C 0.23398 0.91348 0.99136
 C1394 C 0.22624 0.92373 0.97258
 C1395 C 0.22642 0.92846 0.93231
 N1396 N 0.21287 0.94571 0.93229
 N1397 N 0.20373 0.95281 0.91405
 C1398 C 0.20762 0.94283 0.89517
 N1399 N 0.22120 0.92564 0.89521
 N1400 N 0.23046 0.91866 0.91338
 C1401 C 0.19667 0.94995 0.87511
 C1402 C 0.19380 0.93555 0.85835
 C1403 C 0.18246 0.94184 0.83985
 C1404 C 0.17403 0.96282 0.83749
 C1405 C 0.17752 0.97740 0.85406
 C1406 C 0.18851 0.97097 0.87274
 H1407 H 0.26179 0.90295 0.93676
 H1408 H 0.27535 0.88540 0.96940
 H1409 H 0.22575 0.91592 1.00646
 H1410 H 0.21219 0.93398 0.97359
 H1411 H 0.19977 0.91917 0.85980
 H1412 H 0.17981 0.93002 0.82770
 H1413 H 0.17175 0.99383 0.85266
 H1414 H 0.19070 0.98249 0.88530
 C1415 C 0.71620 0.41697 0.43974
 C1416 C 0.71273 0.39514 0.44390
 C1417 C 0.72129 0.38493 0.46214
 C1418 C 0.73345 0.39623 0.47676
 C1419 C 0.73707 0.41805 0.47274
 C1420 C 0.72869 0.42832 0.45419
 C1421 C 0.70611 0.42758 0.42069
 N1422 N 0.71344 0.44623 0.41215
 N1423 N 0.70435 0.45522 0.39466
 C1424 C 0.68748 0.44600 0.38518
 N1425 N 0.68013 0.42749 0.39388
 N1426 N 0.68925 0.41847 0.41120
 C1427 C 0.67744 0.45535 0.36546
 C1428 C 0.65759 0.44809 0.35883
 C1429 C 0.64846 0.45560 0.33960
 C1430 C 0.65900 0.47046 0.32636
 C1431 C 0.67859 0.47824 0.33324
 C1432 C 0.68772 0.47078 0.35265
 H1433 H 0.70323 0.38590 0.43311
 H1434 H 0.71778 0.36823 0.46508
 H1435 H 0.74605 0.42727 0.48393
 H1436 H 0.73149 0.44521 0.45146
 H1437 H 0.64907 0.43645 0.36845
 H1438 H 0.63309 0.44972 0.33509
 H1439 H 0.68714 0.48963 0.32334
 H1440 H 0.70306 0.47665 0.35731
 C1441 C 0.76545 0.42387 0.55847
 C1442 C 0.74789 0.41058 0.56105
 C1443 C 0.74054 0.39875 0.54388
 C1444 C 0.75045 0.40006 0.52370
 C1445 C 0.76756 0.41379 0.52082
 C1446 C 0.77499 0.42565 0.53803
 C1447 C 0.77451 0.43459 0.57735
 N1448 N 0.79192 0.44693 0.57532
 N1449 N 0.80085 0.45531 0.59257
 C1450 C 0.79279 0.45170 0.61259
 N1451 N 0.77524 0.43959 0.61457
 N1452 N 0.76630 0.43124 0.59734
 C1453 C 0.80356 0.45975 0.63195
 C1454 C 0.79661 0.45382 0.65271
 C1455 C 0.80770 0.46006 0.67095
 C1456 C 0.82597 0.47243 0.66886
 C1457 C 0.83253 0.47892 0.64813
 C1458 C 0.82149 0.47262 0.62989
 H1459 H 0.74014 0.40878 0.57653
 H1460 H 0.72756 0.38805 0.54678
 H1461 H 0.77573 0.41471 0.50550
 H1462 H 0.78860 0.43567 0.53548
 H1463 H 0.78288 0.44389 0.65491
 H1464 H 0.80234 0.45462 0.68666
 H1465 H 0.84631 0.48879 0.64598
 H1466 H 0.82720 0.47763 0.61417
 C1467 C 0.27909 -0.07856 0.07483
 C1468 C 0.28031 -0.10106 0.07485
 C1469 C 0.27475 -0.11221 0.05657
 C1470 C 0.26737 -0.10119 0.03807
 C1471 C 0.26644 -0.07874 0.03774
 C1472 C 0.27234 -0.06747 0.05600
 C1473 C 0.28511 -0.06699 0.09439
 N1474 N 0.29044 -0.04603 0.09331
 N1475 N 0.29673 -0.03604 0.11088
 C1476 C 0.29774 -0.04654 0.13027
 N1477 N 0.29213 -0.06739 0.13136
 N1478 N 0.28598 -0.07740 0.11380
 C1479 C 0.30602 -0.03601 0.14960
 C1480 C 0.30338 -0.04543 0.17018
 C1481 C 0.31295 -0.03672 0.18820
 C1482 C 0.32555 -0.01856 0.18597
 C1483 C 0.32759 -0.00868 0.16556
 C1484 C 0.31780 -0.01723 0.14757
 H1485 H 0.28575 -0.11009 0.08895
 H1486 H 0.27594 -0.12956 0.05696
 H1487 H 0.26120 -0.06990 0.02347
 H1488 H 0.27138 -0.05013 0.05546
 H1489 H 0.29430 -0.05984 0.17231
 H1490 H 0.31127 -0.04473 0.20373
 H1491 H 0.33711 0.00544 0.16348
 H1492 H 0.32013 -0.00957 0.13197
 C1493 C 0.27139 0.08682 0.45386
 C1494 C 0.27981 0.08338 0.47468
 C1495 C 0.27091 0.09401 0.49231
 C1496 C 0.25332 0.10794 0.48943
 C1497 C 0.24483 0.11121 0.46874
 C1498 C 0.25370 0.10074 0.45119
 C1499 C 0.28125 0.07678 0.43476
 N1500 N 0.27533 0.08345 0.41465
 N1501 N 0.28443 0.07508 0.39732
 C1502 C 0.29980 0.05959 0.39931
 N1503 N 0.30566 0.05275 0.41943
 N1504 N 0.29660 0.06121 0.43681
 C1505 C 0.31031 0.05098 0.37987
 C1506 C 0.32311 0.03223 0.38099
 C1507 C 0.33336 0.02463 0.36255
 C1508 C 0.33124 0.03581 0.34277
 C1509 C 0.31828 0.05437 0.34162
 C1510 C 0.30785 0.06180 0.35991
 H1511 H 0.29353 0.07289 0.47728
 H1512 H 0.27794 0.09161 0.50811
 H1513 H 0.23163 0.12224 0.46583
 H1514 H 0.24680 0.10383 0.43542
 H1515 H 0.32526 0.02348 0.39610
 H1516 H 0.34338 0.01032 0.36386
 H1517 H 0.31622 0.06316 0.32651
 H1518 H 0.29813 0.07629 0.35844
 C1519 C 0.77752 0.58084 0.93853
 C1520 C 0.78630 0.57617 0.95899
 C1521 C 0.77971 0.58780 0.97695
 C1522 C 0.76405 0.60400 0.97478
 C1523 C 0.75517 0.60856 0.95447
 C1524 C 0.76178 0.59709 0.93656
 C1525 C 0.78520 0.56960 0.91912
 N1526 N 0.77923 0.57680 0.89919
 N1527 N 0.78668 0.56741 0.88160
 C1528 C 0.80035 0.55033 0.88315
 N1529 N 0.80618 0.54294 0.90308
 N1530 N 0.79878 0.55240 0.92071
 C1531 C 0.80947 0.54077 0.86345
 C1532 C 0.82078 0.52108 0.86440
 C1533 C 0.83039 0.51285 0.84589
 C1534 C 0.82911 0.52432 0.82621
 C1535 C 0.81741 0.54371 0.82516
 C1536 C 0.80759 0.55178 0.84353
 H1537 H 0.79856 0.56386 0.96106
 H1538 H 0.78695 0.58428 0.99247
 H1539 H 0.74344 0.62132 0.95219
 H1540 H 0.75471 0.60118 0.92108
 H1541 H 0.82244 0.51216 0.87947
 H1542 H 0.83943 0.49791 0.84711
 H1543 H 0.81605 0.55275 0.81012
 H1544 H 0.79899 0.56697 0.84219
 C1545 C 0.06255 0.72620 0.57543
 C1546 C 0.06403 0.74225 0.59088
 C1547 C 0.04655 0.74771 0.60367
 C1548 C 0.02737 0.73706 0.60142
 C1549 C 0.02555 0.72162 0.58552
 C1550 C 0.04298 0.71619 0.57266
 C1551 C 0.08150 0.71930 0.56298
 N1552 N 0.07998 0.70432 0.54755
 N1553 N 0.09720 0.69715 0.53729
 C1554 C 0.11670 0.70464 0.54201
 N1555 N 0.11819 0.71982 0.55725
 N1556 N 0.10095 0.72702 0.56749
 C1557 C 0.13601 0.69536 0.53183
 C1558 C 0.15635 0.70099 0.53879
 C1559 C 0.17449 0.69055 0.53081
 C1560 C 0.17268 0.67426 0.51569
 C1561 C 0.15243 0.66935 0.50799
 C1562 C 0.13431 0.67975 0.51598
 H1563 H 0.07877 0.75045 0.59330
 H1564 H 0.04824 0.76010 0.61538
 H1565 H 0.01074 0.71346 0.58334
 H1566 H 0.04121 0.70384 0.56086
 H1567 H 0.15826 0.71296 0.55096
 H1568 H 0.18985 0.69458 0.53718
 H1569 H 0.15056 0.65715 0.49604
 H1570 H 0.11893 0.67516 0.51008
 C1571 C 0.56180 0.22023 1.07656
 C1572 C 0.56073 0.21890 1.09914
 C1573 C 0.54316 0.22712 1.11003
 C1574 C 0.52616 0.23673 1.09865
 C1575 C 0.52694 0.23809 1.07611
 C1576 C 0.54477 0.23003 1.06510
 C1577 C 0.58056 0.21098 1.06543
 N1578 N 0.58532 0.21649 1.04471
 N1579 N 0.60249 0.20812 1.03514
 C1580 C 0.61546 0.19383 1.04589
 N1581 N 0.61060 0.18834 1.06653
 N1582 N 0.59358 0.19676 1.07609
 C1583 C 0.63445 0.18411 1.03557
 C1584 C 0.64396 0.16550 1.04477
 C1585 C 0.66198 0.15618 1.03555
 C1586 C 0.67110 0.16529 1.01699
 C1587 C 0.66180 0.18400 1.00779
 C1588 C 0.64349 0.19325 1.01691
 H1589 H 0.57357 0.21158 1.10850
 H1590 H 0.54286 0.22596 1.12746
 H1591 H 0.51388 0.24532 1.06703
 H1592 H 0.54510 0.23117 1.04768
 H1593 H 0.63742 0.15802 1.05911
 H1594 H 0.66899 0.14192 1.04314
 H1595 H 0.66855 0.19128 0.99345
 H1596 H 0.63658 0.20764 1.00953
 C1597 C 0.94963 0.22223 0.92901
 C1598 C 0.96859 0.20991 0.92889
 C1599 C 0.98610 0.21673 0.91698
 C1600 C 0.98494 0.23583 0.90474
 C1601 C 0.96653 0.24884 0.90593
 C1602 C 0.94903 0.24212 0.91797
 C1603 C 0.93022 0.21360 0.93920
 N1604 N 0.91229 0.22596 0.94113
 N1605 N 0.89439 0.21760 0.94862
 C1606 C 0.89364 0.19651 0.95438
 N1607 N 0.91163 0.18426 0.95272
 N1608 N 0.92953 0.19262 0.94533
 C1609 C 0.87338 0.18665 0.96092
 C1610 C 0.87134 0.16430 0.96026
 C1611 C 0.85193 0.15489 0.96481
 C1612 C 0.83417 0.16755 0.97043
 C1613 C 0.83629 0.18982 0.97185
 C1614 C 0.85569 0.19932 0.96694
 H1615 H 0.96975 0.19467 0.93751
 H1616 H 1.00020 0.20661 0.91684
 H1617 H 0.96535 0.26396 0.89716
 H1618 H 0.93477 0.25214 0.91790
 H1619 H 0.88461 0.15406 0.95568
 H1620 H 0.85076 0.13766 0.96388
 H1621 H 0.82278 0.19989 0.97617
 H1622 H 0.85679 0.21657 0.96770
 C1623 C 0.44894 0.71515 0.42564
 C1624 C 0.45323 0.73704 0.42761
 C1625 C 0.46980 0.74628 0.41590
 C1626 C 0.48203 0.73390 0.40175
 C1627 C 0.47849 0.71189 0.40059
 C1628 C 0.46213 0.70260 0.41239
 C1629 C 0.43025 0.70554 0.43630
 N1630 N 0.42670 0.68427 0.43464
 N1631 N 0.40921 0.67573 0.44280
 C1632 C 0.39445 0.68807 0.45296
 N1633 N 0.39811 0.70931 0.45490
 N1634 N 0.41565 0.71787 0.44673
 C1635 C 0.37433 0.67863 0.46059
 C1636 C 0.35859 0.69123 0.47069
 C1637 C 0.33907 0.68245 0.47645
 C1638 C 0.33489 0.66096 0.47208
 C1639 C 0.35083 0.64825 0.46256
 C1640 C 0.37030 0.65695 0.45692
 H1641 H 0.44355 0.74713 0.43786
 H1642 H 0.47260 0.76324 0.41732
 H1643 H 0.48810 0.70178 0.39035
 H1644 H 0.45949 0.68565 0.41064
 H1645 H 0.36117 0.70797 0.47379
 H1646 H 0.32703 0.69261 0.48373
 H1647 H 0.34820 0.63153 0.45938
 H1648 H 0.38206 0.64670 0.44931
 C1649 C 0.55690 0.77481 0.42536
 C1650 C 0.55271 0.75278 0.42663
 C1651 C 0.53567 0.74449 0.41521
 C1652 C 0.52289 0.75800 0.40206
 C1653 C 0.52610 0.78012 0.40208
 C1654 C 0.54296 0.78844 0.41350
 C1655 C 0.57622 0.78362 0.43516
 N1656 N 0.58103 0.80447 0.43158
 N1657 N 0.59898 0.81232 0.43901
 C1658 C 0.61297 0.79969 0.45037
 N1659 N 0.60810 0.77885 0.45424
 N1660 N 0.59011 0.77096 0.44672
 C1661 C 0.63328 0.80854 0.45774
 C1662 C 0.64648 0.79726 0.47255
 C1663 C 0.66552 0.80607 0.47945
 C1664 C 0.67175 0.82627 0.47159
 C1665 C 0.65870 0.83726 0.45647
 C1666 C 0.63971 0.82859 0.44974
 H1667 H 0.56292 0.74187 0.43590
 H1668 H 0.53300 0.72741 0.41597
 H1669 H 0.51588 0.79113 0.39303
 H1670 H 0.54534 0.80555 0.41256
 H1671 H 0.64197 0.78177 0.47900
 H1672 H 0.67514 0.79726 0.49122
 H1673 H 0.66325 0.85259 0.44965
 H1674 H 0.63012 0.83761 0.43809
 C1675 C 0.06848 0.26566 -0.08173
 C1676 C 0.05064 0.26096 -0.06898
 C1677 C 0.03209 0.25355 -0.07848
 C1678 C 0.03129 0.25058 -0.10077
 C1679 C 0.04935 0.25429 -0.11331
 C1680 C 0.06771 0.26192 -0.10395
 C1681 C 0.08747 0.27547 -0.07240
 N1682 N 0.10094 0.28651 -0.08531
 N1683 N 0.11766 0.29611 -0.07712
 C1684 C 0.12172 0.29495 -0.05567
 N1685 N 0.10838 0.28374 -0.04271
 N1686 N 0.09151 0.27426 -0.05090
 C1687 C 0.13997 0.30631 -0.04672
 C1688 C 0.14907 0.29996 -0.02686
 C1689 C 0.16635 0.31092 -0.01864
 C1690 C 0.17443 0.32867 -0.02993
 C1691 C 0.16530 0.33502 -0.04972
 C1692 C 0.14839 0.32385 -0.05812
 H1693 H 0.05079 0.26368 -0.05182
 H1694 H 0.01831 0.25062 -0.06853
 H1695 H 0.04903 0.25189 -0.13054
 H1696 H 0.08123 0.26515 -0.11418
 H1697 H 0.14296 0.28645 -0.01778
 H1698 H 0.17315 0.30583 -0.00330
 H1699 H 0.17139 0.34859 -0.05875
 H1700 H 0.14167 0.32918 -0.07342
 C1701 C 0.44288 0.27237 0.07754
 C1702 C 0.46283 0.28112 0.07300
 C1703 C 0.48111 0.27309 0.08355
 C1704 C 0.47975 0.25608 0.09854
 C1705 C 0.45995 0.24711 0.10275
 C1706 C 0.44176 0.25509 0.09233
 C1707 C 0.42311 0.28167 0.06790
 N1708 N 0.40390 0.27539 0.07531
 N1709 N 0.38602 0.28421 0.06748
 C1710 C 0.38652 0.29967 0.05181
 N1711 N 0.40572 0.30586 0.04420
 N1712 N 0.42366 0.29707 0.05212
 C1713 C 0.36652 0.30997 0.04382
 C1714 C 0.36629 0.32322 0.02522
 C1715 C 0.34742 0.33337 0.01820
 C1716 C 0.32848 0.33069 0.02981
 C1717 C 0.32866 0.31731 0.04825
 C1718 C 0.34742 0.30697 0.05511
 H1719 H 0.46425 0.29452 0.06178
 H1720 H 0.49621 0.28048 0.08037
 H1721 H 0.45822 0.23433 0.11458
 H1722 H 0.42671 0.24793 0.09625
 H1723 H 0.38071 0.32582 0.01613
 H1724 H 0.34773 0.34375 0.00401
 H1725 H 0.31424 0.31482 0.05738
 H1726 H 0.34700 0.29691 0.06952
 C1727 C 0.94760 0.76569 0.57487
 C1728 C 0.96685 0.77666 0.57465
 C1729 C 0.98392 0.76937 0.58739
 C1730 C 0.98192 0.75128 0.60089
 C1731 C 0.96310 0.73974 0.60049
 C1732 C 0.94608 0.74687 0.58758
 C1733 C 0.92890 0.77447 0.56289
 N1734 N 0.91119 0.76271 0.56050
 N1735 N 0.89390 0.77121 0.55101
 C1736 C 0.89356 0.79185 0.54362
 N1737 N 0.91134 0.80351 0.54579
 N1738 N 0.92865 0.79499 0.55517
 C1739 C 0.87383 0.80196 0.53478
 C1740 C 0.87158 0.82440 0.53371
 C1741 C 0.85242 0.83413 0.52720
 C1742 C 0.83519 0.82166 0.52131
 C1743 C 0.83760 0.79926 0.52151
 C1744 C 0.85672 0.78946 0.52838
 H1745 H 0.96865 0.79106 0.56486
 H1746 H 0.99850 0.77823 0.58717
 H1747 H 0.96135 0.72538 0.61028
 H1748 H 0.93154 0.73796 0.58804
 H1749 H 0.88441 0.83450 0.53854
 H1750 H 0.85097 0.85146 0.52696
 H1751 H 0.82448 0.78935 0.51705
 H1752 H 0.85802 0.77213 0.52894
   
