data_POSCAR
  _audit_creation_date              2014-09-24
  _audit_creation_method            'ToBaCCo'
  _symmetry_space_group_name_H-M    'P1'
  _symmetry_Int_Tables_number       1
  _symmetry_cell_setting            triclinic
  loop_
  _symmetry_equiv_pos_as_xyz
 x,y,z
_cell_length_a 61.6820
_cell_length_b 61.6834
_cell_length_c 56.4490
_cell_angle_alpha 90.303800
_cell_angle_beta 89.673000
_cell_angle_gamma 89.775500
loop_
  _atom_site_label
  _atom_site_type_symbol
  _atom_site_fract_x
  _atom_site_fract_y
  _atom_site_fract_z
C1 C 0.38674 0.02316 0.27408
 H2 H 0.38699 0.03223 0.25773
 C3 C 0.39871 0.03036 0.29350
 H4 H 0.40842 0.04490 0.29211
 C5 C 0.37341 -0.00665 0.29613
 H6 H 0.36317 -0.02077 0.29728
 C7 C 0.38511 -0.00001 0.31595
 H8 H 0.38413 -0.00926 0.33218
 N9 N 0.37456 0.00486 0.27567
 C10 C 0.36446 -0.01612 0.20280
 H11 H 0.34694 -0.01685 0.20271
 C12 C 0.37623 -0.02198 0.18257
 H13 H 0.36779 -0.02703 0.16670
 C14 C 0.39694 -0.00874 0.22364
 H15 H 0.40492 -0.00389 0.23979
 C16 C 0.40934 -0.01446 0.20377
 H17 H 0.42686 -0.01367 0.20452
 Zn18 Zn 0.35745 -0.00281 0.24933
 N19 N 0.37491 -0.00943 0.22269
 C20 C 0.34105 0.03243 0.22260
 N21 N 0.33942 0.02123 0.24325
 C22 C 0.32667 0.02841 0.26141
 C23 C 0.31517 0.04783 0.25938
 C24 C 0.32982 0.05195 0.21985
 C25 C 0.35266 -0.04642 0.25908
 C26 C 0.34204 -0.06612 0.26209
 C27 C 0.30774 -0.04735 0.25811
 C28 C 0.31905 -0.02793 0.25522
 N29 N 0.34111 -0.02787 0.25574
 H30 H 0.35174 0.02676 0.20865
 H31 H 0.32608 0.01941 0.27780
 H32 H 0.30558 0.05378 0.27420
 H33 H 0.33173 0.06116 0.20369
 H34 H 0.37019 -0.04590 0.25897
 H35 H 0.35149 -0.08082 0.26439
 H36 H 0.29018 -0.04732 0.25726
 H37 H 0.31024 -0.01309 0.25196
 C38 C 0.39886 -0.02110 0.18306
 C39 C 0.39783 0.01866 0.31462
 C40 C 0.31938 -0.06663 0.26143
 C41 C 0.31703 0.05984 0.23855
 C42 C 0.11206 0.02615 0.72239
 H43 H 0.11149 0.03534 0.73876
 C44 C 0.09972 0.03278 0.70303
 H45 H 0.08943 0.04700 0.70448
 C46 C 0.12642 -0.00345 0.70026
 H47 H 0.13716 -0.01728 0.69906
 C48 C 0.11439 0.00262 0.68051
 H49 H 0.11563 -0.00679 0.66429
 N50 N 0.12488 0.00819 0.72075
 C51 C 0.13543 -0.01270 0.79334
 H52 H 0.15297 -0.01323 0.79333
 C53 C 0.12387 -0.01896 0.81346
 H54 H 0.13249 -0.02408 0.82915
 C55 C 0.10272 -0.00557 0.77281
 H56 H 0.09457 -0.00070 0.75680
 C57 C 0.09053 -0.01170 0.79259
 H58 H 0.07298 -0.01117 0.79192
 Zn59 Zn 0.14209 0.00081 0.74708
 N60 N 0.12477 -0.00597 0.77365
 C61 C 0.15820 0.03591 0.77441
 N62 N 0.15984 0.02491 0.75351
 C63 C 0.17271 0.03210 0.73557
 C64 C 0.18443 0.05126 0.73819
 C65 C 0.16964 0.05516 0.77775
 C66 C 0.14737 -0.04275 0.73711
 C67 C 0.15815 -0.06248 0.73427
 C68 C 0.19227 -0.04370 0.73855
 C69 C 0.18081 -0.02423 0.74126
 N70 N 0.15875 -0.02418 0.74054
 H71 H 0.14744 0.03024 0.78819
 H72 H 0.17334 0.02325 0.71899
 H73 H 0.19422 0.05717 0.72362
 H74 H 0.16783 0.06417 0.79418
 H75 H 0.12983 -0.04223 0.73709
 H76 H 0.14893 -0.07725 0.73198
 H77 H 0.20980 -0.04379 0.73964
 H78 H 0.18949 -0.00936 0.74461
 C79 C 0.10123 -0.01843 0.81307
 C80 C 0.10093 0.02087 0.68192
 C81 C 0.18077 -0.06298 0.73521
 C82 C 0.18267 0.06299 0.75937
 C83 C 0.61239 0.52569 0.22169
 H84 H 0.61182 0.53489 0.23805
 C85 C 0.60008 0.53232 0.20231
 H86 H 0.58979 0.54654 0.20374
 C87 C 0.62676 0.49607 0.19958
 H88 H 0.63750 0.48224 0.19840
 C89 C 0.61476 0.50214 0.17982
 H90 H 0.61602 0.49274 0.16360
 N91 N 0.62521 0.50772 0.22006
 C92 C 0.63578 0.48690 0.29267
 H93 H 0.65332 0.48637 0.29264
 C94 C 0.62424 0.48065 0.31281
 H95 H 0.63288 0.47553 0.32849
 C96 C 0.60306 0.49402 0.27217
 H97 H 0.59489 0.49888 0.25616
 C98 C 0.59088 0.48790 0.29196
 H99 H 0.57333 0.48842 0.29132
 Zn100 Zn 0.64242 0.50037 0.24641
 N101 N 0.62510 0.49362 0.27299
 C102 C 0.65853 0.53549 0.27369
 N103 N 0.66017 0.52446 0.25280
 C104 C 0.67304 0.53163 0.23486
 C105 C 0.68477 0.55078 0.23744
 C106 C 0.66998 0.55474 0.27700
 C107 C 0.64768 0.45680 0.23649
 C108 C 0.65846 0.43706 0.23374
 C109 C 0.69258 0.45583 0.23805
 C110 C 0.68112 0.47531 0.24068
 N111 N 0.65907 0.47537 0.23991
 H112 H 0.64777 0.52984 0.28747
 H113 H 0.67367 0.52275 0.21829
 H114 H 0.69456 0.55668 0.22286
 H115 H 0.66817 0.56377 0.29341
 H116 H 0.63015 0.45733 0.23643
 H117 H 0.64924 0.42229 0.23147
 H118 H 0.71010 0.45573 0.23920
 H119 H 0.68981 0.49018 0.24402
 C120 C 0.60160 0.48117 0.31244
 C121 C 0.60131 0.52040 0.18120
 C122 C 0.68108 0.43655 0.23475
 C123 C 0.68301 0.56254 0.25860
 C124 C 0.88827 0.52371 0.77562
 H125 H 0.88866 0.53279 0.75928
 C126 C 0.90020 0.53082 0.79512
 H127 H 0.91002 0.54529 0.79373
 C128 C 0.87457 0.49401 0.79758
 H129 H 0.86421 0.47998 0.79865
 C130 C 0.88622 0.50054 0.81748
 H131 H 0.88503 0.49125 0.83368
 N132 N 0.87592 0.50552 0.77714
 C133 C 0.86579 0.48459 0.70424
 H134 H 0.84827 0.48395 0.70416
 C135 C 0.87752 0.47865 0.68401
 H136 H 0.86903 0.47363 0.66816
 C137 C 0.89832 0.49183 0.72505
 H138 H 0.90633 0.49666 0.74119
 C139 C 0.91068 0.48602 0.70517
 H140 H 0.92821 0.48673 0.70590
 Zn141 Zn 0.85883 0.49799 0.75072
 N142 N 0.87628 0.49125 0.72411
 C143 C 0.84267 0.53328 0.72391
 N144 N 0.84097 0.52215 0.74459
 C145 C 0.82821 0.52942 0.76270
 C146 C 0.81675 0.54884 0.76057
 C147 C 0.83148 0.55282 0.72105
 C148 C 0.85368 0.45441 0.76043
 C149 C 0.84290 0.43480 0.76340
 C150 C 0.80877 0.45382 0.75936
 C151 C 0.82023 0.47315 0.75650
 N152 N 0.84229 0.47305 0.75707
 H153 H 0.85336 0.52755 0.70999
 H154 H 0.82757 0.52046 0.77912
 H155 H 0.80712 0.55485 0.77534
 H156 H 0.83341 0.56196 0.70485
 H157 H 0.87122 0.45479 0.76036
 H158 H 0.85212 0.41998 0.76570
 H159 H 0.79123 0.45388 0.75847
 H160 H 0.81153 0.48806 0.75323
 C161 C 0.90015 0.47942 0.68448
 C162 C 0.89911 0.51912 0.81625
 C163 C 0.82026 0.43449 0.76269
 C164 C 0.81865 0.56077 0.73969
 C165 C 0.22366 0.41681 0.97798
 H166 H 0.23829 0.41837 0.96748
 C167 C 0.20518 0.42888 0.97222
 H168 H 0.20556 0.43990 0.95735
 C169 C 0.20498 0.40031 1.00997
 H170 H 0.20470 0.38889 1.02436
 C171 C 0.18626 0.41199 1.00483
 H172 H 0.17180 0.40971 1.01551
 N173 N 0.22332 0.40313 0.99684
 C174 C 0.28968 0.39437 1.02093
 H175 H 0.28947 0.37697 1.02324
 C176 C 0.30859 0.40594 1.02533
 H177 H 0.32305 0.39747 1.03102
 C178 C 0.27132 0.42658 1.00974
 H179 H 0.25680 0.43452 1.00357
 C180 C 0.28996 0.43880 1.01390
 H181 H 0.28984 0.45610 1.01068
 Zn182 Zn 0.24826 0.38669 1.00444
 N183 N 0.27175 0.40469 1.01264
 C184 C 0.27580 0.37246 0.96723
 N185 N 0.25598 0.36980 0.97756
 C186 C 0.24101 0.35622 0.96802
 C187 C 0.24584 0.34450 0.94738
 C188 C 0.28128 0.36106 0.94663
 C189 C 0.23898 0.38012 1.05185
 C190 C 0.23357 0.36889 1.07239
 C191 C 0.23543 0.33538 1.05003
 C192 C 0.24080 0.34728 1.02982
 N193 N 0.24216 0.36927 1.03106
 H194 H 0.28728 0.38376 0.97459
 H195 H 0.22521 0.35476 0.97627
 H196 H 0.23378 0.33387 0.93974
 H197 H 0.29699 0.36347 0.93841
 H198 H 0.24035 0.39760 1.05232
 H199 H 0.23094 0.37769 1.08882
 H200 H 0.23429 0.31788 1.04900
 H201 H 0.24375 0.33895 1.01323
 C202 C 0.30884 0.42827 1.02135
 C203 C 0.18637 0.42646 0.98591
 C204 C 0.23163 0.34635 1.07143
 C205 C 0.26615 0.34702 0.93659
 C206 C 0.77588 0.08323 0.97536
 H207 H 0.76153 0.08134 0.96463
 C208 C 0.79471 0.07145 0.96984
 H209 H 0.79484 0.06034 0.95490
 C210 C 0.79350 0.10025 1.00770
 H211 H 0.79325 0.11176 1.02214
 C212 C 0.81255 0.08890 1.00282
 H213 H 0.82668 0.09156 1.01378
 N214 N 0.77552 0.09701 0.99429
 C215 C 0.70856 0.10484 1.01774
 H216 H 0.70855 0.12223 1.02034
 C217 C 0.68972 0.09304 1.02187
 H218 H 0.67509 0.10133 1.02765
 C219 C 0.72745 0.07287 1.00615
 H220 H 0.74215 0.06511 0.99995
 C221 C 0.70888 0.06043 1.01003
 H222 H 0.70925 0.04314 1.00657
 Zn223 Zn 0.75016 0.11308 1.00178
 N224 N 0.72673 0.09475 1.00941
 C225 C 0.72317 0.12709 0.96453
 N226 N 0.74276 0.13001 0.97510
 C227 C 0.75771 0.14382 0.96589
 C228 C 0.75310 0.15550 0.94536
 C229 C 0.71793 0.13844 0.94402
 C230 C 0.75821 0.11931 1.04941
 C231 C 0.76353 0.13028 1.07019
 C232 C 0.76255 0.16399 1.04855
 C233 C 0.75724 0.15234 1.02807
 N234 N 0.75553 0.13036 1.02883
 H235 H 0.71172 0.11561 0.97160
 H236 H 0.77333 0.14548 0.97431
 H237 H 0.76515 0.16630 0.93797
 H238 H 0.70241 0.13581 0.93560
 H239 H 0.75663 0.10185 1.04949
 H240 H 0.76586 0.12130 1.08643
 H241 H 0.76408 0.18146 1.04787
 H242 H 0.75475 0.16083 1.01161
 C243 C 0.68978 0.07071 1.01757
 C244 C 0.81316 0.07429 0.98384
 C245 C 0.76592 0.15278 1.06971
 C246 C 0.73304 0.15270 0.93431
 C247 C 0.27533 0.58392 0.47438
 H248 H 0.26092 0.58211 0.46373
 C249 C 0.29408 0.57208 0.46873
 H250 H 0.29415 0.56098 0.45379
 C251 C 0.29317 0.60079 0.50667
 H252 H 0.29303 0.61227 0.52114
 C253 C 0.31214 0.58936 0.50164
 H254 H 0.32636 0.59188 0.51249
 N255 N 0.27511 0.59766 0.49335
 C256 C 0.20826 0.60555 0.51713
 H257 H 0.20824 0.62294 0.51972
 C258 C 0.18943 0.59374 0.52133
 H259 H 0.17481 0.60203 0.52715
 C260 C 0.22712 0.57358 0.50549
 H261 H 0.24181 0.56583 0.49925
 C262 C 0.20857 0.56114 0.50943
 H263 H 0.20894 0.54384 0.50599
 Zn264 Zn 0.24983 0.61377 0.50103
 N265 N 0.22641 0.59546 0.50874
 C266 C 0.22272 0.62791 0.46393
 N267 N 0.24235 0.63076 0.47443
 C268 C 0.25730 0.64456 0.46520
 C269 C 0.25265 0.65630 0.44471
 C270 C 0.21743 0.63931 0.44348
 C271 C 0.25814 0.61990 0.54862
 C272 C 0.26353 0.63085 0.56941
 C273 C 0.26240 0.66459 0.54784
 C274 C 0.25702 0.65298 0.52736
 N275 N 0.25536 0.63099 0.52809
 H276 H 0.21127 0.61644 0.47103
 H277 H 0.27295 0.64618 0.47356
 H278 H 0.26470 0.66709 0.43731
 H279 H 0.20188 0.63673 0.43511
 H280 H 0.25658 0.60244 0.54868
 H281 H 0.26594 0.62185 0.58562
 H282 H 0.26389 0.68207 0.54719
 H283 H 0.25444 0.66149 0.51094
 C284 C 0.18949 0.57142 0.51704
 C285 C 0.31259 0.57480 0.48264
 C286 C 0.26588 0.65335 0.56896
 C287 C 0.23254 0.65356 0.43374
 C288 C 0.72374 0.91619 0.47678
 H289 H 0.73839 0.91774 0.46630
 C290 C 0.70525 0.92821 0.47094
 H291 H 0.70563 0.93919 0.45604
 C292 C 0.70505 0.89976 0.50880
 H293 H 0.70477 0.88838 0.52323
 C294 C 0.68632 0.91138 0.50358
 H295 H 0.67184 0.90911 0.51424
 N296 N 0.72340 0.90257 0.49569
 C297 C 0.78977 0.89407 0.51984
 H298 H 0.78962 0.87667 0.52216
 C299 C 0.80862 0.90573 0.52431
 H300 H 0.82310 0.89731 0.53005
 C301 C 0.77129 0.92620 0.50862
 H302 H 0.75674 0.93408 0.50244
 C303 C 0.78987 0.93850 0.51284
 H304 H 0.78967 0.95580 0.50965
 Zn305 Zn 0.74838 0.88622 0.50338
 N306 N 0.77181 0.90431 0.51153
 C307 C 0.77595 0.87195 0.46622
 N308 N 0.75615 0.86924 0.47659
 C309 C 0.74122 0.85557 0.46712
 C310 C 0.74607 0.84382 0.44651
 C311 C 0.78144 0.86053 0.44564
 C312 C 0.73909 0.87987 0.55082
 C313 C 0.73378 0.86873 0.57144
 C314 C 0.73581 0.83509 0.54933
 C315 C 0.74108 0.84690 0.52903
 N316 N 0.74232 0.86891 0.53011
 H317 H 0.78739 0.88332 0.47352
 H318 H 0.72545 0.85407 0.47541
 H319 H 0.73404 0.83314 0.43892
 H320 H 0.79712 0.86299 0.43737
 H321 H 0.74037 0.89735 0.55116
 H322 H 0.73112 0.87761 0.58782
 H323 H 0.73478 0.81758 0.54843
 H324 H 0.74407 0.83849 0.51249
 C325 C 0.80877 0.92806 0.52035
 C326 C 0.68643 0.92580 0.48461
 C327 C 0.73199 0.84617 0.57066
 C328 C 0.76635 0.84641 0.43566
 C329 C 0.01434 0.27894 0.41171
 H330 H 0.02859 0.26868 0.41242
 C331 C 0.01331 0.29792 0.42537
 H332 H 0.02677 0.30227 0.43666
 C333 C -0.02038 0.28618 0.39571
 H334 H -0.03332 0.28183 0.38383
 C335 C -0.02206 0.30528 0.40906
 H336 H -0.03636 0.31542 0.40750
 N337 N -0.00243 0.27335 0.39737
 C338 C 0.00240 0.20312 0.38673
 H339 H 0.00172 0.20243 0.36760
 C340 C 0.00370 0.18396 0.39975
 H341 H 0.00403 0.16849 0.39055
 C342 C 0.00255 0.22412 0.42203
 H343 H 0.00184 0.23977 0.43068
 C344 C 0.00385 0.20532 0.43576
 H345 H 0.00427 0.20664 0.45490
 Zn346 Zn 0.00026 0.24777 0.37851
 N347 N 0.00210 0.22271 0.39795
 C348 C 0.04219 0.23554 0.36189
 N349 N 0.02592 0.25039 0.35976
 C350 C 0.02812 0.26784 0.34527
 C351 C 0.04712 0.27067 0.33195
 C352 C 0.06140 0.23776 0.34891
 C353 C -0.04380 0.24055 0.37054
 C354 C -0.06297 0.23821 0.35773
 C355 C -0.04253 0.24326 0.32156
 C356 C -0.02369 0.24550 0.33507
 N357 N -0.02470 0.24444 0.35915
 H358 H 0.04048 0.22209 0.37390
 H359 H 0.01515 0.27965 0.34419
 H360 H 0.04875 0.28463 0.32051
 H361 H 0.07425 0.22588 0.35083
 H362 H -0.04413 0.23951 0.38966
 H363 H -0.07811 0.23543 0.36703
 H364 H -0.04165 0.24440 0.30244
 H365 H -0.00834 0.24818 0.32629
 C366 C 0.00451 0.18504 0.42450
 C367 C -0.00508 0.31122 0.42403
 C368 C -0.06239 0.23971 0.33302
 C369 C 0.06393 0.25547 0.33380
 C370 C 0.01357 0.72153 0.09065
 H371 H 0.02787 0.73162 0.09015
 C372 C 0.01264 0.70272 0.07673
 H373 H 0.02625 0.69832 0.06546
 C374 C -0.02147 0.71462 0.10629
 H375 H -0.03460 0.71905 0.11810
 C376 C -0.02305 0.69570 0.09267
 H377 H -0.03745 0.68576 0.09396
 N378 N -0.00342 0.72723 0.10492
 C379 C 0.00162 0.79748 0.11544
 H380 H 0.00081 0.79832 0.13457
 C381 C 0.00323 0.81652 0.10224
 H382 H 0.00366 0.83207 0.11124
 C383 C 0.00184 0.77624 0.08031
 H384 H 0.00103 0.76056 0.07178
 C385 C 0.00344 0.79492 0.06644
 H386 H 0.00401 0.79351 0.04731
 Zn387 Zn -0.00092 0.75276 0.12388
 N388 N 0.00123 0.77781 0.10439
 C389 C 0.04085 0.76452 0.14080
 N390 N 0.02454 0.74979 0.14268
 C391 C 0.02649 0.73221 0.15702
 C392 C 0.04526 0.72911 0.17046
 C393 C 0.05984 0.76203 0.15391
 C394 C -0.04515 0.76024 0.13206
 C395 C -0.06442 0.76254 0.14500
 C396 C -0.04412 0.75729 0.18103
 C397 C -0.02520 0.75509 0.16737
 N398 N -0.02609 0.75625 0.14330
 H399 H 0.03934 0.77808 0.12891
 H400 H 0.01349 0.72051 0.15790
 H401 H 0.04668 0.71506 0.18178
 H402 H 0.07273 0.77383 0.15220
 H403 H -0.04538 0.76135 0.11294
 H404 H -0.07949 0.76539 0.13570
 H405 H -0.04321 0.75604 0.20015
 H406 H -0.00988 0.75234 0.17604
 C407 C 0.00424 0.81525 0.07751
 C408 C -0.00587 0.68969 0.07772
 C409 C -0.06398 0.76091 0.16973
 C410 C 0.06211 0.74419 0.16889
 C411 C 0.51448 0.22100 0.58954
 H412 H 0.52881 0.23105 0.58898
 C413 C 0.51346 0.20220 0.57561
 H414 H 0.52702 0.19777 0.56428
 C415 C 0.47948 0.21416 0.60532
 H416 H 0.46641 0.21861 0.61719
 C417 C 0.47781 0.19525 0.59170
 H418 H 0.46340 0.18534 0.59304
 N419 N 0.49755 0.22673 0.60388
 C420 C 0.50288 0.29694 0.61456
 H421 H 0.50216 0.29774 0.63370
 C422 C 0.50444 0.31602 0.60141
 H423 H 0.50493 0.33154 0.61045
 C424 C 0.50289 0.27579 0.57936
 H425 H 0.50200 0.26014 0.57079
 C426 C 0.50443 0.29451 0.56554
 H427 H 0.50488 0.29315 0.54640
 Zn428 Zn 0.50021 0.25221 0.62288
 N429 N 0.50239 0.27730 0.60345
 C430 C 0.54203 0.26379 0.63984
 N431 N 0.52567 0.24911 0.64163
 C432 C 0.52754 0.23148 0.65592
 C433 C 0.54625 0.22831 0.66943
 C434 C 0.56097 0.26123 0.65303
 C435 C 0.45601 0.25981 0.63127
 C436 C 0.43682 0.26222 0.64433
 C437 C 0.45727 0.25698 0.68022
 C438 C 0.47612 0.25467 0.66647
 N439 N 0.47511 0.25578 0.64240
 H440 H 0.54058 0.27739 0.62800
 H441 H 0.51450 0.21982 0.65673
 H442 H 0.54758 0.21423 0.68073
 H443 H 0.57388 0.27300 0.65142
 H444 H 0.45567 0.26089 0.61215
 H445 H 0.42167 0.26509 0.63523
 H446 H 0.45816 0.25579 0.69933
 H447 H 0.49147 0.25190 0.67507
 C448 C 0.50530 0.31481 0.57666
 C449 C 0.49493 0.18920 0.57667
 C450 C 0.43740 0.26065 0.66903
 C451 C 0.56314 0.24335 0.66798
 C452 C 0.51463 0.77950 0.91025
 H453 H 0.52889 0.76927 0.91096
 C454 C 0.51353 0.79845 0.92395
 H455 H 0.52697 0.80281 0.93527
 C456 C 0.47990 0.78669 0.89423
 H457 H 0.46698 0.78233 0.88233
 C458 C 0.47816 0.80575 0.90762
 H459 H 0.46384 0.81586 0.90608
 N460 N 0.49788 0.77389 0.89588
 C461 C 0.50278 0.70368 0.88532
 H462 H 0.50214 0.70295 0.86618
 C463 C 0.50407 0.68454 0.89838
 H464 H 0.50444 0.66904 0.88927
 C465 C 0.50285 0.72473 0.92058
 H466 H 0.50210 0.74038 0.92920
 C467 C 0.50413 0.70595 0.93433
 H468 H 0.50452 0.70723 0.95347
 Zn469 Zn 0.50061 0.74832 0.87703
 N470 N 0.50245 0.72328 0.89650
 C471 C 0.54258 0.73612 0.86054
 N472 N 0.52631 0.75094 0.85833
 C473 C 0.52853 0.76839 0.84382
 C474 C 0.54758 0.77124 0.83059
 C475 C 0.56184 0.73836 0.84765
 C476 C 0.45659 0.74103 0.86907
 C477 C 0.43741 0.73868 0.85628
 C478 C 0.45779 0.74383 0.82010
 C479 C 0.47665 0.74608 0.83359
 N480 N 0.47566 0.74497 0.85767
 H481 H 0.54086 0.72268 0.87257
 H482 H 0.51555 0.78017 0.84268
 H483 H 0.54923 0.78519 0.81916
 H484 H 0.57470 0.72650 0.84966
 H485 H 0.45628 0.73995 0.88819
 H486 H 0.42228 0.73586 0.86559
 H487 H 0.45865 0.74501 0.80098
 H488 H 0.49199 0.74880 0.82479
 C489 C 0.50483 0.68567 0.92311
 C490 C 0.49511 0.81170 0.92264
 C491 C 0.43796 0.74023 0.83158
 C492 C 0.56441 0.75607 0.83255
 C493 C -0.22618 0.63838 0.97607
 H494 H -0.21723 0.63864 0.99249
 C495 C -0.21888 0.65040 0.95671
 H496 H -0.20440 0.66016 0.95824
 C497 C -0.25577 0.62494 0.95374
 H498 H -0.26983 0.61465 0.95247
 C499 C -0.24903 0.63669 0.93399
 H500 H -0.25815 0.63569 0.91768
 N501 N -0.24441 0.62612 0.97430
 C502 C -0.26597 0.61580 1.04696
 H503 H -0.26669 0.59827 1.04698
 C504 C -0.27194 0.62749 1.06720
 H505 H -0.27706 0.61893 1.08298
 C506 C -0.25847 0.64834 1.02628
 H507 H -0.25351 0.65637 1.01019
 C508 C -0.26430 0.66068 1.04615
 H509 H -0.26346 0.67821 1.04542
 Zn510 Zn -0.25224 0.60893 1.00055
 N511 N -0.25915 0.62631 1.02716
 C512 C -0.21723 0.59252 1.02764
 N513 N -0.22819 0.59099 1.00683
 C514 C -0.22081 0.57830 0.98871
 C515 C -0.20145 0.56675 0.99096
 C516 C -0.19777 0.58124 1.03062
 C517 C -0.29575 0.60389 0.99034
 C518 C -0.31532 0.59311 0.98707
 C519 C -0.29634 0.55897 0.99116
 C520 C -0.27705 0.57041 0.99432
 N521 N -0.27714 0.59247 0.99386
 H522 H -0.22305 0.60315 1.04156
 H523 H -0.22962 0.57779 0.97220
 H524 H -0.19535 0.55719 0.97619
 H525 H -0.18876 0.58304 1.04692
 H526 H -0.29537 0.62142 0.99051
 H527 H -0.33012 0.60234 0.98465
 H528 H -0.29630 0.54142 0.99196
 H529 H -0.26218 0.56169 0.99772
 C530 C -0.27104 0.65014 1.06681
 C531 C -0.23042 0.64949 0.93549
 C532 C -0.31564 0.57048 0.98765
 C533 C -0.18970 0.56849 1.01198
 C534 C -0.22415 0.36121 0.52864
 H535 H -0.21501 0.36055 0.51223
 C536 C -0.21776 0.34955 0.54728
 H537 H -0.20348 0.33932 0.54595
 C538 C -0.25426 0.37638 0.54993
 H539 H -0.26799 0.38724 0.55116
 C540 C -0.24791 0.36372 0.57084
 H541 H -0.25752 0.36501 0.58693
 N542 N -0.24313 0.37481 0.53031
 C543 C -0.26357 0.38532 0.45757
 H544 H -0.26407 0.40286 0.45753
 C545 C -0.26974 0.37374 0.43744
 H546 H -0.27477 0.38233 0.42170
 C547 C -0.25659 0.35264 0.47823
 H548 H -0.25181 0.34452 0.49429
 C549 C -0.26263 0.34042 0.45845
 H550 H -0.26213 0.32288 0.45916
 Zn551 Zn -0.25029 0.39203 0.50389
 N552 N -0.25696 0.37469 0.47733
 C553 C -0.21496 0.40791 0.47676
 N554 N -0.22607 0.40965 0.49759
 C555 C -0.21891 0.42253 0.51553
 C556 C -0.19969 0.43415 0.51300
 C557 C -0.19564 0.41926 0.47350
 C558 C -0.29391 0.39752 0.51352
 C559 C -0.31361 0.40838 0.51615
 C560 C -0.29465 0.44242 0.51189
 C561 C -0.27522 0.43087 0.50939
 N562 N -0.27526 0.40881 0.51019
 H563 H -0.22061 0.39716 0.46298
 H564 H -0.22786 0.42324 0.53206
 H565 H -0.19381 0.44395 0.52757
 H566 H -0.18655 0.41738 0.45713
 H567 H -0.29346 0.37998 0.51361
 H568 H -0.32841 0.39917 0.51837
 H569 H -0.29461 0.45995 0.51073
 H570 H -0.26029 0.43947 0.50613
 C571 C -0.26925 0.35110 0.43789
 C572 C -0.23036 0.35086 0.56960
 C573 C -0.31403 0.43102 0.51511
 C574 C -0.18784 0.43230 0.49189
 C575 C 0.27588 -0.13811 0.02798
 H576 H 0.28503 -0.13878 0.01157
 C577 C 0.28226 -0.14978 0.04662
 H578 H 0.29654 -0.16002 0.04529
 C579 C 0.24578 -0.12292 0.04925
 H580 H 0.23205 -0.11207 0.05047
 C581 C 0.25212 -0.13560 0.07017
 H582 H 0.24249 -0.13431 0.08626
 N583 N 0.25690 -0.12451 0.02963
 C584 C 0.23641 -0.11411 -0.04310
 H585 H 0.23588 -0.09658 -0.04317
 C586 C 0.23025 -0.12573 -0.06321
 H587 H 0.22520 -0.11716 -0.07896
 C588 C 0.24346 -0.14675 -0.02240
 H589 H 0.24825 -0.15484 -0.00633
 C590 C 0.23743 -0.15901 -0.04216
 H591 H 0.23795 -0.17655 -0.04143
 Zn592 Zn 0.24972 -0.10732 0.00320
 N593 N 0.24305 -0.12471 -0.02334
 C594 C 0.28500 -0.09145 -0.02400
 N595 N 0.27391 -0.08968 -0.00316
 C596 C 0.28108 -0.07677 0.01475
 C597 C 0.30030 -0.06514 0.01217
 C598 C 0.30432 -0.08010 -0.02730
 C599 C 0.20610 -0.10191 0.01285
 C600 C 0.18638 -0.09109 0.01554
 C601 C 0.20526 -0.05701 0.01130
 C602 C 0.22471 -0.06852 0.00873
 N603 N 0.22472 -0.09058 0.00950
 H604 H 0.27935 -0.10223 -0.03775
 H605 H 0.27215 -0.07603 0.03128
 H606 H 0.30619 -0.05532 0.02672
 H607 H 0.31339 -0.08201 -0.04368
 H608 H 0.20658 -0.11945 0.01292
 H609 H 0.17160 -0.10033 0.01779
 H610 H 0.20527 -0.03947 0.01018
 H611 H 0.23963 -0.05988 0.00546
 C612 C 0.23078 -0.14837 -0.06273
 C613 C 0.26965 -0.14847 0.06893
 C614 C 0.18592 -0.06845 0.01455
 C615 C 0.31212 -0.06703 -0.00895
 C616 C 0.27400 1.13787 0.47614
 H617 H 0.28300 1.13817 0.49254
 C618 C 0.28124 1.14985 0.45673
 H619 H 0.29572 1.15963 0.45818
 C620 C 0.24436 1.12437 0.45397
 H621 H 0.23030 1.11407 0.45277
 C622 C 0.25103 1.13608 0.43416
 H623 H 0.24186 1.13503 0.41789
 N624 N 0.25577 1.12560 0.47448
 C625 C 0.23445 1.11542 0.54723
 H626 H 0.23376 1.09790 0.54731
 C627 C 0.22844 1.12717 0.56743
 H628 H 0.22334 1.11870 0.58326
 C629 C 0.24185 1.14793 0.52644
 H630 H 0.24676 1.15594 0.51032
 C631 C 0.23598 1.16030 0.54628
 H632 H 0.23673 1.17783 0.54554
 Zn633 Zn 0.24802 1.10847 0.50079
 N634 N 0.24122 1.12590 0.52739
 C635 C 0.28312 1.09207 0.52774
 N636 N 0.27206 1.09050 0.50701
 C637 C 0.27934 1.07777 0.48887
 C638 C 0.29870 1.06621 0.49104
 C639 C 0.30259 1.08078 0.53063
 C640 C 0.20448 1.10352 0.49079
 C641 C 0.18486 1.09281 0.48762
 C642 C 0.20375 1.05861 0.49169
 C643 C 0.22309 1.06999 0.49475
 N644 N 0.22306 1.09206 0.49424
 H645 H 0.27738 1.10273 0.54167
 H646 H 0.27045 1.07723 0.47242
 H647 H 0.30472 1.05662 0.47626
 H648 H 0.31169 1.08261 0.54687
 H649 H 0.20492 1.12106 0.49091
 H650 H 0.17009 1.10209 0.48524
 H651 H 0.20374 1.04107 0.49253
 H652 H 0.23795 1.06123 0.49810
 C653 C 0.22926 1.14980 0.56694
 C654 C 0.26963 1.14888 0.43556
 C655 C 0.18448 1.07018 0.48825
 C656 C 0.31056 1.06798 0.51198
 C657 C 0.16607 0.47378 0.27156
 H658 H 0.16754 0.48829 0.28227
 C659 C 0.17803 0.45521 0.27723
 H660 H 0.18888 0.45540 0.29226
 C661 C 0.14988 0.45550 0.23913
 H662 H 0.13861 0.45540 0.22460
 C663 C 0.16146 0.43669 0.24418
 H664 H 0.15926 0.42235 0.23330
 N665 N 0.15258 0.47368 0.25254
 C666 C 0.14391 0.54034 0.22932
 H667 H 0.12653 0.54015 0.22690
 C668 C 0.15551 0.55928 0.22514
 H669 H 0.14706 0.57379 0.21952
 C670 C 0.17607 0.52187 0.24047
 H671 H 0.18398 0.50729 0.24652
 C672 C 0.18831 0.54055 0.23654
 H673 H 0.20560 0.54039 0.23980
 Zn674 Zn 0.13616 0.49871 0.24518
 N675 N 0.15419 0.52233 0.23745
 C676 C 0.12168 0.52578 0.28269
 N677 N 0.11909 0.50608 0.27206
 C678 C 0.10549 0.49097 0.28132
 C679 C 0.09368 0.49553 0.30197
 C680 C 0.11019 0.53097 0.30332
 C681 C 0.12989 0.49003 0.19758
 C682 C 0.11880 0.48491 0.17687
 C683 C 0.08513 0.48647 0.19904
 C684 C 0.09692 0.49156 0.21940
 N685 N 0.11892 0.49294 0.21834
 H686 H 0.13299 0.53736 0.27556
 H687 H 0.10409 0.47528 0.27283
 H688 H 0.08305 0.48335 0.30939
 H689 H 0.11255 0.54658 0.31179
 H690 H 0.14737 0.49141 0.19726
 H691 H 0.12780 0.48251 0.16050
 H692 H 0.06761 0.48533 0.20005
 H693 H 0.08850 0.49429 0.23599
 C694 C 0.17783 0.55949 0.22920
 C695 C 0.17571 0.43655 0.26330
 C696 C 0.09622 0.48296 0.17761
 C697 C 0.09614 0.51570 0.31309
 C698 C -0.16551 1.02492 0.27501
 H699 H -0.16724 1.01040 0.28550
 C700 C -0.17749 1.04354 0.28083
 H701 H -0.18860 1.04340 0.29575
 C702 C -0.14871 1.04317 0.24294
 H703 H -0.13721 1.04323 0.22847
 C704 C -0.16027 1.06202 0.24814
 H705 H -0.15783 1.07635 0.23744
 N706 N -0.15174 1.02497 0.25606
 C707 C -0.14354 0.95835 0.23167
 H708 H -0.12614 0.95840 0.22915
 C709 C -0.15529 0.93953 0.22729
 H710 H -0.14694 0.92496 0.22141
 C711 C -0.17559 0.97708 0.24331
 H712 H -0.18341 0.99171 0.24961
 C713 C -0.18798 0.95853 0.23917
 H714 H -0.20528 0.95884 0.24255
 Zn715 Zn -0.13550 0.99984 0.24815
 N716 N -0.15370 0.97643 0.24016
 C717 C -0.12140 0.97250 0.28507
 N718 N -0.11856 0.99221 0.27473
 C719 C -0.10486 1.00714 0.28416
 C720 C -0.09325 1.00241 0.30470
 C721 C -0.11013 0.96714 0.30558
 C722 C -0.12931 1.00861 0.20067
 C723 C -0.11835 1.01416 0.17994
 C724 C -0.08462 1.01294 0.20155
 C725 C -0.09626 1.00739 0.22197
 N726 N -0.11824 1.00568 0.22120
 H727 H -0.13280 0.96106 0.27783
 H728 H -0.10326 1.02286 0.27592
 H729 H -0.08257 1.01447 0.31228
 H730 H -0.11272 0.95154 0.31384
 H731 H -0.14677 1.00700 0.20059
 H732 H -0.12740 1.01665 0.16377
 H733 H -0.06713 1.01443 0.20229
 H734 H -0.08777 1.00470 0.23838
 C735 C -0.17763 0.93952 0.23149
 C736 C -0.17486 1.06219 0.26712
 C737 C -0.09584 1.01654 0.18042
 C738 C -0.09601 0.98225 0.31554
 C739 C 0.33377 0.52507 -0.22503
 H740 H 0.33195 0.51061 -0.21444
 C741 C 0.32191 0.54380 -0.21931
 H742 H 0.31080 0.54380 -0.20438
 C743 C 0.35067 0.54304 -0.25722
 H744 H 0.36216 0.54297 -0.27169
 C745 C 0.33923 0.56199 -0.25212
 H746 H 0.34176 0.57626 -0.26291
 N747 N 0.34753 0.52494 -0.24399
 C748 C 0.35610 0.45718 -0.26862
 H749 H 0.37346 0.45737 -0.27150
 C750 C 0.34485 0.43913 -0.27277
 H751 H 0.35310 0.42464 -0.27904
 C752 C 0.32438 0.47698 -0.25685
 H753 H 0.31656 0.49157 -0.25045
 C754 C 0.31129 0.45734 -0.26105
 H755 H 0.29405 0.45769 -0.25724
 Zn756 Zn 0.36363 0.49967 -0.25178
 N757 N 0.34535 0.47631 -0.25971
 C758 C 0.37769 0.47230 -0.21489
 N759 N 0.38054 0.49202 -0.22518
 C760 C 0.39424 0.50694 -0.21574
 C761 C 0.40587 0.50216 -0.19522
 C762 C 0.38898 0.46689 -0.19440
 C763 C 0.36993 0.50818 -0.29930
 C764 C 0.38094 0.51368 -0.32002
 C765 C 0.41461 0.51253 -0.29832
 C766 C 0.40293 0.50704 -0.27791
 N767 N 0.38095 0.50533 -0.27873
 H768 H 0.36629 0.46087 -0.22217
 H769 H 0.39586 0.52266 -0.22395
 H770 H 0.41657 0.51419 -0.18763
 H771 H 0.38640 0.45127 -0.18618
 H772 H 0.35247 0.50659 -0.29943
 H773 H 0.37199 0.51614 -0.33625
 H774 H 0.43208 0.51406 -0.29759
 H775 H 0.41138 0.50442 -0.26147
 C776 C 0.32125 0.43907 -0.26824
 C777 C 0.32465 0.56236 -0.23313
 C778 C 0.40344 0.51607 -0.31947
 C779 C 0.40312 0.48197 -0.18443
 C780 C 0.66830 -0.02624 -0.22731
 H781 H 0.66985 -0.01174 -0.21659
 C782 C 0.67968 -0.04410 -0.22193
 H783 H 0.69052 -0.04403 -0.20690
 C784 C 0.65119 -0.04367 -0.26013
 H785 H 0.63981 -0.04379 -0.27455
 C786 C 0.66338 -0.06359 -0.25493
 H787 H 0.66104 -0.07779 -0.26602
 N788 N 0.65393 -0.02626 -0.24734
 C789 C 0.64529 0.04047 -0.27029
 H790 H 0.62791 0.04028 -0.27273
 C791 C 0.65689 0.05942 -0.27441
 H792 H 0.64840 0.07391 -0.28003
 C793 C 0.67742 0.02197 -0.25912
 H794 H 0.68531 0.00737 -0.25308
 C795 C 0.68969 0.04065 -0.26299
 H796 H 0.70698 0.04042 -0.25968
 Zn797 Zn 0.63751 -0.00116 -0.25451
 N798 N 0.65555 0.02244 -0.26219
 C799 C 0.62313 0.02581 -0.21689
 N800 N 0.62053 0.00613 -0.22755
 C801 C 0.60693 -0.00898 -0.21831
 C802 C 0.59512 -0.00444 -0.19765
 C803 C 0.61164 0.03099 -0.19626
 C804 C 0.63107 -0.00961 -0.30214
 C805 C 0.61990 -0.01478 -0.32279
 C806 C 0.58634 -0.01341 -0.30048
 C807 C 0.59817 -0.00826 -0.28016
 N808 N 0.62016 -0.00679 -0.28133
 H809 H 0.63444 0.03741 -0.22402
 H810 H 0.60551 -0.02466 -0.22682
 H811 H 0.58446 -0.01661 -0.19027
 H812 H 0.61399 0.04660 -0.18778
 H813 H 0.64854 -0.00816 -0.30255
 H814 H 0.62875 -0.01716 -0.33925
 H815 H 0.56885 -0.01469 -0.29950
 H816 H 0.58980 -0.00562 -0.26354
 C817 C 0.67922 0.05963 -0.27031
 C818 C 0.67712 -0.06382 -0.23666
 C819 C 0.59738 -0.01686 -0.32192
 C820 C 0.59756 0.01572 -0.18653
 C821 C 0.02995 0.26526 0.83974
 H822 H 0.01969 0.27951 0.83900
 C823 C 0.04894 0.26422 0.82609
 H824 H 0.05331 0.27768 0.81479
 C825 C 0.03716 0.23054 0.85574
 H826 H 0.03279 0.21759 0.86762
 C827 C 0.05627 0.22885 0.84241
 H828 H 0.06640 0.21454 0.84396
 N829 N 0.02433 0.24848 0.85407
 C830 C -0.04593 0.25328 0.86443
 H831 H -0.04671 0.25264 0.88357
 C832 C -0.06503 0.25454 0.85132
 H833 H -0.08056 0.25488 0.86037
 C834 C -0.02478 0.25340 0.82923
 H835 H -0.00910 0.25268 0.82065
 C836 C -0.04353 0.25465 0.81542
 H837 H -0.04219 0.25504 0.79629
 Zn838 Zn -0.00131 0.25116 0.87285
 N839 N -0.02629 0.25299 0.85331
 C840 C -0.01361 0.29307 0.88944
 N841 N 0.00124 0.27682 0.89161
 C842 C 0.01865 0.27901 0.90616
 C843 C 0.02143 0.29800 0.91950
 C844 C -0.01144 0.31227 0.90244
 C845 C -0.00852 0.20710 0.88079
 C846 C -0.01089 0.18792 0.89360
 C847 C -0.00597 0.20835 0.92978
 C848 C -0.00369 0.22720 0.91628
 N849 N -0.00468 0.22619 0.89219
 H850 H -0.02702 0.29137 0.87738
 H851 H 0.03046 0.26605 0.90726
 H852 H 0.03535 0.29963 0.93097
 H853 H -0.02332 0.32511 0.90049
 H854 H -0.00950 0.20677 0.86167
 H855 H -0.01364 0.17278 0.88429
 H856 H -0.00489 0.20923 0.94891
 H857 H -0.00106 0.24255 0.92507
 C858 C -0.06384 0.25531 0.82658
 C859 C 0.06222 0.24582 0.82743
 C860 C -0.00948 0.18850 0.91831
 C861 C 0.00623 0.31480 0.91761
 C862 C 0.47083 0.26378 0.16013
 H863 H 0.48092 0.27808 0.16071
 C864 C 0.45197 0.26283 0.17398
 H865 H 0.44754 0.27641 0.18527
 C866 C 0.46396 0.22880 0.14436
 H867 H 0.46842 0.21570 0.13253
 C868 C 0.44498 0.22719 0.15790
 H869 H 0.43504 0.21281 0.15654
 N870 N 0.47657 0.24683 0.14583
 C871 C 0.54683 0.25200 0.13546
 H872 H 0.54771 0.25126 0.11632
 C873 C 0.56586 0.25354 0.14869
 H874 H 0.58142 0.25401 0.13972
 C875 C 0.52554 0.25205 0.17056
 H876 H 0.50985 0.25119 0.17906
 C877 C 0.54420 0.25359 0.18447
 H878 H 0.54276 0.25406 0.20360
 Zn879 Zn 0.50213 0.24942 0.12693
 N880 N 0.52715 0.25154 0.14647
 C881 C 0.51387 0.29122 0.11004
 N882 N 0.49916 0.27490 0.10819
 C883 C 0.48159 0.27682 0.09383
 C884 C 0.47850 0.29556 0.08033
 C885 C 0.51140 0.31019 0.09687
 C886 C 0.50964 0.20520 0.11856
 C887 C 0.51205 0.18602 0.10549
 C888 C 0.50704 0.20653 0.06959
 C889 C 0.50472 0.22536 0.08335
 N890 N 0.50571 0.22433 0.10742
 H891 H 0.52743 0.28974 0.12194
 H892 H 0.46991 0.26380 0.09296
 H893 H 0.46447 0.29693 0.06898
 H894 H 0.52318 0.32308 0.09855
 H895 H 0.51063 0.20484 0.13768
 H896 H 0.51485 0.17085 0.11458
 H897 H 0.50594 0.20745 0.05048
 H898 H 0.50203 0.24073 0.07475
 C899 C 0.56455 0.25443 0.17343
 C900 C 0.43893 0.24434 0.17288
 C901 C 0.51061 0.18664 0.08078
 C902 C 0.49357 0.31241 0.08186
 C903 C -0.02952 0.76483 0.66101
 H904 H -0.01937 0.77909 0.66156
 C905 C -0.04755 0.76396 0.67433
 H906 H -0.05194 0.77753 0.68566
 C907 C -0.03565 0.72966 0.64451
 H908 H -0.03132 0.71656 0.63264
 C909 C -0.05567 0.72799 0.65890
 H910 H -0.06554 0.71354 0.65747
 N911 N -0.02353 0.74689 0.64587
 C912 C 0.04670 0.75207 0.63531
 H913 H 0.04755 0.75131 0.61617
 C914 C 0.06573 0.75364 0.64852
 H915 H 0.08129 0.75410 0.63953
 C916 C 0.02543 0.75219 0.67043
 H917 H 0.00974 0.75136 0.67894
 C918 C 0.04410 0.75376 0.68431
 H919 H 0.04268 0.75427 0.70345
 Zn920 Zn 0.00198 0.74950 0.62687
 N921 N 0.02702 0.75164 0.64635
 C922 C 0.01366 0.79133 0.61004
 N923 N -0.00105 0.77501 0.60818
 C924 C -0.01865 0.77697 0.59386
 C925 C -0.02176 0.79574 0.58042
 C926 C 0.01117 0.81033 0.59693
 C927 C 0.00958 0.70530 0.61842
 C928 C 0.01197 0.68613 0.60534
 C929 C 0.00673 0.70662 0.56948
 C930 C 0.00443 0.72546 0.58324
 N931 N 0.00555 0.72442 0.60731
 H932 H 0.02724 0.78982 0.62190
 H933 H -0.03033 0.76396 0.59298
 H934 H -0.03581 0.79714 0.56910
 H935 H 0.02296 0.82321 0.59861
 H936 H 0.01067 0.70494 0.63754
 H937 H 0.01485 0.67097 0.61442
 H938 H 0.00552 0.70754 0.55037
 H939 H 0.00165 0.74081 0.57467
 C940 C 0.06444 0.75458 0.67325
 C941 C -0.06141 0.74445 0.67325
 C942 C 0.01039 0.68674 0.58064
 C943 C -0.00668 0.81258 0.58196
 C944 C 0.52997 0.76473 0.33828
 H945 H 0.51971 0.77897 0.33753
 C946 C 0.54898 0.76370 0.32464
 H947 H 0.55334 0.77715 0.31335
 C948 C 0.53720 0.73002 0.35432
 H949 H 0.53284 0.71708 0.36620
 C950 C 0.55632 0.72834 0.34100
 H951 H 0.56646 0.71405 0.34258
 N952 N 0.52436 0.74796 0.35262
 C953 C 0.45410 0.75275 0.36312
 H954 H 0.45336 0.75206 0.38226
 C955 C 0.43497 0.75408 0.35006
 H956 H 0.41946 0.75442 0.35916
 C957 C 0.47517 0.75294 0.32786
 H958 H 0.49083 0.75224 0.31924
 C959 C 0.45639 0.75426 0.31411
 H960 H 0.45769 0.75471 0.29497
 Zn961 Zn 0.49874 0.75064 0.37144
 N962 N 0.47371 0.75247 0.35195
 C963 C 0.48645 0.79256 0.38801
 N964 N 0.50131 0.77631 0.39017
 C965 C 0.51873 0.77853 0.40470
 C966 C 0.52151 0.79754 0.41802
 C967 C 0.48862 0.81178 0.40099
 C968 C 0.49155 0.70657 0.37945
 C969 C 0.48921 0.68741 0.39228
 C970 C 0.49416 0.70788 0.42842
 C971 C 0.49641 0.72672 0.41489
 N972 N 0.49539 0.72568 0.39081
 H973 H 0.47302 0.79084 0.37597
 H974 H 0.53054 0.76557 0.40580
 H975 H 0.53545 0.79917 0.42948
 H976 H 0.47673 0.82461 0.39904
 H977 H 0.49054 0.70622 0.36032
 H978 H 0.48646 0.67226 0.38300
 H979 H 0.49527 0.70878 0.44755
 H980 H 0.49905 0.74208 0.42366
 C981 C 0.43610 0.75492 0.32533
 C982 C 0.56228 0.74531 0.32602
 C983 C 0.49066 0.68801 0.41699
 C984 C 0.50630 0.81433 0.41613
 B985 B -0.01378 0.01274 1.01551
 B986 B -0.02580 0.00739 0.98978
 B987 B -0.00588 0.02556 0.99106
 B988 B 0.01279 0.01717 1.01073
 B989 B 0.00389 -0.00711 1.02156
 B990 B -0.02039 -0.01298 1.00857
 B991 B 0.01045 -0.01162 0.97400
 B992 B 0.02245 -0.00625 0.99970
 B993 B 0.00253 -0.02442 0.99846
 B994 B -0.01613 -0.01605 0.97876
 B995 B -0.00722 0.00825 0.96792
 B996 B 0.01705 0.01412 0.98092
 B997 B 0.48641 0.51245 0.51469
 B998 B 0.47450 0.50705 0.48891
 B999 B 0.49440 0.52523 0.49024
 B1000 B 0.51300 0.51690 0.51002
 B1001 B 0.50408 0.49262 0.52086
 B1002 B 0.47985 0.48671 0.50777
 B1003 B 0.51082 0.48804 0.47333
 B1004 B 0.52272 0.49347 0.49908
 B1005 B 0.50282 0.47527 0.49778
 B1006 B 0.48422 0.48360 0.47798
 B1007 B 0.49315 0.50788 0.46713
 B1008 B 0.51737 0.51380 0.48023
 B1009 B 0.51330 0.99063 0.51382
 B1010 B 0.52549 0.99597 0.48810
 B1011 B 0.50544 0.97794 0.48923
 B1012 B 0.48673 0.98640 0.50915
 B1013 B 0.49574 1.01059 0.52030
 B1014 B 0.52013 1.01632 0.50723
 B1015 B 0.48945 1.01528 0.47283
 B1016 B 0.47728 1.00992 0.49854
 B1017 B 0.49734 1.02795 0.49744
 B1018 B 0.51604 1.01950 0.47749
 B1019 B 0.50702 0.99530 0.46634
 B1020 B 0.48265 0.98956 0.47942
 B1021 B 0.01307 0.49117 1.01520
 B1022 B 0.02533 0.49646 0.98951
 B1023 B 0.00531 0.47840 0.99061
 B1024 B -0.01348 0.48688 1.01043
 B1025 B -0.00455 0.51112 1.02154
 B1026 B 0.01988 0.51686 1.00855
 B1027 B -0.01068 0.51567 0.97403
 B1028 B -0.02293 0.51036 0.99971
 B1029 B -0.00290 0.52842 0.99863
 B1030 B 0.01589 0.51995 0.97878
 B1031 B 0.00694 0.49571 0.96767
 B1032 B -0.01747 0.48996 0.98067
 B1033 B 0.01385 0.51100 0.48043
 B1034 B 0.02641 0.50597 0.50589
 B1035 B 0.00648 0.52428 0.50500
 B1036 B -0.01263 0.51573 0.48588
 B1037 B -0.00397 0.49118 0.47501
 B1038 B 0.02059 0.48533 0.48742
 B1039 B -0.00948 0.48752 0.52278
 B1040 B -0.02205 0.49256 0.49735
 B1041 B -0.00210 0.47426 0.49823
 B1042 B 0.01699 0.48280 0.51736
 B1043 B 0.00832 0.50734 0.52823
 B1044 B -0.01623 0.51320 0.51581
 B1045 B 0.51411 0.01113 -0.01990
 B1046 B 0.52651 0.00595 0.00562
 B1047 B 0.50666 0.02436 0.00467
 B1048 B 0.48763 0.01597 -0.01462
 B1049 B 0.49624 -0.00858 -0.02553
 B1050 B 0.52070 -0.01459 -0.01297
 B1051 B 0.49043 -0.01239 0.02218
 B1052 B 0.47804 -0.00720 -0.00331
 B1053 B 0.49789 -0.02559 -0.00237
 B1054 B 0.51691 -0.01721 0.01692
 B1055 B 0.50829 0.00733 0.02784
 B1056 B 0.48385 0.01334 0.01528
 B1057 B 0.48463 0.48705 -0.01802
 B1058 B 0.47229 0.49251 0.00767
 B1059 B 0.49227 0.47423 0.00650
 B1060 B 0.51117 0.48249 -0.01315
 B1061 B 0.50234 0.50681 -0.02405
 B1062 B 0.47788 0.51282 -0.01113
 B1063 B 0.50827 0.51136 0.02353
 B1064 B 0.52062 0.50588 -0.00214
 B1065 B 0.50064 0.52414 -0.00097
 B1066 B 0.48175 0.51591 0.01869
 B1067 B 0.49058 0.49159 0.02961
 B1068 B 0.51503 0.48558 0.01667
 B1069 B -0.01547 0.98743 0.48252
 B1070 B -0.02794 0.99288 0.50814
 B1071 B -0.00794 0.97461 0.50708
 B1072 B 0.01104 0.98289 0.48754
 B1073 B 0.00225 1.00721 0.47659
 B1074 B -0.02227 1.01320 0.48937
 B1075 B 0.00795 1.01176 0.52420
 B1076 B 0.02043 1.00629 0.49861
 B1077 B 0.00043 1.02454 0.49966
 B1078 B -0.01855 1.01629 0.51921
 B1079 B -0.00975 0.99198 0.53018
 B1080 B 0.01477 0.98598 0.51739
 B1081 B 0.76190 0.23551 0.23577
 B1082 B 0.75652 0.22364 0.26159
 B1083 B 0.77473 0.24351 0.26017
 B1084 B 0.76639 0.26209 0.24037
 B1085 B 0.74209 0.25319 0.22960
 B1086 B 0.73616 0.22899 0.24276
 B1087 B 0.73758 0.26001 0.27713
 B1088 B 0.74299 0.27186 0.25133
 B1089 B 0.72477 0.25199 0.25272
 B1090 B 0.73309 0.23342 0.27255
 B1091 B 0.75741 0.24233 0.28332
 B1092 B 0.76334 0.26651 0.27015
 B1093 B 0.74098 0.76338 0.73557
 B1094 B 0.74635 0.77595 0.76106
 B1095 B 0.72842 0.75580 0.76035
 B1096 B 0.73691 0.73686 0.74071
 B1097 B 0.76102 0.74584 0.72930
 B1098 B 0.76667 0.77044 0.74193
 B1099 B 0.76589 0.74024 0.77685
 B1100 B 0.76051 0.72768 0.75138
 B1101 B 0.77845 0.74784 0.75206
 B1102 B 0.76997 0.76678 0.77173
 B1103 B 0.74584 0.75779 0.78314
 B1104 B 0.74019 0.73321 0.77050
 B1105 B 0.26194 0.26450 0.76977
 B1106 B 0.25675 0.27694 0.74428
 B1107 B 0.27504 0.25697 0.74515
 B1108 B 0.26659 0.23799 0.76448
 B1109 B 0.24213 0.24675 0.77549
 B1110 B 0.23624 0.27126 0.76296
 B1111 B 0.23813 0.24099 0.72780
 B1112 B 0.24332 0.22855 0.75328
 B1113 B 0.22505 0.24853 0.75241
 B1114 B 0.23349 0.26749 0.73308
 B1115 B 0.25794 0.25872 0.72205
 B1116 B 0.26384 0.23423 0.73459
 B1117 B 0.23743 0.73531 0.26728
 B1118 B 0.24271 0.72285 0.24161
 B1119 B 0.22446 0.74286 0.24282
 B1120 B 0.23286 0.76183 0.26231
 B1121 B 0.25724 0.75302 0.27307
 B1122 B 0.26315 0.72850 0.26022
 B1123 B 0.26150 0.75876 0.22543
 B1124 B 0.25620 0.77121 0.25107
 B1125 B 0.27443 0.75121 0.24986
 B1126 B 0.26606 0.73225 0.23037
 B1127 B 0.24168 0.74107 0.21959
 B1128 B 0.23577 0.76557 0.23245
 B1129 B 0.26194 0.73604 0.73506
 B1130 B 0.25663 0.72414 0.76087
 B1131 B 0.27481 0.74403 0.75943
 B1132 B 0.26640 0.76262 0.73968
 B1133 B 0.24209 0.75370 0.72897
 B1134 B 0.23622 0.72948 0.74212
 B1135 B 0.23768 0.76047 0.77652
 B1136 B 0.24301 0.77235 0.75072
 B1137 B 0.22482 0.75246 0.75213
 B1138 B 0.23322 0.73387 0.77192
 B1139 B 0.25755 0.74280 0.78263
 B1140 B 0.26342 0.76701 0.76947
 B1141 B 0.24001 0.26266 0.23568
 B1142 B 0.24546 0.27520 0.26116
 B1143 B 0.22752 0.25505 0.26050
 B1144 B 0.23594 0.23613 0.24080
 B1145 B 0.26001 0.24511 0.22931
 B1146 B 0.26572 0.26969 0.24195
 B1147 B 0.26504 0.23946 0.27683
 B1148 B 0.25957 0.22693 0.25136
 B1149 B 0.27752 0.24708 0.25200
 B1150 B 0.26911 0.26600 0.27173
 B1151 B 0.24502 0.25701 0.28322
 B1152 B 0.23932 0.23245 0.27057
 B1153 B 0.76211 0.76410 0.26868
 B1154 B 0.75694 0.77651 0.24318
 B1155 B 0.77524 0.75657 0.24408
 B1156 B 0.76678 0.73759 0.26342
 B1157 B 0.74230 0.74634 0.27440
 B1158 B 0.73641 0.77083 0.26184
 B1159 B 0.73835 0.74055 0.22671
 B1160 B 0.74353 0.72813 0.25219
 B1161 B 0.72524 0.74809 0.25129
 B1162 B 0.73370 0.76705 0.23195
 B1163 B 0.75816 0.75829 0.22096
 B1164 B 0.76406 0.73381 0.23353
 B1165 B 0.73781 0.23440 0.76779
 B1166 B 0.74324 0.22199 0.74213
 B1167 B 0.72488 0.24190 0.74329
 B1168 B 0.73312 0.26090 0.76283
 B1169 B 0.75751 0.25221 0.77366
 B1170 B 0.76359 0.22774 0.76082
 B1171 B 0.76188 0.25801 0.72603
 B1172 B 0.75644 0.27042 0.75167
 B1173 B 0.77478 0.25051 0.75051
 B1174 B 0.76657 0.23152 0.73097
 B1175 B 0.74217 0.24021 0.72012
 B1176 B 0.73609 0.26468 0.73297
 C1177 C 0.43216 1.03438 0.37355
 N1178 N 0.42191 1.03482 0.39486
 N1179 N 0.43329 1.03541 0.41484
 C1180 C 0.45526 1.03569 0.41412
 N1181 N 0.46550 1.03549 0.39279
 N1182 N 0.45413 1.03489 0.37281
 C1183 C 0.42011 1.03028 0.35238
 C1184 C 0.40998 1.02552 0.33495
 C1185 C 0.46735 1.03176 0.43524
 C1186 C 0.47733 1.02609 0.45240
 C1187 C -0.06746 0.53445 0.87430
 N1188 N -0.07783 0.53495 0.89554
 N1189 N -0.06657 0.53559 0.91560
 C1190 C -0.04460 0.53586 0.91503
 N1191 N -0.03423 0.53559 0.89377
 N1192 N -0.04549 0.53494 0.87371
 C1193 C -0.07939 0.53031 0.85306
 C1194 C -0.08944 0.52553 0.83558
 C1195 C -0.03263 0.53200 0.93625
 C1196 C -0.02274 0.52641 0.95350
 C1197 C 0.06725 -0.03125 0.87337
 N1198 N 0.07771 -0.03112 0.89442
 N1199 N 0.06654 -0.03139 0.91469
 C1200 C 0.04457 -0.03193 0.91450
 N1201 N 0.03412 -0.03227 0.89343
 N1202 N 0.04528 -0.03199 0.87317
 C1203 C 0.07909 -0.02790 0.85180
 C1204 C 0.08910 -0.02399 0.83397
 C1205 C 0.03262 -0.02793 0.93590
 C1206 C 0.02269 -0.02231 0.95329
 C1207 C 0.56770 0.46835 0.37278
 N1208 N 0.57817 0.46861 0.39384
 N1209 N 0.56701 0.46834 0.41411
 C1210 C 0.54505 0.46767 0.41394
 N1211 N 0.53459 0.46720 0.39288
 N1212 N 0.54574 0.46748 0.37260
 C1213 C 0.57951 0.47170 0.35120
 C1214 C 0.58950 0.47561 0.33335
 C1215 C 0.53309 0.47169 0.43533
 C1216 C 0.52313 0.47733 0.45269
 C1217 C 0.56573 0.53350 0.12252
 N1218 N 0.54377 0.53303 0.12349
 N1219 N 0.53221 0.53267 0.10362
 C1220 C 0.54226 0.53284 0.08219
 N1221 N 0.56422 0.53352 0.08123
 N1222 N 0.57577 0.53389 0.10110
 C1223 C 0.57815 0.53043 0.14361
 C1224 C 0.58865 0.52647 0.16098
 C1225 C 0.53017 0.52821 0.06121
 C1226 C 0.52027 0.52220 0.04411
 C1227 C 0.06526 1.03394 0.62330
 N1228 N 0.04330 1.03332 0.62426
 N1229 N 0.03175 1.03294 0.60440
 C1230 C 0.04179 1.03326 0.58297
 N1231 N 0.06374 1.03410 0.58201
 N1232 N 0.07529 1.03447 0.60187
 C1233 C 0.07771 1.03088 0.64437
 C1234 C 0.08824 1.02692 0.66172
 C1235 C 0.02973 1.02862 0.56197
 C1236 C 0.01987 1.02260 0.54484
 C1237 C -0.06545 0.46785 0.62394
 N1238 N -0.04347 0.46790 0.62411
 N1239 N -0.03231 0.46788 0.60382
 C1240 C -0.04279 0.46771 0.58277
 N1241 N -0.06477 0.46748 0.58261
 N1242 N -0.07593 0.46749 0.60289
 C1243 C -0.07741 0.47078 0.64556
 C1244 C -0.08756 0.47430 0.66347
 C1245 C -0.03102 0.47171 0.56132
 C1246 C -0.02131 0.47721 0.54382
 C1247 C 0.43357 -0.03241 0.12267
 N1248 N 0.45554 -0.03254 0.12306
 N1249 N 0.46687 -0.03247 0.10289
 C1250 C 0.45656 -0.03237 0.08173
 N1251 N 0.43458 -0.03244 0.08136
 N1252 N 0.42326 -0.03251 0.10152
 C1253 C 0.42145 -0.02958 0.14420
 C1254 C 0.41121 -0.02613 0.16207
 C1255 C 0.46854 -0.02829 0.06044
 C1256 C 0.47841 -0.02274 0.04307
 C1257 C 0.36749 0.45804 0.02272
 N1258 N 0.37223 0.47371 0.00677
 N1259 N 0.39240 0.48114 0.00472
 C1260 C 0.40842 0.47307 0.01849
 N1261 N 0.40367 0.45745 0.03449
 N1262 N 0.38350 0.45002 0.03654
 C1263 C 0.34635 0.44858 0.02330
 C1264 C 0.32897 0.43979 0.02292
 C1265 C 0.43031 0.48008 0.01525
 C1266 C 0.44876 0.48567 0.01212
 C1267 C -0.13273 0.95811 0.52223
 N1268 N -0.12789 0.97371 0.50623
 N1269 N -0.10774 0.98122 0.50439
 C1270 C -0.09183 0.97331 0.51843
 N1271 N -0.09669 0.95777 0.53448
 N1272 N -0.11684 0.95025 0.53633
 C1273 C -0.15384 0.94855 0.52261
 C1274 C -0.17117 0.93968 0.52207
 C1275 C -0.06994 0.98039 0.51540
 C1276 C -0.05148 0.98602 0.51243
 C1277 C -0.13013 0.04387 0.97587
 N1278 N -0.11340 0.05414 0.96507
 N1279 N -0.09334 0.04620 0.96648
 C1280 C -0.08939 0.02782 0.97881
 N1281 N -0.10612 0.01749 0.98951
 N1282 N -0.12619 0.02542 0.98811
 C1283 C -0.15108 0.05390 0.97700
 C1284 C -0.16820 0.06311 0.97945
 C1285 C -0.06762 0.02034 0.98200
 C1286 C -0.04926 0.01444 0.98521
 C1287 C 0.37027 0.54362 0.47453
 N1288 N 0.38705 0.55387 0.46380
 N1289 N 0.40709 0.54590 0.46529
 C1290 C 0.41097 0.52750 0.47764
 N1291 N 0.39418 0.51720 0.48827
 N1292 N 0.37413 0.52517 0.48678
 C1293 C 0.34933 0.55369 0.47557
 C1294 C 0.33222 0.56291 0.47794
 C1295 C 0.43271 0.51999 0.48092
 C1296 C 0.45106 0.51408 0.48422
 C1297 C 0.13118 0.54097 0.51865
 N1298 N 0.11551 0.54794 0.53384
 N1299 N 0.09538 0.54035 0.53215
 C1300 C 0.09034 0.52563 0.51515
 N1301 N 0.10603 0.51861 0.50001
 N1302 N 0.12615 0.52620 0.50171
 C1303 C 0.15223 0.55065 0.51904
 C1304 C 0.16951 0.55964 0.51858
 C1305 C 0.06845 0.51849 0.51239
 C1306 C 0.04999 0.51283 0.50972
 C1307 C 0.63140 0.04040 0.01896
 N1308 N 0.62634 0.02572 0.00193
 N1309 N 0.60619 0.01822 0.00015
 C1310 C 0.59050 0.02525 0.01528
 N1311 N 0.59557 0.03989 0.03236
 N1312 N 0.61572 0.04738 0.03415
 C1313 C 0.65248 0.05001 0.01943
 C1314 C 0.66978 0.05896 0.01903
 C1315 C 0.56858 0.01824 0.01241
 C1316 C 0.55010 0.01268 0.00963
 C1317 C 0.62942 0.95772 0.47536
 N1318 N 0.61277 0.94759 0.46437
 N1319 N 0.59283 0.95595 0.46534
 C1320 C 0.58896 0.97464 0.47741
 N1321 N 0.60562 0.98483 0.48831
 N1322 N 0.62555 0.97647 0.48733
 C1323 C 0.65015 0.94732 0.47691
 C1324 C 0.66706 0.93787 0.47962
 C1325 C 0.56725 0.98253 0.48030
 C1326 C 0.54892 0.98870 0.48340
 C1327 C 0.12935 0.45841 0.97684
 N1328 N 0.11275 0.44839 0.96564
 N1329 N 0.09280 0.45671 0.96665
 C1330 C 0.08886 0.47525 0.97896
 N1331 N 0.10547 0.48534 0.99006
 N1332 N 0.12542 0.47701 0.98905
 C1333 C 0.15009 0.44802 0.97833
 C1334 C 0.16700 0.43857 0.98099
 C1335 C 0.06713 0.48309 0.98184
 C1336 C 0.04879 0.48923 0.98490
 C1337 C -0.00819 0.36896 0.45987
 N1338 N 0.00827 0.37542 0.47406
 N1339 N 0.00807 0.39514 0.48387
 C1340 C -0.00864 0.40900 0.47990
 N1341 N -0.02515 0.40250 0.46578
 N1342 N -0.02495 0.38279 0.45597
 C1343 C -0.00722 0.34832 0.44789
 C1344 C -0.00626 0.33128 0.43728
 C1345 C -0.00760 0.43105 0.48820
 C1346 C -0.00587 0.44989 0.49377
 C1347 C 0.49179 -0.13070 -0.04127
 N1348 N 0.47515 -0.11680 -0.04535
 N1349 N 0.47491 -0.09712 -0.03544
 C1350 C 0.49126 -0.09076 -0.02105
 N1351 N 0.50786 -0.10470 -0.01690
 N1352 N 0.50811 -0.12437 -0.02681
 C1353 C 0.49283 -0.15129 -0.05335
 C1354 C 0.49386 -0.16829 -0.06404
 C1355 C 0.49230 -0.06874 -0.01263
 C1356 C 0.49405 -0.04993 -0.00697
 C1357 C 0.00824 -0.12842 1.03980
 N1358 N 0.02485 -0.11449 1.04365
 N1359 N 0.02516 -0.09516 1.03319
 C1360 C 0.00893 -0.08916 1.01845
 N1361 N -0.00763 -0.10312 1.01453
 N1362 N -0.00795 -0.12245 1.02499
 C1363 C 0.00708 -0.14858 1.05248
 C1364 C 0.00586 -0.16520 1.06365
 C1365 C 0.00794 -0.06739 1.00946
 C1366 C 0.00624 -0.04872 1.00339
 C1367 C 0.50895 0.37125 0.53910
 N1368 N 0.52551 0.38524 0.54291
 N1369 N 0.52571 0.40459 0.53248
 C1370 C 0.50941 0.41055 0.51783
 N1371 N 0.49289 0.39653 0.51395
 N1372 N 0.49268 0.37718 0.52438
 C1373 C 0.50792 0.35105 0.55173
 C1374 C 0.50681 0.33440 0.56286
 C1375 C 0.50831 0.43232 0.50885
 C1376 C 0.50656 0.45098 0.50276
 C1377 C 0.49174 1.13226 0.53935
 N1378 N 0.50823 1.12600 0.52482
 N1379 N 0.50798 1.10656 0.51435
 C1380 C 0.49119 1.09280 0.51800
 N1381 N 0.47467 1.09910 0.53247
 N1382 N 0.47492 1.11853 0.54294
 C1383 C 0.49273 1.15260 0.55194
 C1384 C 0.49371 1.16940 0.56299
 C1385 C 0.49214 1.07097 0.50891
 C1386 C 0.49376 1.05227 0.50269
 C1387 C -0.00882 0.63275 1.04038
 N1388 N -0.02566 0.61902 1.04384
 N1389 N -0.02584 0.59958 1.03338
 C1390 C -0.00923 0.59329 1.01903
 N1391 N 0.00758 0.60705 1.01551
 N1392 N 0.00776 0.62649 1.02596
 C1393 C -0.00792 0.65309 1.05297
 C1394 C -0.00700 0.66989 1.06403
 C1395 C -0.00821 0.57145 1.00998
 C1396 C -0.00653 0.55275 1.00380
 C1397 C 0.50772 0.62881 -0.04011
 N1398 N 0.52437 0.61477 -0.04399
 N1399 N 0.52430 0.59520 -0.03405
 C1400 C 0.50761 0.58907 -0.01986
 N1401 N 0.49100 0.60315 -0.01592
 N1402 N 0.49107 0.62272 -0.02585
 C1403 C 0.50696 0.64921 -0.05234
 C1404 C 0.50607 0.66599 -0.06323
 C1405 C 0.50630 0.56716 -0.01142
 C1406 C 0.50441 0.54843 -0.00571
 C1407 C 0.00739 1.12923 0.46054
 N1408 N 0.02406 1.11521 0.45667
 N1409 N 0.02402 1.09564 0.46660
 C1410 C 0.00735 1.08949 0.48079
 N1411 N -0.00928 1.10354 0.48474
 N1412 N -0.00924 1.12311 0.47481
 C1413 C 0.00660 1.14962 0.44831
 C1414 C 0.00569 1.16640 0.43740
 C1415 C 0.00606 1.06757 0.48923
 C1416 C 0.00420 1.04883 0.49493
 C1417 C 0.78545 0.68384 0.87662
 N1418 N 0.78628 0.67350 0.85537
 N1419 N 0.78682 0.68478 0.83533
 C1420 C 0.78664 0.70676 0.83591
 N1421 N 0.78606 0.71710 0.85717
 N1422 N 0.78551 0.70581 0.87722
 C1423 C 0.78133 0.67182 0.89780
 C1424 C 0.77653 0.66168 0.91522
 C1425 C 0.78261 0.71867 0.81468
 C1426 C 0.77684 0.72843 0.79742
 C1427 C 0.28520 0.18314 0.37653
 N1428 N 0.28587 0.17277 0.35530
 N1429 N 0.28627 0.18403 0.33523
 C1430 C 0.28612 0.20600 0.33578
 N1431 N 0.28569 0.21637 0.35702
 N1432 N 0.28529 0.20512 0.37710
 C1433 C 0.28121 0.17115 0.39776
 C1434 C 0.27649 0.16105 0.41523
 C1435 C 0.28194 0.21788 0.31457
 C1436 C 0.27607 0.22764 0.29734
 C1437 C 0.71806 0.31707 0.37760
 N1438 N 0.71832 0.32752 0.35653
 N1439 N 0.71804 0.31633 0.33628
 C1440 C 0.71736 0.29436 0.33650
 N1441 N 0.71690 0.28393 0.35758
 N1442 N 0.71719 0.29512 0.37783
 C1443 C 0.72139 0.32892 0.39916
 C1444 C 0.72525 0.33894 0.41700
 C1445 C 0.72133 0.28237 0.31512
 C1446 C 0.72693 0.27237 0.29777
 C1447 C 0.21816 0.81751 0.87703
 N1448 N 0.21739 0.79555 0.87728
 N1449 N 0.21712 0.78435 0.85703
 C1450 C 0.21750 0.79477 0.83594
 N1451 N 0.21807 0.81674 0.83570
 N1452 N 0.21834 0.82794 0.85594
 C1453 C 0.22146 0.82939 0.89857
 C1454 C 0.22531 0.83944 0.91639
 C1455 C 0.22147 0.78278 0.81456
 C1456 C 0.22706 0.77280 0.79720
 C1457 C 0.28280 0.81633 0.12626
 N1458 N 0.28213 0.79438 0.12523
 N1459 N 0.28195 0.78276 0.14506
 C1460 C 0.28251 0.79273 0.16652
 N1461 N 0.28339 0.81468 0.16754
 N1462 N 0.28357 0.82630 0.14771
 C1463 C 0.27954 0.82886 0.10527
 C1464 C 0.27542 0.83946 0.08800
 C1465 C 0.27807 0.78061 0.18753
 C1466 C 0.27220 0.77071 0.20471
 C1467 C 0.78293 0.31573 0.62694
 N1468 N 0.78362 0.32570 0.64839
 N1469 N 0.78351 0.31407 0.66822
 C1470 C 0.78278 0.29212 0.66719
 N1471 N 0.78231 0.28215 0.64573
 N1472 N 0.78242 0.29378 0.62590
 C1473 C 0.77961 0.32824 0.60595
 C1474 C 0.77545 0.33881 0.58868
 C1475 C 0.77840 0.27997 0.68820
 C1476 C 0.77256 0.27002 0.70535
 C1477 C 0.21771 0.18440 0.62732
 N1478 N 0.21758 0.17405 0.64846
 N1479 N 0.21768 0.18534 0.66864
 C1480 C 0.21780 0.20732 0.66831
 N1481 N 0.21774 0.21766 0.64717
 N1482 N 0.21765 0.20638 0.62698
 C1483 C 0.22060 0.17232 0.60579
 C1484 C 0.22412 0.16211 0.58792
 C1485 C 0.22198 0.21924 0.68961
 C1486 C 0.22763 0.22905 0.70696
 C1487 C 0.71787 0.68400 0.12618
 N1488 N 0.71782 0.67363 0.14730
 N1489 N 0.71795 0.68490 0.16750
 C1490 C 0.71804 0.70687 0.16719
 N1491 N 0.71790 0.71724 0.14607
 N1492 N 0.71777 0.70598 0.12587
 C1493 C 0.72071 0.67195 0.10462
 C1494 C 0.72420 0.66176 0.08673
 C1495 C 0.72223 0.71878 0.18850
 C1496 C 0.72787 0.72860 0.20586
 C1497 C 0.20777 0.61808 0.22772
 N1498 N 0.20013 0.63392 0.21341
 N1499 N 0.20767 0.65406 0.21524
 C1500 C 0.22301 0.65897 0.23149
 N1501 N 0.23070 0.64312 0.24575
 N1502 N 0.22317 0.62297 0.24392
 C1503 C 0.19823 0.59696 0.22726
 C1504 C 0.18939 0.57960 0.22768
 C1505 C 0.23013 0.68086 0.23447
 C1506 C 0.23581 0.69931 0.23738
 C1507 C 0.70867 0.11709 0.72828
 N1508 N 0.70127 0.13283 0.71368
 N1509 N 0.70878 0.15299 0.71548
 C1510 C 0.72385 0.15801 0.73199
 N1511 N 0.73129 0.14227 0.74655
 N1512 N 0.72379 0.12211 0.74474
 C1513 C 0.69909 0.09599 0.72786
 C1514 C 0.69019 0.07866 0.72831
 C1515 C 0.73088 0.17993 0.73495
 C1516 C 0.73647 0.19841 0.73787
 C1517 C 0.79348 0.11955 0.27570
 N1518 N 0.80357 0.13632 0.28659
 N1519 N 0.79547 0.15633 0.28521
 C1520 C 0.77710 0.16015 0.27282
 N1521 N 0.76694 0.14337 0.26203
 N1522 N 0.77504 0.12336 0.26341
 C1523 C 0.80371 0.09870 0.27450
 C1524 C 0.81308 0.08168 0.27200
 C1525 C 0.76949 0.18188 0.26958
 C1526 C 0.76355 0.20021 0.26630
 C1527 C 0.29336 0.61996 0.77514
 N1528 N 0.27489 0.62380 0.76293
 N1529 N 0.26687 0.64384 0.76148
 C1530 C 0.27716 0.66063 0.77210
 N1531 N 0.29558 0.65677 0.78441
 N1532 N 0.30359 0.63674 0.78586
 C1533 C 0.30347 0.59904 0.77404
 C1534 C 0.31273 0.58195 0.77163
 C1535 C 0.26961 0.68236 0.76884
 C1536 C 0.26368 0.70070 0.76556
 C1537 C 0.29181 0.38161 0.73071
 N1538 N 0.29912 0.36575 0.71593
 N1539 N 0.29154 0.34564 0.71777
 C1540 C 0.27648 0.34078 0.73448
 N1541 N 0.26912 0.35664 0.74922
 N1542 N 0.27670 0.37675 0.74738
 C1543 C 0.30142 0.40268 0.73019
 C1544 C 0.31031 0.42001 0.73053
 C1545 C 0.26933 0.31892 0.73741
 C1546 C 0.26364 0.30048 0.74024
 C1547 C 0.79202 0.88117 0.22969
 N1548 N 0.79952 0.86528 0.21509
 N1549 N 0.79192 0.84517 0.21687
 C1550 C 0.77664 0.84036 0.23336
 N1551 N 0.76908 0.85626 0.24791
 N1552 N 0.77669 0.87637 0.24613
 C1553 C 0.80169 0.90222 0.22932
 C1554 C 0.81065 0.91951 0.22983
 C1555 C 0.76949 0.81849 0.23628
 C1556 C 0.76381 0.80005 0.23911
 C1557 C 0.70820 0.88008 0.77254
 N1558 N 0.72688 0.87604 0.76051
 N1559 N 0.73517 0.85607 0.75971
 C1560 C 0.72498 0.83954 0.77086
 N1561 N 0.70635 0.84359 0.78298
 N1562 N 0.69806 0.86356 0.78377
 C1563 C 0.69787 0.90084 0.77083
 C1564 C 0.68847 0.91776 0.76801
 C1565 C 0.73282 0.81779 0.76824
 C1566 C 0.73900 0.79943 0.76540
 C1567 C 0.20725 0.37930 0.27259
 N1568 N 0.22600 0.37528 0.26067
 N1569 N 0.23430 0.35532 0.25990
 C1570 C 0.22405 0.33877 0.27095
 N1571 N 0.20536 0.34280 0.28296
 N1572 N 0.19706 0.36276 0.28374
 C1573 C 0.19698 0.40009 0.27094
 C1574 C 0.18765 0.41707 0.26822
 C1575 C 0.23193 0.31702 0.26837
 C1576 C 0.23812 0.29867 0.26554
 C1577 C 0.11991 0.24264 0.79145
 N1578 N 0.12631 0.25905 0.77715
 N1579 N 0.14599 0.25881 0.76725
 C1580 C 0.15987 0.24212 0.77125
 N1581 N 0.15344 0.22568 0.78549
 N1582 N 0.13376 0.22591 0.79539
 C1583 C 0.09930 0.24363 0.80350
 C1584 C 0.08227 0.24462 0.81415
 C1585 C 0.18189 0.24312 0.76281
 C1586 C 0.20070 0.24482 0.75710
 C1587 C 0.62004 0.74217 0.29017
 N1588 N 0.62646 0.75858 0.27588
 N1589 N 0.64616 0.75835 0.26602
 C1590 C 0.66004 0.74167 0.27005
 N1591 N 0.65359 0.72523 0.28428
 N1592 N 0.63389 0.72545 0.29414
 C1593 C 0.59940 0.74316 0.30217
 C1594 C 0.58235 0.74413 0.31278
 C1595 C 0.68208 0.74268 0.26164
 C1596 C 0.70089 0.74437 0.25596
 C1597 C 0.62084 0.25812 0.21123
 N1598 N 0.63481 0.27471 0.20749
 N1599 N 0.65413 0.27492 0.21798
 C1600 C 0.66007 0.25860 0.23263
 N1601 N 0.64607 0.24205 0.23644
 N1602 N 0.62675 0.24184 0.22595
 C1603 C 0.60069 0.25707 0.19852
 C1604 C 0.58408 0.25594 0.18732
 C1605 C 0.68183 0.25751 0.24166
 C1606 C 0.70048 0.25575 0.24776
 C1607 C 0.12079 0.75839 0.71095
 N1608 N 0.13471 0.77502 0.70718
 N1609 N 0.15406 0.77527 0.71762
 C1610 C 0.16007 0.75896 0.73225
 N1611 N 0.14610 0.74238 0.73609
 N1612 N 0.12676 0.74213 0.72565
 C1613 C 0.10061 0.75730 0.69828
 C1614 C 0.08399 0.75614 0.68712
 C1615 C 0.18184 0.75791 0.74121
 C1616 C 0.20052 0.75619 0.74725
 C1617 C 0.88271 0.74195 0.70994
 N1618 N 0.86910 0.72494 0.70690
 N1619 N 0.84967 0.72482 0.71741
 C1620 C 0.84328 0.74166 0.73139
 N1621 N 0.85693 0.75863 0.73449
 N1622 N 0.87635 0.75875 0.72398
 C1623 C 0.90304 0.74274 0.69731
 C1624 C 0.91983 0.74353 0.68621
 C1625 C 0.82146 0.74267 0.74051
 C1626 C 0.80277 0.74431 0.74677
 C1627 C 0.38185 0.24137 0.21001
 N1628 N 0.36810 0.22455 0.20647
 N1629 N 0.34865 0.22437 0.21690
 C1630 C 0.34235 0.24094 0.23129
 N1631 N 0.35613 0.25772 0.23490
 N1632 N 0.37558 0.25791 0.22447
 C1633 C 0.40223 0.24227 0.19748
 C1634 C 0.41907 0.24319 0.18648
 C1635 C 0.32052 0.24192 0.24039
 C1636 C 0.30183 0.24355 0.24665
 C1637 C 0.37923 0.75799 0.28860
 N1638 N 0.37304 0.74135 0.27439
 N1639 N 0.35346 0.74136 0.26450
 C1640 C 0.33946 0.75804 0.26843
 N1641 N 0.34568 0.77472 0.28257
 N1642 N 0.36527 0.77471 0.29246
 C1643 C 0.39964 0.75716 0.30080
 C1644 C 0.41643 0.75622 0.31167
 C1645 C 0.31751 0.75680 0.26006
 C1646 C 0.29875 0.75496 0.25444
 C1647 C 0.87939 0.25801 0.78964
 N1648 N 0.87337 0.24133 0.77541
 N1649 N 0.85382 0.24119 0.76544
 C1650 C 0.83970 0.25777 0.76931
 N1651 N 0.84575 0.27450 0.78347
 N1652 N 0.86530 0.27464 0.79344
 C1653 C 0.89976 0.25733 0.80192
 C1654 C 0.91652 0.25649 0.81286
 C1655 C 0.81779 0.25637 0.76086
 C1656 C 0.79906 0.25440 0.75517
 C1657 C 0.56573 0.97123 0.61631
 N1658 N 0.57728 0.97152 0.59580
 N1659 N 0.56720 0.97117 0.57500
 C1660 C 0.54526 0.97039 0.57407
 N1661 N 0.53372 0.96990 0.59459
 N1662 N 0.54380 0.97026 0.61540
 C1663 C 0.57645 0.97444 0.63849
 C1664 C 0.58575 0.97809 0.65678
 C1665 C 0.53438 0.97429 0.55216
 C1666 C 0.52513 0.97988 0.53450
 C1667 C 0.06552 0.47182 1.11776
 N1668 N 0.04358 0.47103 1.11689
 N1669 N 0.03346 0.47072 1.09609
 C1670 C 0.04498 0.47106 1.07556
 N1671 N 0.06693 0.47166 1.07644
 N1672 N 0.07704 0.47197 1.09723
 C1673 C 0.07630 0.47496 1.13992
 C1674 C 0.08565 0.47854 1.15820
 C1675 C 0.03410 0.47494 1.05364
 C1676 C 0.02486 0.48049 1.03595
 C1677 C -0.06558 0.02987 1.11949
 N1678 N -0.07736 0.02969 1.09928
 N1679 N -0.06754 0.03064 1.07823
 C1680 C -0.04564 0.03195 1.07677
 N1681 N -0.03388 0.03235 1.09700
 N1682 N -0.04370 0.03139 1.11805
 C1683 C -0.07597 0.02600 1.14182
 C1684 C -0.08504 0.02182 1.16018
 C1685 C -0.03493 0.02855 1.05449
 C1686 C -0.02572 0.02327 1.03651
 C1687 C 0.43432 0.52966 0.61847
 N1688 N 0.42258 0.52929 0.59823
 N1689 N 0.43244 0.53022 0.57720
 C1690 C 0.45433 0.53172 0.57578
 N1691 N 0.46604 0.53230 0.59604
 N1692 N 0.45619 0.53136 0.61707
 C1693 C 0.42392 0.52582 0.64080
 C1694 C 0.41486 0.52166 0.65917
 C1695 C 0.46511 0.52830 0.55355
 C1696 C 0.47438 0.52301 0.53561
 C1697 C 0.43294 0.47006 -0.12157
 N1698 N 0.45476 0.46758 -0.12032
 N1699 N 0.46454 0.46674 -0.09935
 C1700 C 0.45280 0.46820 -0.07901
 N1701 N 0.43096 0.47050 -0.08028
 N1702 N 0.42118 0.47134 -0.10124
 C1703 C 0.42269 0.47348 -0.14398
 C1704 C 0.41393 0.47713 -0.16257
 C1705 C 0.46360 0.47150 -0.05690
 C1706 C 0.47284 0.47664 -0.03901
 C1707 C -0.06648 0.97043 0.37858
 N1708 N -0.04467 0.96801 0.38000
 N1709 N -0.03503 0.96717 0.40104
 C1710 C -0.04690 0.96857 0.42129
 N1711 N -0.06873 0.97081 0.41985
 N1712 N -0.07838 0.97165 0.39882
 C1713 C -0.07660 0.97383 0.35609
 C1714 C -0.08527 0.97746 0.33745
 C1715 C -0.03625 0.97187 0.44349
 C1716 C -0.02713 0.97701 0.46145
 C1717 C 0.06567 0.52722 0.37618
 N1718 N 0.04380 0.52916 0.37757
 N1719 N 0.03389 0.53001 0.39859
 C1720 C 0.04556 0.52910 0.41886
 N1721 N 0.06744 0.52733 0.41746
 N1722 N 0.07736 0.52648 0.39644
 C1723 C 0.07613 0.52389 0.35370
 C1724 C 0.08509 0.52036 0.33504
 C1725 C 0.03472 0.52597 0.44109
 C1726 C 0.02552 0.52104 0.45912
 C1727 C 0.56678 0.02731 -0.12363
 N1728 N 0.54492 0.02943 -0.12244
 N1729 N 0.53486 0.03030 -0.10150
 C1730 C 0.54636 0.02924 -0.08113
 N1731 N 0.56824 0.02730 -0.08234
 N1732 N 0.57831 0.02642 -0.10327
 C1733 C 0.57739 0.02395 -0.14603
 C1734 C 0.58643 0.02040 -0.16463
 C1735 C 0.53533 0.02612 -0.05901
 C1736 C 0.52597 0.02119 -0.04108
 C1737 C 0.62536 0.54133 -0.01442
 N1738 N 0.62044 0.52524 0.00096
 N1739 N 0.60030 0.51760 0.00231
 C1740 C 0.58450 0.52584 -0.01165
 N1741 N 0.58942 0.54189 -0.02707
 N1742 N 0.60956 0.54953 -0.02842
 C1743 C 0.64653 0.55076 -0.01449
 C1744 C 0.66400 0.55936 -0.01388
 C1745 C 0.56260 0.51858 -0.00910
 C1746 C 0.54415 0.51281 -0.00641
 C1747 C 0.12533 1.04130 0.48644
 N1748 N 0.12026 1.02549 0.50209
 N1749 N 0.10008 1.01797 0.50348
 C1750 C 0.08438 1.02607 0.48929
 N1751 N 0.08946 1.04184 0.47359
 N1752 N 0.10964 1.04936 0.47220
 C1753 C 0.14656 1.05061 0.48629
 C1754 C 0.16407 1.05914 0.48682
 C1755 C 0.06246 1.01891 0.49181
 C1756 C 0.04398 1.01320 0.49445
 C1757 C 0.12758 -0.04026 1.01436
 N1758 N 0.11178 -0.04765 1.02900
 N1759 N 0.09151 -0.04041 1.02697
 C1760 C 0.08643 -0.02562 1.01019
 N1761 N 0.10224 -0.01818 0.99559
 N1762 N 0.12252 -0.02542 0.99762
 C1763 C 0.14892 -0.04942 1.01521
 C1764 C 0.16651 -0.05794 1.01524
 C1765 C 0.06446 -0.01873 1.00713
 C1766 C 0.04597 -0.01316 1.00413
 C1767 C 0.62771 0.45934 0.51452
 N1768 N 0.61180 0.45199 0.52904
 N1769 N 0.59155 0.45927 0.52685
 C1770 C 0.58662 0.47407 0.51002
 N1771 N 0.60254 0.48146 0.49554
 N1772 N 0.62278 0.47418 0.49773
 C1773 C 0.64902 0.45013 0.51552
 C1774 C 0.66659 0.44157 0.51568
 C1775 C 0.56468 0.48099 0.50678
 C1776 C 0.54622 0.48657 0.50364
 C1777 C -0.12757 0.45873 0.48833
 N1778 N -0.12236 0.47601 0.50207
 N1779 N -0.10201 0.48313 0.50279
 C1780 C -0.08628 0.47316 0.48981
 N1781 N -0.09150 0.45591 0.47602
 N1782 N -0.11185 0.44879 0.47531
 C1783 C -0.14910 0.45012 0.48885
 C1784 C -0.16694 0.44233 0.48991
 C1785 C -0.06422 0.48008 0.49164
 C1786 C -0.04567 0.48567 0.49375
 C1787 C 0.37242 -0.04067 -0.01262
 N1788 N 0.37767 -0.02335 0.00105
 N1789 N 0.39803 -0.01627 0.00176
 C1790 C 0.41375 -0.02633 -0.01114
 N1791 N 0.40851 -0.04362 -0.02485
 N1792 N 0.38814 -0.05069 -0.02557
 C1793 C 0.35088 -0.04924 -0.01206
 C1794 C 0.33303 -0.05701 -0.01097
 C1795 C 0.43583 -0.01949 -0.00927
 C1796 C 0.45440 -0.01397 -0.00708
 C1797 C 0.37157 1.04275 0.51323
 N1798 N 0.38774 1.05410 0.52366
 N1799 N 0.40822 1.04736 0.52178
 C1800 C 0.41314 1.02910 0.50936
 N1801 N 0.39697 1.01772 0.49898
 N1802 N 0.37648 1.02446 0.50086
 C1803 C 0.34980 1.05090 0.51373
 C1804 C 0.33173 1.05833 0.51336
 C1805 C 0.43523 1.02245 0.50628
 C1806 C 0.45377 1.01694 0.50319
 C1807 C -0.12872 0.54321 1.01363
 N1808 N -0.11262 0.55451 1.02425
 N1809 N -0.09213 0.54775 1.02254
 C1810 C -0.08714 0.52953 1.01010
 N1811 N -0.10324 0.51820 0.99952
 N1812 N -0.12373 0.52496 1.00124
 C1813 C -0.15048 0.55137 1.01397
 C1814 C -0.16854 0.55882 1.01349
 C1815 C -0.06502 0.52287 1.00719
 C1816 C -0.04647 0.51736 1.00422
 C1817 C 0.01388 0.62943 0.54392
 N1818 N 0.03019 0.61516 0.54815
 N1819 N 0.03010 0.59549 0.53823
 C1820 C 0.01373 0.58946 0.52367
 N1821 N -0.00253 0.60376 0.51936
 N1822 N -0.00244 0.62343 0.52929
 C1823 C 0.01307 0.64998 0.55614
 C1824 C 0.01202 0.66690 0.56701
 C1825 C 0.01233 0.56745 0.51521
 C1826 C 0.01036 0.54866 0.50953
 C1827 C 0.51418 0.12936 0.04400
 N1828 N 0.53036 0.11500 0.04843
 N1829 N 0.53028 0.09535 0.03844
 C1830 C 0.51405 0.08945 0.02363
 N1831 N 0.49792 0.10385 0.01914
 N1832 N 0.49800 0.12349 0.02912
 C1833 C 0.51334 0.14989 0.05626
 C1834 C 0.51227 0.16680 0.06715
 C1835 C 0.51263 0.06747 0.01509
 C1836 C 0.51062 0.04870 0.00933
 C1837 C -0.01309 0.13098 0.95381
 N1838 N -0.02926 0.11682 0.94895
 N1839 N -0.02919 0.09703 0.95836
 C1840 C -0.01297 0.09078 0.97299
 N1841 N 0.00316 0.10497 0.97792
 N1842 N 0.00309 0.12476 0.96851
 C1843 C -0.01222 0.15165 0.94211
 C1844 C -0.01113 0.16864 0.93161
 C1845 C -0.01161 0.06871 0.98100
 C1846 C -0.00969 0.04990 0.98645
 C1847 C 0.48713 0.63055 0.45262
 N1848 N 0.50331 0.62438 0.46733
 N1849 N 0.50340 0.60462 0.47681
 C1850 C 0.48728 0.59040 0.47194
 N1851 N 0.47105 0.59660 0.45729
 N1852 N 0.47096 0.61636 0.44782
 C1853 C 0.48797 0.65119 0.44086
 C1854 C 0.48903 0.66817 0.43033
 C1855 C 0.48865 0.56836 0.48003
 C1856 C 0.49058 0.54956 0.48556
 C1857 C 0.51182 0.87228 0.45112
 N1858 N 0.52722 0.88678 0.44465
 N1859 N 0.52739 0.90664 0.45409
 C1860 C 0.51220 0.91264 0.47036
 N1861 N 0.49686 0.89812 0.47689
 N1862 N 0.49669 0.87825 0.46745
 C1863 C 0.51053 0.85149 0.43948
 C1864 C 0.50889 0.83437 0.42913
 C1865 C 0.51096 0.93475 0.47857
 C1866 C 0.50912 0.95358 0.48425
 C1867 C 0.01177 0.37273 0.95264
 N1868 N 0.02718 0.38722 0.94619
 N1869 N 0.02735 0.40708 0.95563
 C1870 C 0.01215 0.41309 0.97188
 N1871 N -0.00321 0.39857 0.97840
 N1872 N -0.00338 0.37871 0.96896
 C1873 C 0.01046 0.35195 0.94099
 C1874 C 0.00882 0.33484 0.93063
 C1875 C 0.01089 0.43520 0.98007
 C1876 C 0.00903 0.45403 0.98571
 C1877 C 0.48707 0.36943 0.04580
 N1878 N 0.50201 0.37507 0.02923
 N1879 N 0.50147 0.39466 0.01936
 C1880 C 0.48592 0.40924 0.02568
 N1881 N 0.47092 0.40357 0.04218
 N1882 N 0.47147 0.38398 0.05205
 C1883 C 0.48876 0.34898 0.05788
 C1884 C 0.49069 0.33215 0.06855
 C1885 C 0.48687 0.43117 0.01714
 C1886 C 0.48856 0.44991 0.01133
 C1887 C -0.01319 0.86972 0.54610
 N1888 N -0.02875 0.88427 0.55245
 N1889 N -0.02928 0.90390 0.54264
 C1890 C -0.01431 0.90959 0.52612
 N1891 N 0.00119 0.89500 0.51971
 N1892 N 0.00172 0.87537 0.52951
 C1893 C -0.01151 0.84923 0.55810
 C1894 C -0.00958 0.83236 0.56872
 C1895 C -0.01335 0.93154 0.51764
 C1896 C -0.01165 0.95029 0.51187
 C1897 C 0.21968 0.31451 0.13307
 N1898 N 0.21958 0.32608 0.15357
 N1899 N 0.21939 0.31600 0.17438
 C1900 C 0.21916 0.29405 0.17533
 N1901 N 0.21905 0.28249 0.15482
 N1902 N 0.21925 0.29256 0.13400
 C1903 C 0.22284 0.32528 0.11091
 C1904 C 0.22651 0.33464 0.09266
 C1905 C 0.22328 0.28329 0.19726
 C1906 C 0.22905 0.27420 0.21495
 C1907 C 0.72045 0.81468 0.63261
 N1908 N 0.72001 0.79274 0.63372
 N1909 N 0.71991 0.78280 0.65462
 C1910 C 0.72013 0.79450 0.67503
 N1911 N 0.72037 0.81644 0.67391
 N1912 N 0.72046 0.82639 0.65302
 C1913 C 0.72347 0.82531 0.61034
 C1914 C 0.72701 0.83456 0.59200
 C1915 C 0.72429 0.78387 0.69703
 C1916 C 0.73007 0.77487 0.71477
 C1917 C 0.27918 0.68407 0.63118
 N1918 N 0.27868 0.67229 0.65139
 N1919 N 0.27956 0.68211 0.67244
 C1920 C 0.28113 0.70400 0.67391
 N1921 N 0.28184 0.71574 0.65367
 N1922 N 0.28095 0.70593 0.63262
 C1923 C 0.27543 0.67372 0.60880
 C1924 C 0.27136 0.66471 0.59039
 C1925 C 0.27770 0.71474 0.69615
 C1926 C 0.27243 0.72401 0.71410
 C1927 C 0.77919 0.18351 0.13193
 N1928 N 0.77865 0.17173 0.15214
 N1929 N 0.77954 0.18155 0.17319
 C1930 C 0.78114 0.20342 0.17466
 N1931 N 0.78188 0.21518 0.15443
 N1932 N 0.78098 0.20537 0.13338
 C1933 C 0.77544 0.17316 0.10955
 C1934 C 0.77138 0.16415 0.09113
 C1935 C 0.77770 0.21417 0.19691
 C1936 C 0.77242 0.22345 0.21485
 C1937 C 0.72134 0.18270 0.87149
 N1938 N 0.72247 0.17094 0.85115
 N1939 N 0.72156 0.18074 0.83020
 C1940 C 0.71933 0.20258 0.82895
 N1941 N 0.71802 0.21431 0.84930
 N1942 N 0.71893 0.20452 0.87026
 C1943 C 0.72474 0.17241 0.89388
 C1944 C 0.72833 0.16360 0.91246
 C1945 C 0.72250 0.21339 0.80681
 C1946 C 0.72753 0.22262 0.78888
 C1947 C 0.22080 0.68368 0.37100
 N1948 N 0.22178 0.67192 0.35065
 N1949 N 0.22091 0.68174 0.32971
 C1950 C 0.21886 0.70360 0.32848
 N1951 N 0.21770 0.71533 0.34885
 N1952 N 0.21858 0.70552 0.36979
 C1953 C 0.22420 0.67335 0.39337
 C1954 C 0.22781 0.66450 0.41193
 C1955 C 0.22207 0.71440 0.30634
 C1956 C 0.22713 0.72359 0.28840
 C1957 C 0.77851 0.81612 0.37264
 N1958 N 0.78070 0.79427 0.37126
 N1959 N 0.78160 0.78437 0.35024
 C1960 C 0.78050 0.79601 0.32997
 N1961 N 0.77849 0.81788 0.33136
 N1962 N 0.77759 0.82779 0.35237
 C1963 C 0.77501 0.82654 0.39510
 C1964 C 0.77129 0.83544 0.41374
 C1965 C 0.77731 0.78513 0.30779
 C1966 C 0.77229 0.77587 0.28984
 C1967 C 0.27836 0.31665 0.87362
 N1968 N 0.27748 0.32828 0.85333
 N1969 N 0.27839 0.31833 0.83234
 C1970 C 0.28037 0.29645 0.83100
 N1971 N 0.28144 0.28485 0.85131
 N1972 N 0.28053 0.29479 0.87230
 C1973 C 0.27484 0.32711 0.89606
 C1974 C 0.27110 0.33603 0.91468
 C1975 C 0.27718 0.28554 0.80885
 C1976 C 0.27215 0.27626 0.79091
 C1977 C 0.79126 0.37538 0.76405
 N1978 N 0.79882 0.35980 0.77875
 N1979 N 0.79131 0.33962 0.77729
 C1980 C 0.77605 0.33443 0.76105
 N1981 N 0.76845 0.35002 0.74638
 N1982 N 0.77596 0.37020 0.74785
 C1983 C 0.80060 0.39660 0.76434
 C1984 C 0.80916 0.41410 0.76394
 C1985 C 0.76892 0.31249 0.75849
 C1986 C 0.76326 0.29400 0.75583
 C1987 C 0.29144 0.87608 0.26299
 N1988 N 0.29927 0.86045 0.27746
 N1989 N 0.29170 0.84028 0.27611
 C1990 C 0.27611 0.83516 0.26023
 N1991 N 0.26824 0.85080 0.24580
 N1992 N 0.27581 0.87097 0.24715
 C1993 C 0.30081 0.89728 0.26313
 C1994 C 0.30940 0.91478 0.26260
 C1995 C 0.26890 0.81324 0.25777
 C1996 C 0.26315 0.79477 0.25518
 C1997 C 0.20925 0.87747 0.73543
 N1998 N 0.22449 0.87254 0.75178
 N1999 N 0.23165 0.85225 0.75393
 C2000 C 0.22374 0.83630 0.73984
 N2001 N 0.20855 0.84124 0.72345
 N2002 N 0.20139 0.86153 0.72130
 C2003 C 0.20021 0.89885 0.73450
 C2004 C 0.19181 0.91650 0.73442
 C2005 C 0.23058 0.81433 0.74305
 C2006 C 0.23612 0.79585 0.74617
 C2007 C 0.70948 0.37698 0.23540
 N2008 N 0.72457 0.37208 0.25192
 N2009 N 0.73169 0.35179 0.25423
 C2010 C 0.72386 0.33580 0.24013
 N2011 N 0.70882 0.34070 0.22357
 N2012 N 0.70170 0.36100 0.22127
 C2013 C 0.70047 0.39836 0.23431
 C2014 C 0.69210 0.41601 0.23410
 C2015 C 0.73065 0.31383 0.24349
 C2016 C 0.73614 0.29536 0.24671
 C2017 C 0.70962 0.62272 0.26212
 N2018 N 0.69950 0.63859 0.27477
 N2019 N 0.70665 0.65892 0.27392
 C2020 C 0.72411 0.66399 0.26037
 N2021 N 0.73426 0.64812 0.24776
 N2022 N 0.72711 0.62778 0.24861
 C2023 C 0.70096 0.60122 0.26166
 C2024 C 0.69312 0.58341 0.26062
 C2025 C 0.73104 0.68602 0.25834
 C2026 C 0.73664 0.70455 0.25604
 C2027 C 0.20930 0.12316 0.76301
 N2028 N 0.19917 0.13902 0.77564
 N2029 N 0.20634 0.15935 0.77484
 C2030 C 0.22384 0.16441 0.76135
 N2031 N 0.23401 0.14855 0.74877
 N2032 N 0.22684 0.12822 0.74957
 C2033 C 0.20063 0.10166 0.76250
 C2034 C 0.19278 0.08385 0.76142
 C2035 C 0.23079 0.18644 0.75937
 C2036 C 0.23641 0.20497 0.75710
 C2037 C 0.29215 0.12101 0.23755
 N2038 N 0.27413 0.12611 0.25030
 N2039 N 0.26750 0.14664 0.25210
 C2040 C 0.27872 0.16267 0.24126
 N2041 N 0.29672 0.15757 0.22846
 N2042 N 0.30335 0.13704 0.22667
 C2043 C 0.30017 0.09919 0.23703
 C2044 C 0.30749 0.08108 0.23731
 C2045 C 0.27214 0.18481 0.24413
 C2046 C 0.26665 0.20338 0.24702
 C2047 C 0.79355 0.62185 0.73822
 N2048 N 0.77540 0.62691 0.75076
 N2049 N 0.76865 0.64741 0.75239
 C2050 C 0.77989 0.66345 0.74158
 N2051 N 0.79802 0.65839 0.72901
 N2052 N 0.80477 0.63789 0.72738
 C2053 C 0.80167 0.60007 0.73788
 C2054 C 0.80906 0.58198 0.73830
 C2055 C 0.77320 0.68558 0.74432
 C2056 C 0.76763 0.70413 0.74711
 C2057 C 0.88040 0.76404 0.20501
 N2058 N 0.87441 0.74770 0.21962
 N2059 N 0.85472 0.74757 0.22951
 C2060 C 0.84039 0.76381 0.22518
 N2061 N 0.84641 0.78019 0.21063
 N2062 N 0.86610 0.78032 0.20074
 C2063 C 0.90098 0.76329 0.19283
 C2064 C 0.91793 0.76229 0.18200
 C2065 C 0.81839 0.76238 0.23365
 C2066 C 0.79960 0.76042 0.23938
 C2067 C 0.38009 0.26420 0.70575
 N2068 N 0.37413 0.24795 0.72050
 N2069 N 0.35448 0.24788 0.73047
 C2070 C 0.34015 0.26411 0.72609
 N2071 N 0.34613 0.28040 0.71140
 N2072 N 0.36579 0.28047 0.70143
 C2073 C 0.40063 0.26337 0.69351
 C2074 C 0.41755 0.26230 0.68265
 C2075 C 0.31817 0.26273 0.73463
 C2076 C 0.29939 0.26080 0.74042
 C2077 C 0.38036 0.73672 0.79624
 N2078 N 0.36622 0.72052 0.80111
 N2079 N 0.34639 0.72062 0.79179
 C2080 C 0.34009 0.73689 0.77726
 N2081 N 0.35426 0.75305 0.77232
 N2082 N 0.37408 0.75295 0.78164
 C2083 C 0.40106 0.73755 0.80786
 C2084 C 0.41808 0.73861 0.81830
 C2085 C 0.31799 0.73827 0.76935
 C2086 C 0.29916 0.74021 0.76397
 C2087 C 0.88011 0.23617 0.29750
 N2088 N 0.86592 0.22002 0.30237
 N2089 N 0.84614 0.22011 0.29295
 C2090 C 0.83993 0.23634 0.27830
 N2091 N 0.85415 0.25245 0.27336
 N2092 N 0.87393 0.25235 0.28278
 C2093 C 0.90077 0.23702 0.30921
 C2094 C 0.91776 0.23808 0.31971
 C2095 C 0.81787 0.23772 0.27027
 C2096 C 0.79906 0.23967 0.26480
 C2097 C 0.12188 0.26116 0.29882
 N2098 N 0.13638 0.27653 0.30537
 N2099 N 0.15624 0.27675 0.29591
 C2100 C 0.16225 0.26164 0.27956
 N2101 N 0.14773 0.24632 0.27296
 N2102 N 0.12786 0.24610 0.28241
 C2103 C 0.10110 0.25980 0.31046
 C2104 C 0.08398 0.25812 0.32080
 C2105 C 0.18435 0.26046 0.27132
 C2106 C 0.20317 0.25867 0.26559
 C2107 C 0.62256 0.76184 0.79798
 N2108 N 0.63702 0.77717 0.80470
 N2109 N 0.65695 0.77741 0.79540
 C2110 C 0.66304 0.76235 0.77903
 N2111 N 0.64855 0.74707 0.77225
 N2112 N 0.62863 0.74683 0.78155
 C2113 C 0.60170 0.76046 0.80946
 C2114 C 0.58452 0.75875 0.81968
 C2115 C 0.68519 0.76118 0.77094
 C2116 C 0.70404 0.75941 0.76532
 C2117 C 0.62009 0.23665 0.70410
 N2118 N 0.62569 0.25150 0.72078
 N2119 N 0.64528 0.25092 0.73066
 C2120 C 0.65988 0.23543 0.72426
 N2121 N 0.65425 0.22052 0.70765
 N2122 N 0.63466 0.22110 0.69777
 C2123 C 0.59966 0.23840 0.69200
 C2124 C 0.58285 0.24039 0.68131
 C2125 C 0.68181 0.23639 0.73278
 C2126 C 0.70056 0.23811 0.73856
 C2127 C 0.11935 0.73765 0.20452
 N2128 N 0.12512 0.75262 0.22100
 N2129 N 0.14479 0.75208 0.23067
 C2130 C 0.15932 0.73652 0.22425
 N2131 N 0.15351 0.72150 0.20784
 N2132 N 0.13384 0.72203 0.19816
 C2133 C 0.09881 0.73934 0.19262
 C2134 C 0.08191 0.74128 0.18208
 C2135 C 0.18132 0.73747 0.23258
 C2136 C 0.20011 0.73916 0.23821
   
