data_POSCAR
  _audit_creation_date              2014-09-24
  _audit_creation_method            'ToBaCCo'
  _symmetry_space_group_name_H-M    'P1'
  _symmetry_Int_Tables_number       1
  _symmetry_cell_setting            triclinic
  loop_
  _symmetry_equiv_pos_as_xyz
 x,y,z
_cell_length_a 69.2371
_cell_length_b 69.6143
_cell_length_c 70.0409
_cell_angle_alpha 91.888900
_cell_angle_beta 92.345000
_cell_angle_gamma 92.487900
loop_
  _atom_site_label
  _atom_site_type_symbol
  _atom_site_fract_x
  _atom_site_fract_y
  _atom_site_fract_z
N1 N 0.17277 0.22001 0.22593
 N2 N 0.17844 0.20504 0.23525
 C3 C 0.16693 0.20229 0.25005
 C4 C 0.15327 0.21625 0.24995
 C5 C 0.15746 0.22724 0.23440
 H6 H 0.16830 0.19088 0.26005
 H7 H 0.15011 0.23974 0.22971
 Cu8 Cu 0.20026 0.19061 0.22709
 Cu9 Cu 0.18572 0.22922 0.20366
 Cu10 Cu 0.22524 0.20442 0.18931
 N11 N 0.22280 0.17721 0.21912
 N12 N 0.23244 0.18267 0.20432
 C13 C 0.24717 0.17099 0.20184
 C14 C 0.24681 0.15742 0.21586
 C15 C 0.23112 0.16185 0.22659
 H16 H 0.25744 0.17241 0.19071
 H17 H 0.22600 0.15435 0.23879
 N18 N 0.21572 0.22681 0.17598
 N19 N 0.20073 0.23632 0.18150
 C20 C 0.19794 0.25090 0.16968
 C21 C 0.21180 0.25053 0.15601
 C22 C 0.22281 0.23504 0.16046
 H23 H 0.18654 0.26093 0.17084
 H24 H 0.23523 0.23026 0.15309
 H25 H 0.19623 0.20313 0.19514
 H26 H 0.21250 0.21908 0.21133
 N27 N 0.67863 0.72377 0.72643
 N28 N 0.68371 0.70843 0.73549
 C29 C 0.67203 0.70577 0.75015
 C30 C 0.65886 0.72021 0.75030
 C31 C 0.66354 0.73137 0.73499
 H32 H 0.67293 0.69408 0.75987
 H33 H 0.65662 0.74416 0.73044
 Cu34 Cu 0.70508 0.69339 0.72733
 Cu35 Cu 0.69191 0.73275 0.70426
 Cu36 Cu 0.73087 0.70702 0.69001
 N37 N 0.72730 0.67949 0.71939
 N38 N 0.73728 0.68486 0.70478
 C39 C 0.75171 0.67282 0.70234
 C40 C 0.75080 0.65912 0.71621
 C41 C 0.73511 0.66384 0.72680
 H42 H 0.76219 0.67409 0.69139
 H43 H 0.72966 0.65634 0.73886
 N44 N 0.72213 0.72983 0.67687
 N45 N 0.70721 0.73954 0.68219
 C46 C 0.70473 0.75411 0.67028
 C47 C 0.71880 0.75357 0.65682
 C48 C 0.72958 0.73799 0.66147
 H49 H 0.69361 0.76446 0.67144
 H50 H 0.74178 0.73279 0.65402
 H51 H 0.70177 0.70644 0.69554
 H52 H 0.71826 0.72178 0.71209
 N53 N 0.31309 0.76112 0.74043
 N54 N 0.30765 0.77632 0.75007
 C55 C 0.31928 0.77923 0.76589
 C56 C 0.33277 0.76508 0.76622
 C57 C 0.32831 0.75382 0.74980
 H58 H 0.31812 0.79090 0.77627
 H59 H 0.33587 0.74153 0.74472
 Cu60 Cu 0.28633 0.79128 0.74072
 Cu61 Cu 0.30057 0.75237 0.71610
 Cu62 Cu 0.26315 0.77916 0.69859
 N63 N 0.26571 0.80651 0.73027
 N64 N 0.25668 0.80165 0.71386
 C65 C 0.24321 0.81449 0.71001
 C66 C 0.24373 0.82832 0.72483
 C67 C 0.25831 0.82268 0.73742
 H68 H 0.23381 0.81371 0.69730
 H69 H 0.26325 0.82973 0.75080
 N70 N 0.27180 0.75596 0.68519
 N71 N 0.28612 0.74580 0.69176
 C72 C 0.28879 0.73117 0.67920
 C73 C 0.27550 0.73212 0.66396
 C74 C 0.26497 0.74804 0.66832
 H75 H 0.29963 0.72061 0.68102
 H76 H 0.25340 0.75369 0.65968
 H77 H 0.29176 0.77918 0.70841
 H78 H 0.27401 0.76359 0.72090
 N79 N 0.81430 0.26043 0.23740
 N80 N 0.80892 0.27566 0.24701
 C81 C 0.82018 0.27821 0.26313
 C82 C 0.83344 0.26376 0.26369
 C83 C 0.82910 0.25274 0.24703
 H84 H 0.81888 0.28985 0.27350
 H85 H 0.83634 0.24026 0.24194
 Cu86 Cu 0.78800 0.29088 0.23724
 Cu87 Cu 0.80233 0.25206 0.21273
 Cu88 Cu 0.76565 0.27944 0.19457
 N89 N 0.76758 0.30627 0.22673
 N90 N 0.75893 0.30175 0.21004
 C91 C 0.74548 0.31464 0.20621
 C92 C 0.74565 0.32803 0.22133
 C93 C 0.75990 0.32220 0.23409
 H94 H 0.73635 0.31429 0.19332
 H95 H 0.76423 0.32891 0.24781
 N96 N 0.77452 0.25635 0.18107
 N97 N 0.78848 0.24593 0.18799
 C98 C 0.79138 0.23138 0.17541
 C99 C 0.77861 0.23264 0.15981
 C100 C 0.76815 0.24867 0.16394
 H101 H 0.80198 0.22063 0.17749
 H102 H 0.75695 0.25453 0.15497
 H103 H 0.79412 0.27909 0.20490
 H104 H 0.77588 0.26361 0.21684
 N105 N 0.80521 0.73286 0.26514
 N106 N 0.79941 0.71681 0.25586
 C107 C 0.81163 0.71327 0.24182
 C108 C 0.82590 0.72792 0.24226
 C109 C 0.82128 0.74010 0.25731
 H110 H 0.81030 0.70085 0.23213
 H111 H 0.82898 0.75326 0.26229
 Cu112 Cu 0.77658 0.70190 0.26312
 Cu113 Cu 0.79167 0.74305 0.28683
 Cu114 Cu 0.75157 0.71635 0.30081
 N115 N 0.75439 0.68683 0.27161
 N116 N 0.74473 0.69248 0.28638
 C117 C 0.73051 0.67926 0.28939
 C118 C 0.73122 0.66445 0.27574
 C119 C 0.74660 0.66981 0.26470
 H120 H 0.72043 0.68036 0.30071
 H121 H 0.75199 0.66175 0.25275
 N122 N 0.76075 0.74086 0.31365
 N123 N 0.77608 0.75098 0.30843
 C124 C 0.77889 0.76662 0.32023
 C125 C 0.76463 0.76639 0.33354
 C126 C 0.75340 0.74981 0.32887
 H127 H 0.79050 0.77737 0.31922
 H128 H 0.74100 0.74442 0.33626
 H129 H 0.78073 0.71663 0.29520
 H130 H 0.76482 0.73052 0.27907
 N131 N 0.30774 0.23010 -0.23304
 N132 N 0.30246 0.21345 -0.24145
 C133 C 0.31473 0.20959 -0.25537
 C134 C 0.32853 0.22468 -0.25579
 C135 C 0.32351 0.23742 -0.24129
 H136 H 0.31359 0.19674 -0.26447
 H137 H 0.33068 0.25106 -0.23697
 Cu138 Cu 0.28004 0.19846 -0.23335
 Cu139 Cu 0.29380 0.24111 -0.21198
 Cu140 Cu 0.25374 0.21471 -0.19741
 N141 N 0.25755 0.18377 -0.22498
 N142 N 0.24736 0.19021 -0.21091
 C143 C 0.23289 0.17729 -0.20784
 C144 C 0.23401 0.16184 -0.22068
 C145 C 0.24988 0.16652 -0.23135
 H146 H 0.22236 0.17908 -0.19703
 H147 H 0.25561 0.15789 -0.24273
 N148 N 0.26251 0.23980 -0.18553
 N149 N 0.27783 0.24981 -0.19096
 C150 C 0.28036 0.26590 -0.17975
 C151 C 0.26594 0.26608 -0.16661
 C152 C 0.25490 0.24928 -0.17077
 H153 H 0.29193 0.27665 -0.18100
 H154 H 0.24249 0.24406 -0.16329
 H155 H 0.28300 0.21525 -0.20218
 H156 H 0.26726 0.22772 -0.21969
 N157 N 0.68104 0.27421 -0.24136
 N158 N 0.68645 0.28995 -0.24988
 C159 C 0.67374 0.29292 -0.26444
 C160 C 0.65946 0.27819 -0.26516
 C161 C 0.66474 0.26658 -0.25020
 H162 H 0.67486 0.30500 -0.27368
 H163 H 0.65726 0.25364 -0.24579
 Cu164 Cu 0.70937 0.30537 -0.24099
 Cu165 Cu 0.69505 0.26517 -0.21900
 Cu166 Cu 0.73843 0.28930 -0.20564
 N167 N 0.73521 0.31669 -0.23520
 N168 N 0.74645 0.31049 -0.22138
 C169 C 0.76313 0.32124 -0.22023
 C170 C 0.76234 0.33495 -0.23412
 C171 C 0.74436 0.33156 -0.24336
 H172 H 0.77490 0.31923 -0.20998
 H173 H 0.73818 0.33954 -0.25490
 N174 N 0.72777 0.26748 -0.19159
 N175 N 0.71126 0.25823 -0.19675
 C176 C 0.70783 0.24418 -0.18441
 C177 C 0.72290 0.24456 -0.17076
 C178 C 0.73528 0.25956 -0.17581
 H179 H 0.69515 0.23454 -0.18519
 H180 H 0.74883 0.26430 -0.16861
 H181 H 0.70889 0.29091 -0.20975
 H182 H 0.72150 0.27609 -0.22778
 N183 N 0.18465 0.77041 0.25752
 N184 N 0.19105 0.78508 0.24787
 C185 C 0.17869 0.78755 0.23287
 C186 C 0.16375 0.77365 0.23310
 C187 C 0.16809 0.76303 0.24899
 H188 H 0.18039 0.79871 0.22263
 H189 H 0.15963 0.75107 0.25425
 Cu190 Cu 0.21462 0.79972 0.25634
 Cu191 Cu 0.19782 0.76236 0.28085
 Cu192 Cu 0.23986 0.78834 0.29604
 N193 N 0.23838 0.81406 0.26478
 N194 N 0.24811 0.80956 0.28036
 C195 C 0.26354 0.82187 0.28328
 C196 C 0.26359 0.83498 0.26873
 C197 C 0.24731 0.82943 0.25723
 H198 H 0.27380 0.82130 0.29525
 H199 H 0.24209 0.83619 0.24448
 N200 N 0.22913 0.76635 0.30987
 N201 N 0.21317 0.75643 0.30407
 C202 C 0.20965 0.74246 0.31649
 C203 C 0.22407 0.74361 0.33085
 C204 C 0.23616 0.75895 0.32612
 H205 H 0.19738 0.73230 0.31525
 H206 H 0.24922 0.76427 0.33385
 H207 H 0.21078 0.78894 0.28876
 H208 H 0.22529 0.77237 0.27425
 N209 N 0.47872 0.43209 0.48113
 N210 N 0.46404 0.43717 0.49118
 C211 C 0.46182 0.42487 0.50545
 C212 C 0.47587 0.41131 0.50435
 C213 C 0.48632 0.41640 0.48867
 H214 H 0.45063 0.42561 0.51571
 H215 H 0.49859 0.40929 0.48314
 Cu216 Cu 0.44903 0.45919 0.48455
 Cu217 Cu 0.48669 0.44607 0.45891
 Cu218 Cu 0.45962 0.48469 0.44603
 N219 N 0.43371 0.48066 0.47682
 N220 N 0.43789 0.49048 0.46172
 C221 C 0.42506 0.50428 0.45950
 C222 C 0.41206 0.50313 0.47400
 C223 C 0.41806 0.48793 0.48474
 H224 H 0.42532 0.51450 0.44822
 H225 H 0.41139 0.48243 0.49725
 N226 N 0.48216 0.47664 0.43194
 N227 N 0.49249 0.46198 0.43689
 C228 C 0.50673 0.46002 0.42453
 C229 C 0.50534 0.47412 0.41108
 C230 C 0.48955 0.48438 0.41628
 H231 H 0.51716 0.44894 0.42512
 H232 H 0.48388 0.49662 0.40922
 H233 H 0.47615 0.47228 0.46712
 H234 H 0.45958 0.45574 0.45186
 N235 N -0.02247 -0.06950 0.98203
 N236 N -0.03703 -0.06430 0.99218
 C237 C -0.03935 -0.07669 1.00636
 C238 C -0.02550 -0.09044 1.00510
 C239 C -0.01503 -0.08533 0.98943
 H240 H -0.05034 -0.07572 1.01681
 H241 H -0.00301 -0.09266 0.98365
 Cu242 Cu -0.05180 -0.04203 0.98578
 Cu243 Cu -0.01444 -0.05550 0.95984
 Cu244 Cu -0.04104 -0.01642 0.94742
 N245 N -0.06690 -0.02034 0.97824
 N246 N -0.06256 -0.01039 0.96327
 C247 C -0.07525 0.00355 0.96113
 C248 C -0.08836 0.00234 0.97552
 C249 C -0.08258 -0.01305 0.98611
 H250 H -0.07510 0.01360 0.94970
 H251 H -0.08927 -0.01853 0.99862
 N252 N -0.01877 -0.02470 0.93310
 N253 N -0.00860 -0.03953 0.93788
 C254 C 0.00547 -0.04163 0.92536
 C255 C 0.00413 -0.02746 0.91198
 C256 C -0.01145 -0.01700 0.91739
 H257 H 0.01574 -0.05287 0.92578
 H258 H -0.01704 -0.00466 0.91043
 H259 H -0.02460 -0.02929 0.96829
 H260 H -0.04146 -0.04551 0.95300
 N261 N 1.03636 0.58018 0.97309
 N262 N 1.05232 0.57672 0.98294
 C263 C 1.05505 0.59008 0.99730
 C264 C 1.04002 0.60262 0.99631
 C265 C 1.02848 0.59581 0.98072
 H266 H 1.06707 0.59064 1.00769
 H267 H 1.01507 0.60152 0.97551
 Cu268 Cu 1.06766 0.55492 0.97595
 Cu269 Cu 1.02647 0.56395 0.95144
 Cu270 Cu 1.05384 0.52569 0.93813
 N271 N 1.08314 0.53355 0.96800
 N272 N 1.07768 0.52241 0.95307
 C273 C 1.09059 0.50876 0.95072
 C274 C 1.10500 0.51133 0.96498
 C275 C 1.09976 0.52724 0.97572
 H276 H 1.08926 0.49745 0.93974
 H277 H 1.10742 0.53366 0.98827
 N278 N 1.02927 0.53138 0.92482
 N279 N 1.01882 0.54593 0.92993
 C280 C 1.00294 0.54603 0.91819
 C281 C 1.00338 0.53080 0.90500
 C282 C 1.02032 0.52185 0.90967
 H283 H 0.99202 0.55660 0.91901
 H284 H 1.02571 0.50926 0.90262
 H285 H 1.03930 0.53907 0.95955
 H286 H 1.05324 0.55499 0.94357
 N287 N 0.53702 0.08192 0.47282
 N288 N 0.55325 0.07876 0.48235
 C289 C 0.55578 0.09184 0.49698
 C290 C 0.54033 0.10389 0.49651
 C291 C 0.52874 0.09707 0.48096
 H292 H 0.56800 0.09259 0.50712
 H293 H 0.51511 0.10254 0.47602
 Cu294 Cu 0.56943 0.05788 0.47451
 Cu295 Cu 0.52759 0.06620 0.45064
 Cu296 Cu 0.55538 0.02848 0.43682
 N297 N 0.58452 0.03610 0.46687
 N298 N 0.57896 0.02489 0.45202
 C299 C 0.59165 0.01099 0.44988
 C300 C 0.60601 0.01348 0.46418
 C301 C 0.60099 0.02959 0.47474
 H302 H 0.59019 -0.00038 0.43897
 H303 H 0.60869 0.03604 0.48724
 N304 N 0.53103 0.03439 0.42326
 N305 N 0.52042 0.04874 0.42856
 C306 C 0.50483 0.04918 0.41648
 C307 C 0.50561 0.03437 0.40285
 C308 C 0.52246 0.02530 0.40766
 H309 H 0.49376 0.05957 0.41755
 H310 H 0.52823 0.01312 0.40024
 H311 H 0.54105 0.04154 0.45864
 H312 H 0.55437 0.05770 0.44237
 N313 N -0.02863 0.08701 0.53563
 N314 N -0.04314 0.08088 0.52401
 C315 C -0.04591 0.09389 0.51050
 C316 C -0.03240 0.10902 0.51371
 C317 C -0.02164 0.10412 0.52984
 H318 H -0.05662 0.09220 0.49885
 H319 H -0.00955 0.11229 0.53679
 Cu320 Cu -0.05654 0.05616 0.52713
 Cu321 Cu -0.01960 0.07202 0.55706
 Cu322 Cu -0.04383 0.02807 0.56310
 N323 N -0.07008 0.03158 0.53070
 N324 N -0.06498 0.02065 0.54480
 C325 C -0.07655 0.00460 0.54413
 C326 C -0.08970 0.00546 0.52876
 C327 C -0.08513 0.02285 0.52057
 H328 H -0.07560 -0.00670 0.55429
 H329 H -0.09218 0.02869 0.50815
 N330 N -0.02208 0.03805 0.58011
 N331 N -0.01275 0.05470 0.57785
 C332 C 0.00148 0.05715 0.59156
 C333 C 0.00106 0.04128 0.60303
 C334 C -0.01409 0.02952 0.59528
 H335 H 0.01140 0.06957 0.59308
 H336 H -0.01875 0.01556 0.60010
 H337 H -0.02839 0.04540 0.54518
 H338 H -0.04577 0.05750 0.56075
 N339 N 0.46858 0.58668 0.03684
 N340 N 0.45330 0.58117 0.02598
 C341 C 0.45062 0.59407 0.01235
 C342 C 0.46499 0.60851 0.01471
 C343 C 0.47616 0.60331 0.03045
 H344 H 0.43941 0.59271 0.00113
 H345 H 0.48894 0.61092 0.03670
 Cu346 Cu 0.43877 0.55722 0.02983
 Cu347 Cu 0.47777 0.57150 0.05802
 Cu348 Cu 0.45280 0.52817 0.06472
 N349 N 0.42549 0.53252 0.03340
 N350 N 0.43116 0.52113 0.04692
 C351 C 0.41962 0.50503 0.04611
 C352 C 0.40591 0.50641 0.03131
 C353 C 0.41010 0.52407 0.02357
 H354 H 0.42089 0.49336 0.05582
 H355 H 0.40258 0.53026 0.01159
 N356 N 0.47506 0.53772 0.08126
 N357 N 0.48474 0.55410 0.07868
 C358 C 0.49935 0.55626 0.09202
 C359 C 0.49879 0.54050 0.10362
 C360 C 0.48317 0.52909 0.09631
 H361 H 0.50962 0.56842 0.09322
 H362 H 0.47826 0.51529 0.10134
 H363 H 0.46748 0.54533 0.04602
 H364 H 0.45147 0.55773 0.06288
 N365 N 0.53035 -0.07442 0.02992
 N366 N 0.54432 -0.06803 0.01937
 C367 C 0.54496 -0.07954 0.00362
 C368 C 0.53060 -0.09399 0.00429
 C369 C 0.52161 -0.09021 0.02125
 H370 H 0.55521 -0.07756 -0.00744
 H371 H 0.50976 -0.09843 0.02704
 Cu372 Cu 0.56072 -0.04559 0.02736
 Cu373 Cu 0.52469 -0.06185 0.05412
 Cu374 Cu 0.55406 -0.02219 0.06932
 N375 N 0.57753 -0.02386 0.03650
 N376 N 0.57495 -0.01469 0.05283
 C377 C 0.58851 -0.00026 0.05540
 C378 C 0.60030 -0.00043 0.03985
 C379 C 0.59284 -0.01564 0.02818
 H380 H 0.58973 0.00955 0.06772
 H381 H 0.59799 -0.02024 0.01449
 N382 N 0.53217 -0.03208 0.08392
 N383 N 0.52115 -0.04728 0.07815
 C384 C 0.50733 -0.05024 0.09082
 C385 C 0.50962 -0.03622 0.10529
 C386 C 0.52555 -0.02494 0.10042
 H387 H 0.49603 -0.06145 0.08929
 H388 H 0.53176 -0.01235 0.10821
 H389 H 0.53566 -0.03462 0.04810
 H390 H 0.55266 -0.05079 0.06040
 N391 N 1.03791 0.41917 0.53825
 N392 N 1.05211 0.42488 0.52762
 C393 C 1.05062 0.41496 0.51077
 C394 C 1.03467 0.40222 0.51091
 C395 C 1.02700 0.40529 0.52865
 H396 H 1.06071 0.41654 0.49948
 H397 H 1.01440 0.39804 0.53421
 Cu398 Cu 1.07178 0.44391 0.53726
 Cu399 Cu 1.03509 0.42983 0.56390
 Cu400 Cu 1.06071 0.47325 0.57401
 N401 N 1.08672 0.46762 0.54359
 N402 N 1.08207 0.47936 0.55757
 C403 C 1.09448 0.49484 0.55838
 C404 C 1.10767 0.49266 0.54416
 C405 C 1.10223 0.47515 0.53508
 H406 H 1.09402 0.50669 0.56870
 H407 H 1.10880 0.46850 0.52294
 N408 N 1.03875 0.46408 0.58898
 N409 N 1.02947 0.44732 0.58535
 C410 C 1.01535 0.44506 0.59780
 C411 C 1.01565 0.46117 0.60997
 C412 C 1.03075 0.47291 0.60393
 H413 H 1.00542 0.43265 0.59773
 H414 H 1.03540 0.48700 0.60976
 H415 H 1.04443 0.45593 0.55398
 H416 H 1.06172 0.44423 0.57052
 C417 C 0.36182 0.02189 0.23960
 C418 C 0.35034 0.00345 0.24411
 C419 C 0.36136 -0.01171 0.24815
 C420 C 0.38320 -0.00707 0.24730
 C421 C 0.37610 0.02565 0.25678
 C422 C 0.38725 0.01056 0.26092
 C423 C 0.37479 0.01593 0.22329
 C424 C 0.38597 0.00079 0.22728
 H425 H 0.33467 0.00240 0.24343
 H426 H 0.39223 -0.01941 0.25057
 H427 H 0.37719 0.03916 0.26495
 H428 H 0.37684 0.02413 0.21066
 C429 C 0.13681 -0.03109 0.75145
 C430 C 0.14884 -0.01277 0.75778
 C431 C 0.13825 0.00302 0.76070
 C432 C 0.11633 -0.00104 0.75748
 C433 C 0.12228 -0.03344 0.76733
 C434 C 0.11149 -0.01784 0.77045
 C435 C 0.12463 -0.02535 0.73395
 C436 C 0.11390 -0.00968 0.73700
 H437 H 0.16449 -0.01221 0.75903
 H438 H 0.10767 0.01174 0.76009
 H439 H 0.12176 -0.04547 0.77668
 H440 H 0.12427 -0.03340 0.72044
 C441 C 0.63757 0.46851 0.25016
 C442 C 0.64976 0.48719 0.25454
 C443 C 0.63931 0.50315 0.25715
 C444 C 0.61728 0.49879 0.25579
 C445 C 0.62431 0.46715 0.26717
 C446 C 0.61351 0.48278 0.27003
 C447 C 0.62409 0.47306 0.23315
 C448 C 0.61349 0.48886 0.23597
 H449 H 0.66541 0.48760 0.25553
 H450 H 0.60843 0.51148 0.25809
 H451 H 0.62424 0.45554 0.27701
 H452 H 0.62356 0.46475 0.21978
 C453 C 0.86270 0.52094 0.73925
 C454 C 0.85171 0.50140 0.73971
 C455 C 0.86300 0.48644 0.74383
 C456 C 0.88460 0.49239 0.74708
 C457 C 0.87381 0.52320 0.75858
 C458 C 0.88547 0.50851 0.76270
 C459 C 0.87837 0.51756 0.72469
 C460 C 0.88992 0.50275 0.72883
 H461 H 0.83622 0.49966 0.73699
 H462 H 0.89397 0.48031 0.75035
 H463 H 0.87282 0.53578 0.76794
 H464 H 0.87956 0.52509 0.71154
 C465 C 0.24199 0.36270 0.01995
 C466 C 0.24421 0.35171 0.00092
 C467 C 0.24709 0.36309 -0.01423
 C468 C 0.24809 0.38476 -0.00883
 C469 C 0.26062 0.37552 0.02226
 C470 C 0.26371 0.38733 0.00746
 C471 C 0.22591 0.37660 0.01594
 C472 C 0.22901 0.38822 0.00099
 H473 H 0.24408 0.33616 -0.00035
 H474 H 0.25046 0.39406 -0.02114
 H475 H 0.27103 0.37476 0.03410
 H476 H 0.21356 0.37770 0.02485
 C477 C 0.75081 0.13536 -0.03099
 C478 C 0.75711 0.14740 -0.01286
 C479 C 0.75987 0.13696 0.00305
 C480 C 0.75649 0.11516 -0.00070
 C481 C 0.76680 0.12083 -0.03282
 C482 C 0.76973 0.11018 -0.01708
 C483 C 0.73297 0.12335 -0.02539
 C484 C 0.73584 0.11275 -0.00960
 H485 H 0.75844 0.16296 -0.01255
 H486 H 0.75895 0.10661 0.01219
 H487 H 0.77633 0.12010 -0.04462
 H488 H 0.71939 0.12293 -0.03367
 C489 C 0.25083 0.63546 0.47170
 C490 C 0.25328 0.64789 0.49014
 C491 C 0.25679 0.63790 0.50620
 C492 C 0.25768 0.61610 0.50234
 C493 C 0.26919 0.62388 0.47113
 C494 C 0.27293 0.61388 0.48714
 C495 C 0.23486 0.62024 0.47566
 C496 C 0.23829 0.61024 0.49178
 H497 H 0.25247 0.66339 0.49030
 H498 H 0.26061 0.60787 0.51535
 H499 H 0.27756 0.62229 0.45851
 H500 H 0.22187 0.61777 0.46666
 C501 C 0.74482 0.86611 0.52003
 C502 C 0.74457 0.85452 0.50110
 C503 C 0.74726 0.86528 0.48549
 C504 C 0.74993 0.88698 0.49022
 C505 C 0.76402 0.87802 0.52080
 C506 C 0.76694 0.88876 0.50518
 C507 C 0.72958 0.88119 0.51708
 C508 C 0.73189 0.89197 0.50135
 H509 H 0.74313 0.83895 0.50033
 H510 H 0.75207 0.89557 0.47738
 H511 H 0.77385 0.87900 0.53324
 H512 H 0.71851 0.88376 0.52720
 C513 C 0.01979 0.24614 0.36523
 C514 C 0.00037 0.24500 0.35397
 C515 C -0.01523 0.24780 0.36474
 C516 C -0.00999 0.25145 0.38611
 C517 C 0.02040 0.26574 0.37609
 C518 C 0.00485 0.26857 0.38699
 C519 C 0.01745 0.23159 0.38107
 C520 C 0.00185 0.23423 0.39196
 H521 H -0.00073 0.24298 0.33856
 H522 H -0.02270 0.25375 0.39492
 H523 H 0.03299 0.27553 0.37712
 H524 H 0.02735 0.22021 0.38341
 C525 C -0.03000 0.74618 0.13578
 C526 C -0.01103 0.74850 0.14789
 C527 C 0.00495 0.75239 0.13775
 C528 C 0.00054 0.75352 0.11613
 C529 C -0.03085 0.76460 0.12447
 C530 C -0.01499 0.76854 0.11418
 C531 C -0.02599 0.73034 0.12075
 C532 C -0.01003 0.73415 0.11048
 H533 H -0.01043 0.74714 0.16326
 H534 H 0.01350 0.75669 0.10780
 H535 H -0.04344 0.77330 0.12408
 H536 H -0.03366 0.71650 0.11948
 C537 C 0.46805 0.24792 0.63463
 C538 C 0.48643 0.25154 0.64733
 C539 C 0.50278 0.25507 0.63765
 C540 C 0.49924 0.25481 0.61583
 C541 C 0.46711 0.26549 0.62204
 C542 C 0.48344 0.26941 0.61241
 C543 C 0.47281 0.23155 0.62060
 C544 C 0.48928 0.23490 0.61095
 H545 H 0.48637 0.25136 0.66279
 H546 H 0.51263 0.25770 0.60806
 H547 H 0.45423 0.27362 0.62020
 H548 H 0.46361 0.21871 0.61798
 C549 C 0.52192 0.74098 0.86373
 C550 C 0.50272 0.74332 0.85263
 C551 C 0.48766 0.74754 0.86367
 C552 C 0.49309 0.74861 0.88524
 C553 C 0.52508 0.75949 0.87613
 C554 C 0.51013 0.76354 0.88742
 C555 C 0.51717 0.72533 0.87802
 C556 C 0.50234 0.72939 0.88950
 H557 H 0.50123 0.74151 0.83721
 H558 H 0.48093 0.75192 0.89445
 H559 H 0.53819 0.76854 0.87594
 H560 H 0.52451 0.71205 0.87909
 C561 C 0.10822 0.22454 0.28941
 C562 C 0.12347 0.21278 0.29410
 C563 C 0.13810 0.20998 0.28124
 C564 C 0.13766 0.21898 0.26353
 C565 C 0.12221 0.23071 0.25895
 C566 C 0.10759 0.23345 0.27180
 C567 C 0.09334 0.22773 0.30272
 C568 C 0.08084 0.23068 0.31377
 C569 C 0.06590 0.23453 0.32685
 C570 C 0.05396 0.21950 0.33307
 C571 C 0.03925 0.22337 0.34553
 C572 C 0.03646 0.24231 0.35229
 C573 C 0.04831 0.25737 0.34546
 C574 C 0.06299 0.25345 0.33299
 H575 H 0.12412 0.20587 0.30773
 H576 H 0.14983 0.20100 0.28533
 H577 H 0.12126 0.23769 0.24539
 H578 H 0.09583 0.24256 0.26803
 H579 H 0.05589 0.20482 0.32815
 H580 H 0.02992 0.21152 0.34977
 H581 H 0.04610 0.27225 0.34923
 H582 H 0.07193 0.26524 0.32793
 C583 C 0.61313 0.72790 0.78912
 C584 C 0.61369 0.73840 0.77246
 C585 C 0.62860 0.73598 0.75986
 C586 C 0.64316 0.72298 0.76376
 C587 C 0.64248 0.71256 0.78063
 C588 C 0.62756 0.71502 0.79320
 C589 C 0.59769 0.73021 0.80197
 C590 C 0.58473 0.73205 0.81274
 C591 C 0.56926 0.73415 0.82558
 C592 C 0.55705 0.74950 0.82388
 C593 C 0.54196 0.75148 0.83632
 C594 C 0.53865 0.73803 0.85059
 C595 C 0.55132 0.72278 0.85231
 C596 C 0.56642 0.72086 0.83984
 H597 H 0.60256 0.74839 0.76916
 H598 H 0.62853 0.74415 0.74700
 H599 H 0.65348 0.70258 0.78425
 H600 H 0.62727 0.70685 0.80610
 H601 H 0.55918 0.75995 0.81295
 H602 H 0.53274 0.76357 0.83479
 H603 H 0.55002 0.71233 0.86324
 H604 H 0.57595 0.70900 0.84136
 C605 C 0.38106 0.75976 0.80609
 C606 C 0.37564 0.74470 0.79299
 C607 C 0.35975 0.74629 0.78026
 C608 C 0.34904 0.76302 0.78041
 C609 C 0.35437 0.77792 0.79394
 C610 C 0.37030 0.77631 0.80665
 C611 C 0.39833 0.75862 0.81809
 C612 C 0.41327 0.75758 0.82740
 C613 C 0.43169 0.75626 0.83746
 C614 C 0.43312 0.74746 0.85514
 C615 C 0.45132 0.74508 0.86404
 C616 C 0.46825 0.75131 0.85524
 C617 C 0.46658 0.76064 0.83776
 C618 C 0.44845 0.76305 0.82895
 H619 H 0.38390 0.73185 0.79238
 H620 H 0.35602 0.73442 0.77025
 H621 H 0.34658 0.79105 0.79449
 H622 H 0.37444 0.78812 0.81666
 H623 H 0.42022 0.74209 0.86183
 H624 H 0.45214 0.73779 0.87741
 H625 H 0.47932 0.76599 0.83080
 H626 H 0.44754 0.76994 0.81531
 C627 C -0.12058 0.25687 0.30435
 C628 C -0.13275 0.27224 0.30648
 C629 C -0.14818 0.27438 0.29328
 C630 C -0.15161 0.26121 0.27759
 C631 C -0.13938 0.24558 0.27594
 C632 C -0.12405 0.24350 0.28917
 C633 C -0.10393 0.25517 0.31707
 C634 C -0.08947 0.25343 0.32692
 C635 C -0.07161 0.25104 0.33764
 C636 C -0.06626 0.26303 0.35360
 C637 C -0.04811 0.26156 0.36290
 C638 C -0.03511 0.24818 0.35619
 C639 C -0.04088 0.23583 0.34051
 C640 C -0.05899 0.23727 0.33131
 H641 H -0.13015 0.28273 0.31817
 H642 H -0.15709 0.28658 0.29534
 H643 H -0.14136 0.23492 0.26439
 H644 H -0.11469 0.23154 0.28737
 H645 H -0.07589 0.27381 0.35856
 H646 H -0.04398 0.27138 0.37481
 H647 H -0.03129 0.22518 0.33522
 H648 H -0.06298 0.22791 0.31898
 C649 C -0.12594 0.73392 0.20553
 C650 C -0.13990 0.71894 0.20209
 C651 C -0.15555 0.71699 0.21398
 C652 C -0.15748 0.73001 0.22955
 C653 C -0.14332 0.74503 0.23284
 C654 C -0.12769 0.74695 0.22092
 C655 C -0.10977 0.73587 0.19334
 C656 C -0.09618 0.73754 0.18319
 C657 C -0.07989 0.73958 0.17117
 C658 C -0.07772 0.72643 0.15596
 C659 C -0.06183 0.72832 0.14434
 C660 C -0.04767 0.74335 0.14791
 C661 C -0.05031 0.75669 0.16308
 C662 C -0.06619 0.75476 0.17464
 H663 H -0.13868 0.70876 0.19021
 H664 H -0.16609 0.70528 0.21086
 H665 H -0.14417 0.75532 0.24465
 H666 H -0.11695 0.75859 0.22374
 H667 H -0.08838 0.71474 0.15302
 H668 H -0.06106 0.71806 0.13257
 H669 H -0.03996 0.76864 0.16600
 H670 H -0.06778 0.76512 0.18629
 C671 C 0.37497 0.23079 0.70695
 C672 C 0.36247 0.21447 0.70533
 C673 C 0.34716 0.21237 0.71763
 C674 C 0.34406 0.22666 0.73184
 C675 C 0.35689 0.24303 0.73329
 C676 C 0.37216 0.24503 0.72096
 C677 C 0.39060 0.23306 0.69419
 C678 C 0.40373 0.23524 0.68356
 C679 C 0.41943 0.23822 0.67099
 C680 C 0.42930 0.22258 0.66389
 C681 C 0.44479 0.22559 0.65196
 C682 C 0.45041 0.24432 0.64660
 C683 C 0.44070 0.25995 0.65442
 C684 C 0.42523 0.25689 0.66630
 H685 H 0.36452 0.20333 0.69452
 H686 H 0.33786 0.19952 0.71581
 H687 H 0.35530 0.25443 0.74388
 H688 H 0.38178 0.25775 0.72235
 H689 H 0.42521 0.20807 0.66778
 H690 H 0.45255 0.21324 0.64735
 H691 H 0.44524 0.27464 0.65167
 H692 H 0.41794 0.26914 0.67205
 C693 C 0.60958 0.27139 0.69766
 C694 C 0.62264 0.28705 0.69588
 C695 C 0.63925 0.28923 0.70798
 C696 C 0.64305 0.27577 0.72218
 C697 C 0.62981 0.25991 0.72354
 C698 C 0.61328 0.25780 0.71142
 C699 C 0.59203 0.26940 0.68588
 C700 C 0.57697 0.26727 0.67663
 C701 C 0.55858 0.26411 0.66642
 C702 C 0.55412 0.27421 0.64995
 C703 C 0.53599 0.27118 0.64044
 C704 C 0.52213 0.25810 0.64738
 C705 C 0.52685 0.24794 0.66383
 C706 C 0.54492 0.25094 0.67326
 H707 H 0.61990 0.29767 0.68526
 H708 H 0.64888 0.30162 0.70620
 H709 H 0.63195 0.24906 0.73401
 H710 H 0.60326 0.24560 0.71293
 H711 H 0.56456 0.28450 0.64457
 H712 H 0.53269 0.27936 0.62792
 H713 H 0.51663 0.23751 0.66933
 H714 H 0.54824 0.24301 0.68595
 C715 C 0.11302 0.76661 0.19554
 C716 C 0.11784 0.75210 0.20799
 C717 C 0.13446 0.75428 0.22000
 C718 C 0.14652 0.77107 0.21978
 C719 C 0.14170 0.78546 0.20697
 C720 C 0.12503 0.78324 0.19497
 C721 C 0.09533 0.76460 0.18400
 C722 C 0.08016 0.76254 0.17494
 C723 C 0.06163 0.75962 0.16495
 C724 C 0.04814 0.74616 0.17158
 C725 C 0.02981 0.74365 0.16258
 C726 C 0.02467 0.75462 0.14680
 C727 C 0.03842 0.76789 0.13999
 C728 C 0.05680 0.77041 0.14906
 H729 H 0.10863 0.73915 0.20855
 H730 H 0.13776 0.74277 0.22944
 H731 H 0.15054 0.79861 0.20642
 H732 H 0.12139 0.79460 0.18543
 H733 H 0.05174 0.73769 0.18383
 H734 H 0.01970 0.73304 0.16794
 H735 H 0.03481 0.77668 0.12799
 H736 H 0.06714 0.78092 0.14385
 C737 C 0.28558 0.11154 0.22387
 C738 C 0.28551 0.12162 0.20694
 C739 C 0.27292 0.13655 0.20433
 C740 C 0.26020 0.14159 0.21865
 C741 C 0.26039 0.13133 0.23564
 C742 C 0.27301 0.11641 0.23821
 C743 C 0.29857 0.09622 0.22652
 C744 C 0.30951 0.08342 0.22867
 C745 C 0.32261 0.06817 0.23122
 C746 C 0.33195 0.06055 0.21555
 C747 C 0.34469 0.04570 0.21797
 C748 C 0.34850 0.03841 0.23624
 C749 C 0.33861 0.04600 0.25179
 C750 C 0.32589 0.06082 0.24932
 H751 H 0.29517 0.11792 0.19573
 H752 H 0.27311 0.14396 0.19100
 H753 H 0.25096 0.13487 0.24704
 H754 H 0.27299 0.10870 0.25140
 H755 H 0.32926 0.06597 0.20141
 H756 H 0.35108 0.03989 0.20536
 H757 H 0.34070 0.04035 0.26591
 H758 H 0.31855 0.06648 0.26152
 C759 C 0.78843 0.61240 0.72443
 C760 C 0.78817 0.62201 0.70721
 C761 C 0.77593 0.63720 0.70452
 C762 C 0.76375 0.64298 0.71905
 C763 C 0.76411 0.63318 0.73632
 C764 C 0.77639 0.61800 0.73898
 C765 C 0.80108 0.59681 0.72714
 C766 C 0.81175 0.58377 0.72928
 C767 C 0.82452 0.56824 0.73168
 C768 C 0.84082 0.56711 0.72064
 C769 C 0.85328 0.55201 0.72286
 C770 C 0.84945 0.53757 0.73604
 C771 C 0.83319 0.53921 0.74739
 C772 C 0.82078 0.55433 0.74512
 H773 H 0.79741 0.61774 0.69584
 H774 H 0.77592 0.64425 0.69098
 H775 H 0.75509 0.63732 0.74788
 H776 H 0.77653 0.61066 0.75239
 H777 H 0.84399 0.57800 0.71037
 H778 H 0.86596 0.55211 0.71442
 H779 H 0.83011 0.52874 0.75807
 H780 H 0.80829 0.55518 0.75390
 C781 C 0.80380 0.38102 0.75611
 C782 C 0.80571 0.37026 0.77254
 C783 C 0.79246 0.35502 0.77558
 C784 C 0.77705 0.35042 0.76224
 C785 C 0.77552 0.36112 0.74559
 C786 C 0.78879 0.37630 0.74258
 C787 C 0.81643 0.39762 0.75356
 C788 C 0.82623 0.41204 0.75129
 C789 C 0.83687 0.42984 0.74838
 C790 C 0.85263 0.43592 0.76059
 C791 C 0.86167 0.45410 0.75869
 C792 C 0.85489 0.46646 0.74469
 C793 C 0.83948 0.45992 0.73208
 C794 C 0.83054 0.44177 0.73394
 H795 H 0.81722 0.37386 0.78317
 H796 H 0.79408 0.34721 0.78860
 H797 H 0.76404 0.35790 0.73488
 H798 H 0.78715 0.38457 0.72982
 H799 H 0.85760 0.42683 0.77189
 H800 H 0.87339 0.45876 0.76865
 H801 H 0.83417 0.46895 0.72090
 H802 H 0.81837 0.43722 0.72439
 C803 C 0.30253 -0.11716 0.26251
 C804 C 0.28750 -0.12131 0.24889
 C805 C 0.27480 -0.13722 0.25078
 C806 C 0.27685 -0.14934 0.26644
 C807 C 0.29237 -0.14514 0.27988
 C808 C 0.30502 -0.12917 0.27794
 C809 C 0.31471 -0.10003 0.26105
 C810 C 0.32420 -0.08523 0.25971
 C811 C 0.33455 -0.06703 0.25798
 C812 C 0.32677 -0.05032 0.26545
 C813 C 0.33578 -0.03237 0.26266
 C814 C 0.35275 -0.03087 0.25233
 C815 C 0.36081 -0.04776 0.24531
 C816 C 0.35170 -0.06576 0.24807
 H817 H 0.28540 -0.11207 0.23690
 H818 H 0.26332 -0.13973 0.23995
 H819 H 0.29474 -0.15392 0.29213
 H820 H 0.31659 -0.12605 0.28863
 H821 H 0.31351 -0.05113 0.27314
 H822 H 0.32939 -0.01964 0.26848
 H823 H 0.37372 -0.04701 0.23710
 H824 H 0.35779 -0.07860 0.24212
 C825 C 0.20828 -0.12387 0.73075
 C826 C 0.20576 -0.13635 0.71472
 C827 C 0.21751 -0.15206 0.71268
 C828 C 0.23204 -0.15564 0.72671
 C829 C 0.23444 -0.14279 0.74275
 C830 C 0.22266 -0.12710 0.74471
 C831 C 0.19584 -0.10800 0.73314
 C832 C 0.18535 -0.09481 0.73546
 C833 C 0.17278 -0.07920 0.73872
 C834 C 0.15610 -0.08220 0.74901
 C835 C 0.14423 -0.06696 0.75294
 C836 C 0.14906 -0.04826 0.74694
 C837 C 0.16541 -0.04569 0.73577
 C838 C 0.17727 -0.06097 0.73187
 H839 H 0.19464 -0.13399 0.70382
 H840 H 0.21498 -0.16136 0.70008
 H841 H 0.24532 -0.14472 0.75393
 H842 H 0.22472 -0.11752 0.75721
 H843 H 0.15228 -0.09636 0.75405
 H844 H 0.13125 -0.07011 0.76048
 H845 H 0.16915 -0.03175 0.73019
 H846 H 0.19000 -0.05853 0.72362
 C847 C 0.70897 0.37590 0.22831
 C848 C 0.70498 0.36224 0.21343
 C849 C 0.71697 0.34675 0.21104
 C850 C 0.73314 0.34470 0.22355
 C851 C 0.73712 0.35867 0.23835
 C852 C 0.72511 0.37414 0.24070
 C853 C 0.69635 0.39156 0.23112
 C854 C 0.68579 0.40462 0.23377
 C855 C 0.67325 0.42019 0.23730
 C856 C 0.65791 0.41775 0.24949
 C857 C 0.64611 0.43303 0.25357
 C858 C 0.64972 0.45123 0.24576
 C859 C 0.66474 0.45318 0.23285
 C860 C 0.67650 0.43787 0.22880
 H861 H 0.69251 0.36347 0.20375
 H862 H 0.71336 0.33632 0.19953
 H863 H 0.74951 0.35777 0.24814
 H864 H 0.72838 0.38467 0.25224
 H865 H 0.65505 0.40400 0.25589
 H866 H 0.63416 0.43025 0.26264
 H867 H 0.66751 0.46670 0.22601
 H868 H 0.68818 0.43986 0.21912
 C869 C 0.69563 0.61216 0.26993
 C870 C 0.69504 0.62396 0.28645
 C871 C 0.70646 0.64106 0.28830
 C872 C 0.71869 0.64657 0.27366
 C873 C 0.71900 0.63466 0.25705
 C874 C 0.70757 0.61760 0.25523
 C875 C 0.68458 0.59413 0.26822
 C876 C 0.67590 0.57874 0.26646
 C877 C 0.66633 0.55999 0.26397
 C878 C 0.64871 0.55582 0.27241
 C879 C 0.63982 0.53738 0.27015
 C880 C 0.64851 0.52283 0.25953
 C881 C 0.66608 0.52733 0.25089
 C882 C 0.67490 0.54572 0.25314
 H883 H 0.68593 0.61983 0.29798
 H884 H 0.70591 0.64974 0.30134
 H885 H 0.72805 0.63844 0.24540
 H886 H 0.70817 0.60857 0.24239
 H887 H 0.64191 0.56678 0.28080
 H888 H 0.62636 0.53450 0.27700
 H889 H 0.67296 0.51672 0.24216
 H890 H 0.68846 0.54881 0.24641
 C891 C 0.19768 0.11000 0.77465
 C892 C 0.19632 0.12285 0.79028
 C893 C 0.20802 0.13977 0.79176
 C894 C 0.22129 0.14407 0.77761
 C895 C 0.22239 0.13110 0.76188
 C896 C 0.21067 0.11421 0.76044
 C897 C 0.18612 0.09227 0.77338
 C898 C 0.17683 0.07719 0.77215
 C899 C 0.16629 0.05889 0.77045
 C900 C 0.14895 0.05680 0.75943
 C901 C 0.13948 0.03869 0.75674
 C902 C 0.14732 0.02244 0.76497
 C903 C 0.16449 0.02478 0.77641
 C904 C 0.17391 0.04288 0.77911
 H905 H 0.18634 0.11971 0.80141
 H906 H 0.20680 0.14929 0.80412
 H907 H 0.23224 0.13392 0.75061
 H908 H 0.21184 0.10437 0.74827
 H909 H 0.14298 0.06908 0.75257
 H910 H 0.12644 0.03731 0.74763
 H911 H 0.17075 0.01258 0.78314
 H912 H 0.18731 0.04433 0.78768
 C913 C 0.21960 0.28925 0.11022
 C914 C 0.20828 0.29436 0.12551
 C915 C 0.20565 0.28173 0.14039
 C916 C 0.21438 0.26385 0.14016
 C917 C 0.22570 0.25885 0.12467
 C918 C 0.22826 0.27147 0.10980
 C919 C 0.22253 0.30229 0.09503
 C920 C 0.22523 0.31312 0.08227
 C921 C 0.22880 0.32590 0.06699
 C922 C 0.22061 0.32163 0.04870
 C923 C 0.22471 0.33366 0.03368
 C924 C 0.23749 0.34992 0.03660
 C925 C 0.24480 0.35457 0.05536
 C926 C 0.24067 0.34251 0.07035
 H927 H 0.20156 0.30813 0.12599
 H928 H 0.19701 0.28614 0.15214
 H929 H 0.23246 0.24514 0.12390
 H930 H 0.23703 0.26738 0.09800
 H931 H 0.21110 0.30897 0.04602
 H932 H 0.21792 0.33016 0.01973
 H933 H 0.25356 0.36756 0.05868
 H934 H 0.24676 0.34615 0.08458
 C935 C 0.72713 0.79162 0.61057
 C936 C 0.70949 0.79081 0.61961
 C937 C 0.70677 0.77846 0.63470
 C938 C 0.72167 0.76672 0.64089
 C939 C 0.73935 0.76765 0.63166
 C940 C 0.74205 0.78004 0.61662
 C941 C 0.72997 0.80436 0.59511
 C942 C 0.73244 0.81503 0.58216
 C943 C 0.73552 0.82777 0.56675
 C944 C 0.71973 0.83480 0.55653
 C945 C 0.72275 0.84719 0.54154
 C946 C 0.74164 0.85313 0.53681
 C947 C 0.75739 0.84526 0.54676
 C948 C 0.75433 0.83288 0.56174
 H949 H 0.69783 0.79969 0.61499
 H950 H 0.69291 0.77798 0.64131
 H951 H 0.75121 0.75899 0.63616
 H952 H 0.75579 0.78061 0.60974
 H953 H 0.70509 0.83060 0.56004
 H954 H 0.71024 0.85194 0.53354
 H955 H 0.77212 0.84835 0.54286
 H956 H 0.76666 0.82716 0.56931
 C957 C 0.75802 0.80600 0.38106
 C958 C 0.74303 0.79266 0.37539
 C959 C 0.74509 0.77996 0.35981
 C960 C 0.76222 0.78038 0.34965
 C961 C 0.77711 0.79407 0.35531
 C962 C 0.77502 0.80676 0.37093
 C963 C 0.75619 0.81817 0.39785
 C964 C 0.75437 0.82767 0.41232
 C965 C 0.75185 0.83808 0.43008
 C966 C 0.73823 0.83106 0.44261
 C967 C 0.73643 0.84019 0.46045
 C968 C 0.74827 0.85651 0.46602
 C969 C 0.76160 0.86379 0.45317
 C970 C 0.76343 0.85457 0.43530
 H971 H 0.72982 0.79191 0.38316
 H972 H 0.73322 0.76981 0.35583
 H973 H 0.79055 0.79478 0.34796
 H974 H 0.78677 0.81696 0.37527
 H975 H 0.72918 0.81833 0.43872
 H976 H 0.72584 0.83442 0.46993
 H977 H 0.77107 0.87618 0.45718
 H978 H 0.77410 0.86006 0.42573
 C979 C 0.25905 0.30644 -0.11981
 C980 C 0.27612 0.30705 -0.12984
 C981 C 0.27826 0.29420 -0.14533
 C982 C 0.26336 0.28048 -0.15091
 C983 C 0.24612 0.28031 -0.14093
 C984 C 0.24401 0.29317 -0.12551
 C985 C 0.25724 0.31853 -0.10296
 C986 C 0.25533 0.32779 -0.08835
 C987 C 0.25255 0.33766 -0.07036
 C988 C 0.26340 0.35453 -0.06484
 C989 C 0.26130 0.36319 -0.04674
 C990 C 0.24850 0.35493 -0.03393
 C991 C 0.23732 0.33828 -0.03986
 C992 C 0.23936 0.32972 -0.05791
 H993 H 0.28791 0.31720 -0.12548
 H994 H 0.29176 0.29474 -0.15257
 H995 H 0.23424 0.27017 -0.14491
 H996 H 0.23075 0.29254 -0.11781
 H997 H 0.27369 0.36078 -0.07437
 H998 H 0.27014 0.37593 -0.04259
 H999 H 0.22702 0.33179 -0.03050
 H1000 H 0.23085 0.31671 -0.06204
 C1001 C 0.72986 0.20726 -0.12340
 C1002 C 0.71577 0.20270 -0.13791
 C1003 C 0.71345 0.21484 -0.15327
 C1004 C 0.72524 0.23174 -0.15436
 C1005 C 0.73931 0.23622 -0.13962
 C1006 C 0.74158 0.22407 -0.12427
 C1007 C 0.73251 0.19459 -0.10778
 C1008 C 0.73498 0.18398 -0.09472
 C1009 C 0.73830 0.17136 -0.07917
 C1010 C 0.73071 0.17529 -0.06134
 C1011 C 0.73458 0.16342 -0.04607
 C1012 C 0.74644 0.14758 -0.04823
 C1013 C 0.75329 0.14334 -0.06654
 C1014 C 0.74937 0.15523 -0.08178
 H1015 H 0.70665 0.18970 -0.13741
 H1016 H 0.70257 0.21079 -0.16436
 H1017 H 0.74852 0.24916 -0.13981
 H1018 H 0.75252 0.22776 -0.11309
 H1019 H 0.72190 0.18761 -0.05920
 H1020 H 0.72847 0.16674 -0.03243
 H1021 H 0.76149 0.13082 -0.06942
 H1022 H 0.75503 0.15186 -0.09564
 C1023 C 0.23066 0.70725 0.37900
 C1024 C 0.21704 0.70212 0.36421
 C1025 C 0.21478 0.71398 0.34861
 C1026 C 0.22617 0.73114 0.34756
 C1027 C 0.23971 0.73622 0.36263
 C1028 C 0.24193 0.72435 0.37821
 C1029 C 0.23341 0.69480 0.39480
 C1030 C 0.23605 0.68439 0.40800
 C1031 C 0.23961 0.67201 0.42369
 C1032 C 0.22435 0.66522 0.43447
 C1033 C 0.22794 0.65333 0.44981
 C1034 C 0.24685 0.64765 0.45438
 C1035 C 0.26215 0.65520 0.44379
 C1036 C 0.25851 0.66707 0.42847
 H1037 H 0.20826 0.68889 0.36467
 H1038 H 0.20429 0.70950 0.33730
 H1039 H 0.24860 0.74937 0.36250
 H1040 H 0.25250 0.72848 0.38960
 H1041 H 0.20969 0.66928 0.43114
 H1042 H 0.21591 0.64884 0.45824
 H1043 H 0.27704 0.65232 0.44747
 H1044 H 0.27051 0.67257 0.42047
 C1045 C 0.26950 0.69593 0.61288
 C1046 C 0.25512 0.70864 0.61732
 C1047 C 0.25697 0.72025 0.63400
 C1048 C 0.27330 0.71934 0.64653
 C1049 C 0.28760 0.70633 0.64204
 C1050 C 0.28571 0.69473 0.62531
 C1051 C 0.26776 0.68461 0.59527
 C1052 C 0.26597 0.67566 0.58023
 C1053 C 0.26342 0.66568 0.56191
 C1054 C 0.25039 0.67244 0.54818
 C1055 C 0.24814 0.66331 0.53014
 C1056 C 0.25894 0.64726 0.52553
 C1057 C 0.27181 0.64037 0.53949
 C1058 C 0.27407 0.64957 0.55758
 H1059 H 0.24251 0.70970 0.60778
 H1060 H 0.24556 0.72989 0.63700
 H1061 H 0.30042 0.70529 0.65123
 H1062 H 0.29698 0.68499 0.62197
 H1063 H 0.24202 0.68485 0.55140
 H1064 H 0.23783 0.66874 0.51985
 H1065 H 0.28046 0.62817 0.53631
 H1066 H 0.28423 0.64425 0.56810
 C1067 C 0.77377 0.19641 0.10873
 C1068 C 0.78993 0.19559 0.12129
 C1069 C 0.79144 0.20723 0.13799
 C1070 C 0.77682 0.21992 0.14233
 C1071 C 0.76054 0.22048 0.12968
 C1072 C 0.75905 0.20880 0.11301
 C1073 C 0.77249 0.18494 0.09120
 C1074 C 0.77130 0.17568 0.07631
 C1075 C 0.76964 0.16512 0.05826
 C1076 C 0.77851 0.17258 0.04234
 C1077 C 0.77582 0.16312 0.02446
 C1078 C 0.76417 0.14606 0.02226
 C1079 C 0.75576 0.13836 0.03844
 C1080 C 0.75845 0.14787 0.05632
 H1081 H 0.80144 0.18609 0.11808
 H1082 H 0.80423 0.20647 0.14728
 H1083 H 0.74890 0.22986 0.13262
 H1084 H 0.74646 0.20954 0.10340
 H1085 H 0.78723 0.18590 0.04367
 H1086 H 0.78272 0.16925 0.01232
 H1087 H 0.74651 0.12540 0.03717
 H1088 H 0.75146 0.14200 0.06855
 C1089 C 0.48384 0.36346 0.54089
 C1090 C 0.49395 0.36474 0.52405
 C1091 C 0.49149 0.38034 0.51220
 C1092 C 0.47882 0.39488 0.51703
 C1093 C 0.46884 0.39347 0.53409
 C1094 C 0.47134 0.37789 0.54588
 C1095 C 0.48585 0.34723 0.55294
 C1096 C 0.48686 0.33379 0.56332
 C1097 C 0.48717 0.31797 0.57606
 C1098 C 0.49690 0.30132 0.57149
 C1099 C 0.49612 0.28563 0.58351
 C1100 C 0.48544 0.28635 0.60015
 C1101 C 0.47616 0.30338 0.60483
 C1102 C 0.47699 0.31901 0.59286
 H1103 H 0.50363 0.35363 0.52000
 H1104 H 0.49935 0.38082 0.49918
 H1105 H 0.45912 0.40438 0.53844
 H1106 H 0.46343 0.37706 0.55889
 H1107 H 0.50482 0.30034 0.55849
 H1108 H 0.50339 0.27281 0.57944
 H1109 H 0.46821 0.30465 0.61777
 H1110 H 0.46947 0.33184 0.59661
 C1111 C -0.01761 0.86149 0.04142
 C1112 C -0.03352 0.87299 0.04342
 C1113 C -0.03607 0.88858 0.03165
 C1114 C -0.02271 0.89297 0.01763
 C1115 C -0.00672 0.88129 0.01574
 C1116 C -0.00420 0.86567 0.02756
 C1117 C -0.01522 0.84545 0.05366
 C1118 C -0.01382 0.83216 0.06419
 C1119 C -0.01294 0.81651 0.07711
 C1120 C -0.02149 0.81817 0.09480
 C1121 C -0.02176 0.80272 0.10703
 C1122 C -0.01351 0.78532 0.10173
 C1123 C -0.00452 0.78391 0.08411
 C1124 C -0.00429 0.79941 0.07185
 H1125 H -0.04401 0.86988 0.05409
 H1126 H -0.04861 0.89705 0.03356
 H1127 H 0.00394 0.88419 0.00522
 H1128 H 0.00819 0.85688 0.02588
 H1129 H -0.02820 0.83133 0.09905
 H1130 H -0.02850 0.80439 0.12063
 H1131 H 0.00176 0.77065 0.07952
 H1132 H 0.00230 0.79794 0.05815
 C1133 C 0.02820 0.65001 0.03441
 C1134 C 0.04215 0.63700 0.03975
 C1135 C 0.04631 0.62175 0.02726
 C1136 C 0.03647 0.61927 0.00929
 C1137 C 0.02275 0.63267 0.00397
 C1138 C 0.01865 0.64788 0.01644
 C1139 C 0.02298 0.66509 0.04752
 C1140 C 0.01789 0.67757 0.05830
 C1141 C 0.01105 0.69222 0.07101
 C1142 C 0.02411 0.70424 0.08213
 C1143 C 0.01728 0.71811 0.09479
 C1144 C -0.00272 0.72007 0.09648
 C1145 C -0.01572 0.70807 0.08507
 C1146 C -0.00886 0.69425 0.07244
 H1147 H 0.04959 0.63848 0.05366
 H1148 H 0.05689 0.61170 0.03188
 H1149 H 0.01507 0.63145 -0.00980
 H1150 H 0.00784 0.65786 0.01214
 H1151 H 0.03956 0.70275 0.08119
 H1152 H 0.02765 0.72691 0.10359
 H1153 H -0.03119 0.70939 0.08587
 H1154 H -0.01911 0.68506 0.06385
 C1155 C 0.52843 0.15059 0.53546
 C1156 C 0.54287 0.13791 0.54025
 C1157 C 0.54699 0.12286 0.52749
 C1158 C 0.53664 0.12027 0.50980
 C1159 C 0.52240 0.13333 0.50504
 C1160 C 0.51834 0.14834 0.51777
 C1161 C 0.52332 0.16546 0.54886
 C1162 C 0.51837 0.17775 0.55994
 C1163 C 0.51177 0.19217 0.57306
 C1164 C 0.51482 0.21174 0.56962
 C1165 C 0.50763 0.22567 0.58198
 C1166 C 0.49717 0.22021 0.59787
 C1167 C 0.49441 0.20047 0.60130
 C1168 C 0.50163 0.18659 0.58897
 H1169 H 0.55076 0.13949 0.55393
 H1170 H 0.55800 0.11309 0.53169
 H1171 H 0.51430 0.13203 0.49149
 H1172 H 0.50715 0.15809 0.51389
 H1173 H 0.52258 0.21622 0.55728
 H1174 H 0.50995 0.24063 0.57881
 H1175 H 0.48683 0.19570 0.61362
 H1176 H 0.49919 0.17148 0.59179
 C1177 C -0.02322 0.15679 0.47728
 C1178 C -0.04060 0.14575 0.47572
 C1179 C -0.04375 0.13051 0.48786
 C1180 C -0.02951 0.12602 0.50173
 C1181 C -0.01226 0.13753 0.50351
 C1182 C -0.00914 0.15278 0.49132
 C1183 C -0.01946 0.17149 0.46378
 C1184 C -0.01613 0.18337 0.45207
 C1185 C -0.01175 0.19701 0.43770
 C1186 C -0.02665 0.20501 0.42689
 C1187 C -0.02224 0.21740 0.41218
 C1188 C -0.00287 0.22183 0.40808
 C1189 C 0.01197 0.21399 0.41928
 C1190 C 0.00754 0.20164 0.43394
 H1191 H -0.05161 0.14873 0.46490
 H1192 H -0.05732 0.12220 0.48621
 H1193 H -0.00095 0.13450 0.51394
 H1194 H 0.00441 0.16120 0.49260
 H1195 H -0.04164 0.20142 0.42960
 H1196 H -0.03398 0.22302 0.40368
 H1197 H 0.02703 0.21739 0.41673
 H1198 H 0.01918 0.19552 0.44221
 C1199 C 0.47502 0.65494 0.97686
 C1200 C 0.45698 0.64508 0.97652
 C1201 C 0.45359 0.63028 0.98913
 C1202 C 0.46824 0.62507 1.00225
 C1203 C 0.48619 0.63541 1.00280
 C1204 C 0.48956 0.65020 0.99014
 C1205 C 0.47895 0.66909 0.96285
 C1206 C 0.48254 0.68046 0.95073
 C1207 C 0.48738 0.69345 0.93592
 C1208 C 0.47299 0.70332 0.92622
 C1209 C 0.47781 0.71518 0.91120
 C1210 C 0.49705 0.71717 0.90563
 C1211 C 0.51142 0.70743 0.91574
 C1212 C 0.50660 0.69564 0.93071
 H1213 H 0.44563 0.64860 0.96629
 H1214 H 0.43951 0.62286 0.98843
 H1215 H 0.49784 0.63176 1.01261
 H1216 H 0.50363 0.65768 0.99046
 H1217 H 0.45804 0.70167 0.93010
 H1218 H 0.46642 0.72242 0.90374
 H1219 H 0.52646 0.70902 0.91220
 H1220 H 0.51786 0.68812 0.93815
 C1221 C 0.51864 0.85863 0.96392
 C1222 C 0.50639 0.86156 0.97903
 C1223 C 0.51013 0.87704 0.99209
 C1224 C 0.52625 0.88981 0.99021
 C1225 C 0.53836 0.88677 0.97482
 C1226 C 0.53457 0.87131 0.96182
 C1227 C 0.51544 0.84230 0.95091
 C1228 C 0.51357 0.82857 0.93996
 C1229 C 0.51238 0.81213 0.92692
 C1230 C 0.49479 0.80602 0.91763
 C1231 C 0.49398 0.79013 0.90479
 C1232 C 0.51080 0.78026 0.90109
 C1233 C 0.52836 0.78648 0.91060
 C1234 C 0.52913 0.80231 0.92339
 H1235 H 0.49403 0.85178 0.98082
 H1236 H 0.50041 0.87890 1.00363
 H1237 H 0.55093 0.89613 0.97286
 H1238 H 0.54421 0.86912 0.95022
 H1239 H 0.48175 0.81359 0.92021
 H1240 H 0.48031 0.78581 0.89752
 H1241 H 0.54150 0.77898 0.90834
 H1242 H 0.54281 0.80689 0.93054
 C1243 C 0.01633 0.35983 0.46725
 C1244 C 0.02757 0.37608 0.46263
 C1245 C 0.03334 0.39001 0.47678
 C1246 C 0.02788 0.38788 0.49576
 C1247 C 0.01626 0.37167 0.50019
 C1248 C 0.01059 0.35771 0.48602
 C1249 C 0.01169 0.34483 0.45297
 C1250 C 0.00850 0.33209 0.44105
 C1251 C 0.00564 0.31669 0.42688
 C1252 C 0.01228 0.31910 0.40848
 C1253 C 0.01142 0.30360 0.39526
 C1254 C 0.00392 0.28544 0.40030
 C1255 C -0.00334 0.28330 0.41860
 C1256 C -0.00242 0.29884 0.43183
 H1257 H 0.03212 0.37786 0.44814
 H1258 H 0.04207 0.40242 0.47285
 H1259 H 0.01197 0.36947 0.51467
 H1260 H 0.00203 0.34510 0.48979
 H1261 H 0.01859 0.33285 0.40451
 H1262 H 0.01690 0.30571 0.38118
 H1263 H -0.00893 0.26945 0.42300
 H1264 H -0.00746 0.29678 0.44610
 C1265 C 0.36425 0.53932 0.48341
 C1266 C 0.37060 0.52731 0.49779
 C1267 C 0.38609 0.51544 0.49474
 C1268 C 0.39545 0.51548 0.47725
 C1269 C 0.38885 0.52757 0.46289
 C1270 C 0.37339 0.53938 0.46596
 C1271 C 0.34851 0.55180 0.48641
 C1272 C 0.33548 0.56259 0.48821
 C1273 C 0.32018 0.57590 0.48937
 C1274 C 0.30293 0.57089 0.49814
 C1275 C 0.28767 0.58347 0.49793
 C1276 C 0.28949 0.60114 0.48884
 C1277 C 0.30707 0.60622 0.48054
 C1278 C 0.32227 0.59369 0.48080
 H1279 H 0.36367 0.52717 0.51137
 H1280 H 0.39081 0.50645 0.50618
 H1281 H 0.39550 0.52789 0.44919
 H1282 H 0.36857 0.54859 0.45471
 H1283 H 0.30113 0.55712 0.50476
 H1284 H 0.27425 0.57907 0.50426
 H1285 H 0.30903 0.61986 0.47371
 H1286 H 0.33555 0.59774 0.47399
 C1287 C 0.86278 0.03751 -0.01656
 C1288 C 0.87727 0.04315 -0.02881
 C1289 C 0.89321 0.03182 -0.03124
 C1290 C 0.89492 0.01460 -0.02145
 C1291 C 0.88035 0.00915 -0.00898
 C1292 C 0.86438 0.02052 -0.00659
 C1293 C 0.84606 0.04895 -0.01482
 C1294 C 0.83215 0.05877 -0.01411
 C1295 C 0.81570 0.07074 -0.01427
 C1296 C 0.80479 0.07250 -0.03132
 C1297 C 0.78958 0.08500 -0.03209
 C1298 C 0.78506 0.09600 -0.01579
 C1299 C 0.79576 0.09380 0.00144
 C1300 C 0.81105 0.08127 0.00217
 H1301 H 0.87618 0.05627 -0.03661
 H1302 H 0.90417 0.03664 -0.04078
 H1303 H 0.88107 -0.00404 -0.00129
 H1304 H 0.85320 0.01596 0.00287
 H1305 H 0.80824 0.06442 -0.04413
 H1306 H 0.78140 0.08615 -0.04548
 H1307 H 0.79276 0.10221 0.01417
 H1308 H 0.81946 0.08009 0.01543
 C1309 C 0.64797 0.03845 0.02793
 C1310 C 0.63557 0.04310 0.04252
 C1311 C 0.62019 0.03037 0.04663
 C1312 C 0.61698 0.01286 0.03611
 C1313 C 0.62972 0.00827 0.02164
 C1314 C 0.64506 0.02097 0.01760
 C1315 C 0.66337 0.05173 0.02303
 C1316 C 0.67617 0.06266 0.01832
 C1317 C 0.69127 0.07556 0.01206
 C1318 C 0.71061 0.07046 0.01334
 C1319 C 0.72514 0.08264 0.00643
 C1320 C 0.72049 0.10004 -0.00191
 C1321 C 0.70102 0.10510 -0.00298
 C1322 C 0.68653 0.09293 0.00395
 H1323 H 0.63766 0.05664 0.05058
 H1324 H 0.61065 0.03445 0.05777
 H1325 H 0.62792 -0.00514 0.01339
 H1326 H 0.65457 0.01721 0.00629
 H1327 H 0.71442 0.05696 0.01943
 H1328 H 0.73993 0.07818 0.00718
 H1329 H 0.69699 0.11852 -0.00907
 H1330 H 0.67161 0.09700 0.00285
 C1331 C 0.15404 0.53188 0.52944
 C1332 C 0.13993 0.53804 0.54171
 C1333 C 0.12495 0.52526 0.54670
 C1334 C 0.12385 0.50614 0.53940
 C1335 C 0.13826 0.50006 0.52723
 C1336 C 0.15322 0.51285 0.52230
 C1337 C 0.16910 0.54513 0.52373
 C1338 C 0.18161 0.55614 0.51856
 C1339 C 0.19634 0.56926 0.51195
 C1340 C 0.20780 0.58092 0.52500
 C1341 C 0.22171 0.59403 0.51845
 C1342 C 0.22425 0.59567 0.49874
 C1343 C 0.21285 0.58370 0.48576
 C1344 C 0.19900 0.57059 0.49234
 H1345 H 0.14039 0.55277 0.54728
 H1346 H 0.11410 0.53050 0.55600
 H1347 H 0.13808 0.48543 0.52152
 H1348 H 0.16408 0.50790 0.51281
 H1349 H 0.20582 0.58005 0.54022
 H1350 H 0.23006 0.60324 0.52878
 H1351 H 0.21467 0.58443 0.47052
 H1352 H 0.19026 0.56159 0.48210
 C1353 C 0.15170 0.47384 -0.02455
 C1354 C 0.14192 0.47341 -0.04243
 C1355 C 0.12702 0.48589 -0.04595
 C1356 C 0.12164 0.49899 -0.03159
 C1357 C 0.13190 0.49966 -0.01379
 C1358 C 0.14680 0.48711 -0.01029
 C1359 C 0.16596 0.45992 -0.02058
 C1360 C 0.17739 0.44776 -0.01726
 C1361 C 0.19044 0.43276 -0.01317
 C1362 C 0.18309 0.41505 -0.00711
 C1363 C 0.19560 0.40047 -0.00276
 C1364 C 0.21569 0.40340 -0.00442
 C1365 C 0.22295 0.42116 -0.01074
 C1366 C 0.21039 0.43577 -0.01507
 H1367 H 0.14558 0.46319 -0.05356
 H1368 H 0.11967 0.48512 -0.05990
 H1369 H 0.12811 0.50946 -0.00238
 H1370 H 0.15423 0.48750 0.00364
 H1371 H 0.16767 0.41255 -0.00566
 H1372 H 0.18955 0.38687 0.00183
 H1373 H 0.23836 0.42396 -0.01187
 H1374 H 0.21623 0.44944 -0.01972
 C1375 C 0.65251 0.97577 0.47486
 C1376 C 0.64247 0.97501 0.45711
 C1377 C 0.62761 0.98752 0.45353
 C1378 C 0.62252 1.00097 0.46771
 C1379 C 0.63298 1.00189 0.48539
 C1380 C 0.64785 0.98932 0.48895
 C1381 C 0.66693 0.96201 0.47887
 C1382 C 0.67858 0.95009 0.48229
 C1383 C 0.69197 0.93544 0.48661
 C1384 C 0.68569 0.91926 0.49630
 C1385 C 0.69858 0.90505 0.50081
 C1386 C 0.71808 0.90684 0.49581
 C1387 C 0.72411 0.92300 0.48567
 C1388 C 0.71116 0.93724 0.48118
 H1389 H 0.64595 0.96457 0.44610
 H1390 H 0.62010 0.98653 0.43966
 H1391 H 0.62942 1.01196 0.49667
 H1392 H 0.65548 0.98997 0.50278
 H1393 H 0.67081 0.91761 0.50041
 H1394 H 0.69315 0.89259 0.50809
 H1395 H 0.73883 0.92493 0.48145
 H1396 H 0.71616 0.94968 0.47357
 C1397 C 0.86383 0.96441 0.51257
 C1398 C 0.87858 0.95954 0.52553
 C1399 C 0.89381 0.97278 0.53059
 C1400 C 0.89450 0.99115 0.52278
 C1401 C 0.87974 0.99580 0.50950
 C1402 C 0.86450 0.98251 0.50448
 C1403 C 0.84762 0.95110 0.50842
 C1404 C 0.83399 0.93984 0.50576
 C1405 C 0.81769 0.92631 0.50368
 C1406 C 0.81881 0.90831 0.51183
 C1407 C 0.80246 0.89584 0.51170
 C1408 C 0.78468 0.90124 0.50350
 C1409 C 0.78394 0.91901 0.49460
 C1410 C 0.80032 0.93152 0.49478
 H1411 H 0.87818 0.94557 0.53192
 H1412 H 0.90496 0.96856 0.54067
 H1413 H 0.87969 1.00980 0.50325
 H1414 H 0.85309 0.98647 0.49451
 H1415 H 0.83219 0.90410 0.51871
 H1416 H 0.80368 0.88206 0.51827
 H1417 H 0.77060 0.92364 0.48818
 H1418 H 0.79929 0.94545 0.48846
 C1419 C 0.35869 0.46607 0.01599
 C1420 C 0.37500 0.46007 0.02626
 C1421 C 0.39049 0.47312 0.03101
 C1422 C 0.38987 0.49236 0.02552
 C1423 C 0.37359 0.49815 0.01483
 C1424 C 0.35807 0.48508 0.01016
 C1425 C 0.34218 0.45297 0.01254
 C1426 C 0.32829 0.44194 0.01052
 C1427 C 0.31172 0.42869 0.00931
 C1428 C 0.30259 0.42397 0.02606
 C1429 C 0.28687 0.41071 0.02536
 C1430 C 0.28007 0.40185 0.00786
 C1431 C 0.28907 0.40699 -0.00898
 C1432 C 0.30488 0.42028 -0.00825
 H1433 H 0.37563 0.44538 0.03089
 H1434 H 0.40289 0.46809 0.03902
 H1435 H 0.37254 0.51288 0.01049
 H1436 H 0.34546 0.48993 0.00232
 H1437 H 0.30767 0.43049 0.03971
 H1438 H 0.27998 0.40751 0.03855
 H1439 H 0.28421 0.40049 -0.02265
 H1440 H 0.31186 0.42386 -0.02132
 C1441 C 0.54103 0.48228 0.36281
 C1442 C 0.52384 0.49201 0.36414
 C1443 C 0.51231 0.48954 0.37991
 C1444 C 0.51779 0.47723 0.39456
 C1445 C 0.53523 0.46770 0.39314
 C1446 C 0.54671 0.47021 0.37739
 C1447 C 0.55259 0.48408 0.34627
 C1448 C 0.56244 0.48487 0.33248
 C1449 C 0.57441 0.48486 0.31613
 C1450 C 0.58428 0.50172 0.31084
 C1451 C 0.59670 0.50121 0.29554
 C1452 C 0.59950 0.48381 0.28548
 C1453 C 0.58912 0.46707 0.29066
 C1454 C 0.57673 0.46760 0.30587
 H1455 H 0.51924 0.50133 0.35290
 H1456 H 0.49897 0.49704 0.38040
 H1457 H 0.54008 0.45829 0.40415
 H1458 H 0.55999 0.46259 0.37651
 H1459 H 0.58264 0.51516 0.31871
 H1460 H 0.60451 0.51429 0.29201
 H1461 H 0.59062 0.45351 0.28296
 H1462 H 0.56912 0.45447 0.30978
 C1463 C 0.03941 -0.01948 0.86342
 C1464 C 0.04510 -0.03169 0.87787
 C1465 C 0.03372 -0.03416 0.89371
 C1466 C 0.01642 -0.02445 0.89534
 C1467 C 0.01092 -0.01204 0.88079
 C1468 C 0.02234 -0.00961 0.86493
 C1469 C 0.05089 -0.01761 0.84683
 C1470 C 0.06066 -0.01667 0.83300
 C1471 C 0.07252 -0.01642 0.81659
 C1472 C 0.07420 -0.03336 0.80560
 C1473 C 0.08653 -0.03367 0.79032
 C1474 C 0.09742 -0.01702 0.78582
 C1475 C 0.09531 0.00009 0.79662
 C1476 C 0.08296 0.00036 0.81197
 H1477 H 0.05828 -0.03942 0.87685
 H1478 H 0.03858 -0.04367 0.90465
 H1479 H -0.00232 -0.00441 0.88143
 H1480 H 0.01775 -0.00017 0.85379
 H1481 H 0.06618 -0.04643 0.80902
 H1482 H 0.08762 -0.04699 0.78208
 H1483 H 0.10367 0.01307 0.79365
 H1484 H 0.08183 0.01354 0.82044
 C1485 C 0.03946 0.02866 0.65041
 C1486 C 0.04426 0.04376 0.63851
 C1487 C 0.03168 0.04810 0.62323
 C1488 C 0.01416 0.03731 0.61963
 C1489 C 0.00940 0.02234 0.63188
 C1490 C 0.02196 0.01806 0.64711
 C1491 C 0.05263 0.02354 0.66566
 C1492 C 0.06353 0.01870 0.67831
 C1493 C 0.07648 0.01233 0.69319
 C1494 C 0.07131 0.01323 0.71230
 C1495 C 0.08357 0.00624 0.72660
 C1496 C 0.10112 -0.00181 0.72193
 C1497 C 0.10628 -0.00245 0.70270
 C1498 C 0.09402 0.00455 0.68844
 H1499 H 0.05781 0.05203 0.64090
 H1500 H 0.03590 0.05965 0.61410
 H1501 H -0.00402 0.01386 0.62977
 H1502 H 0.01808 0.00635 0.65622
 H1503 H 0.05769 0.01909 0.71612
 H1504 H 0.07906 0.00671 0.74122
 H1505 H 0.11983 -0.00828 0.69867
 H1506 H 0.09817 0.00376 0.67370
 C1507 C 0.53797 0.52705 0.15011
 C1508 C 0.54289 0.54191 0.13797
 C1509 C 0.53007 0.54653 0.12299
 C1510 C 0.51217 0.53627 0.11993
 C1511 C 0.50730 0.52155 0.13242
 C1512 C 0.52011 0.51699 0.14735
 C1513 C 0.55132 0.52163 0.16509
 C1514 C 0.56225 0.51647 0.17757
 C1515 C 0.57506 0.50967 0.19234
 C1516 C 0.58557 0.52268 0.20489
 C1517 C 0.59800 0.51592 0.21917
 C1518 C 0.60008 0.49605 0.22105
 C1519 C 0.58940 0.48311 0.20841
 C1520 C 0.57698 0.48988 0.19418
 H1521 H 0.55672 0.54977 0.13993
 H1522 H 0.53437 0.55788 0.11365
 H1523 H 0.49360 0.51348 0.13074
 H1524 H 0.51613 0.50547 0.15666
 H1525 H 0.58422 0.53803 0.20357
 H1526 H 0.60625 0.52626 0.22848
 H1527 H 0.59047 0.46773 0.20966
 H1528 H 0.56885 0.47967 0.18461
 C1529 C 0.47121 -0.02719 0.15113
 C1530 C 0.48479 -0.01268 0.14678
 C1531 C 0.49761 -0.01573 0.13216
 C1532 C 0.49694 -0.03334 0.12163
 C1533 C 0.48352 -0.04798 0.12645
 C1534 C 0.47074 -0.04490 0.14107
 C1535 C 0.45707 -0.02356 0.16514
 C1536 C 0.44483 -0.02029 0.17642
 C1537 C 0.42983 -0.01601 0.18932
 C1538 C 0.43330 -0.01648 0.20913
 C1539 C 0.41886 -0.01146 0.22154
 C1540 C 0.40082 -0.00582 0.21424
 C1541 C 0.39738 -0.00574 0.19432
 C1542 C 0.41179 -0.01079 0.18196
 H1543 H 0.48523 0.00112 0.15443
 H1544 H 0.50765 -0.00410 0.12883
 H1545 H 0.48272 -0.06181 0.11889
 H1546 H 0.46029 -0.05624 0.14432
 H1547 H 0.44725 -0.02042 0.21498
 H1548 H 0.42204 -0.01137 0.23681
 H1549 H 0.38356 -0.00169 0.18828
 H1550 H 0.40894 -0.01041 0.16666
 C1551 C 0.97606 0.47319 0.65419
 C1552 C 0.99248 0.48530 0.65226
 C1553 C 1.00548 0.48133 0.63802
 C1554 C 1.00220 0.46519 0.62547
 C1555 C 0.98571 0.45302 0.62772
 C1556 C 0.97276 0.45702 0.64196
 C1557 C 0.96215 0.47773 0.66818
 C1558 C 0.95019 0.48172 0.67952
 C1559 C 0.93562 0.48689 0.69259
 C1560 C 0.93143 0.50623 0.69531
 C1561 C 0.91671 0.51138 0.70726
 C1562 C 0.90590 0.49722 0.71662
 C1563 C 0.91038 0.47782 0.71403
 C1564 C 0.92514 0.47269 0.70204
 H1565 H 0.99514 0.49790 0.66165
 H1566 H 1.01802 0.49097 0.63688
 H1567 H 0.98254 0.44053 0.61837
 H1568 H 0.96005 0.44760 0.64326
 H1569 H 0.93944 0.51733 0.68807
 H1570 H 0.91383 0.52646 0.70921
 H1571 H 0.90217 0.46658 0.72085
 H1572 H 0.92819 0.45765 0.69993
 C1573 C 0.96253 0.51710 0.85816
 C1574 C 0.98043 0.50852 0.85882
 C1575 C 0.99363 0.51271 0.87421
 C1576 C 0.98910 0.52562 0.88910
 C1577 C 0.97089 0.53387 0.88843
 C1578 C 0.95773 0.52964 0.87306
 C1579 C 0.94943 0.51391 0.84179
 C1580 C 0.93841 0.51206 0.82803
 C1581 C 0.92525 0.51087 0.81157
 C1582 C 0.91711 0.49312 0.80462
 C1583 C 0.90416 0.49228 0.78869
 C1584 C 0.89913 0.50921 0.77963
 C1585 C 0.90758 0.52693 0.78668
 C1586 C 0.92050 0.52773 0.80254
 H1587 H 0.98432 0.49885 0.84731
 H1588 H 1.00750 0.50615 0.87416
 H1589 H 0.96675 0.54366 0.89970
 H1590 H 0.94391 0.53637 0.87267
 H1591 H 0.92070 0.47997 0.81152
 H1592 H 0.89794 0.47844 0.78370
 H1593 H 0.90449 0.54021 0.77979
 H1594 H 0.92682 0.54153 0.80772
 C1595 C 0.46592 0.02134 0.35481
 C1596 C 0.46383 0.03775 0.36645
 C1597 C 0.47661 0.04189 0.38214
 C1598 C 0.49174 0.02965 0.38644
 C1599 C 0.49358 0.01304 0.37472
 C1600 C 0.48076 0.00894 0.35901
 C1601 C 0.45308 0.01768 0.33831
 C1602 C 0.44220 0.01539 0.32447
 C1603 C 0.42906 0.01368 0.30799
 C1604 C 0.42612 0.02979 0.29702
 C1605 C 0.41274 0.02869 0.28153
 C1606 C 0.40206 0.01141 0.27681
 C1607 C 0.40537 -0.00485 0.28766
 C1608 C 0.41877 -0.00370 0.30323
 H1609 H 0.45242 0.04748 0.36330
 H1610 H 0.47467 0.05483 0.39067
 H1611 H 0.50490 0.00318 0.37758
 H1612 H 0.48250 -0.00382 0.35007
 H1613 H 0.43403 0.04330 0.30055
 H1614 H 0.41079 0.04135 0.27323
 H1615 H 0.39722 -0.01828 0.28448
 H1616 H 0.42090 -0.01624 0.31169
   
