data_POSCAR
  _audit_creation_date              2014-09-24
  _audit_creation_method            'ToBaCCo'
  _symmetry_space_group_name_H-M    'P1'
  _symmetry_Int_Tables_number       1
  _symmetry_cell_setting            triclinic
  loop_
  _symmetry_equiv_pos_as_xyz
 x,y,z
_cell_length_a 95.3398
_cell_length_b 95.3362
_cell_length_c 95.3133
_cell_angle_alpha 89.986300
_cell_angle_beta 90.021800
_cell_angle_gamma 90.061900
loop_
  _atom_site_label
  _atom_site_type_symbol
  _atom_site_fract_x
  _atom_site_fract_y
  _atom_site_fract_z
C1 C 0.30800 0.44232 0.92383
 C2 C 0.31996 0.44840 0.92999
 C3 C 0.32606 0.44262 0.94216
 C4 C 0.31981 0.43066 0.94821
 C5 C 0.30786 0.42443 0.94222
 C6 C 0.30201 0.43039 0.93008
 H7 H 0.32463 0.45754 0.92513
 H8 H 0.32437 0.42602 0.95753
 H9 H 0.29286 0.42560 0.92534
 C10 C 0.44237 0.82637 0.44188
 C11 C 0.44819 0.82035 0.42970
 C12 C 0.44217 0.80842 0.42346
 C13 C 0.43024 0.80235 0.42964
 C14 C 0.42423 0.80811 0.44179
 C15 C 0.43041 0.82006 0.44786
 H16 H 0.45735 0.82507 0.42490
 H17 H 0.42549 0.79322 0.42485
 H18 H 0.42573 0.82455 0.45718
 C19 C 0.94244 0.92393 0.80803
 C20 C 0.93054 0.93020 0.80203
 C21 C 0.92460 0.94234 0.80788
 C22 C 0.93083 0.94831 0.81985
 C23 C 0.94276 0.94223 0.82611
 C24 C 0.94851 0.93007 0.82000
 H25 H 0.92574 0.92548 0.79288
 H26 H 0.92620 0.95762 0.82441
 H27 H 0.95764 0.92519 0.82467
 C28 C 0.44134 -0.07675 0.30817
 C29 C 0.44754 -0.07051 0.32001
 C30 C 0.44175 -0.05842 0.32613
 C31 C 0.42964 -0.05250 0.32016
 C32 C 0.42325 -0.05855 0.30832
 C33 C 0.42923 -0.07064 0.30237
 H34 H 0.45681 -0.07519 0.32459
 H35 H 0.42505 -0.04325 0.32487
 H36 H 0.42433 -0.07543 0.29332
 C37 C 0.80883 0.30878 0.32640
 C38 C 0.82097 0.30294 0.32043
 C39 C 0.82734 0.30907 0.30862
 C40 C 0.82131 0.32116 0.30271
 C41 C 0.80918 0.32719 0.30850
 C42 C 0.80299 0.32087 0.32031
 H43 H 0.82560 0.29368 0.32510
 H44 H 0.82620 0.32600 0.29367
 H45 H 0.79369 0.32550 0.32489
 C46 C -0.19150 0.82672 0.80816
 C47 C -0.17933 0.82061 0.80243
 C48 C -0.17322 0.80866 0.80851
 C49 C -0.17949 0.80267 0.82042
 C50 C -0.19165 0.80851 0.82642
 C51 C -0.19759 0.82049 0.82011
 H52 H -0.17445 0.82527 0.79329
 H53 H -0.17473 0.79351 0.82515
 H54 H -0.20692 0.82511 0.82464
 C55 C 0.94173 0.32683 0.44108
 C56 C 0.92991 0.32045 0.44716
 C57 C 0.92391 0.30834 0.44125
 C58 C 0.92999 0.30254 0.42915
 C59 C 0.94182 0.30872 0.42288
 C60 C 0.94765 0.32083 0.42897
 H61 H 0.92523 0.32505 0.45643
 H62 H 0.92538 0.29326 0.42447
 H63 H 0.95670 0.32572 0.42416
 C64 C 0.44135 0.44108 0.82681
 C65 C 0.42920 0.44693 0.82075
 C66 C 0.42286 0.44082 0.80892
 C67 C 0.42890 0.42876 0.80299
 C68 C 0.44103 0.42273 0.80879
 C69 C 0.44720 0.42900 0.82063
 H70 H 0.42450 0.45618 0.82536
 H71 H 0.42403 0.42393 0.79393
 H72 H 0.45650 0.42431 0.82515
 C73 C 0.80659 0.92565 0.94354
 C74 C 0.80060 0.93178 0.93154
 C75 C 0.80654 0.94380 0.92538
 C76 C 0.81857 0.94976 0.93149
 C77 C 0.82475 0.94381 0.94349
 C78 C 0.81862 0.93179 0.94946
 H79 H 0.79140 0.92705 0.92685
 H80 H 0.82328 0.95895 0.92675
 H81 H 0.82337 0.92708 0.95864
 C82 C 0.30888 0.82760 0.30853
 C83 C 0.30269 0.82121 0.32035
 C84 C 0.30854 0.80911 0.32642
 C85 C 0.32068 0.80328 0.32045
 C86 C 0.32705 0.80942 0.30866
 C87 C 0.32104 0.82151 0.30275
 H88 H 0.29339 0.82575 0.32499
 H89 H 0.32529 0.79401 0.32512
 H90 H 0.32599 0.82629 0.29371
 C91 C 0.80948 0.42326 0.44102
 C92 C 0.82161 0.42933 0.44682
 C93 C 0.82793 0.44120 0.44066
 C94 C 0.82173 0.44703 0.42856
 C95 C 0.80961 0.44112 0.42259
 C96 C 0.80355 0.42927 0.42894
 H97 H 0.82623 0.42465 0.45608
 H98 H 0.82645 0.45612 0.42363
 H99 H 0.79426 0.42460 0.42436
 C100 C 0.94230 0.82639 -0.05792
 C101 C 0.93037 0.82005 -0.05190
 C102 C 0.92419 0.80811 -0.05796
 C103 C 0.93016 0.80237 -0.07015
 C104 C 0.94206 0.80846 -0.07636
 C105 C 0.94809 0.82039 -0.07013
 H106 H 0.92572 0.82452 -0.04256
 H107 H 0.92540 0.79324 -0.07494
 H108 H 0.95722 0.82513 -0.07496
 C109 C 0.30917 0.32723 0.80840
 C110 C 0.30297 0.32095 0.82022
 C111 C 0.30876 0.30884 0.82632
 C112 C 0.32086 0.30294 0.82034
 C113 C 0.32725 0.30903 0.80852
 C114 C 0.32128 0.32114 0.80260
 H115 H 0.29370 0.32563 0.82481
 H116 H 0.32544 0.29366 0.82502
 H117 H 0.32618 0.32595 0.79356
 C118 C 0.17451 0.55781 0.55742
 C119 C 0.18075 0.55171 0.56931
 C120 C 0.19267 0.55773 0.57557
 C121 C 0.19844 0.56996 0.56968
 C122 C 0.19238 0.57626 0.55780
 C123 C 0.18046 0.57005 0.55172
 H124 H 0.17618 0.54234 0.57384
 H125 H 0.20756 0.57473 0.57449
 H126 H 0.17566 0.57488 0.54263
 C127 C 0.57686 0.69111 0.05830
 C128 C 0.57078 0.67899 0.05250
 C129 C 0.55869 0.67296 0.05843
 C130 C 0.55261 0.67932 0.07026
 C131 C 0.55851 0.69144 0.07624
 C132 C 0.57060 0.69729 0.07014
 H133 H 0.57559 0.67411 0.04345
 H134 H 0.54335 0.67470 0.07495
 H135 H 0.57526 0.70657 0.07473
 C136 C 0.69119 0.19031 0.67266
 C137 C 0.67938 0.19640 0.67902
 C138 C 0.67333 0.19045 0.69107
 C139 C 0.67932 0.17828 0.69684
 C140 C 0.69116 0.17194 0.69067
 C141 C 0.69703 0.17815 0.67860
 H142 H 0.67477 0.20572 0.67446
 H143 H 0.67461 0.17366 0.70608
 H144 H 0.70608 0.17341 0.67366
 C145 C 1.07597 0.05758 0.19150
 C146 C 1.06969 0.06946 0.19751
 C147 C 1.05781 0.07568 0.19140
 C148 C 1.05214 0.06976 0.17914
 C149 C 1.05824 0.05785 0.17285
 C150 C 1.07013 0.05182 0.17924
 H151 H 1.07418 0.07402 0.20690
 H152 H 1.04303 0.07460 0.17438
 H153 H 1.07503 0.04271 0.17455
 C154 C 0.05880 0.17295 1.05891
 C155 C 0.05272 0.17927 1.07076
 C156 C 0.05861 0.19140 1.07684
 C157 C 0.07071 0.19725 1.07067
 C158 C 0.07695 0.19110 1.05881
 C159 C 0.07088 0.17900 1.05299
 H160 H 0.04346 0.17456 1.07537
 H161 H 0.07544 0.20653 1.07520
 H162 H 0.07568 0.17415 1.04392
 C163 C 0.17435 0.69268 0.69226
 C164 C 0.18060 0.68076 0.69827
 C165 C 0.19254 0.67460 0.69221
 C166 C 0.19830 0.68062 0.68004
 C167 C 0.19223 0.69254 0.67385
 C168 C 0.18030 0.69852 0.68009
 H169 H 0.17604 0.67613 0.70758
 H170 H 0.20744 0.67588 0.67525
 H171 H 0.17549 0.70765 0.67534
 C172 C 1.19288 0.17428 0.19235
 C173 C 1.18097 0.18047 0.19844
 C174 C 1.17469 0.19237 0.19240
 C175 C 1.18058 0.19815 0.18018
 C176 C 1.19248 0.19213 0.17391
 C177 C 1.19858 0.18024 0.18013
 H178 H 1.17644 0.17589 0.20779
 H179 H 1.17575 0.20725 0.17541
 H180 H 1.20769 0.17547 0.17531
 C181 C 0.67151 1.06024 0.55998
 C182 C 0.67776 1.05423 0.57195
 C183 C 0.68977 1.06018 0.57809
 C184 C 0.69567 1.07227 0.57205
 C185 C 0.68969 1.07854 0.56009
 C186 C 0.67765 1.07235 0.55411
 H187 H 0.67318 1.04495 0.57665
 H188 H 0.70489 1.07689 0.57684
 H189 H 0.67293 1.07709 0.54493
 C190 C 0.55780 0.55799 0.17349
 C191 C 0.55170 0.56990 0.17968
 C192 C 0.55740 0.57585 0.19192
 C193 C 0.56930 0.56965 0.19803
 C194 C 0.57557 0.55774 0.19202
 C195 C 0.56968 0.55196 0.17979
 H196 H 0.54261 0.57467 0.17485
 H197 H 0.57381 0.57422 0.20739
 H198 H 0.57450 0.54285 0.17503
 C199 C 0.67409 0.69235 0.19189
 C200 C 0.68037 0.68045 0.19791
 C201 C 0.69225 0.67424 0.19180
 C202 C 0.69794 0.68019 0.17956
 C203 C 0.69184 0.69209 0.17335
 C204 C 0.67996 0.69813 0.17965
 H205 H 0.67586 0.67588 0.20728
 H206 H 0.70703 0.67542 0.17473
 H207 H 0.67513 0.70723 0.17488
 C208 C 0.17243 0.05895 1.05854
 C209 C 0.17877 0.05277 1.07038
 C210 C 0.19089 0.05859 1.07647
 C211 C 0.19679 0.07070 1.07049
 C212 C 0.19071 0.07708 1.05867
 C213 C 0.17859 0.07109 1.05275
 H214 H 0.17418 0.04348 1.07504
 H215 H 0.20607 0.07530 1.07516
 H216 H 0.17386 0.07604 1.04369
 C217 C 0.57696 0.19119 0.55826
 C218 C 0.57071 0.19738 0.57009
 C219 C 0.55861 0.19157 0.57620
 C220 C 0.55268 0.17945 0.57022
 C221 C 0.55875 0.17308 0.55839
 C222 C 0.57085 0.17908 0.55246
 H223 H 0.57540 0.20665 0.57469
 H224 H 0.54342 0.17485 0.57491
 H225 H 0.57565 0.17419 0.54341
 C226 C 0.07493 0.55717 0.69341
 C227 C 0.06882 0.55116 0.68141
 C228 C 0.05679 0.55704 0.67524
 C229 C 0.05079 0.56904 0.68133
 C230 C 0.05672 0.57524 0.69333
 C231 C 0.06875 0.56918 0.69932
 H232 H 0.07357 0.54198 0.67672
 H233 H 0.04159 0.57370 0.67659
 H234 H 0.07344 0.57394 0.70851
 C235 C 0.67293 0.55899 0.05824
 C236 C 0.67900 0.57112 0.05243
 C237 C 0.69109 0.57715 0.05836
 C238 C 0.69719 0.57079 0.07019
 C239 C 0.69130 0.55866 0.07617
 C240 C 0.67921 0.55282 0.07007
 H241 H 0.67418 0.57599 0.04338
 H242 H 0.70644 0.57542 0.07488
 H243 H 0.67455 0.54353 0.07467
 C244 C 0.05781 0.69270 0.57558
 C245 C 0.05170 0.68079 0.56940
 C246 C 0.05768 0.67451 0.55748
 C247 C 0.06989 0.68041 0.55166
 C248 C 0.07619 0.69232 0.55767
 C249 C 0.07002 0.69842 0.56959
 H250 H 0.04236 0.67626 0.57400
 H251 H 0.07463 0.67558 0.54255
 H252 H 0.07485 0.70753 0.57434
 C253 C 0.55967 1.05902 0.67206
 C254 C 0.57176 1.05318 0.67825
 C255 C 0.57771 1.05904 0.69042
 C256 C 0.57133 1.07083 0.69653
 C257 C 0.55925 1.07684 0.69061
 C258 C 0.55348 1.07083 0.67843
 H259 H 0.57672 1.04415 0.67350
 H260 H 0.57589 1.07545 0.70585
 H261 H 0.54422 1.07551 0.67383
 C262 C 0.44219 0.32626 0.94195
 C263 C 0.44798 0.32027 0.92975
 C264 C 0.44198 0.30831 0.92353
 C265 C 0.43010 0.30220 0.92975
 C266 C 0.42412 0.30793 0.94193
 C267 C 0.43027 0.31990 0.94798
 H268 H 0.45709 0.32502 0.92491
 H269 H 0.42536 0.29305 0.92497
 H270 H 0.42561 0.32437 0.95732
 C271 C 0.94008 0.43972 0.32797
 C272 C 0.92806 0.44569 0.32187
 C273 C 0.92191 0.43979 0.30983
 C274 C 0.92805 0.42782 0.30381
 C275 C 0.94007 0.42168 0.30972
 C276 C 0.94604 0.42775 0.32176
 H277 H 0.92335 0.45485 0.32663
 H278 H 0.92333 0.42316 0.29458
 H279 H 0.95525 0.42304 0.32644
 C280 C 0.30819 0.94215 0.42301
 C281 C 0.30212 0.93026 0.42939
 C282 C 0.30786 0.92441 0.44165
 C283 C 0.31976 0.93068 0.44767
 C284 C 0.32602 0.94255 0.44157
 C285 C 0.32012 0.94824 0.42930
 H286 H 0.29299 0.92538 0.42470
 H287 H 0.32430 0.92618 0.45707
 H288 H 0.32500 0.95733 0.42454
 O289 O 0.24920 0.53769 0.73187
 O290 O 0.27310 0.53315 0.73373
 O291 O 0.23220 0.50087 0.71256
 O292 O 0.23158 0.47780 0.71676
 O293 O 0.21252 0.51831 0.74940
 O294 O 0.21775 0.51731 0.77382
 O295 O 0.26829 0.46364 0.75060
 O296 O 0.26554 0.46762 0.72678
 O297 O 0.28661 0.49916 0.76811
 O298 O 0.28182 0.52444 0.76719
 O299 O 0.25094 0.48219 0.78669
 O300 O 0.22591 0.48283 0.78188
 O301 O 0.25145 0.46358 0.76755
 O302 O 0.22542 0.46874 0.76618
 O303 O 0.26775 0.49913 0.78683
 O304 O 0.26632 0.52492 0.78152
 O305 O 0.28650 0.48210 0.75142
 O306 O 0.28194 0.48681 0.72605
 O307 O 0.23256 0.53782 0.74905
 O308 O 0.23367 0.53252 0.77394
 O309 O 0.21239 0.50144 0.73251
 O310 O 0.21809 0.47609 0.73470
 O311 O 0.24882 0.51804 0.71262
 O312 O 0.27407 0.51494 0.71820
 Zr313 Zr 0.25754 0.51730 0.73292
 O314 O 0.27098 0.50508 0.74547
 Zr315 Zr 0.23270 0.49276 0.73309
 O316 O 0.24534 0.47932 0.74522
 Zr317 Zr 0.23297 0.51744 0.75769
 O318 O 0.24523 0.50490 0.77114
 Zr319 Zr 0.26665 0.48380 0.74195
 O320 O 0.25405 0.49596 0.72829
 Zr321 Zr 0.26656 0.50829 0.76679
 O322 O 0.25429 0.52192 0.75430
 Zr323 Zr 0.24197 0.48356 0.76657
 O324 O 0.22820 0.49611 0.75444
 O325 O 0.23628 0.51395 0.73647
 O326 O 0.26327 0.48700 0.76331
 C327 C 0.23958 0.54373 0.73913
 C328 C 0.23919 0.51075 0.70660
 C329 C 0.20647 0.51121 0.73966
 C330 C 0.26147 0.45777 0.76064
 C331 C 0.29237 0.48900 0.76140
 C332 C 0.26090 0.48906 0.79261
 H333 H 0.28085 0.50730 0.74317
 H334 H 0.24289 0.50713 0.78099
 H335 H 0.23029 0.51993 0.73047
 H336 H 0.24323 0.46945 0.74282
 H337 H 0.26255 0.47209 0.71789
 H338 H 0.23880 0.47065 0.71876
 H339 H 0.25833 0.52334 0.78796
 H340 H 0.24286 0.53729 0.77317
 H341 H 0.28857 0.47881 0.72644
 H342 H 0.27322 0.52238 0.71097
 H343 H 0.22627 0.49172 0.78721
 H344 H 0.21336 0.50790 0.77363
 H345 H 0.27294 0.53703 0.74336
 H346 H 0.28750 0.52364 0.75856
 H347 H 0.21255 0.47775 0.74332
 H348 H 0.22722 0.46214 0.75837
 O349 O 0.21255 0.01803 0.24917
 O350 O 0.21710 0.01616 0.27310
 O351 O 0.24939 0.03734 0.23222
 O352 O 0.27244 0.03315 0.23160
 O353 O 0.23186 0.00054 0.21252
 O354 O 0.23288 -0.02389 0.21772
 O355 O 0.28661 -0.00070 0.26830
 O356 O 0.28265 0.02312 0.26558
 O357 O 0.25106 -0.01819 0.28662
 O358 O 0.22579 -0.01730 0.28180
 O359 O 0.26801 -0.03675 0.25095
 O360 O 0.26731 -0.03197 0.22591
 O361 O 0.28661 -0.01762 0.25142
 O362 O 0.28142 -0.01626 0.22540
 O363 O 0.25109 -0.03691 0.26776
 O364 O 0.22529 -0.03162 0.26628
 O365 O 0.26815 -0.00152 0.28653
 O366 O 0.26347 0.02384 0.28197
 O367 O 0.21239 0.00084 0.23253
 O368 O 0.21767 -0.02403 0.23362
 O369 O 0.24874 0.01743 0.21240
 O370 O 0.27411 0.01521 0.21810
 O371 O 0.23222 0.03729 0.24882
 O372 O 0.23533 0.03169 0.27408
 Zr373 Zr 0.23294 0.01698 0.25754
 O374 O 0.24517 0.00443 0.27098
 Zr375 Zr 0.25747 0.01682 0.23271
 O376 O 0.27090 0.00469 0.24535
 Zr377 Zr 0.23276 -0.00778 0.23295
 O378 O 0.24529 -0.02123 0.24521
 Zr379 Zr 0.26645 0.00795 0.26667
 O380 O 0.25429 0.02161 0.25406
 Zr381 Zr 0.24192 -0.01689 0.26655
 O382 O 0.22830 -0.00440 0.25428
 Zr383 Zr 0.26663 -0.01665 0.24197
 O384 O 0.25408 -0.00452 0.22818
 O385 O 0.23628 0.01344 0.23627
 O386 O 0.26322 -0.01341 0.26327
 C387 C 0.20650 0.01076 0.23954
 C388 C 0.23952 0.04330 0.23920
 C389 C 0.23895 0.01029 0.20648
 C390 C 0.29245 -0.01073 0.26145
 C391 C 0.26122 -0.01148 0.29240
 C392 C 0.26116 -0.04268 0.26092
 H393 H 0.24295 0.00673 0.28086
 H394 H 0.24305 -0.03108 0.24287
 H395 H 0.23029 0.01944 0.23029
 H396 H 0.28077 0.00709 0.24324
 H397 H 0.27819 0.03200 0.26257
 H398 H 0.27961 0.03114 0.23882
 H399 H 0.22687 -0.03808 0.25832
 H400 H 0.21292 -0.02328 0.24283
 H401 H 0.27148 0.02346 0.28860
 H402 H 0.22789 0.03892 0.27323
 H403 H 0.25842 -0.03730 0.22627
 H404 H 0.24228 -0.02368 0.21332
 H405 H 0.21320 0.00654 0.27291
 H406 H 0.22658 -0.00865 0.28747
 H407 H 0.27241 0.00661 0.21253
 H408 H 0.28801 -0.00844 0.22719
 O409 O 0.50066 0.71267 0.23162
 O410 O 0.47676 0.71723 0.23347
 O411 O 0.51768 0.74946 0.21229
 O412 O 0.51822 0.77255 0.21645
 O413 O 0.53738 0.73204 0.24909
 O414 O 0.53219 0.73304 0.27352
 O415 O 0.48164 0.78672 0.25035
 O416 O 0.48432 0.78275 0.22653
 O417 O 0.46333 0.75118 0.26788
 O418 O 0.46812 0.72591 0.26697
 O419 O 0.49903 0.76816 0.28642
 O420 O 0.52406 0.76749 0.28158
 O421 O 0.49852 0.78676 0.26728
 O422 O 0.52452 0.78160 0.26589
 O423 O 0.48222 0.75123 0.28659
 O424 O 0.48366 0.72542 0.28127
 O425 O 0.46341 0.76826 0.25120
 O426 O 0.46791 0.76356 0.22583
 O427 O 0.51734 0.71253 0.24878
 O428 O 0.51629 0.71783 0.27366
 O429 O 0.53748 0.74893 0.23221
 O430 O 0.53178 0.77427 0.23438
 O431 O 0.50106 0.73229 0.21236
 O432 O 0.47580 0.73545 0.21794
 Zr433 Zr 0.49234 0.73306 0.23266
 O434 O 0.47892 0.74528 0.24523
 Zr435 Zr 0.51717 0.75760 0.23280
 O436 O 0.50456 0.77104 0.24495
 Zr437 Zr 0.51695 0.73291 0.25741
 O438 O 0.50472 0.74544 0.27088
 Zr439 Zr 0.48324 0.76656 0.24171
 O440 O 0.49581 0.75441 0.22803
 Zr441 Zr 0.48338 0.74206 0.26655
 O442 O 0.49562 0.72843 0.25404
 Zr443 Zr 0.50797 0.76678 0.26630
 O444 O 0.52172 0.75424 0.25415
 O445 O 0.51360 0.73641 0.23620
 O446 O 0.48667 0.76335 0.26306
 C447 C 0.51029 0.70662 0.23888
 C448 C 0.51070 0.73957 0.20635
 C449 C 0.54341 0.73915 0.23935
 C450 C 0.48849 0.79258 0.26038
 C451 C 0.45755 0.76135 0.26118
 C452 C 0.48907 0.76130 0.29235
 H453 H 0.46904 0.74306 0.24294
 H454 H 0.50707 0.74321 0.28073
 H455 H 0.51958 0.73042 0.23020
 H456 H 0.50667 0.78091 0.24254
 H457 H 0.48730 0.77828 0.21764
 H458 H 0.51105 0.77974 0.21850
 H459 H 0.49163 0.72702 0.28773
 H460 H 0.50708 0.71307 0.27292
 H461 H 0.46129 0.77156 0.22622
 H462 H 0.47663 0.72801 0.21071
 H463 H 0.52368 0.75861 0.28694
 H464 H 0.53659 0.74245 0.27333
 H465 H 0.47693 0.71334 0.24310
 H466 H 0.46242 0.72671 0.25834
 H467 H 0.53733 0.77262 0.24300
 H468 H 0.52273 0.78818 0.25807
 O469 O 0.03741 0.73197 0.74917
 O470 O 0.03289 0.73384 0.77309
 O471 O 0.00054 0.71269 0.73223
 O472 O -0.02252 0.71691 0.73167
 O473 O 0.01805 0.74948 0.71250
 O474 O 0.01711 0.77390 0.71768
 O475 O -0.03658 0.75083 0.76834
 O476 O -0.03268 0.72701 0.76562
 O477 O -0.00097 0.76826 0.78660
 O478 O 0.02428 0.76733 0.78176
 O479 O -0.01794 0.78685 0.75091
 O480 O -0.01730 0.78200 0.72586
 O481 O -0.03660 0.76775 0.75145
 O482 O -0.03147 0.76636 0.72544
 O483 O -0.00100 0.78697 0.76771
 O484 O 0.02479 0.78162 0.76622
 O485 O -0.01808 0.75161 0.78655
 O486 O -0.01348 0.72624 0.78199
 O487 O 0.03757 0.74914 0.73250
 O488 O 0.03233 0.77402 0.73357
 O489 O 0.00114 0.73262 0.71240
 O490 O -0.02420 0.73484 0.71813
 O491 O 0.01772 0.71274 0.74883
 O492 O 0.01464 0.71834 0.77409
 Zr493 Zr 0.01703 0.73304 0.75753
 O494 O 0.00485 0.74562 0.77098
 Zr495 Zr -0.00753 0.73322 0.73273
 O496 O -0.02093 0.74539 0.74537
 Zr497 Zr 0.01721 0.75779 0.73293
 O498 O 0.00473 0.77127 0.74519
 Zr499 Zr -0.01645 0.74214 0.76669
 O500 O -0.00433 0.72845 0.75409
 Zr501 Zr 0.00812 0.76693 0.76652
 O502 O 0.02170 0.75441 0.75425
 Zr503 Zr -0.01663 0.76673 0.74197
 O504 O -0.00413 0.75457 0.72819
 O505 O 0.01367 0.73658 0.73627
 O506 O -0.01318 0.76349 0.76327
 C507 C 0.04346 0.73922 0.73952
 C508 C 0.01041 0.70673 0.73922
 C509 C 0.01092 0.73975 0.70646
 C510 C -0.04243 0.76087 0.76150
 C511 C -0.01113 0.76156 0.79240
 C512 C -0.01105 0.79276 0.76087
 H513 H 0.00708 0.74333 0.78085
 H514 H 0.00698 0.78112 0.74283
 H515 H 0.01964 0.73057 0.73028
 H516 H -0.03080 0.74300 0.74327
 H517 H -0.02825 0.71811 0.76262
 H518 H -0.02969 0.71896 0.73887
 H519 H 0.02320 0.78808 0.75826
 H520 H 0.03710 0.77326 0.74277
 H521 H -0.02147 0.72664 0.78864
 H522 H 0.02206 0.71110 0.77324
 H523 H -0.00842 0.78736 0.72624
 H524 H 0.00769 0.77373 0.71330
 H525 H 0.03681 0.74346 0.77289
 H526 H 0.02349 0.75868 0.78744
 H527 H -0.02253 0.74346 0.71258
 H528 H -0.03806 0.75854 0.72723
 O529 O -0.01808 -0.03755 -0.00096
 O530 O -0.01618 -0.03304 0.02295
 O531 O -0.03736 -0.00069 -0.01786
 O532 O -0.03312 0.02237 -0.01848
 O533 O -0.00059 -0.01815 -0.03763
 O534 O 0.02383 -0.01716 -0.03245
 O535 O 0.00080 0.03648 0.01823
 O536 O -0.02303 0.03252 0.01553
 O537 O 0.01826 0.00090 0.03647
 O538 O 0.01733 -0.02435 0.03163
 O539 O 0.03679 0.01795 0.00080
 O540 O 0.03196 0.01729 -0.02424
 O541 O 0.01770 0.03654 0.00133
 O542 O 0.01627 0.03139 -0.02469
 O543 O 0.03695 0.00100 0.01759
 O544 O 0.03161 -0.02482 0.01607
 O545 O 0.00161 0.01798 0.03643
 O546 O -0.02377 0.01330 0.03189
 O547 O -0.00093 -0.03767 -0.01764
 O548 O 0.02396 -0.03239 -0.01655
 O549 O -0.01746 -0.00128 -0.03771
 O550 O -0.01521 0.02407 -0.03197
 O551 O -0.03731 -0.01788 -0.00128
 O552 O -0.03167 -0.01481 0.02398
 Zr553 Zr -0.01699 -0.01717 0.00741
 O554 O -0.00439 -0.00497 0.02086
 Zr555 Zr -0.01683 0.00740 -0.01739
 O556 O -0.00466 0.02082 -0.00474
 Zr557 Zr 0.00774 -0.01730 -0.01720
 O558 O 0.02123 -0.00478 -0.00494
 Zr559 Zr -0.00789 0.01632 0.01658
 O560 O -0.02158 0.00418 0.00397
 Zr561 Zr 0.01691 -0.00819 0.01640
 O562 O 0.00438 -0.02180 0.00412
 Zr563 Zr 0.01668 0.01657 -0.00816
 O564 O 0.00451 0.00403 -0.02194
 O565 O -0.01347 -0.01380 -0.01385
 O566 O 0.01346 0.01311 0.01315
 C567 C -0.01084 -0.04358 -0.01061
 C568 C -0.04333 -0.01056 -0.01087
 C569 C -0.01033 -0.01105 -0.04365
 C570 C 0.01082 0.04235 0.01139
 C571 C 0.01157 0.01105 0.04228
 C572 C 0.04271 0.01109 0.01076
 H573 H -0.00668 -0.00720 0.03073
 H574 H 0.03107 -0.00701 -0.00730
 H575 H -0.01949 -0.01977 -0.01984
 H576 H -0.00705 0.03069 -0.00683
 H577 H -0.03193 0.02806 0.01253
 H578 H -0.03112 0.02950 -0.01122
 H579 H 0.03808 -0.02319 0.00812
 H580 H 0.02321 -0.03716 -0.00736
 H581 H -0.02335 0.02129 0.03854
 H582 H -0.03892 -0.02225 0.02313
 H583 H 0.03730 0.00841 -0.02388
 H584 H 0.02366 -0.00774 -0.03682
 H585 H -0.00656 -0.03693 0.02276
 H586 H 0.00868 -0.02359 0.03730
 H587 H -0.00662 0.02240 -0.03755
 H588 H 0.00848 0.03798 -0.02288
 O589 O 0.03736 0.51834 0.50104
 O590 O 0.03285 0.51647 0.47712
 O591 O 0.00049 0.53758 0.51793
 O592 O -0.02258 0.53333 0.51842
 O593 O 0.01794 0.50083 0.53771
 O594 O 0.01699 0.47641 0.53254
 O595 O -0.03661 0.49938 0.48175
 O596 O -0.03269 0.52322 0.48446
 O597 O -0.00102 0.48196 0.46359
 O598 O 0.02426 0.48298 0.46847
 O599 O -0.01803 0.46339 0.49921
 O600 O -0.01741 0.46824 0.52428
 O601 O -0.03666 0.48245 0.49863
 O602 O -0.03158 0.48386 0.52465
 O603 O -0.00105 0.46329 0.48246
 O604 O 0.02473 0.46867 0.48400
 O605 O -0.01812 0.49858 0.46360
 O606 O -0.01347 0.52397 0.46811
 O607 O 0.03749 0.50118 0.51772
 O608 O 0.03223 0.47630 0.51668
 O609 O 0.00103 0.51766 0.53776
 O610 O -0.02429 0.51541 0.53197
 O611 O 0.01769 0.53754 0.50136
 O612 O 0.01461 0.53194 0.47609
 Zr613 Zr 0.01699 0.51724 0.49265
 O614 O 0.00482 0.50464 0.47918
 Zr615 Zr -0.00760 0.51704 0.51741
 O616 O -0.02099 0.50484 0.50475
 Zr617 Zr 0.01712 0.49250 0.51728
 O618 O 0.00465 0.47900 0.50500
 Zr619 Zr -0.01648 0.50810 0.48344
 O620 O -0.00437 0.52181 0.49606
 Zr621 Zr 0.00808 0.48334 0.48367
 O622 O 0.02165 0.49588 0.49596
 Zr623 Zr -0.01671 0.48351 0.50817
 O624 O -0.00422 0.49570 0.52197
 O625 O 0.01360 0.51371 0.51391
 O626 O -0.01323 0.48676 0.48688
 C627 C 0.04340 0.51109 0.51069
 C628 C 0.01038 0.54355 0.51096
 C629 C 0.01080 0.51054 0.54372
 C630 C -0.04247 0.48933 0.48856
 C631 C -0.01119 0.48861 0.45778
 C632 C -0.01113 0.45749 0.48926
 H633 H 0.00706 0.50693 0.46931
 H634 H 0.00689 0.46916 0.50736
 H635 H 0.01957 0.51973 0.51992
 H636 H -0.03087 0.50722 0.50682
 H637 H -0.02825 0.53212 0.48745
 H638 H -0.02975 0.53126 0.51121
 H639 H 0.02313 0.46221 0.49197
 H640 H 0.03701 0.47705 0.50749
 H641 H -0.02146 0.52355 0.46145
 H642 H 0.02203 0.53920 0.47695
 H643 H -0.00854 0.46288 0.52390
 H644 H 0.00756 0.47656 0.53688
 H645 H 0.03675 0.50686 0.47730
 H646 H 0.02342 0.49158 0.46273
 H647 H -0.02264 0.50679 0.53752
 H648 H -0.03816 0.49167 0.52285
 O649 O 0.48201 -0.03769 0.49917
 O650 O 0.48386 -0.03318 0.52309
 O651 O 0.46279 -0.00082 0.48223
 O652 O 0.46702 0.02224 0.48169
 O653 O 0.49957 -0.01828 0.46254
 O654 O 0.52399 -0.01730 0.46777
 O655 O 0.50088 0.03633 0.51840
 O656 O 0.47705 0.03236 0.51570
 O657 O 0.51833 0.00075 0.53667
 O658 O 0.51736 -0.02452 0.53182
 O659 O 0.53689 0.01780 0.50107
 O660 O 0.53213 0.01713 0.47601
 O661 O 0.51780 0.03638 0.50153
 O662 O 0.51645 0.03122 0.47551
 O663 O 0.53702 0.00084 0.51785
 O664 O 0.53168 -0.02499 0.51629
 O665 O 0.50170 0.01785 0.53661
 O666 O 0.47632 0.01315 0.53207
 O667 O 0.49919 -0.03781 0.48252
 O668 O 0.52408 -0.03254 0.48365
 O669 O 0.48272 -0.00139 0.46245
 O670 O 0.48496 0.02396 0.46820
 O671 O 0.46279 -0.01803 0.49881
 O672 O 0.46838 -0.01495 0.52409
 Zr673 Zr 0.48309 -0.01732 0.50756
 O674 O 0.49567 -0.00512 0.52103
 Zr675 Zr 0.48332 0.00727 0.48277
 O676 O 0.49547 0.02068 0.49544
 Zr677 Zr 0.50787 -0.01744 0.48298
 O678 O 0.52135 -0.00494 0.49527
 Zr679 Zr 0.49220 0.01617 0.51675
 O680 O 0.47852 0.00405 0.50412
 Zr681 Zr 0.51698 -0.00835 0.51660
 O682 O 0.50447 -0.02195 0.50430
 Zr683 Zr 0.51681 0.01641 0.49206
 O684 O 0.50465 0.00389 0.47825
 O685 O 0.48666 -0.01393 0.48630
 O686 O 0.51354 0.01295 0.51335
 C687 C 0.48926 -0.04372 0.48952
 C688 C 0.45681 -0.01071 0.48918
 C689 C 0.48984 -0.01116 0.45651
 C690 C 0.51091 0.04220 0.51156
 C691 C 0.51166 0.01092 0.54246
 C692 C 0.54279 0.01094 0.51105
 H693 H 0.49337 -0.00736 0.53090
 H694 H 0.53119 -0.00717 0.49293
 H695 H 0.48065 -0.01990 0.48030
 H696 H 0.49309 0.03055 0.49335
 H697 H 0.46815 0.02790 0.51269
 H698 H 0.46903 0.02938 0.48894
 H699 H 0.53817 -0.02335 0.50837
 H700 H 0.52331 -0.03731 0.49285
 H701 H 0.47673 0.02115 0.53872
 H702 H 0.46113 -0.02237 0.52322
 H703 H 0.53747 0.00825 0.47639
 H704 H 0.52383 -0.00788 0.46340
 H705 H 0.49348 -0.03707 0.52293
 H706 H 0.50872 -0.02373 0.53751
 H707 H 0.49355 0.02228 0.46263
 H708 H 0.50864 0.03782 0.47730
 O709 O 0.48157 0.46242 -0.00111
 O710 O 0.48344 0.46697 0.02281
 O711 O 0.46230 0.49926 -0.01807
 O712 O 0.46651 0.52233 -0.01865
 O713 O 0.49906 0.48180 -0.03778
 O714 O 0.52349 0.48281 -0.03259
 O715 O 0.50043 0.53648 0.01803
 O716 O 0.47660 0.53252 0.01531
 O717 O 0.51787 0.50091 0.03632
 O718 O 0.51695 0.47566 0.03149
 O719 O 0.53643 0.51793 0.00062
 O720 O 0.53160 0.51725 -0.02442
 O721 O 0.51734 0.53652 0.00114
 O722 O 0.51593 0.53136 -0.02488
 O723 O 0.53658 0.50100 0.01743
 O724 O 0.53124 0.47518 0.01594
 O725 O 0.50122 0.51799 0.03625
 O726 O 0.47585 0.51332 0.03169
 O727 O 0.49873 0.46230 -0.01778
 O728 O 0.52361 0.46759 -0.01669
 O729 O 0.48219 0.49867 -0.03788
 O730 O 0.48443 0.52403 -0.03217
 O731 O 0.46234 0.48208 -0.00147
 O732 O 0.46795 0.48519 0.02380
 Zr733 Zr 0.48265 0.48281 0.00725
 O734 O 0.49523 0.49503 0.02069
 Zr735 Zr 0.48282 0.50736 -0.01757
 O736 O 0.49498 0.52080 -0.00493
 Zr737 Zr 0.50739 0.48268 -0.01735
 O738 O 0.52087 0.49520 -0.00510
 Zr739 Zr 0.49174 0.51632 0.01639
 O740 O 0.47805 0.50417 0.00379
 Zr741 Zr 0.51654 0.49181 0.01624
 O742 O 0.50402 0.47819 0.00397
 Zr743 Zr 0.51632 0.51654 -0.00833
 O744 O 0.50415 0.50400 -0.02211
 O745 O 0.48618 0.48618 -0.01401
 O746 O 0.51309 0.51310 0.01297
 C747 C 0.48882 0.45639 -0.01075
 C748 C 0.45633 0.48937 -0.01109
 C749 C 0.48932 0.48889 -0.04381
 C750 C 0.51047 0.54234 0.01119
 C751 C 0.51117 0.51106 0.04211
 C752 C 0.54235 0.51107 0.01059
 H753 H 0.49294 0.49281 0.03056
 H754 H 0.53071 0.49297 -0.00745
 H755 H 0.48017 0.48019 -0.02000
 H756 H 0.49259 0.53067 -0.00703
 H757 H 0.46771 0.52807 0.01231
 H758 H 0.46855 0.52950 -0.01144
 H759 H 0.53770 0.47679 0.00799
 H760 H 0.52286 0.46283 -0.00749
 H761 H 0.47625 0.52132 0.03833
 H762 H 0.46070 0.47775 0.02295
 H763 H 0.53694 0.50837 -0.02405
 H764 H 0.52331 0.49222 -0.03698
 H765 H 0.49306 0.46307 0.02262
 H766 H 0.50830 0.47643 0.03715
 H767 H 0.49304 0.52235 -0.03774
 H768 H 0.50812 0.53795 -0.02307
 O769 O 0.78763 0.25055 0.48162
 O770 O 0.78302 0.22663 0.48348
 O771 O 0.75083 0.26759 0.46237
 O772 O 0.72776 0.26816 0.46658
 O773 O 0.76840 0.28723 0.49914
 O774 O 0.76740 0.28204 0.52358
 O775 O 0.71356 0.23153 0.50046
 O776 O 0.71752 0.23422 0.47662
 O777 O 0.74907 0.21319 0.51795
 O778 O 0.77436 0.21795 0.51697
 O779 O 0.73221 0.24883 0.53651
 O780 O 0.73296 0.27388 0.53172
 O781 O 0.71359 0.24839 0.51740
 O782 O 0.71883 0.27439 0.51604
 O783 O 0.74912 0.23203 0.53663
 O784 O 0.77492 0.23348 0.53128
 O785 O 0.73195 0.21329 0.50131
 O786 O 0.73665 0.21780 0.47592
 O787 O 0.78783 0.26719 0.49880
 O788 O 0.78258 0.26612 0.52370
 O789 O 0.75149 0.28737 0.48228
 O790 O 0.72612 0.28169 0.48452
 O791 O 0.76797 0.25096 0.46240
 O792 O 0.76476 0.22570 0.46797
 Zr793 Zr 0.76722 0.24222 0.48270
 O794 O 0.75499 0.22879 0.49528
 Zr795 Zr 0.74274 0.26707 0.48290
 O796 O 0.72929 0.25445 0.49506
 Zr797 Zr 0.76747 0.26680 0.50747
 O798 O 0.75493 0.25456 0.52095
 Zr799 Zr 0.73371 0.23313 0.49179
 O800 O 0.74587 0.24571 0.47810
 Zr801 Zr 0.75826 0.23322 0.51659
 O802 O 0.77189 0.24548 0.50407
 Zr803 Zr 0.73360 0.25782 0.51640
 O804 O 0.74615 0.27159 0.50424
 O805 O 0.76392 0.26348 0.48625
 O806 O 0.73697 0.23653 0.51314
 C807 C 0.79370 0.26018 0.48888
 C808 C 0.76070 0.26061 0.45641
 C809 C 0.76130 0.29327 0.48940
 C810 C 0.70773 0.23837 0.51050
 C811 C 0.73885 0.20743 0.51129
 C812 C 0.73906 0.23886 0.54242
 H813 H 0.75717 0.21891 0.49298
 H814 H 0.75719 0.25690 0.53079
 H815 H 0.76992 0.26946 0.48025
 H816 H 0.71943 0.25656 0.49267
 H817 H 0.72198 0.23721 0.46773
 H818 H 0.72057 0.26097 0.46863
 H819 H 0.77335 0.24143 0.53775
 H820 H 0.78732 0.25692 0.52293
 H821 H 0.72863 0.21117 0.47633
 H822 H 0.77220 0.22654 0.46073
 H823 H 0.74185 0.27350 0.53705
 H824 H 0.75800 0.28644 0.52339
 H825 H 0.78692 0.22680 0.49310
 H826 H 0.77351 0.21225 0.50834
 H827 H 0.72782 0.28724 0.49313
 H828 H 0.71223 0.27262 0.50822
 O829 O 0.76810 0.78773 -0.00110
 O830 O 0.76622 0.78314 0.02280
 O831 O 0.78742 0.75092 -0.01807
 O832 O 0.78321 0.72785 -0.01867
 O833 O 0.75071 0.76841 -0.03786
 O834 O 0.72627 0.76737 -0.03274
 O835 O 0.74923 0.71365 0.01792
 O836 O 0.77306 0.71761 0.01525
 O837 O 0.73177 0.74920 0.03619
 O838 O 0.73271 0.77447 0.03136
 O839 O 0.71325 0.73222 0.00045
 O840 O 0.71812 0.73293 -0.02458
 O841 O 0.73234 0.71363 0.00099
 O842 O 0.73380 0.71882 -0.02502
 O843 O 0.71309 0.74913 0.01727
 O844 O 0.71841 0.77494 0.01581
 O845 O 0.74842 0.73212 0.03615
 O846 O 0.77379 0.73679 0.03165
 O847 O 0.75096 0.78789 -0.01780
 O848 O 0.72609 0.78257 -0.01684
 O849 O 0.76757 0.75153 -0.03793
 O850 O 0.76531 0.72617 -0.03224
 O851 O 0.78735 0.76809 -0.00146
 O852 O 0.78172 0.76492 0.02379
 Zr853 Zr 0.76703 0.76732 0.00721
 O854 O 0.75443 0.75509 0.02062
 Zr855 Zr 0.76690 0.74281 -0.01762
 O856 O 0.75471 0.72936 -0.00502
 Zr857 Zr 0.74233 0.76750 -0.01745
 O858 O 0.72883 0.75496 -0.00523
 Zr859 Zr 0.75792 0.73381 0.01631
 O860 O 0.77164 0.74598 0.00375
 Zr861 Zr 0.73313 0.75832 0.01612
 O862 O 0.74567 0.77195 0.00389
 Zr863 Zr 0.73338 0.73362 -0.00847
 O864 O 0.74557 0.74618 -0.02221
 O865 O 0.76353 0.76400 -0.01406
 O866 O 0.73658 0.73703 0.01285
 C867 C 0.76085 0.79379 -0.01073
 C868 C 0.79337 0.76081 -0.01107
 C869 C 0.76046 0.76132 -0.04387
 C870 C 0.73921 0.70780 0.01105
 C871 C 0.73846 0.73904 0.04199
 C872 C 0.70733 0.73907 0.01042
 H873 H 0.75671 0.75731 0.03050
 H874 H 0.71899 0.75719 -0.00760
 H875 H 0.76955 0.77000 -0.02002
 H876 H 0.75710 0.71949 -0.00713
 H877 H 0.78196 0.72207 0.01227
 H878 H 0.78115 0.72066 -0.01148
 H879 H 0.71197 0.77334 0.00784
 H880 H 0.72680 0.78730 -0.00762
 H881 H 0.77338 0.72878 0.03828
 H882 H 0.78896 0.77235 0.02296
 H883 H 0.71279 0.74182 -0.02422
 H884 H 0.72647 0.75796 -0.03714
 H885 H 0.75660 0.78703 0.02261
 H886 H 0.74132 0.77366 0.03709
 H887 H 0.75671 0.72785 -0.03782
 H888 H 0.74160 0.71223 -0.02321
 O889 O 1.00091 0.21231 0.23150
 O890 O 0.97701 0.21687 0.23337
 O891 O 1.01795 0.24910 0.21223
 O892 O 1.01850 0.27218 0.21640
 O893 O 1.03763 0.23166 0.24903
 O894 O 1.03243 0.23261 0.27345
 O895 O 0.98190 0.28634 0.25034
 O896 O 0.98461 0.28241 0.22650
 O897 O 0.96359 0.25080 0.26780
 O898 O 0.96836 0.22553 0.26688
 O899 O 0.99930 0.26775 0.28636
 O900 O 1.02435 0.26705 0.28151
 O901 O 0.99878 0.28635 0.26727
 O902 O 1.02478 0.28121 0.26585
 O903 O 0.98247 0.25083 0.28651
 O904 O 0.98391 0.22502 0.28118
 O905 O 0.96368 0.26789 0.25113
 O906 O 0.96819 0.26322 0.22576
 O907 O 1.01759 0.21214 0.24867
 O908 O 1.01652 0.21740 0.27355
 O909 O 1.03775 0.24856 0.23216
 O910 O 1.03205 0.27389 0.23433
 O911 O 1.00132 0.23195 0.21227
 O912 O 0.97606 0.23511 0.21785
 Zr913 Zr 0.99260 0.23270 0.23257
 O914 O 0.97918 0.24491 0.24515
 Zr915 Zr 1.01744 0.25723 0.23274
 O916 O 1.00484 0.27066 0.24490
 Zr917 Zr 1.01720 0.23251 0.25733
 O918 O 1.00497 0.24504 0.27081
 Zr919 Zr 0.98352 0.26620 0.24165
 O920 O 0.99608 0.25405 0.22796
 Zr921 Zr 0.98363 0.24167 0.26647
 O922 O 0.99587 0.22805 0.25395
 Zr923 Zr 1.00824 0.26638 0.26624
 O924 O 1.02198 0.25384 0.25408
 O925 O 1.01386 0.23604 0.23611
 O926 O 0.98694 0.26296 0.26300
 C927 C 1.01055 0.20625 0.23875
 C928 C 1.01097 0.23922 0.20627
 C929 C 1.04367 0.23878 0.23930
 C930 C 0.98873 0.29217 0.26040
 C931 C 0.95782 0.26097 0.26110
 C932 C 0.98933 0.26090 0.29228
 H933 H 0.96930 0.24270 0.24286
 H934 H 1.00733 0.24280 0.28065
 H935 H 1.01985 0.23006 0.23011
 H936 H 1.00695 0.28053 0.24251
 H937 H 0.98759 0.27796 0.21760
 H938 H 1.01134 0.27938 0.21845
 H939 H 0.99187 0.22662 0.28764
 H940 H 1.00731 0.21265 0.27280
 H941 H 0.96157 0.27123 0.22615
 H942 H 0.97689 0.22768 0.21061
 H943 H 1.02393 0.25820 0.28690
 H944 H 1.03682 0.24202 0.27329
 H945 H 0.97718 0.21297 0.24299
 H946 H 0.96268 0.22633 0.25823
 H947 H 1.03759 0.27224 0.24296
 H948 H 1.02298 0.28781 0.25805
 O949 O 0.78774 0.99924 0.76826
 O950 O 0.78318 1.02314 0.76633
 O951 O 0.75088 0.98228 0.78754
 O952 O 0.72783 0.98159 0.78329
 O953 O 0.76845 0.96252 0.75080
 O954 O 0.76744 0.96767 0.72636
 O955 O 0.71370 1.01822 0.74931
 O956 O 0.71763 1.01554 0.77316
 O957 O 0.74925 1.03653 0.73186
 O958 O 0.77453 1.03175 0.73284
 O959 O 0.73229 1.00083 0.71335
 O960 O 0.73302 0.97578 0.71819
 O961 O 0.71370 1.00131 0.73242
 O962 O 0.71888 0.97531 0.73387
 O963 O 0.74921 1.01767 0.71321
 O964 O 0.77502 1.01621 0.71853
 O965 O 0.73215 1.03645 0.74850
 O966 O 0.73681 1.03196 0.77390
 O967 O 0.78791 0.98257 0.75110
 O968 O 0.78264 0.98359 0.72621
 O969 O 0.75155 0.96241 0.76766
 O970 O 0.72619 0.96806 0.76538
 O971 O 0.76805 0.99890 0.78748
 O972 O 0.76494 1.02413 0.78183
 Zr973 Zr 0.76735 1.00756 0.76715
 O974 O 0.75513 1.02096 0.75454
 Zr975 Zr 0.74283 0.98270 0.76700
 O976 O 0.72939 0.99529 0.75481
 Zr977 Zr 0.76754 0.98293 0.74243
 O978 O 0.75502 0.99514 0.72892
 Zr979 Zr 0.73384 1.01662 0.75803
 O980 O 0.74599 1.00407 0.77174
 Zr981 Zr 0.75839 1.01649 0.73324
 O982 O 0.77200 1.00426 0.74578
 Zr983 Zr 0.73368 0.99188 0.73347
 O984 O 0.74622 0.97814 0.74566
 O985 O 0.76401 0.98629 0.76364
 O986 O 0.73710 1.01318 0.73669
 C987 C 0.79380 0.98961 0.76102
 C988 C 0.76074 0.98930 0.79351
 C989 C 0.76135 0.95649 0.76055
 C990 C 0.70786 1.01136 0.73927
 C991 C 0.73907 1.04230 0.73853
 C992 C 0.73913 1.01083 0.70744
 H993 H 0.75734 1.03084 0.75682
 H994 H 0.75727 0.99279 0.71908
 H995 H 0.77000 0.98033 0.76968
 H996 H 0.71952 0.99318 0.75719
 H997 H 0.72208 1.01256 0.78207
 H998 H 0.72068 0.98881 0.78126
 H999 H 0.77342 1.00825 0.71206
 H1000 H 0.78738 0.99281 0.72694
 H1001 H 0.72880 1.03858 0.77348
 H1002 H 0.77238 1.02331 0.78907
 H1003 H 0.74189 0.97618 0.71284
 H1004 H 0.75803 0.96327 0.72654
 H1005 H 0.78709 1.02295 0.75672
 H1006 H 0.77371 1.03746 0.74146
 H1007 H 0.72789 0.96249 0.75679
 H1008 H 0.71228 0.97711 0.74167
 O1009 O 0.74903 0.53745 0.23161
 O1010 O 0.77294 0.53291 0.23344
 O1011 O 0.73199 0.50063 0.21234
 O1012 O 0.73148 0.47754 0.21653
 O1013 O 0.71236 0.51806 0.24916
 O1014 O 0.71760 0.51708 0.27358
 O1015 O 0.76814 0.46342 0.25041
 O1016 O 0.76539 0.46737 0.22658
 O1017 O 0.78645 0.49898 0.26786
 O1018 O 0.78164 0.52427 0.26690
 O1019 O 0.75085 0.48198 0.28647
 O1020 O 0.72577 0.48267 0.28167
 O1021 O 0.75130 0.46338 0.26737
 O1022 O 0.72530 0.46852 0.26602
 O1023 O 0.76764 0.49894 0.28657
 O1024 O 0.76616 0.52474 0.28125
 O1025 O 0.78635 0.48189 0.25121
 O1026 O 0.78179 0.48657 0.22583
 O1027 O 0.73239 0.53759 0.24879
 O1028 O 0.73349 0.53231 0.27368
 O1029 O 0.71223 0.50117 0.23229
 O1030 O 0.71794 0.47584 0.23448
 O1031 O 0.74861 0.51781 0.21237
 O1032 O 0.77388 0.51468 0.21792
 Zr1033 Zr 0.75737 0.51706 0.23266
 O1034 O 0.77082 0.50486 0.24522
 Zr1035 Zr 0.73255 0.49251 0.23286
 O1036 O 0.74519 0.47908 0.24502
 Zr1037 Zr 0.73281 0.51721 0.25745
 O1038 O 0.74508 0.50470 0.27091
 Zr1039 Zr 0.76650 0.48357 0.24173
 O1040 O 0.75389 0.49571 0.22806
 Zr1041 Zr 0.76641 0.50810 0.26654
 O1042 O 0.75412 0.52171 0.25404
 Zr1043 Zr 0.74183 0.48336 0.26637
 O1044 O 0.72805 0.49588 0.25422
 O1045 O 0.73611 0.51370 0.23623
 O1046 O 0.76312 0.48681 0.26309
 C1047 C 0.73941 0.54349 0.23887
 C1048 C 0.73897 0.51052 0.20638
 C1049 C 0.70631 0.51094 0.23943
 C1050 C 0.76133 0.45757 0.26046
 C1051 C 0.79222 0.48880 0.26118
 C1052 C 0.76083 0.48886 0.29236
 H1053 H 0.78069 0.50708 0.24291
 H1054 H 0.74275 0.50694 0.28076
 H1055 H 0.73011 0.51968 0.23023
 H1056 H 0.74308 0.46921 0.24263
 H1057 H 0.76239 0.47183 0.21768
 H1058 H 0.73864 0.47035 0.21860
 H1059 H 0.75820 0.52314 0.28772
 H1060 H 0.74269 0.53707 0.27292
 H1061 H 0.78842 0.47857 0.22623
 H1062 H 0.77302 0.52212 0.21069
 H1063 H 0.72620 0.49152 0.28706
 H1064 H 0.71323 0.50766 0.27342
 H1065 H 0.77278 0.53680 0.24306
 H1066 H 0.78736 0.52343 0.25828
 H1067 H 0.71243 0.47748 0.24312
 H1068 H 0.72706 0.46195 0.25819
 O1069 O 0.53755 0.23159 0.74925
 O1070 O 0.53298 0.23349 0.77318
 O1071 O 0.50075 0.21238 0.73222
 O1072 O 0.47766 0.21657 0.73171
 O1073 O 0.51826 0.24914 0.71255
 O1074 O 0.51735 0.27356 0.71775
 O1075 O 0.46355 0.25054 0.76830
 O1076 O 0.46743 0.22670 0.76560
 O1077 O 0.49915 0.26794 0.78662
 O1078 O 0.52440 0.26700 0.78182
 O1079 O 0.48222 0.28651 0.75091
 O1080 O 0.48293 0.28167 0.72584
 O1081 O 0.46358 0.26745 0.75140
 O1082 O 0.46875 0.26604 0.72540
 O1083 O 0.49913 0.28664 0.76774
 O1084 O 0.52494 0.28129 0.76627
 O1085 O 0.48202 0.25131 0.78654
 O1086 O 0.48661 0.22593 0.78201
 O1087 O 0.53775 0.24875 0.73257
 O1088 O 0.53255 0.27365 0.73367
 O1089 O 0.50133 0.23229 0.71243
 O1090 O 0.47600 0.23450 0.71813
 O1091 O 0.51788 0.21240 0.74886
 O1092 O 0.51472 0.21798 0.77413
 Zr1093 Zr 0.51717 0.23270 0.75759
 O1094 O 0.50497 0.24530 0.77101
 Zr1095 Zr 0.49265 0.23289 0.73275
 O1096 O 0.47923 0.24507 0.74536
 Zr1097 Zr 0.51741 0.25745 0.73298
 O1098 O 0.50491 0.27094 0.74521
 Zr1099 Zr 0.48368 0.24182 0.76669
 O1100 O 0.49580 0.22812 0.75411
 Zr1101 Zr 0.50827 0.26660 0.76656
 O1102 O 0.52186 0.25407 0.75431
 Zr1103 Zr 0.48356 0.26640 0.74195
 O1104 O 0.49608 0.25423 0.72820
 O1105 O 0.51384 0.23625 0.73633
 O1106 O 0.48697 0.26317 0.76326
 C1107 C 0.54362 0.23882 0.73960
 C1108 C 0.51062 0.20642 0.73920
 C1109 C 0.51113 0.23942 0.70651
 C1110 C 0.45773 0.26058 0.76144
 C1111 C 0.48897 0.26125 0.79240
 C1112 C 0.48908 0.29242 0.76089
 H1113 H 0.50718 0.24300 0.78089
 H1114 H 0.50717 0.28078 0.74286
 H1115 H 0.51981 0.23024 0.73034
 H1116 H 0.46936 0.24269 0.74325
 H1117 H 0.47186 0.21780 0.76261
 H1118 H 0.47045 0.21865 0.73885
 H1119 H 0.52335 0.28776 0.75832
 H1120 H 0.53731 0.27288 0.74287
 H1121 H 0.47860 0.22634 0.78864
 H1122 H 0.52214 0.21074 0.77330
 H1123 H 0.49179 0.28706 0.72627
 H1124 H 0.50794 0.27341 0.71336
 H1125 H 0.53694 0.24309 0.77297
 H1126 H 0.52361 0.25834 0.78748
 H1127 H 0.47767 0.24312 0.71259
 H1128 H 0.46215 0.25823 0.72719
 O1129 O 0.28741 0.75110 0.48168
 O1130 O 0.28288 0.72718 0.48360
 O1131 O 0.25056 0.76798 0.46242
 O1132 O 0.22748 0.76847 0.46662
 O1133 O 0.26804 0.78777 0.49915
 O1134 O 0.26711 0.78260 0.52359
 O1135 O 0.21341 0.73187 0.50061
 O1136 O 0.21732 0.73454 0.47679
 O1137 O 0.24904 0.71366 0.51806
 O1138 O 0.27429 0.71855 0.51712
 O1139 O 0.23205 0.74934 0.53661
 O1140 O 0.23268 0.77437 0.53174
 O1141 O 0.21340 0.74877 0.51751
 O1142 O 0.21855 0.77478 0.51608
 O1143 O 0.24899 0.73257 0.53676
 O1144 O 0.27478 0.73409 0.53140
 O1145 O 0.23192 0.71367 0.50142
 O1146 O 0.23653 0.71820 0.47604
 O1147 O 0.28757 0.76779 0.49882
 O1148 O 0.28234 0.76674 0.52372
 O1149 O 0.25113 0.78780 0.48230
 O1150 O 0.22580 0.78204 0.48454
 O1151 O 0.26774 0.75141 0.46247
 O1152 O 0.26463 0.72615 0.46809
 Zr1153 Zr 0.26703 0.74271 0.48279
 O1154 O 0.25485 0.72927 0.49540
 Zr1155 Zr 0.24247 0.76747 0.48294
 O1156 O 0.22907 0.75483 0.49514
 Zr1157 Zr 0.26721 0.76735 0.50750
 O1158 O 0.25473 0.75509 0.52101
 Zr1159 Zr 0.23356 0.73352 0.49192
 O1160 O 0.24567 0.74612 0.47820
 Zr1161 Zr 0.25812 0.73375 0.51670
 O1162 O 0.27170 0.74603 0.50415
 Zr1163 Zr 0.23337 0.75827 0.51647
 O1164 O 0.24588 0.77205 0.50428
 O1165 O 0.26367 0.76397 0.48630
 O1166 O 0.23681 0.73697 0.51327
 C1167 C 0.29346 0.76076 0.48891
 C1168 C 0.26044 0.76102 0.45646
 C1169 C 0.26091 0.79377 0.48941
 C1170 C 0.20756 0.73872 0.51063
 C1171 C 0.23888 0.70784 0.51137
 C1172 C 0.23894 0.73940 0.54254
 H1173 H 0.25708 0.71940 0.49312
 H1174 H 0.25698 0.75746 0.53085
 H1175 H 0.26964 0.76996 0.48028
 H1176 H 0.21920 0.75691 0.49275
 H1177 H 0.22176 0.73754 0.46788
 H1178 H 0.22030 0.76128 0.46871
 H1179 H 0.27319 0.74207 0.53784
 H1180 H 0.28711 0.75755 0.52297
 H1181 H 0.22854 0.71155 0.47646
 H1182 H 0.27205 0.72700 0.46085
 H1183 H 0.24158 0.77403 0.53707
 H1184 H 0.25770 0.78696 0.52342
 H1185 H 0.28681 0.72740 0.49320
 H1186 H 0.27350 0.71287 0.50848
 H1187 H 0.22747 0.78760 0.49315
 H1188 H 0.21195 0.77297 0.50827
 O1189 O 0.26827 0.28746 0.99911
 O1190 O 0.26642 0.28289 1.02304
 O1191 O 0.28747 0.25063 0.98212
 O1192 O 0.28323 0.22756 0.98157
 O1193 O 0.25072 0.26815 0.96244
 O1194 O 0.22629 0.26716 0.96764
 O1195 O 0.24931 0.21343 1.01824
 O1196 O 0.27314 0.21733 1.01550
 O1197 O 0.23198 0.24901 1.03655
 O1198 O 0.23293 0.27427 1.03171
 O1199 O 0.21333 0.23205 1.00086
 O1200 O 0.21813 0.23275 0.97580
 O1201 O 0.23238 0.21343 1.00136
 O1202 O 0.23376 0.21859 0.97535
 O1203 O 0.21324 0.24896 1.01768
 O1204 O 0.21860 0.27476 1.01620
 O1205 O 0.24860 0.23190 1.03647
 O1206 O 0.27397 0.23652 1.03188
 O1207 O 0.25108 0.28763 0.98246
 O1208 O 0.22620 0.28237 0.98354
 O1209 O 0.26755 0.25124 0.96233
 O1210 O 0.26528 0.22589 0.96803
 O1211 O 0.28747 0.26779 0.99874
 O1212 O 0.28190 0.26466 1.02400
 Zr1213 Zr 0.26718 0.26707 1.00746
 O1214 O 0.25459 0.25485 1.02091
 Zr1215 Zr 0.26694 0.24254 0.98264
 O1216 O 0.25476 0.22911 0.99527
 Zr1217 Zr 0.24240 0.26726 0.98287
 O1218 O 0.22892 0.25475 0.99514
 Zr1219 Zr 0.25804 0.23356 1.01659
 O1220 O 0.27174 0.24571 1.00400
 Zr1221 Zr 0.23329 0.25812 1.01647
 O1222 O 0.24581 0.27173 1.00420
 Zr1223 Zr 0.23343 0.23341 0.99189
 O1224 O 0.24560 0.24594 0.97811
 O1225 O 0.26361 0.26373 0.98620
 O1226 O 0.23670 0.23682 1.01319
 C1227 C 0.26102 0.29352 0.98948
 C1228 C 0.29345 0.26050 0.98910
 C1229 C 0.26044 0.26104 0.95640
 C1230 C 0.23925 0.20759 1.01140
 C1231 C 0.23868 0.23885 1.04234
 C1232 C 0.20744 0.23891 1.01084
 H1233 H 0.25691 0.25707 1.03078
 H1234 H 0.21908 0.25700 0.99279
 H1235 H 0.26962 0.26971 0.98021
 H1236 H 0.25713 0.21924 0.99317
 H1237 H 0.28204 0.22177 1.01249
 H1238 H 0.28116 0.22036 0.98874
 H1239 H 0.21213 0.27317 1.00824
 H1240 H 0.22696 0.28712 0.99275
 H1241 H 0.27356 0.22851 1.03852
 H1242 H 0.28915 0.27209 1.02315
 H1243 H 0.21279 0.24163 0.97620
 H1244 H 0.22646 0.25775 0.96324
 H1245 H 0.25681 0.28682 1.02284
 H1246 H 0.24158 0.27347 1.03738
 H1247 H 0.25666 0.22757 0.96248
 H1248 H 0.24157 0.21201 0.97713
 C1249 C 0.29300 0.36482 0.79203
 N1250 N 0.30438 0.35867 0.78611
 N1251 N 0.30942 0.34668 0.79121
 C1252 C 0.30329 0.34035 0.80242
 N1253 N 0.29184 0.34651 0.80826
 N1254 N 0.28680 0.35850 0.80317
 C1255 C 0.28772 0.37829 0.78672
 N1256 N 0.27659 0.38462 0.79292
 N1257 N 0.27205 0.39704 0.78839
 C1258 C 0.27848 0.40357 0.77748
 N1259 N 0.28957 0.39720 0.77123
 N1260 N 0.29411 0.38479 0.77577
 C1261 C 0.27376 0.41746 0.77279
 N1262 N 0.28036 0.42413 0.76207
 N1263 N 0.27634 0.43691 0.75809
 C1264 C 0.26557 0.44348 0.76468
 N1265 N 0.25892 0.43678 0.77535
 N1266 N 0.26294 0.42400 0.77933
 C1267 C 0.29281 -0.13555 0.29236
 N1268 N 0.28660 -0.14190 0.30348
 N1269 N 0.29170 -0.15385 0.30861
 C1270 C 0.30323 -0.15996 0.30284
 N1271 N 0.30934 -0.15358 0.29163
 N1272 N 0.30425 -0.14163 0.28650
 C1273 C 0.28748 -0.12212 0.28703
 N1274 N 0.29389 -0.11559 0.27611
 N1275 N 0.28933 -0.10320 0.27155
 C1276 C 0.27819 -0.09687 0.27775
 N1277 N 0.27173 -0.10343 0.28863
 N1278 N 0.27630 -0.11582 0.29318
 C1279 C 0.27345 -0.08299 0.27305
 N1280 N 0.26259 -0.07648 0.27954
 N1281 N 0.25857 -0.06370 0.27557
 C1282 C 0.26525 -0.05697 0.26494
 N1283 N 0.27607 -0.06351 0.25840
 N1284 N 0.28010 -0.07629 0.26238
 C1285 C 0.79215 0.86322 0.79146
 N1286 N 0.80361 0.85712 0.78565
 N1287 N 0.80879 0.84527 0.79094
 C1288 C 0.80275 0.83902 0.80227
 N1289 N 0.79120 0.84515 0.80797
 N1290 N 0.78601 0.85699 0.80269
 C1291 C 0.78677 0.87658 0.78600
 N1292 N 0.77559 0.88291 0.79213
 N1293 N 0.77104 0.89529 0.78753
 C1294 C 0.77749 0.90180 0.77662
 N1295 N 0.78861 0.89543 0.77043
 N1296 N 0.79317 0.88305 0.77503
 C1297 C 0.77286 0.91574 0.77197
 N1298 N 0.77959 0.92247 0.76138
 N1299 N 0.77577 0.93536 0.75757
 C1300 C 0.76507 0.94200 0.76422
 N1301 N 0.75828 0.93522 0.77475
 N1302 N 0.76210 0.92233 0.77855
 C1303 C 0.45741 0.88566 0.29174
 N1304 N 0.46364 0.89194 0.30289
 N1305 N 0.45863 0.90394 0.30800
 C1306 C 0.44720 0.91014 0.30216
 N1307 N 0.44105 0.90385 0.29094
 N1308 N 0.44604 0.89185 0.28583
 C1309 C 0.46263 0.87218 0.28642
 N1310 N 0.45619 0.86571 0.27548
 N1311 N 0.46066 0.85328 0.27095
 C1312 C 0.47174 0.84686 0.27719
 N1313 N 0.47822 0.85336 0.28808
 N1314 N 0.47375 0.86579 0.29262
 C1315 C 0.47638 0.83295 0.27250
 N1316 N 0.48719 0.82637 0.27903
 N1317 N 0.49114 0.81357 0.27506
 C1318 C 0.48444 0.80689 0.26441
 N1319 N 0.47368 0.81350 0.25784
 N1320 N 0.46972 0.82629 0.26181
 C1321 C -0.04170 0.88613 0.79183
 N1322 N -0.05296 0.89242 0.78581
 N1323 N -0.05788 0.90448 0.79085
 C1324 C -0.05176 0.91075 0.80211
 N1325 N -0.04043 0.90445 0.80805
 N1326 N -0.03550 0.89239 0.80302
 C1327 C -0.03657 0.87259 0.78659
 N1328 N -0.02552 0.86615 0.79285
 N1329 N -0.02112 0.85367 0.78838
 C1330 C -0.02760 0.84717 0.77748
 N1331 N -0.03861 0.85364 0.77118
 N1332 N -0.04301 0.86613 0.77565
 C1333 C -0.02302 0.83321 0.77285
 N1334 N -0.02972 0.82654 0.76219
 N1335 N -0.02581 0.81371 0.75827
 C1336 C -0.01506 0.80709 0.76486
 N1337 N -0.00833 0.81379 0.77548
 N1338 N -0.01224 0.82662 0.77940
 C1339 C -0.04128 -0.13707 -0.04133
 N1340 N -0.05252 -0.14337 -0.03528
 N1341 N -0.05771 -0.15524 -0.04053
 C1342 C -0.05191 -0.16131 -0.05207
 N1343 N -0.04057 -0.15499 -0.05801
 N1344 N -0.03537 -0.14313 -0.05276
 C1345 C -0.03592 -0.12368 -0.03590
 N1346 N -0.02489 -0.11722 -0.04218
 N1347 N -0.02037 -0.10480 -0.03761
 C1348 C -0.02672 -0.09840 -0.02659
 N1349 N -0.03770 -0.10490 -0.02026
 N1350 N -0.04222 -0.11732 -0.02483
 C1351 C -0.02215 -0.08442 -0.02198
 N1352 N -0.02891 -0.07773 -0.01138
 N1353 N -0.02516 -0.06481 -0.00760
 C1354 C -0.01450 -0.05810 -0.01427
 N1355 N -0.00768 -0.06483 -0.02480
 N1356 N -0.01144 -0.07776 -0.02858
 C1357 C -0.04218 0.36444 0.45756
 N1358 N -0.05341 0.35809 0.46359
 N1359 N -0.05841 0.34609 0.45845
 C1360 C -0.05239 0.33995 0.44708
 N1361 N -0.04110 0.34630 0.44112
 N1362 N -0.03609 0.35831 0.44626
 C1363 C -0.03696 0.37791 0.46293
 N1364 N -0.02592 0.38440 0.45670
 N1365 N -0.02145 0.39682 0.46130
 C1366 C -0.02786 0.40322 0.47228
 N1367 N -0.03887 0.39670 0.47855
 N1368 N -0.04334 0.38427 0.47395
 C1369 C -0.02322 0.41712 0.47703
 N1370 N -0.02989 0.42373 0.48773
 N1371 N -0.02594 0.43653 0.49175
 C1372 C -0.01517 0.44318 0.48521
 N1373 N -0.00846 0.43654 0.47455
 N1374 N -0.01241 0.42375 0.47054
 C1375 C 0.45878 -0.13711 0.45854
 N1376 N 0.46472 -0.14316 0.44711
 N1377 N 0.45952 -0.15502 0.44184
 C1378 C 0.44816 -0.16132 0.44774
 N1379 N 0.44233 -0.15526 0.45927
 N1380 N 0.44751 -0.14340 0.46455
 C1381 C 0.46414 -0.12374 0.46400
 N1382 N 0.45782 -0.11739 0.47507
 N1383 N 0.46234 -0.10498 0.47967
 C1384 C 0.47335 -0.09848 0.47339
 N1385 N 0.47972 -0.10487 0.46238
 N1386 N 0.47520 -0.11727 0.45777
 C1387 C 0.47793 -0.08452 0.47805
 N1388 N 0.48867 -0.07786 0.47148
 N1389 N 0.49243 -0.06495 0.47530
 C1390 C 0.48560 -0.05823 0.48583
 N1391 N 0.47492 -0.06493 0.49246
 N1392 N 0.47115 -0.07785 0.48864
 C1393 C 0.45851 0.36285 -0.04148
 N1394 N 0.46444 0.35681 -0.05291
 N1395 N 0.45927 0.34493 -0.05816
 C1396 C 0.44795 0.33859 -0.05221
 N1397 N 0.44213 0.34465 -0.04067
 N1398 N 0.44729 0.35653 -0.03542
 C1399 C 0.46384 0.37626 -0.03605
 N1400 N 0.45753 0.38261 -0.02499
 N1401 N 0.46202 0.39504 -0.02042
 C1402 C 0.47299 0.40156 -0.02674
 N1403 N 0.47936 0.39516 -0.03775
 N1404 N 0.47487 0.38274 -0.04232
 C1405 C 0.47754 0.41554 -0.02212
 N1406 N 0.48826 0.42221 -0.02872
 N1407 N 0.49200 0.43514 -0.02493
 C1408 C 0.48517 0.44187 -0.01441
 N1409 N 0.47451 0.43516 -0.00775
 N1410 N 0.47077 0.42223 -0.01153
 C1411 C 0.79252 0.38634 0.45820
 N1412 N 0.80398 0.39245 0.46404
 N1413 N 0.80926 0.40424 0.45869
 C1414 C 0.80330 0.41040 0.44729
 N1415 N 0.79177 0.40428 0.44153
 N1416 N 0.78649 0.39249 0.44687
 C1417 C 0.78705 0.37303 0.46373
 N1418 N 0.77586 0.36670 0.45759
 N1419 N 0.77123 0.35436 0.46225
 C1420 C 0.77762 0.34790 0.47322
 N1421 N 0.78875 0.35428 0.47942
 N1422 N 0.79338 0.36662 0.47476
 C1423 C 0.77292 0.33400 0.47792
 N1424 N 0.77963 0.32729 0.48855
 N1425 N 0.77577 0.31441 0.49238
 C1426 C 0.76505 0.30777 0.48573
 N1427 N 0.75828 0.31452 0.47518
 N1428 N 0.76214 0.32740 0.47135
 C1429 C 0.79036 0.88803 -0.04014
 N1430 N 0.80168 0.89424 -0.03414
 N1431 N 0.80671 0.90626 -0.03920
 C1432 C 0.80063 0.91255 -0.05046
 N1433 N 0.78924 0.90634 -0.05638
 N1434 N 0.78420 0.89432 -0.05133
 C1435 C 0.78518 0.87448 -0.03494
 N1436 N 0.77413 0.86805 -0.04123
 N1437 N 0.76977 0.85550 -0.03687
 C1438 C 0.77630 0.84892 -0.02606
 N1439 N 0.78730 0.85539 -0.01971
 N1440 N 0.79165 0.86794 -0.02407
 C1441 C 0.77188 0.83483 -0.02165
 N1442 N 0.77873 0.82804 -0.01117
 N1443 N 0.77508 0.81504 -0.00755
 C1444 C 0.76444 0.80836 -0.01427
 N1445 N 0.75753 0.81519 -0.02469
 N1446 N 0.76118 0.82818 -0.02831
 C1447 C 0.79165 0.29171 0.36325
 N1448 N 0.80304 0.28578 0.35714
 N1449 N 0.80838 0.29109 0.34537
 C1450 C 0.80255 0.30255 0.33922
 N1451 N 0.79108 0.30841 0.34532
 N1452 N 0.78573 0.30310 0.35710
 C1453 C 0.78613 0.28622 0.37654
 N1454 N 0.77502 0.29244 0.38291
 N1455 N 0.77039 0.28780 0.39526
 C1456 C 0.77669 0.27677 0.40169
 N1457 N 0.78774 0.27049 0.39528
 N1458 N 0.79237 0.27513 0.38293
 C1459 C 0.77203 0.27209 0.41561
 N1460 N 0.77875 0.26145 0.42228
 N1461 N 0.77496 0.25763 0.43518
 C1462 C 0.76432 0.26429 0.44188
 N1463 N 0.75753 0.27486 0.43517
 N1464 N 0.76132 0.27868 0.42227
 C1465 C 0.79159 0.79206 -0.13713
 N1466 N 0.78561 0.80335 -0.14340
 N1467 N 0.79092 0.80855 -0.15524
 C1468 C 0.80245 0.80272 -0.16130
 N1469 N 0.80832 0.79134 -0.15500
 N1470 N 0.80301 0.78613 -0.14317
 C1471 C 0.78609 0.78668 -0.12377
 N1472 N 0.79232 0.77562 -0.11732
 N1473 N 0.78768 0.77107 -0.10494
 C1474 C 0.77665 0.77740 -0.09856
 N1475 N 0.77037 0.78841 -0.10506
 N1476 N 0.77500 0.79296 -0.11744
 C1477 C 0.77196 0.77278 -0.08463
 N1478 N 0.76131 0.77947 -0.07797
 N1479 N 0.75747 0.77567 -0.06508
 C1480 C 0.76415 0.76503 -0.05837
 N1481 N 0.77474 0.75828 -0.06507
 N1482 N 0.77858 0.76208 -0.07796
 C1483 C 0.29183 0.45824 0.88601
 N1484 N 0.28581 0.44696 0.89229
 N1485 N 0.29083 0.44202 0.90436
 C1486 C 0.30209 0.44814 0.91064
 N1487 N 0.30803 0.45948 0.90435
 N1488 N 0.30301 0.46443 0.89229
 C1489 C 0.28660 0.46340 0.87246
 N1490 N 0.29287 0.47446 0.86603
 N1491 N 0.28840 0.47888 0.85354
 C1492 C 0.27751 0.47240 0.84703
 N1493 N 0.27120 0.46138 0.85349
 N1494 N 0.27567 0.45696 0.86598
 C1495 C 0.27289 0.47700 0.83307
 N1496 N 0.26223 0.47032 0.82638
 N1497 N 0.25830 0.47425 0.81355
 C1498 C 0.26490 0.48502 0.80694
 N1499 N 0.27552 0.49173 0.81365
 N1500 N 0.27944 0.48780 0.82648
 C1501 C 0.29250 -0.04237 0.38568
 N1502 N 0.30373 -0.03623 0.39192
 N1503 N 0.30870 -0.04114 0.40402
 C1504 C 0.30268 -0.05240 0.41041
 N1505 N 0.29136 -0.05844 0.40414
 N1506 N 0.28638 -0.05354 0.39203
 C1507 C 0.28730 -0.03725 0.37211
 N1508 N 0.27627 -0.04360 0.36571
 N1509 N 0.27180 -0.03920 0.35322
 C1510 C 0.27820 -0.02829 0.34666
 N1511 N 0.28920 -0.02190 0.35309
 N1512 N 0.29367 -0.02631 0.36558
 C1513 C 0.27353 -0.02368 0.33272
 N1514 N 0.28017 -0.01299 0.32604
 N1515 N 0.27616 -0.00903 0.31325
 C1516 C 0.26536 -0.01560 0.30666
 N1517 N 0.25870 -0.02626 0.31337
 N1518 N 0.26271 -0.03023 0.32616
 C1519 C -0.04072 -0.04146 -0.13727
 N1520 N -0.03487 -0.05289 -0.14339
 N1521 N -0.04010 -0.05805 -0.15528
 C1522 C -0.05141 -0.05202 -0.16156
 N1523 N -0.05715 -0.04049 -0.15542
 N1524 N -0.05193 -0.03533 -0.14353
 C1525 C -0.03534 -0.03612 -0.12385
 N1526 N -0.04152 -0.02499 -0.11749
 N1527 N -0.03700 -0.02049 -0.10505
 C1528 C -0.02612 -0.02695 -0.09852
 N1529 N -0.01987 -0.03802 -0.10492
 N1530 N -0.02440 -0.04252 -0.11736
 C1531 C -0.02156 -0.02238 -0.08453
 N1532 N -0.01098 -0.02912 -0.07779
 N1533 N -0.00725 -0.02536 -0.06485
 C1534 C -0.01394 -0.01472 -0.05818
 N1535 N -0.02445 -0.00791 -0.06496
 N1536 N -0.02819 -0.01167 -0.07790
 C1537 C -0.04331 0.45623 0.36534
 N1538 N -0.05463 0.46224 0.35915
 N1539 N -0.05980 0.45709 0.34723
 C1540 C -0.05387 0.44572 0.34101
 N1541 N -0.04248 0.43978 0.34720
 N1542 N -0.03731 0.44492 0.35912
 C1543 C -0.03791 0.46162 0.37872
 N1544 N -0.02679 0.45541 0.38510
 N1545 N -0.02216 0.46006 0.39744
 C1546 C -0.02847 0.47109 0.40386
 N1547 N -0.03954 0.47734 0.39745
 N1548 N -0.04417 0.47270 0.38510
 C1549 C -0.02367 0.47594 0.41767
 N1550 N -0.03026 0.48670 0.42424
 N1551 N -0.02618 0.49084 0.43696
 C1552 C -0.01535 0.48437 0.44356
 N1553 N -0.00872 0.47364 0.43696
 N1554 N -0.01280 0.46950 0.42425
 C1555 C 0.45893 -0.04166 0.36312
 N1556 N 0.44761 -0.03560 0.35699
 N1557 N 0.44228 -0.04081 0.34517
 C1558 C 0.44803 -0.05229 0.33901
 N1559 N 0.45943 -0.05828 0.34513
 N1560 N 0.46477 -0.05308 0.35696
 C1561 C 0.46443 -0.03629 0.37648
 N1562 N 0.47544 -0.04267 0.38288
 N1563 N 0.48006 -0.03814 0.39528
 C1564 C 0.47385 -0.02706 0.40171
 N1565 N 0.46291 -0.02062 0.39526
 N1566 N 0.45829 -0.02515 0.38287
 C1567 C 0.47850 -0.02248 0.41567
 N1568 N 0.47191 -0.01175 0.42231
 N1569 N 0.47569 -0.00800 0.43523
 C1570 C 0.48621 -0.01482 0.44198
 N1571 N 0.49287 -0.02547 0.43530
 N1572 N 0.48909 -0.02923 0.42238
 C1573 C 0.45827 0.45784 -0.13696
 N1574 N 0.46418 0.44646 -0.14312
 N1575 N 0.45882 0.44116 -0.15489
 C1576 C 0.44731 0.44698 -0.16099
 N1577 N 0.44151 0.45846 -0.15482
 N1578 N 0.44686 0.46377 -0.14305
 C1579 C 0.46379 0.46332 -0.12366
 N1580 N 0.45759 0.47443 -0.11729
 N1581 N 0.46223 0.47905 -0.10494
 C1582 C 0.47325 0.47273 -0.09851
 N1583 N 0.47951 0.46167 -0.10492
 N1584 N 0.47487 0.45705 -0.11728
 C1585 C 0.47792 0.47740 -0.08459
 N1586 N 0.48856 0.47072 -0.07789
 N1587 N 0.49237 0.47454 -0.06499
 C1588 C 0.48567 0.48519 -0.05832
 N1589 N 0.47509 0.49193 -0.06506
 N1590 N 0.47129 0.48811 -0.07796
 C1591 C 0.45825 0.79241 0.38566
 N1592 N 0.46430 0.80369 0.39190
 N1593 N 0.45930 0.80866 0.40396
 C1594 C 0.44805 0.80257 0.41027
 N1595 N 0.44208 0.79123 0.40402
 N1596 N 0.44707 0.78624 0.39196
 C1597 C 0.46346 0.78720 0.37213
 N1598 N 0.45717 0.77613 0.36573
 N1599 N 0.46162 0.77167 0.35326
 C1600 C 0.47252 0.77811 0.34672
 N1601 N 0.47885 0.78914 0.35315
 N1602 N 0.47440 0.79360 0.36562
 C1603 C 0.47712 0.77346 0.33278
 N1604 N 0.48779 0.78011 0.32607
 N1605 N 0.49170 0.77614 0.31326
 C1606 C 0.48509 0.76537 0.30667
 N1607 N 0.47446 0.75868 0.31340
 N1608 N 0.47055 0.76265 0.32622
 C1609 C -0.04202 0.79259 0.88571
 N1610 N -0.03588 0.80378 0.89202
 N1611 N -0.04083 0.80871 0.90412
 C1612 C -0.05211 0.80266 0.91041
 N1613 N -0.05818 0.79140 0.90409
 N1614 N -0.05324 0.78646 0.89199
 C1615 C -0.03687 0.78744 0.87214
 N1616 N -0.04327 0.77649 0.86566
 N1617 N -0.03885 0.77207 0.85316
 C1618 C -0.02787 0.77843 0.84669
 N1619 N -0.02143 0.78935 0.85320
 N1620 N -0.02585 0.79377 0.86570
 C1621 C -0.02326 0.77381 0.83274
 N1622 N -0.01246 0.78033 0.82614
 N1623 N -0.00850 0.77635 0.81334
 C1624 C -0.01521 0.76570 0.80667
 N1625 N -0.02599 0.75914 0.81329
 N1626 N -0.02994 0.76312 0.82609
 C1627 C 0.36473 0.79312 0.29263
 N1628 N 0.35861 0.80446 0.28660
 N1629 N 0.34659 0.80953 0.29159
 C1630 C 0.34020 0.80348 0.30281
 N1631 N 0.34633 0.79207 0.30877
 N1632 N 0.35835 0.78699 0.30379
 C1633 C 0.37821 0.78782 0.28741
 N1634 N 0.38453 0.77670 0.29367
 N1635 N 0.39695 0.77214 0.28918
 C1636 C 0.40350 0.77853 0.27826
 N1637 N 0.39714 0.78961 0.27196
 N1638 N 0.38473 0.79417 0.27645
 C1639 C 0.41737 0.77378 0.27356
 N1640 N 0.42403 0.78040 0.26285
 N1641 N 0.43677 0.77634 0.25882
 C1642 C 0.44333 0.76552 0.26535
 N1643 N 0.43664 0.75886 0.27603
 N1644 N 0.42389 0.76292 0.28006
 C1645 C -0.13549 0.79236 0.79256
 N1646 N -0.14170 0.80359 0.78640
 N1647 N -0.15373 0.80866 0.79136
 C1648 C -0.16004 0.80271 0.80268
 N1649 N -0.15383 0.79142 0.80877
 N1650 N -0.14179 0.78635 0.80382
 C1651 C -0.12199 0.78706 0.78737
 N1652 N -0.11559 0.77607 0.79376
 N1653 N -0.10315 0.77153 0.78931
 C1654 C -0.09666 0.77782 0.77830
 N1655 N -0.10309 0.78877 0.77186
 N1656 N -0.11553 0.79331 0.77632
 C1657 C -0.08275 0.77310 0.77365
 N1658 N -0.07613 0.77964 0.76287
 N1659 N -0.06335 0.77563 0.75890
 C1660 C -0.05671 0.76494 0.76557
 N1661 N -0.06336 0.75837 0.77632
 N1662 N -0.07614 0.76237 0.78029
 C1663 C 0.88696 0.29117 0.45812
 N1664 N 0.89307 0.28535 0.44667
 N1665 N 0.90488 0.29069 0.44143
 C1666 C 0.91105 0.30207 0.44742
 N1667 N 0.90494 0.30781 0.45894
 N1668 N 0.89313 0.30248 0.46419
 C1669 C 0.87363 0.28567 0.46354
 N1670 N 0.86730 0.29178 0.47474
 N1671 N 0.85493 0.28715 0.47931
 C1672 C 0.84844 0.27623 0.47286
 N1673 N 0.85481 0.27006 0.46172
 N1674 N 0.86718 0.27469 0.45715
 C1675 C 0.83450 0.27157 0.47748
 N1676 N 0.82775 0.26103 0.47067
 N1677 N 0.81484 0.25723 0.47446
 C1678 C 0.80822 0.26382 0.48520
 N1679 N 0.81501 0.27429 0.49208
 N1680 N 0.82792 0.27809 0.48829
 C1681 C 0.88700 0.79124 -0.04130
 N1682 N 0.89317 0.78532 -0.05268
 N1683 N 0.90505 0.79056 -0.05785
 C1684 C 0.91124 0.80193 -0.05187
 N1685 N 0.90508 0.80777 -0.04041
 N1686 N 0.89320 0.80253 -0.03524
 C1687 C 0.87360 0.78583 -0.03596
 N1688 N 0.86717 0.79210 -0.02491
 N1689 N 0.85474 0.78756 -0.02041
 C1690 C 0.84828 0.77658 -0.02680
 N1691 N 0.85475 0.77026 -0.03779
 N1692 N 0.86718 0.77480 -0.04229
 C1693 C 0.83428 0.77201 -0.02225
 N1694 N 0.82762 0.76133 -0.02892
 N1695 N 0.81467 0.75759 -0.02520
 C1696 C 0.80792 0.76440 -0.01467
 N1697 N 0.81463 0.77502 -0.00794
 N1698 N 0.82757 0.77875 -0.01166
 C1699 C -0.13761 -0.03989 -0.04030
 N1700 N -0.14385 -0.05115 -0.03422
 N1701 N -0.15587 -0.05620 -0.03925
 C1702 C -0.16215 -0.05020 -0.05057
 N1703 N -0.15592 -0.03886 -0.05656
 N1704 N -0.14389 -0.03380 -0.05154
 C1705 C -0.12406 -0.03469 -0.03512
 N1706 N -0.11759 -0.02370 -0.04148
 N1707 N -0.10504 -0.01934 -0.03712
 C1708 C -0.09850 -0.02582 -0.02625
 N1709 N -0.10500 -0.03676 -0.01984
 N1710 N -0.11755 -0.04111 -0.02420
 C1711 C -0.08440 -0.02142 -0.02184
 N1712 N -0.07766 -0.02827 -0.01133
 N1713 N -0.06465 -0.02467 -0.00769
 C1714 C -0.05791 -0.01407 -0.01443
 N1715 N -0.06469 -0.00716 -0.02488
 N1716 N -0.07770 -0.01077 -0.02851
 C1717 C -0.13519 0.45744 0.45668
 N1718 N -0.14148 0.44626 0.46286
 N1719 N -0.15343 0.44111 0.45776
 C1720 C -0.15962 0.44691 0.44628
 N1721 N -0.15331 0.45818 0.44020
 N1722 N -0.14135 0.46334 0.44529
 C1723 C -0.12177 0.46282 0.46202
 N1724 N -0.11531 0.47381 0.45565
 N1725 N -0.10293 0.47842 0.46024
 C1726 C -0.09656 0.47220 0.47136
 N1727 N -0.10305 0.46126 0.47777
 N1728 N -0.11543 0.45665 0.47318
 C1729 C -0.08271 0.47698 0.47614
 N1730 N -0.07616 0.47048 0.48699
 N1731 N -0.06341 0.47453 0.49106
 C1732 C -0.05674 0.48523 0.48442
 N1733 N -0.06331 0.49177 0.47361
 N1734 N -0.07606 0.48772 0.46954
 C1735 C 0.36320 -0.04072 0.45839
 N1736 N 0.35690 -0.05195 0.46447
 N1737 N 0.34502 -0.05714 0.45923
 C1738 C 0.33897 -0.05132 0.44771
 N1739 N 0.34527 -0.04001 0.44171
 N1740 N 0.35715 -0.03482 0.44695
 C1741 C 0.37661 -0.03539 0.46381
 N1742 N 0.38312 -0.02439 0.45752
 N1743 N 0.39555 -0.01991 0.46209
 C1744 C 0.40192 -0.02627 0.47314
 N1745 N 0.39537 -0.03721 0.47949
 N1746 N 0.38294 -0.04168 0.47491
 C1747 C 0.41591 -0.02176 0.47777
 N1748 N 0.42255 -0.02855 0.48838
 N1749 N 0.43549 -0.02487 0.49218
 C1750 C 0.44227 -0.01426 0.48551
 N1751 N 0.43559 -0.00740 0.47496
 N1752 N 0.42265 -0.01109 0.47116
 C1753 C 0.36266 0.45914 -0.04147
 N1754 N 0.35654 0.46503 -0.05288
 N1755 N 0.34465 0.45980 -0.05807
 C1756 C 0.33839 0.44845 -0.05207
 N1757 N 0.34453 0.44268 -0.04055
 N1758 N 0.35641 0.44789 -0.03537
 C1759 C 0.37608 0.46451 -0.03611
 N1760 N 0.38247 0.45825 -0.02503
 N1761 N 0.39491 0.46276 -0.02052
 C1762 C 0.40141 0.47370 -0.02692
 N1763 N 0.39498 0.48002 -0.03794
 N1764 N 0.38254 0.47551 -0.04246
 C1765 C 0.41541 0.47824 -0.02235
 N1766 N 0.42211 0.48891 -0.02901
 N1767 N 0.43506 0.49262 -0.02527
 C1768 C 0.44178 0.48580 -0.01472
 N1769 N 0.43504 0.47520 -0.00800
 N1770 N 0.42209 0.47149 -0.01174
 C1771 C 0.38520 0.45712 0.79282
 N1772 N 0.39158 0.46325 0.80397
 N1773 N 0.40359 0.45817 0.80898
 C1774 C 0.40972 0.44676 0.80304
 N1775 N 0.40333 0.44069 0.79181
 N1776 N 0.39132 0.44577 0.78680
 C1777 C 0.37173 0.46244 0.78759
 N1778 N 0.36519 0.45609 0.77663
 N1779 N 0.35277 0.46067 0.77214
 C1780 C 0.34644 0.47175 0.77844
 N1781 N 0.35300 0.47814 0.78935
 N1782 N 0.36542 0.47356 0.79384
 C1783 C 0.33257 0.47652 0.77374
 N1784 N 0.32606 0.48739 0.78025
 N1785 N 0.31331 0.49146 0.77622
 C1786 C 0.30661 0.48482 0.76555
 N1787 N 0.31314 0.47399 0.75902
 N1788 N 0.32588 0.46991 0.76304
 C1789 C 0.38560 -0.04214 0.29234
 N1790 N 0.39195 -0.03610 0.30356
 N1791 N 0.40397 -0.04121 0.30853
 C1792 C 0.41012 -0.05256 0.30249
 N1793 N 0.40375 -0.05852 0.29120
 N1794 N 0.39174 -0.05342 0.28623
 C1795 C 0.37210 -0.03682 0.28716
 N1796 N 0.36560 -0.04309 0.27614
 N1797 N 0.35316 -0.03854 0.27170
 C1798 C 0.34676 -0.02757 0.27812
 N1799 N 0.35329 -0.02126 0.28910
 N1800 N 0.36573 -0.02580 0.29354
 C1801 C 0.33283 -0.02287 0.27351
 N1802 N 0.32624 -0.01214 0.28015
 N1803 N 0.31343 -0.00816 0.27621
 C1804 C 0.30676 -0.01476 0.26549
 N1805 N 0.31339 -0.02545 0.25881
 N1806 N 0.32619 -0.02943 0.26275
 C1807 C 0.11249 0.54099 0.70986
 N1808 N 0.10627 0.55230 0.71583
 N1809 N 0.09427 0.55732 0.71073
 C1810 C 0.08801 0.55125 0.69944
 N1811 N 0.09424 0.53986 0.69355
 N1812 N 0.10623 0.53484 0.69865
 C1813 C 0.12601 0.53580 0.71512
 N1814 N 0.13243 0.52475 0.70884
 N1815 N 0.14493 0.52036 0.71327
 C1816 C 0.15148 0.52685 0.72413
 N1817 N 0.14502 0.53784 0.73046
 N1818 N 0.13251 0.54224 0.72604
 C1819 C 0.16553 0.52238 0.72861
 N1820 N 0.17229 0.52916 0.73916
 N1821 N 0.18525 0.52546 0.74284
 C1822 C 0.19193 0.51484 0.73609
 N1823 N 0.18513 0.50801 0.72560
 N1824 N 0.17217 0.51171 0.72192
 C1825 C 0.11307 0.04097 0.20856
 N1826 N 0.10699 0.03495 0.19718
 N1827 N 0.09514 0.04011 0.19187
 C1828 C 0.08889 0.05149 0.19773
 N1829 N 0.09497 0.05743 0.20919
 N1830 N 0.10682 0.05228 0.21449
 C1831 C 0.12645 0.03565 0.21404
 N1832 N 0.13283 0.04204 0.22506
 N1833 N 0.14523 0.03756 0.22968
 C1834 C 0.15171 0.02652 0.22344
 N1835 N 0.14529 0.02007 0.21248
 N1836 N 0.13289 0.02456 0.20786
 C1837 C 0.16567 0.02198 0.22811
 N1838 N 0.17232 0.01123 0.22157
 N1839 N 0.18523 0.00750 0.22538
 C1840 C 0.19198 0.01439 0.23587
 N1841 N 0.18530 0.02508 0.24247
 N1842 N 0.17238 0.02881 0.23866
 C1843 C 0.63694 0.70894 0.20880
 N1844 N 0.64320 0.69765 0.21479
 N1845 N 0.65507 0.69251 0.20953
 C1846 C 0.66116 0.69843 0.19808
 N1847 N 0.65490 0.70979 0.19217
 N1848 N 0.64303 0.71494 0.19742
 C1849 C 0.62354 0.71425 0.21422
 N1850 N 0.61709 0.72529 0.20796
 N1851 N 0.60467 0.72977 0.21251
 C1852 C 0.59824 0.72337 0.22350
 N1853 N 0.60473 0.71238 0.22982
 N1854 N 0.61715 0.70791 0.22526
 C1855 C 0.58426 0.72790 0.22809
 N1856 N 0.57756 0.72116 0.23870
 N1857 N 0.56463 0.72489 0.24246
 C1858 C 0.55793 0.73551 0.23573
 N1859 N 0.56466 0.74231 0.22518
 N1860 N 0.57759 0.73858 0.22143
 C1861 C 0.13707 0.70915 0.70903
 N1862 N 0.14323 0.71521 0.69771
 N1863 N 0.15513 0.71010 0.69250
 C1864 C 0.16137 0.69871 0.69840
 N1865 N 0.15522 0.69273 0.70979
 N1866 N 0.14331 0.69784 0.71500
 C1867 C 0.12365 0.71443 0.71441
 N1868 N 0.11722 0.70803 0.72539
 N1869 N 0.10477 0.71248 0.72992
 C1870 C 0.09831 0.72350 0.72364
 N1871 N 0.10478 0.72996 0.71271
 N1872 N 0.11722 0.72551 0.70818
 C1873 C 0.08432 0.72801 0.72822
 N1874 N 0.07768 0.73875 0.72164
 N1875 N 0.06475 0.74247 0.72540
 C1876 C 0.05798 0.73559 0.73588
 N1877 N 0.06466 0.72491 0.74252
 N1878 N 0.07759 0.72119 0.73877
 C1879 C 0.61459 0.20730 0.54187
 N1880 N 0.60833 0.21350 0.55305
 N1881 N 0.59632 0.20848 0.55814
 C1882 C 0.59009 0.19707 0.55228
 N1883 N 0.59636 0.19094 0.54104
 N1884 N 0.60837 0.19595 0.53594
 C1885 C 0.62808 0.21252 0.53657
 N1886 N 0.63452 0.20611 0.52561
 N1887 N 0.64696 0.21059 0.52107
 C1888 C 0.65342 0.22164 0.52733
 N1889 N 0.64695 0.22809 0.53825
 N1890 N 0.63451 0.22362 0.54278
 C1891 C 0.66734 0.22628 0.52264
 N1892 N 0.67396 0.23706 0.52919
 N1893 N 0.68677 0.24101 0.52521
 C1894 C 0.69342 0.23433 0.51454
 N1895 N 0.68677 0.22359 0.50796
 N1896 N 0.67396 0.21963 0.51193
 C1897 C 0.61440 0.70739 0.04186
 N1898 N 0.60810 0.71359 0.05301
 N1899 N 0.59612 0.70852 0.05812
 C1900 C 0.58996 0.69704 0.05230
 N1901 N 0.59628 0.69091 0.04109
 N1902 N 0.60825 0.69598 0.03597
 C1903 C 0.62785 0.71270 0.03652
 N1904 N 0.63434 0.70630 0.02559
 N1905 N 0.64675 0.71086 0.02103
 C1906 C 0.65311 0.72199 0.02724
 N1907 N 0.64659 0.72844 0.03813
 N1908 N 0.63418 0.72388 0.04268
 C1909 C 0.66700 0.72673 0.02253
 N1910 N 0.67352 0.73760 0.02903
 N1911 N 0.68630 0.74164 0.02505
 C1912 C 0.69302 0.73496 0.01443
 N1913 N 0.68647 0.72413 0.00789
 N1914 N 0.67369 0.72009 0.01186
 C1915 C 0.13557 0.04289 0.04232
 N1916 N 0.14169 0.05433 0.03645
 N1917 N 0.15365 0.05942 0.04160
 C1918 C 0.15999 0.05332 0.05284
 N1919 N 0.15384 0.04180 0.05860
 N1920 N 0.14188 0.03670 0.05346
 C1921 C 0.12214 0.03755 0.03696
 N1922 N 0.11583 0.02636 0.04311
 N1923 N 0.10344 0.02177 0.03854
 C1924 C 0.09690 0.02822 0.02765
 N1925 N 0.10324 0.03937 0.02145
 N1926 N 0.11563 0.04396 0.02603
 C1927 C 0.08302 0.02345 0.02292
 N1928 N 0.07633 0.03010 0.01225
 N1929 N 0.06355 0.02605 0.00826
 C1930 C 0.05701 0.01520 0.01479
 N1931 N 0.06374 0.00852 0.02542
 N1932 N 0.07651 0.01257 0.02941
 C1933 C 0.13720 0.54123 0.54075
 N1934 N 0.14330 0.55268 0.53488
 N1935 N 0.15523 0.55783 0.54006
 C1936 C 0.16153 0.55174 0.55131
 N1937 N 0.15543 0.54021 0.55709
 N1938 N 0.14351 0.53506 0.55193
 C1939 C 0.12375 0.53593 0.53544
 N1940 N 0.11739 0.52478 0.54163
 N1941 N 0.10492 0.52032 0.53717
 C1942 C 0.09835 0.52683 0.52634
 N1943 N 0.10474 0.53792 0.52009
 N1944 N 0.11721 0.54239 0.52455
 C1945 C 0.08432 0.52232 0.52183
 N1946 N 0.07755 0.52915 0.51134
 N1947 N 0.06459 0.52543 0.50764
 C1948 C 0.05793 0.51474 0.51430
 N1949 N 0.06475 0.50784 0.52473
 N1950 N 0.07770 0.51156 0.52843
 C1951 C 0.63502 0.04365 0.54343
 N1952 N 0.64111 0.05508 0.53753
 N1953 N 0.65294 0.06035 0.54279
 C1954 C 0.65919 0.05443 0.55417
 N1955 N 0.65308 0.04290 0.55998
 N1956 N 0.64124 0.03763 0.55473
 C1957 C 0.62172 0.03812 0.53794
 N1958 N 0.61544 0.02691 0.54409
 N1959 N 0.60316 0.02217 0.53938
 C1960 C 0.59671 0.02847 0.52836
 N1961 N 0.60302 0.03964 0.52216
 N1962 N 0.61531 0.04438 0.52687
 C1963 C 0.58293 0.02356 0.52350
 N1964 N 0.57629 0.03011 0.51273
 N1965 N 0.56358 0.02597 0.50864
 C1966 C 0.55705 0.01511 0.51516
 N1967 N 0.56372 0.00852 0.52588
 N1968 N 0.57643 0.01266 0.52997
 C1969 C 0.63536 0.54270 0.04186
 N1970 N 0.64169 0.53650 0.05300
 N1971 N 0.65368 0.54158 0.05809
 C1972 C 0.65982 0.55305 0.05226
 N1973 N 0.65348 0.55918 0.04105
 N1974 N 0.64149 0.55411 0.03595
 C1975 C 0.62189 0.53739 0.03656
 N1976 N 0.61538 0.54379 0.02563
 N1977 N 0.60296 0.53924 0.02111
 C1978 C 0.59660 0.52811 0.02734
 N1979 N 0.60315 0.52167 0.03822
 N1980 N 0.61557 0.52623 0.04275
 C1981 C 0.58270 0.52338 0.02266
 N1982 N 0.57618 0.51252 0.02918
 N1983 N 0.56339 0.50850 0.02523
 C1984 C 0.55665 0.51517 0.01460
 N1985 N 0.56321 0.52599 0.00804
 N1986 N 0.57600 0.53002 0.01199
 C1987 C 0.04272 0.04216 0.13553
 N1988 N 0.03658 0.05336 0.14179
 N1989 N 0.04151 0.05833 0.15389
 C1990 C 0.05278 0.05233 0.16025
 N1991 N 0.05883 0.04104 0.15397
 N1992 N 0.05391 0.03606 0.14186
 C1993 C 0.03757 0.03697 0.12197
 N1994 N 0.04390 0.02597 0.11553
 N1995 N 0.03947 0.02151 0.10304
 C1996 C 0.02854 0.02791 0.09653
 N1997 N 0.02217 0.03888 0.10299
 N1998 N 0.02660 0.04333 0.11548
 C1999 C 0.02389 0.02326 0.08259
 N2000 N 0.01318 0.02990 0.07595
 N2001 N 0.00918 0.02593 0.06316
 C2002 C 0.01573 0.01516 0.05654
 N2003 N 0.02640 0.00849 0.06320
 N2004 N 0.03041 0.01247 0.07599
 C2005 C 0.04053 0.54051 0.63772
 N2006 N 0.05183 0.53454 0.64397
 N2007 N 0.05688 0.53968 0.65595
 C2008 C 0.05083 0.55098 0.66217
 N2009 N 0.03945 0.55687 0.65593
 N2010 N 0.03440 0.55174 0.64394
 C2011 C 0.03532 0.53523 0.62421
 N2012 N 0.02428 0.54149 0.61775
 N2013 N 0.01989 0.53704 0.60525
 C2014 C 0.02637 0.52617 0.59874
 N2015 N 0.03735 0.51984 0.60524
 N2016 N 0.04174 0.52429 0.61775
 C2017 C 0.02191 0.52167 0.58469
 N2018 N 0.02869 0.51111 0.57797
 N2019 N 0.02501 0.50741 0.56500
 C2020 C 0.01441 0.51414 0.55827
 N2021 N 0.00757 0.52464 0.56503
 N2022 N 0.01125 0.52833 0.57800
 C2023 C 0.54372 0.04291 0.63510
 N2024 N 0.55510 0.03701 0.64126
 N2025 N 0.56017 0.04212 0.65324
 C2026 C 0.55408 0.05336 0.65958
 N2027 N 0.54261 0.05917 0.65339
 N2028 N 0.53754 0.05406 0.64140
 C2029 C 0.53839 0.03756 0.62166
 N2030 N 0.52727 0.04376 0.61529
 N2031 N 0.52268 0.03917 0.60291
 C2032 C 0.52905 0.02820 0.59645
 N2033 N 0.54013 0.02196 0.60284
 N2034 N 0.54472 0.02656 0.61522
 C2035 C 0.52425 0.02341 0.58260
 N2036 N 0.53075 0.01259 0.57602
 N2037 N 0.52664 0.00851 0.56330
 C2038 C 0.51588 0.01509 0.55669
 N2039 N 0.50935 0.02588 0.56329
 N2040 N 0.51345 0.02996 0.57602
 C2041 C 0.54208 0.54208 0.13548
 N2042 N 0.55325 0.53596 0.14183
 N2043 N 0.55813 0.54091 0.15395
 C2044 C 0.55206 0.55218 0.16022
 N2045 N 0.54082 0.55822 0.15386
 N2046 N 0.53593 0.55328 0.14173
 C2047 C 0.53697 0.53692 0.12188
 N2048 N 0.52603 0.54329 0.11537
 N2049 N 0.52163 0.53885 0.10286
 C2050 C 0.52801 0.52789 0.09641
 N2051 N 0.53892 0.52148 0.10295
 N2052 N 0.54332 0.52591 0.11546
 C2053 C 0.52340 0.52326 0.08245
 N2054 N 0.52994 0.51247 0.07586
 N2055 N 0.52596 0.50849 0.06306
 C2056 C 0.51531 0.51517 0.05638
 N2057 N 0.50875 0.52594 0.06299
 N2058 N 0.51272 0.52991 0.07579
 C2059 C 0.20928 0.54091 0.61279
 N2060 N 0.21523 0.55232 0.60671
 N2061 N 0.21008 0.55754 0.59481
 C2062 C 0.19876 0.55157 0.58851
 N2063 N 0.19289 0.54007 0.59459
 N2064 N 0.19804 0.53485 0.60648
 C2065 C 0.21457 0.53554 0.62622
 N2066 N 0.20829 0.52444 0.63258
 N2067 N 0.21273 0.51994 0.64505
 C2068 C 0.22362 0.52637 0.65161
 N2069 N 0.22997 0.53740 0.64520
 N2070 N 0.22552 0.54190 0.63274
 C2071 C 0.22811 0.52184 0.66563
 N2072 N 0.23865 0.52864 0.67239
 N2073 N 0.24233 0.52494 0.68535
 C2074 C 0.23561 0.51431 0.69205
 N2075 N 0.22513 0.50745 0.68526
 N2076 N 0.22145 0.51115 0.67228
 C2077 C 0.20786 0.04139 0.11335
 N2078 N 0.21388 0.05274 0.10722
 N2079 N 0.20860 0.05809 0.09543
 C2080 C 0.19709 0.05231 0.08931
 N2081 N 0.19115 0.04088 0.09545
 N2082 N 0.19642 0.03553 0.10723
 C2083 C 0.21333 0.03587 0.12666
 N2084 N 0.20701 0.02483 0.13307
 N2085 N 0.21162 0.02018 0.14542
 C2086 C 0.22273 0.02640 0.15181
 N2087 N 0.22911 0.03738 0.14536
 N2088 N 0.22450 0.04203 0.13301
 C2089 C 0.22741 0.02172 0.16573
 N2090 N 0.23816 0.02832 0.17234
 N2091 N 0.24200 0.02451 0.18523
 C2092 C 0.23523 0.01395 0.19198
 N2093 N 0.22454 0.00727 0.18533
 N2094 N 0.22070 0.01109 0.17243
 C2095 C 0.70750 0.20697 0.63522
 N2096 N 0.71353 0.19563 0.64135
 N2097 N 0.70845 0.19045 0.65329
 C2098 C 0.69714 0.19638 0.65960
 N2099 N 0.69118 0.20779 0.65346
 N2100 N 0.69625 0.21298 0.64152
 C2101 C 0.71281 0.21238 0.62180
 N2102 N 0.70650 0.22344 0.61543
 N2103 N 0.71105 0.22807 0.60305
 C2104 C 0.72207 0.22180 0.59658
 N2105 N 0.72842 0.21078 0.60299
 N2106 N 0.72387 0.20616 0.61537
 C2107 C 0.72680 0.22658 0.58272
 N2108 N 0.73761 0.22007 0.57613
 N2109 N 0.74162 0.22410 0.56336
 C2110 C 0.73498 0.23480 0.55671
 N2111 N 0.72421 0.24135 0.56332
 N2112 N 0.72020 0.23732 0.57609
 C2113 C 0.70753 0.70799 0.13533
 N2114 N 0.69636 0.71411 0.14168
 N2115 N 0.69149 0.70917 0.15381
 C2116 C 0.69757 0.69790 0.16008
 N2117 N 0.70880 0.69186 0.15373
 N2118 N 0.71368 0.69680 0.14160
 C2119 C 0.71264 0.71316 0.12174
 N2120 N 0.72358 0.70679 0.11524
 N2121 N 0.72797 0.71122 0.10273
 C2122 C 0.72159 0.72218 0.09626
 N2123 N 0.71068 0.72859 0.10279
 N2124 N 0.70628 0.72416 0.11530
 C2125 C 0.72620 0.72682 0.08231
 N2126 N 0.71967 0.73761 0.07571
 N2127 N 0.72365 0.74159 0.06292
 C2128 C 0.73431 0.73492 0.05625
 N2129 N 0.74087 0.72415 0.06287
 N2130 N 0.73689 0.72017 0.07566
 C2131 C 0.54158 0.70859 0.11315
 N2132 N 0.55297 0.71451 0.10698
 N2133 N 0.55823 0.70918 0.09519
 C2134 C 0.55233 0.69771 0.08909
 N2135 N 0.54087 0.69187 0.09526
 N2136 N 0.53561 0.69720 0.10705
 C2137 C 0.53613 0.71409 0.12647
 N2138 N 0.52505 0.70784 0.13287
 N2139 N 0.52045 0.71247 0.14523
 C2140 C 0.52676 0.72353 0.15163
 N2141 N 0.53778 0.72984 0.14518
 N2142 N 0.54238 0.72521 0.13282
 C2143 C 0.52211 0.72819 0.16556
 N2144 N 0.52873 0.73892 0.17219
 N2145 N 0.52492 0.74272 0.18510
 C2146 C 0.51436 0.73593 0.19183
 N2147 N 0.50768 0.72527 0.18514
 N2148 N 0.51148 0.72147 0.17225
 C2149 C 0.04125 0.70948 0.61283
 N2150 N 0.05270 0.71534 0.60671
 N2151 N 0.05784 0.71013 0.59481
 C2152 C 0.05176 0.69885 0.58855
 N2153 N 0.04023 0.69308 0.59466
 N2154 N 0.03509 0.69828 0.60656
 C2155 C 0.03593 0.71485 0.62625
 N2156 N 0.02478 0.70866 0.63260
 N2157 N 0.02029 0.71316 0.64504
 C2158 C 0.02678 0.72403 0.65159
 N2159 N 0.03787 0.73028 0.64519
 N2160 N 0.04236 0.72578 0.63275
 C2161 C 0.02222 0.72858 0.66558
 N2162 N 0.02899 0.73914 0.67233
 N2163 N 0.02524 0.74286 0.68527
 C2164 C 0.01458 0.73616 0.69193
 N2165 N 0.00775 0.72566 0.68514
 N2166 N 0.01150 0.72194 0.67221
 C2167 C 0.54062 0.61305 0.20855
 N2168 N 0.55180 0.60677 0.21472
 N2169 N 0.55701 0.59488 0.20955
 C2170 C 0.55126 0.58880 0.19800
 N2171 N 0.54000 0.59508 0.19191
 N2172 N 0.53478 0.60696 0.19708
 C2173 C 0.53525 0.62645 0.21389
 N2174 N 0.52435 0.63296 0.20744
 N2175 N 0.51983 0.64539 0.21194
 C2176 C 0.52605 0.65177 0.22306
 N2177 N 0.53689 0.64522 0.22957
 N2178 N 0.54140 0.63279 0.22507
 C2179 C 0.52149 0.66576 0.22761
 N2180 N 0.52806 0.67236 0.23839
 N2181 N 0.52434 0.68529 0.24213
 C2182 C 0.51390 0.69210 0.23524
 N2183 N 0.50726 0.68545 0.22452
 N2184 N 0.51099 0.67252 0.22078
 C2185 C 0.04021 0.61273 0.70958
 N2186 N 0.05149 0.60656 0.71567
 N2187 N 0.05661 0.59458 0.71063
 C2188 C 0.05067 0.58830 0.69929
 N2189 N 0.03931 0.59447 0.69327
 N2190 N 0.03418 0.60645 0.69831
 C2191 C 0.03493 0.62624 0.71478
 N2192 N 0.02393 0.63265 0.70841
 N2193 N 0.01949 0.64515 0.71280
 C2194 C 0.02589 0.65169 0.72372
 N2195 N 0.03683 0.64524 0.73014
 N2196 N 0.04127 0.63274 0.72576
 C2197 C 0.02141 0.66574 0.72816
 N2198 N 0.02819 0.67248 0.73872
 N2199 N 0.02453 0.68545 0.74239
 C2200 C 0.01395 0.69217 0.73564
 N2201 N 0.00710 0.68539 0.72513
 N2202 N 0.01076 0.67242 0.72147
 C2203 C 0.04241 0.13534 0.04272
 N2204 N 0.03635 0.14163 0.05395
 N2205 N 0.04145 0.15364 0.05898
 C2206 C 0.05283 0.15983 0.05300
 N2207 N 0.05882 0.15353 0.04171
 N2208 N 0.05372 0.14153 0.03667
 C2209 C 0.03708 0.12187 0.03746
 N2210 N 0.04336 0.11542 0.02643
 N2211 N 0.03880 0.10300 0.02192
 C2212 C 0.02779 0.09657 0.02828
 N2213 N 0.02147 0.10305 0.03927
 N2214 N 0.02603 0.11547 0.04378
 C2215 C 0.02306 0.08267 0.02360
 N2216 N 0.01231 0.07606 0.03019
 N2217 N 0.00830 0.06327 0.02620
 C2218 C 0.01489 0.05664 0.01546
 N2219 N 0.02561 0.06329 0.00883
 N2220 N 0.02962 0.07607 0.01282
 C2221 C 0.04079 0.63727 0.54096
 N2222 N 0.03478 0.64357 0.55222
 N2223 N 0.04003 0.65547 0.55734
 C2224 C 0.05150 0.66155 0.55143
 N2225 N 0.05742 0.65525 0.54010
 N2226 N 0.05218 0.64335 0.53497
 C2227 C 0.03538 0.62385 0.53567
 N2228 N 0.04169 0.61734 0.52470
 N2229 N 0.03714 0.60490 0.52024
 C2230 C 0.02612 0.59849 0.52660
 N2231 N 0.01975 0.60504 0.53753
 N2232 N 0.02429 0.61749 0.54198
 C2233 C 0.02155 0.58448 0.52210
 N2234 N 0.01086 0.57783 0.52876
 N2235 N 0.00713 0.56487 0.52506
 C2236 C 0.01396 0.55810 0.51456
 N2237 N 0.02459 0.56480 0.50784
 N2238 N 0.02831 0.57775 0.51154
 C2239 C 0.54233 0.13540 0.54242
 N2240 N 0.53629 0.14175 0.55362
 N2241 N 0.54139 0.15378 0.55858
 C2242 C 0.55275 0.15994 0.55255
 N2243 N 0.55873 0.15359 0.54128
 N2244 N 0.55362 0.14156 0.53631
 C2245 C 0.53702 0.12190 0.53724
 N2246 N 0.54329 0.11540 0.52624
 N2247 N 0.53875 0.10295 0.52181
 C2248 C 0.52777 0.09653 0.52822
 N2249 N 0.52145 0.10305 0.53919
 N2250 N 0.52599 0.11551 0.54362
 C2251 C 0.52307 0.08259 0.52362
 N2252 N 0.51234 0.07598 0.53025
 N2253 N 0.50836 0.06317 0.52632
 C2254 C 0.51496 0.05651 0.51560
 N2255 N 0.52565 0.06315 0.50893
 N2256 N 0.52963 0.07596 0.51287
 C2257 C 0.54224 0.63532 0.04237
 N2258 N 0.53620 0.64166 0.05358
 N2259 N 0.54132 0.65367 0.05858
 C2260 C 0.55270 0.65982 0.05257
 N2261 N 0.55868 0.65348 0.04129
 N2262 N 0.55356 0.64147 0.03629
 C2263 C 0.53689 0.62185 0.03714
 N2264 N 0.54314 0.61537 0.02612
 N2265 N 0.53855 0.60295 0.02164
 C2266 C 0.52754 0.59655 0.02801
 N2267 N 0.52124 0.60306 0.03900
 N2268 N 0.52583 0.61548 0.04348
 C2269 C 0.52278 0.58266 0.02335
 N2270 N 0.51202 0.57606 0.02997
 N2271 N 0.50798 0.56328 0.02599
 C2272 C 0.51456 0.55663 0.01525
 N2273 N 0.52527 0.56325 0.00860
 N2274 N 0.52931 0.57603 0.01258
 C2275 C 0.70611 0.11524 0.54383
 N2276 N 0.69474 0.10911 0.53784
 N2277 N 0.68953 0.09721 0.54301
 C2278 C 0.69544 0.09094 0.55439
 N2279 N 0.70689 0.09711 0.56029
 N2280 N 0.71211 0.10901 0.55513
 C2281 C 0.71158 0.12859 0.53841
 N2282 N 0.72275 0.13490 0.54460
 N2283 N 0.72747 0.14721 0.53993
 C2284 C 0.72117 0.15366 0.52889
 N2285 N 0.71004 0.14731 0.52266
 N2286 N 0.70533 0.13501 0.52734
 C2287 C 0.72608 0.16743 0.52402
 N2288 N 0.71952 0.17404 0.51324
 N2289 N 0.72370 0.18671 0.50908
 C2290 C 0.73460 0.19324 0.51554
 N2291 N 0.74119 0.18661 0.52628
 N2292 N 0.73701 0.17393 0.53044
 C2293 C 0.70750 0.61479 0.04226
 N2294 N 0.69619 0.60863 0.03619
 N2295 N 0.69108 0.59662 0.04120
 C2296 C 0.69707 0.59029 0.05249
 N2297 N 0.70845 0.59645 0.05849
 N2298 N 0.71356 0.60846 0.05348
 C2299 C 0.71284 0.62827 0.03703
 N2300 N 0.72390 0.63464 0.04336
 N2301 N 0.72848 0.64707 0.03887
 C2302 C 0.72217 0.65357 0.02788
 N2303 N 0.71115 0.64716 0.02151
 N2304 N 0.70657 0.63474 0.02600
 C2305 C 0.72691 0.66747 0.02321
 N2306 N 0.72037 0.67410 0.01244
 N2307 N 0.72440 0.68688 0.00846
 C2308 C 0.73512 0.69351 0.01511
 N2309 N 0.74170 0.68685 0.02585
 N2310 N 0.73767 0.67407 0.02983
 C2311 C 0.20927 0.63735 0.70882
 N2312 N 0.21514 0.64347 0.69738
 N2313 N 0.20994 0.65537 0.69222
 C2314 C 0.19867 0.66163 0.69828
 N2315 N 0.19288 0.65551 0.70980
 N2316 N 0.19807 0.64361 0.71496
 C2317 C 0.21463 0.62393 0.71415
 N2318 N 0.20845 0.61757 0.72530
 N2319 N 0.21296 0.60513 0.72980
 C2320 C 0.22381 0.59859 0.72330
 N2321 N 0.23004 0.60499 0.71220
 N2322 N 0.22553 0.61743 0.70771
 C2323 C 0.22836 0.58460 0.72786
 N2324 N 0.23886 0.57784 0.72103
 N2325 N 0.24259 0.56491 0.72477
 C2326 C 0.23596 0.55826 0.73549
 N2327 N 0.22552 0.56505 0.74237
 N2328 N 0.22179 0.57799 0.73863
 C2329 C 0.20961 0.13706 0.20901
 N2330 N 0.19837 0.14330 0.21510
 N2331 N 0.19318 0.15519 0.20993
 C2332 C 0.19901 0.16133 0.19845
 N2333 N 0.21033 0.15509 0.19244
 N2334 N 0.21552 0.14320 0.19761
 C2335 C 0.21494 0.12363 0.21434
 N2336 N 0.22592 0.11717 0.20800
 N2337 N 0.23038 0.10471 0.21249
 C2338 C 0.22403 0.09826 0.22349
 N2339 N 0.21311 0.10477 0.22989
 N2340 N 0.20864 0.11722 0.22540
 C2341 C 0.22852 0.08425 0.22802
 N2342 N 0.22175 0.07755 0.23861
 N2343 N 0.22541 0.06459 0.24232
 C2344 C 0.23599 0.05785 0.23559
 N2345 N 0.24283 0.06459 0.22507
 N2346 N 0.23916 0.07755 0.22135
 C2347 C 0.70719 1.13496 0.70658
 N2348 N 0.71314 1.14114 0.69522
 N2349 N 0.70804 1.15313 0.69018
 C2350 C 0.69679 1.15945 0.69625
 N2351 N 0.69094 1.15323 0.70770
 N2352 N 0.69602 1.14124 0.71275
 C2353 C 0.71252 1.12151 0.71188
 N2354 N 0.70628 1.11512 0.72298
 N2355 N 0.71086 1.10273 0.72755
 C2356 C 0.72183 1.09628 0.72118
 N2357 N 0.72811 1.10270 0.71012
 N2358 N 0.72353 1.11509 0.70555
 C2359 C 0.72660 1.08243 0.72596
 N2360 N 0.73742 1.07586 0.71946
 N2361 N 0.74150 1.06314 0.72356
 C2362 C 0.73489 1.05652 0.73431
 N2363 N 0.72410 1.06311 0.74084
 N2364 N 0.72003 1.07584 0.73675
 C2365 C 0.70905 0.63705 0.20847
 N2366 N 0.71488 0.64313 0.19699
 N2367 N 0.70966 0.65501 0.19181
 C2368 C 0.69841 0.66129 0.19790
 N2369 N 0.69266 0.65522 0.20945
 N2370 N 0.69788 0.64334 0.21463
 C2371 C 0.71443 0.62365 0.21382
 N2372 N 0.70828 0.61732 0.22500
 N2373 N 0.71280 0.60489 0.22951
 C2374 C 0.72363 0.59834 0.22301
 N2375 N 0.72983 0.60471 0.21188
 N2376 N 0.72531 0.61713 0.20737
 C2377 C 0.72819 0.58435 0.22757
 N2378 N 0.73868 0.57758 0.22074
 N2379 N 0.74241 0.56465 0.22449
 C2380 C 0.73579 0.55801 0.23522
 N2381 N 0.72536 0.56482 0.24211
 N2382 N 0.72163 0.57775 0.23836
 C2383 C 0.54195 0.11356 0.70777
 N2384 N 0.53609 0.10746 0.69632
 N2385 N 0.54147 0.09573 0.69098
 C2386 C 0.55294 0.08963 0.69686
 N2387 N 0.55872 0.09573 0.70839
 N2388 N 0.55334 0.10746 0.71373
 C2389 C 0.53638 0.12680 0.71332
 N2390 N 0.54257 0.13316 0.72447
 N2391 N 0.53787 0.14545 0.72915
 C2392 C 0.52681 0.15184 0.72287
 N2393 N 0.52056 0.14545 0.71178
 N2394 N 0.52525 0.13315 0.70709
 C2395 C 0.52209 0.16571 0.72761
 N2396 N 0.51135 0.17235 0.72101
 N2397 N 0.50752 0.18522 0.72488
 C2398 C 0.51426 0.19191 0.73549
 N2399 N 0.52492 0.18523 0.74216
 N2400 N 0.52876 0.17236 0.73829
 C2401 C 1.04098 0.11280 0.20815
 N2402 N 1.03516 0.10675 0.19665
 N2403 N 1.04039 0.09489 0.19145
 C2404 C 1.05165 0.08860 0.19752
 N2405 N 1.05738 0.09465 0.20910
 N2406 N 1.05216 0.10651 0.21431
 C2407 C 1.03559 0.12618 0.21354
 N2408 N 1.04173 0.13249 0.22474
 N2409 N 1.03720 0.14489 0.22928
 C2410 C 1.02635 0.15145 0.22279
 N2411 N 1.02015 0.14511 0.21164
 N2412 N 1.02468 0.13270 0.20710
 C2413 C 1.02178 0.16542 0.22739
 N2414 N 1.01127 0.17219 0.22057
 N2415 N 1.00753 0.18511 0.22434
 C2416 C 1.01416 0.19173 0.23508
 N2417 N 1.02460 0.18492 0.24196
 N2418 N 1.02834 0.17200 0.23818
 C2419 C 0.20820 0.61432 0.54212
 N2420 N 0.21435 0.60797 0.55328
 N2421 N 0.20944 0.59583 0.55815
 C2422 C 0.19817 0.58954 0.55206
 N2423 N 0.19209 0.59589 0.54084
 N2424 N 0.19700 0.60804 0.53597
 C2425 C 0.21332 0.62794 0.53704
 N2426 N 0.20691 0.63444 0.52611
 N2427 N 0.21129 0.64698 0.52174
 C2428 C 0.22225 0.65347 0.52814
 N2429 N 0.22869 0.64693 0.53903
 N2430 N 0.22431 0.63440 0.54340
 C2431 C 0.22682 0.66745 0.52356
 N2432 N 0.23760 0.67407 0.53010
 N2433 N 0.24153 0.68689 0.52615
 C2434 C 0.23481 0.69356 0.51550
 N2435 N 0.22405 0.68692 0.50893
 N2436 N 0.22013 0.67410 0.51289
 C2437 C 0.20726 0.11467 1.04260
 N2438 N 0.19592 0.10856 1.03652
 N2439 N 0.19077 0.09657 1.04152
 C2440 C 0.19674 0.09020 1.05280
 N2441 N 0.20814 0.09632 1.05881
 N2442 N 0.21330 0.10832 1.05381
 C2443 C 0.21265 0.12813 1.03737
 N2444 N 0.22373 0.13447 1.04371
 N2445 N 0.22835 0.14688 1.03923
 C2446 C 0.22207 0.15341 1.02824
 N2447 N 0.21103 0.14704 1.02186
 N2448 N 0.20641 0.13463 1.02634
 C2449 C 0.22686 0.16729 1.02357
 N2450 N 0.22034 0.17394 1.01280
 N2451 N 0.22440 0.18671 1.00882
 C2452 C 0.23514 0.19330 1.01547
 N2453 N 0.24170 0.18663 1.02621
 N2454 N 0.23764 0.17386 1.03018
 C2455 C 0.20814 0.70863 0.63600
 N2456 N 0.19687 0.71465 0.64226
 N2457 N 0.19193 0.70965 0.65433
 C2458 C 0.19804 0.69842 0.66064
 N2459 N 0.20937 0.69247 0.65438
 N2460 N 0.21432 0.69747 0.64230
 C2461 C 0.21330 0.71383 0.62244
 N2462 N 0.22435 0.70756 0.61602
 N2463 N 0.22877 0.71201 0.60353
 C2464 C 0.22231 0.72288 0.59699
 N2465 N 0.21130 0.72919 0.60344
 N2466 N 0.20687 0.72475 0.61593
 C2467 C 0.22691 0.72748 0.58302
 N2468 N 0.22023 0.73812 0.57632
 N2469 N 0.22416 0.74203 0.56348
 C2470 C 0.23491 0.73543 0.55688
 N2471 N 0.24162 0.72483 0.56361
 N2472 N 0.23770 0.72093 0.57644
 C2473 C 0.20813 0.20800 1.13586
 N2474 N 0.19698 0.21414 1.14223
 N2475 N 0.19213 0.20921 1.15437
 C2476 C 0.19821 0.19794 1.16063
 N2477 N 0.20942 0.19187 1.15426
 N2478 N 0.21428 0.19680 1.14212
 C2479 C 0.21319 0.21314 1.12225
 N2480 N 0.22410 0.20675 1.11571
 N2481 N 0.22845 0.21116 1.10317
 C2482 C 0.22204 0.22211 1.09672
 N2483 N 0.21118 0.22855 1.10328
 N2484 N 0.20683 0.22414 1.11582
 C2485 C 0.22660 0.22671 1.08273
 N2486 N 0.22004 0.23751 1.07615
 N2487 N 0.22396 0.24145 1.06333
 C2488 C 0.23458 0.23475 1.05662
 N2489 N 0.24116 0.22399 1.06322
 N2490 N 0.23724 0.22004 1.07605
 C2491 C 0.70820 0.54150 0.11311
 N2492 N 0.71418 0.55290 0.10702
 N2493 N 0.70892 0.55823 0.09522
 C2494 C 0.69747 0.55239 0.08903
 N2495 N 0.69157 0.54092 0.09512
 N2496 N 0.69682 0.53558 0.10692
 C2497 C 0.71362 0.53599 0.12644
 N2498 N 0.70735 0.52489 0.13279
 N2499 N 0.71193 0.52025 0.14516
 C2500 C 0.72295 0.52655 0.15163
 N2501 N 0.72928 0.53759 0.14523
 N2502 N 0.72470 0.54223 0.13286
 C2503 C 0.72758 0.52188 0.16557
 N2504 N 0.73821 0.52859 0.17226
 N2505 N 0.74200 0.52480 0.18517
 C2506 C 0.73530 0.51415 0.19186
 N2507 N 0.72473 0.50737 0.18512
 N2508 N 0.72094 0.51117 0.17221
 C2509 C 0.70661 1.04324 0.61517
 N2510 N 0.71261 1.05460 0.60902
 N2511 N 0.70735 1.05987 0.59719
 C2512 C 0.69590 1.05402 0.59103
 N2513 N 0.68998 1.04259 0.59719
 N2514 N 0.69522 1.03731 0.60902
 C2515 C 0.71211 1.03772 0.62847
 N2516 N 0.70585 1.02662 0.63484
 N2517 N 0.71056 1.02190 0.64713
 C2518 C 0.72170 1.02810 0.65349
 N2519 N 0.72800 1.03916 0.64708
 N2520 N 0.72329 1.04388 0.63479
 C2521 C 0.72658 1.02324 0.66727
 N2522 N 0.73746 1.02972 0.67379
 N2523 N 0.74158 1.02563 0.68651
 C2524 C 0.73498 1.01491 0.69317
 N2525 N 0.72414 1.00837 0.68661
 N2526 N 0.72002 1.01246 0.67389
 C2527 C 0.54179 0.20868 0.61317
 N2528 N 0.55323 0.21454 0.60703
 N2529 N 0.55845 0.20922 0.59522
 C2530 C 0.55246 0.19783 0.58906
 N2531 N 0.54095 0.19206 0.59520
 N2532 N 0.53573 0.19737 0.60701
 C2533 C 0.53640 0.21415 0.62651
 N2534 N 0.52524 0.20798 0.63287
 N2535 N 0.52069 0.21258 0.64526
 C2536 C 0.52712 0.22351 0.65174
 N2537 N 0.53822 0.22975 0.64534
 N2538 N 0.54277 0.22515 0.63295
 C2539 C 0.52251 0.22813 0.66569
 N2540 N 0.52927 0.23872 0.67242
 N2541 N 0.52549 0.24249 0.68534
 C2542 C 0.51481 0.23580 0.69200
 N2543 N 0.50799 0.22528 0.68522
 N2544 N 0.51178 0.22152 0.67231
 C2545 C 1.04191 0.20826 0.11309
 N2546 N 1.05329 0.21419 0.10693
 N2547 N 1.05858 0.20884 0.09516
 C2548 C 1.05273 0.19733 0.08905
 N2549 N 1.04125 0.19152 0.09523
 N2550 N 1.03596 0.19686 0.10700
 C2551 C 1.03644 0.21377 0.12640
 N2552 N 1.02536 0.20752 0.13280
 N2553 N 1.02074 0.21215 0.14515
 C2554 C 1.02704 0.22321 0.15155
 N2555 N 1.03807 0.22953 0.14510
 N2556 N 1.04268 0.22489 0.13275
 C2557 C 1.02238 0.22787 0.16547
 N2558 N 1.02900 0.23860 0.17212
 N2559 N 1.02519 0.24239 0.18502
 C2560 C 1.01463 0.23560 0.19175
 N2561 N 1.00795 0.22494 0.18506
 N2562 N 1.01175 0.22115 0.17216
 C2563 C 0.63652 0.20752 0.70829
 N2564 N 0.64271 0.21356 0.69698
 N2565 N 0.65446 0.20824 0.69162
 C2566 C 0.66050 0.19668 0.69735
 N2567 N 0.65432 0.19071 0.70874
 N2568 N 0.64257 0.19602 0.71410
 C2569 C 0.62325 0.21302 0.71383
 N2570 N 0.61681 0.20668 0.72484
 N2571 N 0.60450 0.21133 0.72952
 C2572 C 0.59818 0.22251 0.72336
 N2573 N 0.60466 0.22891 0.71241
 N2574 N 0.61698 0.22425 0.70774
 C2575 C 0.58430 0.22722 0.72808
 N2576 N 0.57775 0.23805 0.72157
 N2577 N 0.56489 0.24192 0.72541
 C2578 C 0.55810 0.23509 0.73592
 N2579 N 0.56470 0.22432 0.74250
 N2580 N 0.57756 0.22046 0.73866
 C2581 C 1.13743 0.20886 0.20917
 N2582 N 1.14369 0.19758 0.21518
 N2583 N 1.15561 0.19247 0.20998
 C2584 C 1.16173 0.19842 0.19855
 N2585 N 1.15547 0.20976 0.19262
 N2586 N 1.14356 0.21488 0.19782
 C2587 C 1.12399 0.21412 0.21452
 N2588 N 1.11753 0.22514 0.20823
 N2589 N 1.10507 0.22957 0.21272
 C2590 C 1.09861 0.22315 0.22367
 N2591 N 1.10510 0.21219 0.23002
 N2592 N 1.11757 0.20776 0.22553
 C2593 C 1.08459 0.22763 0.22819
 N2594 N 1.07787 0.22087 0.23878
 N2595 N 1.06491 0.22457 0.24247
 C2596 C 1.05821 0.23516 0.23572
 N2597 N 1.06497 0.24198 0.22520
 N2598 N 1.07792 0.23829 0.22150
 C2599 C 0.11412 0.70807 0.54162
 N2600 N 0.10779 0.69684 0.53557
 N2601 N 0.09569 0.69195 0.54056
 C2602 C 0.08943 0.69807 0.55181
 N2603 N 0.09577 0.70936 0.55779
 N2604 N 0.10787 0.71426 0.55280
 C2605 C 0.12770 0.71318 0.53642
 N2606 N 0.13419 0.72419 0.54270
 N2607 N 0.14669 0.72858 0.53825
 C2608 C 0.15316 0.72211 0.52734
 N2609 N 0.14665 0.71113 0.52101
 N2610 N 0.13414 0.70675 0.52547
 C2611 C 0.16713 0.72669 0.52271
 N2612 N 0.17376 0.72002 0.51202
 N2613 N 0.18659 0.72394 0.50807
 C2614 C 0.19325 0.73467 0.51467
 N2615 N 0.18659 0.74137 0.52533
 N2616 N 0.17377 0.73745 0.52927
 C2617 C 0.11449 0.20739 1.04235
 N2618 N 0.10831 0.19601 1.03643
 N2619 N 0.09634 0.19094 1.04156
 C2620 C 0.09005 0.19704 1.05281
 N2621 N 0.09624 0.20849 1.05865
 N2622 N 0.10821 0.21356 1.05353
 C2623 C 0.12794 0.21269 1.03701
 N2624 N 0.13431 0.22383 1.04320
 N2625 N 0.14671 0.22837 1.03863
 C2626 C 0.15321 0.22194 1.02772
 N2627 N 0.14681 0.21084 1.02149
 N2628 N 0.13440 0.20630 1.02605
 C2629 C 0.16710 0.22666 1.02300
 N2630 N 0.17376 0.22002 1.01231
 N2631 N 0.18654 0.22402 1.00832
 C2632 C 0.19314 0.23482 1.01488
 N2633 N 0.18645 0.24150 1.02553
 N2634 N 0.17367 0.23749 1.02951
 C2635 C 0.61274 0.54115 0.20893
 N2636 N 0.60663 0.53514 0.19756
 N2637 N 0.59475 0.54030 0.19231
 C2638 C 0.58850 0.55167 0.19820
 N2639 N 0.59461 0.55759 0.20965
 N2640 N 0.60649 0.55245 0.21491
 C2641 C 0.62614 0.53584 0.21434
 N2642 N 0.63255 0.54219 0.22537
 N2643 N 0.64498 0.53771 0.22992
 C2644 C 0.65145 0.52672 0.22361
 N2645 N 0.64501 0.52031 0.21264
 N2646 N 0.63258 0.52479 0.20809
 C2647 C 0.66544 0.52218 0.22820
 N2648 N 0.67210 0.51151 0.22154
 N2649 N 0.68503 0.50778 0.22529
 C2650 C 0.69179 0.51458 0.23582
 N2651 N 0.68509 0.52520 0.24254
 N2652 N 0.67216 0.52893 0.23880
 C2653 C 0.61517 1.04282 0.70706
 N2654 N 0.60908 1.03680 0.69569
 N2655 N 0.59713 1.04185 0.69051
 C2656 C 0.59079 1.05313 0.69647
 N2657 N 0.59689 1.05908 0.70791
 N2658 N 0.60884 1.05404 0.71310
 C2659 C 0.62859 1.03754 0.71250
 N2660 N 0.63490 1.04383 0.72361
 N2661 N 0.64727 1.03930 0.72827
 C2662 C 0.65378 1.02831 0.72199
 N2663 N 0.64743 1.02197 0.71092
 N2664 N 0.63506 1.02651 0.70626
 C2665 C 0.66763 1.02359 0.72682
 N2666 N 0.67425 1.01281 0.72030
 N2667 N 0.68700 1.00881 0.72439
 C2668 C 0.69359 1.01543 0.73515
 N2669 N 0.68694 1.02618 0.74170
 N2670 N 0.67419 1.03018 0.73761
 C2671 C 0.88460 0.45646 0.29333
 N2672 N 0.89074 0.44513 0.28730
 N2673 N 0.90265 0.43994 0.29244
 C2674 C 0.90889 0.44586 0.30382
 N2675 N 0.90274 0.45725 0.30978
 N2676 N 0.89083 0.46244 0.30464
 C2677 C 0.87123 0.46189 0.28795
 N2678 N 0.86491 0.47301 0.29419
 N2679 N 0.85257 0.47768 0.28957
 C2680 C 0.84611 0.47139 0.27854
 N2681 N 0.85246 0.46031 0.27226
 N2682 N 0.86480 0.45564 0.27688
 C2683 C 0.83230 0.47623 0.27373
 N2684 N 0.82568 0.46966 0.26297
 N2685 N 0.81297 0.47377 0.25887
 C2686 C 0.80643 0.48461 0.26538
 N2687 N 0.81308 0.49122 0.27610
 N2688 N 0.82579 0.48710 0.28021
 C2689 C 0.88738 0.95916 0.79129
 N2690 N 0.89354 0.94786 0.78523
 N2691 N 0.90543 0.94264 0.79039
 C2692 C 0.91164 0.94850 0.80181
 N2693 N 0.90549 0.95988 0.80779
 N2694 N 0.89360 0.96510 0.80264
 C2695 C 0.87397 0.96455 0.78597
 N2696 N 0.86753 0.97551 0.79238
 N2697 N 0.85510 0.98005 0.78790
 C2698 C 0.84865 0.97379 0.77684
 N2699 N 0.85513 0.96288 0.77038
 N2700 N 0.86756 0.95835 0.77487
 C2701 C 0.83466 0.97837 0.77230
 N2702 N 0.82803 0.97179 0.76154
 N2703 N 0.81510 0.97553 0.75779
 C2704 C 0.80832 0.98600 0.76467
 N2705 N 0.81499 0.99264 0.77537
 N2706 N 0.82792 0.98889 0.77911
 C2707 C 0.36483 0.29252 0.79249
 N2708 N 0.35846 0.28647 0.80369
 N2709 N 0.34647 0.29161 0.80867
 C2710 C 0.34037 0.30302 0.80267
 N2711 N 0.34675 0.30900 0.79140
 N2712 N 0.35874 0.30386 0.78641
 C2713 C 0.37829 0.28714 0.78728
 N2714 N 0.38481 0.29339 0.77627
 N2715 N 0.39722 0.28878 0.77180
 C2716 C 0.40356 0.27774 0.77819
 N2717 N 0.39701 0.27145 0.78916
 N2718 N 0.38460 0.27606 0.79362
 C2719 C 0.41744 0.27296 0.77355
 N2720 N 0.42398 0.26218 0.78017
 N2721 N 0.43675 0.25812 0.77622
 C2722 C 0.44345 0.26469 0.76549
 N2723 N 0.43687 0.27542 0.75882
 N2724 N 0.42410 0.27948 0.76278
 C2725 C 0.86501 0.29279 0.29258
 N2726 N 0.85864 0.28666 0.30373
 N2727 N 0.84662 0.29173 0.30872
 C2728 C 0.84049 0.30314 0.30277
 N2729 N 0.84688 0.30921 0.29155
 N2730 N 0.85889 0.30414 0.28655
 C2731 C 0.87849 0.28748 0.28735
 N2732 N 0.88501 0.29384 0.27640
 N2733 N 0.89743 0.28927 0.27190
 C2734 C 0.90377 0.27819 0.27819
 N2735 N 0.89722 0.27180 0.28911
 N2736 N 0.88481 0.27636 0.29361
 C2737 C 0.91764 0.27343 0.27349
 N2738 N 0.92416 0.26256 0.27998
 N2739 N 0.93690 0.25849 0.27595
 C2740 C 0.94359 0.26515 0.26527
 N2741 N 0.93705 0.27598 0.25875
 N2742 N 0.92431 0.28005 0.26279
 C2743 C 0.38699 0.79131 0.45840
 N2744 N 0.39309 0.78546 0.44695
 N2745 N 0.40499 0.79068 0.44179
 C2746 C 0.41126 0.80197 0.44786
 N2747 N 0.40516 0.80773 0.45938
 N2748 N 0.39326 0.80252 0.46455
 C2749 C 0.37357 0.78593 0.46374
 N2750 N 0.36725 0.79208 0.47491
 N2751 N 0.35482 0.78754 0.47943
 C2752 C 0.34827 0.77668 0.47294
 N2753 N 0.35464 0.77047 0.46183
 N2754 N 0.36706 0.77501 0.45731
 C2755 C 0.33429 0.77209 0.47753
 N2756 N 0.32752 0.76156 0.47073
 N2757 N 0.31460 0.75779 0.47450
 C2758 C 0.30798 0.76441 0.48523
 N2759 N 0.31478 0.77488 0.49209
 N2760 N 0.32770 0.77865 0.48831
 C2761 C 0.38699 0.29098 0.95865
 N2762 N 0.39319 0.30227 0.96473
 N2763 N 0.40505 0.30753 0.95953
 C2764 C 0.41119 0.30173 0.94805
 N2765 N 0.40499 0.29037 0.94205
 N2766 N 0.39313 0.28510 0.94724
 C2767 C 0.37361 0.28556 0.96402
 N2768 N 0.36717 0.27454 0.95768
 N2769 N 0.35476 0.26998 0.96221
 C2770 C 0.34832 0.27628 0.97324
 N2771 N 0.35480 0.28724 0.97963
 N2772 N 0.36721 0.29179 0.97511
 C2773 C 0.33434 0.27169 0.97782
 N2774 N 0.32767 0.27841 0.98845
 N2775 N 0.31473 0.27468 0.99220
 C2776 C 0.30799 0.26408 0.98547
 N2777 N 0.31471 0.25729 0.97490
 N2778 N 0.32765 0.26103 0.97115
 C2779 C 0.79293 0.45734 0.38512
 N2780 N 0.80426 0.46342 0.39124
 N2781 N 0.80945 0.45837 0.40320
 C2782 C 0.80354 0.44703 0.40951
 N2783 N 0.79214 0.44102 0.40338
 N2784 N 0.78695 0.44607 0.39143
 C2785 C 0.78750 0.46263 0.37170
 N2786 N 0.77644 0.45628 0.36535
 N2787 N 0.77179 0.46082 0.35297
 C2788 C 0.77803 0.47187 0.34649
 N2789 N 0.78904 0.47826 0.35288
 N2790 N 0.79370 0.47372 0.36526
 C2791 C 0.77321 0.47659 0.33264
 N2792 N 0.77969 0.48743 0.32604
 N2793 N 0.77562 0.49144 0.31329
 C2794 C 0.76492 0.48477 0.30665
 N2795 N 0.75840 0.47397 0.31327
 N2796 N 0.76247 0.46995 0.32603
 C2797 C 0.79015 0.96003 0.88780
 N2798 N 0.80144 0.96611 0.89401
 N2799 N 0.80652 0.96107 0.90602
 C2800 C 0.80052 0.94976 0.91231
 N2801 N 0.78916 0.94377 0.90611
 N2802 N 0.78408 0.94880 0.89410
 C2803 C 0.78494 0.96520 0.87426
 N2804 N 0.77394 0.95883 0.86782
 N2805 N 0.76956 0.96317 0.85527
 C2806 C 0.77602 0.97404 0.84870
 N2807 N 0.78696 0.98046 0.85518
 N2808 N 0.79134 0.97612 0.86773
 C2809 C 0.77161 0.97842 0.83460
 N2810 N 0.77844 0.98893 0.82784
 N2811 N 0.77483 0.99254 0.81482
 C2812 C 0.76425 0.98577 0.80810
 N2813 N 0.75735 0.97532 0.81490
 N2814 N 0.76097 0.97171 0.82791
 C2815 C 0.29135 0.79200 0.36325
 N2816 N 0.30277 0.78609 0.35717
 N2817 N 0.30810 0.79141 0.34540
 C2818 C 0.30226 0.80286 0.33924
 N2819 N 0.29076 0.80869 0.34532
 N2820 N 0.28542 0.80338 0.35709
 C2821 C 0.28584 0.78651 0.37655
 N2822 N 0.27471 0.79272 0.38290
 N2823 N 0.27008 0.78809 0.39525
 C2824 C 0.27640 0.77709 0.40171
 N2825 N 0.28747 0.77082 0.39531
 N2826 N 0.29210 0.77545 0.38296
 C2827 C 0.27175 0.77243 0.41564
 N2828 N 0.27848 0.76182 0.42233
 N2829 N 0.27471 0.75802 0.43524
 C2830 C 0.26405 0.76468 0.44193
 N2831 N 0.25724 0.77521 0.43519
 N2832 N 0.26102 0.77902 0.42228
 C2833 C 0.29152 0.29194 0.86322
 N2834 N 0.28570 0.30338 0.85708
 N2835 N 0.29106 0.30863 0.84529
 C2836 C 0.30246 0.30267 0.83916
 N2837 N 0.30820 0.29116 0.84530
 N2838 N 0.30285 0.28590 0.85709
 C2839 C 0.28599 0.28650 0.87653
 N2840 N 0.29213 0.27534 0.88289
 N2841 N 0.28748 0.27075 0.89525
 C2842 C 0.27652 0.27715 0.90170
 N2843 N 0.27033 0.28826 0.89530
 N2844 N 0.27498 0.29285 0.88294
 C2845 C 0.27185 0.27251 0.91563
 N2846 N 0.26125 0.27924 0.92233
 N2847 N 0.25744 0.27543 0.93523
 C2848 C 0.26409 0.26474 0.94190
 N2849 N 0.27461 0.25794 0.93514
 N2850 N 0.27842 0.26176 0.92225
 C2851 C 0.45793 0.29242 0.88563
 N2852 N 0.44672 0.28629 0.89190
 N2853 N 0.44177 0.29123 0.90399
 C2854 C 0.44782 0.30251 0.91030
 N2855 N 0.45910 0.30857 0.90402
 N2856 N 0.46406 0.30363 0.89193
 C2857 C 0.46311 0.28725 0.87207
 N2858 N 0.47413 0.29358 0.86563
 N2859 N 0.47857 0.28913 0.85315
 C2860 C 0.47214 0.27821 0.84664
 N2861 N 0.46115 0.27185 0.85311
 N2862 N 0.45672 0.27629 0.86559
 C2863 C 0.47677 0.27355 0.83271
 N2864 N 0.47010 0.26287 0.82606
 N2865 N 0.47407 0.25887 0.81327
 C2866 C 0.48486 0.26541 0.80666
 N2867 N 0.49157 0.27607 0.81333
 N2868 N 0.48759 0.28007 0.82612
 C2869 C 0.95815 0.29250 0.38528
 N2870 N 0.96407 0.30391 0.39142
 N2871 N 0.95899 0.30896 0.40341
 C2872 C 0.94779 0.30282 0.40976
 N2873 N 0.94194 0.29135 0.40362
 N2874 N 0.94702 0.28629 0.39162
 C2875 C 0.96344 0.28720 0.37182
 N2876 N 0.95724 0.27604 0.36550
 N2877 N 0.96175 0.27149 0.35309
 C2878 C 0.97263 0.27794 0.34653
 N2879 N 0.97887 0.28906 0.35287
 N2880 N 0.97436 0.29361 0.36529
 C2881 C 0.97729 0.27320 0.33263
 N2882 N 0.98796 0.27984 0.32592
 N2883 N 0.99191 0.27581 0.31313
 C2884 C 0.98533 0.26500 0.30659
 N2885 N 0.97470 0.25832 0.31332
 N2886 N 0.97076 0.26235 0.32611
 C2887 C 0.45738 0.38526 0.79232
 N2888 N 0.44597 0.39138 0.78642
 N2889 N 0.44088 0.40333 0.79155
 C2890 C 0.44699 0.40965 0.80278
 N2891 N 0.45847 0.40353 0.80861
 N2892 N 0.46356 0.39158 0.80349
 C2893 C 0.46272 0.37184 0.78698
 N2894 N 0.47388 0.36553 0.79317
 N2895 N 0.47846 0.35314 0.78861
 C2896 C 0.47203 0.34661 0.77770
 N2897 N 0.46091 0.35294 0.77147
 N2898 N 0.45633 0.36533 0.77603
 C2899 C 0.47678 0.33273 0.77300
 N2900 N 0.47015 0.32604 0.76231
 N2901 N 0.47418 0.31327 0.75833
 C2902 C 0.48499 0.30672 0.76490
 N2903 N 0.49166 0.31344 0.77555
 N2904 N 0.48763 0.32621 0.77952
 C2905 C 0.95670 0.38453 0.29283
 N2906 N 0.96273 0.39066 0.30418
 N2907 N 0.95755 0.40252 0.30944
 C2908 C 0.94613 0.40871 0.30357
 N2909 N 0.94017 0.40257 0.29216
 N2910 N 0.94535 0.39072 0.28690
 C2911 C 0.96211 0.37120 0.28733
 N2912 N 0.95584 0.36486 0.27623
 N2913 N 0.96047 0.35255 0.27152
 C2914 C 0.97156 0.34614 0.27774
 N2915 N 0.97788 0.35252 0.28880
 N2916 N 0.97324 0.36482 0.29351
 C2917 C 0.97635 0.33234 0.27287
 N2918 N 0.98718 0.32576 0.27937
 N2919 N 0.99124 0.31304 0.27527
 C2920 C 0.98463 0.30643 0.26452
 N2921 N 0.97384 0.31304 0.25797
 N2922 N 0.96978 0.32577 0.26208
 C2923 C 0.29117 0.88730 0.45865
 N2924 N 0.30245 0.89358 0.46465
 N2925 N 0.30763 0.90544 0.45936
 C2926 C 0.30174 0.91150 0.44787
 N2927 N 0.29038 0.90522 0.44196
 N2928 N 0.28520 0.89336 0.44724
 C2929 C 0.28583 0.87391 0.46410
 N2930 N 0.27479 0.86742 0.45784
 N2931 N 0.27030 0.85501 0.46243
 C2932 C 0.27668 0.84861 0.47344
 N2933 N 0.28766 0.85513 0.47976
 N2934 N 0.29215 0.86756 0.47518
 C2935 C 0.27214 0.83463 0.47807
 N2936 N 0.27888 0.82797 0.48870
 N2937 N 0.27515 0.81503 0.49248
 C2938 C 0.26454 0.80829 0.48577
 N2939 N 0.25774 0.81500 0.47520
 N2940 N 0.26147 0.82793 0.47142
 C2941 C 0.29128 0.38716 0.95900
 N2942 N 0.30262 0.39338 0.96496
 N2943 N 0.30776 0.40529 0.95975
 C2944 C 0.30179 0.41145 0.94836
 N2945 N 0.29038 0.40523 0.94248
 N2946 N 0.28523 0.39333 0.94769
 C2947 C 0.28597 0.37373 0.96438
 N2948 N 0.27487 0.36731 0.95816
 N2949 N 0.27039 0.35487 0.96270
 C2950 C 0.27684 0.34839 0.97362
 N2951 N 0.28788 0.35484 0.97989
 N2952 N 0.29236 0.36729 0.97536
 C2953 C 0.27230 0.33439 0.97820
 N2954 N 0.27911 0.32765 0.98873
 N2955 N 0.27537 0.31472 0.99249
 C2956 C 0.26467 0.30805 0.98585
 N2957 N 0.25780 0.31483 0.97538
 N2958 N 0.26154 0.32776 0.97162
 C2959 C 0.79290 0.36471 0.29207
 N2960 N 0.80428 0.35856 0.28615
 N2961 N 0.80934 0.34659 0.29126
 C2962 C 0.80324 0.34028 0.30251
 N2963 N 0.79180 0.34644 0.30836
 N2964 N 0.78673 0.35841 0.30325
 C2965 C 0.78760 0.37815 0.28674
 N2966 N 0.77647 0.38451 0.29294
 N2967 N 0.77193 0.39691 0.28837
 C2968 C 0.77834 0.40340 0.27743
 N2969 N 0.78942 0.39702 0.27119
 N2970 N 0.79397 0.38462 0.27576
 C2971 C 0.77361 0.41728 0.27270
 N2972 N 0.78021 0.42392 0.26196
 N2973 N 0.77619 0.43669 0.25795
 C2974 C 0.76542 0.44328 0.26452
 N2975 N 0.75878 0.43661 0.27522
 N2976 N 0.76280 0.42384 0.27923
   
