data_POSCAR
  _audit_creation_date              2014-09-24
  _audit_creation_method            'ToBaCCo'
  _symmetry_space_group_name_H-M    'P1'
  _symmetry_Int_Tables_number       1
  _symmetry_cell_setting            triclinic
  loop_
  _symmetry_equiv_pos_as_xyz
 x,y,z
_cell_length_a 61.6199
_cell_length_b 62.2348
_cell_length_c 65.2743
_cell_angle_alpha 90.093300
_cell_angle_beta 90.174400
_cell_angle_gamma 91.669300
loop_
  _atom_site_label
  _atom_site_type_symbol
  _atom_site_fract_x
  _atom_site_fract_y
  _atom_site_fract_z
C1 C 0.41301 0.01275 0.26883
 C2 C 0.39605 0.03044 0.26826
 C3 C 0.38214 0.02908 0.25202
 C4 C 0.38616 0.00989 0.23777
 C5 C 0.39915 -0.00803 0.26819
 C6 C 0.38531 -0.00992 0.25201
 C7 C 0.42413 0.01396 0.24790
 C8 C 0.41028 0.01269 0.23153
 H9 H 0.39469 0.04289 0.27968
 H10 H 0.37455 0.00882 0.22478
 H11 H 0.39930 -0.01970 0.28048
 H12 H 0.44158 0.01563 0.24638
 C13 C 0.08703 -0.00418 0.77239
 C14 C 0.10374 -0.02206 0.77162
 C15 C 0.11734 -0.02088 0.75521
 C16 C 0.11308 -0.00164 0.74109
 C17 C 0.10060 0.01678 0.77132
 C18 C 0.11449 0.01822 0.75526
 C19 C 0.07594 -0.00557 0.75261
 C20 C 0.09013 -0.00428 0.73508
 H21 H 0.10376 -0.03526 0.78242
 H22 H 0.12513 -0.00073 0.72863
 H23 H 0.09886 0.02966 0.78233
 H24 H 0.05857 -0.00663 0.75110
 C25 C 0.58520 0.48956 0.27625
 C26 C 0.60279 0.47288 0.27285
 C27 C 0.61598 0.47699 0.25656
 C28 C 0.61080 0.49787 0.24518
 C29 C 0.59821 0.51083 0.27801
 C30 C 0.61133 0.51558 0.26181
 C31 C 0.57337 0.49083 0.25558
 C32 C 0.58662 0.49509 0.23926
 H33 H 0.60463 0.45862 0.28199
 H34 H 0.62184 0.50118 0.23211
 H35 H 0.59744 0.52104 0.29143
 H36 H 0.55594 0.48863 0.25417
 C37 C 0.91095 0.52058 0.77981
 C38 C 0.89251 0.53658 0.77770
 C39 C 0.88002 0.53366 0.76060
 C40 C 0.88682 0.51463 0.74716
 C41 C 0.89915 0.49861 0.77887
 C42 C 0.88665 0.49515 0.76187
 C43 C 0.92339 0.52245 0.75966
 C44 C 0.91099 0.51946 0.74259
 H45 H 0.88941 0.54929 0.78848
 H46 H 0.87669 0.51228 0.73320
 H47 H 0.89966 0.48732 0.79146
 H48 H 0.94073 0.52583 0.75906
 C49 C 0.27309 0.37660 0.99578
 C50 C 0.26909 0.36110 1.01363
 C51 C 0.25158 0.34755 1.01136
 C52 C 0.23873 0.35125 0.99148
 C53 C 0.27345 0.36221 0.97675
 C54 C 0.25569 0.34885 0.97440
 C55 C 0.25167 0.38859 0.99386
 C56 C 0.23365 0.37543 0.99155
 H57 H 0.27953 0.36079 1.02701
 H58 H 0.22430 0.34031 0.98970
 H59 H 0.28662 0.36301 0.96581
 H60 H 0.25048 0.40582 0.99505
 C61 C 0.77249 0.12778 1.00130
 C62 C 0.77200 0.14067 0.98133
 C63 C 0.75519 0.15420 0.97969
 C64 C 0.73976 0.15330 0.99829
 C65 C 0.77165 0.14469 1.01834
 C66 C 0.75454 0.15804 1.01700
 C67 C 0.75132 0.11672 1.00169
 C68 C 0.73295 0.13051 1.00018
 H69 H 0.78365 0.13889 0.96913
 H70 H 0.72663 0.16489 0.99657
 H71 H 0.78300 0.14514 1.03105
 H72 H 0.74984 0.09950 1.00315
 C73 C 0.27669 0.63057 0.50846
 C74 C 0.27779 0.64262 0.48803
 C75 C 0.26084 0.65556 0.48422
 C76 C 0.24408 0.65562 0.50171
 C77 C 0.27448 0.64873 0.52438
 C78 C 0.25728 0.66159 0.52103
 C79 C 0.25437 0.61888 0.50840
 C80 C 0.23727 0.63187 0.50501
 H81 H 0.29169 0.64193 0.47796
 H82 H 0.23028 0.66632 0.49894
 H83 H 0.28462 0.65073 0.53780
 H84 H 0.25237 0.60183 0.51140
 C85 C 0.76804 0.87101 0.49292
 C86 C 0.76550 0.85476 0.51030
 C87 C 0.74658 0.84288 0.51021
 C88 C 0.73178 0.84812 0.49187
 C89 C 0.76487 0.85763 0.47344
 C90 C 0.74599 0.84566 0.47264
 C91 C 0.74741 0.88441 0.49423
 C92 C 0.72848 0.87246 0.49365
 H93 H 0.77811 0.85297 0.52167
 H94 H 0.71628 0.83865 0.49137
 H95 H 0.77689 0.85760 0.46137
 H96 H 0.74737 0.90172 0.49508
 C97 C 0.00434 0.27217 0.39606
 C98 C 0.01955 0.27161 0.37762
 C99 C 0.01649 0.25420 0.36518
 C100 C -0.00132 0.23835 0.37294
 C101 C -0.01737 0.26954 0.38767
 C102 C -0.02065 0.25124 0.37466
 C103 C 0.00840 0.25097 0.40722
 C104 C 0.00534 0.23318 0.39519
 H105 H 0.03220 0.28378 0.37519
 H106 H -0.00337 0.22405 0.36302
 H107 H -0.03032 0.28000 0.39204
 H108 H 0.01404 0.24985 0.42282
 C109 C 0.01810 0.76313 0.10755
 C110 C -0.00516 0.76528 0.11561
 C111 C -0.01031 0.75176 0.13131
 C112 C 0.00810 0.73717 0.13752
 C113 C 0.03227 0.76646 0.12688
 C114 C 0.02696 0.75275 0.14240
 C115 C 0.02001 0.73934 0.10220
 C116 C 0.01471 0.72585 0.11785
 H117 H -0.01587 0.77770 0.11049
 H118 H 0.00400 0.72591 0.15019
 H119 H 0.04521 0.77839 0.12861
 H120 H 0.02480 0.73372 0.08721
 C121 C 0.51995 0.25561 0.61537
 C122 C 0.49770 0.25903 0.62498
 C123 C 0.49085 0.24300 0.63773
 C124 C 0.50686 0.22478 0.63975
 C125 C 0.53515 0.25190 0.63359
 C126 C 0.52810 0.23595 0.64630
 C127 C 0.51794 0.23351 0.60497
 C128 C 0.51087 0.21746 0.61770
 H129 H 0.48859 0.27342 0.62243
 H130 H 0.50165 0.21161 0.65023
 H131 H 0.55068 0.26020 0.63577
 H132 H 0.52165 0.23081 0.58900
 C133 C 0.48967 0.76359 0.90099
 C134 C 0.50504 0.77104 0.88381
 C135 C 0.50843 0.75591 0.86919
 C136 C 0.49543 0.73482 0.87284
 C137 C 0.46867 0.75608 0.89011
 C138 C 0.47175 0.74125 0.87522
 C139 C 0.49873 0.74385 0.90869
 C140 C 0.50213 0.72782 0.89322
 H141 H 0.51452 0.78594 0.88475
 H142 H 0.49738 0.72324 0.86018
 H143 H 0.45270 0.76161 0.89399
 H144 H 0.49981 0.74046 0.92490
 C145 C -0.23739 0.66450 0.96769
 C146 C -0.21733 0.65049 0.97009
 C147 C -0.21859 0.63622 0.98609
 C148 C -0.24020 0.63730 0.99810
 C149 C -0.25641 0.64834 0.96613
 C150 C -0.25843 0.63443 0.98202
 C151 C -0.23969 0.67508 0.98876
 C152 C -0.24108 0.66105 1.00472
 H153 H -0.20253 0.65326 0.96158
 H154 H -0.24177 0.62570 1.01090
 H155 H -0.26768 0.64828 0.95336
 H156 H -0.23995 0.69235 0.99074
 C157 C -0.25340 0.33679 0.47817
 C158 C -0.27241 0.35195 0.48178
 C159 C -0.26988 0.36484 0.49851
 C160 C -0.24846 0.36164 0.51016
 C161 C -0.23351 0.35213 0.47706
 C162 C -0.23058 0.36509 0.49373
 C163 C -0.25100 0.32526 0.49727
 C164 C -0.24864 0.33860 0.51518
 H165 H -0.28620 0.35345 0.47167
 H166 H -0.24629 0.37280 0.52327
 H167 H -0.22240 0.35227 0.46425
 H168 H -0.25379 0.30803 0.49794
 C169 C 0.24146 -0.16382 -0.01887
 C170 C 0.22262 -0.14847 -0.01585
 C171 C 0.22462 -0.13561 0.00096
 C172 C 0.24516 -0.13970 0.01371
 C173 C 0.26187 -0.14935 -0.01848
 C174 C 0.26392 -0.13640 -0.00178
 C175 C 0.24217 -0.17594 0.00010
 C176 C 0.24407 -0.16290 0.01836
 H177 H 0.20882 -0.14781 -0.02613
 H178 H 0.24699 -0.12869 0.02696
 H179 H 0.27369 -0.14938 -0.03073
 H180 H 0.23774 -0.19285 0.00053
 C181 C 0.26125 1.16169 0.47021
 C182 C 0.27860 1.14476 0.47396
 C183 C 0.27506 1.13240 0.49093
 C184 C 0.25431 1.13793 0.50268
 C185 C 0.23987 1.14858 0.46977
 C186 C 0.23593 1.13632 0.48663
 C187 C 0.26068 1.17444 0.49032
 C188 C 0.25707 1.16219 0.50735
 H189 H 0.29317 1.14322 0.46502
 H190 H 0.25143 1.12772 0.51638
 H191 H 0.22897 1.14866 0.45672
 H192 H 0.26266 1.19177 0.49085
 C193 C 0.12380 0.52182 0.25102
 C194 C 0.10657 0.51892 0.23415
 C195 C 0.09318 0.50134 0.23644
 C196 C 0.09838 0.48775 0.25543
 C197 C 0.11089 0.52129 0.27103
 C198 C 0.09768 0.50353 0.27360
 C199 C 0.13576 0.50042 0.25073
 C200 C 0.12257 0.48259 0.25323
 H201 H 0.10625 0.52843 0.22031
 H202 H 0.08759 0.47328 0.25705
 H203 H 0.11198 0.53433 0.28202
 H204 H 0.15319 0.49957 0.24910
 C205 C -0.12436 1.02147 0.25222
 C206 C -0.11119 1.01923 0.27193
 C207 C -0.10008 1.00074 0.27346
 C208 C -0.10292 0.98591 0.25450
 C209 C -0.10732 1.01896 0.23527
 C210 C -0.09610 1.00042 0.23635
 C211 C -0.13794 1.00210 0.25106
 C212 C -0.12651 0.98229 0.25220
 H213 H -0.10986 1.03191 0.28331
 H214 H -0.09326 0.97124 0.25585
 H215 H -0.10385 1.03074 0.22353
 H216 H -0.15504 1.00287 0.24744
 C217 C 0.37414 0.52609 -0.24525
 C218 C 0.39030 0.52683 -0.22737
 C219 C 0.40421 0.51026 -0.22682
 C220 C 0.40066 0.49397 -0.24447
 C221 C 0.38887 0.52464 -0.26418
 C222 C 0.40287 0.50804 -0.26377
 C223 C 0.36277 0.50402 -0.24376
 C224 C 0.37638 0.48718 -0.24356
 H225 H 0.39134 0.54006 -0.21658
 H226 H 0.41189 0.48034 -0.24400
 H227 H 0.38945 0.53653 -0.27621
 H228 H 0.34526 0.50190 -0.24389
 C229 C 0.62330 0.02455 -0.25146
 C230 C 0.60676 0.02316 -0.26902
 C231 C 0.59339 0.00540 -0.26884
 C232 C 0.59695 -0.00924 -0.25016
 C233 C 0.60905 0.02319 -0.23221
 C234 C 0.59559 0.00545 -0.23125
 C235 C 0.63481 0.00291 -0.25204
 C236 C 0.62113 -0.01476 -0.25113
 H237 H 0.60498 0.03552 -0.28044
 H238 H 0.58577 -0.02355 -0.24966
 H239 H 0.61050 0.03458 -0.21968
 H240 H 0.65232 0.00180 -0.25198
 C241 C 0.02373 0.23645 0.87758
 C242 C 0.02237 0.25956 0.88574
 C243 C 0.00404 0.26328 0.89663
 C244 C -0.01114 0.24346 0.89854
 C245 C 0.02146 0.22251 0.89688
 C246 C 0.00317 0.22622 0.90771
 C247 C 0.00367 0.23246 0.86625
 C248 C -0.01568 0.23690 0.87745
 H249 H 0.03503 0.27173 0.88333
 H250 H -0.02562 0.24579 0.90819
 H251 H 0.03252 0.21034 0.90162
 H252 H 0.00375 0.22934 0.84994
 C253 C 0.51522 0.25507 0.12478
 C254 C 0.51710 0.24317 0.10441
 C255 C 0.49833 0.24138 0.09336
 C256 C 0.47911 0.25189 0.10405
 C257 C 0.50551 0.27672 0.11939
 C258 C 0.48677 0.27503 0.10847
 C259 C 0.49676 0.24307 0.13618
 C260 C 0.47784 0.24150 0.12534
 H261 H 0.53182 0.23518 0.10028
 H262 H 0.46354 0.25125 0.09552
 H263 H 0.51301 0.29206 0.12361
 H264 H 0.49749 0.23864 0.15216
 C265 C 0.01608 0.77466 0.64331
 C266 C 0.01776 0.75032 0.64047
 C267 C 0.00236 0.74122 0.62795
 C268 C -0.01383 0.75743 0.61970
 C269 C 0.01588 0.78373 0.62141
 C270 C 0.00038 0.77456 0.60916
 C271 C -0.00708 0.77785 0.65099
 C272 C -0.02274 0.76876 0.63871
 H273 H 0.03055 0.74132 0.64753
 H274 H -0.02651 0.75068 0.60926
 H275 H 0.02491 0.79794 0.61651
 H276 H -0.01067 0.78643 0.66496
 C277 C 0.52037 0.72469 0.37006
 C278 C 0.52302 0.73937 0.38880
 C279 C 0.50409 0.74422 0.39820
 C280 C 0.48410 0.73296 0.38850
 C281 C 0.50824 0.70464 0.37817
 C282 C 0.48936 0.70908 0.38782
 C283 C 0.50363 0.73558 0.35641
 C284 C 0.48471 0.73997 0.36600
 H285 H 0.53865 0.74612 0.39348
 H286 H 0.46851 0.73600 0.39627
 H287 H 0.51405 0.68846 0.37734
 H288 H 0.50664 0.73934 0.34045
 Zr289 Zr 0.01947 -0.01946 1.03729
 O290 O 0.03835 -0.00808 1.06243
 O291 O 0.01905 -0.05269 1.04190
 O292 O 0.00338 -0.02482 1.06555
 O293 O 0.06212 -0.01925 1.00297
 O294 O -0.02971 -0.01008 1.06049
 O295 O 0.05193 -0.02930 1.03520
 O296 O -0.00207 -0.06599 1.01581
 O297 O -0.01252 -0.02812 1.02908
 O298 O 0.02081 -0.03133 1.00736
 O299 O 0.00205 0.00896 1.03981
 O300 O 0.03446 0.00531 1.01974
 Zr301 Zr -0.01510 0.01320 0.98216
 Zr302 Zr -0.02947 0.00058 1.02999
 Zr303 Zr 0.03402 -0.00655 0.98967
 Zr304 Zr -0.01100 -0.03886 0.99880
 O305 O 0.06047 0.01536 0.98520
 O306 O -0.04031 -0.05433 1.00848
 O307 O 0.00258 -0.01516 0.97941
 O308 O -0.02970 -0.01135 0.99997
 O309 O -0.01650 0.02545 1.01198
 O310 O 0.01678 0.02177 0.99064
 C311 C 0.01015 -0.06825 1.03165
 C312 C 0.06589 -0.02784 1.02053
 C313 C -0.01550 -0.01920 1.07175
 O314 O -0.05702 -0.02018 1.03324
 O315 O -0.05645 0.01633 1.01795
 O316 O -0.04664 0.02532 0.98535
 C317 C -0.06002 0.02525 1.00053
 O318 O 0.03737 0.03719 1.04561
 Zr319 Zr 0.01540 0.03276 1.02069
 O320 O -0.01457 0.04645 0.97732
 O321 O -0.03850 0.02560 1.04997
 O322 O 0.00065 0.05309 1.04238
 O323 O 0.04320 0.05048 1.01043
 O324 O 0.00368 0.05974 1.00523
 C325 C -0.00754 0.06201 0.98875
 O326 O -0.03571 0.00222 0.95808
 O327 O 0.04452 -0.03206 0.97100
 O328 O -0.00000 0.01548 0.95298
 O329 O 0.03363 0.00219 0.95869
 O330 O 0.00394 -0.06074 0.97870
 O331 O -0.02994 -0.04375 0.97184
 C332 C 0.01910 0.01018 0.94701
 H333 H 0.02986 -0.04410 1.00585
 H334 H -0.04467 -0.01482 0.99522
 H335 H 0.02336 0.03287 0.98154
 H336 H 0.00227 0.01440 1.05407
 H337 H -0.03952 -0.06970 1.00466
 H338 H -0.06668 -0.01327 1.04324
 H339 H -0.05297 0.02151 1.05558
 H340 H 0.00783 0.06751 1.04128
 H341 H -0.00400 -0.07477 0.97988
 H342 H 0.05905 -0.02773 0.96570
 H343 H 0.07031 0.00856 0.97529
 H344 H 0.04154 0.06558 1.01485
 H345 H -0.03591 -0.05869 0.97161
 H346 H -0.03961 0.01501 0.94995
 H347 H 0.04255 -0.02082 1.07049
 H348 H 0.04027 0.05275 1.04786
 Zr349 Zr 0.52295 0.47987 0.53888
 O350 O 0.54576 0.49442 0.55930
 O351 O 0.52197 0.44799 0.54891
 O352 O 0.51105 0.47949 0.56926
 O353 O 0.56016 0.47255 0.49995
 O354 O 0.47807 0.49507 0.56633
 O355 O 0.55422 0.46779 0.53417
 O356 O 0.49681 0.43171 0.52794
 O357 O 0.48985 0.47169 0.53610
 O358 O 0.51941 0.46311 0.51124
 O359 O 0.50698 0.50926 0.53938
 O360 O 0.53581 0.50070 0.51613
 Zr361 Zr 0.48140 0.50491 0.48456
 Zr362 Zr 0.47410 0.50105 0.53495
 Zr363 Zr 0.53050 0.48403 0.48852
 Zr364 Zr 0.48646 0.45598 0.50798
 O365 O 0.55623 0.50374 0.47704
 O366 O 0.45838 0.44373 0.52318
 O367 O 0.49759 0.47553 0.48376
 O368 O 0.46897 0.48430 0.50743
 O369 O 0.48486 0.52203 0.51202
 O370 O 0.51445 0.51309 0.48753
 C371 C 0.51091 0.43148 0.54253
 C372 C 0.56603 0.46641 0.51795
 C373 C 0.49338 0.48672 0.57680
 O374 O 0.44662 0.48260 0.54455
 O375 O 0.44617 0.51621 0.52418
 O376 O 0.45068 0.51834 0.48959
 C377 C 0.43989 0.52173 0.50615
 O378 O 0.54389 0.53614 0.53607
 Zr379 Zr 0.51793 0.52900 0.51542
 O380 O 0.48178 0.53689 0.47498
 O381 O 0.46915 0.52937 0.55211
 O382 O 0.50767 0.55322 0.53583
 O383 O 0.54395 0.54375 0.49894
 O384 O 0.50421 0.55382 0.49809
 C385 C 0.49060 0.55384 0.48307
 O386 O 0.45761 0.49073 0.46490
 O387 O 0.53770 0.45515 0.47310
 O388 O 0.49235 0.50310 0.45392
 O389 O 0.52493 0.48681 0.45688
 O390 O 0.49775 0.43030 0.48987
 O391 O 0.46362 0.44763 0.48461
 C392 C 0.50947 0.49476 0.44626
 H393 H 0.52770 0.44974 0.51067
 H394 H 0.45336 0.48083 0.50516
 H395 H 0.51983 0.52229 0.47616
 H396 H 0.50954 0.51684 0.55255
 H397 H 0.45815 0.42788 0.52163
 H398 H 0.43884 0.49154 0.55456
 H399 H 0.45557 0.52699 0.56001
 H400 H 0.51490 0.56694 0.53163
 H401 H 0.48977 0.41702 0.49420
 H402 H 0.55118 0.45799 0.46519
 H403 H 0.56420 0.49484 0.46715
 H404 H 0.54329 0.55945 0.50133
 H405 H 0.45747 0.43302 0.48721
 H406 H 0.45266 0.50218 0.45557
 H407 H 0.55076 0.48298 0.56862
 H408 H 0.54764 0.55172 0.53556
 Zr409 Zr 0.47007 0.99934 0.53051
 O410 O 0.44714 0.98864 0.55261
 O411 O 0.47552 1.03167 0.53891
 O412 O 0.48361 1.00033 0.56042
 O413 O 0.43191 1.00612 0.49241
 O414 O 0.51580 0.98340 0.55674
 O415 O 0.43944 1.01358 0.52595
 O416 O 0.50169 1.04316 0.51654
 O417 O 0.50356 1.00381 0.52589
 O418 O 0.47392 1.01391 0.50185
 O419 O 0.48322 0.96849 0.53217
 O420 O 0.45445 0.97823 0.50935
 Zr421 Zr 0.50629 0.96650 0.47632
 Zr422 Zr 0.51642 0.97307 0.52611
 Zr423 Zr 0.46004 0.99251 0.48069
 Zr424 Zr 0.50716 1.01729 0.49688
 O425 O 0.43258 0.97456 0.46998
 O426 O 0.53757 1.02747 0.50936
 O427 O 0.49315 0.99732 0.47436
 O428 O 0.52168 0.98738 0.49749
 O429 O 0.50265 0.95152 0.50484
 O430 O 0.47289 0.96190 0.48078
 C431 C 0.48894 1.04600 0.53178
 C432 C 0.42696 1.01393 0.50999
 C433 C 0.50189 0.99368 0.56729
 O434 O 0.54629 0.98892 0.53351
 O435 O 0.54257 0.95522 0.51527
 O436 O 0.53571 0.95059 0.48118
 C437 C 0.54742 0.94808 0.49737
 O438 O 0.44461 0.94448 0.53221
 Zr439 Zr 0.46929 0.94821 0.50971
 O440 O 0.50146 0.93425 0.46827
 O441 O 0.51884 0.94571 0.54507
 O442 O 0.47899 0.92410 0.53046
 O443 O 0.44042 0.93600 0.49561
 O444 O 0.47806 0.92108 0.49245
 C445 C 0.49069 0.91882 0.47696
 O446 O 0.53072 0.97624 0.45524
 O447 O 0.45431 1.02147 0.46482
 O448 O 0.49482 0.96889 0.44580
 O449 O 0.46449 0.98878 0.44907
 O450 O 0.49685 1.04311 0.47842
 O451 O 0.52867 1.02191 0.47178
 C452 C 0.47887 0.97937 0.43831
 H453 H 0.46693 1.02801 0.50102
 H454 H 0.53736 0.98925 0.49446
 H455 H 0.46603 0.95279 0.46998
 H456 H 0.48080 0.96212 0.54590
 H457 H 0.53940 1.04310 0.50674
 H458 H 0.55359 0.97994 0.54384
 H459 H 0.53301 0.94714 0.55225
 H460 H 0.47025 0.91086 0.52736
 H461 H 0.50626 1.05583 0.48177
 H462 H 0.44041 1.01938 0.45729
 H463 H 0.42509 0.98380 0.46002
 H464 H 0.43929 0.92041 0.49863
 H465 H 0.53581 1.03634 0.47278
 H466 H 0.53364 0.96371 0.44634
 H467 H 0.44389 1.00120 0.56134
 H468 H 0.43958 0.92923 0.53275
 Zr469 Zr -0.01595 0.51223 1.03425
 O470 O -0.04382 0.50319 1.05144
 O471 O -0.00528 0.54018 1.04962
 O472 O -0.00746 0.50469 1.06479
 O473 O -0.04274 0.53686 0.99436
 O474 O 0.01889 0.47987 1.06155
 O475 O -0.04220 0.53330 1.02914
 O476 O 0.02743 0.54792 1.03474
 O477 O 0.01782 0.50895 1.03441
 O478 O -0.00367 0.53100 1.01016
 O479 O -0.01053 0.47909 1.03119
 O480 O -0.03155 0.50014 1.00765
 Zr481 Zr 0.02122 0.48235 0.97914
 Zr482 Zr 0.02327 0.47629 1.02979
 Zr483 Zr -0.01760 0.51806 0.98359
 Zr484 Zr 0.02968 0.52682 1.00974
 O485 O -0.04668 0.51058 0.96741
 O486 O 0.05929 0.52650 1.02639
 O487 O 0.01619 0.51562 0.98199
 O488 O 0.03663 0.49445 1.00571
 O489 O 0.00923 0.46319 1.00320
 O490 O -0.01245 0.48548 0.97918
 C491 C 0.01273 0.55105 1.04828
 C492 C -0.05006 0.54094 1.01231
 C493 C 0.00664 0.49191 1.07231
 O494 O 0.05367 0.48289 1.04399
 O495 O 0.04670 0.45526 1.01839
 O496 O 0.04617 0.46027 0.98378
 C497 C 0.05387 0.45177 1.00018
 O498 O -0.05252 0.46589 1.02233
 Zr499 Zr -0.02423 0.46760 1.00379
 O500 O 0.01104 0.45393 0.96439
 O501 O 0.01624 0.44554 1.04229
 O502 O -0.02364 0.43793 1.01967
 O503 O -0.05238 0.46561 0.98502
 O504 O -0.01940 0.44335 0.98189
 C505 C -0.00502 0.44083 0.96790
 O506 O 0.04981 0.49083 0.96274
 O507 O -0.01198 0.54982 0.97289
 O508 O 0.01454 0.49136 0.94859
 O509 O -0.01024 0.51758 0.95226
 O510 O 0.02858 0.55819 0.99721
 O511 O 0.05538 0.53120 0.98836
 C512 C 0.00199 0.50574 0.94134
 H513 H -0.00703 0.54638 1.01166
 H514 H 0.05257 0.49315 1.00492
 H515 H -0.01949 0.48042 0.96633
 H516 H -0.01678 0.47096 1.04290
 H517 H 0.06504 0.54152 1.02725
 H518 H 0.05684 0.47034 1.05273
 H519 H 0.02873 0.44202 1.05113
 H520 H -0.03434 0.42800 1.01297
 H521 H 0.03973 0.56719 1.00443
 H522 H -0.02427 0.55317 0.96372
 H523 H -0.04969 0.52312 0.95862
 H524 H -0.05763 0.45040 0.98496
 H525 H 0.06486 0.54352 0.99266
 H526 H 0.05168 0.47978 0.95196
 H527 H -0.04563 0.51443 1.06205
 H528 H -0.06034 0.45198 1.01997
 Zr529 Zr -0.01824 0.49430 0.47666
 O530 O -0.04119 0.50430 0.45471
 O531 O -0.01058 0.46385 0.46561
 O532 O -0.00395 0.49793 0.44723
 O533 O -0.05580 0.47765 0.51316
 O534 O 0.02561 0.51990 0.45344
 O535 O -0.04821 0.47656 0.47902
 O536 O 0.01609 0.45315 0.48730
 O537 O 0.01533 0.49368 0.48179
 O538 O -0.01374 0.47718 0.50384
 O539 O -0.00756 0.52672 0.47837
 O540 O -0.03563 0.51081 0.49935
 Zr541 Zr 0.01461 0.52570 0.53491
 Zr542 Zr 0.02564 0.52582 0.48502
 Zr543 Zr -0.02933 0.49427 0.52660
 Zr544 Zr 0.01949 0.47758 0.50944
 O545 O -0.05886 0.50675 0.53722
 O546 O 0.05058 0.47271 0.49668
 O547 O 0.00387 0.49317 0.53358
 O548 O 0.03161 0.50917 0.51219
 O549 O 0.01017 0.54321 0.50789
 O550 O -0.01889 0.52623 0.52962
 C551 C 0.00355 0.45043 0.47166
 C552 C -0.06042 0.47210 0.49464
 C553 C 0.01313 0.50877 0.44140
 O554 O 0.05641 0.51441 0.47668
 O555 O 0.05013 0.54569 0.49802
 O556 O 0.04380 0.54461 0.53242
 C557 C 0.05502 0.55068 0.51663
 O558 O -0.04722 0.54591 0.47911
 Zr559 Zr -0.02320 0.54251 0.50223
 O560 O 0.00754 0.55640 0.54558
 O561 O 0.02664 0.55547 0.46917
 O562 O -0.01422 0.57017 0.48496
 O563 O -0.05364 0.54886 0.51571
 O564 O -0.01809 0.56798 0.52321
 C565 C -0.00566 0.57045 0.53898
 O566 O 0.03845 0.51630 0.55626
 O567 O -0.03181 0.46346 0.54025
 O568 O 0.00142 0.52033 0.56454
 O569 O -0.02712 0.49696 0.55851
 O570 O 0.01085 0.44885 0.52524
 O571 O 0.04125 0.47301 0.53428
 C572 C -0.01468 0.50815 0.57053
 H573 H -0.01970 0.46225 0.50315
 H574 H 0.04732 0.50891 0.51536
 H575 H -0.02691 0.53325 0.54077
 H576 H -0.01027 0.53425 0.46530
 H577 H 0.05354 0.45718 0.49781
 H578 H 0.06318 0.52533 0.46749
 H579 H 0.04092 0.55660 0.46224
 H580 H -0.02387 0.58185 0.48913
 H581 H 0.02104 0.43770 0.52087
 H582 H -0.04601 0.46252 0.54732
 H583 H -0.06562 0.49568 0.54627
 H584 H -0.05608 0.56445 0.51423
 H585 H 0.04917 0.45957 0.53214
 H586 H 0.04045 0.52824 0.56624
 H587 H -0.04342 0.49225 0.44488
 H588 H -0.05270 0.56070 0.47947
 Zr589 Zr 0.47359 -0.01215 -0.03220
 O590 O 0.45309 -0.00439 -0.05703
 O591 O 0.47534 -0.04548 -0.03516
 O592 O 0.48847 -0.01775 -0.06096
 O593 O 0.43281 -0.01275 0.00431
 O594 O 0.52226 -0.00225 -0.05709
 O595 O 0.44141 -0.02429 -0.02776
 O596 O 0.49815 -0.05514 -0.00940
 O597 O 0.50603 -0.01770 -0.02455
 O598 O 0.47388 -0.02195 -0.00156
 O599 O 0.49045 0.01723 -0.03724
 O600 O 0.45896 0.01270 -0.01560
 Zr601 Zr 0.50987 0.02760 0.01934
 Zr602 Zr 0.52242 0.01199 -0.02795
 Zr603 Zr 0.46110 0.00318 0.01513
 Zr604 Zr 0.50610 -0.02627 0.00633
 O605 O 0.43428 0.02315 0.01946
 O606 O 0.53579 -0.03971 -0.00279
 O607 O 0.49310 -0.00198 0.02463
 O608 O 0.52401 0.00255 0.00275
 O609 O 0.50982 0.03750 -0.01131
 O610 O 0.47747 0.03272 0.01151
 C611 C 0.48575 -0.05948 -0.02488
 C612 C 0.42830 -0.02293 -0.01241
 C613 C 0.50770 -0.01270 -0.06755
 O614 O 0.55032 -0.00682 -0.03081
 O615 O 0.54998 0.02962 -0.01777
 O616 O 0.54150 0.04105 0.01439
 C617 C 0.55452 0.03972 -0.00101
 O618 O 0.45483 0.04220 -0.04395
 Zr619 Zr 0.47734 0.04141 -0.01924
 O620 O 0.50858 0.06118 0.02169
 O621 O 0.53002 0.03591 -0.04999
 O622 O 0.49137 0.06132 -0.04230
 O623 O 0.44901 0.05711 -0.00964
 O624 O 0.48756 0.07056 -0.00551
 C625 C 0.49951 0.07511 0.01017
 O626 O 0.53137 0.02040 0.04359
 O627 O 0.45241 -0.02177 0.03581
 O628 O 0.49563 0.03124 0.04877
 O629 O 0.46263 0.01404 0.04544
 O630 O 0.49179 -0.04786 0.02784
 O631 O 0.52568 -0.02805 0.03310
 C632 C 0.47715 0.02440 0.05598
 H633 H 0.46533 -0.03538 0.00096
 H634 H 0.53917 0.00045 0.00722
 H635 H 0.47085 0.04389 0.02008
 H636 H 0.48971 0.02150 -0.05182
 H637 H 0.53557 -0.05487 0.00185
 H638 H 0.55943 -0.00016 -0.04170
 H639 H 0.54431 0.03238 -0.05585
 H640 H 0.48385 0.07518 -0.04202
 H641 H 0.49966 -0.06150 0.02702
 H642 H 0.43808 -0.01831 0.04162
 H643 H 0.42516 0.01633 0.03024
 H644 H 0.44976 0.07190 -0.01526
 H645 H 0.53136 -0.04272 0.03435
 H646 H 0.53514 0.03414 0.05066
 H647 H 0.44893 -0.01807 -0.06403
 H648 H 0.45183 0.05732 -0.04738
 Zr649 Zr 0.53451 0.50921 -0.03161
 O650 O 0.55418 0.49351 -0.05319
 O651 O 0.53743 0.54132 -0.04123
 O652 O 0.52125 0.51027 -0.06167
 O653 O 0.57457 0.51022 0.00592
 O654 O 0.48585 0.49936 -0.05718
 O655 O 0.56777 0.51787 -0.02766
 O656 O 0.51778 0.55923 -0.01739
 O657 O 0.50343 0.52104 -0.02672
 O658 O 0.53555 0.52482 -0.00319
 O659 O 0.51342 0.48199 -0.03201
 O660 O 0.54469 0.48603 -0.01019
 Zr661 Zr 0.49200 0.48652 0.02416
 Zr662 Zr 0.48267 0.49383 -0.02565
 Zr663 Zr 0.54396 0.50174 0.01825
 Zr664 Zr 0.50452 0.53550 0.00220
 O665 O 0.56670 0.47885 0.02755
 O666 O 0.47796 0.55162 -0.01080
 O667 O 0.51329 0.51369 0.02510
 O668 O 0.48223 0.50955 0.00272
 O669 O 0.49078 0.47063 -0.00410
 O670 O 0.52303 0.47480 0.01915
 C671 C 0.52997 0.55853 -0.03333
 C672 C 0.58049 0.51694 -0.01192
 C673 C 0.50207 0.50512 -0.06843
 O674 O 0.45916 0.51633 -0.03399
 O675 O 0.45254 0.48327 -0.01379
 O676 O 0.45906 0.47667 0.02004
 C677 C 0.44658 0.47687 0.00411
 O678 O 0.54508 0.45090 -0.03174
 Zr679 Zr 0.52204 0.46007 -0.00942
 O680 O 0.48747 0.45436 0.03273
 O681 O 0.47094 0.46681 -0.04251
 O682 O 0.50639 0.43814 -0.02997
 O683 O 0.54624 0.44190 0.00513
 O684 O 0.50511 0.43631 0.00767
 C685 C 0.49272 0.43703 0.02349
 O686 O 0.47190 0.50221 0.04537
 O687 O 0.55684 0.52884 0.03431
 O688 O 0.50498 0.48610 0.05429
 O689 O 0.54006 0.49790 0.04998
 O690 O 0.52158 0.55858 0.02055
 O691 O 0.48502 0.54546 0.02709
 C692 C 0.52397 0.49171 0.06127
 H693 H 0.54606 0.53713 -0.00263
 H694 H 0.46762 0.51482 0.00595
 H695 H 0.52742 0.46458 0.02990
 H696 H 0.51382 0.47449 -0.04538
 H697 H 0.48073 0.56725 -0.00880
 H698 H 0.44898 0.50885 -0.04359
 H699 H 0.45759 0.47117 -0.04972
 H700 H 0.51147 0.42357 -0.02668
 H701 H 0.51598 0.57291 0.01712
 H702 H 0.57017 0.52423 0.04140
 H703 H 0.57664 0.48623 0.03743
 H704 H 0.54266 0.42654 0.00240
 H705 H 0.48163 0.56081 0.02542
 H706 H 0.46565 0.49098 0.05457
 H707 H 0.56038 0.50475 -0.06241
 H708 H 0.54623 0.43506 -0.03177
 Zr709 Zr 0.02750 1.01070 0.47056
 O710 O 0.04717 1.00068 0.44599
 O711 O 0.02703 1.04403 0.46588
 O712 O 0.01253 1.01531 0.44159
 O713 O 0.06961 1.00857 0.50581
 O714 O -0.02247 1.00361 0.44688
 O715 O 0.06031 1.02124 0.47428
 O716 O 0.00682 1.05607 0.49252
 O717 O -0.00400 1.01911 0.47882
 O718 O 0.02913 1.02150 0.50093
 O719 O 0.00820 0.98248 0.46685
 O720 O 0.04053 0.98516 0.48754
 Zr721 Zr -0.01007 0.97584 0.52397
 Zr722 Zr -0.02284 0.99074 0.47653
 Zr723 Zr 0.04040 0.99585 0.51803
 Zr724 Zr -0.00226 1.02861 0.50948
 O725 O 0.06523 0.97356 0.52261
 O726 O -0.03113 1.04428 0.50130
 O727 O 0.00938 1.00401 0.52811
 O728 O -0.02267 1.00134 0.50697
 O729 O -0.01190 0.96487 0.49368
 O730 O 0.02142 0.96761 0.51574
 C731 C 0.01794 1.05901 0.47608
 C732 C 0.07402 1.01861 0.48903
 C733 C -0.00726 1.01173 0.43564
 O734 O -0.04888 1.01197 0.47353
 O735 O -0.05143 0.97605 0.48781
 O736 O -0.04265 0.96464 0.51993
 C737 C -0.05601 0.96665 0.50483
 O738 O 0.04151 0.95430 0.46039
 Zr739 Zr 0.01975 0.95783 0.48529
 O740 O -0.01177 0.94240 0.52737
 O741 O -0.03320 0.96654 0.45559
 O742 O 0.00392 0.93833 0.46277
 O743 O 0.04655 0.93992 0.49526
 O744 O 0.00659 0.93012 0.49965
 C745 C -0.00515 0.92726 0.51574
 O746 O -0.03018 0.98565 0.54831
 O747 O 0.05234 1.02081 0.53746
 O748 O 0.00454 0.97235 0.55325
 O749 O 0.03873 0.98659 0.54888
 O750 O 0.01468 1.04997 0.52968
 O751 O -0.02017 1.03246 0.53696
 C752 C 0.02359 0.97807 0.56001
 H753 H 0.03871 1.03440 0.50277
 H754 H -0.03740 1.00487 0.51171
 H755 H 0.02719 0.95618 0.52459
 H756 H 0.00813 0.97750 0.45244
 H757 H -0.02946 1.05947 0.50577
 H758 H -0.05897 1.00563 0.46316
 H759 H -0.04727 0.97104 0.44984
 H760 H 0.01030 0.92390 0.46337
 H761 H 0.00769 1.06408 0.52879
 H762 H 0.06637 1.01613 0.54314
 H763 H 0.07528 0.97997 0.53297
 H764 H 0.04415 0.92496 0.49034
 H765 H -0.02458 1.04758 0.53820
 H766 H -0.03492 0.97249 0.55583
 H767 H 0.05189 1.01379 0.43839
 H768 H 0.04367 0.93883 0.45777
 Zr769 Zr 0.73573 0.27431 0.21793
 O770 O 0.74571 0.29966 0.19817
 O771 O 0.70361 0.26834 0.20814
 O772 O 0.73699 0.26420 0.18687
 O773 O 0.72479 0.30690 0.25928
 O774 O 0.75814 0.23467 0.18789
 O775 O 0.72043 0.30369 0.22472
 O776 O 0.69276 0.23919 0.22699
 O777 O 0.73322 0.24066 0.21896
 O778 O 0.72000 0.26644 0.24538
 O779 O 0.76783 0.26361 0.21644
 O780 O 0.75506 0.28838 0.24146
 Zr781 Zr 0.76897 0.23454 0.26975
 Zr782 Zr 0.76519 0.23011 0.21900
 Zr783 Zr 0.73977 0.27877 0.26875
 Zr784 Zr 0.71858 0.23304 0.24691
 O785 O 0.75519 0.30597 0.28260
 O786 O 0.71068 0.20413 0.23096
 O787 O 0.73686 0.24527 0.27170
 O788 O 0.74976 0.22076 0.24622
 O789 O 0.78516 0.24236 0.24246
 O790 O 0.77149 0.26811 0.26860
 C791 C 0.68961 0.25358 0.21329
 C792 C 0.71843 0.31396 0.24182
 C793 C 0.74699 0.24862 0.17833
 O794 O 0.75081 0.20127 0.20742
 O795 O 0.78414 0.20418 0.22800
 O796 O 0.78607 0.20644 0.26283
 C797 C 0.79026 0.19726 0.24561
 O798 O 0.78983 0.30261 0.22090
 Zr799 Zr 0.78636 0.27585 0.24095
 O800 O 0.80116 0.23984 0.27920
 O801 O 0.79427 0.23093 0.20181
 O802 O 0.81243 0.26958 0.22088
 O803 O 0.79574 0.30379 0.25781
 O804 O 0.81318 0.26769 0.25918
 C805 C 0.81588 0.25340 0.27313
 O806 O 0.75917 0.20823 0.28843
 O807 O 0.70957 0.28007 0.28400
 O808 O 0.76615 0.24335 0.30101
 O809 O 0.74368 0.27184 0.29996
 O810 O 0.69127 0.23955 0.26537
 O811 O 0.71420 0.20847 0.26922
 C812 C 0.75485 0.25796 0.30965
 H813 H 0.70535 0.27249 0.24631
 H814 H 0.74864 0.20492 0.24751
 H815 H 0.77984 0.27439 0.28024
 H816 H 0.77484 0.26806 0.20343
 H817 H 0.69493 0.20107 0.23276
 H818 H 0.76095 0.19564 0.19710
 H819 H 0.79406 0.21780 0.19318
 H820 H 0.82512 0.27850 0.22546
 H821 H 0.67906 0.23009 0.26059
 H822 H 0.71018 0.29309 0.29276
 H823 H 0.74497 0.31148 0.29291
 H824 H 0.81154 0.30628 0.25577
 H825 H 0.69994 0.20104 0.26709
 H826 H 0.77163 0.20491 0.29743
 H827 H 0.73308 0.30301 0.18939
 H828 H 0.80506 0.30812 0.22122
 Zr829 Zr 0.74981 0.72878 0.70985
 O830 O 0.73818 0.70268 0.69166
 O831 O 0.78013 0.73571 0.69642
 O832 O 0.74502 0.73835 0.67922
 O833 O 0.76701 0.69736 0.74990
 O834 O 0.72251 0.76672 0.68171
 O835 O 0.76744 0.70055 0.71513
 O836 O 0.79159 0.76621 0.71307
 O837 O 0.75101 0.76244 0.71025
 O838 O 0.76861 0.73786 0.73527
 O839 O 0.71730 0.73815 0.71147
 O840 O 0.73409 0.71441 0.73527
 Zr841 Zr 0.72137 0.76845 0.76439
 Zr842 Zr 0.71885 0.77173 0.71339
 Zr843 Zr 0.75228 0.72526 0.76059
 Zr844 Zr 0.76875 0.77126 0.73630
 O845 O 0.73957 0.69813 0.77654
 O846 O 0.77340 0.80045 0.71995
 O847 O 0.75400 0.75892 0.76286
 O848 O 0.73716 0.78222 0.73879
 O849 O 0.70233 0.75935 0.73894
 O850 O 0.72027 0.73479 0.76381
 C851 C 0.79365 0.75158 0.69933
 C852 C 0.77182 0.69054 0.73189
 C853 C 0.73373 0.75339 0.67137
 O854 O 0.73055 0.80060 0.69970
 O855 O 0.70105 0.79780 0.72388
 O856 O 0.70292 0.79627 0.75874
 C857 C 0.69712 0.80532 0.74183
 O858 O 0.69774 0.69844 0.71870
 Zr859 Zr 0.70246 0.72580 0.73791
 O860 O 0.69049 0.76209 0.77692
 O861 O 0.68768 0.76938 0.69976
 O862 O 0.67386 0.73042 0.72050
 O863 O 0.69639 0.69803 0.75603
 O864 O 0.67763 0.73323 0.75851
 C865 C 0.67576 0.74777 0.77236
 O866 O 0.73183 0.79545 0.78200
 O867 O 0.78434 0.72513 0.77238
 O868 O 0.72930 0.76058 0.79524
 O869 O 0.75281 0.73311 0.79170
 O870 O 0.79868 0.76592 0.75132
 O871 O 0.77502 0.79603 0.75817
 C872 C 0.74274 0.74689 0.80248
 H873 H 0.78355 0.73246 0.73460
 H874 H 0.73799 0.79810 0.73978
 H875 H 0.71370 0.72854 0.77636
 H876 H 0.70899 0.73316 0.69927
 H877 H 0.78915 0.80415 0.72009
 H878 H 0.71902 0.80548 0.69032
 H879 H 0.68633 0.78214 0.69083
 H880 H 0.66218 0.72108 0.72641
 H881 H 0.80978 0.77563 0.74496
 H882 H 0.78533 0.71228 0.78124
 H883 H 0.75130 0.69310 0.78560
 H884 H 0.68056 0.69475 0.75556
 H885 H 0.78879 0.80378 0.75473
 H886 H 0.72028 0.79822 0.79216
 H887 H 0.74969 0.69956 0.68156
 H888 H 0.68290 0.69227 0.72069
 Zr889 Zr 0.23344 0.23256 0.77147
 O890 O 0.24417 0.21048 0.79370
 O891 O 0.20115 0.23621 0.78004
 O892 O 0.23312 0.24605 0.80131
 O893 O 0.22315 0.19477 0.73333
 O894 O 0.25306 0.27730 0.79780
 O895 O 0.21885 0.20162 0.76737
 O896 O 0.18905 0.26202 0.75844
 O897 O 0.22950 0.26554 0.76711
 O898 O 0.21788 0.23587 0.74319
 O899 O 0.26495 0.24638 0.77259
 O900 O 0.25359 0.21764 0.74991
 Zr901 Zr 0.26606 0.26946 0.71662
 Zr902 Zr 0.26096 0.27904 0.76660
 Zr903 Zr 0.23845 0.22278 0.72159
 Zr904 Zr 0.21512 0.26867 0.73834
 O905 O 0.25500 0.19535 0.71162
 O906 O 0.20597 0.29832 0.75131
 O907 O 0.23440 0.25550 0.71524
 O908 O 0.24586 0.28391 0.73828
 O909 O 0.28182 0.26618 0.74488
 O910 O 0.26969 0.23647 0.72126
 C911 C 0.18651 0.24877 0.77343
 C912 C 0.21663 0.18948 0.75140
 C913 C 0.24212 0.26347 0.80850
 O914 O 0.24539 0.30767 0.77472
 O915 O 0.27926 0.30540 0.75553
 O916 O 0.28332 0.29919 0.72134
 C917 C 0.28648 0.31063 0.73771
 O918 O 0.28814 0.20914 0.77240
 Zr919 Zr 0.28430 0.23326 0.74976
 O920 O 0.29827 0.26560 0.70780
 O921 O 0.28948 0.28294 0.78453
 O922 O 0.30962 0.24418 0.76962
 O923 O 0.29544 0.20474 0.73598
 O924 O 0.31112 0.24214 0.73138
 C925 C 0.31344 0.25455 0.71573
 O926 O 0.25578 0.29303 0.69566
 O927 O 0.20894 0.21752 0.70541
 O928 O 0.26393 0.25704 0.68630
 O929 O 0.24362 0.22607 0.69004
 O930 O 0.18842 0.25774 0.72016
 O931 O 0.21026 0.29024 0.71365
 C932 C 0.25408 0.24002 0.67907
 H933 H 0.20346 0.22846 0.74258
 H934 H 0.24435 0.29941 0.73535
 H935 H 0.27850 0.22968 0.71052
 H936 H 0.27176 0.24410 0.78614
 H937 H 0.19013 0.29959 0.74913
 H938 H 0.25495 0.31527 0.78478
 H939 H 0.28848 0.29685 0.79184
 H940 H 0.32270 0.23601 0.76623
 H941 H 0.17582 0.26649 0.72385
 H942 H 0.21008 0.20363 0.69809
 H943 H 0.24534 0.18775 0.70165
 H944 H 0.31123 0.20408 0.73877
 H945 H 0.19583 0.29668 0.71496
 H946 H 0.26826 0.29641 0.68653
 H947 H 0.23156 0.20679 0.80257
 H948 H 0.30358 0.20522 0.77314
 Zr949 Zr 0.26925 0.77716 0.28429
 O950 O 0.26022 0.79573 0.30993
 O951 O 0.30294 0.77607 0.28817
 O952 O 0.27434 0.76091 0.31244
 O953 O 0.26781 0.82017 0.25063
 O954 O 0.26134 0.72682 0.30594
 O955 O 0.28058 0.80959 0.28176
 O956 O 0.31400 0.75639 0.26083
 O957 O 0.27651 0.74599 0.27471
 O958 O 0.27954 0.77959 0.25385
 O959 O 0.24030 0.75874 0.28778
 O960 O 0.24361 0.79156 0.26829
 Zr961 Zr 0.23184 0.74319 0.23003
 Zr962 Zr 0.24730 0.72810 0.27668
 Zr963 Zr 0.25369 0.79221 0.23764
 Zr964 Zr 0.28559 0.74861 0.24403
 O965 O 0.23208 0.81786 0.23480
 O966 O 0.30064 0.71930 0.25106
 O967 O 0.26080 0.76167 0.22620
 O968 O 0.25744 0.72916 0.24612
 O969 O 0.22130 0.74058 0.26041
 O970 O 0.22471 0.77425 0.23975
 C971 C 0.31763 0.76707 0.27746
 C972 C 0.27820 0.82371 0.26748
 C973 C 0.27035 0.74116 0.31763
 O974 O 0.26746 0.70118 0.27779
 O975 O 0.23016 0.70108 0.26481
 O976 O 0.21960 0.71117 0.23283
 C977 C 0.22045 0.69744 0.24761
 O978 O 0.21325 0.79235 0.29617
 Zr979 Zr 0.21548 0.77177 0.27029
 O980 O 0.19796 0.74271 0.22731
 O981 O 0.22339 0.71803 0.29809
 O982 O 0.19579 0.75556 0.29231
 O983 O 0.19813 0.79938 0.26196
 O984 O 0.18682 0.76067 0.25573
 C985 C 0.18322 0.74969 0.23932
 O986 O 0.24056 0.72403 0.20468
 O987 O 0.27871 0.80369 0.21799
 O988 O 0.22799 0.75904 0.20147
 O989 O 0.24285 0.79254 0.20718
 O990 O 0.30729 0.76532 0.22408
 O991 O 0.28836 0.73166 0.21590
 C992 C 0.23354 0.77826 0.19564
 H993 H 0.29279 0.78878 0.25212
 H994 H 0.26030 0.71462 0.24077
 H995 H 0.21314 0.78073 0.23142
 H996 H 0.23565 0.75826 0.30228
 H997 H 0.31593 0.72064 0.24646
 H998 H 0.26100 0.69111 0.28798
 H999 H 0.22747 0.70363 0.30302
 H1000 H 0.18144 0.76235 0.29228
 H1001 H 0.32129 0.75788 0.22448
 H1002 H 0.27447 0.81805 0.21310
 H1003 H 0.23860 0.82808 0.22478
 H1004 H 0.18314 0.79739 0.26724
 H1005 H 0.30340 0.72674 0.21435
 H1006 H 0.22698 0.72009 0.19718
 H1007 H 0.27376 0.79977 0.31745
 H1008 H 0.19778 0.79452 0.29941
 Zr1009 Zr 0.23986 0.78106 0.71932
 O1010 O 0.25467 0.80267 0.69821
 O1011 O 0.20692 0.78362 0.71214
 O1012 O 0.23627 0.77000 0.68872
 O1013 O 0.24054 0.81762 0.75930
 O1014 O 0.24439 0.73450 0.69085
 O1015 O 0.23168 0.81325 0.72558
 O1016 O 0.18996 0.76073 0.73461
 O1017 O 0.22790 0.74938 0.72272
 O1018 O 0.22573 0.77906 0.74837
 O1019 O 0.26700 0.76161 0.71603
 O1020 O 0.26462 0.79080 0.74010
 Zr1021 Zr 0.26556 0.73617 0.77092
 Zr1022 Zr 0.25517 0.73019 0.72105
 Zr1023 Zr 0.25034 0.78714 0.76905
 Zr1024 Zr 0.21497 0.74743 0.75218
 O1025 O 0.27409 0.81048 0.77817
 O1026 O 0.19771 0.72137 0.73812
 O1027 O 0.23841 0.75570 0.77449
 O1028 O 0.24103 0.72675 0.75001
 O1029 O 0.28000 0.73784 0.74196
 O1030 O 0.27731 0.76783 0.76729
 C1031 C 0.18985 0.77464 0.72002
 C1032 C 0.23304 0.82455 0.74217
 C1033 C 0.23848 0.75114 0.68086
 O1034 O 0.23287 0.70477 0.71383
 O1035 O 0.26850 0.70096 0.72997
 O1036 O 0.27523 0.70456 0.76417
 C1037 C 0.27548 0.69387 0.74721
 O1038 O 0.29920 0.79355 0.71612
 Zr1039 Zr 0.29060 0.76964 0.73810
 O1040 O 0.29844 0.73361 0.77829
 O1041 O 0.28025 0.72258 0.70042
 O1042 O 0.31125 0.75526 0.71641
 O1043 O 0.30953 0.79450 0.75231
 O1044 O 0.31563 0.75462 0.75441
 C1045 C 0.31562 0.74148 0.76965
 O1046 O 0.25100 0.71350 0.79119
 O1047 O 0.22435 0.79704 0.78765
 O1048 O 0.26699 0.74650 0.80191
 O1049 O 0.25674 0.78137 0.80005
 O1050 O 0.19290 0.76160 0.77271
 O1051 O 0.20640 0.72565 0.77607
 C1052 C 0.26276 0.76480 0.81010
 H1053 H 0.21344 0.78874 0.75030
 H1054 H 0.23598 0.71173 0.75249
 H1055 H 0.28820 0.77216 0.77781
 H1056 H 0.27344 0.76321 0.70222
 H1057 H 0.18211 0.72303 0.74120
 H1058 H 0.23955 0.69624 0.70281
 H1059 H 0.27536 0.70941 0.69296
 H1060 H 0.32628 0.76054 0.71928
 H1061 H 0.17822 0.75551 0.76957
 H1062 H 0.22959 0.80996 0.79530
 H1063 H 0.26745 0.81916 0.78911
 H1064 H 0.32491 0.79219 0.74875
 H1065 H 0.19076 0.72164 0.77499
 H1066 H 0.26283 0.70738 0.79949
 H1067 H 0.24287 0.80891 0.68996
 H1068 H 0.31520 0.79462 0.71486
 Zr1069 Zr 0.25515 0.22803 0.20953
 O1070 O 0.24345 0.20420 0.18876
 O1071 O 0.28727 0.23289 0.19960
 O1072 O 0.25383 0.23992 0.17918
 O1073 O 0.26598 0.19244 0.24862
 O1074 O 0.23405 0.27020 0.18215
 O1075 O 0.27000 0.19818 0.21433
 O1076 O 0.30010 0.26003 0.22019
 O1077 O 0.25937 0.26143 0.21241
 O1078 O 0.27166 0.23348 0.23716
 O1079 O 0.22364 0.24020 0.20913
 O1080 O 0.23569 0.21317 0.23238
 Zr1081 Zr 0.22477 0.26603 0.26406
 Zr1082 Zr 0.22797 0.27336 0.21359
 Zr1083 Zr 0.25182 0.22044 0.25995
 Zr1084 Zr 0.27479 0.26662 0.24055
 O1085 O 0.23512 0.19316 0.27211
 O1086 O 0.28376 0.29592 0.22587
 O1087 O 0.25632 0.25364 0.26473
 O1088 O 0.24425 0.28033 0.24111
 O1089 O 0.20792 0.26053 0.23653
 O1090 O 0.22066 0.23264 0.26105
 C1091 C 0.30227 0.24626 0.20567
 C1092 C 0.27229 0.18677 0.23066
 C1093 C 0.24440 0.25637 0.17161
 O1094 O 0.24355 0.30204 0.20318
 O1095 O 0.21112 0.29994 0.22434
 O1096 O 0.20870 0.29533 0.25891
 C1097 C 0.20534 0.30605 0.24231
 O1098 O 0.20048 0.20155 0.21188
 Zr1099 Zr 0.20509 0.22720 0.23313
 O1100 O 0.19242 0.26166 0.27326
 O1101 O 0.19839 0.27503 0.19721
 O1102 O 0.17912 0.23520 0.21342
 O1103 O 0.19447 0.19910 0.24896
 O1104 O 0.17872 0.23601 0.25141
 C1105 C 0.17683 0.24971 0.26601
 O1106 O 0.23571 0.29087 0.28411
 O1107 O 0.28202 0.21663 0.27489
 O1108 O 0.22859 0.25548 0.29480
 O1109 O 0.24919 0.22579 0.29148
 O1110 O 0.30193 0.25801 0.25849
 O1111 O 0.28071 0.28976 0.26406
 C1112 C 0.23957 0.23992 0.30228
 H1113 H 0.28604 0.22681 0.23762
 H1114 H 0.24619 0.29600 0.24332
 H1115 H 0.21222 0.22618 0.27248
 H1116 H 0.21621 0.23685 0.19599
 H1117 H 0.29967 0.29807 0.22750
 H1118 H 0.23355 0.30867 0.19326
 H1119 H 0.19914 0.28851 0.18915
 H1120 H 0.16622 0.22635 0.21752
 H1121 H 0.31450 0.26715 0.25407
 H1122 H 0.28086 0.20308 0.28283
 H1123 H 0.24516 0.18646 0.28194
 H1124 H 0.17858 0.19741 0.24680
 H1125 H 0.29508 0.29691 0.26191
 H1126 H 0.22349 0.29407 0.29340
 H1127 H 0.25565 0.20076 0.17953
 H1128 H 0.18517 0.19627 0.21229
 Zr1129 Zr 0.73734 0.72559 0.27220
 O1130 O 0.75041 0.70444 0.29408
 O1131 O 0.70522 0.72772 0.28210
 O1132 O 0.73801 0.73955 0.30195
 O1133 O 0.72889 0.68628 0.23517
 O1134 O 0.75530 0.77200 0.29672
 O1135 O 0.72386 0.69396 0.26900
 O1136 O 0.69101 0.75237 0.26043
 O1137 O 0.73116 0.75813 0.26727
 O1138 O 0.72057 0.72726 0.24436
 O1139 O 0.76800 0.74145 0.27176
 O1140 O 0.75772 0.71159 0.25020
 Zr1141 Zr 0.76536 0.76313 0.21547
 Zr1142 Zr 0.76165 0.77360 0.26529
 Zr1143 Zr 0.74118 0.71502 0.22231
 Zr1144 Zr 0.71551 0.75964 0.23896
 O1145 O 0.75907 0.68857 0.21200
 O1146 O 0.70505 0.78915 0.25124
 O1147 O 0.73466 0.74714 0.21544
 O1148 O 0.74513 0.77684 0.23748
 O1149 O 0.78250 0.76159 0.24313
 O1150 O 0.77143 0.73065 0.22057
 C1151 C 0.68977 0.73950 0.27581
 C1152 C 0.72263 0.68121 0.25336
 C1153 C 0.74625 0.75770 0.30830
 O1154 O 0.74435 0.80117 0.27354
 O1155 O 0.77754 0.80095 0.25309
 O1156 O 0.78141 0.79362 0.21906
 C1157 C 0.78419 0.80579 0.23498
 O1158 O 0.79403 0.70606 0.27157
 Zr1159 Zr 0.78740 0.72910 0.24854
 O1160 O 0.79721 0.76100 0.20524
 O1161 O 0.79066 0.77987 0.28198
 O1162 O 0.81279 0.74216 0.26716
 O1163 O 0.79969 0.70100 0.23493
 O1164 O 0.81281 0.73930 0.22886
 C1165 C 0.81349 0.75132 0.21280
 O1166 O 0.75267 0.78561 0.19465
 O1167 O 0.71131 0.70743 0.20753
 O1168 O 0.76277 0.75002 0.18553
 O1169 O 0.74492 0.71784 0.19051
 O1170 O 0.68854 0.74650 0.22243
 O1171 O 0.70817 0.77974 0.21372
 C1172 C 0.75397 0.73220 0.17896
 H1173 H 0.70659 0.71901 0.24444
 H1174 H 0.74252 0.79209 0.23427
 H1175 H 0.78024 0.72417 0.20963
 H1176 H 0.77558 0.73995 0.28505
 H1177 H 0.68905 0.78936 0.24965
 H1178 H 0.75379 0.80965 0.28307
 H1179 H 0.78901 0.79381 0.28909
 H1180 H 0.82629 0.73488 0.26335
 H1181 H 0.67563 0.75465 0.22643
 H1182 H 0.71308 0.69351 0.20042
 H1183 H 0.74946 0.68015 0.20257
 H1184 H 0.81565 0.70151 0.23688
 H1185 H 0.69342 0.78539 0.21542
 H1186 H 0.76453 0.78958 0.18500
 H1187 H 0.73845 0.70022 0.30354
 H1188 H 0.80972 0.70304 0.27156
 Zr1189 Zr 0.77509 0.27638 0.78147
 O1190 O 0.76710 0.29608 0.80667
 O1191 O 0.80832 0.27237 0.78636
 O1192 O 0.77817 0.26042 0.81004
 O1193 O 0.77711 0.31898 0.74726
 O1194 O 0.76343 0.22698 0.80363
 O1195 O 0.78835 0.30814 0.77882
 O1196 O 0.81848 0.25088 0.75997
 O1197 O 0.78041 0.24463 0.77240
 O1198 O 0.78630 0.27769 0.75127
 O1199 O 0.74497 0.25991 0.78463
 O1200 O 0.75086 0.29213 0.76473
 Zr1201 Zr 0.73673 0.24385 0.72690
 Zr1202 Zr 0.75018 0.22868 0.77408
 Zr1203 Zr 0.76166 0.29164 0.73431
 Zr1204 Zr 0.79037 0.24616 0.74190
 O1205 O 0.74202 0.31870 0.73056
 O1206 O 0.80300 0.21560 0.74856
 O1207 O 0.76688 0.26046 0.72339
 O1208 O 0.76101 0.22855 0.74373
 O1209 O 0.72547 0.24247 0.75712
 O1210 O 0.73152 0.27554 0.73607
 C1211 C 0.82232 0.26126 0.77672
 C1212 C 0.78703 0.32227 0.76441
 C1213 C 0.77289 0.24099 0.81536
 O1214 O 0.76852 0.20053 0.77612
 O1215 O 0.73177 0.20252 0.76231
 O1216 O 0.72298 0.21228 0.72976
 C1217 C 0.72262 0.19885 0.74486
 O1218 O 0.72027 0.29569 0.79171
 Zr1219 Zr 0.72152 0.27419 0.76643
 O1220 O 0.70290 0.24501 0.72387
 O1221 O 0.72515 0.22055 0.79506
 O1222 O 0.70051 0.26007 0.78865
 O1223 O 0.70595 0.30248 0.75698
 O1224 O 0.69255 0.26398 0.75194
 C1225 C 0.68846 0.25270 0.73580
 O1226 O 0.74472 0.22408 0.70175
 O1227 O 0.78784 0.30094 0.71505
 O1228 O 0.73415 0.25976 0.69818
 O1229 O 0.75130 0.29229 0.70372
 O1230 O 0.81400 0.26163 0.72302
 O1231 O 0.79253 0.22937 0.71363
 C1232 C 0.74103 0.27857 0.69226
 H1233 H 0.80019 0.28596 0.74990
 H1234 H 0.76308 0.21376 0.73863
 H1235 H 0.72052 0.28255 0.72748
 H1236 H 0.73997 0.25998 0.79903
 H1237 H 0.81835 0.21582 0.74407
 H1238 H 0.76116 0.19102 0.78627
 H1239 H 0.72820 0.20605 0.80040
 H1240 H 0.68670 0.26784 0.78824
 H1241 H 0.82738 0.25321 0.72388
 H1242 H 0.78476 0.31549 0.70984
 H1243 H 0.74948 0.32831 0.72056
 H1244 H 0.69079 0.30144 0.76199
 H1245 H 0.80741 0.22404 0.71197
 H1246 H 0.73105 0.22080 0.69413
 H1247 H 0.78073 0.29923 0.81440
 H1248 H 0.70498 0.29921 0.79446
 C1249 C 0.43156 1.03077 0.30011
 C1250 C 0.44285 1.02888 0.31857
 C1251 C 0.45201 1.00943 0.32408
 C1252 C 0.45155 0.99234 0.31004
 C1253 C 0.44043 0.99427 0.29144
 C1254 C 0.42894 1.01298 0.28686
 N1255 N 0.45942 1.00694 0.34472
 N1256 N 0.46649 0.98945 0.35189
 C1257 C 0.47138 0.98752 0.37332
 C1258 C 0.48049 0.96870 0.38091
 C1259 C 0.48355 0.96595 0.40208
 C1260 C 0.47702 0.98187 0.41587
 C1261 C 0.46830 1.00082 0.40812
 C1262 C 0.46563 1.00368 0.38715
 H1263 H 0.42451 1.04604 0.29676
 H1264 H 0.44354 1.04234 0.32912
 H1265 H 0.45888 0.97725 0.31381
 H1266 H 0.43964 0.98058 0.28117
 H1267 H 0.48488 0.95603 0.37046
 H1268 H 0.49036 0.95123 0.40770
 H1269 H 0.46346 1.01353 0.41835
 H1270 H 0.45853 1.01837 0.38180
 C1271 C -0.07324 0.54107 0.81108
 C1272 C -0.05961 0.54196 0.82822
 C1273 C -0.04621 0.52488 0.83284
 C1274 C -0.04588 0.50710 0.81964
 C1275 C -0.05940 0.50622 0.80242
 C1276 C -0.07387 0.52282 0.79825
 N1277 N -0.03431 0.52547 0.85169
 N1278 N -0.02270 0.51011 0.85774
 C1279 C -0.01259 0.51065 0.87754
 C1280 C -0.00278 0.49218 0.88501
 C1281 C 0.00362 0.49100 0.90559
 C1282 C 0.00016 0.50832 0.91891
 C1283 C -0.00812 0.52739 0.91093
 C1284 C -0.01442 0.52856 0.89046
 H1285 H -0.08305 0.55480 0.80815
 H1286 H -0.05981 0.55586 0.83822
 H1287 H -0.03551 0.49376 0.82281
 H1288 H -0.05890 0.49227 0.79251
 H1289 H -0.00125 0.47827 0.87520
 H1290 H 0.00989 0.47608 0.91135
 H1291 H -0.01074 0.54110 0.92077
 H1292 H -0.02173 0.54311 0.88504
 C1293 C 0.05064 -0.00480 0.79279
 C1294 C 0.03968 -0.00282 0.81151
 C1295 C 0.05127 -0.00048 0.82991
 C1296 C 0.07403 -0.00109 0.82944
 C1297 C 0.08494 -0.00328 0.81091
 C1298 C 0.07358 -0.00471 0.79215
 N1299 N 0.03993 0.00270 0.84887
 N1300 N 0.05041 0.00839 0.86492
 C1301 C 0.04099 0.01130 0.88475
 C1302 C 0.05496 0.01713 0.90082
 C1303 C 0.04738 0.01795 0.92088
 C1304 C 0.02549 0.01310 0.92533
 C1305 C 0.01106 0.00842 0.90907
 C1306 C 0.01879 0.00739 0.88882
 H1307 H 0.04088 -0.00590 0.77908
 H1308 H 0.02212 -0.00255 0.81161
 H1309 H 0.08348 0.00039 0.84341
 H1310 H 0.10252 -0.00314 0.81113
 H1311 H 0.07205 0.02027 0.89787
 H1312 H 0.05886 0.02169 0.93306
 H1313 H -0.00585 0.00443 0.91213
 H1314 H 0.00769 0.00288 0.87657
 C1315 C 0.56856 0.46636 0.30530
 C1316 C 0.55691 0.46475 0.32358
 C1317 C 0.54590 0.48233 0.33124
 C1318 C 0.54535 0.50126 0.31963
 C1319 C 0.55698 0.50291 0.30126
 C1320 C 0.56982 0.48591 0.29440
 N1321 N 0.53733 0.48100 0.35159
 N1322 N 0.52693 0.49595 0.36012
 C1323 C 0.52070 0.49439 0.38127
 C1324 C 0.50745 0.50994 0.38990
 C1325 C 0.50295 0.50974 0.41098
 C1326 C 0.51205 0.49417 0.42373
 C1327 C 0.52486 0.47832 0.41489
 C1328 C 0.52903 0.47833 0.39392
 H1329 H 0.57672 0.45224 0.30021
 H1330 H 0.55709 0.44992 0.33222
 H1331 H 0.53669 0.51501 0.32511
 H1332 H 0.55681 0.51791 0.29287
 H1333 H 0.50100 0.52248 0.38037
 H1334 H 0.49308 0.52218 0.41740
 H1335 H 0.53195 0.46600 0.42428
 H1336 H 0.53937 0.46616 0.38774
 C1337 C 0.58924 0.51007 0.20368
 C1338 C 0.58230 0.51084 0.18329
 C1339 C 0.56454 0.49816 0.17658
 C1340 C 0.55359 0.48468 0.19061
 C1341 C 0.56058 0.48381 0.21104
 C1342 C 0.57859 0.49642 0.21779
 N1343 N 0.55854 0.49899 0.15535
 N1344 N 0.54202 0.48901 0.14779
 C1345 C 0.53726 0.49007 0.12624
 C1346 C 0.51811 0.48036 0.11846
 C1347 C 0.51346 0.48097 0.09739
 C1348 C 0.52808 0.49115 0.08373
 C1349 C 0.54722 0.50091 0.09170
 C1350 C 0.55172 0.50043 0.11264
 H1351 H 0.60285 0.52033 0.20837
 H1352 H 0.59085 0.52134 0.17263
 H1353 H 0.53989 0.47463 0.18575
 H1354 H 0.55217 0.47289 0.22141
 H1355 H 0.50679 0.47229 0.12875
 H1356 H 0.49860 0.47329 0.09178
 H1357 H 0.55885 0.50902 0.08175
 H1358 H 0.56666 0.50803 0.11814
 C1359 C 0.09630 0.99933 0.69772
 C1360 C 0.08932 0.99650 0.67750
 C1361 C 0.06861 0.98806 0.67309
 C1362 C 0.05466 0.98259 0.68930
 C1363 C 0.06160 0.98532 0.70966
 C1364 C 0.08272 0.99361 0.71439
 N1365 N 0.06248 0.98532 0.65201
 N1366 N 0.04379 0.97857 0.64599
 C1367 C 0.03900 0.97643 0.62448
 C1368 C 0.01763 0.97203 0.61788
 C1369 C 0.01251 0.97159 0.59687
 C1370 C 0.02879 0.97551 0.58214
 C1371 C 0.05034 0.97890 0.58891
 C1372 C 0.05537 0.97940 0.60975
 H1373 H 0.11225 1.00657 0.69981
 H1374 H 0.10016 1.00104 0.66510
 H1375 H 0.03853 0.97597 0.68626
 H1376 H 0.05041 0.98010 0.72146
 H1377 H 0.00482 0.96958 0.62903
 H1378 H -0.00424 0.96895 0.59221
 H1379 H 0.06339 0.98176 0.57809
 H1380 H 0.07207 0.98254 0.61431
 C1381 C -0.06389 0.53717 0.71732
 C1382 C -0.05366 0.53776 0.69825
 C1383 C -0.05875 0.52215 0.68344
 C1384 C -0.07490 0.50630 0.68767
 C1385 C -0.08538 0.50588 0.70668
 C1386 C -0.07963 0.52105 0.72180
 N1387 N -0.04721 0.52260 0.66440
 N1388 N -0.04879 0.50709 0.65173
 C1389 C -0.03789 0.50711 0.63238
 C1390 C -0.04108 0.48931 0.61959
 C1391 C -0.03245 0.48929 0.59989
 C1392 C -0.02034 0.50717 0.59253
 C1393 C -0.01615 0.52468 0.60575
 C1394 C -0.02495 0.52470 0.62556
 H1395 H -0.05938 0.54924 0.72864
 H1396 H -0.04141 0.55014 0.69515
 H1397 H -0.07927 0.49416 0.67638
 H1398 H -0.09739 0.49327 0.70982
 H1399 H -0.05088 0.47563 0.62471
 H1400 H -0.03583 0.47547 0.59016
 H1401 H -0.00701 0.53871 0.60044
 H1402 H -0.02220 0.53864 0.63527
 C1403 C 0.40603 0.00428 0.19402
 C1404 C 0.41291 0.00618 0.17369
 C1405 C 0.43177 0.01814 0.16876
 C1406 C 0.44373 0.02836 0.18449
 C1407 C 0.43676 0.02665 0.20486
 C1408 C 0.41782 0.01452 0.20990
 N1409 N 0.43807 0.01966 0.14766
 N1410 N 0.45590 0.02829 0.14152
 C1411 C 0.46093 0.02922 0.12003
 C1412 C 0.48207 0.03475 0.11351
 C1413 C 0.48747 0.03408 0.09258
 C1414 C 0.47169 0.02796 0.07790
 C1415 C 0.45030 0.02347 0.08456
 C1416 C 0.44503 0.02402 0.10528
 H1417 H 0.39165 -0.00550 0.19725
 H1418 H 0.40358 -0.00184 0.16169
 H1419 H 0.45827 0.03783 0.18103
 H1420 H 0.44607 0.03513 0.21657
 H1421 H 0.49452 0.03893 0.12468
 H1422 H 0.50406 0.03763 0.08800
 H1423 H 0.43757 0.01896 0.07378
 H1424 H 0.42851 0.02000 0.10977
 C1425 C 0.31344 0.37813 0.00268
 C1426 C 0.33337 0.38888 0.00577
 C1427 C 0.33513 0.41121 0.00412
 C1428 C 0.31652 0.42279 -0.00066
 C1429 C 0.29635 0.41205 -0.00342
 C1430 C 0.29447 0.38948 -0.00157
 N1431 N 0.35609 0.42148 0.00696
 N1432 N 0.36004 0.44109 0.00243
 C1433 C 0.38129 0.45087 0.00489
 C1434 C 0.38634 0.46981 -0.00580
 C1435 C 0.40747 0.47862 -0.00549
 C1436 C 0.42383 0.46894 0.00603
 C1437 C 0.41852 0.45057 0.01767
 C1438 C 0.39744 0.44144 0.01693
 H1439 H 0.31278 0.36075 0.00378
 H1440 H 0.34760 0.37971 0.00920
 H1441 H 0.31754 0.44011 -0.00219
 H1442 H 0.28254 0.42155 -0.00721
 H1443 H 0.37408 0.47728 -0.01507
 H1444 H 0.41114 0.49282 -0.01456
 H1445 H 0.43089 0.44274 0.02654
 H1446 H 0.39388 0.42685 0.02544
 C1447 C -0.19102 0.86999 0.49351
 C1448 C -0.17032 0.87933 0.49618
 C1449 C -0.16764 0.90149 0.49901
 C1450 C -0.18603 0.91433 0.49889
 C1451 C -0.20685 0.90498 0.49647
 C1452 C -0.20971 0.88255 0.49395
 N1453 N -0.14615 0.91047 0.50195
 N1454 N -0.14224 0.93066 0.50205
 C1455 C -0.12077 0.93973 0.50475
 C1456 C -0.11674 0.96107 0.49891
 C1457 C -0.09570 0.96997 0.49961
 C1458 C -0.07837 0.95783 0.50673
 C1459 C -0.08251 0.93674 0.51360
 C1460 C -0.10357 0.92763 0.51240
 H1461 H -0.19253 0.85272 0.49156
 H1462 H -0.15630 0.86923 0.49611
 H1463 H -0.18436 0.93156 0.50099
 H1464 H -0.22040 0.91552 0.49688
 H1465 H -0.12984 0.97057 0.49307
 H1466 H -0.09286 0.98627 0.49424
 H1467 H -0.06933 0.92705 0.51895
 H1468 H -0.10636 0.91112 0.51713
 C1469 C -0.20835 0.09461 1.01532
 C1470 C -0.19033 0.08140 1.01645
 C1471 C -0.17118 0.08683 1.00595
 C1472 C -0.16987 0.10626 0.99512
 C1473 C -0.18769 0.11961 0.99421
 C1474 C -0.20769 0.11350 1.00336
 N1475 N -0.15318 0.07269 1.00681
 N1476 N -0.13684 0.07506 0.99502
 C1477 C -0.11844 0.06145 0.99596
 C1478 C -0.10205 0.06393 0.98126
 C1479 C -0.08340 0.05164 0.98225
 C1480 C -0.08068 0.03676 0.99819
 C1481 C -0.09740 0.03403 1.01272
 C1482 C -0.11613 0.04618 1.01158
 H1483 H -0.22274 0.08995 1.02386
 H1484 H -0.19138 0.06677 1.02540
 H1485 H -0.15498 0.11127 0.98750
 H1486 H -0.18562 0.13478 0.98631
 H1487 H -0.10361 0.07565 0.96914
 H1488 H -0.07086 0.05423 0.97087
 H1489 H -0.09589 0.02270 1.02518
 H1490 H -0.12855 0.04395 1.02313
 C1491 C 0.30713 0.61341 0.52973
 C1492 C 0.32520 0.60032 0.53107
 C1493 C 0.33211 0.58868 0.51406
 C1494 C 0.32003 0.58944 0.49583
 C1495 C 0.30179 0.60228 0.49453
 C1496 C 0.29554 0.61523 0.51116
 N1497 N 0.35147 0.57645 0.51570
 N1498 N 0.36041 0.56785 0.50024
 C1499 C 0.37991 0.55585 0.50202
 C1500 C 0.39036 0.54901 0.48421
 C1501 C 0.40976 0.53783 0.48544
 C1502 C 0.41897 0.53305 0.50460
 C1503 C 0.40822 0.53970 0.52245
 C1504 C 0.38897 0.55103 0.52118
 H1505 H 0.30243 0.62190 0.54336
 H1506 H 0.33407 0.59952 0.54539
 H1507 H 0.32474 0.58023 0.48257
 H1508 H 0.29281 0.60248 0.48025
 H1509 H 0.38359 0.55260 0.46932
 H1510 H 0.41754 0.53298 0.47139
 H1511 H 0.41480 0.53640 0.53748
 H1512 H 0.38123 0.55606 0.53519
 C1513 C 0.19863 0.63252 0.49280
 C1514 C 0.17686 0.62550 0.49394
 C1515 C 0.17011 0.61035 0.50863
 C1516 C 0.18557 0.60217 0.52221
 C1517 C 0.20742 0.60897 0.52090
 C1518 C 0.21420 0.62422 0.50616
 N1519 N 0.14778 0.60299 0.50880
 N1520 N 0.13960 0.59128 0.52300
 C1521 C 0.11747 0.58324 0.52216
 C1522 C 0.10873 0.57171 0.53882
 C1523 C 0.08785 0.56208 0.53763
 C1524 C 0.07548 0.56359 0.51957
 C1525 C 0.08403 0.57584 0.50320
 C1526 C 0.10470 0.58562 0.50449
 H1527 H 0.20335 0.64417 0.48121
 H1528 H 0.16518 0.63185 0.48328
 H1529 H 0.18082 0.59038 0.53364
 H1530 H 0.21897 0.60252 0.53162
 H1531 H 0.11834 0.56970 0.55256
 H1532 H 0.08182 0.55263 0.55043
 H1533 H 0.07492 0.57741 0.48908
 H1534 H 0.11096 0.59443 0.49139
 C1535 C 0.69327 0.13625 0.00394
 C1536 C 0.67188 0.12802 0.00537
 C1537 C 0.66728 0.10602 0.00309
 C1538 C 0.68446 0.09229 -0.00070
 C1539 C 0.70584 0.10036 -0.00184
 C1540 C 0.71092 0.12256 0.00068
 N1541 N 0.64519 0.09794 0.00439
 N1542 N 0.64016 0.07868 -0.00077
 C1543 C 0.61857 0.06944 0.00011
 C1544 C 0.61448 0.04997 -0.01007
 C1545 C 0.59373 0.04042 -0.01017
 C1546 C 0.57656 0.04990 0.00033
 C1547 C 0.58072 0.06920 0.01112
 C1548 C 0.60158 0.07906 0.01084
 H1549 H 0.69554 0.15334 0.00599
 H1550 H 0.65880 0.13890 0.00818
 H1551 H 0.68141 0.07520 -0.00276
 H1552 H 0.71807 0.08887 -0.00529
 H1553 H 0.62742 0.04233 -0.01826
 H1554 H 0.59111 0.02548 -0.01848
 H1555 H 0.56779 0.07687 0.01929
 H1556 H 0.60443 0.09406 0.01897
 C1557 C 0.70339 0.89935 0.50853
 C1558 C 0.68293 0.90833 0.51010
 C1559 C 0.66554 0.90052 0.49814
 C1560 C 0.66881 0.88330 0.48461
 C1561 C 0.68926 0.87409 0.48322
 C1562 C 0.70678 0.88211 0.49509
 N1563 N 0.64487 0.91031 0.50023
 N1564 N 0.62879 0.90610 0.48842
 C1565 C 0.60831 0.91619 0.49110
 C1566 C 0.59223 0.91377 0.47597
 C1567 C 0.57237 0.92400 0.47795
 C1568 C 0.56812 0.93662 0.49532
 C1569 C 0.58416 0.93864 0.51066
 C1570 C 0.60406 0.92865 0.50853
 H1571 H 0.71649 0.90568 0.51808
 H1572 H 0.68062 0.92151 0.52065
 H1573 H 0.65560 0.87694 0.47524
 H1574 H 0.69146 0.86094 0.47262
 H1575 H 0.59523 0.90416 0.46248
 H1576 H 0.56035 0.92202 0.46590
 H1577 H 0.58151 0.94829 0.52420
 H1578 H 0.61613 0.93072 0.52051
 C1579 C 0.20798 0.40300 0.97845
 C1580 C 0.18724 0.41149 0.97707
 C1581 C 0.16953 0.40134 0.98680
 C1582 C 0.17271 0.38205 0.99744
 C1583 C 0.19342 0.37333 0.99851
 C1584 C 0.21139 0.38391 0.98938
 N1585 N 0.14874 0.41121 0.98600
 N1586 N 0.13295 0.40534 0.99746
 C1587 C 0.11239 0.41565 0.99687
 C1588 C 0.09777 0.41231 1.01303
 C1589 C 0.07841 0.42353 1.01384
 C1590 C 0.07305 0.43799 0.99820
 C1591 C 0.08729 0.44056 0.98150
 C1592 C 0.10686 0.42965 0.98092
 H1593 H 0.22136 0.41136 0.97089
 H1594 H 0.18503 0.42629 0.96872
 H1595 H 0.15926 0.37380 1.00498
 H1596 H 0.19539 0.35862 1.00694
 H1597 H 0.10176 0.40154 1.02540
 H1598 H 0.06780 0.42116 1.02689
 H1599 H 0.08374 0.45168 0.96927
 H1600 H 0.11781 0.43242 0.96819
 C1601 C 0.01281 0.29453 0.42862
 C1602 C 0.01475 0.31451 0.43832
 C1603 C 0.01094 0.33335 0.42744
 C1604 C 0.00555 0.33219 0.40660
 C1605 C 0.00375 0.31238 0.39687
 C1606 C 0.00716 0.29320 0.40770
 N1607 N 0.01198 0.35346 0.43791
 N1608 N 0.00612 0.37061 0.42919
 C1609 C 0.00669 0.39077 0.43955
 C1610 C -0.00303 0.40829 0.43027
 C1611 C -0.00389 0.42789 0.44058
 C1612 C 0.00522 0.43017 0.46025
 C1613 C 0.01554 0.41267 0.46924
 C1614 C 0.01618 0.39308 0.45901
 H1615 H 0.01559 0.28046 0.43775
 H1616 H 0.01889 0.31532 0.45445
 H1617 H 0.00260 0.34657 0.39783
 H1618 H -0.00057 0.31193 0.38076
 H1619 H -0.01033 0.40661 0.41522
 H1620 H -0.01178 0.44117 0.43323
 H1621 H 0.02269 0.41394 0.48439
 H1622 H 0.02388 0.37971 0.46639
 C1623 C 0.50199 -0.21543 -0.06719
 C1624 C 0.50158 -0.19695 -0.05501
 C1625 C 0.48650 -0.18114 -0.05899
 C1626 C 0.47133 -0.18428 -0.07486
 C1627 C 0.47183 -0.20253 -0.08711
 C1628 C 0.48702 -0.21854 -0.08342
 N1629 N 0.48824 -0.16105 -0.04838
 N1630 N 0.47569 -0.14593 -0.05298
 C1631 C 0.47760 -0.12495 -0.04429
 C1632 C 0.46362 -0.10938 -0.05141
 C1633 C 0.46619 -0.08813 -0.04498
 C1634 C 0.48285 -0.08214 -0.03117
 C1635 C 0.49654 -0.09798 -0.02355
 C1636 C 0.49400 -0.11928 -0.03014
 H1637 H 0.51470 -0.22672 -0.06448
 H1638 H 0.51365 -0.19450 -0.04308
 H1639 H 0.45971 -0.17213 -0.07850
 H1640 H 0.46093 -0.20344 -0.10011
 H1641 H 0.45099 -0.11366 -0.06239
 H1642 H 0.45519 -0.07640 -0.05096
 H1643 H 0.50947 -0.09386 -0.01284
 H1644 H 0.50505 -0.13115 -0.02453
 C1645 C 0.00743 -0.22198 1.07323
 C1646 C 0.00835 -0.20558 1.05871
 C1647 C 0.02463 -0.18958 1.06000
 C1648 C 0.04166 -0.19172 1.07411
 C1649 C 0.04081 -0.20811 1.08857
 C1650 C 0.02267 -0.22234 1.08936
 N1651 N 0.02140 -0.16965 1.04988
 N1652 N 0.03192 -0.15283 1.05559
 C1653 C 0.02725 -0.13203 1.04805
 C1654 C 0.03835 -0.11434 1.05666
 C1655 C 0.03250 -0.09358 1.05163
 C1656 C 0.01543 -0.09024 1.03776
 C1657 C 0.00453 -0.10809 1.02883
 C1658 C 0.01035 -0.12887 1.03401
 H1659 H -0.00619 -0.23338 1.07287
 H1660 H -0.00470 -0.20425 1.04768
 H1661 H 0.05487 -0.17987 1.07486
 H1662 H 0.05394 -0.20873 1.09947
 H1663 H 0.05125 -0.11669 1.06767
 H1664 H 0.04146 -0.08018 1.05852
 H1665 H -0.00855 -0.10601 1.01797
 H1666 H 0.00142 -0.14241 1.02734
 C1667 C 0.51816 0.27514 0.58141
 C1668 C 0.51957 0.29418 0.57021
 C1669 C 0.52851 0.31282 0.57911
 C1670 C 0.53741 0.31201 0.59888
 C1671 C 0.53607 0.29304 0.61009
 C1672 C 0.52620 0.27434 0.60162
 N1673 N 0.52570 0.33283 0.56900
 N1674 N 0.53103 0.35058 0.57753
 C1675 C 0.52633 0.37065 0.56828
 C1676 C 0.53377 0.38962 0.57776
 C1677 C 0.52848 0.40950 0.56961
 C1678 C 0.51547 0.41060 0.55193
 C1679 C 0.50789 0.39146 0.54257
 C1680 C 0.51332 0.37164 0.55063
 H1681 H 0.50946 0.26154 0.57464
 H1682 H 0.51235 0.29477 0.55508
 H1683 H 0.54421 0.32635 0.60615
 H1684 H 0.54146 0.29357 0.62586
 H1685 H 0.54361 0.38896 0.59150
 H1686 H 0.53460 0.42397 0.57716
 H1687 H 0.49799 0.39175 0.52884
 H1688 H 0.50720 0.35713 0.54319
 C1689 C 0.48928 1.18291 0.61871
 C1690 C 0.48474 1.16221 0.61127
 C1691 C 0.49749 1.15374 0.59574
 C1692 C 0.51541 1.16579 0.58825
 C1693 C 0.52004 1.18633 0.59574
 C1694 C 0.50679 1.19522 0.61076
 N1695 N 0.49176 1.13325 0.58715
 N1696 N 0.50039 1.12752 0.57046
 C1697 C 0.49597 1.10734 0.56087
 C1698 C 0.50579 1.10358 0.54207
 C1699 C 0.50297 1.08382 0.53244
 C1700 C 0.49027 1.06733 0.54157
 C1701 C 0.47991 1.07130 0.56031
 C1702 C 0.48275 1.09127 0.56995
 H1703 H 0.47867 1.18950 0.63016
 H1704 H 0.47092 1.15304 0.61714
 H1705 H 0.52575 1.15942 0.57645
 H1706 H 0.53393 1.19526 0.58971
 H1707 H 0.51594 1.11597 0.53501
 H1708 H 0.51107 1.08141 0.51795
 H1709 H 0.47006 1.05889 0.56769
 H1710 H 0.47502 1.09400 0.58455
 C1711 C 0.03222 0.69261 1.10609
 C1712 C 0.03191 0.67042 1.10347
 C1713 C 0.01425 0.65778 1.11064
 C1714 C -0.00254 0.66747 1.12124
 C1715 C -0.00211 0.68969 1.12410
 C1716 C 0.01502 0.70240 1.11609
 N1717 N 0.01184 0.63569 1.10506
 N1718 N 0.02695 0.62627 1.09578
 C1719 C 0.02405 0.60528 1.08733
 C1720 C 0.04106 0.59699 1.07603
 C1721 C 0.03757 0.57881 1.06391
 C1722 C 0.01691 0.56864 1.06298
 C1723 C 0.00023 0.57612 1.07550
 C1724 C 0.00375 0.59442 1.08757
 H1725 H 0.04574 0.70216 1.10011
 H1726 H 0.04505 0.66329 1.09513
 H1727 H -0.01632 0.65789 1.12662
 H1728 H -0.01557 0.69702 1.13180
 H1729 H 0.05672 0.60534 1.07572
 H1730 H 0.05089 0.57322 1.05472
 H1731 H -0.01579 0.56847 1.07527
 H1732 H -0.00965 0.60065 1.09622
 C1733 C 0.50771 0.68986 -0.11588
 C1734 C 0.51534 0.66965 -0.11077
 C1735 C 0.52614 0.66656 -0.09224
 C1736 C 0.53020 0.68415 -0.07919
 C1737 C 0.52265 0.70435 -0.08422
 C1738 C 0.51078 0.70753 -0.10243
 N1739 N 0.53059 0.64517 -0.08592
 N1740 N 0.53760 0.64142 -0.06799
 C1741 C 0.53981 0.62015 -0.06035
 C1742 C 0.54226 0.61754 -0.03924
 C1743 C 0.53995 0.59722 -0.03052
 C1744 C 0.53566 0.57917 -0.04294
 C1745 C 0.53493 0.58149 -0.06430
 C1746 C 0.53675 0.60198 -0.07300
 H1747 H 0.49832 0.69090 -0.12980
 H1748 H 0.51191 0.65611 -0.12083
 H1749 H 0.53875 0.68221 -0.06483
 H1750 H 0.52645 0.71743 -0.07376
 H1751 H 0.54458 0.63146 -0.02941
 H1752 H 0.54078 0.59566 -0.01401
 H1753 H 0.53162 0.56770 -0.07409
 H1754 H 0.53485 0.60370 -0.08940
 C1755 C 0.01628 1.19502 0.39027
 C1756 C 0.01984 1.17452 0.39798
 C1757 C 0.01555 1.16988 0.41851
 C1758 C 0.00730 1.18586 0.43129
 C1759 C 0.00368 1.20629 0.42359
 C1760 C 0.00836 1.21119 0.40303
 N1761 N 0.01920 1.14876 0.42602
 N1762 N 0.01644 1.14421 0.44481
 C1763 C 0.01910 1.12310 0.45267
 C1764 C 0.02546 1.10607 0.44009
 C1765 C 0.02595 1.08523 0.44791
 C1766 C 0.01991 1.08118 0.46831
 C1767 C 0.01437 1.09846 0.48098
 C1768 C 0.01404 1.11925 0.47318
 H1769 H 0.02016 1.19819 0.37448
 H1770 H 0.02609 1.16226 0.38798
 H1771 H 0.00356 1.18256 0.44719
 H1772 H -0.00297 1.21819 0.43373
 H1773 H 0.02951 1.10878 0.42415
 H1774 H 0.03026 1.07222 0.43780
 H1775 H 0.00983 1.09588 0.49682
 H1776 H 0.00918 1.13231 0.48296
 C1777 C 0.74299 0.69361 0.94899
 C1778 C 0.73950 0.70685 0.93214
 C1779 C 0.75444 0.70788 0.91614
 C1780 C 0.77338 0.69584 0.91748
 C1781 C 0.77683 0.68232 0.93431
 C1782 C 0.76147 0.68077 0.95022
 N1783 N 0.74915 0.71982 0.89808
 N1784 N 0.76290 0.72329 0.88389
 C1785 C 0.75755 0.73349 0.86492
 C1786 C 0.77408 0.73678 0.85060
 C1787 C 0.76920 0.74302 0.83066
 C1788 C 0.74762 0.74619 0.82462
 C1789 C 0.73109 0.74451 0.83934
 C1790 C 0.73602 0.73810 0.85944
 H1791 H 0.73073 0.69271 0.96084
 H1792 H 0.72478 0.71591 0.93130
 H1793 H 0.78512 0.69623 0.90517
 H1794 H 0.79112 0.67271 0.93427
 H1795 H 0.79069 0.73330 0.85459
 H1796 H 0.78222 0.74418 0.81956
 H1797 H 0.71432 0.74658 0.83496
 H1798 H 0.72293 0.73562 0.87028
 C1799 C 0.28017 0.17442 0.43687
 C1800 C 0.27973 0.18601 0.41855
 C1801 C 0.26251 0.19938 0.41404
 C1802 C 0.24613 0.20199 0.42861
 C1803 C 0.24664 0.19059 0.44708
 C1804 C 0.26328 0.17606 0.45125
 N1805 N 0.26151 0.20873 0.39402
 N1806 N 0.24574 0.21970 0.38757
 C1807 C 0.24527 0.22725 0.36677
 C1808 C 0.22714 0.23804 0.35936
 C1809 C 0.22545 0.24329 0.33847
 C1810 C 0.24185 0.23754 0.32475
 C1811 C 0.26040 0.22765 0.33248
 C1812 C 0.26212 0.22262 0.35318
 H1813 H 0.29354 0.16391 0.43912
 H1814 H 0.29251 0.18394 0.40742
 H1815 H 0.23268 0.21233 0.42552
 H1816 H 0.23347 0.19242 0.45784
 H1817 H 0.21400 0.24174 0.36964
 H1818 H 0.21099 0.25089 0.33292
 H1819 H 0.27347 0.22330 0.32237
 H1820 H 0.27639 0.21445 0.35839
 C1821 C 0.72473 0.31732 0.44960
 C1822 C 0.72387 0.30504 0.43166
 C1823 C 0.74269 0.29643 0.42354
 C1824 C 0.76238 0.29925 0.43419
 C1825 C 0.76328 0.31153 0.45219
 C1826 C 0.74467 0.32170 0.45963
 N1827 N 0.74147 0.28639 0.40378
 N1828 N 0.75760 0.27801 0.39496
 C1829 C 0.75581 0.26996 0.37437
 C1830 C 0.77381 0.26084 0.36496
 C1831 C 0.77324 0.25556 0.34403
 C1832 C 0.75470 0.25970 0.33224
 C1833 C 0.73637 0.26785 0.34197
 C1834 C 0.73685 0.27281 0.36280
 H1835 H 0.70966 0.32334 0.45532
 H1836 H 0.70851 0.30263 0.42377
 H1837 H 0.77713 0.29250 0.42835
 H1838 H 0.77872 0.31362 0.46000
 H1839 H 0.78856 0.25858 0.37365
 H1840 H 0.78762 0.24939 0.33687
 H1841 H 0.72180 0.27104 0.33329
 H1842 H 0.72266 0.27973 0.36962
 C1843 C 0.23475 0.83497 0.94305
 C1844 C 0.23695 0.82576 0.92378
 C1845 C 0.24519 0.80526 0.92163
 C1846 C 0.25061 0.79355 0.93919
 C1847 C 0.24835 0.80279 0.95873
 C1848 C 0.24036 0.82374 0.96093
 N1849 N 0.24944 0.79803 0.90126
 N1850 N 0.25599 0.77951 0.89630
 C1851 C 0.26048 0.77525 0.87510
 C1852 C 0.26030 0.75411 0.86752
 C1853 C 0.26220 0.75029 0.84635
 C1854 C 0.26443 0.76765 0.83262
 C1855 C 0.26615 0.78863 0.84057
 C1856 C 0.26416 0.79238 0.86146
 H1857 H 0.22962 0.85144 0.94381
 H1858 H 0.23305 0.83505 0.91031
 H1859 H 0.25740 0.77777 0.93779
 H1860 H 0.25386 0.79390 0.97188
 H1861 H 0.25772 0.74070 0.87786
 H1862 H 0.26091 0.73395 0.84066
 H1863 H 0.26833 0.80236 0.83053
 H1864 H 0.26494 0.80883 0.86688
 C1865 C 0.24603 0.80598 0.04171
 C1866 C 0.24374 0.79680 0.06117
 C1867 C 0.23810 0.80930 0.07799
 C1868 C 0.23511 0.83139 0.07515
 C1869 C 0.23746 0.84069 0.05571
 C1870 C 0.24268 0.82813 0.03843
 N1871 N 0.23595 0.79934 0.09777
 N1872 N 0.23043 0.80991 0.11355
 C1873 C 0.22879 0.80069 0.13366
 C1874 C 0.22493 0.81439 0.15015
 C1875 C 0.22539 0.80671 0.17021
 C1876 C 0.22944 0.78500 0.17424
 C1877 C 0.23213 0.77089 0.15765
 C1878 C 0.23197 0.77872 0.13745
 H1879 H 0.25098 0.79555 0.02944
 H1880 H 0.24646 0.77981 0.06315
 H1881 H 0.23080 0.84150 0.08793
 H1882 H 0.23430 0.85759 0.05450
 H1883 H 0.22237 0.83129 0.14747
 H1884 H 0.22319 0.81794 0.18268
 H1885 H 0.23547 0.75414 0.16034
 H1886 H 0.23491 0.76779 0.12491
 C1887 C 0.75545 0.30808 0.53885
 C1888 C 0.75353 0.29895 0.55836
 C1889 C 0.74695 0.31120 0.57502
 C1890 C 0.74277 0.33306 0.57200
 C1891 C 0.74476 0.34232 0.55249
 C1892 C 0.75080 0.32991 0.53537
 N1893 N 0.74486 0.30114 0.59477
 N1894 N 0.73879 0.31142 0.61053
 C1895 C 0.73707 0.30194 0.63053
 C1896 C 0.73324 0.31543 0.64719
 C1897 C 0.73349 0.30745 0.66715
 C1898 C 0.73722 0.28562 0.67091
 C1899 C 0.73988 0.27173 0.65416
 C1900 C 0.73998 0.27987 0.63406
 H1901 H 0.76105 0.29786 0.52667
 H1902 H 0.75718 0.28218 0.56048
 H1903 H 0.73769 0.34295 0.58467
 H1904 H 0.74047 0.35894 0.55098
 H1905 H 0.73087 0.33241 0.64472
 H1906 H 0.73134 0.31851 0.67976
 H1907 H 0.74297 0.25489 0.65666
 H1908 H 0.74285 0.26908 0.62139
 C1909 C 0.24149 0.16244 0.54278
 C1910 C 0.23993 0.17142 0.56235
 C1911 C 0.25264 0.18955 0.56786
 C1912 C 0.26710 0.19865 0.55350
 C1913 C 0.26864 0.18972 0.53386
 C1914 C 0.25579 0.17152 0.52827
 N1915 N 0.25046 0.19815 0.58812
 N1916 N 0.26153 0.21429 0.59489
 C1917 C 0.25865 0.22194 0.61548
 C1918 C 0.27240 0.23836 0.62335
 C1919 C 0.27061 0.24500 0.64386
 C1920 C 0.25498 0.23523 0.65678
 C1921 C 0.24076 0.21933 0.64850
 C1922 C 0.24257 0.21277 0.62818
 H1923 H 0.23114 0.14867 0.53890
 H1924 H 0.22869 0.16427 0.57329
 H1925 H 0.27716 0.21261 0.55743
 H1926 H 0.28005 0.19692 0.52314
 H1927 H 0.28485 0.24566 0.61373
 H1928 H 0.28184 0.25723 0.64976
 H1929 H 0.22836 0.21156 0.65787
 H1930 H 0.23157 0.20022 0.62253
 C1931 C 0.74536 0.65659 0.04071
 C1932 C 0.74363 0.66401 0.06088
 C1933 C 0.75419 0.68321 0.06700
 C1934 C 0.76681 0.69486 0.05275
 C1935 C 0.76855 0.68749 0.03262
 C1936 C 0.75767 0.66837 0.02631
 N1937 N 0.75180 0.69046 0.08769
 N1938 N 0.76074 0.70780 0.09443
 C1939 C 0.75808 0.71454 0.11529
 C1940 C 0.76928 0.73299 0.12249
 C1941 C 0.76762 0.73927 0.14307
 C1942 C 0.75465 0.72710 0.15674
 C1943 C 0.74301 0.70892 0.14922
 C1944 C 0.74471 0.70271 0.12879
 H1945 H 0.73664 0.64195 0.03630
 H1946 H 0.73386 0.65488 0.07175
 H1947 H 0.77528 0.70965 0.05715
 H1948 H 0.77855 0.69671 0.02201
 H1949 H 0.77961 0.74230 0.11222
 H1950 H 0.77684 0.75330 0.14836
 H1951 H 0.73275 0.69919 0.15921
 H1952 H 0.73575 0.68848 0.12363
 C1953 C 0.15734 0.54388 0.26192
 C1954 C 0.17025 0.56280 0.26206
 C1955 C 0.16465 0.58044 0.25007
 C1956 C 0.14584 0.57892 0.23791
 C1957 C 0.13282 0.56011 0.23788
 C1958 C 0.13853 0.54206 0.24963
 N1959 N 0.17766 0.59996 0.25124
 N1960 N 0.17442 0.61602 0.23963
 C1961 C 0.18686 0.63585 0.24130
 C1962 C 0.18371 0.65212 0.22687
 C1963 C 0.19493 0.67197 0.22856
 C1964 C 0.20937 0.67602 0.24495
 C1965 C 0.21265 0.65952 0.25929
 C1966 C 0.20159 0.63964 0.25746
 H1967 H 0.16188 0.53074 0.27174
 H1968 H 0.18453 0.56382 0.27177
 H1969 H 0.14087 0.59247 0.22884
 H1970 H 0.11798 0.56028 0.22909
 H1971 H 0.17237 0.64946 0.21435
 H1972 H 0.19200 0.68425 0.21723
 H1973 H 0.22368 0.66198 0.27208
 H1974 H 0.20430 0.62739 0.26887
 C1975 C 0.65023 0.05058 0.76615
 C1976 C 0.66283 0.06969 0.76676
 C1977 C 0.66487 0.08277 0.74940
 C1978 C 0.65506 0.07587 0.73102
 C1979 C 0.64257 0.05670 0.73034
 C1980 C 0.63898 0.04424 0.74819
 N1981 N 0.67664 0.10301 0.75099
 N1982 N 0.67771 0.11665 0.73643
 C1983 C 0.68924 0.13700 0.73855
 C1984 C 0.68928 0.15175 0.72230
 C1985 C 0.70007 0.17186 0.72416
 C1986 C 0.71108 0.17758 0.74238
 C1987 C 0.71102 0.16263 0.75860
 C1988 C 0.70025 0.14264 0.75672
 H1989 H 0.64884 0.04101 0.77994
 H1990 H 0.67069 0.07454 0.78096
 H1991 H 0.65692 0.08534 0.71721
 H1992 H 0.63585 0.05190 0.71569
 H1993 H 0.68082 0.14768 0.70819
 H1994 H 0.69972 0.18292 0.71138
 H1995 H 0.71929 0.16633 0.77289
 H1996 H 0.70051 0.13163 0.76954
 C1997 C 0.85034 0.04736 0.26961
 C1998 C 0.83996 0.06701 0.27100
 C1999 C 0.84116 0.08172 0.25486
 C2000 C 0.85221 0.07615 0.23691
 C2001 C 0.86266 0.05655 0.23551
 C2002 C 0.86260 0.04211 0.25217
 N2003 N 0.83125 0.10220 0.25705
 N2004 N 0.83193 0.11609 0.24275
 C2005 C 0.82232 0.13673 0.24439
 C2006 C 0.82185 0.14976 0.22699
 C2007 C 0.81191 0.16962 0.22758
 C2008 C 0.80240 0.17701 0.24575
 C2009 C 0.80348 0.16420 0.26346
 C2010 C 0.81327 0.14413 0.26276
 H2011 H 0.84930 0.03642 0.28249
 H2012 H 0.83120 0.07090 0.28481
 H2013 H 0.85298 0.08703 0.22400
 H2014 H 0.87064 0.05304 0.22128
 H2015 H 0.82888 0.14430 0.21279
 H2016 H 0.81149 0.17910 0.21369
 H2017 H 0.79623 0.16939 0.27765
 H2018 H 0.81357 0.13437 0.27647
 C2019 C 0.34913 0.55079 0.77406
 C2020 C 0.33636 0.56895 0.77535
 C2021 C 0.33184 0.58093 0.75784
 C2022 C 0.33950 0.57393 0.73877
 C2023 C 0.35243 0.55588 0.73747
 C2024 C 0.35830 0.54457 0.75526
 N2025 N 0.32016 0.60044 0.75986
 N2026 N 0.31482 0.61141 0.74430
 C2027 C 0.30405 0.63145 0.74581
 C2028 C 0.29733 0.64131 0.72777
 C2029 C 0.28773 0.66133 0.72835
 C2030 C 0.28477 0.67209 0.74709
 C2031 C 0.29137 0.66205 0.76530
 C2032 C 0.30088 0.64185 0.76468
 H2033 H 0.35238 0.54193 0.78794
 H2034 H 0.33026 0.57391 0.79010
 H2035 H 0.33583 0.58263 0.72490
 H2036 H 0.35774 0.55101 0.72247
 H2037 H 0.29977 0.63352 0.71314
 H2038 H 0.28298 0.66851 0.71398
 H2039 H 0.28936 0.66987 0.77998
 H2040 H 0.30607 0.63455 0.77885
 C2041 C 0.35129 0.45840 0.76997
 C2042 C 0.34117 0.43808 0.76846
 C2043 C 0.34699 0.42372 0.75303
 C2044 C 0.36378 0.42967 0.73946
 C2045 C 0.37420 0.44999 0.74116
 C2046 C 0.36778 0.46466 0.75623
 N2047 N 0.33515 0.40356 0.75157
 N2048 N 0.33693 0.39011 0.73695
 C2049 C 0.32413 0.37036 0.73681
 C2050 C 0.32521 0.35606 0.72018
 C2051 C 0.31275 0.33673 0.72002
 C2052 C 0.29913 0.33136 0.73663
 C2053 C 0.29803 0.34591 0.75312
 C2054 C 0.31029 0.36508 0.75321
 H2055 H 0.34599 0.46941 0.78167
 H2056 H 0.32831 0.43368 0.77905
 H2057 H 0.36858 0.41881 0.72743
 H2058 H 0.38653 0.45458 0.73016
 H2059 H 0.33575 0.35987 0.70737
 H2060 H 0.31404 0.32586 0.70713
 H2061 H 0.28765 0.34251 0.76615
 H2062 H 0.30898 0.37573 0.76625
 C2063 C 0.84009 0.95969 0.25423
 C2064 C 0.82893 0.94000 0.25188
 C2065 C 0.83965 0.92180 0.24532
 C2066 C 0.86209 0.92336 0.24171
 C2067 C 0.87351 0.94306 0.24453
 C2068 C 0.86262 0.96182 0.25041
 N2069 N 0.82729 0.90198 0.24337
 N2070 N 0.83365 0.88552 0.23370
 C2071 C 0.82046 0.86603 0.23304
 C2072 C 0.82563 0.84936 0.21954
 C2073 C 0.81329 0.82998 0.21932
 C2074 C 0.79584 0.82688 0.23293
 C2075 C 0.79053 0.84377 0.24617
 C2076 C 0.80256 0.86313 0.24614
 H2077 H 0.83087 0.97302 0.25975
 H2078 H 0.81171 0.93892 0.25515
 H2079 H 0.87079 0.90937 0.23692
 H2080 H 0.89069 0.94343 0.24134
 H2081 H 0.83936 0.85130 0.20933
 H2082 H 0.81787 0.81716 0.20910
 H2083 H 0.77715 0.84191 0.25681
 H2084 H 0.79814 0.87564 0.25675
 C2085 C 0.61905 0.94842 0.76453
 C2086 C 0.62636 0.92738 0.76636
 C2087 C 0.64327 0.92024 0.75402
 C2088 C 0.65312 0.93470 0.74006
 C2089 C 0.64612 0.95588 0.73852
 C2090 C 0.62887 0.96290 0.75061
 N2091 N 0.65006 0.89836 0.75576
 N2092 N 0.66144 0.88983 0.74185
 C2093 C 0.66901 0.86822 0.74259
 C2094 C 0.67729 0.85951 0.72462
 C2095 C 0.68564 0.83893 0.72445
 C2096 C 0.68633 0.82648 0.74245
 C2097 C 0.67788 0.83517 0.76062
 C2098 C 0.66909 0.85585 0.76066
 H2099 H 0.60592 0.95348 0.77424
 H2100 H 0.61863 0.91652 0.77724
 H2101 H 0.66631 0.92968 0.73041
 H2102 H 0.65395 0.96667 0.72764
 H2103 H 0.67739 0.86884 0.71063
 H2104 H 0.69212 0.83304 0.71017
 H2105 H 0.67822 0.82610 0.77475
 H2106 H 0.66286 0.86232 0.77480
 C2107 C 0.12175 0.44525 0.26793
 C2108 C 0.12977 0.42442 0.26909
 C2109 C 0.14678 0.41822 0.25638
 C2110 C 0.15585 0.43333 0.24258
 C2111 C 0.14804 0.45421 0.24161
 C2112 C 0.13086 0.46040 0.25422
 N2113 N 0.15457 0.39666 0.25762
 N2114 N 0.16774 0.38962 0.24437
 C2115 C 0.17634 0.36842 0.24461
 C2116 C 0.18804 0.36188 0.22753
 C2117 C 0.19707 0.34162 0.22687
 C2118 C 0.19489 0.32732 0.24349
 C2119 C 0.18321 0.33390 0.26082
 C2120 C 0.17384 0.35429 0.26133
 H2121 H 0.10868 0.44962 0.27803
 H2122 H 0.12263 0.41304 0.27983
 H2123 H 0.16902 0.42904 0.23258
 H2124 H 0.15526 0.46543 0.23076
 H2125 H 0.19017 0.37261 0.21460
 H2126 H 0.20609 0.33731 0.21333
 H2127 H 0.18124 0.32331 0.27387
 H2128 H 0.16492 0.35906 0.27477
 C2129 C 0.05931 0.21818 0.86787
 C2130 C 0.07775 0.21732 0.85560
 C2131 C 0.08083 0.23183 0.83952
 C2132 C 0.06500 0.24692 0.83531
 C2133 C 0.04659 0.24783 0.84750
 C2134 C 0.04363 0.23379 0.86423
 N2135 N 0.10061 0.23157 0.82830
 N2136 N 0.10471 0.24496 0.81405
 C2137 C 0.12493 0.24520 0.80352
 C2138 C 0.12866 0.26031 0.78802
 C2139 C 0.14867 0.26151 0.77809
 C2140 C 0.16524 0.24756 0.78365
 C2141 C 0.16130 0.23228 0.79914
 C2142 C 0.14133 0.23110 0.80897
 H2143 H 0.05780 0.20663 0.88008
 H2144 H 0.08989 0.20555 0.85885
 H2145 H 0.06700 0.25825 0.82284
 H2146 H 0.03471 0.25983 0.84410
 H2147 H 0.11609 0.27129 0.78379
 H2148 H 0.15119 0.27344 0.76621
 H2149 H 0.17367 0.22124 0.80375
 H2150 H 0.13881 0.21930 0.82097
 C2151 C 0.55242 0.70254 0.35728
 C2152 C 0.57234 0.70169 0.34714
 C2153 C 0.58179 0.72032 0.33867
 C2154 C 0.57139 0.73994 0.34069
 C2155 C 0.55174 0.74086 0.35088
 C2156 C 0.54180 0.72220 0.35914
 N2157 N 0.60196 0.71924 0.32809
 N2158 N 0.60906 0.73535 0.31794
 C2159 C 0.62925 0.73569 0.30744
 C2160 C 0.63430 0.75328 0.29494
 C2161 C 0.65399 0.75448 0.28459
 C2162 C 0.66903 0.73812 0.28683
 C2163 C 0.66398 0.72048 0.29955
 C2164 C 0.64411 0.71920 0.30974
 H2165 H 0.54576 0.68779 0.36362
 H2166 H 0.58036 0.68651 0.34577
 H2167 H 0.57848 0.75466 0.33450
 H2168 H 0.54419 0.75629 0.35234
 H2169 H 0.62290 0.76608 0.29321
 H2170 H 0.65750 0.76833 0.27499
 H2171 H 0.67525 0.70759 0.30146
 H2172 H 0.64046 0.70551 0.31946
 C2173 C 0.55306 0.27143 0.12706
 C2174 C 0.57365 0.27333 0.13586
 C2175 C 0.57883 0.26090 0.15284
 C2176 C 0.56319 0.24649 0.16103
 C2177 C 0.54257 0.24461 0.15231
 C2178 C 0.53708 0.25734 0.13538
 N2179 N 0.60019 0.26270 0.16127
 N2180 N 0.60578 0.25078 0.17602
 C2181 C 0.62693 0.25193 0.18486
 C2182 C 0.63158 0.23773 0.20064
 C2183 C 0.65199 0.23823 0.20976
 C2184 C 0.66816 0.25308 0.20321
 C2185 C 0.66345 0.26739 0.18727
 C2186 C 0.64293 0.26681 0.17811
 H2187 H 0.54964 0.28086 0.11356
 H2188 H 0.58569 0.28428 0.12928
 H2189 H 0.56695 0.23646 0.17402
 H2190 H 0.53140 0.23274 0.15864
 H2191 H 0.61929 0.22623 0.20589
 H2192 H 0.65501 0.22700 0.22203
 H2193 H 0.67556 0.27899 0.18189
 H2194 H 0.63957 0.27795 0.16586
 C2195 C 0.03330 0.77702 0.67835
 C2196 C 0.05135 0.78075 0.69096
 C2197 C 0.07012 0.79073 0.68310
 C2198 C 0.07015 0.79843 0.66293
 C2199 C 0.05227 0.79459 0.65026
 C2200 C 0.03375 0.78328 0.65762
 N2201 N 0.08983 0.78973 0.69453
 N2202 N 0.10777 0.79640 0.68697
 C2203 C 0.12801 0.79288 0.69684
 C2204 C 0.14706 0.80041 0.68739
 C2205 C 0.16724 0.79468 0.69500
 C2206 C 0.16858 0.78116 0.71217
 C2207 C 0.14937 0.77415 0.72199
 C2208 C 0.12924 0.77998 0.71439
 H2209 H 0.01950 0.76797 0.68442
 H2210 H 0.05123 0.77456 0.70646
 H2211 H 0.08456 0.80610 0.65647
 H2212 H 0.05395 0.79931 0.63445
 H2213 H 0.14623 0.81020 0.67372
 H2214 H 0.18174 0.80049 0.68719
 H2215 H 0.14985 0.76395 0.73539
 H2216 H 0.11467 0.77385 0.72186
 C2217 C 0.94521 0.78831 0.65193
 C2218 C 0.92315 0.78884 0.65664
 C2219 C 0.90950 0.77096 0.65269
 C2220 C 0.91798 0.75264 0.64349
 C2221 C 0.93998 0.75212 0.63875
 C2222 C 0.95386 0.76981 0.64314
 N2223 N 0.88753 0.77126 0.65947
 N2224 N 0.87446 0.75521 0.65725
 C2225 C 0.85305 0.75535 0.66556
 C2226 C 0.83991 0.73665 0.66454
 C2227 C 0.82007 0.73552 0.67489
 C2228 C 0.81325 0.75316 0.68645
 C2229 C 0.82602 0.77224 0.68654
 C2230 C 0.84571 0.77334 0.67619
 H2231 H 0.95548 0.80232 0.65518
 H2232 H 0.91675 0.80303 0.66378
 H2233 H 0.90774 0.73856 0.64042
 H2234 H 0.94620 0.73758 0.63229
 H2235 H 0.84543 0.72268 0.65637
 H2236 H 0.81052 0.72064 0.67448
 H2237 H 0.82108 0.78623 0.69503
 H2238 H 0.85550 0.78805 0.67708
 C2239 C 0.44076 0.22427 0.12345
 C2240 C 0.41983 0.22141 0.13139
 C2241 C 0.41483 0.22983 0.15062
 C2242 C 0.43129 0.23995 0.16242
 C2243 C 0.45213 0.24270 0.15458
 C2244 C 0.45691 0.23536 0.13481
 N2245 N 0.39279 0.22951 0.15736
 N2246 N 0.38740 0.24124 0.17234
 C2247 C 0.36578 0.24230 0.17983
 C2248 C 0.36183 0.25681 0.19558
 C2249 C 0.34107 0.25842 0.20360
 C2250 C 0.32384 0.24537 0.19601
 C2251 C 0.32780 0.23091 0.17994
 C2252 C 0.34869 0.22941 0.17184
 H2253 H 0.44415 0.21830 0.10826
 H2254 H 0.40730 0.21350 0.12220
 H2255 H 0.42787 0.24646 0.17742
 H2256 H 0.46412 0.25164 0.16356
 H2257 H 0.37495 0.26684 0.20172
 H2258 H 0.33867 0.26971 0.21597
 H2259 H 0.31488 0.22063 0.17379
 H2260 H 0.35150 0.21812 0.15956
 C2261 C 0.45202 0.76284 0.36602
 C2262 C 0.43349 0.77041 0.35635
 C2263 C 0.42895 0.76482 0.33600
 C2264 C 0.44349 0.75216 0.32512
 C2265 C 0.46189 0.74451 0.33476
 C2266 C 0.46615 0.74948 0.35540
 N2267 N 0.40862 0.77040 0.32725
 N2268 N 0.40368 0.76503 0.30900
 C2269 C 0.38276 0.76845 0.30044
 C2270 C 0.37827 0.76056 0.28080
 C2271 C 0.35720 0.76071 0.27302
 C2272 C 0.34025 0.76885 0.28486
 C2273 C 0.34505 0.77777 0.30422
 C2274 C 0.36615 0.77752 0.31200
 H2275 H 0.45514 0.76726 0.38183
 H2276 H 0.42236 0.78014 0.36488
 H2277 H 0.44026 0.74749 0.30940
 H2278 H 0.47226 0.73399 0.32624
 H2279 H 0.39100 0.75349 0.27183
 H2280 H 0.35411 0.75391 0.25798
 H2281 H 0.33240 0.78427 0.31368
 H2282 H 0.36931 0.78370 0.32726
 C2283 C 0.94786 0.25203 0.87620
 C2284 C 0.92872 0.25574 0.86555
 C2285 C 0.92511 0.24663 0.84629
 C2286 C 0.94042 0.23287 0.83802
 C2287 C 0.95956 0.22897 0.84867
 C2288 C 0.96392 0.23891 0.86776
 N2289 N 0.90599 0.25201 0.83532
 N2290 N 0.90261 0.24606 0.81693
 C2291 C 0.88330 0.25162 0.80629
 C2292 C 0.87943 0.24321 0.78672
 C2293 C 0.85994 0.24708 0.77663
 C2294 C 0.84405 0.25952 0.78603
 C2295 C 0.84846 0.26873 0.80533
 C2296 C 0.86790 0.26479 0.81539
 H2297 H 0.95026 0.26074 0.89038
 H2298 H 0.91694 0.26639 0.87203
 H2299 H 0.93771 0.22530 0.82325
 H2300 H 0.97076 0.21801 0.84182
 H2301 H 0.89128 0.23314 0.77954
 H2302 H 0.85708 0.23980 0.76175
 H2303 H 0.83663 0.27842 0.81300
 H2304 H 0.87065 0.27164 0.83046
 C2305 C 0.55753 0.99164 0.71629
 C2306 C 0.54337 0.98921 0.69939
 C2307 C 0.55008 0.99569 0.67973
 C2308 C 0.57144 1.00365 0.67707
 C2309 C 0.58547 1.00591 0.69371
 C2310 C 0.57858 1.00054 0.71362
 N2311 N 0.53539 0.99427 0.66255
 N2312 N 0.54026 1.00412 0.64601
 C2313 C 0.52789 1.00325 0.62738
 C2314 C 0.53593 1.01507 0.61071
 C2315 C 0.52642 1.01284 0.59141
 C2316 C 0.50844 0.99889 0.58844
 C2317 C 0.49956 0.98772 0.60530
 C2318 C 0.50929 0.98985 0.62476
 H2319 H 0.55183 0.98726 0.73143
 H2320 H 0.52704 0.98280 0.70171
 H2321 H 0.57735 1.00828 0.66206
 H2322 H 0.60180 1.01213 0.69097
 H2323 H 0.55029 1.02537 0.61253
 H2324 H 0.53366 1.02134 0.57854
 H2325 H 0.48591 0.97658 0.60317
 H2326 H 0.50287 0.98048 0.63744
 C2327 C 0.07508 0.47447 1.21279
 C2328 C 0.06230 0.47003 1.19539
 C2329 C 0.05081 0.48639 1.18583
 C2330 C 0.05138 0.50707 1.19453
 C2331 C 0.06427 0.51155 1.21172
 C2332 C 0.07673 0.49546 1.22066
 N2333 N 0.04064 0.48230 1.16634
 N2334 N 0.02983 0.49653 1.15711
 C2335 C 0.02146 0.49351 1.13674
 C2336 C 0.00923 0.50973 1.12789
 C2337 C 0.00334 0.50872 1.10716
 C2338 C 0.00983 0.49149 1.09486
 C2339 C 0.02129 0.47477 1.10404
 C2340 C 0.02700 0.47573 1.12478
 H2341 H 0.08466 0.46186 1.21931
 H2342 H 0.06208 0.45404 1.18883
 H2343 H 0.04267 0.52001 1.18750
 H2344 H 0.06514 0.52783 1.21763
 H2345 H 0.00496 0.52360 1.13690
 H2346 H -0.00536 0.52192 1.10057
 H2347 H 0.02645 0.46121 1.09504
 H2348 H 0.03650 0.46301 1.13121
 C2349 C -0.06481 0.01201 1.21449
 C2350 C -0.05192 0.00916 1.19725
 C2351 C -0.05286 -0.01024 1.18643
 C2352 C -0.06586 -0.02743 1.19389
 C2353 C -0.07893 -0.02455 1.21121
 C2354 C -0.07914 -0.00449 1.22114
 N2355 N -0.04325 -0.01059 1.16650
 N2356 N -0.04047 -0.02750 1.15594
 C2357 C -0.03335 -0.02551 1.13509
 C2358 C -0.02229 -0.04216 1.12548
 C2359 C -0.01585 -0.04020 1.10489
 C2360 C -0.02118 -0.02187 1.09357
 C2361 C -0.03240 -0.00541 1.10325
 C2362 C -0.03822 -0.00710 1.12377
 H2363 H -0.06442 0.02754 1.22203
 H2364 H -0.04203 0.02254 1.19162
 H2365 H -0.06700 -0.04250 1.18559
 H2366 H -0.08996 -0.03743 1.21588
 H2367 H -0.01855 -0.05653 1.13396
 H2368 H -0.00722 -0.05310 1.09770
 H2369 H -0.03655 0.00896 1.09494
 H2370 H -0.04698 0.00586 1.13071
 C2371 C 0.43036 0.52422 0.71226
 C2372 C 0.44484 0.52251 0.69603
 C2373 C 0.44955 0.50242 0.68789
 C2374 C 0.44050 0.48376 0.69697
 C2375 C 0.42601 0.48546 0.71340
 C2376 C 0.42015 0.50577 0.72066
 N2377 N 0.46155 0.50187 0.66918
 N2378 N 0.46703 0.48470 0.66019
 C2379 C 0.47688 0.48572 0.64030
 C2380 C 0.48409 0.46692 0.63091
 C2381 C 0.49096 0.46728 0.61041
 C2382 C 0.49022 0.48640 0.59909
 C2383 C 0.48388 0.50532 0.60876
 C2384 C 0.47747 0.50506 0.62918
 H2385 H 0.42684 0.54008 0.71797
 H2386 H 0.45182 0.53698 0.68923
 H2387 H 0.44395 0.46803 0.69090
 H2388 H 0.41874 0.47097 0.71977
 H2389 H 0.48364 0.45188 0.63923
 H2390 H 0.49565 0.45248 0.60310
 H2391 H 0.48324 0.52023 0.60024
 H2392 H 0.47199 0.51983 0.63594
 C2393 C 0.43348 0.52931 -0.20664
 C2394 C 0.44845 0.53004 -0.19055
 C2395 C 0.45264 0.51156 -0.17928
 C2396 C 0.44237 0.49190 -0.18501
 C2397 C 0.42736 0.49113 -0.20125
 C2398 C 0.42229 0.51000 -0.21177
 N2399 N 0.46584 0.51366 -0.16119
 N2400 N 0.46997 0.49772 -0.14980
 C2401 C 0.48157 0.49998 -0.13079
 C2402 C 0.48403 0.48167 -0.11874
 C2403 C 0.49211 0.48348 -0.09881
 C2404 C 0.49817 0.50365 -0.09063
 C2405 C 0.49695 0.52198 -0.10299
 C2406 C 0.48861 0.52018 -0.12301
 H2407 H 0.43025 0.54403 -0.21477
 H2408 H 0.45625 0.54525 -0.18637
 H2409 H 0.44534 0.47735 -0.17651
 H2410 H 0.41896 0.47608 -0.20492
 H2411 H 0.47863 0.46607 -0.12446
 H2412 H 0.49274 0.46918 -0.08940
 H2413 H 0.50123 0.53771 -0.09681
 H2414 H 0.48680 0.53461 -0.13203
 C2415 C -0.06454 0.99017 0.28932
 C2416 C -0.05024 0.99083 0.30619
 C2417 C -0.05718 0.99842 0.32530
 C2418 C -0.07898 1.00395 0.32763
 C2419 C -0.09317 1.00315 0.31098
 C2420 C -0.08596 0.99700 0.29149
 N2421 N -0.04213 1.00087 0.34211
 N2422 N -0.04708 1.01228 0.35755
 C2423 C -0.03409 1.01503 0.37568
 C2424 C -0.04253 1.02721 0.39166
 C2425 C -0.03251 1.02769 0.41085
 C2426 C -0.01358 1.01626 0.41434
 C2427 C -0.00413 1.00527 0.39793
 C2428 C -0.01440 1.00455 0.37866
 H2429 H -0.05856 0.98546 0.27444
 H2430 H -0.03357 0.98627 0.30417
 H2431 H -0.08499 1.00936 0.34227
 H2432 H -0.10970 1.00813 0.31319
 H2433 H -0.05767 1.03535 0.38956
 H2434 H -0.04025 1.03598 0.42335
 H2435 H 0.01020 0.99594 0.40044
 H2436 H -0.00761 0.99502 0.36650
 C2437 C 0.06446 0.48845 0.29189
 C2438 C 0.05178 0.48619 0.30967
 C2439 C 0.05878 0.49558 0.32816
 C2440 C 0.07908 0.50646 0.32883
 C2441 C 0.09179 0.50848 0.31128
 C2442 C 0.08448 0.49995 0.29245
 N2443 N 0.04523 0.49446 0.34606
 N2444 N 0.04878 0.50771 0.36065
 C2445 C 0.03727 0.50809 0.37967
 C2446 C 0.04191 0.52531 0.39281
 C2447 C 0.03316 0.52579 0.41240
 C2448 C 0.01955 0.50887 0.41949
 C2449 C 0.01403 0.49188 0.40598
 C2450 C 0.02290 0.49145 0.38611
 H2451 H 0.05826 0.48173 0.27766
 H2452 H 0.03623 0.47766 0.30888
 H2453 H 0.08517 0.51348 0.34299
 H2454 H 0.10742 0.51677 0.31256
 H2455 H 0.05291 0.53821 0.38800
 H2456 H 0.03758 0.53926 0.42223
 H2457 H 0.00365 0.47859 0.41104
 H2458 H 0.01918 0.47792 0.37614
 C2459 C 0.59680 -0.00019 -0.19356
 C2460 C 0.58699 -0.00543 -0.17496
 C2461 C 0.56499 -0.01142 -0.17412
 C2462 C 0.55288 -0.01284 -0.19243
 C2463 C 0.56287 -0.00791 -0.21128
 C2464 C 0.58482 -0.00106 -0.21188
 N2465 N 0.55568 -0.01504 -0.15428
 N2466 N 0.53553 -0.01829 -0.15070
 C2467 C 0.52812 -0.02056 -0.12989
 C2468 C 0.50587 -0.01998 -0.12539
 C2469 C 0.49878 -0.01892 -0.10494
 C2470 C 0.51395 -0.01835 -0.08878
 C2471 C 0.53605 -0.02044 -0.09338
 C2472 C 0.54305 -0.02156 -0.11362
 H2473 H 0.61384 0.00461 -0.19363
 H2474 H 0.59650 -0.00436 -0.16099
 H2475 H 0.53583 -0.01752 -0.19212
 H2476 H 0.55339 -0.00883 -0.22527
 H2477 H 0.49411 -0.01927 -0.13771
 H2478 H 0.48166 -0.01724 -0.10186
 H2479 H 0.54813 -0.02032 -0.08127
 H2480 H 0.56030 -0.02233 -0.11651
 C2481 C 0.70185 0.62701 -0.02300
 C2482 C 0.68367 0.61321 -0.02336
 C2483 C 0.68499 0.59207 -0.01653
 C2484 C 0.70485 0.58492 -0.00872
 C2485 C 0.72332 0.59881 -0.00849
 C2486 C 0.72207 0.61989 -0.01609
 N2487 N 0.66583 0.57852 -0.01811
 N2488 N 0.66395 0.55972 -0.01054
 C2489 C 0.64400 0.54736 -0.01278
 C2490 C 0.63957 0.53017 0.00050
 C2491 C 0.61922 0.51953 0.00017
 C2492 C 0.60308 0.52560 -0.01382
 C2493 C 0.60804 0.54200 -0.02797
 C2494 C 0.62823 0.55290 -0.02735
 H2495 H 0.70007 0.64332 -0.02837
 H2496 H 0.66842 0.61900 -0.02916
 H2497 H 0.70620 0.56860 -0.00326
 H2498 H 0.73865 0.59289 -0.00306
 H2499 H 0.65154 0.52566 0.01176
 H2500 H 0.61589 0.50694 0.01127
 H2501 H 0.59593 0.54718 -0.03881
 H2502 H 0.63130 0.56600 -0.03794
 C2503 C 0.19605 1.13083 0.48069
 C2504 C 0.17729 1.11777 0.48005
 C2505 C 0.17748 1.09668 0.48730
 C2506 C 0.19670 1.08894 0.49597
 C2507 C 0.21565 1.10210 0.49662
 C2508 C 0.21560 1.12302 0.48853
 N2509 N 0.15800 1.08363 0.48522
 N2510 N 0.15603 1.06446 0.49187
 C2511 C 0.13612 1.05210 0.48937
 C2512 C 0.13303 1.03309 0.50054
 C2513 C 0.11313 1.02168 0.49976
 C2514 C 0.09600 1.02887 0.48744
 C2515 C 0.09952 1.04736 0.47542
 C2516 C 0.11933 1.05896 0.47647
 H2517 H 0.19534 1.14702 0.47473
 H2518 H 0.16256 1.12401 0.47355
 H2519 H 0.19721 1.07269 0.50178
 H2520 H 0.23048 1.09565 0.50268
 H2521 H 0.14582 1.02752 0.51045
 H2522 H 0.11097 1.00747 0.50918
 H2523 H 0.08662 1.05342 0.46592
 H2524 H 0.12136 1.07351 0.46752
 C2525 C 0.20360 -0.10442 0.98920
 C2526 C 0.18735 -0.08955 0.99194
 C2527 C 0.17600 -0.08862 1.01042
 C2528 C 0.18185 -0.10218 1.02665
 C2529 C 0.19848 -0.11692 1.02401
 C2530 C 0.20908 -0.11847 1.00507
 N2531 N 0.15794 -0.07465 1.01155
 N2532 N 0.14482 -0.07419 1.02657
 C2533 C 0.12630 -0.06066 1.02612
 C2534 C 0.11076 -0.06232 1.04171
 C2535 C 0.09146 -0.05097 1.04043
 C2536 C 0.08738 -0.03771 1.02346
 C2537 C 0.10348 -0.03539 1.00831
 C2538 C 0.12267 -0.04673 1.00960
 H2539 H 0.21167 -0.10524 0.97451
 H2540 H 0.18303 -0.07920 0.97934
 H2541 H 0.17330 -0.10171 1.04110
 H2542 H 0.20236 -0.12771 1.03639
 H2543 H 0.11328 -0.07299 1.05454
 H2544 H 0.07943 -0.05320 1.05236
 H2545 H 0.10101 -0.02528 0.99507
 H2546 H 0.13441 -0.04501 0.99736
 C2547 C 0.71731 0.40239 0.50264
 C2548 C 0.70038 0.41667 0.50555
 C2549 C 0.67951 0.40898 0.51086
 C2550 C 0.67588 0.38674 0.51350
 C2551 C 0.69263 0.37246 0.51011
 C2552 C 0.71340 0.38016 0.50449
 N2553 N 0.66200 0.42369 0.51213
 N2554 N 0.64427 0.41873 0.52120
 C2555 C 0.62592 0.43245 0.52135
 C2556 C 0.60938 0.42855 0.53566
 C2557 C 0.59037 0.44032 0.53514
 C2558 C 0.58728 0.45592 0.51991
 C2559 C 0.60405 0.46004 0.50571
 C2560 C 0.62330 0.44857 0.50656
 H2561 H 0.73318 0.40858 0.49809
 H2562 H 0.70342 0.43373 0.50335
 H2563 H 0.65990 0.38034 0.51739
 H2564 H 0.68931 0.35533 0.51145
 H2565 H 0.61108 0.41608 0.54705
 H2566 H 0.57769 0.43656 0.54613
 H2567 H 0.60212 0.47191 0.49378
 H2568 H 0.63575 0.45172 0.49520
 C2569 C -0.20169 0.38442 0.51475
 C2570 C -0.18253 0.39707 0.51614
 C2571 C -0.17275 0.40578 0.49852
 C2572 C -0.18283 0.40228 0.47945
 C2573 C -0.20203 0.38976 0.47804
 C2574 C -0.21149 0.38028 0.49562
 N2575 N -0.15252 0.41772 0.50043
 N2576 N -0.14159 0.42454 0.48505
 C2577 C -0.12130 0.43634 0.48747
 C2578 C -0.10937 0.44279 0.47012
 C2579 C -0.08948 0.45428 0.47219
 C2580 C -0.08124 0.45960 0.49174
 C2581 C -0.09334 0.45299 0.50906
 C2582 C -0.11304 0.44153 0.50696
 H2583 H -0.20835 0.37725 0.52855
 H2584 H -0.17498 0.39968 0.53097
 H2585 H -0.17579 0.40903 0.46563
 H2586 H -0.20936 0.38739 0.46309
 H2587 H -0.11549 0.43889 0.45496
 H2588 H -0.08067 0.45909 0.45855
 H2589 H -0.08761 0.45665 0.52441
 H2590 H -0.12181 0.43677 0.52064
 C2591 C 0.29156 -0.11449 0.01865
 C2592 C 0.30970 -0.10029 0.01939
 C2593 C 0.31835 -0.09134 0.00134
 C2594 C 0.30803 -0.09599 -0.01739
 C2595 C 0.28990 -0.10991 -0.01813
 C2596 C 0.28178 -0.11984 -0.00023
 N2597 N 0.33779 -0.07803 0.00221
 N2598 N 0.34812 -0.07254 -0.01395
 C2599 C 0.36763 -0.05935 -0.01351
 C2600 C 0.37983 -0.05676 -0.03149
 C2601 C 0.39938 -0.04465 -0.03139
 C2602 C 0.40692 -0.03466 -0.01328
 C2603 C 0.39428 -0.03692 0.00461
 C2604 C 0.37493 -0.04920 0.00453
 H2605 H 0.28570 -0.12183 0.03269
 H2606 H 0.31741 -0.09673 0.03399
 H2607 H 0.31408 -0.08901 -0.03152
 H2608 H 0.28235 -0.11305 -0.03287
 H2609 H 0.37435 -0.06448 -0.04553
 H2610 H 0.40867 -0.04331 -0.04541
 H2611 H 0.39955 -0.02957 0.01890
 H2612 H 0.36577 -0.05086 0.01859
 C2613 C 0.29757 1.11549 0.51843
 C2614 C 0.31417 1.10180 0.52439
 C2615 C 0.32396 1.08843 0.51001
 C2616 C 0.31667 1.08878 0.48955
 C2617 C 0.30042 1.10268 0.48354
 C2618 C 0.29086 1.11635 0.49785
 N2619 N 0.34178 1.07533 0.51605
 N2620 N 0.34854 1.06075 0.50415
 C2621 C 0.36696 1.04778 0.50813
 C2622 C 0.37090 1.03104 0.49451
 C2623 C 0.38985 1.01944 0.49595
 C2624 C 0.40556 1.02438 0.51107
 C2625 C 0.40118 1.04057 0.52548
 C2626 C 0.38198 1.05226 0.52400
 H2627 H 0.29058 1.12600 0.52972
 H2628 H 0.31959 1.10179 0.54019
 H2629 H 0.32392 1.07871 0.47806
 H2630 H 0.29546 1.10292 0.46761
 H2631 H 0.35949 1.02740 0.48224
 H2632 H 0.39248 1.00697 0.48472
 H2633 H 0.41297 1.04482 0.53724
 H2634 H 0.37929 1.06523 0.53468
 C2635 C -0.19705 0.61742 1.01355
 C2636 C -0.17876 0.60625 1.01998
 C2637 C -0.16252 0.60104 1.00602
 C2638 C -0.16522 0.60659 0.98530
 C2639 C -0.18362 0.61740 0.97879
 C2640 C -0.19971 0.62330 0.99285
 N2641 N -0.14343 0.59033 1.01301
 N2642 N -0.12646 0.59003 1.00191
 C2643 C -0.10684 0.57930 1.00707
 C2644 C -0.08909 0.58240 0.99408
 C2645 C -0.07029 0.57084 0.99681
 C2646 C -0.06869 0.55564 1.01265
 C2647 C -0.08608 0.55324 1.02650
 C2648 C -0.10514 0.56499 1.02370
 H2649 H -0.20872 0.62193 1.02500
 H2650 H -0.17700 0.60213 1.03600
 H2651 H -0.15311 0.60251 0.97407
 H2652 H -0.18518 0.62112 0.96268
 H2653 H -0.09010 0.59340 0.98129
 H2654 H -0.05717 0.57327 0.98597
 H2655 H -0.08539 0.54155 1.03873
 H2656 H -0.11870 0.56233 1.03397
 C2657 C 0.02243 0.70763 0.61998
 C2658 C 0.02295 0.68695 0.61175
 C2659 C 0.00397 0.67698 0.60420
 C2660 C -0.01580 0.68745 0.60578
 C2661 C -0.01640 0.70798 0.61421
 C2662 C 0.00274 0.71854 0.62105
 N2663 N 0.00530 0.65676 0.59406
 N2664 N -0.01043 0.64912 0.58343
 C2665 C -0.00913 0.62917 0.57282
 C2666 C -0.02570 0.62320 0.55912
 C2667 C -0.02454 0.60417 0.54793
 C2668 C -0.00681 0.59071 0.55053
 C2669 C 0.00969 0.59666 0.56452
 C2670 C 0.00860 0.61579 0.57551
 H2671 H 0.03763 0.71528 0.62467
 H2672 H 0.03830 0.67901 0.61052
 H2673 H -0.03074 0.67990 0.60022
 H2674 H -0.03189 0.71553 0.61503
 H2675 H -0.03942 0.63346 0.55696
 H2676 H -0.03757 0.59992 0.53738
 H2677 H 0.02357 0.58663 0.56682
 H2678 H 0.02159 0.62013 0.58607
 C2679 C 0.47609 0.21867 0.06870
 C2680 C 0.47492 0.20247 0.05392
 C2681 C 0.49387 0.19491 0.04516
 C2682 C 0.51380 0.20544 0.04934
 C2683 C 0.51495 0.22206 0.06367
 C2684 C 0.49632 0.22784 0.07462
 N2685 N 0.49289 0.17472 0.03483
 N2686 N 0.50915 0.16261 0.03477
 C2687 C 0.50781 0.14143 0.02641
 C2688 C 0.52343 0.12674 0.03219
 C2689 C 0.52085 0.10509 0.02688
 C2690 C 0.50277 0.09800 0.01530
 C2691 C 0.48765 0.11300 0.00870
 C2692 C 0.49004 0.13454 0.01436
 H2693 H 0.46125 0.22273 0.07627
 H2694 H 0.45943 0.19449 0.05066
 H2695 H 0.52859 0.20012 0.04228
 H2696 H 0.53067 0.22953 0.06682
 H2697 H 0.53713 0.13193 0.04159
 H2698 H 0.53285 0.09389 0.03196
 H2699 H 0.47359 0.10799 -0.00030
 H2700 H 0.47778 0.14567 0.00973
 C2701 C 0.01237 0.21041 0.94141
 C2702 C 0.00832 0.19488 0.95637
 C2703 C -0.01065 0.18204 0.95546
 C2704 C -0.02675 0.18650 0.94090
 C2705 C -0.02292 0.20240 0.92622
 C2706 C -0.00287 0.21356 0.92579
 N2707 N -0.01116 0.16239 0.96661
 N2708 N -0.02364 0.14673 0.96132
 C2709 C -0.02187 0.12605 0.97040
 C2710 C -0.03261 0.10851 0.96109
 C2711 C -0.02808 0.08762 0.96710
 C2712 C -0.01284 0.08405 0.98271
 C2713 C -0.00290 0.10177 0.99273
 C2714 C -0.00731 0.12261 0.98657
 H2715 H 0.02785 0.21912 0.94134
 H2716 H 0.02083 0.19149 0.96750
 H2717 H -0.04158 0.17678 0.94004
 H2718 H -0.03484 0.20473 0.91425
 H2719 H -0.04374 0.11102 0.94850
 H2720 H -0.03623 0.07430 0.95928
 H2721 H 0.00875 0.09957 1.00495
 H2722 H 0.00122 0.13597 0.99397
 C2723 C 0.47013 0.67356 0.38797
 C2724 C 0.46277 0.65560 0.39894
 C2725 C 0.46247 0.65620 0.42034
 C2726 C 0.46695 0.67569 0.43064
 C2727 C 0.47379 0.69381 0.41963
 C2728 C 0.47656 0.69239 0.39840
 N2729 N 0.46201 0.63626 0.43103
 N2730 N 0.46977 0.63484 0.44902
 C2731 C 0.47239 0.61454 0.45865
 C2732 C 0.48463 0.61374 0.47667
 C2733 C 0.49063 0.59400 0.48467
 C2734 C 0.48428 0.57475 0.47474
 C2735 C 0.47125 0.57563 0.45706
 C2736 C 0.46541 0.59536 0.44903
 H2737 H 0.47214 0.67234 0.37153
 H2738 H 0.45942 0.64063 0.39091
 H2739 H 0.46670 0.67645 0.44721
 H2740 H 0.47878 0.70827 0.42785
 H2741 H 0.49025 0.62847 0.48407
 H2742 H 0.50040 0.59386 0.49848
 H2743 H 0.46589 0.56109 0.44916
 H2744 H 0.45600 0.59561 0.43501
 C2745 C 0.48561 0.76256 0.42744
 C2746 C 0.48277 0.78086 0.43954
 C2747 C 0.49683 0.79878 0.43743
 C2748 C 0.51437 0.79785 0.42381
 C2749 C 0.51715 0.77977 0.41175
 C2750 C 0.50260 0.76203 0.41311
 N2751 N 0.49238 0.81832 0.44797
 N2752 N 0.50364 0.83524 0.44403
 C2753 C 0.50004 0.85569 0.45300
 C2754 C 0.51315 0.87302 0.44657
 C2755 C 0.50993 0.89352 0.45424
 C2756 C 0.49346 0.89704 0.46862
 C2757 C 0.48034 0.87951 0.47522
 C2758 C 0.48356 0.85891 0.46738
 H2759 H 0.47427 0.74907 0.42902
 H2760 H 0.46922 0.78134 0.45004
 H2761 H 0.52554 0.81144 0.42187
 H2762 H 0.53011 0.78030 0.40061
 H2763 H 0.52586 0.87061 0.43544
 H2764 H 0.52048 0.90657 0.44895
 H2765 H 0.46758 0.88172 0.48632
 H2766 H 0.47322 0.84563 0.47247
 C2767 C -0.01239 0.28617 0.92351
 C2768 C -0.01703 0.30633 0.93147
 C2769 C -0.01037 0.32497 0.92107
 C2770 C 0.00051 0.32336 0.90229
 C2771 C 0.00505 0.30326 0.89428
 C2772 C -0.00111 0.28450 0.90495
 N2773 N -0.01358 0.34530 0.93048
 N2774 N -0.00561 0.36257 0.92289
 C2775 C -0.00768 0.38273 0.93296
 C2776 C 0.00472 0.40038 0.92602
 C2777 C 0.00521 0.41957 0.93708
 C2778 C -0.00695 0.42133 0.95517
 C2779 C -0.02025 0.40389 0.96151
 C2780 C -0.02054 0.38468 0.95054
 H2781 H -0.01711 0.27199 0.93217
 H2782 H -0.02530 0.30745 0.94603
 H2783 H 0.00572 0.33761 0.89394
 H2784 H 0.01332 0.30242 0.87970
 H2785 H 0.01466 0.39898 0.91246
 H2786 H 0.01542 0.43284 0.93171
 H2787 H -0.02984 0.40478 0.97535
 H2788 H -0.03034 0.37121 0.95611
 C2789 C 0.47335 0.31202 0.11340
 C2790 C 0.46662 0.33130 0.10500
 C2791 C 0.46251 0.33273 0.08399
 C2792 C 0.46284 0.31410 0.07178
 C2793 C 0.46922 0.29472 0.08024
 C2794 C 0.47559 0.29390 0.10083
 N2795 N 0.46233 0.35356 0.07497
 N2796 N 0.46544 0.35609 0.05588
 C2797 C 0.46875 0.37688 0.04711
 C2798 C 0.47650 0.37823 0.02706
 C2799 C 0.48408 0.39786 0.01927
 C2800 C 0.48376 0.41651 0.03143
 C2801 C 0.47478 0.41533 0.05117
 C2802 C 0.46744 0.39562 0.05902
 H2803 H 0.47788 0.31152 0.12943
 H2804 H 0.46644 0.34557 0.11451
 H2805 H 0.45960 0.31486 0.05549
 H2806 H 0.47080 0.28087 0.07034
 H2807 H 0.47769 0.36383 0.01784
 H2808 H 0.49053 0.39835 0.00385
 H2809 H 0.47412 0.42948 0.06081
 H2810 H 0.46154 0.39490 0.07461
 C2811 C 0.01255 0.78621 0.57463
 C2812 C 0.00955 0.79912 0.55749
 C2813 C -0.01003 0.80957 0.55477
 C2814 C -0.02759 0.80479 0.56786
 C2815 C -0.02477 0.79143 0.58474
 C2816 C -0.00430 0.78316 0.58880
 N2817 N -0.00996 0.82802 0.54186
 N2818 N -0.02361 0.84270 0.54438
 C2819 C -0.02145 0.86287 0.53414
 C2820 C -0.03357 0.87994 0.54130
 C2821 C -0.02853 0.90090 0.53505
 C2822 C -0.01143 0.90500 0.52127
 C2823 C -0.00022 0.88765 0.51305
 C2824 C -0.00509 0.86673 0.51954
 H2825 H 0.02841 0.77978 0.57757
 H2826 H 0.02319 0.80278 0.54754
 H2827 H -0.04291 0.81266 0.56594
 H2828 H -0.03792 0.78919 0.59557
 H2829 H -0.04608 0.87714 0.55268
 H2830 H -0.03767 0.91393 0.54140
 H2831 H 0.01290 0.89030 0.50226
 H2832 H 0.00453 0.85373 0.51384
 C2833 C 0.22578 0.32621 0.03366
 C2834 C 0.22220 0.31227 0.05021
 C2835 C 0.23959 0.30195 0.05948
 C2836 C 0.26051 0.30480 0.05130
 C2837 C 0.26411 0.31882 0.03492
 C2838 C 0.24690 0.33023 0.02639
 N2839 N 0.23606 0.29082 0.07843
 N2840 N 0.25105 0.28095 0.08765
 C2841 C 0.24792 0.27210 0.10773
 C2842 C 0.26454 0.26049 0.11687
 C2843 C 0.26309 0.25429 0.13749
 C2844 C 0.24511 0.26003 0.14926
 C2845 C 0.22810 0.27089 0.13978
 C2846 C 0.22942 0.27676 0.11922
 H2847 H 0.21227 0.33471 0.02740
 H2848 H 0.20600 0.31025 0.05642
 H2849 H 0.27423 0.29699 0.05815
 H2850 H 0.28052 0.32131 0.02933
 H2851 H 0.27895 0.25690 0.10822
 H2852 H 0.27643 0.24597 0.14445
 H2853 H 0.21394 0.27531 0.14844
 H2854 H 0.21637 0.28574 0.11258
 C2855 C 0.72558 0.81061 0.52451
 C2856 C 0.72073 0.79646 0.54073
 C2857 C 0.73151 0.79885 0.55957
 C2858 C 0.74639 0.81602 0.56234
 C2859 C 0.75069 0.83045 0.54656
 C2860 C 0.74081 0.82773 0.52718
 N2861 N 0.72666 0.78476 0.57635
 N2862 N 0.74171 0.78000 0.58881
 C2863 C 0.73788 0.76909 0.60777
 C2864 C 0.75542 0.75981 0.61776
 C2865 C 0.75356 0.75315 0.63814
 C2866 C 0.73426 0.75630 0.64896
 C2867 C 0.71633 0.76465 0.63861
 C2868 C 0.71804 0.77078 0.61807
 H2869 H 0.71760 0.80789 0.50993
 H2870 H 0.70894 0.78342 0.53849
 H2871 H 0.75430 0.81859 0.57702
 H2872 H 0.76160 0.84392 0.54988
 H2873 H 0.77088 0.75872 0.61005
 H2874 H 0.76767 0.74694 0.64582
 H2875 H 0.70127 0.76722 0.64666
 H2876 H 0.70440 0.77823 0.61071
 C2877 C 0.22838 0.67699 0.54289
 C2878 C 0.22211 0.68938 0.55966
 C2879 C 0.23730 0.70267 0.56996
 C2880 C 0.25884 0.70388 0.56292
 C2881 C 0.26524 0.69112 0.54643
 C2882 C 0.25013 0.67728 0.53651
 N2883 N 0.23117 0.71264 0.58883
 N2884 N 0.24218 0.72808 0.59695
 C2885 C 0.23740 0.73595 0.61708
 C2886 C 0.24714 0.75534 0.62387
 C2887 C 0.24575 0.76149 0.64450
 C2888 C 0.23507 0.74798 0.65867
 C2889 C 0.22438 0.72912 0.65164
 C2890 C 0.22531 0.72327 0.63100
 H2891 H 0.21648 0.66628 0.53566
 H2892 H 0.20553 0.68811 0.56505
 H2893 H 0.27093 0.71382 0.57079
 H2894 H 0.28209 0.69161 0.54176
 H2895 H 0.25663 0.76521 0.61336
 H2896 H 0.25440 0.77593 0.64964
 H2897 H 0.21619 0.71838 0.66235
 H2898 H 0.21778 0.70814 0.62622
 C2899 C 0.72860 0.17692 0.04002
 C2900 C 0.72454 0.19023 0.05683
 C2901 C 0.74166 0.20105 0.06700
 C2902 C 0.76294 0.19896 0.05965
 C2903 C 0.76701 0.18558 0.04294
 C2904 C 0.74993 0.17409 0.03317
 N2905 N 0.73738 0.21254 0.08560
 N2906 N 0.75253 0.22239 0.09544
 C2907 C 0.74950 0.23250 0.11494
 C2908 C 0.72931 0.23214 0.12504
 C2909 C 0.72792 0.23920 0.14545
 C2910 C 0.74670 0.24645 0.15590
 C2911 C 0.76652 0.24776 0.14542
 C2912 C 0.76784 0.24102 0.12508
 H2913 H 0.71516 0.16806 0.03308
 H2914 H 0.70808 0.19153 0.06237
 H2915 H 0.77651 0.20713 0.06718
 H2916 H 0.78359 0.18392 0.03787
 H2917 H 0.71492 0.22554 0.11753
 H2918 H 0.71257 0.23770 0.15343
 H2919 H 0.78122 0.25302 0.15334
 H2920 H 0.78347 0.24130 0.11754
 C2921 C 0.74891 0.19003 0.96309
 C2922 C 0.75083 0.20350 0.94586
 C2923 C 0.75679 0.19509 0.92678
 C2924 C 0.75940 0.17281 0.92488
 C2925 C 0.75737 0.15945 0.94191
 C2926 C 0.75284 0.16797 0.96133
 N2927 N 0.76055 0.20909 0.90955
 N2928 N 0.77016 0.20211 0.89372
 C2929 C 0.77396 0.21413 0.87531
 C2930 C 0.78349 0.20354 0.85887
 C2931 C 0.78476 0.21316 0.83963
 C2932 C 0.77682 0.23380 0.83652
 C2933 C 0.76863 0.24515 0.85332
 C2934 C 0.76706 0.23531 0.87266
 H2935 H 0.74550 0.19699 0.97791
 H2936 H 0.74852 0.22059 0.94755
 H2937 H 0.76348 0.16572 0.91029
 H2938 H 0.76006 0.14244 0.94001
 H2939 H 0.78889 0.18725 0.86073
 H2940 H 0.79092 0.20403 0.82687
 H2941 H 0.76202 0.26093 0.85115
 H2942 H 0.75964 0.24380 0.88519
 C2943 C 0.25209 0.68987 0.46566
 C2944 C 0.25340 0.70287 0.44808
 C2945 C 0.26258 0.69511 0.42996
 C2946 C 0.26978 0.67390 0.42948
 C2947 C 0.26841 0.66096 0.44689
 C2948 C 0.25997 0.66888 0.46533
 N2949 N 0.26431 0.70869 0.41217
 N2950 N 0.27417 0.70237 0.39622
 C2951 C 0.27594 0.71431 0.37748
 C2952 C 0.28495 0.70414 0.36053
 C2953 C 0.28453 0.71372 0.34124
 C2954 C 0.27544 0.73395 0.33858
 C2955 C 0.26768 0.74490 0.35581
 C2956 C 0.26777 0.73505 0.37520
 H2957 H 0.24561 0.69647 0.47964
 H2958 H 0.24759 0.71911 0.44869
 H2959 H 0.27659 0.66727 0.41566
 H2960 H 0.27415 0.64472 0.44593
 H2961 H 0.29133 0.68819 0.36209
 H2962 H 0.29043 0.70490 0.32816
 H2963 H 0.26024 0.76034 0.35404
 H2964 H 0.26078 0.74325 0.38813
 C2965 C 0.72830 0.81258 0.45647
 C2966 C 0.72466 0.79924 0.43931
 C2967 C 0.73285 0.80530 0.42008
 C2968 C 0.74351 0.82544 0.41799
 C2969 C 0.74688 0.83876 0.43491
 C2970 C 0.73998 0.83225 0.45450
 N2971 N 0.73128 0.79085 0.40291
 N2972 N 0.74538 0.79272 0.38877
 C2973 C 0.74570 0.78058 0.37015
 C2974 C 0.76399 0.78335 0.35780
 C2975 C 0.76437 0.77469 0.33820
 C2976 C 0.74634 0.76302 0.33037
 C2977 C 0.72830 0.75904 0.34313
 C2978 C 0.72792 0.76790 0.36302
 H2979 H 0.72273 0.80711 0.47133
 H2980 H 0.71627 0.78384 0.44118
 H2981 H 0.74951 0.83079 0.40323
 H2982 H 0.75520 0.85413 0.43263
 H2983 H 0.77774 0.79307 0.36315
 H2984 H 0.77858 0.77782 0.32880
 H2985 H 0.71417 0.75019 0.33737
 H2986 H 0.71356 0.76568 0.37237
 C2987 C 0.27223 0.32385 0.94923
 C2988 C 0.27104 0.31122 0.93159
 C2989 C 0.25127 0.30767 0.92144
 C2990 C 0.23231 0.31631 0.92962
 C2991 C 0.23349 0.32912 0.94737
 C2992 C 0.25361 0.33347 0.95702
 N2993 N 0.25164 0.29707 0.90196
 N2994 N 0.23483 0.29102 0.89185
 C2995 C 0.23705 0.28224 0.87160
 C2996 C 0.21924 0.27204 0.86179
 C2997 C 0.22096 0.26483 0.84145
 C2998 C 0.24041 0.26827 0.83059
 C2999 C 0.25829 0.27809 0.84061
 C3000 C 0.25671 0.28482 0.86090
 H3001 H 0.28788 0.32641 0.95656
 H3002 H 0.28574 0.30464 0.92544
 H3003 H 0.21686 0.31389 0.92189
 H3004 H 0.21889 0.33638 0.95297
 H3005 H 0.20395 0.26999 0.86979
 H3006 H 0.20691 0.25744 0.83396
 H3007 H 0.27349 0.28085 0.83260
 H3008 H 0.27072 0.29271 0.86797
 C3009 C 0.85302 0.47493 0.74935
 C3010 C 0.83983 0.45615 0.74870
 C3011 C 0.84662 0.43716 0.75798
 C3012 C 0.86722 0.43693 0.76719
 C3013 C 0.88047 0.45552 0.76763
 C3014 C 0.87336 0.47493 0.75917
 N3015 N 0.83249 0.41837 0.75786
 N3016 N 0.83628 0.40198 0.76888
 C3017 C 0.82270 0.38281 0.76860
 C3018 C 0.82717 0.36606 0.78219
 C3019 C 0.81506 0.34664 0.78150
 C3020 C 0.79834 0.34356 0.76699
 C3021 C 0.79356 0.36065 0.75372
 C3022 C 0.80555 0.38008 0.75456
 H3023 H 0.84695 0.48956 0.74281
 H3024 H 0.82405 0.45655 0.74140
 H3025 H 0.87307 0.42240 0.77412
 H3026 H 0.89629 0.45469 0.77481
 H3027 H 0.84036 0.36793 0.79311
 H3028 H 0.81926 0.33381 0.79184
 H3029 H 0.78074 0.35891 0.74240
 H3030 H 0.80172 0.39274 0.74391
 C3031 C 0.34872 0.97307 0.24328
 C3032 C 0.33398 0.95545 0.24440
 C3033 C 0.34049 0.93572 0.25243
 C3034 C 0.36225 0.93347 0.25820
 C3035 C 0.37696 0.95085 0.25683
 C3036 C 0.37025 0.97107 0.25001
 N3037 N 0.32498 0.91820 0.25470
 N3038 N 0.32904 0.90205 0.26592
 C3039 C 0.31452 0.88373 0.26798
 C3040 C 0.31997 0.86724 0.28150
 C3041 C 0.30739 0.84814 0.28239
 C3042 C 0.28921 0.84515 0.26954
 C3043 C 0.28325 0.86216 0.25664
 C3044 C 0.29574 0.88128 0.25590
 H3045 H 0.34305 0.98841 0.23802
 H3046 H 0.31729 0.95737 0.23966
 H3047 H 0.36787 0.91830 0.26396
 H3048 H 0.39359 0.94855 0.26158
 H3049 H 0.33443 0.86893 0.29090
 H3050 H 0.31255 0.83533 0.29233
 H3051 H 0.26931 0.86043 0.24657
 H3052 H 0.29115 0.89378 0.24536
 C3053 C 0.13606 0.95526 0.73021
 C3054 C 0.15017 0.93861 0.72584
 C3055 C 0.16193 0.92893 0.74154
 C3056 C 0.15942 0.93621 0.76180
 C3057 C 0.14510 0.95264 0.76622
 C3058 C 0.13321 0.96229 0.75048
 N3059 N 0.17554 0.91124 0.73676
 N3060 N 0.18849 0.90362 0.74995
 C3061 C 0.20145 0.88523 0.74619
 C3062 C 0.21589 0.87893 0.76145
 C3063 C 0.22710 0.85984 0.75956
 C3064 C 0.22402 0.84648 0.74229
 C3065 C 0.21025 0.85335 0.72647
 C3066 C 0.19903 0.87257 0.72841
 H3067 H 0.12690 0.96217 0.71780
 H3068 H 0.15180 0.93311 0.71019
 H3069 H 0.16820 0.92895 0.77426
 H3070 H 0.14334 0.95783 0.78195
 H3071 H 0.21794 0.88853 0.77521
 H3072 H 0.23759 0.85518 0.77202
 H3073 H 0.20738 0.84342 0.71304
 H3074 H 0.18792 0.87709 0.71640
 C3075 C 0.63297 0.45431 0.22937
 C3076 C 0.64543 0.43661 0.22394
 C3077 C 0.65736 0.42577 0.23886
 C3078 C 0.65748 0.43360 0.25911
 C3079 C 0.64500 0.45107 0.26452
 C3080 C 0.63215 0.46125 0.24985
 N3081 N 0.66813 0.40624 0.23370
 N3082 N 0.67816 0.39600 0.24750
 C3083 C 0.68870 0.37597 0.24464
 C3084 C 0.69915 0.36735 0.26159
 C3085 C 0.70879 0.34745 0.26041
 C3086 C 0.70828 0.33544 0.24209
 C3087 C 0.69801 0.34423 0.22481
 C3088 C 0.68821 0.36439 0.22608
 H3089 H 0.62306 0.46178 0.21781
 H3090 H 0.64516 0.43087 0.20827
 H3091 H 0.66665 0.42578 0.27099
 H3092 H 0.64483 0.45624 0.28037
 H3093 H 0.69960 0.37608 0.27597
 H3094 H 0.71661 0.34149 0.27406
 H3095 H 0.69733 0.33545 0.21047
 H3096 H 0.68011 0.37076 0.21276
 C3097 C 0.61579 0.55492 0.26963
 C3098 C 0.62808 0.57410 0.27019
 C3099 C 0.64887 0.57525 0.26175
 C3100 C 0.65716 0.55688 0.25227
 C3101 C 0.64482 0.53751 0.25176
 C3102 C 0.62411 0.53624 0.26075
 N3103 N 0.66098 0.59528 0.26312
 N3104 N 0.67942 0.59841 0.25472
 C3105 C 0.69108 0.61870 0.25610
 C3106 C 0.70882 0.62250 0.24318
 C3107 C 0.71949 0.64262 0.24287
 C3108 C 0.71289 0.65931 0.25581
 C3109 C 0.69572 0.65521 0.26951
 C3110 C 0.68475 0.63511 0.26954
 H3111 H 0.59969 0.55476 0.27623
 H3112 H 0.62139 0.58816 0.27732
 H3113 H 0.67320 0.55740 0.24555
 H3114 H 0.65174 0.52343 0.24490
 H3115 H 0.71393 0.61004 0.23282
 H3116 H 0.73273 0.64527 0.23220
 H3117 H 0.69019 0.66780 0.27953
 H3118 H 0.67114 0.63253 0.27979
 C3119 C 0.13443 0.04504 0.73274
 C3120 C 0.14705 0.06400 0.73039
 C3121 C 0.15480 0.07543 0.74758
 C3122 C 0.15037 0.06726 0.76721
 C3123 C 0.13789 0.04834 0.76956
 C3124 C 0.12937 0.03722 0.75239
 N3125 N 0.16658 0.09547 0.74482
 N3126 N 0.17222 0.10739 0.75994
 C3127 C 0.18371 0.12762 0.75750
 C3128 C 0.18816 0.14033 0.77484
 C3129 C 0.19891 0.16038 0.77298
 C3130 C 0.20551 0.16806 0.75366
 C3131 C 0.20115 0.15512 0.73629
 C3132 C 0.19034 0.13515 0.73818
 H3133 H 0.12804 0.03697 0.71924
 H3134 H 0.15038 0.07008 0.71516
 H3135 H 0.15635 0.07559 0.78076
 H3136 H 0.13479 0.04250 0.78492
 H3137 H 0.18313 0.13472 0.78983
 H3138 H 0.20198 0.16985 0.78667
 H3139 H 0.20595 0.16046 0.72114
 H3140 H 0.18711 0.12565 0.72454
 C3141 C 0.35284 0.05213 0.26550
 C3142 C 0.33833 0.06876 0.26315
 C3143 C 0.33580 0.07878 0.24416
 C3144 C 0.34737 0.07128 0.22716
 C3145 C 0.36177 0.05434 0.22945
 C3146 C 0.36500 0.04499 0.24878
 N3147 N 0.32221 0.09708 0.24314
 N3148 N 0.32004 0.10871 0.22726
 C3149 C 0.30684 0.12741 0.22771
 C3150 C 0.30568 0.14067 0.21041
 C3151 C 0.29406 0.15974 0.21105
 C3152 C 0.28340 0.16589 0.22910
 C3153 C 0.28420 0.15222 0.24624
 C3154 C 0.29574 0.13325 0.24556
 H3155 H 0.35482 0.04504 0.28051
 H3156 H 0.32947 0.07432 0.27634
 H3157 H 0.34564 0.07877 0.21231
 H3158 H 0.37105 0.04917 0.21636
 H3159 H 0.31416 0.13644 0.19653
 H3160 H 0.29382 0.16987 0.19759
 H3161 H 0.27613 0.15628 0.26038
 H3162 H 0.29625 0.12334 0.25916
 C3163 C 0.84815 0.55497 0.77087
 C3164 C 0.83367 0.57138 0.76724
 C3165 C 0.83327 0.58183 0.74830
 C3166 C 0.84685 0.57483 0.73248
 C3167 C 0.86125 0.55811 0.73604
 C3168 C 0.86243 0.54850 0.75548
 N3169 N 0.81997 0.60026 0.74636
 N3170 N 0.81920 0.61215 0.73051
 C3171 C 0.80631 0.63108 0.73042
 C3172 C 0.80536 0.64394 0.71282
 C3173 C 0.79384 0.66312 0.71296
 C3174 C 0.78323 0.66982 0.73085
 C3175 C 0.78397 0.65663 0.74832
 C3176 C 0.79529 0.63753 0.74811
 H3177 H 0.84864 0.54772 0.78594
 H3178 H 0.82327 0.57656 0.77953
 H3179 H 0.84680 0.58267 0.71769
 H3180 H 0.87223 0.55348 0.72399
 H3181 H 0.81380 0.63926 0.69906
 H3182 H 0.79362 0.67289 0.69925
 H3183 H 0.77588 0.66110 0.76234
 H3184 H 0.79568 0.62801 0.76196
 C3185 C 0.96941 0.74940 0.16416
 C3186 C 0.95016 0.74998 0.17521
 C3187 C 0.93068 0.75415 0.16524
 C3188 C 0.93052 0.75788 0.14401
 C3189 C 0.94976 0.75718 0.13290
 C3190 C 0.96933 0.75279 0.14289
 N3191 N 0.91120 0.75387 0.17690
 N3192 N 0.89318 0.75895 0.16909
 C3193 C 0.87363 0.75779 0.18065
 C3194 C 0.85454 0.76483 0.17168
 C3195 C 0.83499 0.76302 0.18226
 C3196 C 0.83430 0.75393 0.20198
 C3197 C 0.85359 0.74707 0.21104
 C3198 C 0.87314 0.74904 0.20048
 H3199 H 0.98435 0.74654 0.17235
 H3200 H 0.95039 0.74717 0.19158
 H3201 H 0.91554 0.76101 0.13600
 H3202 H 0.94927 0.75968 0.11650
 H3203 H 0.85480 0.77154 0.15638
 H3204 H 0.82038 0.76840 0.17484
 H3205 H 0.85357 0.74011 0.22624
 H3206 H 0.88777 0.74344 0.20768
 C3207 C 0.46876 0.23524 0.66894
 C3208 C 0.44931 0.23618 0.67973
 C3209 C 0.43126 0.24552 0.67078
 C3210 C 0.43266 0.25374 0.65080
 C3211 C 0.45201 0.25273 0.63998
 C3212 C 0.47026 0.24358 0.64900
 N3213 N 0.41158 0.24629 0.68213
 N3214 N 0.39522 0.25594 0.67522
 C3215 C 0.37528 0.25634 0.68616
 C3216 C 0.35800 0.26735 0.67769
 C3217 C 0.33794 0.26716 0.68749
 C3218 C 0.33493 0.25580 0.70593
 C3219 C 0.35251 0.24510 0.71459
 C3220 C 0.37254 0.24538 0.70478
 H3221 H 0.48270 0.22841 0.67636
 H3222 H 0.44834 0.22979 0.69513
 H3223 H 0.41880 0.26085 0.64350
 H3224 H 0.45262 0.25892 0.62449
 H3225 H 0.36002 0.27584 0.66332
 H3226 H 0.32473 0.27557 0.68043
 H3227 H 0.35075 0.23630 0.72881
 H3228 H 0.38576 0.23677 0.71160
 C3229 C 0.43412 0.72609 0.87148
 C3230 C 0.41618 0.72075 0.85923
 C3231 C 0.41763 0.72232 0.83792
 C3232 C 0.43769 0.72773 0.82881
 C3233 C 0.45578 0.73266 0.84105
 C3234 C 0.45385 0.73263 0.86245
 N3235 N 0.39803 0.72094 0.82624
 N3236 N 0.39718 0.72690 0.80764
 C3237 C 0.37698 0.72754 0.79689
 C3238 C 0.37625 0.73815 0.77804
 C3239 C 0.35632 0.74217 0.76878
 C3240 C 0.33680 0.73546 0.77825
 C3241 C 0.33769 0.72372 0.79661
 C3242 C 0.35760 0.71987 0.80589
 H3243 H 0.43242 0.72577 0.88799
 H3244 H 0.40078 0.71662 0.86638
 H3245 H 0.43913 0.72899 0.81232
 H3246 H 0.47089 0.73774 0.83385
 H3247 H 0.39111 0.74418 0.77101
 H3248 H 0.35620 0.75105 0.75453
 H3249 H 0.32300 0.71817 0.80424
 H3250 H 0.35776 0.71156 0.82044
 C3251 C 0.95397 0.22701 0.35575
 C3252 C 0.93528 0.22406 0.34373
 C3253 C 0.92269 0.24159 0.33865
 C3254 C 0.92844 0.26201 0.34632
 C3255 C 0.94675 0.26496 0.35857
 C3256 C 0.96009 0.24760 0.36328
 N3257 N 0.90408 0.23862 0.32575
 N3258 N 0.89607 0.25466 0.31672
 C3259 C 0.87682 0.25315 0.30461
 C3260 C 0.87103 0.27105 0.29316
 C3261 C 0.85148 0.27091 0.28239
 C3262 C 0.83725 0.25288 0.28322
 C3263 C 0.84331 0.23472 0.29443
 C3264 C 0.86304 0.23480 0.30500
 H3265 H 0.96306 0.21296 0.35955
 H3266 H 0.93077 0.20815 0.33813
 H3267 H 0.91882 0.27581 0.34274
 H3268 H 0.95085 0.28123 0.36335
 H3269 H 0.88156 0.28528 0.29289
 H3270 H 0.84723 0.28515 0.27394
 H3271 H 0.83272 0.22055 0.29522
 H3272 H 0.86723 0.22084 0.31388
 C3273 C 0.03454 0.23077 0.33922
 C3274 C 0.04999 0.22839 0.32384
 C3275 C 0.06053 0.24649 0.31547
 C3276 C 0.05388 0.26706 0.32098
 C3277 C 0.03832 0.26945 0.33614
 C3278 C 0.02946 0.25135 0.34634
 N3279 N 0.07970 0.24379 0.30367
 N3280 N 0.09343 0.25927 0.30163
 C3281 C 0.11364 0.25693 0.29145
 C3282 C 0.12926 0.27357 0.29312
 C3283 C 0.14993 0.27115 0.28501
 C3284 C 0.15512 0.25208 0.27486
 C3285 C 0.13921 0.23556 0.27277
 C3286 C 0.11863 0.23791 0.28114
 H3287 H 0.02769 0.21648 0.34619
 H3288 H 0.05487 0.21244 0.31951
 H3289 H 0.06143 0.28130 0.31427
 H3290 H 0.03394 0.28556 0.34041
 H3291 H 0.12552 0.28825 0.30114
 H3292 H 0.16179 0.28425 0.28659
 H3293 H 0.14279 0.22072 0.26495
 H3294 H 0.10674 0.22483 0.27976
 C3295 C 0.53400 0.77778 0.84698
 C3296 C 0.55286 0.77946 0.83513
 C3297 C 0.56455 0.76113 0.83060
 C3298 C 0.55697 0.74099 0.83767
 C3299 C 0.53836 0.73932 0.84963
 C3300 C 0.52676 0.75770 0.85463
 N3301 N 0.58452 0.76323 0.81957
 N3302 N 0.59441 0.74663 0.81383
 C3303 C 0.61479 0.74761 0.80353
 C3304 C 0.62247 0.72870 0.79506
 C3305 C 0.64239 0.72877 0.78505
 C3306 C 0.65513 0.74780 0.78366
 C3307 C 0.64757 0.76678 0.79250
 C3308 C 0.62741 0.76673 0.80227
 H3309 H 0.52532 0.79221 0.85042
 H3310 H 0.55853 0.79507 0.82973
 H3311 H 0.56580 0.72657 0.83451
 H3312 H 0.53373 0.72367 0.85565
 H3313 H 0.61290 0.71387 0.79612
 H3314 H 0.64786 0.71389 0.77848
 H3315 H 0.65704 0.78168 0.79151
 H3316 H 0.62176 0.78150 0.80892
 C3317 C 0.55068 0.21003 0.66482
 C3318 C 0.56683 0.20650 0.67938
 C3319 C 0.57258 0.22264 0.69351
 C3320 C 0.56052 0.24147 0.69433
 C3321 C 0.54470 0.24512 0.67963
 C3322 C 0.54048 0.22983 0.66431
 N3323 N 0.59307 0.22175 0.70364
 N3324 N 0.59983 0.23716 0.71498
 C3325 C 0.62164 0.23883 0.72216
 C3326 C 0.62745 0.25585 0.73522
 C3327 C 0.64921 0.26032 0.73976
 C3328 C 0.66550 0.24792 0.73103
 C3329 C 0.65959 0.23045 0.71834
 C3330 C 0.63779 0.22588 0.71398
 H3331 H 0.54747 0.19813 0.65296
 H3332 H 0.57609 0.19200 0.67856
 H3333 H 0.56459 0.25417 0.70516
 H3334 H 0.53675 0.26042 0.67938
 H3335 H 0.61511 0.26610 0.74132
 H3336 H 0.65329 0.27380 0.74970
 H3337 H 0.67181 0.22040 0.71172
 H3338 H 0.63363 0.21279 0.70362
 C3339 C 0.04492 0.77156 0.17189
 C3340 C 0.05861 0.77110 0.18891
 C3341 C 0.06661 0.75157 0.19572
 C3342 C 0.05916 0.73223 0.18666
 C3343 C 0.04517 0.73264 0.16989
 C3344 C 0.03878 0.75236 0.16189
 N3345 N 0.08501 0.75210 0.20896
 N3346 N 0.09755 0.73628 0.20982
 C3347 C 0.11770 0.73771 0.22051
 C3348 C 0.13365 0.72315 0.21539
 C3349 C 0.15501 0.72683 0.22181
 C3350 C 0.16050 0.74491 0.23383
 C3351 C 0.14414 0.75865 0.24020
 C3352 C 0.12287 0.75519 0.23342
 H3353 H 0.03978 0.78690 0.16608
 H3354 H 0.06434 0.78608 0.19578
 H3355 H 0.06513 0.71695 0.19177
 H3356 H 0.04055 0.71766 0.16238
 H3357 H 0.12978 0.70971 0.20534
 H3358 H 0.16731 0.71583 0.21699
 H3359 H 0.14797 0.77261 0.24961
 H3360 H 0.11071 0.76662 0.23754
   
