data_POSCAR
  _audit_creation_date              2014-09-24
  _audit_creation_method            'ToBaCCo'
  _symmetry_space_group_name_H-M    'P1'
  _symmetry_Int_Tables_number       1
  _symmetry_cell_setting            triclinic
  loop_
  _symmetry_equiv_pos_as_xyz
 x,y,z
_cell_length_a 51.2352
_cell_length_b 52.9557
_cell_length_c 39.6804
_cell_angle_alpha 89.447100
_cell_angle_beta 91.034600
_cell_angle_gamma 90.217600
loop_
  _atom_site_label
  _atom_site_type_symbol
  _atom_site_fract_x
  _atom_site_fract_y
  _atom_site_fract_z
C1 C 1.21638 0.27209 0.30051
 H2 H 1.21204 0.25208 0.30131
 C3 C 1.20023 0.28907 0.31687
 H4 H 1.18345 0.28203 0.33032
 C5 C 1.24312 0.30566 0.28135
 H6 H 1.25993 0.31213 0.26766
 C7 C 1.22772 0.32326 0.29770
 H8 H 1.23245 0.34315 0.29564
 N9 N 1.23651 0.28073 0.28167
 C10 C 1.24146 0.22251 0.20464
 H11 H 1.26246 0.22058 0.20391
 C12 C 1.22551 0.20640 0.18567
 H13 H 1.23442 0.19225 0.17011
 C14 C 1.20446 0.24311 0.22620
 H15 H 1.19625 0.25751 0.24180
 C16 C 1.18775 0.22740 0.20756
 H17 H 1.16685 0.22953 0.20977
 Zn18 Zn 1.25447 0.25756 0.25419
 N19 N 1.23078 0.23971 0.22551
 C20 C 1.26664 0.20951 0.28188
 N21 N 1.27297 0.23438 0.28268
 C22 C 1.29255 0.24285 0.30319
 C23 C 1.30763 0.22587 0.32250
 C24 C 1.28101 0.19190 0.30070
 C25 C 1.26813 0.29429 0.20633
 C26 C 1.28492 0.30978 0.18798
 C27 C 1.32105 0.28404 0.20757
 C28 C 1.30363 0.26937 0.22604
 N29 N 1.27784 0.27526 0.22605
 H30 H 1.25061 0.20307 0.26614
 H31 H 1.29681 0.26286 0.30411
 H32 H 1.32250 0.23392 0.33879
 H33 H 1.27586 0.17236 0.29676
 H34 H 1.24742 0.29821 0.20622
 H35 H 1.27691 0.32582 0.17429
 H36 H 1.34154 0.27912 0.20821
 H37 H 1.31083 0.25348 0.24066
 C38 C 1.19825 0.20822 0.18779
 C39 C 1.20541 0.31508 0.31465
 C40 C 1.31192 0.30513 0.18912
 C41 C 1.30243 0.19954 0.32145
 C42 C 0.70747 -0.23885 0.29471
 H43 H 0.70528 -0.25908 0.29610
 C44 C 0.68882 -0.22356 0.30949
 H45 H 0.67227 -0.23234 0.32158
 C46 C 0.73117 -0.20292 0.27648
 H47 H 0.74784 -0.19493 0.26386
 C48 C 0.71305 -0.18692 0.29108
 H49 H 0.71606 -0.16670 0.28955
 N50 N 0.72790 -0.22840 0.27805
 C51 C 0.72906 -0.27502 0.19850
 H52 H 0.73698 -0.25990 0.18335
 C53 C 0.71467 -0.29431 0.18297
 H54 H 0.71121 -0.29359 0.15598
 C55 C 0.72359 -0.29444 0.25197
 H56 H 0.72757 -0.29469 0.27882
 C57 C 0.70926 -0.31401 0.23758
 H58 H 0.70216 -0.32913 0.25359
 Zn59 Zn 0.75168 -0.24991 0.25602
 N60 N 0.73277 -0.27519 0.23256
 C61 C 0.78614 -0.28707 0.27709
 N62 N 0.77265 -0.26684 0.28821
 C63 C 0.77270 -0.26053 0.32136
 C64 C 0.78660 -0.27517 0.34498
 C65 C 0.79988 -0.30239 0.29981
 C66 C 0.76141 -0.21591 0.20253
 C67 C 0.77645 -0.20010 0.18223
 C68 C 0.81524 -0.21582 0.21073
 C69 C 0.79944 -0.23126 0.23060
 N70 N 0.77301 -0.23084 0.22646
 H71 H 0.78558 -0.29165 0.25057
 H72 H 0.76164 -0.24442 0.32952
 H73 H 0.78635 -0.27027 0.37141
 H74 H 0.81030 -0.31864 0.29066
 H75 H 0.74036 -0.21569 0.19996
 H76 H 0.76682 -0.18799 0.16375
 H77 H 0.83615 -0.21573 0.21522
 H78 H 0.80832 -0.24302 0.24998
 C79 C 0.70427 -0.31393 0.20273
 C80 C 0.69127 -0.19719 0.30744
 C81 C 0.80372 -0.19961 0.18662
 C82 C 0.79998 -0.29661 0.33420
 C83 C 0.71042 0.27299 -0.21181
 H84 H 0.70619 0.25308 -0.20874
 C85 C 0.69485 0.29084 -0.19622
 H86 H 0.67852 0.28460 -0.18128
 C87 C 0.73675 0.30537 -0.23510
 H88 H 0.75337 0.31097 -0.24978
 C89 C 0.72195 0.32386 -0.21952
 H90 H 0.72680 0.34360 -0.22320
 N91 N 0.73012 0.28052 -0.23215
 C92 C 0.73572 0.21207 -0.29272
 H93 H 0.75667 0.20961 -0.29197
 C94 C 0.71982 0.19400 -0.30831
 H95 H 0.72873 0.17771 -0.31961
 C96 C 0.69881 0.23661 -0.27949
 H97 H 0.69068 0.25348 -0.26891
 C98 C 0.68217 0.21905 -0.29498
 H99 H 0.66132 0.22230 -0.29519
 Zn100 Zn 0.74837 0.25533 -0.25588
 N101 N 0.72503 0.23250 -0.27780
 C102 C 0.76757 0.21341 -0.21667
 N103 N 0.77045 0.23837 -0.22416
 C104 C 0.79010 0.25224 -0.20998
 C105 C 0.80869 0.24078 -0.18876
 C106 C 0.78566 0.20121 -0.19541
 C107 C 0.75994 0.28914 -0.30945
 C108 C 0.77652 0.30231 -0.33108
 C109 C 0.81107 0.27367 -0.31476
 C110 C 0.79400 0.26158 -0.29294
 N111 N 0.76934 0.27019 -0.28948
 H112 H 0.75151 0.20281 -0.22752
 H113 H 0.79177 0.27213 -0.21608
 H114 H 0.82444 0.25207 -0.17822
 H115 H 0.78352 0.18115 -0.19067
 H116 H 0.73985 0.29502 -0.30719
 H117 H 0.76821 0.31854 -0.34384
 H118 H 0.83005 0.26517 -0.31712
 H119 H 0.80058 0.24531 -0.27855
 C120 C 0.69260 0.19718 -0.30915
 C121 C 0.70022 0.31664 -0.20069
 C122 C 0.80327 0.29561 -0.33310
 C123 C 0.80684 0.21483 -0.18159
 C124 C 1.20242 -0.24029 -0.18930
 H125 H 1.20371 -0.26030 -0.18436
 C126 C 1.18489 -0.22589 -0.17114
 H127 H 1.17249 -0.23519 -0.15300
 C128 C 1.21704 -0.20393 -0.21864
 H129 H 1.22981 -0.19531 -0.23679
 C130 C 1.19968 -0.18879 -0.20109
 H131 H 1.19936 -0.16865 -0.20601
 N132 N 1.21784 -0.22930 -0.21291
 C133 C 1.21709 -0.27557 -0.29494
 H134 H 1.22584 -0.26101 -0.31027
 C135 C 1.20245 -0.29474 -0.31042
 H136 H 1.19963 -0.29446 -0.33753
 C137 C 1.21014 -0.29401 -0.24123
 H138 H 1.21404 -0.29429 -0.21441
 C139 C 1.19544 -0.31340 -0.25556
 H140 H 1.18775 -0.32816 -0.23944
 Zn141 Zn 1.24045 -0.25051 -0.23771
 N142 N 1.22030 -0.27532 -0.26080
 C143 C 1.27369 -0.28959 -0.21901
 N144 N 1.26261 -0.26815 -0.20744
 C145 C 1.26656 -0.26041 -0.17515
 C146 C 1.28208 -0.27474 -0.15292
 C147 C 1.28893 -0.30464 -0.19756
 C148 C 1.24981 -0.21662 -0.29244
 C149 C 1.26506 -0.20143 -0.31340
 C150 C 1.30365 -0.21713 -0.28450
 C151 C 1.28768 -0.23195 -0.26406
 N152 N 1.26125 -0.23128 -0.26805
 H153 H 1.27033 -0.29515 -0.24488
 H154 H 1.25762 -0.24321 -0.16666
 H155 H 1.28506 -0.26854 -0.12721
 H156 H 1.29756 -0.32171 -0.20710
 H157 H 1.22876 -0.21628 -0.29513
 H158 H 1.25556 -0.18970 -0.33241
 H159 H 1.32457 -0.21737 -0.28011
 H160 H 1.29650 -0.24357 -0.24449
 C161 C 1.19120 -0.31382 -0.29053
 C162 C 1.18315 -0.19980 -0.17714
 C163 C 1.29238 -0.20132 -0.30928
 C164 C 1.29314 -0.29730 -0.16405
 C165 C 0.26173 0.21543 0.69830
 H166 H 0.24129 0.21833 0.69222
 C167 C 0.27645 0.19897 0.67908
 H168 H 0.26720 0.18934 0.65805
 C169 C 0.29858 0.22455 0.73312
 H170 H 0.30698 0.23426 0.75457
 C171 C 0.31406 0.20833 0.71445
 H172 H 0.33432 0.20561 0.72180
 N173 N 0.27293 0.22779 0.72474
 C174 C 0.21300 0.24132 0.79992
 H175 H 0.21065 0.26161 0.79907
 C176 C 0.19728 0.22668 0.82105
 H177 H 0.18357 0.23635 0.83675
 C178 C 0.23462 0.20485 0.78114
 H179 H 0.24898 0.19628 0.76530
 C180 C 0.21967 0.18955 0.80214
 H181 H 0.22259 0.16937 0.80081
 Zn182 Zn 0.25164 0.24968 0.74979
 N183 N 0.23102 0.23023 0.78014
 C184 C 0.20361 0.26780 0.72149
 N185 N 0.23004 0.26797 0.71871
 C186 C 0.24175 0.28132 0.69364
 C187 C 0.22701 0.29635 0.67148
 C188 C 0.18809 0.28245 0.69971
 C189 C 0.27093 0.27713 0.80729
 C190 C 0.28706 0.29483 0.82352
 C191 C 0.30765 0.30337 0.77034
 C192 C 0.29132 0.28559 0.75529
 N193 N 0.27323 0.27297 0.77364
 H194 H 0.19439 0.25646 0.74061
 H195 H 0.26254 0.28021 0.69049
 H196 H 0.23671 0.30698 0.65186
 H197 H 0.16714 0.28257 0.70287
 H198 H 0.25675 0.26670 0.82168
 H199 H 0.28525 0.29771 0.85035
 H200 H 0.32165 0.31332 0.75494
 H201 H 0.29361 0.28147 0.72898
 C202 C 0.20038 0.20020 0.82263
 C203 C 0.30297 0.19518 0.68714
 C204 C 0.30582 0.30811 0.80493
 C205 C 0.19985 0.29725 0.67464
 C206 C 0.76872 0.71104 0.69201
 H207 H 0.74773 0.70869 0.69216
 C208 C 0.78410 0.69370 0.67507
 H209 H 0.77473 0.67802 0.66232
 C210 C 0.80641 0.73302 0.71121
 H211 H 0.81510 0.74813 0.72569
 C212 C 0.82248 0.71637 0.69430
 H213 H 0.84343 0.71905 0.69575
 N214 N 0.78016 0.72926 0.71125
 C215 C 0.73028 0.73228 0.79847
 H216 H 0.72721 0.75240 0.80059
 C217 C 0.71864 0.71566 0.82125
 H218 H 0.70727 0.72372 0.84112
 C219 C 0.75064 0.69832 0.77126
 H220 H 0.76356 0.69152 0.75225
 C221 C 0.73946 0.68099 0.79346
 H222 H 0.74323 0.66120 0.78937
 Zn223 Zn 0.75952 0.74694 0.74227
 N224 N 0.74514 0.72336 0.77328
 C225 C 0.70711 0.76087 0.72548
 N226 N 0.73268 0.76477 0.71815
 C227 C 0.73963 0.78093 0.69296
 C228 C 0.72056 0.79429 0.67451
 C229 C 0.68747 0.77406 0.70798
 C230 C 0.79814 0.75766 0.78997
 C231 C 0.81513 0.77213 0.80979
 C232 C 0.79649 0.80977 0.78446
 C233 C 0.77970 0.79454 0.76520
 N234 N 0.78107 0.76896 0.76798
 H235 H 0.70177 0.74745 0.74482
 H236 H 0.76004 0.78347 0.68724
 H237 H 0.72647 0.80730 0.65484
 H238 H 0.66725 0.77072 0.71425
 H239 H 0.79872 0.73727 0.79180
 H240 H 0.82892 0.76271 0.82660
 H241 H 0.79521 0.83011 0.78192
 H242 H 0.76573 0.80316 0.74796
 C243 C 0.72238 0.68930 0.81853
 C244 C 0.81144 0.69559 0.67744
 C245 C 0.81460 0.79856 0.80702
 C246 C 0.69408 0.79108 0.68216
 C247 C 0.76912 0.23029 0.20082
 H248 H 0.75908 0.24437 0.18569
 C249 C 0.78681 0.21419 0.18545
 H250 H 0.78997 0.21601 0.15864
 C251 C 0.77656 0.21010 0.25357
 H252 H 0.77209 0.20813 0.27997
 C253 C 0.79438 0.19366 0.23928
 H254 H 0.80396 0.17967 0.25521
 N255 N 0.76455 0.22825 0.23445
 C256 C 0.70130 0.24589 0.30341
 H257 H 0.70396 0.26604 0.30621
 C258 C 0.68262 0.23311 0.32254
 H259 H 0.67112 0.24348 0.34035
 C260 C 0.71313 0.20782 0.27687
 H261 H 0.72458 0.19809 0.25849
 C262 C 0.69493 0.19432 0.29565
 H263 H 0.69276 0.17420 0.29173
 Zn264 Zn 0.74140 0.25110 0.25588
 N265 N 0.71629 0.23307 0.28139
 C266 C 0.69787 0.26886 0.21800
 N267 N 0.72410 0.27117 0.22276
 C268 C 0.73824 0.28831 0.20489
 C269 C 0.72595 0.30418 0.18127
 C270 C 0.68481 0.28430 0.19460
 C271 C 0.78222 0.26440 0.30190
 C272 C 0.79907 0.28121 0.31825
 C273 C 0.77078 0.31548 0.30091
 C274 C 0.75445 0.29798 0.28486
 N275 N 0.76089 0.27306 0.28454
 H276 H 0.68700 0.25517 0.23250
 H277 H 0.75908 0.28980 0.20928
 H278 H 0.73750 0.31765 0.16720
 H279 H 0.66384 0.28250 0.19158
 H280 H 0.78688 0.24460 0.30213
 H281 H 0.81642 0.27405 0.33101
 H282 H 0.76608 0.33538 0.29932
 H283 H 0.73712 0.30449 0.27157
 C284 C 0.67954 0.20691 0.31907
 C285 C 0.79979 0.19560 0.20477
 C286 C 0.79388 0.30720 0.31688
 C287 C 0.69887 0.30229 0.17595
 C288 C 0.25253 0.70033 0.19653
 H289 H 0.23248 0.69778 0.20383
 C290 C 0.26460 0.68163 0.17781
 H291 H 0.25332 0.66538 0.16974
 C292 C 0.29190 0.72379 0.19994
 H293 H 0.30277 0.73978 0.20944
 C294 C 0.30478 0.70548 0.18147
 H295 H 0.32545 0.70776 0.17709
 N296 N 0.26619 0.72099 0.20706
 C297 C 0.20778 0.72500 0.27613
 H298 H 0.19627 0.73955 0.26375
 C299 C 0.19585 0.70789 0.29806
 H300 H 0.17509 0.70938 0.30220
 C301 C 0.24853 0.70460 0.28445
 H302 H 0.26900 0.70328 0.27850
 C303 C 0.23739 0.68706 0.30644
 H304 H 0.24952 0.67249 0.31782
 Zn305 Zn 0.24932 0.74352 0.23652
 N306 N 0.23362 0.72292 0.26960
 C307 C 0.20659 0.75120 0.19047
 N308 N 0.22318 0.76271 0.21275
 C309 C 0.22110 0.78785 0.21899
 C310 C 0.20204 0.80238 0.20236
 C311 C 0.18728 0.76505 0.17321
 C312 C 0.27940 0.76433 0.29080
 C313 C 0.29776 0.78047 0.30589
 C314 C 0.30492 0.79965 0.25147
 C315 C 0.28658 0.78298 0.23751
 N316 N 0.27425 0.76571 0.25714
 H317 H 0.20812 0.73122 0.18607
 H318 H 0.23406 0.79667 0.23718
 H319 H 0.20098 0.82239 0.20748
 H320 H 0.17416 0.75543 0.15587
 H321 H 0.26906 0.75083 0.30623
 H322 H 0.29999 0.77906 0.33295
 H323 H 0.31481 0.81201 0.23402
 H324 H 0.28226 0.78370 0.21072
 C325 C 0.21064 0.68841 0.31321
 C326 C 0.29116 0.68394 0.17029
 C327 C 0.31114 0.79889 0.28648
 C328 C 0.18478 0.79102 0.17908
 O329 O 1.04145 -0.03018 0.06660
 O330 O 1.01881 -0.05755 0.03219
 C331 C 1.03510 -0.05274 0.05686
 O332 O 0.94881 0.03954 0.06332
 O333 O 0.97405 0.06916 0.03655
 C334 C 0.95542 0.06271 0.05679
 O335 O 0.95104 -0.03031 0.06283
 O336 O 0.97428 -0.05754 0.03037
 C337 C 0.95690 -0.05282 0.05293
 O338 O 1.04576 0.04007 0.06460
 O339 O 1.02066 0.06937 0.03615
 C340 C 1.03954 0.06321 0.05691
 Zr341 Zr 1.02971 0.00549 0.04794
 O342 O 1.02933 0.00667 0.10124
 O343 O 1.07091 0.00276 0.04888
 Zr344 Zr 0.96439 0.00527 0.04654
 O345 O 0.96759 0.00443 0.09971
 O346 O 0.92316 0.00348 0.04750
 O347 O 0.99696 -0.01759 0.05269
 O348 O 0.99708 0.02750 0.05453
 O349 O 1.04586 0.04399 -0.04881
 O350 O 1.02055 0.07151 -0.01939
 C351 C 1.03975 0.06653 -0.03925
 O352 O 0.95262 -0.02597 -0.06045
 O353 O 0.97506 -0.05555 -0.02882
 C354 C 0.95889 -0.04909 -0.05298
 O355 O 0.94704 0.04362 -0.04977
 O356 O 0.97283 0.07129 -0.01979
 C357 C 0.95313 0.06611 -0.03965
 O358 O 1.04115 -0.02583 -0.05844
 O359 O 1.01879 -0.05548 -0.02757
 C360 C 1.03495 -0.04898 -0.05102
 Zr361 Zr 1.02969 0.00856 -0.03671
 O362 O 1.03042 0.01391 -0.08963
 O363 O 1.07085 0.00642 -0.03336
 Zr364 Zr 0.96417 0.00844 -0.03823
 O365 O 0.96400 0.01432 -0.09111
 O366 O 0.92298 0.00570 -0.03758
 Zr367 Zr 0.99694 -0.03108 0.00290
 Zr368 Zr 0.99693 0.04504 0.00670
 O369 O 0.99691 0.03106 -0.04267
 O370 O 0.99690 -0.01384 -0.04528
 O371 O 1.03476 0.02951 0.00684
 O372 O 0.95939 -0.01524 0.00277
 O373 O 1.03458 -0.01517 0.00457
 O374 O 0.95916 0.02925 0.00530
 H375 H 0.99727 0.03831 0.07479
 H376 H 0.94393 -0.02651 0.00151
 H377 H 0.99678 0.04350 -0.06149
 H378 H 1.04982 -0.02664 0.00436
 H379 H 0.91666 0.01206 0.02676
 H380 H 0.91687 0.00668 -0.06140
 H381 H 0.97457 0.00078 -0.10101
 H382 H 1.01874 0.00107 -0.09984
 H383 H 1.07717 0.00736 -0.05680
 H384 H 1.07741 0.01397 0.03076
 H385 H 1.01634 -0.00593 0.10885
 H386 H 0.94948 0.00419 0.10806
 O387 O 1.03904 0.53300 0.56733
 O388 O 1.06799 0.51760 0.52916
 C389 C 1.06253 0.52976 0.55640
 O390 O 0.96900 0.44244 0.53786
 O391 O 0.93819 0.47008 0.51717
 C392 C 0.94498 0.44909 0.53208
 O393 O 1.04118 0.44688 0.54094
 O394 O 1.06907 0.47556 0.51675
 C395 C 1.06435 0.45501 0.53376
 O396 O 0.96620 0.53464 0.56475
 O397 O 0.93699 0.51499 0.52910
 C398 C 0.94261 0.52982 0.55407
 Zr399 Zr 1.00243 0.52265 0.54621
 O400 O 1.00094 0.51171 0.59761
 O401 O 1.00364 0.56113 0.55987
 Zr402 Zr 1.00423 0.46132 0.52763
 O403 O 1.00441 0.45565 0.58041
 O404 O 1.00701 0.42212 0.51873
 O405 O 1.02713 0.49171 0.54302
 O406 O 0.98030 0.49007 0.54327
 O407 O 0.96290 0.55330 0.45452
 O408 O 0.93527 0.52257 0.47427
 C409 C 0.93981 0.54440 0.46048
 O410 O 1.03832 0.46780 0.42260
 O411 O 1.06754 0.48574 0.45977
 C412 C 1.06194 0.47266 0.43307
 O413 O 0.96583 0.46163 0.42646
 O414 O 0.93685 0.47905 0.46284
 C415 C 0.94237 0.46491 0.43743
 O416 O 1.03549 0.55452 0.44918
 O417 O 1.06630 0.52784 0.47236
 C418 C 1.05944 0.54812 0.45585
 Zr419 Zr 1.00009 0.53726 0.46314
 O420 O 0.99586 0.54542 0.41097
 O421 O 1.00020 0.57599 0.47571
 Zr422 Zr 1.00203 0.47567 0.44460
 O423 O 0.99770 0.48512 0.39283
 O424 O 1.00469 0.43665 0.43437
 Zr425 Zr 1.04141 0.50075 0.49486
 Zr426 Zr 0.96301 0.49772 0.49587
 O427 O 0.97790 0.50661 0.44813
 O428 O 1.02445 0.50853 0.44708
 O429 O 0.97805 0.53391 0.50634
 O430 O 1.02591 0.46477 0.48447
 O431 O 1.02374 0.53543 0.50579
 O432 O 0.98017 0.46275 0.48496
 H433 H 0.96863 0.48648 0.56241
 H434 H 1.03766 0.45044 0.47993
 H435 H 0.96542 0.50938 0.42909
 H436 H 1.03467 0.55055 0.51026
 H437 H 1.00000 0.41932 0.49567
 H438 H 1.00396 0.43501 0.40950
 H439 H 1.01234 0.49647 0.38694
 H440 H 1.01161 0.53905 0.39980
 H441 H 0.99893 0.58555 0.45414
 H442 H 0.99574 0.57075 0.54080
 H443 H 1.01641 0.50109 0.60260
 H444 H 1.00491 0.43712 0.58407
 O445 O 0.53755 -0.04329 0.57010
 O446 O 0.51545 -0.07090 0.53540
 C447 C 0.53136 -0.06589 0.56037
 O448 O 0.44594 0.02914 0.55544
 O449 O 0.47338 0.05713 0.52917
 C450 C 0.45340 0.05189 0.54777
 O451 O 0.44640 -0.04080 0.55996
 O452 O 0.47023 -0.06978 0.53099
 C453 C 0.45198 -0.06380 0.55184
 O454 O 0.54321 0.02680 0.56549
 O455 O 0.52027 0.05583 0.53365
 C456 C 0.53795 0.04985 0.55619
 Zr457 Zr 0.52675 -0.00784 0.54948
 O458 O 0.52300 -0.00519 0.60239
 O459 O 0.56776 -0.01122 0.55468
 Zr460 Zr 0.46174 -0.00616 0.54290
 O461 O 0.46289 -0.00518 0.59612
 O462 O 0.42046 -0.00682 0.54153
 O463 O 0.49318 -0.02993 0.55275
 O464 O 0.49462 0.01543 0.55227
 O465 O 0.54864 0.02708 0.45214
 O466 O 0.52299 0.05622 0.47813
 C467 C 0.54288 0.05007 0.46006
 O468 O 0.45261 -0.04063 0.43791
 O469 O 0.47319 -0.06963 0.47242
 C470 C 0.45757 -0.06367 0.44743
 O471 O 0.45108 0.02970 0.44213
 O472 O 0.47576 0.05735 0.47352
 C473 C 0.45748 0.05236 0.45142
 O474 O 0.54245 -0.04273 0.44632
 O475 O 0.51786 -0.07079 0.47679
 C476 C 0.53538 -0.06548 0.45450
 Zr477 Zr 0.53066 -0.00744 0.46472
 O478 O 0.53343 -0.00382 0.41171
 O479 O 0.57162 -0.01050 0.47084
 Zr480 Zr 0.46541 -0.00579 0.45814
 O481 O 0.46815 -0.00244 0.40509
 O482 O 0.42415 -0.00638 0.45585
 Zr483 Zr 0.49497 -0.04492 0.50381
 Zr484 Zr 0.49731 0.03127 0.50363
 O485 O 0.49902 0.01576 0.45517
 O486 O 0.49764 -0.02933 0.45484
 O487 O 0.53452 0.01464 0.50754
 O488 O 0.45803 -0.02786 0.50005
 O489 O 0.53293 -0.02982 0.50756
 O490 O 0.45913 0.01656 0.49996
 H491 H 0.49406 0.02702 0.57170
 H492 H 0.44214 -0.03853 0.49842
 H493 H 0.50031 0.02751 0.43567
 H494 H 0.54803 -0.04145 0.50901
 H495 H 0.41499 0.00017 0.51930
 H496 H 0.41914 -0.00599 0.43160
 H497 H 0.47795 -0.01722 0.39713
 H498 H 0.52236 -0.01716 0.40152
 H499 H 0.57888 -0.01044 0.44785
 H500 H 0.57542 -0.00228 0.53520
 H501 H 0.51081 -0.01867 0.60956
 H502 H 0.44447 -0.00440 0.60320
 O503 O 0.54482 0.54105 0.05969
 O504 O 0.57245 0.52396 0.02121
 C505 C 0.56791 0.53703 0.04796
 O506 O 0.47369 0.45098 0.04450
 O507 O 0.44229 0.47722 0.02191
 C508 C 0.44957 0.45757 0.03949
 O509 O 0.54584 0.45435 0.04154
 O510 O 0.57301 0.48148 0.01309
 C511 C 0.56875 0.46196 0.03232
 O512 O 0.47207 0.54496 0.05858
 O513 O 0.44138 0.52279 0.02789
 C514 C 0.44817 0.54001 0.04947
 Zr515 Zr 0.50754 0.53082 0.04062
 O516 O 0.50719 0.52492 0.09345
 O517 O 0.50902 0.57053 0.04573
 Zr518 Zr 0.50852 0.46841 0.02899
 O519 O 0.51083 0.46599 0.08214
 O520 O 0.51061 0.42875 0.02396
 O521 O 0.53192 0.49952 0.03968
 O522 O 0.48524 0.49834 0.04256
 O523 O 0.46512 0.55590 -0.05188
 O524 O 0.43804 0.52710 -0.02648
 C525 C 0.44223 0.54784 -0.04320
 O526 O 0.53901 0.46892 -0.07875
 O527 O 0.56965 0.48805 -0.04467
 C528 C 0.56299 0.47402 -0.07012
 O529 O 0.46717 0.46350 -0.07065
 O530 O 0.43908 0.48229 -0.03433
 C531 C 0.44401 0.46729 -0.05914
 O532 O 0.53717 0.55601 -0.06157
 O533 O 0.56885 0.53117 -0.03679
 C534 C 0.56136 0.55038 -0.05518
 Zr535 Zr 0.50254 0.54022 -0.04320
 O536 O 0.50044 0.54641 -0.09605
 O537 O 0.50266 0.57929 -0.03260
 Zr538 Zr 0.50371 0.47773 -0.05507
 O539 O 0.49843 0.48365 -0.10757
 O540 O 0.50589 0.43812 -0.06060
 Zr541 Zr 0.54480 0.50548 -0.00994
 Zr542 Zr 0.46632 0.50291 -0.00454
 O543 O 0.47971 0.50891 -0.05373
 O544 O 0.52621 0.51046 -0.05730
 O545 O 0.48193 0.53951 0.00108
 O546 O 0.52883 0.46908 -0.01555
 O547 O 0.52777 0.54085 -0.00194
 O548 O 0.48303 0.46727 -0.01241
 H549 H 0.47434 0.49635 0.06281
 H550 H 0.54038 0.45446 -0.01935
 H551 H 0.46649 0.51053 -0.07213
 H552 H 0.53906 0.55599 0.00039
 H553 H 0.50184 0.42460 0.00230
 H554 H 0.50472 0.43484 -0.08514
 H555 H 0.50906 0.49858 -0.11374
 H556 H 0.48305 0.54095 -0.10445
 H557 H 0.50139 0.58818 -0.05467
 H558 H 0.51049 0.57387 0.07023
 H559 H 0.52077 0.51222 0.09892
 H560 H 0.51157 0.44773 0.08779
 C561 C 1.17150 0.14496 0.15992
 C562 C 1.14732 0.15129 0.14423
 C563 C 1.14080 0.17725 0.14162
 C564 C 1.15747 0.19580 0.15548
 C565 C 1.18105 0.18903 0.17160
 C566 C 1.18790 0.16349 0.17335
 C567 C 1.11766 0.18457 0.12533
 C568 C 1.10077 0.16673 0.11135
 C569 C 1.10613 0.14062 0.11365
 C570 C 1.12955 0.13278 0.13102
 C571 C 1.13423 0.10667 0.13513
 C572 C 1.11709 0.08881 0.12219
 C573 C 1.09467 0.09608 0.10434
 C574 C 1.08878 0.12201 0.09954
 C575 C 1.06589 0.12805 0.08052
 C576 C 1.04975 0.10911 0.06707
 C577 C 1.05572 0.08355 0.07222
 C578 C 1.07822 0.07731 0.09108
 H579 H 1.17853 0.12588 0.16218
 H580 H 1.15215 0.21557 0.15354
 H581 H 1.20588 0.15767 0.18587
 H582 H 1.11254 0.20437 0.12323
 H583 H 1.08334 0.17407 0.09935
 H584 H 1.15085 0.09922 0.14883
 H585 H 1.12156 0.06898 0.12608
 H586 H 1.06007 0.14720 0.07507
 H587 H 1.03263 0.11456 0.05235
 H588 H 1.08334 0.05764 0.09505
 C589 C 1.13642 0.63909 0.69667
 C590 C 1.14402 0.62587 0.66763
 C591 C 1.16724 0.63377 0.65160
 C592 C 1.18246 0.65356 0.66502
 C593 C 1.17487 0.66594 0.69430
 C594 C 1.15164 0.65865 0.70970
 C595 C 1.17511 0.62193 0.62227
 C596 C 1.16008 0.60286 0.60778
 C597 C 1.13665 0.59449 0.62249
 C598 C 1.12905 0.60554 0.65361
 C599 C 1.10674 0.59591 0.66974
 C600 C 1.09118 0.57756 0.65486
 C601 C 1.09717 0.56800 0.62339
 C602 C 1.12025 0.57576 0.60696
 C603 C 1.12530 0.56507 0.57509
 C604 C 1.10733 0.54877 0.55955
 C605 C 1.08390 0.54248 0.57524
 C606 C 1.07952 0.55139 0.60775
 H607 H 1.11858 0.63519 0.70968
 H608 H 1.20045 0.65909 0.65295
 H609 H 1.14502 0.66835 0.73187
 H610 H 1.19294 0.62773 0.61003
 H611 H 1.16750 0.59495 0.58499
 H612 H 1.10066 0.60212 0.69411
 H613 H 1.07387 0.57122 0.66784
 H614 H 1.14239 0.56968 0.56085
 H615 H 1.11122 0.54215 0.53438
 H616 H 1.06161 0.54634 0.62038
 C617 C 0.66419 0.13306 0.66924
 C618 C 0.64177 0.13915 0.64941
 C619 C 0.63677 0.16508 0.64282
 C620 C 0.65330 0.18388 0.65629
 C621 C 0.67524 0.17742 0.67614
 C622 C 0.68049 0.15186 0.68230
 C623 C 0.61534 0.17214 0.62277
 C624 C 0.59876 0.15409 0.60876
 C625 C 0.60276 0.12802 0.61457
 C626 C 0.62434 0.12047 0.63579
 C627 C 0.62767 0.09450 0.64295
 C628 C 0.61097 0.07647 0.62941
 C629 C 0.59035 0.08341 0.60798
 C630 C 0.58585 0.10920 0.60006
 C631 C 0.56477 0.11491 0.57762
 C632 C 0.54908 0.09580 0.56380
 C633 C 0.55369 0.07037 0.57188
 C634 C 0.57434 0.06444 0.59421
 H635 H 0.66992 0.11396 0.67506
 H636 H 0.64924 0.20361 0.65092
 H637 H 0.69716 0.14630 0.69779
 H638 H 0.61137 0.19192 0.61770
 H639 H 0.58270 0.16129 0.59371
 H640 H 0.64292 0.08732 0.65935
 H641 H 0.61438 0.05677 0.63567
 H642 H 0.56006 0.13390 0.56976
 H643 H 0.53340 0.10101 0.54645
 H644 H 0.57834 0.04487 0.60061
 C645 C 0.64920 0.63927 0.19093
 C646 C 0.65538 0.62734 0.16034
 C647 C 0.67792 0.63579 0.14325
 C648 C 0.69386 0.65489 0.15702
 C649 C 0.68758 0.66611 0.18766
 C650 C 0.66505 0.65823 0.20422
 C651 C 0.68432 0.62528 0.11240
 C652 C 0.66839 0.60710 0.09746
 C653 C 0.64553 0.59831 0.11320
 C654 C 0.63953 0.60790 0.14577
 C655 C 0.61782 0.59780 0.16273
 C656 C 0.60126 0.58051 0.14744
 C657 C 0.60567 0.57246 0.11477
 C658 C 0.62814 0.58063 0.09732
 C659 C 0.63161 0.57137 0.06426
 C660 C 0.61275 0.55597 0.04880
 C661 C 0.58999 0.54929 0.06575
 C662 C 0.58709 0.55687 0.09912
 H663 H 0.63194 0.63491 0.20495
 H664 H 0.71128 0.66089 0.14403
 H665 H 0.65937 0.66707 0.22746
 H666 H 0.70162 0.63151 0.09932
 H667 H 0.67463 0.60025 0.07347
 H668 H 0.61297 0.60283 0.18807
 H669 H 0.58444 0.57379 0.16114
 H670 H 0.64814 0.57636 0.04917
 H671 H 0.61543 0.55031 0.02292
 H672 H 0.56970 0.55142 0.11263
 C673 C 0.82661 -0.13726 0.15061
 C674 C 0.85160 -0.14302 0.13813
 C675 C 0.85980 -0.16855 0.13975
 C676 C 0.84406 -0.18708 0.15508
 C677 C 0.81977 -0.18073 0.16838
 C678 C 0.81115 -0.15577 0.16550
 C679 C 0.88371 -0.17540 0.12628
 C680 C 0.89981 -0.15746 0.11129
 C681 C 0.89289 -0.13168 0.10988
 C682 C 0.86860 -0.12432 0.12419
 C683 C 0.86235 -0.09842 0.12494
 C684 C 0.87884 -0.08032 0.11166
 C685 C 0.90212 -0.08716 0.09679
 C686 C 0.90956 -0.11285 0.09522
 C687 C 0.93330 -0.11839 0.07888
 C688 C 0.94883 -0.09912 0.06511
 C689 C 0.94138 -0.07380 0.06753
 C690 C 0.91795 -0.06814 0.08342
 H691 H 0.81822 -0.11867 0.14918
 H692 H 0.85069 -0.20648 0.15666
 H693 H 0.79252 -0.15031 0.17562
 H694 H 0.89006 -0.19490 0.12726
 H695 H 0.91794 -0.16435 0.10166
 H696 H 0.84504 -0.09126 0.13639
 H697 H 0.87322 -0.06063 0.11305
 H698 H 0.94024 -0.13740 0.07591
 H699 H 0.96674 -0.10406 0.05271
 H700 H 0.91158 -0.04869 0.08498
 C701 C 0.86637 0.32252 0.63935
 C702 C 0.85865 0.34137 0.61601
 C703 C 0.83163 0.34474 0.60990
 C704 C 0.81327 0.32892 0.62567
 C705 C 0.82099 0.30998 0.64932
 C706 C 0.84815 0.30741 0.65554
 C707 C 0.82302 0.36423 0.58849
 C708 C 0.84063 0.38119 0.57436
 C709 C 0.86778 0.37873 0.58012
 C710 C 0.87691 0.35758 0.59965
 C711 C 0.90401 0.35315 0.60202
 C712 C 0.92172 0.36981 0.58806
 C713 C 0.91323 0.39163 0.57145
 C714 C 0.88621 0.39651 0.56696
 C715 C 0.87896 0.41930 0.55025
 C716 C 0.89786 0.43637 0.53874
 C717 C 0.92450 0.43127 0.54344
 C718 C 0.93188 0.40867 0.55954
 H719 H 0.88642 0.31979 0.64719
 H720 H 0.79303 0.33155 0.61851
 H721 H 0.85608 0.29492 0.67474
 H722 H 0.80236 0.36685 0.58332
 H723 H 0.83239 0.39586 0.55849
 H724 H 0.91223 0.33659 0.61400
 H725 H 0.94238 0.36573 0.59080
 H726 H 0.85889 0.42478 0.54643
 H727 H 0.89156 0.45368 0.52639
 H728 H 0.95239 0.40432 0.56336
 C729 C 0.31662 -0.14131 0.64897
 C730 C 0.34178 -0.14805 0.63791
 C731 C 0.34966 -0.17349 0.64258
 C732 C 0.33336 -0.19093 0.65913
 C733 C 0.30890 -0.18359 0.67101
 C734 C 0.30065 -0.15874 0.66528
 C735 C 0.37387 -0.18133 0.63107
 C736 C 0.39067 -0.16446 0.61523
 C737 C 0.38409 -0.13877 0.61071
 C738 C 0.35934 -0.13040 0.62265
 C739 C 0.35318 -0.10451 0.61973
 C740 C 0.37037 -0.08738 0.60566
 C741 C 0.39430 -0.09522 0.59351
 C742 C 0.40155 -0.12099 0.59528
 C743 C 0.42596 -0.12765 0.58146
 C744 C 0.44240 -0.10933 0.56716
 C745 C 0.43521 -0.08385 0.56650
 C746 C 0.41101 -0.07712 0.57960
 H747 H 0.30854 -0.12271 0.64555
 H748 H 0.33976 -0.21026 0.66285
 H749 H 0.28195 -0.15246 0.67428
 H750 H 0.37999 -0.20078 0.63446
 H751 H 0.40902 -0.17208 0.60740
 H752 H 0.33535 -0.09658 0.62877
 H753 H 0.36482 -0.06765 0.60431
 H754 H 0.43283 -0.14684 0.58101
 H755 H 0.46086 -0.11511 0.55687
 H756 H 0.40483 -0.05756 0.57866
 C757 C 0.37230 0.34493 0.17447
 C758 C 0.36632 0.35779 0.14390
 C759 C 0.34155 0.35326 0.12859
 C760 C 0.32416 0.33570 0.14280
 C761 C 0.33060 0.32288 0.17294
 C762 C 0.35474 0.32794 0.18864
 C763 C 0.33419 0.36639 0.09930
 C764 C 0.35070 0.38427 0.08504
 C765 C 0.37568 0.38928 0.09909
 C766 C 0.38392 0.37518 0.12837
 C767 C 0.40968 0.37851 0.14077
 C768 C 0.42670 0.39528 0.12561
 C769 C 0.41874 0.40974 0.09784
 C770 C 0.39302 0.40744 0.08443
 C771 C 0.38587 0.42354 0.05701
 C772 C 0.40391 0.44034 0.04291
 C773 C 0.42958 0.44147 0.05544
 C774 C 0.43666 0.42635 0.08323
 H775 H 0.39007 0.34804 0.18874
 H776 H 0.30558 0.33203 0.13027
 H777 H 0.35996 0.31917 0.21257
 H778 H 0.31530 0.36300 0.08742
 H779 H 0.34354 0.39344 0.06238
 H780 H 0.41769 0.36786 0.16173
 H781 H 0.44641 0.39694 0.13581
 H782 H 0.36648 0.42378 0.04606
 H783 H 0.39788 0.45211 0.02175
 H784 H 0.45634 0.42748 0.09366
 C785 C 0.87313 0.19396 -0.14736
 C786 C 0.86658 0.17430 -0.12452
 C787 C 0.83966 0.16919 -0.11984
 C788 C 0.82042 0.18297 -0.13759
 C789 C 0.82726 0.20182 -0.16081
 C790 C 0.85377 0.20738 -0.16514
 C791 C 0.83197 0.15001 -0.09788
 C792 C 0.85032 0.13473 -0.08180
 C793 C 0.87733 0.13808 -0.08694
 C794 C 0.88568 0.15902 -0.10712
 C795 C 0.91277 0.16372 -0.10946
 C796 C 0.93109 0.14768 -0.09432
 C797 C 0.92327 0.12603 -0.07687
 C798 C 0.89623 0.12097 -0.07286
 C799 C 0.88915 0.09829 -0.05625
 C800 C 0.90799 0.08123 -0.04502
 C801 C 0.93455 0.08615 -0.04929
 C802 C 0.94226 0.10891 -0.06438
 H803 H 0.89300 0.19893 -0.15290
 H804 H 0.79997 0.17876 -0.13361
 H805 H 0.85967 0.22166 -0.18322
 H806 H 0.81144 0.14640 -0.09360
 H807 H 0.84258 0.12047 -0.06521
 H808 H 0.92051 0.17980 -0.12281
 H809 H 0.95166 0.15190 -0.09718
 H810 H 0.86921 0.09252 -0.05273
 H811 H 0.90171 0.06372 -0.03326
 H812 H 0.96286 0.11264 -0.06795
 C813 C 0.84820 0.68089 0.40072
 C814 C 0.84575 0.65426 0.39854
 C815 C 0.82547 0.64449 0.37763
 C816 C 0.81002 0.66072 0.35765
 C817 C 0.81406 0.68685 0.35838
 C818 C 0.83258 0.69686 0.38083
 C819 C 0.82119 0.61854 0.37588
 C820 C 0.83735 0.60179 0.39330
 C821 C 0.85897 0.61039 0.41259
 C822 C 0.86317 0.63708 0.41540
 C823 C 0.88544 0.64569 0.43338
 C824 C 0.90374 0.62895 0.44655
 C825 C 0.90030 0.60301 0.44317
 C826 C 0.87736 0.59320 0.42760
 C827 C 0.87433 0.56655 0.42687
 C828 C 0.89420 0.55057 0.43871
 C829 C 0.91758 0.56066 0.45134
 C830 C 0.92017 0.58681 0.45449
 H831 H 0.86215 0.69005 0.41717
 H832 H 0.79515 0.65301 0.34082
 H833 H 0.83567 0.71709 0.38206
 H834 H 0.80544 0.61103 0.36030
 H835 H 0.83300 0.58207 0.38983
 H836 H 0.89004 0.66538 0.43647
 H837 H 0.92108 0.63646 0.45898
 H838 H 0.85699 0.55743 0.41712
 H839 H 0.89164 0.53031 0.43685
 H840 H 0.93799 0.59463 0.46537
 C841 C 0.32404 0.13884 0.35988
 C842 C 0.35007 0.14398 0.36977
 C843 C 0.35903 0.16915 0.36650
 C844 C 0.34305 0.18780 0.35118
 C845 C 0.31752 0.18213 0.33887
 C846 C 0.30830 0.15732 0.34493
 C847 C 0.38411 0.17552 0.37809
 C848 C 0.40049 0.15742 0.39279
 C849 C 0.39273 0.13187 0.39555
 C850 C 0.36732 0.12500 0.38301
 C851 C 0.36022 0.09922 0.38299
 C852 C 0.37695 0.08083 0.39556
 C853 C 0.40133 0.08726 0.40904
 C854 C 0.40964 0.11281 0.40971
 C855 C 0.43442 0.11801 0.42475
 C856 C 0.45011 0.09856 0.43817
 C857 C 0.44181 0.07336 0.43663
 C858 C 0.41737 0.06800 0.42194
 H859 H 0.31487 0.12077 0.36407
 H860 H 0.35163 0.20624 0.34735
 H861 H 0.28834 0.15184 0.33960
 H862 H 0.39116 0.19477 0.37587
 H863 H 0.41949 0.16394 0.40093
 H864 H 0.34205 0.09242 0.37241
 H865 H 0.37065 0.06127 0.39477
 H866 H 0.44203 0.13692 0.42709
 H867 H 0.46880 0.10329 0.44971
 H868 H 0.41039 0.04865 0.42114
 C869 C 0.34769 0.68245 -0.10477
 C870 C 0.34495 0.65579 -0.10438
 C871 C 0.32271 0.64533 -0.12088
 C872 C 0.30543 0.66084 -0.13935
 C873 C 0.30956 0.68695 -0.14135
 C874 C 0.33026 0.69769 -0.12306
 C875 C 0.31819 0.61938 -0.11969
 C876 C 0.33579 0.60328 -0.10353
 C877 C 0.35910 0.61250 -0.08858
 C878 C 0.36377 0.63921 -0.08907
 C879 C 0.38771 0.64836 -0.07584
 C880 C 0.40685 0.63206 -0.06376
 C881 C 0.40275 0.60606 -0.06359
 C882 C 0.37851 0.59584 -0.07466
 C883 C 0.37508 0.56928 -0.07197
 C884 C 0.39550 0.55365 -0.06086
 C885 C 0.41986 0.56396 -0.05241
 C886 C 0.42313 0.59018 -0.05301
 H887 H 0.36316 0.69217 -0.09146
 H888 H 0.28894 0.65256 -0.15280
 H889 H 0.33354 0.71791 -0.12391
 H890 H 0.30101 0.61134 -0.13187
 H891 H 0.33102 0.58348 -0.10448
 H892 H 0.39284 0.66809 -0.07575
 H893 H 0.42527 0.63992 -0.05492
 H894 H 0.35694 0.55997 -0.07825
 H895 H 0.39245 0.53341 -0.05981
 H896 H 0.44178 0.59829 -0.04538
 C897 C 1.14126 -0.17433 -0.10725
 C898 C 1.12662 -0.15513 -0.12390
 C899 C 1.13146 -0.15076 -0.15858
 C900 C 1.14980 -0.16531 -0.17563
 C901 C 1.16398 -0.18431 -0.15879
 C902 C 1.15953 -0.18861 -0.12447
 C903 C 1.11801 -0.13186 -0.17618
 C904 C 1.10045 -0.11648 -0.15998
 C905 C 1.09540 -0.11951 -0.12530
 C906 C 1.10784 -0.13983 -0.10729
 C907 C 1.10102 -0.14416 -0.07336
 C908 C 1.08370 -0.12847 -0.05706
 C909 C 1.07282 -0.10757 -0.07358
 C910 C 1.07845 -0.10278 -0.10797
 C911 C 1.06767 -0.08081 -0.12322
 C912 C 1.05280 -0.06406 -0.10480
 C913 C 1.04764 -0.06873 -0.07081
 C914 C 1.05704 -0.09090 -0.05554
 H915 H 1.13946 -0.17852 -0.08079
 H916 H 1.15284 -0.16198 -0.20228
 H917 H 1.17053 -0.20287 -0.11066
 H918 H 1.12132 -0.12869 -0.20280
 H919 H 1.09088 -0.10249 -0.17564
 H920 H 1.10863 -0.15974 -0.05862
 H921 H 1.07929 -0.13241 -0.03092
 H922 H 1.07121 -0.07535 -0.14894
 H923 H 1.04568 -0.04700 -0.11709
 H924 H 1.05334 -0.09442 -0.02910
 C925 C 1.14201 0.34927 0.32824
 C926 C 1.15011 0.37119 0.34575
 C927 C 1.17683 0.37327 0.35528
 C928 C 1.19482 0.35488 0.34541
 C929 C 1.18649 0.33371 0.32715
 C930 C 1.15993 0.33091 0.31921
 C931 C 1.18539 0.39365 0.37465
 C932 C 1.16788 0.41168 0.38565
 C933 C 1.14112 0.41053 0.37659
 C934 C 1.13246 0.39071 0.35475
 C935 C 1.10655 0.39126 0.34216
 C936 C 1.08907 0.40937 0.35251
 C937 C 1.09651 0.42733 0.37629
 C938 C 1.12263 0.42841 0.38859
 C939 C 1.12875 0.44667 0.41345
 C940 C 1.10939 0.46217 0.42655
 C941 C 1.08345 0.46032 0.41496
 C942 C 1.07751 0.44352 0.38880
 H943 H 1.12188 0.34547 0.32171
 H944 H 1.21532 0.35693 0.35214
 H945 H 1.15302 0.31468 0.30517
 H946 H 1.20580 0.39544 0.38193
 H947 H 1.17604 0.42670 0.40068
 H948 H 1.09925 0.37812 0.32366
 H949 H 1.06924 0.40882 0.34251
 H950 H 1.14798 0.44856 0.42458
 H951 H 1.11460 0.47488 0.44684
 H952 H 1.05757 0.44181 0.37944
 C953 C 0.64437 -0.14263 0.31639
 C954 C 0.63182 -0.14818 0.34714
 C955 C 0.63900 -0.17075 0.36438
 C956 C 0.65837 -0.18657 0.35153
 C957 C 0.67087 -0.18049 0.32130
 C958 C 0.66346 -0.15850 0.30386
 C959 C 0.62696 -0.17736 0.39447
 C960 C 0.60812 -0.16194 0.40825
 C961 C 0.60064 -0.13897 0.39256
 C962 C 0.61268 -0.13203 0.36143
 C963 C 0.60558 -0.10889 0.34593
 C964 C 0.58810 -0.09270 0.36066
 C965 C 0.57668 -0.09888 0.39121
 C966 C 0.58212 -0.12231 0.40736
 C967 C 0.56908 -0.12767 0.43792
 C968 C 0.55273 -0.10982 0.45255
 C969 C 0.54900 -0.08614 0.43731
 C970 C 0.56037 -0.08123 0.40611
 H971 H 0.63992 -0.12627 0.30111
 H972 H 0.66400 -0.20348 0.36542
 H973 H 0.67221 -0.15363 0.28001
 H974 H 0.63227 -0.19466 0.40768
 H975 H 0.60008 -0.16839 0.43171
 H976 H 0.61360 -0.10228 0.32258
 H977 H 0.58375 -0.07487 0.34814
 H978 H 0.57135 -0.14528 0.45145
 H979 H 0.54379 -0.11422 0.47642
 H980 H 0.55707 -0.06316 0.39367
 C981 C 0.63804 0.35189 -0.18401
 C982 C 0.64695 0.37337 -0.16615
 C983 C 0.67400 0.37515 -0.15826
 C984 C 0.69142 0.35677 -0.16972
 C985 C 0.68217 0.33588 -0.18786
 C986 C 0.65540 0.33353 -0.19454
 C987 C 0.68342 0.39510 -0.13875
 C988 C 0.66649 0.41296 -0.12593
 C989 C 0.63942 0.41205 -0.13318
 C990 C 0.62979 0.39269 -0.15512
 C991 C 0.60337 0.39341 -0.16568
 C992 C 0.58641 0.41120 -0.15331
 C993 C 0.59492 0.42874 -0.12956
 C994 C 0.62153 0.42970 -0.11924
 C995 C 0.62875 0.44766 -0.09443
 C996 C 0.61005 0.46303 -0.07959
 C997 C 0.58367 0.46129 -0.08931
 C998 C 0.57655 0.44471 -0.11525
 H999 H 0.61771 0.34835 -0.18957
 H1000 H 0.71213 0.35844 -0.16403
 H1001 H 0.64785 0.31750 -0.20847
 H1002 H 0.70409 0.39666 -0.13273
 H1003 H 0.67531 0.42761 -0.11085
 H1004 H 0.59521 0.38063 -0.18405
 H1005 H 0.56617 0.41076 -0.16178
 H1006 H 0.64846 0.44951 -0.08482
 H1007 H 0.61616 0.47562 -0.05957
 H1008 H 0.55626 0.44314 -0.12324
 C1009 C 1.17823 0.14489 -0.12584
 C1010 C 1.15221 0.15116 -0.11826
 C1011 C 1.14309 0.17526 -0.12866
 C1012 C 1.15920 0.19174 -0.14723
 C1013 C 1.18463 0.18463 -0.15640
 C1014 C 1.19388 0.16113 -0.14455
 C1015 C 1.11771 0.18261 -0.12114
 C1016 C 1.10091 0.16637 -0.10418
 C1017 C 1.10874 0.14183 -0.09425
 C1018 C 1.13491 0.13418 -0.10126
 C1019 C 1.14272 0.10951 -0.09200
 C1020 C 1.12555 0.09262 -0.07741
 C1021 C 1.09996 0.09955 -0.07102
 C1022 C 1.09115 0.12435 -0.07844
 C1023 C 1.06499 0.13023 -0.07012
 C1024 C 1.04825 0.11185 -0.05650
 C1025 C 1.05701 0.08712 -0.05109
 C1026 C 1.08305 0.08140 -0.05773
 H1027 H 1.18735 0.12755 -0.11770
 H1028 H 1.15106 0.20948 -0.15611
 H1029 H 1.21375 0.15524 -0.14872
 H1030 H 1.11061 0.20108 -0.12882
 H1031 H 1.08160 0.17346 -0.09985
 H1032 H 1.16191 0.10222 -0.09636
 H1033 H 1.13235 0.07370 -0.07144
 H1034 H 1.05681 0.14876 -0.07400
 H1035 H 1.02828 0.11680 -0.05107
 H1036 H 1.09026 0.06247 -0.05271
 C1037 C 1.19048 0.62497 0.34981
 C1038 C 1.17026 0.63160 0.37190
 C1039 C 1.16477 0.65767 0.37556
 C1040 C 1.17866 0.67602 0.35742
 C1041 C 1.19791 0.66906 0.33477
 C1042 C 1.20397 0.64342 0.33159
 C1043 C 1.14504 0.66539 0.39677
 C1044 C 1.12940 0.64781 0.41288
 C1045 C 1.13296 0.62162 0.40850
 C1046 C 1.15466 0.61335 0.38939
 C1047 C 1.15975 0.58716 0.38810
 C1048 C 1.14328 0.56958 0.40316
 C1049 C 1.12078 0.57729 0.41940
 C1050 C 1.11532 0.60345 0.42230
 C1051 C 1.09170 0.61038 0.43753
 C1052 C 1.07419 0.59217 0.44868
 C1053 C 1.07958 0.56644 0.44565
 C1054 C 1.10323 0.55899 0.43180
 H1055 H 1.19577 0.60567 0.34510
 H1056 H 1.17413 0.69584 0.36051
 H1057 H 1.21860 0.63747 0.31399
 H1058 H 1.14120 0.68530 0.40033
 H1059 H 1.11468 0.65546 0.42886
 H1060 H 1.17647 0.57959 0.37568
 H1061 H 1.14781 0.54968 0.40116
 H1062 H 1.08555 0.62968 0.44002
 H1063 H 1.05606 0.59832 0.45959
 H1064 H 1.10736 0.53904 0.42922
 C1065 C 0.61754 0.18591 0.36283
 C1066 C 0.62495 0.16230 0.37718
 C1067 C 0.65124 0.15466 0.37330
 C1068 C 0.66880 0.16959 0.35507
 C1069 C 0.66094 0.19240 0.34012
 C1070 C 0.63532 0.20067 0.34469
 C1071 C 0.65999 0.13199 0.38728
 C1072 C 0.64306 0.11599 0.40398
 C1073 C 0.61637 0.12191 0.40724
 C1074 C 0.60726 0.14578 0.39457
 C1075 C 0.58079 0.15204 0.39931
 C1076 C 0.56358 0.13527 0.41472
 C1077 C 0.57187 0.11146 0.42573
 C1078 C 0.59844 0.10452 0.42231
 C1079 C 0.60586 0.08005 0.43320
 C1080 C 0.58768 0.06310 0.44585
 C1081 C 0.56140 0.06972 0.44864
 C1082 C 0.55363 0.09422 0.43935
 H1083 H 0.59809 0.19335 0.36466
 H1084 H 0.68877 0.16331 0.35227
 H1085 H 0.62880 0.21831 0.33340
 H1086 H 0.68019 0.12633 0.38491
 H1087 H 0.65173 0.09898 0.41398
 H1088 H 0.57263 0.16984 0.39115
 H1089 H 0.54339 0.14084 0.41740
 H1090 H 0.62543 0.07293 0.43157
 H1091 H 0.59432 0.04444 0.45336
 H1092 H 0.53330 0.09949 0.44143
 C1093 C 0.70247 0.62918 -0.13773
 C1094 C 0.67752 0.63534 -0.12566
 C1095 C 0.66883 0.66049 -0.13067
 C1096 C 0.68419 0.67830 -0.14762
 C1097 C 0.70846 0.67179 -0.16105
 C1098 C 0.71749 0.64697 -0.15512
 C1099 C 0.64440 0.66779 -0.11960
 C1100 C 0.62760 0.65034 -0.10548
 C1101 C 0.63460 0.62470 -0.10181
 C1102 C 0.66051 0.61734 -0.11000
 C1103 C 0.66826 0.59226 -0.10256
 C1104 C 0.65090 0.57472 -0.08902
 C1105 C 0.62496 0.58117 -0.08341
 C1106 C 0.61645 0.60622 -0.09019
 C1107 C 0.58976 0.61166 -0.08629
 C1108 C 0.57246 0.59329 -0.07540
 C1109 C 0.58084 0.56868 -0.06782
 C1110 C 0.60728 0.56271 -0.07158
 H1111 H 0.71071 0.61057 -0.13494
 H1112 H 0.67592 0.69679 -0.15239
 H1113 H 0.73650 0.64106 -0.16337
 H1114 H 0.63790 0.68717 -0.12257
 H1115 H 0.60924 0.65772 -0.09730
 H1116 H 0.68781 0.58566 -0.10659
 H1117 H 0.65771 0.55571 -0.08371
 H1118 H 0.58130 0.62976 -0.09236
 H1119 H 0.55224 0.59866 -0.07260
 H1120 H 0.61395 0.54369 -0.06600
 C1121 C 0.85663 -0.17727 -0.12024
 C1122 C 0.86955 -0.15621 -0.13475
 C1123 C 0.86362 -0.15034 -0.16901
 C1124 C 0.84570 -0.16502 -0.18762
 C1125 C 0.83319 -0.18578 -0.17287
 C1126 C 0.83886 -0.19175 -0.13906
 C1127 C 0.87557 -0.12985 -0.18470
 C1128 C 0.89286 -0.11449 -0.16705
 C1129 C 0.89904 -0.11901 -0.13267
 C1130 C 0.88777 -0.14061 -0.11646
 C1131 C 0.89503 -0.14579 -0.08256
 C1132 C 0.91182 -0.12992 -0.06466
 C1133 C 0.92195 -0.10813 -0.07957
 C1134 C 0.91588 -0.10245 -0.11388
 C1135 C 0.92629 -0.07990 -0.12766
 C1136 C 0.94103 -0.06338 -0.10792
 C1137 C 0.94638 -0.06875 -0.07392
 C1138 C 0.93745 -0.09153 -0.06003
 H1139 H 0.85955 -0.18298 -0.09434
 H1140 H 0.84176 -0.16044 -0.21392
 H1141 H 0.82923 -0.20754 -0.12690
 H1142 H 0.87133 -0.12545 -0.21097
 H1143 H 0.90112 -0.09918 -0.18138
 H1144 H 0.88802 -0.16206 -0.06895
 H1145 H 0.91652 -0.13453 -0.03857
 H1146 H 0.92280 -0.07388 -0.15332
 H1147 H 0.94790 -0.04594 -0.11924
 H1148 H 0.94136 -0.09567 -0.03360
 C1149 C 0.85859 0.33981 0.33243
 C1150 C 0.85154 0.36166 0.35034
 C1151 C 0.82491 0.36459 0.35858
 C1152 C 0.80613 0.34684 0.34777
 C1153 C 0.81351 0.32559 0.32950
 C1154 C 0.83988 0.32220 0.32224
 C1155 C 0.81716 0.38515 0.37762
 C1156 C 0.83535 0.40264 0.38946
 C1157 C 0.86209 0.40059 0.38195
 C1158 C 0.87008 0.38036 0.36083
 C1159 C 0.89628 0.37967 0.35050
 C1160 C 0.91442 0.39723 0.36182
 C1161 C 0.90738 0.41597 0.38424
 C1162 C 0.88117 0.41807 0.39470
 C1163 C 0.87544 0.43714 0.41825
 C1164 C 0.89506 0.45292 0.43123
 C1165 C 0.92095 0.45045 0.42096
 C1166 C 0.92675 0.43224 0.39686
 H1167 H 0.87845 0.33545 0.32632
 H1168 H 0.78579 0.34939 0.35392
 H1169 H 0.84608 0.30600 0.30802
 H1170 H 0.79682 0.38760 0.38384
 H1171 H 0.82770 0.41791 0.40399
 H1172 H 0.90341 0.36595 0.33309
 H1173 H 0.93437 0.39579 0.35338
 H1174 H 0.85622 0.43981 0.42811
 H1175 H 0.88999 0.46668 0.45001
 H1176 H 0.94670 0.42994 0.38879
 C1177 C 0.35342 -0.14471 0.29947
 C1178 C 0.36518 -0.14950 0.33135
 C1179 C 0.35898 -0.17263 0.34748
 C1180 C 0.34114 -0.18970 0.33256
 C1181 C 0.32895 -0.18467 0.30085
 C1182 C 0.33592 -0.16177 0.28470
 C1183 C 0.37063 -0.17875 0.37856
 C1184 C 0.38809 -0.16230 0.39428
 C1185 C 0.39451 -0.13871 0.37969
 C1186 C 0.38273 -0.13214 0.34776
 C1187 C 0.38850 -0.10824 0.33358
 C1188 C 0.40475 -0.09120 0.35008
 C1189 C 0.41625 -0.09722 0.38119
 C1190 C 0.41183 -0.12120 0.39627
 C1191 C 0.42478 -0.12638 0.42750
 C1192 C 0.44035 -0.10811 0.44350
 C1193 C 0.44358 -0.08409 0.42905
 C1194 C 0.43182 -0.07904 0.39753
 H1195 H 0.35711 -0.12779 0.28506
 H1196 H 0.33800 -0.20748 0.34551
 H1197 H 0.32692 -0.15573 0.26117
 H1198 H 0.36611 -0.19649 0.39105
 H1199 H 0.39588 -0.16851 0.41832
 H1200 H 0.38035 -0.10175 0.30989
 H1201 H 0.40819 -0.07292 0.33838
 H1202 H 0.42317 -0.14427 0.44042
 H1203 H 0.44927 -0.11260 0.46778
 H1204 H 0.43446 -0.06066 0.38577
 C1205 C 0.36729 0.34522 -0.17639
 C1206 C 0.35888 0.36369 -0.15356
 C1207 C 0.33302 0.36190 -0.14166
 C1208 C 0.31575 0.34349 -0.15464
 C1209 C 0.32409 0.32634 -0.17893
 C1210 C 0.35018 0.32698 -0.18877
 C1211 C 0.32459 0.37855 -0.11708
 C1212 C 0.34139 0.39679 -0.10372
 C1213 C 0.36709 0.39973 -0.11548
 C1214 C 0.37549 0.38355 -0.14184
 C1215 C 0.40000 0.38808 -0.15637
 C1216 C 0.41659 0.40659 -0.14414
 C1217 C 0.40960 0.42121 -0.11681
 C1218 C 0.38476 0.41832 -0.10207
 C1219 C 0.37911 0.43379 -0.07412
 C1220 C 0.39779 0.45060 -0.06089
 C1221 C 0.42255 0.45257 -0.07514
 C1222 C 0.42783 0.43835 -0.10377
 H1223 H 0.38713 0.34397 -0.18472
 H1224 H 0.29568 0.34293 -0.14644
 H1225 H 0.35748 0.31324 -0.20628
 H1226 H 0.30487 0.37728 -0.10775
 H1227 H 0.33344 0.40875 -0.08468
 H1228 H 0.40678 0.37796 -0.17792
 H1229 H 0.43537 0.40918 -0.15590
 H1230 H 0.36080 0.43274 -0.06122
 H1231 H 0.39310 0.46147 -0.03887
 H1232 H 0.44675 0.43985 -0.11547
 C1233 C 1.13970 -0.18278 0.11008
 C1234 C 1.12595 -0.16361 0.12693
 C1235 C 1.13171 -0.16025 0.16172
 C1236 C 1.15048 -0.17528 0.17848
 C1237 C 1.16422 -0.19384 0.16129
 C1238 C 1.15844 -0.19757 0.12704
 C1239 C 1.11889 -0.14174 0.17973
 C1240 C 1.10113 -0.12570 0.16385
 C1241 C 1.09534 -0.12750 0.12901
 C1242 C 1.10720 -0.14735 0.11047
 C1243 C 1.10005 -0.15008 0.07612
 C1244 C 1.08289 -0.13338 0.06003
 C1245 C 1.07239 -0.11305 0.07723
 C1246 C 1.07834 -0.10989 0.11204
 C1247 C 1.06778 -0.08860 0.12813
 C1248 C 1.05296 -0.07087 0.11017
 C1249 C 1.04764 -0.07376 0.07572
 C1250 C 1.05672 -0.09532 0.05953
 H1251 H 1.13686 -0.18657 0.08365
 H1252 H 1.15440 -0.17251 0.20514
 H1253 H 1.16890 -0.21163 0.11301
 H1254 H 1.12290 -0.13936 0.20644
 H1255 H 1.09218 -0.11206 0.17987
 H1256 H 1.10741 -0.16503 0.06079
 H1257 H 1.07827 -0.13610 0.03355
 H1258 H 1.07134 -0.08442 0.15430
 H1259 H 1.04603 -0.05440 0.12327
 H1260 H 1.05284 -0.09756 0.03279
 C1261 C 1.14449 0.31986 0.61811
 C1262 C 1.15151 0.34528 0.61115
 C1263 C 1.17538 0.35437 0.62506
 C1264 C 1.19142 0.33845 0.64491
 C1265 C 1.18382 0.31353 0.65199
 C1266 C 1.16038 0.30440 0.63821
 C1267 C 1.18284 0.37945 0.61981
 C1268 C 1.16661 0.39613 0.60218
 C1269 C 1.14232 0.38821 0.58856
 C1270 C 1.13520 0.36211 0.59196
 C1271 C 1.11180 0.35372 0.57642
 C1272 C 1.09487 0.37044 0.56053
 C1273 C 1.10056 0.39613 0.55924
 C1274 C 1.12459 0.40552 0.57228
 C1275 C 1.12926 0.43192 0.56932
 C1276 C 1.11022 0.44818 0.55557
 C1277 C 1.08610 0.43859 0.54464
 C1278 C 1.08182 0.41252 0.54560
 H1279 H 1.12656 0.31140 0.60925
 H1280 H 1.20944 0.34575 0.65587
 H1281 H 1.15422 0.28513 0.64310
 H1282 H 1.20118 0.38645 0.63014
 H1283 H 1.17367 0.41523 0.59978
 H1284 H 1.10580 0.33423 0.57613
 H1285 H 1.07677 0.36319 0.54974
 H1286 H 1.14707 0.44071 0.57814
 H1287 H 1.11397 0.46832 0.55470
 H1288 H 1.06338 0.40492 0.53631
 C1289 C 0.65454 -0.17874 0.61070
 C1290 C 0.63407 -0.16668 0.62782
 C1291 C 0.63407 -0.16867 0.66350
 C1292 C 0.65332 -0.18279 0.68087
 C1293 C 0.67344 -0.19456 0.66349
 C1294 C 0.67389 -0.19229 0.62832
 C1295 C 0.61504 -0.15631 0.68177
 C1296 C 0.59652 -0.14116 0.66562
 C1297 C 0.59591 -0.13814 0.63022
 C1298 C 0.61409 -0.15218 0.61091
 C1299 C 0.61159 -0.15132 0.57540
 C1300 C 0.59295 -0.13625 0.55926
 C1301 C 0.57649 -0.12090 0.57769
 C1302 C 0.57776 -0.12150 0.61346
 C1303 C 0.56165 -0.10450 0.63091
 C1304 C 0.54569 -0.08728 0.61349
 C1305 C 0.54458 -0.08687 0.57828
 C1306 C 0.55951 -0.10414 0.56048
 H1307 H 0.65657 -0.17756 0.58375
 H1308 H 0.65306 -0.18408 0.70816
 H1309 H 0.68922 -0.20122 0.61431
 H1310 H 0.61473 -0.15800 0.70902
 H1311 H 0.58253 -0.13236 0.68166
 H1312 H 0.62361 -0.16245 0.55926
 H1313 H 0.59192 -0.13607 0.53193
 H1314 H 0.56192 -0.10308 0.65797
 H1315 H 0.53462 -0.07371 0.62763
 H1316 H 0.55930 -0.10328 0.53318
 C1317 C 0.65087 0.32541 0.10926
 C1318 C 0.65575 0.35176 0.10812
 C1319 C 0.67662 0.36124 0.12833
 C1320 C 0.69114 0.34497 0.14961
 C1321 C 0.68514 0.31914 0.15148
 C1322 C 0.66526 0.30953 0.13065
 C1323 C 0.68245 0.38699 0.12793
 C1324 C 0.66737 0.40385 0.10896
 C1325 C 0.64564 0.39559 0.08962
 C1326 C 0.64012 0.36902 0.08858
 C1327 C 0.61861 0.36064 0.06892
 C1328 C 0.60198 0.37754 0.05279
 C1329 C 0.60626 0.40342 0.05503
 C1330 C 0.62858 0.41299 0.07231
 C1331 C 0.63220 0.43963 0.07234
 C1332 C 0.61346 0.45584 0.05782
 C1333 C 0.59071 0.44593 0.04315
 C1334 C 0.58768 0.41979 0.04087
 H1335 H 0.63583 0.31633 0.09445
 H1336 H 0.70649 0.35262 0.16573
 H1337 H 0.66067 0.28955 0.13102
 H1338 H 0.69857 0.39430 0.14303
 H1339 H 0.67296 0.42342 0.11066
 H1340 H 0.61354 0.34105 0.06601
 H1341 H 0.58519 0.37022 0.03895
 H1342 H 0.64894 0.44858 0.08395
 H1343 H 0.61619 0.47609 0.05940
 H1344 H 0.57025 0.41214 0.02874
 C1345 C 0.83603 0.13552 0.18494
 C1346 C 0.85426 0.14352 0.16061
 C1347 C 0.85353 0.16916 0.15005
 C1348 C 0.83583 0.18608 0.16440
 C1349 C 0.81834 0.17786 0.18909
 C1350 C 0.81853 0.15240 0.19883
 C1351 C 0.87042 0.17778 0.12520
 C1352 C 0.88784 0.16145 0.11014
 C1353 C 0.88947 0.13577 0.11985
 C1354 C 0.87285 0.12687 0.14615
 C1355 C 0.87552 0.10165 0.15745
 C1356 C 0.89288 0.08533 0.14274
 C1357 C 0.90832 0.09332 0.11616
 C1358 C 0.90715 0.11862 0.10430
 C1359 C 0.92350 0.12539 0.07708
 C1360 C 0.93975 0.10758 0.06214
 C1361 C 0.94025 0.08253 0.07378
 C1362 C 0.92475 0.07579 0.10119
 H1363 H 0.83433 0.11624 0.19347
 H1364 H 0.83591 0.20576 0.15662
 H1365 H 0.80475 0.14531 0.21705
 H1366 H 0.87000 0.19737 0.11702
 H1367 H 0.90004 0.16967 0.09109
 H1368 H 0.86465 0.09384 0.17806
 H1369 H 0.89403 0.06606 0.15216
 H1370 H 0.92381 0.14412 0.06626
 H1371 H 0.95142 0.11329 0.04086
 H1372 H 0.92510 0.05654 0.11077
 C1373 C 0.86528 0.64695 0.67629
 C1374 C 0.85968 0.63320 0.64659
 C1375 C 0.83782 0.64086 0.62660
 C1376 C 0.82241 0.66143 0.63623
 C1377 C 0.82831 0.67476 0.66579
 C1378 C 0.84984 0.66720 0.68561
 C1379 C 0.83145 0.62801 0.59707
 C1380 C 0.84643 0.60784 0.58654
 C1381 C 0.86859 0.59963 0.60525
 C1382 C 0.87517 0.61238 0.63596
 C1383 C 0.89724 0.60414 0.65479
 C1384 C 0.91314 0.58510 0.64333
 C1385 C 0.90762 0.57318 0.61291
 C1386 C 0.88489 0.57961 0.59383
 C1387 C 0.87997 0.56613 0.56365
 C1388 C 0.89791 0.54860 0.55188
 C1389 C 0.92120 0.54382 0.56981
 C1390 C 0.92538 0.55548 0.60094
 H1391 H 0.88134 0.64260 0.69316
 H1392 H 0.80587 0.66715 0.62057
 H1393 H 0.85453 0.67665 0.70905
 H1394 H 0.81474 0.63372 0.58170
 H1395 H 0.84024 0.59928 0.56323
 H1396 H 0.90321 0.61228 0.67845
 H1397 H 0.93029 0.57994 0.65824
 H1398 H 0.86284 0.56911 0.54803
 H1399 H 0.89412 0.53977 0.52776
 H1400 H 0.94317 0.55161 0.61527
 C1401 C 0.32248 0.13557 0.64237
 C1402 C 0.34859 0.14060 0.63310
 C1403 C 0.35916 0.16463 0.64116
 C1404 C 0.34428 0.18238 0.65863
 C1405 C 0.31862 0.17681 0.66804
 C1406 C 0.30790 0.15335 0.65950
 C1407 C 0.38455 0.17080 0.63189
 C1408 C 0.39993 0.15359 0.61505
 C1409 C 0.39059 0.12922 0.60703
 C1410 C 0.36451 0.12260 0.61637
 C1411 C 0.35534 0.09802 0.60926
 C1412 C 0.37104 0.08037 0.59413
 C1413 C 0.39642 0.08644 0.58502
 C1414 C 0.40658 0.11099 0.59063
 C1415 C 0.43237 0.11602 0.57974
 C1416 C 0.44748 0.09714 0.56513
 C1417 C 0.43747 0.07271 0.56108
 C1418 C 0.41176 0.06773 0.57063
 H1419 H 0.31255 0.11812 0.63686
 H1420 H 0.35262 0.20066 0.66470
 H1421 H 0.28820 0.14849 0.66666
 H1422 H 0.39271 0.18918 0.63783
 H1423 H 0.41934 0.15988 0.60916
 H1424 H 0.33614 0.09145 0.61563
 H1425 H 0.36320 0.06162 0.58971
 H1426 H 0.44151 0.13427 0.58222
 H1427 H 0.46723 0.10155 0.55768
 H1428 H 0.40356 0.04902 0.56696
 C1429 C 0.31402 0.61892 0.14410
 C1430 C 0.33472 0.62475 0.12216
 C1431 C 0.33980 0.65063 0.11522
 C1432 C 0.32475 0.66960 0.12968
 C1433 C 0.30500 0.66357 0.15233
 C1434 C 0.29957 0.63804 0.15901
 C1435 C 0.36026 0.65760 0.09444
 C1436 C 0.37702 0.63958 0.08214
 C1437 C 0.37368 0.61369 0.08976
 C1438 C 0.35119 0.60596 0.10797
 C1439 C 0.34607 0.57981 0.11134
 C1440 C 0.36306 0.56186 0.09874
 C1441 C 0.38632 0.56919 0.08363
 C1442 C 0.39212 0.59528 0.07956
 C1443 C 0.41671 0.60204 0.06673
 C1444 C 0.43449 0.58371 0.05775
 C1445 C 0.42846 0.55802 0.06071
 C1446 C 0.40416 0.55070 0.07316
 H1447 H 0.30923 0.59982 0.15137
 H1448 H 0.32885 0.68923 0.12376
 H1449 H 0.28469 0.63275 0.17680
 H1450 H 0.36381 0.67730 0.08833
 H1451 H 0.39225 0.64654 0.06609
 H1452 H 0.32872 0.57262 0.12310
 H1453 H 0.35831 0.54201 0.10180
 H1454 H 0.42328 0.62132 0.06448
 H1455 H 0.45315 0.58975 0.04796
 H1456 H 0.39954 0.53078 0.07570
   
