data_POSCAR
  _audit_creation_date              2014-09-24
  _audit_creation_method            'ToBaCCo'
  _symmetry_space_group_name_H-M    'P1'
  _symmetry_Int_Tables_number       1
  _symmetry_cell_setting            triclinic
  loop_
  _symmetry_equiv_pos_as_xyz
 x,y,z
_cell_length_a 78.8580
_cell_length_b 78.7155
_cell_length_c 78.2998
_cell_angle_alpha 89.953700
_cell_angle_beta 89.988000
_cell_angle_gamma 89.960800
loop_
  _atom_site_label
  _atom_site_type_symbol
  _atom_site_fract_x
  _atom_site_fract_y
  _atom_site_fract_z
N1 N 0.35617 1.34556 0.31025
 N2 N 0.34401 1.35695 0.30998
 C3 C 0.34671 1.36772 0.29689
 C4 C 0.36142 1.36283 0.28838
 C5 C 0.36700 1.34863 0.29734
 H6 H 0.33858 1.37836 0.29390
 H7 H 0.37814 1.34106 0.29482
 Cu8 Cu 0.32592 1.35683 0.32693
 Cu9 Cu 0.35719 1.32766 0.32736
 Cu10 Cu 0.32588 1.32749 0.35834
 N11 N 0.30892 1.35692 0.34498
 N12 N 0.30896 1.34543 0.35714
 C13 C 0.29605 1.34851 0.36793
 C14 C 0.28733 1.36281 0.36231
 C15 C 0.29597 1.36776 0.34765
 H16 H 0.29337 1.34087 0.37907
 H17 H 0.29319 1.37849 0.33952
 N18 N 0.34412 1.31041 0.35743
 N19 N 0.35610 1.31054 0.34569
 C20 C 0.36678 1.29751 0.34861
 C21 C 0.36129 1.28868 0.36291
 C22 C 0.34685 1.29728 0.36812
 H23 H 0.37780 1.29473 0.34091
 H24 H 0.33890 1.29429 0.37894
 H25 H 0.33148 1.32683 0.33260
 H26 H 0.34461 1.34126 0.34618
 N27 N 0.35685 0.84560 0.81120
 N28 N 0.34371 0.85572 0.80955
 C29 C 0.34647 0.86642 0.79642
 C30 C 0.36221 0.86278 0.78936
 C31 C 0.36840 0.84947 0.79917
 H32 H 0.33754 0.87596 0.79220
 H33 H 0.38033 0.84289 0.79760
 Cu34 Cu 0.32412 0.85381 0.82448
 Cu35 Cu 0.35763 0.82747 0.82810
 Cu36 Cu 0.32263 0.82333 0.85453
 N37 N 0.30808 0.85480 0.84333
 N38 N 0.30755 0.84284 0.85501
 C39 C 0.29508 0.84633 0.86618
 C40 C 0.28732 0.86139 0.86131
 C41 C 0.29597 0.86639 0.84671
 H42 H 0.29182 0.83832 0.87690
 H43 H 0.29367 0.87759 0.83905
 N44 N 0.34235 0.80808 0.85570
 N45 N 0.35582 0.80984 0.84588
 C46 C 0.36719 0.79774 0.84996
 C47 C 0.36060 0.78787 0.86304
 C48 C 0.34480 0.79486 0.86633
 H49 H 0.37941 0.79630 0.84390
 H50 H 0.33571 0.79067 0.87576
 H51 H 0.33200 0.82398 0.82958
 H52 H 0.34133 0.83897 0.84546
 N53 N 0.85647 1.34522 0.81008
 N54 N 0.84427 1.35658 0.80988
 C55 C 0.84688 1.36737 0.79678
 C56 C 0.86158 1.36255 0.78822
 C57 C 0.86724 1.34835 0.79713
 H58 H 0.83871 1.37798 0.79385
 H59 H 0.87843 1.34085 0.79459
 Cu60 Cu 0.82634 1.35641 0.82699
 Cu61 Cu 0.85769 1.32738 0.82726
 Cu62 Cu 0.82651 1.32713 0.85841
 N63 N 0.80930 1.35641 0.84500
 N64 N 0.80943 1.34492 0.85717
 C65 C 0.79652 1.34795 0.86798
 C66 C 0.78776 1.36216 0.86235
 C67 C 0.79628 1.36716 0.84769
 H68 H 0.79391 1.34045 0.87924
 H69 H 0.79328 1.37786 0.83958
 N70 N 0.84490 1.31021 0.85751
 N71 N 0.85680 1.31034 0.84568
 C72 C 0.86755 1.29736 0.84858
 C73 C 0.86220 1.28857 0.86295
 C74 C 0.84776 1.29714 0.86824
 H75 H 0.87850 1.29457 0.84078
 H76 H 0.83990 1.29414 0.87913
 H77 H 0.83203 1.32646 0.83268
 H78 H 0.84519 1.34091 0.84617
 N79 N 0.85702 0.84572 0.31047
 N80 N 0.84536 0.85762 0.31086
 C81 C 0.84804 0.86849 0.29785
 C82 C 0.86221 0.86315 0.28873
 C83 C 0.86751 0.84858 0.29723
 H84 H 0.84023 0.87949 0.29531
 H85 H 0.87822 0.84058 0.29417
 Cu86 Cu 0.82792 0.85776 0.32848
 Cu87 Cu 0.85794 0.82749 0.32729
 Cu88 Cu 0.82669 0.82717 0.35845
 N89 N 0.81027 0.85730 0.34588
 N90 N 0.80985 0.84526 0.35751
 C91 C 0.79659 0.84795 0.36798
 C92 C 0.78816 0.86250 0.36270
 C93 C 0.79726 0.86806 0.34859
 H94 H 0.79340 0.83986 0.37866
 H95 H 0.79472 0.87920 0.34094
 N96 N 0.84485 0.80999 0.35724
 N97 N 0.85675 0.81012 0.34540
 C98 C 0.86740 0.79702 0.34818
 C99 C 0.86200 0.78818 0.36250
 C100 C 0.84763 0.79682 0.36786
 H101 H 0.87837 0.79426 0.34040
 H102 H 0.83981 0.79384 0.37878
 H103 H 0.83227 0.82739 0.33271
 H104 H 0.84605 0.84054 0.34687
 N105 N 0.64332 0.65514 0.31049
 N106 N 0.65555 0.64381 0.31022
 C107 C 0.65286 0.63304 0.29714
 C108 C 0.63816 0.63790 0.28871
 C109 C 0.63249 0.65201 0.29761
 H110 H 0.66102 0.62246 0.29400
 H111 H 0.62121 0.65939 0.29508
 Cu112 Cu 0.67368 0.64401 0.32712
 Cu113 Cu 0.64216 0.67297 0.32760
 Cu114 Cu 0.67325 0.67306 0.35877
 N115 N 0.69057 0.64392 0.34527
 N116 N 0.69033 0.65526 0.35757
 C117 C 0.70323 0.65217 0.36838
 C118 C 0.71210 0.63808 0.36262
 C119 C 0.70363 0.63320 0.34789
 H120 H 0.70581 0.65958 0.37970
 H121 H 0.70672 0.62263 0.33966
 N122 N 0.65491 0.69005 0.35784
 N123 N 0.64309 0.69001 0.34594
 C124 C 0.63238 0.70303 0.34876
 C125 C 0.63766 0.71177 0.36316
 C126 C 0.65203 0.70312 0.36855
 H127 H 0.62149 0.70586 0.34090
 H128 H 0.65983 0.70607 0.37949
 H129 H 0.66781 0.67391 0.33297
 H130 H 0.65468 0.65924 0.34631
 N131 N 0.64335 0.15474 0.80985
 N132 N 0.65549 0.14331 0.80976
 C133 C 0.65283 0.13246 0.79674
 C134 C 0.63819 0.13732 0.78811
 C135 C 0.63258 0.15159 0.79691
 H136 H 0.66095 0.12178 0.79390
 H137 H 0.62146 0.15916 0.79428
 Cu138 Cu 0.67347 0.14353 0.82682
 Cu139 Cu 0.64217 0.17267 0.82691
 Cu140 Cu 0.67312 0.17275 0.85827
 N141 N 0.69046 0.14355 0.84489
 N142 N 0.69021 0.15495 0.85713
 C143 C 0.70314 0.15197 0.86793
 C144 C 0.71206 0.13788 0.86222
 C145 C 0.70358 0.13290 0.84752
 H146 H 0.70571 0.15944 0.87920
 H147 H 0.70671 0.12231 0.83933
 N148 N 0.65479 0.18974 0.85725
 N149 N 0.64307 0.18977 0.84525
 C150 C 0.63239 0.20283 0.84801
 C151 C 0.63758 0.21151 0.86249
 C152 C 0.65186 0.20279 0.86798
 H153 H 0.62159 0.20574 0.84005
 H154 H 0.65956 0.20566 0.87901
 H155 H 0.66780 0.17350 0.83247
 H156 H 0.65448 0.15903 0.84583
 N157 N 1.14352 0.65462 0.81044
 N158 N 1.15519 0.64272 0.81078
 C159 C 1.15253 0.63192 0.79772
 C160 C 1.13837 0.63730 0.78868
 C161 C 1.13304 0.65180 0.79719
 H162 H 1.16028 0.62091 0.79508
 H163 H 1.12225 0.65970 0.79413
 Cu164 Cu 1.17253 0.64238 0.82845
 Cu165 Cu 1.14250 0.67268 0.82738
 Cu166 Cu 1.17361 0.67274 0.85862
 N167 N 1.19012 0.64279 0.84586
 N168 N 1.19045 0.65471 0.85758
 C169 C 1.20365 0.65197 0.86809
 C170 C 1.21215 0.63750 0.86272
 C171 C 1.20315 0.63204 0.84852
 H172 H 1.20670 0.65991 0.87890
 H173 H 1.20580 0.62103 0.84075
 N174 N 1.15545 0.68990 0.85751
 N175 N 1.14361 0.68988 0.84562
 C176 C 1.13298 0.70297 0.84842
 C177 C 1.13834 0.71171 0.86281
 C178 C 1.15266 0.70301 0.86819
 H179 H 1.12207 0.70582 0.84060
 H180 H 1.16045 0.70589 0.87915
 H181 H 1.16816 0.67271 0.83283
 H182 H 1.15431 0.65945 0.84686
 N183 N 1.14325 0.15441 0.31042
 N184 N 1.15490 0.14249 0.31090
 C185 C 1.15229 0.13160 0.29791
 C186 C 1.13819 0.13696 0.28877
 C187 C 1.13283 0.15152 0.29714
 H188 H 1.15998 0.12052 0.29542
 H189 H 1.12214 0.15947 0.29391
 Cu190 Cu 1.17220 0.14231 0.32860
 Cu191 Cu 1.14220 0.17262 0.32717
 Cu192 Cu 1.17324 0.17293 0.35850
 N193 N 1.18974 0.14286 0.34603
 N194 N 1.19007 0.15487 0.35765
 C195 C 1.20327 0.15220 0.36819
 C196 C 1.21174 0.13768 0.36294
 C197 C 1.20275 0.13212 0.34879
 H198 H 1.20639 0.16027 0.37889
 H199 H 1.20534 0.12100 0.34115
 N200 N 1.15510 0.19008 0.35717
 N201 N 1.14329 0.18996 0.34525
 C202 C 1.13264 0.20307 0.34792
 C203 C 1.13795 0.21191 0.36225
 C204 C 1.15227 0.20326 0.36774
 H205 H 1.12175 0.20585 0.34005
 H206 H 1.16001 0.20622 0.37871
 H207 H 1.16783 0.17267 0.33270
 H208 H 1.15394 0.15954 0.34681
 N209 N 0.64315 1.34515 0.68939
 N210 N 0.65476 1.35710 0.68908
 C211 C 0.65203 1.36785 0.70216
 C212 C 0.63790 1.36238 0.71118
 C213 C 0.63265 1.34788 0.70264
 H214 H 0.65967 1.37893 0.70479
 H215 H 0.62196 1.33988 0.70575
 Cu216 Cu 0.67216 1.35757 0.67145
 Cu217 Cu 0.64231 1.32709 0.67244
 Cu218 Cu 0.67364 1.32707 0.64140
 N219 N 0.68988 1.35717 0.65414
 N220 N 0.69041 1.34518 0.64250
 C221 C 0.70370 1.34797 0.63209
 C222 C 0.71202 1.36254 0.63743
 C223 C 0.70284 1.36800 0.65152
 H224 H 0.70696 1.33995 0.62139
 H225 H 0.70528 1.37912 0.65921
 N226 N 0.65554 1.30984 0.64243
 N227 N 0.64359 1.30989 0.65422
 C228 C 0.63299 1.29679 0.65134
 C229 C 0.63849 1.28802 0.63703
 C230 C 0.65285 1.29671 0.63176
 H231 H 0.62199 1.29398 0.65906
 H232 H 0.66075 1.29379 0.62088
 H233 H 0.66803 1.32718 0.66719
 H234 H 0.65420 1.34031 0.65300
 N235 N 0.64170 0.84662 1.18746
 N236 N 0.65471 0.85695 1.18873
 C237 C 0.65255 0.86697 1.20250
 C238 C 0.63735 0.86269 1.21031
 C239 C 0.63084 0.84969 1.20034
 H240 H 0.66141 0.87664 1.20652
 H241 H 0.61896 0.84307 1.20211
 Cu242 Cu 0.67301 0.85648 1.17203
 Cu243 Cu 0.63950 0.83035 1.16889
 Cu244 Cu 0.67373 0.82655 1.14137
 N245 N 0.69056 0.85616 1.15455
 N246 N 0.69092 0.84425 1.14282
 C247 C 0.70417 0.84697 1.13235
 C248 C 0.71266 0.86143 1.13774
 C249 C 0.70361 0.86689 1.15192
 H250 H 0.70721 0.83907 1.12150
 H251 H 0.70615 0.87796 1.15964
 N252 N 0.65483 0.81019 1.14187
 N253 N 0.64166 0.81183 1.15213
 C254 C 0.63078 0.79899 1.14919
 C255 C 0.63734 0.78879 1.13637
 C256 C 0.65264 0.79632 1.13208
 H257 H 0.61888 0.79731 1.15581
 H258 H 0.66154 0.79204 1.12251
 H259 H 0.66532 0.82712 1.16658
 H260 H 0.65534 0.84209 1.15098
 N261 N 1.14346 1.34451 1.18938
 N262 N 1.15570 1.35580 1.18978
 C263 C 1.15301 1.36647 1.20295
 C264 C 1.13826 1.36161 1.21130
 C265 C 1.13259 1.34757 1.20227
 H266 H 1.16117 1.37701 1.20614
 H267 H 1.12131 1.34019 1.20471
 Cu268 Cu 1.17379 1.35576 1.17284
 Cu269 Cu 1.14238 1.32679 1.17213
 Cu270 Cu 1.17373 1.32676 1.14118
 N271 N 1.19084 1.35593 1.15485
 N272 N 1.19076 1.34458 1.14256
 C273 C 1.20369 1.34775 1.13182
 C274 C 1.21242 1.36190 1.13761
 C275 C 1.20383 1.36673 1.15230
 H276 H 1.20637 1.34034 1.12052
 H277 H 1.20676 1.37735 1.16052
 N278 N 1.15541 1.30977 1.14193
 N279 N 1.14342 1.30985 1.15367
 C280 C 1.13275 1.29684 1.15072
 C281 C 1.13824 1.28807 1.13640
 C282 C 1.15267 1.29670 1.13119
 H283 H 1.12176 1.29402 1.15844
 H284 H 1.16064 1.29372 1.12038
 H285 H 1.16809 1.32585 1.16692
 H286 H 1.15503 1.34048 1.15346
 N287 N 1.14310 0.84495 0.68886
 N288 N 1.15469 0.85692 0.68850
 C289 C 1.15192 0.86772 0.70154
 C290 C 1.13780 0.86225 0.71058
 C291 C 1.13258 0.84771 0.70210
 H292 H 1.15955 0.87881 0.70415
 H293 H 1.12193 0.83969 0.70524
 Cu294 Cu 1.17211 0.85724 0.67088
 Cu295 Cu 1.14228 0.82678 0.67205
 Cu296 Cu 1.17354 0.82668 0.64092
 N297 N 1.18977 0.85685 0.65351
 N298 N 1.19026 0.84485 0.64188
 C299 C 1.20352 0.84760 0.63143
 C300 C 1.21187 0.86216 0.63674
 C301 C 1.20274 0.86766 0.65084
 H302 H 1.20677 0.83955 0.62075
 H303 H 1.20522 0.87878 0.65851
 N304 N 1.15549 0.80941 0.64211
 N305 N 1.14359 0.80948 0.65395
 C306 C 1.13301 0.79636 0.65118
 C307 C 1.13845 0.78755 0.63687
 C308 C 1.15278 0.79624 0.63150
 H309 H 1.12205 0.79356 0.65894
 H310 H 1.16062 0.79330 0.62058
 H311 H 1.16796 0.82685 0.66669
 H312 H 1.15409 0.83994 0.65251
 N313 N 0.35646 0.65522 0.68943
 N314 N 0.34427 0.64387 0.68970
 C315 C 0.34691 0.63315 0.70286
 C316 C 0.36156 0.63806 0.71133
 C317 C 0.36724 0.65215 0.70238
 H318 H 0.33877 0.62257 0.70599
 H319 H 0.37849 0.65956 0.70492
 Cu320 Cu 0.32629 0.64399 0.67267
 Cu321 Cu 0.35766 0.67299 0.67222
 Cu322 Cu 0.32654 0.67304 0.64103
 N323 N 0.30928 0.64392 0.65466
 N324 N 0.30945 0.65527 0.64236
 C325 C 0.29650 0.65221 0.63161
 C326 C 0.28767 0.63812 0.63744
 C327 C 0.29620 0.63323 0.65214
 H328 H 0.29388 0.65961 0.62029
 H329 H 0.29316 0.62266 0.66039
 N330 N 0.34489 0.68998 0.64188
 N331 N 0.35673 0.68995 0.65376
 C332 C 0.36740 0.70299 0.65091
 C333 C 0.36206 0.71173 0.63651
 C334 C 0.34772 0.70306 0.63115
 H335 H 0.37828 0.70586 0.65876
 H336 H 0.33987 0.70602 0.62024
 H337 H 0.33200 0.67390 0.66680
 H338 H 0.34520 0.65932 0.65345
 N339 N 0.35636 0.15459 1.18938
 N340 N 0.34474 0.14266 1.18887
 C341 C 0.34736 0.13175 1.20185
 C342 C 0.36142 0.13711 1.21102
 C343 C 0.36676 0.15169 1.20267
 H344 H 0.33969 0.12065 1.20432
 H345 H 0.37743 0.15965 1.20594
 Cu346 Cu 0.32747 0.14248 1.17114
 Cu347 Cu 0.35744 0.17280 1.17260
 Cu348 Cu 0.32643 0.17314 1.14123
 N349 N 0.30994 0.14305 1.15368
 N350 N 0.30957 0.15509 1.14207
 C351 C 0.29636 0.15242 1.13154
 C352 C 0.28791 0.13787 1.13680
 C353 C 0.29695 0.13230 1.15093
 H354 H 0.29320 0.16051 1.12085
 H355 H 0.29439 0.12116 1.15857
 N356 N 0.34459 0.19028 1.14255
 N357 N 0.35638 0.19013 1.15449
 C358 C 0.36708 0.20318 1.15180
 C359 C 0.36182 0.21204 1.13743
 C360 C 0.34748 0.20344 1.13194
 H361 H 0.37798 0.20591 1.15967
 H362 H 0.33977 0.20643 1.12095
 H363 H 0.33185 0.17286 1.16708
 H364 H 0.34577 0.15974 1.15299
 N365 N 0.85624 0.65474 1.18957
 N366 N 0.84453 0.64290 1.18921
 C367 C 0.84714 0.63207 1.20228
 C368 C 0.86129 0.63740 1.21134
 C369 C 0.86667 0.65190 1.20285
 H370 H 0.83940 0.62105 1.20487
 H371 H 0.87741 0.65981 1.20597
 Cu372 Cu 0.82711 0.64286 1.17164
 Cu373 Cu 0.85746 0.67274 1.17260
 Cu374 Cu 0.82640 0.67312 1.14130
 N375 N 0.80984 0.64312 1.15393
 N376 N 0.80950 0.65515 1.14230
 C377 C 0.79628 0.65251 1.13179
 C378 C 0.78782 0.63798 1.13704
 C379 C 0.79685 0.63238 1.15117
 H380 H 0.79313 0.66063 1.12112
 H381 H 0.79425 0.62126 1.15883
 N382 N 0.84468 0.69014 1.14248
 N383 N 0.85656 0.68991 1.15433
 C384 C 0.86732 0.70288 1.15154
 C385 C 0.86200 0.71178 1.13724
 C386 C 0.84756 0.70329 1.13186
 H387 H 0.87829 0.70556 1.15934
 H388 H 0.83974 0.70636 1.12097
 H389 H 0.83180 0.67315 1.16706
 H390 H 0.84547 0.65964 1.15313
 N391 N 0.85636 0.15471 0.68938
 N392 N 0.84477 0.14275 0.68886
 C393 C 0.84742 0.13184 0.70185
 C394 C 0.86148 0.13722 0.71101
 C395 C 0.86677 0.15183 0.70268
 H396 H 0.83978 0.12072 0.70430
 H397 H 0.87745 0.15978 0.70590
 Cu398 Cu 0.82753 0.14248 0.67110
 Cu399 Cu 0.85747 0.17285 0.67255
 Cu400 Cu 0.82657 0.17312 0.64111
 N401 N 0.80997 0.14315 0.65368
 N402 N 0.80966 0.15515 0.64202
 C403 C 0.79644 0.15252 0.63150
 C404 C 0.78792 0.13804 0.63681
 C405 C 0.79691 0.13247 0.65097
 H406 H 0.79335 0.16057 0.62077
 H407 H 0.79428 0.12138 0.65866
 N408 N 0.84477 0.19020 0.64238
 N409 N 0.85648 0.19012 0.65439
 C410 C 0.86716 0.20318 0.65172
 C411 C 0.86197 0.21198 0.63730
 C412 C 0.84769 0.20333 0.63175
 H413 H 0.87800 0.20598 0.65966
 H414 H 0.84001 0.20627 0.62071
 H415 H 0.83182 0.17286 0.66696
 H416 H 0.84581 0.15974 0.65294
 N417 N 1.34541 0.35639 0.68986
 N418 N 1.35674 0.34416 0.68993
 C419 C 1.36761 0.34673 0.70295
 C420 C 1.36285 0.36138 0.71154
 C421 C 1.34866 0.36713 0.70281
 H422 H 1.37821 0.33854 0.70591
 H423 H 1.34131 0.37841 0.70549
 Cu424 Cu 1.35643 0.32620 0.67283
 Cu425 Cu 1.32748 0.35771 0.67285
 Cu426 Cu 1.32709 0.32666 0.64155
 N427 N 1.35630 0.30923 0.65473
 N428 N 1.34484 0.30947 0.64258
 C429 C 1.34781 0.29658 0.63170
 C430 C 1.36200 0.28765 0.63726
 C431 C 1.36699 0.29615 0.65199
 H432 H 1.34019 0.29407 0.62053
 H433 H 1.37766 0.29320 0.66011
 N434 N 1.31018 0.34510 0.64264
 N435 N 1.31035 0.35692 0.65456
 C436 C 1.29737 0.36771 0.65182
 C437 C 1.28853 0.36248 0.63745
 C438 C 1.29708 0.34807 0.63200
 H439 H 1.29462 0.37861 0.65971
 H440 H 1.29405 0.34029 0.62107
 H441 H 1.32651 0.33207 0.66736
 H442 H 1.34093 0.34531 0.65389
 N443 N 1.34531 0.85671 1.18984
 N444 N 1.35680 0.84463 1.19000
 C445 C 1.36758 0.84739 1.20305
 C446 C 1.36260 0.86205 1.21163
 C447 C 1.34834 0.86754 1.20276
 H448 H 1.37829 0.83934 1.20596
 H449 H 1.34069 0.87863 1.20535
 Cu450 Cu 1.35672 0.82659 1.17296
 Cu451 Cu 1.32741 0.85774 1.17276
 Cu452 Cu 1.32742 0.82649 1.14167
 N453 N 1.35679 0.80945 1.15501
 N454 N 1.34531 0.80949 1.14287
 C455 C 1.34835 0.79653 1.13211
 C456 C 1.36261 0.78775 1.13772
 C457 C 1.36757 0.79642 1.15237
 H458 H 1.34072 0.79385 1.12099
 H459 H 1.37827 0.79361 1.16050
 N460 N 1.31034 0.84476 1.14257
 N461 N 1.31033 0.85666 1.15441
 C462 C 1.29727 0.86731 1.15151
 C463 C 1.28857 0.86191 1.13712
 C464 C 1.29728 0.84754 1.13183
 H465 H 1.29439 0.87825 1.15931
 H466 H 1.29440 0.83967 1.12091
 H467 H 1.32673 0.83205 1.16746
 H468 H 1.34099 0.84538 1.15391
 N469 N 0.84506 0.35677 1.18991
 N470 N 0.85650 0.34465 1.19005
 C471 C 0.86732 0.34736 1.20308
 C472 C 0.86242 0.36204 1.21166
 C473 C 0.84816 0.36759 1.20282
 H474 H 0.87800 0.33926 1.20595
 H475 H 0.84057 0.37872 1.20542
 Cu476 Cu 0.85635 0.32660 1.17304
 Cu477 Cu 0.82715 0.35784 1.17284
 Cu478 Cu 0.82708 0.32668 1.14166
 N479 N 0.85640 0.30958 1.15501
 N480 N 0.84495 0.30968 1.14283
 C481 C 0.84801 0.29674 1.13205
 C482 C 0.86220 0.28798 1.13770
 C483 C 0.86716 0.29655 1.15234
 H484 H 0.84048 0.29406 1.12085
 H485 H 0.87784 0.29360 1.16046
 N486 N 0.81005 0.34497 1.14263
 N487 N 0.81006 0.35683 1.15452
 C488 C 0.79703 0.36752 1.15165
 C489 C 0.78833 0.36218 1.13723
 C490 C 0.79701 0.34780 1.13190
 H491 H 0.79417 0.37844 1.15947
 H492 H 0.79412 0.33998 1.12096
 H493 H 0.82640 0.33212 1.16741
 H494 H 0.84075 0.34543 1.15393
 N495 N 0.84505 0.85701 0.68926
 N496 N 0.85700 0.84540 0.68880
 C497 C 0.86787 0.84810 0.70178
 C498 C 0.86245 0.86221 0.71090
 C499 C 0.84788 0.86748 0.70252
 H500 H 0.87897 0.84046 0.70429
 H501 H 0.83988 0.87815 0.70575
 Cu502 Cu 0.85723 0.82804 0.67109
 Cu503 Cu 0.82687 0.85799 0.67249
 Cu504 Cu 0.82663 0.82686 0.64121
 N505 N 0.85677 0.81045 0.65364
 N506 N 0.84473 0.81004 0.64206
 C507 C 0.84742 0.79681 0.63154
 C508 C 0.86198 0.78839 0.63675
 C509 C 0.86755 0.79746 0.65086
 H510 H 0.83932 0.79362 0.62089
 H511 H 0.87869 0.79492 0.65847
 N512 N 0.80944 0.84499 0.64252
 N513 N 0.80956 0.85685 0.65441
 C514 C 0.79649 0.86752 0.65171
 C515 C 0.78765 0.86219 0.63738
 C516 C 0.79628 0.84783 0.63193
 H517 H 0.79374 0.87847 0.65953
 H518 H 0.79331 0.84005 0.62098
 H519 H 0.82688 0.83229 0.66701
 H520 H 0.83992 0.84623 0.65286
 N521 N 0.65508 0.64285 0.68936
 N522 N 0.64313 0.65448 0.68905
 C523 C 0.63238 0.65173 0.70213
 C524 C 0.63786 0.63758 0.71115
 C525 C 0.65235 0.63232 0.70262
 H526 H 0.62131 0.65938 0.70476
 H527 H 0.66036 0.62162 0.70574
 Cu528 Cu 0.64269 0.67193 0.67144
 Cu529 Cu 0.67312 0.64201 0.67242
 Cu530 Cu 0.67305 0.67336 0.64130
 N531 N 0.64302 0.68965 0.65410
 N532 N 0.65494 0.69016 0.64240
 C533 C 0.65212 0.70346 0.63197
 C534 C 0.63759 0.71181 0.63737
 C535 C 0.63220 0.70264 0.65150
 H536 H 0.66009 0.70673 0.62124
 H537 H 0.62113 0.70511 0.65924
 N538 N 0.69027 0.65524 0.64235
 N539 N 0.69029 0.64330 0.65418
 C540 C 0.70340 0.63272 0.65133
 C541 C 0.71213 0.63821 0.63699
 C542 C 0.70339 0.65255 0.63167
 H543 H 0.70627 0.62174 0.65909
 H544 H 0.70626 0.66044 0.62075
 H545 H 0.67301 0.66774 0.66708
 H546 H 0.65988 0.65387 0.65297
 N547 N 0.65509 1.14256 1.18948
 N548 N 0.64315 1.15419 1.18912
 C549 C 0.63232 1.15143 1.20213
 C550 C 0.63772 1.13723 1.21122
 C551 C 0.65229 1.13201 1.20270
 H552 H 0.62131 1.15919 1.20467
 H553 H 0.66031 1.12130 1.20574
 Cu554 Cu 0.64286 1.17169 1.17152
 Cu555 Cu 0.67325 1.14175 1.17264
 Cu556 Cu 0.67327 1.17303 1.14145
 N557 N 0.64324 1.18941 1.15417
 N558 N 0.65517 1.18984 1.14247
 C559 C 0.65242 1.20312 1.13201
 C560 C 0.63794 1.21157 1.13739
 C561 C 0.63248 1.20246 1.15154
 H562 H 0.66041 1.20632 1.12128
 H563 H 0.62142 1.20501 1.15927
 N564 N 0.69050 1.15492 1.14259
 N565 N 0.69053 1.14306 1.15449
 C566 C 0.70368 1.13249 1.15172
 C567 C 0.71240 1.13791 1.13734
 C568 C 0.70363 1.15220 1.13193
 H569 H 0.70657 1.12157 1.15955
 H570 H 0.70648 1.16001 1.12096
 H571 H 0.67318 1.16746 1.16722
 H572 H 0.66007 1.15355 1.15314
 N573 N 0.15473 0.64300 1.18961
 N574 N 0.14280 0.65464 1.18927
 C575 C 0.13204 0.65193 1.20236
 C576 C 0.13748 0.63774 1.21145
 C577 C 0.15201 0.63250 1.20288
 H578 H 0.12104 0.65968 1.20493
 H579 H 0.16003 0.62179 1.20589
 Cu580 Cu 0.14238 0.67204 1.17156
 Cu581 Cu 0.17276 0.64205 1.17265
 Cu582 Cu 0.17272 0.67323 1.14138
 N583 N 0.14277 0.68972 1.15414
 N584 N 0.15467 0.69010 1.14242
 C585 C 0.15194 0.70340 1.13196
 C586 C 0.13745 0.71193 1.13735
 C587 C 0.13204 0.70279 1.15155
 H588 H 0.15994 0.70646 1.12120
 H589 H 0.12108 0.70534 1.15941
 N590 N 0.18990 0.65505 1.14248
 N591 N 0.18992 0.64321 1.15440
 C592 C 0.20304 0.63260 1.15163
 C593 C 0.21177 0.63798 1.13724
 C594 C 0.20302 0.65229 1.13182
 H595 H 0.20591 0.62169 1.15948
 H596 H 0.20592 0.66011 1.12086
 H597 H 0.17269 0.66774 1.16721
 H598 H 0.15952 0.65381 1.15320
 N599 N 0.15495 1.14320 0.68971
 N600 N 0.14345 1.15527 0.68986
 C601 C 0.13267 1.15250 0.70292
 C602 C 0.13767 1.13786 0.71153
 C603 C 0.15194 1.13237 0.70266
 H604 H 0.12196 1.16055 0.70582
 H605 H 0.15960 1.12129 0.70527
 Cu606 Cu 0.14346 1.17331 0.67279
 Cu607 Cu 0.17283 1.14219 0.67261
 Cu608 Cu 0.17269 1.17340 0.64142
 N609 N 0.14331 1.19040 0.65476
 N610 N 0.15475 1.19036 0.64259
 C611 C 0.15167 1.20333 0.63182
 C612 C 0.13742 1.21209 0.63746
 C613 C 0.13250 1.20341 0.65213
 H614 H 0.15929 1.20602 0.62068
 H615 H 0.12183 1.20622 0.66029
 N616 N 0.18983 1.15518 0.64235
 N617 N 0.18988 1.14330 0.65423
 C618 C 0.20296 1.13268 0.65136
 C619 C 0.21163 1.13807 0.63693
 C620 C 0.20287 1.15242 0.63160
 H621 H 0.20589 1.12176 0.65918
 H622 H 0.20572 1.16026 0.62065
 H623 H 0.17344 1.16786 0.66723
 H624 H 0.15916 1.15449 0.65378
 N625 N 1.34478 0.64379 0.31099
 N626 N 1.35620 0.65593 0.31073
 C627 C 1.36691 0.65318 0.29762
 C628 C 1.36193 0.63852 0.28917
 C629 C 1.34780 0.63295 0.29808
 H630 H 1.37753 0.66126 0.29449
 H631 H 1.34034 0.62173 0.29554
 Cu632 Cu 1.35614 0.67400 0.32772
 Cu633 Cu 1.32701 0.64272 0.32817
 Cu634 Cu 1.32702 0.67401 0.35922
 N635 N 1.35628 0.69109 0.34570
 N636 N 1.34487 0.69103 0.35791
 C637 C 1.34796 0.70398 0.36866
 C638 C 1.36218 0.71275 0.36297
 C639 C 1.36707 0.70409 0.34828
 H640 H 1.34040 0.70665 0.37984
 H641 H 1.37772 0.70689 0.34009
 N642 N 1.31002 0.65569 0.35839
 N643 N 1.31005 0.64377 0.34657
 C644 C 1.29704 0.63309 0.34948
 C645 C 1.28832 0.63850 0.36386
 C646 C 1.29697 0.65290 0.36914
 H647 H 1.29421 0.62214 0.34170
 H648 H 1.29403 0.66079 0.38002
 H649 H 1.32623 0.66844 0.33346
 H650 H 1.34066 0.65519 0.34693
 N651 N 1.34507 1.14326 0.81083
 N652 N 1.35706 1.15481 0.81121
 C653 C 1.36787 1.15201 0.79819
 C654 C 1.36238 1.13790 0.78914
 C655 C 1.34782 1.13273 0.79760
 H656 H 1.37899 1.15960 0.79561
 H657 H 1.33977 1.12208 0.79444
 Cu658 Cu 1.35741 1.17225 0.82882
 Cu659 Cu 1.32692 1.14245 0.82767
 Cu660 Cu 1.32698 1.17366 0.85888
 N661 N 1.35711 1.18991 0.84620
 N662 N 1.34516 1.19038 0.85788
 C663 C 1.34796 1.20364 0.86834
 C664 C 1.36249 1.21200 0.86298
 C665 C 1.36793 1.20288 0.84885
 H666 H 1.33995 1.20688 0.87905
 H667 H 1.37901 1.20537 0.84114
 N668 N 1.30969 1.15562 0.85771
 N669 N 1.30967 1.14377 0.84582
 C670 C 1.29653 1.13321 0.84860
 C671 C 1.28781 1.13860 0.86297
 C672 C 1.29656 1.15290 0.86837
 H673 H 1.29368 1.12228 0.84079
 H674 H 1.29370 1.16070 0.87934
 H675 H 1.32708 1.16815 0.83310
 H676 H 1.34013 1.15416 0.84719
 N677 N 0.84515 0.64247 0.81135
 N678 N 0.85649 0.65467 0.81098
 C679 C 0.86716 0.65194 0.79784
 C680 C 0.86224 0.63721 0.78947
 C681 C 0.84818 0.63158 0.79848
 H682 H 0.87768 0.66011 0.79459
 H683 H 0.84067 0.62040 0.79593
 Cu684 Cu 0.85642 0.67266 0.82802
 Cu685 Cu 0.82701 0.64176 0.82821
 Cu686 Cu 0.82385 0.67635 0.85543
 N687 N 0.85590 0.69045 0.84527
 N688 N 0.84316 0.69174 0.85601
 C689 C 0.84590 0.70495 0.86653
 C690 C 0.86125 0.71240 0.86223
 C691 C 0.86722 0.70280 0.84864
 H692 H 0.83725 0.70884 0.87650
 H693 H 0.87898 0.70456 0.84181
 N694 N 0.80807 0.65696 0.85616
 N695 N 0.80947 0.64367 0.84602
 C696 C 0.79712 0.63250 0.84982
 C697 C 0.78744 0.63901 0.86305
 C698 C 0.79482 0.65456 0.86674
 H699 H 0.79540 0.62045 0.84347
 H700 H 0.79085 0.66351 0.87641
 H701 H 0.82595 0.66758 0.83034
 H702 H 0.83851 0.65633 0.84717
 N703 N 0.84506 1.14283 0.31075
 N704 N 0.85702 1.15443 0.31107
 C705 C 0.86778 1.15166 0.29801
 C706 C 0.86229 1.13753 0.28899
 C707 C 0.84779 1.13230 0.29751
 H708 H 0.87885 1.15930 0.29538
 H709 H 0.83977 1.12163 0.29439
 Cu710 Cu 0.85741 1.17186 0.32865
 Cu711 Cu 0.82695 1.14203 0.32760
 Cu712 Cu 0.82701 1.17333 0.35871
 N713 N 0.85714 1.18953 0.34601
 N714 N 0.84520 1.19002 0.35769
 C715 C 0.84800 1.20329 0.36813
 C716 C 0.86253 1.21164 0.36276
 C717 C 0.86797 1.20249 0.34864
 H718 H 0.84000 1.20655 0.37883
 H719 H 0.87905 1.20498 0.34092
 N720 N 0.80971 1.15531 0.35758
 N721 N 0.80971 1.14340 0.34575
 C722 C 0.79656 1.13287 0.34853
 C723 C 0.78779 1.13836 0.36284
 C724 C 0.79654 1.15267 0.36820
 H725 H 0.79370 1.12191 0.34076
 H726 H 0.79365 1.16054 0.37911
 H727 H 0.82709 1.16773 0.33293
 H728 H 0.84017 1.15380 0.34706
 N729 N 0.65477 0.35673 0.31040
 N730 N 0.64309 0.34484 0.31064
 C731 C 0.63225 0.34747 0.29761
 C732 C 0.63736 0.36184 0.28865
 C733 C 0.65178 0.36731 0.29725
 H734 H 0.62142 0.33951 0.29498
 H735 H 0.65955 0.37822 0.29433
 Cu736 Cu 0.64307 0.32728 0.32816
 Cu737 Cu 0.67286 0.35781 0.32730
 Cu738 Cu 0.67304 0.32670 0.35868
 N739 N 0.64335 0.30986 0.34584
 N740 N 0.65507 0.30974 0.35774
 C741 C 0.65225 0.29663 0.36841
 C742 C 0.63788 0.28794 0.36297
 C743 C 0.63263 0.29681 0.34852
 H744 H 0.66009 0.29380 0.37935
 H745 H 0.62181 0.29409 0.34055
 N746 N 0.69016 0.34493 0.35747
 N747 N 0.69010 0.35674 0.34551
 C748 C 0.70319 0.36738 0.34820
 C749 C 0.71200 0.36206 0.36257
 C750 C 0.70331 0.34775 0.36807
 H751 H 0.70602 0.37825 0.34029
 H752 H 0.70627 0.33998 0.37904
 H753 H 0.67326 0.33220 0.33283
 H754 H 0.65964 0.34591 0.34662
 N755 N 0.65518 0.85670 0.81048
 N756 N 0.64395 0.84439 0.81022
 C757 C 0.63320 0.84698 0.79711
 C758 C 0.63793 0.86173 0.78864
 C759 C 0.65197 0.86751 0.79756
 H760 H 0.62269 0.83875 0.79402
 H761 H 0.65929 0.87883 0.79501
 Cu762 Cu 0.64416 0.82631 0.82720
 Cu763 Cu 0.67303 0.85791 0.82757
 Cu764 Cu 0.67329 0.82671 0.85873
 N765 N 0.64408 0.80947 0.84543
 N766 N 0.65547 0.80967 0.85767
 C767 C 0.65237 0.79681 0.86855
 C768 C 0.63822 0.78800 0.86290
 C769 C 0.63332 0.79647 0.84816
 H770 H 0.65984 0.79421 0.87982
 H771 H 0.62269 0.79346 0.84001
 N772 N 0.69028 0.84503 0.85771
 N773 N 0.69011 0.85697 0.84590
 C774 C 0.70310 0.86771 0.84874
 C775 C 0.71194 0.86230 0.86306
 C776 C 0.70338 0.84784 0.86837
 H777 H 0.70585 0.87869 0.84095
 H778 H 0.70640 0.83994 0.87923
 H779 H 0.67400 0.83225 0.83293
 H780 H 0.65940 0.84536 0.84635
 N781 N 0.15488 0.35646 0.81098
 N782 N 0.14301 0.34477 0.81146
 C783 C 0.13214 0.34739 0.79845
 C784 C 0.13745 0.36152 0.78929
 C785 C 0.15198 0.36689 0.79768
 H786 H 0.12110 0.33967 0.79595
 H787 H 0.15990 0.37761 0.79444
 Cu788 Cu 0.14287 0.32746 0.82925
 Cu789 Cu 0.17304 0.35755 0.82779
 Cu790 Cu 0.17333 0.32652 0.85926
 N791 N 0.14329 0.30995 0.84684
 N792 N 0.15525 0.30964 0.85850
 C793 C 0.15254 0.29646 0.86910
 C794 C 0.13801 0.28791 0.86386
 C795 C 0.13255 0.29695 0.84961
 H796 H 0.16060 0.29345 0.87984
 H797 H 0.12155 0.29437 0.84183
 N798 N 0.19050 0.34470 0.85787
 N799 N 0.19036 0.35652 0.84591
 C800 C 0.20341 0.36721 0.84856
 C801 C 0.21227 0.36194 0.86291
 C802 C 0.20367 0.34759 0.86843
 H803 H 0.20615 0.37812 0.84067
 H804 H 0.20666 0.33985 0.87942
 H805 H 0.17318 0.33189 0.83344
 H806 H 0.16000 0.34582 0.84745
 N807 N 0.15499 0.85666 0.31119
 N808 N 0.14305 0.84505 0.31156
 C809 C 0.13223 0.84782 0.29853
 C810 C 0.13768 0.86195 0.28946
 C811 C 0.15221 0.86719 0.29794
 H812 H 0.12116 0.84018 0.29595
 H813 H 0.16021 0.87787 0.29477
 Cu814 Cu 0.14277 0.82759 0.32920
 Cu815 Cu 0.17312 0.85749 0.32807
 Cu816 Cu 0.17305 0.82631 0.35939
 N817 N 0.14303 0.80994 0.34665
 N818 N 0.15491 0.80954 0.35840
 C819 C 0.15213 0.79629 0.36888
 C820 C 0.13764 0.78778 0.36349
 C821 C 0.13226 0.79692 0.34927
 H822 H 0.16012 0.79322 0.37965
 H823 H 0.12132 0.79439 0.34139
 N824 N 0.19031 0.84439 0.35820
 N825 N 0.19036 0.85621 0.34626
 C826 C 0.20351 0.86677 0.34901
 C827 C 0.21222 0.86139 0.36342
 C828 C 0.20343 0.84713 0.36886
 H829 H 0.20641 0.87766 0.34115
 H830 H 0.20627 0.83934 0.37986
 H831 H 0.17307 0.83179 0.33364
 H832 H 0.15989 0.84574 0.34762
 O833 O 0.98376 0.93867 0.91496
 O834 O 0.98378 0.91890 0.89503
 C835 C 0.97796 0.93270 0.90108
 C836 C 0.96392 0.94156 0.89221
 C837 C 0.95740 0.93513 0.87683
 H838 H 0.96329 0.92416 0.87096
 O839 O 1.01696 1.06118 0.91509
 O840 O 1.01704 1.08098 0.89515
 C841 C 1.02284 1.06718 0.90124
 C842 C 1.03693 1.05833 0.89241
 C843 C 1.04344 1.06474 0.87701
 H844 H 1.03753 1.07569 0.87110
 O845 O 0.91576 0.98355 0.93810
 O846 O 0.89603 0.98356 0.91815
 C847 C 0.90200 0.97773 0.93204
 C848 C 0.89316 0.96368 0.94097
 C849 C 0.87774 0.95732 0.93467
 H850 H 0.87185 0.96329 0.92370
 O851 O 1.08491 1.01630 0.93847
 O852 O 1.10472 1.01634 0.91858
 C853 C 1.09868 1.02216 0.93244
 C854 C 1.10743 1.03625 0.94136
 C855 C 1.12281 1.04271 0.93507
 H856 H 1.12875 1.03679 0.92410
 O857 O 0.93871 0.91534 0.98310
 O858 O 0.91892 0.89557 0.98302
 C859 C 0.93272 0.90157 0.97720
 C860 C 0.94163 0.89275 0.96308
 C861 C 0.93537 0.87736 0.95655
 H862 H 0.92417 0.87169 0.96216
 O863 O 1.06157 1.08442 0.98341
 O864 O 1.08132 1.10423 0.98345
 C865 C 1.06756 1.09823 0.97757
 C866 C 1.05868 1.10707 0.96344
 C867 C 1.06500 1.12244 0.95688
 H868 H 1.07620 1.12810 0.96250
 O869 O 0.93910 1.01664 0.91472
 O870 O 0.91944 1.01667 0.89470
 C871 C 0.93318 1.02249 0.90082
 C872 C 0.94209 1.03655 0.89201
 C873 C 0.93580 1.04312 0.87658
 H874 H 0.92461 1.03754 0.87085
 O875 O 1.06165 0.98320 0.91507
 O876 O 1.08140 0.98320 0.89513
 C877 C 1.06763 0.97737 0.90120
 C878 C 1.05879 0.96329 0.89237
 C879 C 1.06516 0.95678 0.87696
 H880 H 1.07609 0.96269 0.87105
 O881 O 1.01676 0.91528 0.93845
 O882 O 1.01679 0.89547 0.91855
 C883 C 1.02259 0.90148 0.93243
 C884 C 1.03662 0.89264 0.94135
 C885 C 1.04303 0.87723 0.93501
 H886 H 1.03708 0.87134 0.92405
 O887 O 0.98375 1.08453 0.93833
 O888 O 0.98386 1.10438 0.91843
 C889 C 0.97798 1.09836 0.93228
 C890 C 0.96393 1.10722 0.94115
 C891 C 0.95757 1.12265 0.93478
 H892 H 0.96356 1.12854 0.92382
 O893 O 0.91559 1.06158 0.98293
 O894 O 0.89578 1.08137 0.98288
 C895 C 0.90185 1.06760 0.97699
 C896 C 0.89314 1.05876 0.96277
 C897 C 0.87779 1.06504 0.95619
 H898 H 0.87207 1.07623 0.96181
 O899 O 1.08483 0.93830 0.98333
 O900 O 1.10461 0.91848 0.98337
 C901 C 1.09860 0.93227 0.97747
 C902 C 1.10739 0.94111 0.96329
 C903 C 1.12278 0.93481 0.95684
 H904 H 1.12868 0.92391 0.96285
 O905 O 0.98381 1.06132 0.91489
 O906 O 0.98390 1.08112 0.89495
 C907 C 0.97803 1.06735 0.90100
 C908 C 0.96399 1.05851 0.89211
 C909 C 0.95752 1.06489 0.87666
 H910 H 0.96340 1.07585 0.87076
 O911 O 1.01690 0.93846 0.91495
 O912 O 1.01693 0.91870 0.89500
 C913 C 1.02277 0.93247 0.90109
 C914 C 1.03687 0.94133 0.89229
 C915 C 1.04347 0.93498 0.87688
 H916 H 1.03791 0.92376 0.87116
 O917 O 1.08500 0.98309 0.93830
 O918 O 1.10481 0.98309 0.91843
 C919 C 1.09876 0.97722 0.93227
 C920 C 1.10750 0.96308 0.94118
 C921 C 1.12287 0.95655 0.93489
 H922 H 1.12859 0.96215 0.92364
 O923 O 0.91578 1.01676 0.93798
 O924 O 0.89605 1.01678 0.91802
 C925 C 0.90204 1.02264 0.93188
 C926 C 0.89326 1.03678 0.94071
 C927 C 0.87791 1.04325 0.93433
 H928 H 0.87204 1.03731 0.92335
 O929 O 0.93886 1.08475 0.98311
 O930 O 0.91914 1.10463 0.98304
 C931 C 0.93293 1.09858 0.97723
 C932 C 0.94190 1.10737 0.96313
 C933 C 0.93570 1.12278 0.95654
 H934 H 0.92451 1.12852 0.96212
 O935 O 1.06156 0.91511 0.98339
 O936 O 1.08126 0.89522 0.98340
 C937 C 1.06751 0.90129 0.97753
 C938 C 1.05859 0.89252 0.96339
 C939 C 1.06484 0.87713 0.95682
 H940 H 1.07602 0.87140 0.96242
 O941 O 1.06179 1.01638 0.91499
 O942 O 1.08153 1.01642 0.89504
 C943 C 1.06777 1.02226 0.90113
 C944 C 1.05890 1.03638 0.89232
 C945 C 1.06524 1.04302 0.87691
 H946 H 1.07645 1.03747 0.87119
 O947 O 0.93902 0.98347 0.91474
 O948 O 0.91934 0.98347 0.89473
 C949 C 0.93308 0.97762 0.90086
 C950 C 0.94196 0.96351 0.89208
 C951 C 0.93561 0.95686 0.87671
 H952 H 0.92438 0.96239 0.87099
 O953 O 1.01687 1.08449 0.93843
 O954 O 1.01697 1.10433 0.91853
 C955 C 1.02273 1.09829 0.93242
 C956 C 1.03676 1.10708 0.94137
 C957 C 1.04325 1.12246 0.93501
 H958 H 1.03735 1.12837 0.92402
 O959 O 0.98362 0.91529 0.93825
 O960 O 0.98364 0.89546 0.91837
 C961 C 0.97777 0.90151 0.93221
 C962 C 0.96365 0.89274 0.94108
 C963 C 0.95720 0.87734 0.93475
 H964 H 0.96316 0.87141 0.92380
 O965 O 1.08479 1.06113 0.98339
 O966 O 1.10461 1.08088 0.98344
 C967 C 1.09858 1.06711 0.97755
 C968 C 1.10740 1.05822 0.96343
 C969 C 1.12278 1.06449 0.95693
 H970 H 1.12846 1.07568 0.96258
 O971 O 0.91555 0.93869 0.98311
 O972 O 0.89569 0.91898 0.98305
 C973 C 0.90177 0.93276 0.97721
 C974 C 0.89303 0.94171 0.96306
 C975 C 0.87761 0.93554 0.95657
 H976 H 0.87185 0.92438 0.96223
 Cu977 Cu 1.00026 0.92890 0.92865
 Cu978 Cu 1.00029 0.90515 0.90474
 Cu979 Cu 1.00033 1.07089 0.92868
 Cu980 Cu 1.00045 1.09469 0.90477
 Cu981 Cu 0.92938 1.00010 0.92839
 Cu982 Cu 0.90574 1.00012 0.90440
 Cu983 Cu 1.07137 0.99974 0.92870
 Cu984 Cu 1.09510 0.99977 0.90480
 C985 C 0.95622 0.95587 0.89963
 H986 H 0.96102 0.96073 0.91163
 C987 C 0.94320 0.94262 0.86903
 C988 C 1.04464 1.04404 0.89988
 H989 H 1.03986 1.03920 0.91190
 C990 C 1.05764 1.05724 0.86920
 C991 C 0.90061 0.95588 0.95527
 H992 H 0.91265 0.96053 0.96002
 C993 C 0.86989 0.94322 0.94235
 C994 C 1.09991 1.04400 0.95565
 H995 H 1.08791 1.03926 0.96040
 C996 C 1.13055 1.05685 0.94273
 C997 C 0.95588 0.90024 0.95535
 H998 H 0.96061 0.91224 0.96014
 C999 C 0.94303 0.86958 0.94235
 C1000 C 1.04445 1.09960 0.95570
 H1001 H 1.03968 1.08761 0.96051
 C1002 C 1.05741 1.13019 0.94262
 C1003 C 0.95629 1.04423 0.89958
 H1004 H 0.96104 1.03941 0.91163
 C1005 C 0.94340 1.05730 0.86883
 C1006 C 1.04453 0.95558 0.89984
 H1007 H 1.03971 0.96036 0.91186
 C1008 C 1.05765 0.94259 0.86916
 C1009 C 1.04438 0.90009 0.95566
 H1010 H 1.03967 0.91210 0.96045
 C1011 C 1.05717 0.86942 0.94260
 C1012 C 0.95612 1.09979 0.95544
 H1013 H 0.96079 1.08776 0.96025
 C1014 C 0.94342 1.13049 0.94233
 C1015 C 0.90069 1.04454 0.95503
 H1016 H 0.91267 1.03979 0.95985
 C1017 C 0.87010 1.05740 0.94194
 C1018 C 1.09995 0.95535 0.95547
 H1019 H 1.08795 0.96012 0.96021
 C1020 C 1.13059 0.94239 0.94261
 O1021 O 1.01639 0.93825 1.08484
 O1022 O 1.01634 0.91846 1.10479
 C1023 C 1.02218 0.93225 1.09873
 C1024 C 1.03622 0.94110 1.10761
 C1025 C 1.04271 0.93467 1.12302
 H1026 H 1.03682 0.92369 1.12889
 O1027 O 0.98337 1.06126 1.08483
 O1028 O 0.98338 1.08104 1.10476
 C1029 C 0.97755 1.06727 1.09869
 C1030 C 0.96348 1.05844 1.10753
 C1031 C 0.95697 1.06484 1.12293
 H1032 H 0.96287 1.07578 1.12883
 O1033 O 0.91568 1.01656 1.06139
 O1034 O 0.89585 1.01657 1.08125
 C1035 C 0.90190 1.02240 1.06739
 C1036 C 0.89311 1.03648 1.05845
 C1037 C 0.87774 1.04293 1.06479
 H1038 H 0.87186 1.03700 1.07578
 O1039 O 1.08447 0.98301 1.06179
 O1040 O 1.10418 0.98298 1.08176
 C1041 C 1.09823 0.97717 1.06787
 C1042 C 1.10709 0.96313 1.05895
 C1043 C 1.12249 0.95671 1.06528
 H1044 H 1.12834 0.96262 1.07629
 O1045 O 1.06158 0.91509 1.01675
 O1046 O 1.08130 0.89521 1.01681
 C1047 C 1.06754 0.90128 1.02266
 C1048 C 1.05862 0.89250 1.03681
 C1049 C 1.06494 0.87716 1.04347
 H1050 H 1.07620 0.87150 1.03794
 O1051 O 0.93866 1.08471 1.01644
 O1052 O 0.91894 1.10458 1.01644
 C1053 C 0.93268 1.09850 1.02233
 C1054 C 0.94154 1.10724 1.03651
 C1055 C 0.93524 1.12259 1.04313
 H1056 H 0.92403 1.12830 1.03755
 O1057 O 0.93884 0.98336 1.08490
 O1058 O 0.91907 0.98338 1.10483
 C1059 C 0.93284 0.97752 1.09877
 C1060 C 0.94167 0.96341 1.10762
 C1061 C 0.93536 0.95691 1.12308
 H1062 H 0.92422 0.96259 1.12882
 O1063 O 1.06116 1.01626 1.08504
 O1064 O 1.08080 1.01623 1.10508
 C1065 C 1.06709 1.02211 1.09892
 C1066 C 1.05822 1.03624 1.10769
 C1067 C 1.06451 1.04279 1.12312
 H1068 H 1.07568 1.03719 1.12888
 O1069 O 0.98334 0.91493 1.06144
 O1070 O 0.98326 0.89507 1.08133
 C1071 C 0.97748 0.90113 1.06745
 C1072 C 0.96344 0.89238 1.05847
 C1073 C 0.95688 0.87699 1.06474
 H1074 H 0.96243 0.87122 1.07600
 O1075 O 1.01652 1.08447 1.06146
 O1076 O 1.01652 1.10430 1.08134
 C1077 C 1.02236 1.09825 1.06749
 C1078 C 1.03644 1.10702 1.05861
 C1079 C 1.04279 1.12248 1.06487
 H1080 H 1.03678 1.12845 1.07576
 O1081 O 0.91551 0.93858 1.01650
 O1082 O 0.89566 0.91887 1.01647
 C1083 C 0.90172 0.93261 1.02237
 C1084 C 0.89297 0.94149 1.03656
 C1085 C 0.87764 0.93517 1.04317
 H1086 H 0.87195 0.92398 1.03755
 O1087 O 1.08470 1.06102 1.01675
 O1088 O 1.10452 1.08077 1.01684
 C1089 C 1.09847 1.06698 1.02267
 C1090 C 1.10721 1.05803 1.03682
 C1091 C 1.12257 1.06427 1.04337
 H1092 H 1.12830 1.07545 1.03772
 O1093 O 1.01648 1.06117 1.08482
 O1094 O 1.01650 1.08096 1.10474
 C1095 C 1.02231 1.06716 1.09868
 C1096 C 1.03635 1.05827 1.10755
 C1097 C 1.04281 1.06461 1.12299
 H1098 H 1.03694 1.07559 1.12888
 O1099 O 0.98328 0.93828 1.08475
 O1100 O 0.98321 0.91849 1.10470
 C1101 C 0.97743 0.93231 1.09863
 C1102 C 0.96343 0.94126 1.10751
 C1103 C 0.95694 0.93497 1.12298
 H1104 H 0.96277 0.92398 1.12889
 O1105 O 1.08448 1.01619 1.06176
 O1106 O 1.10419 1.01618 1.08174
 C1107 C 1.09823 1.02201 1.06784
 C1108 C 1.10707 1.03607 1.05892
 C1109 C 1.12245 1.04249 1.06527
 H1110 H 1.12832 1.03656 1.07627
 O1111 O 0.91561 0.98336 1.06153
 O1112 O 0.89578 0.98337 1.08140
 C1113 C 0.90183 0.97752 1.06755
 C1114 C 0.89305 0.96343 1.05865
 C1115 C 0.87772 0.95694 1.06504
 H1116 H 0.87185 0.96285 1.07605
 O1117 O 1.06153 1.08434 1.01675
 O1118 O 1.08127 1.10417 1.01682
 C1119 C 1.06749 1.09814 1.02263
 C1120 C 1.05853 1.10697 1.03670
 C1121 C 1.06470 1.12241 1.04316
 H1122 H 1.07590 1.12811 1.03756
 O1123 O 0.93871 0.91528 1.01643
 O1124 O 0.91892 0.89550 1.01638
 C1125 C 0.93270 0.90147 1.02225
 C1126 C 0.94154 0.89258 1.03636
 C1127 C 0.93521 0.87719 1.04279
 H1128 H 0.92430 0.87134 1.03679
 O1129 O 1.06112 0.98304 1.08508
 O1130 O 1.08077 0.98299 1.10511
 C1131 C 1.06703 0.97717 1.09898
 C1132 C 1.05813 0.96307 1.10777
 C1133 C 1.06446 0.95642 1.12317
 H1134 H 1.07566 0.96196 1.12890
 O1135 O 0.93872 1.01656 1.08496
 O1136 O 0.91894 1.01659 1.10487
 C1137 C 0.93270 1.02242 1.09881
 C1138 C 0.94153 1.03652 1.10762
 C1139 C 0.93517 1.04315 1.12300
 H1140 H 0.92395 1.03761 1.12871
 O1141 O 0.98339 1.08450 1.06141
 O1142 O 0.98340 1.10432 1.08129
 C1143 C 0.97757 1.09830 1.06744
 C1144 C 0.96351 1.10712 1.05854
 C1145 C 0.95706 1.12249 1.06493
 H1146 H 0.96300 1.12837 1.07590
 O1147 O 1.01650 0.91502 1.06145
 O1148 O 1.01645 0.89518 1.08135
 C1149 C 1.02234 0.90124 1.06752
 C1150 C 1.03651 0.89249 1.05872
 C1151 C 1.04301 0.87715 1.06516
 H1152 H 1.03704 0.87123 1.07611
 O1153 O 1.08479 0.93835 1.01671
 O1154 O 1.10458 0.91855 1.01678
 C1155 C 1.09855 0.93235 1.02262
 C1156 C 1.10729 0.94124 1.03679
 C1157 C 1.12268 0.93501 1.04333
 H1158 H 1.12844 0.92386 1.03766
 O1159 O 0.91553 1.06140 1.01631
 O1160 O 0.89572 1.08118 1.01632
 C1161 C 0.90175 1.06738 1.02218
 C1162 C 0.89299 1.05845 1.03634
 C1163 C 0.87763 1.06472 1.04290
 H1164 H 0.87190 1.07591 1.03727
 Cu1165 Cu 0.99986 0.92859 1.07112
 Cu1166 Cu 0.99980 0.90481 1.09503
 Cu1167 Cu 0.99994 1.07087 1.07113
 Cu1168 Cu 0.99995 1.09465 1.09503
 Cu1169 Cu 0.92909 0.92896 0.99979
 Cu1170 Cu 0.90530 0.90525 0.99972
 Cu1171 Cu 1.07122 0.92869 1.00004
 Cu1172 Cu 1.09492 0.90488 1.00009
 Cu1173 Cu 0.92913 1.07113 0.99970
 Cu1174 Cu 0.90540 1.09492 0.99967
 Cu1175 Cu 1.07117 1.07074 1.00007
 Cu1176 Cu 1.09492 1.09449 1.00015
 Cu1177 Cu 0.92920 0.99996 1.07121
 Cu1178 Cu 0.90542 0.99998 1.09508
 Cu1179 Cu 1.07083 0.99962 1.07143
 Cu1180 Cu 1.09445 0.99959 1.09543
 C1181 C 1.04391 0.95541 1.10019
 H1182 H 1.03914 0.96027 1.08816
 C1183 C 1.05688 0.94217 1.13085
 C1184 C 0.95578 1.04418 1.10007
 H1185 H 0.96057 1.03934 1.08805
 C1186 C 0.94277 1.05735 1.13071
 C1187 C 0.90054 1.04423 1.04411
 H1188 H 0.91253 1.03950 1.03932
 C1189 C 0.86994 1.05708 1.05716
 C1190 C 1.09970 0.95541 1.04460
 H1191 H 1.08769 0.96012 1.03981
 C1192 C 1.13035 0.94262 1.05761
 C1193 C 1.04431 0.89998 1.04444
 H1194 H 1.03954 0.91194 1.03957
 C1195 C 1.05725 0.86942 1.05767
 C1196 C 0.95577 1.09969 1.04423
 H1197 H 0.96052 1.08771 1.03939
 C1198 C 0.94288 1.13027 1.05738
 C1199 C 0.95581 0.95559 1.10002
 H1200 H 0.96057 0.96034 1.08796
 C1201 C 0.94286 0.94266 1.13083
 C1202 C 1.04403 1.04397 1.10009
 H1203 H 1.03928 1.03918 1.08805
 C1204 C 1.05692 1.05701 1.13083
 C1205 C 0.95577 0.89998 1.04418
 H1206 H 0.96055 0.91199 1.03945
 C1207 C 0.94272 0.86935 1.05702
 C1208 C 1.04430 1.09946 1.04442
 H1209 H 1.03964 1.08740 1.03970
 C1210 C 1.05695 1.13023 1.05728
 C1211 C 0.90049 0.95571 1.04431
 H1212 H 0.91245 0.96048 1.03949
 C1213 C 0.86996 0.94277 1.05745
 C1214 C 1.09965 1.04383 1.04459
 H1215 H 1.08766 1.03912 1.03979
 C1216 C 1.13026 1.05662 1.05762
 O1217 O 1.06117 0.51646 0.58502
 O1218 O 1.08083 0.51649 0.60505
 C1219 C 1.06708 0.52230 0.59892
 C1220 C 1.05814 0.53637 0.60772
 C1221 C 1.06441 0.54293 0.62315
 H1222 H 1.07562 0.53737 0.62888
 O1223 O 0.93853 0.48332 0.58493
 O1224 O 0.91874 0.48327 0.60483
 C1225 C 0.93251 0.47744 0.59878
 C1226 C 0.94136 0.46332 0.60761
 C1227 C 0.93502 0.45679 0.62305
 H1228 H 0.92384 0.46241 0.62876
 O1229 O 1.01632 0.58443 0.56146
 O1230 O 1.01628 0.60427 0.58133
 C1231 C 1.02213 0.59823 0.56749
 C1232 C 1.03618 0.60704 0.55860
 C1233 C 1.04258 0.62244 0.56493
 H1234 H 1.03663 0.62835 0.57590
 O1235 O 0.98354 0.41520 0.56168
 O1236 O 0.98351 0.39535 0.58157
 C1237 C 0.97773 0.40138 0.56767
 C1238 C 0.96376 0.39256 0.55867
 C1239 C 0.95722 0.37719 0.56501
 H1240 H 0.96272 0.37151 0.57632
 O1241 O 1.08461 0.56142 0.51684
 O1242 O 1.10434 0.58126 0.51692
 C1243 C 1.09833 0.56746 0.52278
 C1244 C 1.10706 0.55859 0.53698
 C1245 C 1.12240 0.56486 0.54357
 H1246 H 1.12811 0.57607 0.53797
 O1247 O 0.91577 0.43846 0.51645
 O1248 O 0.89604 0.41863 0.51646
 C1249 C 0.90201 0.43244 0.52232
 C1250 C 0.89316 0.44129 0.53645
 C1251 C 0.87781 0.43492 0.54292
 H1252 H 0.87198 0.42398 0.53696
 O1253 O 0.98312 0.56121 0.58481
 O1254 O 0.98311 0.58100 0.60473
 C1255 C 0.97727 0.56723 0.59866
 C1256 C 0.96317 0.55843 0.60749
 C1257 C 0.95672 0.56479 0.62294
 H1258 H 0.96268 0.57569 0.62886
 O1259 O 1.01647 0.43858 0.58514
 O1260 O 1.01648 0.41880 0.60510
 C1261 C 1.02230 0.43259 0.59903
 C1262 C 1.03635 0.44146 0.60786
 C1263 C 1.04290 0.43510 0.62328
 H1264 H 1.03731 0.42388 0.62900
 O1265 O 1.08462 0.48334 0.56176
 O1266 O 1.10435 0.48333 0.58171
 C1267 C 1.09839 0.47751 0.56783
 C1268 C 1.10721 0.46345 0.55890
 C1269 C 1.12257 0.45691 0.56525
 H1270 H 1.12825 0.46251 0.57651
 O1271 O 0.91528 0.51645 0.56145
 O1272 O 0.89541 0.51642 0.58127
 C1273 C 0.90146 0.52225 0.56741
 C1274 C 0.89265 0.53629 0.55843
 C1275 C 0.87724 0.54272 0.56470
 H1276 H 0.87132 0.53679 0.57567
 O1277 O 0.93844 0.58446 0.51646
 O1278 O 0.91867 0.60429 0.51640
 C1279 C 0.93243 0.59826 0.52231
 C1280 C 0.94129 0.60706 0.53646
 C1281 C 0.93494 0.62240 0.54306
 H1282 H 0.92372 0.62807 0.53747
 O1283 O 1.06147 0.41530 0.51677
 O1284 O 1.08123 0.39546 0.51684
 C1285 C 1.06745 0.40150 0.52268
 C1286 C 1.05855 0.39271 0.53683
 C1287 C 1.06485 0.37734 0.54343
 H1288 H 1.07604 0.37164 0.53782
 O1289 O 0.93838 0.51654 0.58495
 O1290 O 0.91859 0.51654 0.60485
 C1291 C 0.93235 0.52241 0.59879
 C1292 C 0.94118 0.53653 0.60759
 C1293 C 0.93489 0.54312 0.62303
 H1294 H 0.92369 0.53757 0.62878
 O1295 O 1.06125 0.48327 0.58503
 O1296 O 1.08093 0.48328 0.60504
 C1297 C 1.06720 0.47744 0.59893
 C1298 C 1.05833 0.46336 0.60777
 C1299 C 1.06467 0.45682 0.62320
 H1300 H 1.07562 0.46268 0.62911
 O1301 O 1.01664 0.41537 0.56172
 O1302 O 1.01664 0.39552 0.58162
 C1303 C 1.02249 0.40157 0.56777
 C1304 C 1.03659 0.39278 0.55889
 C1305 C 1.04306 0.37740 0.56526
 H1306 H 1.03712 0.37150 0.57624
 O1307 O 0.98318 0.58445 0.56140
 O1308 O 0.98315 0.60429 0.58127
 C1309 C 0.97734 0.59825 0.56741
 C1310 C 0.96326 0.60705 0.55850
 C1311 C 0.95675 0.62240 0.56488
 H1312 H 0.96266 0.62830 0.57586
 O1313 O 0.91524 0.56119 0.51639
 O1314 O 0.89540 0.58095 0.51631
 C1315 C 0.90143 0.56716 0.52220
 C1316 C 0.89262 0.55825 0.53632
 C1317 C 0.87721 0.56450 0.54279
 H1318 H 0.87151 0.57569 0.53713
 O1319 O 1.08464 0.43861 0.51680
 O1320 O 1.10445 0.41882 0.51686
 C1321 C 1.09841 0.43262 0.52269
 C1322 C 1.10718 0.44149 0.53683
 C1323 C 1.12254 0.43518 0.54334
 H1324 H 1.12844 0.42425 0.53738
 O1325 O 0.98331 0.43852 0.58499
 O1326 O 0.98329 0.41873 0.60494
 C1327 C 0.97742 0.43249 0.59883
 C1328 C 0.96327 0.44132 0.60761
 C1329 C 0.95675 0.43498 0.62305
 H1330 H 0.96263 0.42404 0.62900
 O1331 O 1.01628 0.56115 0.58487
 O1332 O 1.01626 0.58095 0.60478
 C1333 C 1.02209 0.56715 0.59874
 C1334 C 1.03616 0.55830 0.60762
 C1335 C 1.04262 0.56465 0.62306
 H1336 H 1.03670 0.57560 0.62897
 O1337 O 0.91540 0.48328 0.56150
 O1338 O 0.89553 0.48320 0.58132
 C1339 C 0.90163 0.47738 0.56748
 C1340 C 0.89295 0.46326 0.55852
 C1341 C 0.87761 0.45668 0.56481
 H1342 H 0.87186 0.46226 0.57605
 O1343 O 1.08449 0.51654 0.56175
 O1344 O 1.10421 0.51656 0.58172
 C1345 C 1.09822 0.52241 0.56785
 C1346 C 1.10699 0.53655 0.55900
 C1347 C 1.12234 0.54299 0.56538
 H1348 H 1.12823 0.53701 0.57634
 O1349 O 0.93905 0.41522 0.51647
 O1350 O 0.91936 0.39535 0.51647
 C1351 C 0.93311 0.40140 0.52233
 C1352 C 0.94196 0.39260 0.53648
 C1353 C 0.93564 0.37723 0.54297
 H1354 H 0.92477 0.37131 0.53696
 O1355 O 1.06126 0.58452 0.51663
 O1356 O 1.08092 0.60444 0.51670
 C1357 C 1.06715 0.59835 0.52251
 C1358 C 1.05818 0.60712 0.53659
 C1359 C 1.06440 0.62251 0.54313
 H1360 H 1.07559 0.62822 0.53754
 Cu1361 Cu 1.07092 0.49989 0.57139
 Cu1362 Cu 1.09456 0.49991 0.59539
 Cu1363 Cu 0.92889 0.49991 0.57123
 Cu1364 Cu 0.90508 0.49986 0.59506
 Cu1365 Cu 0.99973 0.57082 0.57115
 Cu1366 Cu 0.99970 0.59461 0.59503
 Cu1367 Cu 0.99999 0.42890 0.57140
 Cu1368 Cu 0.99998 0.40512 0.59531
 C1369 C 1.04391 0.54404 0.60014
 H1370 H 1.03917 0.53924 0.58809
 C1371 C 1.05678 0.55710 0.63089
 C1372 C 0.95558 0.45558 0.60008
 H1373 H 0.96036 0.46037 0.58803
 C1374 C 0.94261 0.44260 0.63085
 C1375 C 1.04397 0.59957 0.54431
 H1376 H 1.03927 0.58755 0.53952
 C1377 C 1.05672 0.63024 0.55733
 C1378 C 0.95614 0.40007 0.54430
 H1379 H 0.96092 0.41207 0.53953
 C1380 C 0.94310 0.36948 0.55728
 C1381 C 1.09955 0.54434 0.54470
 H1382 H 1.08758 0.53960 0.53988
 C1383 C 1.13011 0.55717 0.55780
 C1384 C 0.90054 0.45557 0.54424
 H1385 H 0.91251 0.46038 0.53949
 C1386 C 0.86997 0.44248 0.55714
 C1387 C 0.95541 0.54420 0.60001
 H1388 H 0.96015 0.53940 0.58796
 C1389 C 0.94255 0.55729 0.63077
 C1390 C 1.04406 0.45569 0.60030
 H1391 H 1.03927 0.46049 0.58826
 C1392 C 1.05709 0.44265 0.63102
 C1393 C 1.09972 0.45574 0.54459
 H1394 H 1.08774 0.46051 0.53980
 C1395 C 1.13030 0.44274 0.55759
 C1396 C 0.90015 0.54404 0.54413
 H1397 H 0.91217 0.53933 0.53940
 C1398 C 0.86947 0.55686 0.55702
 C1399 C 0.95555 0.59958 0.54418
 H1400 H 0.96034 0.58761 0.53936
 C1401 C 0.94255 0.63013 0.55730
 C1402 C 1.04432 0.40024 0.54456
 H1403 H 1.03957 0.41223 0.53973
 C1404 C 1.05723 0.36962 0.55769
 O1405 O 1.06178 0.48342 0.41524
 O1406 O 1.08155 0.48346 0.39532
 C1407 C 1.06781 0.47757 0.40139
 C1408 C 1.05904 0.46344 0.39256
 C1409 C 1.06541 0.45700 0.37712
 H1410 H 1.07631 0.46296 0.37121
 O1411 O 0.93892 0.51629 0.41480
 O1412 O 0.91924 0.51631 0.39479
 C1413 C 0.93296 0.52216 0.40093
 C1414 C 0.94179 0.53630 0.39216
 C1415 C 0.93547 0.54287 0.37674
 H1416 H 0.92428 0.53727 0.37101
 O1417 O 0.98351 0.58446 0.43831
 O1418 O 0.98351 0.60429 0.41839
 C1419 C 0.97767 0.59825 0.43225
 C1420 C 0.96356 0.60704 0.44111
 C1421 C 0.95706 0.62240 0.43471
 H1422 H 0.96299 0.62831 0.42373
 O1423 O 1.01696 0.41521 0.43827
 O1424 O 1.01708 0.39538 0.41840
 C1425 C 1.02283 0.40141 0.43228
 C1426 C 1.03685 0.39262 0.44128
 C1427 C 1.04338 0.37723 0.43500
 H1428 H 1.03783 0.37152 0.42373
 O1429 O 1.08477 0.43860 0.48346
 O1430 O 1.10458 0.41882 0.48350
 C1431 C 1.09858 0.43263 0.47764
 C1432 C 1.10744 0.44155 0.46356
 C1433 C 1.12281 0.43523 0.45708
 H1434 H 1.12867 0.42427 0.46301
 O1435 O 0.91540 0.56117 0.48302
 O1436 O 0.89556 0.58093 0.48290
 C1437 C 0.90164 0.56714 0.47707
 C1438 C 0.89293 0.55821 0.46290
 C1439 C 0.87756 0.56444 0.45631
 H1440 H 0.87182 0.57564 0.46190
 O1441 O 1.01671 0.56117 0.41501
 O1442 O 1.01671 0.58096 0.39505
 C1443 C 1.02258 0.56719 0.40115
 C1444 C 1.03674 0.55841 0.39238
 C1445 C 1.04333 0.56488 0.37703
 H1446 H 1.03740 0.57581 0.37110
 O1447 O 0.98393 0.43851 0.41477
 O1448 O 0.98403 0.41875 0.39483
 C1449 C 0.97815 0.43252 0.40088
 C1450 C 0.96407 0.44135 0.39201
 C1451 C 0.95759 0.43498 0.37659
 H1452 H 0.96355 0.42406 0.37067
 O1453 O 1.08493 0.51665 0.43858
 O1454 O 1.10477 0.51668 0.41873
 C1455 C 1.09873 0.52247 0.43260
 C1456 C 1.10752 0.53649 0.44158
 C1457 C 1.12297 0.54287 0.43538
 H1458 H 1.12893 0.53693 0.42444
 O1459 O 0.91567 0.48302 0.43802
 O1460 O 0.89593 0.48300 0.41807
 C1461 C 0.90193 0.47716 0.43195
 C1462 C 0.89316 0.46307 0.44086
 C1463 C 0.87784 0.45651 0.43449
 H1464 H 0.87217 0.46209 0.42321
 O1465 O 1.06147 0.58449 0.48329
 O1466 O 1.08113 0.60440 0.48331
 C1467 C 1.06741 0.59830 0.47740
 C1468 C 1.05854 0.60706 0.46321
 C1469 C 1.06483 0.62243 0.45662
 H1470 H 1.07602 0.62812 0.46222
 O1471 O 0.93908 0.41520 0.48313
 O1472 O 0.91940 0.39531 0.48313
 C1473 C 0.93315 0.40137 0.47728
 C1474 C 0.94208 0.39257 0.46317
 C1475 C 0.93582 0.37719 0.45662
 H1476 H 0.92463 0.37149 0.46225
 O1477 O 0.93899 0.48309 0.41471
 O1478 O 0.91931 0.48309 0.39470
 C1479 C 0.93307 0.47726 0.40081
 C1480 C 0.94201 0.46321 0.39197
 C1481 C 0.93570 0.45661 0.37655
 H1482 H 0.92445 0.46212 0.37086
 O1483 O 1.06175 0.51664 0.41513
 O1484 O 1.08152 0.51671 0.39522
 C1485 C 1.06774 0.52252 0.40127
 C1486 C 1.05884 0.53660 0.39243
 C1487 C 1.06525 0.54329 0.37708
 H1488 H 1.07655 0.53782 0.37144
 O1489 O 0.98386 0.41526 0.43821
 O1490 O 0.98395 0.39544 0.41833
 C1491 C 0.97808 0.40146 0.43218
 C1492 C 0.96402 0.39264 0.44109
 C1493 C 0.95758 0.37725 0.43476
 H1494 H 0.96350 0.37135 0.42378
 O1495 O 1.01666 0.58446 0.43835
 O1496 O 1.01666 0.60428 0.41843
 C1497 C 1.02249 0.59825 0.43230
 C1498 C 1.03658 0.60703 0.44118
 C1499 C 1.04304 0.62240 0.43480
 H1500 H 1.03711 0.62832 0.42382
 O1501 O 0.91574 0.43837 0.48306
 O1502 O 0.89601 0.41852 0.48306
 C1503 C 0.90200 0.43232 0.47717
 C1504 C 0.89322 0.44113 0.46297
 C1505 C 0.87790 0.43476 0.45643
 H1506 H 0.87202 0.42383 0.46240
 O1507 O 1.08480 0.56133 0.48351
 O1508 O 1.10453 0.58117 0.48354
 C1509 C 1.09859 0.56734 0.47770
 C1510 C 1.10748 0.55842 0.46366
 C1511 C 1.12292 0.56464 0.45725
 H1512 H 1.12860 0.57581 0.46294
 O1513 O 1.01709 0.43854 0.41498
 O1514 O 1.01722 0.41879 0.39503
 C1515 C 1.02302 0.43256 0.40115
 C1516 C 1.03715 0.44144 0.39242
 C1517 C 1.04374 0.43518 0.37698
 H1518 H 1.03819 0.42398 0.37121
 O1519 O 0.98355 0.56118 0.41496
 O1520 O 0.98355 0.58096 0.39500
 C1521 C 0.97772 0.56717 0.40108
 C1522 C 0.96365 0.55832 0.39225
 C1523 C 0.95714 0.56469 0.37682
 H1524 H 0.96299 0.57566 0.37090
 O1525 O 0.91566 0.51622 0.43810
 O1526 O 0.89591 0.51622 0.41816
 C1527 C 0.90190 0.52207 0.43203
 C1528 C 0.89307 0.53617 0.44090
 C1529 C 0.87769 0.54258 0.43453
 H1530 H 0.87182 0.53660 0.42357
 O1531 O 1.08501 0.48350 0.43857
 O1532 O 1.10485 0.48350 0.41872
 C1533 C 1.09881 0.47767 0.43258
 C1534 C 1.10758 0.46359 0.44154
 C1535 C 1.12294 0.45706 0.43522
 H1536 H 1.12865 0.46268 0.42398
 O1537 O 1.06153 0.41534 0.48339
 O1538 O 1.08129 0.39551 0.48346
 C1539 C 1.06753 0.40154 0.47756
 C1540 C 1.05871 0.39272 0.46341
 C1541 C 1.06502 0.37731 0.45698
 H1542 H 1.07591 0.37141 0.46298
 O1543 O 0.93858 0.58445 0.48311
 O1544 O 0.91881 0.60428 0.48301
 C1545 C 0.93261 0.59824 0.47721
 C1546 C 0.94153 0.60704 0.46309
 C1547 C 0.93522 0.62239 0.45649
 H1548 H 0.92399 0.62806 0.46206
 Cu1549 Cu 1.07138 0.50006 0.42887
 Cu1550 Cu 1.09515 0.50009 0.40499
 Cu1551 Cu 0.92928 0.49964 0.42840
 Cu1552 Cu 0.90562 0.49965 0.40443
 Cu1553 Cu 1.07107 0.57095 0.50006
 Cu1554 Cu 1.09470 0.59482 0.50012
 Cu1555 Cu 1.07111 0.42894 0.50009
 Cu1556 Cu 1.09487 0.40516 0.50017
 Cu1557 Cu 0.92889 0.57084 0.49976
 Cu1558 Cu 0.90512 0.59460 0.49965
 Cu1559 Cu 0.92938 0.42881 0.49977
 Cu1560 Cu 0.90572 0.40497 0.49979
 Cu1561 Cu 1.00010 0.57083 0.42865
 Cu1562 Cu 1.00011 0.59460 0.40472
 Cu1563 Cu 1.00044 0.42887 0.42854
 Cu1564 Cu 1.00057 0.40511 0.40464
 C1565 C 1.04482 0.45566 0.40003
 H1566 H 1.04000 0.46039 0.41209
 C1567 C 1.05789 0.44285 0.36926
 C1568 C 0.95599 0.54402 0.39972
 H1569 H 0.96078 0.53919 0.41175
 C1570 C 0.94303 0.55707 0.36899
 C1571 C 0.95580 0.59955 0.45541
 H1572 H 0.96056 0.58757 0.46025
 C1573 C 0.94286 0.63014 0.44227
 C1574 C 1.04451 0.40017 0.45559
 H1575 H 1.03973 0.41219 0.46031
 C1576 C 1.05750 0.36952 0.44273
 C1577 C 1.10003 0.45585 0.45581
 H1578 H 1.08805 0.46063 0.46058
 C1579 C 1.13061 0.44284 0.44286
 C1580 C 0.90050 0.54398 0.45519
 H1581 H 0.91249 0.53927 0.46001
 C1582 C 0.86987 0.55674 0.44210
 C1583 C 1.04449 0.54416 0.39988
 H1584 H 1.03964 0.53927 0.41186
 C1585 C 1.05762 0.55747 0.36932
 C1586 C 0.95629 0.45558 0.39950
 H1587 H 0.96104 0.46040 0.41154
 C1588 C 0.94336 0.44244 0.36881
 C1589 C 1.09998 0.54424 0.45584
 H1590 H 1.08793 0.53955 0.46052
 C1591 C 1.13072 0.55699 0.44307
 C1592 C 0.90065 0.45538 0.45520
 H1593 H 0.91259 0.46019 0.46000
 C1594 C 0.87014 0.44232 0.44216
 C1595 C 1.04432 0.59955 0.45549
 H1596 H 1.03958 0.58756 0.46031
 C1597 C 1.05720 0.63016 0.44238
 C1598 C 0.95629 0.40010 0.45541
 H1599 H 0.96101 0.41210 0.46020
 C1600 C 0.94343 0.36947 0.44238
 O1601 O 0.48344 0.93876 0.41494
 O1602 O 0.48348 0.91895 0.39503
 C1603 C 0.47762 0.93274 0.40108
 C1604 C 0.46353 0.94157 0.39223
 C1605 C 0.45700 0.93516 0.37684
 H1606 H 0.46291 0.92420 0.37095
 O1607 O 0.51638 1.06165 0.41494
 O1608 O 0.51632 1.08139 0.39494
 C1609 C 0.52216 1.06761 0.40102
 C1610 C 0.53619 1.05875 0.39214
 C1611 C 0.54267 1.06514 0.37672
 H1612 H 0.53675 1.07610 0.37082
 O1613 O 0.41549 0.98339 0.43830
 O1614 O 0.39572 0.98336 0.41839
 C1615 C 0.40174 0.97753 0.43226
 C1616 C 0.39299 0.96343 0.44118
 C1617 C 0.37764 0.95694 0.43485
 H1618 H 0.37172 0.96285 0.42387
 O1619 O 0.58433 1.01698 0.43816
 O1620 O 0.60410 1.01698 0.41824
 C1621 C 0.59809 1.02282 0.43210
 C1622 C 0.60689 1.03689 0.44100
 C1623 C 0.62228 1.04330 0.43467
 H1624 H 0.62817 1.03736 0.42369
 O1625 O 0.43877 0.91539 0.48338
 O1626 O 0.41905 0.89553 0.48341
 C1627 C 0.43281 0.90158 0.47753
 C1628 C 0.44169 0.89278 0.46337
 C1629 C 0.43539 0.87743 0.45680
 H1630 H 0.42421 0.87173 0.46242
 O1631 O 0.56127 1.08501 0.48307
 O1632 O 0.58098 1.10487 0.48302
 C1633 C 0.56722 1.09882 0.47718
 C1634 C 0.55831 1.10760 0.46304
 C1635 C 0.56458 1.12297 0.45644
 H1636 H 0.57578 1.12866 0.46202
 O1637 O 0.43868 1.01663 0.41499
 O1638 O 0.41896 1.01664 0.39501
 C1639 C 0.43270 1.02250 0.40112
 C1640 C 0.44154 1.03661 0.39232
 C1641 C 0.43523 1.04313 0.37687
 H1642 H 0.42406 1.03751 0.37114
 O1643 O 0.56113 0.98370 0.41491
 O1644 O 0.58085 0.98372 0.39494
 C1645 C 0.56712 0.97785 0.40105
 C1646 C 0.55832 0.96372 0.39224
 C1647 C 0.56472 0.95721 0.37684
 H1648 H 0.57563 0.96315 0.37092
 O1649 O 0.51660 0.91556 0.43834
 O1650 O 0.51669 0.89569 0.41850
 C1651 C 0.52249 0.90177 0.43235
 C1652 C 0.53656 0.89303 0.44132
 C1653 C 0.54312 0.87765 0.43505
 H1654 H 0.53756 0.87189 0.42381
 O1655 O 0.48326 1.08500 0.43827
 O1656 O 0.48322 1.10478 0.41831
 C1657 C 0.47740 1.09877 0.43218
 C1658 C 0.46330 1.10757 0.44104
 C1659 C 0.45689 1.12299 0.43470
 H1660 H 0.46286 1.12893 0.42376
 O1661 O 0.41525 1.06159 0.48301
 O1662 O 0.39539 1.08133 0.48295
 C1663 C 0.40146 1.06754 0.47712
 C1664 C 0.39272 1.05859 0.46300
 C1665 C 0.37737 1.06484 0.45641
 H1666 H 0.37167 1.07608 0.46196
 O1667 O 0.58457 0.93904 0.48328
 O1668 O 0.60439 0.91926 0.48330
 C1669 C 0.59835 0.93304 0.47740
 C1670 C 0.60710 0.94191 0.46320
 C1671 C 0.62240 0.93554 0.45655
 H1672 H 0.62808 0.92431 0.46215
 O1673 O 0.48327 1.06159 0.41506
 O1674 O 0.48321 1.08133 0.39506
 C1675 C 0.47742 1.06755 0.40118
 C1676 C 0.46338 1.05865 0.39237
 C1677 C 0.45690 1.06495 0.37690
 H1678 H 0.46276 1.07590 0.37095
 O1679 O 0.51657 0.93876 0.41489
 O1680 O 0.51665 0.91896 0.39498
 C1681 C 0.52244 0.93277 0.40103
 C1682 C 0.53649 0.94167 0.39220
 C1683 C 0.54312 0.93533 0.37680
 H1684 H 0.53761 0.92407 0.37110
 O1685 O 0.58441 0.98379 0.43823
 O1686 O 0.60418 0.98378 0.41831
 C1687 C 0.59819 0.97796 0.43219
 C1688 C 0.60700 0.96388 0.44111
 C1689 C 0.62230 0.95734 0.43467
 H1690 H 0.62814 0.96324 0.42364
 O1691 O 0.41536 1.01657 0.43825
 O1692 O 0.39559 1.01656 0.41834
 C1693 C 0.40159 1.02240 0.43220
 C1694 C 0.39279 1.03650 0.44106
 C1695 C 0.37742 1.04292 0.43469
 H1696 H 0.37151 1.03693 0.42376
 O1697 O 0.43834 1.08495 0.48300
 O1698 O 0.41856 1.10477 0.48296
 C1699 C 0.43235 1.09875 0.47711
 C1700 C 0.44126 1.10757 0.46300
 C1701 C 0.43503 1.12298 0.45647
 H1702 H 0.42383 1.12869 0.46206
 O1703 O 0.56129 0.91585 0.48337
 O1704 O 0.58106 0.89602 0.48341
 C1705 C 0.56729 0.90204 0.47753
 C1706 C 0.55846 0.89320 0.46341
 C1707 C 0.56480 0.87780 0.45699
 H1708 H 0.57571 0.87193 0.46299
 O1709 O 0.56111 1.01689 0.41476
 O1710 O 0.58083 1.01693 0.39479
 C1711 C 0.56706 1.02274 0.40087
 C1712 C 0.55815 1.03681 0.39203
 C1713 C 0.56446 1.04342 0.37661
 H1714 H 0.57568 1.03788 0.37088
 O1715 O 0.43865 0.98344 0.41485
 O1716 O 0.41893 0.98343 0.39488
 C1717 C 0.43269 0.97759 0.40097
 C1718 C 0.44157 0.96351 0.39215
 C1719 C 0.43521 0.95688 0.37677
 H1720 H 0.42397 0.96243 0.37107
 O1721 O 0.51641 1.08496 0.43828
 O1722 O 0.51637 1.10474 0.41832
 C1723 C 0.52223 1.09874 0.43219
 C1724 C 0.53631 1.10755 0.44104
 C1725 C 0.54275 1.12293 0.43464
 H1726 H 0.53681 1.12883 0.42366
 O1727 O 0.48347 0.91549 0.43835
 O1728 O 0.48353 0.89563 0.41850
 C1729 C 0.47767 0.90167 0.43235
 C1730 C 0.46362 0.89286 0.44128
 C1731 C 0.45714 0.87750 0.43491
 H1732 H 0.46304 0.87161 0.42391
 O1733 O 0.58448 1.06174 0.48313
 O1734 O 0.60426 1.08152 0.48307
 C1735 C 0.59824 1.06773 0.47723
 C1736 C 0.60699 1.05883 0.46309
 C1737 C 0.62237 1.06506 0.45655
 H1738 H 0.62809 1.07624 0.46220
 O1739 O 0.41553 0.93864 0.48333
 O1740 O 0.39575 0.91885 0.48338
 C1741 C 0.40177 0.93262 0.47747
 C1742 C 0.39298 0.94148 0.46330
 C1743 C 0.37764 0.93517 0.45676
 H1744 H 0.37197 0.92397 0.46242
 Cu1745 Cu 0.50002 0.92912 0.42862
 Cu1746 Cu 0.50009 0.90532 0.40476
 Cu1747 Cu 0.49984 1.07133 0.42865
 Cu1748 Cu 0.49978 1.09505 0.40465
 Cu1749 Cu 0.42902 1.00000 0.42859
 Cu1750 Cu 0.40532 1.00000 0.40465
 Cu1751 Cu 0.57077 1.00035 0.42851
 Cu1752 Cu 0.59447 1.00035 0.40457
 C1753 C 0.45583 0.95585 0.39968
 H1754 H 0.46063 0.96070 0.41169
 C1755 C 0.44279 0.94266 0.36906
 C1756 C 0.54391 1.04446 0.39960
 H1757 H 0.53915 1.03963 0.41163
 C1758 C 0.55685 1.05764 0.36891
 C1759 C 0.40047 0.95571 0.45551
 H1760 H 0.41244 0.96048 0.46029
 C1761 C 0.36990 0.94278 0.44252
 C1762 C 0.59944 1.04464 0.45531
 H1763 H 0.58744 1.03993 0.46010
 C1764 C 0.63009 1.05741 0.44233
 C1765 C 0.45591 0.90030 0.45562
 H1766 H 0.46066 0.91229 0.46043
 C1767 C 0.44299 0.86972 0.44253
 C1768 C 0.54408 1.10009 0.45534
 H1769 H 0.53935 1.08809 0.46018
 C1770 C 0.55692 1.13070 0.44220
 C1771 C 0.45571 1.04437 0.39989
 H1772 H 0.46047 1.03960 0.41195
 C1773 C 0.44280 1.05731 0.36910
 C1774 C 0.54410 0.95597 0.39973
 H1775 H 0.53927 0.96075 0.41175
 C1776 C 0.55728 0.94297 0.36906
 C1777 C 0.54424 0.90062 0.45560
 H1778 H 0.53944 0.91263 0.46032
 C1779 C 0.55728 0.86997 0.44277
 C1780 C 0.45550 1.10005 0.45529
 H1781 H 0.46020 1.08802 0.46007
 C1782 C 0.44273 1.13076 0.44229
 C1783 C 0.40024 1.04431 0.45533
 H1784 H 0.41223 1.03959 0.46015
 C1785 C 0.36965 1.05712 0.44223
 C1786 C 0.59961 0.95618 0.45549
 H1787 H 0.58768 0.96099 0.46036
 C1788 C 0.63006 0.94314 0.44225
 O1789 O 0.51661 0.93894 0.58505
 O1790 O 0.51666 0.91920 0.60505
 C1791 C 0.52249 0.93296 0.59891
 C1792 C 0.53658 0.94183 0.60768
 C1793 C 0.54309 0.93556 0.62315
 H1794 H 0.53750 0.92437 0.62892
 O1795 O 0.48329 1.06166 0.58468
 O1796 O 0.48326 1.08146 0.60459
 C1797 C 0.47746 1.06767 0.59854
 C1798 C 0.46341 1.05882 0.60741
 C1799 C 0.45694 1.06520 0.62283
 H1800 H 0.46286 1.07612 0.62874
 O1801 O 0.41538 1.01684 0.56142
 O1802 O 0.39559 1.01684 0.58132
 C1803 C 0.40158 1.02266 0.56743
 C1804 C 0.39273 1.03669 0.55847
 C1805 C 0.37732 1.04309 0.56477
 H1806 H 0.37143 1.03715 0.57575
 O1807 O 0.58460 0.98392 0.56156
 O1808 O 0.60437 0.98392 0.58147
 C1809 C 0.59838 0.97810 0.56759
 C1810 C 0.60718 0.96405 0.55866
 C1811 C 0.62248 0.95745 0.56505
 H1812 H 0.62815 0.96301 0.57634
 O1813 O 0.56133 0.91587 0.51673
 O1814 O 0.58109 0.89604 0.51678
 C1815 C 0.56732 0.90207 0.52263
 C1816 C 0.55845 0.89325 0.53679
 C1817 C 0.56478 0.87789 0.54333
 H1818 H 0.57572 0.87201 0.53741
 O1819 O 0.43837 1.08490 0.51635
 O1820 O 0.41858 1.10470 0.51636
 C1821 C 0.43236 1.09868 0.52223
 C1822 C 0.44123 1.10748 0.53638
 C1823 C 0.43488 1.12281 0.54298
 H1824 H 0.42366 1.12847 0.53739
 O1825 O 0.43879 0.98381 0.58494
 O1826 O 0.41906 0.98383 0.60490
 C1827 C 0.43285 0.97804 0.59887
 C1828 C 0.44180 0.96407 0.60783
 C1829 C 0.43558 0.95774 0.62339
 H1830 H 0.42471 0.96373 0.62933
 O1831 O 0.56116 1.01694 0.58493
 O1832 O 0.58086 1.01698 0.60491
 C1833 C 0.56709 1.02278 0.59882
 C1834 C 0.55815 1.03682 0.60765
 C1835 C 0.56443 1.04335 0.62310
 H1836 H 0.57561 1.03775 0.62883
 O1837 O 0.48341 0.91571 0.56182
 O1838 O 0.48344 0.89589 0.58174
 C1839 C 0.47761 0.90190 0.56787
 C1840 C 0.46362 0.89305 0.55892
 C1841 C 0.45732 0.87756 0.56516
 H1842 H 0.46327 0.87163 0.57612
 O1843 O 0.51638 1.08494 0.56127
 O1844 O 0.51634 1.10479 0.58112
 C1845 C 0.52218 1.09875 0.56727
 C1846 C 0.53623 1.10757 0.55836
 C1847 C 0.54262 1.12298 0.56469
 H1848 H 0.53668 1.12890 0.57564
 O1849 O 0.41552 0.93869 0.51669
 O1850 O 0.39575 0.91890 0.51679
 C1851 C 0.40176 0.93270 0.52261
 C1852 C 0.39299 0.94162 0.53676
 C1853 C 0.37765 0.93533 0.54335
 H1854 H 0.37197 0.92411 0.53776
 O1855 O 0.58449 1.06183 0.51650
 O1856 O 0.60426 1.08162 0.51649
 C1857 C 0.59823 1.06785 0.52239
 C1858 C 0.60697 1.05901 0.53661
 C1859 C 0.62229 1.06534 0.54319
 H1860 H 0.62797 1.07654 0.53754
 O1861 O 0.51641 1.06170 0.58473
 O1862 O 0.51638 1.08151 0.60463
 C1863 C 0.52222 1.06771 0.59861
 C1864 C 0.53625 1.05883 0.60752
 C1865 C 0.54272 1.06516 0.62297
 H1866 H 0.53683 1.07613 0.62887
 O1867 O 0.48349 0.93901 0.58518
 O1868 O 0.48350 0.91927 0.60518
 C1869 C 0.47769 0.93308 0.59910
 C1870 C 0.46371 0.94207 0.60797
 C1871 C 0.45727 0.93590 0.62353
 H1872 H 0.46287 0.92473 0.62932
 O1873 O 0.58441 1.01710 0.56158
 O1874 O 0.60418 1.01713 0.58150
 C1875 C 0.59815 1.02297 0.56764
 C1876 C 0.60690 1.03709 0.55875
 C1877 C 0.62222 1.04359 0.56511
 H1878 H 0.62811 1.03768 0.57612
 O1879 O 0.41553 0.98363 0.56156
 O1880 O 0.39574 0.98363 0.58147
 C1881 C 0.40178 0.97777 0.56763
 C1882 C 0.39303 0.96364 0.55877
 C1883 C 0.37769 0.95717 0.56515
 H1884 H 0.37178 0.96313 0.57611
 O1885 O 0.56121 1.08501 0.51640
 O1886 O 0.58091 1.10488 0.51639
 C1887 C 0.56714 1.09882 0.52225
 C1888 C 0.55821 1.10762 0.53635
 C1889 C 0.56443 1.12302 0.54287
 H1890 H 0.57562 1.12873 0.53726
 O1891 O 0.43879 0.91548 0.51673
 O1892 O 0.41909 0.89560 0.51681
 C1893 C 0.43284 0.90168 0.52264
 C1894 C 0.44176 0.89291 0.53679
 C1895 C 0.43563 0.87743 0.54323
 H1896 H 0.42453 0.87165 0.53753
 O1897 O 0.56130 0.98375 0.58486
 O1898 O 0.58102 0.98378 0.60482
 C1899 C 0.56729 0.97790 0.59872
 C1900 C 0.55849 0.96379 0.60756
 C1901 C 0.56479 0.95735 0.62304
 H1902 H 0.57568 0.96329 0.62897
 O1903 O 0.43858 1.01698 0.58483
 O1904 O 0.41884 1.01700 0.60479
 C1905 C 0.43259 1.02284 0.59869
 C1906 C 0.44145 1.03693 0.60750
 C1907 C 0.43513 1.04351 0.62291
 H1908 H 0.42391 1.03797 0.62864
 O1909 O 0.48322 1.08491 0.56126
 O1910 O 0.48318 1.10475 0.58112
 C1911 C 0.47735 1.09870 0.56728
 C1912 C 0.46322 1.10746 0.55840
 C1913 C 0.45669 1.12280 0.56479
 H1914 H 0.46260 1.12870 0.57577
 O1915 O 0.51652 0.91570 0.56172
 O1916 O 0.51659 0.89588 0.58164
 C1917 C 0.52239 0.90191 0.56776
 C1918 C 0.53646 0.89314 0.55882
 C1919 C 0.54301 0.87778 0.56519
 H1920 H 0.53741 0.87208 0.57645
 O1921 O 0.58452 0.93917 0.51664
 O1922 O 0.60433 0.91939 0.51667
 C1923 C 0.59831 0.93320 0.52250
 C1924 C 0.60711 0.94208 0.53661
 C1925 C 0.62242 0.93571 0.54315
 H1926 H 0.62829 0.92476 0.53721
 O1927 O 0.41518 1.06163 0.51635
 O1928 O 0.39531 1.08135 0.51634
 C1929 C 0.40138 1.06757 0.52221
 C1930 C 0.39261 1.05864 0.53635
 C1931 C 0.37720 1.06486 0.54285
 H1932 H 0.37146 1.07602 0.53718
 Cu1933 Cu 0.49999 0.92932 0.57145
 Cu1934 Cu 0.50004 0.90557 0.59541
 Cu1935 Cu 0.49984 1.07132 0.57099
 Cu1936 Cu 0.49979 1.09512 0.59485
 Cu1937 Cu 0.42912 0.92903 0.50003
 Cu1938 Cu 0.40543 0.90523 0.50010
 Cu1939 Cu 0.57095 0.92947 0.50000
 Cu1940 Cu 0.59470 0.90569 0.50005
 Cu1941 Cu 0.42877 1.07129 0.49968
 Cu1942 Cu 0.40497 1.09502 0.49965
 Cu1943 Cu 0.57089 1.07141 0.49978
 Cu1944 Cu 0.59459 1.09521 0.49974
 Cu1945 Cu 0.42904 1.00032 0.57119
 Cu1946 Cu 0.40532 1.00032 0.59511
 Cu1947 Cu 0.57089 1.00043 0.57123
 Cu1948 Cu 0.59459 1.00046 0.59518
 C1949 C 0.54429 0.95603 0.60006
 H1950 H 0.53952 0.96076 0.58798
 C1951 C 0.55723 0.94320 0.63090
 C1952 C 0.45569 1.04458 0.59994
 H1953 H 0.46046 1.03976 0.58790
 C1954 C 0.44275 1.05769 0.63064
 C1955 C 0.40018 1.04445 0.54415
 H1956 H 0.41221 1.03976 0.53940
 C1957 C 0.36949 1.05721 0.55709
 C1958 C 0.59969 0.95637 0.54433
 H1959 H 0.58774 0.96118 0.53952
 C1960 C 0.63016 0.94324 0.55742
 C1961 C 0.54417 0.90068 0.54452
 H1962 H 0.53938 0.91266 0.53971
 C1963 C 0.55720 0.87009 0.55756
 C1964 C 0.45550 1.10000 0.54408
 H1965 H 0.46030 1.08803 0.53924
 C1966 C 0.44249 1.13054 0.55723
 C1967 C 0.45598 0.95626 0.60032
 H1968 H 0.46068 0.96090 0.58818
 C1969 C 0.44315 0.94360 0.63128
 C1970 C 0.54395 1.04454 0.60006
 H1971 H 0.53921 1.03974 0.58801
 C1972 C 0.55684 1.05756 0.63083
 C1973 C 0.45585 0.90054 0.54463
 H1974 H 0.46047 0.91262 0.53992
 C1975 C 0.44329 0.86968 0.55744
 C1976 C 0.54400 1.10008 0.54409
 H1977 H 0.53931 1.08806 0.53932
 C1978 C 0.55677 1.13076 0.55708
 C1979 C 0.40049 0.95587 0.54447
 H1980 H 0.41246 0.96062 0.53965
 C1981 C 0.36994 0.94298 0.55759
 C1982 C 0.59946 1.04479 0.54439
 H1983 H 0.58751 1.04001 0.53957
 C1984 C 0.62999 1.05774 0.55746
 O1985 O 0.48379 0.43890 0.91516
 O1986 O 0.48381 0.41921 0.89514
 C1987 C 0.47795 0.43295 0.90127
 C1988 C 0.46383 0.44182 0.89249
 C1989 C 0.45731 0.43549 0.87706
 H1990 H 0.46294 0.42432 0.87132
 O1991 O 0.51616 0.56172 0.91552
 O1992 O 0.51616 0.58153 0.89559
 C1993 C 0.52201 0.56775 0.90167
 C1994 C 0.53613 0.55895 0.89286
 C1995 C 0.54259 0.56534 0.87742
 H1996 H 0.53663 0.57626 0.87149
 O1997 O 0.41548 0.48340 0.93862
 O1998 O 0.39568 0.48336 0.91874
 C1999 C 0.40174 0.47751 0.93258
 C2000 C 0.39304 0.46337 0.94149
 C2001 C 0.37775 0.45673 0.93512
 H2002 H 0.37204 0.46230 0.92385
 O2003 O 0.58457 0.51715 0.93871
 O2004 O 0.60431 0.51730 0.91877
 C2005 C 0.59830 0.52306 0.93266
 C2006 C 0.60704 0.53715 0.94158
 C2007 C 0.62240 0.54364 0.93527
 H2008 H 0.62833 0.53774 0.92429
 O2009 O 0.43917 0.41543 0.98350
 O2010 O 0.41950 0.39553 0.98349
 C2011 C 0.43324 0.40162 0.97762
 C2012 C 0.44214 0.39286 0.96348
 C2013 C 0.43588 0.37748 0.95692
 H2014 H 0.42471 0.37176 0.96256
 O2015 O 0.56103 0.58487 0.98372
 O2016 O 0.58065 0.60482 0.98374
 C2017 C 0.56692 0.59872 0.97788
 C2018 C 0.55795 0.60753 0.96379
 C2019 C 0.56418 0.62293 0.95722
 H2020 H 0.57539 0.62862 0.96278
 O2021 O 0.43861 0.51672 0.91534
 O2022 O 0.41886 0.51670 0.89540
 C2023 C 0.43260 0.52258 0.90148
 C2024 C 0.44137 0.53673 0.89267
 C2025 C 0.43500 0.54325 0.87725
 H2026 H 0.42411 0.53730 0.87132
 O2027 O 0.56144 0.48391 0.91535
 O2028 O 0.58115 0.48407 0.89536
 C2029 C 0.56744 0.47813 0.90146
 C2030 C 0.55870 0.46399 0.89263
 C2031 C 0.56513 0.45750 0.87722
 H2032 H 0.57604 0.46345 0.87133
 O2033 O 0.51698 0.41552 0.93838
 O2034 O 0.51700 0.39576 0.91844
 C2035 C 0.52282 0.40174 0.93232
 C2036 C 0.53686 0.39291 0.94123
 C2037 C 0.54335 0.37751 0.93490
 H2038 H 0.53775 0.37183 0.92364
 O2039 O 0.48289 0.58497 0.93874
 O2040 O 0.48289 0.60483 0.91885
 C2041 C 0.47704 0.59876 0.93269
 C2042 C 0.46296 0.60753 0.94159
 C2043 C 0.45655 0.62300 0.93536
 H2044 H 0.46249 0.62898 0.92442
 O2045 O 0.41528 0.56145 0.98371
 O2046 O 0.39539 0.58116 0.98371
 C2047 C 0.40149 0.56740 0.97783
 C2048 C 0.39277 0.55849 0.96368
 C2049 C 0.37745 0.56479 0.95705
 H2050 H 0.37175 0.57603 0.96261
 O2051 O 0.58478 0.43883 0.98328
 O2052 O 0.60463 0.41910 0.98323
 C2053 C 0.59856 0.43289 0.97739
 C2054 C 0.60732 0.44186 0.96327
 C2055 C 0.62263 0.43556 0.95663
 H2056 H 0.62830 0.42428 0.96215
 O2057 O 0.48302 0.56169 0.91539
 O2058 O 0.48301 0.58150 0.89545
 C2059 C 0.47720 0.56769 0.90150
 C2060 C 0.46318 0.55879 0.89265
 C2061 C 0.45660 0.56515 0.87723
 H2062 H 0.46211 0.57640 0.87153
 O2063 O 0.51694 0.43896 0.91516
 O2064 O 0.51699 0.41925 0.89515
 C2065 C 0.52280 0.43301 0.90128
 C2066 C 0.53688 0.44193 0.89251
 C2067 C 0.54352 0.43562 0.87712
 H2068 H 0.53803 0.42438 0.87139
 O2069 O 0.58471 0.48395 0.93865
 O2070 O 0.60446 0.48409 0.91871
 C2071 C 0.59849 0.47817 0.93256
 C2072 C 0.60729 0.46402 0.94137
 C2073 C 0.62262 0.45755 0.93493
 H2074 H 0.62851 0.46354 0.92398
 O2075 O 0.41547 0.51658 0.93879
 O2076 O 0.39567 0.51657 0.91891
 C2077 C 0.40169 0.52240 0.93277
 C2078 C 0.39288 0.53647 0.94166
 C2079 C 0.37754 0.54293 0.93527
 H2080 H 0.37166 0.53699 0.92429
 O2081 O 0.43828 0.58487 0.98370
 O2082 O 0.41847 0.60465 0.98376
 C2083 C 0.43223 0.59866 0.97785
 C2084 C 0.44106 0.60750 0.96370
 C2085 C 0.43482 0.62295 0.95727
 H2086 H 0.42367 0.62866 0.96297
 O2087 O 0.56165 0.41549 0.98333
 O2088 O 0.58143 0.39568 0.98329
 C2089 C 0.56765 0.40170 0.97745
 C2090 C 0.55878 0.39291 0.96331
 C2091 C 0.56506 0.37751 0.95682
 H2092 H 0.57596 0.37158 0.96278
 O2093 O 0.56123 0.51711 0.91545
 O2094 O 0.58092 0.51728 0.89545
 C2095 C 0.56714 0.52303 0.90158
 C2096 C 0.55818 0.53709 0.89279
 C2097 C 0.56447 0.54371 0.87737
 H2098 H 0.57570 0.53820 0.87164
 O2099 O 0.43882 0.48353 0.91534
 O2100 O 0.41907 0.48349 0.89541
 C2101 C 0.43286 0.47770 0.90147
 C2102 C 0.44177 0.46366 0.89260
 C2103 C 0.43545 0.45716 0.87716
 H2104 H 0.42448 0.46300 0.87126
 O2105 O 0.51602 0.58492 0.93894
 O2106 O 0.51603 0.60478 0.91906
 C2107 C 0.52184 0.59873 0.93293
 C2108 C 0.53589 0.60753 0.94184
 C2109 C 0.54228 0.62294 0.93550
 H2110 H 0.53630 0.62888 0.92457
 O2111 O 0.48388 0.41559 0.93851
 O2112 O 0.48387 0.39584 0.91855
 C2113 C 0.47806 0.40181 0.93245
 C2114 C 0.46404 0.39297 0.94138
 C2115 C 0.45761 0.37759 0.93503
 H2116 H 0.46353 0.37171 0.92403
 O2117 O 0.58445 0.56181 0.98371
 O2118 O 0.60415 0.58167 0.98375
 C2119 C 0.59820 0.56787 0.97786
 C2120 C 0.60703 0.55904 0.96371
 C2121 C 0.62239 0.56536 0.95720
 H2122 H 0.62806 0.57654 0.96288
 O2123 O 0.41583 0.43859 0.98355
 O2124 O 0.39612 0.41873 0.98355
 C2125 C 0.40208 0.43255 0.97769
 C2126 C 0.39323 0.44138 0.96355
 C2127 C 0.37794 0.43496 0.95702
 H2128 H 0.37213 0.42398 0.96297
 Cu2129 Cu 0.50040 0.42922 0.92879
 Cu2130 Cu 0.50041 0.40554 0.90481
 Cu2131 Cu 0.49951 0.57134 0.92914
 Cu2132 Cu 0.49953 0.59514 0.90524
 Cu2133 Cu 0.42907 0.50005 0.92902
 Cu2134 Cu 0.40534 0.50003 0.90511
 Cu2135 Cu 0.57102 0.50052 0.92904
 Cu2136 Cu 0.59469 0.50071 0.90507
 C2137 C 0.45607 0.45601 0.90007
 H2138 H 0.46086 0.46079 0.91211
 C2139 C 0.44310 0.44304 0.86932
 C2140 C 0.54392 0.54471 0.90035
 H2141 H 0.53917 0.53988 0.91239
 C2142 C 0.55679 0.55787 0.86962
 C2143 C 0.40058 0.45569 0.95581
 H2144 H 0.41251 0.46055 0.96061
 C2145 C 0.37014 0.44249 0.94277
 C2146 C 0.59956 0.54483 0.95591
 H2147 H 0.58758 0.54004 0.96069
 C2148 C 0.63016 0.55776 0.94297
 C2149 C 0.45632 0.40041 0.95571
 H2150 H 0.46103 0.41242 0.96050
 C2151 C 0.44349 0.36979 0.94266
 C2152 C 0.54371 0.60001 0.95610
 H2153 H 0.53902 0.58798 0.96088
 C2154 C 0.55647 0.63069 0.94304
 C2155 C 0.45557 0.54449 0.90017
 H2156 H 0.46038 0.53970 0.91220
 C2157 C 0.44246 0.55750 0.86947
 C2158 C 0.54447 0.45621 0.90008
 H2159 H 0.53961 0.46098 0.91210
 C2160 C 0.55768 0.44329 0.86941
 C2161 C 0.54457 0.40040 0.95554
 H2162 H 0.53983 0.41241 0.96031
 C2163 C 0.55749 0.36975 0.94257
 C2164 C 0.45522 0.59998 0.95586
 H2165 H 0.45993 0.58793 0.96058
 C2166 C 0.44248 0.63081 0.94311
 C2167 C 0.40030 0.54423 0.95598
 H2168 H 0.41226 0.53948 0.96082
 C2169 C 0.36977 0.55713 0.94282
 C2170 C 0.59985 0.45619 0.95565
 H2171 H 0.58790 0.46095 0.96052
 C2172 C 0.63035 0.44329 0.94243
 O2173 O 0.51671 0.43853 1.08533
 O2174 O 0.51680 0.41871 1.10525
 C2175 C 0.52257 0.43252 1.09919
 C2176 C 0.53661 0.44141 1.10801
 C2177 C 0.54319 0.43508 1.12344
 H2178 H 0.53762 0.42387 1.12918
 O2179 O 0.48318 0.56117 1.08545
 O2180 O 0.48322 0.58090 1.10543
 C2181 C 0.47738 0.56713 1.09935
 C2182 C 0.46331 0.55830 1.10820
 C2183 C 0.45677 0.56471 1.12357
 H2184 H 0.46266 0.57566 1.12948
 O2185 O 0.41547 0.51649 1.06200
 O2186 O 0.39564 0.51636 1.08185
 C2187 C 0.40165 0.52226 1.06801
 C2188 C 0.39280 0.53631 1.05908
 C2189 C 0.37736 0.54264 1.06536
 H2190 H 0.37146 0.53665 1.07631
 O2191 O 0.58462 0.48342 1.06162
 O2192 O 0.60439 0.48344 1.08153
 C2193 C 0.59842 0.47763 1.06764
 C2194 C 0.60730 0.46363 1.05870
 C2195 C 0.62266 0.45718 1.06507
 H2196 H 0.62850 0.46308 1.07609
 O2197 O 0.56167 0.41554 1.01670
 O2198 O 0.58145 0.39572 1.01670
 C2199 C 0.56769 0.40175 1.02259
 C2200 C 0.55885 0.39296 1.03677
 C2201 C 0.56514 0.37757 1.04331
 H2202 H 0.57632 0.37187 1.03767
 O2203 O 0.43839 0.58471 1.01708
 O2204 O 0.41856 0.60448 1.01718
 C2205 C 0.43235 0.59846 1.02302
 C2206 C 0.44119 0.60719 1.03722
 C2207 C 0.43486 0.62250 1.04388
 H2208 H 0.42366 0.62821 1.03828
 O2209 O 0.43878 0.48328 1.08533
 O2210 O 0.41902 0.48315 1.10527
 C2211 C 0.43280 0.47735 1.09917
 C2212 C 0.44168 0.46322 1.10795
 C2213 C 0.43542 0.45667 1.12341
 H2214 H 0.42425 0.46227 1.12916
 O2215 O 0.56112 0.51638 1.08506
 O2216 O 0.58086 0.51640 1.10500
 C2217 C 0.56707 0.52220 1.09894
 C2218 C 0.55819 0.53623 1.10782
 C2219 C 0.56460 0.54272 1.12321
 H2220 H 0.57555 0.53680 1.12909
 O2221 O 0.48380 0.41516 1.06186
 O2222 O 0.48384 0.39527 1.08171
 C2223 C 0.47802 0.40132 1.06784
 C2224 C 0.46402 0.39252 1.05888
 C2225 C 0.45743 0.37719 1.06525
 H2226 H 0.46296 0.37150 1.07656
 O2227 O 0.51621 0.58452 1.06201
 O2228 O 0.51622 0.60429 1.08195
 C2229 C 0.52202 0.59831 1.06806
 C2230 C 0.53603 0.60718 1.05915
 C2231 C 0.54241 0.62257 1.06552
 H2232 H 0.53647 0.62844 1.07651
 O2233 O 0.41592 0.43858 1.01692
 O2234 O 0.39619 0.41874 1.01691
 C2235 C 0.40217 0.43254 1.02278
 C2236 C 0.39332 0.44136 1.03693
 C2237 C 0.37796 0.43500 1.04337
 H2238 H 0.37212 0.42407 1.03738
 O2239 O 0.58431 0.56168 1.01707
 O2240 O 0.60401 0.58155 1.01716
 C2241 C 0.59803 0.56773 1.02300
 C2242 C 0.60680 0.55886 1.03717
 C2243 C 0.62212 0.56517 1.04376
 H2244 H 0.62776 0.57643 1.03817
 O2245 O 0.51631 0.56117 1.08534
 O2246 O 0.51636 0.58089 1.10532
 C2247 C 0.52219 0.56713 1.09920
 C2248 C 0.53628 0.55823 1.10797
 C2249 C 0.54293 0.56456 1.12335
 H2250 H 0.53742 0.57580 1.12909
 O2251 O 0.48357 0.43849 1.08515
 O2252 O 0.48363 0.41866 1.10506
 C2253 C 0.47773 0.43244 1.09899
 C2254 C 0.46361 0.44124 1.10783
 C2255 C 0.45716 0.43488 1.12329
 H2256 H 0.46308 0.42394 1.12920
 O2257 O 0.58446 0.51664 1.06184
 O2258 O 0.60424 0.51664 1.08174
 C2259 C 0.59818 0.52254 1.06792
 C2260 C 0.60686 0.53675 1.05913
 C2261 C 0.62219 0.54324 1.06550
 H2262 H 0.62813 0.53726 1.07643
 O2263 O 0.41554 0.48332 1.06200
 O2264 O 0.39571 0.48316 1.08186
 C2265 C 0.40179 0.47739 1.06800
 C2266 C 0.39311 0.46330 1.05902
 C2267 C 0.37775 0.45672 1.06529
 H2268 H 0.37200 0.46229 1.07653
 O2269 O 0.56102 0.58484 1.01705
 O2270 O 0.58065 0.60478 1.01711
 C2271 C 0.56691 0.59865 1.02295
 C2272 C 0.55797 0.60737 1.03709
 C2273 C 0.56418 0.62275 1.04367
 H2274 H 0.57535 0.62850 1.03807
 O2275 O 0.43919 0.41533 1.01684
 O2276 O 0.41950 0.39545 1.01682
 C2277 C 0.43326 0.40149 1.02267
 C2278 C 0.44213 0.39265 1.03678
 C2279 C 0.43576 0.37731 1.04331
 H2280 H 0.42483 0.37145 1.03736
 O2281 O 0.56140 0.48322 1.08508
 O2282 O 0.58114 0.48324 1.10502
 C2283 C 0.56739 0.47739 1.09896
 C2284 C 0.55857 0.46332 1.10784
 C2285 C 0.56493 0.45683 1.12328
 H2286 H 0.57588 0.46272 1.12916
 O2287 O 0.43855 0.51649 1.08554
 O2288 O 0.41878 0.51640 1.10546
 C2289 C 0.43253 0.52229 1.09941
 C2290 C 0.44134 0.53639 1.10825
 C2291 C 0.43495 0.54303 1.12362
 H2292 H 0.42370 0.53751 1.12930
 O2293 O 0.48308 0.58445 1.06207
 O2294 O 0.48308 0.60422 1.08201
 C2295 C 0.47723 0.59822 1.06815
 C2296 C 0.46313 0.60703 1.05930
 C2297 C 0.45662 0.62236 1.06574
 H2298 H 0.46252 0.62820 1.07675
 O2299 O 0.51691 0.41549 1.06177
 O2300 O 0.51698 0.39560 1.08162
 C2301 C 0.52280 0.40170 1.06778
 C2302 C 0.53691 0.39297 1.05886
 C2303 C 0.54337 0.37757 1.06517
 H2304 H 0.53745 0.37163 1.07613
 O2305 O 0.58489 0.43877 1.01661
 O2306 O 0.60475 0.41903 1.01661
 C2307 C 0.59869 0.43280 1.02247
 C2308 C 0.60746 0.44171 1.03660
 C2309 C 0.62281 0.43543 1.04318
 H2310 H 0.62853 0.42423 1.03756
 O2311 O 0.41522 0.56142 1.01704
 O2312 O 0.39532 0.58110 1.01710
 C2313 C 0.40141 0.56732 1.02293
 C2314 C 0.39266 0.55833 1.03703
 C2315 C 0.37723 0.56449 1.04353
 H2316 H 0.37147 0.57566 1.03789
 Cu2317 Cu 0.50024 0.42891 1.07154
 Cu2318 Cu 0.50032 0.40507 1.09541
 Cu2319 Cu 0.49970 0.57085 1.07172
 Cu2320 Cu 0.49972 0.59456 1.09568
 Cu2321 Cu 0.42950 0.42898 1.00020
 Cu2322 Cu 0.40585 0.40512 1.00020
 Cu2323 Cu 0.57126 0.42913 0.99998
 Cu2324 Cu 0.59505 0.40539 0.99995
 Cu2325 Cu 0.42878 0.57115 1.00038
 Cu2326 Cu 0.40494 0.59483 1.00045
 Cu2327 Cu 0.57074 0.57130 1.00037
 Cu2328 Cu 0.59435 0.59520 1.00044
 Cu2329 Cu 0.42907 0.49992 1.07174
 Cu2330 Cu 0.40530 0.49976 1.09561
 Cu2331 Cu 0.57093 0.49990 1.07139
 Cu2332 Cu 0.59464 0.49992 1.09532
 C2333 C 0.54429 0.45564 1.10041
 H2334 H 0.53948 0.46041 1.08837
 C2335 C 0.55739 0.44266 1.13113
 C2336 C 0.45562 0.54402 1.10074
 H2337 H 0.46045 0.53917 1.08874
 C2338 C 0.44254 0.55724 1.13134
 C2339 C 0.40026 0.54413 1.04480
 H2340 H 0.41230 0.53949 1.04005
 C2341 C 0.36951 0.55677 1.05773
 C2342 C 0.59991 0.45593 1.04434
 H2343 H 0.58793 0.46067 1.03952
 C2344 C 0.63048 0.44304 1.05745
 C2345 C 0.54464 0.40048 1.04456
 H2346 H 0.53990 0.41250 1.03978
 C2347 C 0.55753 0.36981 1.05755
 C2348 C 0.45543 0.59965 1.04493
 H2349 H 0.46022 0.58770 1.04005
 C2350 C 0.44245 0.63016 1.05817
 C2351 C 0.45587 0.45550 1.10034
 H2352 H 0.46060 0.46031 1.08828
 C2353 C 0.44304 0.44248 1.13116
 C2354 C 0.54392 0.54395 1.10039
 H2355 H 0.53907 0.53917 1.08838
 C2356 C 0.55713 0.55693 1.13103
 C2357 C 0.45638 0.40005 1.04453
 H2358 H 0.46119 0.41202 1.03972
 C2359 C 0.44325 0.36954 1.05760
 C2360 C 0.54379 0.59977 1.04482
 H2361 H 0.53910 0.58776 1.04000
 C2362 C 0.55652 0.63042 1.05791
 C2363 C 0.40070 0.45562 1.04473
 H2364 H 0.41268 0.46043 1.04000
 C2365 C 0.37011 0.44255 1.05758
 C2366 C 0.59934 0.54456 1.04487
 H2367 H 0.58738 0.53979 1.04006
 C2368 C 0.62989 0.55746 1.05793
 C2369 C 1.10769 1.12733 1.25252
 C2370 C 1.11545 1.11329 1.24488
 C2371 C 1.13068 1.10698 1.25150
 C2372 C 1.13811 1.11467 1.26574
 C2373 C 1.13040 1.12881 1.27357
 C2374 C 1.11508 1.13504 1.26675
 C2375 C 1.10775 1.10542 1.23024
 C2376 C 1.10119 1.09898 1.21795
 C2377 C 1.09342 1.09162 1.20353
 C2378 C 1.08679 1.08548 1.19113
 C2379 C 1.07894 1.07831 1.17621
 C2380 C 1.07717 1.06069 1.17465
 C2381 C 1.06986 1.05374 1.15997
 C2382 C 1.06422 1.06435 1.14666
 C2383 C 1.06593 1.08206 1.14842
 C2384 C 1.07325 1.08897 1.16310
 H2385 H 1.09590 1.13232 1.24748
 H2386 H 1.13681 1.09612 1.24565
 H2387 H 1.14991 1.10952 1.27050
 H2388 H 1.10868 1.14582 1.27237
 H2389 H 1.08150 1.05233 1.18475
 H2390 H 1.06854 1.04008 1.15905
 H2391 H 1.06194 1.09054 1.13830
 H2392 H 1.07460 1.10263 1.16416
 C2393 C 1.10859 0.62876 0.75151
 C2394 C 1.11532 0.61373 0.74485
 C2395 C 1.12963 0.60640 0.75243
 C2396 C 1.13716 0.61406 0.76663
 C2397 C 1.13048 0.62920 0.77349
 C2398 C 1.11609 0.63645 0.76570
 C2399 C 1.10755 0.60587 0.73023
 C2400 C 1.10098 0.59940 0.71796
 C2401 C 1.09326 0.59198 0.70352
 C2402 C 1.08667 0.58578 0.69112
 C2403 C 1.07886 0.57855 0.67620
 C2404 C 1.07725 0.56091 0.67462
 C2405 C 1.06992 0.55391 0.65996
 C2406 C 1.06410 0.56449 0.64670
 C2407 C 1.06569 0.58220 0.64847
 C2408 C 1.07302 0.58917 0.66312
 H2409 H 1.09752 0.63456 0.74573
 H2410 H 1.13496 0.59476 0.74736
 H2411 H 1.14818 0.60804 0.77218
 H2412 H 1.11053 0.64806 0.77049
 H2413 H 1.08170 0.55257 0.68468
 H2414 H 1.06872 0.54024 0.65903
 H2415 H 1.06158 0.59067 0.63838
 H2416 H 1.07427 0.60283 0.66419
 C2417 C 0.60814 1.12833 0.75230
 C2418 C 0.61554 1.11393 0.74499
 C2419 C 0.63044 1.10726 0.75196
 C2420 C 0.63794 1.11493 0.76619
 C2421 C 0.63065 1.12950 0.77374
 C2422 C 0.61558 1.13605 0.76652
 C2423 C 0.60785 1.10609 0.73029
 C2424 C 0.60133 1.09966 0.71795
 C2425 C 0.59363 1.09229 0.70346
 C2426 C 0.58704 1.08612 0.69104
 C2427 C 0.57917 1.07892 0.67611
 C2428 C 0.57752 1.06128 0.67450
 C2429 C 0.57010 1.05432 0.65987
 C2430 C 0.56421 1.06492 0.64665
 C2431 C 0.56583 1.08263 0.64845
 C2432 C 0.57326 1.08956 0.66308
 H2433 H 0.59660 1.13362 0.74700
 H2434 H 0.63630 1.09610 0.74639
 H2435 H 0.64945 1.10933 0.77113
 H2436 H 0.60938 1.14715 0.77171
 H2437 H 0.58202 1.05292 0.68451
 H2438 H 0.56888 1.04065 0.65892
 H2439 H 0.56168 1.09111 0.63839
 H2440 H 0.57452 1.10322 0.66416
 C2441 C 0.60879 0.62988 1.25110
 C2442 C 0.61479 0.61427 1.24509
 C2443 C 0.62845 0.60637 1.25328
 C2444 C 0.63608 0.61403 1.26744
 C2445 C 0.63013 0.62974 1.27362
 C2446 C 0.61639 0.63757 1.26524
 C2447 C 0.60697 0.60642 1.23049
 C2448 C 0.60044 0.59993 1.21821
 C2449 C 0.59285 0.59241 1.20375
 C2450 C 0.58647 0.58606 1.19132
 C2451 C 0.57905 0.57854 1.17633
 C2452 C 0.58949 0.57282 1.16309
 C2453 C 0.58237 0.56572 1.14841
 C2454 C 0.56465 0.56424 1.14677
 C2455 C 0.55425 0.57001 1.16016
 C2456 C 0.56141 0.57710 1.17486
 H2457 H 0.59825 0.63614 1.24482
 H2458 H 0.63320 0.59427 1.24873
 H2459 H 0.64653 0.60753 1.27354
 H2460 H 0.61149 0.64969 1.26947
 H2461 H 0.60315 0.57394 1.16406
 H2462 H 0.59070 0.56166 1.13821
 H2463 H 0.54059 0.56889 1.15933
 H2464 H 0.55321 0.58148 1.18505
 C2465 C 0.89153 0.87140 1.25212
 C2466 C 0.88452 0.88620 1.24522
 C2467 C 0.87010 0.89336 1.25269
 C2468 C 0.86270 0.88578 1.26703
 C2469 C 0.86962 0.87083 1.27420
 C2470 C 0.88419 0.86377 1.26645
 C2471 C 0.89216 0.89401 1.23046
 C2472 C 0.89862 0.90045 1.21810
 C2473 C 0.90625 0.90787 1.20358
 C2474 C 0.91279 0.91408 1.19113
 C2475 C 0.92059 0.92130 1.17617
 C2476 C 0.92223 0.93893 1.17454
 C2477 C 0.92962 0.94591 1.15988
 C2478 C 0.93547 0.93531 1.14665
 C2479 C 0.93382 0.91760 1.14847
 C2480 C 0.92644 0.91066 1.16313
 H2481 H 0.90271 0.86574 1.24642
 H2482 H 0.86455 0.90482 1.24744
 H2483 H 0.85157 0.89177 1.27237
 H2484 H 0.89007 0.85236 1.27132
 H2485 H 0.91777 0.94729 1.18457
 H2486 H 0.93085 0.95957 1.15892
 H2487 H 0.93794 0.90911 1.13842
 H2488 H 0.92518 0.89700 1.16423
 C2489 C 0.89189 0.37180 0.75269
 C2490 C 0.88456 0.38627 0.74544
 C2491 C 0.86957 0.39285 0.75229
 C2492 C 0.86193 0.38503 0.76637
 C2493 C 0.86918 0.37042 0.77390
 C2494 C 0.88431 0.36393 0.76676
 C2495 C 0.89238 0.39426 0.73087
 C2496 C 0.89894 0.40079 0.71860
 C2497 C 0.90661 0.40825 0.70413
 C2498 C 0.91312 0.41442 0.69165
 C2499 C 0.92082 0.42155 0.67658
 C2500 C 0.92232 0.43917 0.67475
 C2501 C 0.92952 0.44604 0.65994
 C2502 C 0.93533 0.43535 0.64678
 C2503 C 0.93382 0.41765 0.64880
 C2504 C 0.92662 0.41081 0.66360
 H2505 H 0.90349 0.36657 0.74746
 H2506 H 0.86376 0.40404 0.74674
 H2507 H 0.85036 0.39057 0.77122
 H2508 H 0.89045 0.35278 0.77191
 H2509 H 0.91789 0.44761 0.68473
 H2510 H 0.93066 0.45971 0.65883
 H2511 H 0.93791 0.40908 0.63879
 H2512 H 0.92545 0.39716 0.66485
 C2513 C 0.37085 0.89288 0.75237
 C2514 C 0.38575 0.88600 0.74555
 C2515 C 0.39300 0.87161 0.75307
 C2516 C 0.38540 0.86410 0.76733
 C2517 C 0.37039 0.87088 0.77431
 C2518 C 0.36323 0.88540 0.76665
 C2519 C 0.39358 0.89368 0.73084
 C2520 C 0.40013 0.90010 0.71851
 C2521 C 0.40773 0.90763 0.70404
 C2522 C 0.41409 0.91406 0.69161
 C2523 C 0.42146 0.92173 0.67666
 C2524 C 0.43909 0.92323 0.67512
 C2525 C 0.44619 0.93047 0.66044
 C2526 C 0.43572 0.93632 0.64712
 C2527 C 0.41802 0.93482 0.64885
 C2528 C 0.41096 0.92757 0.66351
 H2529 H 0.36512 0.90403 0.74665
 H2530 H 0.40452 0.86615 0.74788
 H2531 H 0.39129 0.85291 0.77273
 H2532 H 0.35177 0.89108 0.77165
 H2533 H 0.44734 0.91878 0.68524
 H2534 H 0.45984 0.93160 0.65954
 H2535 H 0.40962 0.93895 0.63872
 H2536 H 0.39731 0.92642 0.66453
 C2537 C 0.36956 0.39289 1.25229
 C2538 C 0.38451 0.38619 1.24547
 C2539 C 0.39175 0.37170 1.25278
 C2540 C 0.38414 0.36396 1.26690
 C2541 C 0.36906 0.37058 1.27403
 C2542 C 0.36188 0.38519 1.26642
 C2543 C 0.39241 0.39409 1.23091
 C2544 C 0.39907 0.40057 1.21867
 C2545 C 0.40687 0.40799 1.20426
 C2546 C 0.41349 0.41416 1.19183
 C2547 C 0.42129 0.42131 1.17684
 C2548 C 0.42710 0.41061 1.16383
 C2549 C 0.43431 0.41748 1.14905
 C2550 C 0.43582 0.43519 1.14708
 C2551 C 0.43005 0.44585 1.16029
 C2552 C 0.42284 0.43894 1.17507
 H2553 H 0.36382 0.40410 1.24669
 H2554 H 0.40331 0.36637 1.24757
 H2555 H 0.39021 0.35279 1.27210
 H2556 H 0.35035 0.39083 1.27126
 H2557 H 0.42591 0.39695 1.16504
 H2558 H 0.43839 0.40894 1.13902
 H2559 H 0.43120 0.45951 1.15922
 H2560 H 0.41841 0.44735 1.18507
 C2561 C 0.89194 1.12769 0.74736
 C2562 C 0.88445 1.11338 0.75476
 C2563 C 0.86943 1.10683 0.74793
 C2564 C 0.86192 1.11458 0.73374
 C2565 C 0.86935 1.12900 0.72616
 C2566 C 0.88448 1.13545 0.73318
 C2567 C 0.89218 1.10551 0.76940
 C2568 C 0.89877 1.09909 0.78169
 C2569 C 0.90657 1.09177 0.79615
 C2570 C 0.91324 1.08567 0.80856
 C2571 C 0.92116 1.07853 0.82348
 C2572 C 0.92289 1.06092 0.82512
 C2573 C 0.93030 1.05399 0.83978
 C2574 C 0.93607 1.06463 0.85299
 C2575 C 0.93439 1.08234 0.85114
 C2576 C 0.92698 1.08923 0.83648
 H2577 H 0.90358 1.13286 0.75255
 H2578 H 0.86351 1.09576 0.75358
 H2579 H 0.85029 1.10922 0.72881
 H2580 H 0.89067 1.14645 0.72777
 H2581 H 0.91845 1.05253 0.81511
 H2582 H 0.93158 1.04033 0.84076
 H2583 H 0.93847 1.09085 0.86119
 H2584 H 0.92564 1.10288 0.83535
 C2585 C 0.86945 0.60704 0.24822
 C2586 C 0.88464 0.61345 0.25481
 C2587 C 0.89211 0.62773 0.24734
 C2588 C 0.88448 0.63556 0.23328
 C2589 C 0.86923 0.62920 0.22645
 C2590 C 0.86179 0.61485 0.23415
 C2591 C 0.89252 0.60546 0.26930
 C2592 C 0.89916 0.59892 0.28151
 C2593 C 0.90690 0.59146 0.29591
 C2594 C 0.91346 0.58528 0.30835
 C2595 C 0.92121 0.57815 0.32336
 C2596 C 0.92688 0.58888 0.33639
 C2597 C 0.93411 0.58204 0.35117
 C2598 C 0.93576 0.56434 0.35309
 C2599 C 0.93009 0.55365 0.33987
 C2600 C 0.92286 0.56054 0.32510
 H2601 H 0.86354 0.59600 0.25396
 H2602 H 0.90386 0.63282 0.25236
 H2603 H 0.89067 0.64653 0.22779
 H2604 H 0.85004 0.60959 0.22940
 H2605 H 0.92559 0.60254 0.33520
 H2606 H 0.93809 0.59058 0.36123
 H2607 H 0.93133 0.53999 0.34092
 H2608 H 0.91851 0.55212 0.31507
 C2609 C 0.36898 1.10700 0.24824
 C2610 C 0.38417 1.11331 0.25489
 C2611 C 0.39190 1.12740 0.24730
 C2612 C 0.38450 1.13515 0.23308
 C2613 C 0.36922 1.12891 0.22621
 C2614 C 0.36154 1.11473 0.23400
 C2615 C 0.39185 1.10542 0.26954
 C2616 C 0.39841 1.09899 0.28184
 C2617 C 0.40617 1.09165 0.29629
 C2618 C 0.41281 1.08554 0.30871
 C2619 C 0.42069 1.07843 0.32365
 C2620 C 0.42637 1.08915 0.33670
 C2621 C 0.43372 1.08229 0.35140
 C2622 C 0.43549 1.06459 0.35324
 C2623 C 0.42986 1.05393 0.34000
 C2624 C 0.42251 1.06082 0.32529
 H2625 H 0.36287 1.09611 0.25405
 H2626 H 0.40367 1.13239 0.25237
 H2627 H 0.39088 1.14596 0.22749
 H2628 H 0.34977 1.10957 0.22921
 H2629 H 0.42497 1.10280 0.33557
 H2630 H 0.43770 1.09081 0.36148
 H2631 H 0.43121 1.04027 0.34098
 H2632 H 0.41819 1.05242 0.31524
 C2633 C 0.37116 0.60665 0.74696
 C2634 C 0.38496 0.61445 0.75498
 C2635 C 0.39106 0.62996 0.74882
 C2636 C 0.38344 0.63765 0.73468
 C2637 C 0.36957 0.62992 0.72645
 C2638 C 0.36351 0.61432 0.73280
 C2639 C 0.39281 0.60662 0.76959
 C2640 C 0.39939 0.60017 0.78189
 C2641 C 0.40702 0.59274 0.79639
 C2642 C 0.41340 0.58647 0.80888
 C2643 C 0.42078 0.57904 0.82395
 C2644 C 0.43841 0.57778 0.82561
 C2645 C 0.44551 0.57072 0.84038
 C2646 C 0.43502 0.56482 0.85366
 C2647 C 0.41732 0.56615 0.85185
 C2648 C 0.41026 0.57320 0.83709
 H2649 H 0.36632 0.59464 0.75163
 H2650 H 0.40171 0.63613 0.75497
 H2651 H 0.38843 0.64969 0.73033
 H2652 H 0.35294 0.60791 0.72683
 H2653 H 0.44667 0.58226 0.81551
 H2654 H 0.45917 0.56974 0.84135
 H2655 H 0.40892 0.56200 0.86196
 H2656 H 0.39660 0.57419 0.83597
 C2657 C 1.10713 0.87142 0.74688
 C2658 C 1.11475 0.88547 0.75462
 C2659 C 1.12993 0.89193 0.74804
 C2660 C 1.13745 0.88440 0.73376
 C2661 C 1.12988 0.87025 0.72582
 C2662 C 1.11461 0.86386 0.73260
 C2663 C 1.10701 0.89322 0.76933
 C2664 C 1.10053 0.89965 0.78168
 C2665 C 1.09300 0.90712 0.79619
 C2666 C 1.08668 0.91345 0.80868
 C2667 C 1.07933 0.92095 0.82371
 C2668 C 1.08985 0.92670 0.83688
 C2669 C 1.08280 0.93380 0.85160
 C2670 C 1.06510 0.93527 0.85336
 C2671 C 1.05462 0.92948 0.84004
 C2672 C 1.06171 0.92238 0.82531
 H2673 H 1.09538 0.86630 0.75188
 H2674 H 1.13596 0.90280 0.75396
 H2675 H 1.14920 0.88968 0.72904
 H2676 H 1.10832 0.85306 0.72690
 H2677 H 1.10351 0.92560 0.83581
 H2678 H 1.09120 0.93788 0.86174
 H2679 H 1.04096 0.93058 0.84097
 H2680 H 1.05345 0.91798 0.81518
 C2681 C 1.10802 0.37028 0.24810
 C2682 C 1.11461 0.38539 0.25473
 C2683 C 1.12898 0.39269 0.24726
 C2684 C 1.13671 0.38496 0.23319
 C2685 C 1.13016 0.36977 0.22636
 C2686 C 1.11572 0.36252 0.23404
 C2687 C 1.10672 0.39331 0.26926
 C2688 C 1.10018 0.39990 0.28150
 C2689 C 1.09267 0.40753 0.29594
 C2690 C 1.08642 0.41396 0.30841
 C2691 C 1.07920 0.42153 0.32348
 C2692 C 1.08983 0.42719 0.33660
 C2693 C 1.08291 0.43421 0.35143
 C2694 C 1.06522 0.43568 0.35334
 C2695 C 1.05463 0.43002 0.34005
 C2696 C 1.06159 0.42299 0.32522
 H2697 H 1.09692 0.36448 0.25382
 H2698 H 1.13422 0.40438 0.25231
 H2699 H 1.14775 0.39100 0.22770
 H2700 H 1.11031 0.35083 0.22929
 H2701 H 1.10347 0.42605 0.33542
 H2702 H 1.09139 0.43821 0.36153
 H2703 H 1.04098 0.43114 0.34109
 H2704 H 1.05325 0.41867 0.31513
 C2705 C 0.60802 0.87043 0.24803
 C2706 C 0.61461 0.88552 0.25471
 C2707 C 0.62870 0.89309 0.24699
 C2708 C 0.63615 0.88566 0.23260
 C2709 C 0.62958 0.87051 0.22571
 C2710 C 0.61543 0.86297 0.23364
 C2711 C 0.60689 0.89324 0.26946
 C2712 C 0.60043 0.89969 0.28182
 C2713 C 0.59291 0.90722 0.29632
 C2714 C 0.58657 0.91362 0.30877
 C2715 C 0.57916 0.92120 0.32375
 C2716 C 0.58962 0.92708 0.33690
 C2717 C 0.58251 0.93424 0.35158
 C2718 C 0.56479 0.93562 0.35330
 C2719 C 0.55437 0.92971 0.33999
 C2720 C 0.56153 0.92256 0.32530
 H2721 H 0.59714 0.86442 0.25394
 H2722 H 0.63392 0.90478 0.25205
 H2723 H 0.64693 0.89192 0.22684
 H2724 H 0.61008 0.85126 0.22885
 H2725 H 0.60329 0.92604 0.33587
 H2726 H 0.59087 0.93841 0.36171
 H2727 H 0.54071 0.93076 0.34088
 H2728 H 0.55331 0.91807 0.31518
 C2729 C 0.60708 0.37183 0.74729
 C2730 C 0.61468 0.38593 0.75496
 C2731 C 0.62992 0.39229 0.74844
 C2732 C 0.63751 0.38462 0.73426
 C2733 C 0.62995 0.37045 0.72638
 C2734 C 0.61463 0.36413 0.73312
 C2735 C 0.60689 0.39381 0.76957
 C2736 C 0.60040 0.40034 0.78186
 C2737 C 0.59288 0.40791 0.79634
 C2738 C 0.58659 0.41429 0.80881
 C2739 C 0.57928 0.42182 0.82385
 C2740 C 0.58982 0.42757 0.83699
 C2741 C 0.58280 0.43463 0.85175
 C2742 C 0.56510 0.43604 0.85357
 C2743 C 0.55460 0.43026 0.84027
 C2744 C 0.56165 0.42320 0.82550
 H2745 H 0.59528 0.36678 0.75226
 H2746 H 0.63595 0.40319 0.75431
 H2747 H 0.64931 0.38984 0.72959
 H2748 H 0.60835 0.35331 0.72747
 H2749 H 0.60348 0.42649 0.83587
 H2750 H 0.59122 0.43870 0.86188
 H2751 H 0.54094 0.43132 0.84124
 H2752 H 0.55337 0.41879 0.81540
 C2753 C 1.25190 1.12853 1.10595
 C2754 C 1.24413 1.11461 1.11381
 C2755 C 1.25058 1.10832 1.12921
 C2756 C 1.26477 1.11588 1.13671
 C2757 C 1.27275 1.12989 1.12890
 C2758 C 1.26610 1.13612 1.11342
 C2759 C 1.22951 1.10681 1.10612
 C2760 C 1.21723 1.10028 1.09974
 C2761 C 1.20280 1.09265 1.09236
 C2762 C 1.19040 1.08616 1.08618
 C2763 C 1.17549 1.07846 1.07897
 C2764 C 1.16253 1.07270 1.08971
 C2765 C 1.14790 1.06545 1.08277
 C2766 C 1.14603 1.06388 1.06497
 C2767 C 1.15917 1.06964 1.05428
 C2768 C 1.17381 1.07688 1.06125
 H2769 H 1.24701 1.13350 1.09402
 H2770 H 1.24463 1.09756 1.13543
 H2771 H 1.26937 1.11074 1.14864
 H2772 H 1.27185 1.14680 1.10694
 H2773 H 1.16367 1.07392 1.10344
 H2774 H 1.13790 1.06140 1.09133
 H2775 H 1.15817 1.06845 1.04054
 H2776 H 1.18378 1.08129 1.05282
 C2777 C 1.25226 0.60667 0.62830
 C2778 C 1.24417 0.61437 0.61440
 C2779 C 1.25021 0.62984 0.60808
 C2780 C 1.26430 0.63759 0.61558
 C2781 C 1.27260 0.62995 0.62955
 C2782 C 1.26636 0.61439 0.63583
 C2783 C 1.22963 0.60645 0.60668
 C2784 C 1.21740 0.59989 0.60023
 C2785 C 1.20298 0.59233 0.59276
 C2786 C 1.19056 0.58596 0.58650
 C2787 C 1.17556 0.57846 0.57924
 C2788 C 1.17382 0.57708 0.56150
 C2789 C 1.15908 0.57008 0.55450
 C2790 C 1.14591 0.56436 0.56517
 C2791 C 1.14782 0.56576 0.58298
 C2792 C 1.16255 0.57276 0.58995
 H2793 H 1.24768 0.59469 0.63331
 H2794 H 1.24401 0.63594 0.59736
 H2795 H 1.26858 0.64959 0.61043
 H2796 H 1.27237 0.60805 0.64648
 H2797 H 1.18383 0.58144 0.55309
 H2798 H 1.15804 0.56902 0.54075
 H2799 H 1.13780 0.56173 0.59152
 H2800 H 1.16374 0.57384 0.60369
 C2801 C 0.75184 1.12891 0.60600
 C2802 C 0.74425 1.11476 0.61364
 C2803 C 0.75083 1.10826 0.62888
 C2804 C 0.76498 1.11584 0.63646
 C2805 C 0.77277 1.13007 0.62887
 C2806 C 0.76598 1.13651 0.61354
 C2807 C 0.72966 1.10699 0.60589
 C2808 C 0.71739 1.10052 0.59946
 C2809 C 0.70292 1.09302 0.59205
 C2810 C 0.69046 1.08667 0.58586
 C2811 C 0.67544 1.07918 0.57868
 C2812 C 0.66247 1.07352 0.58945
 C2813 C 0.64774 1.06646 0.58256
 C2814 C 0.64578 1.06497 0.56476
 C2815 C 0.65892 1.07066 0.55402
 C2816 C 0.67366 1.07772 0.56096
 H2817 H 0.74682 1.13406 0.59419
 H2818 H 0.74502 1.09733 0.63493
 H2819 H 0.76970 1.11052 0.64827
 H2820 H 0.77157 1.14738 0.60724
 H2821 H 0.66370 1.07466 0.60319
 H2822 H 0.63774 1.06246 0.59115
 H2823 H 0.65785 1.06953 0.54029
 H2824 H 0.68364 1.08206 0.55250
 C2825 C 0.75174 0.62893 1.10623
 C2826 C 0.74399 0.61493 1.11398
 C2827 C 0.75043 0.60853 1.12932
 C2828 C 0.76463 0.61604 1.13688
 C2829 C 0.77261 0.63009 1.12915
 C2830 C 0.76594 0.63646 1.11374
 C2831 C 0.72942 0.60714 1.10620
 C2832 C 0.71719 0.60059 1.09976
 C2833 C 0.70280 0.59295 1.09236
 C2834 C 0.69039 0.58647 1.08620
 C2835 C 0.67542 0.57886 1.07906
 C2836 C 0.66252 0.57308 1.08987
 C2837 C 0.64777 0.56603 1.08301
 C2838 C 0.64573 0.56465 1.06521
 C2839 C 0.65881 0.57041 1.05444
 C2840 C 0.67356 0.57746 1.06134
 H2841 H 0.74683 0.63400 1.09434
 H2842 H 0.74448 0.59772 1.13545
 H2843 H 0.76925 0.61080 1.14876
 H2844 H 0.77167 0.64719 1.10735
 H2845 H 0.66381 0.57416 1.10360
 H2846 H 0.63782 0.56197 1.09162
 H2847 H 0.65767 0.56935 1.04070
 H2848 H 0.68349 0.58187 1.05286
 C2849 C 1.25058 0.89157 0.86949
 C2850 C 1.24483 0.88594 0.88541
 C2851 C 1.25303 0.87241 0.89354
 C2852 C 1.26689 0.86449 0.88577
 C2853 C 1.27276 0.86999 0.86969
 C2854 C 1.26445 0.88367 0.86167
 C2855 C 1.23034 0.89384 0.89328
 C2856 C 1.21811 0.90032 0.89980
 C2857 C 1.20365 0.90776 0.90735
 C2858 C 1.19118 0.91396 0.91372
 C2859 C 1.17615 0.92115 0.92123
 C2860 C 1.16320 0.91047 0.92704
 C2861 C 1.14845 0.91737 0.93408
 C2862 C 1.14643 0.93509 0.93541
 C2863 C 1.15955 0.94573 0.92958
 C2864 C 1.17432 0.93879 0.92254
 H2865 H 1.24429 0.90201 0.86306
 H2866 H 1.24868 0.86794 0.90588
 H2867 H 1.27298 0.85411 0.89243
 H2868 H 1.26847 0.88821 0.84928
 H2869 H 1.16446 0.89680 0.92602
 H2870 H 1.13848 0.90884 0.93820
 H2871 H 1.15845 0.95940 0.93058
 H2872 H 1.18428 0.94717 0.91810
 C2873 C 1.25159 0.37164 0.39240
 C2874 C 1.24432 0.38602 0.38491
 C2875 C 1.25129 0.39274 0.36996
 C2876 C 1.26549 0.38512 0.36248
 C2877 C 1.27300 0.37057 0.36985
 C2878 C 1.26578 0.36397 0.38498
 C2879 C 1.22966 0.39382 0.39256
 C2880 C 1.21736 0.40028 0.39899
 C2881 C 1.20292 0.40773 0.40655
 C2882 C 1.19053 0.41398 0.41301
 C2883 C 1.17564 0.42127 0.42071
 C2884 C 1.17403 0.43892 0.42220
 C2885 C 1.15946 0.44597 0.42953
 C2886 C 1.14631 0.43543 0.43547
 C2887 C 1.14809 0.41770 0.43395
 C2888 C 1.16266 0.41069 0.42663
 H2889 H 1.24628 0.36632 0.40400
 H2890 H 1.24574 0.40388 0.36405
 H2891 H 1.27042 0.39076 0.35092
 H2892 H 1.27095 0.35288 0.39124
 H2893 H 1.18402 0.44722 0.41767
 H2894 H 1.15852 0.45964 0.43065
 H2895 H 1.13808 0.40925 0.43813
 H2896 H 1.16374 0.39701 0.42549
 C2897 C 0.75173 0.87154 0.39321
 C2898 C 0.74409 0.88561 0.38547
 C2899 C 0.75080 0.89213 0.37028
 C2900 C 0.76509 0.88463 0.36286
 C2901 C 0.77292 0.87046 0.37054
 C2902 C 0.76602 0.86401 0.38582
 C2903 C 0.72937 0.89335 0.39309
 C2904 C 0.71703 0.89980 0.39946
 C2905 C 0.70253 0.90734 0.40686
 C2906 C 0.69010 0.91374 0.41311
 C2907 C 0.67517 0.92133 0.42046
 C2908 C 0.66210 0.92710 0.40985
 C2909 C 0.64749 0.93428 0.41693
 C2910 C 0.64574 0.93579 0.43476
 C2911 C 0.65897 0.92999 0.44532
 C2912 C 0.67359 0.92281 0.43821
 H2913 H 0.74664 0.86638 0.40498
 H2914 H 0.74497 0.90302 0.36416
 H2915 H 0.76990 0.88996 0.35109
 H2916 H 0.77164 0.85320 0.39220
 H2917 H 0.66315 0.92596 0.39610
 H2918 H 0.63743 0.93838 0.40847
 H2919 H 0.65807 0.93113 0.45907
 H2920 H 0.68364 0.91841 0.44654
 C2921 C 0.75045 0.37027 0.89199
 C2922 C 0.74432 0.38576 0.88576
 C2923 C 0.75236 0.39356 0.87190
 C2924 C 0.76647 0.38592 0.86427
 C2925 C 0.77275 0.37031 0.87041
 C2926 C 0.76454 0.36259 0.88439
 C2927 C 0.72970 0.39355 0.89349
 C2928 C 0.71740 0.40001 0.89991
 C2929 C 0.70292 0.40753 0.90733
 C2930 C 0.69048 0.41391 0.91356
 C2931 C 0.67553 0.42149 0.92085
 C2932 C 0.66256 0.42737 0.91017
 C2933 C 0.64794 0.43458 0.91718
 C2934 C 0.64608 0.43600 0.93500
 C2935 C 0.65921 0.43010 0.94563
 C2936 C 0.67384 0.42290 0.93859
 H2937 H 0.74430 0.36410 0.90270
 H2938 H 0.74772 0.40557 0.86698
 H2939 H 0.77242 0.39234 0.85364
 H2940 H 0.76886 0.35057 0.88946
 H2941 H 0.66370 0.42627 0.89643
 H2942 H 0.63794 0.43874 0.90867
 H2943 H 0.65822 0.43117 0.95938
 H2944 H 0.68381 0.41840 0.94697
 C2945 C 0.74880 0.87076 1.10698
 C2946 C 0.75639 0.88486 1.11466
 C2947 C 0.74978 0.89128 1.12993
 C2948 C 0.73561 0.88366 1.13748
 C2949 C 0.72782 0.86948 1.12983
 C2950 C 0.73464 0.86311 1.11448
 C2951 C 0.77097 0.89271 1.10689
 C2952 C 0.78320 0.89925 1.10039
 C2953 C 0.79759 0.90685 1.09285
 C2954 C 0.80995 0.91329 1.08652
 C2955 C 0.82485 0.92093 1.07916
 C2956 C 0.83790 0.92668 1.08979
 C2957 C 0.85250 0.93388 1.08273
 C2958 C 0.85425 0.93545 1.06491
 C2959 C 0.84104 0.92968 1.05432
 C2960 C 0.82643 0.92248 1.06142
 H2961 H 0.75382 0.86567 1.09515
 H2962 H 0.75558 0.90218 1.13602
 H2963 H 0.73087 0.88892 1.14930
 H2964 H 0.72906 0.85229 1.10814
 H2965 H 0.83685 0.92547 1.10353
 H2966 H 0.86255 0.93794 1.09121
 H2967 H 0.84196 0.93087 1.04058
 H2968 H 0.81639 0.91809 1.05307
 C2969 C 0.74907 0.39253 0.62985
 C2970 C 0.75588 0.38603 0.61471
 C2971 C 0.74842 0.37186 0.60701
 C2972 C 0.73420 0.36421 0.61439
 C2973 C 0.72720 0.37063 0.62963
 C2974 C 0.73484 0.38491 0.63726
 C2975 C 0.77056 0.39382 0.60708
 C2976 C 0.78288 0.40024 0.60064
 C2977 C 0.79736 0.40761 0.59306
 C2978 C 0.80979 0.41380 0.58660
 C2979 C 0.82473 0.42103 0.57894
 C2980 C 0.83774 0.41041 0.57314
 C2981 C 0.85239 0.41737 0.56594
 C2982 C 0.85422 0.43510 0.56442
 C2983 C 0.84102 0.44568 0.57022
 C2984 C 0.82638 0.43867 0.57742
 H2985 H 0.75476 0.40349 0.63593
 H2986 H 0.75360 0.36672 0.59528
 H2987 H 0.72874 0.35333 0.60804
 H2988 H 0.72994 0.39023 0.64899
 H2989 H 0.83663 0.39674 0.57431
 H2990 H 0.86242 0.40890 0.56185
 H2991 H 0.84199 0.45935 0.56906
 H2992 H 0.81636 0.44701 0.58184
 C2993 C 0.24823 0.87143 0.60623
 C2994 C 0.25588 0.88542 0.61407
 C2995 C 0.24921 0.89180 0.62932
 C2996 C 0.23494 0.88426 0.63671
 C2997 C 0.22709 0.87017 0.62894
 C2998 C 0.23395 0.86386 0.61358
 C2999 C 0.27058 0.89319 0.60647
 C3000 C 0.28291 0.89967 0.60011
 C3001 C 0.29739 0.90723 0.59273
 C3002 C 0.30981 0.91364 0.58650
 C3003 C 0.32474 0.92125 0.57920
 C3004 C 0.33773 0.92707 0.58986
 C3005 C 0.35236 0.93424 0.58284
 C3006 C 0.35421 0.93570 0.56501
 C3007 C 0.34105 0.92986 0.55439
 C3008 C 0.32642 0.92268 0.56145
 H3009 H 0.25329 0.86637 0.59441
 H3010 H 0.25506 0.90262 0.63552
 H3011 H 0.23016 0.88948 0.64854
 H3012 H 0.22832 0.85312 0.60713
 H3013 H 0.33659 0.92596 0.60361
 H3014 H 0.36236 0.93837 0.59134
 H3015 H 0.34204 0.93095 0.54064
 H3016 H 0.31643 0.91823 0.55308
 C3017 C 0.24826 0.39307 1.12901
 C3018 C 0.25595 0.38581 1.11467
 C3019 C 0.24945 0.37076 1.10782
 C3020 C 0.23533 0.36299 1.11526
 C3021 C 0.22746 0.37016 1.12971
 C3022 C 0.23413 0.38533 1.13649
 C3023 C 0.27056 0.39371 1.10703
 C3024 C 0.28285 0.40020 1.10062
 C3025 C 0.29733 0.40766 1.09311
 C3026 C 0.30977 0.41389 1.08673
 C3027 C 0.32476 0.42113 1.07917
 C3028 C 0.33778 0.41050 1.07341
 C3029 C 0.35247 0.41746 1.06629
 C3030 C 0.35433 0.43518 1.06482
 C3031 C 0.34113 0.44577 1.07059
 C3032 C 0.32644 0.43877 1.07771
 H3033 H 0.25320 0.40472 1.13444
 H3034 H 0.25532 0.36501 1.09672
 H3035 H 0.23070 0.35134 1.10965
 H3036 H 0.22848 0.39131 1.14753
 H3037 H 0.33664 0.39683 1.07453
 H3038 H 0.36250 0.40898 1.06222
 H3039 H 0.34213 0.45944 1.06947
 H3040 H 0.31642 0.44712 1.08211
 C3041 C 0.74957 1.13001 0.89168
 C3042 C 0.75572 1.11451 0.88551
 C3043 C 0.74767 1.10667 0.87168
 C3044 C 0.73352 1.11426 0.86407
 C3045 C 0.72718 1.12984 0.87020
 C3046 C 0.73543 1.13762 0.88410
 C3047 C 0.77032 1.10671 0.89330
 C3048 C 0.78260 1.10023 0.89977
 C3049 C 0.79707 1.09270 0.90724
 C3050 C 0.80953 1.08633 0.91346
 C3051 C 0.82456 1.07880 0.92067
 C3052 C 0.83756 1.07317 0.90991
 C3053 C 0.85231 1.06611 0.91682
 C3054 C 0.85426 1.06459 0.93462
 C3055 C 0.84109 1.07024 0.94534
 C3056 C 0.82633 1.07729 0.93840
 H3057 H 0.75573 1.13622 0.90234
 H3058 H 0.75234 1.09467 0.86679
 H3059 H 0.72755 1.10780 0.85348
 H3060 H 0.73108 1.14964 0.88913
 H3061 H 0.83635 1.07434 0.89618
 H3062 H 0.86232 1.06213 0.90824
 H3063 H 0.84216 1.06908 0.95908
 H3064 H 0.81633 1.08159 0.94685
 C3065 C 0.74764 0.60671 0.37188
 C3066 C 0.75574 0.61446 0.38571
 C3067 C 0.74965 0.62994 0.39198
 C3068 C 0.73549 0.63763 0.38448
 C3069 C 0.72720 0.62994 0.37056
 C3070 C 0.73348 0.61437 0.36435
 C3071 C 0.77034 0.60657 0.39343
 C3072 C 0.78260 0.59999 0.39983
 C3073 C 0.79704 0.59233 0.40724
 C3074 C 0.80946 0.58586 0.41345
 C3075 C 0.82442 0.57822 0.42068
 C3076 C 0.82614 0.57669 0.43841
 C3077 C 0.84086 0.56960 0.44541
 C3078 C 0.85405 0.56391 0.43473
 C3079 C 0.85214 0.56542 0.41692
 C3080 C 0.83744 0.57252 0.40996
 H3081 H 0.75225 0.59472 0.36691
 H3082 H 0.75585 0.63609 0.40266
 H3083 H 0.73118 0.64963 0.38959
 H3084 H 0.72746 0.60798 0.35375
 H3085 H 0.81613 0.58103 0.44683
 H3086 H 0.84188 0.56844 0.45915
 H3087 H 0.86217 0.56140 0.40837
 H3088 H 0.83627 0.57370 0.39623
 C3089 C 0.24780 1.12847 0.39376
 C3090 C 0.25553 1.11448 0.38598
 C3091 C 0.24904 1.10809 0.37067
 C3092 C 0.23483 1.11563 0.36315
 C3093 C 0.22690 1.12971 0.37086
 C3094 C 0.23359 1.13603 0.38628
 C3095 C 0.27018 1.10673 0.39366
 C3096 C 0.28248 1.10025 0.40003
 C3097 C 0.29695 1.09269 0.40739
 C3098 C 0.30938 1.08627 0.41357
 C3099 C 0.32434 1.07868 0.42080
 C3100 C 0.33731 1.07292 0.41008
 C3101 C 0.35199 1.06579 0.41704
 C3102 C 0.35387 1.06433 0.43485
 C3103 C 0.34072 1.07009 0.44553
 C3104 C 0.32604 1.07722 0.43853
 H3105 H 0.25274 1.13352 0.40563
 H3106 H 0.25496 1.09727 0.36453
 H3107 H 0.23019 1.11041 0.35128
 H3108 H 0.22788 1.14677 0.39268
 H3109 H 0.33613 1.07406 0.39633
 H3110 H 0.36200 1.06172 0.40850
 H3111 H 0.34175 1.06898 0.45927
 H3112 H 0.31605 1.08163 0.44693
 C3113 C 0.24846 0.60691 0.87138
 C3114 C 0.25589 0.61422 0.88582
 C3115 C 0.24913 0.62916 0.89267
 C3116 C 0.23496 0.63675 0.88515
 C3117 C 0.22731 0.62950 0.87063
 C3118 C 0.23428 0.61447 0.86383
 C3119 C 0.27049 0.60646 0.89358
 C3120 C 0.28276 0.60002 0.90006
 C3121 C 0.29719 0.59255 0.90758
 C3122 C 0.30961 0.58621 0.91388
 C3123 C 0.32456 0.57871 0.92120
 C3124 C 0.32620 0.57728 0.93894
 C3125 C 0.34086 0.57017 0.94601
 C3126 C 0.35405 0.56440 0.93539
 C3127 C 0.35224 0.56587 0.91757
 C3128 C 0.33759 0.57297 0.91054
 H3129 H 0.25362 0.59535 0.86596
 H3130 H 0.25482 0.63494 0.90384
 H3131 H 0.23008 0.64828 0.89080
 H3132 H 0.22884 0.60846 0.85270
 H3133 H 0.31617 0.58168 0.94730
 H3134 H 0.34183 0.56906 0.95976
 H3135 H 0.36229 0.56180 0.90907
 H3136 H 0.33647 0.57409 0.89679
 C3137 C 1.10833 1.25115 1.12803
 C3138 C 1.11522 1.24422 1.11313
 C3139 C 1.12968 1.25153 1.10584
 C3140 C 1.13719 1.26575 1.11339
 C3141 C 1.13034 1.27289 1.12838
 C3142 C 1.11581 1.26536 1.13561
 C3143 C 1.10744 1.22961 1.10537
 C3144 C 1.10085 1.21735 1.09898
 C3145 C 1.09308 1.20295 1.09166
 C3146 C 1.08647 1.19057 1.08554
 C3147 C 1.07866 1.17566 1.07841
 C3148 C 1.07708 1.17390 1.06070
 C3149 C 1.06986 1.15921 1.05380
 C3150 C 1.06412 1.14609 1.06455
 C3151 C 1.06563 1.14806 1.08235
 C3152 C 1.07286 1.16275 1.08922
 H3153 H 1.09716 1.24556 1.13381
 H3154 H 1.13514 1.24625 1.09431
 H3155 H 1.14832 1.27110 1.10739
 H3156 H 1.11013 1.27035 1.14712
 H3157 H 1.08149 1.18385 1.05222
 H3158 H 1.06869 1.15813 1.04006
 H3159 H 1.06155 1.13809 1.09096
 H3160 H 1.07406 1.16396 1.10295
 C3161 C 1.10823 0.75091 0.62842
 C3162 C 1.11512 0.74391 0.61355
 C3163 C 1.12968 0.75106 0.60633
 C3164 C 1.13731 0.76520 0.61391
 C3165 C 1.13047 0.77241 0.62887
 C3166 C 1.11583 0.76503 0.63604
 C3167 C 1.10727 0.72937 0.60577
 C3168 C 1.10065 0.71715 0.59934
 C3169 C 1.09291 0.70278 0.59197
 C3170 C 1.08633 0.69041 0.58580
 C3171 C 1.07855 0.67552 0.57862
 C3172 C 1.07702 0.67381 0.56090
 C3173 C 1.06976 0.65916 0.55395
 C3174 C 1.06394 0.64604 0.56466
 C3175 C 1.06546 0.64795 0.58247
 C3176 C 1.07271 0.66259 0.58938
 H3177 H 1.09697 0.74545 0.63414
 H3178 H 1.13514 0.74572 0.59482
 H3179 H 1.14853 0.77042 0.60797
 H3180 H 1.11014 0.77010 0.64752
 H3181 H 1.08149 0.68376 0.55245
 H3182 H 1.06862 0.65813 0.54021
 H3183 H 1.06135 0.63796 0.59104
 H3184 H 1.07390 0.66377 0.60311
 C3185 C 0.60852 1.25115 0.62855
 C3186 C 0.61543 1.24423 0.61365
 C3187 C 0.62991 1.25153 0.60640
 C3188 C 0.63744 1.26572 0.61400
 C3189 C 0.63058 1.27285 0.62899
 C3190 C 0.61602 1.26533 0.63617
 C3191 C 0.60764 1.22965 0.60582
 C3192 C 0.60104 1.21743 0.59937
 C3193 C 0.59328 1.20308 0.59195
 C3194 C 0.58665 1.19075 0.58574
 C3195 C 0.57879 1.17591 0.57851
 C3196 C 0.57714 1.17431 0.56078
 C3197 C 0.56981 1.15971 0.55379
 C3198 C 0.56404 1.14653 0.56445
 C3199 C 0.56565 1.14833 0.58226
 C3200 C 0.57298 1.16292 0.58922
 H3201 H 0.59732 1.24558 0.63429
 H3202 H 0.63538 1.24626 0.59487
 H3203 H 0.64859 1.27105 0.60803
 H3204 H 0.61032 1.27032 0.64768
 H3205 H 0.58156 1.18430 0.55238
 H3206 H 0.56859 1.15875 0.54005
 H3207 H 0.56156 1.13830 0.59079
 H3208 H 0.57425 1.16401 0.60296
 C3209 C 0.60786 0.75136 1.12900
 C3210 C 0.61447 0.74449 1.11394
 C3211 C 0.62863 0.75198 1.10626
 C3212 C 0.63613 0.76632 1.11358
 C3213 C 0.62954 0.77340 1.12871
 C3214 C 0.61532 0.76570 1.13635
 C3215 C 0.60668 0.72980 1.10634
 C3216 C 0.60013 0.71748 1.10003
 C3217 C 0.59246 0.70303 1.09272
 C3218 C 0.58594 0.69062 1.08657
 C3219 C 0.57823 0.67570 1.07935
 C3220 C 0.57662 0.67407 1.06162
 C3221 C 0.56942 0.65942 1.05463
 C3222 C 0.56373 0.64620 1.06530
 C3223 C 0.56532 0.64802 1.08311
 C3224 C 0.57252 0.66268 1.09007
 H3225 H 0.59692 0.74563 1.13508
 H3226 H 0.63385 0.74677 1.09458
 H3227 H 0.64696 0.77191 1.10723
 H3228 H 0.60996 0.77064 1.14805
 H3229 H 0.58097 0.68410 1.05322
 H3230 H 0.56821 0.65845 1.04089
 H3231 H 0.56130 0.63797 1.09164
 H3232 H 0.57377 0.66378 1.10380
 C3233 C 0.89243 1.25184 0.87132
 C3234 C 0.88533 1.24456 0.88596
 C3235 C 0.87069 1.25162 0.89311
 C3236 C 0.86316 1.26591 0.88567
 C3237 C 0.87018 1.27337 0.87091
 C3238 C 0.88494 1.26612 0.86385
 C3239 C 0.89309 1.22985 0.89361
 C3240 C 0.89965 1.21752 0.89994
 C3241 C 0.90735 1.20306 0.90726
 C3242 C 0.91391 1.19066 0.91344
 C3243 C 0.92166 1.17576 0.92071
 C3244 C 0.92311 1.17409 0.93845
 C3245 C 0.93033 1.15945 0.94551
 C3246 C 0.93621 1.14628 0.93489
 C3247 C 0.93480 1.14816 0.91707
 C3248 C 0.92758 1.16280 0.91004
 H3249 H 0.90377 1.24647 0.86567
 H3250 H 0.86507 1.24607 0.90445
 H3251 H 0.85186 1.27103 0.89154
 H3252 H 0.89079 1.27140 0.85255
 H3253 H 0.91860 1.18407 0.94683
 H3254 H 0.93140 1.15845 0.95926
 H3255 H 0.93897 1.13816 0.90855
 H3256 H 0.92649 1.16395 0.89630
 C3257 C 0.87069 0.75153 0.39295
 C3258 C 0.88524 0.74434 0.38572
 C3259 C 0.89220 0.75142 0.37091
 C3260 C 0.88466 0.76563 0.36334
 C3261 C 0.87001 0.77301 0.37049
 C3262 C 0.86313 0.76575 0.38541
 C3263 C 0.89296 0.72965 0.39344
 C3264 C 0.89940 0.71731 0.39985
 C3265 C 0.90692 0.70280 0.40727
 C3266 C 0.91332 0.69035 0.41349
 C3267 C 0.92094 0.67538 0.42076
 C3268 C 0.92685 0.66244 0.41006
 C3269 C 0.93410 0.64779 0.41705
 C3270 C 0.93554 0.64590 0.43486
 C3271 C 0.92960 0.65901 0.44551
 C3272 C 0.92235 0.67365 0.43849
 H3273 H 0.86519 0.74614 0.40441
 H3274 H 0.90346 0.74594 0.36519
 H3275 H 0.89039 0.77075 0.35190
 H3276 H 0.85191 0.77097 0.39136
 H3277 H 0.92575 0.66361 0.39632
 H3278 H 0.93828 0.63781 0.40851
 H3279 H 0.93068 0.65798 0.45926
 H3280 H 0.91783 0.68361 0.44689
 C3281 C 0.39141 1.25191 0.37146
 C3282 C 0.38444 1.24487 0.38628
 C3283 C 0.36987 1.25207 0.39346
 C3284 C 0.36232 1.26628 0.38588
 C3285 C 0.36924 1.27352 0.37096
 C3286 C 0.38390 1.26611 0.36385
 C3287 C 0.39222 1.23024 0.39404
 C3288 C 0.39881 1.21796 0.40043
 C3289 C 0.40655 1.20352 0.40775
 C3290 C 0.41314 1.19111 0.41388
 C3291 C 0.42094 1.17618 0.42103
 C3292 C 0.42256 1.17444 0.43875
 C3293 C 0.42979 1.15975 0.44569
 C3294 C 0.43552 1.14661 0.43497
 C3295 C 0.43397 1.14855 0.41716
 C3296 C 0.42672 1.16323 0.41026
 H3297 H 0.40268 1.24642 0.36577
 H3298 H 0.36435 1.24671 0.40493
 H3299 H 0.35110 1.27153 0.39179
 H3300 H 0.38964 1.27119 0.35240
 H3301 H 0.41816 1.18441 0.44720
 H3302 H 0.43099 1.15870 0.45942
 H3303 H 0.43803 1.13856 0.40859
 H3304 H 0.42549 1.16442 0.39653
 C3305 C 0.39130 0.75203 0.87300
 C3306 C 0.38423 0.74520 0.88787
 C3307 C 0.36941 0.75228 0.89466
 C3308 C 0.36169 0.76614 0.88660
 C3309 C 0.36872 0.77313 0.87162
 C3310 C 0.38363 0.76587 0.86493
 C3311 C 0.39208 0.73079 0.89597
 C3312 C 0.39874 0.71862 0.90248
 C3313 C 0.40656 0.70422 0.90979
 C3314 C 0.41319 0.69178 0.91578
 C3315 C 0.42099 0.67673 0.92268
 C3316 C 0.42264 0.67469 0.94035
 C3317 C 0.42979 0.65983 0.94701
 C3318 C 0.43538 0.64682 0.93605
 C3319 C 0.43381 0.64908 0.91829
 C3320 C 0.42666 0.66393 0.91167
 H3321 H 0.40274 0.74660 0.86760
 H3322 H 0.36380 0.74708 0.90616
 H3323 H 0.35031 0.77138 0.89221
 H3324 H 0.38936 0.77073 0.85337
 H3325 H 0.41832 0.68454 0.94899
 H3326 H 0.43101 0.65854 0.96073
 H3327 H 0.43777 0.63921 0.90953
 H3328 H 0.42539 0.66537 0.89796
 C3329 C 1.12981 0.74848 0.89310
 C3330 C 1.11509 0.75549 0.88605
 C3331 C 1.10799 0.74826 0.87140
 C3332 C 1.11554 0.73408 0.86382
 C3333 C 1.13035 0.72687 0.87081
 C3334 C 1.13740 0.73429 0.88556
 C3335 C 1.10729 0.77010 0.89379
 C3336 C 1.10073 0.78238 0.90019
 C3337 C 1.09306 0.79681 0.90758
 C3338 C 1.08654 0.80920 0.91379
 C3339 C 1.07885 0.82412 0.92105
 C3340 C 1.07303 0.83713 0.91037
 C3341 C 1.06586 0.85179 0.91737
 C3342 C 1.06441 0.85364 0.93519
 C3343 C 1.07021 0.84045 0.94583
 C3344 C 1.07738 0.82578 0.93879
 H3345 H 1.13544 0.75399 0.90444
 H3346 H 1.09659 0.75360 0.86581
 H3347 H 1.10968 0.72883 0.85252
 H3348 H 1.14876 0.72921 0.89135
 H3349 H 1.07416 0.83600 0.89662
 H3350 H 1.06176 0.86182 0.90885
 H3351 H 1.06910 0.84143 0.95958
 H3352 H 1.08182 0.81577 0.94717
 C3353 C 1.12923 0.24874 0.39237
 C3354 C 1.11451 0.25566 0.38525
 C3355 C 1.10748 0.24840 0.37059
 C3356 C 1.11511 0.23423 0.36308
 C3357 C 1.12991 0.22708 0.37014
 C3358 C 1.13689 0.23456 0.38489
 C3359 C 1.10664 0.27025 0.39297
 C3360 C 1.10011 0.28250 0.39943
 C3361 C 1.09257 0.29690 0.40696
 C3362 C 1.08627 0.30930 0.41338
 C3363 C 1.07898 0.32424 0.42098
 C3364 C 1.06137 0.32592 0.42236
 C3365 C 1.05434 0.34058 0.42954
 C3366 C 1.06488 0.35375 0.43545
 C3367 C 1.08258 0.35189 0.43404
 C3368 C 1.08956 0.33723 0.42687
 H3369 H 1.13479 0.25429 0.40372
 H3370 H 1.09609 0.25369 0.36496
 H3371 H 1.10931 0.22894 0.35176
 H3372 H 1.14825 0.22954 0.39075
 H3373 H 1.05307 0.31591 0.41785
 H3374 H 1.04068 0.34158 0.43059
 H3375 H 1.09102 0.36191 0.43820
 H3376 H 1.10321 0.33609 0.42579
 C3377 C 0.62868 0.74829 0.39363
 C3378 C 0.61417 0.75547 0.38631
 C3379 C 0.60735 0.74845 0.37143
 C3380 C 0.61498 0.73428 0.36388
 C3381 C 0.62959 0.72690 0.37113
 C3382 C 0.63634 0.73412 0.38612
 C3383 C 0.60633 0.77010 0.39401
 C3384 C 0.59981 0.78240 0.40040
 C3385 C 0.59229 0.79689 0.40781
 C3386 C 0.58600 0.80938 0.41408
 C3387 C 0.57873 0.82443 0.42150
 C3388 C 0.56111 0.82612 0.42291
 C3389 C 0.55410 0.84089 0.42990
 C3390 C 0.56464 0.85415 0.43557
 C3391 C 0.58234 0.85229 0.43412
 C3392 C 0.58931 0.83753 0.42713
 H3393 H 0.63408 0.75365 0.40514
 H3394 H 0.59613 0.75392 0.36563
 H3395 H 0.60936 0.72921 0.35238
 H3396 H 0.64753 0.72890 0.39213
 H3397 H 0.55280 0.81605 0.41860
 H3398 H 0.54044 0.84190 0.43100
 H3399 H 0.59078 0.86238 0.43811
 H3400 H 0.60296 0.83638 0.42603
 C3401 C 0.62897 0.24848 0.89255
 C3402 C 0.61420 0.25538 0.88549
 C3403 C 0.60707 0.24800 0.87093
 C3404 C 0.61465 0.23378 0.86345
 C3405 C 0.62953 0.22668 0.87043
 C3406 C 0.63659 0.23425 0.88510
 C3407 C 0.60639 0.27006 0.89314
 C3408 C 0.59989 0.28239 0.89951
 C3409 C 0.59238 0.29689 0.90695
 C3410 C 0.58611 0.30936 0.91327
 C3411 C 0.57885 0.32438 0.92080
 C3412 C 0.56123 0.32609 0.92223
 C3413 C 0.55425 0.34080 0.92940
 C3414 C 0.56482 0.35397 0.93524
 C3415 C 0.58251 0.35208 0.93376
 C3416 C 0.58945 0.33739 0.92660
 H3417 H 0.63462 0.25410 0.90382
 H3418 H 0.59564 0.25325 0.86534
 H3419 H 0.60877 0.22841 0.85222
 H3420 H 0.64800 0.22927 0.89089
 H3421 H 0.55290 0.31609 0.91780
 H3422 H 0.54060 0.34182 0.93050
 H3423 H 0.59098 0.36210 0.93787
 H3424 H 0.60310 0.33623 0.92549
 C3425 C 0.87087 0.74857 1.10707
 C3426 C 0.88541 0.75563 1.11440
 C3427 C 0.89232 0.74843 1.12916
 C3428 C 0.88472 0.73420 1.13660
 C3429 C 0.87007 0.72694 1.12936
 C3430 C 0.86324 0.73434 1.11448
 C3431 C 0.89324 0.77027 1.10676
 C3432 C 0.89975 0.78255 1.10034
 C3433 C 0.90729 0.79695 1.09282
 C3434 C 0.91362 0.80933 1.08641
 C3435 C 0.92098 0.82422 1.07879
 C3436 C 0.93860 0.82571 1.07729
 C3437 C 0.94572 0.84033 1.07011
 C3438 C 0.93526 0.85363 1.06432
 C3439 C 0.91755 0.85195 1.06581
 C3440 C 0.91048 0.83733 1.07300
 H3441 H 0.86542 0.75407 1.09563
 H3442 H 0.90358 0.75382 1.13494
 H3443 H 0.89041 0.72898 1.14801
 H3444 H 0.85203 0.72920 1.10846
 H3445 H 0.94683 0.81559 1.08171
 H3446 H 0.95937 0.84119 1.06897
 H3447 H 0.90917 0.86206 1.06172
 H3448 H 0.89682 0.83632 1.07415
 C3449 C 0.87086 0.24882 0.60719
 C3450 C 0.88546 0.25580 0.61447
 C3451 C 0.89238 0.24854 0.62921
 C3452 C 0.88476 0.23433 0.63664
 C3453 C 0.87005 0.22714 0.62943
 C3454 C 0.86320 0.23459 0.61460
 C3455 C 0.89333 0.27043 0.60685
 C3456 C 0.89989 0.28271 0.60048
 C3457 C 0.90748 0.29714 0.59303
 C3458 C 0.91386 0.30953 0.58668
 C3459 C 0.92127 0.32443 0.57913
 C3460 C 0.93890 0.32596 0.57780
 C3461 C 0.94605 0.34057 0.57062
 C3462 C 0.93562 0.35381 0.56466
 C3463 C 0.91790 0.35212 0.56604
 C3464 C 0.91080 0.33752 0.57322
 H3465 H 0.86539 0.25436 0.59578
 H3466 H 0.90369 0.25387 0.63496
 H3467 H 0.89047 0.22905 0.64802
 H3468 H 0.85194 0.22953 0.60862
 H3469 H 0.94711 0.31588 0.58233
 H3470 H 0.95971 0.34145 0.56959
 H3471 H 0.90954 0.36221 0.56184
 H3472 H 0.89713 0.33649 0.57425
 C3473 C 0.37083 0.74827 0.60598
 C3474 C 0.38518 0.75562 0.61340
 C3475 C 0.39194 0.74874 0.62839
 C3476 C 0.38442 0.73451 0.63593
 C3477 C 0.37000 0.72693 0.62856
 C3478 C 0.36329 0.73403 0.61348
 C3479 C 0.39299 0.77023 0.60565
 C3480 C 0.39957 0.78248 0.59924
 C3481 C 0.40729 0.79688 0.59185
 C3482 C 0.41385 0.80927 0.58569
 C3483 C 0.42161 0.82420 0.57855
 C3484 C 0.42728 0.83715 0.58935
 C3485 C 0.43449 0.85186 0.58249
 C3486 C 0.43614 0.85380 0.56470
 C3487 C 0.43050 0.84066 0.55394
 C3488 C 0.42329 0.82595 0.56084
 H3489 H 0.36548 0.75352 0.59438
 H3490 H 0.40304 0.75436 0.63427
 H3491 H 0.38999 0.72954 0.64751
 H3492 H 0.35224 0.72865 0.60738
 H3493 H 0.42598 0.83595 0.60308
 H3494 H 0.43846 0.86185 0.59110
 H3495 H 0.43175 0.84173 0.54021
 H3496 H 0.41896 0.81598 0.55236
 C3497 C 0.39230 0.24854 1.12929
 C3498 C 0.38543 0.25576 1.11451
 C3499 C 0.37084 0.24877 1.10722
 C3500 C 0.36314 0.23459 1.11465
 C3501 C 0.36994 0.22717 1.12954
 C3502 C 0.38464 0.23437 1.13676
 C3503 C 0.39332 0.27039 1.10689
 C3504 C 0.39991 0.28268 1.10056
 C3505 C 0.40754 0.29713 1.09319
 C3506 C 0.41394 0.30955 1.08691
 C3507 C 0.42137 0.32449 1.07944
 C3508 C 0.41091 0.33761 1.07357
 C3509 C 0.41803 0.35221 1.06641
 C3510 C 0.43574 0.35388 1.06500
 C3511 C 0.44616 0.34062 1.07093
 C3512 C 0.43900 0.32601 1.07810
 H3513 H 0.40360 0.25388 1.13505
 H3514 H 0.36540 0.25428 1.09577
 H3515 H 0.35188 0.22951 1.10867
 H3516 H 0.39031 0.22913 1.14817
 H3517 H 0.39724 0.33660 1.07462
 H3518 H 0.40968 0.36232 1.06224
 H3519 H 0.45983 0.34148 1.06988
 H3520 H 0.44721 0.31591 1.08260
 C3521 C 1.12902 1.10759 0.74731
 C3522 C 1.11458 1.11484 0.75465
 C3523 C 1.10777 1.12972 0.74772
 C3524 C 1.11536 1.13735 0.73350
 C3525 C 1.12997 1.13020 0.72591
 C3526 C 1.13665 1.11515 0.73310
 C3527 C 1.10682 1.10704 0.76935
 C3528 C 1.10042 1.10052 0.78171
 C3529 C 1.09299 1.09293 0.79625
 C3530 C 1.08671 1.08656 0.80875
 C3531 C 1.07925 1.07913 0.82379
 C3532 C 1.07349 1.08961 0.83700
 C3533 C 1.06640 1.08250 0.85172
 C3534 C 1.06496 1.06475 0.85343
 C3535 C 1.07078 1.05431 0.84007
 C3536 C 1.07786 1.06147 0.82535
 H3537 H 1.13441 1.09606 0.75259
 H3538 H 1.09659 1.13547 0.75332
 H3539 H 1.10966 1.14884 0.72859
 H3540 H 1.14779 1.10907 0.72789
 H3541 H 1.07457 1.10330 0.83598
 H3542 H 1.06231 1.09087 0.86188
 H3543 H 1.06970 1.04062 0.84096
 H3544 H 1.08227 1.05323 0.81519
 C3545 C 1.12941 0.60810 0.24787
 C3546 C 1.11461 0.61500 0.25481
 C3547 C 1.10741 0.62948 0.24744
 C3548 C 1.11494 0.63704 0.23316
 C3549 C 1.12989 0.63022 0.22595
 C3550 C 1.13699 0.61560 0.23361
 C3551 C 1.10687 0.60724 0.26953
 C3552 C 1.10048 0.60074 0.28190
 C3553 C 1.09308 0.59317 0.29646
 C3554 C 1.08680 0.58681 0.30896
 C3555 C 1.07935 0.57939 0.32400
 C3556 C 1.07348 0.58987 0.33716
 C3557 C 1.06636 0.58274 0.35185
 C3558 C 1.06500 0.56500 0.35359
 C3559 C 1.07094 0.55455 0.34029
 C3560 C 1.07806 0.56172 0.32559
 H3561 H 1.13511 0.59688 0.25350
 H3562 H 1.09594 0.63495 0.25273
 H3563 H 1.10892 0.64821 0.22790
 H3564 H 1.14842 0.60979 0.22871
 H3565 H 1.07448 0.60356 0.33610
 H3566 H 1.06216 0.59112 0.36197
 H3567 H 1.06993 0.54086 0.34120
 H3568 H 1.08256 0.55348 0.31547
 C3569 C 0.62956 1.10773 0.24774
 C3570 C 0.61478 1.11471 0.25466
 C3571 C 0.60762 1.12917 0.24722
 C3572 C 0.61516 1.13663 0.23290
 C3573 C 0.63009 1.12974 0.22572
 C3574 C 0.63716 1.11514 0.23343
 C3575 C 0.60699 1.10706 0.26941
 C3576 C 0.60048 1.10067 0.28177
 C3577 C 0.59287 1.09323 0.29628
 C3578 C 0.58641 1.08695 0.30872
 C3579 C 0.57875 1.07955 0.32367
 C3580 C 0.57292 1.09004 0.33685
 C3581 C 0.56570 1.08291 0.35149
 C3582 C 0.56420 1.06517 0.35316
 C3583 C 0.57004 1.05473 0.33981
 C3584 C 0.57726 1.06189 0.32516
 H3585 H 0.63523 1.09652 0.25342
 H3586 H 0.59617 1.13470 0.25248
 H3587 H 0.60915 1.14779 0.22759
 H3588 H 0.64856 1.10927 0.22854
 H3589 H 0.57407 1.10372 0.33586
 H3590 H 0.56158 1.09128 0.36165
 H3591 H 0.56891 1.04105 0.34066
 H3592 H 0.58170 1.05366 0.31502
 C3593 C 0.62852 0.60679 0.74738
 C3594 C 0.61453 0.61452 0.75515
 C3595 C 0.60819 0.62979 0.74862
 C3596 C 0.61577 0.63732 0.73436
 C3597 C 0.62985 0.62965 0.72639
 C3598 C 0.63613 0.61428 0.73312
 C3599 C 0.60673 0.60681 0.76984
 C3600 C 0.60021 0.60040 0.78219
 C3601 C 0.59261 0.59299 0.79670
 C3602 C 0.58616 0.58675 0.80917
 C3603 C 0.57853 0.57946 0.82417
 C3604 C 0.57263 0.59005 0.83723
 C3605 C 0.56545 0.58303 0.85195
 C3606 C 0.56407 0.56530 0.85379
 C3607 C 0.56999 0.55476 0.84056
 C3608 C 0.57717 0.56181 0.82584
 H3609 H 0.63354 0.59496 0.75234
 H3610 H 0.59738 0.63590 0.75455
 H3611 H 0.61058 0.64915 0.72968
 H3612 H 0.64686 0.60792 0.72739
 H3613 H 0.57369 0.60373 0.83610
 H3614 H 0.56127 0.59147 0.86202
 H3615 H 0.56895 0.54108 0.84155
 H3616 H 0.58169 0.55351 0.81580
 C3617 C 0.89234 0.86998 0.74818
 C3618 C 0.88592 0.88516 0.75483
 C3619 C 0.87183 0.89283 0.74720
 C3620 C 0.86420 0.88538 0.73295
 C3621 C 0.87054 0.87010 0.72610
 C3622 C 0.88473 0.86249 0.73393
 C3623 C 0.89371 0.89286 0.76953
 C3624 C 0.90015 0.89934 0.78186
 C3625 C 0.90762 0.90689 0.79636
 C3626 C 0.91394 0.91325 0.80882
 C3627 C 0.92144 0.92068 0.82381
 C3628 C 0.92285 0.93835 0.82529
 C3629 C 0.92999 0.94552 0.83995
 C3630 C 0.93583 0.93509 0.85332
 C3631 C 0.93436 0.91735 0.85168
 C3632 C 0.92722 0.91021 0.83702
 H3633 H 0.90324 0.86392 0.75402
 H3634 H 0.86675 0.90459 0.75225
 H3635 H 0.85338 0.89171 0.72733
 H3636 H 0.88998 0.85073 0.72915
 H3637 H 0.91841 0.94657 0.81512
 H3638 H 0.93108 0.95921 0.84079
 H3639 H 0.93847 0.90899 0.86186
 H3640 H 0.92612 0.89653 0.83604
 C3641 C 0.89245 0.37001 0.24775
 C3642 C 0.88575 0.38495 0.25466
 C3643 C 0.87134 0.39228 0.24734
 C3644 C 0.86363 0.38475 0.23317
 C3645 C 0.87021 0.36966 0.22600
 C3646 C 0.88479 0.36242 0.23356
 C3647 C 0.89358 0.39271 0.26932
 C3648 C 0.90005 0.39922 0.28164
 C3649 C 0.90755 0.40680 0.29612
 C3650 C 0.91392 0.41317 0.30857
 C3651 C 0.92148 0.42058 0.32355
 C3652 C 0.92284 0.43825 0.32510
 C3653 C 0.93004 0.44540 0.33976
 C3654 C 0.93600 0.43494 0.35306
 C3655 C 0.93460 0.41720 0.35134
 C3656 C 0.92740 0.41009 0.33670
 H3657 H 0.90361 0.36421 0.25333
 H3658 H 0.86602 0.40385 0.25260
 H3659 H 0.85251 0.39089 0.22797
 H3660 H 0.89041 0.35089 0.22867
 H3661 H 0.91831 0.44649 0.31500
 H3662 H 0.93108 0.45908 0.34064
 H3663 H 0.93880 0.40881 0.36147
 H3664 H 0.92634 0.39640 0.33568
 C3665 C 0.39250 0.87021 0.24779
 C3666 C 0.38569 0.88510 0.25469
 C3667 C 0.37126 0.89235 0.24733
 C3668 C 0.36363 0.88476 0.23314
 C3669 C 0.37031 0.86971 0.22599
 C3670 C 0.38491 0.86256 0.23359
 C3671 C 0.39343 0.89291 0.26937
 C3672 C 0.39982 0.89946 0.28171
 C3673 C 0.40723 0.90706 0.29623
 C3674 C 0.41351 0.91344 0.30872
 C3675 C 0.42099 0.92085 0.32374
 C3676 C 0.42233 0.93851 0.32532
 C3677 C 0.42949 0.94565 0.34001
 C3678 C 0.43542 0.93517 0.35330
 C3679 C 0.43401 0.91743 0.35158
 C3680 C 0.42686 0.91034 0.33690
 H3681 H 0.40368 0.86447 0.25341
 H3682 H 0.36586 0.90388 0.25258
 H3683 H 0.35249 0.89085 0.22792
 H3684 H 0.39062 0.85106 0.22871
 H3685 H 0.41783 0.94677 0.31521
 H3686 H 0.43052 0.95933 0.34090
 H3687 H 0.43818 0.90904 0.36170
 H3688 H 0.42582 0.89666 0.33585
 C3689 C 0.39461 0.37068 0.74687
 C3690 C 0.38694 0.38447 0.75508
 C3691 C 0.37143 0.39069 0.74911
 C3692 C 0.36359 0.38319 0.73500
 C3693 C 0.37117 0.36931 0.72660
 C3694 C 0.38680 0.36315 0.73274
 C3695 C 0.39489 0.39220 0.76968
 C3696 C 0.40136 0.39875 0.78198
 C3697 C 0.40872 0.40647 0.79645
 C3698 C 0.41484 0.41307 0.80890
 C3699 C 0.42196 0.42090 0.82387
 C3700 C 0.41128 0.42665 0.83692
 C3701 C 0.41814 0.43400 0.85162
 C3702 C 0.43581 0.43570 0.85347
 C3703 C 0.44644 0.42997 0.84023
 C3704 C 0.43955 0.42262 0.82553
 H3705 H 0.40664 0.36575 0.75138
 H3706 H 0.36535 0.40134 0.75539
 H3707 H 0.35155 0.38828 0.73080
 H3708 H 0.39311 0.35257 0.72663
 H3709 H 0.39765 0.42533 0.83580
 H3710 H 0.40963 0.43804 0.86169
 H3711 H 0.46008 0.43126 0.84122
 H3712 H 0.44794 0.41824 0.81550
 C3713 C 1.12850 0.89252 1.25296
 C3714 C 1.11447 0.88485 1.24525
 C3715 C 1.10801 0.86969 1.25194
 C3716 C 1.11553 0.86223 1.26629
 C3717 C 1.12966 0.86984 1.27418
 C3718 C 1.13605 0.88510 1.26731
 C3719 C 1.10673 0.89252 1.23047
 C3720 C 1.10029 0.89896 1.21808
 C3721 C 1.09279 0.90647 1.20354
 C3722 C 1.08641 0.91280 1.19107
 C3723 C 1.07882 0.92023 1.17608
 C3724 C 1.07298 0.90976 1.16291
 C3725 C 1.06575 0.91689 1.14827
 C3726 C 1.06426 0.93463 1.14659
 C3727 C 1.07014 0.94506 1.15992
 C3728 C 1.07737 0.93789 1.17457
 H3729 H 1.13361 0.90426 1.24789
 H3730 H 1.09715 0.86362 1.24606
 H3731 H 1.11024 0.85050 1.27108
 H3732 H 1.14682 0.89143 1.27297
 H3733 H 1.07410 0.89607 1.16391
 H3734 H 1.06161 0.90852 1.13812
 H3735 H 1.06902 0.95875 1.15907
 H3736 H 1.08183 0.94612 1.18470
 C3737 C 1.10739 0.36914 0.75206
 C3738 C 1.11376 0.38430 0.74529
 C3739 C 1.12788 0.39199 0.75283
 C3740 C 1.13559 0.38459 0.76708
 C3741 C 1.12930 0.36934 0.77405
 C3742 C 1.11508 0.36170 0.76633
 C3743 C 1.10589 0.39197 0.73059
 C3744 C 1.09941 0.39846 0.71826
 C3745 C 1.09198 0.40612 0.70376
 C3746 C 1.08577 0.41266 0.69132
 C3747 C 1.07853 0.42045 0.67636
 C3748 C 1.08912 0.42632 0.66329
 C3749 C 1.08216 0.43366 0.64862
 C3750 C 1.06447 0.43525 0.64682
 C3751 C 1.05392 0.42938 0.66007
 C3752 C 1.06092 0.42204 0.67474
 H3753 H 1.09647 0.36306 0.74631
 H3754 H 1.13293 0.40373 0.74769
 H3755 H 1.14643 0.39093 0.77261
 H3756 H 1.10986 0.34997 0.77119
 H3757 H 1.10277 0.42510 0.66437
 H3758 H 1.09061 0.43780 0.63854
 H3759 H 1.04027 0.43058 0.65913
 H3760 H 1.05260 0.41756 0.68479
 C3761 C 0.62892 0.89183 0.75175
 C3762 C 0.61389 0.88508 0.74517
 C3763 C 0.60674 0.87063 0.75269
 C3764 C 0.61455 0.86300 0.76677
 C3765 C 0.62966 0.86972 0.77357
 C3766 C 0.63676 0.88423 0.76582
 C3767 C 0.60588 0.89293 0.73066
 C3768 C 0.59932 0.89954 0.71844
 C3769 C 0.59182 0.90727 0.70403
 C3770 C 0.58560 0.91383 0.69161
 C3771 C 0.57842 0.92155 0.67659
 C3772 C 0.56082 0.92306 0.67485
 C3773 C 0.55389 0.93022 0.66006
 C3774 C 0.56452 0.93598 0.64682
 C3775 C 0.58220 0.93449 0.64875
 C3776 C 0.58908 0.92733 0.66354
 H3777 H 0.63460 0.90298 0.74600
 H3778 H 0.59511 0.86528 0.74767
 H3779 H 0.60864 0.85190 0.77231
 H3780 H 0.64839 0.88976 0.77053
 H3781 H 0.55245 0.91865 0.68489
 H3782 H 0.54025 0.93136 0.65900
 H3783 H 0.59070 0.93855 0.63869
 H3784 H 0.60272 0.92616 0.66473
 C3785 C 0.62877 0.39144 1.25230
 C3786 C 0.61414 0.38427 1.24531
 C3787 C 0.60719 0.36966 1.25264
 C3788 C 0.61482 0.36222 1.26693
 C3789 C 0.62962 0.36930 1.27419
 C3790 C 0.63646 0.38407 1.26658
 C3791 C 0.60631 0.39193 1.23058
 C3792 C 0.59987 0.39843 1.21824
 C3793 C 0.59247 0.40611 1.20374
 C3794 C 0.58626 0.41268 1.19132
 C3795 C 0.57899 0.42049 1.17639
 C3796 C 0.56137 0.42205 1.17483
 C3797 C 0.55432 0.42940 1.16019
 C3798 C 0.56482 0.43529 1.14692
 C3799 C 0.58252 0.43376 1.14867
 C3800 C 0.58954 0.42641 1.16331
 H3801 H 0.63427 0.40277 1.24671
 H3802 H 0.59584 0.36400 1.24731
 H3803 H 0.60900 0.35095 1.27217
 H3804 H 0.64774 0.39008 1.27152
 H3805 H 0.55309 0.41754 1.18490
 H3806 H 0.54067 0.43056 1.15929
 H3807 H 0.59093 0.43793 1.13858
 H3808 H 0.60319 0.42523 1.16436
 C3809 C 0.87142 1.10689 1.25267
 C3810 C 0.88550 1.11450 1.24499
 C3811 C 0.89198 1.12966 1.25159
 C3812 C 0.88443 1.13719 1.26586
 C3813 C 0.87027 1.12963 1.27375
 C3814 C 0.86385 1.11437 1.26694
 C3815 C 0.89326 1.10677 1.23031
 C3816 C 0.89972 1.10030 1.21799
 C3817 C 0.90723 1.09279 1.20350
 C3818 C 0.91359 1.08647 1.19105
 C3819 C 0.92112 1.07911 1.17605
 C3820 C 0.92687 1.08964 1.16288
 C3821 C 0.93398 1.08256 1.14818
 C3822 C 0.93545 1.06482 1.14647
 C3823 C 0.92965 1.05433 1.15980
 C3824 C 0.92254 1.06145 1.17451
 H3825 H 0.86630 1.09514 1.24765
 H3826 H 0.90287 1.13569 1.24571
 H3827 H 0.88973 1.14893 1.27060
 H3828 H 0.85304 1.10809 1.27261
 H3829 H 0.92576 1.10332 1.16392
 H3830 H 0.93807 1.09096 1.13802
 H3831 H 0.93076 1.04065 1.15891
 H3832 H 0.91813 1.05319 1.18466
 C3833 C 0.87017 0.60767 0.75191
 C3834 C 0.88548 0.61399 0.74554
 C3835 C 0.89319 0.62791 0.75344
 C3836 C 0.88566 0.63547 0.76770
 C3837 C 0.87025 0.62921 0.77428
 C3838 C 0.86259 0.61521 0.76617
 C3839 C 0.89326 0.60624 0.73085
 C3840 C 0.89977 0.59980 0.71852
 C3841 C 0.90733 0.59235 0.70400
 C3842 C 0.91373 0.58610 0.69151
 C3843 C 0.92126 0.57882 0.67645
 C3844 C 0.92696 0.58942 0.66331
 C3845 C 0.93396 0.58242 0.64850
 C3846 C 0.93536 0.56468 0.64664
 C3847 C 0.92966 0.55413 0.65997
 C3848 C 0.92266 0.56117 0.67478
 H3849 H 0.86406 0.59692 0.74585
 H3850 H 0.90505 0.63292 0.74860
 H3851 H 0.89201 0.64615 0.77356
 H3852 H 0.85072 0.61005 0.77071
 H3853 H 0.92589 0.60309 0.66444
 H3854 H 0.93800 0.59088 0.63838
 H3855 H 0.93074 0.54045 0.65899
 H3856 H 0.91831 0.55285 0.68491
 C3857 C 0.39202 1.13001 0.75167
 C3858 C 0.38556 1.11482 0.74510
 C3859 C 0.37154 1.10718 0.75286
 C3860 C 0.36399 1.11467 0.76715
 C3861 C 0.37037 1.12996 0.77391
 C3862 C 0.38450 1.13754 0.76596
 C3863 C 0.39327 1.10710 0.73037
 C3864 C 0.39968 1.10063 0.71801
 C3865 C 0.40714 1.09311 0.70348
 C3866 C 0.41348 1.08679 0.69100
 C3867 C 0.42101 1.07943 0.67600
 C3868 C 0.42240 1.06177 0.67442
 C3869 C 0.42956 1.05466 0.65972
 C3870 C 0.43543 1.06516 0.64642
 C3871 C 0.43399 1.08289 0.64816
 C3872 C 0.42684 1.08996 0.66286
 H3873 H 0.40287 1.13606 0.74574
 H3874 H 0.36642 1.09541 0.74788
 H3875 H 0.35322 1.10836 0.77287
 H3876 H 0.38978 1.14931 0.77067
 H3877 H 0.41793 1.05350 0.68453
 H3878 H 0.43063 1.04098 0.65881
 H3879 H 0.43813 1.09130 0.63804
 H3880 H 0.42576 1.10364 0.66392
 C3881 C 0.36988 0.60892 1.25169
 C3882 C 0.38542 0.61493 1.24558
 C3883 C 0.39329 0.62867 1.25364
 C3884 C 0.38567 0.63637 1.26779
 C3885 C 0.37003 0.63042 1.27408
 C3886 C 0.36223 0.61659 1.26582
 C3887 C 0.39321 0.60706 1.23096
 C3888 C 0.39965 0.60049 1.21866
 C3889 C 0.40712 0.59289 1.20418
 C3890 C 0.41343 0.58651 1.19171
 C3891 C 0.42090 0.57910 1.17670
 C3892 C 0.42669 0.58960 1.16350
 C3893 C 0.43378 0.58249 1.14880
 C3894 C 0.43519 0.56474 1.14709
 C3895 C 0.42935 0.55429 1.16043
 C3896 C 0.42226 0.56144 1.17514
 H3897 H 0.36364 0.59831 1.24551
 H3898 H 0.40533 0.63343 1.24901
 H3899 H 0.39214 0.64690 1.27379
 H3900 H 0.35017 0.61168 1.27014
 H3901 H 0.42564 0.60328 1.16454
 H3902 H 0.43790 0.59087 1.13864
 H3903 H 0.43040 0.54060 1.15954
 H3904 H 0.41782 0.55320 1.18529
 C3905 C 1.13008 1.25138 0.89339
 C3906 C 1.11537 1.24442 0.88632
 C3907 C 1.10817 1.25185 0.87182
 C3908 C 1.11561 1.26619 0.86439
 C3909 C 1.13048 1.27341 0.87135
 C3910 C 1.13758 1.26572 0.88601
 C3911 C 1.10768 1.22964 0.89392
 C3912 C 1.10120 1.21726 0.90023
 C3913 C 1.09360 1.20273 0.90755
 C3914 C 1.08712 1.19028 0.91373
 C3915 C 1.07942 1.17535 0.92101
 C3916 C 1.07354 1.16238 0.91034
 C3917 C 1.06626 1.14777 0.91736
 C3918 C 1.06476 1.14593 0.93518
 C3919 C 1.07065 1.15908 0.94580
 C3920 C 1.07792 1.17369 0.93875
 H3921 H 1.13578 1.24573 0.90463
 H3922 H 1.09677 1.24656 0.86623
 H3923 H 1.10957 1.27147 0.85320
 H3924 H 1.14893 1.27065 0.89193
 H3925 H 1.07468 1.16349 0.89660
 H3926 H 1.06210 1.13777 0.90886
 H3927 H 1.06951 1.15811 0.95955
 H3928 H 1.08241 1.18367 0.94713
 C3929 C 1.10762 0.75186 0.37133
 C3930 C 1.11480 0.74436 0.38581
 C3931 C 1.12958 0.75118 0.39283
 C3932 C 1.13716 0.76547 0.38547
 C3933 C 1.13006 0.77326 0.37087
 C3934 C 1.11514 0.76616 0.36391
 C3935 C 1.10701 0.72967 0.39346
 C3936 C 1.10052 0.71735 0.39987
 C3937 C 1.09297 0.70288 0.40733
 C3938 C 1.08656 0.69044 0.41358
 C3939 C 1.07895 0.67548 0.42087
 C3940 C 1.07750 0.67377 0.43860
 C3941 C 1.07031 0.65909 0.44563
 C3942 C 1.06448 0.64594 0.43498
 C3943 C 1.06595 0.64783 0.41717
 C3944 C 1.07313 0.66249 0.41018
 H3945 H 1.09616 0.74666 0.36576
 H3946 H 1.13527 0.74544 0.40404
 H3947 H 1.14857 0.77027 0.39137
 H3948 H 1.10912 0.77152 0.35274
 H3949 H 1.08195 0.68375 0.44700
 H3950 H 1.06921 0.65808 0.45938
 H3951 H 1.06184 0.63783 0.40864
 H3952 H 1.07426 0.66365 0.39643
 C3953 C 0.60794 1.25198 0.37096
 C3954 C 0.61499 1.24470 0.38561
 C3955 C 0.62964 1.25170 0.39275
 C3956 C 0.63723 1.26594 0.38529
 C3957 C 0.63028 1.27350 0.37049
 C3958 C 0.61548 1.26622 0.36345
 C3959 C 0.60719 1.23002 0.39331
 C3960 C 0.60065 1.21772 0.39970
 C3961 C 0.59301 1.20326 0.40710
 C3962 C 0.58651 1.19085 0.41333
 C3963 C 0.57881 1.17593 0.42062
 C3964 C 0.57732 1.17425 0.43835
 C3965 C 0.57008 1.15962 0.44540
 C3966 C 0.56421 1.14647 0.43478
 C3967 C 0.56569 1.14832 0.41696
 C3968 C 0.57294 1.16295 0.40995
 H3969 H 0.59659 1.24665 0.36531
 H3970 H 0.63522 1.24615 0.40410
 H3971 H 0.64854 1.27090 0.39127
 H3972 H 0.60957 1.27141 0.35214
 H3973 H 0.58181 1.18423 0.44674
 H3974 H 0.56897 1.15863 0.45915
 H3975 H 0.56155 1.13832 0.40845
 H3976 H 0.57409 1.16408 0.39620
 C3977 C 0.62964 0.75100 0.89295
 C3978 C 0.61470 0.74432 0.88608
 C3979 C 0.60743 0.75186 0.87165
 C3980 C 0.61504 0.76605 0.86412
 C3981 C 0.63009 0.77292 0.87091
 C3982 C 0.63728 0.76519 0.88544
 C3983 C 0.60685 0.72970 0.89380
 C3984 C 0.60028 0.71743 0.90023
 C3985 C 0.59261 0.70303 0.90768
 C3986 C 0.58608 0.69067 0.91396
 C3987 C 0.57835 0.67580 0.92130
 C3988 C 0.57250 0.66279 0.91068
 C3989 C 0.56525 0.64819 0.91775
 C3990 C 0.56375 0.64642 0.93557
 C3991 C 0.56960 0.65962 0.94615
 C3992 C 0.57685 0.67422 0.93905
 H3993 H 0.63539 0.74525 0.90411
 H3994 H 0.59586 0.74677 0.86622
 H3995 H 0.60904 0.77158 0.85302
 H3996 H 0.64884 0.76999 0.89106
 H3997 H 0.57366 0.66385 0.89693
 H3998 H 0.56112 0.63815 0.90928
 H3999 H 0.56848 0.65868 0.95990
 H4000 H 0.58132 0.68423 0.94739
 C4001 C 0.87086 1.25108 1.10764
 C4002 C 0.88577 1.24434 1.11454
 C4003 C 0.89299 1.25180 1.12902
 C4004 C 0.88535 1.26597 1.13656
 C4005 C 0.87034 1.27289 1.12973
 C4006 C 0.86320 1.26523 1.11515
 C4007 C 0.89359 1.22971 1.10681
 C4008 C 0.90006 1.21742 1.10035
 C4009 C 0.90754 1.20296 1.09283
 C4010 C 0.91387 1.19052 1.08651
 C4011 C 0.92136 1.17555 1.07914
 C4012 C 0.92716 1.16248 1.08976
 C4013 C 0.93423 1.14781 1.08269
 C4014 C 0.93561 1.14601 1.06486
 C4015 C 0.92977 1.15924 1.05428
 C4016 C 0.92270 1.17392 1.06139
 H4017 H 0.86515 1.24538 1.09644
 H4018 H 0.90453 1.24667 1.13448
 H4019 H 0.89130 1.27143 1.14771
 H4020 H 0.85166 1.27007 1.10949
 H4021 H 0.92611 1.16358 1.10352
 H4022 H 0.93834 1.13774 1.09116
 H4023 H 0.93081 1.15829 1.04052
 H4024 H 0.91825 1.18397 1.05306
 C4025 C 0.89154 0.75099 0.62902
 C4026 C 0.88501 0.74434 0.61382
 C4027 C 0.87098 0.75203 0.60611
 C4028 C 0.86348 0.76633 0.61354
 C4029 C 0.86993 0.77316 0.62885
 C4030 C 0.88407 0.76529 0.63648
 C4031 C 0.89270 0.72960 0.60617
 C4032 C 0.89913 0.71724 0.59980
 C4033 C 0.90665 0.70273 0.59241
 C4034 C 0.91306 0.69028 0.58618
 C4035 C 0.92067 0.67533 0.57889
 C4036 C 0.92219 0.67370 0.56116
 C4037 C 0.92941 0.65906 0.55410
 C4038 C 0.93522 0.64586 0.56473
 C4039 C 0.93369 0.64766 0.58255
 C4040 C 0.92647 0.66229 0.58956
 H4041 H 0.90240 0.74512 0.63511
 H4042 H 0.86582 0.74698 0.59434
 H4043 H 0.85270 0.77199 0.60719
 H4044 H 0.88940 0.77006 0.64826
 H4045 H 0.91777 0.68374 0.55278
 H4046 H 0.93057 0.65812 0.54036
 H4047 H 0.93779 0.63761 0.59105
 H4048 H 0.92530 0.66338 0.60331
 C4049 C 0.39182 1.25156 0.62918
 C4050 C 0.38507 1.24471 0.61419
 C4051 C 0.37067 1.25207 0.60686
 C4052 C 0.36304 1.26621 0.61444
 C4053 C 0.36968 1.27332 0.62959
 C4054 C 0.38423 1.26571 0.63683
 C4055 C 0.39283 1.23006 0.60641
 C4056 C 0.39928 1.21775 0.59993
 C4057 C 0.40678 1.20326 0.59244
 C4058 C 0.41314 1.19080 0.58616
 C4059 C 0.42070 1.17581 0.57884
 C4060 C 0.42211 1.17414 0.56110
 C4061 C 0.42928 1.15947 0.55404
 C4062 C 0.43515 1.14629 0.56466
 C4063 C 0.43370 1.14812 0.58248
 C4064 C 0.42653 1.16278 0.58950
 H4065 H 0.40296 1.24595 0.63500
 H4066 H 0.36532 1.24685 0.59525
 H4067 H 0.35193 1.27145 0.60830
 H4068 H 0.38991 1.27055 0.64840
 H4069 H 0.41765 1.18415 0.55272
 H4070 H 0.43036 1.15849 0.54028
 H4071 H 0.43783 1.13809 0.59098
 H4072 H 0.42543 1.16391 0.60324
 C4073 C 0.39255 0.75172 1.12989
 C4074 C 0.38579 0.74472 1.11497
 C4075 C 0.37136 0.75197 1.10760
 C4076 C 0.36370 0.76615 1.11508
 C4077 C 0.37034 0.77340 1.13016
 C4078 C 0.38494 0.76591 1.13743
 C4079 C 0.39355 0.73003 1.10729
 C4080 C 0.39995 0.71767 1.10086
 C4081 C 0.40734 0.70312 1.09340
 C4082 C 0.41360 0.69061 1.08713
 C4083 C 0.42100 0.67556 1.07981
 C4084 C 0.42236 0.67387 1.06206
 C4085 C 0.42940 0.65915 1.05499
 C4086 C 0.43518 0.64592 1.06561
 C4087 C 0.43376 0.64776 1.08343
 C4088 C 0.42672 0.66248 1.09046
 H4089 H 0.40373 0.74619 1.13572
 H4090 H 0.36600 0.74664 1.09604
 H4091 H 0.35256 0.77129 1.10891
 H4092 H 0.39061 0.77086 1.14896
 H4093 H 0.41797 0.68392 1.05369
 H4094 H 0.43046 0.65817 1.04124
 H4095 H 0.43782 0.63770 1.09193
 H4096 H 0.42566 0.66361 1.10421
 C4097 C 0.89138 0.74916 0.87048
 C4098 C 0.88500 0.75567 0.88582
 C4099 C 0.87089 0.74805 0.89347
 C4100 C 0.86317 0.73399 0.88583
 C4101 C 0.86947 0.72732 0.87038
 C4102 C 0.88369 0.73510 0.86281
 C4103 C 0.89287 0.77021 0.89364
 C4104 C 0.89943 0.78245 0.90012
 C4105 C 0.90707 0.79686 0.90758
 C4106 C 0.91356 0.80926 0.91381
 C4107 C 0.92124 0.82421 0.92103
 C4108 C 0.92263 0.82600 0.93876
 C4109 C 0.92985 0.84068 0.94573
 C4110 C 0.93577 0.85377 0.93502
 C4111 C 0.93437 0.85180 0.91721
 C4112 C 0.92716 0.83712 0.91029
 H4113 H 0.90227 0.75499 0.86442
 H4114 H 0.86585 0.75297 0.90535
 H4115 H 0.85236 0.72833 0.89213
 H4116 H 0.88885 0.73047 0.85090
 H4117 H 0.91810 0.81608 0.94720
 H4118 H 0.93089 0.84175 0.95947
 H4119 H 0.93855 0.86175 0.90863
 H4120 H 0.92608 0.83591 0.89655
 C4121 C 0.89216 0.24901 0.37013
 C4122 C 0.88580 0.25565 0.38541
 C4123 C 0.87184 0.24798 0.39326
 C4124 C 0.86427 0.23370 0.38591
 C4125 C 0.87056 0.22686 0.37054
 C4126 C 0.88462 0.23473 0.36274
 C4127 C 0.89356 0.27033 0.39306
 C4128 C 0.90000 0.28264 0.39951
 C4129 C 0.90749 0.29708 0.40704
 C4130 C 0.91386 0.30948 0.41336
 C4131 C 0.92146 0.32439 0.42072
 C4132 C 0.92292 0.32599 0.43846
 C4133 C 0.93018 0.34058 0.44555
 C4134 C 0.93609 0.35376 0.43494
 C4135 C 0.93458 0.35199 0.41712
 C4136 C 0.92733 0.33740 0.41008
 H4137 H 0.90296 0.25487 0.36393
 H4138 H 0.86681 0.25302 0.40510
 H4139 H 0.85356 0.22805 0.39238
 H4140 H 0.88981 0.22995 0.35090
 H4141 H 0.91842 0.31598 0.44682
 H4142 H 0.93129 0.34152 0.45930
 H4143 H 0.93873 0.36203 0.40863
 H4144 H 0.92619 0.33633 0.39633
 C4145 C 0.37114 0.74848 0.39307
 C4146 C 0.38555 0.75568 0.38562
 C4147 C 0.39222 0.74869 0.37066
 C4148 C 0.38453 0.73454 0.36314
 C4149 C 0.36997 0.72708 0.37049
 C4150 C 0.36341 0.73433 0.38561
 C4151 C 0.39340 0.77031 0.39331
 C4152 C 0.39989 0.78260 0.39976
 C4153 C 0.40739 0.79707 0.40726
 C4154 C 0.41374 0.80950 0.41356
 C4155 C 0.42127 0.82448 0.42089
 C4156 C 0.42701 0.83754 0.41025
 C4157 C 0.43416 0.85219 0.41728
 C4158 C 0.43567 0.85398 0.43510
 C4159 C 0.42987 0.84077 0.44571
 C4160 C 0.42272 0.82611 0.43864
 H4161 H 0.36585 0.75380 0.40466
 H4162 H 0.40337 0.75419 0.36476
 H4163 H 0.39014 0.72958 0.35158
 H4164 H 0.35230 0.72922 0.39184
 H4165 H 0.42587 0.83646 0.39650
 H4166 H 0.43823 0.86225 0.40878
 H4167 H 0.43100 0.84171 0.45946
 H4168 H 0.41832 0.81607 0.44700
 C4169 C 0.37190 0.24825 0.89359
 C4170 C 0.38585 0.25593 0.88574
 C4171 C 0.39217 0.24933 0.87042
 C4172 C 0.38459 0.23509 0.86299
 C4173 C 0.37054 0.22721 0.87079
 C4174 C 0.36429 0.23401 0.88620
 C4175 C 0.39365 0.27059 0.89340
 C4176 C 0.40013 0.28288 0.89984
 C4177 C 0.40765 0.29732 0.90735
 C4178 C 0.41404 0.30972 0.91366
 C4179 C 0.42164 0.32464 0.92101
 C4180 C 0.42742 0.33769 0.91037
 C4181 C 0.43464 0.35230 0.91741
 C4182 C 0.43617 0.35406 0.93522
 C4183 C 0.43035 0.34085 0.94583
 C4184 C 0.42313 0.32623 0.93875
 H4185 H 0.36690 0.25326 0.90545
 H4186 H 0.40296 0.25521 0.86421
 H4187 H 0.38975 0.23035 0.85112
 H4188 H 0.35358 0.22835 0.89267
 H4189 H 0.42626 0.33663 0.89662
 H4190 H 0.43873 0.36236 0.90892
 H4191 H 0.43149 0.34178 0.95958
 H4192 H 0.41869 0.31620 0.94711
 C4193 C 1.12935 0.74847 1.10791
 C4194 C 1.11451 0.75527 1.11487
 C4195 C 1.10734 0.74781 1.12937
 C4196 C 1.11491 0.73355 1.13686
 C4197 C 1.12986 0.72645 1.12994
 C4198 C 1.13697 0.73423 1.11533
 C4199 C 1.10667 0.76990 1.10713
 C4200 C 1.10018 0.78219 1.10064
 C4201 C 1.09265 0.79664 1.09310
 C4202 C 1.08629 0.80907 1.08676
 C4203 C 1.07877 0.82406 1.07940
 C4204 C 1.07296 0.83711 1.09002
 C4205 C 1.06589 0.85180 1.08296
 C4206 C 1.06452 0.85366 1.06514
 C4207 C 1.07037 0.84046 1.05455
 C4208 C 1.07744 0.82575 1.06165
 H4209 H 1.13504 0.75418 1.09669
 H4210 H 1.09585 0.75299 1.13491
 H4211 H 1.10889 0.72821 1.14803
 H4212 H 1.14842 0.72944 1.10948
 H4213 H 1.07400 0.83597 1.10377
 H4214 H 1.06177 0.86185 1.09145
 H4215 H 1.06934 0.84145 1.04079
 H4216 H 1.08188 0.81572 1.05330
 C4217 C 1.12864 0.24799 0.60741
 C4218 C 1.11421 0.25521 0.61481
 C4219 C 1.10747 0.24817 0.62973
 C4220 C 1.11509 0.23395 0.63724
 C4221 C 1.12968 0.22647 0.62993
 C4222 C 1.13631 0.23378 0.61486
 C4223 C 1.10641 0.26990 0.60711
 C4224 C 1.09998 0.28224 0.60065
 C4225 C 1.09255 0.29675 0.59311
 C4226 C 1.08626 0.30923 0.58678
 C4227 C 1.07881 0.32426 0.57941
 C4228 C 1.07298 0.33730 0.59003
 C4229 C 1.06590 0.35199 0.58297
 C4230 C 1.06452 0.35385 0.56514
 C4231 C 1.07040 0.34066 0.55455
 C4232 C 1.07749 0.32596 0.56165
 H4233 H 1.13399 0.25336 0.59586
 H4234 H 1.09629 0.25367 0.63559
 H4235 H 1.10943 0.22896 0.64876
 H4236 H 1.14744 0.22867 0.60867
 H4237 H 1.07401 0.33616 0.60378
 H4238 H 1.06177 0.36203 0.59146
 H4239 H 1.06938 0.34165 0.54080
 H4240 H 1.08195 0.31594 0.55330
 C4241 C 0.62794 0.74814 0.60685
 C4242 C 0.61397 0.75575 0.61477
 C4243 C 0.60774 0.74907 0.63009
 C4244 C 0.61541 0.73482 0.63746
 C4245 C 0.62947 0.72702 0.62960
 C4246 C 0.63564 0.73389 0.61419
 C4247 C 0.60611 0.77045 0.60722
 C4248 C 0.59961 0.78281 0.60088
 C4249 C 0.59213 0.79733 0.59345
 C4250 C 0.58588 0.80981 0.58710
 C4251 C 0.57862 0.82481 0.57953
 C4252 C 0.56101 0.82647 0.57803
 C4253 C 0.55401 0.84114 0.57079
 C4254 C 0.56456 0.85434 0.56495
 C4255 C 0.58225 0.85252 0.56650
 C4256 C 0.58921 0.83785 0.57374
 H4257 H 0.63288 0.75321 0.59498
 H4258 H 0.59694 0.75488 0.63635
 H4259 H 0.61030 0.73004 0.64934
 H4260 H 0.64635 0.72828 0.60767
 H4261 H 0.55269 0.81644 0.58246
 H4262 H 0.54036 0.84211 0.56963
 H4263 H 0.59070 0.86256 0.56240
 H4264 H 0.60286 0.83674 0.57491
 C4265 C 0.62865 0.24789 1.10674
 C4266 C 0.61460 0.25551 1.11448
 C4267 C 0.60821 0.24888 1.12976
 C4268 C 0.61580 0.23465 1.13725
 C4269 C 0.62992 0.22681 1.12955
 C4270 C 0.63626 0.23366 1.11420
 C4271 C 0.60678 0.27015 1.10674
 C4272 C 0.60032 0.28244 1.10025
 C4273 C 0.59283 0.29690 1.09270
 C4274 C 0.58650 0.30935 1.08638
 C4275 C 0.57902 0.32437 1.07907
 C4276 C 0.57330 0.33740 1.08975
 C4277 C 0.56624 0.35213 1.08275
 C4278 C 0.56479 0.35402 1.06493
 C4279 C 0.57055 0.34082 1.05429
 C4280 C 0.57761 0.32608 1.06132
 H4281 H 0.63372 0.25293 1.09492
 H4282 H 0.59735 0.25472 1.13589
 H4283 H 0.61056 0.22988 1.14908
 H4284 H 0.64705 0.22805 1.10781
 H4285 H 0.57440 0.33624 1.10349
 H4286 H 0.56219 0.36217 1.09127
 H4287 H 0.56946 0.34184 1.04054
 H4288 H 0.58199 0.31606 1.05294
 C4289 C 1.25142 1.12977 0.89362
 C4290 C 1.24426 1.11520 0.88642
 C4291 C 1.25121 1.10833 0.87152
 C4292 C 1.26530 1.11595 0.86386
 C4293 C 1.27269 1.13060 0.87101
 C4294 C 1.26552 1.13743 0.88600
 C4295 C 1.22974 1.10732 0.89426
 C4296 C 1.21754 1.10070 0.90072
 C4297 C 1.20317 1.09298 0.90815
 C4298 C 1.19080 1.08643 0.91434
 C4299 C 1.17588 1.07869 0.92152
 C4300 C 1.16289 1.07306 0.91075
 C4301 C 1.14823 1.06582 0.91764
 C4302 C 1.14635 1.06413 0.93543
 C4303 C 1.15950 1.06976 0.94616
 C4304 C 1.17418 1.07698 0.93924
 H4305 H 1.24612 1.13522 0.90515
 H4306 H 1.24574 1.09706 0.86581
 H4307 H 1.27033 1.11027 0.85236
 H4308 H 1.27075 1.14866 0.89193
 H4309 H 1.16404 1.07438 0.89702
 H4310 H 1.13822 1.06186 0.90906
 H4311 H 1.15847 1.06848 0.95990
 H4312 H 1.18417 1.08128 0.94769
 C4313 C 1.25145 0.60851 0.37213
 C4314 C 1.24451 0.61537 0.38704
 C4315 C 1.25182 0.62981 0.39438
 C4316 C 1.26604 0.63734 0.38687
 C4317 C 1.27317 0.63054 0.37185
 C4318 C 1.26566 0.61601 0.36458
 C4319 C 1.22989 0.60760 0.39477
 C4320 C 1.21763 0.60104 0.40117
 C4321 C 1.20322 0.59334 0.40853
 C4322 C 1.19085 0.58677 0.41470
 C4323 C 1.17596 0.57899 0.42187
 C4324 C 1.17422 0.57739 0.43959
 C4325 C 1.15959 0.57009 0.44652
 C4326 C 1.14651 0.56428 0.43579
 C4327 C 1.14845 0.56586 0.41799
 C4328 C 1.16307 0.57316 0.41110
 H4329 H 1.24587 0.59734 0.36632
 H4330 H 1.24654 0.63524 0.40593
 H4331 H 1.27138 0.64846 0.39291
 H4332 H 1.27066 0.61036 0.35306
 H4333 H 1.18414 0.58184 0.44804
 H4334 H 1.15854 0.56890 0.46026
 H4335 H 1.13850 0.56176 0.40940
 H4336 H 1.16426 0.57439 0.39736
 C4337 C 0.75106 1.10827 0.37136
 C4338 C 0.74407 1.11525 0.38619
 C4339 C 0.75124 1.12984 0.39335
 C4340 C 0.76540 1.13740 0.38576
 C4341 C 0.77261 1.13046 0.37084
 C4342 C 0.76521 1.11580 0.36373
 C4343 C 0.72950 1.10746 0.39400
 C4344 C 0.71727 1.10090 0.40044
 C4345 C 0.70286 1.09323 0.40783
 C4346 C 0.69046 1.08672 0.41399
 C4347 C 0.67551 1.07904 0.42115
 C4348 C 0.67374 1.07748 0.43886
 C4349 C 0.65903 1.07032 0.44578
 C4350 C 0.64592 1.06461 0.43503
 C4351 C 0.64789 1.06615 0.41723
 C4352 C 0.66259 1.07331 0.41036
 H4353 H 0.74557 1.09699 0.36568
 H4354 H 0.74590 1.13536 0.40483
 H4355 H 0.77063 1.14864 0.39166
 H4356 H 0.77027 1.11005 0.35228
 H4357 H 0.68368 1.08185 0.44733
 H4358 H 0.65795 1.06914 0.45952
 H4359 H 0.63792 1.06213 0.40864
 H4360 H 0.66381 1.07451 0.39663
 C4361 C 0.75179 0.63011 0.89448
 C4362 C 0.74427 0.61575 0.88719
 C4363 C 0.75080 0.60902 0.87204
 C4364 C 0.76481 0.61658 0.86419
 C4365 C 0.77252 0.63103 0.87139
 C4366 C 0.76581 0.63772 0.88664
 C4367 C 0.72976 0.60796 0.89513
 C4368 C 0.71754 0.60137 0.90157
 C4369 C 0.70313 0.59365 0.90890
 C4370 C 0.69070 0.58710 0.91498
 C4371 C 0.67572 0.57938 0.92203
 C4372 C 0.66286 0.57364 0.91117
 C4373 C 0.64811 0.56649 0.91796
 C4374 C 0.64602 0.56498 0.93575
 C4375 C 0.65908 0.57069 0.94657
 C4376 C 0.67383 0.57783 0.93974
 H4377 H 0.74681 0.63544 0.90621
 H4378 H 0.74504 0.59794 0.86625
 H4379 H 0.76944 0.61114 0.85240
 H4380 H 0.77141 0.64874 0.89265
 H4381 H 0.66417 0.57482 0.89744
 H4382 H 0.63819 0.56246 0.90931
 H4383 H 0.65792 0.56952 0.96030
 H4384 H 0.68372 0.58221 0.94826
 C4385 C 1.25188 0.87032 1.10669
 C4386 C 1.24466 0.88491 1.11382
 C4387 C 1.25175 0.89200 1.12855
 C4388 C 1.26600 0.88455 1.13613
 C4389 C 1.27340 0.86984 1.12907
 C4390 C 1.26613 0.86283 1.11423
 C4391 C 1.22995 0.89260 1.10609
 C4392 C 1.21761 0.89906 1.09971
 C4393 C 1.20311 0.90666 1.09235
 C4394 C 1.19067 0.91313 1.08617
 C4395 C 1.17571 0.92081 1.07897
 C4396 C 1.16274 0.92659 1.08970
 C4397 C 1.14807 0.93381 1.08277
 C4398 C 1.14617 0.93537 1.06496
 C4399 C 1.15932 0.92961 1.05427
 C4400 C 1.17398 0.92239 1.06124
 H4401 H 1.24649 0.86471 1.09528
 H4402 H 1.24627 0.90330 1.13421
 H4403 H 1.27112 0.89038 1.14750
 H4404 H 1.27136 0.85157 1.10836
 H4405 H 1.16390 0.92538 1.10344
 H4406 H 1.13808 0.93787 1.09133
 H4407 H 1.15830 0.93080 1.04053
 H4408 H 1.18396 0.91800 1.05280
 C4409 C 1.25167 0.37138 0.60738
 C4410 C 1.24457 0.38594 0.61472
 C4411 C 1.25180 0.39285 0.62946
 C4412 C 1.26606 0.38525 0.63686
 C4413 C 1.27335 0.37058 0.62960
 C4414 C 1.26594 0.36376 0.61474
 C4415 C 1.22986 0.39374 0.60713
 C4416 C 1.21751 0.40020 0.60077
 C4417 C 1.20300 0.40767 0.59330
 C4418 C 1.19055 0.41393 0.58694
 C4419 C 1.17557 0.42122 0.57937
 C4420 C 1.17389 0.43887 0.57791
 C4421 C 1.15922 0.44590 0.57074
 C4422 C 1.14604 0.43534 0.56492
 C4423 C 1.14789 0.41762 0.56640
 C4424 C 1.16255 0.41062 0.57357
 H4425 H 1.24617 0.36590 0.59597
 H4426 H 1.24640 0.40411 0.63527
 H4427 H 1.27130 0.39095 0.64825
 H4428 H 1.27108 0.35253 0.60871
 H4429 H 1.18391 0.44719 0.58232
 H4430 H 1.15824 0.45958 0.56961
 H4431 H 1.13787 0.40916 0.56229
 H4432 H 1.16367 0.39695 0.57469
 C4433 C 0.75109 0.89262 0.62919
 C4434 C 0.74395 0.88572 0.61440
 C4435 C 0.75101 0.87112 0.60712
 C4436 C 0.76519 0.86345 0.61458
 C4437 C 0.77252 0.87027 0.62947
 C4438 C 0.76526 0.88497 0.63668
 C4439 C 0.72932 0.89357 0.60677
 C4440 C 0.71702 0.90011 0.60043
 C4441 C 0.70256 0.90769 0.59304
 C4442 C 0.69014 0.91404 0.58676
 C4443 C 0.67520 0.92144 0.57928
 C4444 C 0.66216 0.91092 0.57341
 C4445 C 0.64756 0.91801 0.56624
 C4446 C 0.64581 0.93576 0.56482
 C4447 C 0.65900 0.94623 0.57076
 C4448 C 0.67361 0.93910 0.57794
 H4449 H 0.74570 0.90391 0.63494
 H4450 H 0.74556 0.86567 0.59567
 H4451 H 0.77032 0.85220 0.60860
 H4452 H 0.77043 0.89066 0.64810
 H4453 H 0.66323 0.89724 0.57446
 H4454 H 0.63751 0.90962 0.56207
 H4455 H 0.65809 0.95992 0.56971
 H4456 H 0.68365 0.94735 0.58244
 C4457 C 0.75170 0.37074 1.10680
 C4458 C 0.74455 0.38536 1.11395
 C4459 C 0.75166 0.39242 1.12868
 C4460 C 0.76586 0.38490 1.13625
 C4461 C 0.77320 0.37017 1.12919
 C4462 C 0.76591 0.36320 1.11434
 C4463 C 0.72987 0.39308 1.10623
 C4464 C 0.71755 0.39955 1.09984
 C4465 C 0.70306 0.40713 1.09246
 C4466 C 0.69063 0.41357 1.08625
 C4467 C 0.67569 0.42121 1.07899
 C4468 C 0.66268 0.42697 1.08967
 C4469 C 0.64804 0.43418 1.08268
 C4470 C 0.64622 0.43574 1.06486
 C4471 C 0.65941 0.42998 1.05422
 C4472 C 0.67404 0.42277 1.06126
 H4473 H 0.74629 0.36516 1.09539
 H4474 H 0.74621 0.40373 1.13433
 H4475 H 0.77101 0.39071 1.14763
 H4476 H 0.77110 0.35192 1.10846
 H4477 H 0.66378 0.42577 1.10341
 H4478 H 0.63801 0.43824 1.09120
 H4479 H 0.65844 0.43116 1.04048
 H4480 H 0.68405 0.41838 1.05287
 C4481 C 0.74909 1.10771 1.12881
 C4482 C 0.75614 1.11474 1.11402
 C4483 C 0.74899 1.12937 1.10687
 C4484 C 0.73482 1.13694 1.11445
 C4485 C 0.72756 1.12996 1.12934
 C4486 C 0.73493 1.11525 1.13642
 C4487 C 0.77072 1.10695 1.10621
 C4488 C 0.78297 1.10043 1.09974
 C4489 C 0.79737 1.09281 1.09227
 C4490 C 0.80976 1.08635 1.08601
 C4491 C 0.82468 1.07873 1.07872
 C4492 C 0.82632 1.07720 1.06099
 C4493 C 0.84098 1.07006 1.05394
 C4494 C 0.85419 1.06434 1.06457
 C4495 C 0.85237 1.06586 1.08239
 C4496 C 0.83772 1.07300 1.08940
 H4497 H 0.75455 1.09639 1.13447
 H4498 H 0.75436 1.13493 1.09543
 H4499 H 0.72962 1.14822 1.10857
 H4500 H 0.72983 1.10946 1.14783
 H4501 H 0.81629 1.08157 1.05261
 H4502 H 0.84195 1.06891 1.04020
 H4503 H 0.86242 1.06182 1.09090
 H4504 H 0.83661 1.07418 1.10314
 C4505 C 0.74863 0.62973 0.60641
 C4506 C 0.75592 0.61521 0.61363
 C4507 C 0.74900 0.60824 0.62850
 C4508 C 0.73481 0.61571 0.63612
 C4509 C 0.72730 0.63032 0.62896
 C4510 C 0.73443 0.63724 0.61399
 C4511 C 0.77050 0.60745 0.60579
 C4512 C 0.78273 0.60091 0.59931
 C4513 C 0.79709 0.59322 0.59185
 C4514 C 0.80944 0.58666 0.58561
 C4515 C 0.82430 0.57888 0.57838
 C4516 C 0.83726 0.57308 0.58911
 C4517 C 0.85186 0.56578 0.58216
 C4518 C 0.85371 0.56417 0.56436
 C4519 C 0.84056 0.56995 0.55367
 C4520 C 0.82595 0.57725 0.56066
 H4521 H 0.75390 0.63525 0.59489
 H4522 H 0.75457 0.59700 0.63422
 H4523 H 0.72981 0.60997 0.64761
 H4524 H 0.72911 0.64842 0.60804
 H4525 H 0.83614 0.57434 0.60284
 H4526 H 0.86187 0.56170 0.59071
 H4527 H 0.84155 0.56873 0.53994
 H4528 H 0.81597 0.58167 0.55224
 C4529 C 0.24834 1.10791 0.62825
 C4530 C 0.25543 1.11503 0.61352
 C4531 C 0.24827 1.12968 0.60644
 C4532 C 0.23407 1.13720 0.61403
 C4533 C 0.22679 1.13014 0.62887
 C4534 C 0.23415 1.11539 0.63588
 C4535 C 0.27007 1.10731 0.60572
 C4536 C 0.28236 1.10082 0.59928
 C4537 C 0.29681 1.09322 0.59185
 C4538 C 0.30923 1.08674 0.58564
 C4539 C 0.32417 1.07904 0.57843
 C4540 C 0.32588 1.07748 0.56070
 C4541 C 0.34054 1.07024 0.55373
 C4542 C 0.35368 1.06447 0.56443
 C4543 C 0.35179 1.06603 0.58223
 C4544 C 0.33713 1.07326 0.58916
 H4545 H 0.25380 1.09657 0.63386
 H4546 H 0.25367 1.13532 0.59504
 H4547 H 0.22887 1.14851 0.60820
 H4548 H 0.22902 1.10952 0.64724
 H4549 H 0.31592 1.08188 0.55227
 H4550 H 0.34157 1.06906 0.53999
 H4551 H 0.36178 1.06196 0.59080
 H4552 H 0.33597 1.07447 0.60290
 C4553 C 0.24869 0.60796 1.12904
 C4554 C 0.25568 0.61487 1.11417
 C4555 C 0.24842 0.62936 1.10686
 C4556 C 0.23419 0.63691 1.11435
 C4557 C 0.22698 0.63005 1.12931
 C4558 C 0.23446 0.61547 1.13656
 C4559 C 0.27031 0.60708 1.10643
 C4560 C 0.28257 0.60052 1.10002
 C4561 C 0.29697 0.59284 1.09261
 C4562 C 0.30935 0.58630 1.08639
 C4563 C 0.32424 0.57856 1.07915
 C4564 C 0.32593 0.57703 1.06142
 C4565 C 0.34057 0.56980 1.05442
 C4566 C 0.35371 0.56399 1.06509
 C4567 C 0.35183 0.56549 1.08290
 C4568 C 0.33720 0.57273 1.08986
 H4569 H 0.25422 0.59674 1.13483
 H4570 H 0.25375 0.63484 1.09535
 H4571 H 0.22890 0.64807 1.10833
 H4572 H 0.22940 0.60977 1.14804
 H4573 H 0.31596 0.58148 1.05301
 H4574 H 0.34158 0.56866 1.04067
 H4575 H 0.36183 0.56140 1.09144
 H4576 H 0.33606 0.57390 1.10360
 C4577 C 0.74849 0.89266 0.87156
 C4578 C 0.75565 0.88561 0.88629
 C4579 C 0.74861 0.87093 0.89341
 C4580 C 0.73444 0.86332 0.88587
 C4581 C 0.72707 0.87031 0.87105
 C4582 C 0.73432 0.88509 0.86398
 C4583 C 0.77026 0.89342 0.89404
 C4584 C 0.78253 0.89996 0.90045
 C4585 C 0.79698 0.90759 0.90784
 C4586 C 0.80941 0.91406 0.91401
 C4587 C 0.82439 0.92171 0.92117
 C4588 C 0.82615 0.92331 0.93889
 C4589 C 0.84088 0.93043 0.94581
 C4590 C 0.85404 0.93607 0.93506
 C4591 C 0.85209 0.93449 0.91727
 C4592 C 0.83737 0.92736 0.91039
 H4593 H 0.75385 0.90402 0.86591
 H4594 H 0.75406 0.86533 0.90480
 H4595 H 0.72933 0.85200 0.89173
 H4596 H 0.72914 0.89089 0.85261
 H4597 H 0.81617 0.91901 0.94736
 H4598 H 0.84194 0.93163 0.95954
 H4599 H 0.86209 0.93846 0.90867
 H4600 H 0.83618 0.92613 0.89666
 C4601 C 0.74881 0.37081 0.39271
 C4602 C 0.75585 0.38544 0.38546
 C4603 C 0.74864 0.39240 0.37071
 C4604 C 0.73444 0.38480 0.36325
 C4605 C 0.72719 0.37008 0.37044
 C4606 C 0.73460 0.36317 0.38528
 C4607 C 0.77049 0.39328 0.39309
 C4608 C 0.78280 0.39982 0.39943
 C4609 C 0.79729 0.40737 0.40680
 C4610 C 0.80976 0.41367 0.41306
 C4611 C 0.82479 0.42094 0.42051
 C4612 C 0.82651 0.43859 0.42191
 C4613 C 0.84121 0.44558 0.42902
 C4614 C 0.85438 0.43498 0.43484
 C4615 C 0.85251 0.41726 0.43339
 C4616 C 0.83782 0.41031 0.42628
 H4617 H 0.75430 0.36529 0.40412
 H4618 H 0.75400 0.40371 0.36497
 H4619 H 0.72922 0.39055 0.35187
 H4620 H 0.72950 0.35189 0.39123
 H4621 H 0.81650 0.44694 0.41750
 H4622 H 0.84222 0.45925 0.43011
 H4623 H 0.86253 0.40877 0.43748
 H4624 H 0.83666 0.39664 0.42519
 C4625 C 0.24897 0.89151 0.37180
 C4626 C 0.25595 0.88459 0.38667
 C4627 C 0.24873 0.87006 0.39394
 C4628 C 0.23456 0.86248 0.38638
 C4629 C 0.22737 0.86934 0.37141
 C4630 C 0.23480 0.88396 0.36421
 C4631 C 0.27055 0.89238 0.39441
 C4632 C 0.28283 0.89895 0.40077
 C4633 C 0.29726 0.90664 0.40809
 C4634 C 0.30967 0.91318 0.41420
 C4635 C 0.32460 0.92091 0.42134
 C4636 C 0.32634 0.92252 0.43906
 C4637 C 0.34100 0.92976 0.44597
 C4638 C 0.35412 0.93550 0.43523
 C4639 C 0.35219 0.93390 0.41743
 C4640 C 0.33753 0.92666 0.41056
 H4641 H 0.25447 0.90275 0.36604
 H4642 H 0.25405 0.86458 0.40545
 H4643 H 0.22930 0.85128 0.39236
 H4644 H 0.22976 0.88967 0.35273
 H4645 H 0.31639 0.91814 0.44753
 H4646 H 0.34205 0.93097 0.45971
 H4647 H 0.36217 0.93795 0.40884
 H4648 H 0.33635 0.92541 0.39683
 C4649 C 0.24917 0.37076 0.89292
 C4650 C 0.25607 0.38549 0.88574
 C4651 C 0.24871 0.39253 0.87111
 C4652 C 0.23451 0.38489 0.86367
 C4653 C 0.22742 0.37005 0.87078
 C4654 C 0.23497 0.36309 0.88552
 C4655 C 0.27074 0.39331 0.89335
 C4656 C 0.28306 0.39978 0.89972
 C4657 C 0.29755 0.40726 0.90717
 C4658 C 0.30999 0.41352 0.91352
 C4659 C 0.32496 0.42084 0.92106
 C4660 C 0.32655 0.43849 0.92250
 C4661 C 0.34120 0.44556 0.92964
 C4662 C 0.35443 0.43504 0.93545
 C4663 C 0.35267 0.41731 0.93398
 C4664 C 0.33803 0.41027 0.92684
 H4665 H 0.25477 0.36518 0.90425
 H4666 H 0.25396 0.40393 0.86542
 H4667 H 0.22917 0.39070 0.85238
 H4668 H 0.22998 0.35173 0.89142
 H4669 H 0.31649 0.44679 0.91810
 H4670 H 0.34211 0.45924 0.93076
 H4671 H 0.36274 0.40888 0.93808
 H4672 H 0.33696 0.39660 0.92573
   
