data_POSCAR
  _audit_creation_date              2014-09-24
  _audit_creation_method            'ToBaCCo'
  _symmetry_space_group_name_H-M    'P1'
  _symmetry_Int_Tables_number       1
  _symmetry_cell_setting            triclinic
  loop_
  _symmetry_equiv_pos_as_xyz
 x,y,z
_cell_length_a 55.0150
_cell_length_b 54.7183
_cell_length_c 57.2484
_cell_angle_alpha 89.090600
_cell_angle_beta 88.226300
_cell_angle_gamma 90.376300
loop_
  _atom_site_label
  _atom_site_type_symbol
  _atom_site_fract_x
  _atom_site_fract_y
  _atom_site_fract_z
Si1 Si 0.76662 0.61865 1.00074
 Si2 Si 0.73655 0.37263 0.50451
 Si3 Si 0.26716 -0.11231 0.00094
 Si4 Si 0.23886 0.09767 0.49531
 Si5 Si 0.12879 0.48961 0.25810
 Si6 Si -0.13004 -0.00626 0.24233
 Si7 Si 0.37691 0.51993 0.75057
 Si8 Si 0.62560 1.01967 0.74333
 Si9 Si -0.01342 0.24040 -0.12297
 Si10 Si 0.48330 0.27207 0.11182
 Si11 Si 1.00617 0.74277 0.62168
 Si12 Si 0.51732 0.75797 0.37820
 C13 C 0.42859 -0.01645 0.27175
 H14 H 0.42976 0.00131 0.27968
 C15 C 0.44345 -0.03546 0.27927
 H16 H 0.45631 -0.03204 0.29279
 C17 C 0.40991 -0.04261 0.24491
 H18 H 0.39627 -0.04563 0.23209
 C19 C 0.42430 -0.06210 0.25195
 H20 H 0.42147 -0.07986 0.24438
 N21 N 0.41218 -0.02035 0.25491
 C22 C 0.39176 0.05185 0.22957
 H23 H 0.37224 0.04967 0.23158
 C24 C 0.40157 0.07355 0.22034
 H25 H 0.38937 0.08816 0.21567
 C26 C 0.43113 0.03531 0.23368
 H27 H 0.44251 0.02015 0.23855
 C28 C 0.44177 0.05675 0.22426
 H29 H 0.46135 0.05786 0.22191
 Zn30 Zn 0.39017 0.00479 0.24732
 N31 N 0.40652 0.03335 0.23619
 C32 C 0.37496 0.03402 0.28486
 N33 N 0.37173 0.01188 0.27490
 C34 C 0.35770 -0.00577 0.28571
 C35 C 0.34632 -0.00142 0.30747
 C36 C 0.36404 0.03909 0.30650
 C37 C 0.38399 -0.00849 0.20221
 C38 C 0.37298 -0.01750 0.18257
 C39 C 0.33474 -0.01944 0.20449
 C40 C 0.34661 -0.01036 0.22393
 N41 N 0.37095 -0.00565 0.22251
 H42 H 0.38673 0.04760 0.27649
 H43 H 0.35592 -0.02346 0.27774
 H44 H 0.33566 -0.01581 0.31610
 H45 H 0.36698 0.05683 0.31409
 H46 H 0.40325 -0.00428 0.20152
 H47 H 0.38387 -0.01996 0.16670
 H48 H 0.31554 -0.02389 0.20593
 H49 H 0.33652 -0.00758 0.24016
 C50 C 0.42688 0.07618 0.21731
 C51 C 0.44114 -0.05879 0.26957
 C52 C 0.34818 -0.02362 0.18366
 C53 C 0.34980 0.02116 0.31828
 C54 C 0.09219 1.01227 0.78669
 H55 H 0.09196 0.99443 0.79513
 C56 C 0.07795 1.03108 0.79595
 H57 H 0.06689 1.02757 0.81163
 C58 C 0.10793 1.03881 0.75675
 H59 H 0.12006 1.04204 0.74184
 C60 C 0.09394 1.05803 0.76531
 H61 H 0.09503 1.07560 0.75636
 N62 N 0.10675 1.01640 0.76738
 C63 C 0.12282 0.94719 0.73445
 H64 H 0.14230 0.94978 0.73257
 C65 C 0.11181 0.92750 0.72383
 H66 H 0.12286 0.91484 0.71384
 C67 C 0.08463 0.96116 0.74901
 H68 H 0.07411 0.97472 0.75830
 C69 C 0.07283 0.94132 0.73894
 H70 H 0.05323 0.93961 0.74057
 Zn71 Zn 0.12717 0.99101 0.75636
 N72 N 0.10921 0.96371 0.74647
 C73 C 0.14683 0.95796 0.78878
 N74 N 0.14773 0.98146 0.78072
 C75 C 0.16226 0.99841 0.79057
 C76 C 0.17685 0.99184 0.80923
 C77 C 0.16115 0.95061 0.80723
 C78 C 0.13207 1.00766 0.71066
 C79 C 0.14352 1.01329 0.68921
 C80 C 0.18229 1.00567 0.70656
 C81 C 0.17003 1.00054 0.72789
 N82 N 0.14535 1.00157 0.72947
 H83 H 0.13474 0.94489 0.78116
 H84 H 0.16239 1.01705 0.78399
 H85 H 0.18844 1.00547 0.81681
 H86 H 0.15988 0.93188 0.81357
 H87 H 0.11243 1.00784 0.71231
 H88 H 0.13246 1.01855 0.67469
 H89 H 0.20188 1.00402 0.70546
 H90 H 0.18018 0.99494 0.74290
 C91 C 0.08653 0.92458 0.72580
 C92 C 0.07883 1.05442 0.78530
 C93 C 0.16897 1.01194 0.68676
 C94 C 0.17645 0.96760 0.81770
 C95 C 0.59878 0.52662 0.27826
 H96 H 0.59314 0.50909 0.28565
 C97 C 0.58857 0.54813 0.28698
 H98 H 0.57504 0.54706 0.30111
 C99 C 0.62431 0.54948 0.25180
 H100 H 0.63876 0.55007 0.23861
 C101 C 0.61480 0.57133 0.26013
 H102 H 0.62168 0.58850 0.25285
 N103 N 0.61629 0.52766 0.26094
 C104 C 0.62042 0.45289 0.23549
 H105 H 0.63992 0.45075 0.23621
 C106 C 0.60609 0.43369 0.22791
 H107 H 0.61463 0.41675 0.22275
 C108 C 0.58572 0.47792 0.24071
 H109 H 0.57798 0.49534 0.24538
 C110 C 0.57070 0.45928 0.23269
 H111 H 0.55134 0.46231 0.23148
 Zn112 Zn 0.63222 0.49872 0.25123
 N113 N 0.61009 0.47430 0.24210
 C114 C 0.64378 0.46574 0.28752
 N115 N 0.65045 0.48718 0.27673
 C116 C 0.66846 0.50138 0.28520
 C117 C 0.68049 0.49416 0.30536
 C118 C 0.65532 0.45783 0.30756
 C119 C 0.63944 0.51430 0.20584
 C120 C 0.65166 0.52123 0.18514
 C121 C 0.68947 0.50920 0.20226
 C122 C 0.67647 0.50278 0.22292
 N123 N 0.65194 0.50585 0.22438
 H124 H 0.62895 0.45502 0.28110
 H125 H 0.67307 0.51862 0.27661
 H126 H 0.69435 0.50597 0.31222
 H127 H 0.64965 0.44069 0.31579
 H128 H 0.61989 0.51615 0.20741
 H129 H 0.64143 0.52839 0.17071
 H130 H 0.70904 0.50721 0.20133
 H131 H 0.68596 0.49556 0.23774
 C132 C 0.58093 0.43680 0.22640
 C133 C 0.59691 0.57085 0.27812
 C134 C 0.67699 0.51899 0.18327
 C135 C 0.67366 0.47226 0.31701
 C136 C 0.89546 0.47052 0.77444
 H137 H 0.89683 0.48873 0.78138
 C138 C 0.90810 0.45133 0.78469
 H139 H 0.91969 0.45513 0.79916
 C140 C 0.87797 0.44348 0.74762
 H141 H 0.86558 0.44039 0.73368
 C142 C 0.89015 0.42370 0.75750
 H143 H 0.88694 0.40555 0.75095
 N144 N 0.88059 0.46628 0.75640
 C145 C 0.86592 0.53789 0.72568
 H146 H 0.84631 0.53645 0.72528
 C147 C 0.87764 0.55910 0.71739
 H148 H 0.86690 0.57381 0.71030
 C149 C 0.90361 0.52011 0.73511
 H150 H 0.91364 0.50484 0.74197
 C151 C 0.91612 0.54106 0.72699
 H152 H 0.93572 0.54182 0.72799
 Zn153 Zn 0.86048 0.49217 0.74672
 N154 N 0.87891 0.51914 0.73472
 C155 C 0.84575 0.52463 0.78205
 N156 N 0.84240 0.50175 0.77373
 C157 C 0.82890 0.48475 0.78607
 C158 C 0.81852 0.49041 0.80794
 C159 C 0.83585 0.53098 0.80378
 C160 C 0.85165 0.47774 0.70167
 C161 C 0.83838 0.47046 0.68260
 C162 C 0.80177 0.47154 0.70701
 C163 C 0.81575 0.47915 0.72559
 N164 N 0.84027 0.48180 0.72265
 H165 H 0.85700 0.53774 0.77240
 H166 H 0.82704 0.46649 0.77935
 H167 H 0.80851 0.47648 0.81792
 H168 H 0.83912 0.54916 0.81028
 H169 H 0.87116 0.48015 0.69981
 H170 H 0.84782 0.46697 0.66612
 H171 H 0.78230 0.46931 0.70957
 H172 H 0.80701 0.48288 0.74230
 C173 C 0.90305 0.56104 0.71826
 C174 C 0.90508 0.42741 0.77663
 C175 C 0.81313 0.46714 0.68518
 C176 C 0.82249 0.51363 0.81724
 C177 C 0.26144 0.43250 -0.02728
 H178 H 0.26751 0.43239 -0.00955
 C179 C 0.27328 0.44758 -0.04399
 H180 H 0.28815 0.45919 -0.03887
 C181 C 0.23605 0.41636 -0.05601
 H182 H 0.22242 0.40335 -0.06101
 C183 C 0.24716 0.43138 -0.07320
 H184 H 0.24172 0.42988 -0.09115
 N185 N 0.24347 0.41693 -0.03355
 C186 C 0.19683 0.40631 0.02384
 H187 H 0.18369 0.39838 0.01257
 C188 C 0.18913 0.41417 0.04588
 H189 H 0.17006 0.41264 0.05100
 C190 C 0.23757 0.41697 0.03149
 H191 H 0.25660 0.41691 0.02630
 C192 C 0.23062 0.42513 0.05373
 H193 H 0.24438 0.43167 0.06527
 Zn194 Zn 0.23143 0.39307 -0.01140
 N195 N 0.22073 0.40770 0.01704
 C196 C 0.25529 0.35777 0.01554
 N197 N 0.25725 0.37184 -0.00422
 C198 C 0.27816 0.37261 -0.01753
 C199 C 0.29858 0.35974 -0.01052
 C200 C 0.27528 0.34462 0.02321
 C201 C 0.18615 0.38810 -0.03230
 C202 C 0.16650 0.37602 -0.04184
 C203 C 0.18621 0.33754 -0.03405
 C204 C 0.20570 0.35042 -0.02488
 N205 N 0.20530 0.37527 -0.02414
 H206 H 0.23845 0.35752 0.02581
 H207 H 0.27930 0.38384 -0.03323
 H208 H 0.31537 0.36148 -0.02081
 H209 H 0.27356 0.33394 0.03927
 H210 H 0.18621 0.40784 -0.03141
 H211 H 0.15142 0.38657 -0.04820
 H212 H 0.18682 0.31779 -0.03468
 H213 H 0.22109 0.34055 -0.01833
 C214 C 0.20616 0.42335 0.06129
 C215 C 0.26643 0.44677 -0.06736
 C216 C 0.16638 0.35042 -0.04281
 C217 C 0.29748 0.34599 0.01040
 C218 C 0.75052 0.07372 1.02945
 H219 H 0.75580 0.06791 1.01212
 C220 C 0.75838 0.06050 1.04886
 H221 H 0.76942 0.04442 1.04619
 C222 C 0.73027 0.10195 1.05408
 H223 H 0.71999 0.11857 1.05610
 C224 C 0.73769 0.08926 1.07395
 H225 H 0.73293 0.09630 1.09104
 N226 N 0.73683 0.09412 1.03235
 C227 C 0.69530 0.09545 0.97366
 H228 H 0.68194 0.10581 0.98336
 C229 C 0.68856 0.08416 0.95316
 H230 H 0.66994 0.08562 0.94771
 C231 C 0.73583 0.08188 0.96817
 H232 H 0.75450 0.08200 0.97353
 C233 C 0.72984 0.07028 0.94748
 H234 H 0.74395 0.06131 0.93725
 Zn235 Zn 0.72862 0.11374 1.00608
 N236 N 0.71866 0.09435 0.98071
 C237 C 0.75549 0.14367 0.97451
 N238 N 0.75638 0.13178 0.99549
 C239 C 0.77689 0.13197 1.00815
 C240 C 0.79767 0.14448 0.99972
 C241 C 0.77582 0.15639 0.96543
 C242 C 0.68247 0.12566 1.02498
 C243 C 0.66312 0.14070 1.03153
 C244 C 0.68689 0.17572 1.01808
 C245 C 0.70581 0.15998 1.01176
 N246 N 0.70321 0.13541 1.01506
 H247 H 0.73901 0.14298 0.96470
 H248 H 0.77719 0.12236 1.02479
 H249 H 0.81377 0.14460 1.01013
 H250 H 0.77486 0.16531 0.94847
 H251 H 0.68098 0.10610 1.02775
 H252 H 0.64687 0.13254 1.03956
 H253 H 0.68916 0.19517 1.01494
 H254 H 0.72250 0.16746 1.00411
 C255 C 0.70603 0.07184 0.93949
 C256 C 0.75221 0.06841 1.07150
 C257 C 0.66512 0.16610 1.02800
 C258 C 0.79733 0.15686 0.97804
 C259 C 0.28887 0.58412 0.51632
 H260 H 0.29756 0.58274 0.49918
 C261 C 0.29841 0.57154 0.53535
 H262 H 0.31412 0.56002 0.53258
 C263 C 0.25855 0.60177 0.54090
 H264 H 0.24364 0.61429 0.54326
 C265 C 0.26754 0.58965 0.56037
 H266 H 0.25929 0.59309 0.57740
 N267 N 0.26944 0.59909 0.51944
 C268 C 0.23682 0.61558 0.45282
 H269 H 0.23532 0.63514 0.45483
 C270 C 0.22603 0.60431 0.43408
 H271 H 0.21633 0.61529 0.42158
 C272 C 0.25082 0.57742 0.46706
 H273 H 0.26004 0.56699 0.48025
 C274 C 0.24061 0.56540 0.44828
 H275 H 0.24204 0.54573 0.44706
 Zn276 Zn 0.26021 0.61980 0.49451
 N277 N 0.24876 0.60210 0.46892
 C278 C 0.29532 0.64002 0.46236
 N279 N 0.28791 0.63857 0.48523
 C280 C 0.30123 0.64875 0.50223
 C281 C 0.32322 0.66065 0.49653
 C282 C 0.31696 0.65209 0.45586
 C283 C 0.21281 0.62844 0.50954
 C284 C 0.19266 0.64162 0.51733
 C285 C 0.21705 0.67852 0.51463
 C286 C 0.23684 0.66455 0.50689
 N287 N 0.23440 0.63994 0.50477
 H288 H 0.28474 0.63144 0.44916
 H289 H 0.29505 0.64705 0.52031
 H290 H 0.33380 0.66844 0.51025
 H291 H 0.32280 0.65278 0.43762
 H292 H 0.21140 0.60886 0.50755
 H293 H 0.17587 0.63192 0.52167
 H294 H 0.21924 0.69809 0.51621
 H295 H 0.25412 0.67333 0.50266
 C296 C 0.22773 0.57892 0.43175
 C297 C 0.28804 0.57467 0.55786
 C298 C 0.19459 0.66701 0.52006
 C299 C 0.33133 0.66233 0.47308
 C300 C 0.79206 0.91892 0.48220
 H301 H 0.80212 0.91872 0.49814
 C302 C 0.80165 0.93104 0.46225
 H303 H 0.81901 0.94039 0.46300
 C304 C 0.75783 0.90593 0.46145
 H305 H 0.74123 0.89539 0.46081
 C306 C 0.76656 0.91805 0.44123
 H307 H 0.75648 0.91672 0.42534
 N308 N 0.77066 0.90642 0.48139
 C309 C 0.74160 0.89316 0.55231
 H310 H 0.73876 0.87364 0.55118
 C311 C 0.73534 0.90513 0.57289
 H312 H 0.72731 0.89475 0.58747
 C313 C 0.75526 0.93035 0.53442
 H314 H 0.76309 0.94001 0.51936
 C315 C 0.74898 0.94316 0.55468
 H316 H 0.75209 0.96270 0.55513
 Zn317 Zn 0.76070 0.88671 0.50763
 N318 N 0.75179 0.90573 0.53378
 C319 C 0.79586 0.86709 0.53727
 N320 N 0.78725 0.86647 0.51529
 C321 C 0.79839 0.85292 0.49840
 C322 C 0.81923 0.83946 0.50335
 C323 C 0.81631 0.85374 0.54303
 C324 C 0.71236 0.88053 0.49659
 C325 C 0.69140 0.86837 0.49000
 C326 C 0.71288 0.83010 0.49299
 C327 C 0.73361 0.84309 0.49926
 N328 N 0.73309 0.86790 0.50040
 H329 H 0.78720 0.87824 0.55041
 H330 H 0.79142 0.85304 0.48094
 H331 H 0.82824 0.82933 0.48954
 H332 H 0.82249 0.85433 0.56078
 H333 H 0.71236 0.90022 0.49809
 H334 H 0.67522 0.87878 0.48639
 H335 H 0.71367 0.81043 0.49141
 H336 H 0.75017 0.83338 0.50283
 C337 C 0.73917 0.93042 0.57434
 C338 C 0.78897 0.93040 0.44134
 C339 C 0.69163 0.84289 0.48778
 C340 C 0.82861 0.84000 0.52591
 C341 C -0.03776 0.26029 0.41792
 H342 H -0.02005 0.26689 0.42270
 C343 C -0.05864 0.26832 0.42996
 H344 H -0.05665 0.28062 0.44440
 C345 C -0.06167 0.23645 0.39307
 H346 H -0.06286 0.22461 0.37822
 C347 C -0.08300 0.24432 0.40434
 H348 H -0.10028 0.23835 0.39785
 N349 N -0.03963 0.24453 0.39994
 C350 C 0.03385 0.21708 0.38788
 H351 H 0.03443 0.21965 0.36909
 C352 C 0.05375 0.20713 0.39892
 H353 H 0.06974 0.20254 0.38845
 C354 C 0.01221 0.22049 0.42410
 H355 H -0.00421 0.22531 0.43374
 C356 C 0.03176 0.21034 0.43593
 H357 H 0.03016 0.20746 0.45466
 Zn358 Zn -0.01154 0.23606 0.38203
 N359 N 0.01373 0.22377 0.40049
 C360 C 0.02122 0.27456 0.37111
 N361 N -0.00045 0.26449 0.36550
 C362 C -0.01461 0.27519 0.34921
 C363 C -0.00664 0.29640 0.33723
 C364 C 0.02984 0.29566 0.35964
 C365 C -0.02613 0.18924 0.37288
 C366 C -0.03131 0.16850 0.36014
 C367 C -0.02201 0.19151 0.32456
 C368 C -0.01688 0.21191 0.33807
 N369 N -0.01919 0.21040 0.36178
 H370 H 0.03176 0.26650 0.38479
 H371 H -0.03206 0.26716 0.34547
 H372 H -0.01788 0.30441 0.32398
 H373 H 0.04704 0.30343 0.36460
 H374 H -0.02758 0.18855 0.39177
 H375 H -0.03718 0.15197 0.36938
 H376 H -0.01996 0.19285 0.30572
 H377 H -0.01079 0.22875 0.32962
 C378 C 0.05288 0.20343 0.42326
 C379 C -0.08175 0.26061 0.42301
 C380 C -0.02922 0.16941 0.33566
 C381 C 0.01601 0.30675 0.34226
 C382 C 1.03782 0.77493 0.09156
 H383 H 1.01933 0.78047 0.08853
 C384 C 1.05703 0.78575 0.07855
 H385 H 1.05292 0.79900 0.06504
 C386 C 1.06535 0.75109 0.11308
 H387 H 1.06858 0.73808 0.12701
 C388 C 1.08512 0.76182 0.10086
 H389 H 1.10330 0.75686 0.10575
 N390 N 1.04225 0.75779 0.10829
 C391 C 0.97326 0.72007 0.12279
 H392 H 0.97422 0.71972 0.14164
 C393 C 0.95378 0.70889 0.11215
 H394 H 0.93968 0.70006 0.12294
 C395 C 0.99055 0.73215 0.08592
 H396 H 1.00514 0.74084 0.07576
 C397 C 0.97113 0.72140 0.07452
 H398 H 0.97087 0.72196 0.05561
 Zn399 Zn 1.01605 0.74550 0.12731
 N400 N 0.99107 0.73154 0.10969
 C401 C 0.98007 0.77912 0.14140
 N402 N 1.00337 0.77197 0.14460
 C403 C 1.01821 0.78449 0.15883
 C404 C 1.00959 0.80495 0.17078
 C405 C 0.97076 0.79940 0.15294
 C406 C 1.03526 0.69986 0.13627
 C407 C 1.04246 0.67957 0.14928
 C408 C 1.03239 0.70140 0.18461
 C409 C 1.02533 0.72134 0.17087
 N410 N 1.02698 0.72021 0.14715
 H411 H 0.96878 0.76947 0.12946
 H412 H 1.03681 0.77867 0.16074
 H413 H 1.02157 0.81458 0.18219
 H414 H 0.95232 0.80504 0.14971
 H415 H 1.03611 0.69940 0.11738
 H416 H 1.04928 0.66368 0.14022
 H417 H 1.03068 0.70243 0.20346
 H418 H 1.01815 0.73747 0.17916
 C419 C 0.95251 0.70952 0.08773
 C420 C 1.08118 0.77954 0.08334
 C421 C 1.04097 0.68010 0.17379
 C422 C 0.98553 0.81263 0.16789
 C423 C 0.50219 0.29097 0.60177
 H424 H 0.49144 0.30343 0.61216
 C425 C 0.52299 0.29965 0.58981
 H426 H 0.52794 0.31874 0.59127
 C427 C 0.50963 0.25083 0.58852
 H428 H 0.50447 0.23172 0.58851
 C429 C 0.53073 0.25876 0.57628
 H430 H 0.54151 0.24572 0.56651
 N431 N 0.49588 0.26694 0.60096
 C432 C 0.42167 0.24049 0.61287
 H433 H 0.41984 0.24424 0.63134
 C434 C 0.40188 0.23138 0.60104
 H435 H 0.38477 0.22852 0.61056
 C436 C 0.44627 0.24020 0.57817
 H437 H 0.46364 0.24363 0.56937
 C438 C 0.42696 0.23079 0.56566
 H439 H 0.42985 0.22670 0.54735
 Zn440 Zn 0.46911 0.25556 0.61977
 N441 N 0.44339 0.24440 0.60144
 C442 C 0.44356 0.29858 0.62707
 N443 N 0.45721 0.28161 0.63816
 C444 C 0.46260 0.28387 0.66108
 C445 C 0.45473 0.30426 0.67354
 C446 C 0.43502 0.31899 0.63895
 C447 C 0.46902 0.20729 0.63841
 C448 C 0.47838 0.18754 0.65089
 C449 C 0.51031 0.21401 0.66407
 C450 C 0.50043 0.23320 0.65123
 N451 N 0.48015 0.22956 0.63874
 H452 H 0.43963 0.29637 0.60882
 H453 H 0.47326 0.27012 0.66967
 H454 H 0.45930 0.30601 0.69170
 H455 H 0.42446 0.33250 0.62976
 H456 H 0.45324 0.20458 0.62797
 H457 H 0.46970 0.16980 0.64977
 H458 H 0.52644 0.21735 0.67393
 H459 H 0.50921 0.25096 0.65083
 C460 C 0.40445 0.22594 0.57719
 C461 C 0.53767 0.28350 0.57693
 C462 C 0.49947 0.19068 0.66375
 C463 C 0.44081 0.32211 0.66240
 C464 C 0.49703 0.78504 0.91207
 H465 H 0.51425 0.79467 0.91249
 C466 C 0.47703 0.79334 0.92527
 H467 H 0.47912 0.80918 0.93614
 C468 C 0.47323 0.75317 0.89676
 H469 H 0.47150 0.73805 0.88504
 C470 C 0.45282 0.76082 0.90966
 H471 H 0.43567 0.75137 0.90768
 N472 N 0.49476 0.76538 0.89804
 C473 C 0.56802 0.73924 0.88135
 H474 H 0.56722 0.73939 0.86248
 C475 C 0.58878 0.73076 0.89212
 H476 H 0.60406 0.72489 0.88130
 C477 C 0.54891 0.74697 0.91811
 H478 H 0.53314 0.75291 0.92815
 C479 C 0.56928 0.73835 0.92966
 H480 H 0.56887 0.73768 0.94858
 Zn481 Zn 0.52116 0.75721 0.87765
 N482 N 0.54872 0.74735 0.89435
 C483 C 0.55152 0.79470 0.85747
 N484 N 0.52853 0.78532 0.85882
 C485 C 0.50989 0.79682 0.84819
 C486 C 0.51400 0.81873 0.83573
 C487 C 0.55650 0.81626 0.84484
 C488 C 0.50881 0.70876 0.87101
 C489 C 0.50148 0.68799 0.85926
 C490 C 0.50206 0.71179 0.82333
 C491 C 0.50938 0.73220 0.83583
 N492 N 0.51222 0.73037 0.85931
 H493 H 0.56600 0.78580 0.86653
 H494 H 0.49171 0.78921 0.84983
 H495 H 0.49897 0.82784 0.82756
 H496 H 0.57484 0.82360 0.84417
 H497 H 0.51135 0.70784 0.88967
 H498 H 0.49807 0.67123 0.86915
 H499 H 0.49978 0.71355 0.80466
 H500 H 0.51256 0.74949 0.82683
 C501 C 0.58959 0.73001 0.91663
 C502 C 0.45444 0.78139 0.92388
 C503 C 0.49780 0.68934 0.83511
 C504 C 0.53759 0.82865 0.83396
 C505 C 0.50478 -0.19269 0.37451
 C506 C 0.49817 -0.17113 0.36323
 C507 C 0.49607 -0.17031 0.33899
 C508 C 0.50104 -0.19138 0.32593
 C509 C 0.50771 -0.21313 0.33729
 C510 C 0.50930 -0.21388 0.36169
 N511 N 0.48792 -0.14804 0.32852
 N512 N 0.48557 -0.14498 0.30664
 C513 C 0.47630 -0.12250 0.29740
 C514 C 0.47382 -0.11967 0.27327
 C515 C 0.46317 -0.09860 0.26405
 C516 C 0.45473 -0.08001 0.27891
 C517 C 0.45790 -0.08265 0.30308
 C518 C 0.46858 -0.10363 0.31224
 H519 H 0.50605 -0.19292 0.39336
 H520 H 0.49436 -0.15504 0.37345
 H521 H 0.49950 -0.19111 0.30712
 H522 H 0.51134 -0.22927 0.32712
 H523 H 0.47974 -0.13401 0.26163
 H524 H 0.46128 -0.09699 0.24532
 H525 H 0.45127 -0.06892 0.31506
 H526 H 0.47021 -0.10534 0.33099
 C527 C 0.97313 0.26359 0.83427
 C528 C 0.96491 0.28333 0.82086
 C529 C 0.95849 0.30535 0.83152
 C530 C 0.96043 0.30741 0.85585
 C531 C 0.96867 0.28778 0.86919
 C532 C 0.97501 0.26575 0.85852
 N533 N 0.94999 0.32531 0.81750
 N534 N 0.94329 0.34526 0.82675
 C535 C 0.93454 0.36567 0.81357
 C536 C 0.92617 0.38607 0.82569
 C537 C 0.91691 0.40616 0.81368
 C538 C 0.91601 0.40633 0.78914
 C539 C 0.92473 0.38586 0.77694
 C540 C 0.93391 0.36565 0.78905
 H541 H 0.97798 0.24675 0.82570
 H542 H 0.96350 0.28148 0.80214
 H543 H 0.95564 0.32420 0.86457
 H544 H 0.97014 0.28979 0.88788
 H545 H 0.92649 0.38623 0.84460
 H546 H 0.90990 0.42132 0.82370
 H547 H 0.92454 0.38549 0.75805
 H548 H 0.94041 0.35008 0.77931
 C549 C 0.01990 1.21882 0.84485
 C550 C 0.03061 1.19939 0.83291
 C551 C 0.02030 1.17597 0.83458
 C552 C -0.00147 1.17233 0.84770
 C553 C -0.01220 1.19179 0.85965
 C554 C -0.00124 1.21505 0.85879
 N555 N 0.03289 1.15616 0.82365
 N556 N 0.02492 1.13426 0.82455
 C557 C 0.03838 1.11461 0.81425
 C558 C 0.02817 1.09111 0.81446
 C559 C 0.04118 1.07151 0.80502
 C560 C 0.06476 1.07512 0.79528
 C561 C 0.07496 1.09877 0.79522
 C562 C 0.06190 1.11832 0.80452
 H563 H 0.02849 1.23661 0.84352
 H564 H 0.04730 1.20246 0.82273
 H565 H -0.00991 1.15442 0.84908
 H566 H -0.02884 1.18845 0.86976
 H567 H 0.01008 1.08799 0.82195
 H568 H 0.03270 1.05360 0.80513
 H569 H 0.09323 1.10214 0.78832
 H570 H 0.07033 1.13626 0.80436
 C571 C 0.50853 0.71996 0.34626
 C572 C 0.51464 0.69894 0.33375
 C573 C 0.53836 0.68976 0.33401
 C574 C 0.55597 0.70201 0.34681
 C575 C 0.54981 0.72274 0.35949
 C576 C 0.52606 0.73186 0.35935
 N577 N 0.54412 0.66766 0.32193
 N578 N 0.56602 0.66049 0.31968
 C579 C 0.57288 0.63819 0.30863
 C580 C 0.59760 0.63395 0.30415
 C581 C 0.60529 0.61217 0.29407
 C582 C 0.58833 0.59402 0.28851
 C583 C 0.56346 0.59817 0.29316
 C584 C 0.55574 0.62021 0.30302
 H585 H 0.49003 0.72659 0.34616
 H586 H 0.50084 0.68966 0.32405
 H587 H 0.57438 0.69524 0.34748
 H588 H 0.56363 0.73122 0.36970
 H589 H 0.61097 0.64758 0.30860
 H590 H 0.62458 0.60932 0.29099
 H591 H 0.55004 0.58448 0.28898
 H592 H 0.53652 0.62305 0.30652
 C593 C 0.50075 0.32003 0.11708
 C594 C 0.50957 0.33995 0.12927
 C595 C 0.51355 0.33788 0.15323
 C596 C 0.50818 0.31566 0.16504
 C597 C 0.49898 0.29581 0.15288
 C598 C 0.49549 0.29784 0.12877
 N599 N 0.52345 0.35844 0.16493
 N600 N 0.53125 0.35688 0.18559
 C601 C 0.54162 0.37750 0.19684
 C602 C 0.55556 0.37355 0.21656
 C603 C 0.56784 0.39298 0.22661
 C604 C 0.56589 0.41680 0.21735
 C605 C 0.55097 0.42096 0.19826
 C606 C 0.53907 0.40142 0.18792
 H607 H 0.49800 0.32197 0.09849
 H608 H 0.51363 0.35695 0.11999
 H609 H 0.51098 0.31370 0.18361
 H610 H 0.49471 0.27898 0.16232
 H611 H 0.55762 0.35522 0.22361
 H612 H 0.57919 0.38940 0.24139
 H613 H 0.54935 0.43916 0.19077
 H614 H 0.52826 0.40493 0.17277
 C615 C 0.01741 0.76440 0.66523
 C616 C 0.02449 0.78386 0.67917
 C617 C 0.03099 0.80650 0.66891
 C618 C 0.03009 0.80953 0.64452
 C619 C 0.02283 0.79022 0.63069
 C620 C 0.01662 0.76752 0.64091
 N621 N 0.03877 0.82606 0.68335
 N622 N 0.04772 0.84563 0.67427
 C623 C 0.05600 0.86570 0.68767
 C624 C 0.06968 0.88409 0.67614
 C625 C 0.07920 0.90343 0.68858
 C626 C 0.07478 0.90493 0.71278
 C627 C 0.06033 0.88696 0.72433
 C628 C 0.05114 0.86727 0.71186
 H629 H 0.01251 0.74705 0.67347
 H630 H 0.02509 0.78128 0.69793
 H631 H 0.03489 0.82683 0.63612
 H632 H 0.02207 0.79302 0.61196
 H633 H 0.07344 0.88309 0.65749
 H634 H 0.09021 0.91718 0.67936
 H635 H 0.05681 0.88781 0.74302
 H636 H 0.04045 0.85328 0.72107
 C637 C 1.00875 0.69332 0.63757
 C638 C 0.99983 0.67224 0.64906
 C639 C 0.97800 0.67283 0.66222
 C640 C 0.96549 0.69505 0.66437
 C641 C 0.97440 0.71613 0.65285
 C642 C 0.99582 0.71529 0.63897
 N643 N 0.96844 0.65052 0.67232
 N644 N 0.94855 0.64981 0.68426
 C645 C 0.93832 0.62744 0.69357
 C646 C 0.91655 0.62831 0.70676
 C647 C 0.90531 0.60678 0.71507
 C648 C 0.91566 0.58390 0.71023
 C649 C 0.93781 0.58310 0.69733
 C650 C 0.94906 0.60469 0.68905
 H651 H 1.02561 0.69223 0.62745
 H652 H 1.00972 0.65528 0.64738
 H653 H 0.94862 0.69603 0.67455
 H654 H 0.96427 0.73290 0.65448
 H655 H 0.90813 0.64573 0.71039
 H656 H 0.88850 0.60806 0.72531
 H657 H 0.94613 0.56577 0.69314
 H658 H 0.96587 0.60355 0.67880
 C659 C 0.44906 0.23715 0.12993
 C660 C 0.44202 0.21573 0.14185
 C661 C 0.45886 0.20232 0.15447
 C662 C 0.48296 0.21084 0.15548
 C663 C 0.49007 0.23233 0.14342
 C664 C 0.47317 0.24556 0.13050
 N665 N 0.45105 0.17961 0.16497
 N666 N 0.46432 0.16642 0.17783
 C667 C 0.45540 0.14346 0.18710
 C668 C 0.46805 0.13133 0.20464
 C669 C 0.45906 0.10928 0.21437
 C670 C 0.43735 0.09894 0.20649
 C671 C 0.42522 0.11085 0.18834
 C672 C 0.43403 0.13290 0.17886
 H673 H 0.43571 0.24656 0.11975
 H674 H 0.42346 0.20922 0.14084
 H675 H 0.49633 0.20063 0.16501
 H676 H 0.50887 0.23829 0.14369
 H677 H 0.48460 0.13921 0.21108
 H678 H 0.46878 0.10065 0.22840
 H679 H 0.40885 0.10310 0.18138
 H680 H 0.42412 0.14165 0.16503
 C681 C 0.33952 0.53028 -0.21558
 C682 C 0.32548 0.52557 -0.19514
 C683 C 0.33028 0.50509 -0.18105
 C684 C 0.34911 0.48922 -0.18777
 C685 C 0.36270 0.49361 -0.20838
 C686 C 0.35784 0.51401 -0.22255
 N687 N 0.31565 0.50024 -0.16034
 N688 N 0.32322 0.48606 -0.14434
 C689 C 0.30880 0.47907 -0.12408
 C690 C 0.32012 0.46689 -0.10577
 C691 C 0.30640 0.45744 -0.08677
 C692 C 0.28097 0.45968 -0.08598
 C693 C 0.26963 0.47245 -0.10411
 C694 C 0.28347 0.48227 -0.12297
 H695 H 0.33596 0.54648 -0.22600
 H696 H 0.31108 0.53800 -0.19013
 H697 H 0.35313 0.47323 -0.17724
 H698 H 0.37717 0.48113 -0.21300
 H699 H 0.33961 0.46415 -0.10655
 H700 H 0.31555 0.44737 -0.07322
 H701 H 0.25004 0.47441 -0.10386
 H702 H 0.27434 0.49148 -0.13705
 C703 C 0.83521 1.00308 0.27902
 C704 C 0.82399 0.99868 0.30103
 C705 C 0.83038 0.97821 0.31449
 C706 C 0.84748 0.96171 0.30529
 C707 C 0.85829 0.96584 0.28322
 C708 C 0.85233 0.98658 0.26992
 N709 N 0.81977 0.97454 0.33749
 N710 N 0.82980 0.96051 0.35225
 C711 C 0.81968 0.95524 0.37513
 C712 C 0.83390 0.94257 0.39107
 C713 C 0.82421 0.93543 0.41298
 C714 C 0.79990 0.94057 0.41921
 C715 C 0.78574 0.95376 0.40337
 C716 C 0.79560 0.96119 0.38152
 H717 H 0.83090 1.01956 0.26935
 H718 H 0.81090 1.01160 0.30792
 H719 H 0.85267 0.94571 0.31527
 H720 H 0.87193 0.95316 0.27704
 H721 H 0.85244 0.93779 0.38629
 H722 H 0.83543 0.92500 0.42468
 H723 H 0.76697 0.95800 0.40778
 H724 H 0.78424 0.97090 0.36942
 C725 C 0.86458 0.00538 1.19502
 C726 C 0.85221 0.01189 1.17502
 C727 C 0.82698 0.01468 1.17597
 C728 C 0.81403 0.01033 1.19724
 C729 C 0.82648 0.00359 1.21736
 C730 C 0.85188 0.00148 1.21637
 N731 N 0.81537 0.02258 1.15516
 N732 N 0.79278 0.02721 1.15431
 C733 C 0.78238 0.03584 1.13306
 C734 C 0.75795 0.04284 1.13321
 C735 C 0.74789 0.05291 1.11309
 C736 C 0.76214 0.05603 1.09240
 C737 C 0.78647 0.04836 1.09215
 C738 C 0.79651 0.03840 1.11225
 H739 H 0.88419 0.00368 1.19388
 H740 H 0.86236 0.01516 1.15875
 H741 H 0.79446 0.01227 1.19832
 H742 H 0.81629 0.00024 1.23356
 H743 H 0.74683 0.04093 1.14909
 H744 H 0.72901 0.05841 1.11375
 H745 H 0.79803 0.05082 1.07663
 H746 H 0.81545 0.03315 1.11162
 C747 C 0.33412 0.52685 0.72404
 C748 C 0.32204 0.53127 0.70322
 C749 C 0.33527 0.53630 0.68237
 C750 C 0.36080 0.53696 0.68257
 C751 C 0.37281 0.53258 0.70328
 C752 C 0.35960 0.52767 0.72416
 N753 N 0.32258 0.54078 0.66125
 N754 N 0.33403 0.54515 0.64196
 C755 C 0.32206 0.55031 0.62063
 C756 C 0.33620 0.55720 0.60088
 C757 C 0.32519 0.56425 0.58021
 C758 C 0.29970 0.56436 0.57889
 C759 C 0.28555 0.55645 0.59853
 C760 C 0.29662 0.54956 0.61927
 H761 H 0.32356 0.52233 0.73976
 H762 H 0.30236 0.53057 0.70328
 H763 H 0.37150 0.54074 0.66672
 H764 H 0.39251 0.53284 0.70296
 H765 H 0.35583 0.55785 0.60175
 H766 H 0.33664 0.57060 0.56561
 H767 H 0.26590 0.55596 0.59799
 H768 H 0.28533 0.54408 0.63429
 C769 C 0.17315 0.49972 0.28102
 C770 C 0.18657 0.50764 0.29993
 C771 C 0.17465 0.51555 0.32042
 C772 C 0.14910 0.51478 0.32204
 C773 C 0.13578 0.50665 0.30334
 C774 C 0.14766 0.49953 0.28258
 N775 N 0.18858 0.52478 0.33915
 N776 N 0.17823 0.53583 0.35610
 C777 C 0.19108 0.54560 0.37522
 C778 C 0.17865 0.56119 0.39049
 C779 C 0.19059 0.57185 0.40893
 C780 C 0.21515 0.56674 0.41265
 C781 C 0.22753 0.55055 0.39771
 C782 C 0.21562 0.54018 0.37894
 H783 H 0.18266 0.49384 0.26530
 H784 H 0.20624 0.50800 0.29849
 H785 H 0.13942 0.52054 0.33773
 H786 H 0.11611 0.50628 0.30494
 H787 H 0.15971 0.56538 0.38783
 H788 H 0.18063 0.58409 0.42036
 H789 H 0.24650 0.54642 0.40027
 H790 H 0.22552 0.52804 0.36738
 C791 C 0.63700 0.05253 0.77945
 C792 C 0.64678 0.05917 0.80059
 C793 C 0.66043 0.04259 0.81338
 C794 C 0.66465 0.01911 0.80457
 C795 C 0.65491 0.01244 0.78318
 C796 C 0.64103 0.02915 0.77042
 N797 N 0.66859 0.05007 0.83566
 N798 N 0.68078 0.03670 0.84934
 C799 C 0.68745 0.04564 0.87172
 C800 C 0.70183 0.03132 0.88629
 C801 C 0.70807 0.03973 0.90835
 C802 C 0.69976 0.06252 0.91621
 C803 C 0.68548 0.07685 0.90146
 C804 C 0.67940 0.06854 0.87950
 H805 H 0.62578 0.06568 0.77073
 H806 H 0.64318 0.07721 0.80736
 H807 H 0.67494 0.00588 0.81436
 H808 H 0.65756 -0.00598 0.77706
 H809 H 0.70814 0.01363 0.88057
 H810 H 0.71907 0.02830 0.91939
 H811 H 0.67921 0.09469 0.90680
 H812 H 0.66831 0.08007 0.86865
 C813 C 0.64215 1.02174 0.69589
 C814 C 0.65663 1.01512 0.67666
 C815 C 0.67608 0.99921 0.67938
 C816 C 0.68157 0.99062 0.70188
 C817 C 0.66725 0.99760 0.72130
 C818 C 0.64725 1.01305 0.71842
 N819 N 0.68856 0.99081 0.65876
 N820 N 0.70417 0.97378 0.65903
 C821 C 0.71507 0.96485 0.63780
 C822 C 0.72923 0.94374 0.63867
 C823 C 0.73771 0.93294 0.61804
 C824 C 0.73231 0.94325 0.59615
 C825 C 0.71907 0.96508 0.59533
 C826 C 0.71041 0.97574 0.61597
 H827 H 0.62645 1.03292 0.69277
 H828 H 0.65204 1.02160 0.65938
 H829 H 0.69650 0.97815 0.70437
 H830 H 0.67134 0.99027 0.73835
 H831 H 0.73297 0.93518 0.65535
 H832 H 0.74816 0.91628 0.61916
 H833 H 0.71454 0.97332 0.57872
 H834 H 0.69954 0.99211 0.61482
 C835 C 0.16202 0.49834 0.21996
 C836 C 0.17342 0.49286 0.19848
 C837 C 0.16950 0.47016 0.18819
 C838 C 0.15464 0.45270 0.20004
 C839 C 0.14335 0.45814 0.22145
 C840 C 0.14679 0.48105 0.23149
 N841 N 0.17965 0.46558 0.16531
 N842 N 0.17433 0.44614 0.15462
 C843 C 0.18328 0.44081 0.13154
 C844 C 0.17496 0.41956 0.12108
 C845 C 0.18244 0.41395 0.09831
 C846 C 0.19855 0.42952 0.08556
 C847 C 0.20727 0.45070 0.09621
 C848 C 0.19960 0.45640 0.11904
 H849 H 0.16457 0.51628 0.22728
 H850 H 0.18474 0.50653 0.18953
 H851 H 0.15124 0.43503 0.19249
 H852 H 0.13130 0.44464 0.22962
 H853 H 0.16244 0.40740 0.13059
 H854 H 0.17578 0.39727 0.09074
 H855 H 0.21965 0.46304 0.08674
 H856 H 0.20626 0.47296 0.12682
 C857 C -0.21340 0.36098 0.50510
 C858 C -0.19236 0.34896 0.49761
 C859 C -0.19354 0.33033 0.48126
 C860 C -0.21617 0.32379 0.47235
 C861 C -0.23726 0.33617 0.47956
 C862 C -0.23600 0.35473 0.49610
 N863 N -0.17133 0.31936 0.47324
 N864 N -0.17069 0.29963 0.46178
 C865 C -0.14812 0.28980 0.45316
 C866 C -0.14743 0.26573 0.44533
 C867 C -0.12577 0.25598 0.43620
 C868 C -0.10443 0.27035 0.43426
 C869 C -0.10525 0.29453 0.44229
 C870 C -0.12680 0.30409 0.45178
 H871 H -0.21173 0.37557 0.51748
 H872 H -0.17499 0.35432 0.50441
 H873 H -0.21744 0.30965 0.45942
 H874 H -0.25447 0.33145 0.47205
 H875 H -0.16372 0.25450 0.44636
 H876 H -0.12580 0.23716 0.43065
 H877 H -0.08944 0.30638 0.44066
 H878 H -0.12693 0.32286 0.45749
 C879 C 0.31391 0.88715 0.97998
 C880 C 0.33543 0.87671 0.97156
 C881 C 0.33835 0.85136 0.97218
 C882 C 0.31921 0.83638 0.98105
 C883 C 0.29753 0.84688 0.98945
 C884 C 0.29496 0.87236 0.98926
 N885 N 0.36091 0.84156 0.96359
 N886 N 0.36574 0.81886 0.96417
 C887 C 0.38853 0.80986 0.95516
 C888 C 0.39280 0.78468 0.95549
 C889 C 0.41447 0.77538 0.94589
 C890 C 0.43228 0.79120 0.93580
 C891 C 0.42814 0.81652 0.93598
 C892 C 0.40649 0.82577 0.94555
 H893 H 0.31216 0.90686 0.97951
 H894 H 0.34997 0.88841 0.96464
 H895 H 0.32101 0.81669 0.98148
 H896 H 0.28298 0.83509 0.99608
 H897 H 0.37917 0.77223 0.96294
 H898 H 0.41724 0.75581 0.94624
 H899 H 0.44129 0.82917 0.92804
 H900 H 0.40367 0.84533 0.94506
 C901 C 1.24676 0.84859 0.02846
 C902 C 1.22764 0.83392 0.03749
 C903 C 1.20391 0.83744 0.02996
 C904 C 1.19965 0.85525 0.01264
 C905 C 1.21879 0.86953 0.00332
 C906 C 1.24246 0.86641 0.01124
 N907 N 1.18429 0.82349 0.04061
 N908 N 1.16236 0.83050 0.03919
 C909 C 1.14228 0.81710 0.04959
 C910 C 1.12005 0.82897 0.05286
 C911 C 1.10024 0.81681 0.06370
 C912 C 1.10211 0.79221 0.07100
 C913 C 1.12440 0.78016 0.06705
 C914 C 1.14437 0.79255 0.05666
 H915 H 1.26481 0.84629 0.03518
 H916 H 1.23115 0.82035 0.05092
 H917 H 1.18149 0.85828 0.00650
 H918 H 1.21480 0.88348 -0.00957
 H919 H 1.11826 0.84793 0.04751
 H920 H 1.08369 0.82698 0.06682
 H921 H 1.12647 0.76111 0.07190
 H922 H 1.16134 0.78294 0.05400
 C923 C 0.71092 0.32818 0.51715
 C924 C 0.69015 0.31502 0.52492
 C925 C 0.66886 0.32737 0.53164
 C926 C 0.66891 0.35305 0.53150
 C927 C 0.68963 0.36609 0.52411
 C928 C 0.71050 0.35381 0.51624
 N929 N 0.64732 0.31381 0.53843
 N930 N 0.62677 0.32437 0.53935
 C931 C 0.60456 0.31252 0.54685
 C932 C 0.58295 0.32561 0.54524
 C933 C 0.56108 0.31575 0.55414
 C934 C 0.56045 0.29256 0.56508
 C935 C 0.58208 0.27900 0.56594
 C936 C 0.60403 0.28891 0.55688
 H937 H 0.72703 0.31834 0.51170
 H938 H 0.69048 0.29524 0.52524
 H939 H 0.65288 0.36306 0.53702
 H940 H 0.68912 0.38589 0.52390
 H941 H 0.58316 0.34379 0.53745
 H942 H 0.54469 0.32646 0.55281
 H943 H 0.58223 0.26119 0.57444
 H944 H 0.62059 0.27851 0.55836
 C945 C 0.26069 0.12157 0.53320
 C946 C 0.27750 0.13701 0.54331
 C947 C 0.29296 0.15184 0.52932
 C948 C 0.29063 0.15199 0.50493
 C949 C 0.27366 0.13653 0.49478
 C950 C 0.25933 0.12044 0.50881
 N951 N 0.31151 0.16542 0.54047
 N952 N 0.32664 0.17947 0.52954
 C953 C 0.34559 0.19154 0.54170
 C954 C 0.36062 0.20868 0.52982
 C955 C 0.37965 0.22009 0.54128
 C956 C 0.38405 0.21437 0.56484
 C957 C 0.36893 0.19705 0.57660
 C958 C 0.34988 0.18586 0.56523
 H959 H 0.24899 0.11046 0.54460
 H960 H 0.27887 0.13704 0.56214
 H961 H 0.30223 0.16355 0.49378
 H962 H 0.27230 0.13651 0.47594
 H963 H 0.35757 0.21318 0.51166
 H964 H 0.39078 0.23351 0.53175
 H965 H 0.37209 0.19173 0.59454
 H966 H 0.33876 0.17246 0.57478
 C967 C 0.79713 0.66084 0.00462
 C968 C 0.81770 0.67317 0.01243
 C969 C 0.83406 0.66119 0.02695
 C970 C 0.82954 0.63671 0.03365
 C971 C 0.80916 0.62445 0.02582
 C972 C 0.79289 0.63636 0.01123
 N973 N 0.85506 0.67400 0.03477
 N974 N 0.86959 0.66372 0.04868
 C975 C 0.89079 0.67541 0.05727
 C976 C 0.90394 0.66311 0.07427
 C977 C 0.92422 0.67406 0.08384
 C978 C 0.93187 0.69752 0.07637
 C979 C 0.91906 0.70965 0.05880
 C980 C 0.89852 0.69873 0.04938
 H981 H 0.78479 0.67029 -0.00672
 H982 H 0.82092 0.69203 0.00715
 H983 H 0.84183 0.62697 0.04483
 H984 H 0.80620 0.60551 0.03103
 H985 H 0.89820 0.64508 0.08037
 H986 H 0.93394 0.66420 0.09716
 H987 H 0.92453 0.72781 0.05286
 H988 H 0.88864 0.70852 0.03616
 C989 C 0.73990 0.63512 0.96171
 C990 C 0.72137 0.64786 0.95083
 C991 C 0.70705 0.66442 0.96336
 C992 C 0.71211 0.66889 0.98682
 C993 C 0.73065 0.65605 0.99775
 C994 C 0.74419 0.63844 0.98550
 N995 N 0.68691 0.67546 0.95207
 N996 N 0.67324 0.69125 0.96180
 C997 C 0.65260 0.70099 0.95022
 C998 C 0.63981 0.72048 0.96013
 C999 C 0.61939 0.73003 0.94928
 C1000 C 0.61127 0.72003 0.92836
 C1001 C 0.62408 0.70027 0.91864
 C1002 C 0.64457 0.69094 0.92936
 H1003 H 0.75053 0.62248 0.95140
 H1004 H 0.71785 0.64449 0.93265
 H1005 H 0.70143 0.68184 0.99681
 H1006 H 0.73400 0.65970 1.01582
 H1007 H 0.64575 0.72837 0.97624
 H1008 H 0.61015 0.74541 0.95712
 H1009 H 0.61809 0.69170 0.90289
 H1010 H 0.65393 0.67565 0.92148
 C1011 C 0.20905 0.11425 0.45852
 C1012 C 0.18885 0.12599 0.44951
 C1013 C 0.17308 0.13917 0.46415
 C1014 C 0.17811 0.14109 0.48797
 C1015 C 0.19831 0.12924 0.49702
 C1016 C 0.21355 0.11524 0.48246
 N1017 N 0.15179 0.14961 0.45442
 N1018 N 0.13702 0.16295 0.46598
 C1019 C 0.11556 0.17238 0.45559
 C1020 C 0.10189 0.19025 0.46716
 C1021 C 0.08126 0.20018 0.45694
 C1022 C 0.07390 0.19216 0.43499
 C1023 C 0.08730 0.17364 0.42383
 C1024 C 0.10796 0.16397 0.43392
 H1025 H 0.22087 0.10424 0.44674
 H1026 H 0.18526 0.12459 0.43108
 H1027 H 0.16623 0.15128 0.49961
 H1028 H 0.20169 0.13044 0.51551
 H1029 H 0.10748 0.19683 0.48392
 H1030 H 0.07147 0.21451 0.46593
 H1031 H 0.08182 0.16656 0.40724
 H1032 H 0.11796 0.14989 0.42477
 C1033 C 0.61823 0.06713 0.72578
 C1034 C 0.60495 0.08680 0.71748
 C1035 C 0.57966 0.08531 0.71663
 C1036 C 0.56759 0.06375 0.72431
 C1037 C 0.58099 0.04386 0.73262
 C1038 C 0.60641 0.04553 0.73340
 N1039 N 0.56713 0.10588 0.70728
 N1040 N 0.54411 0.10734 0.70648
 C1041 C 0.53307 0.12850 0.69632
 C1042 C 0.50772 0.13059 0.69687
 C1043 C 0.49669 0.15093 0.68663
 C1044 C 0.51092 0.16950 0.67558
 C1045 C 0.53636 0.16732 0.67517
 C1046 C 0.54732 0.14712 0.68546
 H1047 H 0.63786 0.06869 0.72611
 H1048 H 0.61442 0.10327 0.71152
 H1049 H 0.54800 0.06222 0.72363
 H1050 H 0.57156 0.02727 0.73822
 H1051 H 0.49652 0.11642 0.70520
 H1052 H 0.47705 0.15218 0.68745
 H1053 H 0.54786 0.18096 0.66639
 H1054 H 0.56696 0.14593 0.68462
 C1055 C 1.09269 0.51143 0.23063
 C1056 C 1.07988 0.53117 0.22138
 C1057 C 1.08335 0.55476 0.22986
 C1058 C 1.09924 0.55830 0.24827
 C1059 C 1.11202 0.53861 0.25749
 C1060 C 1.10899 0.51508 0.24861
 N1061 N 1.07188 0.57498 0.21854
 N1062 N 1.07530 0.59692 0.22480
 C1063 C 1.06501 0.61737 0.21281
 C1064 C 1.07015 0.64098 0.22039
 C1065 C 1.06191 0.66142 0.20805
 C1066 C 1.04841 0.65851 0.18782
 C1067 C 1.04275 0.63473 0.18061
 C1068 C 1.05098 0.61434 0.19296
 H1069 H 1.09041 0.49347 0.22329
 H1070 H 1.06780 0.52821 0.20710
 H1071 H 1.10237 0.57637 0.25504
 H1072 H 1.12489 0.54211 0.27094
 H1073 H 1.08104 0.64355 0.23561
 H1074 H 1.06675 0.67947 0.21393
 H1075 H 1.03204 0.63189 0.16532
 H1076 H 1.04672 0.59626 0.18678
 C1077 C 0.87402 0.94497 0.22859
 C1078 C 0.88608 0.92385 0.22165
 C1079 C 0.91143 0.92368 0.21914
 C1080 C 0.92476 0.94500 0.22380
 C1081 C 0.91264 0.96619 0.23096
 C1082 C 0.88720 0.96619 0.23344
 N1083 N 0.92286 0.90170 0.21145
 N1084 N 0.94559 0.89999 0.20704
 C1085 C 0.95591 0.87755 0.19894
 C1086 C 0.98029 0.87711 0.19122
 C1087 C 0.99022 0.85585 0.18167
 C1088 C 0.97585 0.83463 0.17978
 C1089 C 0.95164 0.83493 0.18837
 C1090 C 0.94174 0.85616 0.19778
 H1091 H 0.85435 0.94473 0.23026
 H1092 H 0.87564 0.90758 0.21801
 H1093 H 0.94439 0.94528 0.22187
 H1094 H 0.92310 0.98250 0.23431
 H1095 H 0.99142 0.89345 0.19202
 H1096 H 1.00887 0.85627 0.17503
 H1097 H 0.94025 0.81877 0.18763
 H1098 H 0.92291 0.85590 0.20386
 C1099 C 0.41690 0.48825 0.73969
 C1100 C 0.42673 0.46621 0.73166
 C1101 C 0.41136 0.44686 0.72570
 C1102 C 0.38607 0.44954 0.72854
 C1103 C 0.37634 0.47134 0.73664
 C1104 C 0.39162 0.49088 0.74205
 N1105 N 0.42149 0.42502 0.71602
 N1106 N 0.40777 0.40904 0.70716
 C1107 C 0.41653 0.38699 0.69693
 C1108 C 0.40025 0.37267 0.68468
 C1109 C 0.40810 0.35146 0.67364
 C1110 C 0.43239 0.34403 0.67500
 C1111 C 0.44865 0.35809 0.68780
 C1112 C 0.44082 0.37957 0.69858
 H1113 H 0.42897 0.50324 0.74356
 H1114 H 0.44625 0.46441 0.72952
 H1115 H 0.37375 0.43490 0.72421
 H1116 H 0.35676 0.47309 0.73833
 H1117 H 0.38146 0.37820 0.68338
 H1118 H 0.39520 0.34082 0.66405
 H1119 H 0.46751 0.35277 0.68895
 H1120 H 0.45368 0.39036 0.70805
 C1121 C 0.39597 0.56814 0.74632
 C1122 C 0.41037 0.58778 0.75298
 C1123 C 0.42713 0.58484 0.77067
 C1124 C 0.42970 0.56173 0.78140
 C1125 C 0.41519 0.54206 0.77479
 C1126 C 0.39820 0.54518 0.75726
 N1127 N 0.44005 0.60591 0.77833
 N1128 N 0.45611 0.60468 0.79382
 C1129 C 0.46784 0.62610 0.80229
 C1130 C 0.48596 0.62344 0.81872
 C1131 C 0.49634 0.64398 0.82879
 C1132 C 0.48860 0.66765 0.82270
 C1133 C 0.47091 0.67028 0.80563
 C1134 C 0.46063 0.64971 0.79551
 H1135 H 0.38260 0.57123 0.73317
 H1136 H 0.40805 0.60553 0.74475
 H1137 H 0.44240 0.55904 0.79527
 H1138 H 0.41686 0.52456 0.78368
 H1139 H 0.49172 0.60536 0.82406
 H1140 H 0.51021 0.64132 0.84157
 H1141 H 0.46432 0.68819 0.80075
 H1142 H 0.44656 0.65226 0.78291
 C1143 C -0.11294 0.04276 0.23782
 C1144 C -0.10000 0.06321 0.24500
 C1145 C -0.08429 0.06136 0.26368
 C1146 C -0.08100 0.03850 0.27469
 C1147 C -0.09396 0.01802 0.26749
 C1148 C -0.11019 0.02009 0.24919
 N1149 N -0.07343 0.08320 0.27220
 N1150 N -0.05946 0.08293 0.28950
 C1151 C -0.04996 0.10490 0.29909
 C1152 C -0.03527 0.10310 0.31852
 C1153 C -0.02780 0.12411 0.32991
 C1154 C -0.03498 0.14738 0.32203
 C1155 C -0.04891 0.14921 0.30191
 C1156 C -0.05640 0.12814 0.29054
 H1157 H -0.12568 0.04501 0.22396
 H1158 H -0.10284 0.08075 0.23652
 H1159 H -0.06905 0.03662 0.28926
 H1160 H -0.09184 0.00073 0.27665
 H1161 H -0.03016 0.08532 0.32525
 H1162 H -0.01673 0.12215 0.34513
 H1163 H -0.05485 0.16686 0.29554
 H1164 H -0.06780 0.12999 0.27555
 C1165 C 0.12531 0.44250 0.27779
 C1166 C 0.11355 0.42150 0.28649
 C1167 C 0.08817 0.42014 0.28766
 C1168 C 0.07450 0.44024 0.28008
 C1169 C 0.08634 0.46136 0.27123
 C1170 C 0.11183 0.46244 0.26987
 N1171 N 0.07710 0.39810 0.29672
 N1172 N 0.05424 0.39502 0.29949
 C1173 C 0.04452 0.37239 0.30886
 C1174 C 0.01959 0.37027 0.31430
 C1175 C 0.01006 0.34875 0.32469
 C1176 C 0.02542 0.32901 0.32974
 C1177 C 0.05027 0.33098 0.32351
 C1178 C 0.05974 0.35242 0.31326
 H1179 H 0.14501 0.44309 0.27703
 H1180 H 0.12425 0.40616 0.29237
 H1181 H 0.05482 0.43960 0.28096
 H1182 H 0.07562 0.47670 0.26550
 H1183 H 0.00764 0.38549 0.31098
 H1184 H -0.00913 0.34784 0.32940
 H1185 H 0.06248 0.31593 0.32669
 H1186 H 0.07903 0.35341 0.30900
 C1187 C 0.61141 0.97011 0.73827
 C1188 C 0.60045 0.94818 0.74583
 C1189 C 0.58542 0.94734 0.76597
 C1190 C 0.58077 0.96901 0.77818
 C1191 C 0.59193 0.99098 0.77071
 C1192 C 0.60768 0.99154 0.75096
 N1193 N 0.57679 0.92401 0.77451
 N1194 N 0.56119 0.92153 0.79128
 C1195 C 0.55435 0.89783 0.80043
 C1196 C 0.53437 0.89555 0.81609
 C1197 C 0.52833 0.87285 0.82640
 C1198 C 0.54253 0.85218 0.82151
 C1199 C 0.56236 0.85444 0.80556
 C1200 C 0.56813 0.87701 0.79498
 H1201 H 0.62330 0.97000 0.72288
 H1202 H 0.60418 0.93161 0.73629
 H1203 H 0.56931 0.96877 0.79390
 H1204 H 0.58893 1.00734 0.78078
 H1205 H 0.52369 0.91145 0.82054
 H1206 H 0.51309 0.87160 0.83881
 H1207 H 0.57351 0.83875 0.80145
 H1208 H 0.58375 0.87829 0.78304
 C1209 C 0.74607 0.61949 0.04644
 C1210 C 0.73620 0.60951 0.06719
 C1211 C 0.73331 0.58424 0.06993
 C1212 C 0.74022 0.56889 0.05145
 C1213 C 0.74971 0.57898 0.03039
 C1214 C 0.75246 0.60441 0.02768
 N1215 N 0.72305 0.57497 0.09157
 N1216 N 0.72397 0.55260 0.09791
 C1217 C 0.71272 0.54448 0.11962
 C1218 C 0.71782 0.52116 0.12860
 C1219 C 0.70676 0.51294 0.14970
 C1220 C 0.69008 0.52783 0.16179
 C1221 C 0.68510 0.55121 0.15279
 C1222 C 0.69639 0.55953 0.13200
 H1223 H 0.74928 0.63897 0.04540
 H1224 H 0.73121 0.62147 0.08142
 H1225 H 0.73815 0.54926 0.05324
 H1226 H 0.75513 0.56686 0.01647
 H1227 H 0.73036 0.50938 0.11924
 H1228 H 0.71074 0.49478 0.15628
 H1229 H 0.67242 0.56307 0.16189
 H1230 H 0.69206 0.57760 0.12545
 C1231 C 0.20173 1.07269 0.52222
 C1232 C 0.19301 1.05936 0.54178
 C1233 C 0.20920 1.04957 0.55776
 C1234 C 0.23434 1.05137 0.55292
 C1235 C 0.24307 1.06409 0.53298
 C1236 C 0.22683 1.07598 0.51828
 N1237 N 0.19971 1.03963 0.57945
 N1238 N 0.21258 1.03807 0.59751
 C1239 C 0.20259 1.02930 0.61949
 C1240 C 0.21472 1.03457 0.63996
 C1241 C 0.20409 1.02860 0.66186
 C1242 C 0.18125 1.01687 0.66359
 C1243 C 0.16977 1.01051 0.64286
 C1244 C 0.18020 1.01688 0.62105
 H1245 H 0.18883 1.08097 0.51069
 H1246 H 0.17358 1.05782 0.54520
 H1247 H 0.24718 1.04355 0.56485
 H1248 H 0.26251 1.06600 0.52989
 H1249 H 0.23199 1.04420 0.63897
 H1250 H 0.21340 1.03396 0.67737
 H1251 H 0.15257 1.00078 0.64343
 H1252 H 0.17064 1.01232 0.60544
 C1253 C 0.25231 0.93086 0.97617
 C1254 C 0.24354 0.94315 0.95647
 C1255 C 0.23911 0.93035 0.93596
 C1256 C 0.24364 0.90511 0.93538
 C1257 C 0.25211 0.89290 0.95499
 C1258 C 0.25636 0.90561 0.97552
 N1259 N 0.22931 0.94285 0.91617
 N1260 N 0.22715 0.93189 0.89689
 C1261 C 0.21637 0.94254 0.87674
 C1262 C 0.21538 0.92854 0.85658
 C1263 C 0.20310 0.93706 0.83716
 C1264 C 0.19148 0.95985 0.83756
 C1265 C 0.19325 0.97436 0.85754
 C1266 C 0.20558 0.96574 0.87705
 H1267 H 0.25568 0.94101 0.99181
 H1268 H 0.24011 0.96258 0.95719
 H1269 H 0.24029 0.89469 0.91987
 H1270 H 0.25517 0.87339 0.95418
 H1271 H 0.22369 0.91065 0.85614
 H1272 H 0.20241 0.92566 0.82190
 H1273 H 0.18433 0.99192 0.85839
 H1274 H 0.20609 0.97684 0.89252
 C1275 C 0.70341 0.38521 0.46939
 C1276 C 0.69589 0.39719 0.44927
 C1277 C 0.71151 0.41328 0.43692
 C1278 C 0.73502 0.41749 0.44504
 C1279 C 0.74253 0.40562 0.46550
 C1280 C 0.72665 0.38953 0.47791
 N1281 N 0.70274 0.42453 0.41613
 N1282 N 0.71561 0.43763 0.40187
 C1283 C 0.70495 0.44775 0.38131
 C1284 C 0.71975 0.45890 0.36379
 C1285 C 0.70968 0.46736 0.34296
 C1286 C 0.68459 0.46478 0.33942
 C1287 C 0.66976 0.45438 0.35742
 C1288 C 0.67978 0.44591 0.37805
 H1289 H 0.69096 0.37234 0.47789
 H1290 H 0.67784 0.39362 0.44302
 H1291 H 0.74745 0.42981 0.43564
 H1292 H 0.76072 0.40882 0.47153
 H1293 H 0.73916 0.46050 0.36605
 H1294 H 0.72158 0.47527 0.32940
 H1295 H 0.65029 0.45271 0.35553
 H1296 H 0.66781 0.43769 0.39137
 C1297 C 0.74750 0.41778 0.52685
 C1298 C 0.75462 0.43156 0.54597
 C1299 C 0.75798 0.42020 0.56776
 C1300 C 0.75414 0.39488 0.57023
 C1301 C 0.74752 0.38114 0.55113
 C1302 C 0.74425 0.39243 0.52933
 N1303 N 0.76648 0.43424 0.58684
 N1304 N 0.76564 0.42560 0.60764
 C1305 C 0.77565 0.43805 0.62696
 C1306 C 0.77111 0.42860 0.64955
 C1307 C 0.78254 0.43870 0.66864
 C1308 C 0.79905 0.45822 0.66535
 C1309 C 0.80312 0.46811 0.64272
 C1310 C 0.79141 0.45820 0.62367
 H1311 H 0.74501 0.42686 0.51020
 H1312 H 0.75762 0.45105 0.54379
 H1313 H 0.75686 0.38559 0.58677
 H1314 H 0.74520 0.36155 0.55335
 H1315 H 0.75913 0.41297 0.65226
 H1316 H 0.77927 0.43059 0.68584
 H1317 H 0.81564 0.48328 0.63976
 H1318 H 0.79530 0.46571 0.60634
 C1319 C 0.25802 -0.07955 0.03835
 C1320 C 0.26375 -0.06791 0.05916
 C1321 C 0.28672 -0.07098 0.06872
 C1322 C 0.30409 -0.08528 0.05681
 C1323 C 0.29843 -0.09672 0.03611
 C1324 C 0.27536 -0.09407 0.02674
 N1325 N 0.29211 -0.06011 0.09064
 N1326 N 0.31166 -0.06561 0.10076
 C1327 C 0.31908 -0.05562 0.12235
 C1328 C 0.34100 -0.06374 0.13127
 C1329 C 0.34996 -0.05375 0.15151
 C1330 C 0.33715 -0.03530 0.16330
 C1331 C 0.31465 -0.02765 0.15482
 C1332 C 0.30566 -0.03771 0.13435
 H1333 H 0.23994 -0.07767 0.03161
 H1334 H 0.25014 -0.05699 0.06812
 H1335 H 0.32200 -0.08797 0.06369
 H1336 H 0.31203 -0.10823 0.02796
 H1337 H 0.35138 -0.07764 0.12222
 H1338 H 0.36711 -0.06033 0.15786
 H1339 H 0.30446 -0.01342 0.16357
 H1340 H 0.28861 -0.03123 0.12773
 C1341 C 0.24155 0.06196 0.46015
 C1342 C 0.25252 0.04976 0.44134
 C1343 C 0.27699 0.05412 0.43514
 C1344 C 0.29072 0.06999 0.44873
 C1345 C 0.27972 0.08222 0.46748
 C1346 C 0.25484 0.07900 0.47273
 N1347 N 0.28704 0.04359 0.41423
 N1348 N 0.30896 0.04768 0.40747
 C1349 C 0.31915 0.03880 0.38594
 C1350 C 0.34333 0.04468 0.38000
 C1351 C 0.35340 0.03838 0.35827
 C1352 C 0.33940 0.02604 0.34198
 C1353 C 0.31532 0.01934 0.34826
 C1354 C 0.30522 0.02574 0.37008
 H1355 H 0.22242 0.05886 0.46426
 H1356 H 0.24175 0.03747 0.43115
 H1357 H 0.30976 0.07345 0.44452
 H1358 H 0.29066 0.09447 0.47746
 H1359 H 0.35425 0.05470 0.39208
 H1360 H 0.37214 0.04338 0.35412
 H1361 H 0.30409 0.00991 0.33603
 H1362 H 0.28643 0.02104 0.37428
 C1363 C 0.80288 0.59590 0.97234
 C1364 C 0.81094 0.58133 0.95394
 C1365 C 0.79466 0.56627 0.94251
 C1366 C 0.77034 0.56468 0.95068
 C1367 C 0.76230 0.57906 0.96938
 C1368 C 0.77836 0.59537 0.97981
 N1369 N 0.80297 0.55484 0.92146
 N1370 N 0.78915 0.54286 0.90830
 C1371 C 0.79822 0.53360 0.88643
 C1372 C 0.78253 0.52090 0.87200
 C1373 C 0.79046 0.51376 0.84964
 C1374 C 0.81417 0.51952 0.84136
 C1375 C 0.83004 0.53159 0.85616
 C1376 C 0.82219 0.53853 0.87844
 H1377 H 0.81571 0.60834 0.97983
 H1378 H 0.82971 0.58273 0.94774
 H1379 H 0.75742 0.55313 0.94208
 H1380 H 0.74327 0.57850 0.97480
 H1381 H 0.76398 0.51706 0.87788
 H1382 H 0.77788 0.50448 0.83855
 H1383 H 0.84855 0.53583 0.85040
 H1384 H 0.83475 0.54826 0.88920
 C1385 C 0.02808 0.71603 0.58449
 C1386 C 0.04759 0.70815 0.57034
 C1387 C 0.07085 0.71814 0.57275
 C1388 C 0.07428 0.73661 0.58911
 C1389 C 0.05479 0.74453 0.60318
 C1390 C 0.03156 0.73422 0.60107
 N1391 N 0.09085 0.70826 0.55946
 N1392 N 0.11268 0.71522 0.56230
 C1393 C 0.13288 0.70457 0.54991
 C1394 C 0.15648 0.71135 0.55570
 C1395 C 0.17662 0.69970 0.54551
 C1396 C 0.17343 0.68106 0.52922
 C1397 C 0.14969 0.67499 0.52277
 C1398 C 0.12959 0.68657 0.53306
 H1399 H 0.01049 0.70731 0.58302
 H1400 H 0.04474 0.69372 0.55797
 H1401 H 0.09212 0.74453 0.59142
 H1402 H 0.05823 0.75819 0.61611
 H1403 H 0.15924 0.72517 0.56871
 H1404 H 0.19461 0.70464 0.55105
 H1405 H 0.14662 0.66105 0.50995
 H1406 H 0.11151 0.68113 0.52816
 C1407 C 0.50226 0.23929 1.07833
 C1408 C 0.52103 0.22743 1.06610
 C1409 C 0.54507 0.23578 1.06732
 C1410 C 0.54999 0.25688 1.08010
 C1411 C 0.53123 0.26877 1.09227
 C1412 C 0.50731 0.25979 1.09179
 N1413 N 0.56423 0.22158 1.05693
 N1414 N 0.58655 0.22725 1.05890
 C1415 C 0.60585 0.21242 1.04971
 C1416 C 0.62993 0.21966 1.05299
 C1417 C 0.64921 0.20484 1.04565
 C1418 C 0.64470 0.18239 1.03489
 C1419 C 0.62048 0.17539 1.03122
 C1420 C 0.60122 0.19025 1.03857
 H1421 H 0.48397 0.23188 1.07805
 H1422 H 0.51700 0.21114 1.05641
 H1423 H 0.56842 0.26369 1.08135
 H1424 H 0.53569 0.28432 1.10278
 H1425 H 0.63373 0.23663 1.06169
 H1426 H 0.66763 0.21063 1.04896
 H1427 H 0.61642 0.15840 1.02267
 H1428 H 0.58275 0.18424 1.03581
 C1429 C 0.96534 0.20930 0.91261
 C1430 C 0.94599 0.19935 0.92618
 C1431 C 0.92252 0.20881 0.92440
 C1432 C 0.91870 0.22870 0.90915
 C1433 C 0.93797 0.23855 0.89555
 C1434 C 0.96143 0.22886 0.89705
 N1435 N 0.90269 0.19724 0.93724
 N1436 N 0.88107 0.20525 0.93622
 C1437 C 0.86073 0.19347 0.94800
 C1438 C 0.83770 0.20386 0.94612
 C1439 C 0.81718 0.19222 0.95620
 C1440 C 0.81934 0.16984 0.96836
 C1441 C 0.84260 0.15966 0.97061
 C1442 C 0.86314 0.17136 0.96051
 H1443 H 0.98317 0.20119 0.91371
 H1444 H 0.94918 0.18391 0.93772
 H1445 H 0.90072 0.23629 0.90733
 H1446 H 0.93422 0.25333 0.88349
 H1447 H 0.83563 0.22090 0.93654
 H1448 H 0.79961 0.20074 0.95446
 H1449 H 0.84486 0.14232 0.97962
 H1450 H 0.88076 0.16292 0.96211
 C1451 C 0.46784 0.75978 0.39304
 C1452 C 0.44676 0.75111 0.40454
 C1453 C 0.44754 0.73078 0.41952
 C1454 C 0.46993 0.71935 0.42335
 C1455 C 0.49116 0.72800 0.41168
 C1456 C 0.49019 0.74824 0.39636
 N1457 N 0.42499 0.72138 0.42913
 N1458 N 0.42342 0.70411 0.44425
 C1459 C 0.40012 0.69473 0.45211
 C1460 C 0.39856 0.67835 0.47113
 C1461 C 0.37607 0.66826 0.47843
 C1462 C 0.35488 0.67416 0.46649
 C1463 C 0.35647 0.69075 0.44755
 C1464 C 0.37883 0.70106 0.44049
 H1465 H 0.46624 0.77499 0.38094
 H1466 H 0.42958 0.75988 0.40128
 H1467 H 0.47087 0.70340 0.43471
 H1468 H 0.50815 0.71856 0.41411
 H1469 H 0.41481 0.67324 0.48018
 H1470 H 0.37532 0.65534 0.49296
 H1471 H 0.34038 0.69570 0.43817
 H1472 H 0.37952 0.71360 0.42567
 C1473 C 0.56310 0.77959 0.38235
 C1474 C 0.58291 0.78889 0.39394
 C1475 C 0.58413 0.78643 0.41818
 C1476 C 0.56517 0.77440 0.43091
 C1477 C 0.54500 0.76534 0.41926
 C1478 C 0.54395 0.76792 0.39489
 N1479 N 0.60432 0.79746 0.42918
 N1480 N 0.60979 0.79342 0.45032
 C1481 C 0.62998 0.80602 0.45998
 C1482 C 0.64029 0.79715 0.48049
 C1483 C 0.66053 0.80895 0.48962
 C1484 C 0.67028 0.83011 0.47856
 C1485 C 0.65964 0.83914 0.45824
 C1486 C 0.63980 0.82717 0.44896
 H1487 H 0.56256 0.78188 0.36355
 H1488 H 0.59735 0.79824 0.38401
 H1489 H 0.56570 0.77257 0.44974
 H1490 H 0.53025 0.75668 0.42928
 H1491 H 0.63289 0.78090 0.48919
 H1492 H 0.66841 0.80174 0.50538
 H1493 H 0.66696 0.85529 0.44930
 H1494 H 0.63210 0.83450 0.43317
 C1495 C 0.01639 0.24880 -0.08353
 C1496 C 0.03625 0.25929 -0.07251
 C1497 C 0.05211 0.27531 -0.08490
 C1498 C 0.04792 0.28066 -0.10852
 C1499 C 0.02830 0.27005 -0.11950
 C1500 C 0.01244 0.25396 -0.10719
 N1501 N 0.07222 0.28607 -0.07334
 N1502 N 0.08528 0.30265 -0.08341
 C1503 C 0.10567 0.31391 -0.07285
 C1504 C 0.11672 0.33408 -0.08420
 C1505 C 0.13648 0.34585 -0.07447
 C1506 C 0.14575 0.33742 -0.05324
 C1507 C 0.13493 0.31686 -0.04201
 C1508 C 0.11490 0.30525 -0.05166
 H1509 H 0.00431 0.23673 -0.07351
 H1510 H 0.03919 0.25509 -0.05428
 H1511 H 0.05981 0.29300 -0.11853
 H1512 H 0.02546 0.27468 -0.13766
 H1513 H 0.10984 0.34081 -0.10060
 H1514 H 0.14466 0.36147 -0.08362
 H1515 H 0.14167 0.31009 -0.02557
 H1516 H 0.10669 0.28958 -0.04265
 C1517 C 0.43856 0.29619 0.11037
 C1518 C 0.41749 0.30473 0.10019
 C1519 C 0.41405 0.30185 0.07631
 C1520 C 0.43229 0.29071 0.06246
 C1521 C 0.45353 0.28221 0.07269
 C1522 C 0.45656 0.28461 0.09678
 N1523 N 0.39174 0.31022 0.06688
 N1524 N 0.38636 0.30780 0.04559
 C1525 C 0.36366 0.31651 0.03714
 C1526 C 0.35876 0.31453 0.01340
 C1527 C 0.33705 0.32361 0.00467
 C1528 C 0.31980 0.33474 0.01966
 C1529 C 0.32462 0.33628 0.04356
 C1530 C 0.34630 0.32728 0.05222
 H1531 H 0.44062 0.29825 0.12900
 H1532 H 0.40362 0.31334 0.11100
 H1533 H 0.43004 0.28844 0.04390
 H1534 H 0.46731 0.27351 0.06187
 H1535 H 0.37192 0.30618 0.00160
 H1536 H 0.33376 0.32198 -0.01379
 H1537 H 0.31194 0.34512 0.05550
 H1538 H 0.34960 0.32905 0.07067
 C1539 C 0.96351 0.77061 0.61969
 C1540 C 0.94408 0.78201 0.60906
 C1541 C 0.94013 0.77879 0.58534
 C1542 C 0.95601 0.76403 0.57213
 C1543 C 0.97586 0.75293 0.58272
 C1544 C 0.97964 0.75607 0.60664
 N1545 N 0.92038 0.79155 0.57519
 N1546 N 0.91195 0.78668 0.55533
 C1547 C 0.89235 0.80082 0.54643
 C1548 C 0.87719 0.79091 0.52975
 C1549 C 0.85666 0.80375 0.52258
 C1550 C 0.85128 0.82688 0.53179
 C1551 C 0.86741 0.83722 0.54752
 C1552 C 0.88756 0.82428 0.55491
 H1553 H 0.96617 0.77364 0.63808
 H1554 H 0.93205 0.79350 0.61935
 H1555 H 0.95339 0.76156 0.55365
 H1556 H 0.98818 0.74220 0.57212
 H1557 H 0.88074 0.77287 0.52299
 H1558 H 0.84462 0.79522 0.51047
 H1559 H 0.86437 0.85532 0.55435
 H1560 H 0.89931 0.83255 0.56743
   
