data_POSCAR
  _audit_creation_date              2014-09-24
  _audit_creation_method            'ToBaCCo'
  _symmetry_space_group_name_H-M    'P1'
  _symmetry_Int_Tables_number       1
  _symmetry_cell_setting            triclinic
  loop_
  _symmetry_equiv_pos_as_xyz
 x,y,z
_cell_length_a 67.5901
_cell_length_b 67.5817
_cell_length_c 67.6692
_cell_angle_alpha 90.007500
_cell_angle_beta 90.003500
_cell_angle_gamma 90.011200
loop_
  _atom_site_label
  _atom_site_type_symbol
  _atom_site_fract_x
  _atom_site_fract_y
  _atom_site_fract_z
C1 C 0.36045 0.33581 0.33613
 N2 N 0.35211 0.35220 0.32801
 C3 C 0.33572 0.36052 0.33612
 N4 N 0.32762 0.35222 0.35252
 C5 C 0.33575 0.33583 0.36085
 N6 N 0.35215 0.32771 0.35253
 C7 C 0.36051 0.83558 -0.16468
 N8 N 0.35222 0.82755 -0.14822
 C9 C 0.33584 0.83567 -0.13988
 N10 N 0.32767 0.85202 -0.14823
 C11 C 0.33568 0.86032 -0.16469
 N12 N 0.35209 0.85197 -0.17278
 C13 C 0.86023 0.33607 -0.16450
 N14 N 0.85194 0.32801 -0.14808
 C15 C 0.83555 0.33613 -0.13977
 N16 N 0.82740 0.35249 -0.14813
 C17 C 0.83544 0.36080 -0.16459
 N18 N 0.85187 0.35243 -0.17265
 C19 C 0.86082 0.83545 0.33569
 N20 N 0.85249 0.85190 0.32765
 C21 C 0.83614 0.86028 0.33580
 N22 N 0.82805 0.85199 0.35220
 C23 C 0.83615 0.83558 0.36050
 N24 N 0.85250 0.82741 0.35213
 C25 C 0.63944 0.66413 0.33599
 N26 N 0.64776 0.64774 0.32788
 C27 C 0.66416 0.63940 0.33598
 N28 N 0.67226 0.64771 0.35238
 C29 C 0.66414 0.66410 0.36071
 N30 N 0.64775 0.67223 0.35239
 C31 C 0.63957 0.16448 -0.16481
 N32 N 0.64787 0.17252 -0.14836
 C33 C 0.66426 0.16442 -0.14003
 N34 N 0.67243 0.14806 -0.14838
 C35 C 0.66441 0.13974 -0.16483
 N36 N 0.64798 0.14809 -0.17291
 C37 C 0.13989 0.66401 -0.16447
 N38 N 0.14819 0.67209 -0.14807
 C39 C 0.16458 0.66397 -0.13976
 N40 N 0.17272 0.64760 -0.14811
 C41 C 0.16467 0.63928 -0.16455
 N42 N 0.14824 0.64764 -0.17261
 C43 C 0.13972 0.16458 0.33513
 N44 N 0.14811 0.14818 0.32703
 C45 C 0.16449 0.13977 0.33514
 N46 N 0.17248 0.14804 0.35163
 C47 C 0.16434 0.16440 0.35998
 N48 N 0.14800 0.17257 0.35162
 C49 C 0.63940 0.33570 0.66401
 N50 N 0.64771 0.32760 0.64761
 C51 C 0.66409 0.33574 0.63929
 N52 N 0.67220 0.35215 0.64761
 C53 C 0.66410 0.36045 0.66401
 N54 N 0.64771 0.35210 0.67212
 C55 C 0.63919 0.83539 1.16451
 N56 N 0.64750 0.82734 1.14806
 C57 C 0.66385 0.83549 1.13969
 N58 N 0.67197 0.85190 1.14798
 C59 C 0.66390 0.86020 1.16439
 N60 N 0.64755 0.85184 1.17255
 C61 C 0.13971 0.33563 1.16469
 N62 N 0.14802 0.32760 1.14824
 C63 C 0.16439 0.33575 1.13990
 N64 N 0.17252 0.35213 1.14824
 C65 C 0.16449 0.36044 1.16469
 N66 N 0.14808 0.35204 1.17277
 C67 C 0.13962 0.83555 0.66470
 N68 N 0.14803 0.85194 0.67281
 C69 C 0.16445 0.86031 0.66474
 N70 N 0.17246 0.85201 0.64827
 C71 C 0.16429 0.83567 0.63990
 N72 N 0.14790 0.82754 0.64823
 C73 C 0.36048 0.66419 0.66406
 N74 N 0.35216 0.64779 0.67217
 C75 C 0.33577 0.63944 0.66406
 N76 N 0.32767 0.64774 0.64766
 C77 C 0.33578 0.66414 0.63934
 N78 N 0.35217 0.67228 0.64766
 C79 C 0.36036 0.16449 1.16485
 N80 N 0.35207 0.17251 1.14838
 C81 C 0.33570 0.16437 1.14005
 N82 N 0.32754 0.14801 1.14839
 C83 C 0.33555 0.13971 1.16485
 N84 N 0.35197 0.14809 1.17294
 C85 C 0.86012 0.66396 1.16436
 N86 N 0.85183 0.67204 1.14796
 C87 C 0.83542 0.66392 1.13965
 N88 N 0.82728 0.64755 1.14801
 C89 C 0.83533 0.63923 1.16445
 N90 N 0.85177 0.64759 1.17250
 C91 C 0.86038 0.16444 0.66467
 N92 N 0.85197 0.14806 0.67277
 C93 C 0.83555 0.13969 0.66469
 N94 N 0.82754 0.14799 0.64823
 C95 C 0.83571 0.16434 0.63987
 N96 N 0.85210 0.17246 0.64820
 C97 C 0.33559 0.36013 0.66464
 N98 N 0.35198 0.35180 0.67275
 C99 C 0.36030 0.33539 0.66465
 N100 N 0.35198 0.32728 0.64825
 C101 C 0.33559 0.33541 0.63993
 N102 N 0.32748 0.35181 0.64825
 C103 C 0.33584 0.86107 0.16405
 N104 N 0.32771 0.85274 0.14767
 C105 C 0.33584 0.83634 0.13935
 N106 N 0.35225 0.82824 0.14766
 C107 C 0.36057 0.83636 0.16404
 N108 N 0.35225 0.85275 0.17215
 C109 C 0.83630 0.36051 0.16394
 N110 N 0.85270 0.35219 0.17204
 C111 C 0.86100 0.33577 0.16395
 N112 N 0.85266 0.32763 0.14758
 C113 C 0.83626 0.33575 0.13927
 N114 N 0.82817 0.35217 0.14757
 C115 C 0.83601 0.86112 0.66420
 N116 N 0.85243 0.85281 0.67230
 C117 C 0.86076 0.83642 0.66418
 N118 N 0.85243 0.82829 0.64781
 C119 C 0.83601 0.83638 0.63951
 N120 N 0.82788 0.85278 0.64783
 C121 C 0.66421 0.63968 0.66455
 N122 N 0.67231 0.64799 0.64815
 C123 C 0.66420 0.66439 0.63983
 N124 N 0.64781 0.67252 0.64816
 C125 C 0.63950 0.66443 0.66456
 N126 N 0.64782 0.64802 0.67267
 C127 C 0.66397 0.13916 0.16380
 N128 N 0.67209 0.14749 0.14743
 C129 C 0.66394 0.16387 0.13910
 N130 N 0.64751 0.17195 0.14739
 C131 C 0.63919 0.16382 0.16376
 N132 N 0.64755 0.14745 0.17189
 C133 C 0.16380 0.63941 0.16390
 N134 N 0.17194 0.64774 0.14754
 C135 C 0.16387 0.66418 0.13926
 N136 N 0.14749 0.67233 0.14759
 C137 C 0.13915 0.66420 0.16395
 N138 N 0.14742 0.64776 0.17202
 C139 C 0.16390 0.13868 0.66415
 N140 N 0.14748 0.14699 0.67225
 C141 C 0.13914 0.16337 0.66412
 N142 N 0.14746 0.17147 0.64773
 C143 C 0.16387 0.16337 0.63943
 N144 N 0.17201 0.14699 0.64776
 C145 C 0.33549 0.63962 0.33549
 N146 N 0.32739 0.64794 0.35189
 C147 C 0.33552 0.66433 0.36021
 N148 N 0.35192 0.67245 0.35189
 C149 C 0.36023 0.66434 0.33550
 N150 N 0.35190 0.64795 0.32738
 C151 C 0.33586 0.13882 0.83618
 N152 N 0.32772 0.14716 0.85254
 C153 C 0.33585 0.16356 0.86086
 N154 N 0.35228 0.17166 0.85257
 C155 C 0.36061 0.16352 0.83621
 N156 N 0.35228 0.14712 0.82810
 C157 C 0.83619 0.63956 0.83589
 N158 N 0.85256 0.64791 0.82776
 C159 C 0.86086 0.66434 0.83584
 N160 N 0.85253 0.67246 0.85223
 C161 C 0.83616 0.66431 0.86056
 N162 N 0.82808 0.64788 0.85227
 C163 C 0.83641 0.13938 0.33577
 N164 N 0.85281 0.14770 0.32766
 C165 C 0.86115 0.16409 0.33578
 N166 N 0.85284 0.17220 0.35218
 C167 C 0.83644 0.16408 0.36049
 N168 N 0.82831 0.14769 0.35216
 C169 C 0.66436 0.36023 0.33547
 N170 N 0.64796 0.35190 0.32736
 C171 C 0.63963 0.33550 0.33548
 N172 N 0.64795 0.32739 0.35187
 C173 C 0.66435 0.33552 0.36018
 N174 N 0.67247 0.35192 0.35186
 C175 C 0.66415 0.86115 0.83602
 N176 N 0.67228 0.85280 0.85239
 C177 C 0.66415 0.83640 0.86070
 N178 N 0.64772 0.82832 0.85240
 C179 C 0.63938 0.83646 0.83604
 N180 N 0.64772 0.85285 0.82794
 C181 C 0.16383 0.36035 0.83602
 N182 N 0.17194 0.35203 0.85240
 C183 C 0.16386 0.33559 0.86068
 N184 N 0.14749 0.32744 0.85233
 C185 C 0.13917 0.33556 0.83595
 N186 N 0.14746 0.35199 0.82788
 C187 C 0.16398 0.86109 0.33587
 N188 N 0.14758 0.85275 0.32776
 C189 C 0.13926 0.83636 0.33587
 N190 N 0.14758 0.82825 0.35226
 C191 C 0.16398 0.83637 0.36057
 N192 N 0.17210 0.85277 0.35225
 O193 O 0.24786 1.02002 0.27507
 O194 O 0.27506 0.98141 0.24793
 O195 O 0.27511 1.02000 0.24798
 O196 O 0.24788 0.98143 0.27509
 O197 O 0.22482 0.98143 0.25203
 O198 O 0.25207 1.02001 0.22490
 O199 O 0.25200 0.98143 0.22487
 O200 O 0.22482 1.02002 0.25200
 Cu201 Cu 0.26379 1.00071 0.26383
 Cu202 Cu 0.23612 1.00072 0.23614
 C203 C 0.23173 1.02672 0.26813
 C204 C 0.26814 0.97472 0.23180
 C205 C 0.26820 1.02671 0.23185
 C206 C 0.23174 0.97473 0.26816
 O207 O 0.25184 0.51926 0.72509
 O208 O 0.22461 0.48078 0.75233
 O209 O 0.22469 0.51937 0.75228
 O210 O 0.25181 0.48068 0.72519
 O211 O 0.27489 0.48070 0.74822
 O212 O 0.24778 0.51938 0.77532
 O213 O 0.24769 0.48079 0.77537
 O214 O 0.27492 0.51929 0.74812
 Cu215 Cu 0.23592 0.50002 0.73642
 Cu216 Cu 0.26363 0.50004 0.76406
 C217 C 0.26799 0.52595 0.73198
 C218 C 0.23154 0.47410 0.76846
 C219 C 0.23164 0.52609 0.76839
 C220 C 0.26795 0.47398 0.73212
 O221 O 0.72504 0.01916 0.24789
 O222 O 0.75225 -0.01939 0.27507
 O223 O 0.75226 0.01919 0.27502
 O224 O 0.72500 -0.01942 0.24798
 O225 O 0.74803 -0.01947 0.22489
 O226 O 0.77530 0.01915 0.25195
 O227 O 0.77528 -0.01944 0.25199
 O228 O 0.74808 0.01911 0.22482
 Cu229 Cu 0.73633 -0.00011 0.26380
 Cu230 Cu 0.76398 -0.00017 0.23610
 C231 C 0.73195 0.02582 0.23175
 C232 C 0.76838 -0.02610 0.26813
 C233 C 0.76840 0.02586 0.26808
 C234 C 0.73189 -0.02614 0.23185
 O235 O 0.72504 0.51920 0.74814
 O236 O 0.75219 0.48055 0.77522
 O237 O 0.75227 0.51914 0.77525
 O238 O 0.72502 0.48062 0.74804
 O239 O 0.74808 0.48064 0.72499
 O240 O 0.77533 0.51915 0.75219
 O241 O 0.77525 0.48055 0.75216
 O242 O 0.74809 0.51922 0.72508
 Cu243 Cu 0.73632 0.49988 0.76397
 Cu244 Cu 0.76400 0.49989 0.73630
 C245 C 0.73196 0.52592 0.73202
 C246 C 0.76832 0.47385 0.76828
 C247 C 0.76842 0.52583 0.76833
 C248 C 0.73193 0.47395 0.73190
 O249 O 0.22445 0.51901 0.24770
 O250 O 0.25167 0.48055 0.27498
 O251 O 0.25163 0.51913 0.27486
 O252 O 0.22452 0.48042 0.24778
 O253 O 0.24760 0.48040 0.22476
 O254 O 0.27472 0.51910 0.25184
 O255 O 0.27476 0.48052 0.25195
 O256 O 0.24754 0.51899 0.22467
 Cu257 Cu 0.23575 0.49978 0.26364
 Cu258 Cu 0.26347 0.49975 0.23600
 C259 C 0.23139 0.52568 0.23157
 C260 C 0.26783 0.47386 0.26809
 C261 C 0.26777 0.52583 0.26794
 C262 C 0.23147 0.47369 0.23168
 O263 O 0.77516 0.98149 0.74799
 O264 O 0.74793 1.02009 0.77510
 O265 O 0.74799 0.98150 0.77516
 O266 O 0.77516 1.02008 0.74798
 O267 O 0.75210 1.02005 0.72493
 O268 O 0.72492 0.98146 0.75211
 O269 O 0.72488 1.02005 0.75204
 O270 O 0.75209 0.98145 0.72494
 Cu271 Cu 0.76387 1.00079 0.76387
 Cu272 Cu 0.73619 1.00075 0.73619
 C273 C 0.76824 0.97478 0.73186
 C274 C 0.73179 1.02677 0.76816
 C275 C 0.73185 0.97479 0.76824
 C276 C 0.76824 1.02676 0.73185
 O277 O 0.74815 0.51930 0.27493
 O278 O 0.77539 0.48082 0.24770
 O279 O 0.77528 0.51941 0.24772
 O280 O 0.74818 0.48072 0.27483
 O281 O 0.72510 0.48071 0.25180
 O282 O 0.75220 0.51939 0.22469
 O283 O 0.75231 0.48080 0.22467
 O284 O 0.72506 0.51930 0.25190
 Cu285 Cu 0.76407 0.50007 0.26360
 Cu286 Cu 0.73636 0.50005 0.23595
 C287 C 0.73199 0.52598 0.26803
 C288 C 0.76847 0.47413 0.23157
 C289 C 0.76833 0.52611 0.23161
 C290 C 0.73205 0.47401 0.26791
 O291 O 0.22485 0.01847 0.74808
 O292 O 0.25209 -0.02010 0.77520
 O293 O 0.25202 0.01849 0.77526
 O294 O 0.22486 -0.02011 0.74809
 O295 O 0.24791 -0.02008 0.72503
 O296 O 0.27508 0.01852 0.75221
 O297 O 0.27515 -0.02006 0.75215
 O298 O 0.24792 0.01850 0.72503
 Cu299 Cu 0.23614 -0.00082 0.76397
 Cu300 Cu 0.26383 -0.00077 0.73630
 C301 C 0.23177 0.02518 0.73195
 C302 C 0.26824 -0.02678 0.76827
 C303 C 0.26815 0.02520 0.76834
 C304 C 0.23178 -0.02679 0.73196
 O305 O 0.24787 0.27492 0.98087
 O306 O 0.27510 0.24782 1.01943
 O307 O 0.27506 0.24773 0.98089
 O308 O 0.24793 0.27501 1.01941
 O309 O 0.22485 0.25194 1.01947
 O310 O 0.25198 0.22466 0.98096
 O311 O 0.25202 0.22475 1.01950
 O312 O 0.22480 0.25185 0.98093
 Cu313 Cu 0.26380 0.26368 1.00014
 Cu314 Cu 0.23610 0.23599 1.00022
 C315 C 0.23172 0.26798 0.97421
 C316 C 0.26817 0.23169 1.02616
 C317 C 0.26812 0.23157 0.97424
 C318 C 0.23179 0.26809 1.02613
 O319 O 0.24781 0.77535 0.48071
 O320 O 0.27500 0.74806 0.51916
 O321 O 0.27494 0.74812 0.48063
 O322 O 0.24782 0.77526 0.51925
 O323 O 0.22473 0.75220 0.51922
 O324 O 0.25185 0.72506 0.48061
 O325 O 0.25191 0.72501 0.51915
 O326 O 0.22471 0.75230 0.48068
 Cu327 Cu 0.26371 0.76401 0.49994
 Cu328 Cu 0.23598 0.73633 0.49991
 C329 C 0.23165 0.76845 0.47402
 C330 C 0.26806 0.73191 0.52583
 C331 C 0.26799 0.73199 0.47392
 C332 C 0.23168 0.76833 0.52594
 O333 O 0.22503 0.74792 -0.01940
 O334 O 0.25210 0.77524 0.01914
 O335 O 0.25217 0.77516 -0.01940
 O336 O 0.22494 0.74802 0.01913
 O337 O 0.24803 0.72497 0.01922
 O338 O 0.27527 0.75211 -0.01932
 O339 O 0.27520 0.75219 0.01922
 O340 O 0.24812 0.72488 -0.01932
 Cu341 Cu 0.23625 0.76389 -0.00014
 Cu342 Cu 0.26397 0.73623 -0.00004
 C343 C 0.23199 0.73178 -0.02605
 C344 C 0.26824 0.76834 0.02587
 C345 C 0.26833 0.76823 -0.02605
 C346 C 0.23186 0.73189 0.02586
 O347 O 0.27497 0.25180 0.48095
 O348 O 0.24775 0.22447 0.51936
 O349 O 0.24778 0.22461 0.48082
 O350 O 0.27491 0.25170 0.51949
 O351 O 0.25183 0.27475 0.51953
 O352 O 0.22470 0.24767 0.48087
 O353 O 0.22467 0.24753 0.51941
 O354 O 0.25189 0.27486 0.48099
 Cu355 Cu 0.26367 0.23583 0.50015
 Cu356 Cu 0.23596 0.26351 0.50020
 C357 C 0.26804 0.26796 0.47430
 C358 C 0.23160 0.23137 0.52605
 C359 C 0.23165 0.23155 0.47413
 C360 C 0.26797 0.26782 0.52621
 O361 O 0.75200 0.72490 0.98068
 O362 O 0.72469 0.75196 1.01922
 O363 O 0.72481 0.75210 0.98068
 O364 O 0.75188 0.72478 1.01922
 O365 O 0.77495 0.74786 1.01934
 O366 O 0.74788 0.77517 0.98081
 O367 O 0.74776 0.77504 1.01935
 O368 O 0.77506 0.74798 0.98080
 Cu369 Cu 0.73603 0.73612 0.99993
 Cu370 Cu 0.76373 0.76382 1.00009
 C371 C 0.76816 0.73185 0.97405
 C372 C 0.73161 0.76809 1.02598
 C373 C 0.73176 0.76826 0.97407
 C374 C 0.76801 0.73170 1.02597
 O375 O 0.75237 0.22475 0.48064
 O376 O 0.72506 0.25192 0.51910
 O377 O 0.72512 0.25187 0.48056
 O378 O 0.75227 0.22476 0.51918
 O379 O 0.77531 0.24787 0.51922
 O380 O 0.74816 0.27498 0.48059
 O381 O 0.74810 0.27503 0.51913
 O382 O 0.77541 0.24786 0.48067
 Cu383 Cu 0.73640 0.23601 0.49987
 Cu384 Cu 0.76405 0.26375 0.49990
 C385 C 0.76852 0.23170 0.47398
 C386 C 0.73195 0.26808 0.52579
 C387 C 0.73204 0.26802 0.47388
 C388 C 0.76839 0.23173 0.52590
 O389 O 0.77504 0.25219 -0.01947
 O390 O 0.74788 0.22490 0.01902
 O391 O 0.74789 0.22496 -0.01951
 O392 O 0.77512 0.25204 0.01906
 O393 O 0.75206 0.27512 0.01914
 O394 O 0.72482 0.24803 -0.01945
 O395 O 0.72482 0.24797 0.01909
 O396 O 0.75197 0.27526 -0.01940
 Cu397 Cu 0.76379 0.23621 -0.00023
 Cu398 Cu 0.73611 0.26391 -0.00014
 C399 C 0.76810 0.26834 -0.02612
 C400 C 0.73175 0.23181 0.02573
 C401 C 0.73175 0.23190 -0.02618
 C402 C 0.76821 0.26818 0.02579
 O403 O 0.77527 0.75206 0.48093
 O404 O 0.74804 0.72498 0.51950
 O405 O 0.74803 0.72492 0.48096
 O406 O 0.77522 0.75219 0.51947
 O407 O 0.75216 0.77527 0.51940
 O408 O 0.72498 0.74801 0.48091
 O409 O 0.72498 0.74807 0.51945
 O410 O 0.75222 0.77515 0.48086
 Cu411 Cu 0.76395 0.73622 0.50022
 Cu412 Cu 0.73628 0.76394 0.50015
 C413 C 0.76836 0.76819 0.47420
 C414 C 0.73190 0.73193 0.52617
 C415 C 0.73190 0.73185 0.47425
 C416 C 0.76830 0.76835 0.52611
 O417 O 0.98145 0.25206 0.22474
 O418 O 1.02006 0.22492 0.25189
 O419 O 0.98148 0.22491 0.25193
 O420 O 1.02004 0.25215 0.22477
 O421 O 1.02002 0.27521 0.24783
 O422 O 0.98147 0.24799 0.27497
 O423 O 1.02005 0.24799 0.27494
 O424 O 0.98143 0.27514 0.24778
 Cu425 Cu 1.00076 0.23620 0.23603
 Cu426 Cu 1.00074 0.26389 0.26369
 C427 C 0.97474 0.26820 0.23166
 C428 C 1.02676 0.23185 0.26801
 C429 C 0.97478 0.23184 0.26806
 C430 C 1.02672 0.26830 0.23170
 O431 O 0.51938 0.27466 0.74811
 O432 O 0.48093 0.24741 0.77538
 O433 O 0.51951 0.24748 0.77528
 O434 O 0.48081 0.27461 0.74824
 O435 O 0.48077 0.25153 0.72519
 O436 O 0.51949 0.22441 0.75223
 O437 O 0.48090 0.22433 0.75234
 O438 O 0.51935 0.25159 0.72507
 Cu439 Cu 0.50016 0.26335 0.76406
 Cu440 Cu 0.50012 0.23565 0.73640
 C441 C 0.52604 0.26774 0.73197
 C442 C 0.47424 0.23125 0.76848
 C443 C 0.52622 0.23136 0.76834
 C444 C 0.47407 0.26767 0.73213
 O445 O -0.01958 0.27482 0.75183
 O446 O 0.01893 0.24747 0.72474
 O447 O -0.01966 0.24757 0.72473
 O448 O 0.01900 0.27469 0.75188
 O449 O 0.01892 0.25165 0.77495
 O450 O -0.01974 0.22453 0.74781
 O451 O 0.01885 0.22443 0.74781
 O452 O -0.01966 0.25179 0.77490
 Cu453 Cu -0.00032 0.26344 0.73598
 Cu454 Cu -0.00041 0.23579 0.76368
 C455 C -0.02630 0.26794 0.76796
 C456 C 0.02557 0.23132 0.73168
 C457 C -0.02641 0.23145 0.73168
 C458 C 0.02566 0.26777 0.76802
 O459 O 0.51908 0.25170 0.27491
 O460 O 0.48035 0.22459 0.24786
 O461 O 0.51894 0.22453 0.24772
 O462 O 0.48050 0.25177 0.27503
 O463 O 0.48046 0.27485 0.25200
 O464 O 0.51890 0.24762 0.22470
 O465 O 0.48032 0.24767 0.22483
 O466 O 0.51904 0.27479 0.25188
 Cu467 Cu 0.49972 0.23583 0.26369
 Cu468 Cu 0.49968 0.26355 0.23605
 C469 C 0.52578 0.26784 0.26798
 C470 C 0.47362 0.23153 0.23176
 C471 C 0.52559 0.23146 0.23159
 C472 C 0.47381 0.26793 0.26815
 O473 O 1.01975 0.77543 0.74781
 O474 O 0.98112 0.74829 0.77495
 O475 O 1.01970 0.74819 0.77492
 O476 O 0.98116 0.77550 0.74782
 O477 O 0.98111 0.75245 0.72475
 O478 O 1.01964 0.72515 0.75184
 O479 O 0.98106 0.72524 0.75188
 O480 O 1.01969 0.75239 0.72474
 Cu481 Cu 1.00044 0.76416 0.76369
 Cu482 Cu 1.00037 0.73650 0.73599
 C483 C 1.02643 0.76851 0.73168
 C484 C 0.97440 0.73216 0.76802
 C485 C 1.02636 0.73204 0.76797
 C486 C 0.97445 0.76860 0.73169
 O487 O 0.51943 0.77529 0.24782
 O488 O 0.48074 0.74818 0.27493
 O489 O 0.51932 0.74814 0.27501
 O490 O 0.48084 0.77540 0.24780
 O491 O 0.48082 0.75232 0.22476
 O492 O 0.51931 0.72506 0.25197
 O493 O 0.48073 0.72510 0.25188
 O494 O 0.51940 0.75222 0.22478
 Cu495 Cu 0.50008 0.76407 0.26370
 Cu496 Cu 0.50007 0.73636 0.23604
 C497 C 0.52612 0.76835 0.23170
 C498 C 0.47403 0.73204 0.26799
 C499 C 0.52600 0.73199 0.26811
 C500 C 0.47415 0.76848 0.23167
 O501 O -0.01964 0.77523 0.25221
 O502 O 0.01896 0.74812 0.22499
 O503 O -0.01962 0.74804 0.22504
 O504 O 0.01895 0.77531 0.25215
 O505 O 0.01902 0.75224 0.27519
 O506 O -0.01956 0.72497 0.24809
 O507 O 0.01902 0.72504 0.24803
 O508 O -0.01957 0.75215 0.27525
 Cu509 Cu -0.00035 0.76399 0.23629
 Cu510 Cu -0.00026 0.73629 0.26395
 C511 C -0.02630 0.76828 0.26834
 C512 C 0.02568 0.73198 0.23189
 C513 C -0.02628 0.73188 0.23197
 C514 C 0.02567 0.76840 0.26827
 O515 O 0.48043 0.77553 0.75222
 O516 O 0.51912 0.74838 0.72516
 O517 O 0.48054 0.74834 0.72506
 O518 O 0.51902 0.77561 0.75228
 O519 O 0.51901 0.75255 0.77534
 O520 O 0.48052 0.72528 0.74812
 O521 O 0.51910 0.72532 0.74821
 O522 O 0.48043 0.75247 0.77528
 Cu523 Cu 0.49978 0.76428 0.73637
 Cu524 Cu 0.49976 0.73660 0.76405
 C525 C 0.47372 0.76860 0.76833
 C526 C 0.52582 0.73225 0.73210
 C527 C 0.47385 0.73219 0.73197
 C528 C 0.52570 0.76870 0.76842
 C529 C 0.41023 0.30799 0.30828
 C530 C 0.40234 0.32539 0.30013
 C531 C 0.38626 0.33459 0.30945
 C532 C 0.37799 0.32647 0.32679
 C533 C 0.38627 0.30911 0.33486
 C534 C 0.40236 0.29979 0.32564
 C535 C 0.42687 0.29803 0.29830
 C536 C 0.43459 0.28049 0.30632
 C537 C 0.45015 0.27086 0.29656
 C538 C 0.45795 0.27860 0.27885
 C539 C 0.45014 0.29634 0.27115
 C540 C 0.43457 0.30609 0.28080
 C541 C 0.41059 0.28232 0.33332
 C542 C 0.42644 0.27283 0.32382
 C543 C 0.41057 0.33311 0.28268
 C544 C 0.42641 0.32362 0.27318
 H545 H 0.40467 0.27585 0.34672
 H546 H 0.43227 0.25932 0.33017
 H547 H 0.40463 0.34653 0.27625
 H548 H 0.43224 0.33001 0.25970
 H549 H 0.38009 0.34793 0.30306
 H550 H 0.38011 0.30268 0.34818
 H551 H 0.45602 0.25723 0.30263
 H552 H 0.45599 0.30246 0.25754
 C553 C 0.40972 0.80839 0.80811
 C554 C 0.40174 0.82569 0.79987
 C555 C 0.38557 0.83483 0.80910
 C556 C 0.37721 0.82676 0.82648
 C557 C 0.38569 0.80944 0.83462
 C558 C 0.40186 0.80022 0.82547
 C559 C 0.42647 0.79851 0.79822
 C560 C 0.43428 0.78106 0.80633
 C561 C 0.44994 0.77149 0.79665
 C562 C 0.45775 0.77922 0.77894
 C563 C 0.44984 0.79687 0.77115
 C564 C 0.43417 0.80655 0.78071
 C565 C 0.41020 0.78283 0.83325
 C566 C 0.42614 0.77342 0.82384
 C567 C 0.40997 0.83340 0.78242
 C568 C 0.42591 0.82400 0.77300
 H569 H 0.40429 0.77638 0.84666
 H570 H 0.43204 0.75997 0.83026
 H571 H 0.40397 0.84677 0.77591
 H572 H 0.43173 0.83037 0.75951
 H573 H 0.37943 0.84812 0.80254
 H574 H 0.37964 0.80294 0.84796
 H575 H 0.45588 0.75793 0.80281
 H576 H 0.45569 0.80298 0.75754
 C577 C -0.08996 0.30817 0.80781
 C578 C -0.09786 0.32551 0.79955
 C579 C -0.11396 0.33475 0.80882
 C580 C -0.12223 0.32672 0.82620
 C581 C -0.11392 0.30940 0.83437
 C582 C -0.09783 0.30006 0.82521
 C583 C -0.07330 0.29817 0.79790
 C584 C -0.06557 0.28068 0.80602
 C585 C -0.04999 0.27101 0.79632
 C586 C -0.04219 0.27866 0.77858
 C587 C -0.05001 0.29635 0.77077
 C588 C -0.06559 0.30614 0.78035
 C589 C -0.08958 0.28264 0.83300
 C590 C -0.07372 0.27312 0.82356
 C591 C -0.08963 0.33314 0.78207
 C592 C -0.07377 0.32362 0.77263
 H593 H -0.09550 0.27624 0.84643
 H594 H -0.06787 0.25965 0.82999
 H595 H -0.09558 0.34652 0.77556
 H596 H -0.06795 0.32993 0.75912
 H597 H -0.12015 0.34804 0.80235
 H598 H -0.12008 0.30305 0.84772
 H599 H -0.04411 0.25742 0.80248
 H600 H -0.04415 0.30240 0.75714
 C601 C -0.09011 0.80815 0.30834
 C602 C -0.09802 0.82552 0.30017
 C603 C -0.11414 0.83469 0.30945
 C604 C -0.12252 0.82658 0.32681
 C605 C -0.11412 0.80920 0.33487
 C606 C -0.09799 0.79994 0.32568
 C607 C -0.07341 0.79823 0.29839
 C608 C -0.06566 0.78072 0.30642
 C609 C -0.05004 0.77114 0.29670
 C610 C -0.04222 0.77891 0.27901
 C611 C -0.05008 0.79662 0.27129
 C612 C -0.06569 0.80632 0.28091
 C613 C -0.08971 0.78249 0.33337
 C614 C -0.07382 0.77304 0.32391
 C615 C -0.08977 0.83327 0.28275
 C616 C -0.07388 0.82383 0.27328
 H617 H -0.09564 0.77600 0.34676
 H618 H -0.06796 0.75955 0.33027
 H619 H -0.09573 0.84668 0.27631
 H620 H -0.06805 0.83024 0.25981
 H621 H -0.12023 0.84803 0.30296
 H622 H -0.12019 0.80267 0.34819
 H623 H -0.04415 0.75753 0.30279
 H624 H -0.04421 0.80276 0.25770
 C625 C 0.58964 0.69194 0.30817
 C626 C 0.59753 0.67456 0.30000
 C627 C 0.61362 0.66536 0.30932
 C628 C 0.62190 0.67347 0.32666
 C629 C 0.61361 0.69083 0.33474
 C630 C 0.59752 0.70014 0.32554
 C631 C 0.57298 0.70190 0.29821
 C632 C 0.56526 0.71943 0.30624
 C633 C 0.54969 0.72905 0.29649
 C634 C 0.54188 0.72131 0.27878
 C635 C 0.54970 0.70358 0.27107
 C636 C 0.56527 0.69384 0.28070
 C637 C 0.58927 0.71760 0.33323
 C638 C 0.57342 0.72708 0.32374
 C639 C 0.58930 0.66683 0.28256
 C640 C 0.57344 0.67631 0.27307
 H641 H 0.59521 0.72407 0.34663
 H642 H 0.56758 0.74059 0.33011
 H643 H 0.59524 0.65342 0.27612
 H644 H 0.56762 0.66993 0.25959
 H645 H 0.61979 0.65202 0.30291
 H646 H 0.61978 0.69725 0.34806
 H647 H 0.54382 0.74268 0.30259
 H648 H 0.54384 0.69747 0.25746
 C649 C 0.59030 0.19162 0.80804
 C650 C 0.59828 0.17432 0.79979
 C651 C 0.61447 0.16520 0.80900
 C652 C 0.62285 0.17328 0.82637
 C653 C 0.61437 0.19060 0.83452
 C654 C 0.59818 0.19981 0.82539
 C655 C 0.57353 0.20149 0.79817
 C656 C 0.56571 0.21893 0.80629
 C657 C 0.55003 0.22849 0.79663
 C658 C 0.54221 0.22075 0.77893
 C659 C 0.55012 0.20309 0.77113
 C660 C 0.56580 0.19343 0.78067
 C661 C 0.58983 0.21719 0.83317
 C662 C 0.57388 0.22659 0.82378
 C663 C 0.59002 0.16659 0.78235
 C664 C 0.57407 0.17599 0.77296
 H665 H 0.59577 0.22365 0.84658
 H666 H 0.56797 0.24003 0.83021
 H667 H 0.59603 0.15324 0.77584
 H668 H 0.56823 0.16960 0.75947
 H669 H 0.62061 0.15191 0.80244
 H670 H 0.62043 0.19711 0.84785
 H671 H 0.54409 0.24205 0.80279
 H672 H 0.54425 0.19698 0.75753
 C673 C 1.09006 0.69188 0.80783
 C674 C 1.09796 0.67454 0.79958
 C675 C 1.11407 0.66531 0.80885
 C676 C 1.12235 0.67336 0.82622
 C677 C 1.11404 0.69068 0.83438
 C678 C 1.09794 0.70001 0.82522
 C679 C 1.07339 0.70187 0.79791
 C680 C 1.06566 0.71936 0.80602
 C681 C 1.05007 0.72901 0.79633
 C682 C 1.04226 0.72134 0.77859
 C683 C 1.05009 0.70364 0.77079
 C684 C 1.06568 0.69388 0.78038
 C685 C 1.08968 0.71744 0.83299
 C686 C 1.07382 0.72695 0.82355
 C687 C 1.08973 0.66688 0.78211
 C688 C 1.07386 0.67639 0.77267
 H689 H 1.09561 0.72385 0.84642
 H690 H 1.06797 0.74042 0.82998
 H691 H 1.09568 0.65350 0.77560
 H692 H 1.06803 0.67006 0.75916
 H693 H 1.12026 0.65201 0.80239
 H694 H 1.12020 0.69706 0.84773
 H695 H 1.04419 0.74260 0.80248
 H696 H 1.04422 0.69758 0.75717
 C697 C 1.09063 0.19191 0.30786
 C698 C 1.09848 0.20006 0.32524
 C699 C 1.11462 0.19079 0.33441
 C700 C 1.12306 0.17346 0.32627
 C701 C 1.11470 0.16541 0.30887
 C702 C 1.09857 0.17459 0.29962
 C703 C 1.07391 0.20184 0.29795
 C704 C 1.06621 0.19382 0.28043
 C705 C 1.05058 0.20353 0.27085
 C706 C 1.04270 0.22121 0.27864
 C707 C 1.05050 0.22891 0.29637
 C708 C 1.06613 0.21931 0.30606
 C709 C 1.09034 0.16691 0.28216
 C710 C 1.07444 0.17636 0.27272
 C711 C 1.09017 0.21746 0.33301
 C712 C 1.07427 0.22693 0.32358
 H713 H 1.09632 0.15353 0.27565
 H714 H 1.06862 0.17000 0.25922
 H715 H 1.09608 0.22390 0.34644
 H716 H 1.06839 0.24038 0.33000
 H717 H 1.12066 0.19727 0.34776
 H718 H 1.12082 0.15211 0.30232
 H719 H 1.04473 0.19744 0.25723
 H720 H 1.04458 0.24249 0.30252
 C721 C 0.58964 0.30784 0.69186
 C722 C 0.59751 0.32524 0.70002
 C723 C 0.61359 0.33445 0.69070
 C724 C 0.62187 0.32634 0.67336
 C725 C 0.61359 0.30896 0.66528
 C726 C 0.59751 0.29964 0.67450
 C727 C 0.57299 0.29787 0.70183
 C728 C 0.56528 0.28033 0.69381
 C729 C 0.54971 0.27068 0.70357
 C730 C 0.54191 0.27843 0.72128
 C731 C 0.54972 0.29617 0.72898
 C732 C 0.56528 0.30593 0.71934
 C733 C 0.58928 0.28216 0.66682
 C734 C 0.57344 0.27267 0.67631
 C735 C 0.58928 0.33296 0.71746
 C736 C 0.57344 0.32347 0.72696
 H737 H 0.59521 0.27570 0.65341
 H738 H 0.56760 0.25915 0.66996
 H739 H 0.59521 0.34639 0.72389
 H740 H 0.56761 0.32985 0.74044
 H741 H 0.61976 0.34780 0.69709
 H742 H 0.61976 0.30254 0.65196
 H743 H 0.54385 0.25705 0.69749
 H744 H 0.54386 0.30229 0.74258
 C745 C 0.59006 0.80815 0.19182
 C746 C 0.59800 0.82549 0.20000
 C747 C 0.61414 0.83465 0.19074
 C748 C 0.62252 0.82654 0.17338
 C749 C 0.61408 0.80918 0.16529
 C750 C 0.59793 0.79993 0.17447
 C751 C 0.57333 0.79825 0.20174
 C752 C 0.56555 0.78076 0.19368
 C753 C 0.54991 0.77119 0.20338
 C754 C 0.54209 0.77896 0.22108
 C755 C 0.54997 0.79666 0.22882
 C756 C 0.56561 0.80633 0.21923
 C757 C 0.58963 0.78250 0.16675
 C758 C 0.57371 0.77308 0.17620
 C759 C 0.58975 0.83324 0.21743
 C760 C 0.57384 0.82383 0.22688
 H761 H 0.59555 0.77602 0.15336
 H762 H 0.56783 0.75960 0.16981
 H763 H 0.59573 0.84664 0.22389
 H764 H 0.56800 0.83023 0.24035
 H765 H 0.62025 0.84797 0.19725
 H766 H 0.62014 0.80264 0.15197
 H767 H 0.54399 0.75760 0.19727
 H768 H 0.54410 0.80279 0.24241
 C769 C 1.09057 0.30830 0.19189
 C770 C 1.09846 0.30014 0.17453
 C771 C 1.11460 0.30942 0.16539
 C772 C 1.12303 0.32676 0.17352
 C773 C 1.11464 0.33482 0.19090
 C774 C 1.09849 0.32564 0.20013
 C775 C 1.07385 0.29836 0.20179
 C776 C 1.06612 0.30639 0.21929
 C777 C 1.05050 0.29666 0.22886
 C778 C 1.04265 0.27897 0.22108
 C779 C 1.05047 0.27126 0.20337
 C780 C 1.06610 0.28088 0.19369
 C781 C 1.09023 0.33333 0.21757
 C782 C 1.07433 0.32387 0.22699
 C783 C 1.09017 0.28272 0.16676
 C784 C 1.07427 0.27325 0.17618
 H785 H 1.09620 0.34672 0.22407
 H786 H 1.06848 0.33023 0.24048
 H787 H 1.09611 0.27628 0.15336
 H788 H 1.06840 0.25978 0.16976
 H789 H 1.12068 0.30292 0.15205
 H790 H 1.12074 0.34814 0.19744
 H791 H 1.04462 0.30275 0.24247
 H792 H 1.04457 0.25767 0.19722
 C793 C 1.09040 0.80834 0.69189
 C794 C 1.09826 0.80017 0.67452
 C795 C 1.11443 0.80941 0.66538
 C796 C 1.12291 0.82672 0.67352
 C797 C 1.11455 0.83479 0.69091
 C798 C 1.09838 0.82564 0.70013
 C799 C 1.07365 0.79844 0.70178
 C800 C 1.06595 0.80648 0.71929
 C801 C 1.05030 0.79680 0.72886
 C802 C 1.04239 0.77914 0.72106
 C803 C 1.05018 0.77142 0.70334
 C804 C 1.06584 0.78099 0.69366
 C805 C 1.09015 0.83335 0.71759
 C806 C 1.07421 0.82393 0.72700
 C807 C 1.08992 0.78278 0.66674
 C808 C 1.07399 0.77336 0.67615
 H809 H 1.09615 0.84671 0.72409
 H810 H 1.06839 0.83030 0.74050
 H811 H 1.09583 0.77633 0.65332
 H812 H 1.06808 0.75991 0.66972
 H813 H 1.12048 0.80290 0.65203
 H814 H 1.12069 0.84808 0.69747
 H815 H 1.04445 0.80290 0.74247
 H816 H 1.04424 0.75785 0.69719
 C817 C 0.41024 0.69206 0.69189
 C818 C 0.40237 0.70024 0.67452
 C819 C 0.38629 0.69091 0.66531
 C820 C 0.37801 0.67355 0.67340
 C821 C 0.38628 0.66545 0.69075
 C822 C 0.40236 0.67467 0.70007
 C823 C 0.42689 0.70204 0.70187
 C824 C 0.43459 0.69400 0.71938
 C825 C 0.45016 0.70376 0.72902
 C826 C 0.45798 0.72150 0.72130
 C827 C 0.45017 0.72922 0.70358
 C828 C 0.43461 0.71957 0.69383
 C829 C 0.41059 0.66697 0.71752
 C830 C 0.42643 0.67647 0.72701
 C831 C 0.41061 0.71771 0.66683
 C832 C 0.42645 0.72721 0.67632
 H833 H 0.40465 0.65355 0.72397
 H834 H 0.43225 0.67011 0.74050
 H835 H 0.40468 0.72416 0.65342
 H836 H 0.43229 0.74072 0.66996
 H837 H 0.38013 0.69732 0.65199
 H838 H 0.38011 0.65211 0.69716
 H839 H 0.45602 0.69766 0.74263
 H840 H 0.45604 0.74284 0.69748
 C841 C 0.40958 0.19172 0.19204
 C842 C 0.40162 0.17441 0.20028
 C843 C 0.38544 0.16526 0.19105
 C844 C 0.37707 0.17333 0.17368
 C845 C 0.38552 0.19065 0.16554
 C846 C 0.40170 0.19989 0.17468
 C847 C 0.42633 0.20162 0.20192
 C848 C 0.43413 0.21907 0.19381
 C849 C 0.44980 0.22865 0.20347
 C850 C 0.45763 0.22092 0.22117
 C851 C 0.44973 0.20325 0.22897
 C852 C 0.43406 0.19357 0.21941
 C853 C 0.41002 0.21729 0.16691
 C854 C 0.42596 0.22672 0.17631
 C855 C 0.40987 0.16670 0.21771
 C856 C 0.42581 0.17611 0.22712
 H857 H 0.40409 0.22374 0.15350
 H858 H 0.43186 0.24016 0.16988
 H859 H 0.40388 0.15333 0.22422
 H860 H 0.43165 0.16974 0.24060
 H861 H 0.37932 0.15196 0.19761
 H862 H 0.37946 0.19716 0.15221
 H863 H 0.45573 0.24221 0.19731
 H864 H 0.45561 0.19715 0.24256
 C865 C -0.09002 0.69179 0.19207
 C866 C -0.09790 0.69995 0.17470
 C867 C -0.11402 0.69063 0.16553
 C868 C -0.12232 0.67330 0.17367
 C869 C -0.11404 0.66522 0.19102
 C870 C -0.09792 0.67443 0.20029
 C871 C -0.07334 0.70176 0.20200
 C872 C -0.06562 0.69374 0.21952
 C873 C -0.05002 0.70349 0.22911
 C874 C -0.04219 0.72120 0.22134
 C875 C -0.05001 0.72890 0.20362
 C876 C -0.06561 0.71926 0.19392
 C877 C -0.08969 0.66675 0.21775
 C878 C -0.07381 0.67624 0.22720
 C879 C -0.08965 0.71738 0.16696
 C880 C -0.07377 0.72688 0.17640
 H881 H -0.09564 0.65335 0.22423
 H882 H -0.06797 0.66989 0.24069
 H883 H -0.09558 0.72382 0.15354
 H884 H -0.06793 0.74036 0.17000
 H885 H -0.12019 0.69702 0.15220
 H886 H -0.12023 0.65191 0.19746
 H887 H -0.04415 0.69741 0.24272
 H888 H -0.04413 0.74250 0.19749
 C889 C -0.09040 0.19164 0.69188
 C890 C -0.09826 0.19982 0.67451
 C891 C -0.11443 0.19059 0.66536
 C892 C -0.12291 0.17327 0.67350
 C893 C -0.11455 0.16520 0.69088
 C894 C -0.09838 0.17434 0.70012
 C895 C -0.07365 0.20154 0.70177
 C896 C -0.06595 0.19349 0.71928
 C897 C -0.05029 0.20317 0.72885
 C898 C -0.04237 0.22083 0.72106
 C899 C -0.05017 0.22856 0.70334
 C900 C -0.06583 0.21899 0.69366
 C901 C -0.09015 0.16663 0.71756
 C902 C -0.07421 0.17604 0.72698
 C903 C -0.08991 0.21720 0.66674
 C904 C -0.07398 0.22663 0.67615
 H905 H -0.09615 0.15327 0.72407
 H906 H -0.06839 0.16967 0.74048
 H907 H -0.09583 0.22366 0.65332
 H908 H -0.06807 0.24007 0.66973
 H909 H -0.12048 0.19709 0.65202
 H910 H -0.12069 0.15191 0.69744
 H911 H -0.04443 0.19707 0.74246
 H912 H -0.04423 0.24212 0.69719
 C913 C 0.30788 0.41027 0.30824
 C914 C 0.32528 0.40240 0.30010
 C915 C 0.33449 0.38632 0.30943
 C916 C 0.32637 0.37805 0.32677
 C917 C 0.30899 0.38632 0.33483
 C918 C 0.29968 0.40240 0.32560
 C919 C 0.29792 0.42692 0.29825
 C920 C 0.28038 0.43463 0.30626
 C921 C 0.27074 0.45019 0.29649
 C922 C 0.27850 0.45799 0.27879
 C923 C 0.29624 0.45018 0.27110
 C924 C 0.30599 0.43462 0.28076
 C925 C 0.28220 0.41063 0.33327
 C926 C 0.27271 0.42647 0.32376
 C927 C 0.33301 0.41062 0.28266
 C928 C 0.32353 0.42646 0.27315
 H929 H 0.27572 0.40470 0.34666
 H930 H 0.25919 0.43230 0.33010
 H931 H 0.34644 0.40469 0.27624
 H932 H 0.32992 0.43229 0.25967
 H933 H 0.34784 0.38016 0.30305
 H934 H 0.30256 0.38016 0.34814
 H935 H 0.25711 0.45605 0.30257
 H936 H 0.30237 0.45604 0.25750
 C937 C 0.30829 -0.09059 0.80808
 C938 C 0.32562 -0.09849 0.79984
 C939 C 0.33483 -0.11462 0.80908
 C940 C 0.32679 -0.12301 0.82646
 C941 C 0.30945 -0.11460 0.83460
 C942 C 0.30015 -0.09847 0.82545
 C943 C 0.29833 -0.07388 0.79818
 C944 C 0.28085 -0.06614 0.80628
 C945 C 0.27122 -0.05052 0.79660
 C946 C 0.27891 -0.04270 0.77888
 C947 C 0.29660 -0.05054 0.77109
 C948 C 0.30634 -0.06616 0.78066
 C949 C 0.28273 -0.09020 0.83322
 C950 C 0.27325 -0.07431 0.82380
 C951 C 0.33330 -0.09024 0.78239
 C952 C 0.32382 -0.07435 0.77296
 H953 H 0.27631 -0.09613 0.84663
 H954 H 0.25978 -0.06845 0.83022
 H955 H 0.34668 -0.09619 0.77588
 H956 H 0.33017 -0.06850 0.75947
 H957 H 0.34814 -0.12071 0.80253
 H958 H 0.30296 -0.12067 0.84794
 H959 H 0.25763 -0.04464 0.80275
 H960 H 0.30268 -0.04467 0.75748
 C961 C 0.80818 0.40993 0.80813
 C962 C 0.82551 0.40199 0.79992
 C963 C 0.83467 0.38585 0.80918
 C964 C 0.82659 0.37747 0.82655
 C965 C 0.80924 0.38591 0.83465
 C966 C 0.79999 0.40205 0.82548
 C967 C 0.79827 0.42665 0.79822
 C968 C 0.78079 0.43443 0.80629
 C969 C 0.77121 0.45007 0.79660
 C970 C 0.77895 0.45789 0.77890
 C971 C 0.79664 0.45001 0.77114
 C972 C 0.80633 0.43437 0.78072
 C973 C 0.78257 0.41036 0.83322
 C974 C 0.77313 0.42627 0.82379
 C975 C 0.83323 0.41024 0.78249
 C976 C 0.82380 0.42615 0.77305
 H977 H 0.77611 0.40443 0.84662
 H978 H 0.75967 0.43215 0.83019
 H979 H 0.84662 0.40426 0.77601
 H980 H 0.83019 0.43199 0.75957
 H981 H 0.84799 0.37974 0.80265
 H982 H 0.80272 0.37985 0.84798
 H983 H 0.75762 0.45598 0.80273
 H984 H 0.80275 0.45588 0.75754
 C985 C 0.80839 -0.08984 0.30807
 C986 C 0.82573 -0.09777 0.29985
 C987 C 0.83491 -0.11389 0.30913
 C988 C 0.82683 -0.12215 0.32649
 C989 C 0.80952 -0.11382 0.33463
 C990 C 0.80022 -0.09770 0.32546
 C991 C 0.79844 -0.07316 0.29814
 C992 C 0.78095 -0.06540 0.30622
 C993 C 0.77133 -0.04980 0.29651
 C994 C 0.77904 -0.04201 0.27878
 C995 C 0.79673 -0.04987 0.27101
 C996 C 0.80646 -0.06547 0.28062
 C997 C 0.78280 -0.08942 0.33320
 C998 C 0.77333 -0.07354 0.32375
 C999 C 0.83341 -0.08956 0.28239
 C1000 C 0.82395 -0.07368 0.27293
 H1001 H 0.77636 -0.09534 0.34662
 H1002 H 0.75986 -0.06767 0.33014
 H1003 H 0.84680 -0.09553 0.27591
 H1004 H 0.83030 -0.06786 0.25943
 H1005 H 0.84821 -0.12010 0.30269
 H1006 H 0.80312 -0.11997 0.34797
 H1007 H 0.75774 -0.04390 0.30264
 H1008 H 0.80282 -0.04402 0.25739
 C1009 C 0.30800 0.58962 0.69189
 C1010 C 0.32538 0.59753 0.70005
 C1011 C 0.33457 0.61362 0.69073
 C1012 C 0.32645 0.62189 0.67340
 C1013 C 0.30909 0.61359 0.66532
 C1014 C 0.29979 0.59749 0.67453
 C1015 C 0.29805 0.57295 0.70186
 C1016 C 0.28053 0.56522 0.69384
 C1017 C 0.27091 0.54964 0.70359
 C1018 C 0.27866 0.54184 0.72130
 C1019 C 0.29639 0.54968 0.72901
 C1020 C 0.30612 0.56526 0.71936
 C1021 C 0.28233 0.58922 0.66684
 C1022 C 0.27286 0.57336 0.67634
 C1023 C 0.33311 0.58931 0.71749
 C1024 C 0.32364 0.57345 0.72699
 H1025 H 0.27586 0.59515 0.65344
 H1026 H 0.25936 0.56751 0.66998
 H1027 H 0.34653 0.59526 0.72393
 H1028 H 0.33003 0.56763 0.74047
 H1029 H 0.34790 0.61981 0.69713
 H1030 H 0.30266 0.61975 0.65200
 H1031 H 0.25729 0.54375 0.69750
 H1032 H 0.30251 0.54382 0.74261
 C1033 C 0.30822 1.09058 0.19206
 C1034 C 0.32554 1.09850 0.20031
 C1035 C 0.33473 1.11465 0.19108
 C1036 C 0.32669 1.12303 0.17369
 C1037 C 0.30935 1.11460 0.16555
 C1038 C 0.30007 1.09845 0.17469
 C1039 C 0.29827 1.07385 0.20195
 C1040 C 0.28080 1.06609 0.19384
 C1041 C 0.27118 1.05046 0.20351
 C1042 C 0.27888 1.04264 0.22123
 C1043 C 0.29656 1.05050 0.22903
 C1044 C 0.30629 1.06613 0.21947
 C1045 C 0.28266 1.09016 0.16691
 C1046 C 0.27319 1.07425 0.17632
 C1047 C 0.33322 1.09025 0.21776
 C1048 C 0.32375 1.07435 0.22718
 H1049 H 0.27623 1.09609 0.15350
 H1050 H 0.25973 1.06838 0.16990
 H1051 H 0.34659 1.09622 0.22427
 H1052 H 0.33011 1.06851 0.24067
 H1053 H 0.34803 1.12076 0.19764
 H1054 H 0.30287 1.12066 0.15221
 H1055 H 0.25760 1.04455 0.19736
 H1056 H 0.30263 1.04463 0.24264
 C1057 C 0.80811 0.59007 0.19173
 C1058 C 0.79989 0.59796 0.17440
 C1059 C 0.80912 0.61411 0.16523
 C1060 C 0.82649 0.62255 0.17331
 C1061 C 0.83460 0.61416 0.19066
 C1062 C 0.82545 0.59801 0.19992
 C1063 C 0.79822 0.57334 0.20165
 C1064 C 0.80631 0.56561 0.21913
 C1065 C 0.79664 0.54996 0.22872
 C1066 C 0.77894 0.54208 0.22098
 C1067 C 0.77116 0.54990 0.20329
 C1068 C 0.78073 0.56555 0.19360
 C1069 C 0.83321 0.58975 0.21733
 C1070 C 0.82380 0.57383 0.22678
 C1071 C 0.78246 0.58965 0.16668
 C1072 C 0.77304 0.57373 0.17612
 H1073 H 0.84661 0.59573 0.22380
 H1074 H 0.83021 0.56799 0.24024
 H1075 H 0.77597 0.59558 0.15329
 H1076 H 0.75956 0.56784 0.16974
 H1077 H 0.80259 0.62018 0.15191
 H1078 H 0.84792 0.62027 0.19717
 H1079 H 0.80277 0.54408 0.24230
 H1080 H 0.75757 0.54399 0.19718
 C1081 C 0.80821 1.09060 0.69197
 C1082 C 0.82554 1.09852 0.70018
 C1083 C 0.83473 1.11466 0.69093
 C1084 C 0.82667 1.12302 0.67355
 C1085 C 0.80932 1.11460 0.66543
 C1086 C 0.80004 1.09846 0.67460
 C1087 C 0.79827 1.07389 0.70188
 C1088 C 0.78079 1.06612 0.69380
 C1089 C 0.77117 1.05050 0.70350
 C1090 C 0.77889 1.04269 0.72121
 C1091 C 0.79658 1.05055 0.72898
 C1092 C 0.80630 1.06617 0.71939
 C1093 C 0.78262 1.09017 0.66685
 C1094 C 0.77316 1.07427 0.67629
 C1095 C 0.83324 1.09028 0.71763
 C1096 C 0.82379 1.07439 0.72708
 H1097 H 0.77617 1.09609 0.65344
 H1098 H 0.75969 1.06840 0.66988
 H1099 H 0.84663 1.09625 0.72412
 H1100 H 0.83015 1.06856 0.74057
 H1101 H 0.84805 1.12076 0.69747
 H1102 H 0.80282 1.12065 0.65209
 H1103 H 0.75759 1.04459 0.69736
 H1104 H 0.80268 1.04469 0.74259
 C1105 C 0.69196 0.58962 0.30813
 C1106 C 0.70016 0.59749 0.32550
 C1107 C 0.69085 0.61358 0.33471
 C1108 C 0.67349 0.62187 0.32663
 C1109 C 0.66538 0.61360 0.30929
 C1110 C 0.67457 0.59751 0.29997
 C1111 C 0.70191 0.57296 0.29815
 C1112 C 0.69385 0.56526 0.28065
 C1113 C 0.70359 0.54968 0.27100
 C1114 C 0.72132 0.54186 0.27871
 C1115 C 0.72907 0.54966 0.29642
 C1116 C 0.71944 0.56524 0.30618
 C1117 C 0.66685 0.58928 0.28252
 C1118 C 0.67633 0.57343 0.27303
 C1119 C 0.71762 0.58924 0.33318
 C1120 C 0.72710 0.57339 0.32368
 H1121 H 0.65343 0.59523 0.27609
 H1122 H 0.66994 0.56761 0.25954
 H1123 H 0.72409 0.59517 0.34658
 H1124 H 0.74061 0.56755 0.33004
 H1125 H 0.69728 0.61974 0.34803
 H1126 H 0.65204 0.61977 0.30290
 H1127 H 0.69747 0.54383 0.25740
 H1128 H 0.74269 0.54379 0.30251
 C1129 C 0.69177 1.09063 0.80795
 C1130 C 0.67444 1.09853 0.79972
 C1131 C 0.66524 1.11467 0.80895
 C1132 C 0.67329 1.12307 0.82633
 C1133 C 0.69064 1.11467 0.83446
 C1134 C 0.69993 1.09853 0.82531
 C1135 C 0.70173 1.07392 0.79806
 C1136 C 0.71921 1.06617 0.80616
 C1137 C 0.72883 1.05055 0.79648
 C1138 C 0.72112 1.04271 0.77877
 C1139 C 0.70343 1.05054 0.77099
 C1140 C 0.69370 1.06617 0.78055
 C1141 C 0.71735 1.09026 0.83307
 C1142 C 0.72683 1.07436 0.82366
 C1143 C 0.66675 1.09026 0.78227
 C1144 C 0.67622 1.07436 0.77285
 H1145 H 0.72379 1.09621 0.84648
 H1146 H 0.74030 1.06851 0.83008
 H1147 H 0.65336 1.09621 0.77577
 H1148 H 0.66986 1.06851 0.75937
 H1149 H 0.65192 1.12076 0.80240
 H1150 H 0.69714 1.12075 0.84779
 H1151 H 0.74242 1.04466 0.80263
 H1152 H 0.69734 1.04466 0.75738
 C1153 C 0.19187 0.59009 0.80820
 C1154 C 0.17454 0.59803 0.80000
 C1155 C 0.16540 0.61419 0.80924
 C1156 C 0.17350 0.62258 0.82660
 C1157 C 0.19085 0.61415 0.83470
 C1158 C 0.20008 0.59798 0.82554
 C1159 C 0.20176 0.57334 0.79830
 C1160 C 0.21924 0.56556 0.80638
 C1161 C 0.22880 0.54990 0.79669
 C1162 C 0.22103 0.54206 0.77901
 C1163 C 0.20335 0.54994 0.77125
 C1164 C 0.19368 0.56560 0.78082
 C1165 C 0.21750 0.58967 0.83328
 C1166 C 0.22692 0.57374 0.82386
 C1167 C 0.16679 0.58976 0.78258
 C1168 C 0.17620 0.57383 0.77315
 H1169 H 0.22398 0.59562 0.84667
 H1170 H 0.24038 0.56786 0.83025
 H1171 H 0.15341 0.59574 0.77611
 H1172 H 0.16980 0.56798 0.75969
 H1173 H 0.15208 0.62030 0.80272
 H1174 H 0.19738 0.62022 0.84802
 H1175 H 0.24238 0.54398 0.80282
 H1176 H 0.19722 0.54406 0.75766
 C1177 C 0.19178 1.09062 0.30792
 C1178 C 0.19992 1.09847 0.32531
 C1179 C 0.19065 1.11462 0.33446
 C1180 C 0.17334 1.12308 0.32630
 C1181 C 0.16531 1.11473 0.30889
 C1182 C 0.17449 1.09858 0.29966
 C1183 C 0.20171 1.07389 0.29803
 C1184 C 0.19370 1.06619 0.28050
 C1185 C 0.20342 1.05055 0.27093
 C1186 C 0.22107 1.04266 0.27874
 C1187 C 0.22876 1.05046 0.29648
 C1188 C 0.21916 1.06609 0.30616
 C1189 C 0.16681 1.09035 0.28219
 C1190 C 0.17626 1.07444 0.27277
 C1191 C 0.21730 1.09015 0.33310
 C1192 C 0.22676 1.07424 0.32369
 H1193 H 0.15346 1.09634 0.27567
 H1194 H 0.16992 1.06862 0.25926
 H1195 H 0.22373 1.09606 0.34654
 H1196 H 0.24020 1.06834 0.33013
 H1197 H 0.19713 1.12067 0.34782
 H1198 H 0.15203 1.12086 0.30232
 H1199 H 0.19734 1.04470 0.25730
 H1200 H 0.24232 1.04453 0.30265
 C1201 C 0.69189 0.41027 0.69184
 C1202 C 0.67452 0.40236 0.70002
 C1203 C 0.66533 0.38626 0.69070
 C1204 C 0.67343 0.37800 0.67335
 C1205 C 0.69077 0.38631 0.66526
 C1206 C 0.70008 0.40241 0.67446
 C1207 C 0.70185 0.42693 0.70180
 C1208 C 0.71936 0.43468 0.69376
 C1209 C 0.72899 0.45026 0.70351
 C1210 C 0.72126 0.45805 0.72123
 C1211 C 0.70354 0.45021 0.72896
 C1212 C 0.69380 0.43463 0.71932
 C1213 C 0.71753 0.41068 0.66676
 C1214 C 0.72701 0.42654 0.67625
 C1215 C 0.66681 0.41057 0.71747
 C1216 C 0.67629 0.42643 0.72696
 H1217 H 0.72398 0.40476 0.65335
 H1218 H 0.74050 0.43239 0.66988
 H1219 H 0.65341 0.40461 0.72392
 H1220 H 0.66992 0.43225 0.74045
 H1221 H 0.65200 0.38007 0.69711
 H1222 H 0.69719 0.38016 0.65193
 H1223 H 0.74260 0.45615 0.69741
 H1224 H 0.69744 0.45606 0.74257
 C1225 C 0.69176 -0.08993 0.19205
 C1226 C 0.69989 -0.09781 0.17466
 C1227 C 0.69056 -0.11393 0.16552
 C1228 C 0.67325 -0.12224 0.17369
 C1229 C 0.66521 -0.11396 0.19105
 C1230 C 0.67442 -0.09784 0.20031
 C1231 C 0.70174 -0.07324 0.20196
 C1232 C 0.69375 -0.06552 0.21949
 C1233 C 0.70351 -0.04991 0.22906
 C1234 C 0.72120 -0.04207 0.22125
 C1235 C 0.72887 -0.04989 0.20352
 C1236 C 0.71922 -0.06550 0.19384
 C1237 C 0.66678 -0.08960 0.21778
 C1238 C 0.67628 -0.07371 0.22720
 C1239 C 0.71730 -0.08954 0.16688
 C1240 C 0.72681 -0.07366 0.17631
 H1241 H 0.65340 -0.09556 0.22429
 H1242 H 0.66995 -0.06788 0.24071
 H1243 H 0.72371 -0.09548 0.15346
 H1244 H 0.74027 -0.06781 0.16988
 H1245 H 0.69693 -0.12010 0.15217
 H1246 H 0.65191 -0.12016 0.19752
 H1247 H 0.69746 -0.04404 0.24268
 H1248 H 0.74245 -0.04400 0.19736
 C1249 C 0.19169 0.40966 0.19190
 C1250 C 0.19988 0.40178 0.17455
 C1251 C 0.19065 0.38560 0.16541
 C1252 C 0.17332 0.37714 0.17352
 C1253 C 0.16523 0.38552 0.19089
 C1254 C 0.17437 0.40170 0.20012
 C1255 C 0.20157 0.42642 0.20179
 C1256 C 0.19351 0.43415 0.21928
 C1257 C 0.20318 0.44982 0.22885
 C1258 C 0.22086 0.45771 0.22108
 C1259 C 0.22860 0.44988 0.20338
 C1260 C 0.21904 0.43422 0.19370
 C1261 C 0.16664 0.40996 0.21755
 C1262 C 0.17605 0.42590 0.22697
 C1263 C 0.21728 0.41011 0.16680
 C1264 C 0.22670 0.42605 0.17621
 H1265 H 0.15326 0.40397 0.22404
 H1266 H 0.16966 0.43174 0.24045
 H1267 H 0.22375 0.40417 0.15340
 H1268 H 0.24016 0.43194 0.16980
 H1269 H 0.19717 0.37954 0.15208
 H1270 H 0.15193 0.37940 0.19743
 H1271 H 0.19707 0.45569 0.24244
 H1272 H 0.24218 0.45581 0.19724
 C1273 C 0.19180 -0.09061 0.69204
 C1274 C 0.17446 -0.09854 0.70026
 C1275 C 0.16527 -0.11467 0.69099
 C1276 C 0.17333 -0.12303 0.67360
 C1277 C 0.19068 -0.11460 0.66549
 C1278 C 0.19996 -0.09848 0.67467
 C1279 C 0.20174 -0.07391 0.70197
 C1280 C 0.21923 -0.06614 0.69389
 C1281 C 0.22884 -0.05053 0.70360
 C1282 C 0.22113 -0.04272 0.72132
 C1283 C 0.20343 -0.05059 0.72908
 C1284 C 0.19371 -0.06620 0.71949
 C1285 C 0.21738 -0.09018 0.66693
 C1286 C 0.22685 -0.07429 0.67637
 C1287 C 0.16677 -0.09030 0.71771
 C1288 C 0.17623 -0.07441 0.72716
 H1289 H 0.22382 -0.09610 0.65351
 H1290 H 0.24032 -0.06842 0.66997
 H1291 H 0.15338 -0.09627 0.72419
 H1292 H 0.16986 -0.06859 0.74066
 H1293 H 0.15195 -0.12077 0.69753
 H1294 H 0.19717 -0.12066 0.65215
 H1295 H 0.24243 -0.04462 0.69747
 H1296 H 0.19734 -0.04473 0.74269
 C1297 C 0.30802 0.30804 0.41066
 C1298 C 0.32540 0.29987 0.40278
 C1299 C 0.33458 0.30917 0.38668
 C1300 C 0.32644 0.32651 0.37839
 C1301 C 0.30908 0.33460 0.38667
 C1302 C 0.29980 0.32540 0.40277
 C1303 C 0.29808 0.29808 0.42733
 C1304 C 0.28055 0.30611 0.43504
 C1305 C 0.27094 0.29637 0.45062
 C1306 C 0.27870 0.27865 0.45843
 C1307 C 0.29644 0.27094 0.45062
 C1308 C 0.30616 0.28058 0.43505
 C1309 C 0.28233 0.33310 0.41101
 C1310 C 0.27287 0.32362 0.42687
 C1311 C 0.33314 0.28243 0.41103
 C1312 C 0.32369 0.27295 0.42688
 H1313 H 0.27585 0.34650 0.40507
 H1314 H 0.25937 0.32998 0.43270
 H1315 H 0.34656 0.27598 0.40509
 H1316 H 0.33008 0.25946 0.43272
 H1317 H 0.34791 0.30277 0.38051
 H1318 H 0.30264 0.34792 0.38049
 H1319 H 0.25732 0.30246 0.45648
 H1320 H 0.30257 0.25734 0.45649
 C1321 C 0.30822 0.80806 -0.08990
 C1322 C 0.32557 0.79983 -0.09781
 C1323 C 0.33471 0.80908 -0.11397
 C1324 C 0.32658 0.82640 -0.12229
 C1325 C 0.30926 0.83454 -0.11397
 C1326 C 0.30001 0.82541 -0.09782
 C1327 C 0.29831 0.79816 -0.07318
 C1328 C 0.28082 0.80625 -0.06545
 C1329 C 0.27123 0.79656 -0.04982
 C1330 C 0.27898 0.77886 -0.04197
 C1331 C 0.29668 0.77109 -0.04981
 C1332 C 0.30638 0.78067 -0.06544
 C1333 C 0.28258 0.83316 -0.08955
 C1334 C 0.27315 0.82374 -0.07364
 C1335 C 0.33330 0.78240 -0.08954
 C1336 C 0.32387 0.77298 -0.07363
 H1337 H 0.27611 0.84656 -0.09551
 H1338 H 0.25967 0.83015 -0.06779
 H1339 H 0.34669 0.77591 -0.09550
 H1340 H 0.33026 0.75950 -0.06777
 H1341 H 0.34802 0.80263 -0.12016
 H1342 H 0.30282 0.84786 -0.12016
 H1343 H 0.25764 0.80270 -0.04394
 H1344 H 0.30280 0.75749 -0.04392
 C1345 C 0.80793 0.30840 -0.08987
 C1346 C 0.82531 0.30024 -0.09776
 C1347 C 0.83445 0.30953 -0.11388
 C1348 C 0.82628 0.32684 -0.12220
 C1349 C 0.80891 0.33491 -0.11391
 C1350 C 0.79967 0.32573 -0.09778
 C1351 C 0.79803 0.29844 -0.07318
 C1352 C 0.78050 0.30646 -0.06545
 C1353 C 0.77093 0.29672 -0.04985
 C1354 C 0.77873 0.27903 -0.04202
 C1355 C 0.79647 0.27134 -0.04984
 C1356 C 0.80615 0.28097 -0.06544
 C1357 C 0.78220 0.33341 -0.08953
 C1358 C 0.77278 0.32394 -0.07364
 C1359 C 0.83310 0.28282 -0.08950
 C1360 C 0.82368 0.27335 -0.07361
 H1361 H 0.77569 0.34679 -0.09549
 H1362 H 0.75927 0.33028 -0.06780
 H1363 H 0.84652 0.27639 -0.09544
 H1364 H 0.83011 0.25988 -0.06776
 H1365 H 0.84779 0.30313 -0.12006
 H1366 H 0.80244 0.34821 -0.12011
 H1367 H 0.75730 0.30280 -0.04398
 H1368 H 0.80262 0.25775 -0.04396
 C1369 C 0.80839 0.80796 0.41040
 C1370 C 0.82571 0.79968 0.40248
 C1371 C 0.83490 0.80893 0.38635
 C1372 C 0.82684 0.82630 0.37806
 C1373 C 0.80954 0.83449 0.38638
 C1374 C 0.80024 0.82535 0.40251
 C1375 C 0.79844 0.79807 0.42709
 C1376 C 0.78097 0.80621 0.43484
 C1377 C 0.77135 0.79653 0.45045
 C1378 C 0.77904 0.77880 0.45828
 C1379 C 0.79671 0.77098 0.45043
 C1380 C 0.80645 0.78054 0.43482
 C1381 C 0.78284 0.83315 0.41078
 C1382 C 0.77337 0.82374 0.42667
 C1383 C 0.83338 0.78221 0.41073
 C1384 C 0.82391 0.77280 0.42662
 H1385 H 0.77642 0.84658 0.40484
 H1386 H 0.75991 0.83018 0.43252
 H1387 H 0.84675 0.77569 0.40477
 H1388 H 0.83025 0.75929 0.43246
 H1389 H 0.84819 0.80245 0.38015
 H1390 H 0.80315 0.84783 0.38021
 H1391 H 0.75777 0.80271 0.45634
 H1392 H 0.80278 0.75735 0.45631
 C1393 C 0.69188 0.30802 0.58946
 C1394 C 0.70005 0.32542 0.59734
 C1395 C 0.69075 0.33459 0.61345
 C1396 C 0.67342 0.32644 0.62174
 C1397 C 0.66533 0.30907 0.61346
 C1398 C 0.67453 0.29979 0.59736
 C1399 C 0.70184 0.29809 0.57279
 C1400 C 0.69382 0.28056 0.56508
 C1401 C 0.70356 0.27095 0.54949
 C1402 C 0.72126 0.27873 0.54167
 C1403 C 0.72897 0.29648 0.54948
 C1404 C 0.71934 0.30619 0.56507
 C1405 C 0.66684 0.28231 0.58912
 C1406 C 0.67632 0.27286 0.57326
 C1407 C 0.71748 0.33318 0.58909
 C1408 C 0.72696 0.32372 0.57323
 H1409 H 0.65345 0.27582 0.59507
 H1410 H 0.66997 0.25935 0.56743
 H1411 H 0.72392 0.34660 0.59503
 H1412 H 0.74044 0.33014 0.56739
 H1413 H 0.69715 0.34793 0.61961
 H1414 H 0.65202 0.30261 0.61964
 H1415 H 0.69748 0.25732 0.54363
 H1416 H 0.74257 0.30262 0.54361
 C1417 C 0.69158 0.80787 1.08978
 C1418 C 0.67426 0.79959 1.09770
 C1419 C 0.66508 0.80883 1.11384
 C1420 C 0.67315 0.82621 1.12212
 C1421 C 0.69044 0.83440 1.11379
 C1422 C 0.69973 0.82527 1.09766
 C1423 C 0.70153 0.79797 1.07308
 C1424 C 0.71899 0.80612 1.06532
 C1425 C 0.72861 0.79644 1.04971
 C1426 C 0.72092 0.77869 1.04189
 C1427 C 0.70325 0.77087 1.04974
 C1428 C 0.69352 0.78043 1.06536
 C1429 C 0.71713 0.83307 1.08938
 C1430 C 0.72660 0.82366 1.07349
 C1431 C 0.66659 0.78211 1.08946
 C1432 C 0.67606 0.77269 1.07356
 H1433 H 0.72355 0.84651 1.09532
 H1434 H 0.74005 0.83010 1.06763
 H1435 H 0.65323 0.77558 1.09543
 H1436 H 0.66972 0.75917 1.06773
 H1437 H 0.65180 0.80235 1.12004
 H1438 H 0.69683 0.84775 1.11995
 H1439 H 0.74218 0.80262 1.04382
 H1440 H 0.69718 0.75723 1.04387
 C1441 C 0.19199 0.30806 1.08995
 C1442 C 0.20024 0.32541 1.09786
 C1443 C 0.19100 0.33457 1.11400
 C1444 C 0.17366 0.32647 1.12231
 C1445 C 0.16550 0.30915 1.11400
 C1446 C 0.17463 0.29988 1.09786
 C1447 C 0.20188 0.29814 1.07324
 C1448 C 0.19377 0.28065 1.06550
 C1449 C 0.20345 0.27104 1.04988
 C1450 C 0.22117 0.27877 1.04204
 C1451 C 0.22896 0.29646 1.04987
 C1452 C 0.21939 0.30618 1.06550
 C1453 C 0.16685 0.28245 1.08959
 C1454 C 0.17627 0.27300 1.07369
 C1455 C 0.21769 0.33312 1.08959
 C1456 C 0.22710 0.32367 1.07369
 H1457 H 0.15345 0.27599 1.09555
 H1458 H 0.16985 0.25952 1.06784
 H1459 H 0.22419 0.34651 1.09555
 H1460 H 0.24059 0.33004 1.06784
 H1461 H 0.19746 0.34788 1.12020
 H1462 H 0.15217 0.30273 1.12019
 H1463 H 0.19730 0.25744 1.04400
 H1464 H 0.24257 0.30256 1.04399
 C1465 C 0.19188 0.80810 0.58988
 C1466 C 0.17452 0.79988 0.59778
 C1467 C 0.16539 0.80911 0.61395
 C1468 C 0.17354 0.82642 0.62229
 C1469 C 0.19088 0.83455 0.61399
 C1470 C 0.20011 0.82543 0.59782
 C1471 C 0.20177 0.79822 0.57314
 C1472 C 0.21927 0.80630 0.56541
 C1473 C 0.22884 0.79663 0.54976
 C1474 C 0.22106 0.77894 0.54189
 C1475 C 0.20335 0.77118 0.54972
 C1476 C 0.19367 0.78074 0.56537
 C1477 C 0.21755 0.83318 0.58957
 C1478 C 0.22697 0.82377 0.57364
 C1479 C 0.16676 0.78246 0.58948
 C1480 C 0.17618 0.77306 0.57355
 H1481 H 0.22404 0.84656 0.59555
 H1482 H 0.24045 0.83017 0.56779
 H1483 H 0.15337 0.77598 0.59543
 H1484 H 0.16977 0.75959 0.56767
 H1485 H 0.15208 0.80266 0.62013
 H1486 H 0.19733 0.84785 0.62021
 H1487 H 0.24244 0.80275 0.54388
 H1488 H 0.19721 0.75759 0.54381
 C1489 C 0.30803 0.69189 0.58951
 C1490 C 0.29981 0.67453 0.59741
 C1491 C 0.30910 0.66535 0.61351
 C1492 C 0.32646 0.67345 0.62179
 C1493 C 0.33459 0.69079 0.61349
 C1494 C 0.32542 0.70008 0.59738
 C1495 C 0.29809 0.70184 0.57284
 C1496 C 0.30617 0.71934 0.56511
 C1497 C 0.29645 0.72896 0.54952
 C1498 C 0.27872 0.72124 0.54171
 C1499 C 0.27095 0.70353 0.54954
 C1500 C 0.28057 0.69379 0.56513
 C1501 C 0.33316 0.71752 0.58913
 C1502 C 0.32370 0.72699 0.57327
 C1503 C 0.28235 0.66683 0.58918
 C1504 C 0.27289 0.67629 0.57331
 H1505 H 0.34658 0.72397 0.59506
 H1506 H 0.33010 0.74047 0.56742
 H1507 H 0.27587 0.65343 0.59512
 H1508 H 0.25938 0.66992 0.56748
 H1509 H 0.30266 0.65203 0.61970
 H1510 H 0.34793 0.69720 0.61965
 H1511 H 0.30258 0.74257 0.54365
 H1512 H 0.25733 0.69743 0.54368
 C1513 C 0.30806 0.19193 1.09005
 C1514 C 0.29986 0.17458 1.09797
 C1515 C 0.30911 0.16546 1.11413
 C1516 C 0.32643 0.17362 1.12245
 C1517 C 0.33455 0.19096 1.11413
 C1518 C 0.32540 0.20018 1.09796
 C1519 C 0.29816 0.20181 1.07332
 C1520 C 0.30622 0.21932 1.06557
 C1521 C 0.29652 0.22887 1.04993
 C1522 C 0.27882 0.22108 1.04209
 C1523 C 0.27108 0.20337 1.04994
 C1524 C 0.28067 0.19370 1.06558
 C1525 C 0.33313 0.21762 1.08969
 C1526 C 0.32370 0.22702 1.07377
 C1527 C 0.28244 0.16680 1.08970
 C1528 C 0.27301 0.17621 1.07378
 H1529 H 0.34651 0.22412 1.09565
 H1530 H 0.33008 0.24051 1.06791
 H1531 H 0.27597 0.15341 1.09566
 H1532 H 0.25954 0.16979 1.06793
 H1533 H 0.30268 0.15214 1.12032
 H1534 H 0.34785 0.19742 1.12032
 H1535 H 0.30263 0.24248 1.04404
 H1536 H 0.25749 0.19722 1.04406
 C1537 C 0.80779 0.69166 1.08976
 C1538 C 0.82518 0.69982 1.09764
 C1539 C 0.83432 0.69053 1.11377
 C1540 C 0.82614 0.67322 1.12209
 C1541 C 0.80876 0.66515 1.11380
 C1542 C 0.79952 0.67434 1.09767
 C1543 C 0.79790 0.70161 1.07306
 C1544 C 0.78036 0.69360 1.06534
 C1545 C 0.77080 0.70333 1.04972
 C1546 C 0.77861 0.72101 1.04188
 C1547 C 0.79635 0.72871 1.04971
 C1548 C 0.80603 0.71908 1.06532
 C1549 C 0.78205 0.66666 1.08943
 C1550 C 0.77263 0.67613 1.07353
 C1551 C 0.83298 0.71723 1.08938
 C1552 C 0.82356 0.72670 1.07349
 H1553 H 0.77552 0.65328 1.09539
 H1554 H 0.75912 0.66978 1.06769
 H1555 H 0.84641 0.72366 1.09531
 H1556 H 0.83000 0.74016 1.06763
 H1557 H 0.84767 0.69692 1.11994
 H1558 H 0.80229 0.65186 1.12000
 H1559 H 0.75717 0.69726 1.04385
 H1560 H 0.80252 0.74229 1.04382
 C1561 C 0.80815 0.19193 0.58985
 C1562 C 0.82549 0.20017 0.59779
 C1563 C 0.83461 0.19093 0.61396
 C1564 C 0.82646 0.17360 0.62226
 C1565 C 0.80915 0.16545 0.61393
 C1566 C 0.79993 0.17458 0.59776
 C1567 C 0.79827 0.20182 0.57311
 C1568 C 0.78079 0.19373 0.56534
 C1569 C 0.77124 0.20341 0.54969
 C1570 C 0.77900 0.22111 0.54186
 C1571 C 0.79669 0.22889 0.54972
 C1572 C 0.80636 0.21932 0.56537
 C1573 C 0.78251 0.16682 0.58946
 C1574 C 0.77311 0.17624 0.57353
 C1575 C 0.83324 0.21760 0.58953
 C1576 C 0.82383 0.22702 0.57360
 H1577 H 0.77603 0.15343 0.59542
 H1578 H 0.75964 0.16983 0.56766
 H1579 H 0.84662 0.22409 0.59550
 H1580 H 0.83023 0.24050 0.56775
 H1581 H 0.84791 0.19738 0.62017
 H1582 H 0.80271 0.15214 0.62011
 H1583 H 0.75765 0.19727 0.54379
 H1584 H 0.80282 0.24249 0.54384
 C1585 C 0.69191 0.69186 0.41054
 C1586 C 0.70011 0.67449 0.40265
 C1587 C 0.69081 0.66531 0.38654
 C1588 C 0.67347 0.67342 0.37825
 C1589 C 0.66535 0.69077 0.38655
 C1590 C 0.67454 0.70006 0.40266
 C1591 C 0.70185 0.70180 0.42722
 C1592 C 0.69379 0.71931 0.43495
 C1593 C 0.70352 0.72892 0.45054
 C1594 C 0.72124 0.72118 0.45836
 C1595 C 0.72898 0.70346 0.45053
 C1596 C 0.71937 0.69374 0.43494
 C1597 C 0.66682 0.71751 0.41091
 C1598 C 0.67628 0.72697 0.42678
 C1599 C 0.71756 0.66677 0.41089
 C1600 C 0.72702 0.67623 0.42676
 H1601 H 0.65341 0.72397 0.40497
 H1602 H 0.66990 0.74046 0.43262
 H1603 H 0.72402 0.65336 0.40494
 H1604 H 0.74052 0.66984 0.43260
 H1605 H 0.69724 0.65198 0.38036
 H1606 H 0.65203 0.69719 0.38038
 H1607 H 0.69740 0.74253 0.45641
 H1608 H 0.74259 0.69735 0.45640
 C1609 C 0.69188 0.19206 -0.09006
 C1610 C 0.70009 0.17470 -0.09796
 C1611 C 0.69084 0.16556 -0.11411
 C1612 C 0.67352 0.17370 -0.12244
 C1613 C 0.66540 0.19104 -0.11413
 C1614 C 0.67454 0.20029 -0.09798
 C1615 C 0.70178 0.20197 -0.07334
 C1616 C 0.69372 0.21947 -0.06560
 C1617 C 0.70341 0.22905 -0.04997
 C1618 C 0.72110 0.22128 -0.04212
 C1619 C 0.72885 0.20357 -0.04995
 C1620 C 0.71927 0.19388 -0.06559
 C1621 C 0.66681 0.21773 -0.08972
 C1622 C 0.67624 0.22716 -0.07381
 C1623 C 0.71751 0.16695 -0.08969
 C1624 C 0.72694 0.17638 -0.07377
 H1625 H 0.65342 0.22422 -0.09569
 H1626 H 0.66985 0.24065 -0.06796
 H1627 H 0.72398 0.15355 -0.09564
 H1628 H 0.74041 0.16997 -0.06791
 H1629 H 0.69728 0.15224 -0.12030
 H1630 H 0.65209 0.19748 -0.12034
 H1631 H 0.69730 0.24266 -0.04408
 H1632 H 0.74244 0.19743 -0.04406
 C1633 C 0.19221 0.69173 -0.08985
 C1634 C 0.20048 0.67440 -0.09777
 C1635 C 0.19124 0.66521 -0.11390
 C1636 C 0.17386 0.67328 -0.12219
 C1637 C 0.16568 0.69058 -0.11386
 C1638 C 0.17481 0.69987 -0.09773
 C1639 C 0.20210 0.70168 -0.07315
 C1640 C 0.19396 0.71915 -0.06540
 C1641 C 0.20364 0.72877 -0.04979
 C1642 C 0.22138 0.72109 -0.04197
 C1643 C 0.22920 0.70341 -0.04981
 C1644 C 0.21964 0.69367 -0.06543
 C1645 C 0.16701 0.71728 -0.08946
 C1646 C 0.17643 0.72675 -0.07357
 C1647 C 0.21795 0.66674 -0.08953
 C1648 C 0.22737 0.67621 -0.07363
 H1649 H 0.15358 0.72370 -0.09540
 H1650 H 0.16999 0.74021 -0.06771
 H1651 H 0.22448 0.65337 -0.09549
 H1652 H 0.24088 0.66987 -0.06779
 H1653 H 0.19771 0.65193 -0.12011
 H1654 H 0.15233 0.69696 -0.12003
 H1655 H 0.19746 0.74235 -0.04390
 H1656 H 0.24283 0.69735 -0.04394
 C1657 C 0.19188 0.19189 0.41008
 C1658 C 0.17456 0.20014 0.40216
 C1659 C 0.16544 0.19094 0.38596
 C1660 C 0.17358 0.17363 0.37762
 C1661 C 0.19088 0.16546 0.38595
 C1662 C 0.20010 0.17455 0.40214
 C1663 C 0.20176 0.20174 0.42685
 C1664 C 0.21923 0.19363 0.43461
 C1665 C 0.22879 0.20327 0.45028
 C1666 C 0.22103 0.22096 0.45816
 C1667 C 0.20335 0.22875 0.45030
 C1668 C 0.19368 0.21922 0.43463
 C1669 C 0.21751 0.16677 0.41042
 C1670 C 0.22691 0.17615 0.42638
 C1671 C 0.16681 0.21756 0.41046
 C1672 C 0.17622 0.22694 0.42642
 H1673 H 0.22399 0.15339 0.40444
 H1674 H 0.24037 0.16973 0.43225
 H1675 H 0.15344 0.22407 0.40449
 H1676 H 0.16982 0.24041 0.43229
 H1677 H 0.15215 0.19741 0.37975
 H1678 H 0.19732 0.15216 0.37973
 H1679 H 0.24237 0.19712 0.45618
 H1680 H 0.19723 0.24234 0.45621
 C1681 C 0.30784 0.41005 0.69232
 C1682 C 0.29964 0.40214 0.67497
 C1683 C 0.30893 0.38600 0.66582
 C1684 C 0.32626 0.37769 0.67394
 C1685 C 0.33437 0.38601 0.69127
 C1686 C 0.32520 0.40215 0.70053
 C1687 C 0.29792 0.42677 0.70222
 C1688 C 0.30598 0.43453 0.71970
 C1689 C 0.29628 0.45017 0.72927
 C1690 C 0.27858 0.45801 0.72151
 C1691 C 0.27083 0.45016 0.70382
 C1692 C 0.28042 0.43451 0.69414
 C1693 C 0.33292 0.41042 0.71795
 C1694 C 0.32348 0.42634 0.72738
 C1695 C 0.28221 0.41040 0.66724
 C1696 C 0.27276 0.42631 0.67666
 H1697 H 0.34632 0.40447 0.72443
 H1698 H 0.32986 0.43220 0.74085
 H1699 H 0.27574 0.40444 0.65385
 H1700 H 0.25928 0.43216 0.67027
 H1701 H 0.30250 0.37981 0.65251
 H1702 H 0.34769 0.37982 0.69770
 H1703 H 0.30239 0.45607 0.74286
 H1704 H 0.25723 0.45604 0.69770
 C1705 C 0.30808 0.91092 0.19184
 C1706 C 0.32544 0.90302 0.20002
 C1707 C 0.33462 0.88690 0.19072
 C1708 C 0.32651 0.87862 0.17339
 C1709 C 0.30916 0.88692 0.16529
 C1710 C 0.29987 0.90304 0.17448
 C1711 C 0.29814 0.92762 0.20178
 C1712 C 0.28063 0.93536 0.19373
 C1713 C 0.27103 0.95097 0.20345
 C1714 C 0.27878 0.95879 0.22115
 C1715 C 0.29650 0.95095 0.22888
 C1716 C 0.30621 0.93534 0.21927
 C1717 C 0.28242 0.91130 0.16677
 C1718 C 0.27297 0.92719 0.17624
 C1719 C 0.33317 0.91126 0.21745
 C1720 C 0.32372 0.92715 0.22692
 H1721 H 0.27595 0.90536 0.15338
 H1722 H 0.25948 0.93304 0.16987
 H1723 H 0.34658 0.90531 0.22391
 H1724 H 0.33011 0.93299 0.24040
 H1725 H 0.34795 0.88072 0.19713
 H1726 H 0.30273 0.88075 0.15198
 H1727 H 0.25743 0.95686 0.19735
 H1728 H 0.30262 0.95682 0.24248
 C1729 C 0.80851 0.41039 0.19164
 C1730 C 0.82589 0.40251 0.19984
 C1731 C 0.83508 0.38638 0.19057
 C1732 C 0.82697 0.37807 0.17324
 C1733 C 0.80962 0.38636 0.16513
 C1734 C 0.80032 0.40248 0.17429
 C1735 C 0.79856 0.42708 0.20157
 C1736 C 0.78104 0.43479 0.19351
 C1737 C 0.77141 0.45039 0.20322
 C1738 C 0.77915 0.45823 0.22092
 C1739 C 0.79687 0.45042 0.22866
 C1740 C 0.80661 0.43482 0.21906
 C1741 C 0.78287 0.41072 0.16657
 C1742 C 0.77339 0.42660 0.17602
 C1743 C 0.83360 0.41077 0.21727
 C1744 C 0.82413 0.42666 0.22672
 H1745 H 0.77641 0.40476 0.15318
 H1746 H 0.75989 0.43243 0.16964
 H1747 H 0.84701 0.40484 0.22374
 H1748 H 0.83050 0.43251 0.24020
 H1749 H 0.84841 0.38021 0.19699
 H1750 H 0.80320 0.38017 0.15182
 H1751 H 0.75780 0.45625 0.19711
 H1752 H 0.80298 0.45631 0.24226
 C1753 C 0.80822 0.91097 0.69195
 C1754 C 0.82559 0.90308 0.70014
 C1755 C 0.83478 0.88697 0.69086
 C1756 C 0.82667 0.87866 0.67353
 C1757 C 0.80932 0.88695 0.66543
 C1758 C 0.80002 0.90307 0.67460
 C1759 C 0.79827 0.92767 0.70188
 C1760 C 0.78076 0.93539 0.69383
 C1761 C 0.77115 0.95100 0.70354
 C1762 C 0.77889 0.95885 0.72123
 C1763 C 0.79661 0.95102 0.72897
 C1764 C 0.80633 0.93541 0.71938
 C1765 C 0.78257 0.91132 0.66689
 C1766 C 0.77310 0.92720 0.67634
 C1767 C 0.83331 0.91134 0.71757
 C1768 C 0.82384 0.92723 0.72703
 H1769 H 0.77610 0.90537 0.65349
 H1770 H 0.75961 0.93305 0.66996
 H1771 H 0.84672 0.90540 0.72403
 H1772 H 0.83023 0.93308 0.74051
 H1773 H 0.84811 0.88079 0.69727
 H1774 H 0.80290 0.88077 0.65211
 H1775 H 0.75754 0.95688 0.69743
 H1776 H 0.80272 0.95690 0.74257
 C1777 C 0.69199 0.58979 0.69223
 C1778 C 0.70016 0.59769 0.67486
 C1779 C 0.69087 0.61381 0.66571
 C1780 C 0.67354 0.62212 0.67385
 C1781 C 0.66546 0.61383 0.69120
 C1782 C 0.67464 0.59770 0.70045
 C1783 C 0.70194 0.57308 0.70213
 C1784 C 0.69390 0.56535 0.71963
 C1785 C 0.70362 0.54972 0.72920
 C1786 C 0.72131 0.54187 0.72142
 C1787 C 0.72903 0.54971 0.70372
 C1788 C 0.71942 0.56534 0.69404
 C1789 C 0.66695 0.58944 0.71790
 C1790 C 0.67641 0.57354 0.72732
 C1791 C 0.71759 0.58942 0.66711
 C1792 C 0.72706 0.57352 0.67654
 H1793 H 0.65356 0.59540 0.72438
 H1794 H 0.67005 0.56770 0.74081
 H1795 H 0.72403 0.59537 0.65371
 H1796 H 0.74053 0.56766 0.67013
 H1797 H 0.69727 0.61999 0.65239
 H1798 H 0.65215 0.62002 0.69764
 H1799 H 0.69753 0.54383 0.74280
 H1800 H 0.74262 0.54382 0.69758
 C1801 C 0.69185 0.08943 0.19167
 C1802 C 0.67446 0.09730 0.19983
 C1803 C 0.66524 0.11337 0.19050
 C1804 C 0.67334 0.12165 0.17316
 C1805 C 0.69071 0.11337 0.16508
 C1806 C 0.70004 0.09730 0.17430
 C1807 C 0.70183 0.07279 0.20164
 C1808 C 0.71937 0.06508 0.19362
 C1809 C 0.72901 0.04952 0.20337
 C1810 C 0.72127 0.04171 0.22108
 C1811 C 0.70354 0.04952 0.22879
 C1812 C 0.69379 0.06508 0.21915
 C1813 C 0.71751 0.08907 0.16661
 C1814 C 0.72701 0.07324 0.17611
 C1815 C 0.66675 0.08907 0.21728
 C1816 C 0.67625 0.07324 0.22678
 H1817 H 0.72397 0.09500 0.15321
 H1818 H 0.74052 0.06741 0.16975
 H1819 H 0.65333 0.09500 0.22372
 H1820 H 0.66988 0.06741 0.24027
 H1821 H 0.65189 0.11953 0.19690
 H1822 H 0.69712 0.11954 0.15176
 H1823 H 0.74263 0.04365 0.19728
 H1824 H 0.69743 0.04366 0.24240
 C1825 C 0.19147 0.58946 0.19159
 C1826 C 0.19969 0.59737 0.17426
 C1827 C 0.19043 0.61351 0.16509
 C1828 C 0.17308 0.62182 0.17319
 C1829 C 0.16494 0.61351 0.19050
 C1830 C 0.17410 0.59737 0.19977
 C1831 C 0.20139 0.57276 0.20152
 C1832 C 0.19330 0.56502 0.21900
 C1833 C 0.20301 0.54941 0.22861
 C1834 C 0.22073 0.54158 0.22090
 C1835 C 0.22850 0.54941 0.20321
 C1836 C 0.21890 0.56502 0.19349
 C1837 C 0.16635 0.58911 0.21719
 C1838 C 0.17579 0.57321 0.22664
 C1839 C 0.21714 0.58910 0.16656
 C1840 C 0.22659 0.57321 0.17601
 H1841 H 0.15294 0.59506 0.22364
 H1842 H 0.16939 0.56736 0.24011
 H1843 H 0.22363 0.59506 0.15318
 H1844 H 0.24008 0.56736 0.16965
 H1845 H 0.19687 0.61970 0.15180
 H1846 H 0.15162 0.61970 0.19691
 H1847 H 0.19688 0.54354 0.24220
 H1848 H 0.24211 0.54353 0.19712
 C1849 C 0.19173 0.08889 0.69197
 C1850 C 0.17436 0.09678 0.70015
 C1851 C 0.16515 0.11287 0.69084
 C1852 C 0.17325 0.12115 0.67350
 C1853 C 0.19060 0.11286 0.66540
 C1854 C 0.19992 0.09676 0.67460
 C1855 C 0.20169 0.07222 0.70192
 C1856 C 0.21921 0.06449 0.69387
 C1857 C 0.22883 0.04891 0.70360
 C1858 C 0.22110 0.04109 0.72131
 C1859 C 0.20338 0.04892 0.72904
 C1860 C 0.19365 0.06451 0.71943
 C1861 C 0.21737 0.08852 0.66689
 C1862 C 0.22685 0.07266 0.67637
 C1863 C 0.16665 0.08854 0.71760
 C1864 C 0.17613 0.07268 0.72707
 H1865 H 0.22383 0.09445 0.65349
 H1866 H 0.24035 0.06681 0.67000
 H1867 H 0.15324 0.09449 0.72405
 H1868 H 0.16976 0.06685 0.74056
 H1869 H 0.15182 0.11905 0.69725
 H1870 H 0.19701 0.11902 0.65208
 H1871 H 0.24244 0.04303 0.69749
 H1872 H 0.19728 0.04305 0.74265
 C1873 C 0.30770 0.58973 0.30777
 C1874 C 0.29951 0.59765 0.32512
 C1875 C 0.30880 0.61378 0.33428
 C1876 C 0.32615 0.62207 0.32617
 C1877 C 0.33426 0.61376 0.30885
 C1878 C 0.32507 0.59763 0.29958
 C1879 C 0.29776 0.57302 0.29786
 C1880 C 0.30583 0.56527 0.28038
 C1881 C 0.29612 0.54963 0.27080
 C1882 C 0.27841 0.54179 0.27855
 C1883 C 0.27065 0.54965 0.29623
 C1884 C 0.28026 0.56529 0.30592
 C1885 C 0.33280 0.58935 0.28216
 C1886 C 0.32334 0.57345 0.27272
 C1887 C 0.28206 0.58939 0.33284
 C1888 C 0.27259 0.57349 0.32340
 H1889 H 0.34620 0.59530 0.27569
 H1890 H 0.32972 0.56759 0.25925
 H1891 H 0.27559 0.59535 0.34622
 H1892 H 0.25910 0.56764 0.32979
 H1893 H 0.30238 0.61997 0.34759
 H1894 H 0.34759 0.61993 0.30243
 H1895 H 0.30224 0.54373 0.25722
 H1896 H 0.25705 0.54377 0.30235
 C1897 C 0.30809 0.08898 0.80837
 C1898 C 0.32548 0.09687 0.80021
 C1899 C 0.33466 0.11298 0.80952
 C1900 C 0.32652 0.12127 0.82684
 C1901 C 0.30915 0.11298 0.83491
 C1902 C 0.29987 0.09687 0.82571
 C1903 C 0.29815 0.07229 0.79841
 C1904 C 0.28062 0.06456 0.80643
 C1905 C 0.27102 0.04895 0.79669
 C1906 C 0.27879 0.04113 0.77900
 C1907 C 0.29653 0.04896 0.77130
 C1908 C 0.30624 0.06456 0.78093
 C1909 C 0.28240 0.08862 0.83339
 C1910 C 0.27294 0.07274 0.82391
 C1911 C 0.33323 0.08862 0.78279
 C1912 C 0.32377 0.07274 0.77331
 H1913 H 0.27591 0.09456 0.84677
 H1914 H 0.25943 0.06689 0.83026
 H1915 H 0.34665 0.09456 0.77636
 H1916 H 0.33017 0.06690 0.75984
 H1917 H 0.34800 0.11915 0.80313
 H1918 H 0.30271 0.11916 0.84821
 H1919 H 0.25740 0.04308 0.80277
 H1920 H 0.30266 0.04308 0.75772
 C1921 C 0.80844 0.58963 0.80822
 C1922 C 0.82579 0.59754 0.80000
 C1923 C 0.83498 0.61368 0.80926
 C1924 C 0.82688 0.62197 0.82660
 C1925 C 0.80955 0.61366 0.83473
 C1926 C 0.80026 0.59752 0.82558
 C1927 C 0.79849 0.57292 0.79830
 C1928 C 0.78100 0.56518 0.80638
 C1929 C 0.77137 0.54956 0.79668
 C1930 C 0.77909 0.54174 0.77897
 C1931 C 0.79680 0.54958 0.77121
 C1932 C 0.80653 0.56519 0.78080
 C1933 C 0.78283 0.58925 0.83332
 C1934 C 0.77336 0.57336 0.82389
 C1935 C 0.83349 0.58929 0.78256
 C1936 C 0.82402 0.57339 0.77312
 H1937 H 0.77638 0.59520 0.84672
 H1938 H 0.75988 0.56750 0.83028
 H1939 H 0.84689 0.59525 0.77608
 H1940 H 0.83039 0.56755 0.75964
 H1941 H 0.84829 0.61987 0.80282
 H1942 H 0.80314 0.61984 0.84805
 H1943 H 0.75778 0.54368 0.80281
 H1944 H 0.80289 0.54371 0.75761
 C1945 C 0.80853 0.08958 0.30799
 C1946 C 0.82588 0.09748 0.29977
 C1947 C 0.83511 0.11358 0.30907
 C1948 C 0.82705 0.12185 0.32643
 C1949 C 0.80971 0.11354 0.33456
 C1950 C 0.80038 0.09745 0.32538
 C1951 C 0.79854 0.07292 0.29805
 C1952 C 0.78104 0.06518 0.30614
 C1953 C 0.77139 0.04959 0.29642
 C1954 C 0.77909 0.04178 0.27870
 C1955 C 0.79679 0.04962 0.27092
 C1956 C 0.80655 0.06521 0.28053
 C1957 C 0.78294 0.08920 0.33312
 C1958 C 0.77344 0.07334 0.32366
 C1959 C 0.83355 0.08925 0.28231
 C1960 C 0.82405 0.07339 0.27284
 H1961 H 0.77652 0.09512 0.34654
 H1962 H 0.75996 0.06749 0.33006
 H1963 H 0.84695 0.09520 0.27582
 H1964 H 0.83039 0.06756 0.25934
 H1965 H 0.84843 0.11976 0.30263
 H1966 H 0.80333 0.11970 0.34791
 H1967 H 0.75780 0.04371 0.30256
 H1968 H 0.80286 0.04375 0.25731
 C1969 C 0.69213 0.41012 0.30775
 C1970 C 0.67476 0.40222 0.29956
 C1971 C 0.66558 0.38609 0.30882
 C1972 C 0.67369 0.37779 0.32615
 C1973 C 0.69104 0.38609 0.33426
 C1974 C 0.70033 0.40222 0.32510
 C1975 C 0.70206 0.42683 0.29784
 C1976 C 0.71957 0.43457 0.30590
 C1977 C 0.72917 0.45020 0.29621
 C1978 C 0.72142 0.45805 0.27853
 C1979 C 0.70371 0.45021 0.27078
 C1980 C 0.69400 0.43457 0.28036
 C1981 C 0.71777 0.41048 0.33282
 C1982 C 0.72723 0.42638 0.32339
 C1983 C 0.66704 0.41048 0.28213
 C1984 C 0.67649 0.42638 0.27269
 H1985 H 0.72424 0.40453 0.34621
 H1986 H 0.74072 0.43223 0.32977
 H1987 H 0.65363 0.40453 0.27566
 H1988 H 0.67011 0.43224 0.25922
 H1989 H 0.65225 0.37990 0.30240
 H1990 H 0.69746 0.37991 0.34757
 H1991 H 0.74277 0.45609 0.30233
 H1992 H 0.69759 0.45609 0.25719
 C1993 C 0.69192 0.91100 0.80824
 C1994 C 0.67453 0.90311 0.80008
 C1995 C 0.66535 0.88700 0.80938
 C1996 C 0.67349 0.87870 0.82669
 C1997 C 0.69086 0.88698 0.83476
 C1998 C 0.70015 0.90310 0.82557
 C1999 C 0.70185 0.92769 0.79829
 C2000 C 0.71938 0.93542 0.80631
 C2001 C 0.72898 0.95103 0.79658
 C2002 C 0.72121 0.95886 0.77890
 C2003 C 0.70347 0.95103 0.77120
 C2004 C 0.69376 0.93543 0.78081
 C2005 C 0.71762 0.91135 0.83325
 C2006 C 0.72707 0.92723 0.82378
 C2007 C 0.66678 0.91137 0.78267
 C2008 C 0.67623 0.92725 0.77319
 H2009 H 0.72411 0.90540 0.84663
 H2010 H 0.74058 0.93307 0.83013
 H2011 H 0.65335 0.90543 0.77623
 H2012 H 0.66982 0.93310 0.75973
 H2013 H 0.65200 0.88083 0.80299
 H2014 H 0.69730 0.88080 0.84806
 H2015 H 0.74261 0.95690 0.80267
 H2016 H 0.69734 0.95692 0.75761
 C2017 C 0.19156 0.41030 0.80836
 C2018 C 0.17419 0.40239 0.80016
 C2019 C 0.16502 0.38625 0.80942
 C2020 C 0.17314 0.37794 0.82674
 C2021 C 0.19048 0.38625 0.83486
 C2022 C 0.19976 0.40239 0.82571
 C2023 C 0.20149 0.42700 0.79845
 C2024 C 0.21900 0.43474 0.80651
 C2025 C 0.22861 0.45036 0.79681
 C2026 C 0.22087 0.45819 0.77911
 C2027 C 0.20315 0.45036 0.77137
 C2028 C 0.19343 0.43474 0.78096
 C2029 C 0.21720 0.41065 0.83343
 C2030 C 0.22666 0.42655 0.82399
 C2031 C 0.16647 0.41066 0.78274
 C2032 C 0.17592 0.42656 0.77330
 H2033 H 0.22367 0.40469 0.84682
 H2034 H 0.24015 0.43240 0.83038
 H2035 H 0.15306 0.40470 0.77627
 H2036 H 0.16954 0.43241 0.75983
 H2037 H 0.15170 0.38006 0.80299
 H2038 H 0.19690 0.38005 0.84816
 H2039 H 0.24222 0.45624 0.80292
 H2040 H 0.19704 0.45624 0.75778
 C2041 C 0.19176 0.91095 0.30810
 C2042 C 0.19995 0.90307 0.32546
 C2043 C 0.19066 0.88695 0.33465
 C2044 C 0.17331 0.87864 0.32654
 C2045 C 0.16521 0.88692 0.30920
 C2046 C 0.17440 0.90303 0.29991
 C2047 C 0.20170 0.92764 0.29817
 C2048 C 0.19365 0.93535 0.28066
 C2049 C 0.20337 0.95096 0.27106
 C2050 C 0.22108 0.95881 0.27880
 C2051 C 0.22882 0.95100 0.29651
 C2052 C 0.21920 0.93539 0.30623
 C2053 C 0.16668 0.91127 0.28246
 C2054 C 0.17615 0.92715 0.27301
 C2055 C 0.21739 0.91134 0.33318
 C2056 C 0.22686 0.92722 0.32373
 H2057 H 0.15328 0.90531 0.27600
 H2058 H 0.16977 0.93298 0.25952
 H2059 H 0.22385 0.90541 0.34659
 H2060 H 0.24034 0.93308 0.33011
 H2061 H 0.19707 0.88079 0.34797
 H2062 H 0.15189 0.88072 0.30278
 H2063 H 0.19726 0.95683 0.25746
 H2064 H 0.24242 0.95689 0.30263
 C2065 C 0.41018 0.30760 0.69234
 C2066 C 0.40228 0.32496 0.70055
 C2067 C 0.38615 0.33415 0.69129
 C2068 C 0.37785 0.32605 0.67396
 C2069 C 0.38614 0.30871 0.66584
 C2070 C 0.40227 0.29941 0.67499
 C2071 C 0.42689 0.29766 0.70225
 C2072 C 0.43462 0.28016 0.69417
 C2073 C 0.45025 0.27056 0.70385
 C2074 C 0.45811 0.27830 0.72154
 C2075 C 0.45027 0.29600 0.72930
 C2076 C 0.43464 0.30572 0.71973
 C2077 C 0.41052 0.28197 0.66726
 C2078 C 0.42642 0.27251 0.67668
 C2079 C 0.41055 0.33268 0.71798
 C2080 C 0.42645 0.32322 0.72741
 H2081 H 0.40456 0.27551 0.65386
 H2082 H 0.43227 0.25902 0.67029
 H2083 H 0.40461 0.34608 0.72446
 H2084 H 0.43231 0.32960 0.74089
 H2085 H 0.37998 0.34748 0.69772
 H2086 H 0.37995 0.30229 0.65252
 H2087 H 0.45614 0.25696 0.69772
 H2088 H 0.45617 0.30212 0.74289
 C2089 C 0.41043 0.80855 0.19175
 C2090 C 0.40255 0.82592 0.19995
 C2091 C 0.38643 0.83512 0.19068
 C2092 C 0.37813 0.82703 0.17334
 C2093 C 0.38642 0.80968 0.16522
 C2094 C 0.40253 0.80037 0.17439
 C2095 C 0.42711 0.79859 0.20167
 C2096 C 0.43483 0.78107 0.19361
 C2097 C 0.45042 0.77144 0.20332
 C2098 C 0.45825 0.77916 0.22102
 C2099 C 0.45044 0.79689 0.22877
 C2100 C 0.43485 0.80663 0.21918
 C2101 C 0.41077 0.78292 0.16666
 C2102 C 0.42664 0.77343 0.17611
 C2103 C 0.41080 0.83363 0.21739
 C2104 C 0.42668 0.82414 0.22684
 H2105 H 0.40482 0.77647 0.15326
 H2106 H 0.43248 0.75994 0.16972
 H2107 H 0.40487 0.84703 0.22386
 H2108 H 0.43253 0.83051 0.24033
 H2109 H 0.38026 0.84845 0.19711
 H2110 H 0.38023 0.80327 0.15191
 H2111 H 0.45629 0.75783 0.19720
 H2112 H 0.45632 0.80299 0.24237
 C2113 C 0.91089 0.30806 0.19171
 C2114 C 0.90299 0.29982 0.17437
 C2115 C 0.88686 0.30909 0.16519
 C2116 C 0.87856 0.32645 0.17327
 C2117 C 0.88687 0.33460 0.19058
 C2118 C 0.90299 0.32544 0.19987
 C2119 C 0.92760 0.29814 0.20165
 C2120 C 0.93534 0.30624 0.21912
 C2121 C 0.95096 0.29655 0.22873
 C2122 C 0.95880 0.27883 0.22101
 C2123 C 0.95096 0.27104 0.20333
 C2124 C 0.93534 0.28062 0.19362
 C2125 C 0.91125 0.33320 0.21729
 C2126 C 0.92715 0.32376 0.22675
 C2127 C 0.91125 0.28236 0.16669
 C2128 C 0.92715 0.27293 0.17614
 H2129 H 0.90530 0.34662 0.22373
 H2130 H 0.93300 0.33018 0.24021
 H2131 H 0.90530 0.27587 0.15331
 H2132 H 0.93300 0.25943 0.16979
 H2133 H 0.88067 0.30264 0.15189
 H2134 H 0.88069 0.34794 0.19698
 H2135 H 0.95685 0.30269 0.24231
 H2136 H 0.95685 0.25743 0.19724
 C2137 C 0.91066 0.80865 0.69185
 C2138 C 0.90275 0.82599 0.70009
 C2139 C 0.88662 0.83519 0.69083
 C2140 C 0.87833 0.82710 0.67348
 C2141 C 0.88664 0.80978 0.66534
 C2142 C 0.90277 0.80048 0.67448
 C2143 C 0.92736 0.79870 0.70176
 C2144 C 0.93510 0.78121 0.69366
 C2145 C 0.95071 0.77158 0.70335
 C2146 C 0.95853 0.77929 0.72107
 C2147 C 0.95070 0.79698 0.72885
 C2148 C 0.93508 0.80672 0.71927
 C2149 C 0.91103 0.78306 0.66673
 C2150 C 0.92692 0.77358 0.67615
 C2151 C 0.91100 0.83368 0.71754
 C2152 C 0.92689 0.82421 0.72697
 H2153 H 0.90509 0.77662 0.65332
 H2154 H 0.93278 0.76011 0.66974
 H2155 H 0.90504 0.84707 0.72403
 H2156 H 0.93273 0.83056 0.74046
 H2157 H 0.88042 0.84849 0.69728
 H2158 H 0.88047 0.80338 0.65201
 H2159 H 0.95659 0.75799 0.69721
 H2160 H 0.95657 0.80307 0.74247
 C2161 C 0.58972 0.30774 0.30778
 C2162 C 0.59763 0.29953 0.32512
 C2163 C 0.61377 0.30882 0.33427
 C2164 C 0.62207 0.32617 0.32617
 C2165 C 0.61376 0.33428 0.30885
 C2166 C 0.59762 0.32510 0.29958
 C2167 C 0.57300 0.29781 0.29788
 C2168 C 0.56524 0.30588 0.28040
 C2169 C 0.54960 0.29617 0.27083
 C2170 C 0.54175 0.27847 0.27858
 C2171 C 0.54961 0.27071 0.29626
 C2172 C 0.56526 0.28030 0.30594
 C2173 C 0.58934 0.33283 0.28217
 C2174 C 0.57343 0.32338 0.27274
 C2175 C 0.58937 0.28208 0.33284
 C2176 C 0.57346 0.27263 0.32342
 H2177 H 0.59529 0.34624 0.27570
 H2178 H 0.56757 0.32977 0.25927
 H2179 H 0.59533 0.27561 0.34623
 H2180 H 0.56761 0.25915 0.32980
 H2181 H 0.61996 0.30239 0.34758
 H2182 H 0.61994 0.34761 0.30242
 H2183 H 0.54370 0.30230 0.25725
 H2184 H 0.54373 0.25711 0.30238
 C2185 C 0.58947 0.80872 0.80835
 C2186 C 0.59737 0.82608 0.80015
 C2187 C 0.61351 0.83526 0.80942
 C2188 C 0.62180 0.82715 0.82675
 C2189 C 0.61349 0.80982 0.83486
 C2190 C 0.59736 0.80053 0.82570
 C2191 C 0.57277 0.79878 0.79843
 C2192 C 0.56503 0.78127 0.80649
 C2193 C 0.54942 0.77165 0.79678
 C2194 C 0.54160 0.77938 0.77907
 C2195 C 0.54943 0.79709 0.77133
 C2196 C 0.56504 0.80683 0.78093
 C2197 C 0.58910 0.78309 0.83343
 C2198 C 0.57320 0.77362 0.82398
 C2199 C 0.58912 0.83380 0.78271
 C2200 C 0.57323 0.82433 0.77327
 H2201 H 0.59504 0.77663 0.84683
 H2202 H 0.56735 0.76013 0.83037
 H2203 H 0.59508 0.84720 0.77624
 H2204 H 0.56739 0.83070 0.75978
 H2205 H 0.61970 0.84858 0.80299
 H2206 H 0.61967 0.80340 0.84818
 H2207 H 0.54354 0.75804 0.80289
 H2208 H 0.54356 0.80320 0.75773
 C2209 C 0.08940 0.30773 0.80807
 C2210 C 0.09727 0.29952 0.82543
 C2211 C 0.11336 0.30883 0.83465
 C2212 C 0.12165 0.32620 0.82658
 C2213 C 0.11338 0.33432 0.80924
 C2214 C 0.09729 0.32512 0.79991
 C2215 C 0.07273 0.29778 0.79809
 C2216 C 0.06503 0.30585 0.78060
 C2217 C 0.04943 0.29613 0.77096
 C2218 C 0.04159 0.27840 0.77867
 C2219 C 0.04940 0.27064 0.79637
 C2220 C 0.06500 0.28025 0.80612
 C2221 C 0.08907 0.33285 0.78247
 C2222 C 0.07321 0.32338 0.77298
 C2223 C 0.08901 0.28206 0.83310
 C2224 C 0.07315 0.27258 0.82361
 H2225 H 0.09502 0.34627 0.77604
 H2226 H 0.06738 0.32977 0.75950
 H2227 H 0.09494 0.27558 0.84650
 H2228 H 0.06730 0.25908 0.82997
 H2229 H 0.11952 0.30241 0.84797
 H2230 H 0.11956 0.34766 0.80285
 H2231 H 0.04357 0.30225 0.75737
 H2232 H 0.04351 0.25703 0.80246
 C2233 C 0.08942 0.80850 0.30815
 C2234 C 0.09731 0.80034 0.32552
 C2235 C 0.11342 0.80966 0.33468
 C2236 C 0.12171 0.82701 0.32656
 C2237 C 0.11341 0.83509 0.30921
 C2238 C 0.09730 0.82587 0.29994
 C2239 C 0.07274 0.79852 0.29823
 C2240 C 0.06501 0.80655 0.28072
 C2241 C 0.04941 0.79680 0.27113
 C2242 C 0.04159 0.77908 0.27889
 C2243 C 0.04942 0.77137 0.29660
 C2244 C 0.06502 0.78102 0.30630
 C2245 C 0.08905 0.83356 0.28249
 C2246 C 0.07318 0.82406 0.27305
 C2247 C 0.08907 0.78289 0.33325
 C2248 C 0.07320 0.77339 0.32381
 H2249 H 0.09499 0.84696 0.27602
 H2250 H 0.06733 0.83042 0.25956
 H2251 H 0.09502 0.77645 0.34666
 H2252 H 0.06736 0.75990 0.33020
 H2253 H 0.11960 0.80326 0.34801
 H2254 H 0.11959 0.84841 0.30278
 H2255 H 0.04352 0.80289 0.25753
 H2256 H 0.04355 0.75776 0.30273
 C2257 C 0.58966 0.69226 0.69228
 C2258 C 0.59755 0.70043 0.67492
 C2259 C 0.61367 0.69112 0.66576
 C2260 C 0.62196 0.67378 0.67388
 C2261 C 0.61367 0.66569 0.69122
 C2262 C 0.59755 0.67490 0.70049
 C2263 C 0.57296 0.70221 0.70219
 C2264 C 0.56522 0.69417 0.71969
 C2265 C 0.54960 0.70390 0.72926
 C2266 C 0.54177 0.72160 0.72149
 C2267 C 0.54961 0.72933 0.70380
 C2268 C 0.56523 0.71971 0.69411
 C2269 C 0.58929 0.66720 0.71793
 C2270 C 0.57341 0.67667 0.72736
 C2271 C 0.58930 0.71787 0.66718
 C2272 C 0.57342 0.72735 0.67661
 H2273 H 0.59524 0.65380 0.72441
 H2274 H 0.56755 0.67031 0.74085
 H2275 H 0.59525 0.72432 0.65378
 H2276 H 0.56757 0.74083 0.67021
 H2277 H 0.61985 0.69752 0.65243
 H2278 H 0.61985 0.65237 0.69765
 H2279 H 0.54372 0.69780 0.74286
 H2280 H 0.54373 0.74292 0.69766
 C2281 C 0.58930 0.19152 0.19152
 C2282 C 0.59719 0.19974 0.17418
 C2283 C 0.61331 0.19047 0.16499
 C2284 C 0.62162 0.17312 0.17308
 C2285 C 0.61333 0.16498 0.19039
 C2286 C 0.59721 0.17414 0.19969
 C2287 C 0.57262 0.20144 0.20148
 C2288 C 0.56490 0.19336 0.21897
 C2289 C 0.54931 0.20307 0.22860
 C2290 C 0.54148 0.22080 0.22090
 C2291 C 0.54929 0.22857 0.20320
 C2292 C 0.56488 0.21897 0.19346
 C2293 C 0.58897 0.16639 0.21711
 C2294 C 0.57309 0.17584 0.22659
 C2295 C 0.58892 0.21720 0.16649
 C2296 C 0.57304 0.22665 0.17597
 H2297 H 0.59492 0.15298 0.22355
 H2298 H 0.56726 0.16944 0.24007
 H2299 H 0.59486 0.22368 0.15311
 H2300 H 0.56719 0.24015 0.16962
 H2301 H 0.61949 0.19691 0.15169
 H2302 H 0.61952 0.15165 0.19679
 H2303 H 0.54345 0.19695 0.24219
 H2304 H 0.54341 0.24219 0.19712
 C2305 C 0.08938 0.69202 0.19181
 C2306 C 0.09727 0.70025 0.17448
 C2307 C 0.11336 0.69094 0.16526
 C2308 C 0.12162 0.67355 0.17331
 C2309 C 0.11332 0.66541 0.19062
 C2310 C 0.09724 0.67461 0.19994
 C2311 C 0.07272 0.70197 0.20179
 C2312 C 0.06498 0.69387 0.21926
 C2313 C 0.04940 0.70360 0.22890
 C2314 C 0.04159 0.72135 0.22122
 C2315 C 0.04943 0.72913 0.20354
 C2316 C 0.06501 0.71952 0.19379
 C2317 C 0.08899 0.66685 0.21736
 C2318 C 0.07313 0.67632 0.22686
 C2319 C 0.08905 0.71774 0.16682
 C2320 C 0.07319 0.72721 0.17632
 H2321 H 0.09491 0.65341 0.22377
 H2322 H 0.06729 0.66991 0.24032
 H2323 H 0.09500 0.72423 0.15344
 H2324 H 0.06737 0.74073 0.16998
 H2325 H 0.11955 0.69739 0.15196
 H2326 H 0.11948 0.65205 0.19699
 H2327 H 0.04352 0.69745 0.24248
 H2328 H 0.04357 0.74277 0.19748
 C2329 C 0.08929 0.19119 0.69181
 C2330 C 0.09719 0.17385 0.70004
 C2331 C 0.11331 0.16464 0.69078
 C2332 C 0.12159 0.17270 0.67342
 C2333 C 0.11328 0.19002 0.66527
 C2334 C 0.09716 0.19934 0.67443
 C2335 C 0.07261 0.20117 0.70173
 C2336 C 0.06487 0.21866 0.69363
 C2337 C 0.04928 0.22830 0.70333
 C2338 C 0.04147 0.22062 0.72105
 C2339 C 0.04930 0.20292 0.72884
 C2340 C 0.06489 0.19316 0.71925
 C2341 C 0.08891 0.21676 0.66667
 C2342 C 0.07303 0.22626 0.67610
 C2343 C 0.08896 0.16618 0.71751
 C2344 C 0.07308 0.17567 0.72695
 H2345 H 0.09484 0.22319 0.65325
 H2346 H 0.06718 0.23973 0.66969
 H2347 H 0.09491 0.15279 0.72400
 H2348 H 0.06725 0.16933 0.74045
 H2349 H 0.11950 0.15133 0.69723
 H2350 H 0.11944 0.19641 0.65193
 H2351 H 0.04340 0.24189 0.69718
 H2352 H 0.04343 0.19685 0.74246
 C2353 C 0.41013 0.69211 0.30781
 C2354 C 0.40223 0.67475 0.29960
 C2355 C 0.38609 0.66557 0.30886
 C2356 C 0.37779 0.67367 0.32619
 C2357 C 0.38610 0.69101 0.33431
 C2358 C 0.40223 0.70030 0.32516
 C2359 C 0.42685 0.70205 0.29791
 C2360 C 0.43459 0.71955 0.30598
 C2361 C 0.45022 0.72915 0.29630
 C2362 C 0.45807 0.72141 0.27861
 C2363 C 0.45022 0.70370 0.27085
 C2364 C 0.43459 0.69399 0.28042
 C2365 C 0.41050 0.71775 0.33289
 C2366 C 0.42640 0.72721 0.32347
 C2367 C 0.41049 0.66703 0.28217
 C2368 C 0.42640 0.67649 0.27274
 H2369 H 0.40454 0.72421 0.34629
 H2370 H 0.43225 0.74069 0.32986
 H2371 H 0.40454 0.65363 0.27570
 H2372 H 0.43225 0.67011 0.25927
 H2373 H 0.37991 0.65224 0.30243
 H2374 H 0.37992 0.69743 0.34763
 H2375 H 0.45612 0.74275 0.30242
 H2376 H 0.45611 0.69758 0.25726
 C2377 C 0.41051 0.19126 0.80848
 C2378 C 0.40261 0.19947 0.82582
 C2379 C 0.38649 0.19019 0.83500
 C2380 C 0.37818 0.17283 0.82690
 C2381 C 0.38649 0.16470 0.80958
 C2382 C 0.40261 0.17388 0.80030
 C2383 C 0.42720 0.20120 0.79854
 C2384 C 0.43492 0.19312 0.78105
 C2385 C 0.45052 0.20285 0.77144
 C2386 C 0.45835 0.22058 0.77915
 C2387 C 0.45053 0.22834 0.79685
 C2388 C 0.43493 0.21872 0.80658
 C2389 C 0.41086 0.16614 0.78288
 C2390 C 0.42674 0.17560 0.77341
 C2391 C 0.41086 0.21693 0.83352
 C2392 C 0.42675 0.22639 0.82406
 H2393 H 0.40491 0.15272 0.77642
 H2394 H 0.43259 0.16921 0.75994
 H2395 H 0.40492 0.22341 0.84691
 H2396 H 0.43259 0.23990 0.83043
 H2397 H 0.38030 0.19662 0.84830
 H2398 H 0.38030 0.15137 0.80317
 H2399 H 0.45639 0.19673 0.75784
 H2400 H 0.45640 0.24196 0.80295
 C2401 C 0.91065 0.69218 0.80802
 C2402 C 0.90277 0.70038 0.82537
 C2403 C 0.88667 0.69107 0.83457
 C2404 C 0.87838 0.67370 0.82650
 C2405 C 0.88666 0.66559 0.80916
 C2406 C 0.90276 0.67479 0.79985
 C2407 C 0.92732 0.70213 0.79806
 C2408 C 0.93504 0.69406 0.78056
 C2409 C 0.95063 0.70379 0.77094
 C2410 C 0.95847 0.72152 0.77867
 C2411 C 0.95065 0.72927 0.79636
 C2412 C 0.93505 0.71966 0.80609
 C2413 C 0.91100 0.66706 0.78241
 C2414 C 0.92686 0.67654 0.77293
 C2415 C 0.91101 0.71785 0.83306
 C2416 C 0.92688 0.72732 0.82359
 H2417 H 0.90505 0.65364 0.77597
 H2418 H 0.93270 0.67015 0.75945
 H2419 H 0.90508 0.72432 0.84646
 H2420 H 0.93272 0.74083 0.82995
 H2421 H 0.88050 0.69750 0.84789
 H2422 H 0.88049 0.65224 0.80276
 H2423 H 0.95651 0.69766 0.75735
 H2424 H 0.95653 0.74289 0.80246
 C2425 C 0.91101 0.19186 0.30802
 C2426 C 0.90313 0.20006 0.32538
 C2427 C 0.88701 0.19077 0.33456
 C2428 C 0.87870 0.17342 0.32646
 C2429 C 0.88698 0.16531 0.30912
 C2430 C 0.90310 0.17449 0.29983
 C2431 C 0.92770 0.20180 0.29808
 C2432 C 0.93541 0.19374 0.28058
 C2433 C 0.95102 0.20346 0.27097
 C2434 C 0.95887 0.22118 0.27871
 C2435 C 0.95105 0.22892 0.29641
 C2436 C 0.93544 0.21931 0.30613
 C2437 C 0.91134 0.16677 0.28239
 C2438 C 0.92722 0.17623 0.27293
 C2439 C 0.91140 0.21751 0.33309
 C2440 C 0.92728 0.22697 0.32363
 H2441 H 0.90538 0.15336 0.27594
 H2442 H 0.93305 0.16984 0.25945
 H2443 H 0.90546 0.22398 0.34649
 H2444 H 0.93313 0.24047 0.33000
 H2445 H 0.88084 0.19720 0.34788
 H2446 H 0.88079 0.15198 0.30271
 H2447 H 0.95689 0.19735 0.25737
 H2448 H 0.95694 0.24253 0.30252
 C2449 C 0.30786 0.30768 0.59006
 C2450 C 0.29965 0.32505 0.59797
 C2451 C 0.30893 0.33421 0.61409
 C2452 C 0.32627 0.32609 0.62238
 C2453 C 0.33438 0.30875 0.61408
 C2454 C 0.32521 0.29947 0.59796
 C2455 C 0.29793 0.29776 0.57336
 C2456 C 0.30600 0.28026 0.56562
 C2457 C 0.29630 0.27068 0.55000
 C2458 C 0.27860 0.27844 0.54216
 C2459 C 0.27084 0.29614 0.55000
 C2460 C 0.28043 0.30584 0.56563
 C2461 C 0.33294 0.28203 0.58970
 C2462 C 0.32350 0.27259 0.57381
 C2463 C 0.28221 0.33278 0.58971
 C2464 C 0.27277 0.32334 0.57382
 H2465 H 0.34634 0.27556 0.59565
 H2466 H 0.32989 0.25910 0.56795
 H2467 H 0.27574 0.34618 0.59566
 H2468 H 0.25928 0.32973 0.56797
 H2469 H 0.30250 0.34754 0.62027
 H2470 H 0.34770 0.30232 0.62026
 H2471 H 0.30242 0.25708 0.54411
 H2472 H 0.25725 0.30227 0.54412
 C2473 C 0.30811 0.80848 0.08956
 C2474 C 0.32551 0.80034 0.09744
 C2475 C 0.33468 0.80967 0.11353
 C2476 C 0.32652 0.82699 0.12182
 C2477 C 0.30914 0.83505 0.11355
 C2478 C 0.29986 0.82583 0.09745
 C2479 C 0.29819 0.79850 0.07289
 C2480 C 0.28065 0.80650 0.06518
 C2481 C 0.27106 0.79674 0.04959
 C2482 C 0.27886 0.77904 0.04177
 C2483 C 0.29661 0.77136 0.04959
 C2484 C 0.30631 0.78101 0.06517
 C2485 C 0.28238 0.83349 0.08921
 C2486 C 0.27294 0.82399 0.07335
 C2487 C 0.33329 0.78291 0.08919
 C2488 C 0.32384 0.77341 0.07333
 H2489 H 0.27588 0.84688 0.09516
 H2490 H 0.25942 0.83032 0.06752
 H2491 H 0.34672 0.77649 0.09513
 H2492 H 0.33027 0.75993 0.06749
 H2493 H 0.34803 0.80329 0.11969
 H2494 H 0.30268 0.84836 0.11973
 H2495 H 0.25743 0.80280 0.04372
 H2496 H 0.30276 0.75777 0.04371
 C2497 C 0.80835 0.30802 0.08950
 C2498 C 0.82571 0.29978 0.09737
 C2499 C 0.83494 0.30905 0.11346
 C2500 C 0.82689 0.32643 0.12175
 C2501 C 0.80955 0.33458 0.11348
 C2502 C 0.80021 0.32542 0.09739
 C2503 C 0.79836 0.29811 0.07284
 C2504 C 0.78086 0.30622 0.06513
 C2505 C 0.77121 0.29652 0.04955
 C2506 C 0.77890 0.27879 0.04171
 C2507 C 0.79660 0.27099 0.04951
 C2508 C 0.80637 0.28057 0.06510
 C2509 C 0.78278 0.33319 0.08917
 C2510 C 0.77326 0.32375 0.07331
 C2511 C 0.83337 0.28230 0.08911
 C2512 C 0.82386 0.27286 0.07325
 H2513 H 0.77636 0.34662 0.09512
 H2514 H 0.75978 0.33017 0.06749
 H2515 H 0.84677 0.27580 0.09504
 H2516 H 0.83020 0.25935 0.06741
 H2517 H 0.84826 0.30260 0.11962
 H2518 H 0.80318 0.34793 0.11965
 H2519 H 0.75761 0.30268 0.04369
 H2520 H 0.80267 0.25737 0.04363
 C2521 C 0.80824 0.80849 0.58975
 C2522 C 0.82563 0.80033 0.59764
 C2523 C 0.83481 0.80966 0.61373
 C2524 C 0.82668 0.82702 0.62199
 C2525 C 0.80931 0.83509 0.61370
 C2526 C 0.80002 0.82586 0.59762
 C2527 C 0.79831 0.79850 0.57310
 C2528 C 0.78078 0.80653 0.56537
 C2529 C 0.77118 0.79676 0.54980
 C2530 C 0.77894 0.77904 0.54200
 C2531 C 0.79667 0.77133 0.54983
 C2532 C 0.80639 0.78099 0.56540
 C2533 C 0.78256 0.83355 0.58937
 C2534 C 0.77310 0.82404 0.57352
 C2535 C 0.83337 0.78288 0.58942
 C2536 C 0.82391 0.77337 0.57358
 H2537 H 0.77608 0.84696 0.59529
 H2538 H 0.75960 0.83040 0.56768
 H2539 H 0.84679 0.77644 0.59537
 H2540 H 0.83031 0.75987 0.56776
 H2541 H 0.84815 0.80327 0.61990
 H2542 H 0.80288 0.84842 0.61986
 H2543 H 0.75756 0.80285 0.54392
 H2544 H 0.80280 0.75772 0.54397
 C2545 C 0.30783 0.69207 0.41008
 C2546 C 0.32520 0.70027 0.40219
 C2547 C 0.33436 0.69099 0.38606
 C2548 C 0.32622 0.67365 0.37776
 C2549 C 0.30887 0.66554 0.38606
 C2550 C 0.29961 0.67472 0.40218
 C2551 C 0.29792 0.70200 0.42678
 C2552 C 0.28041 0.69394 0.43452
 C2553 C 0.27084 0.70365 0.45014
 C2554 C 0.27861 0.72135 0.45798
 C2555 C 0.29633 0.72909 0.45014
 C2556 C 0.30602 0.71950 0.43452
 C2557 C 0.28216 0.66700 0.41043
 C2558 C 0.27272 0.67645 0.42633
 C2559 C 0.33295 0.71770 0.41045
 C2560 C 0.32352 0.72715 0.42634
 H2561 H 0.27567 0.65360 0.40448
 H2562 H 0.25923 0.67007 0.43217
 H2563 H 0.34636 0.72417 0.40450
 H2564 H 0.32993 0.74063 0.43219
 H2565 H 0.34769 0.69741 0.37989
 H2566 H 0.30243 0.65223 0.37987
 H2567 H 0.25723 0.69754 0.45602
 H2568 H 0.30246 0.74269 0.45603
 C2569 C 0.30807 0.19145 0.91061
 C2570 C 0.29984 0.17408 0.90273
 C2571 C 0.30914 0.16486 0.88665
 C2572 C 0.32651 0.17293 0.87837
 C2573 C 0.33465 0.19027 0.88665
 C2574 C 0.32546 0.19961 0.90273
 C2575 C 0.29813 0.20143 0.92726
 C2576 C 0.30622 0.21894 0.93497
 C2577 C 0.29650 0.22859 0.95054
 C2578 C 0.27876 0.22088 0.95835
 C2579 C 0.27099 0.20317 0.95054
 C2580 C 0.28059 0.19341 0.93497
 C2581 C 0.33321 0.21705 0.91096
 C2582 C 0.32375 0.22656 0.92681
 C2583 C 0.28237 0.16640 0.91096
 C2584 C 0.27291 0.17590 0.92681
 H2585 H 0.34664 0.22349 0.90503
 H2586 H 0.33016 0.24005 0.93264
 H2587 H 0.27588 0.15299 0.90503
 H2588 H 0.25939 0.16955 0.93264
 H2589 H 0.30270 0.15153 0.88048
 H2590 H 0.34800 0.19667 0.88049
 H2591 H 0.30264 0.24219 0.95640
 H2592 H 0.25736 0.19708 0.95641
 C2593 C 0.80829 0.69201 0.91036
 C2594 C 0.82564 0.70027 0.90247
 C2595 C 0.83486 0.69101 0.88638
 C2596 C 0.82681 0.67362 0.87809
 C2597 C 0.80948 0.66545 0.88638
 C2598 C 0.80015 0.67461 0.90247
 C2599 C 0.79831 0.70192 0.92702
 C2600 C 0.78082 0.69380 0.93474
 C2601 C 0.77117 0.70349 0.95032
 C2602 C 0.77885 0.72124 0.95815
 C2603 C 0.79655 0.72905 0.95034
 C2604 C 0.80631 0.71947 0.93475
 C2605 C 0.78273 0.66682 0.91071
 C2606 C 0.77322 0.67626 0.92657
 C2607 C 0.83329 0.71776 0.91072
 C2608 C 0.82379 0.72719 0.92658
 H2609 H 0.77631 0.65339 0.90477
 H2610 H 0.75975 0.66983 0.93240
 H2611 H 0.84668 0.72427 0.90478
 H2612 H 0.83013 0.74071 0.93242
 H2613 H 0.84817 0.69747 0.88020
 H2614 H 0.80311 0.65209 0.88021
 H2615 H 0.75758 0.69732 0.95619
 H2616 H 0.80261 0.74268 0.95621
 C2617 C 0.80863 0.19179 0.41031
 C2618 C 0.80047 0.17439 0.40243
 C2619 C 0.80978 0.16523 0.38633
 C2620 C 0.82711 0.17339 0.37803
 C2621 C 0.83518 0.19076 0.38632
 C2622 C 0.82598 0.20003 0.40242
 C2623 C 0.79866 0.20171 0.42698
 C2624 C 0.80667 0.21925 0.43470
 C2625 C 0.79692 0.22884 0.45028
 C2626 C 0.77922 0.22106 0.45810
 C2627 C 0.77152 0.20331 0.45028
 C2628 C 0.78116 0.19360 0.43470
 C2629 C 0.83366 0.21751 0.41067
 C2630 C 0.82417 0.22695 0.42653
 C2631 C 0.78304 0.16663 0.41067
 C2632 C 0.77355 0.17607 0.42653
 H2633 H 0.84705 0.22401 0.40473
 H2634 H 0.83051 0.24047 0.43237
 H2635 H 0.77661 0.15320 0.40473
 H2636 H 0.76007 0.16965 0.43237
 H2637 H 0.80339 0.15188 0.38016
 H2638 H 0.84849 0.19722 0.38014
 H2639 H 0.80300 0.24248 0.45615
 H2640 H 0.75792 0.19716 0.45615
 C2641 C 0.69211 0.30784 0.41004
 C2642 C 0.67476 0.29960 0.40214
 C2643 C 0.66558 0.30886 0.38602
 C2644 C 0.67367 0.32622 0.37773
 C2645 C 0.69101 0.33436 0.38603
 C2646 C 0.70029 0.32521 0.40215
 C2647 C 0.70204 0.29793 0.42674
 C2648 C 0.71953 0.30603 0.43448
 C2649 C 0.72913 0.29635 0.45010
 C2650 C 0.72140 0.27863 0.45794
 C2651 C 0.70370 0.27085 0.45010
 C2652 C 0.69399 0.28042 0.43448
 C2653 C 0.71772 0.33297 0.41041
 C2654 C 0.72718 0.32355 0.42630
 C2655 C 0.66705 0.28215 0.41040
 C2656 C 0.67650 0.27272 0.42629
 H2657 H 0.72418 0.34639 0.40446
 H2658 H 0.74065 0.32996 0.43215
 H2659 H 0.65365 0.27565 0.40445
 H2660 H 0.67013 0.25922 0.43214
 H2661 H 0.65226 0.30241 0.37984
 H2662 H 0.69742 0.34770 0.37985
 H2663 H 0.74272 0.30250 0.45599
 H2664 H 0.69760 0.25723 0.45598
 C2665 C 0.69189 0.80846 0.91043
 C2666 C 0.70014 0.82582 0.90256
 C2667 C 0.69087 0.83507 0.88649
 C2668 C 0.67348 0.82702 0.87820
 C2669 C 0.66532 0.80968 0.88647
 C2670 C 0.67449 0.80033 0.90254
 C2671 C 0.70182 0.79846 0.92708
 C2672 C 0.69370 0.78096 0.93477
 C2673 C 0.70340 0.77129 0.95034
 C2674 C 0.72114 0.77897 0.95817
 C2675 C 0.72895 0.79668 0.95037
 C2676 C 0.71936 0.80646 0.93480
 C2677 C 0.66671 0.78289 0.91076
 C2678 C 0.67616 0.77337 0.92660
 C2679 C 0.71763 0.83348 0.91081
 C2680 C 0.72707 0.82396 0.92665
 H2681 H 0.65327 0.77648 0.90482
 H2682 H 0.66973 0.75989 0.93242
 H2683 H 0.72414 0.84687 0.90489
 H2684 H 0.74059 0.83029 0.93249
 H2685 H 0.69733 0.84839 0.88033
 H2686 H 0.65196 0.80331 0.88030
 H2687 H 0.69724 0.75769 0.95620
 H2688 H 0.74258 0.80274 0.95625
 C2689 C 0.19167 0.30786 0.91049
 C2690 C 0.17432 0.29962 0.90259
 C2691 C 0.16512 0.30889 0.88648
 C2692 C 0.17319 0.32627 0.87821
 C2693 C 0.19052 0.33443 0.88651
 C2694 C 0.19983 0.32526 0.90261
 C2695 C 0.20163 0.29794 0.92716
 C2696 C 0.21912 0.30605 0.93489
 C2697 C 0.22875 0.29635 0.95048
 C2698 C 0.22104 0.27861 0.95830
 C2699 C 0.20335 0.27081 0.95047
 C2700 C 0.19361 0.28040 0.93487
 C2701 C 0.21726 0.33303 0.91087
 C2702 C 0.22674 0.32358 0.92673
 C2703 C 0.16664 0.28214 0.91082
 C2704 C 0.17612 0.27270 0.92669
 H2705 H 0.22369 0.34646 0.90494
 H2706 H 0.24021 0.33000 0.93258
 H2707 H 0.15325 0.27564 0.90487
 H2708 H 0.16977 0.25918 0.93252
 H2709 H 0.15181 0.30244 0.88030
 H2710 H 0.19691 0.34778 0.88035
 H2711 H 0.24234 0.30250 0.95637
 H2712 H 0.19727 0.25719 0.95633
 C2713 C 0.19171 0.80855 0.41037
 C2714 C 0.19995 0.82591 0.40248
 C2715 C 0.19067 0.83512 0.38639
 C2716 C 0.17330 0.82704 0.37811
 C2717 C 0.16515 0.80970 0.38640
 C2718 C 0.17432 0.80039 0.40249
 C2719 C 0.20165 0.79858 0.42703
 C2720 C 0.19355 0.78108 0.43475
 C2721 C 0.20326 0.77144 0.45033
 C2722 C 0.22100 0.77914 0.45814
 C2723 C 0.22878 0.79685 0.45032
 C2724 C 0.21918 0.80660 0.43475
 C2725 C 0.16657 0.78295 0.41073
 C2726 C 0.17602 0.77346 0.42658
 C2727 C 0.21742 0.83359 0.41072
 C2728 C 0.22687 0.82410 0.42658
 H2729 H 0.15314 0.77651 0.40479
 H2730 H 0.16961 0.75997 0.43242
 H2731 H 0.22391 0.84699 0.40478
 H2732 H 0.24038 0.83046 0.43241
 H2733 H 0.19711 0.84843 0.38021
 H2734 H 0.15180 0.80330 0.38023
 H2735 H 0.19712 0.75783 0.45619
 H2736 H 0.24241 0.80294 0.45619
 C2737 C 0.69194 0.69208 0.58996
 C2738 C 0.67459 0.70031 0.59787
 C2739 C 0.66542 0.69105 0.61399
 C2740 C 0.67351 0.67369 0.62228
 C2741 C 0.69083 0.66555 0.61397
 C2742 C 0.70012 0.67470 0.59785
 C2743 C 0.70187 0.70199 0.57327
 C2744 C 0.71936 0.69389 0.56553
 C2745 C 0.72896 0.70359 0.54992
 C2746 C 0.72124 0.72131 0.54209
 C2747 C 0.70355 0.72909 0.54993
 C2748 C 0.69383 0.71951 0.56554
 C2749 C 0.71754 0.66694 0.58959
 C2750 C 0.72700 0.67638 0.57370
 C2751 C 0.66689 0.71777 0.58962
 C2752 C 0.67635 0.72721 0.57373
 H2753 H 0.72399 0.65353 0.59553
 H2754 H 0.74047 0.66997 0.56785
 H2755 H 0.65350 0.72427 0.59558
 H2756 H 0.66998 0.74071 0.56789
 H2757 H 0.65211 0.69750 0.62018
 H2758 H 0.69724 0.65221 0.62014
 H2759 H 0.74255 0.69744 0.54403
 H2760 H 0.69745 0.74271 0.54405
 C2761 C 0.69174 0.19171 0.08934
 C2762 C 0.67435 0.19988 0.09721
 C2763 C 0.66515 0.19056 0.11329
 C2764 C 0.67328 0.17322 0.12158
 C2765 C 0.69065 0.16513 0.11331
 C2766 C 0.69995 0.17435 0.09723
 C2767 C 0.70169 0.20169 0.07270
 C2768 C 0.71923 0.19366 0.06499
 C2769 C 0.72885 0.20341 0.04942
 C2770 C 0.72109 0.22112 0.04161
 C2771 C 0.70335 0.22884 0.04942
 C2772 C 0.69362 0.21920 0.06498
 C2773 C 0.71742 0.16666 0.08900
 C2774 C 0.72690 0.17615 0.07316
 C2775 C 0.66661 0.21733 0.08898
 C2776 C 0.67609 0.22683 0.07314
 H2777 H 0.72389 0.15325 0.09494
 H2778 H 0.74040 0.16979 0.06733
 H2779 H 0.65319 0.22377 0.09490
 H2780 H 0.66970 0.24032 0.06730
 H2781 H 0.65181 0.19696 0.11945
 H2782 H 0.69708 0.15181 0.11948
 H2783 H 0.74247 0.19732 0.04356
 H2784 H 0.69723 0.24244 0.04355
 C2785 C 0.19175 0.69196 0.08951
 C2786 C 0.19991 0.67456 0.09739
 C2787 C 0.19058 0.66538 0.11347
 C2788 C 0.17323 0.67352 0.12174
 C2789 C 0.16516 0.69089 0.11346
 C2790 C 0.17438 0.70018 0.09738
 C2791 C 0.20173 0.70189 0.07286
 C2792 C 0.19371 0.71942 0.06514
 C2793 C 0.20347 0.72903 0.04956
 C2794 C 0.22118 0.72125 0.04176
 C2795 C 0.22889 0.70352 0.04958
 C2796 C 0.21924 0.69381 0.06515
 C2797 C 0.16670 0.71765 0.08914
 C2798 C 0.17620 0.72711 0.07329
 C2799 C 0.21735 0.66682 0.08917
 C2800 C 0.22686 0.67628 0.07332
 H2801 H 0.15330 0.72413 0.09507
 H2802 H 0.16985 0.74062 0.06745
 H2803 H 0.22379 0.65339 0.09511
 H2804 H 0.24035 0.66988 0.06750
 H2805 H 0.19697 0.65204 0.11964
 H2806 H 0.15184 0.69733 0.11962
 H2807 H 0.19738 0.74265 0.04369
 H2808 H 0.24249 0.69739 0.04372
 C2809 C 0.19162 0.19122 0.58965
 C2810 C 0.17423 0.19937 0.59752
 C2811 C 0.16505 0.19005 0.61361
 C2812 C 0.17319 0.17271 0.62190
 C2813 C 0.19057 0.16464 0.61362
 C2814 C 0.19986 0.17386 0.59754
 C2815 C 0.20156 0.20120 0.57300
 C2816 C 0.21910 0.19319 0.56529
 C2817 C 0.22872 0.20295 0.54973
 C2818 C 0.22094 0.22066 0.54192
 C2819 C 0.20319 0.22835 0.54972
 C2820 C 0.19347 0.21870 0.56528
 C2821 C 0.21733 0.16619 0.58931
 C2822 C 0.22680 0.17569 0.57346
 C2823 C 0.16647 0.21681 0.58928
 C2824 C 0.17593 0.22631 0.57344
 H2825 H 0.22383 0.15279 0.59525
 H2826 H 0.24031 0.16934 0.56763
 H2827 H 0.15304 0.22324 0.59521
 H2828 H 0.16953 0.23979 0.56760
 H2829 H 0.15170 0.19644 0.61977
 H2830 H 0.19702 0.15133 0.61980
 H2831 H 0.24235 0.19687 0.54387
 H2832 H 0.19706 0.24195 0.54385
   
