data_POSCAR
  _audit_creation_date              2014-09-24
  _audit_creation_method            'ToBaCCo'
  _symmetry_space_group_name_H-M    'P1'
  _symmetry_Int_Tables_number       1
  _symmetry_cell_setting            triclinic
  loop_
  _symmetry_equiv_pos_as_xyz
 x,y,z
_cell_length_a 44.4947
_cell_length_b 43.4568
_cell_length_c 43.7598
_cell_angle_alpha 90.237300
_cell_angle_beta 90.033700
_cell_angle_gamma 89.884600
loop_
  _atom_site_label
  _atom_site_type_symbol
  _atom_site_fract_x
  _atom_site_fract_y
  _atom_site_fract_z
O1 O 0.33661 0.38180 0.03064
 O2 O 0.37870 0.34347 -0.03115
 O3 O 0.33525 0.38425 -0.02850
 O4 O 0.37888 0.34054 0.02863
 O5 O 0.34453 0.30386 0.02739
 O6 O 0.30202 0.34656 -0.03069
 O7 O 0.34525 0.30593 -0.03179
 O8 O 0.30224 0.34516 0.02844
 Cu9 Cu 0.36088 0.36621 -0.00008
 Cu10 Cu 0.32014 0.32162 -0.00188
 C11 C 0.31214 0.37009 0.03975
 C12 C 0.36927 0.31800 -0.04166
 C13 C 0.31104 0.37290 -0.03902
 C14 C 0.36883 0.31487 0.03788
 O15 O 0.62251 0.66210 -0.02858
 O16 O 0.66719 0.61772 0.02672
 O17 O 0.62452 0.65876 0.03063
 O18 O 0.66476 0.62027 -0.03251
 O19 O 0.69971 0.65631 -0.03075
 O20 O 0.65791 0.69636 0.03007
 O21 O 0.70060 0.65529 0.02849
 O22 O 0.65757 0.69807 -0.02908
 Cu23 Cu 0.64128 0.63599 -0.00105
 Cu24 Cu 0.68241 0.68020 -0.00028
 C25 C 0.63249 0.68765 -0.03813
 C26 C 0.69143 0.62909 0.03703
 C27 C 0.63416 0.68434 0.04068
 C28 C 0.68937 0.63150 -0.04194
 O29 O 0.62251 0.33824 1.03126
 O30 O 0.66594 0.38094 0.97377
 O31 O 0.62373 0.33900 0.97224
 O32 O 0.66412 0.38029 1.03332
 O33 O 0.69948 0.34449 1.03267
 O34 O 0.65836 0.30245 0.97287
 O35 O 0.70013 0.34395 0.97338
 O36 O 0.65791 0.30247 1.03221
 Cu37 Cu 0.64060 0.36337 1.00257
 Cu38 Cu 0.68249 0.31969 1.00285
 C39 C 0.63293 0.31309 1.04143
 C40 C 0.69033 0.36955 0.96375
 C41 C 0.63403 0.31355 0.96249
 C42 C 0.68878 0.36947 1.04320
 O43 O 0.33464 0.61976 0.96814
 O44 O 0.37774 0.65969 1.02830
 O45 O 0.33429 0.61884 1.02761
 O46 O 0.37752 0.66028 0.96884
 O47 O 0.34398 0.69787 0.97003
 O48 O 0.30084 0.65650 1.02847
 O49 O 0.34371 0.69681 1.02930
 O50 O 0.30089 0.65717 0.96915
 Cu51 Cu 0.35945 0.63585 0.99824
 Cu52 Cu 0.31897 0.68084 0.99925
 C53 C 0.31041 0.63174 0.95853
 C54 C 0.36806 0.68508 1.03888
 C55 C 0.31017 0.63061 1.03792
 C56 C 0.36808 0.68621 0.95962
 O57 O -0.02950 0.37567 0.33777
 O58 O 0.03124 0.33328 0.37612
 O59 O 0.02894 0.37682 0.33506
 O60 O -0.02670 0.33213 0.37854
 O61 O -0.02813 0.29756 0.34138
 O62 O 0.02882 0.34120 0.29884
 O63 O 0.03020 0.29803 0.33954
 O64 O -0.02946 0.34119 0.30047
 Cu65 Cu 0.00108 0.35809 0.36053
 Cu66 Cu 0.00020 0.31597 0.31633
 C67 C -0.03953 0.36575 0.31246
 C68 C 0.04074 0.30831 0.36450
 C69 C 0.03840 0.36647 0.30965
 C70 C -0.03668 0.30714 0.36741
 O71 O 0.02726 0.66213 0.61697
 O72 O -0.03013 0.61917 0.65977
 O73 O -0.03171 0.66111 0.61712
 O74 O 0.02782 0.62039 0.65968
 O75 O 0.02737 0.65723 0.69468
 O76 O -0.03209 0.69765 0.65237
 O77 O -0.03089 0.65587 0.69492
 O78 O 0.02620 0.69873 0.65221
 Cu79 Cu -0.00167 0.63711 0.63468
 Cu80 Cu -0.00247 0.68109 0.67704
 C81 C 0.03653 0.68767 0.62749
 C82 C -0.03985 0.63007 0.68484
 C83 C -0.04198 0.68634 0.62755
 C84 C 0.03749 0.63186 0.68453
 O85 O 1.03069 0.62458 0.33634
 O86 O 0.97241 0.66794 0.37772
 O87 O 0.97181 0.62417 0.33669
 O88 O 1.03026 0.66844 0.37701
 O89 O 1.02984 0.70288 0.33996
 O90 O 0.97145 0.65876 0.29980
 O91 O 0.97153 0.70253 0.34080
 O92 O 1.02966 0.65909 0.29936
 Cu93 Cu 1.00131 0.64263 0.36056
 Cu94 Cu 1.00049 0.68429 0.31624
 C95 C 1.04008 0.63455 0.31087
 C96 C 0.96246 0.69282 0.36649
 C97 C 0.96181 0.63395 0.31135
 C98 C 1.03980 0.69328 0.36538
 O99 O 0.97044 0.33699 0.61818
 O100 O 1.02839 0.38025 0.66060
 O101 O 1.02924 0.33839 0.61757
 O102 O 0.96986 0.37884 0.66096
 O103 O 0.97198 0.34283 0.69643
 O104 O 1.02960 0.30147 0.65214
 O105 O 1.03045 0.34309 0.69489
 O106 O 0.97144 0.30093 0.65366
 Cu107 Cu 0.99938 0.36229 0.63576
 Cu108 Cu 1.00097 0.31845 0.67782
 C109 C 0.96109 0.31165 0.62888
 C110 C 1.03927 0.36889 0.68490
 C111 C 1.03930 0.31291 0.62741
 C112 C 0.96104 0.36772 0.68618
 O113 O 0.38362 0.02621 0.33866
 O114 O 0.34087 -0.03058 0.38324
 O115 O 0.38230 -0.03355 0.34125
 O116 O 0.34236 0.02925 0.38119
 O117 O 0.30633 0.02725 0.34644
 O118 O 0.34804 -0.03270 0.30465
 O119 O 0.30676 -0.03249 0.34651
 O120 O 0.34748 0.02690 0.30398
 Cu121 Cu 0.36586 -0.00204 0.36471
 Cu122 Cu 0.32359 -0.00275 0.32183
 C123 C 0.37274 0.03614 0.31375
 C124 C 0.31667 -0.04133 0.37220
 C125 C 0.37212 -0.04344 0.31596
 C126 C 0.31727 0.03846 0.37085
 O127 O 0.65892 -0.03037 0.61911
 O128 O 0.61948 0.03184 0.66018
 O129 O 0.66147 0.02938 0.61846
 O130 O 0.61754 -0.02806 0.66129
 O131 O 0.65347 -0.03003 0.69615
 O132 O 0.69546 0.02981 0.65532
 O133 O 0.65365 0.02978 0.69682
 O134 O 0.69475 -0.02978 0.65414
 Cu135 Cu 0.63579 0.00079 0.63613
 Cu136 Cu 0.67782 -0.00012 0.67925
 C137 C 0.68375 -0.04026 0.62948
 C138 C 0.62974 0.04104 0.68567
 C139 C 0.68588 0.03938 0.62975
 C140 C 0.62826 -0.03893 0.68589
 O141 O 0.33336 1.03066 0.62540
 O142 O 0.37566 0.97100 0.66665
 O143 O 0.33326 0.97112 0.62526
 O144 O 0.37593 1.03061 0.66667
 O145 O 0.34142 1.03103 0.70301
 O146 O 0.29903 0.97128 0.66188
 O147 O 0.34112 0.97116 0.70296
 O148 O 0.29915 1.03106 0.66204
 Cu149 Cu 0.35805 1.00082 0.64231
 Cu150 Cu 0.31673 1.00117 0.68617
 C151 C 0.30901 1.04081 0.63668
 C152 C 0.36555 0.96105 0.69183
 C153 C 0.30886 0.96124 0.63651
 C154 C 0.36592 1.04082 0.69190
 O155 O 0.61776 0.97243 0.33912
 O156 O 0.66134 1.03131 0.38065
 O157 O 0.61901 1.03229 0.33938
 O158 O 0.65991 0.97168 0.38110
 O159 O 0.69453 0.97075 0.34489
 O160 O 0.65316 1.03033 0.30273
 O161 O 0.69537 1.03062 0.34387
 O162 O 0.65276 0.97075 0.30331
 Cu163 Cu 0.63599 1.00198 0.36372
 Cu164 Cu 0.67745 1.00049 0.32008
 C165 C 0.62785 0.96176 0.31409
 C166 C 0.68579 1.04093 0.36923
 C167 C 0.62909 1.04137 0.31384
 C168 C 0.68433 0.96122 0.37021
 C169 C 0.81059 0.81152 0.51501
 C170 C 0.81262 0.81389 0.48403
 C171 C 0.83586 0.79723 0.46612
 C172 C 0.79231 0.83457 0.46666
 C173 C 0.79067 0.83257 0.53241
 C174 C 0.82986 0.79018 0.53306
 C175 C 0.86641 0.79934 0.47395
 C176 C 0.88791 0.78254 0.45769
 C177 C 0.87925 0.76395 0.43294
 C178 C 0.84894 0.76293 0.42424
 C179 C 0.82737 0.77941 0.44075
 C180 C 0.80433 0.85928 0.45022
 C181 C 0.78539 0.87939 0.43448
 C182 C 0.75421 0.87473 0.43441
 C183 C 0.74216 0.84979 0.45054
 C184 C 0.76109 0.82987 0.46664
 C185 C 0.76630 0.82094 0.54901
 C186 C 0.74724 0.84098 0.56494
 C187 C 0.75270 0.87278 0.56477
 C188 C 0.77745 0.88427 0.54866
 C189 C 0.79626 0.86432 0.53250
 C190 C 0.83300 0.75898 0.52493
 C191 C 0.85334 0.74007 0.54050
 C192 C 0.87033 0.75190 0.56487
 C193 C 0.86606 0.78255 0.57400
 C194 C 0.84608 0.80154 0.55823
 H195 H 0.87355 0.81373 0.49285
 H196 H 0.91123 0.78418 0.46447
 H197 H 0.84195 0.74896 0.40496
 H198 H 0.80398 0.77783 0.43408
 H199 H 0.82836 0.86327 0.45006
 H200 H 0.79505 0.89862 0.42228
 H201 H 0.75147 0.81079 0.47910
 H202 H 0.76187 0.79645 0.54927
 H203 H 0.72846 0.83160 0.57749
 H204 H 0.78213 0.90872 0.54855
 H205 H 0.81524 0.87358 0.52010
 H206 H 0.82019 0.74946 0.50609
 H207 H 0.85595 0.71637 0.53331
 H208 H 0.87880 0.79199 0.59293
 H209 H 0.84399 0.82541 0.56512
 H210 H 0.71817 0.84584 0.45099
 C211 C 0.18809 0.18810 0.51497
 C212 C 0.18880 0.18743 0.48375
 C213 C 0.16713 0.20548 0.46517
 C214 C 0.21000 0.16726 0.46643
 C215 C 0.20650 0.16659 0.53356
 C216 C 0.16748 0.20899 0.53223
 C217 C 0.13602 0.20292 0.46999
 C218 C 0.11594 0.22025 0.45257
 C219 C 0.12657 0.23962 0.42946
 C220 C 0.15757 0.24165 0.42408
 C221 C 0.17770 0.22468 0.44183
 C222 C 0.19884 0.14801 0.44320
 C223 C 0.21801 0.12807 0.42744
 C224 C 0.24865 0.12677 0.43473
 C225 C 0.26013 0.14652 0.45732
 C226 C 0.24100 0.16689 0.47282
 C227 C 0.22463 0.17810 0.55722
 C228 C 0.24179 0.15812 0.57510
 C229 C 0.24103 0.12632 0.56955
 C230 C 0.22277 0.11475 0.54607
 C231 C 0.20528 0.13466 0.52850
 C232 C 0.16596 0.24070 0.52602
 C233 C 0.14515 0.25944 0.54132
 C234 C 0.12609 0.24688 0.56352
 C235 C 0.12849 0.21556 0.57063
 C236 C 0.14889 0.19676 0.55507
 H237 H 0.12732 0.18762 0.48732
 H238 H 0.09206 0.21839 0.45697
 H239 H 0.16629 0.25655 0.40647
 H240 H 0.20160 0.22673 0.43757
 H241 H 0.17512 0.14798 0.43766
 H242 H 0.20882 0.11317 0.40988
 H243 H 0.25029 0.18208 0.49007
 H244 H 0.22565 0.20262 0.56168
 H245 H 0.25578 0.16759 0.59302
 H246 H 0.22187 0.09024 0.54155
 H247 H 0.19083 0.12520 0.51091
 H248 H 0.18058 0.25084 0.50906
 H249 H 0.14400 0.28365 0.53577
 H250 H 0.11415 0.20553 0.58791
 H251 H 0.14974 0.17247 0.56045
 H252 H 0.28378 0.14623 0.46304
 C253 C 0.18541 0.81457 0.48478
 C254 C 0.18537 0.81451 0.51595
 C255 C 0.16481 0.79453 0.53381
 C256 C 0.20481 0.83579 0.53386
 C257 C 0.20655 0.83408 0.46733
 C258 C 0.16366 0.79634 0.46639
 C259 C 0.14655 0.80780 0.55646
 C260 C 0.12615 0.78985 0.57268
 C261 C 0.12366 0.75825 0.56659
 C262 C 0.14219 0.74477 0.54432
 C263 C 0.16293 0.76269 0.52830
 C264 C 0.20389 0.86770 0.52884
 C265 C 0.22192 0.88747 0.54610
 C266 C 0.24044 0.87581 0.56926
 C267 C 0.24105 0.84402 0.57467
 C268 C 0.22335 0.82416 0.55708
 C269 C 0.23779 0.83027 0.47010
 C270 C 0.25734 0.84964 0.45421
 C271 C 0.24584 0.87306 0.43555
 C272 C 0.21465 0.87667 0.43270
 C273 C 0.19515 0.85710 0.44818
 C274 C 0.17421 0.77731 0.44270
 C275 C 0.15413 0.76022 0.42497
 C276 C 0.12315 0.76191 0.43065
 C277 C 0.11252 0.78105 0.45416
 C278 C 0.13256 0.79851 0.47161
 H279 H 0.14761 0.83228 0.56111
 H280 H 0.11195 0.80092 0.58951
 H281 H 0.14054 0.72041 0.53931
 H282 H 0.17718 0.75185 0.51132
 H283 H 0.18906 0.87732 0.51173
 H284 H 0.22109 0.91197 0.54171
 H285 H 0.22414 0.79967 0.56152
 H286 H 0.24692 0.81248 0.48469
 H287 H 0.28134 0.84658 0.45688
 H288 H 0.20542 0.89474 0.41852
 H289 H 0.17112 0.86037 0.44585
 H290 H 0.19807 0.77549 0.43814
 H291 H 0.16290 0.74548 0.40709
 H292 H 0.08866 0.78265 0.45881
 H293 H 0.12383 0.81366 0.48921
 H294 H 0.25523 0.83446 0.59234
 C295 C 0.81649 0.18360 0.48222
 C296 C 0.81490 0.18389 0.51338
 C297 C 0.83462 0.20400 0.53232
 C298 C 0.79431 0.16295 0.53023
 C299 C 0.79567 0.16458 0.46362
 C300 C 0.83951 0.20136 0.46511
 C301 C 0.85164 0.19097 0.55600
 C302 C 0.87146 0.20903 0.57305
 C303 C 0.87462 0.24048 0.56675
 C304 C 0.85718 0.25374 0.54356
 C305 C 0.83701 0.23574 0.52672
 C306 C 0.79485 0.13102 0.52500
 C307 C 0.77579 0.11157 0.54133
 C308 C 0.75654 0.12356 0.56378
 C309 C 0.75623 0.15538 0.56934
 C310 C 0.77497 0.17491 0.55269
 C311 C 0.76444 0.16902 0.46519
 C312 C 0.74508 0.14988 0.44863
 C313 C 0.75674 0.12606 0.43039
 C314 C 0.78795 0.12191 0.42857
 C315 C 0.80729 0.14126 0.44476
 C316 C 0.83063 0.22048 0.44094
 C317 C 0.85192 0.23763 0.42491
 C318 C 0.88240 0.23608 0.43290
 C319 C 0.89146 0.21640 0.45653
 C320 C 0.87023 0.19889 0.47227
 H321 H 0.85013 0.16659 0.56079
 H322 H 0.88478 0.19813 0.59065
 H323 H 0.85932 0.27799 0.53840
 H324 H 0.82367 0.24643 0.50897
 H325 H 0.81021 0.12110 0.50849
 H326 H 0.77644 0.08705 0.53684
 H327 H 0.77439 0.19942 0.55729
 H328 H 0.75513 0.18704 0.47952
 H329 H 0.72107 0.15334 0.45057
 H330 H 0.79732 0.10350 0.41477
 H331 H 0.83133 0.13750 0.44332
 H332 H 0.80713 0.22243 0.43474
 H333 H 0.84458 0.25242 0.40649
 H334 H 0.91491 0.21433 0.46273
 H335 H 0.87773 0.18355 0.49017
 H336 H 0.74153 0.16522 0.58648
 C337 C 0.51574 0.81398 0.81524
 C338 C 0.48509 0.81313 0.81405
 C339 C 0.46780 0.83453 0.79426
 C340 C 0.46714 0.79215 0.83373
 C341 C 0.53314 0.79593 0.83795
 C342 C 0.53337 0.83403 0.79454
 C343 C 0.47225 0.86648 0.79615
 C344 C 0.45533 0.88642 0.77807
 C345 C 0.43305 0.87484 0.75852
 C346 C 0.42830 0.84298 0.75682
 C347 C 0.44558 0.82297 0.77456
 C348 C 0.44350 0.80425 0.85136
 C349 C 0.42720 0.78533 0.87095
 C350 C 0.43432 0.75402 0.87347
 C351 C 0.45733 0.74159 0.85527
 C352 C 0.47341 0.76046 0.83528
 C353 C 0.55692 0.77705 0.82815
 C354 C 0.57298 0.75937 0.84917
 C355 C 0.56540 0.76016 0.88026
 C356 C 0.54222 0.77968 0.89024
 C357 C 0.52644 0.79770 0.86929
 C358 C 0.53146 0.83074 0.76265
 C359 C 0.54740 0.85059 0.74349
 C360 C 0.56531 0.87403 0.75600
 C361 C 0.56734 0.87712 0.78785
 C362 C 0.55179 0.85706 0.80697
 H363 H 0.48859 0.87601 0.81188
 H364 H 0.45920 0.91097 0.77973
 H365 H 0.41132 0.83351 0.74181
 H366 H 0.44160 0.79843 0.77300
 H367 H 0.43808 0.82854 0.85042
 H368 H 0.40934 0.79524 0.88465
 H369 H 0.49102 0.75045 0.82134
 H370 H 0.56272 0.77567 0.80415
 H371 H 0.59111 0.74476 0.84116
 H372 H 0.53641 0.78121 0.91420
 H373 H 0.50882 0.81285 0.87747
 H374 H 0.51747 0.81297 0.75268
 H375 H 0.54534 0.84789 0.71899
 H376 H 0.58093 0.89518 0.79790
 H377 H 0.55348 0.85997 0.83151
 H378 H 0.46295 0.71740 0.85651
 C379 C 0.51327 0.18823 0.18616
 C380 C 0.48261 0.18671 0.18585
 C381 C 0.46617 0.16353 0.20427
 C382 C 0.46401 0.20689 0.16587
 C383 C 0.53017 0.20847 0.16498
 C384 C 0.53185 0.16819 0.20628
 C385 C 0.47298 0.13203 0.20175
 C386 C 0.45825 0.11062 0.22011
 C387 C 0.43600 0.12030 0.24073
 C388 C 0.42825 0.15156 0.24230
 C389 C 0.44329 0.17305 0.22426
 C390 C 0.44264 0.19353 0.14631
 C391 C 0.42607 0.21172 0.12616
 C392 C 0.43046 0.24366 0.12526
 C393 C 0.45140 0.25720 0.14515
 C394 C 0.46778 0.23901 0.16560
 C395 C 0.55243 0.22813 0.17663
 C396 C 0.56959 0.24619 0.15695
 C397 C 0.56473 0.24484 0.12531
 C398 C 0.54236 0.22540 0.11362
 C399 C 0.52550 0.20698 0.13325
 C400 C 0.52684 0.16661 0.23796
 C401 C 0.54369 0.14639 0.25601
 C402 C 0.56627 0.12809 0.24280
 C403 C 0.57183 0.13034 0.21135
 C404 C 0.55479 0.15019 0.19329
 H405 H 0.48990 0.12409 0.18578
 H406 H 0.46412 0.08655 0.21795
 H407 H 0.41079 0.15934 0.25775
 H408 H 0.43740 0.19717 0.22619
 H409 H 0.43934 0.16884 0.14607
 H410 H 0.41034 0.20063 0.11084
 H411 H 0.48375 0.24992 0.18084
 H412 H 0.55655 0.22940 0.20100
 H413 H 0.58660 0.26113 0.16653
 H414 H 0.53837 0.22405 0.08924
 H415 H 0.50902 0.19137 0.12368
 H416 H 0.50964 0.18067 0.24860
 H417 H 0.53907 0.14492 0.28025
 H418 H 0.58887 0.11632 0.20048
 H419 H 0.55909 0.15102 0.16894
 H420 H 0.45515 0.28180 0.14472
 C421 C 0.48584 0.19222 0.81068
 C422 C 0.51652 0.19204 0.81165
 C423 C 0.53473 0.17124 0.79188
 C424 C 0.53365 0.21129 0.83378
 C425 C 0.46766 0.21335 0.83018
 C426 C 0.46864 0.16993 0.79163
 C427 C 0.55653 0.15222 0.80532
 C428 C 0.57324 0.13175 0.78751
 C429 C 0.56848 0.12993 0.75588
 C430 C 0.54702 0.14919 0.74225
 C431 C 0.53051 0.17000 0.76005
 C432 C 0.52767 0.21002 0.86529
 C433 C 0.54441 0.22779 0.88579
 C434 C 0.56794 0.24635 0.87526
 C435 C 0.57420 0.24735 0.84387
 C436 C 0.55718 0.22995 0.82331
 C437 C 0.47323 0.24520 0.83115
 C438 C 0.45715 0.26416 0.85126
 C439 C 0.43483 0.25164 0.87008
 C440 C 0.42828 0.22018 0.86803
 C441 C 0.44463 0.20118 0.84838
 C442 C 0.44583 0.18064 0.77219
 C443 C 0.42852 0.15995 0.75519
 C444 C 0.43377 0.12820 0.75737
 C445 C 0.45666 0.11743 0.77663
 C446 C 0.47366 0.13808 0.79400
 H447 H 0.56018 0.15276 0.82980
 H448 H 0.58938 0.11693 0.79866
 H449 H 0.54301 0.14802 0.71786
 H450 H 0.51420 0.18485 0.74910
 H451 H 0.51017 0.19518 0.87399
 H452 H 0.53932 0.22670 0.90996
 H453 H 0.56233 0.23104 0.79914
 H454 H 0.49036 0.25523 0.81675
 H455 H 0.46227 0.28848 0.85217
 H456 H 0.41093 0.21020 0.88221
 H457 H 0.43975 0.17677 0.84789
 H458 H 0.44141 0.20507 0.77024
 H459 H 0.41114 0.16883 0.74035
 H460 H 0.46099 0.09299 0.77861
 H461 H 0.49055 0.12921 0.80947
 H462 H 0.59213 0.26160 0.83516
 C463 C 0.48586 0.80600 0.19011
 C464 C 0.51655 0.80762 0.19004
 C465 C 0.53280 0.83117 0.20849
 C466 C 0.53536 0.78721 0.17035
 C467 C 0.46908 0.78636 0.16800
 C468 C 0.46734 0.82545 0.21102
 C469 C 0.52563 0.86257 0.20593
 C470 C 0.54041 0.88440 0.22395
 C471 C 0.56305 0.87528 0.24434
 C472 C 0.57105 0.84410 0.24606
 C473 C 0.55598 0.82218 0.22834
 C474 C 0.55779 0.80016 0.15188
 C475 C 0.57454 0.78171 0.13200
 C476 C 0.56903 0.75002 0.13001
 C477 C 0.54739 0.73677 0.14917
 C478 C 0.53093 0.75517 0.16947
 C479 C 0.44633 0.76674 0.17853
 C480 C 0.42957 0.74906 0.15795
 C481 C 0.43531 0.75072 0.12649
 C482 C 0.45812 0.77018 0.11591
 C483 C 0.47457 0.78821 0.13643
 C484 C 0.47312 0.82663 0.24261
 C485 C 0.45726 0.84713 0.26138
 C486 C 0.43492 0.86617 0.24895
 C487 C 0.42802 0.86377 0.21777
 C488 C 0.44415 0.84369 0.19894
 H489 H 0.50847 0.87013 0.19007
 H490 H 0.53433 0.90839 0.22166
 H491 H 0.58881 0.83673 0.26130
 H492 H 0.56215 0.79815 0.23032
 H493 H 0.56184 0.82473 0.15229
 H494 H 0.59135 0.79228 0.11758
 H495 H 0.51436 0.74451 0.18410
 H496 H 0.44154 0.76515 0.20274
 H497 H 0.41219 0.73415 0.16671
 H498 H 0.46278 0.77183 0.09168
 H499 H 0.49143 0.80378 0.12766
 H500 H 0.49038 0.81222 0.25258
 H501 H 0.46266 0.84823 0.28546
 H502 H 0.41064 0.87810 0.20787
 H503 H 0.43910 0.84303 0.17473
 H504 H 0.54308 0.71229 0.14838
 C505 C 0.81538 0.51498 0.81311
 C506 C 0.81459 0.48355 0.81389
 C507 C 0.79529 0.46675 0.83594
 C508 C 0.83425 0.46426 0.79392
 C509 C 0.83754 0.53168 0.79398
 C510 C 0.79537 0.53438 0.83257
 C511 C 0.79670 0.47306 0.86744
 C512 C 0.77841 0.45705 0.88783
 C513 C 0.75913 0.43388 0.87719
 C514 C 0.75807 0.42719 0.84582
 C515 C 0.77602 0.44351 0.82536
 C516 C 0.85245 0.44147 0.80713
 C517 C 0.87230 0.42426 0.78917
 C518 C 0.87431 0.42950 0.75763
 C519 C 0.85570 0.45178 0.74422
 C520 C 0.83551 0.46875 0.76213
 C521 C 0.82764 0.55451 0.77372
 C522 C 0.84823 0.57027 0.75552
 C523 C 0.87896 0.56329 0.75718
 C524 C 0.88898 0.54101 0.77795
 C525 C 0.86846 0.52556 0.79646
 C526 C 0.76408 0.52991 0.83324
 C527 C 0.74608 0.54725 0.85312
 C528 C 0.75895 0.56986 0.87197
 C529 C 0.79002 0.57501 0.87056
 C530 C 0.80804 0.55746 0.85104
 H531 H 0.81197 0.49035 0.87621
 H532 H 0.77959 0.46243 0.91199
 H533 H 0.74331 0.40950 0.83703
 H534 H 0.77479 0.43812 0.80120
 H535 H 0.85185 0.43754 0.83155
 H536 H 0.88655 0.40743 0.80016
 H537 H 0.82128 0.48577 0.75132
 H538 H 0.80394 0.55991 0.77183
 H539 H 0.84018 0.58778 0.73997
 H540 H 0.91266 0.53577 0.78017
 H541 H 0.87666 0.50873 0.81265
 H542 H 0.75370 0.51266 0.81879
 H543 H 0.72213 0.54291 0.85397
 H544 H 0.80059 0.59204 0.88506
 H545 H 0.83207 0.56137 0.85090
 H546 H 0.85696 0.45616 0.71991
 C547 C 0.18691 0.51682 0.18671
 C548 C 0.18578 0.48541 0.18725
 C549 C 0.20552 0.46619 0.16749
 C550 C 0.16393 0.46841 0.20663
 C551 C 0.16789 0.53594 0.20731
 C552 C 0.20613 0.53375 0.16456
 C553 C 0.19259 0.44363 0.14861
 C554 C 0.21046 0.42622 0.12887
 C555 C 0.24158 0.43105 0.12772
 C556 C 0.25468 0.45314 0.14697
 C557 C 0.23683 0.47032 0.16706
 C558 C 0.13295 0.47466 0.20520
 C559 C 0.11276 0.45799 0.22313
 C560 C 0.12310 0.43423 0.24205
 C561 C 0.15397 0.42777 0.24326
 C562 C 0.17420 0.44471 0.22570
 C563 C 0.16716 0.53081 0.23900
 C564 C 0.14710 0.54721 0.25753
 C565 C 0.12809 0.56946 0.24470
 C566 C 0.13003 0.57580 0.21339
 C567 C 0.14968 0.55911 0.19481
 C568 C 0.22557 0.55688 0.17513
 C569 C 0.24344 0.57331 0.15465
 C570 C 0.24216 0.56690 0.12322
 C571 C 0.22271 0.54386 0.11259
 C572 C 0.20451 0.52771 0.13301
 H573 H 0.16851 0.44003 0.14862
 H574 H 0.19977 0.40958 0.11400
 H575 H 0.27867 0.45723 0.14626
 H576 H 0.24734 0.48720 0.18185
 H577 H 0.12439 0.49231 0.19010
 H578 H 0.08899 0.46326 0.22186
 H579 H 0.19795 0.43936 0.22699
 H580 H 0.18160 0.51361 0.24925
 H581 H 0.14634 0.54230 0.28173
 H582 H 0.11571 0.59315 0.20321
 H583 H 0.15005 0.56367 0.17050
 H584 H 0.22701 0.56208 0.19931
 H585 H 0.25831 0.59088 0.16348
 H586 H 0.22134 0.53867 0.08840
 H587 H 0.18914 0.51054 0.12420
 H588 H 0.16257 0.40971 0.25781
 C589 C 0.81250 0.48392 0.19086
 C590 C 0.81393 0.51522 0.18877
 C591 C 0.79657 0.53230 0.16528
 C592 C 0.83426 0.53370 0.20870
 C593 C 0.83389 0.46659 0.21026
 C594 C 0.79155 0.46525 0.17184
 C595 C 0.79872 0.52432 0.13420
 C596 C 0.78144 0.53973 0.11244
 C597 C 0.76228 0.56381 0.12134
 C598 C 0.76108 0.57267 0.15217
 C599 C 0.77806 0.55699 0.17401
 C600 C 0.85368 0.55535 0.19554
 C601 C 0.87376 0.57194 0.21373
 C602 C 0.87500 0.56699 0.24534
 C603 C 0.85506 0.54605 0.25873
 C604 C 0.83459 0.52980 0.24060
 C605 C 0.82318 0.44776 0.23378
 C606 C 0.84330 0.43128 0.25202
 C607 C 0.87431 0.43307 0.24655
 C608 C 0.88495 0.45142 0.22262
 C609 C 0.86489 0.46817 0.20464
 C610 C 0.76077 0.47247 0.16991
 C611 C 0.74211 0.45644 0.14965
 C612 C 0.75382 0.43249 0.13163
 C613 C 0.78409 0.42415 0.13482
 C614 C 0.80282 0.44043 0.15465
 H615 H 0.81357 0.50595 0.12686
 H616 H 0.78322 0.53287 0.08873
 H617 H 0.74669 0.59149 0.15934
 H618 H 0.77644 0.56377 0.19780
 H619 H 0.85370 0.55898 0.17107
 H620 H 0.88877 0.58828 0.20306
 H621 H 0.81921 0.51394 0.25141
 H622 H 0.79928 0.44608 0.23815
 H623 H 0.83457 0.41695 0.27010
 H624 H 0.90880 0.45277 0.21790
 H625 H 0.87347 0.48220 0.18621
 H626 H 0.75140 0.49101 0.18352
 H627 H 0.71871 0.46297 0.14790
 H628 H 0.79342 0.40553 0.12127
 H629 H 0.82638 0.43425 0.15585
 H630 H 0.85523 0.54226 0.28315
 C631 C 0.18404 0.48447 0.81338
 C632 C 0.18379 0.51584 0.81152
 C633 C 0.20364 0.53529 0.83095
 C634 C 0.16252 0.53247 0.79107
 C635 C 0.16507 0.46533 0.79291
 C636 C 0.20241 0.46777 0.83646
 C637 C 0.19097 0.55902 0.84862
 C638 C 0.20885 0.57644 0.86835
 C639 C 0.23974 0.57045 0.87073
 C640 C 0.25263 0.54725 0.85258
 C641 C 0.23480 0.53007 0.83249
 C642 C 0.13143 0.52699 0.79246
 C643 C 0.11166 0.54339 0.77376
 C644 C 0.12251 0.56617 0.75405
 C645 C 0.15350 0.57193 0.75285
 C646 C 0.17334 0.55519 0.77121
 C647 C 0.16817 0.46684 0.76101
 C648 C 0.14878 0.45018 0.74199
 C649 C 0.12604 0.43191 0.75466
 C650 C 0.12332 0.43003 0.78653
 C651 C 0.14291 0.44633 0.80552
 C652 C 0.22165 0.44388 0.82712
 C653 C 0.23966 0.42860 0.84843
 C654 C 0.23886 0.43705 0.87938
 C655 C 0.21905 0.46035 0.88891
 C656 C 0.20071 0.47534 0.86768
 H657 H 0.16703 0.56351 0.84775
 H658 H 0.19829 0.59399 0.88228
 H659 H 0.27644 0.54230 0.85418
 H660 H 0.24517 0.51229 0.81864
 H661 H 0.12241 0.51029 0.80826
 H662 H 0.08780 0.53872 0.77507
 H663 H 0.19718 0.56000 0.76999
 H664 H 0.18527 0.48129 0.75091
 H665 H 0.15119 0.45213 0.71748
 H666 H 0.10580 0.41616 0.79669
 H667 H 0.14017 0.44495 0.83007
 H668 H 0.22305 0.43738 0.80324
 H669 H 0.25451 0.41038 0.84073
 H670 H 0.21752 0.46686 0.91274
 H671 H 0.18538 0.49304 0.87557
 H672 H 0.16245 0.58929 0.73776
 C673 C 0.29182 0.40019 0.11129
 C674 C 0.28275 0.37097 0.09312
 C675 C 0.29421 0.38611 0.06370
 C676 C 0.30360 0.41511 0.08151
 C677 C 0.26301 0.39986 0.05737
 C678 C 0.25127 0.38490 0.08705
 C679 C 0.26055 0.41398 0.10494
 C680 C 0.27213 0.42905 0.07548
 H681 H 0.30349 0.40040 0.13371
 H682 H 0.28740 0.34690 0.10012
 H683 H 0.32530 0.42739 0.07901
 H684 H 0.25140 0.39961 0.03491
 H685 H 0.22988 0.37202 0.08920
 H686 H 0.26753 0.45312 0.06842
 C687 C 0.70960 0.58719 0.10259
 C688 C 0.71513 0.62088 0.09267
 C689 C 0.70977 0.61128 0.05929
 C690 C 0.70398 0.57784 0.06890
 C691 C 0.74340 0.60447 0.05492
 C692 C 0.74901 0.61386 0.08862
 C693 C 0.74331 0.58039 0.09828
 C694 C 0.73788 0.57081 0.06480
 H695 H 0.69582 0.57988 0.12240
 H696 H 0.70552 0.64164 0.10389
 H697 H 0.68525 0.56316 0.06062
 H698 H 0.75710 0.61178 0.03504
 H699 H 0.76775 0.62851 0.09690
 H700 H 0.74698 0.55018 0.05296
 C701 C 0.75290 0.40238 0.92917
 C702 C 0.72595 0.41608 0.94701
 C703 C 0.70807 0.38657 0.94044
 C704 C 0.73480 0.37269 0.92288
 C705 C 0.69533 0.40040 0.91087
 C706 C 0.71350 0.43019 0.91713
 C707 C 0.74025 0.41630 0.89952
 C708 C 0.72229 0.38671 0.89301
 H709 H 0.77676 0.40326 0.93653
 H710 H 0.72725 0.42796 0.96949
 H711 H 0.74349 0.34886 0.92541
 H712 H 0.67144 0.39942 0.90361
 H713 H 0.70491 0.45403 0.91450
 H714 H 0.72063 0.37419 0.87093
 C715 C 0.26990 0.57274 0.92336
 C716 C 0.30156 0.58613 0.91740
 C717 C 0.29237 0.61553 0.93472
 C718 C 0.26098 0.60235 0.94098
 C719 C 0.28127 0.63039 0.90498
 C720 C 0.29014 0.60077 0.88731
 C721 C 0.25867 0.58755 0.89357
 C722 C 0.24960 0.61703 0.91098
 H723 H 0.26501 0.54886 0.93074
 H724 H 0.32311 0.57355 0.92025
 H725 H 0.24921 0.60308 0.96333
 H726 H 0.28620 0.65427 0.89765
 H727 H 0.30197 0.60006 0.86499
 H728 H 0.22837 0.63023 0.90851
 C729 C 0.11097 0.27617 0.38155
 C730 C 0.08173 0.26294 0.36751
 C731 C 0.06419 0.29034 0.38090
 C732 C 0.09308 0.30381 0.39471
 C733 C 0.05784 0.27238 0.41036
 C734 C 0.07568 0.24475 0.39719
 C735 C 0.10464 0.25816 0.41109
 C736 C 0.08701 0.28558 0.42442
 H737 H 0.13277 0.27781 0.36937
 H738 H 0.07935 0.25378 0.34391
 H739 H 0.09996 0.32832 0.39350
 H740 H 0.03572 0.27101 0.42199
 H741 H 0.06869 0.22028 0.39830
 H742 H 0.08942 0.29471 0.44802
 C743 C 0.07163 0.72750 0.56803
 C744 C 0.07722 0.69529 0.58198
 C745 C 0.05989 0.70537 0.61072
 C746 C 0.05397 0.73728 0.59699
 C747 C 0.08900 0.71689 0.62575
 C748 C 0.10669 0.70714 0.59681
 C749 C 0.10076 0.73914 0.58306
 C750 C 0.08331 0.74905 0.61188
 H751 H 0.06467 0.73209 0.54411
 H752 H 0.07449 0.67299 0.56984
 H753 H 0.03201 0.74945 0.59714
 H754 H 0.09595 0.71227 0.64967
 H755 H 0.12861 0.69492 0.59669
 H756 H 0.08556 0.77097 0.62476
 C757 C 0.93483 0.73924 0.42504
 C758 C 0.93077 0.70473 0.41722
 C759 C 0.94028 0.71138 0.38414
 C760 C 0.94460 0.74564 0.39175
 C761 C 0.90748 0.71713 0.37479
 C762 C 0.89767 0.71074 0.40812
 C763 C 0.90192 0.74508 0.41574
 C764 C 0.91146 0.75166 0.38262
 H765 H 0.94648 0.74805 0.44571
 H766 H 0.93885 0.68522 0.43133
 H767 H 0.96416 0.75979 0.38478
 H768 H 0.89649 0.70778 0.35396
 H769 H 0.87818 0.69650 0.41508
 H770 H 0.90335 0.77121 0.36859
 C771 C 0.91445 0.24992 0.61278
 C772 C 0.94390 0.26175 0.59828
 C773 C 0.93775 0.29371 0.61208
 C774 C 0.90853 0.28214 0.62673
 C775 C 0.92066 0.30357 0.58317
 C776 C 0.92650 0.27133 0.56916
 C777 C 0.89725 0.25964 0.58380
 C778 C 0.89109 0.29168 0.59761
 H779 H 0.91216 0.22803 0.62553
 H780 H 0.96590 0.24964 0.59863
 H781 H 0.90133 0.28685 0.65059
 H782 H 0.92342 0.32582 0.57112
 H783 H 0.93373 0.26665 0.54531
 H784 H 0.86913 0.30383 0.59728
 C785 C 0.38746 0.08716 0.25470
 C786 C 0.39701 0.05352 0.26109
 C787 C 0.39008 0.05859 0.29515
 C788 C 0.38033 0.09193 0.28900
 C789 C 0.42258 0.06888 0.30116
 C790 C 0.42972 0.06408 0.26683
 C791 C 0.41999 0.09751 0.26059
 C792 C 0.41308 0.10255 0.29473
 H793 H 0.37317 0.09483 0.23536
 H794 H 0.39022 0.03309 0.24744
 H795 H 0.35986 0.10314 0.29838
 H796 H 0.43688 0.06120 0.32048
 H797 H 0.45010 0.05232 0.25796
 H798 H 0.41988 0.12291 0.30846
 C799 C 0.61338 0.08867 0.74710
 C800 C 0.59898 0.05883 0.73459
 C801 C 0.61332 0.06514 0.70333
 C802 C 0.62787 0.09475 0.71557
 C803 C 0.58534 0.08313 0.69297
 C804 C 0.57080 0.07713 0.72452
 C805 C 0.58532 0.10677 0.73690
 C806 C 0.59968 0.11310 0.70555
 H807 H 0.62545 0.09073 0.76921
 H808 H 0.59879 0.03622 0.74632
 H809 H 0.65153 0.10177 0.71163
 H810 H 0.57396 0.08063 0.67052
 H811 H 0.54715 0.07007 0.72843
 H812 H 0.59991 0.13567 0.69378
 C813 C 0.42671 0.91581 0.71341
 C814 C 0.39773 0.90873 0.69501
 C815 C 0.38297 0.93750 0.70900
 C816 C 0.41167 0.94488 0.72712
 C817 C 0.37057 0.91852 0.73572
 C818 C 0.38558 0.88941 0.72197
 C819 C 0.41435 0.89678 0.74015
 C820 C 0.39948 0.92562 0.75405
 H821 H 0.44999 0.91446 0.70439
 H822 H 0.39682 0.90205 0.67051
 H823 H 0.42217 0.96795 0.72906
 H824 H 0.34730 0.91984 0.74478
 H825 H 0.37450 0.86666 0.71974
 H826 H 0.40028 0.93241 0.77852
 C827 C 0.58760 0.89439 0.29743
 C828 C 0.61997 0.90535 0.29039
 C829 C 0.61002 0.93868 0.29651
 C830 C 0.57789 0.92807 0.30381
 C831 C 0.60178 0.94295 0.26266
 C832 C 0.61154 0.90931 0.25632
 C833 C 0.57939 0.89863 0.26351
 C834 C 0.56945 0.93206 0.26971
 H835 H 0.58158 0.87422 0.31164
 H836 H 0.64091 0.89459 0.29914
 H837 H 0.56420 0.93595 0.32355
 H838 H 0.60779 0.96318 0.24853
 H839 H 0.62524 0.90144 0.23658
 H840 H 0.54860 0.94334 0.26145
 C841 C 0.41502 0.26145 0.92659
 C842 C 0.42088 0.29510 0.93646
 C843 C 0.38696 0.30152 0.93441
 C844 C 0.38092 0.26803 0.92478
 C845 C 0.39004 0.31128 0.90085
 C846 C 0.42425 0.30458 0.90252
 C847 C 0.41813 0.27103 0.89291
 C848 C 0.38420 0.27752 0.89094
 H849 H 0.42547 0.24082 0.93708
 H850 H 0.43577 0.30247 0.95548
 H851 H 0.36299 0.25303 0.93410
 H852 H 0.37951 0.33196 0.89054
 H853 H 0.44214 0.31978 0.89348
 H854 H 0.36926 0.27014 0.87196
 C855 C 0.59030 0.70642 0.89696
 C856 C 0.62308 0.71302 0.90693
 C857 C 0.61424 0.70622 0.94014
 C858 C 0.58171 0.69935 0.93049
 C859 C 0.60640 0.74025 0.94569
 C860 C 0.61503 0.74730 0.91217
 C861 C 0.58248 0.74054 0.90246
 C862 C 0.57366 0.73365 0.93577
 H863 H 0.58347 0.69262 0.87673
 H864 H 0.64358 0.70428 0.89530
 H865 H 0.56816 0.67942 0.93818
 H866 H 0.61323 0.75397 0.96598
 H867 H 0.62856 0.76725 0.90449
 H868 H 0.55329 0.74188 0.94795
 C869 C 0.42913 0.70525 0.08513
 C870 C 0.39961 0.68744 0.09142
 C871 C 0.38576 0.70182 0.06264
 C872 C 0.41499 0.71934 0.05603
 C873 C 0.37356 0.72908 0.08142
 C874 C 0.38763 0.71493 0.11053
 C875 C 0.41694 0.73252 0.10397
 C876 C 0.40299 0.74681 0.07510
 H877 H 0.45218 0.69559 0.08690
 H878 H 0.39805 0.66282 0.09787
 H879 H 0.42604 0.72099 0.03336
 H880 H 0.35054 0.73881 0.07974
 H881 H 0.37595 0.71296 0.13283
 H882 H 0.40444 0.77140 0.06853
 C883 C 0.59809 0.25001 0.07481
 C884 C 0.58626 0.27786 0.05641
 C885 C 0.61524 0.29539 0.06422
 C886 C 0.62728 0.26776 0.08232
 C887 C 0.60075 0.30896 0.09315
 C888 C 0.57149 0.29115 0.08564
 C889 C 0.58350 0.26351 0.10381
 C890 C 0.61257 0.28110 0.11158
 H891 H 0.59690 0.22558 0.06742
 H892 H 0.57567 0.27672 0.03346
 H893 H 0.65041 0.25825 0.08078
 H894 H 0.60205 0.33342 0.10043
 H895 H 0.54834 0.30060 0.08724
 H896 H 0.62379 0.28256 0.13419
 C897 C 0.27678 0.11182 0.61798
 C898 C 0.26419 0.08197 0.63230
 C899 C 0.29131 0.06415 0.61950
 C900 C 0.30413 0.09366 0.60542
 C901 C 0.27407 0.05682 0.58993
 C902 C 0.24674 0.07493 0.60251
 C903 C 0.25949 0.10450 0.58833
 C904 C 0.28662 0.08661 0.57558
 H905 H 0.27800 0.13438 0.62989
 H906 H 0.25509 0.07987 0.65581
 H907 H 0.32795 0.10110 0.60681
 H908 H 0.27314 0.03393 0.57860
 H909 H 0.22295 0.06738 0.60121
 H910 H 0.29568 0.08876 0.55206
 C911 C 0.73173 0.07075 0.42440
 C912 C 0.69760 0.07406 0.41813
 C913 C 0.70296 0.06317 0.38510
 C914 C 0.73679 0.05954 0.39120
 C915 C 0.70749 0.09645 0.37441
 C916 C 0.70244 0.10773 0.40770
 C917 C 0.73636 0.10413 0.41382
 C918 C 0.74158 0.09315 0.38074
 H919 H 0.74187 0.06039 0.44514
 H920 H 0.67939 0.06600 0.43345
 H921 H 0.75076 0.03948 0.38432
 H922 H 0.69730 0.10677 0.35366
 H923 H 0.68815 0.12762 0.41432
 H924 H 0.75979 0.10122 0.36542
 C925 C 0.70280 0.88797 0.59796
 C926 C 0.71374 0.90635 0.62625
 C927 C 0.70079 0.93587 0.61217
 C928 C 0.68956 0.91786 0.58411
 C929 C 0.73081 0.94263 0.59625
 C930 C 0.74401 0.91286 0.61011
 C931 C 0.73291 0.89476 0.58203
 C932 C 0.71984 0.92433 0.56798
 H933 H 0.69102 0.86551 0.59873
 H934 H 0.71103 0.89923 0.65042
 H935 H 0.66698 0.92017 0.57356
 H936 H 0.74211 0.96537 0.59569
 H937 H 0.76659 0.91058 0.62068
 H938 H 0.72248 0.93153 0.54382
 C939 C 0.26184 0.90376 0.38538
 C940 C 0.26502 0.93804 0.39440
 C941 C 0.29915 0.93548 0.38967
 C942 C 0.29620 0.90146 0.38047
 C943 C 0.30372 0.92664 0.42334
 C944 C 0.26930 0.92893 0.42824
 C945 C 0.26626 0.89485 0.41910
 C946 C 0.30047 0.89226 0.41440
 H947 H 0.24450 0.89414 0.36982
 H948 H 0.25060 0.95711 0.38605
 H949 H 0.30749 0.89045 0.36062
 H950 H 0.32110 0.93633 0.43881
 H951 H 0.25805 0.94002 0.44807
 H952 H 0.31522 0.87335 0.42249
 C953 C 0.10565 0.40962 0.69999
 C954 C 0.09567 0.37587 0.70508
 C955 C 0.06270 0.38608 0.70234
 C956 C 0.07233 0.41958 0.69698
 C957 C 0.06091 0.39170 0.73699
 C958 C 0.09417 0.38169 0.73996
 C959 C 0.10386 0.41524 0.73472
 C960 C 0.07082 0.42538 0.73191
 H961 H 0.12411 0.41681 0.68456
 H962 H 0.10563 0.35531 0.69382
 H963 H 0.06309 0.43506 0.67916
 H964 H 0.04226 0.38422 0.75205
 H965 H 0.10336 0.36615 0.75775
 H966 H 0.06079 0.44593 0.74311
 C967 C 0.09585 0.57953 0.29691
 C968 C 0.09675 0.61452 0.30380
 C969 C 0.06367 0.61705 0.29400
 C970 C 0.06241 0.58233 0.28737
 C971 C 0.07297 0.62364 0.26084
 C972 C 0.10634 0.62090 0.27037
 C973 C 0.10516 0.58615 0.26368
 C974 C 0.07197 0.58871 0.25403
 H975 H 0.10510 0.56133 0.31196
 H976 H 0.10665 0.62540 0.32447
 H977 H 0.04404 0.56667 0.29449
 H978 H 0.06336 0.64189 0.24607
 H979 H 0.12467 0.63660 0.26325
 H980 H 0.06190 0.57790 0.23341
 C981 C 0.91402 0.38749 0.25250
 C982 C 0.94312 0.40109 0.26630
 C983 C 0.93691 0.38357 0.29605
 C984 C 0.90807 0.36973 0.28249
 C985 C 0.91924 0.41108 0.30904
 C986 C 0.92516 0.42882 0.27905
 C987 C 0.89626 0.41503 0.26539
 C988 C 0.89004 0.39748 0.29522
 H989 H 0.91164 0.37794 0.22906
 H990 H 0.96523 0.40240 0.25462
 H991 H 0.90131 0.34521 0.28410
 H992 H 0.92162 0.42063 0.33248
 H993 H 0.93200 0.45332 0.27752
 H994 H 0.86825 0.39593 0.30743
 C995 C 0.89561 0.58814 0.70356
 C996 C 0.90582 0.62161 0.71004
 C997 C 0.93838 0.61198 0.70328
 C998 C 0.92848 0.57878 0.69652
 C999 C 0.94366 0.60413 0.73707
 C1000 C 0.91079 0.61354 0.74409
 C1001 C 0.90085 0.58031 0.73744
 C1002 C 0.93350 0.57072 0.73058
 H1003 H 0.87567 0.58135 0.68987
 H1004 H 0.89467 0.64271 0.70134
 H1005 H 0.93592 0.56463 0.67673
 H1006 H 0.96367 0.61091 0.75066
 H1007 H 0.90336 0.62767 0.76389
 H1008 H 0.94514 0.54970 0.73877
 C1009 C 0.74920 0.61644 0.91221
 C1010 C 0.71784 0.63058 0.90587
 C1011 C 0.70615 0.61582 0.93538
 C1012 C 0.73722 0.60187 0.94199
 C1013 C 0.69660 0.58670 0.91783
 C1014 C 0.70865 0.60122 0.88793
 C1015 C 0.73981 0.58725 0.89453
 C1016 C 0.72796 0.57256 0.92410
 H1017 H 0.77068 0.62918 0.91009
 H1018 H 0.71344 0.65461 0.89855
 H1019 H 0.74880 0.60221 0.96447
 H1020 H 0.67480 0.57458 0.92029
 H1021 H 0.69707 0.60088 0.86546
 H1022 H 0.73234 0.54855 0.93144
 C1023 C 0.25359 0.38708 0.91157
 C1024 C 0.28746 0.38041 0.90682
 C1025 C 0.29337 0.38994 0.94012
 C1026 C 0.25975 0.39638 0.94520
 C1027 C 0.29864 0.42350 0.93057
 C1028 C 0.29242 0.41423 0.89693
 C1029 C 0.25871 0.42066 0.90193
 C1030 C 0.26473 0.43015 0.93535
 H1031 H 0.23485 0.37224 0.90363
 H1032 H 0.29704 0.35983 0.89526
 H1033 H 0.24645 0.38888 0.96529
 H1034 H 0.31736 0.43840 0.93849
 H1035 H 0.30574 0.42177 0.87688
 H1036 H 0.25562 0.45063 0.94743
 C1037 C 0.27931 0.61396 0.10757
 C1038 C 0.30603 0.60024 0.08933
 C1039 C 0.29318 0.61456 0.06004
 C1040 C 0.26670 0.62851 0.07796
 C1041 C 0.27499 0.58530 0.05323
 C1042 C 0.28752 0.57070 0.08286
 C1043 C 0.26102 0.58461 0.10086
 C1044 C 0.24829 0.59903 0.07148
 H1045 H 0.28127 0.62620 0.12979
 H1046 H 0.32997 0.60088 0.09646
 H1047 H 0.25816 0.65243 0.07585
 H1048 H 0.27336 0.57369 0.03064
 H1049 H 0.29593 0.54675 0.08511
 H1050 H 0.22437 0.59846 0.06428
 C1051 C 0.70275 0.42417 0.09779
 C1052 C 0.71281 0.41996 0.06412
 C1053 C 0.70476 0.38566 0.06607
 C1054 C 0.69441 0.38958 0.09935
 C1055 C 0.73682 0.37764 0.07653
 C1056 C 0.74505 0.41216 0.07488
 C1057 C 0.73487 0.41613 0.10830
 C1058 C 0.72675 0.38180 0.11013
 H1059 H 0.68855 0.44334 0.10639
 H1060 H 0.70698 0.43548 0.04490
 H1061 H 0.67341 0.38004 0.10915
 H1062 H 0.75083 0.35842 0.06764
 H1063 H 0.76601 0.42165 0.06495
 H1064 H 0.73261 0.36626 0.12932
 C1065 C 0.90466 0.70008 0.57267
 C1066 C 0.93754 0.71096 0.57728
 C1067 C 0.93540 0.70230 0.61122
 C1068 C 0.90292 0.69113 0.60690
 C1069 C 0.92433 0.73484 0.61949
 C1070 C 0.92618 0.74368 0.58534
 C1071 C 0.89356 0.73269 0.58097
 C1072 C 0.89155 0.72394 0.61494
 H1073 H 0.89671 0.68559 0.55338
 H1074 H 0.95671 0.70553 0.56195
 H1075 H 0.89358 0.66934 0.61600
 H1076 H 0.93252 0.74918 0.63881
 H1077 H 0.93563 0.76544 0.57630
 H1078 H 0.87240 0.72939 0.63030
 C1079 C 0.93792 0.26090 0.42480
 C1080 C 0.94721 0.25497 0.39119
 C1081 C 0.94274 0.28936 0.38445
 C1082 C 0.93375 0.29557 0.41784
 C1083 C 0.90980 0.28386 0.37549
 C1084 C 0.91393 0.24920 0.38248
 C1085 C 0.90487 0.25530 0.41590
 C1086 C 0.90050 0.28978 0.40913
 H1087 H 0.94983 0.25171 0.44510
 H1088 H 0.96666 0.24082 0.38363
 H1089 H 0.94200 0.31482 0.43232
 H1090 H 0.89844 0.29353 0.35506
 H1091 H 0.90562 0.22990 0.36811
 H1092 H 0.88111 0.30399 0.41671
 C1093 C 0.09339 0.29959 0.57305
 C1094 C 0.05999 0.28990 0.57618
 C1095 C 0.06158 0.29685 0.61060
 C1096 C 0.09457 0.30684 0.60777
 C1097 C 0.07117 0.26352 0.61732
 C1098 C 0.06988 0.25639 0.58269
 C1099 C 0.10300 0.26621 0.57981
 C1100 C 0.10444 0.27326 0.61427
 H1101 H 0.10241 0.31460 0.55478
 H1102 H 0.04145 0.29685 0.56067
 H1103 H 0.10449 0.32776 0.61832
 H1104 H 0.06192 0.24864 0.63560
 H1105 H 0.05984 0.23550 0.57220
 H1106 H 0.12295 0.26630 0.62981
 C1107 C 0.08427 0.71541 0.42491
 C1108 C 0.05479 0.72827 0.41113
 C1109 C 0.06150 0.71076 0.38133
 C1110 C 0.09066 0.69760 0.39483
 C1111 C 0.07846 0.73860 0.36841
 C1112 C 0.07210 0.75635 0.39848
 C1113 C 0.10134 0.74327 0.41210
 C1114 C 0.10797 0.72569 0.38219
 H1115 H 0.08689 0.70604 0.44833
 H1116 H 0.03266 0.72916 0.42283
 H1117 H 0.09807 0.67324 0.39315
 H1118 H 0.07593 0.74804 0.34502
 H1119 H 0.06463 0.78069 0.40008
 H1120 H 0.12975 0.72452 0.36989
 C1121 C 0.61472 0.90579 0.74129
 C1122 C 0.62043 0.90371 0.70647
 C1123 C 0.61100 0.93759 0.70338
 C1124 C 0.60548 0.93996 0.73799
 C1125 C 0.57813 0.92820 0.69789
 C1126 C 0.58731 0.89396 0.70124
 C1127 C 0.58180 0.89633 0.73593
 C1128 C 0.57244 0.93028 0.73278
 H1129 H 0.62974 0.89638 0.75925
 H1130 H 0.64037 0.89303 0.69544
 H1131 H 0.61306 0.95912 0.75295
 H1132 H 0.56319 0.93766 0.67990
 H1133 H 0.58001 0.87498 0.68592
 H1134 H 0.55251 0.94103 0.74377
 C1135 C 0.38498 0.88828 0.27545
 C1136 C 0.39182 0.89839 0.30876
 C1137 C 0.38892 0.93218 0.29895
 C1138 C 0.38188 0.92237 0.26591
 C1139 C 0.42268 0.93363 0.29173
 C1140 C 0.42584 0.89948 0.30129
 C1141 C 0.41877 0.88965 0.26819
 C1142 C 0.41584 0.92356 0.25851
 H1143 H 0.36960 0.86937 0.26863
 H1144 H 0.38169 0.88830 0.32961
 H1145 H 0.36369 0.93197 0.25140
 H1146 H 0.43802 0.95257 0.29854
 H1147 H 0.44398 0.89024 0.31607
 H1148 H 0.42589 0.93381 0.23771
 C1149 C 0.59766 0.11262 0.29338
 C1150 C 0.58388 0.08255 0.30613
 C1151 C 0.61224 0.06496 0.29603
 C1152 C 0.62624 0.09468 0.28361
 C1153 C 0.59809 0.05789 0.26475
 C1154 C 0.56953 0.07577 0.27457
 C1155 C 0.58351 0.10552 0.26202
 C1156 C 0.61194 0.08782 0.25207
 H1157 H 0.59741 0.13537 0.30500
 H1158 H 0.57249 0.08018 0.32856
 H1159 H 0.64973 0.10225 0.28759
 H1160 H 0.59836 0.03510 0.25318
 H1161 H 0.54604 0.06815 0.27064
 H1162 H 0.62407 0.08970 0.23001
 C1163 C 0.38531 0.11242 0.72283
 C1164 C 0.39685 0.09373 0.69499
 C1165 C 0.38349 0.06443 0.70902
 C1166 C 0.37172 0.08279 0.73664
 C1167 C 0.41314 0.05761 0.72573
 C1168 C 0.42676 0.08721 0.71197
 C1169 C 0.41504 0.10564 0.73959
 C1170 C 0.40158 0.07628 0.75357
 H1171 H 0.37346 0.13487 0.72153
 H1172 H 0.39471 0.10065 0.67069
 H1173 H 0.34891 0.08079 0.74669
 H1174 H 0.42436 0.03480 0.72676
 H1175 H 0.44959 0.08926 0.70196
 H1176 H 0.40361 0.06925 0.77784
 C1177 C 0.61996 0.72498 0.10840
 C1178 C 0.61434 0.69116 0.09852
 C1179 C 0.61692 0.70095 0.06492
 C1180 C 0.62275 0.73450 0.07449
 C1181 C 0.58291 0.70704 0.06332
 C1182 C 0.58006 0.69749 0.09727
 C1183 C 0.58593 0.73110 0.10687
 C1184 C 0.58855 0.74075 0.07316
 H1185 H 0.63506 0.73249 0.12719
 H1186 H 0.62520 0.67058 0.10869
 H1187 H 0.64042 0.74968 0.06495
 H1188 H 0.56784 0.69955 0.04450
 H1189 H 0.56245 0.68204 0.10646
 H1190 H 0.57775 0.76128 0.06281
 C1191 C 0.42797 0.27468 0.07257
 C1192 C 0.39921 0.26502 0.05505
 C1193 C 0.38570 0.29698 0.06137
 C1194 C 0.41425 0.30693 0.07858
 C1195 C 0.37148 0.28547 0.09120
 C1196 C 0.38513 0.25326 0.08511
 C1197 C 0.41375 0.26305 0.10241
 C1198 C 0.40023 0.29509 0.10875
 H1199 H 0.45138 0.27002 0.06507
 H1200 H 0.39872 0.25285 0.03270
 H1201 H 0.42610 0.32918 0.07568
 H1202 H 0.34807 0.29016 0.09868
 H1203 H 0.37265 0.23134 0.08765
 H1204 H 0.40066 0.30733 0.13106
 C1205 C 0.59912 0.25106 0.92741
 C1206 C 0.62910 0.26791 0.92135
 C1207 C 0.61698 0.29607 0.93882
 C1208 C 0.58720 0.27942 0.94518
 C1209 C 0.60422 0.30972 0.90919
 C1210 C 0.61612 0.28134 0.89138
 C1211 C 0.58626 0.26464 0.89770
 C1212 C 0.57417 0.29281 0.91524
 H1213 H 0.59693 0.22674 0.93476
 H1214 H 0.65186 0.25777 0.92405
 H1215 H 0.57551 0.27881 0.96758
 H1216 H 0.60650 0.33406 0.90195
 H1217 H 0.62842 0.28225 0.86936
 H1218 H 0.55139 0.30289 0.91250
 C1219 C 0.38363 0.72746 0.89305
 C1220 C 0.38997 0.69382 0.90286
 C1221 C 0.38581 0.70350 0.93642
 C1222 C 0.37927 0.73687 0.92689
 C1223 C 0.41953 0.71057 0.93938
 C1224 C 0.42395 0.70115 0.90548
 C1225 C 0.41737 0.73458 0.89594
 C1226 C 0.41319 0.74413 0.92960
 H1227 H 0.36900 0.73453 0.87375
 H1228 H 0.38016 0.67295 0.89211
 H1229 H 0.36078 0.75151 0.93586
 H1230 H 0.43411 0.70351 0.95873
 H1231 H 0.44237 0.68623 0.89685
 H1232 H 0.42293 0.76495 0.94050
 C1233 C 0.74042 0.90733 0.38449
 C1234 C 0.70652 0.90424 0.37722
 C1235 C 0.70180 0.93772 0.38757
 C1236 C 0.73548 0.94110 0.39465
 C1237 C 0.69554 0.92728 0.42049
 C1238 C 0.70051 0.89343 0.41038
 C1239 C 0.73428 0.89682 0.41746
 C1240 C 0.72949 0.93037 0.42774
 H1241 H 0.75903 0.89893 0.36974
 H1242 H 0.69686 0.89373 0.35624
 H1243 H 0.74970 0.96095 0.38805
 H1244 H 0.67692 0.93571 0.43520
 H1245 H 0.68588 0.87381 0.41667
 H1246 H 0.73910 0.94095 0.44871
 C1247 C 0.24640 0.92717 0.60257
 C1248 C 0.26411 0.92010 0.63215
 C1249 C 0.29107 0.93790 0.61928
 C1250 C 0.27358 0.94525 0.58991
 C1251 C 0.30386 0.90836 0.60484
 C1252 C 0.27666 0.89023 0.61748
 C1253 C 0.25911 0.89756 0.58803
 C1254 C 0.28609 0.91543 0.57520
 H1255 H 0.22259 0.93475 0.60154
 H1256 H 0.25519 0.92221 0.65576
 H1257 H 0.27249 0.96813 0.57877
 H1258 H 0.32770 0.90089 0.60597
 H1259 H 0.27805 0.86767 0.62917
 H1260 H 0.29498 0.91328 0.55159
 C1261 C 0.30124 0.09523 0.42558
 C1262 C 0.29292 0.06075 0.42231
 C1263 C 0.29995 0.06241 0.38797
 C1264 C 0.30854 0.09653 0.39096
 C1265 C 0.26716 0.07108 0.38087
 C1266 C 0.25995 0.06967 0.41540
 C1267 C 0.26840 0.10389 0.41842
 C1268 C 0.27548 0.10548 0.38406
 H1269 H 0.31547 0.10501 0.44404
 H1270 H 0.30022 0.04207 0.43789
 H1271 H 0.32870 0.10733 0.38067
 H1272 H 0.25317 0.06099 0.36237
 H1273 H 0.23984 0.05870 0.42562
 H1274 H 0.26817 0.12412 0.36844
 C1275 C 0.71045 0.08400 0.56835
 C1276 C 0.72243 0.05443 0.58380
 C1277 C 0.70401 0.06235 0.61249
 C1278 C 0.69174 0.09162 0.59731
 C1279 C 0.73058 0.08039 0.62606
 C1280 C 0.74921 0.07274 0.59718
 C1281 C 0.73704 0.10209 0.58190
 C1282 C 0.71855 0.10998 0.61066
 H1283 H 0.70232 0.08569 0.54443
 H1284 H 0.72386 0.03134 0.57296
 H1285 H 0.66788 0.09915 0.59752
 H1286 H 0.73878 0.07876 0.64996
 H1287 H 0.77304 0.06511 0.59706
 H1288 H 0.71679 0.13274 0.62210
 C1289 C 0.90661 0.57828 0.29773
 C1290 C 0.94017 0.58103 0.28869
 C1291 C 0.93853 0.61588 0.29458
 C1292 C 0.90533 0.61340 0.30386
 C1293 C 0.92968 0.62168 0.26111
 C1294 C 0.93105 0.58662 0.25505
 C1295 C 0.89774 0.58412 0.26420
 C1296 C 0.89619 0.61899 0.27014
 H1297 H 0.89730 0.56035 0.31300
 H1298 H 0.95854 0.56560 0.29646
 H1299 H 0.89500 0.62467 0.32411
 H1300 H 0.93934 0.63965 0.24610
 H1301 H 0.94153 0.57542 0.23484
 H1302 H 0.87786 0.63447 0.26237
 C1303 C 0.89075 0.39805 0.70691
 C1304 C 0.91993 0.41295 0.69459
 C1305 C 0.93765 0.38422 0.70444
 C1306 C 0.90880 0.36911 0.71645
 C1307 C 0.94390 0.39855 0.73596
 C1308 C 0.92589 0.42748 0.72638
 C1309 C 0.89701 0.41241 0.73850
 C1310 C 0.91481 0.38361 0.74824
 H1311 H 0.86867 0.39789 0.69510
 H1312 H 0.92223 0.42491 0.67235
 H1313 H 0.90196 0.34493 0.71212
 H1314 H 0.96602 0.39867 0.74771
 H1315 H 0.93276 0.45166 0.73067
 H1316 H 0.91291 0.37103 0.77016
 C1317 C 0.07203 0.59916 0.74804
 C1318 C 0.07851 0.62857 0.72940
 C1319 C 0.06069 0.61490 0.70248
 C1320 C 0.05393 0.58569 0.72091
 C1321 C 0.08936 0.60021 0.68931
 C1322 C 0.10750 0.61366 0.71647
 C1323 C 0.10077 0.58437 0.73496
 C1324 C 0.08289 0.57074 0.70802
 H1325 H 0.06502 0.59865 0.77238
 H1326 H 0.07654 0.65252 0.73809
 H1327 H 0.03164 0.57439 0.72258
 H1328 H 0.09625 0.60082 0.66495
 H1329 H 0.12946 0.62555 0.71449
 H1330 H 0.08490 0.54677 0.69938
 C1331 C 0.07168 0.40257 0.24719
 C1332 C 0.07793 0.37191 0.26388
 C1333 C 0.06108 0.38436 0.29201
 C1334 C 0.05451 0.41482 0.27554
 C1335 C 0.09038 0.39746 0.30528
 C1336 C 0.10754 0.38521 0.27695
 C1337 C 0.10106 0.41575 0.26042
 C1338 C 0.08413 0.42820 0.28854
 H1339 H 0.06412 0.40474 0.22312
 H1340 H 0.07523 0.34859 0.25381
 H1341 H 0.03245 0.42678 0.27512
 H1342 H 0.09784 0.39519 0.32938
 H1343 H 0.12920 0.37254 0.27769
 H1344 H 0.08691 0.45153 0.29854
   
