data_POSCAR
  _audit_creation_date              2014-09-24
  _audit_creation_method            'ToBaCCo'
  _symmetry_space_group_name_H-M    'P1'
  _symmetry_Int_Tables_number       1
  _symmetry_cell_setting            triclinic
  loop_
  _symmetry_equiv_pos_as_xyz
 x,y,z
_cell_length_a 55.2919
_cell_length_b 54.1839
_cell_length_c 55.3830
_cell_angle_alpha 90.182400
_cell_angle_beta 90.017100
_cell_angle_gamma 89.997800
loop_
  _atom_site_label
  _atom_site_type_symbol
  _atom_site_fract_x
  _atom_site_fract_y
  _atom_site_fract_z
O1 O 0.31705 0.34783 0.02513
 O2 O 0.35043 0.31790 -0.02446
 O3 O 0.31502 0.35229 -0.01933
 O4 O 0.35100 0.31716 0.02393
 O5 O 0.32456 0.28671 0.02229
 O6 O 0.29122 0.32025 -0.02550
 O7 O 0.32477 0.28679 -0.02443
 O8 O 0.28890 0.31912 0.02196
 Cu9 Cu 0.33657 0.33621 0.00055
 Cu10 Cu 0.30456 0.30021 -0.00148
 C11 C 0.29682 0.33890 0.03155
 C12 C 0.34376 0.29696 -0.03248
 C13 C 0.29687 0.34259 -0.02972
 C14 C 0.34373 0.29619 0.03103
 O15 O 0.64974 0.68173 -0.02261
 O16 O 0.68564 0.65018 0.02386
 O17 O 0.65066 0.68203 0.02427
 O18 O 0.68424 0.64943 -0.02309
 O19 O 0.71130 0.67927 -0.02400
 O20 O 0.67722 0.71240 0.02350
 O21 O 0.71278 0.68007 0.02257
 O22 O 0.67638 0.71203 -0.02351
 Cu23 Cu 0.66490 0.66285 0.00072
 Cu24 Cu 0.69707 0.69904 -0.00041
 C25 C 0.65681 0.70232 -0.03094
 C26 C 0.70551 0.65955 0.03087
 C27 C 0.65798 0.70284 0.03190
 C28 C 0.70365 0.65849 -0.03155
 O29 O 0.68546 0.35016 0.97881
 O30 O 0.65071 0.31638 1.02436
 O31 O 0.68470 0.34891 1.02593
 O32 O 0.65152 0.31696 0.97751
 O33 O 0.67851 0.28698 0.97787
 O34 O 0.71329 0.32061 1.02415
 O35 O 0.67849 0.28715 1.02491
 O36 O 0.71259 0.32032 0.97768
 Cu37 Cu 0.66537 0.33606 1.00163
 Cu38 Cu 0.69844 0.30072 1.00122
 C39 C 0.70494 0.34114 0.97044
 C40 C 0.65859 0.29605 1.03250
 C41 C 0.70498 0.34057 1.03297
 C42 C 0.65914 0.29634 0.96962
 O43 O 0.35176 0.68017 1.02285
 O44 O 0.31936 0.64806 0.97418
 O45 O 0.35228 0.68201 0.97599
 O46 O 0.31780 0.64697 1.02131
 O47 O 0.28996 0.67606 1.02185
 O48 O 0.32414 0.71087 0.97615
 O49 O 0.29073 0.67649 0.97513
 O50 O 0.32423 0.70964 1.02304
 Cu51 Cu 0.33807 0.66139 0.99859
 Cu52 Cu 0.30447 0.69619 0.99910
 C53 C 0.34384 0.70053 1.03105
 C54 C 0.29945 0.65663 0.96649
 C55 C 0.34414 0.70248 0.96836
 C56 C 0.29784 0.65539 1.02927
 O57 O -0.02077 0.35479 0.31767
 O58 O 0.02303 0.31797 0.35192
 O59 O 0.02553 0.35088 0.31799
 O60 O -0.02399 0.32193 0.35187
 O61 O -0.02521 0.29137 0.32556
 O62 O 0.02208 0.32233 0.28971
 O63 O 0.02158 0.28884 0.32405
 O64 O -0.02500 0.32437 0.29132
 Cu65 Cu 0.00115 0.33926 0.33769
 Cu66 Cu -0.00182 0.30374 0.30489
 C67 C -0.03027 0.34594 0.29867
 C68 C 0.02992 0.29717 0.34386
 C69 C 0.03182 0.34200 0.29771
 C70 C -0.03283 0.30145 0.34487
 O71 O 0.02427 0.68202 0.65047
 O72 O -0.02229 0.64822 0.68441
 O73 O -0.02270 0.67988 0.64948
 O74 O 0.02476 0.64947 0.68484
 O75 O 0.02252 0.67894 0.71238
 O76 O -0.02356 0.71072 0.67549
 O77 O -0.02426 0.67871 0.71084
 O78 O 0.02331 0.71186 0.67763
 Cu79 Cu 0.00119 0.66189 0.66463
 Cu80 Cu -0.00061 0.69812 0.69677
 C81 C 0.03168 0.70280 0.65817
 C82 C -0.03122 0.65766 0.70345
 C83 C -0.03111 0.70064 0.65612
 C84 C 0.03142 0.65870 0.70485
 O85 O 0.97800 0.67843 0.35148
 O86 O 1.02770 0.64847 0.31873
 O87 O 1.02503 0.68148 0.35227
 O88 O 0.98132 0.64534 0.31711
 O89 O 0.97842 0.67551 0.29051
 O90 O 1.02430 0.71071 0.32471
 O91 O 1.02564 0.67696 0.29042
 O92 O 0.97740 0.70862 0.32486
 Cu93 Cu 1.00302 0.66056 0.33771
 Cu94 Cu 1.00135 0.69592 0.30484
 C95 C 0.96945 0.69882 0.34410
 C96 C 1.03492 0.65727 0.29879
 C97 C 1.03235 0.70223 0.34454
 C98 C 0.97255 0.65414 0.29779
 O99 O 0.97768 0.31782 0.65015
 O100 O 1.02416 0.34821 0.68736
 O101 O 1.02454 0.31608 0.65242
 O102 O 0.97724 0.35041 0.68439
 O103 O 0.97424 0.32062 0.71131
 O104 O 1.02192 0.28599 0.67895
 O105 O 1.02090 0.31866 0.71454
 O106 O 0.97506 0.28770 0.67674
 Cu107 Cu 1.00125 0.33611 0.66593
 Cu108 Cu 0.99787 0.30020 0.69809
 C109 C 0.96849 0.29752 0.65699
 C110 C 1.03011 0.33887 0.70750
 C111 C 1.03113 0.29497 0.65983
 C112 C 0.96766 0.34153 0.70328
 O113 O 0.35247 0.02363 0.32017
 O114 O 0.31815 -0.02373 0.35283
 O115 O 0.35179 -0.02428 0.32018
 O116 O 0.31909 0.02416 0.35308
 O117 O 0.29085 0.02456 0.32493
 O118 O 0.32421 -0.02371 0.29138
 O119 O 0.29018 -0.02335 0.32442
 O120 O 0.32466 0.02419 0.29160
 Cu121 Cu 0.33816 -0.00010 0.33940
 Cu122 Cu 0.30465 0.00048 0.30521
 C123 C 0.34460 0.03187 0.30022
 C124 C 0.29821 -0.03152 0.34436
 C125 C 0.34382 -0.03214 0.30007
 C126 C 0.29928 0.03249 0.34486
 O127 O 0.68401 -0.02530 0.64865
 O128 O 0.65027 0.02391 0.67935
 O129 O 0.68420 0.02254 0.64699
 O130 O 0.65050 -0.02405 0.68161
 O131 O 0.67827 -0.02276 0.71019
 O132 O 0.71200 0.02389 0.67555
 O133 O 0.67773 0.02516 0.70824
 O134 O 0.71207 -0.02394 0.67694
 Cu135 Cu 0.66446 -0.00088 0.66133
 Cu136 Cu 0.69780 0.00070 0.69562
 C137 C 0.70395 -0.03283 0.65727
 C138 C 0.65805 0.03287 0.69908
 C139 C 0.70398 0.03104 0.65524
 C140 C 0.65851 -0.03125 0.70191
 O141 O 0.35255 0.97740 0.68128
 O142 O 0.31765 1.02493 0.64954
 O143 O 0.35178 1.02540 0.68181
 O144 O 0.31831 0.97708 0.64920
 O145 O 0.29088 0.97644 0.67812
 O146 O 0.32451 1.02481 0.71087
 O147 O 0.29007 1.02423 0.67832
 O148 O 0.32544 0.97686 0.71051
 Cu149 Cu 0.33783 1.00128 0.66259
 Cu150 Cu 0.30499 1.00053 0.69740
 C151 C 0.34512 0.96909 0.70137
 C152 C 0.29774 1.03250 0.65828
 C153 C 0.34399 1.03327 0.70199
 C154 C 0.29874 0.96866 0.65792
 O155 O 0.65033 0.97492 0.31900
 O156 O 0.68353 1.02392 0.35061
 O157 O 0.65046 1.02275 0.31727
 O158 O 0.68403 0.97594 0.35176
 O159 O 0.71200 0.97488 0.32338
 O160 O 0.67869 1.02210 0.28914
 O161 O 0.71208 1.02276 0.32289
 O162 O 0.67798 0.97431 0.29029
 Cu163 Cu 0.66431 0.99947 0.33749
 Cu164 Cu 0.69802 0.99843 0.30360
 C165 C 0.65818 0.96648 0.29908
 C166 C 0.70364 1.03159 0.34248
 C167 C 0.65870 1.03026 0.29718
 C168 C 0.70385 0.96750 0.34355
 C169 C 0.89062 0.78240 0.48713
 C170 C 0.89087 0.78242 0.51188
 C171 C 0.86917 0.79280 0.51927
 N172 N 0.85573 0.79920 0.49988
 C173 C 0.86882 0.79284 0.48022
 C174 C 0.86118 0.79434 0.54345
 C175 C 0.84112 0.80885 0.55046
 C176 C 0.82930 0.80722 0.57248
 C177 C 0.81197 0.82546 0.57270
 C178 C 0.81368 0.83766 0.55079
 N179 N 0.83151 0.82746 0.53738
 C180 C 0.80003 0.85864 0.54424
 C181 C 0.79832 0.86703 0.52017
 C182 C 0.78869 0.88955 0.51325
 C183 C 0.78856 0.88968 0.48849
 C184 C 0.79808 0.86722 0.48110
 N185 N 0.80405 0.85341 0.50050
 C186 C 0.79951 0.85906 0.45687
 C187 C 0.81308 0.83811 0.44987
 C188 C 0.81121 0.82616 0.42775
 C189 C 0.82852 0.80789 0.42754
 C190 C 0.84045 0.80919 0.44953
 N191 N 0.83097 0.82769 0.46299
 C192 C 0.86046 0.79449 0.45619
 H193 H 0.90480 0.77533 0.47554
 H194 H 0.90529 0.77538 0.52314
 H195 H 0.83809 0.83457 0.47904
 H196 H 0.83287 0.79435 0.58695
 H197 H 0.79961 0.82937 0.58737
 H198 H 0.78231 0.90430 0.52483
 H199 H 0.78208 0.90457 0.47724
 H200 H 0.83202 0.79521 0.41282
 H201 H 0.83851 0.83457 0.52141
 H202 H 0.79878 0.83027 0.41322
 C203 C 0.21201 0.10709 0.48843
 C204 C 0.21171 0.10681 0.51319
 C205 C 0.20060 0.12852 0.52049
 N206 N 0.19403 0.14198 0.50106
 C207 C 0.20099 0.12890 0.48145
 C208 C 0.19835 0.13653 0.54469
 C209 C 0.18373 0.15677 0.55145
 C210 C 0.18495 0.16897 0.57346
 C211 C 0.16677 0.18631 0.57348
 C212 C 0.15493 0.18416 0.55149
 N213 N 0.16538 0.16612 0.53818
 C214 C 0.13409 0.19758 0.54479
 C215 C 0.12591 0.19898 0.52065
 C216 C 0.10374 0.20840 0.51350
 C217 C 0.10378 0.20842 0.48873
 C218 C 0.12597 0.19899 0.48158
 N219 N 0.13947 0.19322 0.50111
 C220 C 0.13419 0.19764 0.45745
 C221 C 0.15505 0.18425 0.45062
 C222 C 0.16687 0.18646 0.42864
 C223 C 0.18529 0.16938 0.42863
 C224 C 0.18421 0.15722 0.45060
 N225 N 0.16568 0.16633 0.46384
 C226 C 0.19925 0.13734 0.45741
 H227 H 0.21963 0.09292 0.47689
 H228 H 0.21904 0.09237 0.52450
 H229 H 0.15905 0.15895 0.47984
 H230 H 0.19755 0.16564 0.58806
 H231 H 0.16265 0.19893 0.58809
 H232 H 0.08913 0.21477 0.52492
 H233 H 0.08921 0.21482 0.47730
 H234 H 0.19797 0.16621 0.41406
 H235 H 0.15865 0.15870 0.52218
 H236 H 0.16261 0.19901 0.41408
 C237 C 0.10802 0.78850 0.51353
 C238 C 0.10783 0.78863 0.48877
 C239 C 0.13008 0.79782 0.48154
 N240 N 0.14379 0.80335 0.50101
 C241 C 0.13034 0.79766 0.52058
 C242 C 0.13818 0.79918 0.45739
 C243 C 0.15892 0.81275 0.45066
 C244 C 0.17077 0.81072 0.42868
 C245 C 0.18874 0.82831 0.42867
 C246 C 0.18736 0.84053 0.45066
 N247 N 0.16916 0.83094 0.46395
 C248 C 0.20157 0.86110 0.45736
 C249 C 0.20353 0.86931 0.48152
 C250 C 0.21364 0.89156 0.48873
 C251 C 0.21378 0.89150 0.51349
 C252 C 0.20377 0.86921 0.52057
 N253 N 0.19751 0.85568 0.50101
 C254 C 0.20209 0.86089 0.54466
 C255 C 0.18796 0.84027 0.55130
 C256 C 0.18949 0.82804 0.57320
 C257 C 0.17151 0.81047 0.57320
 C258 C 0.15952 0.81249 0.55130
 N259 N 0.16967 0.83068 0.53807
 C260 C 0.13871 0.79896 0.54465
 H261 H 0.09343 0.78226 0.52502
 H262 H 0.09306 0.78252 0.47741
 H263 H 0.16269 0.83808 0.52222
 H264 H 0.16678 0.79805 0.41407
 H265 H 0.20125 0.83183 0.41406
 H266 H 0.22030 0.90626 0.47735
 H267 H 0.22057 0.90615 0.52495
 H268 H 0.16756 0.79782 0.58776
 H269 H 0.16231 0.83831 0.47991
 H270 H 0.20209 0.83155 0.58777
 C271 C 0.78893 0.10871 0.50973
 C272 C 0.78876 0.10909 0.48497
 C273 C 0.79760 0.13198 0.47816
 N274 N 0.80324 0.14554 0.49791
 C275 C 0.79792 0.13134 0.51723
 C276 C 0.79857 0.14079 0.45418
 C277 C 0.81164 0.16220 0.44774
 C278 C 0.80920 0.17485 0.42615
 C279 C 0.82618 0.19344 0.42638
 C280 C 0.83851 0.19159 0.44811
 N281 N 0.82955 0.17251 0.46099
 C282 C 0.85848 0.20630 0.45499
 C283 C 0.86703 0.20735 0.47901
 C284 C 0.88890 0.21759 0.48610
 C285 C 0.88924 0.21708 0.51085
 C286 C 0.86759 0.20651 0.51803
 N287 N 0.85405 0.20054 0.49855
 C288 C 0.85975 0.20438 0.54219
 C289 C 0.83991 0.18950 0.54892
 C290 C 0.82821 0.19048 0.57104
 C291 C 0.81104 0.17207 0.57082
 C292 C 0.81279 0.16036 0.54858
 N293 N 0.83044 0.17107 0.53538
 C294 C 0.79939 0.13932 0.54151
 H295 H 0.78299 0.09354 0.52092
 H296 H 0.78266 0.09427 0.47333
 H297 H 0.83745 0.16441 0.51919
 H298 H 0.79659 0.17100 0.41166
 H299 H 0.82919 0.20669 0.41211
 H300 H 0.90306 0.22485 0.47466
 H301 H 0.90369 0.22389 0.52224
 H302 H 0.79880 0.16772 0.58544
 H303 H 0.83704 0.16521 0.47666
 H304 H 0.83176 0.20305 0.58585
 C305 C 0.48817 0.78772 0.89115
 C306 C 0.51296 0.78730 0.89106
 C307 C 0.52019 0.79718 0.86916
 N308 N 0.50068 0.80355 0.85586
 C309 C 0.48108 0.79774 0.86927
 C310 C 0.54436 0.79836 0.86100
 C311 C 0.55150 0.81256 0.84087
 C312 C 0.57371 0.81081 0.82936
 C313 C 0.57402 0.82872 0.81178
 C314 C 0.55197 0.84086 0.81304
 N315 N 0.53841 0.83096 0.83087
 C316 C 0.54536 0.86144 0.79887
 C317 C 0.52118 0.86962 0.79678
 C318 C 0.51409 0.89168 0.78633
 C319 C 0.48929 0.89158 0.78594
 C320 C 0.48206 0.86950 0.79625
 N321 N 0.50157 0.85610 0.80286
 C322 C 0.45788 0.86123 0.79770
 C323 C 0.45074 0.84107 0.81217
 C324 C 0.42854 0.82924 0.81079
 C325 C 0.42824 0.81181 0.82882
 C326 C 0.45028 0.81348 0.84066
 N327 N 0.46384 0.83141 0.83046
 C328 C 0.45690 0.79960 0.86119
 H329 H 0.47670 0.78117 0.90561
 H330 H 0.52436 0.78038 0.90541
 H331 H 0.47995 0.83847 0.83727
 H332 H 0.58825 0.79807 0.83330
 H333 H 0.58882 0.83243 0.79953
 H334 H 0.52556 0.90626 0.77951
 H335 H 0.47790 0.90604 0.77876
 H336 H 0.41344 0.79940 0.83280
 H337 H 0.52230 0.83813 0.83757
 H338 H 0.41400 0.83289 0.79821
 C339 C 0.48816 0.10529 0.21165
 C340 C 0.51295 0.10491 0.21123
 C341 C 0.52025 0.12679 0.20057
 N342 N 0.50077 0.14046 0.19437
 C343 C 0.48113 0.12734 0.20114
 C344 C 0.54449 0.13473 0.19848
 C345 C 0.55133 0.15517 0.18423
 C346 C 0.57347 0.16712 0.18556
 C347 C 0.57338 0.18498 0.16796
 C348 C 0.55119 0.18343 0.15638
 N349 N 0.53790 0.16515 0.16634
 C350 C 0.54417 0.19787 0.13637
 C351 C 0.51998 0.19959 0.12834
 C352 C 0.51276 0.21046 0.10689
 C353 C 0.48796 0.21048 0.10695
 C354 C 0.48085 0.19963 0.12845
 N355 N 0.50045 0.19297 0.14149
 C356 C 0.45670 0.19798 0.13661
 C357 C 0.44982 0.18375 0.15681
 C358 C 0.42778 0.18557 0.16863
 C359 C 0.42792 0.16807 0.18660
 C360 C 0.45001 0.15603 0.18519
 N361 N 0.46317 0.16559 0.16690
 C362 C 0.45705 0.13593 0.19980
 H363 H 0.47662 0.09105 0.21903
 H364 H 0.52428 0.09029 0.21820
 H365 H 0.47928 0.15847 0.16013
 H366 H 0.58819 0.16334 0.19789
 H367 H 0.58803 0.19762 0.16410
 H368 H 0.52417 0.21787 0.09279
 H369 H 0.47648 0.21791 0.09292
 H370 H 0.41338 0.16460 0.19921
 H371 H 0.52172 0.15815 0.15963
 H372 H 0.41313 0.19820 0.16475
 C373 C 0.48951 0.11410 0.78080
 C374 C 0.51431 0.11412 0.78044
 C375 C 0.52160 0.13622 0.79079
 N376 N 0.50213 0.14974 0.79735
 C377 C 0.48249 0.13625 0.79125
 C378 C 0.54582 0.14434 0.79253
 C379 C 0.55287 0.16451 0.80715
 C380 C 0.57514 0.17621 0.80611
 C381 C 0.57537 0.19356 0.82433
 C382 C 0.55322 0.19196 0.83595
 N383 N 0.53964 0.17419 0.82540
 C384 C 0.54661 0.20549 0.85678
 C385 C 0.52245 0.20738 0.86487
 C386 C 0.51542 0.21663 0.88716
 C387 C 0.49063 0.21698 0.88718
 C388 C 0.48333 0.20794 0.86490
 N389 N 0.50281 0.20209 0.85128
 C390 C 0.45912 0.20657 0.85686
 C391 C 0.45226 0.19308 0.83608
 C392 C 0.43008 0.19497 0.82453
 C393 C 0.42983 0.17730 0.80662
 C394 C 0.45188 0.16516 0.80772
 N395 N 0.46544 0.17491 0.82569
 C396 C 0.45834 0.14446 0.79356
 H397 H 0.47800 0.09949 0.77402
 H398 H 0.52566 0.09954 0.77334
 H399 H 0.48145 0.16755 0.83240
 H400 H 0.58980 0.17249 0.79367
 H401 H 0.59023 0.20580 0.82865
 H402 H 0.52694 0.22254 0.90188
 H403 H 0.47929 0.22319 0.90192
 H404 H 0.41499 0.17362 0.79437
 H405 H 0.52347 0.16715 0.83205
 H406 H 0.41546 0.20754 0.82877
 C407 C 0.48715 0.89195 0.21377
 C408 C 0.51194 0.89203 0.21381
 C409 C 0.51919 0.87039 0.20254
 N410 N 0.49967 0.85711 0.19559
 C411 C 0.48006 0.87026 0.20247
 C412 C 0.54340 0.86226 0.20063
 C413 C 0.55043 0.84222 0.18583
 C414 C 0.57261 0.83034 0.18699
 C415 C 0.57267 0.81276 0.16901
 C416 C 0.55050 0.81439 0.15739
 N417 N 0.53712 0.83249 0.16765
 C418 C 0.54356 0.80009 0.13718
 C419 C 0.51938 0.79829 0.12910
 C420 C 0.51225 0.78743 0.10755
 C421 C 0.48746 0.78728 0.10757
 C422 C 0.48025 0.79805 0.12913
 N423 N 0.49979 0.80479 0.14227
 C424 C 0.45606 0.79957 0.13725
 C425 C 0.44900 0.81396 0.15738
 C426 C 0.42684 0.81228 0.16897
 C427 C 0.42679 0.82994 0.18689
 C428 C 0.44894 0.84189 0.18575
 N429 N 0.46228 0.83217 0.16760
 C430 C 0.45590 0.86196 0.20055
 H431 H 0.47565 0.90611 0.22144
 H432 H 0.52333 0.90628 0.22149
 H433 H 0.47849 0.83921 0.16104
 H434 H 0.58726 0.83396 0.19948
 H435 H 0.58736 0.80022 0.16496
 H436 H 0.52372 0.78010 0.09341
 H437 H 0.47604 0.77982 0.09344
 H438 H 0.41212 0.83354 0.19934
 H439 H 0.52091 0.83948 0.16104
 H440 H 0.41220 0.79965 0.16495
 C441 C 0.79072 0.51316 0.89388
 C442 C 0.79087 0.48785 0.89407
 C443 C 0.79978 0.48036 0.87184
 N444 N 0.80508 0.50020 0.85809
 C445 C 0.79950 0.52027 0.87152
 C446 C 0.80107 0.45564 0.86377
 C447 C 0.81423 0.44859 0.84302
 C448 C 0.81214 0.42607 0.83122
 C449 C 0.82909 0.42602 0.81300
 C450 C 0.84101 0.44850 0.81422
 N451 N 0.83190 0.46210 0.83259
 C452 C 0.86076 0.45543 0.79958
 C453 C 0.86902 0.48002 0.79798
 C454 C 0.89075 0.48719 0.78768
 C455 C 0.89091 0.51249 0.78782
 C456 C 0.86922 0.51992 0.79808
 N457 N 0.85589 0.50004 0.80433
 C458 C 0.86114 0.54459 0.79981
 C459 C 0.84096 0.55147 0.81393
 C460 C 0.82876 0.57375 0.81222
 C461 C 0.81147 0.57378 0.83010
 C462 C 0.81368 0.55156 0.84226
 N463 N 0.83168 0.53808 0.83227
 C464 C 0.80041 0.54482 0.86302
 H465 H 0.78465 0.52496 0.90847
 H466 H 0.78492 0.47629 0.90883
 H467 H 0.83906 0.52197 0.83933
 H468 H 0.79980 0.41118 0.83537
 H469 H 0.83235 0.41107 0.80042
 H470 H 0.90492 0.47541 0.78066
 H471 H 0.90528 0.52407 0.78094
 H472 H 0.79886 0.58859 0.83383
 H473 H 0.83912 0.47847 0.83930
 H474 H 0.83206 0.58850 0.79951
 C475 C 0.10912 0.51363 0.21169
 C476 C 0.10824 0.48834 0.21150
 C477 C 0.12927 0.48032 0.20034
 N478 N 0.14291 0.49985 0.19364
 C479 C 0.13060 0.52023 0.20055
 C480 C 0.13646 0.45538 0.19814
 C481 C 0.15621 0.44791 0.18368
 C482 C 0.16752 0.42511 0.18498
 C483 C 0.18480 0.42469 0.16710
 C484 C 0.18350 0.44722 0.15537
 N485 N 0.16600 0.46124 0.16555
 C486 C 0.19725 0.45381 0.13489
 C487 C 0.19906 0.47834 0.12656
 C488 C 0.20853 0.48520 0.10441
 C489 C 0.20899 0.51050 0.10420
 C490 C 0.19992 0.51826 0.12630
 N491 N 0.19380 0.49856 0.13991
 C492 C 0.19926 0.54303 0.13439
 C493 C 0.18603 0.55043 0.15506
 C494 C 0.18857 0.57290 0.16686
 C495 C 0.17156 0.57337 0.18502
 C496 C 0.15918 0.55115 0.18384
 N497 N 0.16803 0.53733 0.16548
 C498 C 0.13942 0.54463 0.19870
 H499 H 0.09557 0.52578 0.21933
 H500 H 0.09386 0.47715 0.21895
 H501 H 0.16050 0.52108 0.15884
 H502 H 0.16368 0.41028 0.19745
 H503 H 0.19682 0.40945 0.16311
 H504 H 0.21462 0.47321 0.08997
 H505 H 0.21547 0.52185 0.08952
 H506 H 0.16861 0.58840 0.19760
 H507 H 0.15933 0.47779 0.15879
 H508 H 0.20128 0.58748 0.16280
 C509 C 0.77539 0.51321 0.11835
 C510 C 0.77492 0.48798 0.11862
 C511 C 0.79238 0.48043 0.13503
 N512 N 0.80380 0.50040 0.14441
 C513 C 0.79322 0.52050 0.13446
 C514 C 0.79856 0.45542 0.13959
 C515 C 0.81658 0.44813 0.15634
 C516 C 0.82720 0.42491 0.15730
 C517 C 0.84364 0.42538 0.17590
 C518 C 0.84214 0.44857 0.18639
 N519 N 0.82546 0.46223 0.17449
 C520 C 0.85536 0.45631 0.20696
 C521 C 0.85537 0.48096 0.21522
 C522 C 0.86377 0.48856 0.23762
 C523 C 0.86435 0.51383 0.23714
 C524 C 0.85630 0.52078 0.21445
 N525 N 0.85071 0.50067 0.20113
 C526 C 0.85736 0.54501 0.20526
 C527 C 0.84464 0.55229 0.18429
 C528 C 0.84736 0.57473 0.17267
 C529 C 0.83095 0.57501 0.15401
 C530 C 0.81908 0.55244 0.15431
 N531 N 0.82724 0.53890 0.17307
 C532 C 0.80052 0.54531 0.13815
 H533 H 0.76432 0.52476 0.10691
 H534 H 0.76343 0.47665 0.10734
 H535 H 0.81968 0.52253 0.17921
 H536 H 0.82376 0.40912 0.14585
 H537 H 0.85517 0.41018 0.18112
 H538 H 0.86956 0.47703 0.25247
 H539 H 0.87065 0.52573 0.25156
 H540 H 0.82833 0.59014 0.14161
 H541 H 0.81885 0.47935 0.17980
 H542 H 0.85972 0.58952 0.17717
 C543 C 0.23513 0.48615 0.86719
 C544 C 0.23626 0.51136 0.86581
 C545 C 0.21407 0.51922 0.85707
 N546 N 0.19927 0.49965 0.85364
 C547 C 0.21202 0.47940 0.86002
 C548 C 0.20695 0.54415 0.85460
 C549 C 0.18623 0.55155 0.84144
 C550 C 0.17744 0.57551 0.84046
 C551 C 0.15820 0.57531 0.82477
 C552 C 0.15558 0.55122 0.81660
 N553 N 0.17303 0.53698 0.82654
 C554 C 0.13825 0.54338 0.79937
 C555 C 0.13332 0.51830 0.79399
 C556 C 0.11740 0.51029 0.77626
 C557 C 0.11668 0.48508 0.77765
 C558 C 0.13208 0.47836 0.79628
 N559 N 0.14199 0.49873 0.80642
 C560 C 0.13514 0.45393 0.80477
 C561 C 0.15050 0.44777 0.82428
 C562 C 0.14905 0.42621 0.83762
 C563 C 0.16757 0.42692 0.85418
 C564 C 0.18038 0.44852 0.85004
 N565 N 0.16973 0.46117 0.83185
 C566 C 0.20219 0.45531 0.86182
 H567 H 0.24957 0.47423 0.87331
 H568 H 0.25170 0.52247 0.87086
 H569 H 0.17679 0.47655 0.82317
 H570 H 0.18444 0.59166 0.84961
 H571 H 0.14763 0.59129 0.81976
 H572 H 0.10693 0.52139 0.76387
 H573 H 0.10548 0.47319 0.76661
 H574 H 0.17124 0.41289 0.86754
 H575 H 0.17723 0.51902 0.82156
 H576 H 0.13602 0.41145 0.83583
 C577 C 0.25297 0.38188 0.08029
 C578 C 0.27803 0.38668 0.07794
 C579 C 0.29232 0.37198 0.06272
 C580 C 0.28213 0.35234 0.04964
 C581 C 0.25755 0.34687 0.05281
 C582 C 0.24311 0.36142 0.06792
 C583 C 0.23805 0.39921 0.09535
 C584 C 0.21271 0.39710 0.09768
 C585 C 0.19954 0.41456 0.11086
 C586 C 0.21130 0.43439 0.12210
 C587 C 0.23650 0.43632 0.12049
 C588 C 0.24989 0.41913 0.10704
 C589 C 0.28865 0.40645 0.09037
 C590 C 0.27490 0.42223 0.10472
 H591 H 0.30788 0.40997 0.08873
 H592 H 0.28394 0.43744 0.11374
 H593 H 0.31138 0.37621 0.06066
 H594 H 0.24925 0.33176 0.04300
 H595 H 0.18005 0.41287 0.11195
 H596 H 0.24559 0.45166 0.12927
 H597 H 0.22426 0.35657 0.06934
 H598 H 0.20268 0.38242 0.08912
 C599 C 0.74930 0.61629 0.07877
 C600 C 0.72399 0.61784 0.08231
 C601 C 0.70978 0.63218 0.06672
 C602 C 0.72056 0.64598 0.04828
 C603 C 0.74578 0.64584 0.04586
 C604 C 0.76003 0.63103 0.06079
 C605 C 0.76351 0.59897 0.09434
 C606 C 0.78795 0.59306 0.08984
 C607 C 0.80005 0.57587 0.10420
 C608 C 0.78829 0.56475 0.12373
 C609 C 0.76409 0.57063 0.12853
 C610 C 0.75144 0.58702 0.11358
 C611 C 0.71305 0.60517 0.10141
 C612 C 0.72660 0.59059 0.11709
 H613 H 0.69373 0.60669 0.10439
 H614 H 0.71732 0.58127 0.13168
 H615 H 0.69030 0.63272 0.06897
 H616 H 0.75443 0.65656 0.03183
 H617 H 0.81857 0.57101 0.09993
 H618 H 0.75486 0.56150 0.14328
 H619 H 0.77934 0.63136 0.05799
 H620 H 0.79775 0.60088 0.07486
 C621 C 0.74704 0.38491 0.92107
 C622 C 0.72236 0.39043 0.92525
 C623 C 0.70866 0.37577 0.94097
 C624 C 0.71904 0.35536 0.95256
 C625 C 0.74320 0.34930 0.94764
 C626 C 0.75707 0.36387 0.93214
 C627 C 0.76141 0.40200 0.90535
 C628 C 0.78648 0.39925 0.90142
 C629 C 0.79923 0.41641 0.88760
 C630 C 0.78728 0.43655 0.87722
 C631 C 0.76228 0.43912 0.88045
 C632 C 0.74937 0.42231 0.89468
 C633 C 0.71151 0.41069 0.91394
 C634 C 0.72468 0.42615 0.89881
 H635 H 0.69256 0.41476 0.91696
 H636 H 0.71549 0.44168 0.89062
 H637 H 0.68989 0.38044 0.94438
 H638 H 0.75161 0.33356 0.95624
 H639 H 0.81857 0.41423 0.88532
 H640 H 0.75303 0.45470 0.87237
 H641 H 0.77561 0.35844 0.92927
 H642 H 0.79668 0.38432 0.90924
 C643 C 0.26113 0.61319 0.91393
 C644 C 0.24863 0.62443 0.93339
 C645 C 0.26106 0.63981 0.94966
 C646 C 0.28613 0.64290 0.94776
 C647 C 0.29864 0.63126 0.92891
 C648 C 0.28630 0.61683 0.91198
 C649 C 0.24726 0.59668 0.89713
 C650 C 0.25732 0.58654 0.87590
 C651 C 0.24398 0.57014 0.86160
 C652 C 0.22058 0.56317 0.86842
 C653 C 0.21005 0.57393 0.88892
 C654 C 0.22297 0.59102 0.90296
 C655 C 0.22411 0.61930 0.93721
 C656 C 0.21172 0.60247 0.92268
 H657 H 0.21456 0.62774 0.95220
 H658 H 0.19298 0.59846 0.92688
 H659 H 0.25146 0.64827 0.96463
 H660 H 0.31807 0.63327 0.92735
 H661 H 0.25212 0.56238 0.84549
 H662 H 0.19174 0.56889 0.89391
 H663 H 0.29686 0.60806 0.89800
 H664 H 0.27537 0.59109 0.87002
 C665 C 0.07791 0.25324 0.38758
 C666 C 0.07458 0.27867 0.39254
 C667 C 0.05935 0.29293 0.37789
 C668 C 0.04733 0.28237 0.35806
 C669 C 0.05133 0.25740 0.35262
 C670 C 0.06638 0.24298 0.36716
 C671 C 0.09324 0.23839 0.40455
 C672 C 0.09659 0.21267 0.40213
 C673 C 0.11016 0.19956 0.41908
 C674 C 0.12084 0.21175 0.43871
 C675 C 0.11815 0.23736 0.44099
 C676 C 0.10425 0.25067 0.42432
 C677 C 0.08621 0.28971 0.41227
 C678 C 0.10086 0.27605 0.42771
 H679 H 0.08382 0.30921 0.41594
 H680 H 0.10932 0.28543 0.44283
 H681 H 0.05664 0.31228 0.38213
 H682 H 0.04237 0.24880 0.33737
 H683 H 0.11205 0.17976 0.41711
 H684 H 0.12649 0.24680 0.45616
 H685 H 0.06854 0.22385 0.36222
 H686 H 0.08854 0.20228 0.38757
 C687 C 0.08133 0.74486 0.61464
 C688 C 0.07715 0.71957 0.60961
 C689 C 0.06138 0.70584 0.62420
 C690 C 0.04969 0.71683 0.64399
 C691 C 0.05458 0.74163 0.64949
 C692 C 0.07016 0.75549 0.63504
 C693 C 0.09713 0.75923 0.59771
 C694 C 0.10118 0.78483 0.60016
 C695 C 0.11504 0.79756 0.58319
 C696 C 0.12532 0.78510 0.56353
 C697 C 0.12199 0.75956 0.56126
 C698 C 0.10775 0.74664 0.57793
 C699 C 0.08847 0.70819 0.58989
 C700 C 0.10358 0.72138 0.57451
 H701 H 0.08544 0.68878 0.58617
 H702 H 0.11174 0.71176 0.55938
 H703 H 0.05797 0.68661 0.61992
 H704 H 0.04591 0.75055 0.66472
 H705 H 0.11739 0.81732 0.58513
 H706 H 0.13000 0.74991 0.54605
 H707 H 0.07299 0.77451 0.64006
 H708 H 0.09344 0.79546 0.61471
 C709 C 0.91701 0.73626 0.38865
 C710 C 0.92924 0.74913 0.37010
 C711 C 0.94558 0.73660 0.35496
 C712 C 0.95054 0.71145 0.35846
 C713 C 0.93825 0.69872 0.37673
 C714 C 0.92162 0.71085 0.39154
 C715 C 0.90054 0.75050 0.40510
 C716 C 0.88733 0.73934 0.42390
 C717 C 0.87369 0.75363 0.43985
 C718 C 0.87283 0.77934 0.43748
 C719 C 0.88487 0.79059 0.41816
 C720 C 0.89867 0.77637 0.40196
 C721 C 0.92574 0.77457 0.36729
 C722 C 0.91096 0.78793 0.38300
 H723 H 0.93506 0.78444 0.35307
 H724 H 0.90934 0.80768 0.38043
 H725 H 0.95513 0.74669 0.34103
 H726 H 0.94168 0.67930 0.37979
 H727 H 0.86419 0.74467 0.45452
 H728 H 0.88406 0.81048 0.41624
 H729 H 0.91305 0.70008 0.40544
 H730 H 0.88752 0.71969 0.42685
 C731 C 0.91722 0.26099 0.61036
 C732 C 0.92882 0.24780 0.62911
 C733 C 0.94492 0.25999 0.64476
 C734 C 0.95030 0.28509 0.64157
 C735 C 0.93886 0.29807 0.62293
 C736 C 0.92245 0.28628 0.60760
 C737 C 0.90066 0.24718 0.59365
 C738 C 0.88768 0.25875 0.57493
 C739 C 0.87378 0.24486 0.55885
 C740 C 0.87249 0.21914 0.56097
 C741 C 0.88434 0.20750 0.58019
 C742 C 0.89830 0.22132 0.59658
 C743 C 0.92487 0.22240 0.63168
 C744 C 0.91017 0.20940 0.61560
 H745 H 0.93375 0.21228 0.64602
 H746 H 0.90817 0.18966 0.61802
 H747 H 0.95387 0.24971 0.65895
 H748 H 0.94267 0.31745 0.62008
 H749 H 0.86441 0.25415 0.54430
 H750 H 0.88317 0.18761 0.58196
 H751 H 0.91449 0.29722 0.59346
 H752 H 0.88817 0.27844 0.57221
 C753 C 0.38984 0.08202 0.26037
 C754 C 0.37061 0.06950 0.24870
 C755 C 0.35525 0.05396 0.26199
 C756 C 0.35920 0.05006 0.28672
 C757 C 0.37814 0.06263 0.29825
 C758 C 0.39318 0.07849 0.28536
 C759 C 0.40643 0.09763 0.24541
 C760 C 0.42584 0.11111 0.25539
 C761 C 0.44172 0.12405 0.24054
 C762 C 0.43870 0.12390 0.21544
 C763 C 0.41889 0.11149 0.20532
 C764 C 0.40272 0.09843 0.22011
 C765 C 0.36732 0.07190 0.22373
 C766 C 0.38315 0.08587 0.20972
 H767 H 0.35260 0.06235 0.21478
 H768 H 0.38015 0.08667 0.19040
 H769 H 0.34080 0.04415 0.25284
 H770 H 0.38154 0.05999 0.31734
 H771 H 0.45678 0.13385 0.24861
 H772 H 0.41646 0.11154 0.18589
 H773 H 0.40760 0.08732 0.29523
 H774 H 0.42927 0.11173 0.27453
 C775 C 0.61331 0.08616 0.73584
 C776 C 0.63183 0.07360 0.74850
 C777 C 0.64707 0.05698 0.73624
 C778 C 0.64366 0.05206 0.71157
 C779 C 0.62542 0.06467 0.69907
 C780 C 0.61054 0.08158 0.71094
 C781 C 0.59680 0.10295 0.74973
 C782 C 0.57807 0.11654 0.73872
 C783 C 0.56211 0.13054 0.75263
 C784 C 0.56439 0.13138 0.77780
 C785 C 0.58359 0.11891 0.78891
 C786 C 0.59982 0.10477 0.77507
 C787 C 0.63451 0.07705 0.77344
 C788 C 0.61871 0.09212 0.78647
 H789 H 0.64868 0.06748 0.78316
 H790 H 0.62119 0.09370 0.80583
 H791 H 0.66097 0.04715 0.74612
 H792 H 0.62245 0.06128 0.68001
 H793 H 0.54754 0.14036 0.74379
 H794 H 0.58545 0.11971 0.80839
 H795 H 0.59667 0.09038 0.70034
 H796 H 0.57521 0.11641 0.71947
 C797 C 0.39056 0.91764 0.73944
 C798 C 0.37168 0.93013 0.75170
 C799 C 0.35630 0.94619 0.73902
 C800 C 0.35988 0.95060 0.71431
 C801 C 0.37850 0.93809 0.70222
 C802 C 0.39355 0.92175 0.71451
 C803 C 0.40714 0.90139 0.75376
 C804 C 0.42618 0.88786 0.74317
 C805 C 0.44210 0.87430 0.75746
 C806 C 0.43945 0.87385 0.78259
 C807 C 0.41999 0.88630 0.79330
 C808 C 0.40379 0.90000 0.77908
 C809 C 0.36875 0.92715 0.77665
 C810 C 0.38459 0.91259 0.79007
 H811 H 0.35430 0.93668 0.78605
 H812 H 0.38187 0.91134 0.80941
 H813 H 0.34210 0.95593 0.74860
 H814 H 0.38161 0.94110 0.68314
 H815 H 0.45689 0.86448 0.74893
 H816 H 0.41786 0.88580 0.81276
 H817 H 0.40771 0.91298 0.70422
 H818 H 0.42931 0.88769 0.72396
 C819 C 0.61222 0.91613 0.25997
 C820 C 0.63104 0.92881 0.24790
 C821 C 0.64677 0.94431 0.26093
 C822 C 0.64358 0.94800 0.28582
 C823 C 0.62513 0.93516 0.29776
 C824 C 0.60975 0.91934 0.28511
 C825 C 0.59512 0.90069 0.24529
 C826 C 0.57596 0.88719 0.25564
 C827 C 0.55965 0.87433 0.24109
 C828 C 0.56196 0.87458 0.21592
 C829 C 0.58145 0.88711 0.20540
 C830 C 0.59805 0.90009 0.21988
 C831 C 0.63352 0.92664 0.22280
 C832 C 0.61728 0.91275 0.20908
 H833 H 0.64794 0.93631 0.21354
 H834 H 0.61968 0.91212 0.18967
 H835 H 0.66084 0.95434 0.25148
 H836 H 0.62232 0.93761 0.31697
 H837 H 0.54486 0.86442 0.24948
 H838 H 0.58334 0.88713 0.18592
 H839 H 0.59572 0.91032 0.29531
 H840 H 0.57308 0.88647 0.27487
 C841 C 0.38851 0.25761 0.91658
 C842 C 0.39307 0.28280 0.92174
 C843 C 0.37818 0.29571 0.93801
 C844 C 0.35852 0.28396 0.94914
 C845 C 0.35351 0.25928 0.94326
 C846 C 0.36826 0.24625 0.92724
 C847 C 0.40567 0.24409 0.90026
 C848 C 0.40373 0.21859 0.89537
 C849 C 0.42084 0.20663 0.88097
 C850 C 0.44015 0.21977 0.87091
 C851 C 0.44197 0.24523 0.87513
 C852 C 0.42516 0.25737 0.88998
 C853 C 0.41259 0.29490 0.91083
 C854 C 0.42815 0.28251 0.89512
 H855 H 0.41597 0.31423 0.91459
 H856 H 0.44306 0.29268 0.88726
 H857 H 0.38208 0.31486 0.94218
 H858 H 0.33838 0.24976 0.95145
 H859 H 0.41927 0.18692 0.87800
 H860 H 0.45694 0.25541 0.86734
 H861 H 0.36354 0.22729 0.92363
 H862 H 0.38948 0.20742 0.90288
 C863 C 0.61123 0.74012 0.91801
 C864 C 0.63013 0.75291 0.92993
 C865 C 0.64546 0.74031 0.94596
 C866 C 0.64184 0.71518 0.95088
 C867 C 0.62314 0.70258 0.93901
 C868 C 0.60810 0.71478 0.92273
 C869 C 0.59478 0.75437 0.90165
 C870 C 0.57576 0.74325 0.88860
 C871 C 0.55998 0.75754 0.87485
 C872 C 0.56273 0.78320 0.87374
 C873 C 0.58218 0.79440 0.88573
 C874 C 0.59824 0.78019 0.89959
 C875 C 0.63318 0.77830 0.92635
 C876 C 0.61745 0.79169 0.91169
 H877 H 0.64765 0.78811 0.93545
 H878 H 0.62025 0.81140 0.90995
 H879 H 0.65974 0.75030 0.95520
 H880 H 0.61997 0.68317 0.94244
 H881 H 0.54519 0.74861 0.86542
 H882 H 0.58438 0.81426 0.88472
 H883 H 0.59389 0.70410 0.91443
 H884 H 0.57256 0.72364 0.88894
 C885 C 0.38855 0.73976 0.08207
 C886 C 0.36993 0.75227 0.06950
 C887 C 0.35464 0.73920 0.05368
 C888 C 0.35808 0.71385 0.04959
 C889 C 0.37636 0.70150 0.06229
 C890 C 0.39129 0.71417 0.07840
 C891 C 0.40517 0.75452 0.09794
 C892 C 0.42411 0.74375 0.11131
 C893 C 0.44008 0.75842 0.12453
 C894 C 0.43762 0.78414 0.12479
 C895 C 0.41827 0.79505 0.11244
 C896 C 0.40203 0.78045 0.09906
 C897 C 0.36719 0.77784 0.07218
 C898 C 0.38300 0.79165 0.08649
 H899 H 0.35293 0.78744 0.06261
 H900 H 0.38044 0.81145 0.08751
 H901 H 0.34071 0.74897 0.04379
 H902 H 0.37935 0.68193 0.05955
 H903 H 0.45478 0.74973 0.13426
 H904 H 0.41627 0.81496 0.11281
 H905 H 0.40519 0.70363 0.08731
 H906 H 0.42712 0.72410 0.11163
 C907 C 0.61279 0.25694 0.08227
 C908 C 0.63136 0.24425 0.06972
 C909 C 0.64701 0.25723 0.05427
 C910 C 0.64399 0.28266 0.05058
 C911 C 0.62578 0.29518 0.06329
 C912 C 0.61049 0.28260 0.07900
 C913 C 0.59578 0.24234 0.09773
 C914 C 0.57685 0.25331 0.11102
 C915 C 0.56058 0.23881 0.12394
 C916 C 0.56273 0.21308 0.12397
 C917 C 0.58201 0.20194 0.11164
 C918 C 0.59854 0.21636 0.09855
 C919 C 0.63367 0.21862 0.07206
 C920 C 0.61752 0.20496 0.08602
 H921 H 0.64789 0.20888 0.06250
 H922 H 0.61979 0.18511 0.08682
 H923 H 0.66092 0.24735 0.04438
 H924 H 0.62313 0.31482 0.06087
 H925 H 0.54594 0.24767 0.13367
 H926 H 0.58375 0.18200 0.11184
 H927 H 0.59669 0.29329 0.08794
 H928 H 0.57409 0.27299 0.11154
 C929 C 0.25411 0.08133 0.61520
 C930 C 0.27913 0.07865 0.61047
 C931 C 0.29335 0.06323 0.62500
 C932 C 0.28313 0.05049 0.64451
 C933 C 0.25860 0.05407 0.64990
 C934 C 0.24423 0.06926 0.63545
 C935 C 0.23923 0.09653 0.59814
 C936 C 0.21389 0.09880 0.60008
 C937 C 0.20074 0.11210 0.58294
 C938 C 0.21253 0.12360 0.56364
 C939 C 0.23776 0.12207 0.56188
 C940 C 0.25111 0.10834 0.57868
 C941 C 0.28979 0.09106 0.59105
 C942 C 0.27612 0.10579 0.57565
 H943 H 0.30900 0.08921 0.58759
 H944 H 0.28520 0.11485 0.56076
 H945 H 0.31239 0.06088 0.62088
 H946 H 0.25029 0.04456 0.66494
 H947 H 0.18124 0.11309 0.58450
 H948 H 0.24689 0.13104 0.54696
 H949 H 0.22542 0.07105 0.64030
 H950 H 0.20380 0.09003 0.61433
 C951 C 0.74438 0.08247 0.38440
 C952 C 0.72021 0.07677 0.39065
 C953 C 0.70675 0.06026 0.37646
 C954 C 0.71674 0.04943 0.35559
 C955 C 0.74028 0.05624 0.34870
 C956 C 0.75396 0.07241 0.36293
 C957 C 0.75870 0.09869 0.40116
 C958 C 0.78355 0.10358 0.39795
 C959 C 0.79634 0.11763 0.41489
 C960 C 0.78464 0.12737 0.43523
 C961 C 0.75979 0.12329 0.43820
 C962 C 0.74691 0.10866 0.42169
 C963 C 0.70961 0.08739 0.41116
 C964 C 0.72257 0.10326 0.42615
 H965 H 0.69099 0.08327 0.41577
 H966 H 0.71357 0.11088 0.44189
 H967 H 0.68844 0.05573 0.38190
 H968 H 0.74851 0.04856 0.33259
 H969 H 0.81557 0.12051 0.41239
 H970 H 0.75070 0.13085 0.45392
 H971 H 0.77202 0.07667 0.35689
 H972 H 0.79358 0.09619 0.38288
 C973 C 0.74610 0.91625 0.61467
 C974 C 0.72117 0.91968 0.60991
 C975 C 0.70743 0.93571 0.62436
 C976 C 0.71805 0.94846 0.64374
 C977 C 0.74248 0.94422 0.64912
 C978 C 0.75637 0.92835 0.63480
 C979 C 0.76048 0.90033 0.59770
 C980 C 0.78571 0.89702 0.59979
 C981 C 0.79842 0.88312 0.58270
 C982 C 0.78630 0.87206 0.56327
 C983 C 0.76116 0.87459 0.56139
 C984 C 0.74825 0.88885 0.57818
 C985 C 0.71014 0.90746 0.59051
 C986 C 0.72335 0.89223 0.57510
 H987 H 0.69100 0.90991 0.58702
 H988 H 0.71400 0.88340 0.56019
 H989 H 0.68848 0.93858 0.62020
 H990 H 0.75109 0.95374 0.66405
 H991 H 0.81786 0.88135 0.58436
 H992 H 0.75178 0.86596 0.54637
 H993 H 0.77514 0.92609 0.63961
 H994 H 0.79604 0.90541 0.61415
 C995 C 0.25582 0.91838 0.38733
 C996 C 0.28073 0.92188 0.39221
 C997 C 0.29453 0.93779 0.37778
 C998 C 0.28400 0.95024 0.35824
 C999 C 0.25959 0.94595 0.35278
 C1000 C 0.24564 0.93027 0.36712
 C1001 C 0.24139 0.90255 0.40421
 C1002 C 0.21615 0.89932 0.40205
 C1003 C 0.20338 0.88548 0.41903
 C1004 C 0.21543 0.87438 0.43841
 C1005 C 0.24058 0.87684 0.44036
 C1006 C 0.25355 0.89110 0.42370
 C1007 C 0.29169 0.90976 0.41164
 C1008 C 0.27843 0.89453 0.42692
 H1009 H 0.31081 0.91225 0.41522
 H1010 H 0.28772 0.88573 0.44183
 H1011 H 0.31347 0.94070 0.38197
 H1012 H 0.25105 0.95522 0.33773
 H1013 H 0.18393 0.88381 0.41734
 H1014 H 0.24991 0.86819 0.45534
 H1015 H 0.22691 0.92792 0.36220
 H1016 H 0.20587 0.90774 0.38774
 C1017 C 0.07717 0.38190 0.75277
 C1018 C 0.08193 0.37960 0.72774
 C1019 C 0.06666 0.36526 0.71308
 C1020 C 0.04730 0.35218 0.72316
 C1021 C 0.04366 0.35300 0.74819
 C1022 C 0.05828 0.36782 0.76286
 C1023 C 0.09244 0.39931 0.76735
 C1024 C 0.08688 0.40599 0.79136
 C1025 C 0.10092 0.42341 0.80369
 C1026 C 0.12119 0.43398 0.79263
 C1027 C 0.12709 0.42722 0.76891
 C1028 C 0.11250 0.41062 0.75598
 C1029 C 0.10186 0.39159 0.71753
 C1030 C 0.11718 0.40628 0.73148
 H1031 H 0.10577 0.38950 0.69845
 H1032 H 0.13242 0.41510 0.72274
 H1033 H 0.06983 0.36422 0.69377
 H1034 H 0.02888 0.34286 0.75632
 H1035 H 0.09577 0.42896 0.82177
 H1036 H 0.14243 0.43591 0.76017
 H1037 H 0.05450 0.36808 0.78197
 H1038 H 0.07129 0.39866 0.80059
 C1039 C 0.08651 0.61384 0.25879
 C1040 C 0.07261 0.63211 0.24690
 C1041 C 0.05666 0.64718 0.26018
 C1042 C 0.05381 0.64382 0.28514
 C1043 C 0.06800 0.62608 0.29689
 C1044 C 0.08421 0.61140 0.28400
 C1045 C 0.10216 0.59710 0.24386
 C1046 C 0.11640 0.57819 0.25400
 C1047 C 0.12909 0.56180 0.23925
 C1048 C 0.12803 0.56389 0.21409
 C1049 C 0.11494 0.58333 0.20375
 C1050 C 0.10196 0.59989 0.21844
 C1051 C 0.07406 0.63460 0.22177
 C1052 C 0.08830 0.61876 0.20784
 H1053 H 0.06353 0.64862 0.21264
 H1054 H 0.08832 0.62107 0.18841
 H1055 H 0.04566 0.66073 0.25090
 H1056 H 0.06628 0.62322 0.31616
 H1057 H 0.13935 0.54700 0.24746
 H1058 H 0.11424 0.58497 0.18425
 H1059 H 0.09427 0.59788 0.29410
 H1060 H 0.11768 0.57539 0.27321
 C1061 C 0.92270 0.39264 0.25762
 C1062 C 0.91446 0.36922 0.26531
 C1063 C 0.93014 0.35347 0.27807
 C1064 C 0.95335 0.36154 0.28453
 C1065 C 0.96099 0.38518 0.27797
 C1066 C 0.94600 0.40051 0.26448
 C1067 C 0.90589 0.40859 0.24340
 C1068 C 0.91353 0.43051 0.23221
 C1069 C 0.89709 0.44532 0.21995
 C1070 C 0.87254 0.43894 0.21880
 C1071 C 0.86483 0.41661 0.22904
 C1072 C 0.88151 0.40109 0.24078
 C1073 C 0.89045 0.36216 0.26097
 C1074 C 0.87414 0.37805 0.24958
 H1075 H 0.88397 0.34437 0.26710
 H1076 H 0.85558 0.37204 0.24727
 H1077 H 0.92404 0.33537 0.28374
 H1078 H 0.97879 0.39172 0.28312
 H1079 H 0.90349 0.46215 0.21158
 H1080 H 0.84595 0.41137 0.22779
 H1081 H 0.95278 0.41861 0.26009
 H1082 H 0.93216 0.43642 0.23249
 C1083 C 0.91834 0.61494 0.74531
 C1084 C 0.92251 0.60917 0.72071
 C1085 C 0.93865 0.62344 0.70705
 C1086 C 0.95056 0.64374 0.71741
 C1087 C 0.94556 0.65011 0.74146
 C1088 C 0.92972 0.63590 0.75528
 C1089 C 0.90233 0.59816 0.75971
 C1090 C 0.89866 0.60099 0.78478
 C1091 C 0.88481 0.58393 0.79762
 C1092 C 0.87410 0.56385 0.78578
 C1093 C 0.87687 0.56134 0.76073
 C1094 C 0.89124 0.57798 0.74774
 C1095 C 0.91076 0.58908 0.70992
 C1096 C 0.89525 0.57398 0.72308
 H1097 H 0.91374 0.58484 0.69101
 H1098 H 0.88675 0.55854 0.71394
 H1099 H 0.94209 0.61859 0.68836
 H1100 H 0.95440 0.66579 0.74984
 H1101 H 0.88290 0.58607 0.81698
 H1102 H 0.86853 0.54581 0.75156
 H1103 H 0.92681 0.64156 0.77374
 H1104 H 0.90683 0.61581 0.79493
 C1105 C 0.74493 0.61574 0.91918
 C1106 C 0.72104 0.60874 0.92521
 C1107 C 0.70741 0.62316 0.94126
 C1108 C 0.71686 0.64510 0.95112
 C1109 C 0.74001 0.65281 0.94383
 C1110 C 0.75393 0.63829 0.92822
 C1111 C 0.75957 0.59866 0.90361
 C1112 C 0.78438 0.60234 0.89888
 C1113 C 0.79751 0.58509 0.88540
 C1114 C 0.78617 0.56401 0.87604
 C1115 C 0.76138 0.56053 0.88005
 C1116 C 0.74821 0.57727 0.89422
 C1117 C 0.71088 0.58731 0.91530
 C1118 C 0.72404 0.57215 0.89978
 H1119 H 0.69245 0.58214 0.91963
 H1120 H 0.71537 0.55573 0.89264
 H1121 H 0.68935 0.61712 0.94611
 H1122 H 0.74779 0.66977 0.95075
 H1123 H 0.81669 0.58796 0.88262
 H1124 H 0.75258 0.54421 0.87283
 H1125 H 0.77168 0.64498 0.92354
 H1126 H 0.79412 0.61800 0.90600
 C1127 C 0.25448 0.38677 0.92365
 C1128 C 0.26728 0.39745 0.94314
 C1129 C 0.28237 0.38279 0.95749
 C1130 C 0.28276 0.35699 0.95469
 C1131 C 0.26810 0.34615 0.93681
 C1132 C 0.25469 0.36091 0.92097
 C1133 C 0.24040 0.40349 0.90742
 C1134 C 0.23212 0.39621 0.88444
 C1135 C 0.22003 0.41301 0.86954
 C1136 C 0.21475 0.43699 0.87773
 C1137 C 0.22250 0.44403 0.90092
 C1138 C 0.23659 0.42812 0.91499
 C1139 C 0.26402 0.42243 0.94887
 C1140 C 0.24806 0.43713 0.93577
 H1141 H 0.27330 0.43051 0.96422
 H1142 H 0.24557 0.45616 0.94132
 H1143 H 0.29262 0.39141 0.97195
 H1144 H 0.26767 0.32630 0.93447
 H1145 H 0.21485 0.40728 0.85151
 H1146 H 0.21865 0.46249 0.90749
 H1147 H 0.24407 0.35187 0.90715
 H1148 H 0.23577 0.37797 0.87739
 C1149 C 0.25555 0.61238 0.07736
 C1150 C 0.27949 0.60523 0.07158
 C1151 C 0.29344 0.61959 0.05575
 C1152 C 0.28425 0.64162 0.04596
 C1153 C 0.26092 0.64929 0.05284
 C1154 C 0.24674 0.63486 0.06817
 C1155 C 0.24069 0.59561 0.09297
 C1156 C 0.21591 0.59960 0.09764
 C1157 C 0.20262 0.58276 0.11136
 C1158 C 0.21374 0.56177 0.12104
 C1159 C 0.23852 0.55797 0.11702
 C1160 C 0.25186 0.57430 0.10262
 C1161 C 0.28939 0.58381 0.08163
 C1162 C 0.27601 0.56891 0.09715
 H1163 H 0.30783 0.57848 0.07747
 H1164 H 0.28453 0.55253 0.10445
 H1165 H 0.31156 0.61353 0.05114
 H1166 H 0.25327 0.66627 0.04594
 H1167 H 0.18346 0.58589 0.11409
 H1168 H 0.24718 0.54172 0.12448
 H1169 H 0.22894 0.64164 0.07259
 H1170 H 0.20630 0.61520 0.09033
 C1171 C 0.74655 0.38375 0.08129
 C1172 C 0.72111 0.38618 0.08079
 C1173 C 0.70742 0.37205 0.06451
 C1174 C 0.71848 0.35384 0.05009
 C1175 C 0.74346 0.34967 0.05270
 C1176 C 0.75742 0.36477 0.06771
 C1177 C 0.76074 0.40127 0.09664
 C1178 C 0.78587 0.40456 0.09399
 C1179 C 0.79811 0.42217 0.10783
 C1180 C 0.78582 0.43596 0.12543
 C1181 C 0.76082 0.43264 0.12831
 C1182 C 0.74807 0.41642 0.11319
 C1183 C 0.70954 0.40234 0.09686
 C1184 C 0.72273 0.41638 0.11344
 H1185 H 0.68999 0.40379 0.09697
 H1186 H 0.71296 0.42828 0.12582
 H1187 H 0.68801 0.37482 0.06355
 H1188 H 0.75252 0.33551 0.04223
 H1189 H 0.81723 0.42515 0.10474
 H1190 H 0.75115 0.44389 0.14135
 H1191 H 0.77663 0.36128 0.06866
 H1192 H 0.79607 0.39445 0.08060
 C1193 C 0.91839 0.73687 0.61072
 C1194 C 0.92834 0.74933 0.63090
 C1195 C 0.94428 0.73694 0.64652
 C1196 C 0.95155 0.71252 0.64167
 C1197 C 0.94179 0.70043 0.62137
 C1198 C 0.92537 0.71230 0.60626
 C1199 C 0.90184 0.75080 0.59423
 C1200 C 0.88979 0.73959 0.57464
 C1201 C 0.87595 0.75368 0.55878
 C1202 C 0.87390 0.77926 0.56193
 C1203 C 0.88470 0.79044 0.58210
 C1204 C 0.89840 0.77635 0.59840
 C1205 C 0.92309 0.77433 0.63482
 C1206 C 0.90882 0.78766 0.61867
 H1207 H 0.93075 0.78395 0.65021
 H1208 H 0.90591 0.80715 0.62210
 H1209 H 0.95179 0.74677 0.66188
 H1210 H 0.94690 0.68164 0.61697
 H1211 H 0.86724 0.74468 0.54360
 H1212 H 0.88280 0.81018 0.58478
 H1213 H 0.91888 0.70208 0.59083
 H1214 H 0.89088 0.72004 0.57115
 C1215 C 0.91545 0.26518 0.38883
 C1216 C 0.92535 0.25310 0.36842
 C1217 C 0.94162 0.26559 0.35328
 C1218 C 0.94932 0.28974 0.35882
 C1219 C 0.93954 0.30152 0.37926
 C1220 C 0.92275 0.28954 0.39392
 C1221 C 0.89867 0.25101 0.40488
 C1222 C 0.88673 0.26180 0.42476
 C1223 C 0.87287 0.24738 0.44032
 C1224 C 0.87070 0.22188 0.43658
 C1225 C 0.88126 0.21118 0.41606
 C1226 C 0.89499 0.22560 0.40007
 C1227 C 0.91978 0.22829 0.36381
 C1228 C 0.90530 0.21471 0.37954
 H1229 H 0.92740 0.21898 0.34822
 H1230 H 0.90219 0.19536 0.37562
 H1231 H 0.94910 0.25600 0.33777
 H1232 H 0.94498 0.32008 0.38415
 H1233 H 0.86436 0.25602 0.45580
 H1234 H 0.87930 0.19152 0.41293
 H1235 H 0.91627 0.29947 0.40953
 H1236 H 0.88801 0.28124 0.42874
 C1237 C 0.07876 0.25272 0.61614
 C1238 C 0.07428 0.27784 0.61088
 C1239 C 0.05898 0.29182 0.62577
 C1240 C 0.04808 0.28137 0.64631
 C1241 C 0.05371 0.25682 0.65224
 C1242 C 0.06874 0.24265 0.63734
 C1243 C 0.09375 0.23799 0.59868
 C1244 C 0.09753 0.21236 0.60099
 C1245 C 0.11076 0.19934 0.58363
 C1246 C 0.12072 0.21157 0.56372
 C1247 C 0.11749 0.23710 0.56147
 C1248 C 0.10379 0.25027 0.57848
 C1249 C 0.08485 0.28887 0.59063
 C1250 C 0.09954 0.27546 0.57496
 H1251 H 0.08163 0.30820 0.58677
 H1252 H 0.10721 0.28484 0.55949
 H1253 H 0.05534 0.31088 0.62105
 H1254 H 0.04594 0.24820 0.66806
 H1255 H 0.11302 0.17959 0.58556
 H1256 H 0.12522 0.24658 0.54608
 H1257 H 0.07211 0.22383 0.64265
 H1258 H 0.09002 0.20194 0.61576
 C1259 C 0.08076 0.74424 0.38763
 C1260 C 0.07533 0.71950 0.39363
 C1261 C 0.05943 0.70571 0.37920
 C1262 C 0.04910 0.71588 0.35825
 C1263 C 0.05555 0.74005 0.35167
 C1264 C 0.07104 0.75409 0.36619
 C1265 C 0.09651 0.75883 0.40451
 C1266 C 0.10107 0.78426 0.40158
 C1267 C 0.11490 0.79723 0.41851
 C1268 C 0.12474 0.78512 0.43856
 C1269 C 0.12086 0.75973 0.44131
 C1270 C 0.10644 0.74667 0.42483
 C1271 C 0.08574 0.70860 0.41403
 C1272 C 0.10126 0.72178 0.42909
 H1273 H 0.08182 0.68954 0.41846
 H1274 H 0.10881 0.71252 0.44468
 H1275 H 0.05516 0.68693 0.38440
 H1276 H 0.04821 0.74844 0.33552
 H1277 H 0.11759 0.81688 0.41622
 H1278 H 0.12848 0.75034 0.45682
 H1279 H 0.07513 0.77258 0.36033
 H1280 H 0.09363 0.79460 0.38672
 C1281 C 0.61529 0.91897 0.74453
 C1282 C 0.61049 0.92213 0.71962
 C1283 C 0.62491 0.93803 0.70575
 C1284 C 0.64438 0.95077 0.71623
 C1285 C 0.64969 0.94687 0.74069
 C1286 C 0.63536 0.93124 0.75470
 C1287 C 0.59850 0.90303 0.75900
 C1288 C 0.60062 0.90002 0.78422
 C1289 C 0.58369 0.88608 0.79701
 C1290 C 0.56441 0.87464 0.78500
 C1291 C 0.56254 0.87682 0.75986
 C1292 C 0.57913 0.89118 0.74687
 C1293 C 0.59117 0.90965 0.70870
 C1294 C 0.57596 0.89434 0.72199
 H1295 H 0.58763 0.91188 0.68958
 H1296 H 0.56115 0.88526 0.71272
 H1297 H 0.62081 0.94064 0.68678
 H1298 H 0.66468 0.95637 0.74921
 H1299 H 0.58534 0.88462 0.81645
 H1300 H 0.54764 0.86791 0.75055
 H1301 H 0.64021 0.92919 0.77344
 H1302 H 0.61485 0.90872 0.79448
 C1303 C 0.38830 0.91660 0.26040
 C1304 C 0.36981 0.92993 0.24847
 C1305 C 0.35459 0.94581 0.26166
 C1306 C 0.35799 0.94923 0.28657
 C1307 C 0.37614 0.93579 0.29834
 C1308 C 0.39100 0.91960 0.28554
 C1309 C 0.40487 0.90073 0.24557
 C1310 C 0.42367 0.88661 0.25578
 C1311 C 0.43966 0.87352 0.24110
 C1312 C 0.43736 0.87413 0.21594
 C1313 C 0.41811 0.88716 0.20555
 C1314 C 0.40186 0.90043 0.22016
 C1315 C 0.36715 0.92799 0.22337
 C1316 C 0.38295 0.91372 0.20951
 H1317 H 0.35299 0.93814 0.21422
 H1318 H 0.38048 0.91330 0.19010
 H1319 H 0.34075 0.95629 0.25234
 H1320 H 0.37909 0.93801 0.31756
 H1321 H 0.45427 0.86323 0.24937
 H1322 H 0.41624 0.88746 0.18606
 H1323 H 0.40481 0.91011 0.29563
 H1324 H 0.42656 0.88562 0.27500
 C1325 C 0.61491 0.07883 0.25387
 C1326 C 0.61005 0.07589 0.27880
 C1327 C 0.62472 0.06048 0.29293
 C1328 C 0.64450 0.04804 0.28271
 C1329 C 0.64992 0.05183 0.25826
 C1330 C 0.63534 0.06697 0.24399
 C1331 C 0.59782 0.09412 0.23910
 C1332 C 0.59991 0.09666 0.21383
 C1333 C 0.58282 0.11014 0.20078
 C1334 C 0.56340 0.12157 0.21257
 C1335 C 0.56147 0.11972 0.23773
 C1336 C 0.57822 0.10580 0.25099
 C1337 C 0.59044 0.08812 0.28946
 C1338 C 0.57502 0.10295 0.27590
 H1339 H 0.58686 0.08607 0.30859
 H1340 H 0.56001 0.11190 0.28498
 H1341 H 0.62054 0.05795 0.31189
 H1342 H 0.66515 0.04256 0.24993
 H1343 H 0.58451 0.11133 0.18133
 H1344 H 0.54645 0.12862 0.24687
 H1345 H 0.64028 0.06894 0.22526
 H1346 H 0.61427 0.08798 0.20374
 C1347 C 0.38745 0.08509 0.74220
 C1348 C 0.39168 0.08116 0.71727
 C1349 C 0.37712 0.06464 0.70418
 C1350 C 0.35810 0.05200 0.71546
 C1351 C 0.35329 0.05668 0.73991
 C1352 C 0.36775 0.07297 0.75315
 C1353 C 0.40446 0.10159 0.75586
 C1354 C 0.40296 0.10529 0.78104
 C1355 C 0.42013 0.11966 0.79311
 C1356 C 0.43904 0.13085 0.78038
 C1357 C 0.44027 0.12802 0.75525
 C1358 C 0.42343 0.11320 0.74299
 C1359 C 0.41059 0.09348 0.70558
 C1360 C 0.42599 0.10932 0.71812
 H1361 H 0.41367 0.09067 0.68644
 H1362 H 0.44049 0.11823 0.70829
 H1363 H 0.38081 0.06143 0.68520
 H1364 H 0.33863 0.04728 0.74903
 H1365 H 0.41899 0.12163 0.81254
 H1366 H 0.45489 0.13673 0.74540
 H1367 H 0.36332 0.07560 0.77194
 H1368 H 0.38906 0.09680 0.79185
 C1369 C 0.61234 0.74154 0.08239
 C1370 C 0.63057 0.75440 0.06961
 C1371 C 0.64617 0.74157 0.05392
 C1372 C 0.64346 0.71607 0.05026
 C1373 C 0.62564 0.70336 0.06325
 C1374 C 0.61038 0.71582 0.07917
 C1375 C 0.59531 0.75601 0.09803
 C1376 C 0.57658 0.74489 0.11142
 C1377 C 0.56026 0.75927 0.12450
 C1378 C 0.56218 0.78502 0.12462
 C1379 C 0.58125 0.79632 0.11220
 C1380 C 0.59780 0.78202 0.09891
 C1381 C 0.63262 0.78007 0.07197
 C1382 C 0.61651 0.79359 0.08619
 H1383 H 0.64659 0.78995 0.06226
 H1384 H 0.61856 0.81347 0.08702
 H1385 H 0.65979 0.75160 0.04385
 H1386 H 0.62325 0.68366 0.06087
 H1387 H 0.54576 0.75030 0.13429
 H1388 H 0.58280 0.81627 0.11245
 H1389 H 0.59688 0.70498 0.08833
 H1390 H 0.57398 0.72519 0.11185
 C1391 C 0.38873 0.25705 0.08165
 C1392 C 0.37053 0.24433 0.06859
 C1393 C 0.35519 0.25729 0.05280
 C1394 C 0.35812 0.28277 0.04932
 C1395 C 0.37594 0.29532 0.06255
 C1396 C 0.39095 0.28275 0.07856
 C1397 C 0.40545 0.24245 0.09745
 C1398 C 0.42411 0.25343 0.11113
 C1399 C 0.44020 0.23893 0.12429
 C1400 C 0.43812 0.21319 0.12422
 C1401 C 0.41906 0.20204 0.11156
 C1402 C 0.40274 0.21646 0.09817
 C1403 C 0.36825 0.21868 0.07082
 C1404 C 0.38409 0.20504 0.08517
 H1405 H 0.35431 0.20891 0.06089
 H1406 H 0.38186 0.18518 0.08586
 H1407 H 0.34158 0.24737 0.04255
 H1408 H 0.37852 0.31500 0.06033
 H1409 H 0.45469 0.24779 0.13425
 H1410 H 0.41738 0.18210 0.11165
 H1411 H 0.40445 0.29347 0.08791
 H1412 H 0.42684 0.27312 0.11171
 C1413 C 0.61628 0.25645 0.91749
 C1414 C 0.61180 0.28177 0.92209
 C1415 C 0.62609 0.29473 0.93880
 C1416 C 0.64507 0.28295 0.95101
 C1417 C 0.65005 0.25812 0.94579
 C1418 C 0.63587 0.24500 0.92930
 C1419 C 0.59965 0.24293 0.90062
 C1420 C 0.60150 0.21736 0.89606
 C1421 C 0.58465 0.20539 0.88133
 C1422 C 0.56573 0.21861 0.87065
 C1423 C 0.56418 0.24416 0.87435
 C1424 C 0.58069 0.25631 0.88949
 C1425 C 0.59294 0.29397 0.91020
 C1426 C 0.57784 0.28155 0.89411
 H1427 H 0.58966 0.31340 0.91354
 H1428 H 0.56334 0.29178 0.88555
 H1429 H 0.62226 0.31401 0.94245
 H1430 H 0.66469 0.24861 0.95485
 H1431 H 0.58602 0.18562 0.87869
 H1432 H 0.54953 0.25438 0.86603
 H1433 H 0.64045 0.22590 0.92623
 H1434 H 0.61543 0.20616 0.90411
 C1435 C 0.38731 0.74518 0.91888
 C1436 C 0.39223 0.71982 0.92257
 C1437 C 0.37787 0.70596 0.93843
 C1438 C 0.35833 0.71685 0.95062
 C1439 C 0.35292 0.74173 0.94626
 C1440 C 0.36720 0.75576 0.93066
 C1441 C 0.40400 0.75965 0.90291
 C1442 C 0.40174 0.78533 0.89934
 C1443 C 0.41859 0.79814 0.88535
 C1444 C 0.43791 0.78568 0.87444
 C1445 C 0.43989 0.76005 0.87718
 C1446 C 0.42340 0.74706 0.89159
 C1447 C 0.41158 0.70846 0.91061
 C1448 C 0.42670 0.72174 0.89529
 H1449 H 0.41521 0.68899 0.91325
 H1450 H 0.44154 0.71212 0.88661
 H1451 H 0.38204 0.68665 0.94140
 H1452 H 0.33787 0.75057 0.95534
 H1453 H 0.41685 0.81795 0.88344
 H1454 H 0.45483 0.75039 0.86868
 H1455 H 0.36228 0.77484 0.92823
 H1456 H 0.38748 0.79596 0.90761
 C1457 C 0.74571 0.91753 0.38728
 C1458 C 0.72098 0.92180 0.39247
 C1459 C 0.70734 0.93776 0.37790
 C1460 C 0.71783 0.94944 0.35790
 C1461 C 0.74207 0.94441 0.35222
 C1462 C 0.75586 0.92873 0.36670
 C1463 C 0.76001 0.90155 0.40416
 C1464 C 0.78512 0.89763 0.40169
 C1465 C 0.79778 0.88353 0.41857
 C1466 C 0.78573 0.87281 0.43814
 C1467 C 0.76068 0.87604 0.44046
 C1468 C 0.74785 0.89060 0.42392
 C1469 C 0.71004 0.91027 0.41225
 C1470 C 0.72312 0.89482 0.42749
 H1471 H 0.69105 0.91334 0.41609
 H1472 H 0.71383 0.88645 0.44263
 H1473 H 0.68853 0.94124 0.38229
 H1474 H 0.75059 0.95307 0.33682
 H1475 H 0.81715 0.88130 0.41659
 H1476 H 0.75134 0.86772 0.45560
 H1477 H 0.77444 0.92577 0.36153
 H1478 H 0.79542 0.90571 0.38720
 C1479 C 0.25660 0.91816 0.61488
 C1480 C 0.28138 0.92206 0.60973
 C1481 C 0.29515 0.93808 0.62419
 C1482 C 0.28471 0.95021 0.64403
 C1483 C 0.26045 0.94545 0.64978
 C1484 C 0.24654 0.92967 0.63542
 C1485 C 0.24213 0.90231 0.59795
 C1486 C 0.21695 0.89886 0.60030
 C1487 C 0.20411 0.88504 0.58326
 C1488 C 0.21605 0.87416 0.56364
 C1489 C 0.24116 0.87684 0.56148
 C1490 C 0.25418 0.89112 0.57818
 C1491 C 0.29224 0.91022 0.59001
 C1492 C 0.27899 0.89488 0.57472
 H1493 H 0.31128 0.91299 0.58623
 H1494 H 0.28819 0.88630 0.55960
 H1495 H 0.31398 0.94134 0.61978
 H1496 H 0.25199 0.95446 0.66509
 H1497 H 0.18469 0.88322 0.58511
 H1498 H 0.25041 0.86837 0.54630
 H1499 H 0.22793 0.92697 0.64058
 H1500 H 0.20673 0.90712 0.61480
 C1501 C 0.25954 0.08343 0.38963
 C1502 C 0.24771 0.07055 0.37073
 C1503 C 0.26094 0.05480 0.35541
 C1504 C 0.28579 0.05107 0.35912
 C1505 C 0.29748 0.06408 0.37767
 C1506 C 0.28464 0.08014 0.39263
 C1507 C 0.24463 0.09913 0.40629
 C1508 C 0.25475 0.11282 0.42548
 C1509 C 0.23997 0.12575 0.44152
 C1510 C 0.21479 0.12539 0.43886
 C1511 C 0.20452 0.11279 0.41924
 C1512 C 0.21924 0.09970 0.40294
 C1513 C 0.22263 0.07277 0.36777
 C1514 C 0.20869 0.08686 0.38364
 H1515 H 0.21355 0.06296 0.35329
 H1516 H 0.18928 0.08749 0.38091
 H1517 H 0.25169 0.04465 0.34126
 H1518 H 0.31666 0.06160 0.38086
 H1519 H 0.24817 0.13570 0.45642
 H1520 H 0.18502 0.11267 0.41710
 H1521 H 0.29466 0.08929 0.40675
 H1522 H 0.27397 0.11360 0.42865
 C1523 C 0.74589 0.08061 0.61114
 C1524 C 0.72116 0.07630 0.60598
 C1525 C 0.70752 0.06045 0.62065
 C1526 C 0.71802 0.04894 0.64076
 C1527 C 0.74225 0.05399 0.64639
 C1528 C 0.75605 0.06956 0.63180
 C1529 C 0.76015 0.09653 0.59418
 C1530 C 0.78525 0.10056 0.59665
 C1531 C 0.79785 0.11471 0.57976
 C1532 C 0.78575 0.12534 0.56016
 C1533 C 0.76073 0.12192 0.55780
 C1534 C 0.74796 0.10735 0.57436
 C1535 C 0.71019 0.08767 0.58611
 C1536 C 0.72325 0.10305 0.57079
 H1537 H 0.69121 0.08455 0.58229
 H1538 H 0.71394 0.11131 0.55560
 H1539 H 0.68871 0.05696 0.61629
 H1540 H 0.75078 0.04545 0.66187
 H1541 H 0.81720 0.11707 0.58177
 H1542 H 0.75135 0.13017 0.54263
 H1543 H 0.77464 0.07255 0.63694
 H1544 H 0.79557 0.09259 0.61118
 C1545 C 0.92551 0.60807 0.25580
 C1546 C 0.91784 0.63199 0.26274
 C1547 C 0.93358 0.64750 0.27577
 C1548 C 0.95622 0.63875 0.28329
 C1549 C 0.96325 0.61467 0.27745
 C1550 C 0.94824 0.59955 0.26367
 C1551 C 0.90862 0.59233 0.24136
 C1552 C 0.91583 0.56979 0.23095
 C1553 C 0.89921 0.55513 0.21866
 C1554 C 0.87493 0.56230 0.21672
 C1555 C 0.86775 0.58529 0.22602
 C1556 C 0.88461 0.60062 0.23781
 C1557 C 0.89427 0.63981 0.25740
 C1558 C 0.87779 0.62418 0.24582
 H1559 H 0.88822 0.65799 0.26293
 H1560 H 0.85954 0.63078 0.24277
 H1561 H 0.92793 0.66595 0.28088
 H1562 H 0.98060 0.60763 0.28340
 H1563 H 0.90523 0.53776 0.21099
 H1564 H 0.84909 0.59113 0.22412
 H1565 H 0.95452 0.58110 0.25988
 H1566 H 0.93422 0.56325 0.23192
 C1567 C 0.91606 0.38675 0.74119
 C1568 C 0.92815 0.36738 0.75334
 C1569 C 0.94419 0.35193 0.74066
 C1570 C 0.94904 0.35605 0.71613
 C1571 C 0.93695 0.37516 0.70414
 C1572 C 0.92058 0.39022 0.71639
 C1573 C 0.89990 0.40348 0.75552
 C1574 C 0.88671 0.42293 0.74498
 C1575 C 0.87340 0.43917 0.75931
 C1576 C 0.87287 0.43645 0.78443
 C1577 C 0.88486 0.41646 0.79506
 C1578 C 0.89830 0.39992 0.78079
 C1579 C 0.92486 0.36412 0.77821
 C1580 C 0.91047 0.38021 0.79169
 H1581 H 0.93409 0.34930 0.78753
 H1582 H 0.90903 0.37730 0.81098
 H1583 H 0.95367 0.33736 0.75013
 H1584 H 0.94033 0.37867 0.68520
 H1585 H 0.86389 0.45433 0.75083
 H1586 H 0.88426 0.41424 0.81451
 H1587 H 0.91216 0.40480 0.70621
 H1588 H 0.88662 0.42616 0.72579
 C1589 C 0.07959 0.61504 0.74807
 C1590 C 0.08222 0.61566 0.72266
 C1591 C 0.06671 0.63033 0.70868
 C1592 C 0.04912 0.64521 0.71971
 C1593 C 0.04766 0.64593 0.74496
 C1594 C 0.06259 0.63093 0.75902
 C1595 C 0.09496 0.59738 0.76212
 C1596 C 0.09136 0.59271 0.78689
 C1597 C 0.10549 0.57527 0.79892
 C1598 C 0.12383 0.56253 0.78670
 C1599 C 0.12774 0.56714 0.76215
 C1600 C 0.11304 0.58391 0.74964
 C1601 C 0.10025 0.60162 0.71136
 C1602 C 0.11570 0.58652 0.72464
 H1603 H 0.10253 0.60240 0.69194
 H1604 H 0.12942 0.57609 0.71506
 H1605 H 0.06826 0.63013 0.68916
 H1606 H 0.03430 0.65745 0.75381
 H1607 H 0.10207 0.57159 0.81783
 H1608 H 0.14168 0.55691 0.75264
 H1609 H 0.06049 0.63195 0.77836
 H1610 H 0.07733 0.60180 0.79711
 C1611 C 0.08074 0.38456 0.25385
 C1612 C 0.07873 0.38922 0.27894
 C1613 C 0.06339 0.37470 0.29323
 C1614 C 0.04995 0.35534 0.28301
 C1615 C 0.05281 0.34999 0.25838
 C1616 C 0.06798 0.36438 0.24395
 C1617 C 0.09596 0.40169 0.23895
 C1618 C 0.09785 0.39979 0.21361
 C1619 C 0.11126 0.41700 0.20048
 C1620 C 0.12323 0.43637 0.21227
 C1621 C 0.12204 0.43809 0.23749
 C1622 C 0.10828 0.42118 0.25084
 C1623 C 0.09168 0.40862 0.28959
 C1624 C 0.10629 0.42412 0.27587
 H1625 H 0.09031 0.41203 0.30884
 H1626 H 0.11575 0.43901 0.28496
 H1627 H 0.06157 0.37883 0.31231
 H1628 H 0.04272 0.33509 0.25005
 H1629 H 0.11201 0.41545 0.18099
 H1630 H 0.13139 0.45304 0.24662
 H1631 H 0.06917 0.35961 0.22507
 H1632 H 0.08874 0.38549 0.20353
   
