data_POSCAR
  _audit_creation_date              2014-09-24
  _audit_creation_method            'ToBaCCo'
  _symmetry_space_group_name_H-M    'P1'
  _symmetry_Int_Tables_number       1
  _symmetry_cell_setting            triclinic
  loop_
  _symmetry_equiv_pos_as_xyz
 x,y,z
_cell_length_a 51.2656
_cell_length_b 50.7115
_cell_length_c 42.5347
_cell_angle_alpha 90.011000
_cell_angle_beta 89.700200
_cell_angle_gamma 89.140800
loop_
  _atom_site_label
  _atom_site_type_symbol
  _atom_site_fract_x
  _atom_site_fract_y
  _atom_site_fract_z
C1 C 0.32325 -0.03567 0.25272
 C2 C 0.33837 -0.01436 0.24255
 C3 C 0.35841 -0.01847 0.22060
 C4 C 0.36374 -0.04369 0.20895
 C5 C 0.34849 -0.06478 0.21864
 C6 C 0.32809 -0.06147 0.24093
 C7 C 0.33563 0.01191 0.25704
 C8 C 0.35212 0.01843 0.28191
 C9 C 0.35385 0.04463 0.29286
 C10 C 0.33797 0.06402 0.27837
 C11 C 0.32108 0.05763 0.25368
 C12 C 0.31994 0.03144 0.24316
 H13 H 0.30880 -0.03202 0.27087
 H14 H 0.37047 -0.00211 0.21343
 H15 H 0.36508 0.00314 0.29077
 H16 H 0.30764 0.02645 0.22346
 H17 H 0.35229 -0.08352 0.20728
 H18 H 0.33777 0.08410 0.28699
 C19 C 0.17375 -0.03065 0.76053
 C20 C 0.15815 -0.00919 0.77076
 C21 C 0.14109 -0.01227 0.79621
 C22 C 0.13947 -0.03651 0.81151
 C23 C 0.15567 -0.05746 0.80223
 C24 C 0.17257 -0.05518 0.77620
 C25 C 0.15718 0.01587 0.75331
 C26 C 0.13825 0.01959 0.73004
 C27 C 0.13391 0.04454 0.71604
 C28 C 0.14962 0.06563 0.72605
 C29 C 0.16869 0.06210 0.74944
 C30 C 0.17225 0.03708 0.76300
 H31 H 0.18593 -0.02837 0.73988
 H32 H 0.12802 0.00379 0.80298
 H33 H 0.12582 0.00313 0.72476
 H34 H 0.18617 0.03421 0.78182
 H35 H 0.15442 -0.07574 0.81523
 H36 H 0.14805 0.08469 0.71476
 C37 C 0.68131 0.46369 0.25397
 C38 C 0.66545 0.48521 0.26286
 C39 C 0.64864 0.48322 0.28872
 C40 C 0.64743 0.45974 0.30589
 C41 C 0.66368 0.43850 0.29737
 C42 C 0.68034 0.44004 0.27106
 C43 C 0.66518 0.50959 0.24445
 C44 C 0.64694 0.51305 0.22039
 C45 C 0.64450 0.53732 0.20455
 C46 C 0.66080 0.55808 0.21366
 C47 C 0.67856 0.55497 0.23864
 C48 C 0.68086 0.53047 0.25358
 H49 H 0.69366 0.46517 0.23332
 H50 H 0.63582 0.49968 0.29469
 H51 H 0.63397 0.49701 0.21507
 H52 H 0.69388 0.52793 0.27338
 H53 H 0.66305 0.42057 0.31117
 H54 H 0.65968 0.57679 0.20146
 C55 C 0.82046 0.46782 0.75894
 C56 C 0.83547 0.48879 0.74769
 C57 C 0.85521 0.48399 0.72541
 C58 C 0.86023 0.45837 0.71451
 C59 C 0.84485 0.43770 0.72517
 C60 C 0.82500 0.44203 0.74766
 C61 C 0.83374 0.51498 0.76246
 C62 C 0.84974 0.52007 0.78816
 C63 C 0.85265 0.54586 0.79996
 C64 C 0.83771 0.56635 0.78603
 C65 C 0.82113 0.56129 0.76048
 C66 C 0.81954 0.53557 0.74852
 H67 H 0.80598 0.47150 0.77711
 H68 H 0.86753 0.49999 0.71780
 H69 H 0.86180 0.50392 0.79670
 H70 H 0.80763 0.53166 0.72813
 H71 H 0.84840 0.41820 0.71553
 H72 H 0.83891 0.58634 0.79477
 C73 C 0.24618 0.40420 1.03236
 C74 C 0.26139 0.41649 1.00940
 C75 C 0.28604 0.42568 1.01714
 C76 C 0.29537 0.42314 1.04788
 C77 C 0.28032 0.41007 1.07066
 C78 C 0.25574 0.39934 1.06293
 C79 C 0.25202 0.41729 0.97668
 C80 C 0.22705 0.42720 0.97009
 C81 C 0.21630 0.42433 0.94012
 C82 C 0.23062 0.41064 0.91686
 C83 C 0.25595 0.40047 0.92299
 C84 C 0.26673 0.40497 0.95287
 H85 H 0.22687 0.39816 1.02566
 H86 H 0.29780 0.43519 0.99932
 H87 H 0.21597 0.43711 0.98851
 H88 H 0.28615 0.39785 0.95842
 H89 H 0.28898 0.40698 1.09349
 H90 H 0.22125 0.40703 0.89461
 C91 C 0.75723 0.09508 1.04282
 C92 C 0.74334 0.08160 1.01980
 C93 C 0.72153 0.06724 1.02816
 C94 C 0.71351 0.06605 1.05954
 C95 C 0.72679 0.08028 1.08259
 C96 C 0.74859 0.09591 1.07447
 C97 C 0.75242 0.08161 0.98704
 C98 C 0.77662 0.07015 0.97994
 C99 C 0.78640 0.07057 0.94921
 C100 C 0.77165 0.08236 0.92530
 C101 C 0.74747 0.09435 0.93234
 C102 C 0.73773 0.09377 0.96321
 H103 H 0.77491 0.10471 1.03546
 H104 H 0.71095 0.05664 1.01025
 H105 H 0.78794 0.06090 0.99851
 H106 H 0.71938 0.10361 0.96889
 H107 H 0.71860 0.08035 1.10603
 H108 H 0.77954 0.08344 0.90164
 C109 C 0.25962 0.59643 0.54544
 C110 C 0.24649 0.58162 0.52287
 C111 C 0.22467 0.56721 0.53157
 C112 C 0.21583 0.56765 0.56272
 C113 C 0.22791 0.58385 0.58484
 C114 C 0.24987 0.59885 0.57638
 C115 C 0.25538 0.58194 0.48996
 C116 C 0.28047 0.57264 0.48253
 C117 C 0.29009 0.57453 0.45177
 C118 C 0.27451 0.58597 0.42840
 C119 C 0.24958 0.59594 0.43578
 C120 C 0.23982 0.59355 0.46649
 H121 H 0.27703 0.60663 0.53822
 H122 H 0.21457 0.55561 0.51414
 H123 H 0.29254 0.56400 0.50081
 H124 H 0.22086 0.60193 0.47245
 H125 H 0.21925 0.58542 0.60800
 H126 H 0.28227 0.58839 0.40483
 C127 C 0.74264 0.90232 0.50950
 C128 C 0.75354 0.92181 0.49031
 C129 C 0.77457 0.93637 0.50105
 C130 C 0.78662 0.93002 0.52958
 C131 C 0.77698 0.90903 0.54767
 C132 C 0.75391 0.89593 0.53878
 C133 C 0.74473 0.92556 0.45778
 C134 C 0.72210 0.94022 0.45110
 C135 C 0.71405 0.94366 0.41981
 C136 C 0.72879 0.93232 0.39531
 C137 C 0.75100 0.91694 0.40205
 C138 C 0.75908 0.91388 0.43323
 H139 H 0.72545 0.89230 0.50137
 H140 H 0.78253 0.95172 0.48621
 H141 H 0.71067 0.94872 0.47018
 H142 H 0.77586 0.90141 0.43852
 H143 H 0.78686 0.90383 0.56929
 H144 H 0.72184 0.93368 0.37132
 C145 C -0.03240 0.23598 0.36007
 C146 C -0.01203 0.24106 0.38065
 C147 C -0.00792 0.22478 0.40670
 C148 C -0.02364 0.20269 0.41254
 C149 C -0.04583 0.19948 0.39309
 C150 C -0.05018 0.21580 0.36664
 C151 C 0.00418 0.26452 0.37655
 C152 C 0.00248 0.28467 0.39885
 C153 C 0.01948 0.30604 0.39778
 C154 C 0.03844 0.30709 0.37380
 C155 C 0.04037 0.28681 0.35116
 C156 C 0.02281 0.26577 0.35247
 H157 H -0.03553 0.24921 0.34039
 H158 H 0.00752 0.23011 0.42259
 H159 H -0.01204 0.28348 0.41740
 H160 H 0.02460 0.24958 0.33592
 H161 H -0.05866 0.18300 0.39632
 H162 H 0.05207 0.32320 0.37324
 C163 C -0.03097 0.75159 0.14128
 C164 C -0.01023 0.75095 0.11983
 C165 C -0.00830 0.77046 0.09671
 C166 C -0.02730 0.79046 0.09441
 C167 C -0.04920 0.78982 0.11434
 C168 C -0.05112 0.77057 0.13813
 C169 C 0.00936 0.72960 0.12041
 C170 C 0.00865 0.70991 0.09742
 C171 C 0.03025 0.69305 0.09251
 C172 C 0.05229 0.69560 0.11188
 C173 C 0.05195 0.71360 0.13712
 C174 C 0.03051 0.73084 0.14091
 H175 H -0.03224 0.73626 0.15896
 H176 H 0.00848 0.77039 0.08108
 H177 H -0.00792 0.70915 0.08170
 H178 H 0.03078 0.74598 0.15889
 H179 H -0.06416 0.80505 0.11223
 H180 H 0.06900 0.68254 0.10855
 C181 C 0.47955 0.26679 0.63955
 C182 C 0.49945 0.27140 0.61781
 C183 C 0.49831 0.29377 0.59879
 C184 C 0.47689 0.31114 0.60072
 C185 C 0.45593 0.30549 0.62103
 C186 C 0.45694 0.28296 0.64047
 C187 C 0.51966 0.25102 0.61249
 C188 C 0.51757 0.23387 0.58679
 C189 C 0.53562 0.21316 0.58263
 C190 C 0.55627 0.21001 0.60394
 C191 C 0.55841 0.22709 0.62984
 C192 C 0.53984 0.24741 0.63412
 H193 H 0.48123 0.24960 0.65456
 H194 H 0.51370 0.29723 0.58176
 H195 H 0.50140 0.23615 0.57062
 H196 H 0.54121 0.26060 0.65410
 H197 H 0.43866 0.31805 0.62071
 H198 H 0.57020 0.19391 0.60085
 C199 C 0.47633 0.73068 0.84676
 C200 C 0.49805 0.73351 0.86586
 C201 C 0.50515 0.71340 0.88678
 C202 C 0.49064 0.68990 0.88908
 C203 C 0.46829 0.68774 0.86961
 C204 C 0.46127 0.70796 0.84846
 C205 C 0.51150 0.75890 0.86659
 C206 C 0.50092 0.77942 0.88490
 C207 C 0.51386 0.80346 0.88754
 C208 C 0.53716 0.80695 0.87070
 C209 C 0.54855 0.78621 0.85306
 C210 C 0.53533 0.76221 0.85079
 H211 H 0.47059 0.74672 0.83129
 H212 H 0.52114 0.71727 0.90251
 H213 H 0.48290 0.77636 0.89774
 H214 H 0.54397 0.74580 0.83794
 H215 H 0.45668 0.67013 0.86957
 H216 H 0.54733 0.82541 0.87293
 C217 C -0.28444 0.59088 0.97200
 C218 C -0.26169 0.60314 0.98289
 C219 C -0.26188 0.61538 1.01246
 C220 C -0.28428 0.61501 1.03136
 C221 C -0.30612 0.60116 1.02145
 C222 C -0.30664 0.58886 0.99171
 C223 C -0.23717 0.60203 0.96431
 C224 C -0.23535 0.61555 0.93567
 C225 C -0.21192 0.61523 0.91799
 C226 C -0.19072 0.59998 0.92930
 C227 C -0.19181 0.58708 0.95858
 C228 C -0.21525 0.58831 0.97595
 H229 H -0.28397 0.58119 0.94930
 H230 H -0.24447 0.62490 1.02093
 H231 H -0.25248 0.62605 0.92723
 H232 H -0.21650 0.57885 0.99873
 H233 H -0.32302 0.60068 1.03686
 H234 H -0.17264 0.59921 0.91616
 C235 C -0.27971 0.42396 0.50568
 C236 C -0.25819 0.40811 0.49683
 C237 C -0.26102 0.38867 0.47383
 C238 C -0.28521 0.38467 0.45985
 C239 C -0.30651 0.40080 0.46825
 C240 C -0.30448 0.42059 0.49161
 C241 C -0.23393 0.40830 0.51522
 C242 C -0.23071 0.38936 0.53890
 C243 C -0.20676 0.38628 0.55406
 C244 C -0.18606 0.40262 0.54600
 C245 C -0.18887 0.42194 0.52241
 C246 C -0.21310 0.42474 0.50710
 H247 H -0.27715 0.43746 0.52505
 H248 H -0.24471 0.37562 0.46815
 H249 H -0.24652 0.37616 0.54446
 H250 H -0.21546 0.43883 0.48815
 H251 H -0.32441 0.39782 0.45556
 H252 H -0.16772 0.40014 0.55827
 C253 C 0.21674 -0.07529 0.01375
 C254 C 0.23886 -0.08857 0.00207
 C255 C 0.23695 -0.10490 -0.02437
 C256 C 0.21271 -0.10885 -0.03894
 C257 C 0.19091 -0.09448 -0.02760
 C258 C 0.19257 -0.07794 -0.00117
 C259 C 0.26330 -0.08859 0.01990
 C260 C 0.26643 -0.10651 0.04467
 C261 C 0.29079 -0.11008 0.05943
 C262 C 0.31157 -0.09416 0.04945
 C263 C 0.30848 -0.07573 0.02494
 C264 C 0.28421 -0.07316 0.01012
 H265 H 0.21832 -0.06357 0.03492
 H266 H 0.25405 -0.11621 -0.03154
 H267 H 0.25020 -0.11908 0.05046
 H268 H 0.28177 -0.05981 -0.00957
 H269 H 0.17258 -0.09561 -0.03998
 H270 H 0.33011 -0.09535 0.06146
 C271 C 0.21479 1.07922 0.49316
 C272 C 0.23781 1.09014 0.50496
 C273 C 0.23753 1.10206 0.53478
 C274 C 0.21423 1.10453 0.55230
 C275 C 0.19159 1.09303 0.54027
 C276 C 0.19181 1.07999 0.51120
 C277 C 0.26183 1.09090 0.48547
 C278 C 0.26105 1.10265 0.45561
 C279 C 0.28394 1.10565 0.43739
 C280 C 0.30752 1.09520 0.44966
 C281 C 0.30876 1.08353 0.47967
 C282 C 0.28571 1.08170 0.49750
 H283 H 0.21486 1.06992 0.47022
 H284 H 0.25545 1.11019 0.54363
 H285 H 0.24231 1.10935 0.44689
 H286 H 0.28627 1.07338 0.52094
 H287 H 0.17319 1.09515 0.55265
 H288 H 0.32546 1.09700 0.43656
 C289 C 0.13325 0.49379 0.21705
 C290 C 0.14683 0.50308 0.24326
 C291 C 0.16460 0.52344 0.23968
 C292 C 0.16904 0.53464 0.21011
 C293 C 0.15528 0.52555 0.18395
 C294 C 0.13721 0.50498 0.18710
 C295 C 0.14368 0.49064 0.27426
 C296 C 0.15318 0.46504 0.27890
 C297 C 0.15240 0.45344 0.30875
 C298 C 0.14074 0.46735 0.33386
 C299 C 0.13052 0.49318 0.32954
 C300 C 0.13293 0.50484 0.29958
 H301 H 0.11929 0.47821 0.22033
 H302 H 0.17524 0.53039 0.25995
 H303 H 0.16239 0.45462 0.25943
 H304 H 0.12657 0.52501 0.29565
 H305 H 0.15926 0.53409 0.16113
 H306 H 0.13922 0.45759 0.35638
 C307 C -0.14918 0.98748 0.22478
 C308 C -0.16931 0.97848 0.24412
 C309 C -0.18729 0.96074 0.23250
 C310 C -0.18385 0.94961 0.20253
 C311 C -0.16264 0.95761 0.18379
 C312 C -0.14583 0.97793 0.19375
 C313 C -0.17229 0.98912 0.27606
 C314 C -0.19129 1.00853 0.28194
 C315 C -0.19094 1.02316 0.31000
 C316 C -0.17215 1.01680 0.33291
 C317 C -0.15469 0.99549 0.32837
 C318 C -0.15449 0.98206 0.29956
 H319 H -0.13742 1.00316 0.23400
 H320 H -0.20301 0.95439 0.24776
 H321 H -0.20460 1.01398 0.26322
 H322 H -0.14003 0.96668 0.29508
 H323 H -0.15988 0.94818 0.16120
 H324 H -0.17181 1.02770 0.35483
 C325 C 0.35530 0.50491 -0.28801
 C326 C 0.34291 0.48931 -0.26543
 C327 C 0.33304 0.46480 -0.27398
 C328 C 0.33525 0.45582 -0.30512
 C329 C 0.34831 0.47144 -0.32742
 C330 C 0.35926 0.49598 -0.31911
 C331 C 0.34194 0.49840 -0.23245
 C332 C 0.33225 0.52366 -0.22550
 C333 C 0.33309 0.53367 -0.19474
 C334 C 0.34523 0.51836 -0.17122
 C335 C 0.35659 0.49345 -0.17816
 C336 C 0.35332 0.48310 -0.20862
 H337 H 0.36196 0.52407 -0.28070
 H338 H 0.32403 0.45259 -0.25619
 H339 H 0.32320 0.53507 -0.24414
 H340 H 0.36092 0.46371 -0.21459
 H341 H 0.35084 0.46349 -0.35078
 H342 H 0.34785 0.52716 -0.14833
 C343 C 0.63529 -0.00034 -0.30324
 C344 C 0.64527 0.00795 -0.27413
 C345 C 0.66361 0.02797 -0.27313
 C346 C 0.67238 0.03974 -0.30072
 C347 C 0.66256 0.03159 -0.32960
 C348 C 0.64413 0.01119 -0.33156
 C349 C 0.64035 -0.00656 -0.24481
 C350 C 0.65339 -0.03055 -0.24037
 C351 C 0.65456 -0.04211 -0.21061
 C352 C 0.64103 -0.03040 -0.18534
 C353 C 0.62720 -0.00621 -0.18924
 C354 C 0.62781 0.00581 -0.21924
 H355 H 0.62193 -0.01665 -0.30373
 H356 H 0.67165 0.03390 -0.25074
 H357 H 0.66433 -0.03933 -0.25971
 H358 H 0.61948 0.02527 -0.22287
 H359 H 0.66920 0.04172 -0.35047
 H360 H 0.64135 -0.04055 -0.16303
 C361 C -0.00644 0.21648 0.89573
 C362 C -0.00550 0.23725 0.87406
 C363 C -0.02554 0.24057 0.85223
 C364 C -0.04670 0.22335 0.85176
 C365 C -0.04734 0.20227 0.87330
 C366 C -0.02724 0.19867 0.89541
 C367 C 0.01619 0.25593 0.87425
 C368 C 0.03621 0.25359 0.85192
 C369 C 0.05643 0.27189 0.85112
 C370 C 0.05629 0.29287 0.87279
 C371 C 0.03571 0.29609 0.89467
 C372 C 0.01584 0.27718 0.89527
 H373 H 0.00929 0.21396 0.91243
 H374 H -0.02488 0.25709 0.83608
 H375 H 0.03612 0.23740 0.83528
 H376 H -0.00062 0.27942 0.91114
 H377 H -0.06352 0.18879 0.87301
 H378 H 0.07198 0.30692 0.87207
 C379 C 0.51199 0.21339 0.12093
 C380 C 0.51014 0.23884 0.13396
 C381 C 0.53071 0.24864 0.15197
 C382 C 0.55352 0.23356 0.15628
 C383 C 0.55564 0.20867 0.14207
 C384 C 0.53466 0.19788 0.12536
 C385 C 0.48642 0.25518 0.12992
 C386 C 0.46476 0.25164 0.14957
 C387 C 0.44300 0.26874 0.14766
 C388 C 0.44317 0.28958 0.12575
 C389 C 0.46493 0.29328 0.10597
 C390 C 0.48640 0.27588 0.10821
 H391 H 0.49552 0.20546 0.10839
 H392 H 0.52880 0.26790 0.16291
 H393 H 0.46502 0.23579 0.16667
 H394 H 0.50357 0.27895 0.09374
 H395 H 0.57330 0.19705 0.14560
 H396 H 0.42665 0.30311 0.12447
 C397 C 0.01577 0.71713 0.63435
 C398 C 0.01566 0.74314 0.64597
 C399 C 0.03610 0.75166 0.66516
 C400 C 0.05657 0.73429 0.67268
 C401 C 0.05701 0.70880 0.66009
 C402 C 0.03638 0.69966 0.64154
 C403 C -0.00625 0.76114 0.63859
 C404 C -0.03175 0.75497 0.64811
 C405 C -0.05306 0.77004 0.63718
 C406 C -0.04840 0.79214 0.61812
 C407 C -0.02295 0.79934 0.61026
 C408 C -0.00189 0.78358 0.62015
 H409 H -0.00050 0.71042 0.62046
 H410 H 0.03548 0.77130 0.67521
 H411 H -0.03504 0.73746 0.66213
 H412 H 0.01780 0.78853 0.61313
 H413 H 0.07311 0.69568 0.66607
 H414 H -0.06465 0.80409 0.60969
 C415 C 0.48883 0.73308 0.39675
 C416 C 0.48797 0.75277 0.37363
 C417 C 0.46680 0.75436 0.35308
 C418 C 0.44637 0.73652 0.35567
 C419 C 0.44731 0.71669 0.37866
 C420 C 0.46871 0.71459 0.39917
 C421 C 0.51007 0.77055 0.36930
 C422 C 0.52852 0.76538 0.34562
 C423 C 0.54979 0.78209 0.34127
 C424 C 0.55192 0.80472 0.36030
 C425 C 0.53322 0.81022 0.38386
 C426 C 0.51255 0.79277 0.38848
 H427 H 0.50580 0.73143 0.41174
 H428 H 0.46651 0.76911 0.33463
 H429 H 0.52669 0.74789 0.33118
 H430 H 0.49799 0.79680 0.40650
 H431 H 0.43174 0.70251 0.37991
 H432 H 0.56815 0.81788 0.35697
 B433 B -0.03107 0.00835 1.02237
 B434 B -0.04021 0.00256 0.98509
 B435 B -0.01792 0.02555 0.99253
 B436 B 0.00118 0.01494 1.02231
 B437 B -0.00967 -0.01521 1.03336
 B438 B -0.03573 -0.02283 1.01020
 B439 B 0.00712 -0.01845 0.97236
 B440 B 0.01643 -0.01268 1.00946
 B441 B -0.00614 -0.03574 1.00234
 B442 B -0.02498 -0.02511 0.97247
 B443 B -0.01407 0.00517 0.96132
 B444 B 0.01177 0.01288 0.98436
 B445 B 0.47639 0.52101 0.51306
 B446 B 0.46855 0.51735 0.47491
 B447 B 0.49184 0.53842 0.48511
 B448 B 0.50897 0.52539 0.51547
 B449 B 0.49568 0.49562 0.52404
 B450 B 0.47030 0.49086 0.49873
 B451 B 0.51489 0.49356 0.46402
 B452 B 0.52301 0.49732 0.50178
 B453 B 0.49918 0.47629 0.49205
 B454 B 0.48260 0.48943 0.46150
 B455 B 0.49593 0.51915 0.45290
 B456 B 0.52106 0.52411 0.47811
 B457 B 0.53715 1.00899 0.48744
 B458 B 0.54048 1.01188 0.44806
 B459 B 0.51951 0.99005 0.46300
 B460 B 0.50538 1.00305 0.49560
 B461 B 0.51789 1.03364 0.50078
 B462 B 0.54003 1.03902 0.47123
 B463 B 0.49227 1.03325 0.44450
 B464 B 0.48849 1.03002 0.48347
 B465 B 0.50987 1.05198 0.46918
 B466 B 0.52382 1.03896 0.43632
 B467 B 0.51120 1.00835 0.43111
 B468 B 0.48930 1.00283 0.46058
 B469 B 0.03060 0.49559 0.99896
 B470 B 0.04030 0.49690 0.96097
 B471 B 0.01677 0.47605 0.97160
 B472 B -0.00192 0.49062 0.99988
 B473 B 0.01024 0.52119 1.00626
 B474 B 0.03680 0.52482 0.98196
 B475 B -0.00602 0.51904 0.94530
 B476 B -0.01590 0.51741 0.98285
 B477 B 0.00795 0.53834 0.97250
 B478 B 0.02635 0.52367 0.94411
 B479 B 0.01396 0.49321 0.93759
 B480 B -0.01224 0.48933 0.96183
 B481 B 0.03220 0.51148 0.51495
 B482 B 0.04283 0.49827 0.54882
 B483 B 0.02059 0.52290 0.54989
 B484 B 0.00017 0.51923 0.51894
 B485 B 0.01009 0.49130 0.49925
 B486 B 0.03682 0.47851 0.51804
 B487 B -0.00453 0.47718 0.55877
 B488 B -0.01500 0.49020 0.52468
 B489 B 0.00747 0.46555 0.52436
 B490 B 0.02770 0.46947 0.55503
 B491 B 0.01756 0.49693 0.57447
 B492 B -0.00897 0.51011 0.55581
 B493 B 0.53041 0.00821 0.00058
 B494 B 0.54201 -0.00504 0.03404
 B495 B 0.52052 0.02027 0.03593
 B496 B 0.49879 0.01692 0.00631
 B497 B 0.50712 -0.01142 -0.01348
 B498 B 0.53425 -0.02485 0.00390
 B499 B 0.49453 -0.02457 0.04702
 B500 B 0.48306 -0.01153 0.01341
 B501 B 0.50478 -0.03687 0.01208
 B502 B 0.52630 -0.03333 0.04149
 B503 B 0.51778 -0.00532 0.06111
 B504 B 0.49089 0.00843 0.04381
 B505 B 0.47987 0.48448 -0.01131
 B506 B 0.47045 0.48980 0.02615
 B507 B 0.49388 0.46731 0.01810
 B508 B 0.51247 0.47846 -0.01200
 B509 B 0.49993 0.50852 -0.02240
 B510 B 0.47372 0.51539 0.00131
 B511 B 0.51690 0.51170 0.03844
 B512 B 0.52649 0.50611 0.00092
 B513 B 0.50296 0.52876 0.00869
 B514 B 0.48450 0.51777 0.03895
 B515 B 0.49679 0.48752 0.04952
 B516 B 0.52307 0.48039 0.02584
 B517 B -0.03080 0.99638 0.49999
 B518 B -0.04120 1.00011 0.53727
 B519 B -0.01717 0.97798 0.52881
 B520 B 0.00179 0.99063 0.49994
 B521 B -0.01046 1.02105 0.49123
 B522 B -0.03711 1.02671 0.51435
 B523 B 0.00499 1.02154 0.55271
 B524 B 0.01540 1.01762 0.51522
 B525 B -0.00830 1.03981 0.52376
 B526 B -0.02746 1.02741 0.55254
 B527 B -0.01537 0.99684 0.56161
 B528 B 0.01152 0.99098 0.53833
 B529 B 0.76022 0.21206 0.24795
 B530 B 0.75102 0.20052 0.28347
 B531 B 0.77639 0.22137 0.28032
 B532 B 0.76947 0.24381 0.25212
 B533 B 0.73974 0.23658 0.23744
 B534 B 0.72833 0.20964 0.25675
 B535 B 0.73392 0.24917 0.29970
 B536 B 0.74282 0.26063 0.26427
 B537 B 0.71772 0.23973 0.26694
 B538 B 0.72447 0.21763 0.29555
 B539 B 0.75459 0.22469 0.31028
 B540 B 0.76590 0.25168 0.29074
 B541 B 0.72856 0.78075 0.71264
 B542 B 0.74359 0.79281 0.74470
 B543 B 0.71905 0.77160 0.74946
 B544 B 0.72036 0.74894 0.72032
 B545 B 0.74674 0.75619 0.69768
 B546 B 0.76128 0.78368 0.71276
 B547 B 0.76459 0.74467 0.75643
 B548 B 0.74887 0.73241 0.72520
 B549 B 0.77375 0.75363 0.72003
 B550 B 0.77241 0.77641 0.74934
 B551 B 0.74613 0.76895 0.77200
 B552 B 0.73162 0.74172 0.75714
 B553 B 0.26891 0.27870 0.75636
 B554 B 0.26332 0.28434 0.71779
 B555 B 0.28419 0.26008 0.72923
 B556 B 0.27244 0.24583 0.76184
 B557 B 0.24406 0.26143 0.77133
 B558 B 0.23824 0.28557 0.74392
 B559 B 0.23810 0.23815 0.71364
 B560 B 0.24387 0.23225 0.75211
 B561 B 0.22295 0.25664 0.74142
 B562 B 0.23452 0.27097 0.70810
 B563 B 0.26337 0.25536 0.69899
 B564 B 0.26845 0.23133 0.72601
 B565 B 0.23888 0.71639 0.26586
 B566 B 0.24603 0.70493 0.22960
 B567 B 0.22221 0.72794 0.23468
 B568 B 0.23134 0.74887 0.26346
 B569 B 0.26141 0.73885 0.27590
 B570 B 0.27018 0.71140 0.25513
 B571 B 0.26543 0.75229 0.21383
 B572 B 0.25853 0.76370 0.24996
 B573 B 0.28217 0.74055 0.24508
 B574 B 0.27287 0.71980 0.21626
 B575 B 0.24303 0.73005 0.20367
 B576 B 0.23402 0.75740 0.22488
 B577 B 0.26511 0.72025 0.74849
 B578 B 0.26215 0.70998 0.78606
 B579 B 0.28382 0.73309 0.77694
 B580 B 0.27116 0.75294 0.74883
 B581 B 0.24085 0.74163 0.74041
 B582 B 0.23536 0.71455 0.76359
 B583 B 0.24123 0.75723 0.80192
 B584 B 0.24458 0.76759 0.76481
 B585 B 0.22268 0.74406 0.77331
 B586 B 0.23544 0.72460 0.80189
 B587 B 0.26574 0.73605 0.81026
 B588 B 0.27143 0.76272 0.78711
 B589 B 0.22807 0.27665 0.22609
 B590 B 0.23338 0.28361 0.26415
 B591 B 0.21078 0.26156 0.25450
 B592 B 0.22138 0.24421 0.22295
 B593 B 0.25134 0.25579 0.21313
 B594 B 0.25878 0.28052 0.23898
 B595 B 0.25425 0.23479 0.27229
 B596 B 0.24845 0.22786 0.23430
 B597 B 0.27141 0.25024 0.24384
 B598 B 0.26068 0.26729 0.27577
 B599 B 0.23068 0.25572 0.28543
 B600 B 0.22322 0.23118 0.25992
 B601 B 0.75719 0.77710 0.25144
 B602 B 0.75024 0.78117 0.21304
 B603 B 0.77497 0.76076 0.22443
 B604 B 0.76599 0.74540 0.25800
 B605 B 0.73553 0.75624 0.26715
 B606 B 0.72596 0.77846 0.23956
 B607 B 0.73343 0.73087 0.21040
 B608 B 0.73982 0.72730 0.24913
 B609 B 0.71540 0.74762 0.23759
 B610 B 0.72437 0.76269 0.20398
 B611 B 0.75513 0.75188 0.19462
 B612 B 0.76466 0.72958 0.22273
 B613 B 0.74166 0.21810 0.76590
 B614 B 0.75120 0.20688 0.73042
 B615 B 0.72650 0.22920 0.73347
 B616 B 0.73338 0.25036 0.76282
 B617 B 0.76282 0.24122 0.77779
 B618 B 0.77360 0.21399 0.75788
 B619 B 0.77005 0.25462 0.71608
 B620 B 0.76079 0.26597 0.75170
 B621 B 0.78534 0.24355 0.74877
 B622 B 0.77841 0.22236 0.71951
 B623 B 0.74896 0.23172 0.70428
 B624 B 0.73806 0.25897 0.72440
 C625 C 0.40018 1.03862 0.35988
 C626 C 0.41148 1.06300 0.35922
 C627 C 0.40356 1.08269 0.33852
 C628 C 0.38354 1.07685 0.31728
 C629 C 0.37205 1.05135 0.31653
 C630 C 0.38042 1.03232 0.33901
 O631 O 0.41125 1.02220 0.38022
 C632 C 0.43017 1.03639 0.39243
 C633 C 0.43127 1.06149 0.38040
 C634 C 0.45093 1.07885 0.38825
 C635 C 0.47030 1.06987 0.40910
 C636 C 0.46955 1.04406 0.42204
 C637 C 0.44885 1.02728 0.41355
 H638 H 0.41299 1.10164 0.33806
 H639 H 0.37849 1.09182 0.30017
 H640 H 0.37196 1.01294 0.34050
 H641 H 0.45178 1.09835 0.37798
 H642 H 0.48602 1.08292 0.41450
 H643 H 0.44760 1.00724 0.42210
 C644 C -0.09810 0.53398 0.86238
 C645 C -0.08395 0.55671 0.86055
 C646 C -0.09163 0.57790 0.84181
 C647 C -0.11406 0.57501 0.82319
 C648 C -0.12806 0.55086 0.82299
 C649 C -0.12027 0.53067 0.84429
 O650 O -0.08751 0.51587 0.88095
 C651 C -0.06598 0.52724 0.89083
 C652 C -0.06268 0.55220 0.87904
 C653 C -0.04066 0.56696 0.88553
 C654 C -0.02172 0.55573 0.90555
 C655 C -0.02527 0.53034 0.91894
 C656 C -0.04763 0.51583 0.91071
 H657 H -0.08027 0.59571 0.84074
 H658 H -0.11900 0.59091 0.80726
 H659 H -0.13079 0.51242 0.84651
 H660 H -0.03814 0.58640 0.87556
 H661 H -0.00467 0.56709 0.91106
 H662 H -0.05120 0.49635 0.91997
 C663 C 0.09525 -0.03243 0.88217
 C664 C 0.07511 -0.04790 0.87204
 C665 C 0.07549 -0.06095 0.84333
 C666 C 0.09746 -0.05775 0.82412
 C667 C 0.11806 -0.04129 0.83366
 C668 C 0.11708 -0.02855 0.86314
 O669 O 0.09047 -0.02101 0.90971
 C670 C 0.06674 -0.02926 0.91691
 C671 C 0.05641 -0.04550 0.89447
 C672 C 0.03085 -0.05405 0.89551
 C673 C 0.01528 -0.04552 0.92076
 C674 C 0.02575 -0.02986 0.94530
 C675 C 0.05192 -0.02141 0.94286
 H676 H 0.05930 -0.07283 0.83580
 H677 H 0.09815 -0.06736 0.80137
 H678 H 0.13251 -0.01564 0.87059
 H679 H 0.02285 -0.06595 0.87688
 H680 H -0.00501 -0.05111 0.92094
 H681 H 0.06027 -0.00805 0.95975
 C682 C 0.60272 0.47435 0.37444
 C683 C 0.58695 0.45264 0.37355
 C684 C 0.59080 0.43204 0.35241
 C685 C 0.61153 0.43411 0.33097
 C686 C 0.62763 0.45666 0.33087
 C687 C 0.62331 0.47689 0.35325
 O688 O 0.59505 0.49219 0.39545
 C689 C 0.57386 0.48164 0.40787
 C690 C 0.56799 0.45753 0.39521
 C691 C 0.54562 0.44393 0.40321
 C692 C 0.52861 0.45567 0.42518
 C693 C 0.53436 0.48035 0.43910
 C694 C 0.55752 0.49340 0.43016
 H695 H 0.57797 0.41529 0.35197
 H696 H 0.61442 0.41866 0.31366
 H697 H 0.63521 0.49436 0.35360
 H698 H 0.54108 0.42526 0.39233
 H699 H 0.51084 0.44561 0.43077
 H700 H 0.56262 0.51240 0.43973
 C701 C 0.59648 0.52340 0.13922
 C702 C 0.58463 0.54769 0.13549
 C703 C 0.59168 0.56954 0.15311
 C704 C 0.61151 0.56611 0.17558
 C705 C 0.62419 0.54118 0.17979
 C706 C 0.61651 0.51967 0.16084
 O707 O 0.58672 0.50498 0.12079
 C708 C 0.56836 0.51790 0.10497
 C709 C 0.56627 0.54411 0.11282
 C710 C 0.54816 0.56105 0.09875
 C711 C 0.53207 0.55062 0.07520
 C712 C 0.53460 0.52380 0.06578
 C713 C 0.55232 0.50711 0.08226
 H714 H 0.58198 0.58846 0.15004
 H715 H 0.61643 0.58279 0.19013
 H716 H 0.62579 0.50044 0.16273
 H717 H 0.54649 0.58156 0.10560
 H718 H 0.51765 0.56347 0.06449
 H719 H 0.55437 0.48632 0.07695
 C720 C 0.08492 1.03095 0.65344
 C721 C 0.07337 1.05538 0.65004
 C722 C 0.08125 1.07716 0.66714
 C723 C 0.10167 1.07358 0.68876
 C724 C 0.11391 1.04833 0.69326
 C725 C 0.10512 1.02686 0.67473
 O726 O 0.07493 1.01283 0.63476
 C727 C 0.05661 1.02608 0.61925
 C728 C 0.05472 1.05217 0.62769
 C729 C 0.03646 1.06937 0.61443
 C730 C 0.02000 1.05936 0.59103
 C731 C 0.02257 1.03280 0.58061
 C732 C 0.04054 1.01581 0.59619
 H733 H 0.07185 1.09625 0.66416
 H734 H 0.10689 1.09044 0.70282
 H735 H 0.11414 1.00747 0.67578
 H736 H 0.03485 1.08973 0.62190
 H737 H 0.00532 1.07238 0.58117
 H738 H 0.04253 0.99513 0.59022
 C739 C -0.09356 0.46189 0.64581
 C740 C -0.07436 0.44423 0.65490
 C741 C -0.07585 0.43001 0.68281
 C742 C -0.09793 0.43427 0.70198
 C743 C -0.11755 0.45288 0.69325
 C744 C -0.11535 0.46674 0.66468
 O745 O -0.08802 0.47431 0.61934
 C746 C -0.06481 0.46446 0.61159
 C747 C -0.05537 0.44610 0.63251
 C748 C -0.03021 0.43551 0.63021
 C749 C -0.01417 0.44448 0.60557
 C750 C -0.02372 0.46308 0.58323
 C751 C -0.04957 0.47307 0.58682
 H752 H -0.06044 0.41643 0.68976
 H753 H -0.09945 0.42368 0.72401
 H754 H -0.12999 0.48114 0.65762
 H755 H -0.02276 0.42183 0.64763
 H756 H 0.00595 0.43773 0.60479
 H757 H -0.05734 0.48876 0.57232
 C758 C 0.40863 -0.03846 0.13914
 C759 C 0.42795 -0.05639 0.14707
 C760 C 0.42714 -0.07108 0.17467
 C761 C 0.40558 -0.06710 0.19475
 C762 C 0.38576 -0.04835 0.18714
 C763 C 0.38733 -0.03391 0.15891
 O764 O 0.41343 -0.02578 0.11263
 C765 C 0.43629 -0.03577 0.10365
 C766 C 0.44619 -0.05446 0.12384
 C767 C 0.47100 -0.06559 0.11999
 C768 C 0.48617 -0.05688 0.09444
 C769 C 0.47611 -0.03795 0.07283
 C770 C 0.45070 -0.02731 0.07807
 H771 H 0.44263 -0.08489 0.18067
 H772 H 0.40454 -0.07811 0.21652
 H773 H 0.37248 -0.01944 0.15266
 H774 H 0.47882 -0.07963 0.13676
 H775 H 0.50598 -0.06433 0.09213
 H776 H 0.44268 -0.01145 0.06401
 C777 C 0.36666 0.43944 0.04250
 C778 C 0.36821 0.45915 0.06463
 C779 C 0.34714 0.46655 0.08366
 C780 C 0.32343 0.45349 0.07919
 C781 C 0.32119 0.43388 0.05563
 C782 C 0.34327 0.42651 0.03742
 O783 O 0.38851 0.43597 0.02611
 C784 C 0.40414 0.45406 0.03785
 C785 C 0.39268 0.46891 0.06129
 C786 C 0.40508 0.49015 0.07511
 C787 C 0.43010 0.49649 0.06401
 C788 C 0.44238 0.48154 0.03962
 C789 C 0.42919 0.45951 0.02718
 H790 H 0.34873 0.48222 0.10080
 H791 H 0.30654 0.45938 0.09305
 H792 H 0.34197 0.41176 0.01910
 H793 H 0.39557 0.50185 0.09323
 H794 H 0.43964 0.51327 0.07431
 H795 H 0.43769 0.44719 0.00899
 C796 C -0.14555 0.94901 0.54713
 C797 C -0.14893 0.97578 0.55102
 C798 C -0.17316 0.98829 0.54893
 C799 C -0.19474 0.97261 0.54223
 C800 C -0.19202 0.94478 0.53938
 C801 C -0.16705 0.93277 0.54260
 O802 O -0.12059 0.94168 0.54527
 C803 C -0.10802 0.96426 0.54842
 C804 C -0.12446 0.98559 0.55267
 C805 C -0.11553 1.01118 0.55520
 C806 C -0.08858 1.01505 0.55270
 C807 C -0.07097 0.99362 0.54651
 C808 C -0.08119 0.96779 0.54472
 H809 H -0.17519 1.00951 0.55074
 H810 H -0.21364 0.98211 0.53922
 H811 H -0.16417 0.91179 0.53885
 H812 H -0.12889 1.02772 0.55832
 H813 H -0.08174 1.03511 0.55403
 H814 H -0.06932 0.95094 0.53862
 C815 C -0.14303 0.05375 0.95993
 C816 C -0.13986 0.03357 0.93857
 C817 C -0.15950 0.02605 0.91805
 C818 C -0.18359 0.03950 0.92028
 C819 C -0.18742 0.05960 0.94304
 C820 C -0.16665 0.06723 0.96252
 O821 O -0.12264 0.05690 0.97847
 C822 C -0.10627 0.03813 0.96886
 C823 C -0.11585 0.02325 0.94460
 C824 C -0.10253 0.00152 0.93237
 C825 C -0.07836 -0.00509 0.94569
 C826 C -0.06799 0.00999 0.97085
 C827 C -0.08223 0.03214 0.98217
 H828 H -0.15666 0.00990 0.90169
 H829 H -0.19960 0.03342 0.90557
 H830 H -0.16923 0.08238 0.98027
 H831 H -0.11057 -0.01011 0.91351
 H832 H -0.06789 -0.02199 0.93619
 H833 H -0.07510 0.04432 1.00103
 C834 C 0.36246 0.56353 0.45792
 C835 C 0.36664 0.54568 0.43400
 C836 C 0.34688 0.53742 0.41413
 C837 C 0.32171 0.54778 0.41943
 C838 C 0.31688 0.56559 0.44455
 C839 C 0.33764 0.57385 0.46373
 O840 O 0.38342 0.56761 0.47524
 C841 C 0.40118 0.55173 0.46225
 C842 C 0.39189 0.53784 0.43702
 C843 C 0.40653 0.51853 0.42165
 C844 C 0.43146 0.51277 0.43333
 C845 C 0.44133 0.52633 0.45999
 C846 C 0.42617 0.54693 0.47363
 H847 H 0.35059 0.52308 0.39574
 H848 H 0.30582 0.54125 0.40481
 H849 H 0.33439 0.58736 0.48314
 H850 H 0.39871 0.50761 0.40206
 H851 H 0.44264 0.49726 0.42186
 H852 H 0.43303 0.55829 0.49333
 C853 C 0.14622 0.54743 0.56523
 C854 C 0.14823 0.52266 0.57841
 C855 C 0.17191 0.51219 0.58893
 C856 C 0.19427 0.52773 0.58513
 C857 C 0.19234 0.55298 0.57096
 C858 C 0.16798 0.56305 0.56132
 O859 O 0.12258 0.55336 0.55506
 C860 C 0.10930 0.53194 0.56177
 C861 C 0.12384 0.51244 0.57604
 C862 C 0.11353 0.48784 0.58320
 C863 C 0.08730 0.48332 0.57513
 C864 C 0.07211 0.50326 0.56007
 C865 C 0.08362 0.52793 0.55376
 H866 H 0.17326 0.49255 0.59880
 H867 H 0.21311 0.51983 0.59209
 H868 H 0.16626 0.58204 0.54978
 H869 H 0.12535 0.47255 0.59406
 H870 H 0.07909 0.46423 0.58013
 H871 H 0.07331 0.54370 0.54184
 C872 C 0.64466 0.04441 0.05449
 C873 C 0.64567 0.02061 0.07008
 C874 C 0.66809 0.01169 0.08546
 C875 C 0.69035 0.02765 0.08382
 C876 C 0.68956 0.05174 0.06690
 C877 C 0.66625 0.06041 0.05272
 O878 O 0.62226 0.04908 0.04028
 C879 C 0.60876 0.02780 0.04680
 C880 C 0.62194 0.00962 0.06489
 C881 C 0.61101 -0.01439 0.07337
 C882 C 0.58545 -0.01949 0.06304
 C883 C 0.57157 -0.00072 0.04446
 C884 C 0.58383 0.02315 0.03639
 H885 H 0.66868 -0.00718 0.09734
 H886 H 0.70842 0.02075 0.09428
 H887 H 0.66540 0.07849 0.03917
 H888 H 0.62170 -0.02861 0.08746
 H889 H 0.57652 -0.03786 0.06978
 H890 H 0.57423 0.03837 0.02276
 C891 C 0.64255 0.96016 0.42246
 C892 C 0.64129 0.98211 0.40345
 C893 C 0.66319 0.99207 0.38824
 C894 C 0.68720 0.97884 0.39290
 C895 C 0.68880 0.95665 0.41313
 C896 C 0.66608 0.94705 0.42771
 O897 O 0.62020 0.95490 0.43662
 C898 C 0.60445 0.97398 0.42659
 C899 C 0.61626 0.99125 0.40632
 C900 C 0.60388 1.01424 0.39594
 C901 C 0.57871 1.01994 0.40772
 C902 C 0.56652 1.00280 0.42967
 C903 C 0.57954 0.97900 0.43806
 H904 H 0.66193 1.00965 0.37388
 H905 H 0.70461 0.98627 0.38166
 H906 H 0.66686 0.93019 0.44334
 H907 H 0.61372 1.02794 0.38058
 H908 H 0.56944 1.03836 0.40091
 H909 H 0.57217 0.96605 0.45603
 C910 C 0.14560 0.44504 0.95021
 C911 C 0.14198 0.46027 0.92380
 C912 C 0.16130 0.46332 0.90102
 C913 C 0.18547 0.45054 0.90600
 C914 C 0.18991 0.43536 0.93353
 C915 C 0.16944 0.43230 0.95567
 O916 O 0.12508 0.44519 0.96935
 C917 C 0.10820 0.46107 0.95489
 C918 C 0.11757 0.47090 0.92701
 C919 C 0.10339 0.48868 0.90877
 C920 C 0.07870 0.49680 0.91986
 C921 C 0.06850 0.48709 0.94878
 C922 C 0.08356 0.46853 0.96608
 H923 H 0.15807 0.47549 0.88048
 H924 H 0.20101 0.45325 0.88901
 H925 H 0.17216 0.42077 0.97686
 H926 H 0.11118 0.49629 0.88694
 H927 H 0.06765 0.51070 0.90574
 H928 H 0.07653 0.45984 0.98754
 C929 C 0.01317 0.37145 0.44025
 C930 C 0.01026 0.36277 0.47069
 C931 C 0.01146 0.33630 0.47894
 C932 C 0.01528 0.31791 0.45473
 C933 C 0.01782 0.32619 0.42296
 C934 C 0.01715 0.35344 0.41571
 O935 O 0.01184 0.39755 0.43776
 C936 C 0.00803 0.40543 0.46726
 C937 C 0.00687 0.38489 0.48822
 C938 C 0.00385 0.38858 0.52035
 C939 C 0.00268 0.41455 0.53151
 C940 C 0.00428 0.43636 0.51067
 C941 C 0.00652 0.43148 0.47783
 H942 H 0.00939 0.33002 0.50313
 H943 H 0.01608 0.29715 0.46068
 H944 H 0.01892 0.36032 0.39170
 H945 H 0.00322 0.37203 0.53640
 H946 H 0.00157 0.41740 0.55650
 H947 H 0.00827 0.44736 0.46100
 C948 C 0.50155 -0.13090 -0.07231
 C949 C 0.49536 -0.13921 -0.04246
 C950 C 0.49305 -0.16569 -0.03463
 C951 C 0.49783 -0.18439 -0.05839
 C952 C 0.50505 -0.17639 -0.08921
 C953 C 0.50644 -0.14915 -0.09629
 O954 O 0.50423 -0.10495 -0.07437
 C955 C 0.49987 -0.09676 -0.04513
 C956 C 0.49451 -0.11694 -0.02468
 C957 C 0.49172 -0.11305 0.00748
 C958 C 0.49471 -0.08737 0.01905
 C959 C 0.49971 -0.06590 -0.00149
 C960 C 0.50218 -0.07097 -0.03425
 H961 H 0.48850 -0.17178 -0.01086
 H962 H 0.49718 -0.20510 -0.05233
 H963 H 0.51214 -0.14238 -0.11943
 H964 H 0.48821 -0.12937 0.02328
 H965 H 0.49341 -0.08451 0.04401
 H966 H 0.50686 -0.05556 -0.05085
 C967 C -0.01919 -0.14031 1.06410
 C968 C -0.01102 -0.14511 1.03375
 C969 C -0.00878 -0.17045 1.02137
 C970 C -0.01479 -0.19167 1.04126
 C971 C -0.02315 -0.18715 1.07272
 C972 C -0.02559 -0.16102 1.08409
 O973 O -0.02002 -0.11488 1.07135
 C974 C -0.01228 -0.10336 1.04499
 C975 C -0.00657 -0.12088 1.02126
 C976 C 0.00117 -0.11279 0.99149
 C977 C 0.00243 -0.08554 0.98578
 C978 C -0.00365 -0.06683 1.00969
 C979 C -0.01069 -0.07632 1.04000
 H980 H -0.00238 -0.17378 0.99739
 H981 H -0.01285 -0.21159 1.03229
 H982 H -0.03151 -0.15698 1.10811
 H983 H 0.00548 -0.12693 0.97305
 H984 H 0.00770 -0.07941 0.96257
 H985 H -0.01600 -0.06318 1.05909
 C986 C 0.49349 0.37478 0.56055
 C987 C 0.47881 0.37270 0.53372
 C988 C 0.46179 0.35202 0.52856
 C989 C 0.46035 0.33232 0.55167
 C990 C 0.47587 0.33370 0.57904
 C991 C 0.49260 0.35525 0.58362
 O992 O 0.50723 0.39675 0.56166
 C993 C 0.50120 0.40875 0.53485
 C994 C 0.48413 0.39468 0.51681
 C995 C 0.47433 0.40403 0.48856
 C996 C 0.48155 0.42935 0.47907
 C997 C 0.49839 0.44502 0.49777
 C998 C 0.50870 0.43402 0.52587
 H999 H 0.45012 0.35106 0.50748
 H1000 H 0.44777 0.31566 0.54795
 H1001 H 0.50470 0.35655 0.60434
 H1002 H 0.46063 0.39272 0.47498
 H1003 H 0.47239 0.43724 0.45818
 H1004 H 0.52054 0.44550 0.54163
 C1005 C 0.51440 1.15257 0.53920
 C1006 C 0.52475 1.15709 0.50980
 C1007 C 0.53877 1.17968 0.50269
 C1008 C 0.54216 1.19830 0.52683
 C1009 C 0.53179 1.19382 0.55726
 C1010 C 0.51760 1.17074 0.56345
 O1011 O 0.50315 1.12928 0.54174
 C1012 C 0.50652 1.11877 0.51342
 C1013 C 0.51959 1.13491 0.49294
 C1014 C 0.52714 1.12674 0.46299
 C1015 C 0.52176 1.10065 0.45423
 C1016 C 0.50872 1.08326 0.47516
 C1017 C 0.50050 1.09302 0.50497
 H1018 H 0.54708 1.18269 0.47955
 H1019 H 0.55301 1.21602 0.52201
 H1020 H 0.50969 1.16687 0.58663
 H1021 H 0.53806 1.13951 0.44755
 H1022 H 0.52920 1.09366 0.43183
 H1023 H 0.49167 1.08034 0.52235
 C1024 C 0.00848 0.63947 1.04005
 C1025 C 0.02788 0.63971 1.01763
 C1026 C 0.04937 0.65608 1.01976
 C1027 C 0.05062 0.67316 1.04573
 C1028 C 0.02982 0.67464 1.06790
 C1029 C 0.00832 0.65762 1.06466
 O1030 O -0.00767 0.61945 1.03686
 C1031 C 0.00144 0.60702 1.01154
 C1032 C 0.02263 0.61912 0.99828
 C1033 C 0.03583 0.60884 0.97235
 C1034 C 0.02781 0.58440 0.96072
 C1035 C 0.00788 0.56988 0.97618
 C1036 C -0.00605 0.58212 1.00132
 H1037 H 0.06506 0.65506 1.00266
 H1038 H 0.06725 0.68595 1.04789
 H1039 H -0.00728 0.65742 1.08195
 H1040 H 0.05245 0.61873 0.96226
 H1041 H 0.03904 0.57577 0.94162
 H1042 H -0.02028 0.57155 1.01506
 C1043 C 0.48827 0.63098 -0.05747
 C1044 C 0.51352 0.63004 -0.04682
 C1045 C 0.53211 0.64785 -0.05664
 C1046 C 0.52442 0.66753 -0.07804
 C1047 C 0.49818 0.66953 -0.08939
 C1048 C 0.48004 0.65049 -0.07853
 O1049 O 0.47399 0.61130 -0.04677
 C1050 C 0.49060 0.59759 -0.02910
 C1051 C 0.51503 0.60825 -0.02815
 C1052 C 0.53565 0.59622 -0.01222
 C1053 C 0.53113 0.57174 0.00219
 C1054 C 0.50642 0.55948 0.00014
 C1055 C 0.48566 0.57347 -0.01481
 H1056 H 0.55210 0.64630 -0.04867
 H1057 H 0.53957 0.68030 -0.08655
 H1058 H 0.45977 0.65083 -0.08536
 H1059 H 0.55480 0.60491 -0.01182
 H1060 H 0.54730 0.56199 0.01372
 H1061 H 0.46647 0.56520 -0.01738
 C1062 C -0.02601 1.14574 0.46881
 C1063 C -0.00047 1.14450 0.47840
 C1064 C 0.01795 1.16230 0.46825
 C1065 C 0.00993 1.18196 0.44707
 C1066 C -0.01649 1.18391 0.43619
 C1067 C -0.03463 1.16539 0.44821
 O1068 O -0.03985 1.12548 0.47871
 C1069 C -0.02263 1.11105 0.49462
 C1070 C 0.00175 1.12184 0.49535
 C1071 C 0.02314 1.10882 0.50851
 C1072 C 0.01943 1.08323 0.52022
 C1073 C -0.00527 1.07096 0.51817
 C1074 C -0.02678 1.08589 0.50638
 H1075 H 0.03817 1.16042 0.47526
 H1076 H 0.02515 1.19429 0.43789
 H1077 H -0.05500 1.16566 0.44182
 H1078 H 0.04225 1.11760 0.50858
 H1079 H 0.03613 1.07275 0.52964
 H1080 H -0.04602 1.07768 0.50405
 C1081 C 0.78170 0.67150 0.86211
 C1082 C 0.79879 0.66383 0.83875
 C1083 C 0.81227 0.63987 0.83954
 C1084 C 0.80841 0.62350 0.86579
 C1085 C 0.79090 0.63100 0.89062
 C1086 C 0.77717 0.65545 0.88805
 O1087 O 0.77003 0.69448 0.85652
 C1088 C 0.77980 0.70144 0.82890
 C1089 C 0.79751 0.68345 0.81690
 C1090 C 0.80841 0.68603 0.78706
 C1091 C 0.79972 0.70727 0.76838
 C1092 C 0.78060 0.72559 0.77980
 C1093 C 0.77156 0.72300 0.81123
 H1094 H 0.82522 0.63390 0.82057
 H1095 H 0.81850 0.60462 0.86597
 H1096 H 0.76411 0.66265 0.90628
 H1097 H 0.82174 0.67124 0.77766
 H1098 H 0.80602 0.70763 0.74417
 H1099 H 0.75653 0.73584 0.82095
 C1100 C 0.26620 0.15528 0.37554
 C1101 C 0.28636 0.15141 0.35465
 C1102 C 0.30518 0.13176 0.35839
 C1103 C 0.30363 0.11585 0.38529
 C1104 C 0.28366 0.11994 0.40848
 C1105 C 0.26429 0.13982 0.40258
 O1106 O 0.25043 0.17522 0.36764
 C1107 C 0.26102 0.18418 0.34123
 C1108 C 0.28311 0.17038 0.33245
 C1109 C 0.29784 0.17696 0.30628
 C1110 C 0.28922 0.19837 0.28811
 C1111 C 0.26588 0.21257 0.29561
 C1112 C 0.25181 0.20530 0.32310
 H1113 H 0.32059 0.12876 0.34120
 H1114 H 0.31794 0.10009 0.38731
 H1115 H 0.24900 0.14467 0.41927
 H1116 H 0.31542 0.16603 0.30006
 H1117 H 0.30083 0.20330 0.26802
 H1118 H 0.23393 0.21539 0.33001
 C1119 C 0.72281 0.33710 0.39217
 C1120 C 0.70501 0.31822 0.40045
 C1121 C 0.68947 0.32030 0.42726
 C1122 C 0.69246 0.34268 0.44628
 C1123 C 0.71107 0.36209 0.43851
 C1124 C 0.72646 0.35923 0.41105
 O1125 O 0.73583 0.33127 0.36600
 C1126 C 0.72616 0.30818 0.35769
 C1127 C 0.70742 0.29918 0.37805
 C1128 C 0.69612 0.27457 0.37477
 C1129 C 0.70445 0.25868 0.34945
 C1130 C 0.72297 0.26795 0.32721
 C1131 C 0.73417 0.29307 0.33203
 H1132 H 0.67564 0.30519 0.43341
 H1133 H 0.68075 0.34466 0.46745
 H1134 H 0.74086 0.37373 0.40471
 H1135 H 0.68197 0.26751 0.39164
 H1136 H 0.69663 0.23904 0.34749
 H1137 H 0.74941 0.30050 0.31693
 C1138 C 0.22771 0.84448 0.89534
 C1139 C 0.20507 0.83030 0.89497
 C1140 C 0.18391 0.83618 0.91428
 C1141 C 0.18624 0.85729 0.93527
 C1142 C 0.20987 0.87178 0.93737
 C1143 C 0.23076 0.86513 0.91657
 O1144 O 0.24543 0.83558 0.87494
 C1145 C 0.23388 0.81516 0.86178
 C1146 C 0.20927 0.81091 0.87352
 C1147 C 0.19445 0.78950 0.86479
 C1148 C 0.20525 0.77193 0.84271
 C1149 C 0.23001 0.77645 0.82878
 C1150 C 0.24459 0.79843 0.83897
 H1151 H 0.16631 0.82466 0.91357
 H1152 H 0.17010 0.86103 0.95122
 H1153 H 0.24888 0.87584 0.91650
 H1154 H 0.17548 0.78605 0.87517
 H1155 H 0.19432 0.75476 0.83702
 H1156 H 0.26379 0.80251 0.82968
 C1157 C 0.27732 0.84072 0.12239
 C1158 C 0.30093 0.82763 0.12379
 C1159 C 0.32233 0.83507 0.10590
 C1160 C 0.31912 0.85657 0.08537
 C1161 C 0.29452 0.86992 0.08238
 C1162 C 0.27350 0.86177 0.10183
 O1163 O 0.25942 0.83062 0.14129
 C1164 C 0.27192 0.81052 0.15463
 C1165 C 0.29729 0.80762 0.14461
 C1166 C 0.31333 0.78694 0.15453
 C1167 C 0.30283 0.76874 0.17588
 C1168 C 0.27698 0.77177 0.18761
 C1169 C 0.26135 0.79308 0.17628
 H1170 H 0.34075 0.82444 0.10733
 H1171 H 0.33553 0.86154 0.07052
 H1172 H 0.25465 0.87165 0.10151
 H1173 H 0.33309 0.78465 0.14579
 H1174 H 0.31494 0.75238 0.18293
 H1175 H 0.24143 0.79635 0.18394
 C1176 C 0.78584 0.34157 0.62407
 C1177 C 0.80229 0.32107 0.61552
 C1178 C 0.81705 0.32126 0.58798
 C1179 C 0.81460 0.34342 0.56839
 C1180 C 0.79723 0.36442 0.57636
 C1181 C 0.78273 0.36353 0.60464
 O1182 O 0.77307 0.33718 0.65072
 C1183 C 0.78149 0.31332 0.65903
 C1184 C 0.79917 0.30249 0.63817
 C1185 C 0.80860 0.27678 0.64087
 C1186 C 0.79945 0.26165 0.66614
 C1187 C 0.78211 0.27271 0.68900
 C1188 C 0.77284 0.29897 0.68485
 H1189 H 0.82972 0.30483 0.58165
 H1190 H 0.82555 0.34393 0.54655
 H1191 H 0.76915 0.37924 0.61096
 H1192 H 0.82183 0.26835 0.62355
 H1193 H 0.80593 0.24129 0.66774
 H1194 H 0.75834 0.30776 0.70029
 C1195 C 0.22657 0.15862 0.61173
 C1196 C 0.20693 0.15435 0.63317
 C1197 C 0.19024 0.13311 0.63092
 C1198 C 0.19358 0.11600 0.60516
 C1199 C 0.21286 0.12079 0.58163
 C1200 C 0.22973 0.14245 0.58553
 O1201 O 0.24101 0.17925 0.61864
 C1202 C 0.23014 0.18834 0.64489
 C1203 C 0.20899 0.17415 0.65458
 C1204 C 0.19428 0.18113 0.68090
 C1205 C 0.20231 0.20305 0.69842
 C1206 C 0.22541 0.21675 0.69052
 C1207 C 0.23889 0.20949 0.66246
 H1208 H 0.17531 0.12968 0.64849
 H1209 H 0.18100 0.09912 0.60369
 H1210 H 0.24442 0.14738 0.56828
 H1211 H 0.17716 0.17021 0.68765
 H1212 H 0.19052 0.20887 0.71817
 H1213 H 0.25637 0.21928 0.65468
 C1214 C 0.70991 0.66343 0.09882
 C1215 C 0.71803 0.64739 0.12300
 C1216 C 0.72529 0.62107 0.11889
 C1217 C 0.72407 0.61066 0.08848
 C1218 C 0.71600 0.62666 0.06303
 C1219 C 0.70863 0.65340 0.06816
 O1220 O 0.70592 0.68840 0.10776
 C1221 C 0.71190 0.68807 0.13822
 C1222 C 0.71944 0.66337 0.14834
 C1223 C 0.73001 0.65873 0.17758
 C1224 C 0.73356 0.68039 0.19709
 C1225 C 0.72493 0.70629 0.18868
 C1226 C 0.71381 0.71001 0.15836
 H1227 H 0.73210 0.60909 0.13834
 H1228 H 0.72977 0.59026 0.08456
 H1229 H 0.70277 0.66601 0.04882
 H1230 H 0.73732 0.63939 0.18422
 H1231 H 0.74514 0.67667 0.21751
 H1232 H 0.70866 0.72951 0.14987
 C1233 C 0.19855 0.60149 0.19901
 C1234 C 0.22326 0.59666 0.21032
 C1235 C 0.23187 0.57181 0.21980
 C1236 C 0.21411 0.55113 0.21813
 C1237 C 0.18839 0.55568 0.20709
 C1238 C 0.18067 0.58108 0.19670
 O1239 O 0.19351 0.62694 0.19428
 C1240 C 0.21546 0.63839 0.20299
 C1241 C 0.23422 0.62072 0.21290
 C1242 C 0.25772 0.62846 0.22563
 C1243 C 0.26176 0.65552 0.22913
 C1244 C 0.24229 0.67448 0.22032
 C1245 C 0.21930 0.66547 0.20570
 H1246 H 0.25121 0.56866 0.22932
 H1247 H 0.22003 0.53176 0.22639
 H1248 H 0.16088 0.58515 0.18916
 H1249 H 0.27207 0.61414 0.23366
 H1250 H 0.27989 0.66139 0.23974
 H1251 H 0.20402 0.67869 0.19835
 C1252 C 0.70552 0.10506 0.69287
 C1253 C 0.72833 0.09958 0.70864
 C1254 C 0.73447 0.07476 0.72064
 C1255 C 0.71613 0.05486 0.71660
 C1256 C 0.69237 0.06016 0.70075
 C1257 C 0.68722 0.08546 0.68814
 O1258 O 0.70221 0.13047 0.68639
 C1259 C 0.72326 0.14128 0.69862
 C1260 C 0.73988 0.12320 0.71234
 C1261 C 0.76171 0.13040 0.72917
 C1262 C 0.76602 0.15735 0.73319
 C1263 C 0.74843 0.17663 0.72060
 C1264 C 0.72758 0.16818 0.70163
 H1265 H 0.75229 0.07111 0.73357
 H1266 H 0.72013 0.03546 0.72627
 H1267 H 0.66889 0.09007 0.67673
 H1268 H 0.77441 0.11580 0.73997
 H1269 H 0.78257 0.16292 0.74721
 H1270 H 0.71400 0.18183 0.69112
 C1271 C 0.78753 0.09243 0.31955
 C1272 C 0.76206 0.09086 0.30982
 C1273 C 0.75054 0.06718 0.30183
 C1274 C 0.76615 0.04428 0.30306
 C1275 C 0.79249 0.04528 0.31333
 C1276 C 0.80288 0.06972 0.32292
 O1277 O 0.79597 0.11700 0.32108
 C1278 C 0.77536 0.13123 0.31224
 C1279 C 0.75399 0.11621 0.30571
 C1280 C 0.73082 0.12693 0.29449
 C1281 C 0.72981 0.15418 0.28926
 C1282 C 0.75221 0.17011 0.29375
 C1283 C 0.77504 0.15824 0.30628
 H1284 H 0.73074 0.06654 0.29318
 H1285 H 0.75782 0.02578 0.29567
 H1286 H 0.82321 0.07150 0.32929
 H1287 H 0.71424 0.11471 0.28938
 H1288 H 0.71178 0.16252 0.28032
 H1289 H 0.79252 0.16904 0.31015
 C1290 C 0.31312 0.60390 0.79637
 C1291 C 0.29801 0.60739 0.82287
 C1292 C 0.29535 0.58787 0.84557
 C1293 C 0.30836 0.56363 0.84038
 C1294 C 0.32259 0.55891 0.81203
 C1295 C 0.32517 0.57974 0.79003
 O1296 O 0.31359 0.62494 0.77793
 C1297 C 0.29798 0.64193 0.79274
 C1298 C 0.28754 0.63210 0.82006
 C1299 C 0.26914 0.64605 0.83780
 C1300 C 0.26091 0.67088 0.82658
 C1301 C 0.27157 0.68157 0.79843
 C1302 C 0.29122 0.66703 0.78221
 H1303 H 0.28352 0.59109 0.86641
 H1304 H 0.30592 0.54807 0.85753
 H1305 H 0.33653 0.57740 0.76864
 H1306 H 0.26087 0.63783 0.85905
 H1307 H 0.24626 0.68167 0.83998
 H1308 H 0.30098 0.67468 0.76168
 C1309 C 0.29443 0.39416 0.69305
 C1310 C 0.30967 0.37804 0.67427
 C1311 C 0.33279 0.38638 0.66053
 C1312 C 0.34066 0.41228 0.66664
 C1313 C 0.32546 0.42929 0.68628
 C1314 C 0.30175 0.42004 0.69921
 O1315 O 0.27459 0.38174 0.70630
 C1316 C 0.27756 0.35716 0.69601
 C1317 C 0.29861 0.35389 0.67618
 C1318 C 0.30636 0.32937 0.66458
 C1319 C 0.29300 0.30723 0.67563
 C1320 C 0.27315 0.30983 0.69900
 C1321 C 0.26365 0.33542 0.70656
 H1322 H 0.34488 0.37309 0.64662
 H1323 H 0.35916 0.41862 0.65714
 H1324 H 0.28980 0.43231 0.71454
 H1325 H 0.32288 0.32720 0.64881
 H1326 H 0.29962 0.28797 0.66773
 H1327 H 0.24673 0.33848 0.72133
 C1328 C 0.79226 0.88472 0.17700
 C1329 C 0.76599 0.88793 0.18289
 C1330 C 0.75501 0.91164 0.19313
 C1331 C 0.77185 0.93264 0.19840
 C1332 C 0.79909 0.92995 0.19245
 C1333 C 0.80916 0.90587 0.18014
 O1334 O 0.79952 0.85960 0.17406
 C1335 C 0.77743 0.84672 0.17833
 C1336 C 0.75630 0.86321 0.18319
 C1337 C 0.73204 0.85408 0.19214
 C1338 C 0.72981 0.82708 0.19805
 C1339 C 0.75196 0.80971 0.19634
 C1340 C 0.77555 0.81972 0.18402
 H1341 H 0.73449 0.91337 0.19901
 H1342 H 0.76373 0.95090 0.20768
 H1343 H 0.82994 0.90260 0.17706
 H1344 H 0.71572 0.86746 0.19620
 H1345 H 0.71101 0.82030 0.20607
 H1346 H 0.79296 0.80799 0.18235
 C1347 C 0.68479 0.89161 0.77435
 C1348 C 0.70800 0.89336 0.79040
 C1349 C 0.71352 0.91493 0.80942
 C1350 C 0.69478 0.93559 0.81100
 C1351 C 0.67132 0.93428 0.79350
 C1352 C 0.66615 0.91172 0.77550
 O1353 O 0.68312 0.87012 0.75712
 C1354 C 0.70568 0.85799 0.76215
 C1355 C 0.72190 0.87109 0.78212
 C1356 C 0.74670 0.86117 0.78962
 C1357 C 0.75457 0.83662 0.77645
 C1358 C 0.73766 0.82265 0.75618
 C1359 C 0.71294 0.83411 0.74921
 H1360 H 0.73183 0.91619 0.82181
 H1361 H 0.69911 0.95316 0.82434
 H1362 H 0.64865 0.91049 0.76142
 H1363 H 0.75936 0.87173 0.80535
 H1364 H 0.77339 0.82826 0.78267
 H1365 H 0.69864 0.82427 0.73504
 C1366 C 0.17614 0.38416 0.29288
 C1367 C 0.19541 0.38142 0.31511
 C1368 C 0.19986 0.40061 0.33783
 C1369 C 0.18435 0.42375 0.33694
 C1370 C 0.16512 0.42732 0.31335
 C1371 C 0.16064 0.40688 0.29155
 O1372 O 0.17550 0.36431 0.27271
 C1373 C 0.19491 0.34875 0.28215
 C1374 C 0.20786 0.35821 0.30788
 C1375 C 0.22953 0.34523 0.32050
 C1376 C 0.23796 0.32154 0.30610
 C1377 C 0.22471 0.31129 0.27957
 C1378 C 0.20275 0.32537 0.26780
 H1379 H 0.21521 0.39820 0.35501
 H1380 H 0.18820 0.43943 0.35350
 H1381 H 0.14626 0.40912 0.27314
 H1382 H 0.23966 0.35309 0.34062
 H1383 H 0.25468 0.31120 0.31583
 H1384 H 0.19157 0.31838 0.24812
 C1385 C 0.12299 0.26549 0.81337
 C1386 C 0.11653 0.26382 0.78205
 C1387 C 0.09077 0.26459 0.77184
 C1388 C 0.07104 0.26715 0.79482
 C1389 C 0.07737 0.26928 0.82718
 C1390 C 0.10377 0.26850 0.83647
 O1391 O 0.14845 0.26401 0.81833
 C1392 C 0.15831 0.26149 0.78959
 C1393 C 0.13977 0.26142 0.76642
 C1394 C 0.14630 0.25970 0.73461
 C1395 C 0.17298 0.25804 0.72650
 C1396 C 0.19247 0.25739 0.75014
 C1397 C 0.18465 0.25935 0.78217
 H1398 H 0.08603 0.26315 0.74714
 H1399 H 0.05085 0.26775 0.78748
 H1400 H 0.10914 0.26982 0.86100
 H1401 H 0.13142 0.26002 0.71666
 H1402 H 0.17841 0.25721 0.70189
 H1403 H 0.19854 0.25929 0.80121
 C1404 C 0.61551 0.76473 0.30619
 C1405 C 0.60901 0.75863 0.27569
 C1406 C 0.58340 0.76027 0.26499
 C1407 C 0.56391 0.76826 0.28663
 C1408 C 0.57039 0.77489 0.31808
 C1409 C 0.59663 0.77313 0.32780
 O1410 O 0.64078 0.76228 0.31184
 C1411 C 0.65054 0.75467 0.28435
 C1412 C 0.63214 0.75216 0.26124
 C1413 C 0.63889 0.74565 0.23032
 C1414 C 0.66566 0.74252 0.22289
 C1415 C 0.68498 0.74574 0.24635
 C1416 C 0.67684 0.75103 0.27774
 H1417 H 0.57857 0.75548 0.24093
 H1418 H 0.54382 0.76942 0.27895
 H1419 H 0.60213 0.77771 0.35172
 H1420 H 0.62417 0.74397 0.21231
 H1421 H 0.67131 0.73861 0.19876
 H1422 H 0.69050 0.75376 0.29669
 C1423 C 0.61972 0.24530 0.19173
 C1424 C 0.61288 0.25102 0.22234
 C1425 C 0.58699 0.25333 0.23212
 C1426 C 0.56747 0.24909 0.20961
 C1427 C 0.57412 0.24223 0.17818
 C1428 C 0.60068 0.24074 0.16911
 O1429 O 0.64527 0.24271 0.18748
 C1430 C 0.65478 0.24664 0.21602
 C1431 C 0.63589 0.25162 0.23831
 C1432 C 0.64168 0.25398 0.27011
 C1433 C 0.66792 0.25084 0.27923
 C1434 C 0.68797 0.24595 0.25669
 C1435 C 0.68090 0.24418 0.22444
 H1436 H 0.58199 0.25753 0.25638
 H1437 H 0.54723 0.24986 0.21699
 H1438 H 0.60634 0.23519 0.14542
 H1439 H 0.62645 0.25724 0.28744
 H1440 H 0.67228 0.25176 0.30385
 H1441 H 0.69502 0.23976 0.20615
 C1442 C 0.11843 0.75453 0.71285
 C1443 C 0.11492 0.74245 0.74152
 C1444 C 0.09201 0.72983 0.74982
 C1445 C 0.07211 0.72907 0.72740
 C1446 C 0.07553 0.74059 0.69735
 C1447 C 0.09880 0.75397 0.69011
 O1448 O 0.14252 0.76326 0.70872
 C1449 C 0.15448 0.75630 0.73517
 C1450 C 0.13849 0.74336 0.75586
 C1451 C 0.14775 0.73106 0.78281
 C1452 C 0.17458 0.73209 0.78871
 C1453 C 0.19162 0.74641 0.76871
 C1454 C 0.18111 0.75849 0.74127
 H1455 H 0.08992 0.72000 0.77226
 H1456 H 0.05451 0.71836 0.73277
 H1457 H 0.10216 0.76201 0.66689
 H1458 H 0.13502 0.71968 0.79779
 H1459 H 0.18203 0.72062 0.80822
 H1460 H 0.19347 0.76802 0.72413
 C1461 C 0.88549 0.75206 0.67813
 C1462 C 0.86966 0.74894 0.65249
 C1463 C 0.87809 0.75254 0.62175
 C1464 C 0.90399 0.75982 0.61709
 C1465 C 0.92128 0.76213 0.64288
 C1466 C 0.91200 0.75753 0.67392
 O1467 O 0.87236 0.75168 0.70528
 C1468 C 0.84779 0.74800 0.69639
 C1469 C 0.84547 0.74564 0.66436
 C1470 C 0.82183 0.74325 0.64935
 C1471 C 0.79938 0.74389 0.66787
 C1472 C 0.80047 0.74715 0.70120
 C1473 C 0.82538 0.74917 0.71556
 H1474 H 0.86489 0.75092 0.60209
 H1475 H 0.91074 0.76321 0.59326
 H1476 H 0.92447 0.76018 0.69410
 H1477 H 0.82061 0.74195 0.62399
 H1478 H 0.78117 0.74344 0.65530
 H1479 H 0.82720 0.75288 0.74051
 C1480 C 0.37464 0.25868 0.17906
 C1481 C 0.37932 0.25734 0.21087
 C1482 C 0.40418 0.25977 0.22341
 C1483 C 0.42502 0.26352 0.20234
 C1484 C 0.42064 0.26522 0.16945
 C1485 C 0.39501 0.26290 0.15774
 O1486 O 0.34965 0.25592 0.17196
 C1487 C 0.33831 0.25290 0.19985
 C1488 C 0.35550 0.25376 0.22446
 C1489 C 0.34742 0.25226 0.25570
 C1490 C 0.32053 0.25017 0.26178
 C1491 C 0.30226 0.24874 0.23680
 C1492 C 0.31166 0.25014 0.20531
 H1493 H 0.40745 0.25870 0.24850
 H1494 H 0.44455 0.26534 0.21158
 H1495 H 0.39113 0.26396 0.13276
 H1496 H 0.36125 0.25346 0.27476
 H1497 H 0.31395 0.25005 0.28600
 H1498 H 0.29865 0.24986 0.18538
 C1499 C 0.38236 0.74866 0.31446
 C1500 C 0.38742 0.73605 0.28640
 C1501 C 0.41112 0.72354 0.27963
 C1502 C 0.43048 0.72410 0.30274
 C1503 C 0.42568 0.73674 0.33191
 C1504 C 0.40135 0.74930 0.33791
 O1505 O 0.35807 0.75806 0.31662
 C1506 C 0.34757 0.75110 0.28939
 C1507 C 0.36476 0.73757 0.27020
 C1508 C 0.35743 0.72624 0.24204
 C1509 C 0.33120 0.72848 0.23347
 C1510 C 0.31279 0.74283 0.25229
 C1511 C 0.32143 0.75434 0.28080
 H1512 H 0.41448 0.71348 0.25750
 H1513 H 0.44912 0.71447 0.29817
 H1514 H 0.39731 0.75890 0.36019
 H1515 H 0.37114 0.71480 0.22796
 H1516 H 0.32527 0.71773 0.21283
 H1517 H 0.30796 0.76420 0.29675
 C1518 C 0.88565 0.23280 0.81816
 C1519 C 0.89156 0.24057 0.78801
 C1520 C 0.91703 0.24216 0.77690
 C1521 C 0.93723 0.23587 0.79788
 C1522 C 0.93168 0.22814 0.82931
 C1523 C 0.90541 0.22638 0.83939
 O1524 O 0.86020 0.23202 0.82381
 C1525 C 0.84984 0.23942 0.79661
 C1526 C 0.86814 0.24493 0.77398
 C1527 C 0.86144 0.25223 0.74359
 C1528 C 0.83484 0.25310 0.73597
 C1529 C 0.81536 0.24694 0.75857
 C1530 C 0.82333 0.24056 0.78968
 H1531 H 0.92121 0.24804 0.75296
 H1532 H 0.95720 0.23701 0.78966
 H1533 H 0.90049 0.22078 0.86322
 H1534 H 0.87620 0.25649 0.72610
 H1535 H 0.82979 0.25810 0.71231
 H1536 H 0.80950 0.23526 0.80781
 C1537 C 0.60035 0.99103 0.60284
 C1538 C 0.61706 0.99463 0.57795
 C1539 C 0.64302 1.00110 0.58148
 C1540 C 0.65217 1.00484 0.61195
 C1541 C 0.63527 1.00287 0.63856
 C1542 C 0.60914 0.99448 0.63377
 O1543 O 0.57570 0.98800 0.59379
 C1544 C 0.57703 0.99009 0.56258
 C1545 C 0.60198 0.99430 0.55201
 C1546 C 0.60762 1.00211 0.52163
 C1547 C 0.58675 1.00604 0.50127
 C1548 C 0.56066 1.00022 0.51026
 C1549 C 0.55588 0.99208 0.54179
 H1550 H 0.65563 1.00409 0.56135
 H1551 H 0.67258 1.00949 0.61455
 H1552 H 0.59530 0.99338 0.65302
 H1553 H 0.62721 1.00730 0.51462
 H1554 H 0.59122 1.01552 0.47927
 H1555 H 0.53620 0.98967 0.55058
 C1556 C 0.10016 0.50423 1.11031
 C1557 C 0.09308 0.47822 1.10848
 C1558 C 0.10028 0.45976 1.13113
 C1559 C 0.11523 0.46853 1.15664
 C1560 C 0.12234 0.49548 1.15936
 C1561 C 0.11462 0.51342 1.13554
 O1562 O 0.09110 0.51878 1.08684
 C1563 C 0.07792 0.50166 1.06985
 C1564 C 0.07829 0.47660 1.08199
 C1565 C 0.06441 0.45617 1.06845
 C1566 C 0.04946 0.46195 1.04154
 C1567 C 0.04896 0.48766 1.02825
 C1568 C 0.06378 0.50762 1.04300
 H1569 H 0.09459 0.43936 1.12927
 H1570 H 0.12130 0.45425 1.17413
 H1571 H 0.11903 0.53419 1.13692
 H1572 H 0.06459 0.43661 1.07862
 H1573 H 0.03837 0.44634 1.03148
 H1574 H 0.06381 0.52778 1.03473
 C1575 C -0.11085 -0.00142 1.12034
 C1576 C -0.09090 0.01293 1.13270
 C1577 C -0.08734 0.01570 1.16481
 C1578 C -0.10532 0.00362 1.18499
 C1579 C -0.12690 -0.01089 1.17309
 C1580 C -0.12924 -0.01323 1.13981
 O1581 O -0.10924 -0.00410 1.08937
 C1582 C -0.08770 0.00877 1.08206
 C1583 C -0.07587 0.01984 1.10766
 C1584 C -0.05183 0.03208 1.10571
 C1585 C -0.03879 0.03153 1.07661
 C1586 C -0.04976 0.01862 1.05018
 C1587 C -0.07525 0.00824 1.05291
 H1588 H -0.07080 0.02613 1.17409
 H1589 H -0.10133 0.00493 1.20982
 H1590 H -0.14509 -0.02340 1.12870
 H1591 H -0.04266 0.04023 1.12633
 H1592 H -0.01918 0.03905 1.07572
 H1593 H -0.08401 -0.00276 1.03400
 C1594 C 0.39195 0.51786 0.60666
 C1595 C 0.41067 0.53416 0.61846
 C1596 C 0.41247 0.53988 0.65022
 C1597 C 0.39464 0.52797 0.67071
 C1598 C 0.37517 0.51036 0.65945
 C1599 C 0.37370 0.50616 0.62641
 O1600 O 0.39549 0.51220 0.57652
 C1601 C 0.41710 0.52492 0.56925
 C1602 C 0.42713 0.53886 0.59397
 C1603 C 0.45139 0.55077 0.59254
 C1604 C 0.46632 0.54725 0.56502
 C1605 C 0.45686 0.53198 0.53960
 C1606 C 0.43136 0.52155 0.54166
 H1607 H 0.42799 0.55196 0.65920
 H1608 H 0.39777 0.53119 0.69549
 H1609 H 0.35928 0.49369 0.61584
 H1610 H 0.45928 0.56095 0.61265
 H1611 H 0.48592 0.55477 0.56469
 H1612 H 0.42360 0.50896 0.52353
 C1613 C 0.39354 0.47777 -0.10313
 C1614 C 0.41409 0.46298 -0.11478
 C1615 C 0.41589 0.45562 -0.14615
 C1616 C 0.39619 0.46453 -0.16650
 C1617 C 0.37474 0.48020 -0.15529
 C1618 C 0.37315 0.48585 -0.12262
 O1619 O 0.39726 0.48589 -0.07388
 C1620 C 0.42069 0.47612 -0.06700
 C1621 C 0.43173 0.46166 -0.09105
 C1622 C 0.45723 0.45198 -0.08998
 C1623 C 0.47208 0.45780 -0.06328
 C1624 C 0.46139 0.47320 -0.03827
 C1625 C 0.43512 0.48229 -0.04045
 H1626 H 0.43273 0.44482 -0.15507
 H1627 H 0.39888 0.46048 -0.19125
 H1628 H 0.35738 0.49756 -0.11264
 H1629 H 0.46580 0.44137 -0.10965
 H1630 H 0.49233 0.45159 -0.06322
 H1631 H 0.42651 0.49529 -0.02296
 C1632 C -0.10380 0.99912 0.39165
 C1633 C -0.10298 0.97340 0.40202
 C1634 C -0.11821 0.95383 0.38877
 C1635 C -0.13490 0.96117 0.36400
 C1636 C -0.13630 0.98771 0.35346
 C1637 C -0.12045 1.00687 0.36750
 O1638 O -0.08798 1.01476 0.40722
 C1639 C -0.07700 0.99867 0.42798
 C1640 C -0.08549 0.97319 0.42607
 C1641 C -0.07695 0.95358 0.44667
 C1642 C -0.05906 0.96063 0.47015
 C1643 C -0.04985 0.98686 0.47249
 C1644 C -0.05911 1.00593 0.45061
 H1645 H -0.11734 0.93372 0.39724
 H1646 H -0.14713 0.94638 0.35346
 H1647 H -0.12106 1.02723 0.35982
 H1648 H -0.08417 0.93368 0.44511
 H1649 H -0.05306 0.94567 0.48660
 H1650 H -0.05313 1.02630 0.45137
 C1651 C 0.10685 0.51321 0.41116
 C1652 C 0.08727 0.53101 0.40396
 C1653 C 0.08150 0.53804 0.37317
 C1654 C 0.09623 0.52608 0.34896
 C1655 C 0.11667 0.50758 0.35569
 C1656 C 0.12230 0.50177 0.38759
 O1657 O 0.10668 0.50597 0.44108
 C1658 C 0.08652 0.51933 0.45303
 C1659 C 0.07413 0.53528 0.43151
 C1660 C 0.05075 0.54849 0.43828
 C1661 C 0.03896 0.54387 0.46769
 C1662 C 0.05028 0.52570 0.48932
 C1663 C 0.07520 0.51450 0.48219
 H1664 H 0.06528 0.55118 0.36785
 H1665 H 0.09065 0.53040 0.32502
 H1666 H 0.13749 0.48785 0.39416
 H1667 H 0.04103 0.56054 0.42077
 H1668 H 0.01990 0.55255 0.47220
 H1669 H 0.08418 0.49966 0.49702
 C1670 C 0.60257 0.01013 -0.10660
 C1671 C 0.58278 0.02788 -0.11289
 C1672 C 0.57667 0.03565 -0.14332
 C1673 C 0.59143 0.02463 -0.16814
 C1674 C 0.61245 0.00649 -0.16238
 C1675 C 0.61815 -0.00025 -0.13069
 O1676 O 0.60287 0.00222 -0.07690
 C1677 C 0.58281 0.01520 -0.06416
 C1678 C 0.57007 0.03156 -0.08495
 C1679 C 0.54706 0.04501 -0.07709
 C1680 C 0.53605 0.04031 -0.04727
 C1681 C 0.54771 0.02179 -0.02632
 C1682 C 0.57215 0.01011 -0.03469
 H1683 H 0.56029 0.04878 -0.14792
 H1684 H 0.58553 0.02961 -0.19178
 H1685 H 0.63377 -0.01375 -0.12451
 H1686 H 0.53712 0.05749 -0.09398
 H1687 H 0.51733 0.04938 -0.04179
 H1688 H 0.58132 -0.00496 -0.02032
 C1689 C 0.63434 0.54719 -0.00344
 C1690 C 0.62464 0.54982 -0.03335
 C1691 C 0.63787 0.56353 -0.05678
 C1692 C 0.66170 0.57533 -0.04883
 C1693 C 0.67116 0.57448 -0.01739
 C1694 C 0.65719 0.55965 0.00530
 O1695 O 0.61908 0.53348 0.01552
 C1696 C 0.59896 0.52775 -0.00254
 C1697 C 0.60106 0.53758 -0.03252
 C1698 C 0.58080 0.53588 -0.05407
 C1699 C 0.55730 0.52449 -0.04384
 C1700 C 0.55457 0.51458 -0.01265
 C1701 C 0.57651 0.51504 0.00735
 H1702 H 0.63000 0.56533 -0.08025
 H1703 H 0.67177 0.58656 -0.06668
 H1704 H 0.66397 0.55760 0.02926
 H1705 H 0.58253 0.54417 -0.07742
 H1706 H 0.54104 0.52438 -0.05994
 H1707 H 0.57605 0.50688 0.03058
 C1708 C 0.12815 1.04419 0.51114
 C1709 C 0.11732 1.05330 0.48360
 C1710 C 0.13086 1.06928 0.46265
 C1711 C 0.15629 1.07668 0.47087
 C1712 C 0.16732 1.06839 0.49979
 C1713 C 0.15320 1.05143 0.51979
 O1714 O 0.11176 1.03042 0.52862
 C1715 C 0.08997 1.03105 0.51200
 C1716 C 0.09220 1.04487 0.48434
 C1717 C 0.07107 1.04953 0.46466
 C1718 C 0.04666 1.03997 0.47416
 C1719 C 0.04372 1.02604 0.50302
 C1720 C 0.06611 1.02084 0.52145
 H1721 H 0.12188 1.07646 0.44127
 H1722 H 0.16683 1.08994 0.45561
 H1723 H 0.16105 1.04511 0.54220
 H1724 H 0.07311 1.06084 0.44323
 H1725 H 0.03000 1.04425 0.45941
 H1726 H 0.06513 1.00976 0.54300
 C1727 C 0.12192 -0.06144 1.01625
 C1728 C 0.12374 -0.03621 1.02773
 C1729 C 0.14755 -0.02384 1.03172
 C1730 C 0.17029 -0.03795 1.02308
 C1731 C 0.16883 -0.06396 1.01083
 C1732 C 0.14416 -0.07597 1.00829
 O1733 O 0.09761 -0.06874 1.01111
 C1734 C 0.08371 -0.04764 1.01943
 C1735 C 0.09867 -0.02723 1.03003
 C1736 C 0.08811 -0.00262 1.03749
 C1737 C 0.06121 0.00128 1.03303
 C1738 C 0.04547 -0.01920 1.02081
 C1739 C 0.05707 -0.04420 1.01477
 H1740 H 0.14852 -0.00369 1.03999
 H1741 H 0.18886 -0.02818 1.02475
 H1742 H 0.14212 -0.09579 0.99929
 H1743 H 0.10028 0.01333 1.04527
 H1744 H 0.05307 0.02073 1.03756
 H1745 H 0.04645 -0.06001 1.00417
 C1746 C 0.62607 0.44258 0.50303
 C1747 C 0.62916 0.46641 0.51768
 C1748 C 0.65361 0.47619 0.52480
 C1749 C 0.67567 0.46082 0.51641
 C1750 C 0.67318 0.43588 0.50106
 C1751 C 0.64749 0.42683 0.49502
 O1752 O 0.60146 0.43737 0.49639
 C1753 C 0.58865 0.45845 0.50702
 C1754 C 0.60456 0.47678 0.52052
 C1755 C 0.59505 0.50087 0.53169
 C1756 C 0.56828 0.50651 0.52789
 C1757 C 0.55162 0.48826 0.51280
 C1758 C 0.56219 0.46363 0.50295
 H1759 H 0.65570 0.49533 0.53568
 H1760 H 0.69452 0.46929 0.52074
 H1761 H 0.64359 0.40781 0.48484
 H1762 H 0.60791 0.51520 0.54197
 H1763 H 0.56096 0.52566 0.53529
 H1764 H 0.55078 0.44945 0.49029
 C1765 C -0.11932 0.44284 0.50915
 C1766 C -0.12244 0.46943 0.50374
 C1767 C -0.14699 0.48156 0.50240
 C1768 C -0.16901 0.46570 0.50733
 C1769 C -0.16608 0.43828 0.51359
 C1770 C -0.14075 0.42678 0.51361
 O1771 O -0.09466 0.43529 0.51225
 C1772 C -0.08179 0.45754 0.50880
 C1773 C -0.09769 0.47909 0.50339
 C1774 C -0.08799 0.50456 0.50156
 C1775 C -0.06103 0.50787 0.50624
 C1776 C -0.04438 0.48591 0.51300
 C1777 C -0.05521 0.46037 0.51350
 H1778 H -0.14910 0.50261 0.49876
 H1779 H -0.18817 0.47496 0.50759
 H1780 H -0.13762 0.40597 0.51810
 H1781 H -0.10084 0.52138 0.49781
 H1782 H -0.05348 0.52769 0.50609
 H1783 H -0.04411 0.44314 0.52023
 C1784 C 0.37735 -0.05631 0.00611
 C1785 C 0.37444 -0.02970 0.00051
 C1786 C 0.35011 -0.01709 0.00104
 C1787 C 0.32816 -0.03249 0.00803
 C1788 C 0.33101 -0.05987 0.01451
 C1789 C 0.35599 -0.07188 0.01274
 O1790 O 0.40194 -0.06435 0.00727
 C1791 C 0.41498 -0.04242 0.00242
 C1792 C 0.39929 -0.02057 -0.00201
 C1793 C 0.40945 0.00468 -0.00472
 C1794 C 0.43669 0.00737 -0.00202
 C1795 C 0.45312 -0.01498 0.00369
 C1796 C 0.44171 -0.04017 0.00519
 H1797 H 0.34817 0.00395 -0.00279
 H1798 H 0.30918 -0.02292 0.00960
 H1799 H 0.35892 -0.09269 0.01748
 H1800 H 0.39681 0.02179 -0.00753
 H1801 H 0.44470 0.02699 -0.00277
 H1802 H 0.45252 -0.05761 0.01152
 C1803 C 0.38148 1.07458 0.49318
 C1804 C 0.38208 1.05181 0.51072
 C1805 C 0.35946 1.03908 0.52007
 C1806 C 0.33537 1.05003 0.51059
 C1807 C 0.33422 1.07342 0.49216
 C1808 C 0.35784 1.08612 0.48418
 O1809 O 0.40491 1.08216 0.48385
 C1810 C 0.42070 1.06374 0.49559
 C1811 C 0.40782 1.04482 0.51248
 C1812 C 0.42050 1.02259 0.52449
 C1813 C 0.44724 1.01924 0.51769
 C1814 C 0.46073 1.03783 0.49881
 C1815 C 0.44717 1.06090 0.48878
 H1816 H 0.36034 1.02079 0.53316
 H1817 H 0.31775 1.03963 0.51655
 H1818 H 0.35803 1.10407 0.47046
 H1819 H 0.40994 1.00770 0.53735
 H1820 H 0.45687 1.00132 0.52555
 H1821 H 0.45617 1.07529 0.47368
 C1822 C -0.12110 0.56834 0.97444
 C1823 C -0.12383 0.54559 0.99160
 C1824 C -0.14816 0.53555 0.99938
 C1825 C -0.17047 0.54944 0.98887
 C1826 C -0.16816 0.57304 0.97104
 C1827 C -0.14288 0.58268 0.96434
 O1828 O -0.09648 0.57379 0.96774
 C1829 C -0.08330 0.55405 0.98095
 C1830 C -0.09899 0.53631 0.99606
 C1831 C -0.08904 0.51359 1.01022
 C1832 C -0.06199 0.50868 1.00795
 C1833 C -0.04539 0.52625 0.99144
 C1834 C -0.05653 0.54955 0.97839
 H1835 H -0.14993 0.51734 1.01242
 H1836 H -0.18945 0.54136 0.99392
 H1837 H -0.14003 0.60074 0.95132
 H1838 H -0.10172 0.49971 1.02178
 H1839 H -0.05430 0.49053 1.01784
 H1840 H -0.04512 0.56324 0.96484
 C1841 C 0.02740 0.63517 0.59660
 C1842 C 0.03704 0.61796 0.61868
 C1843 C 0.04540 0.62560 0.64818
 C1844 C 0.04433 0.65240 0.65532
 C1845 C 0.03556 0.67123 0.63288
 C1846 C 0.02646 0.66238 0.60311
 O1847 O 0.01985 0.62297 0.57035
 C1848 C 0.02505 0.59755 0.57626
 C1849 C 0.03575 0.59391 0.60551
 C1850 C 0.04305 0.56963 0.61726
 C1851 C 0.03878 0.54779 0.59850
 C1852 C 0.02710 0.55000 0.56810
 C1853 C 0.02032 0.57561 0.55671
 H1854 H 0.05236 0.61136 0.66526
 H1855 H 0.05030 0.65841 0.67859
 H1856 H 0.01943 0.67616 0.58556
 H1857 H 0.05167 0.56751 0.64032
 H1858 H 0.04470 0.52902 0.60838
 H1859 H 0.01133 0.57825 0.53394
 C1860 C 0.52752 0.13298 0.08059
 C1861 C 0.53967 0.11635 0.10152
 C1862 C 0.54963 0.12454 0.13005
 C1863 C 0.54742 0.15127 0.13741
 C1864 C 0.53575 0.16951 0.11618
 C1865 C 0.52527 0.16009 0.08737
 O1866 O 0.51866 0.12031 0.05531
 C1867 C 0.52551 0.09518 0.06066
 C1868 C 0.53849 0.09213 0.08863
 C1869 C 0.54710 0.06809 0.09993
 C1870 C 0.54185 0.04590 0.08207
 C1871 C 0.52827 0.04760 0.05284
 C1872 C 0.52008 0.07295 0.04192
 H1873 H 0.55857 0.11075 0.14633
 H1874 H 0.55458 0.15765 0.16002
 H1875 H 0.51600 0.17337 0.07079
 H1876 H 0.55714 0.06636 0.12218
 H1877 H 0.54830 0.02724 0.09180
 H1878 H 0.50931 0.07516 0.02024
 C1879 C -0.03250 0.12989 0.92961
 C1880 C -0.02621 0.13458 0.96049
 C1881 C -0.02067 0.15965 0.97169
 C1882 C -0.02149 0.18068 0.95017
 C1883 C -0.02782 0.17639 0.91812
 C1884 C -0.03368 0.15056 0.90788
 O1885 O -0.03559 0.10447 0.92335
 C1886 C -0.03112 0.09287 0.95084
 C1887 C -0.02539 0.11039 0.97437
 C1888 C -0.01879 0.10229 1.00458
 C1889 C -0.01759 0.07505 1.01062
 C1890 C -0.02291 0.05642 0.98662
 C1891 C -0.03020 0.06574 0.95637
 H1892 H -0.01546 0.16286 0.99600
 H1893 H -0.01709 0.20031 0.95843
 H1894 H -0.03806 0.14652 0.88349
 H1895 H -0.01402 0.11641 1.02266
 H1896 H -0.01162 0.06863 1.03373
 H1897 H -0.03416 0.05234 0.93723
 C1898 C 0.47017 0.64486 0.43055
 C1899 C 0.48028 0.64865 0.46007
 C1900 C 0.48600 0.67358 0.47163
 C1901 C 0.48144 0.69535 0.45180
 C1902 C 0.47129 0.69187 0.42107
 C1903 C 0.46532 0.66616 0.41061
 O1904 O 0.46724 0.61963 0.42335
 C1905 C 0.47568 0.60719 0.44884
 C1906 C 0.48386 0.62395 0.47206
 C1907 C 0.49452 0.61484 0.50012
 C1908 C 0.49675 0.58739 0.50439
 C1909 C 0.48827 0.56961 0.48085
 C1910 C 0.47771 0.57996 0.45258
 H1911 H 0.49414 0.67614 0.49484
 H1912 H 0.48604 0.71487 0.46024
 H1913 H 0.45820 0.66266 0.38708
 H1914 H 0.50130 0.62836 0.51787
 H1915 H 0.50560 0.58018 0.52578
 H1916 H 0.47158 0.56727 0.43363
 C1917 C 0.53302 0.88180 0.40864
 C1918 C 0.53211 0.87928 0.44085
 C1919 C 0.53266 0.85486 0.45579
 C1920 C 0.53377 0.83219 0.43677
 C1921 C 0.53466 0.83429 0.40351
 C1922 C 0.53466 0.85952 0.38931
 O1923 O 0.53104 0.90667 0.39909
 C1924 C 0.52887 0.92013 0.42580
 C1925 C 0.52953 0.90437 0.45205
 C1926 C 0.52712 0.91452 0.48237
 C1927 C 0.52409 0.94200 0.48576
 C1928 C 0.52320 0.95877 0.45902
 C1929 C 0.52551 0.94738 0.42857
 H1930 H 0.53168 0.85330 0.48114
 H1931 H 0.53359 0.81297 0.44785
 H1932 H 0.53477 0.86166 0.36398
 H1933 H 0.52749 0.90171 0.50271
 H1934 H 0.52230 0.95010 0.50922
 H1935 H 0.52492 0.95930 0.40748
 C1936 C 0.03770 0.36693 0.92360
 C1937 C 0.02506 0.36471 0.95203
 C1938 C 0.01711 0.34063 0.96404
 C1939 C 0.02191 0.31800 0.94573
 C1940 C 0.03389 0.31977 0.91555
 C1941 C 0.04231 0.34475 0.90477
 O1942 O 0.04301 0.39170 0.91608
 C1943 C 0.03335 0.40541 0.94020
 C1944 C 0.02191 0.38987 0.96267
 C1945 C 0.00857 0.40037 0.98844
 C1946 C 0.00709 0.42796 0.99121
 C1947 C 0.01982 0.44457 0.96918
 C1948 C 0.03284 0.43282 0.94303
 H1949 H 0.00730 0.33932 0.98657
 H1950 H 0.01589 0.29916 0.95499
 H1951 H 0.05099 0.34720 0.88173
 H1952 H -0.00108 0.38778 1.00528
 H1953 H -0.00400 0.43627 1.01064
 H1954 H 0.04158 0.44458 0.92468
 C1955 C 0.46758 0.36306 0.07503
 C1956 C 0.47621 0.35851 0.04479
 C1957 C 0.47980 0.33326 0.03260
 C1958 C 0.47484 0.31185 0.05259
 C1959 C 0.46637 0.31598 0.08407
 C1960 C 0.46219 0.34202 0.09519
 O1961 O 0.46688 0.38848 0.08255
 C1962 C 0.47530 0.40020 0.05655
 C1963 C 0.48125 0.38278 0.03275
 C1964 C 0.49156 0.39078 0.00405
 C1965 C 0.49570 0.41785 -0.00041
 C1966 C 0.48937 0.43643 0.02355
 C1967 C 0.47925 0.42717 0.05262
 H1968 H 0.48686 0.33014 0.00885
 H1969 H 0.47821 0.29202 0.04385
 H1970 H 0.45638 0.34578 0.11930
 H1971 H 0.49657 0.37664 -0.01414
 H1972 H 0.50416 0.42411 -0.02241
 H1973 H 0.47453 0.44050 0.07176
 C1974 C -0.02389 0.87003 0.58367
 C1975 C -0.01322 0.86757 0.55405
 C1976 C -0.00450 0.84349 0.54188
 C1977 C -0.00715 0.82104 0.56094
 C1978 C -0.01869 0.82313 0.59119
 C1979 C -0.02711 0.84797 0.60272
 O1980 O -0.03027 0.89470 0.59115
 C1981 C -0.02364 0.90810 0.56563
 C1982 C -0.01334 0.89243 0.54215
 C1983 C -0.00524 0.90249 0.51340
 C1984 C -0.00763 0.92981 0.50877
 C1985 C -0.01803 0.94661 0.53273
 C1986 C -0.02582 0.93531 0.56175
 H1987 H 0.00403 0.84205 0.51860
 H1988 H -0.00077 0.80200 0.55200
 H1989 H -0.03587 0.84999 0.62584
 H1990 H 0.00283 0.88977 0.49525
 H1991 H -0.00109 0.93779 0.48655
 H1992 H -0.03333 0.94730 0.58091
 C1993 C 0.23468 0.36433 0.13624
 C1994 C 0.21762 0.34648 0.12397
 C1995 C 0.21149 0.34579 0.09234
 C1996 C 0.22361 0.36396 0.07244
 C1997 C 0.24178 0.38277 0.08411
 C1998 C 0.24672 0.38292 0.11704
 O1999 O 0.24034 0.35965 0.16613
 C2000 C 0.22679 0.33823 0.17267
 C2001 C 0.21242 0.32942 0.14775
 C2002 C 0.19954 0.30546 0.14820
 C2003 C 0.20247 0.28946 0.17494
 C2004 C 0.21800 0.29764 0.20064
 C2005 C 0.22947 0.32297 0.19963
 H2006 H 0.19880 0.33087 0.08295
 H2007 H 0.21993 0.36154 0.04766
 H2008 H 0.25987 0.39662 0.12786
 H2009 H 0.18907 0.29851 0.12786
 H2010 H 0.19427 0.26997 0.17435
 H2011 H 0.24230 0.32971 0.21798
 C2012 C 0.73270 0.86050 0.61306
 C2013 C 0.71824 0.84011 0.60133
 C2014 C 0.71478 0.83669 0.56913
 C2015 C 0.72652 0.85496 0.54859
 C2016 C 0.74131 0.87639 0.56036
 C2017 C 0.74391 0.87909 0.59331
 O2018 O 0.73652 0.85887 0.64368
 C2019 C 0.72422 0.83709 0.65165
 C2020 C 0.71228 0.82485 0.62697
 C2021 C 0.70025 0.80047 0.63051
 C2022 C 0.70181 0.78783 0.66015
 C2023 C 0.71604 0.79921 0.68528
 C2024 C 0.72651 0.82476 0.68052
 H2025 H 0.70415 0.82008 0.56007
 H2026 H 0.72459 0.85183 0.52356
 H2027 H 0.75471 0.89503 0.60367
 H2028 H 0.69123 0.79083 0.61073
 H2029 H 0.69417 0.76814 0.66246
 H2030 H 0.73951 0.83376 0.69707
 C2031 C 0.26572 0.63649 0.65109
 C2032 C 0.27841 0.65787 0.63886
 C2033 C 0.28313 0.66084 0.60695
 C2034 C 0.27416 0.64116 0.58676
 C2035 C 0.26124 0.61846 0.59861
 C2036 C 0.25760 0.61610 0.63162
 O2037 O 0.26011 0.63910 0.68142
 C2038 C 0.26947 0.66263 0.68841
 C2039 C 0.28119 0.67477 0.66331
 C2040 C 0.29030 0.70039 0.66470
 C2041 C 0.28682 0.71424 0.69297
 C2042 C 0.27429 0.70245 0.71927
 C2043 C 0.26551 0.67612 0.71656
 H2044 H 0.29218 0.67838 0.59771
 H2045 H 0.27633 0.64458 0.56183
 H2046 H 0.24792 0.59945 0.64210
 H2047 H 0.29875 0.70981 0.64429
 H2048 H 0.29246 0.73469 0.69340
 H2049 H 0.25445 0.66681 0.73512
 C2050 C 0.76536 0.12945 0.15002
 C2051 C 0.77856 0.15084 0.13881
 C2052 C 0.78380 0.15449 0.10718
 C2053 C 0.77467 0.13561 0.08607
 C2054 C 0.76034 0.11319 0.09659
 C2055 C 0.75650 0.11007 0.12959
 O2056 O 0.75955 0.13132 0.18037
 C2057 C 0.76906 0.15457 0.18832
 C2058 C 0.78099 0.16726 0.16377
 C2059 C 0.78911 0.19319 0.16567
 C2060 C 0.78409 0.20682 0.19376
 C2061 C 0.77142 0.19440 0.21957
 C2062 C 0.76438 0.16759 0.21664
 H2063 H 0.79338 0.17204 0.09880
 H2064 H 0.77733 0.14009 0.06147
 H2065 H 0.74639 0.09352 0.13962
 H2066 H 0.79755 0.20310 0.14560
 H2067 H 0.78882 0.22753 0.19452
 H2068 H 0.75328 0.15762 0.23438
 C2069 C 0.73434 0.15155 0.87939
 C2070 C 0.71845 0.14038 0.85720
 C2071 C 0.70971 0.11455 0.85969
 C2072 C 0.71812 0.09961 0.88573
 C2073 C 0.73481 0.11082 0.90836
 C2074 C 0.74255 0.13724 0.90547
 O2075 O 0.74298 0.17504 0.87120
 C2076 C 0.73252 0.17886 0.84315
 C2077 C 0.71724 0.15838 0.83345
 C2078 C 0.70660 0.15737 0.80348
 C2079 C 0.71264 0.17783 0.78252
 C2080 C 0.72942 0.19860 0.79151
 C2081 C 0.73859 0.19936 0.82286
 H2082 H 0.69784 0.10586 0.84157
 H2083 H 0.71260 0.07914 0.88765
 H2084 H 0.75610 0.14578 0.92192
 H2085 H 0.69499 0.14087 0.79604
 H2086 H 0.70510 0.17667 0.75894
 H2087 H 0.75184 0.21432 0.83087
 C2088 C 0.23562 0.65229 0.38183
 C2089 C 0.21813 0.64125 0.36138
 C2090 C 0.20846 0.61593 0.36567
 C2091 C 0.21762 0.60135 0.39167
 C2092 C 0.23603 0.61236 0.41240
 C2093 C 0.24469 0.63831 0.40775
 O2094 O 0.24471 0.67518 0.37207
 C2095 C 0.23290 0.67874 0.34477
 C2096 C 0.21636 0.65868 0.33705
 C2097 C 0.20407 0.65746 0.30802
 C2098 C 0.20966 0.67724 0.28591
 C2099 C 0.22763 0.69753 0.29284
 C2100 C 0.23855 0.69854 0.32336
 H2101 H 0.19531 0.60728 0.34887
 H2102 H 0.21142 0.58120 0.39483
 H2103 H 0.25949 0.64666 0.42269
 H2104 H 0.19144 0.64130 0.30211
 H2105 H 0.20070 0.67601 0.26310
 H2106 H 0.25268 0.71317 0.32989
 C2107 C 0.76031 0.85672 0.35298
 C2108 C 0.77702 0.86536 0.32983
 C2109 C 0.78686 0.89088 0.32963
 C2110 C 0.77886 0.90805 0.35404
 C2111 C 0.76168 0.89916 0.37786
 C2112 C 0.75264 0.87312 0.37748
 O2113 O 0.75114 0.83292 0.34777
 C2114 C 0.76217 0.82623 0.32072
 C2115 C 0.77838 0.84513 0.30872
 C2116 C 0.79077 0.84221 0.27971
 C2117 C 0.78555 0.81934 0.26220
 C2118 C 0.76749 0.80042 0.27331
 C2119 C 0.75653 0.80377 0.30370
 H2120 H 0.79949 0.89757 0.31087
 H2121 H 0.78554 0.92821 0.35414
 H2122 H 0.73891 0.86625 0.39499
 H2123 H 0.80360 0.85719 0.27061
 H2124 H 0.79521 0.81683 0.23985
 H2125 H 0.74274 0.79011 0.31362
 C2126 C 0.27414 0.36597 0.84663
 C2127 C 0.29132 0.34677 0.85689
 C2128 C 0.29883 0.34489 0.88814
 C2129 C 0.28789 0.36312 0.90955
 C2130 C 0.27005 0.38328 0.89950
 C2131 C 0.26403 0.38500 0.86709
 O2132 O 0.26582 0.36189 0.81770
 C2133 C 0.27793 0.33968 0.80946
 C2134 C 0.29420 0.32974 0.83221
 C2135 C 0.30643 0.30511 0.82935
 C2136 C 0.30081 0.28985 0.80258
 C2137 C 0.28242 0.29895 0.77997
 C2138 C 0.27157 0.32462 0.78352
 H2139 H 0.31136 0.32892 0.89617
 H2140 H 0.29235 0.36028 0.93413
 H2141 H 0.25066 0.39976 0.85795
 H2142 H 0.31877 0.29733 0.84782
 H2143 H 0.30922 0.27020 0.80090
 H2144 H 0.25584 0.33174 0.76920
 C2145 C 0.80607 0.37228 0.76612
 C2146 C 0.77964 0.37507 0.77097
 C2147 C 0.76708 0.39963 0.77104
 C2148 C 0.78230 0.42197 0.76492
 C2149 C 0.80953 0.41933 0.75903
 C2150 C 0.82153 0.39408 0.76106
 O2151 O 0.81401 0.34745 0.76335
 C2152 C 0.79216 0.33414 0.76641
 C2153 C 0.77053 0.34995 0.77144
 C2154 C 0.74548 0.33988 0.77285
 C2155 C 0.74269 0.31260 0.76831
 C2156 C 0.76475 0.29600 0.76190
 C2157 C 0.78981 0.30723 0.76151
 H2158 H 0.74616 0.40142 0.77414
 H2159 H 0.77263 0.44103 0.76316
 H2160 H 0.84223 0.39112 0.75706
 H2161 H 0.72861 0.35264 0.77633
 H2162 H 0.72320 0.30471 0.76845
 H2163 H 0.80709 0.29613 0.75540
 C2164 C 0.30776 0.86899 0.25331
 C2165 C 0.28281 0.87241 0.26455
 C2166 C 0.27199 0.89731 0.27008
 C2167 C 0.28733 0.91943 0.26311
 C2168 C 0.31319 0.91645 0.25070
 C2169 C 0.32345 0.89038 0.24704
 O2170 O 0.31416 0.84408 0.24758
 C2171 C 0.29275 0.83135 0.25529
 C2172 C 0.27296 0.84757 0.26611
 C2173 C 0.24852 0.83800 0.27416
 C2174 C 0.24435 0.81077 0.27046
 C2175 C 0.26440 0.79378 0.25846
 C2176 C 0.28894 0.80458 0.25099
 H2177 H 0.25212 0.89968 0.27844
 H2178 H 0.27821 0.93865 0.26586
 H2179 H 0.34325 0.88623 0.23958
 H2180 H 0.23304 0.85107 0.28234
 H2181 H 0.22524 0.80322 0.27597
 H2182 H 0.30447 0.79304 0.24036
 C2183 C 0.19320 0.87365 0.76345
 C2184 C 0.21736 0.87634 0.74983
 C2185 C 0.22779 0.90093 0.74304
 C2186 C 0.21283 0.92352 0.75107
 C2187 C 0.18777 0.92115 0.76524
 C2188 C 0.17774 0.89558 0.77044
 O2189 O 0.18754 0.84896 0.77057
 C2190 C 0.20853 0.83562 0.76113
 C2191 C 0.22726 0.85127 0.74785
 C2192 C 0.25110 0.84113 0.73734
 C2193 C 0.25586 0.81392 0.74112
 C2194 C 0.23711 0.79746 0.75585
 C2195 C 0.21308 0.80883 0.76584
 H2196 H 0.24712 0.90269 0.73298
 H2197 H 0.22120 0.94272 0.74721
 H2198 H 0.15855 0.89252 0.78034
 H2199 H 0.26571 0.85377 0.72715
 H2200 H 0.27460 0.80602 0.73364
 H2201 H 0.19869 0.79770 0.77857
 C2202 C 0.69849 0.36899 0.25743
 C2203 C 0.72408 0.37068 0.24783
 C2204 C 0.73631 0.39482 0.24377
 C2205 C 0.72164 0.41791 0.25043
 C2206 C 0.69536 0.41631 0.26096
 C2207 C 0.68360 0.39141 0.26351
 O2208 O 0.69084 0.34461 0.26246
 C2209 C 0.71199 0.33043 0.25594
 C2210 C 0.73292 0.34519 0.24664
 C2211 C 0.75736 0.33388 0.24064
 C2212 C 0.76022 0.30643 0.24481
 C2213 C 0.73887 0.29099 0.25525
 C2214 C 0.71447 0.30354 0.26056
 H2215 H 0.75660 0.39582 0.23675
 H2216 H 0.73101 0.43684 0.24856
 H2217 H 0.66355 0.38935 0.27113
 H2218 H 0.77377 0.34580 0.23377
 H2219 H 0.77927 0.29748 0.24100
 H2220 H 0.69804 0.29341 0.27033
 C2221 C 0.69453 0.62393 0.26381
 C2222 C 0.72031 0.62122 0.27227
 C2223 C 0.73361 0.59711 0.27059
 C2224 C 0.71972 0.57514 0.25989
 C2225 C 0.69318 0.57778 0.25073
 C2226 C 0.68046 0.60254 0.25332
 O2227 O 0.68623 0.64867 0.26294
 C2228 C 0.70717 0.66203 0.27073
 C2229 C 0.72859 0.64635 0.27708
 C2230 C 0.75329 0.65676 0.28158
 C2231 C 0.75621 0.68410 0.27712
 C2232 C 0.73469 0.70015 0.26734
 C2233 C 0.70962 0.68890 0.26651
 H2234 H 0.75411 0.59543 0.27633
 H2235 H 0.72983 0.55632 0.25780
 H2236 H 0.66029 0.60533 0.24650
 H2237 H 0.77006 0.64410 0.28595
 H2238 H 0.77568 0.69203 0.27790
 H2239 H 0.69273 0.69924 0.25797
 C2240 C 0.19080 0.13101 0.76991
 C2241 C 0.21707 0.12650 0.77398
 C2242 C 0.22854 0.10157 0.77144
 C2243 C 0.21230 0.08039 0.76425
 C2244 C 0.18516 0.08448 0.75937
 C2245 C 0.17428 0.11023 0.76270
 O2246 O 0.18426 0.15647 0.77032
 C2247 C 0.20695 0.16829 0.77432
 C2248 C 0.22758 0.15081 0.77671
 C2249 C 0.25330 0.15882 0.77718
 C2250 C 0.25804 0.18571 0.77290
 C2251 C 0.23718 0.20420 0.76793
 C2252 C 0.21125 0.19535 0.77160
 H2253 H 0.24938 0.09864 0.77392
 H2254 H 0.22108 0.06100 0.76127
 H2255 H 0.15372 0.11411 0.75889
 H2256 H 0.26927 0.14467 0.77861
 H2257 H 0.27819 0.19160 0.77111
 H2258 H 0.19467 0.20842 0.76931
 C2259 C 0.29896 0.12378 0.22220
 C2260 C 0.27251 0.12000 0.22005
 C2261 C 0.26104 0.09584 0.22637
 C2262 C 0.27744 0.07486 0.23576
 C2263 C 0.30463 0.07856 0.23924
 C2264 C 0.31554 0.10325 0.23162
 O2265 O 0.30566 0.14877 0.21870
 C2266 C 0.28295 0.16119 0.21476
 C2267 C 0.26206 0.14450 0.21542
 C2268 C 0.23643 0.15367 0.21636
 C2269 C 0.23225 0.18099 0.21881
 C2270 C 0.25358 0.19867 0.22050
 C2271 C 0.27912 0.18847 0.21552
 H2272 H 0.24011 0.09351 0.22536
 H2273 H 0.26881 0.05619 0.24197
 H2274 H 0.33616 0.10679 0.23457
 H2275 H 0.22025 0.14023 0.21751
 H2276 H 0.21235 0.18803 0.22170
 H2277 H 0.29596 0.20085 0.21581
 C2278 C 0.77887 0.62195 0.74813
 C2279 C 0.78264 0.62632 0.71649
 C2280 C 0.79792 0.60961 0.69780
 C2281 C 0.80980 0.58765 0.71233
 C2282 C 0.80675 0.58323 0.74509
 C2283 C 0.79090 0.60058 0.76313
 O2284 O 0.76514 0.64096 0.76213
 C2285 C 0.76041 0.65788 0.73901
 C2286 C 0.77080 0.65004 0.71062
 C2287 C 0.77064 0.66638 0.68429
 C2288 C 0.76092 0.69231 0.68801
 C2289 C 0.75192 0.70145 0.71774
 C2290 C 0.74964 0.68301 0.74271
 H2291 H 0.80100 0.61361 0.67307
 H2292 H 0.82213 0.57461 0.69836
 H2293 H 0.78850 0.59787 0.78823
 H2294 H 0.77903 0.65990 0.66214
 H2295 H 0.76155 0.70543 0.66809
 H2296 H 0.74265 0.68880 0.76577
 C2297 C 0.88020 0.77055 0.16540
 C2298 C 0.88361 0.76819 0.19731
 C2299 C 0.90810 0.76586 0.21101
 C2300 C 0.92994 0.76599 0.19094
 C2301 C 0.92698 0.76999 0.15804
 C2302 C 0.90159 0.77259 0.14529
 O2303 O 0.85538 0.76994 0.15683
 C2304 C 0.84282 0.76764 0.18401
 C2305 C 0.85912 0.76718 0.20954
 C2306 C 0.84993 0.76597 0.24026
 C2307 C 0.82283 0.76528 0.24481
 C2308 C 0.80548 0.76482 0.21877
 C2309 C 0.81599 0.76520 0.18790
 H2310 H 0.91029 0.76334 0.23613
 H2311 H 0.94916 0.76395 0.20118
 H2312 H 0.89852 0.77462 0.12022
 H2313 H 0.86313 0.76587 0.26004
 H2314 H 0.81550 0.76458 0.26870
 H2315 H 0.80367 0.76419 0.16736
 C2316 C 0.39356 0.28225 0.68819
 C2317 C 0.39035 0.25550 0.69056
 C2318 C 0.40752 0.23715 0.67758
 C2319 C 0.42916 0.24662 0.66142
 C2320 C 0.43375 0.27415 0.65883
 C2321 C 0.41547 0.29228 0.67253
 O2322 O 0.37330 0.29597 0.69986
 C2323 C 0.35702 0.27729 0.70944
 C2324 C 0.36686 0.25233 0.70427
 C2325 C 0.35289 0.22974 0.70989
 C2326 C 0.32711 0.23280 0.71977
 C2327 C 0.31533 0.25829 0.72370
 C2328 C 0.33133 0.28086 0.72057
 H2329 H 0.40389 0.21620 0.67887
 H2330 H 0.44181 0.23223 0.65001
 H2331 H 0.41796 0.31338 0.67062
 H2332 H 0.36120 0.21033 0.70550
 H2333 H 0.31636 0.21486 0.72319
 H2334 H 0.32370 0.30053 0.72477
 C2335 C 0.39061 0.70661 0.82435
 C2336 C 0.39285 0.71314 0.79305
 C2337 C 0.41680 0.71587 0.77803
 C2338 C 0.43937 0.71247 0.79620
 C2339 C 0.43762 0.70647 0.82874
 C2340 C 0.41285 0.70284 0.84280
 O2341 O 0.36607 0.70674 0.83451
 C2342 C 0.35258 0.71364 0.80915
 C2343 C 0.36803 0.71781 0.78320
 C2344 C 0.35810 0.72697 0.75482
 C2345 C 0.33113 0.73188 0.75305
 C2346 C 0.31453 0.72735 0.77928
 C2347 C 0.32568 0.71811 0.80781
 H2348 H 0.41808 0.72134 0.75348
 H2349 H 0.45822 0.71546 0.78527
 H2350 H 0.41094 0.69903 0.86775
 H2351 H 0.37074 0.73077 0.73492
 H2352 H 0.32343 0.73966 0.73135
 H2353 H 0.31392 0.71479 0.82860
 C2354 C 0.88135 0.20748 0.33997
 C2355 C 0.88473 0.20983 0.30803
 C2356 C 0.90894 0.21354 0.29409
 C2357 C 0.93061 0.21527 0.31387
 C2358 C 0.92801 0.21233 0.34702
 C2359 C 0.90289 0.20765 0.36006
 O2360 O 0.85635 0.20718 0.34854
 C2361 C 0.84376 0.20916 0.32134
 C2362 C 0.86032 0.21035 0.29591
 C2363 C 0.85156 0.21332 0.26534
 C2364 C 0.82461 0.21534 0.26068
 C2365 C 0.80673 0.21480 0.28634
 C2366 C 0.81676 0.21190 0.31730
 H2367 H 0.91097 0.21596 0.26891
 H2368 H 0.94953 0.21850 0.30321
 H2369 H 0.89988 0.20634 0.38523
 H2370 H 0.86504 0.21464 0.24575
 H2371 H 0.81804 0.21864 0.23703
 H2372 H 0.80403 0.21217 0.33769
 C2373 C 0.10838 0.28528 0.31670
 C2374 C 0.10332 0.27835 0.28608
 C2375 C 0.07809 0.27532 0.27484
 C2376 C 0.05732 0.27916 0.29616
 C2377 C 0.06209 0.28600 0.32798
 C2378 C 0.08805 0.28952 0.33813
 O2379 O 0.13366 0.28568 0.32318
 C2380 C 0.14481 0.27883 0.29610
 C2381 C 0.12718 0.27419 0.27259
 C2382 C 0.13478 0.26566 0.24279
 C2383 C 0.16160 0.26187 0.23699
 C2384 C 0.18029 0.26667 0.26081
 C2385 C 0.17146 0.27513 0.29090
 H2386 H 0.07454 0.26956 0.25075
 H2387 H 0.03756 0.27635 0.28809
 H2388 H 0.09237 0.29403 0.36242
 H2389 H 0.12054 0.26165 0.22478
 H2390 H 0.16759 0.25468 0.21414
 H2391 H 0.18486 0.27859 0.30998
 C2392 C 0.61000 0.78072 0.80230
 C2393 C 0.62702 0.79361 0.82154
 C2394 C 0.62000 0.80426 0.85042
 C2395 C 0.59416 0.80167 0.86013
 C2396 C 0.57567 0.78881 0.84093
 C2397 C 0.58381 0.77800 0.81149
 O2398 O 0.62154 0.77113 0.77639
 C2399 C 0.64637 0.77814 0.77967
 C2400 C 0.65038 0.79190 0.80701
 C2401 C 0.67457 0.80002 0.81673
 C2402 C 0.69584 0.79356 0.79776
 C2403 C 0.69294 0.77977 0.76870
 C2404 C 0.66754 0.77192 0.75959
 H2405 H 0.63409 0.81383 0.86528
 H2406 H 0.58877 0.80920 0.88311
 H2407 H 0.57031 0.76781 0.79644
 H2408 H 0.67713 0.81044 0.83869
 H2409 H 0.71469 0.79949 0.80627
 H2410 H 0.66449 0.76076 0.73826
 C2411 C 0.62590 0.22256 0.66426
 C2412 C 0.62016 0.22139 0.69588
 C2413 C 0.59469 0.22134 0.70734
 C2414 C 0.57438 0.22272 0.68531
 C2415 C 0.57989 0.22389 0.65260
 C2416 C 0.60605 0.22354 0.64199
 O2417 O 0.65126 0.22377 0.65830
 C2418 C 0.66177 0.22327 0.68672
 C2419 C 0.64368 0.22170 0.71055
 C2420 C 0.65059 0.22183 0.74212
 C2421 C 0.67723 0.22355 0.74936
 C2422 C 0.69645 0.22477 0.72517
 C2423 C 0.68821 0.22521 0.69337
 H2424 H 0.59059 0.22078 0.73231
 H2425 H 0.55438 0.22305 0.69363
 H2426 H 0.61077 0.22500 0.61721
 H2427 H 0.63598 0.22112 0.76055
 H2428 H 0.68272 0.22452 0.77385
 H2429 H 0.70190 0.22721 0.67410
 C2430 C 0.12004 0.71792 0.16978
 C2431 C 0.11498 0.71791 0.20161
 C2432 C 0.08981 0.71648 0.21380
 C2433 C 0.06913 0.71505 0.19231
 C2434 C 0.07398 0.71477 0.15939
 C2435 C 0.09987 0.71612 0.14808
 O2436 O 0.14515 0.72008 0.16294
 C2437 C 0.15620 0.72132 0.19100
 C2438 C 0.13874 0.71995 0.21551
 C2439 C 0.14647 0.72102 0.24682
 C2440 C 0.17329 0.72329 0.25299
 C2441 C 0.19180 0.72417 0.22802
 C2442 C 0.18269 0.72396 0.19656
 H2443 H 0.08620 0.71666 0.23889
 H2444 H 0.04935 0.71398 0.20125
 H2445 H 0.10413 0.71633 0.12311
 H2446 H 0.13237 0.72025 0.26581
 H2447 H 0.17953 0.72460 0.27720
 H2448 H 0.19579 0.72535 0.17663
   
