data_POSCAR
  _audit_creation_date              2014-09-24
  _audit_creation_method            'ToBaCCo'
  _symmetry_space_group_name_H-M    'P1'
  _symmetry_Int_Tables_number       1
  _symmetry_cell_setting            triclinic
  loop_
  _symmetry_equiv_pos_as_xyz
 x,y,z
_cell_length_a 92.8780
_cell_length_b 93.1137
_cell_length_c 93.5641
_cell_angle_alpha 89.913800
_cell_angle_beta 89.964100
_cell_angle_gamma 90.048900
loop_
  _atom_site_label
  _atom_site_type_symbol
  _atom_site_fract_x
  _atom_site_fract_y
  _atom_site_fract_z
C1 C 0.35615 0.33749 0.34060
 C2 C 0.35012 0.34983 0.33445
 C3 C 0.33777 0.35601 0.34044
 C4 C 0.33146 0.34987 0.35260
 C5 C 0.33747 0.33754 0.35876
 C6 C 0.34982 0.33136 0.35276
 H7 H 0.35495 0.35451 0.32496
 H8 H 0.32183 0.35459 0.35718
 H9 H 0.35441 0.32174 0.35746
 C10 C 0.35609 0.83739 -0.16085
 C11 C 0.34975 0.83128 -0.14868
 C12 C 0.33743 0.83750 -0.14267
 C13 C 0.33144 0.84985 -0.14882
 C14 C 0.33775 0.85599 -0.16099
 C15 C 0.35009 0.84976 -0.16700
 H16 H 0.35429 0.82165 -0.14395
 H17 H 0.32183 0.85457 -0.14420
 H18 H 0.35492 0.85444 -0.17650
 C19 C 0.85532 0.33868 -0.16079
 C20 C 0.84911 0.33244 -0.14863
 C21 C 0.83677 0.33853 -0.14251
 C22 C 0.83066 0.35087 -0.14855
 C23 C 0.83686 0.35713 -0.16072
 C24 C 0.84921 0.35103 -0.16683
 H25 H 0.85377 0.32282 -0.14402
 H26 H 0.82104 0.35550 -0.14385
 H27 H 0.85398 0.35577 -0.17632
 C28 C 0.85628 0.83854 0.33914
 C29 C 0.85034 0.85094 0.33303
 C30 C 0.83809 0.85726 0.33912
 C31 C 0.83180 0.85115 0.35133
 C32 C 0.83774 0.83875 0.35743
 C33 C 0.84998 0.83246 0.35134
 H34 H 0.85517 0.85555 0.32351
 H35 H 0.82225 0.85593 0.35600
 H36 H 0.85451 0.82279 0.35599
 C37 C 0.64333 0.66202 0.33646
 C38 C 0.64957 0.64975 0.33041
 C39 C 0.66176 0.64356 0.33672
 C40 C 0.66769 0.64962 0.34909
 C41 C 0.66145 0.66188 0.35514
 C42 C 0.64926 0.66807 0.34882
 H43 H 0.64504 0.64512 0.32078
 H44 H 0.67719 0.64489 0.35391
 H45 H 0.64449 0.67763 0.35344
 C46 C 0.64384 0.16139 -0.16358
 C47 C 0.64978 0.16735 -0.15117
 C48 C 0.66198 0.16114 -0.14492
 C49 C 0.66824 0.14894 -0.15107
 C50 C 0.66232 0.14295 -0.16349
 C51 C 0.65010 0.14919 -0.16973
 H52 H 0.64499 0.17686 -0.14647
 H53 H 0.67776 0.14422 -0.14626
 H54 H 0.64553 0.14465 -0.17939
 C55 C 0.14325 0.66125 -0.16291
 C56 C 0.14920 0.66720 -0.15050
 C57 C 0.16139 0.66097 -0.14425
 C58 C 0.16763 0.64875 -0.15040
 C59 C 0.16169 0.64278 -0.16282
 C60 C 0.14949 0.64904 -0.16906
 H61 H 0.14444 0.67672 -0.14580
 H62 H 0.17714 0.64401 -0.14560
 H63 H 0.14491 0.64451 -0.17873
 C64 C 0.14328 0.16196 0.33747
 C65 C 0.14948 0.14973 0.33132
 C66 C 0.16158 0.14337 0.33763
 C67 C 0.16747 0.14925 0.35011
 C68 C 0.16127 0.16148 0.35626
 C69 C 0.14917 0.16783 0.34994
 H70 H 0.14499 0.14525 0.32160
 H71 H 0.17691 0.14441 0.35493
 H72 H 0.14445 0.17737 0.35464
 C73 C 0.64465 0.33885 0.66111
 C74 C 0.65075 0.35111 0.66731
 C75 C 0.66316 0.35726 0.66137
 C76 C 0.66947 0.35114 0.64922
 C77 C 0.66338 0.33887 0.64301
 C78 C 0.65096 0.33274 0.64896
 H79 H 0.64593 0.35578 0.67679
 H80 H 0.67914 0.35583 0.64468
 H81 H 0.64631 0.32318 0.64422
 C82 C 0.64409 0.83925 1.16180
 C83 C 0.65034 0.85133 1.16822
 C84 C 0.66284 0.85744 1.16240
 C85 C 0.66907 0.85147 1.15012
 C86 C 0.66283 0.83939 1.14369
 C87 C 0.65034 0.83330 1.14952
 H88 H 0.64558 0.85588 1.17780
 H89 H 0.67881 0.85609 1.14564
 H90 H 0.64560 0.82387 1.14458
 C91 C 0.14451 0.33839 1.16080
 C92 C 0.15079 0.33239 1.14856
 C93 C 0.16321 0.33856 1.14266
 C94 C 0.16934 0.35074 1.14898
 C95 C 0.16308 0.35676 1.16120
 C96 C 0.15066 0.35059 1.16711
 H97 H 0.14613 0.32288 1.14371
 H98 H 0.17902 0.35546 1.14447
 H99 H 0.14589 0.35520 1.17664
 C100 C 0.14383 0.83790 0.66130
 C101 C 0.15000 0.85011 0.66757
 C102 C 0.16240 0.85627 0.66163
 C103 C 0.16864 0.85025 0.64940
 C104 C 0.16250 0.83805 0.64311
 C105 C 0.15009 0.83188 0.64905
 H106 H 0.14525 0.85473 0.67711
 H107 H 0.17830 0.85496 0.64486
 H108 H 0.14542 0.82237 0.64422
 C109 C 0.35730 0.66198 0.66151
 C110 C 0.35104 0.64964 0.66746
 C111 C 0.33886 0.64350 0.66110
 C112 C 0.33295 0.64968 0.64877
 C113 C 0.33920 0.66202 0.64281
 C114 C 0.35138 0.66816 0.64919
 H115 H 0.35555 0.64493 0.67707
 H116 H 0.32345 0.64499 0.64391
 H117 H 0.35615 0.67778 0.64465
 C118 C 0.35760 0.16254 1.16218
 C119 C 0.35135 0.15015 1.16805
 C120 C 0.33923 0.14397 1.16160
 C121 C 0.33336 0.15017 1.14926
 C122 C 0.33959 0.16255 1.14337
 C123 C 0.35171 0.16873 1.14983
 H124 H 0.35580 0.14539 1.17767
 H125 H 0.32391 0.14546 1.14433
 H126 H 0.35644 0.17838 1.14531
 C127 C 0.85740 0.66195 1.16200
 C128 C 0.85120 0.64956 1.16793
 C129 C 0.83897 0.64343 1.16162
 C130 C 0.83296 0.64968 1.14938
 C131 C 0.83914 0.66206 1.14344
 C132 C 0.85136 0.66818 1.14975
 H133 H 0.85577 0.64476 1.17747
 H134 H 0.82343 0.64500 1.14456
 H135 H 0.85606 0.67783 1.14519
 C136 C 0.85749 0.16151 0.66241
 C137 C 0.85127 0.14912 0.66830
 C138 C 0.83915 0.14291 0.66187
 C139 C 0.83326 0.14909 0.64952
 C140 C 0.83947 0.16148 0.64362
 C141 C 0.85159 0.16767 0.65006
 H142 H 0.85577 0.14440 0.67794
 H143 H 0.82381 0.14439 0.64457
 H144 H 0.85630 0.17733 0.64553
 C145 C 0.33729 0.35639 0.66076
 C146 C 0.34962 0.35024 0.66684
 C147 C 0.35573 0.33793 0.66075
 C148 C 0.34951 0.33178 0.64857
 C149 C 0.33719 0.33792 0.64248
 C150 C 0.33109 0.35023 0.64857
 H151 H 0.35434 0.35493 0.67635
 H152 H 0.35416 0.32217 0.64393
 H153 H 0.32147 0.35490 0.64394
 C154 C 0.33717 0.85674 0.15984
 C155 C 0.33103 0.85063 0.14760
 C156 C 0.33715 0.83834 0.14148
 C157 C 0.34945 0.83218 0.14760
 C158 C 0.35561 0.83828 0.15984
 C159 C 0.34948 0.85056 0.16594
 H160 H 0.32142 0.85532 0.14295
 H161 H 0.35412 0.82259 0.14294
 H162 H 0.35416 0.85521 0.17550
 C163 C 0.83695 0.35573 0.16043
 C164 C 0.84938 0.34969 0.16641
 C165 C 0.85560 0.33748 0.16022
 C166 C 0.84939 0.33132 0.14804
 C167 C 0.83696 0.33735 0.14205
 C168 C 0.83075 0.34956 0.14825
 H169 H 0.85412 0.35439 0.17591
 H170 H 0.85413 0.32181 0.14331
 H171 H 0.82106 0.35416 0.14368
 C172 C 0.83725 0.85595 0.66035
 C173 C 0.84956 0.84976 0.66642
 C174 C 0.85569 0.83749 0.66026
 C175 C 0.84952 0.83143 0.64801
 C176 C 0.83721 0.83761 0.64193
 C177 C 0.83109 0.84988 0.64810
 H178 H 0.85426 0.85438 0.67598
 H179 H 0.85419 0.82186 0.64332
 H180 H 0.82148 0.85459 0.64347
 C181 C 0.66156 0.64367 0.66230
 C182 C 0.64935 0.64985 0.66858
 C183 C 0.64304 0.66205 0.66244
 C184 C 0.64893 0.66805 0.65001
 C185 C 0.66113 0.66188 0.64372
 C186 C 0.66744 0.64968 0.64987
 H187 H 0.64486 0.64526 0.67827
 H188 H 0.64411 0.67755 0.64531
 H189 H 0.67695 0.64496 0.64506
 C190 C 0.66104 0.14270 0.16234
 C191 C 0.66700 0.14872 0.14994
 C192 C 0.66078 0.16096 0.14379
 C193 C 0.64857 0.16717 0.15004
 C194 C 0.64260 0.16116 0.16244
 C195 C 0.64883 0.14892 0.16858
 H196 H 0.67651 0.14397 0.14516
 H197 H 0.64382 0.17671 0.14535
 H198 H 0.64428 0.14434 0.17824
 C199 C 0.16150 0.64243 0.16254
 C200 C 0.14925 0.64857 0.16877
 C201 C 0.14297 0.66079 0.16265
 C202 C 0.14893 0.66685 0.15027
 C203 C 0.16118 0.66072 0.14403
 C204 C 0.16746 0.64850 0.15016
 H205 H 0.14471 0.64394 0.17841
 H206 H 0.14413 0.67638 0.14559
 H207 H 0.17701 0.64382 0.14540
 C208 C 0.16085 0.14235 0.66339
 C209 C 0.14864 0.14852 0.66967
 C210 C 0.14237 0.16077 0.66359
 C211 C 0.14831 0.16683 0.65120
 C212 C 0.16052 0.16067 0.64491
 C213 C 0.16678 0.14843 0.65100
 H214 H 0.14411 0.14389 0.67932
 H215 H 0.14353 0.17637 0.64655
 H216 H 0.17630 0.14372 0.64620
 C217 C 0.33874 0.64386 0.33830
 C218 C 0.35095 0.64999 0.33194
 C219 C 0.35717 0.66235 0.33781
 C220 C 0.35119 0.66859 0.35007
 C221 C 0.33898 0.66247 0.35644
 C222 C 0.33276 0.65010 0.35056
 H223 H 0.35551 0.64522 0.32238
 H224 H 0.35594 0.67822 0.35455
 H225 H 0.32324 0.64543 0.35543
 C226 C 0.33897 0.14305 0.83845
 C227 C 0.33301 0.14927 0.85073
 C228 C 0.33927 0.16160 0.85665
 C229 C 0.35150 0.16769 0.85030
 C230 C 0.35747 0.16148 0.83803
 C231 C 0.35121 0.14915 0.83212
 H232 H 0.32347 0.14462 0.85558
 H233 H 0.35628 0.17730 0.85482
 H234 H 0.35575 0.14441 0.82255
 C235 C 0.83841 0.64410 0.83922
 C236 C 0.83243 0.65033 0.85148
 C237 C 0.83870 0.66265 0.85742
 C238 C 0.85096 0.66872 0.85110
 C239 C 0.85694 0.66249 0.83884
 C240 C 0.85067 0.65017 0.83291
 H241 H 0.82287 0.64570 0.85631
 H242 H 0.85575 0.67832 0.85562
 H243 H 0.85523 0.64542 0.82336
 C244 C 0.83902 0.14419 0.33812
 C245 C 0.85127 0.15031 0.33182
 C246 C 0.85754 0.16259 0.33782
 C247 C 0.85158 0.16873 0.35013
 C248 C 0.83933 0.16261 0.35644
 C249 C 0.83307 0.15033 0.35043
 H250 H 0.85581 0.14562 0.32223
 H251 H 0.85637 0.17830 0.35471
 H252 H 0.82353 0.14566 0.35525
 C253 C 0.66234 0.35678 0.33932
 C254 C 0.65001 0.35047 0.33341
 C255 C 0.64402 0.33817 0.33970
 C256 C 0.65036 0.33220 0.35193
 C257 C 0.66268 0.33851 0.35785
 C258 C 0.66866 0.35080 0.35155
 H259 H 0.64518 0.35502 0.32388
 H260 H 0.64579 0.32262 0.35674
 H261 H 0.67827 0.35561 0.35606
 C262 C 0.66196 0.85745 0.83927
 C263 C 0.66821 0.85146 0.85152
 C264 C 0.66214 0.83921 0.85783
 C265 C 0.64979 0.83296 0.85187
 C266 C 0.64354 0.83895 0.83961
 C267 C 0.64962 0.85120 0.83332
 H268 H 0.67783 0.85623 0.85606
 H269 H 0.64516 0.82341 0.85667
 H270 H 0.64486 0.85577 0.82376
 C271 C 0.16198 0.35690 0.83879
 C272 C 0.16829 0.35083 0.85098
 C273 C 0.16225 0.33854 0.85724
 C274 C 0.14987 0.33235 0.85132
 C275 C 0.14354 0.33841 0.83913
 C276 C 0.14960 0.35069 0.83288
 H277 H 0.17794 0.35556 0.85549
 H278 H 0.14525 0.32277 0.85609
 H279 H 0.14477 0.35532 0.82338
 C280 C 0.16202 0.85710 0.33847
 C281 C 0.14975 0.85075 0.33246
 C282 C 0.14376 0.83844 0.33870
 C283 C 0.15001 0.83249 0.35098
 C284 C 0.16227 0.83883 0.35700
 C285 C 0.16826 0.85114 0.35074
 H286 H 0.14499 0.85529 0.32289
 H287 H 0.14545 0.82289 0.35574
 H288 H 0.17782 0.85599 0.35533
 O289 O 0.25153 1.01436 0.23083
 O290 O 0.23149 0.98651 0.25058
 O291 O 0.23186 1.01450 0.25066
 O292 O 0.25113 0.98635 0.23074
 O293 O 0.26810 0.98605 0.24731
 O294 O 0.24883 1.01421 0.26723
 O295 O 0.24847 0.98623 0.26715
 O296 O 0.26850 1.01406 0.24740
 Cu297 Cu 0.23980 1.00046 0.23903
 Cu298 Cu 0.26019 1.00011 0.25894
 C299 C 0.26338 1.01893 0.23580
 C300 C 0.23662 0.98165 0.26218
 C301 C 0.23711 1.01913 0.26229
 C302 C 0.26284 0.98142 0.23569
 O303 O 0.25091 0.51414 0.73078
 O304 O 0.23116 0.48626 0.75074
 O305 O 0.23135 0.51425 0.75071
 O306 O 0.25073 0.48614 0.73084
 O307 O 0.26777 0.48604 0.74734
 O308 O 0.24840 0.51415 0.76720
 O309 O 0.24820 0.48616 0.76724
 O310 O 0.26796 0.51405 0.74727
 Cu311 Cu 0.23932 0.50021 0.73910
 Cu312 Cu 0.25980 0.50009 0.75892
 C313 C 0.26275 0.51883 0.73568
 C314 C 0.23637 0.48147 0.76233
 C315 C 0.23662 0.51897 0.76230
 C316 C 0.26249 0.48130 0.73576
 O317 O 0.74936 -0.01400 0.23286
 O318 O 0.76875 0.01430 0.25248
 O319 O 0.76895 -0.01370 0.25272
 O320 O 0.74914 0.01400 0.23263
 O321 O 0.73213 0.01398 0.24918
 O322 O 0.75194 -0.01372 0.26926
 O323 O 0.75174 0.01427 0.26903
 O324 O 0.73235 -0.01403 0.24941
 Cu325 Cu 0.76077 0.00016 0.24100
 Cu326 Cu 0.74032 0.00013 0.26089
 C327 C 0.73761 -0.01883 0.23785
 C328 C 0.76351 0.01908 0.26406
 C329 C 0.76376 -0.01841 0.26436
 C330 C 0.73731 0.01869 0.23753
 O331 O 0.73185 0.51457 0.74923
 O332 O 0.75116 0.48652 0.76930
 O333 O 0.75116 0.51452 0.76936
 O334 O 0.73186 0.48658 0.74915
 O335 O 0.74911 0.48666 0.73285
 O336 O 0.76841 0.51460 0.75305
 O337 O 0.76841 0.48660 0.75300
 O338 O 0.74910 0.51466 0.73292
 Cu339 Cu 0.73977 0.50054 0.76090
 Cu340 Cu 0.76050 0.50064 0.74131
 C341 C 0.73723 0.51937 0.73771
 C342 C 0.76302 0.48179 0.76451
 C343 C 0.76303 0.51930 0.76460
 C344 C 0.73724 0.48188 0.73761
 O345 O 0.24936 0.48562 0.23305
 O346 O 0.26883 0.51371 0.25289
 O347 O 0.26894 0.48571 0.25293
 O348 O 0.24926 0.51361 0.23300
 O349 O 0.23223 0.51354 0.24952
 O350 O 0.25190 0.48563 0.26945
 O351 O 0.25179 0.51363 0.26941
 O352 O 0.23233 0.48555 0.24957
 Cu353 Cu 0.26082 0.49967 0.24130
 Cu354 Cu 0.24034 0.49958 0.26116
 C355 C 0.23757 0.48082 0.23798
 C356 C 0.26357 0.51844 0.26448
 C357 C 0.26372 0.48093 0.26453
 C358 C 0.23744 0.51831 0.23791
 O359 O 0.76824 0.98575 0.74723
 O360 O 0.74897 1.01403 0.76697
 O361 O 0.74866 0.98604 0.76712
 O362 O 0.76856 1.01376 0.74707
 O363 O 0.75153 1.01387 0.73056
 O364 O 0.73163 0.98615 0.75061
 O365 O 0.73195 1.01414 0.75046
 O366 O 0.75121 0.98586 0.73072
 Cu367 Cu 0.76033 0.99989 0.75876
 Cu368 Cu 0.73987 1.00002 0.73891
 C369 C 0.76295 0.98099 0.73567
 C370 C 0.73722 1.01888 0.76203
 C371 C 0.73681 0.98140 0.76223
 C372 C 0.76338 1.01852 0.73545
 O373 O 0.74877 0.51376 0.26718
 O374 O 0.76801 0.48550 0.24737
 O375 O 0.76832 0.51351 0.24724
 O376 O 0.74846 0.48577 0.26730
 O377 O 0.73141 0.48589 0.25081
 O378 O 0.75127 0.51364 0.23076
 O379 O 0.75095 0.48563 0.23089
 O380 O 0.73171 0.51388 0.25069
 Cu381 Cu 0.76012 0.49962 0.25893
 Cu382 Cu 0.73962 0.49978 0.23912
 C383 C 0.73701 0.51861 0.26226
 C384 C 0.76270 0.48076 0.23581
 C385 C 0.76312 0.51829 0.23564
 C386 C 0.73660 0.48112 0.26242
 O387 O 0.25183 -0.01484 0.76931
 O388 O 0.23196 0.01311 0.74962
 O389 O 0.23208 -0.01488 0.74960
 O390 O 0.25167 0.01317 0.76937
 O391 O 0.26858 0.01332 0.75272
 O392 O 0.24899 -0.01474 0.73294
 O393 O 0.24887 0.01326 0.73297
 O394 O 0.26873 -0.01468 0.75265
 Cu395 Cu 0.24018 -0.00087 0.76116
 Cu396 Cu 0.26050 -0.00070 0.74114
 C397 C 0.26362 -0.01950 0.76428
 C398 C 0.23708 0.01793 0.73798
 C399 C 0.23724 -0.01957 0.73795
 C400 C 0.26341 0.01801 0.76436
 O401 O 0.25388 0.23280 0.98589
 O402 O 0.23418 0.25265 1.01375
 O403 O 0.23408 0.25256 0.98588
 O404 O 0.25398 0.23289 1.01376
 O405 O 0.27083 0.24970 1.01362
 O406 O 0.25093 0.26936 0.98574
 O407 O 0.25102 0.26945 1.01360
 O408 O 0.27073 0.24960 0.98575
 Cu409 Cu 0.24233 0.24103 0.99984
 Cu410 Cu 0.26258 0.26122 0.99966
 C411 C 0.26561 0.23787 0.98109
 C412 C 0.23929 0.26438 1.01840
 C413 C 0.23917 0.26426 0.98108
 C414 C 0.26574 0.23800 1.01843
 O415 O 0.23329 0.75256 0.51373
 O416 O 0.25304 0.73295 0.48573
 O417 O 0.25301 0.73272 0.51360
 O418 O 0.23332 0.75278 0.48586
 O419 O 0.25024 0.76951 0.48598
 O420 O 0.26993 0.74944 0.51372
 O421 O 0.26996 0.74968 0.48585
 O422 O 0.25021 0.76928 0.51384
 Cu423 Cu 0.24146 0.74106 0.49972
 Cu424 Cu 0.26179 0.76117 0.49986
 C425 C 0.23844 0.76421 0.51854
 C426 C 0.26481 0.73803 0.48104
 C427 C 0.26477 0.73771 0.51837
 C428 C 0.23847 0.76451 0.48121
 O429 O 0.26605 0.75069 -0.01417
 O430 O 0.24638 0.73092 0.01384
 O431 O 0.24634 0.73081 -0.01404
 O432 O 0.26608 0.75081 0.01368
 O433 O 0.24915 0.76750 0.01361
 O434 O 0.22942 0.74751 -0.01410
 O435 O 0.22945 0.74762 0.01377
 O436 O 0.24912 0.76738 -0.01423
 Cu437 Cu 0.25791 0.73912 -0.00017
 Cu438 Cu 0.23757 0.75918 -0.00024
 C439 C 0.26089 0.76236 -0.01895
 C440 C 0.23462 0.73596 0.01857
 C441 C 0.23457 0.73581 -0.01878
 C442 C 0.26094 0.76252 0.01834
 O443 O 0.26594 0.25024 0.48698
 O444 O 0.24596 0.23061 0.51486
 O445 O 0.24609 0.23052 0.48699
 O446 O 0.26582 0.25034 0.51483
 O447 O 0.24902 0.26717 0.51468
 O448 O 0.22929 0.24734 0.48685
 O449 O 0.22917 0.24743 0.51472
 O450 O 0.24915 0.26706 0.48683
 Cu451 Cu 0.25764 0.23872 0.50093
 Cu452 Cu 0.23746 0.25894 0.50076
 C453 C 0.26091 0.26195 0.48218
 C454 C 0.23422 0.23573 0.51953
 C455 C 0.23438 0.23561 0.48218
 C456 C 0.26074 0.26209 0.51947
 O457 O 0.75030 0.77008 0.98674
 O458 O 0.77007 0.75022 1.01456
 O459 O 0.77003 0.75027 0.98669
 O460 O 0.75036 0.77005 1.01460
 O461 O 0.73345 0.75332 1.01465
 O462 O 0.75312 0.73353 0.98673
 O463 O 0.75317 0.73348 1.01460
 O464 O 0.73339 0.75335 0.98678
 Cu465 Cu 0.76189 0.76184 1.00065
 Cu466 Cu 0.74157 0.74173 1.00070
 C467 C 0.73853 0.76505 0.98204
 C468 C 0.76494 0.73851 1.01930
 C469 C 0.76487 0.73858 0.98197
 C470 C 0.73860 0.76501 1.01936
 O471 O 0.75114 0.26912 0.48654
 O472 O 0.77075 0.24900 0.51430
 O473 O 0.77078 0.24922 0.48643
 O474 O 0.75111 0.26892 0.51440
 O475 O 0.73413 0.25226 0.51430
 O476 O 0.75381 0.23255 0.48632
 O477 O 0.75377 0.23234 0.51419
 O478 O 0.73416 0.25245 0.48643
 Cu479 Cu 0.76266 0.26075 0.50043
 Cu480 Cu 0.74226 0.24072 0.50030
 C481 C 0.73936 0.26416 0.48177
 C482 C 0.76555 0.23729 0.51896
 C483 C 0.76560 0.23759 0.48162
 C484 C 0.73932 0.26390 0.51909
 O485 O 0.74629 0.23078 0.01358
 O486 O 0.76608 0.25071 -0.01423
 O487 O 0.76601 0.25064 0.01362
 O488 O 0.74638 0.23083 -0.01429
 O489 O 0.72946 0.24752 -0.01432
 O490 O 0.74909 0.26734 0.01360
 O491 O 0.74916 0.26741 -0.01425
 O492 O 0.72937 0.24747 0.01355
 Cu493 Cu 0.75790 0.23905 -0.00033
 Cu494 Cu 0.73756 0.25912 -0.00035
 C495 C 0.73452 0.23579 0.01830
 C496 C 0.76094 0.26241 -0.01896
 C497 C 0.76085 0.26232 0.01834
 C498 C 0.73463 0.23586 -0.01905
 O499 O 0.76627 0.75121 0.48550
 O500 O 0.74627 0.73151 0.51332
 O501 O 0.74638 0.73151 0.48545
 O502 O 0.76615 0.75122 0.51335
 O503 O 0.74937 0.76806 0.51326
 O504 O 0.72961 0.74835 0.48536
 O505 O 0.72949 0.74836 0.51323
 O506 O 0.74950 0.76805 0.48541
 Cu507 Cu 0.75795 0.73966 0.49941
 Cu508 Cu 0.73779 0.75990 0.49931
 C509 C 0.76125 0.76294 0.48074
 C510 C 0.73453 0.73664 0.51801
 C511 C 0.73468 0.73663 0.48066
 C512 C 0.76108 0.76295 0.51803
 O513 O 0.98653 0.25150 0.22931
 O514 O 1.01471 0.23216 0.24921
 O515 O 0.98665 0.23199 0.24925
 O516 O 1.01460 0.25166 0.22928
 O517 O 1.01452 0.26867 0.24575
 O518 O 0.98656 0.24899 0.26572
 O519 O 1.01463 0.24917 0.26569
 O520 O 0.98645 0.26850 0.24578
 Cu521 Cu 1.00063 0.24011 0.23760
 Cu522 Cu 1.00053 0.26055 0.25740
 C523 C 0.98170 0.26324 0.23420
 C524 C 1.01946 0.23742 0.26079
 C525 C 0.98186 0.23718 0.26084
 C526 C 1.01932 0.26346 0.23417
 O527 O 0.48619 0.25142 0.73005
 O528 O 0.51443 0.23188 0.74968
 O529 O 0.48637 0.23171 0.74977
 O530 O 0.51428 0.25159 0.72994
 O531 O 0.51424 0.26842 0.74659
 O532 O 0.48632 0.24853 0.76643
 O533 O 0.51439 0.24871 0.76634
 O534 O 0.48615 0.26825 0.74671
 Cu535 Cu 0.50033 0.23996 0.73818
 Cu536 Cu 0.50028 0.26018 0.75819
 C537 C 0.48136 0.26311 0.73510
 C538 C 0.51919 0.23701 0.76131
 C539 C 0.48161 0.23678 0.76142
 C540 C 0.51900 0.26334 0.73494
 O541 O 0.01321 0.25124 0.77040
 O542 O -0.01487 0.23158 0.75068
 O543 O 0.01319 0.23136 0.75088
 O544 O -0.01487 0.25146 0.77018
 O545 O -0.01458 0.26815 0.75334
 O546 O 0.01347 0.24805 0.73404
 O547 O -0.01459 0.24827 0.73383
 O548 O 0.01350 0.26793 0.75356
 Cu549 Cu -0.00086 0.23973 0.76224
 Cu550 Cu -0.00052 0.25978 0.74200
 C551 C 0.01812 0.26288 0.76529
 C552 C -0.01950 0.23663 0.73895
 C553 C 0.01808 0.23632 0.73921
 C554 C -0.01949 0.26318 0.76499
 O555 O 0.48597 0.26793 0.25403
 O556 O 0.51390 0.24850 0.23387
 O557 O 0.48583 0.24856 0.23403
 O558 O 0.51405 0.26790 0.25387
 O559 O 0.51410 0.25079 0.27030
 O560 O 0.48588 0.23145 0.25046
 O561 O 0.51395 0.23139 0.25030
 O562 O 0.48603 0.25082 0.27046
 Cu563 Cu 0.49994 0.25995 0.24230
 Cu564 Cu 0.50000 0.23939 0.26204
 C565 C 0.48125 0.26262 0.26562
 C566 C 0.51866 0.23668 0.23870
 C567 C 0.48106 0.23676 0.23892
 C568 C 0.51886 0.26260 0.26542
 O569 O 0.98594 0.75115 0.73019
 O570 O 1.01413 0.73174 0.75000
 O571 O 0.98608 0.73162 0.75009
 O572 O 1.01402 0.75128 0.73008
 O573 O 1.01401 0.76826 0.74658
 O574 O 0.98606 0.74860 0.76660
 O575 O 1.01412 0.74872 0.76650
 O576 O 0.98592 0.76813 0.74669
 Cu577 Cu 1.00005 0.73974 0.73842
 Cu578 Cu 1.00003 0.76015 0.75825
 C579 C 0.98112 0.76289 0.73513
 C580 C 1.01890 0.73696 0.76158
 C581 C 0.98132 0.73681 0.76170
 C582 C 1.01876 0.76307 0.73498
 O583 O 0.48591 0.75208 0.22961
 O584 O 0.51414 0.73239 0.24909
 O585 O 0.48608 0.73229 0.24924
 O586 O 0.51399 0.75221 0.22945
 O587 O 0.51402 0.76896 0.24618
 O588 O 0.48610 0.74904 0.26597
 O589 O 0.51417 0.74914 0.26582
 O590 O 0.48593 0.76884 0.24634
 Cu591 Cu 0.50003 0.74056 0.23765
 Cu592 Cu 0.50007 0.76069 0.25776
 C593 C 0.48111 0.76375 0.23471
 C594 C 0.51894 0.73745 0.26073
 C595 C 0.48135 0.73733 0.26092
 C596 C 0.51875 0.76393 0.23449
 O597 O -0.01419 0.76788 0.25277
 O598 O 0.01384 0.74822 0.23300
 O599 O -0.01421 0.74824 0.23303
 O600 O 0.01390 0.76787 0.25274
 O601 O 0.01388 0.75098 0.26938
 O602 O -0.01422 0.73135 0.24968
 O603 O 0.01383 0.73133 0.24965
 O604 O -0.01420 0.75099 0.26942
 Cu605 Cu -0.00016 0.75976 0.24121
 Cu606 Cu -0.00018 0.73946 0.26122
 C607 C -0.01898 0.76272 0.26440
 C608 C 0.01859 0.73647 0.23800
 C609 C -0.01898 0.73649 0.23804
 C610 C 0.01868 0.76271 0.26436
 O611 O 0.48575 0.76826 0.75354
 O612 O 0.51392 0.74894 0.73361
 O613 O 0.48586 0.74879 0.73363
 O614 O 0.51384 0.76842 0.75354
 O615 O 0.51391 0.75138 0.77003
 O616 O 0.48594 0.73176 0.75013
 O617 O 0.51400 0.73191 0.75011
 O618 O 0.48583 0.75123 0.77003
 Cu619 Cu 0.49984 0.76032 0.74192
 Cu620 Cu 0.49993 0.73985 0.76175
 C621 C 0.48100 0.76297 0.76512
 C622 C 0.51873 0.73718 0.73851
 C623 C 0.48115 0.73698 0.73855
 C624 C 0.51862 0.76320 0.76513
 C625 C 0.36859 0.33090 0.33421
 C626 C 0.37892 0.32529 0.32878
 C627 C 0.39112 0.31846 0.32219
 C628 C 0.39578 0.30502 0.32704
 C629 C 0.40739 0.29819 0.32040
 C630 C 0.41450 0.30473 0.30880
 C631 C 0.40982 0.31830 0.30409
 C632 C 0.39820 0.32511 0.31074
 C633 C 0.42660 0.29732 0.30150
 C634 C 0.43881 0.30504 0.29697
 C635 C 0.45007 0.29807 0.28988
 C636 C 0.44927 0.28330 0.28723
 C637 C 0.43720 0.27552 0.29175
 C638 C 0.42594 0.28246 0.29884
 C639 C 0.46071 0.27614 0.27971
 C640 C 0.47016 0.27003 0.27332
 H641 H 0.39039 0.29979 0.33591
 H642 H 0.41085 0.28784 0.32439
 H643 H 0.41495 0.32353 0.29508
 H644 H 0.39464 0.33549 0.30687
 H645 H 0.43971 0.31645 0.29901
 H646 H 0.45938 0.30419 0.28645
 H647 H 0.43644 0.26409 0.28970
 H648 H 0.41660 0.27625 0.30201
 C649 C 0.36785 0.83112 0.83310
 C650 C 0.37816 0.82544 0.82769
 C651 C 0.39034 0.81852 0.82115
 C652 C 0.39290 0.80393 0.82364
 C653 C 0.40451 0.79707 0.81703
 C654 C 0.41372 0.80474 0.80781
 C655 C 0.41112 0.81945 0.80547
 C656 C 0.39949 0.82628 0.81209
 C657 C 0.42584 0.79738 0.80051
 C658 C 0.43929 0.80419 0.79899
 C659 C 0.45062 0.79727 0.79197
 C660 C 0.44867 0.78348 0.78638
 C661 C 0.43535 0.77660 0.78787
 C662 C 0.42401 0.78349 0.79488
 C663 C 0.46024 0.77638 0.77899
 C664 C 0.46980 0.77033 0.77271
 H665 H 0.38590 0.79782 0.83065
 H666 H 0.40634 0.78580 0.81919
 H667 H 0.41790 0.82560 0.79831
 H668 H 0.39756 0.83757 0.81005
 H669 H 0.44108 0.81481 0.80335
 H670 H 0.46090 0.80268 0.79090
 H671 H 0.43370 0.76594 0.78353
 H672 H 0.41374 0.77804 0.79570
 C673 C -0.13224 0.33220 0.83270
 C674 C -0.12192 0.32669 0.82715
 C675 C -0.10972 0.32002 0.82039
 C676 C -0.10495 0.32491 0.80705
 C677 C -0.09335 0.31820 0.80029
 C678 C -0.08636 0.30649 0.80679
 C679 C -0.09116 0.30173 0.82025
 C680 C -0.10278 0.30845 0.82699
 C681 C -0.07426 0.29912 0.79944
 C682 C -0.06212 0.29449 0.80717
 C683 C -0.05085 0.28737 0.80025
 C684 C -0.05157 0.28478 0.78554
 C685 C -0.06357 0.28938 0.77775
 C686 C -0.07484 0.29651 0.78464
 C687 C -0.04010 0.27725 0.77842
 C688 C -0.03062 0.27086 0.77235
 H689 H -0.11024 0.33388 0.80186
 H690 H -0.08978 0.32223 0.79002
 H691 H -0.08613 0.29263 0.82544
 H692 H -0.10643 0.30454 0.83729
 H693 H -0.06128 0.29649 0.81853
 H694 H -0.04160 0.28387 0.80637
 H695 H -0.06427 0.28738 0.76637
 H696 H -0.08413 0.29975 0.77844
 C697 C -0.13141 0.83180 0.33265
 C698 C -0.12122 0.82601 0.32714
 C699 C -0.10920 0.81892 0.32049
 C700 C -0.09848 0.82697 0.31365
 C701 C -0.08697 0.82004 0.30693
 C702 C -0.08605 0.80495 0.30696
 C703 C -0.09684 0.79698 0.31396
 C704 C -0.10832 0.80393 0.32067
 C705 C -0.07401 0.79755 0.29957
 C706 C -0.07658 0.78503 0.29156
 C707 C -0.06528 0.77807 0.28455
 C708 C -0.05126 0.78352 0.28544
 C709 C -0.04858 0.79596 0.29338
 C710 C -0.05987 0.80294 0.30040
 C711 C -0.03969 0.77633 0.27814
 C712 C -0.03015 0.77018 0.27192
 H713 H -0.09908 0.83859 0.31341
 H714 H -0.07893 0.82647 0.30149
 H715 H -0.09633 0.78536 0.31433
 H716 H -0.11655 0.79759 0.32596
 H717 H -0.08736 0.78072 0.29054
 H718 H -0.06748 0.76848 0.27838
 H719 H -0.03776 0.80025 0.29417
 H720 H -0.05753 0.81246 0.30662
 C721 C 0.63103 0.66859 0.32977
 C722 C 0.62081 0.67416 0.32409
 C723 C 0.60872 0.68090 0.31720
 C724 C 0.60299 0.67502 0.30469
 C725 C 0.59146 0.68174 0.29780
 C726 C 0.58551 0.69446 0.30335
 C727 C 0.59129 0.70023 0.31601
 C728 C 0.60283 0.69350 0.32287
 C729 C 0.57347 0.70179 0.29587
 C730 C 0.56206 0.70792 0.30366
 C731 C 0.55086 0.71500 0.29659
 C732 C 0.55091 0.71606 0.28167
 C733 C 0.56218 0.70996 0.27383
 C734 C 0.57338 0.70286 0.28087
 C735 C 0.53951 0.72355 0.27439
 C736 C 0.53006 0.72987 0.26820
 H737 H 0.60746 0.66526 0.30022
 H738 H 0.58713 0.67694 0.28818
 H739 H 0.58708 0.71011 0.32045
 H740 H 0.60722 0.69817 0.33252
 H741 H 0.56174 0.70712 0.31520
 H742 H 0.54217 0.71967 0.30277
 H743 H 0.56235 0.71076 0.26228
 H744 H 0.58210 0.69844 0.27459
 C745 C 0.63151 0.16799 0.82982
 C746 C 0.62127 0.17360 0.82422
 C747 C 0.60915 0.18041 0.81746
 C748 C 0.60480 0.17611 0.80381
 C749 C 0.59322 0.18294 0.79709
 C750 C 0.58586 0.19419 0.80396
 C751 C 0.59027 0.19837 0.81772
 C752 C 0.60184 0.19152 0.82442
 C753 C 0.57378 0.20166 0.79670
 C754 C 0.57236 0.21668 0.79766
 C755 C 0.56113 0.22375 0.79063
 C756 C 0.55116 0.21592 0.78257
 C757 C 0.55242 0.20098 0.78161
 C758 C 0.56366 0.19389 0.78862
 C759 C 0.53977 0.22327 0.77514
 C760 C 0.53032 0.22950 0.76886
 H761 H 0.61042 0.16756 0.79830
 H762 H 0.59022 0.17960 0.78643
 H763 H 0.58471 0.20687 0.82336
 H764 H 0.60511 0.19493 0.83500
 H765 H 0.58008 0.22299 0.80362
 H766 H 0.56028 0.23533 0.79140
 H767 H 0.54475 0.19482 0.77541
 H768 H 0.56435 0.18231 0.78782
 C769 C 1.13095 0.66788 0.83048
 C770 C 1.12073 0.67353 0.82487
 C771 C 1.10864 0.68036 0.81808
 C772 C 1.10435 0.67609 0.80440
 C773 C 1.09280 0.68294 0.79765
 C774 C 1.08541 0.69417 0.80451
 C775 C 1.08976 0.69832 0.81831
 C776 C 1.10130 0.69145 0.82504
 C777 C 1.07335 0.70165 0.79722
 C778 C 1.07192 0.71667 0.79820
 C779 C 1.06071 0.72374 0.79114
 C780 C 1.05079 0.71593 0.78302
 C781 C 1.05206 0.70099 0.78204
 C782 C 1.06326 0.69389 0.78909
 C783 C 1.03943 0.72327 0.77554
 C784 C 1.03001 0.72949 0.76920
 H785 H 1.11000 0.66756 0.79889
 H786 H 1.08984 0.67963 0.78696
 H787 H 1.08417 0.70680 0.82394
 H788 H 1.10452 0.69483 0.83564
 H789 H 1.07961 0.72297 0.80421
 H790 H 1.05986 0.73532 0.79192
 H791 H 1.04442 0.69483 0.77580
 H792 H 1.06397 0.68231 0.78827
 C793 C 1.13110 0.16873 0.33076
 C794 C 1.12100 0.17451 0.32508
 C795 C 1.10908 0.18155 0.31821
 C796 C 1.10772 0.19649 0.31898
 C797 C 1.09633 0.20341 0.31206
 C798 C 1.08612 0.19545 0.30428
 C799 C 1.08751 0.18041 0.30365
 C800 C 1.09893 0.17352 0.31057
 C801 C 1.07417 0.20282 0.29670
 C802 C 1.06020 0.19696 0.29670
 C803 C 1.04899 0.20391 0.28950
 C804 C 1.05160 0.21679 0.28222
 C805 C 1.06545 0.22270 0.28216
 C806 C 1.07667 0.21578 0.28935
 C807 C 1.04012 0.22394 0.27474
 C808 C 1.03062 0.23004 0.26841
 H809 H 1.11550 0.20281 0.32489
 H810 H 1.09543 0.21497 0.31291
 H811 H 1.07994 0.17401 0.29760
 H812 H 1.09991 0.16195 0.30986
 H813 H 1.05790 0.18709 0.30240
 H814 H 1.03830 0.19925 0.28964
 H815 H 1.06760 0.23264 0.27651
 H816 H 1.08733 0.22046 0.28898
 C817 C 0.63212 0.33232 0.66744
 C818 C 0.62171 0.32677 0.67282
 C819 C 0.60941 0.32002 0.67936
 C820 C 0.60445 0.32476 0.69266
 C821 C 0.59273 0.31796 0.69920
 C822 C 0.58584 0.30631 0.69252
 C823 C 0.59084 0.30171 0.67908
 C824 C 0.60255 0.30852 0.67256
 C825 C 0.57365 0.29883 0.69964
 C826 C 0.57259 0.28376 0.69922
 C827 C 0.56130 0.27669 0.70617
 C828 C 0.55091 0.28456 0.71364
 C829 C 0.55181 0.29956 0.71405
 C830 C 0.56310 0.30666 0.70711
 C831 C 0.53950 0.27721 0.72106
 C832 C 0.53007 0.27094 0.72736
 H833 H 0.60972 0.33361 0.69805
 H834 H 0.58926 0.32164 0.70962
 H835 H 0.58565 0.29289 0.67358
 H836 H 0.60629 0.30479 0.66224
 H837 H 0.58065 0.27742 0.69374
 H838 H 0.56075 0.26507 0.70584
 H839 H 0.54381 0.30576 0.71978
 H840 H 0.56352 0.31827 0.70748
 C841 C 0.63217 0.83308 0.16769
 C842 C 0.62171 0.82754 0.17299
 C843 C 0.60936 0.82081 0.17945
 C844 C 0.60495 0.82485 0.19317
 C845 C 0.59319 0.81806 0.19962
 C846 C 0.58569 0.80710 0.19243
 C847 C 0.59015 0.80319 0.17860
 C848 C 0.60190 0.81001 0.17216
 C849 C 0.57345 0.79960 0.19945
 C850 C 0.57183 0.78463 0.19813
 C851 C 0.56052 0.77752 0.20502
 C852 C 0.55066 0.78525 0.21329
 C853 C 0.55210 0.80016 0.21458
 C854 C 0.56342 0.80729 0.20772
 C855 C 0.53925 0.77784 0.22066
 C856 C 0.52982 0.77154 0.22693
 H857 H 0.61068 0.83316 0.19893
 H858 H 0.59015 0.82118 0.21035
 H859 H 0.58448 0.79492 0.17272
 H860 H 0.60522 0.80681 0.16153
 H861 H 0.57948 0.77838 0.19202
 H862 H 0.55954 0.76597 0.20399
 H863 H 0.54452 0.80625 0.22095
 H864 H 0.56427 0.81884 0.20879
 C865 C 1.13264 0.33218 0.16675
 C866 C 1.12223 0.32661 0.17211
 C867 C 1.10992 0.31987 0.17863
 C868 C 1.10508 0.32446 0.19203
 C869 C 1.09335 0.31768 0.19855
 C870 C 1.08630 0.30618 0.19174
 C871 C 1.09119 0.30172 0.17822
 C872 C 1.10292 0.30852 0.17172
 C873 C 1.07408 0.29873 0.19883
 C874 C 1.07286 0.28368 0.19822
 C875 C 1.06154 0.27664 0.20516
 C876 C 1.05129 0.28452 0.21279
 C877 C 1.05234 0.29950 0.21338
 C878 C 1.06365 0.30657 0.20646
 C879 C 1.03986 0.27720 0.22022
 C880 C 1.03041 0.27098 0.22654
 H881 H 1.11046 0.33319 0.19750
 H882 H 1.08997 0.32124 0.20904
 H883 H 1.08588 0.29302 0.17263
 H884 H 1.10657 0.30489 0.16133
 H885 H 1.08082 0.27733 0.19261
 H886 H 1.06087 0.26503 0.20468
 H887 H 1.04444 0.30571 0.21925
 H888 H 1.06420 0.31818 0.20698
 C889 C 1.13198 0.83170 0.66728
 C890 C 1.12158 0.82613 0.67267
 C891 C 1.10928 0.81939 0.67921
 C892 C 1.10427 0.82419 0.69248
 C893 C 1.09255 0.81742 0.69902
 C894 C 1.08569 0.80572 0.69238
 C895 C 1.09074 0.80104 0.67898
 C896 C 1.10246 0.80784 0.67246
 C897 C 1.07348 0.79828 0.69951
 C898 C 1.07242 0.78320 0.69917
 C899 C 1.06112 0.77617 0.70614
 C900 C 1.05071 0.78409 0.71354
 C901 C 1.05160 0.79909 0.71386
 C902 C 1.06291 0.80615 0.70689
 C903 C 1.03929 0.77679 0.72099
 C904 C 1.02985 0.77058 0.72733
 H905 H 1.10951 0.83308 0.69783
 H906 H 1.08905 0.82115 0.70941
 H907 H 1.08557 0.79219 0.67352
 H908 H 1.10623 0.80405 0.66217
 H909 H 1.08049 0.77683 0.69374
 H910 H 1.06057 0.76455 0.70588
 H911 H 1.04359 0.80533 0.71953
 H912 H 1.06332 0.81777 0.70720
 C913 C 0.36957 0.66851 0.66830
 C914 C 0.37974 0.67403 0.67411
 C915 C 0.39175 0.68070 0.68119
 C916 C 0.39533 0.67668 0.69516
 C917 C 0.40678 0.68339 0.70219
 C918 C 0.41480 0.69422 0.69534
 C919 C 0.41119 0.69811 0.68125
 C920 C 0.39973 0.69139 0.67424
 C921 C 0.42675 0.70158 0.70293
 C922 C 0.43962 0.70501 0.69575
 C923 C 0.45079 0.71206 0.70291
 C924 C 0.44923 0.71579 0.71731
 C925 C 0.43649 0.71241 0.72455
 C926 C 0.42532 0.70535 0.71743
 C927 C 0.46064 0.72319 0.72467
 C928 C 0.47007 0.72945 0.73094
 H929 H 0.38925 0.66840 0.70063
 H930 H 0.40941 0.68002 0.71296
 H931 H 0.41703 0.70653 0.67576
 H932 H 0.39701 0.69462 0.66344
 H933 H 0.44112 0.70210 0.68465
 H934 H 0.46063 0.71461 0.69721
 H935 H 0.43515 0.71529 0.73568
 H936 H 0.41547 0.70305 0.72319
 C937 C 0.36914 0.16875 0.16869
 C938 C 0.37927 0.17430 0.17457
 C939 C 0.39122 0.18098 0.18174
 C940 C 0.39268 0.17963 0.19656
 C941 C 0.40410 0.18635 0.20362
 C942 C 0.41423 0.19453 0.19592
 C943 C 0.41273 0.19574 0.18100
 C944 C 0.40128 0.18902 0.17397
 C945 C 0.42621 0.20189 0.20346
 C946 C 0.44014 0.20220 0.19754
 C947 C 0.45138 0.20919 0.20466
 C948 C 0.44884 0.21596 0.21776
 C949 C 0.43502 0.21572 0.22373
 C950 C 0.42378 0.20874 0.21665
 C951 C 0.46035 0.22322 0.22509
 C952 C 0.46988 0.22936 0.23135
 H953 H 0.38496 0.17341 0.20268
 H954 H 0.40507 0.18505 0.21508
 H955 H 0.42024 0.20211 0.17481
 H956 H 0.40022 0.19018 0.16249
 H957 H 0.44238 0.19690 0.18749
 H958 H 0.46204 0.20929 0.19995
 H959 H 0.43293 0.22097 0.23385
 H960 H 0.41314 0.20887 0.22139
 C961 C -0.13093 0.66810 0.16834
 C962 C -0.12070 0.67363 0.17404
 C963 C -0.10860 0.68031 0.18096
 C964 C -0.10247 0.67400 0.19310
 C965 C -0.09095 0.68067 0.20004
 C966 C -0.08540 0.69377 0.19493
 C967 C -0.09156 0.69998 0.18265
 C968 C -0.10309 0.69329 0.17573
 C969 C -0.07338 0.70105 0.20248
 C970 C -0.06227 0.70781 0.19475
 C971 C -0.05109 0.71485 0.20190
 C972 C -0.05086 0.71522 0.21685
 C973 C -0.06182 0.70847 0.22463
 C974 C -0.07300 0.70143 0.21751
 C975 C -0.03949 0.72266 0.22422
 C976 C -0.03007 0.72894 0.23048
 H977 H -0.10664 0.66394 0.19722
 H978 H -0.08632 0.67553 0.20935
 H979 H -0.08766 0.71015 0.17856
 H980 H -0.10779 0.69830 0.16637
 H981 H -0.06216 0.70756 0.18318
 H982 H -0.04264 0.72001 0.19576
 H983 H -0.06178 0.70874 0.23621
 H984 H -0.08149 0.69650 0.22377
 C985 C -0.13096 0.16775 0.66889
 C986 C -0.12083 0.17332 0.67473
 C987 C -0.10887 0.18005 0.68185
 C988 C -0.10636 0.17732 0.69634
 C989 C -0.09496 0.18409 0.70338
 C990 C -0.08589 0.19369 0.69600
 C991 C -0.08844 0.19627 0.68140
 C992 C -0.09987 0.18950 0.67438
 C993 C -0.07397 0.20112 0.70356
 C994 C -0.06050 0.20303 0.69691
 C995 C -0.04934 0.21012 0.70402
 C996 C -0.05148 0.21541 0.71786
 C997 C -0.06482 0.21354 0.72457
 C998 C -0.07599 0.20645 0.71748
 C999 C -0.04006 0.22282 0.72517
 C1000 C -0.03061 0.22909 0.73140
 H1001 H -0.11325 0.17000 0.70222
 H1002 H -0.09316 0.18173 0.71458
 H1003 H -0.08177 0.20374 0.67547
 H1004 H -0.10175 0.19172 0.66316
 H1005 H -0.05856 0.19890 0.68627
 H1006 H -0.03904 0.21148 0.69874
 H1007 H -0.06662 0.21764 0.73525
 H1008 H -0.08629 0.20533 0.72281
 C1009 C 0.33136 0.36845 0.33388
 C1010 C 0.32590 0.37877 0.32830
 C1011 C 0.31928 0.39097 0.32153
 C1012 C 0.30521 0.39492 0.32517
 C1013 C 0.29862 0.40655 0.31834
 C1014 C 0.30603 0.41439 0.30776
 C1015 C 0.32020 0.41039 0.30426
 C1016 C 0.32677 0.39876 0.31110
 C1017 C 0.29890 0.42652 0.30026
 C1018 C 0.30068 0.42840 0.28544
 C1019 C 0.29373 0.43963 0.27831
 C1020 C 0.28492 0.44914 0.28589
 C1021 C 0.28315 0.44742 0.30065
 C1022 C 0.29009 0.43619 0.30780
 C1023 C 0.27753 0.46049 0.27847
 C1024 C 0.27126 0.46989 0.27216
 H1025 H 0.29929 0.38893 0.33318
 H1026 H 0.28764 0.40924 0.32114
 H1027 H 0.32625 0.41631 0.29629
 H1028 H 0.33768 0.39580 0.30822
 H1029 H 0.30723 0.42102 0.27930
 H1030 H 0.29513 0.44082 0.26688
 H1031 H 0.27637 0.45473 0.30663
 H1032 H 0.28864 0.43513 0.31924
 C1033 C 0.33170 -0.13222 0.83282
 C1034 C 0.32623 -0.12188 0.82728
 C1035 C 0.31958 -0.10965 0.82059
 C1036 C 0.30549 -0.10577 0.82424
 C1037 C 0.29888 -0.09411 0.81751
 C1038 C 0.30627 -0.08616 0.80700
 C1039 C 0.32046 -0.09009 0.80348
 C1040 C 0.32706 -0.10176 0.81024
 C1041 C 0.29910 -0.07399 0.79959
 C1042 C 0.30090 -0.07198 0.78478
 C1043 C 0.29389 -0.06073 0.77775
 C1044 C 0.28503 -0.05133 0.78540
 C1045 C 0.28326 -0.05317 0.80014
 C1046 C 0.29024 -0.06442 0.80720
 C1047 C 0.27756 -0.03996 0.77806
 C1048 C 0.27123 -0.03056 0.77182
 H1049 H 0.29958 -0.11185 0.83220
 H1050 H 0.28788 -0.09149 0.82031
 H1051 H 0.32649 -0.08408 0.79557
 H1052 H 0.33798 -0.10465 0.80735
 H1053 H 0.30748 -0.07927 0.77859
 H1054 H 0.29529 -0.05943 0.76632
 H1055 H 0.27644 -0.04594 0.80617
 H1056 H 0.28879 -0.06558 0.81863
 C1057 C 0.83071 0.36892 0.83318
 C1058 C 0.82521 0.37927 0.82769
 C1059 C 0.81855 0.39150 0.82102
 C1060 C 0.80703 0.39846 0.82771
 C1061 C 0.80032 0.41013 0.82106
 C1062 C 0.80506 0.41498 0.80760
 C1063 C 0.81672 0.40798 0.80101
 C1064 C 0.82340 0.39631 0.80768
 C1065 C 0.79772 0.42715 0.80035
 C1066 C 0.80572 0.43755 0.79284
 C1067 C 0.79876 0.44882 0.78577
 C1068 C 0.78373 0.44984 0.78612
 C1069 C 0.77569 0.43960 0.79362
 C1070 C 0.78262 0.42833 0.80070
 C1071 C 0.77653 0.46125 0.77859
 C1072 C 0.77041 0.47069 0.77220
 H1073 H 0.80320 0.39484 0.83805
 H1074 H 0.79149 0.41541 0.82648
 H1075 H 0.82049 0.41133 0.79057
 H1076 H 0.83227 0.39096 0.80238
 H1077 H 0.81736 0.43704 0.79251
 H1078 H 0.80509 0.45671 0.78001
 H1079 H 0.76404 0.44025 0.79391
 H1080 H 0.77615 0.42038 0.80621
 C1081 C 0.83208 -0.13092 0.33296
 C1082 C 0.82665 -0.12055 0.32744
 C1083 C 0.82004 -0.10829 0.32075
 C1084 C 0.80950 -0.10044 0.32803
 C1085 C 0.80278 -0.08879 0.32139
 C1086 C 0.80651 -0.08482 0.30734
 C1087 C 0.81721 -0.09272 0.30016
 C1088 C 0.82391 -0.10438 0.30682
 C1089 C 0.79911 -0.07269 0.30012
 C1090 C 0.80686 -0.06306 0.29141
 C1091 C 0.79980 -0.05184 0.28438
 C1092 C 0.78492 -0.05008 0.28595
 C1093 C 0.77713 -0.05954 0.29465
 C1094 C 0.78417 -0.07076 0.30170
 C1095 C 0.77758 -0.03876 0.27842
 C1096 C 0.77133 -0.02940 0.27204
 H1097 H 0.80643 -0.10338 0.33882
 H1098 H 0.79472 -0.08282 0.32726
 H1099 H 0.82019 -0.09006 0.28928
 H1100 H 0.83201 -0.11042 0.30106
 H1101 H 0.81840 -0.06416 0.29012
 H1102 H 0.80594 -0.04456 0.27768
 H1103 H 0.76560 -0.05831 0.29589
 H1104 H 0.77787 -0.07810 0.30816
 C1105 C 0.33220 0.63107 0.66745
 C1106 C 0.32654 0.62076 0.67288
 C1107 C 0.31969 0.60858 0.67948
 C1108 C 0.30769 0.60219 0.67304
 C1109 C 0.30079 0.59060 0.67965
 C1110 C 0.30581 0.58523 0.69280
 C1111 C 0.31795 0.59165 0.69913
 C1112 C 0.32483 0.60326 0.69251
 C1113 C 0.29827 0.57315 0.70002
 C1114 C 0.30613 0.56227 0.70697
 C1115 C 0.29899 0.55107 0.71400
 C1116 C 0.28393 0.55059 0.71418
 C1117 C 0.27603 0.56131 0.70722
 C1118 C 0.28314 0.57251 0.70018
 C1119 C 0.27657 0.53925 0.72167
 C1120 C 0.27031 0.52986 0.72802
 H1121 H 0.30363 0.60622 0.66295
 H1122 H 0.29159 0.58577 0.67442
 H1123 H 0.32196 0.58790 0.70933
 H1124 H 0.33407 0.60816 0.69761
 H1125 H 0.31779 0.56237 0.70688
 H1126 H 0.30522 0.54282 0.71933
 H1127 H 0.26436 0.56107 0.70734
 H1128 H 0.27678 0.58082 0.69510
 C1129 C 0.33260 1.13149 0.16787
 C1130 C 0.32697 1.12113 0.17324
 C1131 C 0.32017 1.10889 0.17979
 C1132 C 0.30588 1.10548 0.17648
 C1133 C 0.29913 1.09382 0.18313
 C1134 C 0.30659 1.08542 0.19321
 C1135 C 0.32100 1.08887 0.19638
 C1136 C 0.32773 1.10053 0.18971
 C1137 C 0.29930 1.07328 0.20057
 C1138 C 0.30148 1.07087 0.21526
 C1139 C 0.29437 1.05964 0.22226
 C1140 C 0.28501 1.05066 0.21469
 C1141 C 0.28284 1.05290 0.20005
 C1142 C 0.28993 1.06413 0.19303
 C1143 C 0.27745 1.03933 0.22201
 C1144 C 0.27106 1.02995 0.22825
 H1145 H 0.29991 1.11191 0.16887
 H1146 H 0.28798 1.09156 0.18061
 H1147 H 0.32709 1.08251 0.20395
 H1148 H 0.33880 1.10307 0.19233
 H1149 H 0.30846 1.07783 0.22140
 H1150 H 0.29608 1.05804 0.23361
 H1151 H 0.27563 1.04600 0.19409
 H1152 H 0.28816 1.06560 0.18168
 C1153 C 0.83239 0.63094 0.16793
 C1154 C 0.82680 0.62058 0.17332
 C1155 C 0.82002 0.60832 0.17987
 C1156 C 0.82439 0.60372 0.19343
 C1157 C 0.81757 0.59204 0.19998
 C1158 C 0.80625 0.58482 0.19303
 C1159 C 0.80200 0.58947 0.17935
 C1160 C 0.80885 0.60114 0.17282
 C1161 C 0.79874 0.57266 0.20015
 C1162 C 0.78368 0.57131 0.19924
 C1163 C 0.77657 0.56006 0.20622
 C1164 C 0.78440 0.55002 0.21417
 C1165 C 0.79939 0.55120 0.21506
 C1166 C 0.80653 0.56244 0.20810
 C1167 C 0.77700 0.53867 0.22163
 C1168 C 0.77072 0.52929 0.22798
 H1169 H 0.83298 0.60924 0.19901
 H1170 H 0.82095 0.58886 0.21059
 H1171 H 0.79345 0.58402 0.17366
 H1172 H 0.80539 0.60460 0.16231
 H1173 H 0.77736 0.57910 0.19338
 H1174 H 0.76495 0.55928 0.20551
 H1175 H 0.80556 0.54347 0.22117
 H1176 H 0.81814 0.56309 0.20885
 C1177 C 0.83289 1.13108 0.66782
 C1178 C 0.82728 1.12071 0.67319
 C1179 C 0.82050 1.10846 0.67974
 C1180 C 0.82439 1.10427 0.69358
 C1181 C 0.81756 1.09260 0.70012
 C1182 C 0.80671 1.08496 0.69289
 C1183 C 0.80295 1.08918 0.67893
 C1184 C 0.80981 1.10086 0.67241
 C1185 C 0.79918 1.07280 0.69998
 C1186 C 0.78420 1.07107 0.69848
 C1187 C 0.77706 1.05983 0.70545
 C1188 C 0.78477 1.05018 0.71397
 C1189 C 0.79968 1.05173 0.71545
 C1190 C 0.80685 1.06296 0.70850
 C1191 C 0.77732 1.03886 0.72143
 C1192 C 0.77100 1.02951 0.72778
 H1193 H 0.83262 1.11012 0.69937
 H1194 H 0.82056 1.08974 0.71093
 H1195 H 0.79477 1.08341 0.67302
 H1196 H 0.80672 1.10399 0.66169
 H1197 H 0.77796 1.07856 0.69217
 H1198 H 0.76550 1.05877 0.70428
 H1199 H 0.80576 1.04430 0.72201
 H1200 H 0.81840 1.06390 0.70972
 C1201 C 0.66838 0.63118 0.33030
 C1202 C 0.67401 0.62089 0.32484
 C1203 C 0.68081 0.60872 0.31821
 C1204 C 0.69259 0.60209 0.32479
 C1205 C 0.69942 0.59048 0.31818
 C1206 C 0.69455 0.58536 0.30489
 C1207 C 0.68263 0.59205 0.29841
 C1208 C 0.67583 0.60366 0.30504
 C1209 C 0.70200 0.57325 0.29770
 C1210 C 0.69408 0.56258 0.29052
 C1211 C 0.70113 0.55134 0.28353
 C1212 C 0.71618 0.55060 0.28362
 C1213 C 0.72416 0.56112 0.29079
 C1214 C 0.71713 0.57236 0.29779
 C1215 C 0.72346 0.53920 0.27619
 C1216 C 0.72961 0.52975 0.26987
 H1217 H 0.69652 0.60591 0.33500
 H1218 H 0.70845 0.58545 0.32352
 H1219 H 0.67875 0.58849 0.28810
 H1220 H 0.66675 0.60876 0.29982
 H1221 H 0.68242 0.56287 0.29040
 H1222 H 0.69485 0.54324 0.27804
 H1223 H 0.73581 0.56069 0.29088
 H1224 H 0.72354 0.58051 0.30304
 C1225 C 0.66860 1.13129 0.83035
 C1226 C 0.67422 1.12104 0.82481
 C1227 C 0.68102 1.10892 0.81810
 C1228 C 0.69231 1.10177 0.82498
 C1229 C 0.69914 1.09019 0.81833
 C1230 C 0.69475 1.08560 0.80468
 C1231 C 0.68331 1.09281 0.79790
 C1232 C 0.67651 1.10439 0.80457
 C1233 C 0.70218 1.07350 0.79746
 C1234 C 0.69430 1.06328 0.78962
 C1235 C 0.70136 1.05204 0.78262
 C1236 C 0.71636 1.05087 0.78336
 C1237 C 0.72428 1.06094 0.79118
 C1238 C 0.71726 1.07217 0.79820
 C1239 C 0.72365 1.03948 0.77592
 C1240 C 0.72981 1.03002 0.76962
 H1241 H 0.69587 1.10517 0.83547
 H1242 H 0.70778 1.08475 0.82390
 H1243 H 0.67981 1.08967 0.78732
 H1244 H 0.66782 1.10989 0.79912
 H1245 H 0.68268 1.06391 0.78900
 H1246 H 0.69511 1.04430 0.77661
 H1247 H 0.73591 1.06016 0.79178
 H1248 H 0.72364 1.07997 0.80398
 C1249 C 0.16795 0.63111 0.83100
 C1250 C 0.17356 0.62086 0.82545
 C1251 C 0.18034 0.60874 0.81871
 C1252 C 0.17582 0.60424 0.80518
 C1253 C 0.18262 0.59268 0.79847
 C1254 C 0.19406 0.58547 0.80522
 C1255 C 0.19847 0.59002 0.81887
 C1256 C 0.19164 0.60158 0.82557
 C1257 C 0.20150 0.57339 0.79796
 C1258 C 0.21658 0.57208 0.79867
 C1259 C 0.22361 0.56088 0.79161
 C1260 C 0.21569 0.55083 0.78376
 C1261 C 0.20069 0.55198 0.78305
 C1262 C 0.19363 0.56318 0.79010
 C1263 C 0.22299 0.53947 0.77628
 C1264 C 0.22918 0.53006 0.76993
 H1265 H 0.16712 0.60975 0.79975
 H1266 H 0.17911 0.58956 0.78789
 H1267 H 0.20711 0.58457 0.82442
 H1268 H 0.19522 0.60496 0.83606
 H1269 H 0.22296 0.57988 0.80446
 H1270 H 0.23524 0.56012 0.79218
 H1271 H 0.19445 0.54424 0.77703
 H1272 H 0.18200 0.56380 0.78949
 C1273 C 0.16819 1.13105 0.33110
 C1274 C 0.17382 1.12082 0.32554
 C1275 C 0.18065 1.10872 0.31881
 C1276 C 0.17586 1.10394 0.30546
 C1277 C 0.18270 1.09240 0.29875
 C1278 C 0.19446 1.08551 0.30530
 C1279 C 0.19913 1.09035 0.31876
 C1280 C 0.19226 1.10188 0.32546
 C1281 C 0.20194 1.07347 0.29802
 C1282 C 0.21705 1.07246 0.29835
 C1283 C 0.22411 1.06128 0.29128
 C1284 C 0.21619 1.05096 0.28380
 C1285 C 0.20115 1.05182 0.28346
 C1286 C 0.19406 1.06300 0.29052
 C1287 C 0.22350 1.03962 0.27631
 C1288 C 0.22969 1.03021 0.26995
 H1289 H 0.16691 1.10920 0.30019
 H1290 H 0.17897 1.08906 0.28830
 H1291 H 0.20803 1.08516 0.32416
 H1292 H 0.19605 1.10549 0.33580
 H1293 H 0.22343 1.08046 0.30386
 H1294 H 0.23576 1.06076 0.29157
 H1295 H 0.19490 1.04387 0.27772
 H1296 H 0.18241 1.06338 0.29021
 C1297 C 0.66963 0.36964 0.66796
 C1298 C 0.67511 0.37992 0.67359
 C1299 C 0.68174 0.39208 0.68042
 C1300 C 0.67769 0.39593 0.69430
 C1301 C 0.68435 0.40753 0.70109
 C1302 C 0.69518 0.41543 0.69408
 C1303 C 0.69911 0.41153 0.68008
 C1304 C 0.69243 0.39993 0.67331
 C1305 C 0.70250 0.42754 0.70142
 C1306 C 0.71746 0.42949 0.70006
 C1307 C 0.72440 0.44070 0.70722
 C1308 C 0.71649 0.45012 0.71580
 C1309 C 0.70158 0.44835 0.71715
 C1310 C 0.69462 0.43713 0.71001
 C1311 C 0.72371 0.46146 0.72341
 C1312 C 0.72984 0.47084 0.72985
 H1313 H 0.66947 0.38989 0.69992
 H1314 H 0.68122 0.41014 0.71193
 H1315 H 0.70728 0.41751 0.67434
 H1316 H 0.69563 0.39705 0.66255
 H1317 H 0.72385 0.42218 0.69369
 H1318 H 0.73595 0.44194 0.70614
 H1319 H 0.69535 0.45560 0.72375
 H1320 H 0.68307 0.43603 0.71113
 C1321 C 0.66913 -0.13105 0.16887
 C1322 C 0.67477 -0.12097 0.17470
 C1323 C 0.68158 -0.10907 0.18180
 C1324 C 0.68619 -0.09712 0.17394
 C1325 C 0.69301 -0.08566 0.18084
 C1326 C 0.69533 -0.08605 0.19570
 C1327 C 0.69060 -0.09809 0.20350
 C1328 C 0.68377 -0.10952 0.19658
 C1329 C 0.70277 -0.07401 0.20303
 C1330 C 0.71291 -0.07678 0.21386
 C1331 C 0.71990 -0.06547 0.22079
 C1332 C 0.71688 -0.05124 0.21701
 C1333 C 0.70684 -0.04836 0.20623
 C1334 C 0.69983 -0.05966 0.19927
 C1335 C 0.72409 -0.03965 0.22422
 C1336 C 0.73022 -0.03007 0.23038
 H1337 H 0.68459 -0.09669 0.16248
 H1338 H 0.69668 -0.07663 0.17452
 H1339 H 0.69205 -0.09862 0.21497
 H1340 H 0.68022 -0.11871 0.20277
 H1341 H 0.71556 -0.08769 0.21685
 H1342 H 0.72769 -0.06782 0.22908
 H1343 H 0.70439 -0.03739 0.20324
 H1344 H 0.69197 -0.05718 0.19110
 C1345 C 0.16959 0.36905 0.16791
 C1346 C 0.17512 0.37925 0.17362
 C1347 C 0.18180 0.39132 0.18056
 C1348 C 0.17514 0.39776 0.19234
 C1349 C 0.18179 0.40926 0.19932
 C1350 C 0.19520 0.41447 0.19459
 C1351 C 0.20175 0.40799 0.18266
 C1352 C 0.19509 0.39648 0.17571
 C1353 C 0.20243 0.42648 0.20218
 C1354 C 0.20968 0.43729 0.19449
 C1355 C 0.21665 0.44846 0.20168
 C1356 C 0.21648 0.44897 0.21663
 C1357 C 0.20926 0.43829 0.22437
 C1358 C 0.20227 0.42713 0.21721
 C1359 C 0.22386 0.46032 0.22406
 C1360 C 0.23009 0.46973 0.23037
 H1361 H 0.16484 0.39386 0.19617
 H1362 H 0.17639 0.41414 0.20834
 H1363 H 0.21215 0.41163 0.17888
 H1364 H 0.20036 0.39154 0.16664
 H1365 H 0.20984 0.43719 0.18292
 H1366 H 0.22219 0.45669 0.19559
 H1367 H 0.20911 0.43855 0.23595
 H1368 H 0.19696 0.41886 0.22343
 C1369 C 0.16893 -0.13142 0.66830
 C1370 C 0.17446 -0.12120 0.67399
 C1371 C 0.18115 -0.10912 0.68089
 C1372 C 0.17477 -0.10296 0.69296
 C1373 C 0.18144 -0.09145 0.69989
 C1374 C 0.19461 -0.08594 0.69483
 C1375 C 0.20088 -0.09214 0.68262
 C1376 C 0.19420 -0.10366 0.67571
 C1377 C 0.20188 -0.07393 0.70237
 C1378 C 0.20872 -0.06289 0.69463
 C1379 C 0.21573 -0.05171 0.70178
 C1380 C 0.21602 -0.05142 0.71673
 C1381 C 0.20920 -0.06232 0.72452
 C1382 C 0.20217 -0.07349 0.71741
 C1383 C 0.22344 -0.04006 0.72410
 C1384 C 0.22972 -0.03065 0.73037
 H1385 H 0.16466 -0.10709 0.69705
 H1386 H 0.17624 -0.08679 0.70915
 H1387 H 0.21110 -0.08828 0.67857
 H1388 H 0.19926 -0.10839 0.66641
 H1389 H 0.20853 -0.06282 0.68306
 H1390 H 0.22096 -0.04331 0.69564
 H1391 H 0.20940 -0.06223 0.73610
 H1392 H 0.19719 -0.08193 0.72367
 C1393 C 0.33076 0.33100 0.37102
 C1394 C 0.32506 0.32543 0.38119
 C1395 C 0.31816 0.31866 0.39322
 C1396 C 0.32538 0.30800 0.40097
 C1397 C 0.31855 0.30116 0.41243
 C1398 C 0.30439 0.30490 0.41630
 C1399 C 0.29728 0.31570 0.40850
 C1400 C 0.30412 0.32252 0.39703
 C1401 C 0.29700 0.29742 0.42826
 C1402 C 0.28824 0.30510 0.43786
 C1403 C 0.28109 0.29798 0.44896
 C1404 C 0.28258 0.28312 0.45061
 C1405 C 0.29132 0.27540 0.44117
 C1406 C 0.29849 0.28249 0.43007
 C1407 C 0.27500 0.27575 0.46186
 C1408 C 0.26859 0.26949 0.47119
 H1409 H 0.33626 0.30495 0.39812
 H1410 H 0.32437 0.29303 0.41834
 H1411 H 0.28631 0.31869 0.41108
 H1412 H 0.29842 0.33071 0.39106
 H1413 H 0.28702 0.31662 0.43685
 H1414 H 0.27437 0.30407 0.45623
 H1415 H 0.29250 0.26388 0.44232
 H1416 H 0.30498 0.27625 0.42275
 C1417 C 0.33071 0.83098 -0.13040
 C1418 C 0.32499 0.82544 -0.12022
 C1419 C 0.31807 0.81872 -0.10818
 C1420 C 0.30607 0.82518 -0.10183
 C1421 C 0.29912 0.81850 -0.09035
 C1422 C 0.30409 0.80524 -0.08507
 C1423 C 0.31623 0.79888 -0.09147
 C1424 C 0.32315 0.80559 -0.10295
 C1425 C 0.29652 0.79795 -0.07309
 C1426 C 0.30434 0.79092 -0.06228
 C1427 C 0.29717 0.78387 -0.05114
 C1428 C 0.28211 0.78375 -0.05067
 C1429 C 0.27424 0.79077 -0.06134
 C1430 C 0.28138 0.79783 -0.07247
 C1431 C 0.27472 0.77628 -0.03937
 C1432 C 0.26845 0.76996 -0.02999
 H1433 H 0.30206 0.83536 -0.10578
 H1434 H 0.28992 0.82374 -0.08554
 H1435 H 0.32019 0.78860 -0.08778
 H1436 H 0.33240 0.80046 -0.10783
 H1437 H 0.31600 0.79098 -0.06236
 H1438 H 0.30338 0.77849 -0.04292
 H1439 H 0.26258 0.79069 -0.06111
 H1440 H 0.27505 0.80297 -0.08074
 C1441 C 0.83018 0.33188 -0.13024
 C1442 C 0.82457 0.32622 -0.12006
 C1443 C 0.81779 0.31936 -0.10803
 C1444 C 0.80744 0.32673 -0.10001
 C1445 C 0.80060 0.31995 -0.08852
 C1446 C 0.80402 0.30568 -0.08490
 C1447 C 0.81451 0.29840 -0.09297
 C1448 C 0.82133 0.30520 -0.10446
 C1449 C 0.79654 0.29834 -0.07291
 C1450 C 0.80417 0.28926 -0.06355
 C1451 C 0.79704 0.28215 -0.05243
 C1452 C 0.78221 0.28400 -0.05051
 C1453 C 0.77455 0.29306 -0.05971
 C1454 C 0.78165 0.30019 -0.07082
 C1455 C 0.77481 0.27646 -0.03926
 C1456 C 0.76853 0.27007 -0.02994
 H1457 H 0.80463 0.33771 -0.10267
 H1458 H 0.79271 0.32589 -0.08240
 H1459 H 0.81724 0.28735 -0.09058
 H1460 H 0.82928 0.29938 -0.11064
 H1461 H 0.81566 0.28775 -0.06477
 H1462 H 0.80308 0.27518 -0.04536
 H1463 H 0.76306 0.29453 -0.05835
 H1464 H 0.77544 0.30694 -0.07795
 C1465 C 0.83105 0.83225 0.36971
 C1466 C 0.82536 0.82668 0.37990
 C1467 C 0.81849 0.81990 0.39194
 C1468 C 0.80448 0.82381 0.39581
 C1469 C 0.79764 0.81697 0.40728
 C1470 C 0.80475 0.80610 0.41500
 C1471 C 0.81888 0.80233 0.41108
 C1472 C 0.82569 0.80919 0.39962
 C1473 C 0.79736 0.79858 0.42695
 C1474 C 0.79880 0.78364 0.42867
 C1475 C 0.79163 0.77651 0.43975
 C1476 C 0.78295 0.78421 0.44926
 C1477 C 0.78151 0.79909 0.44769
 C1478 C 0.78866 0.80624 0.43661
 C1479 C 0.77536 0.77680 0.46048
 C1480 C 0.76895 0.77051 0.46978
 H1481 H 0.79878 0.83204 0.38990
 H1482 H 0.78670 0.81998 0.40991
 H1483 H 0.82469 0.79414 0.41693
 H1484 H 0.83655 0.80610 0.39671
 H1485 H 0.80526 0.77741 0.42130
 H1486 H 0.79278 0.76498 0.44083
 H1487 H 0.77483 0.80515 0.45501
 H1488 H 0.78747 0.81777 0.43567
 C1489 C 0.67007 0.33238 0.63074
 C1490 C 0.67574 0.32685 0.62055
 C1491 C 0.68261 0.32014 0.60849
 C1492 C 0.67746 0.30703 0.60329
 C1493 C 0.68432 0.30033 0.59179
 C1494 C 0.69645 0.30668 0.58534
 C1495 C 0.70149 0.31992 0.59059
 C1496 C 0.69460 0.32659 0.60209
 C1497 C 0.70395 0.29941 0.57333
 C1498 C 0.71909 0.29927 0.57264
 C1499 C 0.72615 0.29222 0.56148
 C1500 C 0.71821 0.28523 0.55086
 C1501 C 0.70316 0.28537 0.55140
 C1502 C 0.69606 0.29240 0.56256
 C1503 C 0.72554 0.27777 0.53953
 C1504 C 0.73178 0.27146 0.53014
 H1505 H 0.66821 0.30191 0.60821
 H1506 H 0.68030 0.29006 0.58812
 H1507 H 0.71069 0.32516 0.58574
 H1508 H 0.69867 0.33676 0.60602
 H1509 H 0.72547 0.30439 0.58087
 H1510 H 0.73782 0.29214 0.56120
 H1511 H 0.69690 0.28001 0.54321
 H1512 H 0.68440 0.29247 0.56269
 C1513 C 0.66946 0.83302 1.13133
 C1514 C 0.67509 0.82757 1.12107
 C1515 C 0.68190 0.82093 1.10894
 C1516 C 0.67747 0.80731 1.10442
 C1517 C 0.68430 0.80069 1.09285
 C1518 C 0.69568 0.80761 1.08567
 C1519 C 0.69998 0.82135 1.09025
 C1520 C 0.69313 0.82796 1.10181
 C1521 C 0.70317 0.80043 1.07361
 C1522 C 0.71824 0.80130 1.07227
 C1523 C 0.72532 0.79430 1.06108
 C1524 C 0.71745 0.78636 1.05109
 C1525 C 0.70246 0.78550 1.05226
 C1526 C 0.69535 0.79248 1.06345
 C1527 C 0.72481 0.77891 1.03977
 C1528 C 0.73106 0.77260 1.03039
 H1529 H 0.66883 0.80175 1.10990
 H1530 H 0.68087 0.79003 1.08972
 H1531 H 0.70858 0.82704 1.08483
 H1532 H 0.69662 0.83852 1.10521
 H1533 H 0.72458 0.80717 1.08002
 H1534 H 0.73694 0.79499 1.06030
 H1535 H 0.69626 0.77939 1.04457
 H1536 H 0.68373 0.79176 1.06408
 C1537 C 0.16987 0.33217 1.13032
 C1538 C 0.17553 0.32674 1.12007
 C1539 C 0.18238 0.32014 1.10795
 C1540 C 0.17774 0.30669 1.10313
 C1541 C 0.18461 0.30011 1.09157
 C1542 C 0.19624 0.30690 1.08467
 C1543 C 0.20076 0.32047 1.08954
 C1544 C 0.19387 0.32703 1.10110
 C1545 C 0.20376 0.29975 1.07261
 C1546 C 0.21887 0.30031 1.07152
 C1547 C 0.22598 0.29334 1.06034
 C1548 C 0.21810 0.28573 1.05009
 C1549 C 0.20308 0.28518 1.05102
 C1550 C 0.19594 0.29214 1.06220
 C1551 C 0.22548 0.27829 1.03878
 C1552 C 0.23175 0.27198 1.02941
 H1553 H 0.16889 0.30123 1.10840
 H1554 H 0.18100 0.28958 1.08821
 H1555 H 0.20956 0.32605 1.08434
 H1556 H 0.19754 0.33746 1.10473
 H1557 H 0.22521 0.30591 1.07947
 H1558 H 0.23762 0.29378 1.05976
 H1559 H 0.19687 0.27934 1.04313
 H1560 H 0.18430 0.29166 1.06264
 C1561 C 0.16913 0.83165 0.63076
 C1562 C 0.17477 0.82621 0.62050
 C1563 C 0.18161 0.81962 0.60837
 C1564 C 0.19313 0.82650 0.60155
 C1565 C 0.20001 0.81995 0.58997
 C1566 C 0.19544 0.80641 0.58506
 C1567 C 0.18378 0.79964 0.59193
 C1568 C 0.17693 0.80621 0.60351
 C1569 C 0.20295 0.79928 0.57298
 C1570 C 0.19511 0.79173 0.56253
 C1571 C 0.20223 0.78481 0.55132
 C1572 C 0.21726 0.78533 0.55039
 C1573 C 0.22515 0.79287 0.56068
 C1574 C 0.21806 0.79981 0.57189
 C1575 C 0.22462 0.77797 0.53902
 C1576 C 0.23088 0.77172 0.52961
 H1577 H 0.19684 0.83690 0.60521
 H1578 H 0.20883 0.82552 0.58480
 H1579 H 0.18013 0.78914 0.58852
 H1580 H 0.16806 0.80077 0.60875
 H1581 H 0.18347 0.79128 0.56297
 H1582 H 0.19602 0.77903 0.54339
 H1583 H 0.23679 0.79329 0.56010
 H1584 H 0.22441 0.80535 0.57987
 C1585 C 0.33287 0.66859 0.63039
 C1586 C 0.32746 0.67418 0.62008
 C1587 C 0.32085 0.68093 0.60789
 C1588 C 0.31011 0.67375 0.60023
 C1589 C 0.30339 0.68046 0.58864
 C1590 C 0.30735 0.69447 0.58456
 C1591 C 0.31826 0.70155 0.59225
 C1592 C 0.32495 0.69482 0.60385
 C1593 C 0.29996 0.70177 0.57249
 C1594 C 0.30778 0.71029 0.56277
 C1595 C 0.30075 0.71738 0.55159
 C1596 C 0.28582 0.71606 0.54999
 C1597 C 0.27797 0.70754 0.55955
 C1598 C 0.28497 0.70043 0.57072
 C1599 C 0.27852 0.72362 0.53869
 C1600 C 0.27230 0.73002 0.52935
 H1601 H 0.30687 0.66298 0.60326
 H1602 H 0.29517 0.67466 0.58282
 H1603 H 0.32141 0.71241 0.58950
 H1604 H 0.33321 0.70050 0.60974
 H1605 H 0.31935 0.71139 0.56374
 H1606 H 0.30694 0.72394 0.54424
 H1607 H 0.26640 0.70649 0.55844
 H1608 H 0.27863 0.69412 0.57814
 C1609 C 0.33330 0.16913 1.13093
 C1610 C 0.32793 0.17472 1.12060
 C1611 C 0.32138 0.18148 1.10839
 C1612 C 0.32850 0.19263 1.10126
 C1613 C 0.32198 0.19945 1.08962
 C1614 C 0.30822 0.19519 1.08496
 C1615 C 0.30120 0.18388 1.09214
 C1616 C 0.30774 0.17709 1.10378
 C1617 C 0.30111 0.20265 1.07283
 C1618 C 0.29316 0.19486 1.06265
 C1619 C 0.28622 0.20194 1.05142
 C1620 C 0.28712 0.21690 1.05021
 C1621 C 0.29507 0.22474 1.06022
 C1622 C 0.30203 0.21768 1.07145
 C1623 C 0.27968 0.22424 1.03886
 C1624 C 0.27336 0.23048 1.02946
 H1625 H 0.33908 0.19610 1.10473
 H1626 H 0.32774 0.20799 1.08421
 H1627 H 0.29053 0.18048 1.08894
 H1628 H 0.30210 0.16851 1.10926
 H1629 H 0.29240 0.18327 1.06331
 H1630 H 0.28010 0.19577 1.04371
 H1631 H 0.29579 0.23633 1.05941
 H1632 H 0.30790 0.22400 1.07921
 C1633 C 0.83272 0.66869 1.13109
 C1634 C 0.82727 0.67434 1.12084
 C1635 C 0.82066 0.68120 1.10871
 C1636 C 0.80699 0.67688 1.10415
 C1637 C 0.80040 0.68377 1.09259
 C1638 C 0.80741 0.69512 1.08546
 C1639 C 0.82121 0.69931 1.09008
 C1640 C 0.82778 0.69239 1.10163
 C1641 C 0.80026 0.70269 1.07342
 C1642 C 0.80122 0.71772 1.07215
 C1643 C 0.79425 0.72488 1.06099
 C1644 C 0.78624 0.71714 1.05094
 C1645 C 0.78530 0.70218 1.05205
 C1646 C 0.79225 0.69499 1.06321
 C1647 C 0.77882 0.72458 1.03965
 C1648 C 0.77252 0.73090 1.03030
 H1649 H 0.80136 0.66827 1.10959
 H1650 H 0.78971 0.68042 1.08942
 H1651 H 0.82695 0.70788 1.08470
 H1652 H 0.83838 0.69581 1.10507
 H1653 H 0.80713 0.72397 1.07993
 H1654 H 0.79500 0.73648 1.06026
 H1655 H 0.77915 0.69607 1.04432
 H1656 H 0.79146 0.68340 1.06380
 C1657 C 0.83318 0.16804 0.63117
 C1658 C 0.82780 0.17363 0.62084
 C1659 C 0.82126 0.18039 0.60864
 C1660 C 0.81063 0.17318 0.60085
 C1661 C 0.80398 0.17990 0.58923
 C1662 C 0.80787 0.19396 0.58525
 C1663 C 0.81866 0.20108 0.59308
 C1664 C 0.82529 0.19433 0.60469
 C1665 C 0.80054 0.20127 0.57315
 C1666 C 0.80838 0.20990 0.56355
 C1667 C 0.80140 0.21701 0.55235
 C1668 C 0.78650 0.21559 0.55061
 C1669 C 0.77862 0.20696 0.56005
 C1670 C 0.78558 0.19984 0.57125
 C1671 C 0.77924 0.22316 0.53930
 C1672 C 0.77305 0.22958 0.52995
 H1673 H 0.80744 0.16237 0.60380
 H1674 H 0.79584 0.17407 0.58331
 H1675 H 0.82176 0.21196 0.59040
 H1676 H 0.83347 0.20004 0.61069
 H1677 H 0.81993 0.21107 0.56463
 H1678 H 0.80761 0.22365 0.54509
 H1679 H 0.76707 0.20584 0.55884
 H1680 H 0.77921 0.19344 0.57857
 C1681 C 0.66775 0.66832 0.36763
 C1682 C 0.67311 0.67381 0.37801
 C1683 C 0.67960 0.68047 0.39028
 C1684 C 0.69333 0.67626 0.39478
 C1685 C 0.69981 0.68297 0.40648
 C1686 C 0.69263 0.69403 0.41384
 C1687 C 0.67878 0.69811 0.40930
 C1688 C 0.67232 0.69137 0.39760
 C1689 C 0.69967 0.70143 0.42603
 C1690 C 0.69851 0.71641 0.42759
 C1691 C 0.70540 0.72343 0.43888
 C1692 C 0.71351 0.71558 0.44877
 C1693 C 0.71465 0.70066 0.44738
 C1694 C 0.70778 0.69362 0.43608
 C1695 C 0.72088 0.72288 0.46017
 C1696 C 0.72713 0.72911 0.46960
 H1697 H 0.69909 0.66787 0.38915
 H1698 H 0.71055 0.67972 0.40959
 H1699 H 0.67291 0.70645 0.41485
 H1700 H 0.66168 0.69470 0.39422
 H1701 H 0.69252 0.72275 0.41993
 H1702 H 0.70449 0.73499 0.43983
 H1703 H 0.72090 0.69448 0.45498
 H1704 H 0.70873 0.68206 0.43527
 C1705 C 0.66827 0.16750 -0.13238
 C1706 C 0.67361 0.17294 -0.12197
 C1707 C 0.68008 0.17955 -0.10965
 C1708 C 0.69428 0.17627 -0.10590
 C1709 C 0.70070 0.18296 -0.09415
 C1710 C 0.69299 0.19306 -0.08600
 C1711 C 0.67867 0.19620 -0.08980
 C1712 C 0.67227 0.18949 -0.10155
 C1713 C 0.69994 0.20045 -0.07375
 C1714 C 0.69767 0.21521 -0.07144
 C1715 C 0.70449 0.22225 -0.06012
 C1716 C 0.71363 0.21466 -0.05096
 C1717 C 0.71587 0.19996 -0.05309
 C1718 C 0.70908 0.19289 -0.06441
 C1719 C 0.72093 0.22202 -0.03955
 C1720 C 0.72713 0.22829 -0.03012
 H1721 H 0.70044 0.16864 -0.11214
 H1722 H 0.71179 0.18046 -0.09162
 H1723 H 0.67240 0.20378 -0.08363
 H1724 H 0.66126 0.19209 -0.10434
 H1725 H 0.69086 0.22137 -0.07856
 H1726 H 0.70272 0.23365 -0.05861
 H1727 H 0.72292 0.19397 -0.04604
 H1728 H 0.71090 0.18149 -0.06580
 C1729 C 0.16771 0.66732 -0.13172
 C1730 C 0.17308 0.67275 -0.12132
 C1731 C 0.17959 0.67936 -0.10902
 C1732 C 0.17188 0.68943 -0.10100
 C1733 C 0.17833 0.69615 -0.08928
 C1734 C 0.19260 0.69287 -0.08543
 C1735 C 0.20021 0.68264 -0.09350
 C1736 C 0.19374 0.67594 -0.10522
 C1737 C 0.19961 0.70028 -0.07323
 C1738 C 0.20865 0.69269 -0.06382
 C1739 C 0.21551 0.69977 -0.05254
 C1740 C 0.21342 0.71451 -0.05052
 C1741 C 0.20437 0.72214 -0.05976
 C1742 C 0.19750 0.71508 -0.07103
 C1743 C 0.22078 0.72189 -0.03917
 C1744 C 0.22703 0.72819 -0.02978
 H1745 H 0.16090 0.69214 -0.10384
 H1746 H 0.17213 0.70384 -0.08318
 H1747 H 0.21127 0.68003 -0.09093
 H1748 H 0.19983 0.66820 -0.11139
 H1749 H 0.21035 0.68126 -0.06512
 H1750 H 0.22248 0.69376 -0.04544
 H1751 H 0.20273 0.73356 -0.05833
 H1752 H 0.19077 0.72126 -0.07821
 C1753 C 0.16756 0.16776 0.36885
 C1754 C 0.17291 0.17312 0.37929
 C1755 C 0.17940 0.17966 0.39163
 C1756 C 0.17175 0.18983 0.39959
 C1757 C 0.17820 0.19648 0.41135
 C1758 C 0.19241 0.19305 0.41530
 C1759 C 0.19996 0.18272 0.40729
 C1760 C 0.19349 0.17608 0.39554
 C1761 C 0.19942 0.20039 0.42754
 C1762 C 0.20832 0.19271 0.43702
 C1763 C 0.21517 0.19973 0.44833
 C1764 C 0.21324 0.21449 0.45032
 C1765 C 0.20433 0.22221 0.44102
 C1766 C 0.19746 0.21522 0.42970
 C1767 C 0.22060 0.22181 0.46172
 C1768 C 0.22685 0.22805 0.47114
 H1769 H 0.16083 0.19266 0.39668
 H1770 H 0.17205 0.20425 0.41740
 H1771 H 0.21097 0.17998 0.40994
 H1772 H 0.19953 0.16827 0.38941
 H1773 H 0.20990 0.18127 0.43574
 H1774 H 0.22203 0.19365 0.45549
 H1775 H 0.20281 0.23365 0.44242
 H1776 H 0.19084 0.22146 0.42248
 C1777 C 0.33073 0.36876 0.66725
 C1778 C 0.32507 0.37901 0.67275
 C1779 C 0.31813 0.39110 0.67938
 C1780 C 0.32612 0.40078 0.68761
 C1781 C 0.31928 0.41232 0.69432
 C1782 C 0.30433 0.41431 0.69290
 C1783 C 0.29642 0.40458 0.68450
 C1784 C 0.30328 0.39306 0.67779
 C1785 C 0.29698 0.42635 0.70030
 C1786 C 0.28352 0.42421 0.70689
 C1787 C 0.27663 0.43549 0.71396
 C1788 C 0.28306 0.44907 0.71452
 C1789 C 0.29643 0.45133 0.70798
 C1790 C 0.30336 0.44005 0.70092
 C1791 C 0.27595 0.46060 0.72191
 C1792 C 0.26987 0.47013 0.72818
 H1793 H 0.33762 0.39933 0.68895
 H1794 H 0.32564 0.41952 0.70085
 H1795 H 0.28493 0.40593 0.68304
 H1796 H 0.29699 0.38565 0.67142
 H1797 H 0.27843 0.41374 0.70679
 H1798 H 0.26631 0.43360 0.71903
 H1799 H 0.30149 0.46181 0.70834
 H1800 H 0.31362 0.44208 0.69581
 C1801 C 0.33059 0.86907 0.16638
 C1802 C 0.32494 0.87929 0.17193
 C1803 C 0.31803 0.89135 0.17865
 C1804 C 0.32611 0.90110 0.18672
 C1805 C 0.31933 0.91261 0.19353
 C1806 C 0.30434 0.91450 0.19238
 C1807 C 0.29633 0.90470 0.18415
 C1808 C 0.30314 0.89321 0.17734
 C1809 C 0.29705 0.92652 0.19988
 C1810 C 0.28373 0.92431 0.20673
 C1811 C 0.27691 0.93557 0.21388
 C1812 C 0.28327 0.94919 0.21429
 C1813 C 0.29650 0.95152 0.20750
 C1814 C 0.30336 0.94026 0.20034
 C1815 C 0.27621 0.96072 0.22175
 C1816 C 0.27017 0.97024 0.22807
 H1817 H 0.33764 0.89973 0.18784
 H1818 H 0.32576 0.91987 0.19992
 H1819 H 0.28481 0.90598 0.18290
 H1820 H 0.29678 0.88574 0.17110
 H1821 H 0.27870 0.91382 0.20674
 H1822 H 0.26669 0.93364 0.21915
 H1823 H 0.30150 0.96203 0.20773
 H1824 H 0.31351 0.94234 0.19504
 C1825 C 0.83033 0.36802 0.16700
 C1826 C 0.82466 0.37823 0.17257
 C1827 C 0.81775 0.39028 0.17929
 C1828 C 0.80280 0.39189 0.17834
 C1829 C 0.79600 0.40342 0.18511
 C1830 C 0.80408 0.41350 0.19293
 C1831 C 0.81912 0.41185 0.19372
 C1832 C 0.82589 0.40030 0.18695
 C1833 C 0.79681 0.42557 0.20036
 C1834 C 0.80293 0.43941 0.20037
 C1835 C 0.79609 0.45073 0.20745
 C1836 C 0.78307 0.44837 0.21462
 C1837 C 0.77690 0.43465 0.21466
 C1838 C 0.78371 0.42333 0.20759
 C1839 C 0.77603 0.45996 0.22200
 C1840 C 0.77001 0.46953 0.22826
 H1841 H 0.79639 0.38422 0.17241
 H1842 H 0.78444 0.40450 0.18413
 H1843 H 0.82561 0.41932 0.19980
 H1844 H 0.83747 0.39912 0.18779
 H1845 H 0.81292 0.44151 0.19476
 H1846 H 0.80094 0.46131 0.20732
 H1847 H 0.76685 0.43269 0.22022
 H1848 H 0.77883 0.41277 0.20795
 C1849 C 0.83067 0.86827 0.66692
 C1850 C 0.82502 0.87849 0.67248
 C1851 C 0.81810 0.89054 0.67920
 C1852 C 0.82628 0.90081 0.68648
 C1853 C 0.81950 0.91235 0.69325
 C1854 C 0.80441 0.91374 0.69285
 C1855 C 0.79630 0.90340 0.68541
 C1856 C 0.80311 0.89189 0.67864
 C1857 C 0.79715 0.92581 0.70029
 C1858 C 0.78428 0.92346 0.70790
 C1859 C 0.77746 0.93478 0.71497
 C1860 C 0.78338 0.94859 0.71454
 C1861 C 0.79616 0.95106 0.70699
 C1862 C 0.80302 0.93975 0.69992
 C1863 C 0.77632 0.96019 0.72189
 C1864 C 0.77028 0.96976 0.72814
 H1865 H 0.83789 0.89984 0.68702
 H1866 H 0.82602 0.92004 0.69903
 H1867 H 0.78470 0.90428 0.68473
 H1868 H 0.79667 0.88401 0.67300
 H1869 H 0.77961 0.91282 0.70857
 H1870 H 0.76760 0.93274 0.72082
 H1871 H 0.80082 0.96173 0.70657
 H1872 H 0.81281 0.94193 0.69402
 C1873 C 0.66825 0.63136 0.66882
 C1874 C 0.67393 0.62114 0.67437
 C1875 C 0.68079 0.60904 0.68109
 C1876 C 0.67581 0.60401 0.69430
 C1877 C 0.68267 0.59247 0.70101
 C1878 C 0.69462 0.58580 0.69459
 C1879 C 0.69949 0.59089 0.68126
 C1880 C 0.69261 0.60244 0.67457
 C1881 C 0.70210 0.57374 0.70186
 C1882 C 0.71723 0.57290 0.70177
 C1883 C 0.72429 0.56171 0.70885
 C1884 C 0.71633 0.55120 0.71610
 C1885 C 0.70128 0.55189 0.71618
 C1886 C 0.69420 0.56308 0.70911
 C1887 C 0.72364 0.53986 0.72362
 C1888 C 0.72981 0.53045 0.73001
 H1889 H 0.66671 0.60909 0.69948
 H1890 H 0.67878 0.58893 0.71135
 H1891 H 0.70855 0.58588 0.67596
 H1892 H 0.69654 0.60624 0.66433
 H1893 H 0.72362 0.58105 0.69646
 H1894 H 0.73594 0.56131 0.70877
 H1895 H 0.69502 0.54380 0.72174
 H1896 H 0.68255 0.56333 0.70922
 C1897 C 0.66765 0.13035 0.16885
 C1898 C 0.67329 0.12010 0.17439
 C1899 C 0.68012 0.10798 0.18110
 C1900 C 0.67605 0.10378 0.19489
 C1901 C 0.68292 0.09223 0.20157
 C1902 C 0.69399 0.08472 0.19453
 C1903 C 0.69793 0.08897 0.18062
 C1904 C 0.69104 0.10052 0.17397
 C1905 C 0.70153 0.07268 0.20176
 C1906 C 0.71656 0.07115 0.20050
 C1907 C 0.72371 0.06000 0.20756
 C1908 C 0.71596 0.05023 0.21594
 C1909 C 0.70101 0.05159 0.21719
 C1910 C 0.69383 0.06274 0.21015
 C1911 C 0.72340 0.03897 0.22346
 C1912 C 0.72971 0.02965 0.22984
 H1913 H 0.66765 0.10952 0.20053
 H1914 H 0.67977 0.08935 0.21234
 H1915 H 0.70628 0.08329 0.17486
 H1916 H 0.69426 0.10367 0.16328
 H1917 H 0.72281 0.07874 0.19429
 H1918 H 0.73529 0.05908 0.20657
 H1919 H 0.69491 0.04407 0.22364
 H1920 H 0.68225 0.06352 0.21119
 C1921 C 0.16817 0.63010 0.16905
 C1922 C 0.17382 0.61987 0.17460
 C1923 C 0.18065 0.60777 0.18135
 C1924 C 0.17629 0.60337 0.19499
 C1925 C 0.18313 0.59182 0.20170
 C1926 C 0.19446 0.58453 0.19485
 C1927 C 0.19870 0.58898 0.18110
 C1928 C 0.19183 0.60052 0.17440
 C1929 C 0.20196 0.57248 0.20213
 C1930 C 0.21702 0.57112 0.20122
 C1931 C 0.22412 0.55996 0.20830
 C1932 C 0.21627 0.54999 0.21637
 C1933 C 0.20128 0.55119 0.21727
 C1934 C 0.19416 0.56235 0.21020
 C1935 C 0.22364 0.53869 0.22389
 C1936 C 0.22990 0.52932 0.23025
 H1937 H 0.16768 0.60894 0.20048
 H1938 H 0.17975 0.58878 0.21236
 H1939 H 0.20726 0.58347 0.17548
 H1940 H 0.19528 0.60383 0.16383
 H1941 H 0.22335 0.57885 0.19525
 H1942 H 0.23573 0.55917 0.20758
 H1943 H 0.19510 0.54351 0.22347
 H1944 H 0.18254 0.56300 0.21096
 C1945 C 0.16750 0.12999 0.66986
 C1946 C 0.17315 0.11973 0.67536
 C1947 C 0.17999 0.10760 0.68204
 C1948 C 0.17566 0.10313 0.69566
 C1949 C 0.18252 0.09155 0.70231
 C1950 C 0.19385 0.08430 0.69541
 C1951 C 0.19806 0.08882 0.68167
 C1952 C 0.19117 0.10040 0.67504
 C1953 C 0.20138 0.07224 0.70261
 C1954 C 0.21645 0.07091 0.70167
 C1955 C 0.22357 0.05972 0.70868
 C1956 C 0.21576 0.04970 0.71670
 C1957 C 0.20077 0.05086 0.71764
 C1958 C 0.19361 0.06205 0.71065
 C1959 C 0.22317 0.03836 0.72414
 C1960 C 0.22947 0.02897 0.73043
 H1961 H 0.16705 0.10867 0.70120
 H1962 H 0.17916 0.08846 0.71296
 H1963 H 0.20661 0.08335 0.67601
 H1964 H 0.19460 0.10376 0.66448
 H1965 H 0.22275 0.07869 0.69574
 H1966 H 0.23519 0.05896 0.70793
 H1967 H 0.19462 0.04314 0.72381
 H1968 H 0.18200 0.06268 0.71144
 C1969 C 0.33213 0.63139 0.33203
 C1970 C 0.32652 0.62104 0.32667
 C1971 C 0.31973 0.60880 0.32014
 C1972 C 0.32513 0.60325 0.30732
 C1973 C 0.31833 0.59159 0.30077
 C1974 C 0.30602 0.58532 0.30697
 C1975 C 0.30075 0.59092 0.31992
 C1976 C 0.30757 0.60258 0.32645
 C1977 C 0.29858 0.57317 0.29982
 C1978 C 0.28345 0.57260 0.29936
 C1979 C 0.27644 0.56132 0.29239
 C1980 C 0.28444 0.55045 0.28581
 C1981 C 0.29949 0.55086 0.28628
 C1982 C 0.30653 0.56214 0.29324
 C1983 C 0.27718 0.53902 0.27838
 C1984 C 0.27102 0.52956 0.27208
 H1985 H 0.33451 0.60803 0.30231
 H1986 H 0.32254 0.58765 0.29072
 H1987 H 0.29140 0.58622 0.32504
 H1988 H 0.30331 0.60678 0.33638
 H1989 H 0.27703 0.58102 0.30415
 H1990 H 0.26478 0.56113 0.29204
 H1991 H 0.30579 0.54249 0.28123
 H1992 H 0.31818 0.56219 0.29356
 C1993 C 0.33232 0.13062 0.83214
 C1994 C 0.32668 0.12030 0.82675
 C1995 C 0.31986 0.10810 0.82018
 C1996 C 0.32526 0.10255 0.80737
 C1997 C 0.31843 0.09092 0.80079
 C1998 C 0.30607 0.08471 0.80693
 C1999 C 0.30078 0.09032 0.81987
 C2000 C 0.30764 0.10193 0.82644
 C2001 C 0.29860 0.07260 0.79975
 C2002 C 0.28346 0.07209 0.79925
 C2003 C 0.27642 0.06085 0.79226
 C2004 C 0.28439 0.04995 0.78568
 C2005 C 0.29944 0.05030 0.78619
 C2006 C 0.30651 0.06155 0.79318
 C2007 C 0.27710 0.03855 0.77825
 C2008 C 0.27090 0.02910 0.77195
 H2009 H 0.33468 0.10728 0.80240
 H2010 H 0.32265 0.08698 0.79074
 H2011 H 0.29140 0.08566 0.82496
 H2012 H 0.30337 0.10614 0.83637
 H2013 H 0.27706 0.08053 0.80404
 H2014 H 0.26476 0.06071 0.79188
 H2015 H 0.30572 0.04191 0.78116
 H2016 H 0.31816 0.06154 0.79353
 C2017 C 0.83175 0.63168 0.83290
 C2018 C 0.82611 0.62137 0.82750
 C2019 C 0.81930 0.60918 0.82091
 C2020 C 0.82454 0.60383 0.80794
 C2021 C 0.81772 0.59222 0.80133
 C2022 C 0.80552 0.58580 0.80761
 C2023 C 0.80040 0.59120 0.82070
 C2024 C 0.80725 0.60281 0.82730
 C2025 C 0.79806 0.57370 0.80041
 C2026 C 0.78292 0.57304 0.80014
 C2027 C 0.77589 0.56182 0.79310
 C2028 C 0.78387 0.55110 0.78626
 C2029 C 0.79892 0.55160 0.78654
 C2030 C 0.80599 0.56282 0.79357
 C2031 C 0.77659 0.53975 0.77873
 C2032 C 0.77043 0.53035 0.77233
 H2033 H 0.83382 0.60872 0.80287
 H2034 H 0.82180 0.58844 0.79117
 H2035 H 0.79115 0.58638 0.82589
 H2036 H 0.80311 0.60685 0.83735
 H2037 H 0.77652 0.58135 0.80514
 H2038 H 0.76423 0.56157 0.79290
 H2039 H 0.80521 0.54334 0.78129
 H2040 H 0.81764 0.56293 0.79374
 C2041 C 0.83237 0.13179 0.33174
 C2042 C 0.82672 0.12150 0.32631
 C2043 C 0.81988 0.10932 0.31971
 C2044 C 0.80784 0.10296 0.32612
 C2045 C 0.80098 0.09135 0.31954
 C2046 C 0.80609 0.08595 0.30644
 C2047 C 0.81828 0.09236 0.30015
 C2048 C 0.82511 0.10397 0.30674
 C2049 C 0.79863 0.07383 0.29927
 C2050 C 0.80655 0.06293 0.29245
 C2051 C 0.79948 0.05167 0.28549
 C2052 C 0.78442 0.05115 0.28525
 C2053 C 0.77645 0.06189 0.29207
 C2054 C 0.78349 0.07315 0.29904
 C2055 C 0.77713 0.03972 0.27786
 C2056 C 0.77095 0.03024 0.27159
 H2057 H 0.80372 0.10701 0.33617
 H2058 H 0.79175 0.08653 0.32474
 H2059 H 0.82235 0.08857 0.28998
 H2060 H 0.83439 0.10886 0.30166
 H2061 H 0.81820 0.06305 0.29259
 H2062 H 0.80576 0.04339 0.28027
 H2063 H 0.76479 0.06162 0.29190
 H2064 H 0.77709 0.08147 0.30402
 C2065 C 0.66872 0.36917 0.33263
 C2066 C 0.67416 0.37946 0.32694
 C2067 C 0.68076 0.39162 0.32005
 C2068 C 0.67365 0.39868 0.30889
 C2069 C 0.68022 0.41026 0.30194
 C2070 C 0.69402 0.41492 0.30607
 C2071 C 0.70103 0.40782 0.31737
 C2072 C 0.69444 0.39624 0.32430
 C2073 C 0.70118 0.42699 0.29846
 C2074 C 0.70920 0.43729 0.30605
 C2075 C 0.71617 0.44847 0.29883
 C2076 C 0.71523 0.44949 0.28393
 C2077 C 0.70722 0.43935 0.27629
 C2078 C 0.70024 0.42818 0.28349
 C2079 C 0.72268 0.46079 0.27645
 C2080 C 0.72900 0.47014 0.27009
 H2081 H 0.66304 0.39520 0.30553
 H2082 H 0.67448 0.41562 0.29340
 H2083 H 0.71173 0.41102 0.32067
 H2084 H 0.70007 0.39080 0.33289
 H2085 H 0.70998 0.43677 0.31759
 H2086 H 0.72233 0.45627 0.30485
 H2087 H 0.70648 0.44001 0.26475
 H2088 H 0.69432 0.42031 0.27732
 C2089 C 0.66844 0.86980 0.83258
 C2090 C 0.67395 0.88005 0.82689
 C2091 C 0.68066 0.89216 0.82000
 C2092 C 0.67317 0.89995 0.80959
 C2093 C 0.67982 0.91149 0.80263
 C2094 C 0.69406 0.91539 0.80602
 C2095 C 0.70144 0.90755 0.81659
 C2096 C 0.69478 0.89601 0.82352
 C2097 C 0.70126 0.92742 0.79840
 C2098 C 0.71022 0.93705 0.80583
 C2099 C 0.71723 0.94819 0.79858
 C2100 C 0.71537 0.94986 0.78383
 C2101 C 0.70642 0.94040 0.77636
 C2102 C 0.69940 0.92926 0.78358
 C2103 C 0.72284 0.96112 0.77630
 C2104 C 0.72917 0.97044 0.76992
 H2105 H 0.66223 0.89706 0.80680
 H2106 H 0.67379 0.91742 0.79468
 H2107 H 0.71247 0.91016 0.81929
 H2108 H 0.70069 0.89002 0.83152
 H2109 H 0.71173 0.93603 0.81726
 H2110 H 0.72412 0.95547 0.80447
 H2111 H 0.70496 0.94155 0.76493
 H2112 H 0.69274 0.92191 0.77753
 C2113 C 0.16842 0.36928 0.83214
 C2114 C 0.17389 0.37956 0.82648
 C2115 C 0.18053 0.39172 0.81960
 C2116 C 0.17361 0.39855 0.80818
 C2117 C 0.18022 0.41014 0.80126
 C2118 C 0.19384 0.41503 0.80568
 C2119 C 0.20065 0.40815 0.81724
 C2120 C 0.19403 0.39657 0.82414
 C2121 C 0.20103 0.42711 0.79812
 C2122 C 0.20869 0.43762 0.80579
 C2123 C 0.21567 0.44883 0.79862
 C2124 C 0.21508 0.44969 0.78370
 C2125 C 0.20743 0.43934 0.77597
 C2126 C 0.20044 0.42813 0.78312
 C2127 C 0.22251 0.46104 0.77628
 C2128 C 0.22880 0.47043 0.76997
 H2129 H 0.16315 0.39490 0.80459
 H2130 H 0.17462 0.41532 0.79252
 H2131 H 0.21122 0.41154 0.82077
 H2132 H 0.19951 0.39131 0.83293
 H2133 H 0.20920 0.43722 0.81735
 H2134 H 0.22155 0.45679 0.80471
 H2135 H 0.20695 0.43987 0.76441
 H2136 H 0.19480 0.42011 0.77689
 C2137 C 0.16841 0.86951 0.33182
 C2138 C 0.17388 0.87980 0.32616
 C2139 C 0.18052 0.89197 0.31932
 C2140 C 0.17331 0.89927 0.30837
 C2141 C 0.17991 0.91087 0.30147
 C2142 C 0.19383 0.91532 0.30544
 C2143 C 0.20094 0.90797 0.31654
 C2144 C 0.19432 0.89637 0.32341
 C2145 C 0.20101 0.92741 0.29789
 C2146 C 0.20927 0.93750 0.30551
 C2147 C 0.21627 0.94870 0.29834
 C2148 C 0.21510 0.94996 0.28348
 C2149 C 0.20684 0.94004 0.27582
 C2150 C 0.19983 0.92884 0.28296
 C2151 C 0.22258 0.96127 0.27605
 C2152 C 0.22894 0.97064 0.26975
 H2153 H 0.16261 0.89596 0.30513
 H2154 H 0.17409 0.91642 0.29310
 H2155 H 0.21172 0.91101 0.31971
 H2156 H 0.20002 0.89076 0.33183
 H2157 H 0.21024 0.93680 0.31702
 H2158 H 0.22263 0.95633 0.30437
 H2159 H 0.20592 0.94088 0.26430
 H2160 H 0.19371 0.92115 0.27678
 C2161 C 0.36811 0.33133 0.66725
 C2162 C 0.37837 0.32564 0.67275
 C2163 C 0.39046 0.31867 0.67939
 C2164 C 0.39126 0.30366 0.67960
 C2165 C 0.40283 0.29682 0.68628
 C2166 C 0.41377 0.30490 0.69287
 C2167 C 0.41293 0.31999 0.69251
 C2168 C 0.40134 0.32682 0.68582
 C2169 C 0.42590 0.29760 0.70023
 C2170 C 0.44005 0.30290 0.69899
 C2171 C 0.45144 0.29599 0.70596
 C2172 C 0.44883 0.28374 0.71426
 C2173 C 0.43480 0.27841 0.71556
 C2174 C 0.42341 0.28528 0.70860
 C2175 C 0.46049 0.27663 0.72149
 C2176 C 0.47011 0.27052 0.72765
 H2177 H 0.38292 0.29725 0.67462
 H2178 H 0.40327 0.28520 0.68621
 H2179 H 0.42109 0.32650 0.69763
 H2180 H 0.40080 0.33844 0.68576
 H2181 H 0.44234 0.31226 0.69250
 H2182 H 0.46226 0.30020 0.70486
 H2183 H 0.43266 0.26897 0.72200
 H2184 H 0.41263 0.28106 0.70993
 C2185 C 0.36796 0.83165 0.16637
 C2186 C 0.37819 0.82597 0.17193
 C2187 C 0.39025 0.81902 0.17867
 C2188 C 0.40174 0.82717 0.18393
 C2189 C 0.41331 0.82040 0.19072
 C2190 C 0.41351 0.80537 0.19235
 C2191 C 0.40194 0.79728 0.18692
 C2192 C 0.39040 0.80407 0.18014
 C2193 C 0.42564 0.79816 0.19979
 C2194 C 0.42300 0.78672 0.20928
 C2195 C 0.43439 0.77990 0.21629
 C2196 C 0.44856 0.78442 0.21393
 C2197 C 0.45132 0.79581 0.20453
 C2198 C 0.43993 0.80265 0.19751
 C2199 C 0.46023 0.77732 0.22116
 C2200 C 0.46986 0.77121 0.22730
 H2201 H 0.40171 0.83876 0.18289
 H2202 H 0.42197 0.82694 0.19493
 H2203 H 0.40187 0.78568 0.18783
 H2204 H 0.38157 0.79765 0.17607
 H2205 H 0.41211 0.78315 0.21142
 H2206 H 0.43213 0.77113 0.22357
 H2207 H 0.46226 0.79937 0.20260
 H2208 H 0.44232 0.81132 0.19015
 C2209 C 0.86814 0.33105 0.16659
 C2210 C 0.87855 0.32558 0.17202
 C2211 C 0.89086 0.31893 0.17859
 C2212 C 0.89519 0.32311 0.19229
 C2213 C 0.90694 0.31642 0.19885
 C2214 C 0.91451 0.30544 0.19177
 C2215 C 0.91012 0.30138 0.17796
 C2216 C 0.89838 0.30810 0.17142
 C2217 C 0.92676 0.29809 0.19888
 C2218 C 0.92846 0.28312 0.19770
 C2219 C 0.93980 0.27615 0.20465
 C2220 C 0.94961 0.28404 0.21285
 C2221 C 0.94808 0.29894 0.21401
 C2222 C 0.93673 0.30593 0.20708
 C2223 C 0.96106 0.27679 0.22027
 C2224 C 0.97055 0.27065 0.22658
 H2225 H 0.88941 0.33144 0.19797
 H2226 H 0.90992 0.31965 0.20956
 H2227 H 0.91584 0.29310 0.17217
 H2228 H 0.89513 0.30480 0.16080
 H2229 H 0.92085 0.27675 0.19164
 H2230 H 0.94085 0.26460 0.20374
 H2231 H 0.95562 0.30515 0.22031
 H2232 H 0.93582 0.31748 0.20804
 C2233 C 0.86807 0.83087 0.66674
 C2234 C 0.87832 0.82518 0.67224
 C2235 C 0.89042 0.81821 0.67889
 C2236 C 0.89141 0.80322 0.67881
 C2237 C 0.90297 0.79639 0.68553
 C2238 C 0.91370 0.80448 0.69245
 C2239 C 0.91267 0.81956 0.69237
 C2240 C 0.90109 0.82637 0.68565
 C2241 C 0.92581 0.79719 0.69986
 C2242 C 0.93990 0.80269 0.69896
 C2243 C 0.95125 0.79582 0.70601
 C2244 C 0.94867 0.78339 0.71404
 C2245 C 0.93470 0.77785 0.71500
 C2246 C 0.92334 0.78469 0.70796
 C2247 C 0.96030 0.77632 0.72136
 C2248 C 0.96989 0.77026 0.72759
 H2249 H 0.88323 0.79681 0.67358
 H2250 H 0.90356 0.78478 0.68523
 H2251 H 0.92066 0.82607 0.69775
 H2252 H 0.90039 0.83798 0.68581
 H2253 H 0.94217 0.81220 0.69267
 H2254 H 0.96204 0.80019 0.70517
 H2255 H 0.93257 0.76826 0.72123
 H2256 H 0.91259 0.78031 0.70903
 C2257 C 0.63159 0.33147 0.33339
 C2258 C 0.62128 0.32579 0.32799
 C2259 C 0.60908 0.31892 0.32143
 C2260 C 0.60279 0.32490 0.30921
 C2261 C 0.59117 0.31805 0.30261
 C2262 C 0.58570 0.30508 0.30814
 C2263 C 0.59203 0.29921 0.32050
 C2264 C 0.60364 0.30609 0.32709
 C2265 C 0.57359 0.29760 0.30092
 C2266 C 0.57367 0.28256 0.29946
 C2267 C 0.56241 0.27554 0.29243
 C2268 C 0.55092 0.28342 0.28680
 C2269 C 0.55069 0.29838 0.28827
 C2270 C 0.56194 0.30543 0.29528
 C2271 C 0.53948 0.27617 0.27935
 C2272 C 0.53001 0.27002 0.27303
 H2273 H 0.60696 0.33480 0.30470
 H2274 H 0.58666 0.32274 0.29301
 H2275 H 0.58794 0.28935 0.32512
 H2276 H 0.60842 0.30138 0.33656
 H2277 H 0.58257 0.27625 0.30350
 H2278 H 0.56273 0.26396 0.29131
 H2279 H 0.54183 0.30459 0.28396
 H2280 H 0.56148 0.31700 0.29639
 C2281 C 0.63110 0.83230 0.83326
 C2282 C 0.62078 0.82666 0.82783
 C2283 C 0.60858 0.81982 0.82123
 C2284 C 0.60318 0.82505 0.80827
 C2285 C 0.59157 0.81820 0.80166
 C2286 C 0.58520 0.80600 0.80793
 C2287 C 0.59064 0.80089 0.82102
 C2288 C 0.60226 0.80777 0.82762
 C2289 C 0.57309 0.79850 0.80072
 C2290 C 0.57250 0.78340 0.80045
 C2291 C 0.56128 0.77634 0.79342
 C2292 C 0.55048 0.78425 0.78658
 C2293 C 0.55091 0.79927 0.78685
 C2294 C 0.56214 0.80636 0.79388
 C2295 C 0.53911 0.77693 0.77910
 C2296 C 0.52969 0.77071 0.77276
 H2297 H 0.60804 0.83434 0.80321
 H2298 H 0.58775 0.82228 0.79150
 H2299 H 0.58586 0.79164 0.82620
 H2300 H 0.60634 0.80364 0.83766
 H2301 H 0.58087 0.77705 0.80545
 H2302 H 0.56108 0.76471 0.79322
 H2303 H 0.54260 0.80550 0.78161
 H2304 H 0.56220 0.81799 0.79404
 C2305 C 0.13106 0.33182 0.83282
 C2306 C 0.12069 0.32621 0.82744
 C2307 C 0.10844 0.31942 0.82089
 C2308 C 0.10197 0.30752 0.82742
 C2309 C 0.09031 0.30067 0.82087
 C2310 C 0.08496 0.30565 0.80770
 C2311 C 0.09148 0.31770 0.80128
 C2312 C 0.10314 0.32452 0.80784
 C2313 C 0.07281 0.29817 0.80055
 C2314 C 0.06195 0.30604 0.79357
 C2315 C 0.05068 0.29896 0.78662
 C2316 C 0.05011 0.28394 0.78654
 C2317 C 0.06081 0.27602 0.79351
 C2318 C 0.07209 0.28308 0.80048
 C2319 C 0.03869 0.27662 0.77913
 C2320 C 0.02923 0.27040 0.77285
 H2321 H 0.10597 0.30349 0.83753
 H2322 H 0.08541 0.29154 0.82617
 H2323 H 0.08774 0.32167 0.79106
 H2324 H 0.10811 0.33369 0.80267
 H2325 H 0.06212 0.31767 0.79358
 H2326 H 0.04243 0.30519 0.78127
 H2327 H 0.06051 0.26439 0.79347
 H2328 H 0.08038 0.27671 0.80558
 C2329 C 0.13141 0.83167 0.33230
 C2330 C 0.12117 0.82589 0.32685
 C2331 C 0.10908 0.81886 0.32026
 C2332 C 0.09923 0.82678 0.31215
 C2333 C 0.08767 0.81987 0.30549
 C2334 C 0.08584 0.80492 0.30684
 C2335 C 0.09576 0.79708 0.31511
 C2336 C 0.10729 0.80401 0.32177
 C2337 C 0.07377 0.79751 0.29950
 C2338 C 0.07598 0.78416 0.29282
 C2339 C 0.06467 0.77722 0.28582
 C2340 C 0.05099 0.78349 0.28540
 C2341 C 0.04865 0.79675 0.29203
 C2342 C 0.05997 0.80373 0.29904
 C2343 C 0.03942 0.77632 0.27808
 C2344 C 0.02986 0.77017 0.27186
 H2345 H 0.10055 0.83827 0.31087
 H2346 H 0.08033 0.82618 0.29905
 H2347 H 0.09453 0.78560 0.31652
 H2348 H 0.11484 0.79778 0.32805
 H2349 H 0.08652 0.77920 0.29281
 H2350 H 0.06660 0.76698 0.28067
 H2351 H 0.03810 0.80168 0.29179
 H2352 H 0.05788 0.81390 0.30422
 C2353 C 0.63072 0.66861 0.66910
 C2354 C 0.62050 0.67420 0.67475
 C2355 C 0.60840 0.68098 0.68159
 C2356 C 0.60121 0.69228 0.67478
 C2357 C 0.58967 0.69909 0.68156
 C2358 C 0.58518 0.69469 0.69525
 C2359 C 0.59242 0.68324 0.70195
 C2360 C 0.60396 0.67645 0.69516
 C2361 C 0.57313 0.70212 0.70260
 C2362 C 0.56290 0.69427 0.71050
 C2363 C 0.55170 0.70132 0.71761
 C2364 C 0.55060 0.71629 0.71693
 C2365 C 0.56068 0.72419 0.70904
 C2366 C 0.57186 0.71716 0.70192
 C2367 C 0.53925 0.72358 0.72447
 C2368 C 0.52983 0.72975 0.73085
 H2369 H 0.60455 0.69585 0.66426
 H2370 H 0.58420 0.70774 0.67605
 H2371 H 0.58934 0.67973 0.71256
 H2372 H 0.60950 0.66775 0.70055
 H2373 H 0.56348 0.68267 0.71109
 H2374 H 0.54394 0.69510 0.72366
 H2375 H 0.55995 0.73579 0.70849
 H2376 H 0.57968 0.72352 0.69609
 C2377 C 0.63029 0.16777 0.16907
 C2378 C 0.62007 0.17338 0.17471
 C2379 C 0.60798 0.18017 0.18154
 C2380 C 0.60065 0.19132 0.17463
 C2381 C 0.58913 0.19816 0.18141
 C2382 C 0.58478 0.19393 0.19520
 C2383 C 0.59216 0.18263 0.20200
 C2384 C 0.60369 0.17582 0.19521
 C2385 C 0.57276 0.20140 0.20255
 C2386 C 0.56267 0.19361 0.21071
 C2387 C 0.55153 0.20070 0.21784
 C2388 C 0.55031 0.21566 0.21693
 C2389 C 0.56023 0.22349 0.20879
 C2390 C 0.57137 0.21642 0.20164
 C2391 C 0.53902 0.22299 0.22452
 C2392 C 0.52967 0.22921 0.23095
 H2393 H 0.60388 0.19476 0.16404
 H2394 H 0.58355 0.20669 0.17582
 H2395 H 0.58921 0.17926 0.21269
 H2396 H 0.60933 0.16724 0.20068
 H2397 H 0.56334 0.18203 0.21147
 H2398 H 0.54389 0.19453 0.22410
 H2399 H 0.55942 0.23508 0.20806
 H2400 H 0.57907 0.22274 0.19562
 C2401 C 0.13062 0.66732 0.16926
 C2402 C 0.12036 0.67289 0.17488
 C2403 C 0.10823 0.67965 0.18166
 C2404 C 0.10016 0.68993 0.17426
 C2405 C 0.08859 0.69677 0.18097
 C2406 C 0.08495 0.69340 0.19519
 C2407 C 0.09308 0.68297 0.20250
 C2408 C 0.10465 0.67616 0.19577
 C2409 C 0.07288 0.70089 0.20244
 C2410 C 0.06346 0.69332 0.21153
 C2411 C 0.05227 0.70045 0.21856
 C2412 C 0.05035 0.71523 0.21661
 C2413 C 0.05961 0.72284 0.20754
 C2414 C 0.07079 0.71574 0.20050
 C2415 C 0.03903 0.72263 0.22408
 C2416 C 0.02964 0.72891 0.23040
 H2417 H 0.10283 0.69270 0.16332
 H2418 H 0.08243 0.70461 0.17500
 H2419 H 0.09067 0.68029 0.21351
 H2420 H 0.11087 0.66826 0.20162
 H2421 H 0.06468 0.68186 0.21311
 H2422 H 0.04515 0.69445 0.22554
 H2423 H 0.05825 0.73430 0.20601
 H2424 H 0.07797 0.72190 0.19374
 C2425 C 0.13005 0.16731 0.67024
 C2426 C 0.11982 0.17288 0.67590
 C2427 C 0.10772 0.17964 0.68273
 C2428 C 0.10332 0.19336 0.67844
 C2429 C 0.09177 0.20007 0.68528
 C2430 C 0.08446 0.19315 0.69653
 C2431 C 0.08891 0.17933 0.70071
 C2432 C 0.10046 0.17262 0.69385
 C2433 C 0.07239 0.20042 0.70401
 C2434 C 0.07103 0.19948 0.71896
 C2435 C 0.05984 0.20656 0.72603
 C2436 C 0.04985 0.21466 0.71826
 C2437 C 0.05104 0.21559 0.70338
 C2438 C 0.06223 0.20853 0.69629
 C2439 C 0.03853 0.22220 0.72559
 C2440 C 0.02914 0.22860 0.73179
 H2441 H 0.10891 0.19891 0.66989
 H2442 H 0.08873 0.21079 0.68195
 H2443 H 0.08339 0.17365 0.70921
 H2444 H 0.10377 0.16200 0.69724
 H2445 H 0.07878 0.19349 0.72522
 H2446 H 0.05904 0.20581 0.73756
 H2447 H 0.04335 0.22182 0.69726
 H2448 H 0.06288 0.20931 0.68476
 C2449 C 0.36948 0.66884 0.33103
 C2450 C 0.37969 0.67434 0.32523
 C2451 C 0.39176 0.68097 0.31817
 C2452 C 0.39558 0.67672 0.30434
 C2453 C 0.40707 0.68339 0.29731
 C2454 C 0.41490 0.69442 0.30403
 C2455 C 0.41105 0.69853 0.31799
 C2456 C 0.39954 0.69185 0.32499
 C2457 C 0.42690 0.70174 0.29644
 C2458 C 0.43963 0.70542 0.30371
 C2459 C 0.45083 0.71247 0.29656
 C2460 C 0.44944 0.71594 0.28207
 C2461 C 0.43684 0.71229 0.27474
 C2462 C 0.42564 0.70524 0.28185
 C2463 C 0.46085 0.72339 0.27474
 C2464 C 0.47028 0.72971 0.26849
 H2465 H 0.38964 0.66829 0.29897
 H2466 H 0.40989 0.67985 0.28665
 H2467 H 0.41675 0.70710 0.32338
 H2468 H 0.39664 0.69527 0.33568
 H2469 H 0.44099 0.70272 0.31489
 H2470 H 0.46055 0.71522 0.30234
 H2471 H 0.43562 0.71498 0.26353
 H2472 H 0.41590 0.70274 0.27601
 C2473 C 0.36979 0.16797 0.83128
 C2474 C 0.38002 0.17348 0.82552
 C2475 C 0.39210 0.18015 0.81851
 C2476 C 0.39941 0.19149 0.82511
 C2477 C 0.41092 0.19821 0.81815
 C2478 C 0.41525 0.19368 0.80446
 C2479 C 0.40789 0.18219 0.79797
 C2480 C 0.39640 0.17548 0.80496
 C2481 C 0.42723 0.20104 0.79690
 C2482 C 0.42626 0.20396 0.78217
 C2483 C 0.43744 0.21106 0.77507
 C2484 C 0.44974 0.21534 0.78257
 C2485 C 0.45084 0.21245 0.79722
 C2486 C 0.43966 0.20536 0.80434
 C2487 C 0.46113 0.22283 0.77525
 C2488 C 0.47055 0.22916 0.76899
 H2489 H 0.39613 0.19522 0.83558
 H2490 H 0.41624 0.20714 0.82335
 H2491 H 0.41109 0.17833 0.78753
 H2492 H 0.39083 0.16670 0.79976
 H2493 H 0.41675 0.20097 0.77618
 H2494 H 0.43645 0.21329 0.76374
 H2495 H 0.46033 0.21570 0.80312
 H2496 H 0.44080 0.20312 0.81565
 C2497 C 0.86930 0.66894 0.83212
 C2498 C 0.87956 0.67442 0.82638
 C2499 C 0.89169 0.68104 0.81941
 C2500 C 0.89789 0.67457 0.80741
 C2501 C 0.90943 0.68118 0.80040
 C2502 C 0.91493 0.69436 0.80532
 C2503 C 0.90870 0.70071 0.81748
 C2504 C 0.89714 0.69409 0.82446
 C2505 C 0.92697 0.70156 0.79769
 C2506 C 0.93803 0.70845 0.80535
 C2507 C 0.94922 0.71543 0.79812
 C2508 C 0.94951 0.71561 0.78317
 C2509 C 0.93860 0.70873 0.77546
 C2510 C 0.92741 0.70174 0.78265
 C2511 C 0.96087 0.72301 0.77571
 C2512 C 0.97027 0.72928 0.76936
 H2513 H 0.89376 0.66445 0.80342
 H2514 H 0.91412 0.67592 0.79119
 H2515 H 0.91256 0.71094 0.82142
 H2516 H 0.89238 0.69922 0.83371
 H2517 H 0.93809 0.70835 0.81692
 H2518 H 0.95762 0.72070 0.80419
 H2519 H 0.93869 0.70886 0.76388
 H2520 H 0.91896 0.69671 0.77646
 C2521 C 0.86990 0.16909 0.33113
 C2522 C 0.88015 0.17461 0.32544
 C2523 C 0.89228 0.18129 0.31853
 C2524 C 0.89961 0.17410 0.30760
 C2525 C 0.91117 0.18073 0.30064
 C2526 C 0.91555 0.19466 0.30452
 C2527 C 0.90818 0.20175 0.31560
 C2528 C 0.89662 0.19511 0.32254
 C2529 C 0.92761 0.20186 0.29691
 C2530 C 0.93771 0.21018 0.30445
 C2531 C 0.94889 0.21716 0.29722
 C2532 C 0.95013 0.21592 0.28236
 C2533 C 0.94018 0.20761 0.27477
 C2534 C 0.92900 0.20062 0.28198
 C2535 C 0.96145 0.22334 0.27487
 C2536 C 0.97083 0.22962 0.26851
 H2537 H 0.89636 0.16340 0.30443
 H2538 H 0.91674 0.17493 0.29229
 H2539 H 0.91117 0.21255 0.31870
 H2540 H 0.89098 0.20079 0.33094
 H2541 H 0.93703 0.21121 0.31596
 H2542 H 0.95655 0.22355 0.30320
 H2543 H 0.94100 0.20662 0.26326
 H2544 H 0.92128 0.19446 0.27584
 C2545 C 0.33055 0.33134 0.63023
 C2546 C 0.32489 0.32574 0.62008
 C2547 C 0.31801 0.31895 0.60808
 C2548 C 0.30653 0.32574 0.60114
 C2549 C 0.29960 0.31898 0.58973
 C2550 C 0.30406 0.30532 0.58509
 C2551 C 0.31569 0.29863 0.59207
 C2552 C 0.32260 0.30541 0.60349
 C2553 C 0.29649 0.29797 0.57319
 C2554 C 0.30426 0.29018 0.56288
 C2555 C 0.29708 0.28307 0.55182
 C2556 C 0.28205 0.28364 0.55093
 C2557 C 0.27423 0.29141 0.56109
 C2558 C 0.28138 0.29854 0.57214
 C2559 C 0.27463 0.27610 0.53972
 C2560 C 0.26833 0.26973 0.53042
 H2561 H 0.30291 0.33623 0.60460
 H2562 H 0.29081 0.32448 0.58446
 H2563 H 0.31925 0.28804 0.58889
 H2564 H 0.33143 0.30003 0.60883
 H2565 H 0.31590 0.28969 0.56329
 H2566 H 0.30324 0.27710 0.54400
 H2567 H 0.26259 0.29188 0.56053
 H2568 H 0.27508 0.30428 0.58002
 C2569 C 0.33057 0.83181 0.12918
 C2570 C 0.32495 0.82624 0.11899
 C2571 C 0.31812 0.81947 0.10695
 C2572 C 0.30701 0.82649 0.09966
 C2573 C 0.30011 0.81974 0.08821
 C2574 C 0.30424 0.80587 0.08391
 C2575 C 0.31550 0.79895 0.09124
 C2576 C 0.32238 0.80571 0.10269
 C2577 C 0.29668 0.79854 0.07198
 C2578 C 0.30442 0.79031 0.06198
 C2579 C 0.29724 0.78319 0.05092
 C2580 C 0.28226 0.78419 0.04972
 C2581 C 0.27448 0.79241 0.05956
 C2582 C 0.28163 0.79954 0.07062
 C2583 C 0.27483 0.77662 0.03853
 C2584 C 0.26853 0.77022 0.02926
 H2585 H 0.30364 0.83715 0.10286
 H2586 H 0.29161 0.82542 0.08267
 H2587 H 0.31880 0.78820 0.08831
 H2588 H 0.33093 0.80016 0.10830
 H2589 H 0.31603 0.78947 0.06264
 H2590 H 0.30337 0.77688 0.04335
 H2591 H 0.26287 0.79321 0.05876
 H2592 H 0.27535 0.80562 0.07825
 C2593 C 0.83036 0.33081 0.12977
 C2594 C 0.82472 0.32525 0.11957
 C2595 C 0.81787 0.31854 0.10752
 C2596 C 0.82231 0.30493 0.10299
 C2597 C 0.81543 0.29824 0.09150
 C2598 C 0.80398 0.30509 0.08439
 C2599 C 0.79966 0.31882 0.08897
 C2600 C 0.80656 0.32549 0.10046
 C2601 C 0.79644 0.29785 0.07241
 C2602 C 0.78135 0.29863 0.07119
 C2603 C 0.77423 0.29160 0.06006
 C2604 C 0.78206 0.28371 0.04999
 C2605 C 0.79707 0.28293 0.05105
 C2606 C 0.80422 0.28994 0.06219
 C2607 C 0.77466 0.27625 0.03871
 C2608 C 0.76839 0.26993 0.02936
 H2609 H 0.83101 0.29943 0.10843
 H2610 H 0.81887 0.28760 0.08836
 H2611 H 0.79101 0.32444 0.08360
 H2612 H 0.80305 0.33604 0.10386
 H2613 H 0.77504 0.30446 0.07899
 H2614 H 0.76260 0.29222 0.05937
 H2615 H 0.80323 0.27687 0.04330
 H2616 H 0.81584 0.28929 0.06273
 C2617 C 0.83063 0.83114 0.62960
 C2618 C 0.82501 0.82564 0.61937
 C2619 C 0.81818 0.81897 0.60728
 C2620 C 0.82250 0.80530 0.60283
 C2621 C 0.81563 0.79865 0.59131
 C2622 C 0.80431 0.80559 0.58410
 C2623 C 0.80011 0.81939 0.58859
 C2624 C 0.80701 0.82602 0.60011
 C2625 C 0.79677 0.79838 0.57209
 C2626 C 0.78170 0.79932 0.57077
 C2627 C 0.77457 0.79230 0.55964
 C2628 C 0.78238 0.78427 0.54967
 C2629 C 0.79737 0.78334 0.55082
 C2630 C 0.80453 0.79034 0.56196
 C2631 C 0.77496 0.77682 0.53839
 C2632 C 0.76867 0.77052 0.52904
 H2633 H 0.83110 0.79972 0.60835
 H2634 H 0.81898 0.78795 0.58824
 H2635 H 0.79156 0.82509 0.58314
 H2636 H 0.80359 0.83662 0.60345
 H2637 H 0.77541 0.80526 0.57851
 H2638 H 0.76295 0.79304 0.55888
 H2639 H 0.80352 0.77716 0.54314
 H2640 H 0.81614 0.78956 0.56258
 C2641 C 0.33260 0.66910 0.36881
 C2642 C 0.32716 0.67472 0.37907
 C2643 C 0.32055 0.68154 0.39121
 C2644 C 0.32731 0.69319 0.39784
 C2645 C 0.32073 0.70004 0.40941
 C2646 C 0.30728 0.69531 0.41451
 C2647 C 0.30062 0.68351 0.40784
 C2648 C 0.30722 0.67668 0.39626
 C2649 C 0.30011 0.70277 0.42660
 C2650 C 0.29276 0.69492 0.43720
 C2651 C 0.28580 0.70199 0.44841
 C2652 C 0.28608 0.71700 0.44918
 C2653 C 0.29341 0.72491 0.43874
 C2654 C 0.30039 0.71786 0.42752
 C2655 C 0.27866 0.72431 0.46055
 C2656 C 0.27238 0.73053 0.46997
 H2657 H 0.33765 0.69702 0.39403
 H2658 H 0.32621 0.70897 0.41444
 H2659 H 0.29019 0.67973 0.41138
 H2660 H 0.30187 0.66771 0.39117
 H2661 H 0.29250 0.68330 0.43688
 H2662 H 0.28016 0.69577 0.45645
 H2663 H 0.29365 0.73653 0.43920
 H2664 H 0.30578 0.72422 0.41943
 C2665 C 0.33291 0.16822 0.86903
 C2666 C 0.32751 0.17386 0.87930
 C2667 C 0.32096 0.18071 0.89145
 C2668 C 0.30739 0.17626 0.89623
 C2669 C 0.30086 0.18314 0.90781
 C2670 C 0.30782 0.19460 0.91476
 C2671 C 0.32150 0.19893 0.90993
 C2672 C 0.32802 0.19203 0.89835
 C2673 C 0.30072 0.20215 0.92683
 C2674 C 0.30150 0.21720 0.92796
 C2675 C 0.29458 0.22434 0.93916
 C2676 C 0.28680 0.21656 0.94937
 C2677 C 0.28602 0.20158 0.94840
 C2678 C 0.29293 0.19441 0.93721
 C2679 C 0.27942 0.22397 0.96070
 C2680 C 0.27316 0.23027 0.97007
 H2681 H 0.30181 0.16755 0.89093
 H2682 H 0.29024 0.17968 0.91115
 H2683 H 0.32721 0.20760 0.91516
 H2684 H 0.33854 0.19555 0.89475
 H2685 H 0.30724 0.22348 0.92004
 H2686 H 0.29520 0.23595 0.93977
 H2687 H 0.28004 0.19545 0.95626
 H2688 H 0.29227 0.18281 0.93673
 C2689 C 0.83233 0.66927 0.86979
 C2690 C 0.82692 0.67491 0.88006
 C2691 C 0.82035 0.68174 0.89221
 C2692 C 0.80693 0.67704 0.89717
 C2693 C 0.80037 0.68389 0.90876
 C2694 C 0.80715 0.69556 0.91553
 C2695 C 0.82069 0.70014 0.91051
 C2696 C 0.82723 0.69327 0.89893
 C2697 C 0.80003 0.70307 0.92761
 C2698 C 0.80050 0.71814 0.92860
 C2699 C 0.79356 0.72524 0.93981
 C2700 C 0.78606 0.71738 0.95018
 C2701 C 0.78560 0.70238 0.94935
 C2702 C 0.79253 0.69526 0.93814
 C2703 C 0.77867 0.72474 0.96153
 C2704 C 0.77241 0.73101 0.97093
 H2705 H 0.80148 0.66816 0.89201
 H2706 H 0.78987 0.68023 0.91224
 H2707 H 0.82627 0.70897 0.91561
 H2708 H 0.83763 0.69698 0.89518
 H2709 H 0.80602 0.72447 0.92056
 H2710 H 0.79394 0.73685 0.94032
 H2711 H 0.77984 0.69620 0.95734
 H2712 H 0.79211 0.68365 0.93777
 C2713 C 0.83300 0.16915 0.36887
 C2714 C 0.82761 0.17471 0.37919
 C2715 C 0.82108 0.18148 0.39140
 C2716 C 0.82715 0.19395 0.39716
 C2717 C 0.82062 0.20075 0.40879
 C2718 C 0.80791 0.19515 0.41482
 C2719 C 0.80196 0.18254 0.40902
 C2720 C 0.80851 0.17576 0.39738
 C2721 C 0.80075 0.20257 0.42694
 C2722 C 0.79466 0.19465 0.43826
 C2723 C 0.78772 0.20167 0.44952
 C2724 C 0.78676 0.21667 0.44962
 C2725 C 0.79283 0.22464 0.43845
 C2726 C 0.79979 0.21765 0.42719
 C2727 C 0.77937 0.22390 0.46106
 C2728 C 0.77312 0.23009 0.47052
 H2729 H 0.83690 0.19846 0.39263
 H2730 H 0.82556 0.21033 0.41313
 H2731 H 0.79209 0.17807 0.41329
 H2732 H 0.80368 0.16614 0.39296
 H2733 H 0.79538 0.18305 0.43846
 H2734 H 0.78307 0.19540 0.45813
 H2735 H 0.79209 0.23625 0.43839
 H2736 H 0.80418 0.22404 0.41854
 C2737 C 0.66942 0.33216 0.37018
 C2738 C 0.67517 0.32677 0.38042
 C2739 C 0.68216 0.32025 0.39251
 C2740 C 0.67600 0.30828 0.39919
 C2741 C 0.68298 0.30171 0.41071
 C2742 C 0.69625 0.30703 0.41569
 C2743 C 0.70230 0.31915 0.40896
 C2744 C 0.69529 0.32570 0.39745
 C2745 C 0.70386 0.29984 0.42768
 C2746 C 0.71888 0.29794 0.42723
 C2747 C 0.72602 0.29092 0.43838
 C2748 C 0.71826 0.28572 0.45012
 C2749 C 0.70333 0.28762 0.45071
 C2750 C 0.69616 0.29463 0.43957
 C2751 C 0.72562 0.27823 0.46143
 C2752 C 0.73185 0.27186 0.47078
 H2753 H 0.66587 0.30393 0.39542
 H2754 H 0.67814 0.29229 0.41554
 H2755 H 0.71240 0.32361 0.41265
 H2756 H 0.70015 0.33498 0.39236
 H2757 H 0.72508 0.30164 0.41814
 H2758 H 0.73758 0.28945 0.43778
 H2759 H 0.69722 0.28365 0.45977
 H2760 H 0.68462 0.29608 0.44031
 C2761 C 0.66879 0.83284 0.87019
 C2762 C 0.67448 0.82743 0.88044
 C2763 C 0.68141 0.82089 0.89257
 C2764 C 0.67557 0.80850 0.89878
 C2765 C 0.68250 0.80193 0.91032
 C2766 C 0.69539 0.80766 0.91579
 C2767 C 0.70111 0.82019 0.90954
 C2768 C 0.69415 0.82674 0.89801
 C2769 C 0.70297 0.80047 0.92781
 C2770 C 0.71807 0.79921 0.92774
 C2771 C 0.72519 0.79221 0.93891
 C2772 C 0.71734 0.78640 0.95030
 C2773 C 0.70233 0.78765 0.95052
 C2774 C 0.69517 0.79464 0.93935
 C2775 C 0.72470 0.77896 0.96164
 C2776 C 0.73096 0.77265 0.97102
 H2777 H 0.66574 0.80384 0.89461
 H2778 H 0.67793 0.79220 0.91478
 H2779 H 0.71091 0.82496 0.91363
 H2780 H 0.69875 0.83634 0.89329
 H2781 H 0.72435 0.80340 0.91892
 H2782 H 0.73681 0.79125 0.93861
 H2783 H 0.69615 0.78320 0.95930
 H2784 H 0.68356 0.79558 0.93980
 C2785 C 0.16896 0.33209 0.86953
 C2786 C 0.17468 0.32661 0.87973
 C2787 C 0.18162 0.31998 0.89180
 C2788 C 0.17703 0.30650 0.89664
 C2789 C 0.18398 0.29989 0.90814
 C2790 C 0.19565 0.30668 0.91496
 C2791 C 0.20011 0.32027 0.91007
 C2792 C 0.19314 0.32687 0.89857
 C2793 C 0.20325 0.29951 0.92697
 C2794 C 0.21836 0.30010 0.92795
 C2795 C 0.22555 0.29313 0.93910
 C2796 C 0.21775 0.28549 0.94941
 C2797 C 0.20272 0.28489 0.94858
 C2798 C 0.19551 0.29185 0.93743
 C2799 C 0.22521 0.27808 0.96071
 C2800 C 0.23154 0.27181 0.97007
 H2801 H 0.16816 0.30105 0.89143
 H2802 H 0.18041 0.28935 0.91153
 H2803 H 0.20893 0.32585 0.91520
 H2804 H 0.19676 0.33731 0.89492
 H2805 H 0.22464 0.30573 0.91996
 H2806 H 0.23719 0.29361 0.93961
 H2807 H 0.19657 0.27903 0.95652
 H2808 H 0.18386 0.29135 0.93707
 C2809 C 0.16893 0.83248 0.36937
 C2810 C 0.17458 0.82705 0.37963
 C2811 C 0.18142 0.82045 0.39177
 C2812 C 0.17736 0.80663 0.39609
 C2813 C 0.18422 0.80005 0.40766
 C2814 C 0.19528 0.80721 0.41507
 C2815 C 0.19922 0.82114 0.41070
 C2816 C 0.19233 0.82771 0.39913
 C2817 C 0.20282 0.80007 0.42714
 C2818 C 0.21784 0.80136 0.42868
 C2819 C 0.22498 0.79438 0.43985
 C2820 C 0.21722 0.78603 0.44963
 C2821 C 0.20227 0.78476 0.44827
 C2822 C 0.19510 0.79173 0.43710
 C2823 C 0.22464 0.77856 0.46091
 C2824 C 0.23092 0.77220 0.47024
 H2825 H 0.16896 0.80089 0.39043
 H2826 H 0.18108 0.78925 0.41063
 H2827 H 0.20756 0.82700 0.41630
 H2828 H 0.19555 0.83841 0.39589
 H2829 H 0.22410 0.80754 0.42108
 H2830 H 0.23656 0.79539 0.44077
 H2831 H 0.19616 0.77834 0.45580
 H2832 H 0.18352 0.79068 0.43631
 C2833 C 0.66740 0.66828 0.63116
 C2834 C 0.67273 0.67374 0.62074
 C2835 C 0.67920 0.68040 0.60841
 C2836 C 0.67201 0.69147 0.60124
 C2837 C 0.67846 0.69822 0.58951
 C2838 C 0.69220 0.69397 0.58480
 C2839 C 0.69928 0.68273 0.59200
 C2840 C 0.69281 0.67601 0.60374
 C2841 C 0.69925 0.70139 0.57259
 C2842 C 0.70711 0.69356 0.56237
 C2843 C 0.71401 0.70062 0.55108
 C2844 C 0.71316 0.71558 0.54985
 C2845 C 0.70528 0.72345 0.55990
 C2846 C 0.69836 0.71641 0.57119
 C2847 C 0.72058 0.72289 0.53846
 C2848 C 0.72689 0.72912 0.52905
 H2849 H 0.66146 0.69494 0.60476
 H2850 H 0.67267 0.70671 0.58408
 H2851 H 0.70994 0.67935 0.58876
 H2852 H 0.69849 0.66749 0.60925
 H2853 H 0.70785 0.68198 0.56306
 H2854 H 0.72007 0.69442 0.54335
 H2855 H 0.70461 0.73503 0.55909
 H2856 H 0.69257 0.72276 0.57899
 C2857 C 0.66713 0.16735 0.13127
 C2858 C 0.67255 0.17279 0.12088
 C2859 C 0.67912 0.17940 0.10859
 C2860 C 0.67141 0.18936 0.10041
 C2861 C 0.67793 0.19608 0.08869
 C2862 C 0.69227 0.19291 0.08501
 C2863 C 0.69989 0.18278 0.09323
 C2864 C 0.69335 0.17609 0.10494
 C2865 C 0.69934 0.20030 0.07280
 C2866 C 0.70856 0.19274 0.06354
 C2867 C 0.71547 0.19981 0.05226
 C2868 C 0.71326 0.21452 0.05008
 C2869 C 0.70404 0.22211 0.05916
 C2870 C 0.69712 0.21507 0.07044
 C2871 C 0.72067 0.22189 0.03872
 C2872 C 0.72695 0.22818 0.02932
 H2873 H 0.66038 0.19199 0.10313
 H2874 H 0.67172 0.20368 0.08247
 H2875 H 0.71100 0.18026 0.09079
 H2876 H 0.69944 0.16844 0.11124
 H2877 H 0.71035 0.18134 0.06497
 H2878 H 0.72257 0.19382 0.04528
 H2879 H 0.70230 0.23351 0.05761
 H2880 H 0.69025 0.22123 0.07749
 C2881 C 0.16751 0.66720 0.13155
 C2882 C 0.17288 0.67275 0.12118
 C2883 C 0.17936 0.67952 0.10893
 C2884 C 0.19210 0.67401 0.10312
 C2885 C 0.19861 0.68082 0.09145
 C2886 C 0.19246 0.69325 0.08545
 C2887 C 0.17959 0.69863 0.09130
 C2888 C 0.17310 0.69180 0.10296
 C2889 C 0.19958 0.70071 0.07331
 C2890 C 0.20026 0.71581 0.07290
 C2891 C 0.20718 0.72284 0.06162
 C2892 C 0.21350 0.71491 0.05059
 C2893 C 0.21282 0.69990 0.05084
 C2894 C 0.20591 0.69283 0.06213
 C2895 C 0.22086 0.72220 0.03914
 C2896 C 0.22710 0.72842 0.02968
 H2897 H 0.19707 0.66454 0.10770
 H2898 H 0.20860 0.67652 0.08732
 H2899 H 0.17450 0.70806 0.08681
 H2900 H 0.16322 0.69614 0.10736
 H2901 H 0.19567 0.72217 0.08144
 H2902 H 0.20770 0.73447 0.06155
 H2903 H 0.21766 0.69365 0.04235
 H2904 H 0.20541 0.68121 0.06205
 C2905 C 0.16683 0.16713 0.63241
 C2906 C 0.17220 0.17264 0.62202
 C2907 C 0.17871 0.17934 0.60975
 C2908 C 0.19238 0.17503 0.60516
 C2909 C 0.19889 0.18179 0.59347
 C2910 C 0.19180 0.19298 0.58621
 C2911 C 0.17800 0.19716 0.59084
 C2912 C 0.17152 0.19038 0.60253
 C2913 C 0.19887 0.20042 0.57403
 C2914 C 0.19787 0.21543 0.57258
 C2915 C 0.20481 0.22249 0.56131
 C2916 C 0.21282 0.21465 0.55135
 C2917 C 0.21380 0.19971 0.55263
 C2918 C 0.20688 0.19263 0.56390
 C2919 C 0.22025 0.22199 0.53998
 C2920 C 0.22658 0.22822 0.53057
 H2921 H 0.19807 0.16654 0.61071
 H2922 H 0.20958 0.17845 0.59029
 H2923 H 0.17220 0.20561 0.58536
 H2924 H 0.16092 0.19379 0.60598
 H2925 H 0.19196 0.22176 0.58031
 H2926 H 0.20403 0.23407 0.56045
 H2927 H 0.21996 0.19354 0.54496
 H2928 H 0.20770 0.18105 0.56463
   
