data_POSCAR
  _audit_creation_date              2014-09-24
  _audit_creation_method            'ToBaCCo'
  _symmetry_space_group_name_H-M    'P1'
  _symmetry_Int_Tables_number       1
  _symmetry_cell_setting            triclinic
  loop_
  _symmetry_equiv_pos_as_xyz
 x,y,z
_cell_length_a 56.7856
_cell_length_b 56.7832
_cell_length_c 57.0585
_cell_angle_alpha 89.921500
_cell_angle_beta 89.932600
_cell_angle_gamma 89.896700
loop_
  _atom_site_label
  _atom_site_type_symbol
  _atom_site_fract_x
  _atom_site_fract_y
  _atom_site_fract_z
N1 N 0.37996 0.31457 0.33162
 N2 N 0.37916 0.33059 0.31495
 C3 C 0.39575 0.32562 0.29877
 C4 C 0.40753 0.30561 0.30586
 C5 C 0.39710 0.29893 0.32664
 H6 H 0.39819 0.33498 0.28243
 H7 H 0.40075 0.28313 0.33661
 Cu8 Cu 0.35487 0.35478 0.31492
 Cu9 Cu 0.35681 0.31335 0.35687
 Cu10 Cu 0.31356 0.35660 0.35694
 N11 N 0.33063 0.37901 0.31500
 N12 N 0.31467 0.37980 0.33173
 C13 C 0.29901 0.39693 0.32682
 C14 C 0.30559 0.40736 0.30600
 C15 C 0.32558 0.39559 0.29884
 H16 H 0.28324 0.40057 0.33684
 H17 H 0.33487 0.39805 0.28246
 N18 N 0.31539 0.33163 0.38091
 N19 N 0.33184 0.31514 0.38087
 C20 C 0.32685 0.29925 0.39771
 C21 C 0.30643 0.30616 0.40881
 C22 C 0.29954 0.32664 0.39779
 H23 H 0.33640 0.28302 0.40067
 H24 H 0.28334 0.33621 0.40080
 H25 H 0.32974 0.32949 0.33868
 H26 H 0.34908 0.34880 0.35676
 N27 N 0.38051 0.81508 -0.16898
 N28 N 0.37974 0.83106 -0.18569
 C29 C 0.39638 0.82609 -0.20182
 C30 C 0.40817 0.80611 -0.19460
 C31 C 0.39767 0.79944 -0.17385
 H32 H 0.39885 0.83544 -0.21817
 H33 H 0.40121 0.78361 -0.16387
 Cu34 Cu 0.35548 0.85529 -0.18580
 Cu35 Cu 0.35727 0.81386 -0.14383
 Cu36 Cu 0.31412 0.85717 -0.14378
 N37 N 0.33133 0.87963 -0.18563
 N38 N 0.31536 0.88043 -0.16892
 C39 C 0.29973 0.89759 -0.17380
 C40 C 0.30641 0.90810 -0.19455
 C41 C 0.32638 0.89629 -0.20176
 H42 H 0.28388 0.90113 -0.16384
 H43 H 0.33571 0.89876 -0.21811
 N44 N 0.31581 0.83211 -0.11989
 N45 N 0.33225 0.81562 -0.11990
 C46 C 0.32723 0.79974 -0.10305
 C47 C 0.30678 0.80666 -0.09201
 C48 C 0.29991 0.82713 -0.10305
 H49 H 0.33679 0.78354 -0.10004
 H50 H 0.28372 0.83672 -0.10006
 H51 H 0.33022 0.83005 -0.16209
 H52 H 0.34963 0.84932 -0.14400
 N53 N 0.87971 0.31551 -0.16876
 N54 N 0.87887 0.33145 -0.18550
 C55 C 0.89548 0.32646 -0.20164
 C56 C 0.90732 0.30651 -0.19445
 C57 C 0.89690 0.29990 -0.17365
 H58 H 0.89791 0.33575 -0.21802
 H59 H 0.90056 0.28413 -0.16363
 Cu60 Cu 0.85450 0.35558 -0.18567
 Cu61 Cu 0.85646 0.31423 -0.14364
 Cu62 Cu 0.81306 0.35733 -0.14371
 N63 N 0.83025 0.37983 -0.18556
 N64 N 0.81425 0.38058 -0.16887
 C65 C 0.79857 0.39771 -0.17379
 C66 C 0.80525 0.40820 -0.19455
 C67 C 0.82526 0.39644 -0.20171
 H68 H 0.78275 0.40128 -0.16381
 H69 H 0.83459 0.39891 -0.21807
 N70 N 0.81485 0.33228 -0.11980
 N71 N 0.83140 0.31589 -0.11976
 C72 C 0.82645 0.29998 -0.10292
 C73 C 0.80595 0.30678 -0.09191
 C74 C 0.79896 0.32720 -0.10298
 H75 H 0.83609 0.28382 -0.09991
 H76 H 0.78271 0.33669 -0.10001
 H77 H 0.82932 0.33031 -0.16188
 H78 H 0.84856 0.34973 -0.14380
 N79 N 0.87996 0.81515 0.33163
 N80 N 0.87917 0.83114 0.31493
 C81 C 0.89578 0.82615 0.29879
 C82 C 0.90757 0.80616 0.30592
 C83 C 0.89712 0.79952 0.32671
 H84 H 0.89823 0.83547 0.28242
 H85 H 0.90075 0.78372 0.33670
 Cu86 Cu 0.85487 0.85532 0.31480
 Cu87 Cu 0.85671 0.81391 0.35678
 Cu88 Cu 0.81342 0.85715 0.35673
 N89 N 0.83065 0.87958 0.31486
 N90 N 0.81464 0.88038 0.33155
 C91 C 0.79898 0.89751 0.32659
 C92 C 0.80567 0.90795 0.30581
 C93 C 0.82567 0.89617 0.29868
 H94 H 0.78316 0.90110 0.33656
 H95 H 0.83500 0.89859 0.28231
 N96 N 0.81517 0.83210 0.38065
 N97 N 0.83166 0.81564 0.38068
 C98 C 0.82667 0.79977 0.39754
 C99 C 0.80621 0.80666 0.40857
 C100 C 0.79928 0.82709 0.39749
 H101 H 0.83626 0.78358 0.40056
 H102 H 0.78307 0.83664 0.40047
 H103 H 0.82963 0.83008 0.33855
 H104 H 0.84893 0.84940 0.35666
 N105 N 0.62010 0.68531 0.33208
 N106 N 0.62087 0.66929 0.31546
 C107 C 0.60430 0.67429 0.29931
 C108 C 0.59255 0.69433 0.30636
 C109 C 0.60299 0.70098 0.32711
 H110 H 0.60184 0.66495 0.28299
 H111 H 0.59939 0.71680 0.33703
 Cu112 Cu 0.64517 0.64510 0.31540
 Cu113 Cu 0.64333 0.68656 0.35719
 Cu114 Cu 0.68663 0.64333 0.35719
 N115 N 0.66942 0.62085 0.31545
 N116 N 0.68545 0.62012 0.33207
 C117 C 0.70114 0.60302 0.32711
 C118 C 0.69448 0.59254 0.30638
 C119 C 0.67442 0.60426 0.29932
 H120 H 0.71696 0.59944 0.33704
 H121 H 0.66505 0.60175 0.28302
 N122 N 0.68485 0.66836 0.38106
 N123 N 0.66837 0.68483 0.38105
 C124 C 0.67335 0.70071 0.39785
 C125 C 0.69380 0.69382 0.40887
 C126 C 0.70072 0.67337 0.39786
 H127 H 0.66377 0.71691 0.40082
 H128 H 0.71693 0.66381 0.40085
 H129 H 0.67040 0.67038 0.33896
 H130 H 0.65112 0.65108 0.35721
 N131 N 0.62013 0.18476 -0.16832
 N132 N 0.62086 0.16869 -0.18491
 C133 C 0.60428 0.17368 -0.20106
 C134 C 0.59256 0.19375 -0.19403
 C135 C 0.60303 0.20044 -0.17331
 H136 H 0.60179 0.16430 -0.21736
 H137 H 0.59946 0.21629 -0.16342
 Cu138 Cu 0.64511 0.14446 -0.18489
 Cu139 Cu 0.64339 0.18607 -0.14326
 Cu140 Cu 0.68671 0.14285 -0.14324
 N141 N 0.66936 0.12022 -0.18486
 N142 N 0.68545 0.11955 -0.16828
 C143 C 0.70116 0.10246 -0.17323
 C144 C 0.69442 0.09193 -0.19391
 C145 C 0.67434 0.10360 -0.20098
 H146 H 0.71704 0.09897 -0.16335
 H147 H 0.66495 0.10110 -0.21727
 N148 N 0.68497 0.16794 -0.11943
 N149 N 0.66848 0.18439 -0.11944
 C150 C 0.67347 0.20031 -0.10268
 C151 C 0.69394 0.19345 -0.09167
 C152 C 0.70086 0.17299 -0.10265
 H153 H 0.66387 0.21649 -0.09971
 H154 H 0.71707 0.16343 -0.09966
 H155 H 0.67040 0.16984 -0.16150
 H156 H 0.65121 0.15059 -0.14311
 N157 N 0.11972 0.68518 -0.16818
 N158 N 0.12016 0.66884 -0.18450
 C159 C 0.10358 0.67380 -0.20067
 C160 C 0.09217 0.69416 -0.19392
 C161 C 0.10282 0.70102 -0.17334
 H162 H 0.10093 0.66422 -0.21683
 H163 H 0.09952 0.71706 -0.16368
 Cu164 Cu 0.14429 0.64446 -0.18417
 Cu165 Cu 0.14314 0.68659 -0.14320
 Cu166 Cu 0.18646 0.64334 -0.14322
 N167 N 0.16875 0.62043 -0.18458
 N168 N 0.18506 0.61997 -0.16824
 C169 C 0.20088 0.60305 -0.17337
 C170 C 0.19405 0.59243 -0.19397
 C171 C 0.17372 0.60386 -0.20076
 H172 H 0.21689 0.59971 -0.16366
 H173 H 0.16414 0.60122 -0.21692
 N174 N 0.18480 0.66849 -0.11945
 N175 N 0.16834 0.68498 -0.11947
 C176 C 0.17335 0.70088 -0.10270
 C177 C 0.19380 0.69398 -0.09169
 C178 C 0.20067 0.67349 -0.10264
 H179 H 0.16374 0.71706 -0.09970
 H180 H 0.21682 0.66385 -0.09959
 H181 H 0.17009 0.67021 -0.16168
 H182 H 0.15124 0.65128 -0.14270
 N183 N 0.12005 0.18528 0.33174
 N184 N 0.12074 0.16922 0.31515
 C185 C 0.10422 0.17430 0.29896
 C186 C 0.09257 0.19440 0.30599
 C187 C 0.10302 0.20103 0.32674
 H188 H 0.10173 0.16494 0.28265
 H189 H 0.09948 0.21687 0.33665
 Cu190 Cu 0.14489 0.14489 0.31516
 Cu191 Cu 0.14325 0.18640 0.35689
 Cu192 Cu 0.18636 0.14300 0.35695
 N193 N 0.16900 0.12053 0.31524
 N194 N 0.18506 0.11976 0.33183
 C195 C 0.20070 0.10263 0.32686
 C196 C 0.19400 0.09217 0.30613
 C197 C 0.17397 0.10394 0.29909
 H198 H 0.21653 0.09901 0.33677
 H199 H 0.16461 0.10150 0.28277
 N200 N 0.18467 0.16805 0.38081
 N201 N 0.16823 0.18455 0.38082
 C202 C 0.17322 0.20038 0.39767
 C203 C 0.19365 0.19342 0.40870
 C204 C 0.20053 0.17298 0.39765
 H205 H 0.16367 0.21659 0.40067
 H206 H 0.21670 0.16336 0.40065
 H207 H 0.17026 0.17007 0.33866
 H208 H 0.15094 0.15089 0.35698
 N209 N 0.62011 0.31488 0.66847
 N210 N 0.62096 0.33073 0.68525
 C211 C 0.60437 0.32570 0.70140
 C212 C 0.59254 0.30583 0.69418
 C213 C 0.60295 0.29929 0.67335
 H214 H 0.60195 0.33492 0.71781
 H215 H 0.59926 0.28360 0.66328
 Cu216 Cu 0.64524 0.35483 0.68547
 Cu217 Cu 0.64327 0.31377 0.64325
 Cu218 Cu 0.68648 0.35690 0.64330
 N219 N 0.66937 0.37909 0.68530
 N220 N 0.68529 0.37998 0.66854
 C221 C 0.70085 0.39714 0.67344
 C222 C 0.69424 0.40748 0.69427
 C223 C 0.67434 0.39563 0.70146
 H224 H 0.71657 0.40085 0.66338
 H225 H 0.66505 0.39802 0.71785
 N226 N 0.68470 0.33202 0.61930
 N227 N 0.66824 0.31560 0.61928
 C228 C 0.67325 0.29977 0.60241
 C229 C 0.69368 0.30666 0.59136
 C230 C 0.70057 0.32705 0.60243
 H231 H 0.66370 0.28359 0.59942
 H232 H 0.71677 0.33658 0.59946
 H233 H 0.67040 0.32974 0.66145
 H234 H 0.65099 0.34928 0.64355
 N235 N 0.62005 0.81510 1.16851
 N236 N 0.62079 0.83113 1.18512
 C237 C 0.60419 0.82617 1.20131
 C238 C 0.59248 0.80616 1.19425
 C239 C 0.60295 0.79949 1.17349
 H240 H 0.60174 0.83551 1.21763
 H241 H 0.59939 0.78366 1.16358
 Cu242 Cu 0.64511 0.85519 1.18517
 Cu243 Cu 0.64331 0.81380 1.14335
 Cu244 Cu 0.68672 0.85675 1.14345
 N245 N 0.66943 0.87925 1.18523
 N246 N 0.68555 0.87990 1.16865
 C247 C 0.70130 0.89682 1.17370
 C248 C 0.69462 0.90729 1.19444
 C249 C 0.67445 0.89575 1.20143
 H250 H 0.71720 0.90028 1.16382
 H251 H 0.66503 0.89828 1.21772
 N252 N 0.68490 0.83182 1.11950
 N253 N 0.66836 0.81548 1.11944
 C254 C 0.67331 0.79965 1.10254
 C255 C 0.69381 0.80645 1.09155
 C256 C 0.70079 0.82678 1.10266
 H257 H 0.66367 0.78354 1.09949
 H258 H 0.71704 0.83624 1.09971
 H259 H 0.67034 0.82978 1.16162
 H260 H 0.65120 0.84921 1.14336
 N261 N 0.11966 0.31552 1.16797
 N262 N 0.12010 0.33179 1.18437
 C263 C 0.10354 0.32679 1.20056
 C264 C 0.09212 0.30652 1.19375
 C265 C 0.10274 0.29975 1.17311
 H266 H 0.10096 0.33623 1.21681
 H267 H 0.09945 0.28373 1.16342
 Cu268 Cu 0.14426 0.35603 1.18451
 Cu269 Cu 0.14317 0.31406 1.14311
 Cu270 Cu 0.18638 0.35719 1.14314
 N271 N 0.16854 0.38016 1.18440
 N272 N 0.18487 0.38062 1.16803
 C273 C 0.20065 0.39749 1.17321
 C274 C 0.19380 0.40808 1.19383
 C275 C 0.17348 0.39667 1.20061
 H276 H 0.21671 0.40078 1.16354
 H277 H 0.16397 0.39922 1.21683
 N278 N 0.18489 0.33199 1.11945
 N279 N 0.16843 0.31557 1.11943
 C280 C 0.17346 0.29969 1.10262
 C281 C 0.19394 0.30653 1.09162
 C282 C 0.20082 0.32695 1.10265
 H283 H 0.16384 0.28357 1.09956
 H284 H 0.21698 0.33653 1.09961
 H285 H 0.17001 0.33034 1.16165
 H286 H 0.15103 0.34942 1.14287
 N287 N 0.12007 0.81512 0.66854
 N288 N 0.12100 0.83093 0.68534
 C289 C 0.10435 0.82600 0.70146
 C290 C 0.09239 0.80623 0.69418
 C291 C 0.10277 0.79966 0.67335
 H292 H 0.10199 0.83519 0.71789
 H293 H 0.09901 0.78400 0.66326
 Cu294 Cu 0.14546 0.85484 0.68563
 Cu295 Cu 0.14326 0.81388 0.64334
 Cu296 Cu 0.18674 0.85671 0.64348
 N297 N 0.16977 0.87889 0.68556
 N298 N 0.18570 0.87971 0.66881
 C299 C 0.20140 0.89673 0.67377
 C300 C 0.19486 0.90705 0.69464
 C301 C 0.17486 0.89534 0.70178
 H302 H 0.21715 0.90036 0.66373
 H303 H 0.16559 0.89775 0.71817
 N304 N 0.18477 0.83190 0.61940
 N305 N 0.16821 0.81559 0.61935
 C306 C 0.17308 0.79980 0.60241
 C307 C 0.19355 0.80658 0.59137
 C308 C 0.20059 0.82688 0.60250
 H309 H 0.16341 0.78370 0.59935
 H310 H 0.21685 0.83631 0.59954
 H311 H 0.17052 0.82967 0.66162
 H312 H 0.15123 0.84933 0.64372
 N313 N 0.38026 0.68521 0.66827
 N314 N 0.37991 0.66882 0.68457
 C315 C 0.39642 0.67380 0.70080
 C316 C 0.40761 0.69429 0.69415
 C317 C 0.39697 0.70113 0.67352
 H318 H 0.39913 0.66418 0.71694
 H319 H 0.40012 0.71721 0.66388
 Cu320 Cu 0.35597 0.64434 0.68421
 Cu321 Cu 0.35692 0.68657 0.64321
 Cu322 Cu 0.31398 0.64311 0.64308
 N323 N 0.33181 0.62007 0.68439
 N324 N 0.31551 0.61963 0.66804
 C325 C 0.29976 0.60270 0.67320
 C326 C 0.30660 0.59204 0.69382
 C327 C 0.32692 0.60342 0.70056
 H328 H 0.28376 0.59942 0.66351
 H329 H 0.33646 0.60076 0.71675
 N330 N 0.31550 0.66834 0.61934
 N331 N 0.33183 0.68488 0.61940
 C332 C 0.32680 0.70075 0.60254
 C333 C 0.30646 0.69377 0.59145
 C334 C 0.29968 0.67326 0.60243
 H335 H 0.33632 0.71695 0.59953
 H336 H 0.28364 0.66354 0.59929
 H337 H 0.33000 0.67013 0.66169
 H338 H 0.34909 0.65133 0.64279
 N339 N 0.38011 0.18507 1.16839
 N340 N 0.37929 0.16912 1.18513
 C341 C 0.39589 0.17409 1.20124
 C342 C 0.40769 0.19401 1.19403
 C343 C 0.39727 0.20065 1.17324
 H344 H 0.39833 0.16479 1.21761
 H345 H 0.40093 0.21639 1.16320
 Cu346 Cu 0.35500 0.14501 1.18534
 Cu347 Cu 0.35694 0.18630 1.14323
 Cu348 Cu 0.31372 0.14319 1.14334
 N349 N 0.33082 0.12078 1.18526
 N350 N 0.31487 0.12002 1.16857
 C351 C 0.29926 0.10288 1.17348
 C352 C 0.30588 0.09239 1.19426
 C353 C 0.32584 0.10416 1.20140
 H354 H 0.28352 0.09924 1.16348
 H355 H 0.33515 0.10165 1.21774
 N356 N 0.31552 0.16815 1.11935
 N357 N 0.33199 0.18456 1.11930
 C358 C 0.32706 0.20039 1.10238
 C359 C 0.30663 0.19353 1.09136
 C360 C 0.29969 0.17315 1.10248
 H361 H 0.33664 0.21655 1.09934
 H362 H 0.28349 0.16363 1.09951
 H363 H 0.32983 0.17028 1.16153
 H364 H 0.34921 0.15085 1.14348
 N365 N 0.88011 0.68542 1.16860
 N366 N 0.87940 0.66939 1.18527
 C367 C 0.89598 0.67437 1.20139
 C368 C 0.90769 0.69438 1.19426
 C369 C 0.89721 0.70105 1.17351
 H370 H 0.89850 0.66500 1.21772
 H371 H 0.90079 0.71685 1.16352
 Cu372 Cu 0.85524 0.64515 1.18533
 Cu373 Cu 0.85695 0.68661 1.14340
 Cu374 Cu 0.81394 0.64328 1.14337
 N375 N 0.83114 0.62085 1.18525
 N376 N 0.81519 0.62005 1.16855
 C377 C 0.79960 0.60291 1.17350
 C378 C 0.80621 0.59248 1.19430
 C379 C 0.82615 0.60426 1.20142
 H380 H 0.78384 0.59928 1.16351
 H381 H 0.83544 0.60182 1.21779
 N382 N 0.81564 0.66830 1.11944
 N383 N 0.83202 0.68480 1.11945
 C384 C 0.82702 0.70064 1.10256
 C385 C 0.80667 0.69369 1.09147
 C386 C 0.79982 0.67324 1.10254
 H387 H 0.83653 0.71686 1.09955
 H388 H 0.78369 0.66363 1.09951
 H389 H 0.82995 0.67039 1.16163
 H390 H 0.84940 0.65113 1.14349
 N391 N 0.88009 0.18525 0.66846
 N392 N 0.87937 0.16923 0.68512
 C393 C 0.89592 0.17424 0.70128
 C394 C 0.90760 0.19427 0.69415
 C395 C 0.89714 0.20091 0.67338
 H396 H 0.89840 0.16490 0.71762
 H397 H 0.90068 0.21674 0.66342
 Cu398 Cu 0.85515 0.14506 0.68518
 Cu399 Cu 0.85689 0.18648 0.64330
 Cu400 Cu 0.81364 0.14336 0.64349
 N401 N 0.83090 0.12093 0.68535
 N402 N 0.81484 0.12021 0.66876
 C403 C 0.79913 0.10324 0.67384
 C404 C 0.80576 0.09282 0.69465
 C405 C 0.82585 0.10445 0.70163
 H406 H 0.78328 0.09971 0.66396
 H407 H 0.83521 0.10198 0.71794
 N408 N 0.81543 0.16831 0.61948
 N409 N 0.83189 0.18473 0.61940
 C410 C 0.82693 0.20056 0.60249
 C411 C 0.80650 0.19369 0.59149
 C412 C 0.79957 0.17331 0.60262
 H413 H 0.83651 0.21672 0.59943
 H414 H 0.78337 0.16379 0.59968
 H415 H 0.82986 0.17038 0.66161
 H416 H 0.84913 0.15103 0.64339
 N417 N 0.31472 0.37982 0.66821
 N418 N 0.33077 0.37910 0.68481
 C419 C 0.32582 0.39575 0.70090
 C420 C 0.30578 0.40749 0.69383
 C421 C 0.29908 0.39697 0.67314
 H422 H 0.33521 0.39826 0.71719
 H423 H 0.28325 0.40055 0.66322
 Cu424 Cu 0.35498 0.35482 0.68491
 Cu425 Cu 0.31343 0.35650 0.64317
 Cu426 Cu 0.35667 0.31321 0.64328
 N427 N 0.37921 0.33058 0.68491
 N428 N 0.37994 0.31450 0.66834
 C429 C 0.39706 0.29885 0.67331
 C430 C 0.40756 0.30556 0.69401
 C431 C 0.39583 0.32563 0.70104
 H432 H 0.40064 0.28300 0.66342
 H433 H 0.39834 0.33502 0.71732
 N434 N 0.33161 0.31488 0.61944
 N435 N 0.31515 0.33136 0.61939
 C436 C 0.29927 0.32633 0.60260
 C437 C 0.30617 0.30585 0.59164
 C438 C 0.32661 0.29896 0.60268
 H439 H 0.28309 0.33592 0.59957
 H440 H 0.33619 0.28276 0.59973
 H441 H 0.32960 0.32953 0.66149
 H442 H 0.34887 0.34874 0.64313
 N443 N 0.31486 0.88001 0.16780
 N444 N 0.33072 0.87914 0.18458
 C445 C 0.32558 0.89564 0.20076
 C446 C 0.30562 0.90744 0.19357
 C447 C 0.29916 0.89712 0.17270
 H448 H 0.33477 0.89801 0.21719
 H449 H 0.28344 0.90078 0.16264
 Cu450 Cu 0.35490 0.85483 0.18478
 Cu451 Cu 0.31381 0.85685 0.14263
 Cu452 Cu 0.35701 0.81352 0.14280
 N453 N 0.37918 0.83061 0.18476
 N454 N 0.38006 0.81466 0.16807
 C455 C 0.39719 0.79900 0.17305
 C456 C 0.40753 0.80559 0.19386
 C457 C 0.39571 0.82558 0.20095
 H458 H 0.40089 0.78325 0.16305
 H459 H 0.39810 0.83488 0.21730
 N460 N 0.33212 0.81537 0.11879
 N461 N 0.31569 0.83188 0.11870
 C462 C 0.29989 0.82693 0.10181
 C463 C 0.30679 0.80645 0.09085
 C464 C 0.32716 0.79949 0.10198
 H465 H 0.28372 0.83652 0.09877
 H466 H 0.33669 0.78325 0.09907
 H467 H 0.32987 0.82964 0.16089
 H468 H 0.34933 0.84900 0.14289
 N469 N 0.81454 0.37983 0.16803
 N470 N 0.83056 0.37908 0.18467
 C471 C 0.82557 0.39569 0.20078
 C472 C 0.80555 0.40744 0.19369
 C473 C 0.79889 0.39696 0.17297
 H474 H 0.83493 0.39818 0.21709
 H475 H 0.78308 0.40058 0.16302
 Cu476 Cu 0.85480 0.35485 0.18474
 Cu477 Cu 0.81338 0.35664 0.14290
 Cu478 Cu 0.85670 0.31344 0.14289
 N479 N 0.87909 0.33068 0.18468
 N480 N 0.87989 0.31467 0.16804
 C481 C 0.89705 0.29904 0.17300
 C482 C 0.90747 0.30572 0.19375
 C483 C 0.89568 0.32572 0.20082
 H484 H 0.90069 0.28324 0.16306
 H485 H 0.89813 0.33507 0.21714
 N486 N 0.83168 0.31520 0.11899
 N487 N 0.81519 0.33165 0.11900
 C488 C 0.79934 0.32667 0.10217
 C489 C 0.80629 0.30626 0.09111
 C490 C 0.82674 0.29936 0.10214
 H491 H 0.78313 0.33622 0.09919
 H492 H 0.83634 0.28318 0.09913
 H493 H 0.82964 0.32958 0.16111
 H494 H 0.84892 0.34891 0.14290
 N495 N 0.81435 0.88047 0.66853
 N496 N 0.83032 0.87964 0.68521
 C497 C 0.82533 0.89623 0.70135
 C498 C 0.80535 0.90805 0.69423
 C499 C 0.79872 0.89763 0.67346
 H500 H 0.83464 0.89866 0.71769
 H501 H 0.78296 0.90130 0.66347
 Cu502 Cu 0.85451 0.85534 0.68533
 Cu503 Cu 0.81316 0.85730 0.64338
 Cu504 Cu 0.85645 0.81408 0.64329
 N505 N 0.87882 0.83116 0.68514
 N506 N 0.87966 0.81525 0.66842
 C507 C 0.89683 0.79961 0.67330
 C508 C 0.90725 0.80617 0.69409
 C509 C 0.89543 0.82613 0.70126
 H510 H 0.90049 0.78387 0.66328
 H511 H 0.89786 0.83540 0.71762
 N512 N 0.83143 0.81588 0.61942
 N513 N 0.81494 0.83233 0.61946
 C514 C 0.79906 0.82734 0.60266
 C515 C 0.80598 0.80692 0.59159
 C516 C 0.82645 0.80003 0.60258
 H517 H 0.78283 0.83689 0.59971
 H518 H 0.83604 0.78385 0.59957
 H519 H 0.82934 0.83017 0.66155
 H520 H 0.84867 0.84958 0.64346
 N521 N 0.68497 0.62014 0.66864
 N522 N 0.66895 0.62086 0.68531
 C523 C 0.67396 0.60424 0.70144
 C524 C 0.69399 0.59251 0.69432
 C525 C 0.70064 0.60301 0.67356
 H526 H 0.66462 0.60174 0.71778
 H527 H 0.71645 0.59943 0.66359
 Cu528 Cu 0.64469 0.64510 0.68538
 Cu529 Cu 0.68620 0.64343 0.64352
 Cu530 Cu 0.64290 0.68665 0.64355
 N531 N 0.62038 0.66928 0.68531
 N532 N 0.61961 0.68533 0.66866
 C533 C 0.60246 0.70096 0.67361
 C534 C 0.59199 0.69426 0.69438
 C535 C 0.60376 0.67424 0.70146
 H536 H 0.59884 0.71678 0.66367
 H537 H 0.60131 0.66488 0.71781
 N538 N 0.66799 0.68500 0.61968
 N539 N 0.68446 0.66853 0.61965
 C540 C 0.70034 0.67356 0.60281
 C541 C 0.69344 0.69403 0.59180
 C542 C 0.67299 0.70091 0.60286
 H543 H 0.71655 0.66399 0.59980
 H544 H 0.66341 0.71712 0.59989
 H545 H 0.66997 0.67044 0.66180
 H546 H 0.65072 0.65118 0.64358
 N547 N 0.68559 0.11950 0.16831
 N548 N 0.66950 0.12020 0.18491
 C549 C 0.67448 0.10362 0.20109
 C550 C 0.69458 0.09195 0.19408
 C551 C 0.70129 0.10243 0.17333
 H552 H 0.66508 0.10113 0.21740
 H553 H 0.71716 0.09888 0.16344
 Cu554 Cu 0.64525 0.14444 0.18489
 Cu555 Cu 0.68685 0.14275 0.14314
 Cu556 Cu 0.64355 0.18597 0.14306
 N557 N 0.62100 0.16867 0.18485
 N558 N 0.62028 0.18473 0.16821
 C559 C 0.60318 0.20041 0.17318
 C560 C 0.59270 0.19373 0.19394
 C561 C 0.60441 0.17367 0.20101
 H562 H 0.59960 0.21625 0.16324
 H563 H 0.60192 0.16430 0.21734
 N564 N 0.66862 0.18423 0.11916
 N565 N 0.68512 0.16779 0.11921
 C566 C 0.70101 0.17279 0.10237
 C567 C 0.69407 0.19320 0.09127
 C568 C 0.67359 0.20008 0.10228
 H569 H 0.71723 0.16324 0.09940
 H570 H 0.66398 0.21626 0.09924
 H571 H 0.67056 0.16976 0.16134
 H572 H 0.65135 0.15049 0.14308
 N573 N 0.18533 0.62017 0.16798
 N574 N 0.16931 0.62097 0.18464
 C575 C 0.17429 0.60440 0.20083
 C576 C 0.19433 0.59263 0.19376
 C577 C 0.20099 0.60306 0.17297
 H578 H 0.16494 0.60196 0.21718
 H579 H 0.21680 0.59943 0.16301
 Cu580 Cu 0.14509 0.64525 0.18464
 Cu581 Cu 0.18658 0.64336 0.14277
 Cu582 Cu 0.14334 0.68665 0.14270
 N583 N 0.12084 0.66949 0.18455
 N584 N 0.12007 0.68546 0.16784
 C585 C 0.10298 0.70117 0.17278
 C586 C 0.09259 0.69461 0.19363
 C587 C 0.10431 0.67457 0.20075
 H588 H 0.09938 0.71697 0.16278
 H589 H 0.10188 0.66529 0.21714
 N590 N 0.16840 0.68487 0.11880
 N591 N 0.18486 0.66839 0.11883
 C592 C 0.20078 0.67339 0.10202
 C593 C 0.19391 0.69383 0.09095
 C594 C 0.17343 0.70074 0.10194
 H595 H 0.21699 0.66381 0.09906
 H596 H 0.16388 0.71695 0.09892
 H597 H 0.17041 0.67043 0.16094
 H598 H 0.15112 0.65116 0.14279
 N599 N 0.18515 0.11942 0.66870
 N600 N 0.16916 0.12019 0.68539
 C601 C 0.17420 0.10363 0.70158
 C602 C 0.19424 0.09189 0.69447
 C603 C 0.20084 0.10232 0.67366
 H604 H 0.16488 0.10117 0.71794
 H605 H 0.21665 0.09872 0.66368
 Cu606 Cu 0.14492 0.14445 0.68542
 Cu607 Cu 0.18634 0.14262 0.64350
 Cu608 Cu 0.14307 0.18588 0.64348
 N609 N 0.12065 0.16867 0.68536
 N610 N 0.11987 0.18467 0.66867
 C611 C 0.10278 0.20036 0.67363
 C612 C 0.09236 0.19375 0.69443
 C613 C 0.10409 0.17371 0.70154
 H614 H 0.09919 0.21617 0.66365
 H615 H 0.10164 0.16439 0.71791
 N616 N 0.16810 0.18410 0.61955
 N617 N 0.18456 0.16762 0.61954
 C618 C 0.20044 0.17262 0.60269
 C619 C 0.19355 0.19309 0.59166
 C620 C 0.17311 0.19999 0.60271
 H621 H 0.21664 0.16304 0.59970
 H622 H 0.16356 0.21621 0.59974
 H623 H 0.17013 0.16971 0.66168
 H624 H 0.15083 0.15040 0.64356
 N625 N 0.31492 0.61965 0.33161
 N626 N 0.33113 0.62025 0.31515
 C627 C 0.32622 0.60366 0.29897
 C628 C 0.30604 0.59212 0.30592
 C629 C 0.29924 0.60266 0.32659
 H630 H 0.33569 0.60113 0.28274
 H631 H 0.28332 0.59916 0.33642
 Cu632 Cu 0.35531 0.64445 0.31509
 Cu633 Cu 0.31352 0.64294 0.35668
 Cu634 Cu 0.35681 0.68606 0.35673
 N635 N 0.37956 0.66859 0.31517
 N636 N 0.38018 0.68473 0.33166
 C637 C 0.39721 0.70039 0.32665
 C638 C 0.40778 0.69366 0.30596
 C639 C 0.39620 0.67354 0.29899
 H640 H 0.40073 0.71626 0.33651
 H641 H 0.39873 0.66413 0.28273
 N642 N 0.33166 0.68440 0.38054
 N643 N 0.31517 0.66801 0.38050
 C644 C 0.29927 0.67301 0.39733
 C645 C 0.30620 0.69338 0.40842
 C646 C 0.32666 0.70023 0.39740
 H647 H 0.28308 0.66348 0.40033
 H648 H 0.33626 0.71636 0.40046
 H649 H 0.32986 0.66986 0.33848
 H650 H 0.34897 0.65059 0.35692
 N651 N 0.31505 0.11955 0.83186
 N652 N 0.33113 0.12025 0.81525
 C653 C 0.32620 0.10366 0.79912
 C654 C 0.30616 0.09197 0.80619
 C655 C 0.29943 0.10246 0.82692
 H656 H 0.33560 0.10115 0.78281
 H657 H 0.28358 0.09891 0.83683
 Cu658 Cu 0.35530 0.14447 0.81517
 Cu659 Cu 0.31371 0.14282 0.85695
 Cu660 Cu 0.35688 0.18600 0.85690
 N661 N 0.37949 0.16867 0.81517
 N662 N 0.38016 0.18472 0.83177
 C663 C 0.39722 0.20039 0.82676
 C664 C 0.40773 0.19371 0.80603
 C665 C 0.39608 0.17365 0.79900
 H666 H 0.40073 0.21624 0.83665
 H667 H 0.39860 0.16429 0.78269
 N668 N 0.33180 0.18431 0.88077
 N669 N 0.31536 0.16788 0.88079
 C670 C 0.29943 0.17293 0.89758
 C671 C 0.30627 0.19339 0.90856
 C672 C 0.32673 0.20023 0.89754
 H673 H 0.28323 0.16339 0.90057
 H674 H 0.33628 0.21642 0.90049
 H675 H 0.32994 0.16982 0.83865
 H676 H 0.34920 0.15052 0.85696
 N677 N 0.81495 0.61964 0.83169
 N678 N 0.83097 0.62040 0.81503
 C679 C 0.82600 0.60384 0.79888
 C680 C 0.80598 0.59212 0.80599
 C681 C 0.79931 0.60255 0.82676
 H682 H 0.83534 0.60138 0.78253
 H683 H 0.78350 0.59898 0.83671
 Cu684 Cu 0.85512 0.64465 0.81496
 Cu685 Cu 0.81364 0.64283 0.85684
 Cu686 Cu 0.85673 0.68611 0.85672
 N687 N 0.87928 0.66889 0.81492
 N688 N 0.87996 0.68492 0.83153
 C689 C 0.89700 0.70061 0.82653
 C690 C 0.90749 0.69397 0.80577
 C691 C 0.89584 0.67391 0.79873
 H692 H 0.90053 0.71643 0.83645
 H693 H 0.89836 0.66456 0.78242
 N694 N 0.83173 0.68432 0.88067
 N695 N 0.81533 0.66784 0.88072
 C696 C 0.79945 0.67281 0.89757
 C697 C 0.80627 0.69327 0.90857
 C698 C 0.82668 0.70019 0.89749
 H699 H 0.78328 0.66323 0.90060
 H700 H 0.83619 0.71640 0.90044
 H701 H 0.82971 0.66988 0.83853
 H702 H 0.84907 0.65061 0.85677
 N703 N 0.81498 0.11976 0.33165
 N704 N 0.83095 0.12057 0.31493
 C705 C 0.82603 0.10394 0.29884
 C706 C 0.80611 0.09212 0.30604
 C707 C 0.79943 0.10258 0.32679
 H708 H 0.83536 0.10147 0.28249
 H709 H 0.78367 0.09893 0.33682
 Cu710 Cu 0.85505 0.14486 0.31474
 Cu711 Cu 0.81369 0.14297 0.35675
 Cu712 Cu 0.85676 0.18626 0.35662
 N713 N 0.87926 0.16905 0.31479
 N714 N 0.87999 0.18503 0.33145
 C715 C 0.89713 0.20064 0.32651
 C716 C 0.90762 0.19399 0.30575
 C717 C 0.89588 0.17402 0.29865
 H718 H 0.90073 0.21641 0.33649
 H719 H 0.89839 0.16468 0.28233
 N720 N 0.83174 0.18449 0.38055
 N721 N 0.81535 0.16800 0.38061
 C722 C 0.79946 0.17298 0.39746
 C723 C 0.80629 0.19343 0.40846
 C724 C 0.82669 0.20036 0.39737
 H725 H 0.78331 0.16338 0.40050
 H726 H 0.83620 0.21656 0.40033
 H727 H 0.82973 0.17007 0.33846
 H728 H 0.84916 0.15078 0.35659
 N729 N 0.68494 0.37995 0.33149
 N730 N 0.66907 0.37908 0.31473
 C731 C 0.67406 0.39566 0.29856
 C732 C 0.69395 0.40750 0.30574
 C733 C 0.70051 0.39712 0.32658
 H734 H 0.66484 0.39806 0.28215
 H735 H 0.71622 0.40080 0.33662
 Cu736 Cu 0.64502 0.35474 0.31454
 Cu737 Cu 0.68614 0.35678 0.35670
 Cu738 Cu 0.64307 0.31350 0.35670
 N739 N 0.62083 0.33053 0.31469
 N740 N 0.61999 0.31462 0.33146
 C741 C 0.60289 0.29898 0.32657
 C742 C 0.59253 0.30554 0.30572
 C743 C 0.60431 0.32549 0.29852
 H744 H 0.59924 0.28326 0.33664
 H745 H 0.60189 0.33475 0.28212
 N746 N 0.66797 0.31533 0.38068
 N747 N 0.68439 0.33180 0.38066
 C748 C 0.70026 0.32678 0.39749
 C749 C 0.69340 0.30634 0.40855
 C750 C 0.67298 0.29946 0.39753
 H751 H 0.71645 0.33632 0.40044
 H752 H 0.66347 0.28325 0.40052
 H753 H 0.67020 0.32963 0.33852
 H754 H 0.65066 0.34901 0.35645
 N755 N 0.68475 0.88015 0.83178
 N756 N 0.66883 0.87937 0.81506
 C757 C 0.67376 0.89605 0.79897
 C758 C 0.69365 0.90787 0.80616
 C759 C 0.70029 0.89737 0.82692
 H760 H 0.66448 0.89854 0.78261
 H761 H 0.71602 0.90102 0.83694
 Cu762 Cu 0.64474 0.85507 0.81482
 Cu763 Cu 0.68602 0.85684 0.85686
 Cu764 Cu 0.64292 0.81361 0.85679
 N765 N 0.62049 0.83092 0.81500
 N766 N 0.61971 0.81493 0.83168
 C767 C 0.60254 0.79936 0.82681
 C768 C 0.59207 0.80606 0.80607
 C769 C 0.60386 0.82602 0.79890
 H770 H 0.59890 0.78358 0.83681
 H771 H 0.60137 0.83538 0.78257
 N772 N 0.66793 0.81526 0.88066
 N773 N 0.68434 0.83173 0.88070
 C774 C 0.70021 0.82668 0.89753
 C775 C 0.69335 0.80620 0.90852
 C776 C 0.67295 0.79933 0.89747
 H777 H 0.71637 0.83624 0.90054
 H778 H 0.66342 0.78313 0.90043
 H779 H 0.66997 0.82979 0.83858
 H780 H 0.65052 0.84910 0.85668
 N781 N 0.18501 0.38000 0.83142
 N782 N 0.16905 0.37922 0.81475
 C783 C 0.17399 0.39584 0.79860
 C784 C 0.19394 0.40762 0.80572
 C785 C 0.20059 0.39716 0.82649
 H786 H 0.16466 0.39832 0.78226
 H787 H 0.21635 0.40079 0.83647
 Cu788 Cu 0.14493 0.35494 0.81466
 Cu789 Cu 0.18627 0.35679 0.85661
 Cu790 Cu 0.14309 0.31362 0.85670
 N791 N 0.12071 0.33077 0.81482
 N792 N 0.11991 0.31482 0.83155
 C793 C 0.10277 0.29922 0.82668
 C794 C 0.09234 0.30586 0.80590
 C795 C 0.10412 0.32581 0.79871
 H796 H 0.09913 0.28347 0.83671
 H797 H 0.10165 0.33512 0.78234
 N798 N 0.16807 0.31536 0.88062
 N799 N 0.18453 0.33178 0.88056
 C800 C 0.20037 0.32679 0.89742
 C801 C 0.19346 0.30640 0.90854
 C802 C 0.17303 0.29952 0.89752
 H803 H 0.21656 0.33632 0.90038
 H804 H 0.16346 0.28336 0.90057
 H805 H 0.17021 0.32975 0.83844
 H806 H 0.15084 0.34915 0.85652
 N807 N 0.18456 0.88031 0.33185
 N808 N 0.16766 0.88060 0.31612
 C809 C 0.17251 0.89723 0.29996
 C810 C 0.19342 0.90786 0.30606
 C811 C 0.20070 0.89673 0.32626
 H812 H 0.16238 0.90042 0.28423
 H813 H 0.21718 0.89940 0.33535
 Cu814 Cu 0.14226 0.85764 0.31645
 Cu815 Cu 0.18598 0.85683 0.35661
 Cu816 Cu 0.14297 0.81386 0.35664
 N817 N 0.11927 0.83226 0.31616
 N818 N 0.11952 0.81533 0.33190
 C819 C 0.10309 0.79921 0.32634
 C820 C 0.09199 0.80654 0.30614
 C821 C 0.10265 0.82745 0.30002
 H822 H 0.10039 0.78272 0.33544
 H823 H 0.09948 0.83762 0.28429
 N824 N 0.16812 0.81522 0.38030
 N825 N 0.18456 0.83164 0.38028
 C826 C 0.20052 0.82654 0.39701
 C827 C 0.19367 0.80606 0.40801
 C828 C 0.17319 0.79925 0.39704
 H829 H 0.21667 0.83613 0.40001
 H830 H 0.16357 0.78310 0.40009
 H831 H 0.16876 0.83111 0.33735
 H832 H 0.15041 0.84943 0.35764
 C833 C 0.23477 1.04960 0.26514
 C834 C 0.24998 1.06167 0.25013
 C835 C 0.26503 1.04961 0.23494
 C836 C 0.26506 1.02473 0.23460
 C837 C 0.24967 1.01225 0.24979
 C838 C 0.23444 1.02473 0.26514
 C839 C 0.21934 1.01203 0.28004
 C840 C 0.21918 0.98749 0.27987
 C841 C 0.23413 0.97478 0.26481
 C842 C 0.24952 0.98726 0.24962
 C843 C 0.28000 1.01202 0.21955
 C844 C 0.27987 0.98748 0.21941
 C845 C 0.26477 0.97477 0.23430
 C846 C 0.26447 0.94989 0.23434
 C847 C 0.24925 0.93783 0.24935
 C848 C 0.23417 0.94990 0.26451
 H849 H 0.20751 1.02098 0.29197
 H850 H 0.20722 0.97856 0.29167
 H851 H 0.29196 1.02097 0.20774
 H852 H 0.29173 0.97853 0.20750
 H853 H 0.25009 1.08079 0.25025
 H854 H 0.24917 0.91870 0.24927
 C855 C 0.26547 0.54993 0.73498
 C856 C 0.25034 0.56205 0.75007
 C857 C 0.23508 0.55001 0.76508
 C858 C 0.23482 0.52512 0.76519
 C859 C 0.25014 0.51261 0.74996
 C860 C 0.26555 0.52506 0.73477
 C861 C 0.28057 0.51233 0.71978
 C862 C 0.28044 0.48779 0.71971
 C863 C 0.26533 0.47512 0.73462
 C864 C 0.25005 0.48762 0.74990
 C865 C 0.21972 0.51243 0.78011
 C866 C 0.21965 0.48790 0.78008
 C867 C 0.23466 0.47517 0.76511
 C868 C 0.23476 0.45029 0.76489
 C869 C 0.24987 0.43820 0.74978
 C870 C 0.26506 0.45024 0.73472
 H871 H 0.29255 0.52125 0.70796
 H872 H 0.29233 0.47881 0.70786
 H873 H 0.20781 0.52140 0.79196
 H874 H 0.20767 0.47897 0.79189
 H875 H 0.25040 0.58118 0.75009
 H876 H 0.24980 0.41908 0.74975
 C877 C 0.76559 -0.05033 0.26555
 C878 C 0.75054 -0.06239 0.25043
 C879 C 0.73544 -0.05031 0.23530
 C880 C 0.73525 -0.02544 0.23508
 C881 C 0.75048 -0.01296 0.25036
 C882 C 0.76573 -0.02545 0.26568
 C883 C 0.78066 -0.01275 0.28068
 C884 C 0.78063 0.01179 0.28064
 C885 C 0.76567 0.02450 0.26560
 C886 C 0.75045 0.01203 0.25032
 C887 C 0.72029 -0.01272 0.22005
 C888 C 0.72026 0.01181 0.22000
 C889 C 0.73520 0.02451 0.23499
 C890 C 0.73535 0.04939 0.23511
 C891 C 0.75039 0.06145 0.25022
 C892 C 0.76547 0.04938 0.26537
 H893 H 0.79251 -0.02170 0.29259
 H894 H 0.79246 0.02074 0.29253
 H895 H 0.70845 -0.02166 0.20816
 H896 H 0.70841 0.02077 0.20809
 H897 H 0.75056 -0.08151 0.25045
 H898 H 0.75038 0.08057 0.25018
 C899 C 0.76511 0.44995 0.76528
 C900 C 0.75002 0.43793 0.75017
 C901 C 0.73493 0.45004 0.73507
 C902 C 0.73473 0.47492 0.73490
 C903 C 0.75000 0.48736 0.75016
 C904 C 0.76528 0.47483 0.76543
 C905 C 0.78028 0.48750 0.78040
 C906 C 0.78028 0.51203 0.78038
 C907 C 0.76528 0.52478 0.76541
 C908 C 0.75000 0.51235 0.75016
 C909 C 0.71973 0.48767 0.71993
 C910 C 0.71971 0.51221 0.71993
 C911 C 0.73471 0.52487 0.73490
 C912 C 0.73487 0.54975 0.73507
 C913 C 0.74999 0.56177 0.75015
 C914 C 0.76511 0.54966 0.76522
 H915 H 0.79216 0.47851 0.79226
 H916 H 0.79216 0.52095 0.79224
 H917 H 0.70785 0.47875 0.70807
 H918 H 0.70783 0.52119 0.70807
 H919 H 0.75003 0.41881 0.75017
 H920 H 0.74998 0.58089 0.75015
 C921 C 0.26480 0.45011 0.26523
 C922 C 0.24967 0.43811 0.25016
 C923 C 0.23463 0.45024 0.23502
 C924 C 0.23454 0.47512 0.23479
 C925 C 0.24986 0.48753 0.25002
 C926 C 0.26508 0.47499 0.26534
 C927 C 0.28011 0.48763 0.28028
 C928 C 0.28021 0.51216 0.28021
 C929 C 0.26529 0.52494 0.26518
 C930 C 0.24998 0.51252 0.24994
 C931 C 0.21961 0.48789 0.21977
 C932 C 0.21972 0.51243 0.21969
 C933 C 0.23477 0.52507 0.23462
 C934 C 0.23506 0.54995 0.23471
 C935 C 0.25021 0.56195 0.24977
 C936 C 0.26524 0.54981 0.26493
 H937 H 0.29193 0.47863 0.29219
 H938 H 0.29212 0.52106 0.29205
 H939 H 0.20770 0.47899 0.20793
 H940 H 0.20788 0.52143 0.20780
 H941 H 0.24962 0.41899 0.25019
 H942 H 0.25029 0.58107 0.24971
 C943 C 0.76455 0.95068 0.73512
 C944 C 0.74941 0.93859 0.75018
 C945 C 0.73436 0.95064 0.76538
 C946 C 0.73424 0.97551 0.76567
 C947 C 0.74955 0.98801 0.75043
 C948 C 0.76480 0.97556 0.73507
 C949 C 0.77982 0.98829 0.72012
 C950 C 0.77990 1.01282 0.72025
 C951 C 0.76495 1.02551 0.73532
 C952 C 0.74963 1.01301 0.75056
 C953 C 0.71929 0.98820 0.78075
 C954 C 0.71937 1.01273 0.78087
 C955 C 0.73439 1.02546 0.76592
 C956 C 0.73462 1.05034 0.76585
 C957 C 0.74978 1.06243 0.75079
 C958 C 0.76485 1.05038 0.73562
 H959 H 0.79167 0.97935 0.70819
 H960 H 0.79180 1.02178 0.70840
 H961 H 0.70739 0.97922 0.79260
 H962 H 0.70752 1.02166 0.79281
 H963 H 0.74935 0.91947 0.75009
 H964 H 0.74982 1.08155 0.75087
 C965 C 0.73475 0.45015 0.26492
 C966 C 0.74975 0.43809 0.24969
 C967 C 0.76488 0.45016 0.23460
 C968 C 0.76518 0.47503 0.23456
 C969 C 0.75000 0.48751 0.24997
 C970 C 0.73470 0.47503 0.26523
 C971 C 0.71982 0.48773 0.28036
 C972 C 0.71994 0.51227 0.28049
 C973 C 0.73494 0.52498 0.26551
 C974 C 0.75013 0.51250 0.25011
 C975 C 0.78020 0.48774 0.21959
 C976 C 0.78033 0.51227 0.21972
 C977 C 0.76543 0.52498 0.23484
 C978 C 0.76538 0.54986 0.23515
 C979 C 0.75036 0.56192 0.25036
 C980 C 0.73523 0.54986 0.26546
 H981 H 0.70793 0.47878 0.29223
 H982 H 0.70814 0.52122 0.29247
 H983 H 0.79200 0.47879 0.20762
 H984 H 0.79222 0.52123 0.20786
 H985 H 0.74966 0.41897 0.24959
 H986 H 0.75044 0.58104 0.25045
 C987 C 0.23526 0.04931 0.73525
 C988 C 0.25035 0.06139 0.75030
 C989 C 0.26552 0.04935 0.76538
 C990 C 0.26581 0.02447 0.76556
 C991 C 0.25056 0.01197 0.75032
 C992 C 0.23519 0.02443 0.73509
 C993 C 0.22021 0.01170 0.72016
 C994 C 0.22030 -0.01284 0.72019
 C995 C 0.23540 -0.02552 0.73512
 C996 C 0.25067 -0.01302 0.75033
 C997 C 0.28089 0.01178 0.78050
 C998 C 0.28102 -0.01275 0.78049
 C999 C 0.26606 -0.02548 0.76554
 C1000 C 0.26600 -0.05036 0.76536
 C1001 C 0.25090 -0.06244 0.75033
 C1002 C 0.23568 -0.05039 0.73531
 H1003 H 0.20826 0.02063 0.70833
 H1004 H 0.20841 -0.02181 0.70838
 H1005 H 0.29274 0.02076 0.79234
 H1006 H 0.29297 -0.02168 0.79232
 H1007 H 0.25027 0.08052 0.75029
 H1008 H 0.25098 -0.08157 0.75033
 C1009 C 0.26504 0.23479 0.95036
 C1010 C 0.24987 0.24997 0.93837
 C1011 C 0.23476 0.26515 0.95042
 C1012 C 0.23467 0.26534 0.97518
 C1013 C 0.25002 0.25001 0.98757
 C1014 C 0.26528 0.23465 0.97511
 C1015 C 0.28034 0.21960 0.98773
 C1016 C 0.28042 0.21962 1.01214
 C1017 C 0.26545 0.23470 1.02482
 C1018 C 0.25010 0.25003 1.01244
 C1019 C 0.21968 0.28040 0.98786
 C1020 C 0.21976 0.28042 1.01227
 C1021 C 0.23483 0.26539 1.02489
 C1022 C 0.23508 0.26525 1.04965
 C1023 C 0.25027 0.25008 1.06163
 C1024 C 0.26537 0.23489 1.04958
 H1025 H 0.29221 0.20765 0.97881
 H1026 H 0.29235 0.20769 1.02101
 H1027 H 0.20774 0.29232 0.97899
 H1028 H 0.20788 0.29236 1.02120
 H1029 H 0.24983 0.24996 0.91934
 H1030 H 0.25034 0.25009 1.08066
 C1031 C 0.23474 0.76523 0.54950
 C1032 C 0.24994 0.75012 0.56156
 C1033 C 0.26510 0.73493 0.54958
 C1034 C 0.26524 0.73469 0.52482
 C1035 C 0.24989 0.74996 0.51237
 C1036 C 0.23456 0.76531 0.52474
 C1037 C 0.21949 0.78030 0.51205
 C1038 C 0.21949 0.78023 0.48763
 C1039 C 0.23454 0.76517 0.47502
 C1040 C 0.24987 0.74988 0.48749
 C1041 C 0.28029 0.71962 0.51221
 C1042 C 0.28026 0.71953 0.48780
 C1043 C 0.26520 0.73452 0.47512
 C1044 C 0.26501 0.73460 0.45037
 C1045 C 0.24986 0.74972 0.43830
 C1046 C 0.23471 0.76493 0.45026
 H1047 H 0.20755 0.79223 0.52092
 H1048 H 0.20756 0.79210 0.47869
 H1049 H 0.29223 0.70775 0.52114
 H1050 H 0.29218 0.70759 0.47894
 H1051 H 0.24996 0.75019 0.58060
 H1052 H 0.24987 0.74966 0.41927
 C1053 C 0.26541 0.76548 -0.05016
 C1054 C 0.25023 0.75039 -0.06215
 C1055 C 0.23510 0.73525 -0.05009
 C1056 C 0.23499 0.73503 -0.02533
 C1057 C 0.25032 0.75029 -0.01295
 C1058 C 0.26561 0.76560 -0.02540
 C1059 C 0.28064 0.78058 -0.01278
 C1060 C 0.28069 0.78053 0.01164
 C1061 C 0.26570 0.76548 0.02432
 C1062 C 0.25037 0.75022 0.01193
 C1063 C 0.21999 0.71999 -0.01265
 C1064 C 0.22003 0.71994 0.01176
 C1065 C 0.23508 0.73491 0.02438
 C1066 C 0.23529 0.73501 0.04913
 C1067 C 0.25047 0.75009 0.06112
 C1068 C 0.26559 0.76525 0.04908
 H1069 H 0.29253 0.79251 -0.02169
 H1070 H 0.29260 0.79240 0.02051
 H1071 H 0.20807 0.70812 -0.02152
 H1072 H 0.20815 0.70802 0.02068
 H1073 H 0.25020 0.75043 -0.08118
 H1074 H 0.25050 0.75004 0.08015
 C1075 C 0.26513 0.26482 0.45056
 C1076 C 0.25003 0.24968 0.43854
 C1077 C 0.23488 0.23452 0.45055
 C1078 C 0.23469 0.23431 0.47531
 C1079 C 0.24996 0.24961 0.48773
 C1080 C 0.26525 0.26495 0.47532
 C1081 C 0.28022 0.27998 0.48797
 C1082 C 0.28019 0.27994 0.51238
 C1083 C 0.26520 0.26488 0.52503
 C1084 C 0.24993 0.24958 0.51261
 C1085 C 0.21969 0.21926 0.48796
 C1086 C 0.21966 0.21922 0.51238
 C1087 C 0.23464 0.23424 0.52503
 C1088 C 0.23477 0.23437 0.54979
 C1089 C 0.24988 0.24951 0.56181
 C1090 C 0.26501 0.26467 0.54979
 H1091 H 0.29211 0.29191 0.47907
 H1092 H 0.29205 0.29186 0.52128
 H1093 H 0.20782 0.20736 0.47907
 H1094 H 0.20777 0.20729 0.52128
 H1095 H 0.25006 0.24970 0.41951
 H1096 H 0.24986 0.24948 0.58084
 C1097 C 0.76492 0.73453 0.95035
 C1098 C 0.74970 0.74964 0.93834
 C1099 C 0.73459 0.76484 0.95036
 C1100 C 0.73450 0.76508 0.97512
 C1101 C 0.74989 0.74980 0.98753
 C1102 C 0.76519 0.73445 0.97511
 C1103 C 0.78031 0.71948 0.98775
 C1104 C 0.78042 0.71957 1.01216
 C1105 C 0.76540 0.73463 1.02482
 C1106 C 0.75000 0.74989 1.01241
 C1107 C 0.71949 0.78013 0.98778
 C1108 C 0.71959 0.78021 1.01219
 C1109 C 0.73471 0.76524 1.02484
 C1110 C 0.73498 0.76516 1.04959
 C1111 C 0.75021 0.75006 1.06160
 C1112 C 0.76534 0.73487 1.04957
 H1113 H 0.79221 0.70756 0.97885
 H1114 H 0.79240 0.70771 1.02105
 H1115 H 0.70751 0.79200 0.97889
 H1116 H 0.70769 0.79214 1.02110
 H1117 H 0.74963 0.74958 0.91931
 H1118 H 0.75030 0.75012 1.08063
 C1119 C 0.73497 0.26532 0.54957
 C1120 C 0.75016 0.25019 0.56160
 C1121 C 0.76528 0.23498 0.54958
 C1122 C 0.76539 0.23475 0.52483
 C1123 C 0.75003 0.25004 0.51240
 C1124 C 0.73473 0.26540 0.52481
 C1125 C 0.71965 0.28039 0.51215
 C1126 C 0.71958 0.28031 0.48774
 C1127 C 0.73460 0.26525 0.47510
 C1128 C 0.74996 0.24996 0.48752
 C1129 C 0.78041 0.21969 0.51218
 C1130 C 0.78035 0.21961 0.48777
 C1131 C 0.76526 0.23460 0.47511
 C1132 C 0.76502 0.23468 0.45035
 C1133 C 0.74982 0.24981 0.43833
 C1134 C 0.73470 0.26502 0.45034
 H1135 H 0.70774 0.29233 0.52104
 H1136 H 0.70762 0.29219 0.47884
 H1137 H 0.79237 0.20781 0.52109
 H1138 H 0.79225 0.20767 0.47888
 H1139 H 0.75020 0.25024 0.58062
 H1140 H 0.74977 0.24976 0.41930
 C1141 C 0.76520 0.26502 0.04927
 C1142 C 0.75018 0.24976 0.06131
 C1143 C 0.73512 0.23456 0.04931
 C1144 C 0.73492 0.23446 0.02455
 C1145 C 0.75010 0.24990 0.01211
 C1146 C 0.76531 0.26527 0.02451
 C1147 C 0.78019 0.28043 0.01183
 C1148 C 0.78014 0.28050 -0.01258
 C1149 C 0.76522 0.26541 -0.02521
 C1150 C 0.75005 0.24996 -0.01276
 C1151 C 0.72000 0.21937 0.01193
 C1152 C 0.71996 0.21943 -0.01249
 C1153 C 0.73484 0.23458 -0.02516
 C1154 C 0.73497 0.23481 -0.04992
 C1155 C 0.74997 0.25009 -0.06196
 C1156 C 0.76501 0.26531 -0.04996
 H1157 H 0.79201 0.29239 0.02071
 H1158 H 0.79193 0.29251 -0.02150
 H1159 H 0.70821 0.20736 0.02084
 H1160 H 0.70814 0.20746 -0.02136
 H1161 H 0.75021 0.24971 0.08034
 H1162 H 0.74993 0.25014 -0.08099
 C1163 C 0.76506 0.76546 0.45060
 C1164 C 0.75001 0.75025 0.43862
 C1165 C 0.73489 0.73510 0.45067
 C1166 C 0.73466 0.73498 0.47543
 C1167 C 0.74988 0.75036 0.48781
 C1168 C 0.76515 0.76569 0.47536
 C1169 C 0.78006 0.78080 0.48798
 C1170 C 0.78000 0.78085 0.51240
 C1171 C 0.76503 0.76580 0.52508
 C1172 C 0.74981 0.75042 0.51269
 C1173 C 0.71968 0.71994 0.48811
 C1174 C 0.71962 0.71999 0.51252
 C1175 C 0.73454 0.73509 0.52514
 C1176 C 0.73464 0.73530 0.54990
 C1177 C 0.74970 0.75050 0.56189
 C1178 C 0.76482 0.76566 0.54984
 H1179 H 0.79192 0.79274 0.47906
 H1180 H 0.79182 0.79282 0.52127
 H1181 H 0.70785 0.70797 0.47924
 H1182 H 0.70775 0.70806 0.52144
 H1183 H 0.75006 0.75020 0.41959
 H1184 H 0.74967 0.75052 0.58092
 C1185 C 1.04997 0.23528 0.26513
 C1186 C 1.06200 0.25046 0.25004
 C1187 C 1.04988 0.26553 0.23490
 C1188 C 1.02500 0.26559 0.23468
 C1189 C 1.01257 0.25024 0.24995
 C1190 C 1.02510 0.23500 0.26526
 C1191 C 1.01243 0.21994 0.28024
 C1192 C 0.98790 0.21984 0.28020
 C1193 C 0.97515 0.23477 0.26517
 C1194 C 0.98758 0.25012 0.24990
 C1195 C 1.01225 0.28053 0.21965
 C1196 C 0.98772 0.28040 0.21959
 C1197 C 0.97506 0.26534 0.23457
 C1198 C 0.95019 0.26505 0.23469
 C1199 C 0.93816 0.24989 0.24979
 C1200 C 0.95027 0.23483 0.26494
 H1201 H 1.02142 0.20810 0.29215
 H1202 H 0.97898 0.20791 0.29207
 H1203 H 1.02116 0.29245 0.20778
 H1204 H 0.97873 0.29224 0.20768
 H1205 H 1.08112 0.25054 0.25006
 H1206 H 0.91904 0.24981 0.24975
 C1207 C 0.54997 0.23464 0.76511
 C1208 C 0.56201 0.24980 0.75003
 C1209 C 0.54992 0.26492 0.73493
 C1210 C 0.52505 0.26506 0.73474
 C1211 C 0.51259 0.24974 0.75001
 C1212 C 0.52509 0.23444 0.76528
 C1213 C 0.51241 0.21941 0.78026
 C1214 C 0.48788 0.21939 0.78026
 C1215 C 0.47515 0.23440 0.76528
 C1216 C 0.48760 0.24971 0.75000
 C1217 C 0.51232 0.28006 0.71974
 C1218 C 0.48778 0.28003 0.71973
 C1219 C 0.47510 0.26500 0.73472
 C1220 C 0.45023 0.26480 0.73489
 C1221 C 0.43818 0.24967 0.75001
 C1222 C 0.45027 0.23455 0.76511
 H1223 H 0.52138 0.20752 0.79213
 H1224 H 0.47895 0.20748 0.79213
 H1225 H 0.52125 0.29197 0.70787
 H1226 H 0.47881 0.29191 0.70786
 H1227 H 0.58113 0.24983 0.75004
 H1228 H 0.41906 0.24966 0.75001
 C1229 C -0.04993 0.23517 0.73486
 C1230 C -0.06203 0.25040 0.74984
 C1231 C -0.04999 0.26552 0.76490
 C1232 C -0.02511 0.26559 0.76516
 C1233 C -0.01260 0.25020 0.74999
 C1234 C -0.02505 0.23490 0.73476
 C1235 C -0.01232 0.21980 0.71989
 C1236 C 0.01222 0.21970 0.71996
 C1237 C 0.02489 0.23471 0.73491
 C1238 C 0.01238 0.25010 0.75007
 C1239 C -0.01244 0.28058 0.78011
 C1240 C 0.01210 0.28049 0.78019
 C1241 C 0.02483 0.26539 0.76531
 C1242 C 0.04971 0.26511 0.76520
 C1243 C 0.06180 0.24991 0.75020
 C1244 C 0.04977 0.23479 0.73514
 H1245 H -0.02124 0.20790 0.70806
 H1246 H 0.02119 0.20774 0.70818
 H1247 H -0.02141 0.29254 0.79190
 H1248 H 0.02103 0.29237 0.79203
 H1249 H -0.08115 0.25047 0.74978
 H1250 H 0.08093 0.24985 0.75024
 C1251 C 0.55002 0.23452 0.23483
 C1252 C 0.56206 0.24960 0.24993
 C1253 C 0.54997 0.26471 0.26503
 C1254 C 0.52509 0.26492 0.26520
 C1255 C 0.51264 0.24968 0.24992
 C1256 C 0.52515 0.23439 0.23465
 C1257 C 0.51246 0.21944 0.21966
 C1258 C 0.48793 0.21949 0.21964
 C1259 C 0.47520 0.23449 0.23462
 C1260 C 0.48765 0.24972 0.24991
 C1261 C 0.51236 0.27992 0.28019
 C1262 C 0.48782 0.27996 0.28018
 C1263 C 0.47514 0.26500 0.26519
 C1264 C 0.45027 0.26487 0.26500
 C1265 C 0.43823 0.24982 0.24988
 C1266 C 0.45032 0.23471 0.23477
 H1267 H 0.52143 0.20755 0.20780
 H1268 H 0.47899 0.20765 0.20776
 H1269 H 0.52129 0.29177 0.29206
 H1270 H 0.47885 0.29183 0.29206
 H1271 H 0.58118 0.24957 0.24994
 H1272 H 0.41911 0.24985 0.24987
 C1273 C 1.04973 0.73506 0.76500
 C1274 C 1.06177 0.75024 0.74993
 C1275 C 1.04967 0.76539 0.73485
 C1276 C 1.02480 0.76553 0.73466
 C1277 C 1.01235 0.75016 0.74988
 C1278 C 1.02486 0.73484 0.76513
 C1279 C 1.01218 0.71975 0.78006
 C1280 C 0.98765 0.71970 0.78004
 C1281 C 0.97491 0.73474 0.76509
 C1282 C 0.98736 0.75011 0.74986
 C1283 C 1.01207 0.78058 0.71971
 C1284 C 0.98753 0.78054 0.71970
 C1285 C 0.97485 0.76545 0.73462
 C1286 C 0.94997 0.76522 0.73478
 C1287 C 0.93794 0.75003 0.74984
 C1288 C 0.95003 0.73487 0.76491
 H1289 H 1.02115 0.70783 0.79190
 H1290 H 0.97872 0.70775 0.79187
 H1291 H 1.02099 0.79254 0.70789
 H1292 H 0.97855 0.79246 0.70786
 H1293 H 1.08089 0.75028 0.74996
 H1294 H 0.91882 0.75000 0.74984
 C1295 C 0.54996 0.73511 0.26538
 C1296 C 0.56199 0.75027 0.25029
 C1297 C 0.54989 0.76531 0.23511
 C1298 C 0.52502 0.76534 0.23483
 C1299 C 0.51257 0.75000 0.25010
 C1300 C 0.52508 0.73481 0.26546
 C1301 C 0.51241 0.71976 0.28044
 C1302 C 0.48788 0.71961 0.28034
 C1303 C 0.47514 0.73451 0.26526
 C1304 C 0.48758 0.74986 0.25000
 C1305 C 0.51227 0.78025 0.21976
 C1306 C 0.48774 0.78012 0.21967
 C1307 C 0.47506 0.76507 0.23465
 C1308 C 0.45019 0.76477 0.23475
 C1309 C 0.43816 0.74958 0.24982
 C1310 C 0.45026 0.73454 0.26500
 H1311 H 0.52139 0.70796 0.29239
 H1312 H 0.47896 0.70770 0.29221
 H1313 H 0.52120 0.79216 0.20789
 H1314 H 0.47876 0.79194 0.20774
 H1315 H 0.58111 0.75036 0.25035
 H1316 H 0.41904 0.74949 0.24976
 C1317 C -0.04963 0.73518 0.23489
 C1318 C -0.06174 0.75024 0.25003
 C1319 C -0.04972 0.76540 0.26505
 C1320 C -0.02485 0.76570 0.26511
 C1321 C -0.01232 0.75048 0.24980
 C1322 C -0.02475 0.73513 0.23461
 C1323 C -0.01199 0.72019 0.21959
 C1324 C 0.01255 0.72030 0.21949
 C1325 C 0.02521 0.73537 0.23439
 C1326 C 0.01267 0.75061 0.24969
 C1327 C -0.01220 0.78076 0.28003
 C1328 C 0.01234 0.78088 0.27991
 C1329 C 0.02510 0.76595 0.26489
 C1330 C 0.04998 0.76589 0.26463
 C1331 C 0.06211 0.75082 0.24950
 C1332 C 0.05009 0.73564 0.23447
 H1333 H -0.02090 0.70826 0.20778
 H1334 H 0.02154 0.70846 0.20761
 H1335 H -0.02119 0.79259 0.29193
 H1336 H 0.02124 0.79281 0.29173
 H1337 H -0.08086 0.75016 0.25011
 H1338 H 0.08123 0.75088 0.24944
 C1339 C 0.44968 0.73525 0.73534
 C1340 C 0.43759 0.75044 0.75036
 C1341 C 0.44965 0.76561 0.76536
 C1342 C 0.47453 0.76573 0.76555
 C1343 C 0.48702 0.75034 0.75037
 C1344 C 0.47455 0.73501 0.73519
 C1345 C 0.48726 0.71992 0.72027
 C1346 C 0.51179 0.71990 0.72024
 C1347 C 0.52449 0.73494 0.73515
 C1348 C 0.51201 0.75029 0.75037
 C1349 C 0.48724 0.78076 0.78045
 C1350 C 0.51178 0.78069 0.78048
 C1351 C 0.52449 0.76560 0.76557
 C1352 C 0.54936 0.76536 0.76539
 C1353 C 0.56143 0.75019 0.75034
 C1354 C 0.54937 0.73507 0.73529
 H1355 H 0.47832 0.70800 0.70846
 H1356 H 0.52075 0.70796 0.70844
 H1357 H 0.47829 0.79273 0.79225
 H1358 H 0.52073 0.79260 0.79228
 H1359 H 0.41846 0.75049 0.75034
 H1360 H 0.58055 0.75015 0.75032
 C1361 C 0.42361 0.29186 0.29205
 C1362 C 0.43625 0.27985 0.28000
 C1363 C 0.42316 0.79290 0.79228
 C1364 C 0.43569 0.78073 0.78026
 C1365 C -0.07662 0.29269 0.79179
 C1366 C -0.06399 0.28060 0.77980
 C1367 C -0.07638 0.79238 0.29213
 C1368 C -0.06374 0.78035 0.28007
 C1369 C 0.57655 0.70813 0.29253
 C1370 C 0.56395 0.72016 0.28043
 C1371 C 0.57656 0.20755 0.79214
 C1372 C 0.56396 0.21962 0.78009
 C1373 C 1.07626 0.70797 0.79213
 C1374 C 1.06371 0.72005 0.78001
 C1375 C 1.07658 0.20823 0.29217
 C1376 C 1.06398 0.22029 0.28012
 C1377 C 0.57649 0.29202 0.70793
 C1378 C 0.56388 0.27995 0.71995
 C1379 C 0.57645 0.79240 0.20808
 C1380 C 0.56385 0.78034 0.22013
 C1381 C 1.07628 0.29268 0.20774
 C1382 C 1.06379 0.28058 0.21987
 C1383 C 1.07627 0.79248 0.70790
 C1384 C 1.06363 0.78043 0.71990
 C1385 C 0.42335 0.70816 0.70818
 C1386 C 0.43578 0.72025 0.72032
 C1387 C 0.42375 0.20776 0.20776
 C1388 C 0.43636 0.21976 0.21978
 C1389 C -0.07623 0.70812 0.20798
 C1390 C -0.06359 0.72015 0.21996
 C1391 C -0.07643 0.20808 0.70792
 C1392 C -0.06387 0.22015 0.71993
 C1393 C 0.29180 0.42343 0.29225
 C1394 C 0.27977 0.43608 0.28022
 C1395 C 0.29323 -0.07687 0.79233
 C1396 C 0.28110 -0.06431 0.78030
 C1397 C 0.79213 0.42330 0.79233
 C1398 C 0.78009 0.43593 0.78028
 C1399 C 0.79258 -0.07695 0.29267
 C1400 C 0.78055 -0.06433 0.28059
 C1401 C 0.29272 0.57623 0.70783
 C1402 C 0.28056 0.56380 0.71997
 C1403 C 0.29213 1.07628 0.20800
 C1404 C 0.28008 1.06361 0.22000
 C1405 C 0.79243 0.57644 0.20810
 C1406 C 0.78039 0.56383 0.22015
 C1407 C 0.79194 1.07690 0.70854
 C1408 C 0.77987 1.06436 0.72063
 C1409 C 0.70826 0.57648 0.29259
 C1410 C 0.72028 0.56385 0.28052
 C1411 C 0.70755 1.07688 0.79296
 C1412 C 0.71962 1.06429 0.78088
 C1413 C 0.20790 0.57652 0.79211
 C1414 C 0.22001 0.56398 0.78004
 C1415 C 0.20778 1.07617 0.29229
 C1416 C 0.21981 1.06358 0.28019
 C1417 C 0.70797 0.42351 0.70803
 C1418 C 0.71997 0.43611 0.72007
 C1419 C 0.70842 -0.07681 0.20828
 C1420 C 0.72047 -0.06426 0.22033
 C1421 C 0.20759 0.42388 0.20784
 C1422 C 0.21964 0.43634 0.21998
 C1423 C 0.20866 -0.07698 0.70840
 C1424 C 0.22070 -0.06438 0.72040
 C1425 C 0.29240 0.29213 0.42443
 C1426 C 0.28020 0.27991 0.43673
 C1427 C 0.29275 0.79268 -0.07634
 C1428 C 0.28052 0.78052 -0.06401
 C1429 C 0.79204 0.29274 -0.07621
 C1430 C 0.77995 0.28049 -0.06383
 C1431 C 0.79226 0.79269 0.42432
 C1432 C 0.78011 0.78053 0.43672
 C1433 C 0.70771 0.29265 0.57571
 C1434 C 0.71990 0.28043 0.56339
 C1435 C 0.70776 0.79244 1.07583
 C1436 C 0.71992 0.78025 1.06345
 C1437 C 0.20791 0.29255 1.07591
 C1438 C 0.22006 0.28035 1.06353
 C1439 C 0.20748 0.79256 0.57564
 C1440 C 0.21965 0.78034 0.56330
 C1441 C 0.29243 0.70772 0.57577
 C1442 C 0.28021 0.71989 0.56342
 C1443 C 0.29265 0.20756 1.07569
 C1444 C 0.28046 0.21978 1.06337
 C1445 C 0.79266 0.70764 1.07576
 C1446 C 0.78046 0.71981 1.06340
 C1447 C 0.79253 0.20770 0.57579
 C1448 C 0.78035 0.21990 0.56343
 C1449 C 0.70775 0.70781 0.42453
 C1450 C 0.71989 0.71999 0.43686
 C1451 C 0.70788 0.20746 -0.07604
 C1452 C 0.72000 0.21968 -0.06373
 C1453 C 0.20782 0.70800 -0.07613
 C1454 C 0.22002 0.72019 -0.06387
 C1455 C 0.20764 0.20736 0.42437
 C1456 C 0.21982 0.21949 0.43671
 C1457 C 0.29202 0.42358 0.70763
 C1458 C 0.28002 0.43623 0.71969
 C1459 C 0.29169 0.92338 0.20735
 C1460 C 0.27954 0.93593 0.21937
 C1461 C 0.79180 0.42353 0.20747
 C1462 C 0.77981 0.43617 0.21953
 C1463 C 0.79157 0.92410 0.70802
 C1464 C 0.77953 0.93672 0.72008
 C1465 C 0.70779 0.57643 0.70809
 C1466 C 0.71985 0.56378 0.72011
 C1467 C 0.70836 0.07595 0.20795
 C1468 C 0.72039 0.06336 0.22005
 C1469 C 0.20810 0.57660 0.20760
 C1470 C 0.22012 0.56398 0.21968
 C1471 C 0.20808 0.07587 0.70827
 C1472 C 0.22018 0.06327 0.72029
 C1473 C 0.29228 0.57621 0.29202
 C1474 C 0.28024 0.56370 0.27993
 C1475 C 0.29244 0.07594 0.79240
 C1476 C 0.28045 0.06334 0.78036
 C1477 C 0.79219 0.57615 0.79220
 C1478 C 0.78013 0.56359 0.78017
 C1479 C 0.79240 0.07602 0.29233
 C1480 C 0.78041 0.06337 0.28034
 C1481 C 0.70772 0.42355 0.29196
 C1482 C 0.71976 0.43617 0.27992
 C1483 C 0.70738 0.92398 0.79241
 C1484 C 0.71939 0.93663 0.78038
 C1485 C 0.20769 0.42371 0.79193
 C1486 C 0.21973 0.43633 0.77989
 C1487 C 0.20715 0.92357 0.29184
 C1488 C 0.21918 0.93599 0.27958
 C1489 C 0.42361 0.29181 0.70782
 C1490 C 0.43623 0.27978 0.71988
 C1491 C 0.42356 0.79179 0.20768
 C1492 C 0.43618 0.77975 0.21973
 C1493 C 0.92354 0.29198 0.20757
 C1494 C 0.93617 0.27998 0.21965
 C1495 C 0.92332 0.79235 0.70783
 C1496 C 0.93596 0.78027 0.71983
 C1497 C 0.57652 0.29175 0.29199
 C1498 C 0.56392 0.27970 0.27999
 C1499 C 0.57598 0.79235 0.79234
 C1500 C 0.56334 0.78034 0.78034
 C1501 C 0.07628 0.29211 0.79217
 C1502 C 0.06367 0.28010 0.78016
 C1503 C 0.07628 0.79285 0.29195
 C1504 C 0.06387 0.78085 0.27970
 C1505 C 0.57596 0.70804 0.70821
 C1506 C 0.56335 0.72008 0.72028
 C1507 C 0.57665 0.20751 0.20776
 C1508 C 0.56403 0.21954 0.21982
 C1509 C 0.07665 0.70850 0.20745
 C1510 C 0.06408 0.72061 0.21950
 C1511 C 0.07636 0.20759 0.70823
 C1512 C 0.06376 0.21971 0.72024
 C1513 C 0.42376 0.70743 0.29208
 C1514 C 0.43633 0.71950 0.28000
 C1515 C 0.42373 0.20749 0.79219
 C1516 C 0.43632 0.21954 0.78012
 C1517 C 0.92350 0.70776 0.79195
 C1518 C 0.93608 0.71983 0.77989
 C1519 C 0.92369 0.20775 0.29197
 C1520 C 0.93632 0.21980 0.27993
 C1521 C 0.29221 0.29187 0.57597
 C1522 C 0.28006 0.27971 0.56363
 C1523 C 0.29282 0.79246 0.07520
 C1524 C 0.28065 0.78029 0.06289
 C1525 C 0.79235 0.29229 0.07543
 C1526 C 0.78021 0.28011 0.06309
 C1527 C 0.79200 0.79294 0.57596
 C1528 C 0.77984 0.78075 0.56364
 C1529 C 0.29225 0.70733 0.42417
 C1530 C 0.28009 0.71950 0.43656
 C1531 C 0.29224 0.20743 0.92418
 C1532 C 0.28007 0.21966 0.93650
 C1533 C 0.79222 0.70726 0.92420
 C1534 C 0.78000 0.71945 0.93652
 C1535 C 0.79227 0.20740 0.42416
 C1536 C 0.78008 0.21958 0.43651
 C1537 C 0.70742 0.29232 0.42419
 C1538 C 0.71962 0.28011 0.43651
 C1539 C 0.70734 0.79216 0.92419
 C1540 C 0.71951 0.77994 0.93653
 C1541 C 0.20744 0.29241 0.92425
 C1542 C 0.21964 0.28023 0.93661
 C1543 C 0.20757 0.79212 0.42384
 C1544 C 0.21968 0.77998 0.43632
 C1545 C 0.70742 0.70804 0.57613
 C1546 C 0.71959 0.72023 0.56377
 C1547 C 0.70802 0.20720 0.07556
 C1548 C 0.72015 0.21942 0.06318
 C1549 C 0.20796 0.70782 0.07531
 C1550 C 0.22019 0.71998 0.06298
 C1551 C 0.20754 0.20708 0.57598
 C1552 C 0.21972 0.21928 0.56363
   
