data_POSCAR
  _audit_creation_date              2014-09-24
  _audit_creation_method            'ToBaCCo'
  _symmetry_space_group_name_H-M    'P1'
  _symmetry_Int_Tables_number       1
  _symmetry_cell_setting            triclinic
  loop_
  _symmetry_equiv_pos_as_xyz
 x,y,z
_cell_length_a 51.1617
_cell_length_b 50.9222
_cell_length_c 50.7426
_cell_angle_alpha 90.023900
_cell_angle_beta 90.003900
_cell_angle_gamma 89.950700
loop_
  _atom_site_label
  _atom_site_type_symbol
  _atom_site_fract_x
  _atom_site_fract_y
  _atom_site_fract_z
C1 C 0.21561 0.94701 -0.02301
 C2 C 0.21607 0.93357 0.00098
 C3 C 0.21509 0.94704 0.02492
 C4 C 0.21349 0.97474 0.02519
 C5 C 0.21284 0.98866 0.00098
 C6 C 0.21376 0.97475 -0.02326
 C7 C 0.21324 0.98896 -0.04702
 C8 C 0.21228 1.01627 -0.04699
 C9 C 0.21190 1.03049 -0.02319
 C10 C 0.21198 1.01655 0.00102
 C11 C 0.21296 0.98888 0.04898
 C12 C 0.21228 1.01620 0.04903
 C13 C 0.21200 1.03047 0.02527
 C14 C 0.21223 1.05827 0.02505
 C15 C 0.21201 1.07177 0.00108
 C16 C 0.21194 1.05828 -0.02292
 H17 H 0.21370 0.97905 -0.06590
 H18 H 0.21206 1.02618 -0.06586
 H19 H 0.21329 0.97891 0.06782
 H20 H 0.21210 1.02610 0.06792
 H21 H 0.21787 0.91231 0.00108
 H22 H 0.21272 1.09311 0.00108
 C23 C 0.71487 0.44684 0.52563
 C24 C 0.71573 0.43323 0.50175
 C25 C 0.71509 0.44654 0.47772
 C26 C 0.71324 0.47422 0.47727
 C27 C 0.71238 0.48827 0.50140
 C28 C 0.71318 0.47454 0.52571
 C29 C 0.71271 0.48887 0.54940
 C30 C 0.71193 0.51621 0.54920
 C31 C 0.71152 0.53022 0.52532
 C32 C 0.71147 0.51614 0.50120
 C33 C 0.71268 0.48821 0.45339
 C34 C 0.71173 0.51554 0.45321
 C35 C 0.71135 0.52989 0.47689
 C36 C 0.71138 0.55764 0.47695
 C37 C 0.71145 0.57131 0.50082
 C38 C 0.71168 0.55797 0.52487
 H39 H 0.71317 0.47905 0.56831
 H40 H 0.71180 0.52629 0.56799
 H41 H 0.71312 0.47813 0.43461
 H42 H 0.71149 0.52534 0.43428
 H43 H 0.71759 0.41199 0.50188
 H44 H 0.71218 0.59261 0.50068
 C45 C 0.78407 1.02474 0.94763
 C46 C 0.78243 1.00090 0.93415
 C47 C 0.78347 0.97701 0.94754
 C48 C 0.78633 0.97664 0.97521
 C49 C 0.78824 1.00073 0.98915
 C50 C 0.78719 1.02493 0.97529
 C51 C 0.78890 1.04858 0.98949
 C52 C 0.79130 1.04849 1.01684
 C53 C 0.79198 1.02475 1.03099
 C54 C 0.79054 1.00064 1.01703
 C55 C 0.78693 0.95290 0.98932
 C56 C 0.78896 0.95280 1.01668
 C57 C 0.79064 0.97645 1.03095
 C58 C 0.79198 0.97666 1.05881
 C59 C 0.79366 1.00054 1.07227
 C60 C 0.79360 1.02443 1.05878
 H61 H 0.78829 1.06737 0.97954
 H62 H 0.79243 1.06722 1.02684
 H63 H 0.78560 0.93416 0.97931
 H64 H 0.78909 0.93399 1.02658
 H65 H 0.77969 1.00095 0.91292
 H66 H 0.79422 1.00061 1.09368
 C67 C 0.28023 0.52462 0.44728
 C68 C 0.27840 0.50066 0.43402
 C69 C 0.27953 0.47687 0.44760
 C70 C 0.28268 0.47676 0.47526
 C71 C 0.28471 0.50098 0.48897
 C72 C 0.28355 0.52506 0.47492
 C73 C 0.28538 0.54883 0.48891
 C74 C 0.28801 0.54898 0.51625
 C75 C 0.28886 0.52537 0.53059
 C76 C 0.28731 0.50114 0.51681
 C77 C 0.28347 0.45315 0.48958
 C78 C 0.28584 0.45331 0.51691
 C79 C 0.28765 0.47708 0.53091
 C80 C 0.28934 0.47750 0.55869
 C81 C 0.29107 0.50143 0.57200
 C82 C 0.29076 0.52525 0.55838
 H83 H 0.28466 0.56754 0.47881
 H84 H 0.28922 0.56780 0.52610
 H85 H 0.28205 0.43432 0.47976
 H86 H 0.28614 0.43460 0.52701
 H87 H 0.27553 0.50055 0.41282
 H88 H 0.29187 0.50154 0.59339
 C89 C 0.94447 0.22474 -0.02375
 C90 C 0.93121 0.22478 0.00032
 C91 C 0.94479 0.22429 0.02416
 C92 C 0.97239 0.22364 0.02425
 C93 C 0.98612 0.22338 -0.00004
 C94 C 0.97213 0.22386 -0.02419
 C95 C 0.98617 0.22371 -0.04804
 C96 C 1.01339 0.22327 -0.04816
 C97 C 1.02766 0.22309 -0.02444
 C98 C 1.01389 0.22310 -0.00015
 C99 C 0.98659 0.22352 0.04797
 C100 C 1.01379 0.22337 0.04787
 C101 C 1.02785 0.22326 0.02404
 C102 C 1.05550 0.22355 0.02367
 C103 C 1.06883 0.22332 -0.00035
 C104 C 1.05532 0.22315 -0.02427
 H105 H 0.97619 0.22396 -0.06686
 H106 H 1.02318 0.22318 -0.06707
 H107 H 0.97677 0.22366 0.06688
 H108 H 1.02373 0.22337 0.06671
 H109 H 0.90999 0.22570 0.00056
 H110 H 1.09008 0.22372 -0.00042
 C111 C 0.44485 0.72378 0.52476
 C112 C 0.43116 0.72415 0.50096
 C113 C 0.44431 0.72403 0.47685
 C114 C 0.47191 0.72321 0.47624
 C115 C 0.48604 0.72285 0.50029
 C116 C 0.47247 0.72318 0.52468
 C117 C 0.48686 0.72321 0.54829
 C118 C 0.51407 0.72313 0.54796
 C119 C 0.52790 0.72293 0.52400
 C120 C 0.51378 0.72264 0.49995
 C121 C 0.48574 0.72303 0.45228
 C122 C 0.51297 0.72267 0.45195
 C123 C 0.52736 0.72259 0.47556
 C124 C 0.55499 0.72273 0.47551
 C125 C 0.56866 0.72302 0.49933
 C126 C 0.55550 0.72328 0.52342
 H127 H 0.47717 0.72343 0.56726
 H128 H 0.52420 0.72325 0.56669
 H129 H 0.47560 0.72321 0.43355
 H130 H 0.52267 0.72258 0.43298
 H131 H 0.40996 0.72507 0.50122
 H132 H 0.58988 0.72350 0.49910
 C133 C 0.02315 0.77874 -0.05671
 C134 C -0.00067 0.77798 -0.07018
 C135 C -0.02442 0.77789 -0.05657
 C136 C -0.02461 0.77874 -0.02869
 C137 C -0.00055 0.77962 -0.01479
 C138 C 0.02346 0.77968 -0.02882
 C139 C 0.04706 0.78035 -0.01457
 C140 C 0.04710 0.78067 0.01286
 C141 C 0.02355 0.78027 0.02714
 C142 C -0.00050 0.77983 0.01322
 C143 C -0.04816 0.77837 -0.01435
 C144 C -0.04809 0.77844 0.01307
 C145 C -0.02448 0.77897 0.02727
 C146 C -0.02412 0.77829 0.05515
 C147 C -0.00030 0.77896 0.06860
 C148 C 0.02339 0.77991 0.05498
 H149 H 0.06576 0.78051 -0.02456
 H150 H 0.06582 0.78107 0.02281
 H151 H -0.06690 0.77785 -0.02424
 H152 H -0.06678 0.77798 0.02308
 H153 H -0.00072 0.77689 -0.09157
 H154 H -0.00011 0.77810 0.08999
 C155 C 0.52396 0.27958 0.55543
 C156 C 0.50035 0.27859 0.56919
 C157 C 0.47648 0.27788 0.55587
 C158 C 0.47592 0.27851 0.52806
 C159 C 0.49977 0.27944 0.51385
 C160 C 0.52394 0.27995 0.52758
 C161 C 0.54736 0.28042 0.51309
 C162 C 0.54707 0.28011 0.48564
 C163 C 0.52334 0.27937 0.47165
 C164 C 0.49947 0.27921 0.48587
 C165 C 0.45219 0.27785 0.51409
 C166 C 0.45189 0.27774 0.48666
 C167 C 0.47532 0.27821 0.47217
 C168 C 0.47527 0.27734 0.44434
 C169 C 0.49889 0.27752 0.43054
 C170 C 0.52279 0.27842 0.44381
 H171 H 0.56616 0.28087 0.52289
 H172 H 0.56567 0.28034 0.47545
 H173 H 0.43360 0.27732 0.52428
 H174 H 0.43309 0.27710 0.47690
 H175 H 0.50057 0.27772 0.59056
 H176 H 0.49867 0.27639 0.40917
 C177 C 0.94443 -0.02427 0.22436
 C178 C 0.93123 -0.00029 0.22536
 C179 C 0.94486 0.02344 0.22513
 C180 C 0.97244 0.02346 0.22386
 C181 C 0.98607 -0.00078 0.22259
 C182 C 0.97200 -0.02479 0.22277
 C183 C 0.98588 -0.04861 0.22161
 C184 C 1.01307 -0.04886 0.22043
 C185 C 1.02740 -0.02530 0.22052
 C186 C 1.01380 -0.00104 0.22160
 C187 C 0.98675 0.04702 0.22410
 C188 C 1.01395 0.04678 0.22334
 C189 C 1.02789 0.02295 0.22217
 C190 C 1.05555 0.02239 0.22184
 C191 C 1.06870 -0.00164 0.22050
 C192 C 1.05501 -0.02534 0.21987
 H193 H 0.97580 -0.06730 0.22164
 H194 H 1.02278 -0.06774 0.21957
 H195 H 0.97703 0.06589 0.22504
 H196 H 1.02399 0.06548 0.22369
 H197 H 0.91006 -0.00010 0.22676
 H198 H 1.08994 -0.00197 0.22047
 C199 C 0.44349 0.47629 0.72650
 C200 C 0.43044 0.50038 0.72703
 C201 C 0.44423 0.52403 0.72667
 C202 C 0.47183 0.52381 0.72572
 C203 C 0.48529 0.49944 0.72489
 C204 C 0.47107 0.47555 0.72522
 C205 C 0.48480 0.45161 0.72451
 C206 C 0.51201 0.45114 0.72359
 C207 C 0.52650 0.47460 0.72351
 C208 C 0.51303 0.49896 0.72417
 C209 C 0.48633 0.54726 0.72584
 C210 C 0.51353 0.54679 0.72535
 C211 C 0.52726 0.52286 0.72456
 C212 C 0.55486 0.52213 0.72443
 C213 C 0.56792 0.49806 0.72350
 C214 C 0.55413 0.47440 0.72306
 H215 H 0.47459 0.43299 0.72467
 H216 H 0.52162 0.43220 0.72308
 H217 H 0.47673 0.56621 0.72647
 H218 H 0.52374 0.56541 0.72559
 H219 H 0.40925 0.50073 0.72819
 H220 H 0.58914 0.49772 0.72359
 C221 C 1.02306 0.94347 0.76960
 C222 C 0.99913 0.93029 0.76959
 C223 C 0.97553 0.94404 0.76916
 C224 C 0.97555 0.97177 0.76883
 C225 C 0.99971 0.98544 0.76891
 C226 C 1.02361 0.97126 0.76941
 C227 C 1.04734 0.98523 0.76939
 C228 C 1.04759 1.01255 0.76853
 C229 C 1.02414 1.02699 0.76759
 C230 C 0.99997 1.01332 0.76794
 C231 C 0.95209 0.98615 0.76809
 C232 C 0.95233 1.01346 0.76709
 C233 C 0.97605 1.02745 0.76682
 C234 C 0.97657 1.05517 0.76517
 C235 C 1.00047 1.06840 0.76488
 C236 C 1.02413 1.05473 0.76602
 H237 H 1.06595 0.97510 0.76994
 H238 H 1.06639 1.02230 0.76846
 H239 H 0.93331 0.97636 0.76813
 H240 H 0.93371 1.02356 0.76639
 H241 H 0.99882 0.90895 0.76935
 H242 H 1.00068 1.08970 0.76331
 C243 C 0.47698 0.55431 0.26611
 C244 C 0.50102 0.56724 0.26570
 C245 C 0.52447 0.55329 0.26701
 C246 C 0.52413 0.52561 0.26891
 C247 C 0.49979 0.51226 0.26937
 C248 C 0.47608 0.52666 0.26804
 C249 C 0.45218 0.51304 0.26835
 C250 C 0.45157 0.48573 0.26960
 C251 C 0.47484 0.47106 0.27059
 C252 C 0.49917 0.48443 0.27063
 C253 C 0.54740 0.51095 0.27003
 C254 C 0.54679 0.48362 0.27119
 C255 C 0.52289 0.46999 0.27133
 C256 C 0.52201 0.44228 0.27177
 C257 C 0.49798 0.42934 0.27181
 C258 C 0.47451 0.44333 0.27117
 H259 H 0.43372 0.52341 0.26747
 H260 H 0.43267 0.47619 0.26962
 H261 H 0.56630 0.52049 0.26987
 H262 H 0.56526 0.47324 0.27188
 H263 H 0.50148 0.58848 0.26386
 H264 H 0.49753 0.40802 0.27174
 O265 O 0.24560 0.18146 0.21621
 O266 O 0.27660 0.17530 0.25313
 O267 O 0.17822 0.21347 0.25205
 O268 O 0.17120 0.24537 0.28210
 O269 O 0.21038 0.24969 0.18415
 O270 O 0.24650 0.27883 0.17677
 O271 O 0.24817 0.28644 0.32060
 O272 O 0.21632 0.25278 0.32769
 O273 O 0.31377 0.25117 0.28908
 O274 O 0.32051 0.21923 0.25590
 O275 O 0.28278 0.31734 0.25353
 O276 O 0.24551 0.32476 0.22244
 O277 O 0.24859 0.31777 0.28859
 O278 O 0.21753 0.32542 0.25543
 O279 O 0.31401 0.28542 0.25410
 O280 O 0.32149 0.25215 0.22342
 O281 O 0.28232 0.25156 0.32085
 O282 O 0.24612 0.22106 0.32902
 O283 O 0.24575 0.21306 0.18442
 O284 O 0.27569 0.25068 0.17686
 O285 O 0.17861 0.24936 0.21564
 O286 O 0.17290 0.28121 0.25142
 O287 O 0.20984 0.18173 0.25223
 O288 O 0.24420 0.17536 0.28346
 Zr289 Zr 0.24530 0.20265 0.25196
 O290 O 0.26963 0.22527 0.27653
 Zr291 Zr 0.19931 0.24905 0.25163
 O292 O 0.22189 0.27364 0.27624
 Zr293 Zr 0.24563 0.24873 0.20544
 O294 O 0.27005 0.27306 0.22807
 Zr295 Zr 0.24691 0.25076 0.29973
 O296 O 0.22226 0.22601 0.27721
 Zr297 Zr 0.29289 0.25010 0.25347
 O298 O 0.27086 0.22518 0.22836
 Zr299 Zr 0.24717 0.29657 0.25311
 O300 O 0.22234 0.27427 0.22822
 O301 O 0.22139 0.22479 0.22756
 O302 O 0.27140 0.27490 0.27783
 C303 C 0.24549 0.18904 0.19207
 C304 C 0.18588 0.18938 0.25200
 C305 C 0.18640 0.24949 0.19157
 C306 C 0.24914 0.31037 0.31275
 C307 C 0.30622 0.25195 0.31318
 C308 C 0.30663 0.30950 0.25421
 H309 H 0.28070 0.21346 0.28726
 H310 H 0.28124 0.28354 0.21617
 H311 H 0.21022 0.21364 0.21629
 H312 H 0.21035 0.28488 0.28710
 H313 H 0.20304 0.23974 0.32224
 H314 H 0.17388 0.26011 0.29452
 H315 H 0.31722 0.23828 0.21050
 H316 H 0.28684 0.23497 0.17920
 H317 H 0.25978 0.20800 0.32476
 H318 H 0.23143 0.18209 0.29647
 H319 H 0.26036 0.32148 0.21040
 H320 H 0.23425 0.29261 0.18286
 H321 H 0.26984 0.15774 0.24806
 H322 H 0.31449 0.20539 0.24364
 H323 H 0.15508 0.27433 0.24798
 H324 H 0.20271 0.31886 0.24479
 O325 O 0.75238 0.81797 0.21398
 O326 O 0.72268 0.82532 0.24951
 O327 O 0.81932 0.78393 0.25007
 O328 O 0.82587 0.75155 0.27873
 O329 O 0.78742 0.74990 0.18083
 O330 O 0.74939 0.72210 0.17178
 O331 O 0.74717 0.71160 0.31616
 O332 O 0.77929 0.74492 0.32414
 O333 O 0.68243 0.74722 0.28427
 O334 O 0.67467 0.77832 0.24805
 O335 O 0.71438 0.68091 0.24820
 O336 O 0.74699 0.67464 0.21736
 O337 O 0.74629 0.68058 0.28382
 O338 O 0.78187 0.67620 0.24998
 O339 O 0.68320 0.71295 0.24840
 O340 O 0.67586 0.75168 0.21819
 O341 O 0.71350 0.74607 0.31640
 O342 O 0.74593 0.77683 0.32512
 O343 O 0.75254 0.78722 0.18132
 O344 O 0.72160 0.75185 0.17312
 O345 O 0.81854 0.74899 0.21298
 O346 O 0.82181 0.71544 0.24834
 O347 O 0.78808 0.81597 0.25053
 O348 O 0.74946 0.82387 0.27997
 Zr349 Zr 0.75197 0.79602 0.24909
 O350 O 0.72686 0.77331 0.27273
 Zr351 Zr 0.79731 0.74910 0.24858
 O352 O 0.77419 0.72462 0.27263
 Zr353 Zr 0.75178 0.75105 0.20158
 O354 O 0.72717 0.72618 0.22346
 Zr355 Zr 0.74902 0.74742 0.29582
 O356 O 0.77450 0.77231 0.27442
 Zr357 Zr 0.70382 0.74881 0.24882
 O358 O 0.72657 0.77413 0.22488
 Zr359 Zr 0.74945 0.70217 0.24855
 O360 O 0.77447 0.72469 0.22407
 O361 O 0.77599 0.77419 0.22458
 O362 O 0.72491 0.72372 0.27306
 C363 C 0.75303 0.81104 0.18966
 C364 C 0.81196 0.80807 0.25047
 C365 C 0.81125 0.74941 0.18876
 C366 C 0.74555 0.68781 0.30805
 C367 C 0.68971 0.74580 0.30845
 C368 C 0.69056 0.68880 0.24853
 H369 H 0.71618 0.78499 0.28400
 H370 H 0.71666 0.71540 0.21119
 H371 H 0.78754 0.78537 0.21374
 H372 H 0.78540 0.71323 0.28367
 H373 H 0.79231 0.75849 0.31942
 H374 H 0.82197 0.73761 0.29171
 H375 H 0.67908 0.73709 0.20573
 H376 H 0.70863 0.76493 0.17927
 H377 H 0.75907 0.79036 0.32083
 H378 H 0.76526 0.82183 0.29103
 H379 H 0.76255 0.67738 0.20612
 H380 H 0.76325 0.70906 0.17545
 H381 H 0.70868 0.81915 0.23755
 H382 H 0.67921 0.79149 0.26162
 H383 H 0.83994 0.72126 0.24463
 H384 H 0.77502 0.65826 0.25309
 O385 O 0.75198 0.18085 0.78528
 O386 O 0.72307 0.17314 0.74889
 O387 O 0.81917 0.21515 0.74904
 O388 O 0.82653 0.24793 0.72169
 O389 O 0.78616 0.24899 0.81845
 O390 O 0.74806 0.27712 0.82664
 O391 O 0.74768 0.28644 0.68217
 O392 O 0.77962 0.25338 0.67441
 O393 O 0.68271 0.25025 0.71356
 O394 O 0.67497 0.21941 0.75057
 O395 O 0.71340 0.31717 0.74825
 O396 O 0.74479 0.32415 0.78050
 O397 O 0.74668 0.31768 0.71431
 O398 O 0.78095 0.32255 0.74932
 O399 O 0.68248 0.28494 0.74803
 O400 O 0.67510 0.24716 0.77940
 O401 O 0.71406 0.25180 0.68175
 O402 O 0.75121 0.22066 0.67384
 O403 O 0.75089 0.21192 0.81763
 O404 O 0.72035 0.24750 0.82524
 O405 O 0.81784 0.24984 0.78688
 O406 O 0.82095 0.28395 0.75179
 O407 O 0.78835 0.18275 0.74821
 O408 O 0.75164 0.17473 0.71905
 Zr409 Zr 0.75215 0.20257 0.74996
 O410 O 0.72706 0.22482 0.72577
 Zr411 Zr 0.79706 0.24989 0.75098
 O412 O 0.77410 0.27386 0.72624
 Zr413 Zr 0.75086 0.24789 0.79714
 O414 O 0.72632 0.27243 0.77471
 Zr415 Zr 0.74947 0.25069 0.70277
 O416 O 0.77479 0.22648 0.72501
 Zr417 Zr 0.70360 0.24937 0.74923
 O418 O 0.72623 0.22444 0.77365
 Zr419 Zr 0.74876 0.29632 0.74974
 O420 O 0.77363 0.27429 0.77489
 O421 O 0.77567 0.22465 0.77475
 O422 O 0.72486 0.27434 0.72504
 C423 C 0.75161 0.18802 0.80956
 C424 C 0.81212 0.19095 0.74812
 C425 C 0.81013 0.24945 0.81096
 C426 C 0.74621 0.31032 0.69012
 C427 C 0.69019 0.25184 0.68949
 C428 C 0.68966 0.30910 0.74718
 H429 H 0.71638 0.21292 0.71480
 H430 H 0.71548 0.28330 0.78662
 H431 H 0.78710 0.21338 0.78568
 H432 H 0.78541 0.28524 0.71532
 H433 H 0.79387 0.24170 0.68051
 H434 H 0.82282 0.26185 0.70861
 H435 H 0.67768 0.26231 0.79132
 H436 H 0.70714 0.23489 0.81872
 H437 H 0.73607 0.20887 0.67638
 H438 H 0.76369 0.18139 0.70534
 H439 H 0.75978 0.32147 0.79251
 H440 H 0.76220 0.28992 0.82328
 H441 H 0.70890 0.17912 0.76075
 H442 H 0.67908 0.20661 0.73651
 H443 H 0.83906 0.27849 0.75610
 H444 H 0.77406 0.34043 0.74587
 O445 O 0.24884 0.82044 0.78805
 O446 O 0.28014 0.82672 0.75146
 O447 O 0.18283 0.78600 0.75109
 O448 O 0.17708 0.75350 0.72180
 O449 O 0.21429 0.75219 0.82058
 O450 O 0.25097 0.72362 0.82902
 O451 O 0.25673 0.71401 0.68554
 O452 O 0.22337 0.74630 0.67721
 O453 O 0.32001 0.75107 0.71759
 O454 O 0.32522 0.78386 0.75057
 O455 O 0.28970 0.68496 0.75345
 O456 O 0.25230 0.67709 0.78417
 O457 O 0.25710 0.68318 0.71805
 O458 O 0.22471 0.67546 0.75040
 O459 O 0.32037 0.71736 0.75241
 O460 O 0.32634 0.75112 0.78357
 O461 O 0.28901 0.74970 0.68538
 O462 O 0.25209 0.77923 0.67607
 O463 O 0.24920 0.78939 0.82037
 O464 O 0.27943 0.75245 0.82931
 O465 O 0.18339 0.75095 0.78824
 O466 O 0.17933 0.71822 0.75299
 O467 O 0.21339 0.81873 0.75140
 O468 O 0.24817 0.82550 0.72074
 Zr469 Zr 0.24949 0.79869 0.75265
 O470 O 0.27493 0.77628 0.72897
 Zr471 Zr 0.20480 0.75110 0.75277
 O472 O 0.22841 0.72671 0.72899
 Zr473 Zr 0.25005 0.75336 0.79997
 O474 O 0.27558 0.72928 0.77820
 Zr475 Zr 0.25328 0.74992 0.70575
 O476 O 0.22757 0.77438 0.72733
 Zr477 Zr 0.29841 0.75232 0.75285
 O478 O 0.27515 0.77708 0.77710
 Zr479 Zr 0.25373 0.70488 0.75311
 O480 O 0.22788 0.72689 0.77717
 O481 O 0.22569 0.77635 0.77693
 O482 O 0.27783 0.72679 0.72859
 C483 C 0.24866 0.81327 0.81231
 C484 C 0.18968 0.81030 0.75097
 C485 C 0.19051 0.75160 0.81250
 C486 C 0.25852 0.69026 0.69383
 C487 C 0.31278 0.74970 0.69340
 C488 C 0.31337 0.69315 0.75238
 H489 H 0.28590 0.78817 0.71825
 H490 H 0.28683 0.71921 0.79042
 H491 H 0.21406 0.78748 0.78777
 H492 H 0.21746 0.71499 0.71803
 H493 H 0.20959 0.75909 0.68205
 H494 H 0.18045 0.73871 0.70962
 H495 H 0.32167 0.76523 0.79609
 H496 H 0.29058 0.76809 0.82668
 H497 H 0.26548 0.79258 0.68025
 H498 H 0.23582 0.81825 0.70760
 H499 H 0.26679 0.68097 0.79646
 H500 H 0.23895 0.70963 0.82296
 H501 H 0.27292 0.84420 0.75617
 H502 H 0.31862 0.79765 0.76260
 H503 H 0.16127 0.72463 0.75608
 H504 H 0.20983 0.68146 0.76130
 O505 O 0.25182 0.31769 0.71528
 O506 O 0.21885 0.32227 0.75101
 O507 O 0.31797 0.28479 0.75163
 O508 O 0.32447 0.25233 0.78109
 O509 O 0.28689 0.24956 0.68235
 O510 O 0.25001 0.22099 0.67409
 O511 O 0.24648 0.21126 0.81746
 O512 O 0.27858 0.24427 0.82582
 O513 O 0.18187 0.24753 0.78589
 O514 O 0.17712 0.28119 0.74718
 O515 O 0.21291 0.18166 0.74943
 O516 O 0.25074 0.17451 0.71880
 O517 O 0.24603 0.18033 0.78503
 O518 O 0.27798 0.17309 0.75247
 O519 O 0.18184 0.21373 0.74973
 O520 O 0.17289 0.24993 0.72199
 O521 O 0.21296 0.24607 0.81797
 O522 O 0.24932 0.27643 0.82716
 O523 O 0.25195 0.28685 0.68269
 O524 O 0.22153 0.25137 0.67420
 O525 O 0.31795 0.24916 0.71456
 O526 O 0.32301 0.21701 0.74993
 O527 O 0.28652 0.31673 0.75210
 O528 O 0.25167 0.32343 0.78191
 Zr529 Zr 0.25103 0.29594 0.75058
 O530 O 0.22616 0.27323 0.77451
 Zr531 Zr 0.29675 0.24931 0.75018
 O532 O 0.27367 0.22445 0.77393
 Zr533 Zr 0.25130 0.25077 0.70310
 O534 O 0.22627 0.22624 0.72485
 Zr535 Zr 0.24851 0.24719 0.79736
 O536 O 0.27360 0.27213 0.77576
 Zr537 Zr 0.20317 0.24900 0.75037
 O538 O 0.22598 0.27390 0.72614
 Zr539 Zr 0.24858 0.20218 0.74996
 O540 O 0.27397 0.22468 0.72588
 O541 O 0.27526 0.27411 0.72616
 O542 O 0.22414 0.22368 0.77462
 C543 C 0.25242 0.31070 0.69098
 C544 C 0.31044 0.30892 0.75206
 C545 C 0.31069 0.24929 0.69034
 C546 C 0.24511 0.18747 0.80927
 C547 C 0.18917 0.24600 0.81005
 C548 C 0.18910 0.18960 0.74975
 H549 H 0.21524 0.28493 0.78548
 H550 H 0.21540 0.21585 0.71258
 H551 H 0.28680 0.28531 0.71532
 H552 H 0.28493 0.21294 0.78478
 H553 H 0.29212 0.25724 0.82086
 H554 H 0.32150 0.23744 0.79325
 H555 H 0.17924 0.24029 0.70632
 H556 H 0.20847 0.26446 0.68013
 H557 H 0.23529 0.28928 0.82347
 H558 H 0.26319 0.31604 0.79572
 H559 H 0.23591 0.17777 0.70674
 H560 H 0.26234 0.20715 0.67986
 H561 H 0.22524 0.34008 0.74643
 H562 H 0.17692 0.29043 0.76433
 H563 H 0.34092 0.22380 0.74685
 H564 H 0.29305 0.17969 0.74221
 O565 O 0.74637 0.68172 0.71706
 O566 O 0.77697 0.67502 0.75380
 O567 O 0.67917 0.71414 0.75294
 O568 O 0.67242 0.74617 0.78286
 O569 O 0.71140 0.74984 0.68475
 O570 O 0.74785 0.77880 0.67718
 O571 O 0.74993 0.78704 0.82084
 O572 O 0.71813 0.75365 0.82840
 O573 O 0.81516 0.75170 0.78904
 O574 O 0.82264 0.72040 0.75617
 O575 O 0.78404 0.81768 0.75337
 O576 O 0.74632 0.82493 0.72249
 O577 O 0.75027 0.81825 0.78871
 O578 O 0.71900 0.82596 0.75592
 O579 O 0.81521 0.78571 0.75351
 O580 O 0.82205 0.74737 0.72287
 O581 O 0.78392 0.75217 0.82101
 O582 O 0.74760 0.72161 0.82940
 O583 O 0.74695 0.71317 0.68511
 O584 O 0.77682 0.74921 0.67753
 O585 O 0.67971 0.74986 0.71633
 O586 O 0.67417 0.78184 0.75213
 O587 O 0.71063 0.68225 0.75323
 O588 O 0.74526 0.67621 0.78474
 Zr589 Zr 0.74620 0.70297 0.75278
 O590 O 0.77093 0.72562 0.77691
 Zr591 Zr 0.70046 0.74958 0.75230
 O592 O 0.72327 0.77416 0.77670
 Zr593 Zr 0.74665 0.74885 0.70600
 O594 O 0.77121 0.77340 0.72822
 Zr595 Zr 0.74840 0.75131 0.80011
 O596 O 0.72339 0.72660 0.77795
 Zr597 Zr 0.79410 0.75032 0.75356
 O598 O 0.77169 0.72532 0.72904
 Zr599 Zr 0.74845 0.79694 0.75333
 O600 O 0.72348 0.77460 0.72866
 O601 O 0.72236 0.72509 0.72829
 O602 O 0.77282 0.77529 0.77793
 C603 C 0.74645 0.68920 0.69289
 C604 C 0.68672 0.69002 0.75300
 C605 C 0.68744 0.74982 0.69224
 C606 C 0.75098 0.81093 0.81288
 C607 C 0.80776 0.75258 0.81318
 C608 C 0.80788 0.80980 0.75370
 H609 H 0.78207 0.71385 0.78760
 H610 H 0.78204 0.78402 0.71614
 H611 H 0.71113 0.71394 0.71707
 H612 H 0.71184 0.78547 0.78760
 H613 H 0.70462 0.74080 0.82304
 H614 H 0.67534 0.76084 0.79531
 H615 H 0.81953 0.76246 0.71088
 H616 H 0.79005 0.73629 0.68344
 H617 H 0.76151 0.70874 0.82536
 H618 H 0.73209 0.68279 0.79742
 H619 H 0.76133 0.82199 0.71056
 H620 H 0.73550 0.79259 0.68304
 H621 H 0.76977 0.65751 0.74918
 H622 H 0.81512 0.70481 0.74735
 H623 H 0.65634 0.77504 0.74861
 H624 H 0.70395 0.81937 0.74563
 O625 O 0.25120 0.68083 0.28449
 O626 O 0.22253 0.67306 0.24793
 O627 O 0.31862 0.71510 0.24849
 O628 O 0.32615 0.74783 0.22121
 O629 O 0.28528 0.74898 0.31773
 O630 O 0.24715 0.77716 0.32569
 O631 O 0.24742 0.78626 0.18122
 O632 O 0.27944 0.75319 0.17365
 O633 O 0.18236 0.75007 0.21238
 O634 O 0.17447 0.71928 0.24944
 O635 O 0.21291 0.81704 0.24699
 O636 O 0.24408 0.82409 0.27948
 O637 O 0.24633 0.81753 0.21332
 O638 O 0.28044 0.82246 0.24851
 O639 O 0.18199 0.78482 0.24666
 O640 O 0.17441 0.74717 0.27815
 O641 O 0.21384 0.75164 0.18069
 O642 O 0.25103 0.72045 0.17299
 O643 O 0.24993 0.71194 0.31678
 O644 O 0.21947 0.74756 0.32423
 O645 O 0.31710 0.74979 0.28631
 O646 O 0.32038 0.78388 0.25117
 O647 O 0.28782 0.68268 0.24758
 O648 O 0.25126 0.67456 0.21831
 Zr649 Zr 0.25161 0.70249 0.24914
 O650 O 0.22664 0.72469 0.22479
 Zr651 Zr 0.29651 0.74981 0.25032
 O652 O 0.27368 0.77374 0.22541
 Zr653 Zr 0.25009 0.74788 0.29626
 O654 O 0.22567 0.77238 0.27368
 Zr655 Zr 0.24916 0.75053 0.20187
 O656 O 0.27437 0.72635 0.22427
 Zr657 Zr 0.20308 0.74926 0.24813
 O658 O 0.22558 0.72438 0.27269
 Zr659 Zr 0.24825 0.79622 0.24879
 O660 O 0.27298 0.77424 0.27409
 O661 O 0.27500 0.72459 0.27402
 O662 O 0.22447 0.77419 0.22401
 C663 C 0.25065 0.68803 0.30875
 C664 C 0.31158 0.69090 0.24757
 C665 C 0.30928 0.74943 0.31035
 C666 C 0.24592 0.81015 0.18915
 C667 C 0.18995 0.75168 0.18835
 C668 C 0.18919 0.80896 0.24574
 H669 H 0.21600 0.71277 0.21380
 H670 H 0.21477 0.78327 0.28550
 H671 H 0.28636 0.71333 0.28502
 H672 H 0.28504 0.78510 0.21453
 H673 H 0.29365 0.74150 0.17982
 H674 H 0.32245 0.76166 0.20804
 H675 H 0.17691 0.76238 0.29001
 H676 H 0.20622 0.73502 0.31762
 H677 H 0.23587 0.70868 0.17548
 H678 H 0.26332 0.68123 0.20460
 H679 H 0.25899 0.82142 0.29159
 H680 H 0.26135 0.78992 0.32242
 H681 H 0.20829 0.67904 0.25971
 H682 H 0.17858 0.70651 0.23535
 H683 H 0.33846 0.77845 0.25566
 H684 H 0.27356 0.84033 0.24500
 O685 O 0.74919 0.31921 0.28789
 O686 O 0.77979 0.32626 0.25130
 O687 O 0.68318 0.28441 0.25130
 O688 O 0.67748 0.25191 0.22206
 O689 O 0.71527 0.25099 0.32068
 O690 O 0.75227 0.22258 0.32893
 O691 O 0.75742 0.21292 0.18548
 O692 O 0.72402 0.24493 0.17710
 O693 O 0.82054 0.25011 0.21748
 O694 O 0.82659 0.28218 0.25030
 O695 O 0.79048 0.18391 0.25342
 O696 O 0.75287 0.17596 0.28412
 O697 O 0.75798 0.18209 0.21799
 O698 O 0.72570 0.17410 0.25016
 O699 O 0.82103 0.21642 0.25267
 O700 O 0.82652 0.25501 0.28380
 O701 O 0.78951 0.24874 0.18531
 O702 O 0.75231 0.27819 0.17616
 O703 O 0.75035 0.28818 0.32024
 O704 O 0.78066 0.25274 0.32866
 O705 O 0.68423 0.24947 0.28847
 O706 O 0.68009 0.21669 0.25315
 O707 O 0.71351 0.31734 0.25140
 O708 O 0.74835 0.32395 0.22017
 Zr709 Zr 0.74975 0.29756 0.25243
 O710 O 0.77542 0.27528 0.22888
 Zr711 Zr 0.70540 0.24969 0.25286
 O712 O 0.72907 0.22546 0.22899
 Zr713 Zr 0.75085 0.25223 0.29981
 O714 O 0.77638 0.22808 0.27814
 Zr715 Zr 0.75382 0.24879 0.20572
 O716 O 0.72791 0.27306 0.22727
 Zr717 Zr 0.79901 0.25140 0.25277
 O718 O 0.77555 0.27608 0.27672
 Zr719 Zr 0.75449 0.20372 0.25305
 O720 O 0.72867 0.22562 0.27719
 O721 O 0.72625 0.27509 0.27688
 O722 O 0.77852 0.22576 0.22854
 C723 C 0.74942 0.31204 0.31215
 C724 C 0.68987 0.30874 0.25115
 C725 C 0.69146 0.25027 0.31270
 C726 C 0.75935 0.18919 0.19377
 C727 C 0.81328 0.24877 0.19331
 C728 C 0.81412 0.19219 0.25254
 H729 H 0.78634 0.28721 0.21817
 H730 H 0.78737 0.21782 0.29040
 H731 H 0.71465 0.28617 0.28780
 H732 H 0.71816 0.21371 0.21803
 H733 H 0.71002 0.25743 0.18205
 H734 H 0.68097 0.23723 0.20977
 H735 H 0.82470 0.23952 0.29540
 H736 H 0.79392 0.26549 0.32252
 H737 H 0.76588 0.29143 0.18013
 H738 H 0.73543 0.31693 0.20747
 H739 H 0.76757 0.17953 0.29626
 H740 H 0.74023 0.20854 0.32307
 H741 H 0.77211 0.34364 0.25565
 H742 H 0.81865 0.29744 0.25933
 H743 H 0.66204 0.22298 0.25653
 H744 H 0.71066 0.18005 0.26087
 C745 C 0.23368 0.13492 0.13388
 C746 C 0.20752 0.13041 0.12592
 C747 C 0.20224 0.11367 0.10413
 C748 C 0.22314 0.10151 0.09050
 C749 C 0.24924 0.10539 0.09899
 C750 C 0.25451 0.12217 0.12074
 C751 C 0.28075 0.12590 0.12876
 C752 C 0.30121 0.11337 0.11569
 C753 C 0.29607 0.09695 0.09443
 C754 C 0.27043 0.09295 0.08608
 C755 C 0.17598 0.10960 0.09641
 C756 C 0.15548 0.12161 0.10992
 C757 C 0.16062 0.13791 0.13127
 C758 C 0.18630 0.14241 0.13920
 C759 C 0.21807 0.08563 0.06728
 C760 C 0.21481 0.07268 0.04765
 C761 C 0.23911 0.15342 0.15493
 C762 C 0.24279 0.16936 0.17208
 H763 H 0.28571 0.13844 0.14523
 H764 H 0.32116 0.11641 0.12210
 H765 H 0.31203 0.08725 0.08435
 H766 H 0.26744 0.07995 0.06948
 H767 H 0.17102 0.09704 0.07994
 H768 H 0.13550 0.11825 0.10379
 H769 H 0.14463 0.14720 0.14171
 H770 H 0.18930 0.15526 0.15592
 C771 C 0.73416 0.63515 0.63487
 C772 C 0.70793 0.63090 0.62701
 C773 C 0.70243 0.61433 0.60517
 C774 C 0.72318 0.60205 0.59141
 C775 C 0.74934 0.60564 0.59983
 C776 C 0.75484 0.62227 0.62161
 C777 C 0.78114 0.62576 0.62955
 C778 C 0.80144 0.61310 0.61635
 C779 C 0.79608 0.59680 0.59506
 C780 C 0.77038 0.59305 0.58680
 C781 C 0.67610 0.61054 0.59752
 C782 C 0.65576 0.62267 0.61117
 C783 C 0.66112 0.63881 0.63259
 C784 C 0.68688 0.64303 0.64045
 C785 C 0.71788 0.58629 0.56820
 C786 C 0.71446 0.57334 0.54862
 C787 C 0.73982 0.65356 0.65590
 C788 C 0.74366 0.66949 0.67301
 H789 H 0.78626 0.63820 0.64605
 H790 H 0.82144 0.61595 0.62271
 H791 H 0.81192 0.58700 0.58488
 H792 H 0.76722 0.58014 0.57016
 H793 H 0.67098 0.59812 0.58100
 H794 H 0.63573 0.61953 0.60508
 H795 H 0.64526 0.64819 0.64313
 H796 H 0.69005 0.65575 0.65723
 C797 C 0.76837 0.87081 0.13833
 C798 C 0.77824 0.86588 0.11273
 C799 C 0.78499 0.88723 0.09601
 C800 C 0.78175 0.91336 0.10498
 C801 C 0.77281 0.91826 0.13094
 C802 C 0.76604 0.89693 0.14763
 C803 C 0.75723 0.90233 0.17353
 C804 C 0.75528 0.92806 0.18270
 C805 C 0.76192 0.94891 0.16638
 C806 C 0.77055 0.94419 0.14077
 C807 C 0.79499 0.88184 0.07059
 C808 C 0.79825 0.85607 0.06191
 C809 C 0.79158 0.83520 0.07821
 C810 C 0.78165 0.83993 0.10335
 C811 C 0.78659 0.93532 0.08740
 C812 C 0.78962 0.95433 0.07356
 C813 C 0.76163 0.84911 0.15558
 C814 C 0.75687 0.83149 0.17067
 H815 H 0.75188 0.88678 0.18701
 H816 H 0.74859 0.93181 0.20259
 H817 H 0.76041 0.96886 0.17360
 H818 H 0.77559 0.96109 0.12890
 H819 H 0.80059 0.89744 0.05729
 H820 H 0.80603 0.85229 0.04243
 H821 H 0.79420 0.81522 0.07140
 H822 H 0.77684 0.82306 0.11536
 C823 C 0.26714 0.37046 0.63951
 C824 C 0.27612 0.36558 0.61357
 C825 C 0.28255 0.38696 0.59677
 C826 C 0.27991 0.41306 0.60601
 C827 C 0.27188 0.41789 0.63228
 C828 C 0.26539 0.39654 0.64905
 C829 C 0.25745 0.40187 0.67525
 C830 C 0.25611 0.42755 0.68465
 C831 C 0.26250 0.44843 0.66826
 C832 C 0.27025 0.44379 0.64235
 C833 C 0.29160 0.38163 0.57098
 C834 C 0.29427 0.35588 0.56202
 C835 C 0.28793 0.33497 0.57843
 C836 C 0.27892 0.33965 0.60392
 C837 C 0.28442 0.43505 0.58841
 C838 C 0.28720 0.45400 0.57446
 C839 C 0.26068 0.34874 0.65681
 C840 C 0.25611 0.33110 0.67194
 H841 H 0.25235 0.38629 0.68879
 H842 H 0.25011 0.43125 0.70476
 H843 H 0.26146 0.46835 0.67566
 H844 H 0.27512 0.46070 0.63042
 H845 H 0.29690 0.39725 0.55757
 H846 H 0.30132 0.35214 0.54226
 H847 H 0.29009 0.31502 0.57140
 H848 H 0.27433 0.32276 0.61599
 C849 C 0.76144 0.12980 0.86411
 C850 C 0.75366 0.10385 0.85796
 C851 C 0.75890 0.08312 0.87594
 C852 C 0.77194 0.08846 0.90000
 C853 C 0.77973 0.11441 0.90616
 C854 C 0.77441 0.13517 0.88820
 C855 C 0.78235 0.16096 0.89481
 C856 C 0.79521 0.16609 0.91847
 C857 C 0.80055 0.14577 0.93594
 C858 C 0.79292 0.12018 0.92998
 C859 C 0.75098 0.05731 0.86928
 C860 C 0.73827 0.05213 0.84556
 C861 C 0.73315 0.07241 0.82798
 C862 C 0.74071 0.09800 0.83400
 C863 C 0.77718 0.06709 0.91818
 C864 C 0.78080 0.04838 0.93227
 C865 C 0.75696 0.15073 0.84522
 C866 C 0.75390 0.16785 0.82910
 H867 H 0.77875 0.17739 0.88178
 H868 H 0.80124 0.18592 0.92317
 H869 H 0.81068 0.14985 0.95423
 H870 H 0.79748 0.10501 0.94418
 H871 H 0.75452 0.04084 0.88227
 H872 H 0.73237 0.03228 0.84080
 H873 H 0.72327 0.06830 0.80958
 H874 H 0.73626 0.11310 0.81969
 C875 C 0.25937 0.62978 0.36342
 C876 C 0.25081 0.60404 0.35742
 C877 C 0.25558 0.58324 0.37546
 C878 C 0.26892 0.58831 0.39940
 C879 C 0.27747 0.61405 0.40542
 C880 C 0.27262 0.63488 0.38740
 C881 C 0.28133 0.66046 0.39385
 C882 C 0.29447 0.66532 0.41741
 C883 C 0.29934 0.64493 0.43495
 C884 C 0.29095 0.61954 0.42913
 C885 C 0.24690 0.55764 0.36895
 C886 C 0.23391 0.55273 0.34532
 C887 C 0.22926 0.57308 0.32770
 C888 C 0.23755 0.59847 0.33357
 C889 C 0.27378 0.56686 0.41759
 C890 C 0.27715 0.54816 0.43174
 C891 C 0.25535 0.65075 0.34448
 C892 C 0.25263 0.66787 0.32832
 H893 H 0.27812 0.67693 0.38077
 H894 H 0.30108 0.68499 0.42199
 H895 H 0.30967 0.64879 0.45315
 H896 H 0.29516 0.60431 0.44338
 H897 H 0.25006 0.54113 0.38198
 H898 H 0.22744 0.53304 0.34068
 H899 H 0.21915 0.56918 0.30937
 H900 H 0.23344 0.61363 0.31922
 C901 C 0.23730 0.86875 0.86938
 C902 C 0.25837 0.88004 0.88343
 C903 C 0.25332 0.89740 0.90478
 C904 C 0.22722 0.90335 0.91194
 C905 C 0.20615 0.89266 0.89739
 C906 C 0.21120 0.87526 0.87606
 C907 C 0.18980 0.86457 0.86200
 C908 C 0.16417 0.87092 0.86878
 C909 C 0.15925 0.88803 0.88954
 C910 C 0.17992 0.89882 0.90378
 C911 C 0.27473 0.90829 0.91868
 C912 C 0.30037 0.90221 0.91168
 C913 C 0.30529 0.88523 0.89081
 C914 C 0.28461 0.87421 0.87678
 C915 C 0.22217 0.91959 0.93491
 C916 C 0.21869 0.93265 0.95443
 C917 C 0.24237 0.84966 0.84874
 C918 C 0.24588 0.83331 0.83193
 H919 H 0.19262 0.85131 0.84557
 H920 H 0.14806 0.86267 0.85774
 H921 H 0.13930 0.89299 0.89464
 H922 H 0.17514 0.91205 0.91976
 H923 H 0.27191 0.92164 0.93503
 H924 H 0.31650 0.91073 0.92252
 H925 H 0.32524 0.88057 0.88545
 H926 H 0.28942 0.86114 0.86067
 C927 C 0.73746 0.36725 0.36921
 C928 C 0.75832 0.38005 0.38224
 C929 C 0.75304 0.39739 0.40353
 C930 C 0.72691 0.40182 0.41165
 C931 C 0.70600 0.38957 0.39815
 C932 C 0.71128 0.37218 0.37689
 C933 C 0.69006 0.35987 0.36391
 C934 C 0.66438 0.36467 0.37168
 C935 C 0.65921 0.38180 0.39237
 C936 C 0.67971 0.39415 0.40554
 C937 C 0.77425 0.40980 0.41641
 C938 C 0.79993 0.40519 0.40848
 C939 C 0.80507 0.38822 0.38765
 C940 C 0.78459 0.37574 0.37461
 C941 C 0.72177 0.41809 0.43455
 C942 C 0.71825 0.43123 0.45399
 C943 C 0.74286 0.34830 0.34858
 C944 C 0.74656 0.33202 0.33177
 H945 H 0.69305 0.34653 0.34758
 H946 H 0.64840 0.35518 0.36148
 H947 H 0.63921 0.38554 0.39824
 H948 H 0.67473 0.40733 0.42151
 H949 H 0.77125 0.42320 0.43268
 H950 H 0.81591 0.41484 0.41855
 H951 H 0.82505 0.38470 0.38157
 H952 H 0.78956 0.36273 0.35849
 C953 C 0.13378 0.23901 0.13201
 C954 C 0.10919 0.25174 0.13109
 C955 C 0.09216 0.24735 0.10939
 C956 C 0.09984 0.23026 0.08877
 C957 C 0.12413 0.21697 0.09005
 C958 C 0.14119 0.22142 0.11169
 C959 C 0.16553 0.20814 0.11236
 C960 C 0.17278 0.19100 0.09223
 C961 C 0.15600 0.18649 0.07119
 C962 C 0.13195 0.19930 0.06998
 C963 C 0.06773 0.26040 0.10882
 C964 C 0.06031 0.27726 0.12913
 C965 C 0.07697 0.28153 0.15035
 C966 C 0.10116 0.26898 0.15142
 C967 C 0.08332 0.22723 0.06573
 C968 C 0.07004 0.22523 0.04620
 C969 C 0.15159 0.24398 0.15370
 C970 C 0.16706 0.24726 0.17129
 H971 H 0.17920 0.21082 0.12841
 H972 H 0.19146 0.18103 0.09305
 H973 H 0.16165 0.17301 0.05570
 H974 H 0.11956 0.19517 0.05320
 H975 H 0.05409 0.25766 0.09275
 H976 H 0.04154 0.28705 0.12841
 H977 H 0.07111 0.29464 0.16608
 H978 H 0.11345 0.27290 0.16833
 C979 C 0.63480 0.73928 0.63275
 C980 C 0.61019 0.75195 0.63181
 C981 C 0.59318 0.74748 0.61012
 C982 C 0.60091 0.73036 0.58954
 C983 C 0.62523 0.71714 0.59083
 C984 C 0.64228 0.72168 0.61246
 C985 C 0.66666 0.70848 0.61314
 C986 C 0.67395 0.69133 0.59304
 C987 C 0.65718 0.68672 0.57202
 C988 C 0.63309 0.69946 0.57080
 C989 C 0.56872 0.76047 0.60951
 C990 C 0.56126 0.77736 0.62979
 C991 C 0.57790 0.78172 0.65100
 C992 C 0.60212 0.76922 0.65210
 C993 C 0.58438 0.72721 0.56653
 C994 C 0.57102 0.72511 0.54709
 C995 C 0.65258 0.74430 0.65444
 C996 C 0.66806 0.74759 0.67202
 H997 H 0.68033 0.71124 0.62918
 H998 H 0.69267 0.68142 0.59387
 H999 H 0.66286 0.67322 0.55655
 H1000 H 0.62070 0.69524 0.55403
 H1001 H 0.55509 0.75767 0.59345
 H1002 H 0.54247 0.78711 0.62903
 H1003 H 0.57202 0.79486 0.66670
 H1004 H 0.61440 0.77320 0.66900
 C1005 C 0.13150 0.76231 0.86566
 C1006 C 0.11630 0.78541 0.86280
 C1007 C 0.09465 0.78992 0.87978
 C1008 C 0.08834 0.77131 0.89951
 C1009 C 0.10402 0.74861 0.90286
 C1010 C 0.12564 0.74408 0.88584
 C1011 C 0.14089 0.72115 0.88941
 C1012 C 0.13499 0.70322 0.90927
 C1013 C 0.11389 0.70767 0.92595
 C1014 C 0.09851 0.73006 0.92287
 C1015 C 0.07966 0.81306 0.87646
 C1016 C 0.08586 0.83123 0.85690
 C1017 C 0.10698 0.82681 0.84025
 C1018 C 0.12212 0.80423 0.84310
 C1019 C 0.06514 0.77485 0.91562
 C1020 C 0.04560 0.77705 0.92874
 C1021 C 0.15284 0.75723 0.84749
 C1022 C 0.17024 0.75388 0.83184
 H1023 H 0.15752 0.71688 0.87695
 H1024 H 0.14687 0.68580 0.91175
 H1025 H 0.10941 0.69369 0.94137
 H1026 H 0.08235 0.73268 0.93637
 H1027 H 0.06307 0.81737 0.88897
 H1028 H 0.07420 0.84884 0.85465
 H1029 H 0.11171 0.84099 0.82508
 H1030 H 0.13841 0.80174 0.82974
 C1031 C 0.63250 0.26159 0.36568
 C1032 C 0.61672 0.28416 0.36187
 C1033 C 0.59497 0.28882 0.37865
 C1034 C 0.58915 0.27089 0.39915
 C1035 C 0.60544 0.24880 0.40349
 C1036 C 0.62716 0.24412 0.38667
 C1037 C 0.64305 0.22182 0.39125
 C1038 C 0.63768 0.20465 0.41192
 C1039 C 0.61646 0.20924 0.42841
 C1040 C 0.60045 0.23101 0.42433
 C1041 C 0.57940 0.31141 0.37438
 C1042 C 0.58517 0.32894 0.35410
 C1043 C 0.60642 0.32439 0.33765
 C1044 C 0.62210 0.30231 0.34141
 C1045 C 0.56589 0.27450 0.41514
 C1046 C 0.54638 0.27672 0.42828
 C1047 C 0.65387 0.25624 0.34767
 C1048 C 0.67127 0.25270 0.33207
 H1049 H 0.65980 0.21747 0.37897
 H1050 H 0.65006 0.18771 0.41518
 H1051 H 0.61239 0.19586 0.44447
 H1052 H 0.58423 0.23378 0.43773
 H1053 H 0.56269 0.31580 0.38670
 H1054 H 0.57309 0.34615 0.35114
 H1055 H 0.61084 0.33808 0.32195
 H1056 H 0.63847 0.29970 0.32817
 C1057 C 0.86918 0.75780 0.13404
 C1058 C 0.87114 0.78199 0.12040
 C1059 C 0.89247 0.78651 0.10303
 C1060 C 0.91174 0.76685 0.09950
 C1061 C 0.90944 0.74244 0.11268
 C1062 C 0.88809 0.73790 0.12999
 C1063 C 0.88629 0.71343 0.14309
 C1064 C 0.90506 0.69397 0.13919
 C1065 C 0.92595 0.69839 0.12226
 C1066 C 0.92822 0.72230 0.10911
 C1067 C 0.89407 0.81084 0.08967
 C1068 C 0.87520 0.83024 0.09346
 C1069 C 0.85443 0.82591 0.11056
 C1070 C 0.85227 0.80207 0.12388
 C1071 C 0.93436 0.77184 0.08298
 C1072 C 0.95361 0.77528 0.06972
 C1073 C 0.84834 0.75382 0.15301
 C1074 C 0.83130 0.75119 0.16917
 H1075 H 0.87038 0.70906 0.15642
 H1076 H 0.90338 0.67536 0.14935
 H1077 H 0.94048 0.68321 0.11929
 H1078 H 0.94481 0.72477 0.09613
 H1079 H 0.90989 0.81511 0.07618
 H1080 H 0.87673 0.84876 0.08311
 H1081 H 0.83991 0.84109 0.11354
 H1082 H 0.83569 0.79958 0.13688
 C1083 C 0.36869 0.25726 0.63569
 C1084 C 0.37018 0.28105 0.62130
 C1085 C 0.39155 0.28552 0.60398
 C1086 C 0.41131 0.26623 0.60127
 C1087 C 0.40947 0.24219 0.61519
 C1088 C 0.38808 0.23770 0.63244
 C1089 C 0.38673 0.21361 0.64629
 C1090 C 0.40598 0.19449 0.64317
 C1091 C 0.42692 0.19887 0.62629
 C1092 C 0.42875 0.22241 0.61242
 C1093 C 0.39271 0.30946 0.58987
 C1094 C 0.37334 0.32850 0.59285
 C1095 C 0.35250 0.32419 0.60988
 C1096 C 0.35080 0.30075 0.62395
 C1097 C 0.43389 0.27121 0.58473
 C1098 C 0.45307 0.27469 0.57140
 C1099 C 0.34782 0.25341 0.65463
 C1100 C 0.33075 0.25092 0.67077
 H1101 H 0.37079 0.20927 0.65961
 H1102 H 0.40464 0.17617 0.65389
 H1103 H 0.44183 0.18396 0.62393
 H1104 H 0.44540 0.22487 0.59951
 H1105 H 0.40855 0.31369 0.57640
 H1106 H 0.37453 0.34671 0.58193
 H1107 H 0.33758 0.33909 0.61222
 H1108 H 0.33416 0.29827 0.63687
 C1109 C 0.86468 0.24045 0.86904
 C1110 C 0.88110 0.26120 0.87741
 C1111 C 0.89873 0.25722 0.89868
 C1112 C 0.89977 0.23255 0.91152
 C1113 C 0.88382 0.21160 0.90271
 C1114 C 0.86628 0.21553 0.88135
 C1115 C 0.85059 0.19426 0.87283
 C1116 C 0.85222 0.16980 0.88503
 C1117 C 0.86919 0.16603 0.90608
 C1118 C 0.88486 0.18662 0.91490
 C1119 C 0.91492 0.27828 0.90674
 C1120 C 0.91371 0.30256 0.89414
 C1121 C 0.89643 0.30645 0.87337
 C1122 C 0.88025 0.28608 0.86502
 C1123 C 0.91647 0.22910 0.93438
 C1124 C 0.92987 0.22676 0.95378
 C1125 C 0.84579 0.24477 0.84815
 C1126 C 0.82970 0.24758 0.83105
 H1127 H 0.83698 0.19623 0.85662
 H1128 H 0.84015 0.15373 0.87821
 H1129 H 0.87026 0.14704 0.91560
 H1130 H 0.89785 0.18270 0.93127
 H1131 H 0.92872 0.27619 0.92276
 H1132 H 0.92625 0.31845 0.90054
 H1133 H 0.89555 0.32535 0.86365
 H1134 H 0.86716 0.29002 0.84874
 C1135 C 0.36358 0.74032 0.36860
 C1136 C 0.37985 0.76108 0.37722
 C1137 C 0.39744 0.75699 0.39851
 C1138 C 0.39856 0.73220 0.41109
 C1139 C 0.38274 0.71125 0.40206
 C1140 C 0.36525 0.71530 0.38068
 C1141 C 0.34969 0.69402 0.37192
 C1142 C 0.35141 0.66947 0.38389
 C1143 C 0.36835 0.66558 0.40494
 C1144 C 0.38388 0.68616 0.41401
 C1145 C 0.41349 0.77806 0.40682
 C1146 C 0.41220 0.80245 0.39445
 C1147 C 0.39497 0.80644 0.37365
 C1148 C 0.37892 0.78607 0.36506
 C1149 C 0.41528 0.72859 0.43390
 C1150 C 0.42876 0.72616 0.45322
 C1151 C 0.34477 0.74471 0.34767
 C1152 C 0.32875 0.74756 0.33051
 H1153 H 0.33612 0.69609 0.35569
 H1154 H 0.33943 0.65340 0.37688
 H1155 H 0.36948 0.64650 0.41428
 H1156 H 0.39685 0.68216 0.43038
 H1157 H 0.42725 0.77589 0.42287
 H1158 H 0.42465 0.81833 0.40103
 H1159 H 0.39404 0.82543 0.36410
 H1160 H 0.36586 0.79010 0.34877
 C1161 C 0.13318 0.13038 0.24018
 C1162 C 0.10954 0.12788 0.25443
 C1163 C 0.09272 0.10621 0.24952
 C1164 C 0.09967 0.08718 0.23040
 C1165 C 0.12296 0.09007 0.21562
 C1166 C 0.13979 0.11171 0.22054
 C1167 C 0.16310 0.11404 0.20566
 C1168 C 0.16958 0.09551 0.18652
 C1169 C 0.15303 0.07445 0.18161
 C1170 C 0.12998 0.07164 0.19595
 C1171 C 0.06922 0.10407 0.26409
 C1172 C 0.06251 0.12282 0.28292
 C1173 C 0.07896 0.14401 0.28771
 C1174 C 0.10225 0.14660 0.27370
 C1175 C 0.08341 0.06413 0.22667
 C1176 C 0.07021 0.04470 0.22411
 C1177 C 0.15093 0.15191 0.24573
 C1178 C 0.16643 0.16934 0.24941
 H1179 H 0.17657 0.13015 0.20862
 H1180 H 0.18753 0.09751 0.17541
 H1181 H 0.15810 0.06019 0.16662
 H1182 H 0.11773 0.05492 0.19142
 H1183 H 0.05577 0.08796 0.26103
 H1184 H 0.04444 0.12091 0.29384
 H1185 H 0.07365 0.15853 0.30235
 H1186 H 0.11441 0.16342 0.27809
 C1187 C 0.63372 0.63123 0.74168
 C1188 C 0.61019 0.62885 0.75614
 C1189 C 0.59329 0.60721 0.75145
 C1190 C 0.60005 0.58809 0.73235
 C1191 C 0.62320 0.59088 0.71735
 C1192 C 0.64012 0.61250 0.72204
 C1193 C 0.66331 0.61473 0.70695
 C1194 C 0.66959 0.59611 0.68782
 C1195 C 0.65296 0.57507 0.68314
 C1196 C 0.63002 0.57236 0.69769
 C1197 C 0.56990 0.60518 0.76621
 C1198 C 0.56340 0.62401 0.78505
 C1199 C 0.57995 0.64516 0.78963
 C1200 C 0.60312 0.64765 0.77541
 C1201 C 0.58373 0.56505 0.72888
 C1202 C 0.57046 0.54565 0.72653
 C1203 C 0.65158 0.65271 0.74704
 C1204 C 0.66716 0.67008 0.75057
 H1205 H 0.67683 0.63082 0.70973
 H1206 H 0.68745 0.59804 0.67656
 H1207 H 0.65787 0.56074 0.66817
 H1208 H 0.61770 0.55565 0.69333
 H1209 H 0.55637 0.58911 0.76331
 H1210 H 0.54541 0.62218 0.79613
 H1211 H 0.57481 0.65974 0.80428
 H1212 H 0.61536 0.66445 0.77964
 C1213 C 0.87077 0.13648 0.75095
 C1214 C 0.86863 0.11480 0.76830
 C1215 C 0.88987 0.09699 0.77105
 C1216 C 0.91313 0.10102 0.75650
 C1217 C 0.91509 0.12245 0.73882
 C1218 C 0.89384 0.14022 0.73603
 C1219 C 0.89631 0.16157 0.71834
 C1220 C 0.91913 0.16526 0.70382
 C1221 C 0.93992 0.14790 0.70656
 C1222 C 0.93804 0.12672 0.72382
 C1223 C 0.88734 0.07552 0.78856
 C1224 C 0.86445 0.07176 0.80298
 C1225 C 0.84370 0.08919 0.80033
 C1226 C 0.84565 0.11050 0.78322
 C1227 C 0.93534 0.08364 0.76010
 C1228 C 0.95437 0.06991 0.76272
 C1229 C 0.84967 0.15547 0.74919
 C1230 C 0.83241 0.17155 0.74827
 H1231 H 0.88065 0.17559 0.71550
 H1232 H 0.92067 0.18169 0.69038
 H1233 H 0.95761 0.15086 0.69525
 H1234 H 0.95475 0.11375 0.72523
 H1235 H 0.90296 0.06143 0.79126
 H1236 H 0.86283 0.05522 0.81628
 H1237 H 0.82597 0.08619 0.81159
 H1238 H 0.82897 0.12350 0.78179
 C1239 C 0.37034 0.63668 0.25080
 C1240 C 0.36779 0.61453 0.26747
 C1241 C 0.38906 0.59680 0.27045
 C1242 C 0.41274 0.60140 0.25680
 C1243 C 0.41514 0.62332 0.23981
 C1244 C 0.39387 0.64101 0.23679
 C1245 C 0.39676 0.66287 0.21981
 C1246 C 0.42002 0.66713 0.20619
 C1247 C 0.44085 0.64984 0.20915
 C1248 C 0.43855 0.62816 0.22574
 C1249 C 0.38611 0.57484 0.28727
 C1250 C 0.36280 0.57053 0.30080
 C1251 C 0.34201 0.58789 0.29794
 C1252 C 0.34436 0.60967 0.28149
 C1253 C 0.43487 0.58399 0.26055
 C1254 C 0.45374 0.57012 0.26334
 C1255 C 0.34918 0.65554 0.24885
 C1256 C 0.33187 0.67155 0.24781
 H1257 H 0.38110 0.67686 0.21684
 H1258 H 0.42190 0.68394 0.19328
 H1259 H 0.45889 0.65323 0.19854
 H1260 H 0.45530 0.61528 0.22736
 H1261 H 0.40174 0.56079 0.29011
 H1262 H 0.36087 0.55362 0.31358
 H1263 H 0.32395 0.58446 0.30851
 H1264 H 0.32764 0.62259 0.27986
 C1265 C 0.12970 0.86300 0.75674
 C1266 C 0.13056 0.88303 0.77610
 C1267 C 0.10891 0.90026 0.77930
 C1268 C 0.08655 0.89734 0.76313
 C1269 C 0.08569 0.87728 0.74380
 C1270 C 0.10733 0.86008 0.74059
 C1271 C 0.10598 0.84013 0.72118
 C1272 C 0.08387 0.83725 0.70541
 C1273 C 0.06269 0.85406 0.70856
 C1274 C 0.06348 0.87388 0.72749
 C1275 C 0.11017 0.92010 0.79879
 C1276 C 0.13225 0.92289 0.81464
 C1277 C 0.15346 0.90611 0.81145
 C1278 C 0.15269 0.88630 0.79252
 C1279 C 0.06429 0.91474 0.76632
 C1280 C 0.04526 0.92859 0.76825
 C1281 C 0.15144 0.84490 0.75394
 C1282 C 0.16913 0.82938 0.75207
 H1283 H 0.12196 0.82657 0.71798
 H1284 H 0.08318 0.82189 0.69068
 H1285 H 0.04555 0.85174 0.69628
 H1286 H 0.04649 0.88643 0.72917
 H1287 H 0.09416 0.93365 0.80195
 H1288 H 0.13293 0.93819 0.82944
 H1289 H 0.17060 0.90845 0.82373
 H1290 H 0.16964 0.87367 0.79085
 C1291 C 0.62964 0.36095 0.25786
 C1292 C 0.63010 0.38003 0.27818
 C1293 C 0.60838 0.39711 0.28173
 C1294 C 0.58640 0.39498 0.26494
 C1295 C 0.58593 0.37585 0.24467
 C1296 C 0.60762 0.35879 0.24112
 C1297 C 0.60669 0.33978 0.22077
 C1298 C 0.58492 0.33768 0.20440
 C1299 C 0.56369 0.35436 0.20787
 C1300 C 0.56407 0.37326 0.22773
 C1301 C 0.60922 0.41600 0.30217
 C1302 C 0.63096 0.41804 0.31860
 C1303 C 0.65224 0.40142 0.31507
 C1304 C 0.65188 0.38251 0.29520
 C1305 C 0.56418 0.41236 0.26834
 C1306 C 0.54527 0.42632 0.27038
 C1307 C 0.65145 0.34303 0.25466
 C1308 C 0.66921 0.32765 0.25250
 H1309 H 0.62273 0.32636 0.21728
 H1310 H 0.58454 0.32302 0.18895
 H1311 H 0.54682 0.35265 0.19511
 H1312 H 0.54706 0.38574 0.22963
 H1313 H 0.59315 0.42939 0.30563
 H1314 H 0.63132 0.43263 0.33411
 H1315 H 0.66914 0.40320 0.32778
 H1316 H 0.66886 0.36997 0.29330
 C1317 C 0.86560 0.86646 0.24040
 C1318 C 0.88751 0.87022 0.25698
 C1319 C 0.90454 0.89182 0.25261
 C1320 C 0.89947 0.90957 0.23174
 C1321 C 0.87795 0.90540 0.21470
 C1322 C 0.86100 0.88373 0.21899
 C1323 C 0.83964 0.87992 0.20164
 C1324 C 0.83516 0.89703 0.18069
 C1325 C 0.85165 0.91830 0.17660
 C1326 C 0.87283 0.92255 0.19335
 C1327 C 0.92633 0.89521 0.26947
 C1328 C 0.93113 0.87776 0.29006
 C1329 C 0.91444 0.85667 0.29435
 C1330 C 0.89283 0.85285 0.27807
 C1331 C 0.91580 0.93262 0.22844
 C1332 C 0.92904 0.95206 0.22625
 C1333 C 0.84747 0.84514 0.24541
 C1334 C 0.83168 0.82790 0.24858
 H1335 H 0.82623 0.86366 0.20398
 H1336 H 0.81885 0.89373 0.16755
 H1337 H 0.84805 0.93156 0.16032
 H1338 H 0.88518 0.93931 0.18931
 H1339 H 0.93990 0.91129 0.26687
 H1340 H 0.94791 0.88062 0.30274
 H1341 H 0.91826 0.84317 0.31037
 H1342 H 0.88043 0.83613 0.28214
 C1343 C 0.36397 0.36749 0.74245
 C1344 C 0.38582 0.37116 0.75914
 C1345 C 0.40295 0.39271 0.75487
 C1346 C 0.39802 0.41051 0.73401
 C1347 C 0.37652 0.40646 0.71691
 C1348 C 0.35949 0.38484 0.72109
 C1349 C 0.33817 0.38114 0.70366
 C1350 C 0.33383 0.39831 0.68274
 C1351 C 0.35038 0.41955 0.67876
 C1352 C 0.37152 0.42369 0.69560
 C1353 C 0.42468 0.39600 0.77182
 C1354 C 0.42935 0.37850 0.79239
 C1355 C 0.41257 0.35746 0.79659
 C1356 C 0.39101 0.35374 0.78022
 C1357 C 0.41452 0.43343 0.73071
 C1358 C 0.42791 0.45276 0.72848
 C1359 C 0.34583 0.34614 0.74728
 C1360 C 0.33007 0.32884 0.75030
 H1361 H 0.32471 0.36492 0.70592
 H1362 H 0.31757 0.39508 0.66952
 H1363 H 0.34687 0.43286 0.66251
 H1364 H 0.38392 0.44043 0.69164
 H1365 H 0.43832 0.41203 0.76930
 H1366 H 0.44609 0.38128 0.80514
 H1367 H 0.41628 0.34392 0.81261
 H1368 H 0.37853 0.33706 0.78422
 C1369 C 0.13502 0.23484 0.86809
 C1370 C 0.11024 0.24721 0.86786
 C1371 C 0.09273 0.24349 0.88927
 C1372 C 0.10010 0.22736 0.91075
 C1373 C 0.12455 0.21430 0.91059
 C1374 C 0.14211 0.21811 0.88923
 C1375 C 0.16661 0.20515 0.88970
 C1376 C 0.17354 0.18889 0.91065
 C1377 C 0.15628 0.18498 0.93141
 C1378 C 0.13206 0.19752 0.93151
 C1379 C 0.06814 0.25624 0.88872
 C1380 C 0.06104 0.27217 0.86758
 C1381 C 0.07816 0.27580 0.84662
 C1382 C 0.10252 0.26352 0.84666
 C1383 C 0.08320 0.22528 0.93362
 C1384 C 0.06977 0.22405 0.95310
 C1385 C 0.15347 0.23956 0.84691
 C1386 C 0.16940 0.24300 0.82978
 H1387 H 0.18064 0.20737 0.87390
 H1388 H 0.19233 0.17909 0.91066
 H1389 H 0.16168 0.17216 0.94754
 H1390 H 0.11929 0.19387 0.94811
 H1391 H 0.05415 0.25398 0.90455
 H1392 H 0.04214 0.28175 0.86745
 H1393 H 0.07255 0.28819 0.83024
 H1394 H 0.11517 0.26691 0.82992
 C1395 C 0.63550 0.73445 0.36652
 C1396 C 0.61057 0.74652 0.36611
 C1397 C 0.59304 0.74275 0.38751
 C1398 C 0.60053 0.72690 0.40916
 C1399 C 0.62513 0.71412 0.40915
 C1400 C 0.64271 0.71798 0.38782
 C1401 C 0.66736 0.70532 0.38847
 C1402 C 0.67441 0.68928 0.40956
 C1403 C 0.65712 0.68532 0.43029
 C1404 C 0.63276 0.69758 0.43022
 C1405 C 0.56830 0.75518 0.38678
 C1406 C 0.56107 0.77086 0.36548
 C1407 C 0.57821 0.77454 0.34456
 C1408 C 0.60272 0.76257 0.34477
 C1409 C 0.58359 0.72484 0.43203
 C1410 C 0.57015 0.72362 0.45151
 C1411 C 0.65397 0.73921 0.34532
 C1412 C 0.66992 0.74270 0.32819
 H1413 H 0.68142 0.70759 0.37270
 H1414 H 0.69331 0.67970 0.40970
 H1415 H 0.66261 0.67267 0.44652
 H1416 H 0.61998 0.69389 0.44680
 H1417 H 0.55427 0.75286 0.40257
 H1418 H 0.54205 0.78020 0.36522
 H1419 H 0.57250 0.78673 0.32806
 H1420 H 0.61538 0.76598 0.32804
 C1421 C 0.86627 0.76121 0.86726
 C1422 C 0.87206 0.78663 0.87698
 C1423 C 0.89404 0.79044 0.89368
 C1424 C 0.91011 0.76884 0.90048
 C1425 C 0.90388 0.74331 0.89136
 C1426 C 0.88189 0.73949 0.87470
 C1427 C 0.87614 0.71383 0.86566
 C1428 C 0.89167 0.69253 0.87291
 C1429 C 0.91318 0.69626 0.88921
 C1430 C 0.91932 0.72130 0.89838
 C1431 C 0.89950 0.81602 0.90309
 C1432 C 0.88374 0.83726 0.89613
 C1433 C 0.86233 0.83355 0.87968
 C1434 C 0.85642 0.80856 0.87021
 C1435 C 0.93345 0.77283 0.91625
 C1436 C 0.95310 0.77554 0.92908
 C1437 C 0.84500 0.75761 0.84871
 C1438 C 0.82776 0.75496 0.83276
 H1439 H 0.85957 0.70993 0.85299
 H1440 H 0.88698 0.67304 0.86585
 H1441 H 0.92519 0.67965 0.89479
 H1442 H 0.93623 0.72318 0.91105
 H1443 H 0.91595 0.81986 0.91594
 H1444 H 0.88818 0.85669 0.90352
 H1445 H 0.85016 0.85011 0.87432
 H1446 H 0.83945 0.80664 0.85762
 C1447 C 0.36446 0.26046 0.36763
 C1448 C 0.37068 0.28599 0.37676
 C1449 C 0.39264 0.28980 0.39350
 C1450 C 0.40827 0.26807 0.40094
 C1451 C 0.40155 0.24244 0.39247
 C1452 C 0.37958 0.23863 0.37577
 C1453 C 0.37335 0.21286 0.36741
 C1454 C 0.38839 0.19145 0.37534
 C1455 C 0.40987 0.19517 0.39168
 C1456 C 0.41648 0.22032 0.40020
 C1457 C 0.39854 0.31550 0.40230
 C1458 C 0.38323 0.33685 0.39472
 C1459 C 0.36184 0.33315 0.37824
 C1460 C 0.35551 0.30805 0.36934
 C1461 C 0.43168 0.27205 0.41662
 C1462 C 0.45140 0.27480 0.42934
 C1463 C 0.34327 0.25684 0.34896
 C1464 C 0.32611 0.25423 0.33291
 H1465 H 0.35678 0.20898 0.35474
 H1466 H 0.38333 0.17187 0.36879
 H1467 H 0.42149 0.17847 0.39780
 H1468 H 0.43334 0.22219 0.41293
 H1469 H 0.41498 0.31934 0.41516
 H1470 H 0.38799 0.35637 0.40166
 H1471 H 0.35000 0.34980 0.37241
 H1472 H 0.33858 0.30615 0.35671
 C1473 C 0.13237 0.76463 0.13418
 C1474 C 0.11578 0.78652 0.13838
 C1475 C 0.09444 0.79116 0.12107
 C1476 C 0.08981 0.77386 0.09972
 C1477 C 0.10701 0.75257 0.09496
 C1478 C 0.12834 0.74792 0.11227
 C1479 C 0.14514 0.72639 0.10728
 C1480 C 0.14100 0.70993 0.08573
 C1481 C 0.12016 0.71449 0.06876
 C1482 C 0.10328 0.73552 0.07323
 C1483 C 0.07804 0.81308 0.12571
 C1484 C 0.08260 0.82995 0.14687
 C1485 C 0.10342 0.82538 0.16386
 C1486 C 0.11989 0.80395 0.15976
 C1487 C 0.06667 0.77703 0.08348
 C1488 C 0.04715 0.77879 0.07030
 C1489 C 0.15319 0.75907 0.15277
 C1490 C 0.17015 0.75507 0.16872
 H1491 H 0.16165 0.72209 0.11990
 H1492 H 0.15406 0.69357 0.08218
 H1493 H 0.11705 0.70167 0.05203
 H1494 H 0.08740 0.73832 0.05942
 H1495 H 0.06162 0.81745 0.11300
 H1496 H 0.06990 0.84666 0.15009
 H1497 H 0.10692 0.83856 0.18023
 H1498 H 0.13592 0.80131 0.17343
 C1499 C 0.63259 0.26447 0.63521
 C1500 C 0.61604 0.28645 0.63912
 C1501 C 0.59485 0.29106 0.62159
 C1502 C 0.59033 0.27363 0.60031
 C1503 C 0.60746 0.25222 0.59587
 C1504 C 0.62863 0.24761 0.61340
 C1505 C 0.64534 0.22593 0.60873
 C1506 C 0.64128 0.20931 0.58729
 C1507 C 0.62060 0.21385 0.57011
 C1508 C 0.60381 0.23501 0.57426
 C1509 C 0.57849 0.31306 0.62596
 C1510 C 0.58293 0.33004 0.64705
 C1511 C 0.60358 0.32549 0.66426
 C1512 C 0.62002 0.30399 0.66042
 C1513 C 0.56730 0.27677 0.58389
 C1514 C 0.54780 0.27850 0.57065
 C1515 C 0.65335 0.25905 0.65391
 C1516 C 0.67032 0.25515 0.66991
 H1517 H 0.66172 0.22164 0.62152
 H1518 H 0.65426 0.19284 0.58399
 H1519 H 0.61755 0.20091 0.55347
 H1520 H 0.58806 0.23779 0.56030
 H1521 H 0.56220 0.31743 0.61307
 H1522 H 0.57027 0.34681 0.65006
 H1523 H 0.60698 0.33876 0.68059
 H1524 H 0.63592 0.30137 0.67425
 C1525 C 0.86760 0.23833 0.13532
 C1526 C 0.88459 0.25873 0.12729
 C1527 C 0.90140 0.25492 0.10534
 C1528 C 0.90101 0.23077 0.09148
 C1529 C 0.88459 0.21008 0.10001
 C1530 C 0.86790 0.21383 0.12208
 C1531 C 0.85170 0.19284 0.13031
 C1532 C 0.85200 0.16884 0.11710
 C1533 C 0.86814 0.16526 0.09537
 C1534 C 0.88431 0.18557 0.08683
 C1535 C 0.91817 0.27564 0.09761
 C1536 C 0.91829 0.29944 0.11119
 C1537 C 0.90179 0.30317 0.13263
 C1538 C 0.88509 0.28312 0.14068
 C1539 C 0.91683 0.22767 0.06795
 C1540 C 0.92971 0.22577 0.04816
 C1541 C 0.84909 0.24280 0.15650
 C1542 C 0.83310 0.24605 0.17360
 H1543 H 0.83874 0.19468 0.14707
 H1544 H 0.83962 0.15295 0.12374
 H1545 H 0.86819 0.14661 0.08511
 H1546 H 0.89663 0.18183 0.06991
 H1547 H 0.93140 0.27366 0.08109
 H1548 H 0.93125 0.31506 0.10503
 H1549 H 0.90196 0.32169 0.14311
 H1550 H 0.87267 0.28691 0.15751
 C1551 C 0.36724 0.73877 0.63555
 C1552 C 0.38445 0.75899 0.62756
 C1553 C 0.40141 0.75495 0.60575
 C1554 C 0.40096 0.73074 0.59200
 C1555 C 0.38429 0.71023 0.60048
 C1556 C 0.36744 0.71422 0.62240
 C1557 C 0.35098 0.69340 0.63057
 C1558 C 0.35118 0.66935 0.61747
 C1559 C 0.36748 0.66553 0.59590
 C1560 C 0.38389 0.68567 0.58741
 C1561 C 0.41839 0.77550 0.59805
 C1562 C 0.41858 0.79936 0.61151
 C1563 C 0.40195 0.80332 0.63280
 C1564 C 0.38503 0.78344 0.64082
 C1565 C 0.41692 0.72742 0.56858
 C1566 C 0.42985 0.72539 0.54882
 C1567 C 0.34866 0.74345 0.65665
 C1568 C 0.33263 0.74685 0.67371
 H1569 H 0.33790 0.69542 0.64721
 H1570 H 0.33860 0.65359 0.62407
 H1571 H 0.36745 0.64684 0.58572
 H1572 H 0.39633 0.68174 0.57061
 H1573 H 0.43173 0.77335 0.58164
 H1574 H 0.43170 0.81486 0.60537
 H1575 H 0.40217 0.82190 0.64319
 H1576 H 0.37251 0.78742 0.65754
 C1577 C 0.23180 0.13323 0.86693
 C1578 C 0.20575 0.12918 0.87544
 C1579 C 0.20070 0.11300 0.89768
 C1580 C 0.22173 0.10081 0.91109
 C1581 C 0.24768 0.10410 0.90196
 C1582 C 0.25273 0.12040 0.87983
 C1583 C 0.27885 0.12360 0.87120
 C1584 C 0.29940 0.11100 0.88405
 C1585 C 0.29447 0.09503 0.90568
 C1586 C 0.26896 0.09155 0.91463
 C1587 C 0.17456 0.10954 0.90608
 C1588 C 0.15396 0.12160 0.89278
 C1589 C 0.15887 0.13731 0.87094
 C1590 C 0.18444 0.14116 0.86230
 C1591 C 0.21695 0.08539 0.93464
 C1592 C 0.21407 0.07266 0.95445
 C1593 C 0.23716 0.15162 0.84580
 C1594 C 0.24125 0.16759 0.82880
 H1595 H 0.28365 0.13576 0.85440
 H1596 H 0.31925 0.11363 0.87716
 H1597 H 0.31050 0.08527 0.91559
 H1598 H 0.26615 0.07890 0.93151
 H1599 H 0.16979 0.09745 0.92294
 H1600 H 0.13407 0.11875 0.89946
 H1601 H 0.14280 0.14664 0.86068
 H1602 H 0.18728 0.15356 0.84523
 C1603 C 0.73190 0.63362 0.36572
 C1604 C 0.70581 0.62965 0.37417
 C1605 C 0.70064 0.61334 0.39629
 C1606 C 0.72157 0.60094 0.40966
 C1607 C 0.74756 0.60416 0.40058
 C1608 C 0.75273 0.62058 0.37857
 C1609 C 0.77888 0.62370 0.37000
 C1610 C 0.79935 0.61091 0.38279
 C1611 C 0.79430 0.59482 0.40431
 C1612 C 0.76876 0.59142 0.41320
 C1613 C 0.67447 0.60996 0.40462
 C1614 C 0.65395 0.62223 0.39137
 C1615 C 0.65898 0.63807 0.36966
 C1616 C 0.68459 0.64185 0.36109
 C1617 C 0.71668 0.58543 0.43315
 C1618 C 0.71367 0.57271 0.45295
 C1619 C 0.73737 0.65205 0.34464
 C1620 C 0.74157 0.66800 0.32765
 H1621 H 0.78377 0.63595 0.35330
 H1622 H 0.81922 0.61348 0.37595
 H1623 H 0.81027 0.58491 0.41418
 H1624 H 0.76585 0.57867 0.42999
 H1625 H 0.66960 0.59777 0.42138
 H1626 H 0.63403 0.61943 0.39799
 H1627 H 0.64299 0.64757 0.35944
 H1628 H 0.68752 0.65437 0.34412
 C1629 C 0.77735 0.13065 0.14179
 C1630 C 0.77815 0.10455 0.15137
 C1631 C 0.78397 0.08355 0.13390
 C1632 C 0.78891 0.08877 0.10694
 C1633 C 0.78965 0.11498 0.09773
 C1634 C 0.78376 0.13600 0.11520
 C1635 C 0.78451 0.16206 0.10554
 C1636 C 0.79117 0.16721 0.07941
 C1637 C 0.79700 0.14665 0.06236
 C1638 C 0.79620 0.12078 0.07128
 C1639 C 0.78469 0.05761 0.14393
 C1640 C 0.77996 0.05259 0.17049
 C1641 C 0.77434 0.07315 0.18760
 C1642 C 0.77336 0.09886 0.17826
 C1643 C 0.79180 0.06700 0.08870
 C1644 C 0.79315 0.04809 0.07447
 C1645 C 0.77024 0.15188 0.15948
 C1646 C 0.76472 0.16911 0.17477
 H1647 H 0.78027 0.17869 0.11812
 H1648 H 0.79187 0.18726 0.07240
 H1649 H 0.80221 0.15076 0.04210
 H1650 H 0.80102 0.10543 0.05737
 H1651 H 0.78914 0.04096 0.13144
 H1652 H 0.78070 0.03265 0.17784
 H1653 H 0.77073 0.06917 0.20823
 H1654 H 0.76900 0.11418 0.19237
 C1655 C 0.27596 0.63162 0.64167
 C1656 C 0.27640 0.60547 0.65113
 C1657 C 0.28178 0.58444 0.63353
 C1658 C 0.28667 0.58968 0.60656
 C1659 C 0.28778 0.61593 0.59746
 C1660 C 0.28233 0.63697 0.61506
 C1661 C 0.28348 0.66305 0.60552
 C1662 C 0.29007 0.66820 0.57937
 C1663 C 0.29544 0.64762 0.56218
 C1664 C 0.29424 0.62173 0.57100
 C1665 C 0.28210 0.55845 0.64345
 C1666 C 0.27741 0.55341 0.67001
 C1667 C 0.27222 0.57398 0.68724
 C1668 C 0.27164 0.59974 0.67801
 C1669 C 0.28928 0.56793 0.58822
 C1670 C 0.29045 0.54900 0.57397
 C1671 C 0.26913 0.65288 0.65946
 C1672 C 0.26376 0.67014 0.67481
 H1673 H 0.27961 0.67969 0.61820
 H1674 H 0.29108 0.68828 0.57244
 H1675 H 0.30058 0.65173 0.54191
 H1676 H 0.29870 0.60636 0.55697
 H1677 H 0.28620 0.54178 0.63087
 H1678 H 0.27784 0.53342 0.67727
 H1679 H 0.26864 0.56998 0.70787
 H1680 H 0.26762 0.61508 0.69221
 C1681 C 0.76160 0.86989 0.86643
 C1682 C 0.77803 0.86630 0.88860
 C1683 C 0.78294 0.88766 0.90596
 C1684 C 0.77139 0.91244 0.90101
 C1685 C 0.75492 0.91600 0.87886
 C1686 C 0.74999 0.89466 0.86153
 C1687 C 0.73354 0.89872 0.83945
 C1688 C 0.72231 0.92319 0.83463
 C1689 C 0.72714 0.94408 0.85156
 C1690 C 0.74322 0.94065 0.87345
 C1691 C 0.79952 0.88367 0.92792
 C1692 C 0.81093 0.85925 0.93262
 C1693 C 0.80607 0.83834 0.91569
 C1694 C 0.78987 0.84172 0.89387
 C1695 C 0.77645 0.93444 0.91844
 C1696 C 0.78004 0.95341 0.93216
 C1697 C 0.75726 0.84843 0.84813
 C1698 C 0.75401 0.83106 0.83234
 H1699 H 0.72917 0.88308 0.82571
 H1700 H 0.70979 0.92594 0.81765
 H1701 H 0.71838 0.96306 0.84772
 H1702 H 0.74637 0.95752 0.88601
 H1703 H 0.80385 0.89936 0.94163
 H1704 H 0.82360 0.85654 0.94948
 H1705 H 0.81501 0.81943 0.91941
 H1706 H 0.78676 0.82490 0.88121
 C1707 C 0.25861 0.36923 0.36674
 C1708 C 0.27576 0.36613 0.38843
 C1709 C 0.28029 0.38753 0.40586
 C1710 C 0.26765 0.41188 0.40148
 C1711 C 0.25038 0.41492 0.37987
 C1712 C 0.24584 0.39354 0.36247
 C1713 C 0.22858 0.39710 0.34094
 C1714 C 0.21619 0.42111 0.33670
 C1715 C 0.22064 0.44203 0.35370
 C1716 C 0.23750 0.43909 0.37507
 C1717 C 0.29761 0.38402 0.42732
 C1718 C 0.31008 0.36003 0.43148
 C1719 C 0.30561 0.33910 0.41448
 C1720 C 0.28872 0.34201 0.39313
 C1721 C 0.27256 0.43403 0.41882
 C1722 C 0.27608 0.45312 0.43242
 C1723 C 0.25474 0.34780 0.34826
 C1724 C 0.25183 0.33047 0.33235
 H1725 H 0.22447 0.38141 0.32716
 H1726 H 0.20307 0.42348 0.32014
 H1727 H 0.21098 0.46065 0.35032
 H1728 H 0.24030 0.45597 0.38771
 H1729 H 0.30167 0.39974 0.44108
 H1730 H 0.32330 0.35768 0.44797
 H1731 H 0.31537 0.32051 0.41778
 H1732 H 0.28593 0.32519 0.38040
 C1733 C 0.23392 0.86593 0.13258
 C1734 C 0.25488 0.88062 0.12195
 C1735 C 0.25020 0.89864 0.10110
 C1736 C 0.22457 0.90189 0.09106
 C1737 C 0.20345 0.88794 0.10237
 C1738 C 0.20816 0.86977 0.12310
 C1739 C 0.18678 0.85571 0.13381
 C1740 C 0.16147 0.85975 0.12453
 C1741 C 0.15685 0.87766 0.10440
 C1742 C 0.17755 0.89160 0.09331
 C1743 C 0.27151 0.91297 0.09063
 C1744 C 0.29671 0.90959 0.10049
 C1745 C 0.30128 0.89194 0.12087
 C1746 C 0.28068 0.87756 0.13154
 C1747 C 0.22030 0.91851 0.06823
 C1748 C 0.21749 0.93178 0.04878
 C1749 C 0.23888 0.84648 0.15286
 C1750 C 0.24256 0.83003 0.16950
 H1751 H 0.18935 0.84167 0.14961
 H1752 H 0.14534 0.84899 0.13304
 H1753 H 0.13713 0.88075 0.09731
 H1754 H 0.17301 0.90533 0.07770
 H1755 H 0.26893 0.92699 0.07482
 H1756 H 0.31277 0.92073 0.09228
 H1757 H 0.32089 0.88939 0.12846
 H1758 H 0.28520 0.86410 0.14740
 C1759 C 0.73419 0.36611 0.63354
 C1760 C 0.75522 0.38041 0.62250
 C1761 C 0.75051 0.39838 0.60161
 C1762 C 0.72479 0.40196 0.59192
 C1763 C 0.70363 0.38838 0.60362
 C1764 C 0.70836 0.37027 0.62439
 C1765 C 0.68695 0.35656 0.63547
 C1766 C 0.66157 0.36088 0.62649
 C1767 C 0.65693 0.37874 0.60632
 C1768 C 0.67766 0.39233 0.59488
 C1769 C 0.77189 0.41229 0.59073
 C1770 C 0.79717 0.40856 0.60023
 C1771 C 0.80177 0.39098 0.62066
 C1772 C 0.78111 0.37700 0.63174
 C1773 C 0.72042 0.41853 0.56906
 C1774 C 0.71748 0.43172 0.54957
 C1775 C 0.73915 0.34668 0.65385
 C1776 C 0.74283 0.33023 0.67049
 H1777 H 0.68953 0.34259 0.65132
 H1778 H 0.64541 0.35040 0.63529
 H1779 H 0.63716 0.38205 0.59947
 H1780 H 0.67310 0.40603 0.57924
 H1781 H 0.76929 0.42624 0.57486
 H1782 H 0.81329 0.41939 0.59170
 H1783 H 0.82145 0.38816 0.62798
 H1784 H 0.78565 0.36357 0.64762
 C1785 C 0.13084 0.13491 0.75404
 C1786 C 0.11025 0.13544 0.73542
 C1787 C 0.08895 0.11775 0.73795
 C1788 C 0.08836 0.09961 0.75911
 C1789 C 0.10920 0.09872 0.77744
 C1790 C 0.13053 0.11643 0.77490
 C1791 C 0.15110 0.11526 0.79353
 C1792 C 0.15066 0.09702 0.81400
 C1793 C 0.12977 0.07976 0.81652
 C1794 C 0.10922 0.08052 0.79850
 C1795 C 0.06849 0.11877 0.71917
 C1796 C 0.06910 0.13674 0.69848
 C1797 C 0.08994 0.15404 0.69600
 C1798 C 0.11033 0.15349 0.71420
 C1799 C 0.06590 0.08251 0.76227
 C1800 C 0.04663 0.06907 0.76434
 C1801 C 0.15189 0.15390 0.75215
 C1802 C 0.16903 0.17005 0.75078
 H1803 H 0.16775 0.12830 0.79242
 H1804 H 0.16662 0.09625 0.82798
 H1805 H 0.12951 0.06568 0.83249
 H1806 H 0.09342 0.06665 0.80120
 H1807 H 0.05186 0.10571 0.72022
 H1808 H 0.05330 0.13724 0.68429
 H1809 H 0.09033 0.16796 0.67989
 H1810 H 0.12613 0.16733 0.71141
 C1811 C 0.63253 0.63390 0.25354
 C1812 C 0.61187 0.63415 0.23498
 C1813 C 0.59062 0.61643 0.23782
 C1814 C 0.59015 0.59857 0.25920
 C1815 C 0.61108 0.59792 0.27744
 C1816 C 0.63236 0.61564 0.27460
 C1817 C 0.65303 0.61469 0.29312
 C1818 C 0.65274 0.59667 0.31379
 C1819 C 0.63188 0.57942 0.31661
 C1820 C 0.61122 0.57996 0.29871
 C1821 C 0.57011 0.61717 0.21909
 C1822 C 0.57059 0.63489 0.19817
 C1823 C 0.59139 0.65221 0.19541
 C1824 C 0.61183 0.65194 0.21354
 C1825 C 0.56770 0.58152 0.26270
 C1826 C 0.54840 0.56816 0.26503
 C1827 C 0.65349 0.65297 0.25138
 C1828 C 0.67055 0.66919 0.24979
 H1829 H 0.66966 0.62774 0.29177
 H1830 H 0.66879 0.59606 0.32767
 H1831 H 0.63172 0.56551 0.33274
 H1832 H 0.59546 0.56610 0.30165
 H1833 H 0.55351 0.60408 0.22035
 H1834 H 0.55475 0.63516 0.18403
 H1835 H 0.59169 0.66592 0.17912
 H1836 H 0.62759 0.66578 0.21053
 C1837 C 0.13423 0.86532 0.23111
 C1838 C 0.14044 0.88491 0.21232
 C1839 C 0.12294 0.90617 0.20805
 C1840 C 0.09939 0.90770 0.22262
 C1841 C 0.09251 0.88733 0.24028
 C1842 C 0.11000 0.86606 0.24454
 C1843 C 0.10283 0.84603 0.26244
 C1844 C 0.07902 0.84697 0.27575
 C1845 C 0.06192 0.86779 0.27160
 C1846 C 0.06850 0.88782 0.25412
 C1847 C 0.12963 0.92566 0.18937
 C1848 C 0.15300 0.92423 0.17532
 C1849 C 0.17018 0.90352 0.17959
 C1850 C 0.16405 0.88397 0.19778
 C1851 C 0.08310 0.93097 0.22073
 C1852 C 0.07006 0.95067 0.21996
 C1853 C 0.15313 0.84493 0.23711
 C1854 C 0.16934 0.82837 0.24165
 H1855 H 0.11548 0.82941 0.26625
 H1856 H 0.07381 0.83144 0.28933
 H1857 H 0.04344 0.86842 0.28197
 H1858 H 0.05453 0.90356 0.25147
 H1859 H 0.11686 0.94213 0.18535
 H1860 H 0.15781 0.93929 0.16108
 H1861 H 0.18837 0.90258 0.16873
 H1862 H 0.17797 0.86815 0.20025
 C1863 C 0.63429 0.36550 0.73382
 C1864 C 0.63998 0.38511 0.71489
 C1865 C 0.62223 0.40624 0.71092
 C1866 C 0.59893 0.40763 0.72591
 C1867 C 0.59262 0.38731 0.74384
 C1868 C 0.61037 0.36617 0.74781
 C1869 C 0.60375 0.34621 0.76601
 C1870 C 0.58024 0.34706 0.77985
 C1871 C 0.56289 0.36773 0.77597
 C1872 C 0.56892 0.38769 0.75821
 C1873 C 0.62843 0.42574 0.69207
 C1874 C 0.65155 0.42446 0.67759
 C1875 C 0.66897 0.40389 0.68157
 C1876 C 0.66332 0.38433 0.69990
 C1877 C 0.58233 0.43072 0.72413
 C1878 C 0.56914 0.45035 0.72333
 C1879 C 0.65339 0.34512 0.73934
 C1880 C 0.66972 0.32854 0.74348
 H1881 H 0.61661 0.32971 0.76964
 H1882 H 0.57546 0.33160 0.79366
 H1883 H 0.54465 0.36829 0.78676
 H1884 H 0.55477 0.40331 0.75578
 H1885 H 0.61547 0.44211 0.68826
 H1886 H 0.65600 0.43954 0.66325
 H1887 H 0.68696 0.40308 0.67038
 H1888 H 0.67740 0.36862 0.70214
 C1889 C 0.86833 0.13446 0.24135
 C1890 C 0.86631 0.11982 0.21768
 C1891 C 0.88282 0.09775 0.21353
 C1892 C 0.90138 0.09062 0.23296
 C1893 C 0.90408 0.10588 0.25614
 C1894 C 0.88744 0.12784 0.26037
 C1895 C 0.89029 0.14266 0.28380
 C1896 C 0.90913 0.13601 0.30249
 C1897 C 0.92544 0.11456 0.29833
 C1898 C 0.92302 0.09958 0.27547
 C1899 C 0.88022 0.08318 0.18991
 C1900 C 0.86198 0.09036 0.17081
 C1901 C 0.84601 0.11209 0.17476
 C1902 C 0.84796 0.12665 0.19793
 C1903 C 0.91709 0.06713 0.22958
 C1904 C 0.92988 0.04738 0.22729
 C1905 C 0.85007 0.15566 0.24640
 C1906 C 0.83412 0.17271 0.24989
 H1907 H 0.87810 0.15955 0.28786
 H1908 H 0.91108 0.14758 0.32028
 H1909 H 0.94006 0.10950 0.31290
 H1910 H 0.93620 0.08312 0.27310
 H1911 H 0.89232 0.06620 0.18590
 H1912 H 0.86030 0.07907 0.15281
 H1913 H 0.83206 0.11772 0.15977
 H1914 H 0.83506 0.14337 0.20007
 C1915 C 0.36761 0.63530 0.74133
 C1916 C 0.36558 0.62034 0.71786
 C1917 C 0.38220 0.59830 0.71391
 C1918 C 0.40086 0.59147 0.73337
 C1919 C 0.40357 0.60706 0.75633
 C1920 C 0.38685 0.62900 0.76035
 C1921 C 0.38973 0.64414 0.78356
 C1922 C 0.40867 0.63782 0.80226
 C1923 C 0.42507 0.61640 0.79831
 C1924 C 0.42262 0.60111 0.77566
 C1925 C 0.37959 0.58345 0.69047
 C1926 C 0.36123 0.59031 0.67136
 C1927 C 0.34513 0.61198 0.67512
 C1928 C 0.34711 0.62684 0.69810
 C1929 C 0.41659 0.56792 0.73030
 C1930 C 0.42936 0.54810 0.72836
 C1931 C 0.34926 0.65650 0.74621
 C1932 C 0.33331 0.67358 0.74965
 H1933 H 0.37748 0.66104 0.78745
 H1934 H 0.41066 0.64964 0.81988
 H1935 H 0.43977 0.61159 0.81288
 H1936 H 0.43587 0.58468 0.77345
 H1937 H 0.39178 0.56650 0.68661
 H1938 H 0.35955 0.57880 0.65350
 H1939 H 0.33107 0.61733 0.66014
 H1940 H 0.33413 0.64351 0.70010
 C1941 C 0.86728 0.86319 0.75815
 C1942 C 0.89177 0.85625 0.74717
 C1943 C 0.91338 0.87358 0.74966
 C1944 C 0.91036 0.89778 0.76310
 C1945 C 0.88584 0.90480 0.77396
 C1946 C 0.86423 0.88742 0.77151
 C1947 C 0.83995 0.89476 0.78269
 C1948 C 0.83709 0.91860 0.79587
 C1949 C 0.85821 0.93561 0.79821
 C1950 C 0.88236 0.92889 0.78742
 C1951 C 0.93771 0.86612 0.73864
 C1952 C 0.94061 0.84225 0.72553
 C1953 C 0.91947 0.82531 0.72307
 C1954 C 0.89529 0.83212 0.73372
 C1955 C 0.93265 0.91516 0.76586
 C1956 C 0.95180 0.92880 0.76767
 C1957 C 0.84553 0.84502 0.75626
 C1958 C 0.82801 0.82928 0.75487
 H1959 H 0.82296 0.88218 0.78134
 H1960 H 0.81838 0.92391 0.80431
 H1961 H 0.85588 0.95412 0.80845
 H1962 H 0.89823 0.94273 0.78975
 H1963 H 0.95476 0.87861 0.74002
 H1964 H 0.95936 0.83687 0.71724
 H1965 H 0.92180 0.80679 0.71287
 H1966 H 0.87945 0.81828 0.73128
 C1967 C 0.36616 0.36268 0.25974
 C1968 C 0.39152 0.35423 0.25240
 C1969 C 0.41311 0.37154 0.25512
 C1970 C 0.40924 0.39721 0.26515
 C1971 C 0.38390 0.40567 0.27249
 C1972 C 0.36228 0.38833 0.26978
 C1973 C 0.33714 0.39716 0.27735
 C1974 C 0.33346 0.42242 0.28728
 C1975 C 0.35459 0.43938 0.28989
 C1976 C 0.37957 0.43120 0.28261
 C1977 C 0.43830 0.36260 0.24773
 C1978 C 0.44203 0.33731 0.23795
 C1979 C 0.42091 0.32038 0.23529
 C1980 C 0.39591 0.32864 0.24239
 C1981 C 0.43146 0.41470 0.26789
 C1982 C 0.45065 0.42830 0.26969
 C1983 C 0.34430 0.34467 0.25745
 C1984 C 0.32674 0.32900 0.25574
 H1985 H 0.32012 0.38468 0.27566
 H1986 H 0.31409 0.42887 0.29297
 H1987 H 0.35161 0.45898 0.29760
 H1988 H 0.39541 0.44505 0.28503
 H1989 H 0.45538 0.37501 0.24943
 H1990 H 0.46142 0.33081 0.23242
 H1991 H 0.42390 0.30075 0.22768
 H1992 H 0.38012 0.31473 0.23993
   
