data_POSCAR
  _audit_creation_date              2014-09-24
  _audit_creation_method            'ToBaCCo'
  _symmetry_space_group_name_H-M    'P1'
  _symmetry_Int_Tables_number       1
  _symmetry_cell_setting            triclinic
  loop_
  _symmetry_equiv_pos_as_xyz
 x,y,z
_cell_length_a 55.3741
_cell_length_b 55.3723
_cell_length_c 55.4274
_cell_angle_alpha 90.013800
_cell_angle_beta 90.016600
_cell_angle_gamma 90.016700
loop_
  _atom_site_label
  _atom_site_type_symbol
  _atom_site_fract_x
  _atom_site_fract_y
  _atom_site_fract_z
O1 O 0.31596 0.34957 0.02296
 O2 O 0.34910 0.31653 -0.02385
 O3 O 0.31589 0.34982 -0.02366
 O4 O 0.34925 0.31638 0.02277
 O5 O 0.32115 0.28799 0.02287
 O6 O 0.28750 0.32173 -0.02390
 O7 O 0.32100 0.28814 -0.02408
 O8 O 0.28757 0.32147 0.02305
 Cu9 Cu 0.33537 0.33590 -0.00044
 Cu10 Cu 0.30143 0.30196 -0.00053
 C11 C 0.29608 0.34132 0.03073
 C12 C 0.34087 0.29665 -0.03168
 C13 C 0.29596 0.34166 -0.03144
 C14 C 0.34105 0.29645 0.03049
 O15 O 0.65099 0.68352 -0.02393
 O16 O 0.68412 0.65046 0.02287
 O17 O 0.65090 0.68372 0.02269
 O18 O 0.68413 0.65016 -0.02376
 O19 O 0.71257 0.67820 -0.02403
 O20 O 0.67905 0.71205 0.02275
 O21 O 0.71256 0.67850 0.02292
 O22 O 0.67914 0.71186 -0.02420
 Cu23 Cu 0.66470 0.66415 -0.00053
 Cu24 Cu 0.69871 0.69802 -0.00065
 C25 C 0.65924 0.70337 -0.03178
 C26 C 0.70403 0.65867 0.03062
 C27 C 0.65914 0.70364 0.03039
 C28 C 0.70406 0.65828 -0.03156
 O29 O 0.65097 0.31646 1.02391
 O30 O 0.68412 0.34954 0.97714
 O31 O 0.65086 0.31631 0.97729
 O32 O 0.68415 0.34979 1.02377
 O33 O 0.71256 0.32173 1.02401
 O34 O 0.67897 0.28795 0.97720
 O35 O 0.71253 0.32147 0.97706
 O36 O 0.67908 0.28810 1.02416
 Cu37 Cu 0.66470 0.33585 1.00052
 Cu38 Cu 0.69866 0.30194 1.00062
 C39 C 0.65920 0.29660 1.03174
 C40 C 0.70401 0.34131 0.96938
 C41 C 0.65907 0.29639 0.96956
 C42 C 0.70407 0.34165 1.03156
 O43 O 0.31617 0.65020 0.97721
 O44 O 0.34941 0.68332 1.02395
 O45 O 0.31621 0.64998 1.02384
 O46 O 0.34943 0.68345 0.97733
 O47 O 0.32132 0.71181 0.97727
 O48 O 0.28780 0.67804 1.02411
 O49 O 0.32129 0.71167 1.02422
 O50 O 0.28777 0.67828 0.97716
 Cu51 Cu 0.33563 0.66392 1.00058
 Cu52 Cu 0.30167 0.69782 1.00071
 C53 C 0.29626 0.65843 0.96948
 C54 C 0.34119 0.70319 1.03179
 C55 C 0.29629 0.65813 1.03165
 C56 C 0.34121 0.70337 0.96962
 O57 O -0.02364 0.34915 0.31630
 O58 O 0.02321 0.31615 0.34946
 O59 O 0.02303 0.34939 0.31623
 O60 O -0.02346 0.31599 0.34960
 O61 O -0.02359 0.28756 0.32157
 O62 O 0.02323 0.32125 0.28791
 O63 O 0.02340 0.28772 0.32142
 O64 O -0.02377 0.32101 0.28798
 Cu65 Cu -0.00022 0.33550 0.33571
 Cu66 Cu -0.00018 0.30151 0.30185
 C67 C -0.03143 0.34089 0.29645
 C68 C 0.03103 0.29626 0.34127
 C69 C 0.03080 0.34119 0.29634
 C70 C -0.03120 0.29604 0.34145
 O71 O 0.02328 0.68360 0.65041
 O72 O -0.02362 0.65066 0.68355
 O73 O -0.02338 0.68375 0.65018
 O74 O 0.02305 0.65041 0.68369
 O75 O 0.02324 0.67860 0.71196
 O76 O -0.02352 0.71223 0.67816
 O77 O -0.02376 0.67885 0.71182
 O78 O 0.02347 0.71208 0.67839
 Cu79 Cu -0.00017 0.66427 0.66415
 Cu80 Cu -0.00014 0.69832 0.69795
 C81 C 0.03111 0.70350 0.65857
 C82 C -0.03143 0.65896 0.70338
 C83 C -0.03111 0.70372 0.65828
 C84 C 0.03081 0.65865 0.70357
 O85 O 1.02366 0.65086 0.31627
 O86 O 0.97685 0.68387 0.34945
 O87 O 0.97699 0.65067 0.31618
 O88 O 1.02351 0.68398 0.34962
 O89 O 1.02367 0.71244 0.32164
 O90 O 0.97682 0.67884 0.28790
 O91 O 0.97668 0.71233 0.32147
 O92 O 1.02382 0.67903 0.28799
 Cu93 Cu 1.00026 0.66451 0.33569
 Cu94 Cu 1.00024 0.69854 0.30189
 C95 C 1.03146 0.65915 0.29643
 C96 C 0.96905 0.70378 0.34129
 C97 C 0.96922 0.65890 0.29631
 C98 C 1.03127 0.70393 0.34151
 O99 O 0.97655 0.31630 0.65009
 O100 O 1.02338 0.34928 0.68337
 O101 O 1.02322 0.31616 0.65000
 O102 O 0.97670 0.34949 0.68339
 O103 O 0.97647 0.32131 0.71165
 O104 O 1.02331 0.28769 0.67797
 O105 O 1.02347 0.32109 0.71163
 O106 O 0.97633 0.28783 0.67807
 Cu107 Cu 0.99997 0.33564 0.66390
 Cu108 Cu 0.99989 0.30160 0.69769
 C109 C 0.96872 0.29639 0.65823
 C110 C 1.03115 0.34098 0.70321
 C111 C 1.03094 0.29620 0.65811
 C112 C 0.96891 0.34126 0.70325
 O113 O 0.34910 0.02361 0.31623
 O114 O 0.31604 -0.02332 0.34921
 O115 O 0.34936 -0.02306 0.31608
 O116 O 0.31589 0.02335 0.34949
 O117 O 0.28752 0.02351 0.32140
 O118 O 0.32128 -0.02323 0.28770
 O119 O 0.28766 -0.02349 0.32112
 O120 O 0.32101 0.02377 0.28786
 Cu121 Cu 0.33542 0.00015 0.33557
 Cu122 Cu 0.30150 0.00014 0.30165
 C123 C 0.34087 0.03143 0.29637
 C124 C 0.29617 -0.03115 0.34096
 C125 C 0.34120 -0.03080 0.29616
 C126 C 0.29596 0.03108 0.34132
 O127 O 0.65090 0.02362 0.68378
 O128 O 0.68404 -0.02329 0.65083
 O129 O 0.65074 -0.02306 0.68398
 O130 O 0.68408 0.02338 0.65049
 O131 O 0.71248 0.02366 0.67855
 O132 O 0.67884 -0.02311 0.71234
 O133 O 0.71243 -0.02334 0.67890
 O134 O 0.67902 0.02389 0.71213
 Cu135 Cu 0.66461 0.00015 0.66445
 Cu136 Cu 0.69857 0.00029 0.69835
 C137 C 0.65914 0.03149 0.70362
 C138 C 0.70392 -0.03105 0.65907
 C139 C 0.65893 -0.03075 0.70391
 C140 C 0.70401 0.03117 0.65863
 O141 O 0.34880 0.97645 0.68419
 O142 O 0.31562 1.02323 0.65110
 O143 O 0.34893 1.02311 0.68426
 O144 O 0.31559 0.97656 0.65091
 O145 O 0.28721 0.97636 0.67897
 O146 O 0.32086 1.02325 0.71262
 O147 O 0.28724 1.02336 0.67918
 O148 O 0.32071 0.97626 0.71255
 Cu149 Cu 0.33506 0.99984 0.66479
 Cu150 Cu 0.30113 0.99980 0.69870
 C151 C 0.34058 0.96864 0.70405
 C152 C 0.29573 1.03101 0.65933
 C153 C 0.34076 1.03087 0.70416
 C154 C 0.29568 0.96878 0.65908
 O155 O 0.68409 1.02364 0.34973
 O156 O 0.65100 0.97688 0.31646
 O157 O 0.68417 0.97697 0.34978
 O158 O 0.65083 1.02356 0.31651
 O159 O 0.67896 1.02380 0.28819
 O160 O 0.71259 0.97688 0.32176
 O161 O 0.67914 0.97680 0.28815
 O162 O 0.71251 1.02388 0.32171
 Cu163 Cu 0.66470 1.00025 0.33594
 Cu164 Cu 0.69868 1.00035 0.30209
 C165 C 0.70399 1.03147 0.34157
 C166 C 0.65926 0.96913 0.29659
 C167 C 0.70410 0.96924 0.34162
 C168 C 0.65903 1.03137 0.29664
 C169 C 0.79201 0.86368 0.47847
 C170 C 0.78329 0.87245 0.50041
 C171 C 0.79194 0.86365 0.52237
 C172 C 0.80980 0.84547 0.52266
 C173 C 0.81879 0.83634 0.50048
 C174 C 0.80986 0.84547 0.47825
 C175 C 0.81909 0.83626 0.45650
 C176 C 0.83686 0.81844 0.45654
 C177 C 0.84602 0.80924 0.47834
 C178 C 0.83689 0.81822 0.50052
 C179 C 0.81898 0.83629 0.54446
 C180 C 0.83678 0.81850 0.54450
 C181 C 0.84600 0.80927 0.52275
 C182 C 0.86419 0.79140 0.52252
 C183 C 0.87296 0.78268 0.50059
 C184 C 0.86419 0.79136 0.47863
 H185 H 0.81266 0.84279 0.43925
 H186 H 0.84341 0.81196 0.43931
 H187 H 0.81250 0.84283 0.56169
 H188 H 0.84330 0.81205 0.56176
 H189 H 0.76967 0.88657 0.50040
 H190 H 0.88706 0.76905 0.50060
 C191 C 0.20786 0.13613 0.47844
 C192 C 0.21655 0.12732 0.50037
 C193 C 0.20789 0.13610 0.52233
 C194 C 0.19006 0.15431 0.52264
 C195 C 0.18110 0.16348 0.50046
 C196 C 0.19004 0.15437 0.47823
 C197 C 0.18084 0.16363 0.45648
 C198 C 0.16310 0.18146 0.45652
 C199 C 0.15393 0.19066 0.47832
 C200 C 0.16303 0.18163 0.50051
 C201 C 0.18087 0.16348 0.54444
 C202 C 0.16310 0.18130 0.54449
 C203 C 0.15391 0.19057 0.52273
 C204 C 0.13575 0.20847 0.52252
 C205 C 0.12701 0.21722 0.50058
 C206 C 0.13579 0.20856 0.47862
 H207 H 0.18728 0.15711 0.43922
 H208 H 0.15658 0.18798 0.43930
 H209 H 0.18732 0.15690 0.56167
 H210 H 0.15657 0.18774 0.56174
 H211 H 0.23014 0.11319 0.50035
 H212 H 0.11293 0.23087 0.50059
 C213 C 0.20829 0.86359 0.47779
 C214 C 0.21691 0.87236 0.49977
 C215 C 0.20817 0.86355 0.52168
 C216 C 0.19034 0.84531 0.52185
 C217 C 0.18144 0.83620 0.49960
 C218 C 0.19044 0.84538 0.47744
 C219 C 0.18127 0.83622 0.45561
 C220 C 0.16349 0.81841 0.45553
 C221 C 0.15426 0.80914 0.47726
 C222 C 0.16335 0.81806 0.49951
 C223 C 0.18110 0.83605 0.54358
 C224 C 0.16335 0.81821 0.54349
 C225 C 0.15421 0.80903 0.52167
 C226 C 0.13605 0.79113 0.52132
 C227 C 0.12729 0.78249 0.49935
 C228 C 0.13608 0.79125 0.47743
 H229 H 0.18776 0.84280 0.43840
 H230 H 0.15698 0.81198 0.43826
 H231 H 0.18752 0.84257 0.56085
 H232 H 0.15679 0.81170 0.56070
 H233 H 0.23051 0.88650 0.49982
 H234 H 0.11320 0.76884 0.49930
 C235 C 0.79180 0.13607 0.52119
 C236 C 0.78306 0.12725 0.49927
 C237 C 0.79170 0.13601 0.47730
 C238 C 0.80957 0.15420 0.47696
 C239 C 0.81857 0.16337 0.49913
 C240 C 0.80965 0.15429 0.52137
 C241 C 0.81889 0.16356 0.54311
 C242 C 0.83665 0.18138 0.54304
 C243 C 0.84581 0.19054 0.52122
 C244 C 0.83667 0.18150 0.49905
 C245 C 0.81875 0.16334 0.45515
 C246 C 0.83655 0.18113 0.45507
 C247 C 0.84578 0.19041 0.47681
 C248 C 0.86397 0.20829 0.47700
 C249 C 0.87275 0.21706 0.49893
 C250 C 0.86398 0.20843 0.52090
 H251 H 0.81246 0.15706 0.56038
 H252 H 0.84321 0.18790 0.56025
 H253 H 0.81225 0.15675 0.43793
 H254 H 0.84307 0.18755 0.43781
 H255 H 0.76943 0.11314 0.49932
 H256 H 0.88684 0.23070 0.49889
 C257 C 0.52177 0.79142 0.86384
 C258 C 0.49980 0.78276 0.87264
 C259 C 0.47784 0.79153 0.86394
 C260 C 0.47761 0.80944 0.84580
 C261 C 0.49985 0.81838 0.83668
 C262 C 0.52206 0.80934 0.84574
 C263 C 0.54387 0.81855 0.83657
 C264 C 0.54390 0.83640 0.81886
 C265 C 0.52212 0.84566 0.80969
 C266 C 0.49988 0.83653 0.81863
 C267 C 0.45582 0.81871 0.83664
 C268 C 0.45586 0.83652 0.81889
 C269 C 0.47767 0.84570 0.80969
 C270 C 0.47796 0.86391 0.79187
 C271 C 0.49993 0.87270 0.78322
 C272 C 0.52189 0.86390 0.79190
 H273 H 0.56112 0.81203 0.84307
 H274 H 0.56117 0.84293 0.81242
 H275 H 0.43856 0.81227 0.84318
 H276 H 0.43861 0.84310 0.81245
 H277 H 0.49980 0.76910 0.88670
 H278 H 0.49994 0.88683 0.76963
 C279 C 0.52191 0.13660 0.20865
 C280 C 0.49995 0.12783 0.21735
 C281 C 0.47798 0.13657 0.20865
 C282 C 0.47769 0.15471 0.19075
 C283 C 0.49990 0.16384 0.18179
 C284 C 0.52214 0.15477 0.19077
 C285 C 0.54393 0.16399 0.18157
 C286 C 0.54389 0.18176 0.16378
 C287 C 0.52208 0.19092 0.15456
 C288 C 0.49987 0.18192 0.16366
 C289 C 0.45588 0.16383 0.18150
 C290 C 0.45585 0.18156 0.16367
 C291 C 0.47763 0.19081 0.15448
 C292 C 0.47786 0.20862 0.13626
 C293 C 0.49983 0.21736 0.12753
 C294 C 0.52180 0.20875 0.13637
 H295 H 0.56119 0.15750 0.18805
 H296 H 0.56114 0.18825 0.15725
 H297 H 0.43863 0.15727 0.18796
 H298 H 0.43858 0.18797 0.15710
 H299 H 0.49996 0.11375 0.23099
 H300 H 0.49982 0.23096 0.11341
 C301 C 0.52218 0.20864 0.86378
 C302 C 0.50023 0.21739 0.87252
 C303 C 0.47825 0.20875 0.86372
 C304 C 0.47795 0.19086 0.84557
 C305 C 0.50015 0.18186 0.83646
 C306 C 0.52240 0.19079 0.84558
 C307 C 0.54417 0.18156 0.83637
 C308 C 0.54412 0.16378 0.81857
 C309 C 0.52230 0.15461 0.80938
 C310 C 0.50010 0.16374 0.81837
 C311 C 0.45612 0.18166 0.83641
 C312 C 0.45608 0.16383 0.81866
 C313 C 0.47785 0.15461 0.80944
 C314 C 0.47806 0.13638 0.79162
 C315 C 0.50001 0.12762 0.78289
 C316 C 0.52200 0.13643 0.79152
 H317 H 0.56144 0.18800 0.84290
 H318 H 0.56137 0.15724 0.81209
 H319 H 0.43888 0.18815 0.84294
 H320 H 0.43880 0.15730 0.81223
 H321 H 0.50025 0.23102 0.88662
 H322 H 0.49999 0.11351 0.76928
 C323 C 0.47840 0.86403 0.20820
 C324 C 0.50035 0.87285 0.21690
 C325 C 0.52233 0.86409 0.20824
 C326 C 0.52264 0.84590 0.19039
 C327 C 0.50043 0.83671 0.18144
 C328 C 0.47818 0.84580 0.19038
 C329 C 0.45641 0.83653 0.18119
 C330 C 0.45646 0.81869 0.16346
 C331 C 0.47828 0.80952 0.15428
 C332 C 0.50048 0.81857 0.16336
 C333 C 0.54446 0.83675 0.18119
 C334 C 0.54450 0.81896 0.16341
 C335 C 0.52273 0.80967 0.15423
 C336 C 0.52251 0.79178 0.13607
 C337 C 0.50056 0.78299 0.12735
 C338 C 0.47858 0.79161 0.13615
 H339 H 0.43914 0.84303 0.18763
 H340 H 0.43921 0.81216 0.15694
 H341 H 0.56170 0.84334 0.18765
 H342 H 0.56177 0.81254 0.15687
 H343 H 0.50033 0.88697 0.23050
 H344 H 0.50057 0.76933 0.11328
 C345 C 0.86353 0.47808 0.79152
 C346 C 0.87226 0.50004 0.78275
 C347 C 0.86350 0.52202 0.79142
 C348 C 0.84539 0.52233 0.80933
 C349 C 0.83630 0.50013 0.81837
 C350 C 0.84540 0.47788 0.80944
 C351 C 0.83623 0.45611 0.81873
 C352 C 0.81850 0.45616 0.83656
 C353 C 0.80933 0.47799 0.84573
 C354 C 0.81826 0.50019 0.83654
 C355 C 0.83624 0.54416 0.81852
 C356 C 0.81852 0.54421 0.83637
 C357 C 0.80934 0.52245 0.84564
 C358 C 0.79155 0.52224 0.86389
 C359 C 0.78288 0.50029 0.87273
 C360 C 0.79153 0.47830 0.86396
 H361 H 0.84275 0.43883 0.81229
 H362 H 0.81206 0.43892 0.84316
 H363 H 0.84275 0.56140 0.81199
 H364 H 0.81209 0.56149 0.84288
 H365 H 0.88632 0.50001 0.76909
 H366 H 0.76931 0.50031 0.88687
 C367 C 0.13630 0.47812 0.20832
 C368 C 0.12756 0.50008 0.21707
 C369 C 0.13637 0.52206 0.20845
 C370 C 0.15454 0.52236 0.19059
 C371 C 0.16363 0.50016 0.18156
 C372 C 0.15449 0.47791 0.19046
 C373 C 0.16366 0.45614 0.18118
 C374 C 0.18145 0.45619 0.16341
 C375 C 0.19067 0.47801 0.15428
 C376 C 0.18173 0.50021 0.16345
 C377 C 0.16374 0.54419 0.18144
 C378 C 0.18150 0.54424 0.16364
 C379 C 0.19069 0.52247 0.15438
 C380 C 0.20854 0.52225 0.13618
 C381 C 0.21722 0.50030 0.12737
 C382 C 0.20852 0.47832 0.13611
 H383 H 0.15711 0.43886 0.18759
 H384 H 0.18790 0.43894 0.15683
 H385 H 0.15722 0.56143 0.18796
 H386 H 0.18797 0.56151 0.15715
 H387 H 0.11347 0.50006 0.23069
 H388 H 0.23083 0.50032 0.11327
 C389 C 0.86370 0.52192 0.20834
 C390 C 0.87244 0.49998 0.21711
 C391 C 0.86365 0.47799 0.20848
 C392 C 0.84550 0.47767 0.19059
 C393 C 0.83641 0.49987 0.18155
 C394 C 0.84554 0.52212 0.19046
 C395 C 0.83636 0.54389 0.18117
 C396 C 0.81860 0.54383 0.16337
 C397 C 0.80939 0.52200 0.15422
 C398 C 0.81833 0.49980 0.16341
 C399 C 0.83632 0.45584 0.18142
 C400 C 0.81857 0.45578 0.16359
 C401 C 0.80939 0.47754 0.15432
 C402 C 0.79157 0.47774 0.13609
 C403 C 0.78289 0.49969 0.12726
 C404 C 0.79156 0.52168 0.13602
 H405 H 0.84290 0.56117 0.18759
 H406 H 0.81215 0.56107 0.15678
 H407 H 0.84283 0.43860 0.18795
 H408 H 0.81212 0.43850 0.15709
 H409 H 0.88653 0.50001 0.23075
 H410 H 0.76929 0.49966 0.11313
 C411 C 0.13612 0.47783 0.79172
 C412 C 0.12735 0.49982 0.78309
 C413 C 0.13610 0.52177 0.79187
 C414 C 0.15426 0.52197 0.80976
 C415 C 0.16336 0.49970 0.81867
 C416 C 0.15426 0.47751 0.80962
 C417 C 0.16342 0.45568 0.81878
 C418 C 0.18116 0.45561 0.83661
 C419 C 0.19037 0.47738 0.84589
 C420 C 0.18144 0.49964 0.83681
 C421 C 0.16345 0.54373 0.81905
 C422 C 0.18122 0.54367 0.83686
 C423 C 0.19040 0.52183 0.84600
 C424 C 0.20824 0.52151 0.86420
 C425 C 0.21689 0.49952 0.87295
 C426 C 0.20820 0.47758 0.86412
 H427 H 0.15688 0.43844 0.81225
 H428 H 0.18760 0.43834 0.84312
 H429 H 0.15693 0.56101 0.81263
 H430 H 0.18769 0.56090 0.84345
 H431 H 0.11327 0.49985 0.76944
 H432 H 0.23050 0.49949 0.88707
 C433 C 0.25967 0.38704 0.07594
 C434 C 0.26724 0.38705 0.10260
 C435 C 0.25612 0.40451 0.11597
 C436 C 0.23855 0.42018 0.10132
 C437 C 0.22090 0.40226 0.08963
 C438 C 0.23203 0.38481 0.07626
 C439 C 0.26469 0.41279 0.06706
 C440 C 0.25362 0.43016 0.08037
 C441 C 0.27195 0.36894 0.06104
 C442 C 0.28268 0.35550 0.04772
 C443 C 0.22694 0.43953 0.11514
 C444 C 0.21815 0.45662 0.12532
 H445 H 0.28011 0.37444 0.11030
 H446 H 0.25945 0.40685 0.13513
 H447 H 0.20143 0.40314 0.09173
 H448 H 0.22209 0.37074 0.06690
 H449 H 0.27598 0.41703 0.05162
 H450 H 0.25544 0.44926 0.07632
 C451 C 0.74043 0.61294 0.07582
 C452 C 0.73315 0.58716 0.06876
 C453 C 0.74422 0.56979 0.08207
 C454 C 0.76154 0.57980 0.10121
 C455 C 0.74621 0.59727 0.11633
 C456 C 0.73509 0.61473 0.10296
 C457 C 0.76808 0.61340 0.07385
 C458 C 0.77920 0.59596 0.08722
 C459 C 0.72815 0.63104 0.06092
 C460 C 0.71742 0.64449 0.04760
 C461 C 0.77314 0.56045 0.11503
 C462 C 0.78194 0.54336 0.12522
 H463 H 0.72037 0.58290 0.05451
 H464 H 0.74092 0.55067 0.07921
 H465 H 0.74434 0.59609 0.13579
 H466 H 0.72367 0.62851 0.11095
 H467 H 0.77805 0.62633 0.06300
 H468 H 0.79869 0.59394 0.08783
 C469 C 0.74042 0.38704 0.92418
 C470 C 0.76811 0.38588 0.92525
 C471 C 0.77922 0.40332 0.91188
 C472 C 0.76153 0.42017 0.89878
 C473 C 0.74509 0.43021 0.91866
 C474 C 0.73402 0.41284 0.93197
 C475 C 0.73417 0.38593 0.89720
 C476 C 0.74529 0.40338 0.88382
 C477 C 0.72814 0.36894 0.93909
 C478 C 0.71741 0.35550 0.95240
 C479 C 0.77313 0.43952 0.88496
 C480 C 0.78192 0.45661 0.87476
 H481 H 0.77809 0.37250 0.93552
 H482 H 0.79873 0.40489 0.91068
 H483 H 0.74237 0.44934 0.92200
 H484 H 0.72183 0.41711 0.94671
 H485 H 0.72216 0.37259 0.88931
 H486 H 0.74282 0.40500 0.86446
 C487 C 0.25969 0.61271 0.92433
 C488 C 0.23306 0.60896 0.93105
 C489 C 0.22187 0.59155 0.91771
 C490 C 0.23843 0.57961 0.89898
 C491 C 0.26013 0.57032 0.91344
 C492 C 0.27128 0.58767 0.92674
 C493 C 0.25959 0.61800 0.89712
 C494 C 0.24839 0.60055 0.88376
 C495 C 0.27205 0.63079 0.93922
 C496 C 0.28282 0.64423 0.95252
 C497 C 0.22675 0.56028 0.88518
 C498 C 0.21791 0.54320 0.87499
 H499 H 0.22377 0.61915 0.94498
 H500 H 0.20301 0.58683 0.92021
 H501 H 0.26625 0.55169 0.91324
 H502 H 0.28694 0.58389 0.93791
 H503 H 0.26754 0.63401 0.88909
 H504 H 0.24673 0.60161 0.86427
 C505 C 0.07605 0.25986 0.38718
 C506 C 0.06625 0.26382 0.41276
 C507 C 0.07946 0.25274 0.43019
 C508 C 0.10125 0.23872 0.42043
 C509 C 0.11570 0.25724 0.40570
 C510 C 0.10243 0.26837 0.38819
 C511 C 0.07743 0.23232 0.38420
 C512 C 0.09071 0.22119 0.40171
 C513 C 0.06124 0.27216 0.36901
 C514 C 0.04798 0.28288 0.35551
 C515 C 0.11497 0.22709 0.43983
 C516 C 0.12508 0.21825 0.45694
 H517 H 0.05028 0.27444 0.41685
 H518 H 0.07480 0.25387 0.44918
 H519 H 0.13467 0.26118 0.40869
 H520 H 0.11002 0.28187 0.37618
 H521 H 0.06883 0.22246 0.36960
 H522 H 0.09349 0.20178 0.40212
 C523 C 0.07619 0.73985 0.61268
 C524 C 0.10205 0.73009 0.61053
 C525 C 0.11534 0.74121 0.59304
 C526 C 0.10143 0.76098 0.57946
 C527 C 0.09237 0.77828 0.59913
 C528 C 0.07907 0.76715 0.61663
 C529 C 0.06543 0.73736 0.58730
 C530 C 0.07867 0.74844 0.56988
 C531 C 0.06136 0.72757 0.63084
 C532 C 0.04808 0.71685 0.64433
 C533 C 0.11517 0.77259 0.56007
 C534 C 0.12531 0.78143 0.54298
 H535 H 0.10931 0.71579 0.62180
 H536 H 0.13399 0.73645 0.58932
 H537 H 0.09613 0.79752 0.59934
 H538 H 0.07143 0.77686 0.63184
 H539 H 0.04882 0.72772 0.58333
 H540 H 0.07338 0.74828 0.55101
 C541 C 0.92401 0.74014 0.38721
 C542 C 0.92625 0.76778 0.38695
 C543 C 0.91296 0.77890 0.40445
 C544 C 0.89877 0.76126 0.42044
 C545 C 0.91775 0.74370 0.43034
 C546 C 0.93098 0.73262 0.41291
 C547 C 0.89680 0.73506 0.38536
 C548 C 0.88350 0.74619 0.40287
 C549 C 0.93883 0.72786 0.36904
 C550 C 0.95210 0.71715 0.35555
 C551 C 0.88504 0.77287 0.43984
 C552 C 0.87492 0.78169 0.45695
 H553 H 0.93721 0.77774 0.37412
 H554 H 0.91254 0.79838 0.40661
 H555 H 0.92056 0.74023 0.44942
 H556 H 0.94511 0.71968 0.41709
 H557 H 0.88870 0.72381 0.37150
 H558 H 0.86401 0.74449 0.40402
 C559 C 0.92372 0.25994 0.61228
 C560 C 0.89780 0.25397 0.62014
 C561 C 0.88452 0.24277 0.60262
 C562 C 0.89854 0.23871 0.57905
 C563 C 0.92123 0.22463 0.58647
 C564 C 0.93446 0.23579 0.60394
 C565 C 0.92094 0.27493 0.58918
 C566 C 0.90773 0.26380 0.57175
 C567 C 0.93853 0.27228 0.63044
 C568 C 0.95178 0.28302 0.64395
 C569 C 0.88483 0.22703 0.55966
 C570 C 0.87471 0.21816 0.54256
 H571 H 0.89054 0.25811 0.63786
 H572 H 0.86588 0.23731 0.60532
 H573 H 0.92639 0.20737 0.57876
 H574 H 0.95097 0.22808 0.61118
 H575 H 0.92864 0.29281 0.58673
 H576 H 0.90412 0.27213 0.55438
 C577 C 0.38665 0.07660 0.25996
 C578 C 0.41224 0.06662 0.26348
 C579 C 0.42962 0.07989 0.25238
 C580 C 0.41981 0.10191 0.23878
 C581 C 0.40536 0.11619 0.25764
 C582 C 0.38790 0.10286 0.26879
 C583 C 0.38335 0.07836 0.23250
 C584 C 0.40081 0.09170 0.22135
 C585 C 0.36853 0.06173 0.27227
 C586 C 0.35507 0.04843 0.28300
 C587 C 0.43918 0.11568 0.22714
 C588 C 0.45628 0.12583 0.21831
 H589 H 0.41637 0.05048 0.27382
 H590 H 0.44863 0.07511 0.25322
 H591 H 0.40850 0.13509 0.26180
 H592 H 0.37608 0.11033 0.28251
 H593 H 0.36858 0.06997 0.22271
 H594 H 0.40101 0.09474 0.20200
 C595 C 0.61332 0.07659 0.74006
 C596 C 0.61462 0.10369 0.73427
 C597 C 0.59715 0.11699 0.74546
 C598 C 0.58015 0.10185 0.76129
 C599 C 0.59680 0.08837 0.77889
 C600 C 0.61426 0.07507 0.76771
 C601 C 0.58754 0.06903 0.73333
 C602 C 0.57015 0.08227 0.74446
 C603 C 0.63144 0.06176 0.72773
 C604 C 0.64491 0.04847 0.71699
 C605 C 0.56079 0.11559 0.77297
 C606 C 0.54369 0.12572 0.78183
 H607 H 0.62808 0.11171 0.72251
 H608 H 0.59564 0.13642 0.74329
 H609 H 0.59509 0.08927 0.79838
 H610 H 0.62751 0.06457 0.77762
 H611 H 0.58328 0.05450 0.72086
 H612 H 0.55102 0.07908 0.74152
 C613 C 0.38648 0.92367 0.74055
 C614 C 0.40086 0.90747 0.72328
 C615 C 0.41833 0.89423 0.73442
 C616 C 0.41973 0.89848 0.76174
 C617 C 0.39417 0.89322 0.77116
 C618 C 0.37663 0.90651 0.75999
 C619 C 0.40554 0.93905 0.75350
 C620 C 0.42298 0.92584 0.76462
 C621 C 0.36832 0.93846 0.72822
 C622 C 0.35483 0.95171 0.71746
 C623 C 0.43914 0.88476 0.77339
 C624 C 0.45625 0.87464 0.78221
 H625 H 0.39755 0.90641 0.70400
 H626 H 0.42998 0.88184 0.72468
 H627 H 0.39020 0.88025 0.78530
 H628 H 0.35763 0.90492 0.76454
 H629 H 0.40532 0.95866 0.75396
 H630 H 0.43769 0.93412 0.77460
 C631 C 0.61353 0.92407 0.25989
 C632 C 0.58798 0.93432 0.26293
 C633 C 0.57064 0.92106 0.25174
 C634 C 0.58044 0.89877 0.23855
 C635 C 0.59450 0.88462 0.25779
 C636 C 0.61193 0.89794 0.26903
 C637 C 0.61719 0.92192 0.23251
 C638 C 0.59976 0.90860 0.22127
 C639 C 0.63162 0.93892 0.27230
 C640 C 0.64506 0.95219 0.28311
 C641 C 0.56110 0.88500 0.22682
 C642 C 0.54403 0.87484 0.21794
 H643 H 0.58386 0.95062 0.27301
 H644 H 0.55167 0.92601 0.25225
 H645 H 0.59114 0.86580 0.26213
 H646 H 0.62350 0.89053 0.28300
 H647 H 0.63217 0.93006 0.22283
 H648 H 0.59980 0.90531 0.20196
 C649 C 0.38678 0.26017 0.92336
 C650 C 0.38386 0.23262 0.92214
 C651 C 0.40137 0.22145 0.90888
 C652 C 0.42003 0.23897 0.89820
 C653 C 0.42983 0.25315 0.91986
 C654 C 0.41241 0.26426 0.93305
 C655 C 0.38767 0.26853 0.89696
 C656 C 0.40518 0.25736 0.88371
 C657 C 0.36861 0.27250 0.93814
 C658 C 0.35512 0.28325 0.95139
 C659 C 0.43943 0.22731 0.88451
 C660 C 0.45655 0.21845 0.87441
 H661 H 0.36931 0.22277 0.93082
 H662 H 0.40183 0.20203 0.90621
 H663 H 0.44886 0.25435 0.92445
 H664 H 0.41652 0.27498 0.94894
 H665 H 0.37559 0.28194 0.88933
 H666 H 0.40810 0.26120 0.86472
 C667 C 0.61331 0.73989 0.92332
 C668 C 0.61133 0.73044 0.89734
 C669 C 0.59381 0.74163 0.88412
 C670 C 0.58004 0.76113 0.89821
 C671 C 0.59958 0.77844 0.90758
 C672 C 0.61711 0.76726 0.92081
 C673 C 0.58787 0.73712 0.93390
 C674 C 0.57043 0.74825 0.92074
 C675 C 0.63150 0.72755 0.93807
 C676 C 0.64500 0.71679 0.95130
 C677 C 0.56061 0.77281 0.88456
 C678 C 0.54349 0.78169 0.87450
 H679 H 0.62272 0.71631 0.88996
 H680 H 0.59019 0.73708 0.86542
 H681 H 0.59969 0.79773 0.90408
 H682 H 0.63224 0.77696 0.92864
 H683 H 0.58389 0.72725 0.95036
 H684 H 0.55152 0.74791 0.92593
 C685 C 0.38714 0.73982 0.07665
 C686 C 0.41282 0.73527 0.06733
 C687 C 0.43023 0.74646 0.08050
 C688 C 0.42037 0.76117 0.10176
 C689 C 0.40516 0.74323 0.11645
 C690 C 0.38766 0.73198 0.10322
 C691 C 0.38453 0.76743 0.07730
 C692 C 0.40203 0.77867 0.09053
 C693 C 0.36898 0.72742 0.06190
 C694 C 0.35547 0.71662 0.04868
 C695 C 0.43976 0.77291 0.11543
 C696 C 0.45687 0.78183 0.12549
 H697 H 0.41698 0.72419 0.05171
 H698 H 0.44929 0.74496 0.07614
 H699 H 0.40784 0.73973 0.13553
 H700 H 0.37535 0.71885 0.11097
 H701 H 0.37018 0.77725 0.06826
 H702 H 0.40267 0.79813 0.09282
 C703 C 0.61330 0.26013 0.07671
 C704 C 0.61679 0.23269 0.07884
 C705 C 0.59928 0.22153 0.09210
 C706 C 0.58004 0.23894 0.10189
 C707 C 0.57035 0.25221 0.07963
 C708 C 0.58778 0.26332 0.06643
 C709 C 0.61170 0.26926 0.10283
 C710 C 0.59419 0.25811 0.11608
 C711 C 0.63147 0.27244 0.06192
 C712 C 0.64496 0.28319 0.04868
 C713 C 0.56063 0.22729 0.11559
 C714 C 0.54351 0.21845 0.12568
 H715 H 0.63173 0.22293 0.07073
 H716 H 0.59920 0.20220 0.09536
 H717 H 0.55139 0.25284 0.07464
 H718 H 0.58373 0.27345 0.05014
 H719 H 0.62335 0.28318 0.11027
 H720 H 0.59083 0.26246 0.13488
 C721 C 0.25920 0.07610 0.61359
 C722 C 0.27648 0.09245 0.59938
 C723 C 0.26534 0.10574 0.58196
 C724 C 0.23801 0.10140 0.58045
 C725 C 0.22847 0.10647 0.60598
 C726 C 0.23965 0.09313 0.62346
 C727 C 0.24637 0.06077 0.59442
 C728 C 0.23525 0.07405 0.57703
 C729 C 0.27154 0.06125 0.63169
 C730 C 0.28230 0.04796 0.64514
 C731 C 0.22637 0.11517 0.56109
 C732 C 0.21755 0.12533 0.54401
 H733 H 0.29576 0.09357 0.60276
 H734 H 0.27508 0.11824 0.57043
 H735 H 0.21426 0.11937 0.60996
 H736 H 0.23502 0.09458 0.64243
 H737 H 0.24599 0.04117 0.59453
 H738 H 0.22535 0.06580 0.56225
 C739 C 0.73994 0.07577 0.38640
 C740 C 0.76750 0.07679 0.38349
 C741 C 0.77876 0.09019 0.40084
 C742 C 0.76132 0.10120 0.41935
 C743 C 0.74701 0.07972 0.42937
 C744 C 0.73580 0.06639 0.41210
 C745 C 0.73175 0.10226 0.38701
 C746 C 0.74301 0.11565 0.40436
 C747 C 0.72752 0.06084 0.36841
 C748 C 0.71669 0.04750 0.35505
 C749 C 0.77307 0.11504 0.43861
 C750 C 0.78197 0.12523 0.45564
 H751 H 0.77729 0.06788 0.36904
 H752 H 0.79819 0.09275 0.40126
 H753 H 0.74577 0.07534 0.44843
 H754 H 0.72498 0.05060 0.41639
 H755 H 0.71838 0.10984 0.37485
 H756 H 0.73930 0.13471 0.40707
 C757 C 0.74046 0.92373 0.61347
 C758 C 0.73778 0.93419 0.58799
 C759 C 0.74892 0.92089 0.57066
 C760 C 0.76172 0.89836 0.58041
 C761 C 0.74214 0.88438 0.59420
 C762 C 0.73095 0.89774 0.61160
 C763 C 0.76781 0.92116 0.61734
 C764 C 0.77900 0.90780 0.59993
 C765 C 0.72811 0.93862 0.63152
 C766 C 0.71734 0.95194 0.64492
 C767 C 0.77340 0.88455 0.56110
 C768 C 0.78225 0.87439 0.54404
 H769 H 0.72796 0.95067 0.58389
 H770 H 0.74863 0.92598 0.55174
 H771 H 0.73754 0.86565 0.59068
 H772 H 0.71676 0.89046 0.62299
 H773 H 0.77749 0.92906 0.63244
 H774 H 0.79828 0.90423 0.60011
 C775 C 0.25968 0.92366 0.38664
 C776 C 0.25143 0.93857 0.40845
 C777 C 0.24031 0.92529 0.42581
 C778 C 0.23848 0.89832 0.41974
 C779 C 0.26452 0.89033 0.41463
 C780 C 0.27567 0.90365 0.39723
 C781 C 0.23682 0.91069 0.37772
 C782 C 0.22565 0.89732 0.39518
 C783 C 0.27201 0.93854 0.36855
 C784 C 0.28277 0.95185 0.35513
 C785 C 0.22682 0.88453 0.43907
 C786 C 0.21798 0.87436 0.45614
 H787 H 0.25404 0.95794 0.41010
 H788 H 0.23341 0.93328 0.44232
 H789 H 0.27339 0.87545 0.42380
 H790 H 0.29409 0.90019 0.39149
 H791 H 0.23007 0.91185 0.35938
 H792 H 0.20930 0.88703 0.39180
 C793 C 0.07624 0.38664 0.73993
 C794 C 0.10246 0.38806 0.73102
 C795 C 0.11577 0.40548 0.74228
 C796 C 0.10152 0.41974 0.76130
 C797 C 0.09144 0.40057 0.77861
 C798 C 0.07813 0.38314 0.76736
 C799 C 0.06616 0.41223 0.73665
 C800 C 0.07941 0.42957 0.74785
 C801 C 0.06140 0.36857 0.72751
 C802 C 0.04811 0.35515 0.71669
 C803 C 0.11528 0.43907 0.77305
 C804 C 0.12541 0.45614 0.78196
 H805 H 0.10993 0.37636 0.71719
 H806 H 0.13465 0.40872 0.73809
 H807 H 0.09455 0.40063 0.79795
 H808 H 0.06982 0.36827 0.77705
 H809 H 0.04997 0.41638 0.72639
 H810 H 0.07457 0.44857 0.74718
 C811 C 0.07655 0.61340 0.25990
 C812 C 0.06841 0.58762 0.26592
 C813 C 0.08165 0.57024 0.25480
 C814 C 0.10181 0.58023 0.23867
 C815 C 0.11681 0.59667 0.25522
 C816 C 0.10351 0.61415 0.26640
 C817 C 0.07575 0.61489 0.23224
 C818 C 0.08905 0.59742 0.22107
 C819 C 0.06172 0.63153 0.27223
 C820 C 0.04843 0.64497 0.28300
 C821 C 0.11555 0.56086 0.22700
 C822 C 0.12567 0.54375 0.21815
 H823 H 0.05350 0.58338 0.27792
 H824 H 0.07807 0.55111 0.25728
 H825 H 0.13615 0.59481 0.25785
 H826 H 0.11144 0.62727 0.27861
 H827 H 0.06572 0.62849 0.22233
 H828 H 0.09041 0.59606 0.20157
 C829 C 0.92348 0.38665 0.25992
 C830 C 0.92093 0.38282 0.23259
 C831 C 0.90762 0.40029 0.22142
 C832 C 0.89823 0.41983 0.23871
 C833 C 0.92078 0.42951 0.25153
 C834 C 0.93402 0.41212 0.26265
 C835 C 0.89749 0.38856 0.26940
 C836 C 0.88420 0.40603 0.25823
 C837 C 0.93831 0.36852 0.27226
 C838 C 0.95160 0.35507 0.28302
 C839 C 0.88449 0.43920 0.22704
 C840 C 0.87436 0.45630 0.21819
 H841 H 0.92879 0.36770 0.22291
 H842 H 0.90408 0.40016 0.20216
 H843 H 0.92592 0.44844 0.25185
 H844 H 0.95050 0.41617 0.27249
 H845 H 0.89017 0.37716 0.28355
 H846 H 0.86547 0.40960 0.26280
 C847 C 0.92341 0.61329 0.73992
 C848 C 0.93263 0.58757 0.73535
 C849 C 0.91937 0.57020 0.74649
 C850 C 0.89811 0.58015 0.76116
 C851 C 0.88350 0.59543 0.74324
 C852 C 0.89682 0.61288 0.73205
 C853 C 0.92275 0.61588 0.76750
 C854 C 0.90942 0.59843 0.77869
 C855 C 0.93827 0.63138 0.72757
 C856 C 0.95158 0.64481 0.71680
 C857 C 0.88435 0.56080 0.77284
 C858 C 0.87422 0.54371 0.78171
 H859 H 0.94827 0.58335 0.72430
 H860 H 0.92365 0.55113 0.74497
 H861 H 0.86438 0.59284 0.73972
 H862 H 0.88912 0.62524 0.71894
 H863 H 0.93184 0.63018 0.77734
 H864 H 0.90710 0.59778 0.79812
 C865 C 0.74001 0.61328 0.92424
 C866 C 0.73177 0.61268 0.89778
 C867 C 0.74301 0.59532 0.88437
 C868 C 0.76134 0.58031 0.89876
 C869 C 0.74707 0.57026 0.92024
 C870 C 0.73589 0.58753 0.93359
 C871 C 0.76757 0.61620 0.92317
 C872 C 0.77880 0.59885 0.90976
 C873 C 0.72760 0.63130 0.93919
 C874 C 0.71678 0.64471 0.95250
 C875 C 0.77307 0.56103 0.88488
 C876 C 0.78192 0.54397 0.87466
 H877 H 0.71839 0.62485 0.89024
 H878 H 0.73925 0.59263 0.86534
 H879 H 0.74584 0.55118 0.92460
 H880 H 0.72510 0.58323 0.94937
 H881 H 0.77738 0.63065 0.93208
 H882 H 0.79823 0.59843 0.90717
 C883 C 0.25986 0.38658 0.92440
 C884 C 0.27151 0.39073 0.89960
 C885 C 0.26025 0.40805 0.88621
 C886 C 0.23846 0.41952 0.89894
 C887 C 0.24834 0.42879 0.92308
 C888 C 0.25956 0.41153 0.93642
 C889 C 0.23325 0.38087 0.91902
 C890 C 0.22197 0.39822 0.90560
 C891 C 0.27231 0.36858 0.93933
 C892 C 0.28318 0.35520 0.95263
 C893 C 0.22670 0.43878 0.88507
 C894 C 0.21783 0.45584 0.87486
 H895 H 0.28715 0.38087 0.89311
 H896 H 0.26625 0.41303 0.86824
 H897 H 0.24665 0.44735 0.92920
 H898 H 0.26746 0.41532 0.95395
 H899 H 0.22410 0.36465 0.92512
 H900 H 0.20317 0.39686 0.90022
 C901 C 0.26026 0.61320 0.07587
 C902 C 0.26753 0.58735 0.06908
 C903 C 0.25631 0.57010 0.08243
 C904 C 0.23885 0.58028 0.10134
 C905 C 0.22135 0.59636 0.08707
 C906 C 0.23262 0.61369 0.07366
 C907 C 0.26537 0.61519 0.10304
 C908 C 0.25409 0.59785 0.11645
 C909 C 0.27271 0.63120 0.06092
 C910 C 0.28355 0.64458 0.04761
 C911 C 0.22708 0.56103 0.11522
 C912 C 0.21819 0.54398 0.12543
 H913 H 0.28041 0.58296 0.05498
 H914 H 0.25959 0.55096 0.07975
 H915 H 0.20185 0.59438 0.08752
 H916 H 0.22277 0.62654 0.06262
 H917 H 0.27675 0.62901 0.11103
 H918 H 0.25581 0.59683 0.13594
 C919 C 0.74005 0.38664 0.07577
 C920 C 0.76773 0.38498 0.07515
 C921 C 0.77895 0.40235 0.08856
 C922 C 0.76137 0.41964 0.10124
 C923 C 0.74461 0.40327 0.11607
 C924 C 0.73338 0.38590 0.10266
 C925 C 0.73424 0.41248 0.06767
 C926 C 0.74541 0.42977 0.08102
 C927 C 0.72765 0.36860 0.06083
 C928 C 0.71682 0.35520 0.04751
 C929 C 0.77309 0.43893 0.11512
 C930 C 0.78194 0.45601 0.12533
 H931 H 0.77762 0.37134 0.06515
 H932 H 0.79846 0.40359 0.09005
 H933 H 0.74187 0.40510 0.13537
 H934 H 0.72102 0.37285 0.11047
 H935 H 0.72235 0.41684 0.05271
 H936 H 0.74308 0.44892 0.07748
 C937 C 0.92466 0.73975 0.61337
 C938 C 0.93208 0.73320 0.58753
 C939 C 0.91870 0.74441 0.57030
 C940 C 0.89913 0.76114 0.58049
 C941 C 0.91266 0.77869 0.59715
 C942 C 0.92610 0.76743 0.61446
 C943 C 0.89758 0.73387 0.61477
 C944 C 0.88414 0.74513 0.59745
 C945 C 0.93963 0.72732 0.63135
 C946 C 0.95294 0.71647 0.64473
 C947 C 0.88522 0.77289 0.56125
 C948 C 0.87498 0.78176 0.54422
 H949 H 0.94662 0.72080 0.58313
 H950 H 0.92179 0.74159 0.55115
 H951 H 0.91171 0.79820 0.59556
 H952 H 0.93666 0.77731 0.62770
 H953 H 0.88967 0.72199 0.62819
 H954 H 0.86471 0.74290 0.59604
 C955 C 0.92450 0.25994 0.38623
 C956 C 0.89773 0.26722 0.38594
 C957 C 0.88427 0.25595 0.40323
 C958 C 0.89892 0.23853 0.41906
 C959 C 0.91964 0.25383 0.42926
 C960 C 0.93304 0.26505 0.41206
 C961 C 0.92448 0.23229 0.38401
 C962 C 0.91101 0.22102 0.40129
 C963 C 0.93949 0.27240 0.36829
 C964 C 0.95283 0.28326 0.35495
 C965 C 0.88500 0.22677 0.43826
 C966 C 0.87475 0.21790 0.45529
 H967 H 0.89003 0.28001 0.37325
 H968 H 0.86504 0.25908 0.40534
 H969 H 0.92347 0.25570 0.44839
 H970 H 0.94833 0.27652 0.41647
 H971 H 0.93410 0.22245 0.37006
 H972 H 0.90910 0.20153 0.40214
 C973 C 0.07524 0.26014 0.61330
 C974 C 0.07480 0.23247 0.61517
 C975 C 0.08826 0.22121 0.59788
 C976 C 0.10080 0.23874 0.58045
 C977 C 0.11557 0.25573 0.59665
 C978 C 0.10211 0.26700 0.61394
 C979 C 0.06704 0.26570 0.58746
 C980 C 0.08043 0.25448 0.57025
 C981 C 0.06025 0.27259 0.63125
 C982 C 0.04691 0.28344 0.64460
 C983 C 0.11472 0.22698 0.56124
 C984 C 0.12497 0.21810 0.54422
 H985 H 0.06489 0.22261 0.62889
 H986 H 0.08987 0.20170 0.59680
 H987 H 0.13487 0.25859 0.59476
 H988 H 0.10989 0.27952 0.62687
 H989 H 0.05198 0.27745 0.58304
 H990 H 0.07683 0.25664 0.55111
 C991 C 0.07559 0.73986 0.38643
 C992 C 0.10245 0.73296 0.38582
 C993 C 0.11590 0.74417 0.40317
 C994 C 0.10115 0.76114 0.41937
 C995 C 0.08073 0.74541 0.42950
 C996 C 0.06734 0.73426 0.41224
 C997 C 0.07521 0.76754 0.38462
 C998 C 0.08867 0.77874 0.40196
 C999 C 0.06060 0.72748 0.36842
 C1000 C 0.04725 0.71666 0.35504
 C1001 C 0.11506 0.77283 0.43864
 C1002 C 0.12530 0.78166 0.45570
 H1003 H 0.11021 0.72047 0.37288
 H1004 H 0.13520 0.74127 0.40509
 H1005 H 0.07710 0.74321 0.44863
 H1006 H 0.05225 0.72252 0.41660
 H1007 H 0.06534 0.77745 0.37090
 H1008 H 0.09032 0.79824 0.40310
 C1009 C 0.61310 0.92421 0.74056
 C1010 C 0.61294 0.89755 0.73288
 C1011 C 0.59553 0.88417 0.74406
 C1012 C 0.58003 0.89877 0.76180
 C1013 C 0.57001 0.91986 0.74692
 C1014 C 0.58734 0.93319 0.73579
 C1015 C 0.61553 0.92374 0.76817
 C1016 C 0.59812 0.91035 0.77935
 C1017 C 0.63119 0.93912 0.72821
 C1018 C 0.64466 0.95238 0.71741
 C1019 C 0.56070 0.88492 0.77347
 C1020 C 0.54362 0.87470 0.78229
 H1021 H 0.62543 0.88987 0.71989
 H1022 H 0.59311 0.86501 0.74065
 H1023 H 0.55091 0.92399 0.74526
 H1024 H 0.58306 0.94872 0.72461
 H1025 H 0.62970 0.93302 0.77804
 H1026 H 0.59738 0.90815 0.79879
 C1027 C 0.38713 0.92422 0.25954
 C1028 C 0.41269 0.93449 0.26254
 C1029 C 0.43003 0.92118 0.25141
 C1030 C 0.42024 0.89883 0.23831
 C1031 C 0.40090 0.90858 0.22098
 C1032 C 0.38348 0.92195 0.23216
 C1033 C 0.38875 0.89813 0.26878
 C1034 C 0.40617 0.88476 0.25761
 C1035 C 0.36902 0.93910 0.27189
 C1036 C 0.35552 0.95235 0.28268
 C1037 C 0.43958 0.88500 0.22664
 C1038 C 0.45666 0.87480 0.21781
 H1039 H 0.41682 0.95084 0.27255
 H1040 H 0.44900 0.92615 0.25191
 H1041 H 0.40087 0.90521 0.20169
 H1042 H 0.36851 0.93004 0.22244
 H1043 H 0.37718 0.89077 0.28279
 H1044 H 0.40953 0.86596 0.26204
 C1045 C 0.61318 0.07644 0.26006
 C1046 C 0.62334 0.09652 0.24383
 C1047 C 0.60589 0.10990 0.23263
 C1048 C 0.58007 0.10182 0.23881
 C1049 C 0.57870 0.10270 0.26645
 C1050 C 0.59608 0.08937 0.27760
 C1051 C 0.59660 0.06155 0.24358
 C1052 C 0.57923 0.07487 0.23244
 C1053 C 0.63128 0.06155 0.27242
 C1054 C 0.64475 0.04828 0.28319
 C1055 C 0.56073 0.11565 0.22714
 C1056 C 0.54364 0.12584 0.21829
 H1057 H 0.64249 0.09991 0.24137
 H1058 H 0.61008 0.12476 0.22057
 H1059 H 0.56529 0.11296 0.27640
 H1060 H 0.59755 0.08824 0.29710
 H1061 H 0.59841 0.04222 0.24084
 H1062 H 0.56617 0.06694 0.22015
 C1063 C 0.38667 0.07600 0.74063
 C1064 C 0.37660 0.09695 0.75577
 C1065 C 0.39409 0.11036 0.76688
 C1066 C 0.41985 0.10145 0.76171
 C1067 C 0.42194 0.10115 0.73411
 C1068 C 0.40453 0.08780 0.72305
 C1069 C 0.40244 0.06141 0.75811
 C1070 C 0.41985 0.07476 0.76918
 C1071 C 0.36854 0.06107 0.72835
 C1072 C 0.35504 0.04778 0.71761
 C1073 C 0.43922 0.11532 0.77330
 C1074 C 0.45633 0.12556 0.78206
 H1075 H 0.35748 0.10088 0.75759
 H1076 H 0.38996 0.12580 0.77824
 H1077 H 0.43585 0.11068 0.72412
 H1078 H 0.40354 0.08589 0.70357
 H1079 H 0.40009 0.04225 0.76157
 H1080 H 0.43240 0.06704 0.78211
 C1081 C 0.61350 0.74038 0.07556
 C1082 C 0.61726 0.76776 0.07789
 C1083 C 0.59991 0.77898 0.09133
 C1084 C 0.58055 0.76167 0.10109
 C1085 C 0.59460 0.74227 0.11504
 C1086 C 0.61194 0.73106 0.10161
 C1087 C 0.58790 0.73749 0.06538
 C1088 C 0.57064 0.74865 0.07876
 C1089 C 0.63152 0.72798 0.06059
 C1090 C 0.64493 0.71716 0.04730
 C1091 C 0.56129 0.77337 0.11500
 C1092 C 0.54423 0.78220 0.12525
 H1093 H 0.63224 0.77746 0.06978
 H1094 H 0.60002 0.79828 0.09475
 H1095 H 0.59129 0.73780 0.13382
 H1096 H 0.62348 0.71699 0.10888
 H1097 H 0.58368 0.72753 0.04903
 H1098 H 0.55165 0.74823 0.07385
 C1099 C 0.38680 0.25985 0.07566
 C1100 C 0.41263 0.26521 0.06721
 C1101 C 0.42992 0.25410 0.08060
 C1102 C 0.41980 0.23864 0.10121
 C1103 C 0.40219 0.22102 0.08902
 C1104 C 0.38482 0.23218 0.07557
 C1105 C 0.38640 0.26703 0.10243
 C1106 C 0.40377 0.25586 0.11588
 C1107 C 0.36876 0.27219 0.06069
 C1108 C 0.35531 0.28297 0.04739
 C1109 C 0.43909 0.22699 0.11514
 C1110 C 0.45614 0.21819 0.12541
 H1111 H 0.41697 0.27676 0.05199
 H1112 H 0.44905 0.25614 0.07683
 H1113 H 0.40321 0.20153 0.09085
 H1114 H 0.37097 0.22225 0.06588
 H1115 H 0.37357 0.27968 0.11014
 H1116 H 0.40582 0.25894 0.13511
 C1117 C 0.61333 0.25981 0.92435
 C1118 C 0.61358 0.26718 0.89764
 C1119 C 0.59619 0.25603 0.88419
 C1120 C 0.58029 0.23864 0.89880
 C1121 C 0.57021 0.25391 0.91957
 C1122 C 0.58752 0.26500 0.93296
 C1123 C 0.61541 0.23215 0.92423
 C1124 C 0.59803 0.22101 0.91078
 C1125 C 0.63139 0.27213 0.93933
 C1126 C 0.64483 0.28291 0.95264
 C1127 C 0.56099 0.22700 0.88487
 C1128 C 0.54391 0.21821 0.87461
 H1129 H 0.62633 0.27994 0.88996
 H1130 H 0.59404 0.25923 0.86498
 H1131 H 0.55109 0.25585 0.92344
 H1132 H 0.58320 0.27643 0.94828
 H1133 H 0.62935 0.22222 0.93378
 H1134 H 0.59706 0.20152 0.90880
 C1135 C 0.38687 0.74007 0.92444
 C1136 C 0.41245 0.73730 0.93468
 C1137 C 0.42972 0.74846 0.92131
 C1138 C 0.41982 0.76138 0.89891
 C1139 C 0.40040 0.77866 0.90857
 C1140 C 0.38305 0.76744 0.92201
 C1141 C 0.38851 0.73067 0.89842
 C1142 C 0.40585 0.74188 0.88499
 C1143 C 0.36885 0.72768 0.93940
 C1144 C 0.35543 0.71687 0.95270
 C1145 C 0.43908 0.77308 0.88500
 C1146 C 0.45613 0.78192 0.87475
 H1147 H 0.41666 0.72742 0.95108
 H1148 H 0.44869 0.74813 0.92626
 H1149 H 0.40024 0.79795 0.90509
 H1150 H 0.36802 0.77712 0.93005
 H1151 H 0.37701 0.71653 0.89117
 H1152 H 0.40921 0.73735 0.86623
 C1153 C 0.74069 0.92409 0.38739
 C1154 C 0.76647 0.91640 0.38062
 C1155 C 0.77765 0.90298 0.39801
 C1156 C 0.76192 0.89861 0.42041
 C1157 C 0.73863 0.88707 0.41076
 C1158 C 0.72747 0.90047 0.39339
 C1159 C 0.74329 0.93723 0.41162
 C1160 C 0.75441 0.92387 0.42893
 C1161 C 0.72835 0.93903 0.36933
 C1162 C 0.71757 0.95232 0.35588
 C1163 C 0.77358 0.88472 0.43971
 C1164 C 0.78240 0.87448 0.45677
 H1165 H 0.77514 0.92103 0.36367
 H1166 H 0.79589 0.89610 0.39597
 H1167 H 0.73158 0.86985 0.41694
 H1168 H 0.71085 0.89473 0.38470
 H1169 H 0.73695 0.95549 0.41491
 H1170 H 0.75759 0.93071 0.44702
 C1171 C 0.25918 0.92373 0.61312
 C1172 C 0.23479 0.91315 0.62105
 C1173 C 0.22368 0.89978 0.60356
 C1174 C 0.23809 0.89835 0.57992
 C1175 C 0.26299 0.88860 0.58721
 C1176 C 0.27408 0.90194 0.60466
 C1177 C 0.25363 0.93801 0.59006
 C1178 C 0.24257 0.92470 0.57266
 C1179 C 0.27147 0.93862 0.63127
 C1180 C 0.28222 0.95188 0.64478
 C1181 C 0.22650 0.88453 0.56053
 C1182 C 0.21774 0.87432 0.54342
 H1183 H 0.22699 0.91587 0.63881
 H1184 H 0.20635 0.89103 0.60632
 H1185 H 0.27115 0.87256 0.57942
 H1186 H 0.29174 0.89733 0.61183
 H1187 H 0.25797 0.95698 0.58762
 H1188 H 0.23746 0.93229 0.55533
 C1189 C 0.25928 0.07601 0.38722
 C1190 C 0.25930 0.06400 0.41216
 C1191 C 0.24816 0.07729 0.42950
 C1192 C 0.23801 0.10136 0.42032
 C1193 C 0.22137 0.09454 0.39921
 C1194 C 0.23257 0.08119 0.38177
 C1195 C 0.27079 0.10093 0.39124
 C1196 C 0.25960 0.11426 0.40865
 C1197 C 0.27165 0.06115 0.36911
 C1198 C 0.28246 0.04792 0.35562
 C1199 C 0.22632 0.11518 0.43965
 C1200 C 0.21749 0.12537 0.45673
 H1201 H 0.26737 0.04652 0.41588
 H1202 H 0.24670 0.07118 0.44806
 H1203 H 0.20252 0.09979 0.39802
 H1204 H 0.22332 0.07499 0.36565
 H1205 H 0.28629 0.10754 0.38123
 H1206 H 0.26551 0.13230 0.41356
 C1207 C 0.74057 0.07607 0.61260
 C1208 C 0.76288 0.08986 0.62170
 C1209 C 0.77404 0.10319 0.60420
 C1210 C 0.76175 0.10137 0.57941
 C1211 C 0.73540 0.10871 0.58385
 C1212 C 0.72427 0.09542 0.60129
 C1213 C 0.74968 0.06098 0.59125
 C1214 C 0.76079 0.07425 0.57385
 C1215 C 0.72824 0.06124 0.63076
 C1216 C 0.71747 0.04802 0.64429
 C1217 C 0.77339 0.11515 0.56003
 C1218 C 0.78220 0.12532 0.54292
 H1219 H 0.76929 0.08924 0.64019
 H1220 H 0.79002 0.11400 0.60770
 H1221 H 0.72631 0.12316 0.57421
 H1222 H 0.70564 0.09849 0.60659
 H1223 H 0.74764 0.04152 0.58993
 H1224 H 0.76824 0.06613 0.55764
 C1225 C 0.92408 0.61312 0.25967
 C1226 C 0.89756 0.61265 0.26774
 C1227 C 0.88414 0.59525 0.25656
 C1228 C 0.89860 0.58006 0.23843
 C1229 C 0.92000 0.57006 0.25289
 C1230 C 0.93335 0.58738 0.26401
 C1231 C 0.92318 0.61584 0.23210
 C1232 C 0.90976 0.59844 0.22092
 C1233 C 0.93902 0.63119 0.27202
 C1234 C 0.95231 0.64465 0.28282
 C1235 C 0.88472 0.56074 0.22676
 C1236 C 0.87450 0.54366 0.21794
 H1237 H 0.88997 0.62494 0.28098
 H1238 H 0.86506 0.59264 0.26021
 H1239 H 0.92430 0.55098 0.25427
 H1240 H 0.94908 0.58311 0.27492
 H1241 H 0.93219 0.63020 0.22226
 H1242 H 0.90727 0.59789 0.20150
 C1243 C 0.92382 0.38701 0.73995
 C1244 C 0.92338 0.38453 0.76755
 C1245 C 0.90999 0.40190 0.77879
 C1246 C 0.89837 0.42000 0.76130
 C1247 C 0.88376 0.40450 0.74354
 C1248 C 0.89716 0.38714 0.73230
 C1249 C 0.93276 0.41280 0.73523
 C1250 C 0.91942 0.43009 0.74641
 C1251 C 0.93874 0.36897 0.72755
 C1252 C 0.95202 0.35552 0.71674
 C1253 C 0.88450 0.43929 0.77303
 C1254 C 0.87429 0.45635 0.78189
 H1255 H 0.93269 0.37036 0.77738
 H1256 H 0.90781 0.40261 0.79824
 H1257 H 0.86460 0.40689 0.74015
 H1258 H 0.88947 0.37465 0.71929
 H1259 H 0.94827 0.41713 0.72404
 H1260 H 0.92352 0.44920 0.74479
 C1261 C 0.07584 0.61288 0.74034
 C1262 C 0.07579 0.61500 0.76797
 C1263 C 0.08917 0.59763 0.77920
 C1264 C 0.10127 0.57987 0.76168
 C1265 C 0.11601 0.59575 0.74438
 C1266 C 0.10263 0.61312 0.73315
 C1267 C 0.06724 0.58707 0.73512
 C1268 C 0.08057 0.56977 0.74630
 C1269 C 0.06094 0.63093 0.72792
 C1270 C 0.04768 0.64438 0.71709
 C1271 C 0.11512 0.56058 0.77341
 C1272 C 0.12533 0.54351 0.78226
 H1273 H 0.06617 0.62895 0.77782
 H1274 H 0.09103 0.59670 0.79868
 H1275 H 0.13525 0.59359 0.74131
 H1276 H 0.11040 0.62585 0.72044
 H1277 H 0.05197 0.58273 0.72361
 H1278 H 0.07669 0.55064 0.74436
 C1279 C 0.07590 0.38701 0.25971
 C1280 C 0.07529 0.38534 0.23206
 C1281 C 0.08870 0.40272 0.22086
 C1282 C 0.10138 0.42002 0.23843
 C1283 C 0.11623 0.40367 0.25519
 C1284 C 0.10282 0.38629 0.26639
 C1285 C 0.06777 0.41284 0.26552
 C1286 C 0.08112 0.43014 0.25437
 C1287 C 0.06097 0.36894 0.27209
 C1288 C 0.04769 0.35548 0.28288
 C1289 C 0.11526 0.43932 0.22674
 C1290 C 0.12550 0.45639 0.21791
 H1291 H 0.06529 0.37169 0.22216
 H1292 H 0.09019 0.40395 0.20137
 H1293 H 0.13555 0.40552 0.25793
 H1294 H 0.11065 0.37324 0.27874
 H1295 H 0.05279 0.41719 0.27739
 H1296 H 0.07757 0.44929 0.25670
   
