data_POSCAR
  _audit_creation_date              2014-09-24
  _audit_creation_method            'ToBaCCo'
  _symmetry_space_group_name_H-M    'P1'
  _symmetry_Int_Tables_number       1
  _symmetry_cell_setting            triclinic
  loop_
  _symmetry_equiv_pos_as_xyz
 x,y,z
_cell_length_a 75.8940
_cell_length_b 75.9929
_cell_length_c 75.9281
_cell_angle_alpha 90.060500
_cell_angle_beta 90.082600
_cell_angle_gamma 90.139100
loop_
  _atom_site_label
  _atom_site_type_symbol
  _atom_site_fract_x
  _atom_site_fract_y
  _atom_site_fract_z
N1 N 0.29563 0.44220 0.90553
 N2 N 0.30716 0.45512 0.90646
 C3 C 0.30571 0.46522 0.89195
 C4 C 0.29253 0.45821 0.88155
 C5 C 0.28639 0.44365 0.89046
 H6 H 0.31365 0.47673 0.88917
 H7 H 0.27597 0.43482 0.88633
 Cu8 Cu 0.32300 0.45744 0.92648
 Cu9 Cu 0.29314 0.42490 0.92425
 Cu10 Cu 0.32509 0.42548 0.95688
 N11 N 0.34297 0.45547 0.94242
 N12 N 0.34380 0.44281 0.95420
 C13 C 0.35885 0.44444 0.96347
 C14 C 0.36784 0.45884 0.95705
 C15 C 0.35753 0.46558 0.94370
 H16 H 0.36293 0.43580 0.97402
 H17 H 0.36041 0.47687 0.93552
 N18 N 0.30719 0.40674 0.95489
 N19 N 0.29504 0.40648 0.94241
 C20 C 0.28504 0.39193 0.94434
 C21 C 0.29122 0.38277 0.95871
 C22 C 0.30525 0.39238 0.96509
 H23 H 0.27422 0.38816 0.93585
 H24 H 0.31354 0.38902 0.97618
 H25 H 0.30439 0.43833 0.94499
 H26 H 0.31962 0.42596 0.93033
 N27 N 0.44211 0.84545 0.45458
 N28 N 0.45298 0.84646 0.44113
 C29 C 0.46322 0.86086 0.44301
 C30 C 0.45845 0.86915 0.45843
 C31 C 0.44502 0.85917 0.46547
 H32 H 0.47311 0.86517 0.43371
 H33 H 0.43767 0.86190 0.47735
 Cu34 Cu 0.45241 0.82942 0.42199
 Cu35 Cu 0.42437 0.82704 0.45642
 Cu36 Cu 0.42521 0.79430 0.42479
 N37 N 0.45387 0.80975 0.40561
 N38 N 0.44334 0.79603 0.40681
 C39 C 0.44675 0.78488 0.39344
 C40 C 0.46013 0.79201 0.38347
 C41 C 0.46436 0.80778 0.39143
 H42 H 0.43967 0.77279 0.39084
 H43 H 0.47398 0.81728 0.38696
 N44 N 0.40780 0.79483 0.44398
 N45 N 0.40747 0.80735 0.45605
 C46 C 0.39350 0.80469 0.46668
 C47 C 0.38477 0.78982 0.46100
 C48 C 0.39405 0.78388 0.44660
 H49 H 0.38957 0.81328 0.47733
 H50 H 0.39063 0.77283 0.43829
 H51 H 0.43952 0.80889 0.44294
 H52 H 0.42238 0.82091 0.42994
 N53 N 0.93977 0.90426 0.79741
 N54 N 0.95152 0.90390 0.81016
 C55 C 0.96200 0.88978 0.80794
 C56 C 0.95648 0.88098 0.79302
 C57 C 0.94236 0.89041 0.78665
 H58 H 0.97264 0.88599 0.81662
 H59 H 0.93440 0.88725 0.77525
 Cu60 Cu 0.95159 0.92168 0.82866
 Cu61 Cu 0.92158 0.92221 0.79603
 Cu62 Cu 0.92173 0.95430 0.82854
 N63 N 0.95179 0.94003 0.84658
 N64 N 0.94006 0.95275 0.84642
 C65 C 0.94285 0.96344 0.86031
 C66 C 0.95708 0.95703 0.86955
 C67 C 0.96247 0.94218 0.86063
 H68 H 0.93496 0.97481 0.86359
 H69 H 0.97316 0.93351 0.86425
 N70 N 0.90427 0.95364 0.80933
 N71 N 0.90426 0.94145 0.79691
 C72 C 0.89042 0.94417 0.78612
 C73 C 0.88146 0.95873 0.79206
 C74 C 0.89044 0.96443 0.80676
 H75 H 0.88681 0.93592 0.77507
 H76 H 0.88687 0.97533 0.81519
 H77 H 0.93574 0.94150 0.80906
 H78 H 0.92059 0.92772 0.82267
 N79 N 0.43975 -0.09546 0.29728
 N80 N 0.45340 -0.09396 0.30788
 C81 C 0.46521 -0.10656 0.30394
 C82 C 0.45853 -0.11637 0.29017
 C83 C 0.44234 -0.10913 0.28630
 H84 H 0.47734 -0.10893 0.31104
 H85 H 0.43287 -0.11384 0.27672
 Cu86 Cu 0.45331 -0.07693 0.32701
 Cu87 Cu 0.41898 -0.08063 0.29974
 Cu88 Cu 0.42665 -0.04210 0.32327
 N89 N 0.45336 -0.05833 0.34458
 N90 N 0.44288 -0.04464 0.34304
 C91 C 0.44544 -0.03380 0.35686
 C92 C 0.45811 -0.04121 0.36755
 C93 C 0.46288 -0.05673 0.35948
 H94 H 0.43840 -0.02164 0.35908
 H95 H 0.47236 -0.06622 0.36422
 N96 N 0.40643 -0.04525 0.30722
 N97 N 0.40326 -0.06009 0.29868
 C98 C 0.38811 -0.05848 0.28959
 C99 C 0.38149 -0.04188 0.29263
 C100 C 0.39331 -0.03381 0.30385
 H101 H 0.38223 -0.06867 0.28153
 H102 H 0.39221 -0.02079 0.30949
 H103 H 0.43589 -0.06095 0.30530
 H104 H 0.42238 -0.06844 0.32439
 N105 N 0.79446 0.30727 0.34319
 N106 N 0.80807 0.29667 0.34459
 C107 C 0.80580 0.28617 0.35869
 C108 C 0.78995 0.29046 0.36641
 C109 C 0.78308 0.30389 0.35636
 H110 H 0.81518 0.27654 0.36333
 H111 H 0.77103 0.31106 0.35882
 Cu112 Cu 0.82803 0.29817 0.32866
 Cu113 Cu 0.79322 0.32547 0.32524
 Cu114 Cu 0.82639 0.32594 0.29404
 N115 N 0.84509 0.29709 0.30963
 N116 N 0.84442 0.30790 0.29613
 C117 C 0.85814 0.30466 0.28538
 C118 C 0.86778 0.29110 0.29257
 C119 C 0.85926 0.28659 0.30793
 H120 H 0.86112 0.31189 0.27349
 H121 H 0.86329 0.27668 0.31732
 N122 N 0.80699 0.34311 0.29421
 N123 N 0.79430 0.34289 0.30609
 C124 C 0.78358 0.35673 0.30332
 C125 C 0.78985 0.36596 0.28903
 C126 C 0.80468 0.35710 0.28356
 H127 H 0.77244 0.36023 0.31145
 H128 H 0.81346 0.36093 0.27302
 H129 H 0.80788 0.31103 0.30737
 H130 H 0.81995 0.32816 0.32042
 N131 N -0.18848 0.84846 0.79915
 N132 N -0.20240 0.84678 0.80934
 C133 C -0.21383 0.85984 0.80578
 C134 C -0.20660 0.87014 0.79270
 C135 C -0.19050 0.86271 0.78881
 H136 H -0.22617 0.86202 0.81256
 H137 H -0.18080 0.86751 0.77956
 Cu138 Cu -0.20329 0.82859 0.82730
 Cu139 Cu -0.16827 0.83277 0.80110
 Cu140 Cu -0.17731 0.79339 0.82260
 N141 N -0.20429 0.80916 0.84388
 N142 N -0.19405 0.79534 0.84199
 C143 C -0.19713 0.78398 0.85525
 C144 C -0.20990 0.79118 0.86595
 C145 C -0.21416 0.80713 0.85846
 H146 H -0.19029 0.77165 0.85717
 H147 H -0.22347 0.81666 0.86346
 N148 N -0.15669 0.79678 0.80717
 N149 N -0.15304 0.81189 0.79936
 C150 C -0.13779 0.81029 0.79046
 C151 C -0.13161 0.79343 0.79288
 C152 C -0.14378 0.78519 0.80353
 H153 H -0.13156 0.82065 0.78294
 H154 H -0.14309 0.77190 0.80858
 H155 H -0.18574 0.81319 0.80529
 H156 H -0.17251 0.81954 0.82502
 N157 N 0.95081 0.34726 0.43926
 N158 N 0.94060 0.34554 0.45315
 C159 C 0.94417 0.35861 0.46463
 C160 C 0.95729 0.36893 0.45743
 C161 C 0.96117 0.36152 0.44133
 H162 H 0.93737 0.36079 0.47695
 H163 H 0.97043 0.36635 0.43164
 Cu164 Cu 0.92263 0.32726 0.45389
 Cu165 Cu 0.94888 0.33166 0.41896
 Cu166 Cu 0.92787 0.29200 0.42799
 N167 N 0.90620 0.30764 0.45473
 N168 N 0.90831 0.29380 0.44451
 C169 C 0.89508 0.28233 0.44737
 C170 C 0.88414 0.28947 0.45996
 C171 C 0.89146 0.30551 0.46436
 H172 H 0.89331 0.26999 0.44046
 H173 H 0.88623 0.31504 0.47354
 N174 N 0.94326 0.29556 0.40740
 N175 N 0.95085 0.31079 0.40375
 C176 C 0.95974 0.30931 0.38849
 C177 C 0.95754 0.29240 0.38232
 C178 C 0.94702 0.28400 0.39449
 H179 H 0.96709 0.31979 0.38225
 H180 H 0.94212 0.27064 0.39378
 H181 H 0.92508 0.31808 0.42317
 H182 H 0.94489 0.31214 0.43645
 N183 N 0.45447 0.44184 0.84266
 N184 N 0.44060 0.45196 0.84480
 C185 C 0.44257 0.46142 0.85968
 C186 C 0.45852 0.45698 0.86711
 C187 C 0.46581 0.44456 0.85606
 H188 H 0.43303 0.47062 0.86486
 H189 H 0.47821 0.43779 0.85777
 Cu190 Cu 0.42128 0.45164 0.82802
 Cu191 Cu 0.45658 0.42581 0.82272
 Cu192 Cu 0.41739 0.41757 0.80045
 N193 N 0.40375 0.45160 0.80935
 N194 N 0.40217 0.43808 0.79862
 C195 C 0.38832 0.44069 0.78786
 C196 C 0.38103 0.45676 0.79202
 C197 C 0.39101 0.46336 0.80571
 H198 H 0.38362 0.43137 0.77814
 H199 H 0.38876 0.47546 0.81287
 N200 N 0.43818 0.40230 0.79860
 N201 N 0.45325 0.40569 0.80666
 C202 C 0.46482 0.39282 0.80285
 C203 C 0.45659 0.38097 0.79181
 C204 C 0.43977 0.38726 0.78936
 H205 H 0.47805 0.39191 0.80808
 H206 H 0.42940 0.38124 0.78161
 H207 H 0.43689 0.43486 0.80555
 H208 H 0.43035 0.42098 0.82472
 N209 N 0.79797 0.90430 0.93999
 N210 N 0.80877 0.90582 0.95349
 C211 C 0.80523 0.89296 0.96518
 C212 C 0.79151 0.88300 0.95858
 C213 C 0.78725 0.89041 0.94258
 H214 H 0.81253 0.89058 0.97719
 H215 H 0.77756 0.88570 0.93322
 Cu216 Cu 0.82746 0.92337 0.95329
 Cu217 Cu 0.79985 0.91939 0.91933
 Cu218 Cu 0.82324 0.95812 0.92659
 N219 N 0.84490 0.94213 0.95320
 N220 N 0.84319 0.95577 0.94267
 C221 C 0.85695 0.96674 0.94508
 C222 C 0.86781 0.95945 0.95768
 C223 C 0.85988 0.94387 0.96257
 H224 H 0.85903 0.97890 0.93799
 H225 H 0.86479 0.93444 0.97203
 N226 N 0.80703 0.95477 0.90651
 N227 N 0.79848 0.93988 0.90357
 C228 C 0.78920 0.94136 0.88852
 C229 C 0.79212 0.95790 0.88173
 C230 C 0.80349 0.96610 0.89333
 H231 H 0.78109 0.93110 0.88283
 H232 H 0.80910 0.97913 0.89205
 H233 H 0.82444 0.93181 0.92241
 H234 H 0.80545 0.93921 0.93609
 N235 N 0.29617 0.84546 0.30821
 N236 N 0.30971 0.84644 0.29747
 C237 C 0.30787 0.86068 0.28708
 C238 C 0.29238 0.86894 0.29161
 C239 C 0.28526 0.85905 0.30505
 H240 H 0.31726 0.86494 0.27725
 H241 H 0.27329 0.86179 0.31227
 Cu242 Cu 0.32896 0.82962 0.29851
 Cu243 Cu 0.29424 0.82725 0.32610
 Cu244 Cu 0.32557 0.79431 0.32517
 N245 N 0.34482 0.80966 0.29651
 N246 N 0.34340 0.79586 0.30686
 C247 C 0.35652 0.78453 0.30324
 C248 C 0.36656 0.79163 0.28991
 C249 C 0.35889 0.80757 0.28593
 H250 H 0.35896 0.77237 0.31020
 H251 H 0.36355 0.81713 0.27647
 N252 N 0.30651 0.79509 0.34271
 N253 N 0.29457 0.80769 0.34309
 C254 C 0.28400 0.80519 0.35712
 C255 C 0.28959 0.79033 0.36583
 C256 C 0.30387 0.78424 0.35648
 H257 H 0.27344 0.81386 0.36109
 H258 H 0.31208 0.77313 0.35986
 H259 H 0.32066 0.82090 0.32832
 H260 H 0.30772 0.80913 0.31089
 N261 N 0.79467 0.40638 0.44316
 N262 N 0.80847 0.40515 0.45358
 C263 C 0.80649 0.39107 0.46415
 C264 C 0.79063 0.38319 0.46010
 C265 C 0.78344 0.39311 0.44673
 H266 H 0.81609 0.38656 0.47366
 H267 H 0.77129 0.39051 0.43973
 Cu268 Cu 0.82831 0.42123 0.45174
 Cu269 Cu 0.79295 0.42428 0.42494
 Cu270 Cu 0.82587 0.45584 0.42412
 N271 N 0.84521 0.44045 0.45267
 N272 N 0.84422 0.45396 0.44191
 C273 C 0.85792 0.46485 0.44497
 C274 C 0.86787 0.45774 0.45837
 C275 C 0.85956 0.44228 0.46298
 H276 H 0.86069 0.47677 0.43771
 H277 H 0.86386 0.43291 0.47278
 N278 N 0.80619 0.45548 0.40720
 N279 N 0.79361 0.44345 0.40751
 C280 C 0.78270 0.44610 0.39376
 C281 C 0.78873 0.46047 0.38450
 C282 C 0.80362 0.46611 0.39325
 H283 H 0.77161 0.43782 0.39032
 H284 H 0.81227 0.47673 0.38932
 H285 H 0.81954 0.42938 0.42189
 H286 H 0.80768 0.44222 0.43924
 N287 N 0.94219 0.84424 -0.04552
 N288 N 0.95398 0.84446 -0.05821
 C289 C 0.96430 0.85880 -0.05628
 C290 C 0.95864 0.86787 -0.04162
 C291 C 0.94462 0.85838 -0.03509
 H292 H 0.97486 0.86260 -0.06505
 H293 H 0.93653 0.86175 -0.02387
 Cu294 Cu 0.95406 0.82639 -0.07637
 Cu295 Cu 0.92403 0.82613 -0.04395
 Cu296 Cu 0.92421 0.79373 -0.07622
 N297 N 0.95418 0.80815 -0.09437
 N298 N 0.94245 0.79536 -0.09418
 C299 C 0.94499 0.78489 -0.10826
 C300 C 0.95904 0.79149 -0.11766
 C301 C 0.96458 0.80624 -0.10862
 H302 H 0.93698 0.77359 -0.11164
 H303 H 0.97511 0.81507 -0.11237
 N304 N 0.90684 0.79437 -0.05694
 N305 N 0.90677 0.80671 -0.04466
 C306 C 0.89285 0.80407 -0.03397
 C307 C 0.88389 0.78941 -0.03983
 C308 C 0.89297 0.78358 -0.05439
 H309 H 0.88913 0.81249 -0.02312
 H310 H 0.88936 0.77265 -0.06280
 H311 H 0.93807 0.80672 -0.05672
 H312 H 0.92303 0.82034 -0.07055
 N313 N 0.29762 0.34626 0.80917
 N314 N 0.31128 0.34731 0.79857
 C315 C 0.30923 0.36125 0.78782
 C316 C 0.29347 0.36922 0.79195
 C317 C 0.28643 0.35950 0.80555
 H318 H 0.31866 0.36553 0.77804
 H319 H 0.27433 0.36215 0.81258
 Cu320 Cu 0.33091 0.33102 0.80030
 Cu321 Cu 0.29592 0.32853 0.82754
 Cu322 Cu 0.32812 0.29642 0.82795
 N323 N 0.34726 0.31140 0.79903
 N324 N 0.34611 0.29790 0.80980
 C325 C 0.35938 0.28666 0.80646
 C326 C 0.36925 0.29352 0.79287
 C327 C 0.36132 0.30921 0.78844
 H328 H 0.36194 0.27465 0.81364
 H329 H 0.36567 0.31847 0.77855
 N330 N 0.30883 0.29722 0.84524
 N331 N 0.29653 0.30948 0.84509
 C332 C 0.28576 0.30702 0.85897
 C333 C 0.29160 0.29254 0.86814
 C334 C 0.30622 0.28663 0.85922
 H335 H 0.27483 0.31542 0.86247
 H336 H 0.31461 0.27577 0.86296
 H337 H 0.32245 0.32298 0.83026
 H338 H 0.31004 0.31035 0.81303
 N339 N 0.15906 0.55559 0.54226
 N340 N 0.15741 0.54492 0.55581
 C341 C 0.14277 0.53510 0.55373
 C342 C 0.13499 0.53984 0.53803
 C343 C 0.14558 0.55284 0.53103
 H344 H 0.13789 0.52556 0.56309
 H345 H 0.14341 0.56009 0.51897
 Cu346 Cu 0.17422 0.54540 0.57508
 Cu347 Cu 0.17839 0.57250 0.54061
 Cu348 Cu 0.20027 0.58048 0.58009
 N349 N 0.19255 0.54581 0.59295
 N350 N 0.20268 0.55974 0.59496
 C351 C 0.21314 0.55741 0.60910
 C352 C 0.20940 0.54111 0.61613
 C353 C 0.19627 0.53407 0.60570
 H354 H 0.22224 0.56712 0.61424
 H355 H 0.18944 0.52173 0.60772
 N356 N 0.20168 0.59636 0.55967
 N357 N 0.19376 0.59311 0.54450
 C358 C 0.19728 0.60636 0.53325
 C359 C 0.20797 0.61833 0.54180
 C360 C 0.21053 0.61169 0.55847
 H361 H 0.19214 0.60740 0.52000
 H362 H 0.21814 0.61763 0.56897
 H363 H 0.19597 0.56361 0.56003
 H364 H 0.17621 0.57643 0.56693
 N365 N 0.59387 0.69127 0.04570
 N366 N 0.59529 0.70172 0.05946
 C367 C 0.60960 0.71205 0.05748
 C368 C 0.61743 0.70780 0.04167
 C369 C 0.60723 0.69458 0.03451
 H370 H 0.61422 0.72162 0.06699
 H371 H 0.60963 0.68757 0.02235
 Cu372 Cu 0.57898 0.70029 0.07915
 Cu373 Cu 0.57553 0.67345 0.04389
 Cu374 Cu 0.54365 0.67335 0.07638
 N375 N 0.55958 0.70166 0.09580
 N376 N 0.54581 0.69118 0.09466
 C377 C 0.53484 0.69452 0.10818
 C378 C 0.54215 0.70781 0.11817
 C379 C 0.55783 0.71206 0.11007
 H380 H 0.52269 0.68753 0.11080
 H381 H 0.56739 0.72170 0.11445
 N382 N 0.54379 0.65634 0.05679
 N383 N 0.55596 0.65640 0.04437
 C384 C 0.55314 0.64266 0.03349
 C385 C 0.53851 0.63366 0.03936
 C386 C 0.53290 0.64255 0.05414
 H387 H 0.56147 0.63903 0.02254
 H388 H 0.52212 0.63883 0.06267
 H389 H 0.55775 0.68816 0.05840
 H390 H 0.57010 0.67060 0.07046
 N391 N 0.69257 0.20492 0.65618
 N392 N 0.70321 0.19133 0.65503
 C393 C 0.71347 0.19320 0.64068
 C394 C 0.70897 0.20877 0.63256
 C395 C 0.69568 0.21589 0.64262
 H396 H 0.72314 0.18376 0.63623
 H397 H 0.68847 0.22786 0.63997
 Cu398 Cu 0.70215 0.17193 0.67167
 Cu399 Cu 0.67470 0.20671 0.67440
 Cu400 Cu 0.67520 0.17486 0.70686
 N401 N 0.70382 0.15573 0.69140
 N402 N 0.69335 0.15696 0.70513
 C403 C 0.69678 0.14365 0.71630
 C404 C 0.71012 0.13368 0.70917
 C405 C 0.71430 0.14158 0.69338
 H406 H 0.68971 0.14105 0.72838
 H407 H 0.72384 0.13706 0.68384
 N408 N 0.65784 0.19402 0.70629
 N409 N 0.65767 0.20622 0.69391
 C410 C 0.64370 0.21681 0.69649
 C411 C 0.63482 0.21098 0.71118
 C412 C 0.64400 0.19653 0.71707
 H413 H 0.63985 0.22753 0.68796
 H414 H 0.64043 0.18810 0.72797
 H415 H 0.68972 0.19286 0.69242
 H416 H 0.67230 0.18023 0.68027
 N417 N 1.09023 0.05481 0.20818
 N418 N 1.09019 0.04272 0.19576
 C419 C 1.10513 0.03324 0.19689
 C420 C 1.11489 0.03974 0.21080
 C421 C 1.10514 0.05339 0.21771
 H422 H 1.10863 0.02249 0.18824
 H423 H 1.10863 0.06171 0.22875
 Cu424 Cu 1.07053 0.04040 0.17945
 Cu425 Cu 1.07082 0.07124 0.21112
 Cu426 Cu 1.04284 0.07463 0.17511
 N427 N 1.05472 0.04235 0.15942
 N428 N 1.04412 0.05590 0.15766
 C429 C 1.03500 0.05425 0.14253
 C430 C 1.04019 0.03887 0.13448
 C431 C 1.05274 0.03160 0.14542
 H432 H 1.02543 0.06359 0.13768
 H433 H 1.06005 0.01959 0.14323
 N434 N 1.04344 0.09207 0.19432
 N435 N 1.05386 0.09059 0.20819
 C436 C 1.05135 0.10454 0.21885
 C437 C 1.03872 0.11514 0.21132
 C438 C 1.03398 0.10698 0.19582
 H439 H 1.05846 0.10702 0.23096
 H440 H 1.02453 0.11171 0.18627
 H441 H 1.05070 0.05985 0.19610
 H442 H 1.06850 0.07193 0.18426
 N443 N 0.05619 0.15783 1.04450
 N444 N 0.04532 0.15689 1.05793
 C445 C 0.03482 0.14270 1.05591
 C446 C 0.03941 0.13447 1.04040
 C447 C 0.05301 0.14429 1.03348
 H448 H 0.02495 0.13838 1.06523
 H449 H 0.06042 0.14144 1.02166
 Cu450 Cu 0.04644 0.17354 1.07739
 Cu451 Cu 0.07448 0.17568 1.04299
 Cu452 Cu 0.07475 0.20786 1.07519
 N453 N 0.04558 0.19298 1.09406
 N454 N 0.05655 0.20638 1.09311
 C455 C 0.05348 0.21740 1.10666
 C456 C 0.03986 0.21053 1.11648
 C457 C 0.03514 0.19505 1.10824
 H458 H 0.06095 0.22921 1.10949
 H459 H 0.02521 0.18578 1.11255
 N460 N 0.09213 0.20708 1.05597
 N461 N 0.09199 0.19478 1.04367
 C462 C 0.10601 0.19712 1.03305
 C463 C 0.11526 0.21157 1.03897
 C464 C 0.10624 0.21758 1.05350
 H465 H 0.10963 0.18859 1.02224
 H466 H 0.11006 0.22837 1.06200
 H467 H 0.07670 0.18132 1.06962
 H468 H 0.05993 0.19412 1.05688
 N469 N 0.15802 0.70652 0.69420
 N470 N 0.15651 0.69289 0.70478
 C471 C 0.14186 0.69472 0.71460
 C472 C 0.13392 0.71035 0.70994
 C473 C 0.14444 0.71755 0.69700
 H474 H 0.13711 0.68526 0.72412
 H475 H 0.14218 0.72965 0.68985
 Cu476 Cu 0.17362 0.67391 0.70426
 Cu477 Cu 0.17732 0.70863 0.67736
 Cu478 Cu 0.20005 0.66978 0.66939
 N479 N 0.19223 0.65636 0.70385
 N480 N 0.20252 0.65472 0.69001
 C481 C 0.21320 0.64079 0.69231
 C482 C 0.20946 0.63349 0.70850
 C483 C 0.19609 0.64356 0.71550
 H484 H 0.22248 0.63597 0.68266
 H485 H 0.18921 0.64127 0.72775
 N486 N 0.20111 0.69027 0.65359
 N487 N 0.19286 0.70522 0.65684
 C488 C 0.19619 0.71660 0.64365
 C489 C 0.20709 0.70838 0.63170
 C490 C 0.20998 0.69176 0.63831
 H491 H 0.19078 0.72971 0.64262
 H492 H 0.21782 0.68148 0.63237
 H493 H 0.17570 0.68231 0.67328
 H494 H 0.19520 0.68961 0.68638
 N495 N 1.19414 0.15828 0.20662
 N496 N 1.20608 0.15827 0.19406
 C497 C 1.21659 0.14415 0.19610
 C498 C 1.21089 0.13500 0.21069
 C499 C 1.19664 0.14420 0.21706
 H500 H 1.22723 0.14048 0.18739
 H501 H 1.18842 0.14064 0.22812
 Cu502 Cu 1.20605 0.17628 0.17586
 Cu503 Cu 1.17555 0.17584 0.20785
 Cu504 Cu 1.17558 0.20827 0.17574
 N505 N 1.20609 0.19463 0.15799
 N506 N 1.19418 0.20719 0.15813
 C507 C 1.19669 0.21772 0.14410
 C508 C 1.21091 0.21141 0.13480
 C509 C 1.21659 0.19676 0.14385
 H510 H 1.18848 0.22880 0.14063
 H511 H 1.22719 0.18806 0.14008
 N512 N 1.15785 0.20710 0.19465
 N513 N 1.15785 0.19473 0.20688
 C514 C 1.14371 0.19696 0.21735
 C515 C 1.13452 0.21138 0.21142
 C516 C 1.14370 0.21751 0.19704
 H517 H 1.14004 0.18843 0.22814
 H518 H 1.14002 0.22839 0.18864
 H519 H 1.17485 0.18160 0.18121
 H520 H 1.18946 0.19554 0.19531
 N521 N 0.65875 1.04301 0.55447
 N522 N 0.65951 1.05495 0.54196
 C523 C 0.64492 1.05373 0.53189
 C524 C 0.63464 1.04026 0.53848
 C525 C 0.64372 1.03373 0.55277
 H526 H 0.64192 1.06211 0.52078
 H527 H 0.63963 1.02314 0.56137
 Cu528 Cu 0.67933 1.07114 0.54030
 Cu529 Cu 0.67737 1.04033 0.57189
 Cu530 Cu 0.70916 1.07316 0.57294
 N531 N 0.69497 1.09128 0.54296
 N532 N 0.70651 1.09209 0.55589
 C533 C 0.71558 1.10730 0.55472
 C534 C 0.70931 1.11641 0.54034
 C535 C 0.69624 1.10598 0.53315
 H536 H 0.72593 1.11140 0.56364
 H537 H 0.68825 1.10890 0.52171
 N538 N 0.70721 1.05483 0.59121
 N539 N 0.69511 1.04231 0.59078
 C540 C 0.69681 1.03217 0.60523
 C541 C 0.71064 1.03863 0.61507
 C542 C 0.71694 1.05299 0.60595
 H543 H 0.68841 1.02115 0.60854
 H544 H 0.72757 1.06162 0.60995
 H545 H 0.68271 1.06698 0.57178
 H546 H 0.69804 1.05257 0.55923
 N547 N 0.55806 0.54623 0.15519
 N548 N 0.54665 0.55923 0.15463
 C549 C 0.53568 0.55670 0.14089
 C550 C 0.54051 0.54135 0.13254
 C551 C 0.55475 0.53502 0.14183
 H552 H 0.52524 0.56554 0.13697
 H553 H 0.56242 0.52343 0.13880
 Cu554 Cu 0.54748 0.57859 0.17142
 Cu555 Cu 0.57693 0.54538 0.17250
 Cu556 Cu 0.57778 0.57826 0.20402
 N557 N 0.54765 0.59623 0.19003
 N558 N 0.55937 0.59595 0.20281
 C559 C 0.55665 0.60977 0.21357
 C560 C 0.54246 0.61908 0.20718
 C561 C 0.53704 0.61025 0.19226
 H562 H 0.56459 0.61303 0.22496
 H563 H 0.52639 0.61395 0.18355
 N564 N 0.59533 0.55927 0.20310
 N565 N 0.59503 0.54672 0.19105
 C566 C 0.60907 0.53616 0.19343
 C567 C 0.61851 0.54239 0.20763
 C568 C 0.60957 0.55702 0.21347
 H569 H 0.61244 0.52504 0.18521
 H570 H 0.61343 0.56560 0.22418
 H571 H 0.56298 0.55902 0.19154
 H572 H 0.57841 0.57212 0.17750
 N573 N 0.65600 0.69180 0.20488
 N574 N 0.65528 0.70330 0.19194
 C575 C 0.64074 0.71326 0.19387
 C576 C 0.63206 0.70767 0.20880
 C577 C 0.64198 0.69406 0.21549
 H578 H 0.63659 0.72356 0.18499
 H579 H 0.63911 0.68626 0.22704
 Cu580 Cu 0.67310 0.70344 0.17348
 Cu581 Cu 0.67503 0.67472 0.20687
 Cu582 Cu 0.70672 0.67494 0.17415
 N583 N 0.69099 0.70359 0.15510
 N584 N 0.70402 0.69218 0.15532
 C585 C 0.71420 0.69467 0.14103
 C586 C 0.70714 0.70834 0.13144
 C587 C 0.69244 0.71372 0.14061
 H588 H 0.72574 0.68702 0.13777
 H589 H 0.68340 0.72403 0.13684
 N590 N 0.70547 0.65653 0.19242
 N591 N 0.69337 0.65646 0.20493
 C592 C 0.69555 0.64204 0.21500
 C593 C 0.70969 0.63273 0.20851
 C594 C 0.71567 0.64215 0.19422
 H595 H 0.68729 0.63837 0.22600
 H596 H 0.72642 0.63859 0.18559
 H597 H 0.69374 0.68901 0.19335
 H598 H 0.68019 0.67318 0.18016
 N599 N 0.15956 0.05518 1.04197
 N600 N 0.15913 0.04354 1.05480
 C601 C 0.14449 0.03361 1.05309
 C602 C 0.13544 0.03935 1.03843
 C603 C 0.14525 0.05304 1.03167
 H604 H 0.14046 0.02329 1.06202
 H605 H 0.14205 0.06106 1.02035
 Cu606 Cu 0.17727 0.04343 1.07297
 Cu607 Cu 0.17847 0.07246 1.03983
 Cu608 Cu 0.21070 0.07227 1.07212
 N609 N 0.19541 0.04332 1.09114
 N610 N 0.20835 0.05488 1.09085
 C611 C 0.21858 0.05262 1.10518
 C612 C 0.21165 0.03892 1.11485
 C613 C 0.19697 0.03330 1.10569
 H614 H 0.22995 0.06057 1.10850
 H615 H 0.18790 0.02304 1.10962
 N616 N 0.20906 0.09081 1.05402
 N617 N 0.19675 0.09087 1.04168
 C618 C 0.19860 0.10549 1.03182
 C619 C 0.21273 0.11493 1.03826
 C620 C 0.21906 0.10539 1.05232
 H621 H 0.19005 0.10924 1.02106
 H622 H 0.22984 0.10904 1.06092
 H623 H 0.19747 0.05826 1.05297
 H624 H 0.18405 0.07383 1.06650
 N625 N 0.59221 0.20645 0.55571
 N626 N 0.59399 0.19242 0.54571
 C627 C 0.60919 0.19364 0.53667
 C628 C 0.61718 0.20930 0.54124
 C629 C 0.60615 0.21717 0.55330
 H630 H 0.61419 0.18384 0.52765
 H631 H 0.60820 0.22956 0.56002
 Cu632 Cu 0.57636 0.17387 0.54577
 Cu633 Cu 0.57198 0.20961 0.57119
 Cu634 Cu 0.54813 0.17136 0.57925
 N635 N 0.55731 0.15674 0.54565
 N636 N 0.54628 0.15578 0.55897
 C637 C 0.53535 0.14203 0.55654
 C638 C 0.53971 0.13413 0.54081
 C639 C 0.55372 0.14365 0.53421
 H640 H 0.52546 0.13773 0.56585
 H641 H 0.56118 0.14077 0.52243
 N642 N 0.54671 0.19238 0.59428
 N643 N 0.55542 0.20709 0.59102
 C644 C 0.55195 0.21881 0.60389
 C645 C 0.54043 0.21104 0.61558
 C646 C 0.53737 0.19435 0.60919
 H647 H 0.55784 0.23174 0.60499
 H648 H 0.52926 0.18428 0.61516
 H649 H 0.57290 0.18346 0.57626
 H650 H 0.55421 0.19050 0.56194
 N651 N 0.09255 0.55698 0.70608
 N652 N 0.09364 0.54606 0.69267
 C653 C 0.10779 0.53563 0.69489
 C654 C 0.11586 0.54030 0.71048
 C655 C 0.10598 0.55389 0.71726
 H656 H 0.11219 0.52574 0.68564
 H657 H 0.10869 0.56132 0.72912
 Cu658 Cu 0.07724 0.54705 0.67301
 Cu659 Cu 0.07457 0.57510 0.70739
 Cu660 Cu 0.04253 0.57466 0.67498
 N661 N 0.05783 0.54565 0.65631
 N662 N 0.04427 0.55637 0.65716
 C663 C 0.03334 0.55303 0.64357
 C664 C 0.04045 0.53950 0.63383
 C665 C 0.05597 0.53511 0.64215
 H666 H 0.02145 0.56029 0.64064
 H667 H 0.06541 0.52535 0.63791
 N668 N 0.04304 0.59217 0.69408
 N669 N 0.05530 0.59237 0.70645
 C670 C 0.05274 0.60645 0.71693
 C671 C 0.03818 0.61538 0.71086
 C672 C 0.03235 0.60611 0.69638
 H673 H 0.06117 0.61030 0.72777
 H674 H 0.02154 0.60966 0.68780
 H675 H 0.05642 0.56020 0.69344
 H676 H 0.06907 0.57715 0.68077
 N677 N 0.65626 0.54477 0.05727
 N678 N 0.65658 0.55679 0.04482
 C679 C 0.64265 0.55435 0.03407
 C680 C 0.63327 0.54003 0.04013
 C681 C 0.64213 0.53427 0.05486
 H682 H 0.63927 0.56263 0.02300
 H683 H 0.63833 0.52356 0.06343
 Cu684 Cu 0.67460 0.57506 0.04438
 Cu685 Cu 0.67350 0.54419 0.07620
 Cu686 Cu 0.70505 0.57719 0.07671
 N687 N 0.69205 0.59385 0.04535
 N688 N 0.70389 0.59460 0.05800
 C689 C 0.71388 0.60910 0.05583
 C690 C 0.70796 0.61778 0.04106
 C691 C 0.69410 0.60788 0.03471
 H692 H 0.72443 0.61321 0.06452
 H693 H 0.68593 0.61090 0.02344
 N694 N 0.70408 0.55837 0.09449
 N695 N 0.69205 0.54577 0.09429
 C696 C 0.69450 0.53528 0.10836
 C697 C 0.70872 0.54158 0.11772
 C698 C 0.71450 0.55620 0.10871
 H699 H 0.68634 0.52411 0.11180
 H700 H 0.72524 0.56480 0.11247
 H701 H 0.67848 0.57102 0.07604
 H702 H 0.69358 0.55680 0.06282
 N703 N 0.05721 0.70509 0.59324
 N704 N 0.04594 0.69194 0.59391
 C705 C 0.03512 0.69428 0.60777
 C706 C 0.03992 0.70969 0.61609
 C707 C 0.05398 0.71623 0.60666
 H708 H 0.02487 0.68524 0.61180
 H709 H 0.06160 0.72790 0.60966
 Cu710 Cu 0.04686 0.67244 0.57732
 Cu711 Cu 0.07589 0.70616 0.57579
 Cu712 Cu 0.07589 0.67387 0.54368
 N713 N 0.04602 0.65566 0.55797
 N714 N 0.05727 0.65633 0.54482
 C715 C 0.05411 0.64280 0.53378
 C716 C 0.04013 0.63329 0.54038
 C717 C 0.03529 0.64168 0.55572
 H718 H 0.06175 0.63977 0.52216
 H719 H 0.02508 0.63762 0.56478
 N720 N 0.09369 0.69270 0.54475
 N721 N 0.09372 0.70502 0.55703
 C722 C 0.10792 0.71544 0.55476
 C723 C 0.11712 0.70936 0.54038
 C724 C 0.10787 0.69496 0.53433
 H725 H 0.11160 0.72632 0.56320
 H726 H 0.11150 0.68650 0.52347
 H727 H 0.06133 0.69260 0.55707
 H728 H 0.07748 0.67952 0.57030
 N729 N 0.55644 1.04483 0.65652
 N730 N 0.54559 1.05826 0.65539
 C731 C 0.53514 1.05610 0.64118
 C732 C 0.53973 1.04050 0.63315
 C733 C 0.55329 1.03367 0.64308
 H734 H 0.52529 1.06537 0.63675
 H735 H 0.56066 1.02179 0.64042
 Cu736 Cu 0.54659 1.07784 0.67192
 Cu737 Cu 0.57455 1.04343 0.67459
 Cu738 Cu 0.57468 1.07598 0.70643
 N739 N 0.54571 1.09479 0.69114
 N740 N 0.55661 1.09398 0.70461
 C741 C 0.55347 1.10760 0.71551
 C742 C 0.53987 1.11732 0.70848
 C743 C 0.53524 1.10896 0.69302
 H744 H 0.56083 1.11050 0.72738
 H745 H 0.52531 1.11312 0.68369
 N746 N 0.59195 1.05669 0.70604
 N747 N 0.59188 1.04425 0.69388
 C748 C 0.60576 1.03355 0.69656
 C749 C 0.61486 1.03956 0.71108
 C750 C 0.60588 1.05423 0.71678
 H751 H 0.60937 1.02258 0.68823
 H752 H 0.60960 1.06279 0.72756
 H753 H 0.55992 1.05753 0.69279
 H754 H 0.57680 1.07008 0.67992
 N755 N 0.45466 0.34393 0.94191
 N756 N 0.44312 0.34300 0.95479
 C757 C 0.44461 0.35748 0.96496
 C758 C 0.45782 0.36785 0.95802
 C759 C 0.46394 0.35897 0.94343
 H760 H 0.43670 0.36024 0.97648
 H761 H 0.47437 0.36308 0.93463
 Cu762 Cu 0.42721 0.32301 0.95704
 Cu763 Cu 0.45718 0.32519 0.92460
 Cu764 Cu 0.42508 0.29274 0.92482
 N765 N 0.40720 0.30708 0.95483
 N766 N 0.40634 0.29541 0.94205
 C767 C 0.39129 0.28613 0.94357
 C768 C 0.38232 0.29238 0.95804
 C769 C 0.39267 0.30567 0.96492
 H770 H 0.38721 0.27562 0.93484
 H771 H 0.38985 0.31369 0.97635
 N772 N 0.44305 0.29467 0.90621
 N773 N 0.45528 0.30707 0.90610
 C774 C 0.46529 0.30514 0.89158
 C775 C 0.45902 0.29086 0.88227
 C776 C 0.44494 0.28453 0.89178
 H777 H 0.47615 0.31361 0.88790
 H778 H 0.43656 0.27352 0.88829
 H779 H 0.43065 0.31930 0.92549
 H780 H 0.44576 0.30453 0.93791
 N781 N 0.95548 0.44222 0.34393
 N782 N 0.94194 0.45289 0.34551
 C783 C 0.94378 0.46245 0.36035
 C784 C 0.95932 0.45749 0.36832
 C785 C 0.96648 0.44466 0.35766
 H786 H 0.93445 0.47207 0.36512
 H787 H 0.97857 0.43745 0.35982
 Cu788 Cu 0.92316 0.45304 0.32811
 Cu789 Cu 0.95764 0.42591 0.32419
 Cu790 Cu 0.91882 0.41881 0.30087
 N791 N 0.90590 0.45331 0.30916
 N792 N 0.90416 0.43970 0.29857
 C793 C 0.89038 0.44241 0.28773
 C794 C 0.88331 0.45863 0.29169
 C795 C 0.89335 0.46522 0.30536
 H796 H 0.88548 0.43300 0.27820
 H797 H 0.89115 0.47735 0.31248
 N798 N 0.93920 0.40291 0.29958
 N799 N 0.95415 0.40584 0.30805
 C800 C 0.96546 0.39268 0.30446
 C801 C 0.95719 0.38109 0.29315
 C802 C 0.94061 0.38787 0.29031
 H803 H 0.97854 0.39141 0.30997
 H804 H 0.93031 0.38220 0.28223
 H805 H 0.93883 0.43546 0.30632
 H806 H 0.93125 0.42204 0.32543
 N807 N 0.29672 0.94133 0.40490
 N808 N 0.31039 0.95192 0.40359
 C809 C 0.30834 0.96226 0.38933
 C810 C 0.29257 0.95785 0.38142
 C811 C 0.28552 0.94454 0.39151
 H812 H 0.31773 0.97199 0.38484
 H813 H 0.27337 0.93748 0.38907
 Cu814 Cu 0.33000 0.95081 0.42007
 Cu815 Cu 0.29489 0.92367 0.42331
 Cu816 Cu 0.32705 0.92434 0.45559
 N817 N 0.34646 0.95257 0.43966
 N818 N 0.34521 0.94227 0.45352
 C819 C 0.35862 0.94579 0.46463
 C820 C 0.36865 0.95900 0.45730
 C821 C 0.36072 0.96302 0.44146
 H822 H 0.36116 0.93892 0.47684
 H823 H 0.36522 0.97250 0.43183
 N824 N 0.30762 0.90715 0.45538
 N825 N 0.29535 0.90686 0.44302
 C826 C 0.28457 0.89305 0.44587
 C827 C 0.29035 0.88438 0.46070
 C828 C 0.30497 0.89352 0.46641
 H829 H 0.27374 0.88917 0.43744
 H830 H 0.31341 0.89008 0.47735
 H831 H 0.30907 0.93878 0.44108
 H832 H 0.32143 0.92116 0.42909
 O833 O 0.20314 0.52305 0.74917
 O834 O 0.20925 0.52073 0.77918
 O835 O 0.24906 0.54730 0.72732
 O836 O 0.27811 0.54221 0.72664
 O837 O 0.22693 0.50119 0.70282
 O838 O 0.22816 0.47051 0.70928
 O839 O 0.29635 0.49942 0.77222
 O840 O 0.29143 0.52946 0.76879
 O841 O 0.25210 0.47748 0.79548
 O842 O 0.22009 0.47873 0.78971
 O843 O 0.27287 0.45439 0.75049
 O844 O 0.27141 0.46051 0.71893
 O845 O 0.29610 0.47822 0.75094
 O846 O 0.28932 0.48015 0.71831
 O847 O 0.25189 0.45415 0.77187
 O848 O 0.21943 0.46061 0.77031
 O849 O 0.27360 0.49842 0.79523
 O850 O 0.26762 0.53026 0.78976
 O851 O 0.20273 0.50159 0.72812
 O852 O 0.20928 0.47035 0.72947
 O853 O 0.24819 0.52241 0.70256
 O854 O 0.28010 0.51971 0.70941
 O855 O 0.22773 0.54720 0.74841
 O856 O 0.23222 0.54020 0.78015
 Zr857 Zr 0.22888 0.52175 0.75941
 O858 O 0.24441 0.50595 0.77608
 Zr859 Zr 0.25937 0.52163 0.72794
 O860 O 0.27640 0.50636 0.74356
 Zr861 Zr 0.22828 0.49071 0.72843
 O862 O 0.24417 0.47380 0.74361
 Zr863 Zr 0.27109 0.51041 0.77039
 O864 O 0.25566 0.52759 0.75480
 Zr865 Zr 0.24024 0.47922 0.77046
 O866 O 0.22298 0.49492 0.75527
 Zr867 Zr 0.27092 0.47959 0.73925
 O868 O 0.25500 0.49486 0.72219
 O869 O 0.23281 0.51731 0.73268
 O870 O 0.26691 0.48365 0.76602
 C871 C 0.19550 0.51401 0.73705
 C872 C 0.23670 0.55466 0.73617
 C873 C 0.23580 0.51345 0.69528
 C874 C 0.30347 0.48678 0.76357
 C875 C 0.26501 0.48585 0.80254
 C876 C 0.26448 0.44705 0.76316
 H877 H 0.24178 0.50880 0.78851
 H878 H 0.24132 0.46145 0.74067
 H879 H 0.22521 0.52482 0.72523
 H880 H 0.28878 0.50936 0.74082
 H881 H 0.28576 0.54063 0.76522
 H882 H 0.28740 0.53946 0.73534
 H883 H 0.22130 0.45257 0.76023
 H884 H 0.20347 0.47129 0.74109
 H885 H 0.27784 0.52980 0.79790
 H886 H 0.22290 0.54929 0.77918
 H887 H 0.26041 0.45354 0.71975
 H888 H 0.23993 0.47071 0.70369
 H889 H 0.20444 0.50861 0.77909
 H890 H 0.22147 0.48933 0.79716
 H891 H 0.27793 0.50891 0.70243
 H892 H 0.29767 0.48991 0.72057
 O893 O 0.24882 0.04752 0.22721
 O894 O 0.27892 0.04193 0.22978
 O895 O 0.22772 0.00124 0.20283
 O896 O 0.22718 -0.02779 0.20809
 O897 O 0.20275 0.02316 0.24873
 O898 O 0.20901 0.02166 0.27954
 O899 O 0.27308 -0.04519 0.25094
 O900 O 0.26971 -0.04028 0.22095
 O901 O 0.29571 -0.00049 0.27308
 O902 O 0.28951 0.03124 0.27183
 O903 O 0.25099 -0.02216 0.29597
 O904 O 0.21954 -0.02138 0.28989
 O905 O 0.25176 -0.04537 0.27207
 O906 O 0.21893 -0.03900 0.26997
 O907 O 0.27207 -0.00081 0.29628
 O908 O 0.26989 0.03165 0.28974
 O909 O 0.29577 -0.02199 0.25217
 O910 O 0.29023 -0.01610 0.22018
 O911 O 0.22781 0.04762 0.24870
 O912 O 0.22892 0.04093 0.27995
 O913 O 0.20276 0.00195 0.22751
 O914 O 0.20991 -0.02988 0.23054
 O915 O 0.24850 0.02293 0.20305
 O916 O 0.28023 0.01908 0.21021
 Zr917 Zr 0.25939 0.02200 0.22860
 O918 O 0.27625 0.00678 0.24448
 Zr919 Zr 0.22828 -0.00896 0.22858
 O920 O 0.24414 -0.02572 0.24393
 Zr921 Zr 0.22831 0.02204 0.25949
 O922 O 0.24368 0.00641 0.27649
 Zr923 Zr 0.27092 -0.01995 0.24001
 O924 O 0.25513 -0.00480 0.22275
 Zr925 Zr 0.27049 0.01083 0.27120
 O926 O 0.25510 0.02781 0.25541
 Zr927 Zr 0.23972 -0.02039 0.27071
 O928 O 0.22244 -0.00475 0.25535
 O929 O 0.23269 0.01764 0.23290
 O930 O 0.26646 -0.01589 0.26677
 C931 C 0.23666 0.05498 0.23628
 C932 C 0.23646 0.01372 0.19549
 C933 C 0.19533 0.01426 0.23638
 C934 C 0.26449 -0.05251 0.26352
 C935 C 0.30296 -0.01328 0.26477
 C936 C 0.26356 -0.01356 0.30336
 H937 H 0.28866 0.00962 0.24169
 H938 H 0.24068 0.00919 0.28885
 H939 H 0.22521 0.02513 0.22531
 H940 H 0.24156 -0.03812 0.24092
 H941 H 0.26588 -0.03472 0.20980
 H942 H 0.23600 -0.03691 0.21091
 H943 H 0.26001 0.02943 0.29792
 H944 H 0.24050 0.04690 0.27918
 H945 H 0.29862 -0.02607 0.22077
 H946 H 0.27920 0.02844 0.20116
 H947 H 0.21985 -0.01017 0.29649
 H948 H 0.20348 0.00985 0.27911
 H949 H 0.27852 0.04693 0.24181
 H950 H 0.29675 0.03025 0.26106
 H951 H 0.20285 -0.02773 0.24128
 H952 H 0.22141 -0.04742 0.26035
 O953 O 0.45313 0.75195 0.27256
 O954 O 0.45860 0.72185 0.27047
 O955 O 0.49946 0.77318 0.29680
 O956 O 0.52854 0.77344 0.29167
 O957 O 0.47782 0.79759 0.25049
 O958 O 0.47920 0.79092 0.21979
 O959 O 0.54594 0.72710 0.24933
 O960 O 0.54092 0.73079 0.27932
 O961 O 0.50123 0.70446 0.22728
 O962 O 0.46939 0.71070 0.22852
 O963 O 0.52296 0.74884 0.20398
 O964 O 0.52235 0.78031 0.20983
 O965 O 0.54619 0.74812 0.22791
 O966 O 0.54004 0.78091 0.22968
 O967 O 0.50149 0.72788 0.20382
 O968 O 0.46905 0.73005 0.21034
 O969 O 0.52267 0.70452 0.24827
 O970 O 0.51667 0.71031 0.28014
 O971 O 0.45320 0.77276 0.25090
 O972 O 0.45987 0.77106 0.21966
 O973 O 0.49901 0.79774 0.27177
 O974 O 0.53087 0.79035 0.26903
 O975 O 0.47767 0.75250 0.29678
 O976 O 0.48152 0.72064 0.29000
 Zr977 Zr 0.47865 0.74126 0.27138
 O978 O 0.49386 0.72419 0.25571
 Zr979 Zr 0.50978 0.77220 0.27110
 O980 O 0.52653 0.75613 0.25598
 Zr981 Zr 0.47879 0.77193 0.24010
 O982 O 0.49441 0.75635 0.22333
 Zr983 Zr 0.52065 0.72945 0.26019
 O984 O 0.50550 0.74547 0.27724
 Zr985 Zr 0.48988 0.72966 0.22891
 O986 O 0.47290 0.74525 0.24449
 Zr987 Zr 0.52125 0.76028 0.22914
 O988 O 0.50563 0.77776 0.24426
 O989 O 0.48314 0.76785 0.26676
 O990 O 0.51664 0.73364 0.23337
 C991 C 0.44575 0.76408 0.26339
 C992 C 0.48689 0.76461 0.30420
 C993 C 0.48673 0.80509 0.26277
 C994 C 0.55329 0.73549 0.23663
 C995 C 0.51399 0.69727 0.23569
 C996 C 0.51427 0.73631 0.19666
 H997 H 0.49097 0.71184 0.25863
 H998 H 0.49166 0.75924 0.21094
 H999 H 0.47567 0.77545 0.27423
 H1000 H 0.53896 0.75868 0.25900
 H1001 H 0.53530 0.73458 0.29045
 H1002 H 0.53751 0.76439 0.28912
 H1003 H 0.47116 0.73999 0.20221
 H1004 H 0.45374 0.75960 0.22070
 H1005 H 0.52667 0.70194 0.27970
 H1006 H 0.47221 0.72185 0.29908
 H1007 H 0.51118 0.77991 0.20312
 H1008 H 0.49104 0.79642 0.22012
 H1009 H 0.45381 0.72193 0.25834
 H1010 H 0.47054 0.70341 0.23924
 H1011 H 0.52881 0.79730 0.25820
 H1012 H 0.54842 0.77850 0.23937
 O1013 O 0.00026 0.70312 0.72687
 O1014 O -0.02983 0.70886 0.72947
 O1015 O 0.02146 0.74928 0.70252
 O1016 O 0.02188 0.77833 0.70771
 O1017 O 0.04658 0.72751 0.74834
 O1018 O 0.04039 0.72886 0.77915
 O1019 O -0.02364 0.79589 0.75098
 O1020 O -0.02033 0.79106 0.72086
 O1021 O -0.04620 0.75140 0.77296
 O1022 O -0.04008 0.71947 0.77139
 O1023 O -0.00122 0.77271 0.79579
 O1024 O 0.03030 0.77181 0.78938
 O1025 O -0.00221 0.79595 0.77206
 O1026 O 0.03050 0.78973 0.76979
 O1027 O -0.02238 0.75144 0.79610
 O1028 O -0.02061 0.71913 0.78950
 O1029 O -0.04636 0.77281 0.75200
 O1030 O -0.04098 0.76694 0.72003
 O1031 O 0.02146 0.70301 0.74822
 O1032 O 0.02047 0.70961 0.77944
 O1033 O 0.04649 0.74874 0.72718
 O1034 O 0.03936 0.78049 0.73013
 O1035 O 0.00060 0.72765 0.70274
 O1036 O -0.03109 0.73169 0.70991
 Zr1037 Zr -0.01021 0.72869 0.72829
 O1038 O -0.02694 0.74398 0.74424
 Zr1039 Zr 0.02097 0.75958 0.72824
 O1040 O 0.00526 0.77639 0.74370
 Zr1041 Zr 0.02105 0.72858 0.75910
 O1042 O 0.00580 0.74421 0.77617
 Zr1043 Zr -0.02156 0.77070 0.73983
 O1044 O -0.00592 0.75550 0.72249
 Zr1045 Zr -0.02107 0.73989 0.77094
 O1046 O -0.00578 0.72288 0.75508
 Zr1047 Zr 0.00982 0.77100 0.77045
 O1048 O 0.02696 0.75535 0.75499
 O1049 O 0.01653 0.73299 0.73253
 O1050 O -0.01696 0.76659 0.76657
 C1051 C 0.01247 0.69564 0.73587
 C1052 C 0.01268 0.73679 0.69520
 C1053 C 0.05397 0.73645 0.73603
 C1054 C -0.01501 0.80312 0.76362
 C1055 C -0.05348 0.76418 0.76466
 C1056 C -0.01373 0.76412 0.80321
 H1057 H -0.03937 0.74119 0.74146
 H1058 H 0.00887 0.74141 0.78850
 H1059 H 0.02398 0.72548 0.72494
 H1060 H 0.00784 0.78879 0.74073
 H1061 H -0.01667 0.78549 0.70966
 H1062 H 0.01322 0.78756 0.71065
 H1063 H -0.01039 0.72103 0.79737
 H1064 H 0.00886 0.70369 0.77867
 H1065 H -0.04927 0.77699 0.72061
 H1066 H -0.03014 0.72230 0.70087
 H1067 H 0.02974 0.76076 0.79623
 H1068 H 0.04596 0.74065 0.77878
 H1069 H -0.02943 0.70392 0.74152
 H1070 H -0.04768 0.72081 0.76088
 H1071 H 0.04637 0.77845 0.74094
 H1072 H 0.02807 0.79802 0.76005
 O1073 O 0.04739 0.02321 0.00085
 O1074 O 0.04169 0.02106 -0.02921
 O1075 O 0.00118 0.04720 0.02230
 O1076 O -0.02781 0.04189 0.02304
 O1077 O 0.02321 0.00093 0.04664
 O1078 O 0.02173 -0.02968 0.03995
 O1079 O -0.04566 -0.00020 -0.02352
 O1080 O -0.04052 0.02972 -0.01987
 O1081 O -0.00119 -0.02227 -0.04641
 O1082 O 0.03061 -0.02098 -0.04047
 O1083 O -0.02254 -0.04558 -0.00193
 O1084 O -0.02172 -0.03981 0.02949
 O1085 O -0.04575 -0.02166 -0.00255
 O1086 O -0.03924 -0.01988 0.03032
 O1087 O -0.00123 -0.04568 -0.02299
 O1088 O 0.03130 -0.03897 -0.02090
 O1089 O -0.02263 -0.00136 -0.04624
 O1090 O -0.01646 0.03056 -0.04048
 O1091 O 0.04755 0.00151 0.02161
 O1092 O 0.04079 -0.02979 0.01989
 O1093 O 0.00204 0.02212 0.04695
 O1094 O -0.02997 0.01922 0.03972
 O1095 O 0.02278 0.04730 0.00148
 O1096 O 0.01877 0.04046 -0.03036
 Zr1097 Zr 0.02178 0.02190 -0.00971
 O1098 O 0.00641 0.00621 -0.02672
 Zr1099 Zr -0.00903 0.02146 0.02145
 O1100 O -0.02596 0.00637 0.00541
 Zr1101 Zr 0.02194 -0.00938 0.02094
 O1102 O 0.00611 -0.02617 0.00545
 Zr1103 Zr -0.02031 0.01061 -0.02132
 O1104 O -0.00502 0.02765 -0.00532
 Zr1105 Zr 0.01040 -0.02056 -0.02128
 O1106 O 0.02756 -0.00494 -0.00579
 Zr1107 Zr -0.02069 -0.02043 0.00952
 O1108 O -0.00484 -0.00535 0.02694
 O1109 O 0.01756 0.01725 0.01693
 O1110 O -0.01632 -0.01618 -0.01716
 C1111 C 0.05491 0.01404 0.01290
 C1112 C 0.01362 0.05467 0.01363
 C1113 C 0.01437 0.01314 0.05423
 C1114 C -0.05296 -0.01291 -0.01511
 C1115 C -0.01404 -0.01393 -0.05353
 C1116 C -0.01394 -0.05287 -0.01450
 H1117 H 0.00919 0.00913 -0.03910
 H1118 H 0.00887 -0.03854 0.00832
 H1119 H 0.02510 0.02475 0.02450
 H1120 H -0.03835 0.00937 0.00804
 H1121 H -0.03483 0.04083 -0.01605
 H1122 H -0.03671 0.03953 0.01382
 H1123 H 0.02911 -0.04729 -0.01114
 H1124 H 0.04688 -0.02865 0.00843
 H1125 H -0.02652 0.03009 -0.04882
 H1126 H 0.02808 0.04958 -0.02919
 H1127 H -0.01048 -0.04635 0.02917
 H1128 H 0.00992 -0.02943 0.04548
 H1129 H 0.04647 0.00896 -0.02916
 H1130 H 0.02959 -0.01012 -0.04756
 H1131 H -0.02772 0.00852 0.04679
 H1132 H -0.04771 -0.01031 0.02788
 O1133 O 0.02364 0.50074 0.54648
 O1134 O 0.02150 0.47069 0.54086
 O1135 O 0.04728 0.52214 0.49998
 O1136 O 0.04174 0.52267 0.47103
 O1137 O 0.00115 0.54638 0.52231
 O1138 O -0.02953 0.53965 0.52114
 O1139 O -0.00050 0.47607 0.45376
 O1140 O 0.02949 0.47979 0.45862
 O1141 O -0.02216 0.45326 0.49853
 O1142 O -0.02064 0.45932 0.53026
 O1143 O -0.04576 0.49759 0.47723
 O1144 O -0.04006 0.52897 0.47787
 O1145 O -0.02199 0.49700 0.45378
 O1146 O -0.02027 0.52984 0.46019
 O1147 O -0.04568 0.47664 0.49862
 O1148 O -0.03867 0.47876 0.53105
 O1149 O -0.00141 0.45341 0.47691
 O1150 O 0.03057 0.45929 0.48274
 O1151 O 0.00187 0.52142 0.54675
 O1152 O -0.02947 0.51969 0.54027
 O1153 O 0.02218 0.54666 0.50094
 O1154 O 0.01901 0.53936 0.46905
 O1155 O 0.04758 0.50143 0.52166
 O1156 O 0.04080 0.46959 0.51783
 Zr1157 Zr 0.02217 0.49014 0.52092
 O1158 O 0.00635 0.47305 0.50576
 Zr1159 Zr 0.02144 0.52116 0.49000
 O1160 O 0.00620 0.50504 0.47328
 Zr1161 Zr -0.00919 0.52069 0.52124
 O1162 O -0.02611 0.50511 0.50565
 Zr1163 Zr 0.01053 0.47837 0.47899
 O1164 O 0.02770 0.49444 0.49406
 Zr1165 Zr -0.02043 0.47842 0.50998
 O1166 O -0.00467 0.49401 0.52692
 Zr1167 Zr -0.02059 0.50910 0.47879
 O1168 O -0.00538 0.52660 0.49441
 O1169 O 0.01744 0.51673 0.51664
 O1170 O -0.01627 0.48246 0.48322
 C1171 C 0.01447 0.51277 0.55403
 C1172 C 0.05487 0.51355 0.51239
 C1173 C 0.01330 0.55395 0.51333
 C1174 C -0.01326 0.48445 0.44653
 C1175 C -0.01389 0.44612 0.48566
 C1176 C -0.05299 0.48507 0.48595
 H1177 H 0.00933 0.46070 0.50856
 H1178 H -0.03848 0.50795 0.50852
 H1179 H 0.02499 0.52433 0.52409
 H1180 H 0.00909 0.50764 0.46086
 H1181 H 0.04066 0.48367 0.46419
 H1182 H 0.03924 0.51349 0.46213
 H1183 H -0.04696 0.48857 0.52899
 H1184 H -0.02832 0.50824 0.54636
 H1185 H 0.03002 0.45091 0.47274
 H1186 H 0.04997 0.47081 0.52709
 H1187 H -0.04645 0.52872 0.48920
 H1188 H -0.02936 0.54515 0.50933
 H1189 H 0.00942 0.47074 0.54577
 H1190 H -0.00977 0.45225 0.52917
 H1191 H 0.00827 0.54635 0.47134
 H1192 H -0.01068 0.52747 0.45171
 O1193 O 0.54636 0.02397 0.50104
 O1194 O 0.54058 0.02161 0.47096
 O1195 O 0.50004 0.04748 0.52257
 O1196 O 0.47103 0.04197 0.52317
 O1197 O 0.52242 0.00156 0.54698
 O1198 O 0.52134 -0.02912 0.54033
 O1199 O 0.45354 -0.00052 0.47689
 O1200 O 0.45827 0.02943 0.48060
 O1201 O 0.49822 -0.02194 0.45389
 O1202 O 0.52996 -0.02051 0.45986
 O1203 O 0.47712 -0.04557 0.49850
 O1204 O 0.47803 -0.03973 0.52996
 O1205 O 0.45367 -0.02189 0.49795
 O1206 O 0.46024 -0.02008 0.53076
 O1207 O 0.49834 -0.04546 0.47735
 O1208 O 0.53082 -0.03847 0.47940
 O1209 O 0.47659 -0.00122 0.45410
 O1210 O 0.48231 0.03068 0.45996
 O1211 O 0.54679 0.00234 0.52188
 O1212 O 0.54038 -0.02904 0.52027
 O1213 O 0.50101 0.02252 0.54724
 O1214 O 0.46914 0.01932 0.54012
 O1215 O 0.52157 0.04772 0.50168
 O1216 O 0.51749 0.04085 0.46990
 Zr1217 Zr 0.52075 0.02232 0.49054
 O1218 O 0.50549 0.00647 0.47360
 Zr1219 Zr 0.48998 0.02168 0.52176
 O1220 O 0.47318 0.00634 0.50581
 Zr1221 Zr 0.52128 -0.00885 0.52129
 O1222 O 0.50561 -0.02584 0.50583
 Zr1223 Zr 0.47874 0.01062 0.47908
 O1224 O 0.49390 0.02785 0.49498
 Zr1225 Zr 0.50977 -0.02025 0.47906
 O1226 O 0.52680 -0.00444 0.49452
 Zr1227 Zr 0.47876 -0.02040 0.50994
 O1228 O 0.49446 -0.00508 0.52730
 O1229 O 0.51661 0.01771 0.51721
 O1230 O 0.48302 -0.01613 0.48324
 C1231 C 0.55400 0.01493 0.51312
 C1232 C 0.51242 0.05502 0.51385
 C1233 C 0.51344 0.01370 0.55454
 C1234 C 0.44637 -0.01326 0.48535
 C1235 C 0.48534 -0.01365 0.44676
 C1236 C 0.48572 -0.05277 0.48589
 H1237 H 0.50822 0.00943 0.46122
 H1238 H 0.50850 -0.03818 0.50870
 H1239 H 0.52409 0.02528 0.52476
 H1240 H 0.46077 0.00920 0.50847
 H1241 H 0.46380 0.04062 0.48443
 H1242 H 0.46191 0.03924 0.51427
 H1243 H 0.52878 -0.04675 0.48924
 H1244 H 0.54639 -0.02789 0.50876
 H1245 H 0.47222 0.03014 0.45167
 H1246 H 0.52676 0.05002 0.47100
 H1247 H 0.48930 -0.04622 0.52955
 H1248 H 0.50953 -0.02902 0.54585
 H1249 H 0.54566 0.00962 0.47120
 H1250 H 0.52897 -0.00956 0.45290
 H1251 H 0.47138 0.00852 0.54703
 H1252 H 0.45172 -0.01053 0.52841
 O1253 O 0.54634 0.52220 0.00112
 O1254 O 0.54119 0.51967 -0.02899
 O1255 O 0.49977 0.54649 0.02141
 O1256 O 0.47071 0.54116 0.02157
 O1257 O 0.52136 0.50066 0.04679
 O1258 O 0.51994 0.46991 0.04059
 O1259 O 0.45383 0.49831 -0.02464
 O1260 O 0.45877 0.52825 -0.02131
 O1261 O 0.49891 0.47619 -0.04644
 O1262 O 0.53043 0.47729 -0.03975
 O1263 O 0.47638 0.45338 -0.00203
 O1264 O 0.47688 0.45956 0.02944
 O1265 O 0.45328 0.47728 -0.00324
 O1266 O 0.45921 0.47937 0.02962
 O1267 O 0.49799 0.45302 -0.02277
 O1268 O 0.53065 0.45962 -0.01987
 O1269 O 0.47742 0.49704 -0.04691
 O1270 O 0.48328 0.52900 -0.04136
 O1271 O 0.54616 0.50080 0.02219
 O1272 O 0.53941 0.46948 0.02091
 O1273 O 0.50018 0.52185 0.04639
 O1274 O 0.46834 0.51875 0.03869
 O1275 O 0.52178 0.54627 0.00103
 O1276 O 0.51828 0.53900 -0.03081
 Zr1277 Zr 0.52094 0.52073 -0.00986
 O1278 O 0.50592 0.50477 -0.02691
 Zr1279 Zr 0.48956 0.52074 0.02073
 O1280 O 0.47295 0.50537 0.00461
 Zr1281 Zr 0.52054 0.48989 0.02126
 O1282 O 0.50502 0.47285 0.00571
 Zr1283 Zr 0.47910 0.50924 -0.02207
 O1284 O 0.49406 0.52654 -0.00605
 Zr1285 Zr 0.50981 0.47807 -0.02102
 O1286 O 0.52666 0.49394 -0.00543
 Zr1287 Zr 0.47815 0.47864 0.00919
 O1288 O 0.49365 0.49401 0.02669
 O1289 O 0.51623 0.51646 0.01676
 O1290 O 0.48302 0.48251 -0.01746
 C1291 C 0.55365 0.51322 0.01343
 C1292 C 0.51241 0.55382 0.01289
 C1293 C 0.51242 0.51303 0.05402
 C1294 C 0.44634 0.48579 -0.01611
 C1295 C 0.48625 0.48448 -0.05393
 C1296 C 0.48509 0.44597 -0.01444
 H1297 H 0.50896 0.50753 -0.03926
 H1298 H 0.50772 0.46051 0.00878
 H1299 H 0.52364 0.52406 0.02434
 H1300 H 0.46051 0.50839 0.00696
 H1301 H 0.46430 0.53942 -0.01744
 H1302 H 0.46187 0.53850 0.01238
 H1303 H 0.52802 0.45119 -0.01031
 H1304 H 0.54562 0.47035 0.00948
 H1305 H 0.47344 0.52836 -0.04994
 H1306 H 0.52753 0.54818 -0.02957
 H1307 H 0.48803 0.45286 0.02923
 H1308 H 0.50803 0.47024 0.04587
 H1309 H 0.54606 0.50760 -0.02862
 H1310 H 0.52980 0.48821 -0.04679
 H1311 H 0.47044 0.50812 0.04590
 H1312 H 0.45092 0.48906 0.02704
 O1313 O 0.75089 0.27255 0.45322
 O1314 O 0.72078 0.27035 0.45916
 O1315 O 0.77292 0.29630 0.49930
 O1316 O 0.77374 0.29094 0.52832
 O1317 O 0.79684 0.24999 0.47697
 O1318 O 0.78992 0.21936 0.47824
 O1319 O 0.72744 0.24883 0.54625
 O1320 O 0.73123 0.27875 0.54138
 O1321 O 0.70375 0.22734 0.50174
 O1322 O 0.70956 0.22863 0.46985
 O1323 O 0.74835 0.20349 0.52259
 O1324 O 0.78015 0.20935 0.52126
 O1325 O 0.74834 0.22732 0.54600
 O1326 O 0.78083 0.22864 0.53943
 O1327 O 0.72702 0.20361 0.50149
 O1328 O 0.72868 0.21029 0.46914
 O1329 O 0.70435 0.24815 0.52333
 O1330 O 0.71039 0.27995 0.51749
 O1331 O 0.77157 0.25079 0.45276
 O1332 O 0.76975 0.21952 0.45921
 O1333 O 0.79742 0.27115 0.49825
 O1334 O 0.79063 0.26826 0.53012
 O1335 O 0.75182 0.29650 0.47791
 O1336 O 0.72005 0.28983 0.48212
 Zr1337 Zr 0.74055 0.27116 0.47886
 O1338 O 0.72363 0.25553 0.49430
 Zr1339 Zr 0.77204 0.27055 0.50943
 O1340 O 0.75616 0.25539 0.52636
 Zr1341 Zr 0.77107 0.23978 0.47828
 O1342 O 0.75560 0.22299 0.49405
 Zr1343 Zr 0.72940 0.25980 0.52099
 O1344 O 0.74526 0.27683 0.50566
 Zr1345 Zr 0.72883 0.22876 0.49004
 O1346 O 0.74429 0.24432 0.47288
 Zr1347 Zr 0.76002 0.22858 0.52084
 O1348 O 0.77735 0.24372 0.50503
 O1349 O 0.76723 0.26641 0.48286
 O1350 O 0.73329 0.23299 0.51675
 C1351 C 0.76287 0.26340 0.44557
 C1352 C 0.76411 0.30381 0.48698
 C1353 C 0.80456 0.26216 0.48584
 C1354 C 0.73591 0.23609 0.55339
 C1355 C 0.69682 0.23577 0.51463
 C1356 C 0.73562 0.19631 0.51405
 H1357 H 0.71124 0.25856 0.49164
 H1358 H 0.75835 0.21062 0.49116
 H1359 H 0.77477 0.27390 0.47533
 H1360 H 0.75896 0.25831 0.53874
 H1361 H 0.73509 0.28988 0.53578
 H1362 H 0.76495 0.28827 0.53753
 H1363 H 0.73870 0.20219 0.47094
 H1364 H 0.75816 0.22065 0.45334
 H1365 H 0.70215 0.27951 0.52761
 H1366 H 0.72110 0.29888 0.47277
 H1367 H 0.77906 0.20227 0.51037
 H1368 H 0.79551 0.21949 0.49003
 H1369 H 0.72095 0.25834 0.45410
 H1370 H 0.70245 0.23945 0.47110
 H1371 H 0.79734 0.25732 0.52796
 H1372 H 0.77898 0.23866 0.54753
 O1373 O 0.75078 0.77300 -0.04747
 O1374 O 0.72054 0.77067 -0.04194
 O1375 O 0.77206 0.79695 -0.00116
 O1376 O 0.77211 0.79178 0.02791
 O1377 O 0.79646 0.75081 -0.02290
 O1378 O 0.78974 0.72014 -0.02173
 O1379 O 0.72593 0.74925 0.04525
 O1380 O 0.72970 0.77925 0.04039
 O1381 O 0.70314 0.72753 0.00047
 O1382 O 0.70932 0.72878 -0.03125
 O1383 O 0.74759 0.70410 0.02201
 O1384 O 0.77925 0.71007 0.02126
 O1385 O 0.74698 0.72789 0.04537
 O1386 O 0.77970 0.72959 0.03924
 O1387 O 0.72657 0.70404 0.00060
 O1388 O 0.72881 0.71077 -0.03183
 O1389 O 0.70327 0.74840 0.02201
 O1390 O 0.70916 0.78025 0.01620
 O1391 O 0.77162 0.75139 -0.04752
 O1392 O 0.76981 0.72011 -0.04102
 O1393 O 0.79661 0.77197 -0.00163
 O1394 O 0.78930 0.76917 0.03010
 O1395 O 0.75128 0.79703 -0.02286
 O1396 O 0.71942 0.79024 -0.01908
 Zr1397 Zr 0.74004 0.77164 -0.02197
 O1398 O 0.72297 0.75592 -0.00677
 Zr1399 Zr 0.77102 0.77126 0.00911
 O1400 O 0.75497 0.75603 0.02582
 Zr1401 Zr 0.77074 0.74043 -0.02200
 O1402 O 0.75513 0.72357 -0.00643
 Zr1403 Zr 0.72826 0.76025 0.02002
 O1404 O 0.74427 0.77737 0.00489
 Zr1405 Zr 0.72839 0.72917 -0.01088
 O1406 O 0.74402 0.74481 -0.02783
 Zr1407 Zr 0.75910 0.72925 0.02040
 O1408 O 0.77658 0.74446 0.00484
 O1409 O 0.76667 0.76703 -0.01752
 O1410 O 0.73242 0.73348 0.01588
 C1411 C 0.76296 0.76391 -0.05490
 C1412 C 0.76346 0.80439 -0.01367
 C1413 C 0.80399 0.76302 -0.01391
 C1414 C 0.73434 0.73655 0.05253
 C1415 C 0.69597 0.73589 0.01327
 C1416 C 0.73502 0.69683 0.01332
 H1417 H 0.71060 0.75886 -0.00962
 H1418 H 0.75800 0.71121 -0.00925
 H1419 H 0.77430 0.77452 -0.02496
 H1420 H 0.75755 0.75898 0.03825
 H1421 H 0.73362 0.79037 0.03483
 H1422 H 0.76347 0.78887 0.03719
 H1423 H 0.73866 0.70255 -0.02970
 H1424 H 0.75833 0.72120 -0.04712
 H1425 H 0.70081 0.77977 0.02622
 H1426 H 0.72061 0.79928 -0.02843
 H1427 H 0.77859 0.70318 0.01022
 H1428 H 0.79521 0.72038 -0.00989
 H1429 H 0.72089 0.75867 -0.04701
 H1430 H 0.70229 0.73968 -0.03029
 H1431 H 0.79612 0.75827 0.02808
 H1432 H 0.77748 0.73945 0.04746
 O1433 O 1.04686 0.22707 0.24967
 O1434 O 1.04116 0.22926 0.27978
 O1435 O 1.00072 0.20265 0.22825
 O1436 O 0.97164 0.20770 0.22772
 O1437 O 1.02238 0.24901 0.20378
 O1438 O 1.02092 0.27968 0.21047
 O1439 O 0.95380 0.25001 0.27389
 O1440 O 0.95889 0.22004 0.27022
 O1441 O 0.99828 0.27212 0.29686
 O1442 O 1.03018 0.27098 0.29083
 O1443 O 0.97686 0.29536 0.25235
 O1444 O 0.97787 0.28942 0.22070
 O1445 O 0.95368 0.27138 0.25282
 O1446 O 0.95999 0.26977 0.22017
 O1447 O 0.99820 0.29559 0.27344
 O1448 O 1.03064 0.28917 0.27150
 O1449 O 0.97688 0.25108 0.29666
 O1450 O 0.98298 0.21929 0.29091
 O1451 O 1.04688 0.24869 0.22882
 O1452 O 1.04015 0.27985 0.23038
 O1453 O 1.00126 0.22766 0.20356
 O1454 O 0.96941 0.23024 0.21072
 O1455 O 1.02236 0.20279 0.24910
 O1456 O 1.01834 0.20962 0.28088
 Zr1457 Zr 1.02126 0.22819 0.26022
 O1458 O 1.00586 0.24377 0.27718
 Zr1459 Zr 0.99036 0.22830 0.22906
 O1460 O 0.97345 0.24340 0.24499
 Zr1461 Zr 1.02126 0.25938 0.22947
 O1462 O 1.00551 0.27611 0.24497
 Zr1463 Zr 0.97913 0.23922 0.27173
 O1464 O 0.99446 0.22223 0.25584
 Zr1465 Zr 1.00984 0.27055 0.27173
 O1466 O 1.02697 0.25505 0.25622
 Zr1467 Zr 0.97872 0.27023 0.24086
 O1468 O 0.99448 0.25513 0.22349
 O1469 O 1.01695 0.23273 0.23356
 O1470 O 0.98312 0.26603 0.26756
 C1471 C 1.05430 0.23626 0.23758
 C1472 C 1.01321 0.19531 0.23697
 C1473 C 1.01352 0.23672 0.19623
 C1474 C 0.94649 0.26266 0.26541
 C1475 C 0.98549 0.26367 0.30398
 C1476 C 0.98546 0.30270 0.26494
 H1477 H 1.00866 0.24086 0.28956
 H1478 H 1.00827 0.28849 0.24210
 H1479 H 1.02449 0.22528 0.22600
 H1480 H 0.96106 0.24034 0.24234
 H1481 H 0.96457 0.20894 0.26649
 H1482 H 0.96254 0.21028 0.23665
 H1483 H 1.02860 0.29728 0.26153
 H1484 H 1.04612 0.27894 0.24194
 H1485 H 0.97290 0.21968 0.29919
 H1486 H 1.02772 0.20061 0.27977
 H1487 H 0.98883 0.29643 0.22146
 H1488 H 1.00909 0.27935 0.20496
 H1489 H 1.04597 0.24137 0.27964
 H1490 H 1.02899 0.26027 0.29813
 H1491 H 0.97141 0.24115 0.20388
 H1492 H 0.95181 0.25986 0.22235
 O1493 O 0.72625 1.00068 0.70315
 O1494 O 0.72870 0.97060 0.70900
 O1495 O 0.70232 1.02212 0.74936
 O1496 O 0.70767 1.02275 0.77836
 O1497 O 0.74837 1.04677 0.72722
 O1498 O 0.77909 1.04037 0.72840
 O1499 O 0.75069 0.97703 0.79607
 O1500 O 0.72058 0.98036 0.79131
 O1501 O 0.77234 0.95413 0.75148
 O1502 O 0.77085 0.95990 0.71973
 O1503 O 0.79554 0.99901 0.77253
 O1504 O 0.78923 1.03065 0.77135
 O1505 O 0.77192 0.99831 0.79591
 O1506 O 0.76992 1.03082 0.78959
 O1507 O 0.79562 0.97780 0.75135
 O1508 O 0.78869 0.97965 0.71883
 O1509 O 0.75156 0.95419 0.77307
 O1510 O 0.71956 0.95965 0.76727
 O1511 O 0.74781 1.02168 0.70285
 O1512 O 0.77913 1.02037 0.70932
 O1513 O 0.72727 1.04695 0.74852
 O1514 O 0.73024 1.03986 0.78041
 O1515 O 0.70225 1.00118 0.72785
 O1516 O 0.70927 0.96949 0.73196
 Zr1517 Zr 0.72775 0.99025 0.72878
 O1518 O 0.74368 0.97350 0.74411
 Zr1519 Zr 0.72811 1.02150 0.75953
 O1520 O 0.74352 1.00578 0.77637
 Zr1521 Zr 0.75885 1.02121 0.72836
 O1522 O 0.77589 1.00598 0.74405
 Zr1523 Zr 0.73946 0.97899 0.77086
 O1524 O 0.72214 0.99466 0.75563
 Zr1525 Zr 0.77042 0.97918 0.73987
 O1526 O 0.75457 0.99443 0.72281
 Zr1527 Zr 0.77028 1.01017 0.77085
 O1528 O 0.75488 1.02730 0.75514
 O1529 O 0.73224 1.01693 0.73293
 O1530 O 0.76621 0.98343 0.76660
 C1531 C 0.73531 1.01281 0.69558
 C1532 C 0.69484 1.01332 0.73697
 C1533 C 0.73618 1.05428 0.73616
 C1534 C 0.76340 0.98565 0.80322
 C1535 C 0.76411 0.94698 0.76439
 C1536 C 0.80284 0.98645 0.76396
 H1537 H 0.74082 0.96109 0.74139
 H1538 H 0.78823 1.00896 0.74117
 H1539 H 0.72466 1.02440 0.72542
 H1540 H 0.74059 1.00843 0.78878
 H1541 H 0.70934 0.98398 0.78576
 H1542 H 0.71034 1.01381 0.78741
 H1543 H 0.79702 0.98946 0.72097
 H1544 H 0.77813 1.00882 0.70334
 H1545 H 0.72015 0.95139 0.77736
 H1546 H 0.70016 0.97047 0.72264
 H1547 H 0.79631 1.02973 0.76047
 H1548 H 0.77890 1.04593 0.74019
 H1549 H 0.74073 0.97092 0.70399
 H1550 H 0.76000 0.95277 0.72080
 H1551 H 0.74103 1.04687 0.77825
 H1552 H 0.76006 1.02860 0.79780
 O1553 O 0.75101 0.47734 0.29678
 O1554 O 0.72101 0.47967 0.29080
 O1555 O 0.77267 0.45325 0.25070
 O1556 O 0.77346 0.45852 0.22169
 O1557 O 0.79729 0.49927 0.27298
 O1558 O 0.79092 0.52997 0.27168
 O1559 O 0.72760 0.50118 0.20375
 O1560 O 0.73098 0.47119 0.20861
 O1561 O 0.70452 0.52301 0.24819
 O1562 O 0.71040 0.52175 0.28003
 O1563 O 0.74948 0.54624 0.22722
 O1564 O 0.78098 0.54018 0.22842
 O1565 O 0.74888 0.52241 0.20391
 O1566 O 0.78157 0.52050 0.21058
 O1567 O 0.72817 0.54639 0.24828
 O1568 O 0.72995 0.53977 0.28074
 O1569 O 0.70467 0.50213 0.22666
 O1570 O 0.71021 0.47026 0.23256
 O1571 O 0.77202 0.49889 0.29720
 O1572 O 0.77077 0.53015 0.29061
 O1573 O 0.79751 0.47815 0.25168
 O1574 O 0.79056 0.48107 0.21975
 O1575 O 0.75168 0.45327 0.27213
 O1576 O 0.71992 0.46026 0.26780
 Zr1577 Zr 0.74070 0.47873 0.27110
 O1578 O 0.72397 0.49455 0.25568
 Zr1579 Zr 0.77209 0.47899 0.24052
 O1580 O 0.75636 0.49426 0.22357
 Zr1581 Zr 0.77170 0.50980 0.27164
 O1582 O 0.75647 0.52673 0.25582
 Zr1583 Zr 0.72954 0.49017 0.22899
 O1584 O 0.74522 0.47298 0.24431
 Zr1585 Zr 0.72962 0.52128 0.25986
 O1586 O 0.74487 0.50554 0.27703
 Zr1587 Zr 0.76070 0.52103 0.22904
 O1588 O 0.77785 0.50575 0.24489
 O1589 O 0.76743 0.48320 0.26709
 O1590 O 0.73392 0.51693 0.23317
 C1591 C 0.76310 0.48643 0.30443
 C1592 C 0.76385 0.44583 0.26306
 C1593 C 0.80481 0.48703 0.26411
 C1594 C 0.73623 0.51382 0.19659
 C1595 C 0.69738 0.51465 0.23532
 C1596 C 0.73685 0.55357 0.23569
 H1597 H 0.71154 0.49168 0.25836
 H1598 H 0.75943 0.53908 0.25867
 H1599 H 0.77488 0.47566 0.27466
 H1600 H 0.75906 0.49128 0.21119
 H1601 H 0.73464 0.46002 0.21422
 H1602 H 0.76450 0.46112 0.21260
 H1603 H 0.73994 0.54791 0.27876
 H1604 H 0.75918 0.52919 0.29650
 H1605 H 0.70194 0.47079 0.22245
 H1606 H 0.72091 0.45115 0.27710
 H1607 H 0.78042 0.54691 0.23955
 H1608 H 0.79653 0.52972 0.25992
 H1609 H 0.72118 0.49174 0.29570
 H1610 H 0.70313 0.51099 0.27885
 H1611 H 0.79759 0.49183 0.22198
 H1612 H 0.77925 0.51080 0.20219
 O1613 O 0.50114 0.20325 0.72616
 O1614 O 0.47104 0.20895 0.72833
 O1615 O 0.52285 0.24969 0.70285
 O1616 O 0.52340 0.27859 0.70843
 O1617 O 0.54704 0.22724 0.74898
 O1618 O 0.54024 0.22809 0.77961
 O1619 O 0.47715 0.29583 0.75080
 O1620 O 0.48083 0.29117 0.72075
 O1621 O 0.45396 0.25118 0.77209
 O1622 O 0.45976 0.21944 0.77049
 O1623 O 0.49858 0.27212 0.79589
 O1624 O 0.53026 0.27110 0.79001
 O1625 O 0.49812 0.29560 0.77234
 O1626 O 0.53079 0.28929 0.77071
 O1627 O 0.47737 0.25089 0.79566
 O1628 O 0.47930 0.21846 0.78853
 O1629 O 0.45430 0.27286 0.75141
 O1630 O 0.46009 0.26719 0.71947
 O1631 O 0.52194 0.20281 0.74790
 O1632 O 0.52017 0.20902 0.77930
 O1633 O 0.54741 0.24867 0.72803
 O1634 O 0.54033 0.28044 0.73118
 O1635 O 0.50190 0.22816 0.70240
 O1636 O 0.47006 0.23207 0.70915
 Zr1637 Zr 0.49066 0.22880 0.72778
 O1638 O 0.47370 0.24396 0.74362
 Zr1639 Zr 0.52193 0.25959 0.72870
 O1640 O 0.50600 0.27628 0.74401
 Zr1641 Zr 0.52130 0.22821 0.75918
 O1642 O 0.50584 0.24376 0.77615
 Zr1643 Zr 0.47925 0.27070 0.73958
 O1644 O 0.49515 0.25565 0.72237
 Zr1645 Zr 0.47907 0.23959 0.77039
 O1646 O 0.49453 0.22267 0.75459
 Zr1647 Zr 0.51006 0.27059 0.77076
 O1648 O 0.52741 0.25501 0.75548
 O1649 O 0.51733 0.23297 0.73258
 O1650 O 0.48335 0.26632 0.76635
 C1651 C 0.51322 0.19564 0.73523
 C1652 C 0.51412 0.23737 0.69519
 C1653 C 0.55467 0.23629 0.73692
 C1654 C 0.48558 0.30291 0.76365
 C1655 C 0.44693 0.26412 0.76384
 C1656 C 0.48594 0.26348 0.80303
 H1657 H 0.46130 0.24124 0.74060
 H1658 H 0.50868 0.24082 0.78850
 H1659 H 0.52490 0.22556 0.72502
 H1660 H 0.50868 0.28869 0.74119
 H1661 H 0.48467 0.28566 0.70958
 H1662 H 0.51454 0.28769 0.71116
 H1663 H 0.48910 0.22049 0.79690
 H1664 H 0.50865 0.20301 0.77806
 H1665 H 0.45180 0.27724 0.72004
 H1666 H 0.47120 0.22287 0.69993
 H1667 H 0.52941 0.26008 0.79687
 H1668 H 0.54576 0.23990 0.77962
 H1669 H 0.47108 0.20399 0.74037
 H1670 H 0.45270 0.22060 0.75960
 H1671 H 0.54718 0.27823 0.74205
 H1672 H 0.52861 0.29764 0.76096
 O1673 O 0.25151 0.77324 0.45315
 O1674 O 0.22140 0.77108 0.45859
 O1675 O 0.27268 0.79728 0.49962
 O1676 O 0.27303 0.79199 0.52862
 O1677 O 0.29724 0.75116 0.47773
 O1678 O 0.29056 0.72047 0.47900
 O1679 O 0.22650 0.74952 0.54578
 O1680 O 0.23031 0.77948 0.54100
 O1681 O 0.20386 0.72786 0.50090
 O1682 O 0.21028 0.72911 0.46914
 O1683 O 0.24828 0.70439 0.52264
 O1684 O 0.27991 0.71034 0.52197
 O1685 O 0.24757 0.72819 0.54598
 O1686 O 0.28034 0.72992 0.53993
 O1687 O 0.22728 0.70435 0.50122
 O1688 O 0.22959 0.71093 0.46883
 O1689 O 0.20391 0.74874 0.52243
 O1690 O 0.20989 0.78058 0.51672
 O1691 O 0.27233 0.75161 0.45309
 O1692 O 0.27072 0.72037 0.45967
 O1693 O 0.29735 0.77231 0.49901
 O1694 O 0.28995 0.76935 0.53081
 O1695 O 0.25200 0.79732 0.47783
 O1696 O 0.22014 0.79046 0.48156
 Zr1697 Zr 0.24081 0.77192 0.47865
 O1698 O 0.22371 0.75619 0.49378
 Zr1699 Zr 0.27176 0.77154 0.50976
 O1700 O 0.25565 0.75633 0.52644
 Zr1701 Zr 0.27153 0.74073 0.47865
 O1702 O 0.25589 0.72387 0.49419
 Zr1703 Zr 0.22894 0.76054 0.52058
 O1704 O 0.24500 0.77766 0.50551
 Zr1705 Zr 0.22916 0.72944 0.48968
 O1706 O 0.24482 0.74510 0.47278
 Zr1707 Zr 0.25978 0.72955 0.52105
 O1708 O 0.27731 0.74475 0.50550
 O1709 O 0.26744 0.76734 0.48311
 O1710 O 0.23311 0.73376 0.51646
 C1711 C 0.26362 0.76410 0.44570
 C1712 C 0.26407 0.80473 0.48712
 C1713 C 0.30475 0.76338 0.48672
 C1714 C 0.23490 0.73684 0.55310
 C1715 C 0.19662 0.73627 0.51363
 C1716 C 0.23570 0.69713 0.51395
 H1717 H 0.21135 0.75913 0.49088
 H1718 H 0.25877 0.71151 0.49139
 H1719 H 0.27506 0.77485 0.47567
 H1720 H 0.25818 0.75929 0.53887
 H1721 H 0.23420 0.79063 0.53548
 H1722 H 0.26403 0.78934 0.53764
 H1723 H 0.23949 0.70276 0.47096
 H1724 H 0.25921 0.72133 0.45362
 H1725 H 0.20148 0.78010 0.52669
 H1726 H 0.22136 0.79959 0.47230
 H1727 H 0.27936 0.70355 0.51087
 H1728 H 0.29602 0.72074 0.49084
 H1729 H 0.22152 0.75900 0.45371
 H1730 H 0.20303 0.73986 0.47025
 H1731 H 0.29688 0.75853 0.52869
 H1732 H 0.27806 0.73973 0.54818
 O1733 O 0.20334 0.22721 1.00118
 O1734 O 0.20904 0.22956 0.97110
 O1735 O 0.24978 0.20336 1.02245
 O1736 O 0.27881 0.20884 1.02291
 O1737 O 0.22767 0.24927 1.04723
 O1738 O 0.22876 0.27996 1.04079
 O1739 O 0.29610 0.25184 0.97698
 O1740 O 0.29150 0.22177 0.98053
 O1741 O 0.25126 0.27313 0.95424
 O1742 O 0.21941 0.27154 0.96046
 O1743 O 0.27261 0.29656 0.99898
 O1744 O 0.27163 0.29035 1.03065
 O1745 O 0.29605 0.27303 0.99827
 O1746 O 0.28985 0.27110 1.03088
 O1747 O 0.25133 0.29651 0.97783
 O1748 O 0.21897 0.28972 0.97981
 O1749 O 0.27288 0.25241 0.95425
 O1750 O 0.26732 0.22050 0.95996
 O1751 O 0.20312 0.24875 1.02217
 O1752 O 0.20956 0.27998 1.02086
 O1753 O 0.24902 0.22825 1.04730
 O1754 O 0.28081 0.23135 1.04012
 O1755 O 0.22810 0.20325 1.00165
 O1756 O 0.23204 0.21026 0.96991
 Zr1757 Zr 0.22894 0.22872 0.99067
 O1758 O 0.24414 0.24464 0.97380
 Zr1759 Zr 0.25988 0.22917 1.02178
 O1760 O 0.27660 0.24462 1.00594
 Zr1761 Zr 0.22865 0.25977 1.02162
 O1762 O 0.24419 0.27683 1.00622
 Zr1763 Zr 0.27094 0.24050 0.97917
 O1764 O 0.25582 0.22318 0.99496
 Zr1765 Zr 0.23988 0.27133 0.97944
 O1766 O 0.22295 0.25548 0.99486
 Zr1767 Zr 0.27104 0.27135 1.01026
 O1768 O 0.25548 0.25591 1.02754
 O1769 O 0.23322 0.23321 1.01735
 O1770 O 0.26665 0.26722 0.98353
 C1771 C 0.19580 0.23629 1.01331
 C1772 C 0.23734 0.19585 1.01372
 C1773 C 0.23668 0.23710 1.05470
 C1774 C 0.30328 0.26455 0.98555
 C1775 C 0.26408 0.26485 0.94701
 C1776 C 0.26398 0.30379 0.98640
 H1777 H 0.24134 0.24173 0.96141
 H1778 H 0.24130 0.28916 1.00918
 H1779 H 0.22576 0.22562 1.02487
 H1780 H 0.28904 0.24177 1.00853
 H1781 H 0.28603 0.21055 0.98428
 H1782 H 0.28796 0.21171 1.01411
 H1783 H 0.22093 0.29779 0.98985
 H1784 H 0.20364 0.27906 1.00928
 H1785 H 0.27736 0.22110 0.95163
 H1786 H 0.22275 0.20112 0.97095
 H1787 H 0.26064 0.29728 1.02987
 H1788 H 0.24059 0.27980 1.04629
 H1789 H 0.20405 0.24158 0.97137
 H1790 H 0.22070 0.26091 0.95306
 H1791 H 0.27872 0.24221 1.04702
 H1792 H 0.29810 0.26129 1.02865
 C1793 C 0.28669 0.38537 0.78489
 C1794 C 0.28117 0.39914 0.77930
 C1795 C 0.27497 0.41553 0.77320
 C1796 C 0.26997 0.42978 0.76838
 C1797 C 0.28585 -0.11465 0.28489
 C1798 C 0.28056 -0.10071 0.27951
 C1799 C 0.27462 -0.08416 0.27354
 C1800 C 0.26982 -0.06983 0.26877
 C1801 C 0.78685 0.88550 0.78630
 C1802 C 0.78121 0.89929 0.78086
 C1803 C 0.77486 0.91564 0.77477
 C1804 C 0.76974 0.92982 0.76985
 C1805 C 0.46560 0.86752 0.28328
 C1806 C 0.47117 0.85370 0.27788
 C1807 C 0.47721 0.83715 0.27204
 C1808 C 0.48187 0.82269 0.26752
 C1809 C -0.03677 0.86471 0.78619
 C1810 C -0.03134 0.85091 0.78058
 C1811 C -0.02529 0.83453 0.77425
 C1812 C -0.02041 0.82033 0.76916
 C1813 C -0.03492 -0.11548 -0.03532
 C1814 C -0.02973 -0.10137 -0.03019
 C1815 C -0.02391 -0.08468 -0.02441
 C1816 C -0.01920 -0.07025 -0.01972
 C1817 C -0.03627 0.38433 0.46394
 C1818 C -0.03071 0.39817 0.46941
 C1819 C -0.02445 0.41461 0.47545
 C1820 C -0.01942 0.42886 0.48029
 C1821 C 0.46464 -0.11520 0.46460
 C1822 C 0.46992 -0.10118 0.46989
 C1823 C 0.47580 -0.08455 0.47582
 C1824 C 0.48052 -0.07016 0.48060
 C1825 C 0.46363 0.38365 -0.03580
 C1826 C 0.46880 0.39771 -0.03050
 C1827 C 0.47477 0.41431 -0.02455
 C1828 C 0.47966 0.42865 -0.01975
 C1829 C 0.78412 0.36677 0.46682
 C1830 C 0.77900 0.35273 0.47213
 C1831 C 0.77340 0.33600 0.47790
 C1832 C 0.76896 0.32144 0.48235
 C1833 C 0.78474 0.86681 -0.03437
 C1834 C 0.77929 0.85295 -0.02888
 C1835 C 0.77328 0.83639 -0.02297
 C1836 C 0.76853 0.82195 -0.01842
 C1837 C 0.78318 0.28385 0.38277
 C1838 C 0.77785 0.27858 0.39676
 C1839 C 0.77208 0.27280 0.41344
 C1840 C 0.76760 0.26825 0.42796
 C1841 C 0.78367 0.78434 -0.11763
 C1842 C 0.77843 0.77901 -0.10363
 C1843 C 0.77258 0.77323 -0.08696
 C1844 C 0.76793 0.76872 -0.07247
 C1845 C 0.28647 0.46463 0.86482
 C1846 C 0.28135 0.46984 0.85073
 C1847 C 0.27543 0.47570 0.83411
 C1848 C 0.27053 0.48048 0.81979
 C1849 C 0.28567 -0.03536 0.36517
 C1850 C 0.28008 -0.02992 0.35135
 C1851 C 0.27385 -0.02385 0.33492
 C1852 C 0.26889 -0.01897 0.32065
 C1853 C -0.03634 -0.03658 -0.11505
 C1854 C -0.03077 -0.03098 -0.10126
 C1855 C -0.02457 -0.02464 -0.08490
 C1856 C -0.01958 -0.01952 -0.07072
 C1857 C -0.03435 0.46333 0.38404
 C1858 C -0.02903 0.46845 0.39811
 C1859 C -0.02318 0.47431 0.41477
 C1860 C -0.01848 0.47910 0.42917
 C1861 C 0.46434 -0.03469 0.38421
 C1862 C 0.46946 -0.02948 0.39832
 C1863 C 0.47529 -0.02367 0.41500
 C1864 C 0.48004 -0.01895 0.42941
 C1865 C 0.46544 0.46317 -0.11639
 C1866 C 0.47083 0.46829 -0.10237
 C1867 C 0.47668 0.47417 -0.08572
 C1868 C 0.48128 0.47901 -0.07131
 C1869 C 0.46679 0.78542 0.36703
 C1870 C 0.47203 0.78012 0.35302
 C1871 C 0.47773 0.77425 0.33632
 C1872 C 0.48217 0.76960 0.32180
 C1873 C -0.03442 0.78515 0.86576
 C1874 C -0.02919 0.77998 0.85170
 C1875 C -0.02339 0.77414 0.83504
 C1876 C -0.01877 0.76940 0.82062
 C1877 C 0.38294 0.78493 0.28325
 C1878 C 0.39693 0.77956 0.27806
 C1879 C 0.41361 0.77365 0.27244
 C1880 C 0.42814 0.76901 0.26807
 C1881 C -0.11527 0.78636 0.78650
 C1882 C -0.10139 0.78073 0.78124
 C1883 C -0.08494 0.77452 0.77522
 C1884 C -0.07069 0.76957 0.77026
 C1885 C 0.86763 0.28252 0.46603
 C1886 C 0.85354 0.27708 0.47095
 C1887 C 0.83678 0.27123 0.47647
 C1888 C 0.82221 0.26677 0.48092
 C1889 C 0.86730 0.78289 -0.03346
 C1890 C 0.85316 0.77772 -0.02841
 C1891 C 0.83632 0.77208 -0.02290
 C1892 C 0.82170 0.76767 -0.01857
 C1893 C -0.11556 -0.03387 -0.03618
 C1894 C -0.10147 -0.02856 -0.03108
 C1895 C -0.08479 -0.02271 -0.02523
 C1896 C -0.07037 -0.01804 -0.02045
 C1897 C -0.11559 0.46418 0.46498
 C1898 C -0.10153 0.46935 0.47028
 C1899 C -0.08485 0.47513 0.47615
 C1900 C -0.07041 0.47982 0.48084
 C1901 C 0.38420 -0.03461 0.46354
 C1902 C 0.39814 -0.02925 0.46896
 C1903 C 0.41470 -0.02333 0.47507
 C1904 C 0.42904 -0.01858 0.47999
 C1905 C 0.38374 0.46496 -0.03735
 C1906 C 0.39790 0.47017 -0.03233
 C1907 C 0.41460 0.47597 -0.02649
 C1908 C 0.42900 0.48063 -0.02163
 C1909 C 0.36503 0.46404 0.78511
 C1910 C 0.35134 0.46987 0.77962
 C1911 C 0.33501 0.47630 0.77359
 C1912 C 0.32076 0.48137 0.76880
 C1913 C 0.36505 -0.03496 0.28632
 C1914 C 0.35110 -0.02946 0.28112
 C1915 C 0.33455 -0.02339 0.27518
 C1916 C 0.32024 -0.01856 0.27029
 C1917 C 0.13235 0.53384 0.71712
 C1918 C 0.14643 0.52874 0.72237
 C1919 C 0.16321 0.52315 0.72806
 C1920 C 0.17780 0.51875 0.73246
 C1921 C 0.13186 0.03376 0.21670
 C1922 C 0.14618 0.02889 0.22156
 C1923 C 0.16308 0.02342 0.22707
 C1924 C 0.17769 0.01903 0.23152
 C1925 C 0.61552 0.71405 0.21541
 C1926 C 0.60152 0.71928 0.22074
 C1927 C 0.58495 0.72521 0.22668
 C1928 C 0.57061 0.73005 0.23144
 C1929 C 0.11727 0.71685 0.71615
 C1930 C 0.10310 0.72194 0.72117
 C1931 C 0.08625 0.72745 0.72677
 C1932 C 0.07164 0.73178 0.73122
 C1933 C 0.63398 0.21560 0.53529
 C1934 C 0.64819 0.22062 0.53033
 C1935 C 0.66496 0.22620 0.52465
 C1936 C 0.67943 0.23072 0.51995
 C1937 C 0.63381 0.71448 0.03493
 C1938 C 0.64774 0.71981 0.02949
 C1939 C 0.66429 0.72574 0.02342
 C1940 C 0.67863 0.73054 0.01856
 C1941 C 0.11857 0.03328 0.03233
 C1942 C 0.10426 0.02840 0.02741
 C1943 C 0.08730 0.02299 0.02196
 C1944 C 0.07263 0.01869 0.01761
 C1945 C 0.11834 0.53370 0.53140
 C1946 C 0.10414 0.52866 0.52634
 C1947 C 0.08725 0.52299 0.52096
 C1948 C 0.07259 0.51846 0.51680
 C1949 C 0.61766 0.03458 0.53227
 C1950 C 0.60331 0.02978 0.52737
 C1951 C 0.58634 0.02428 0.52201
 C1952 C 0.57168 0.01981 0.51776
 C1953 C 0.61669 0.53359 0.03361
 C1954 C 0.60259 0.52836 0.02847
 C1955 C 0.58582 0.52257 0.02284
 C1956 C 0.57126 0.51802 0.01836
 C1957 C 0.03433 0.03238 0.11768
 C1958 C 0.02940 0.02735 0.10343
 C1959 C 0.02379 0.02193 0.08654
 C1960 C 0.01926 0.01769 0.07192
 C1961 C 0.03414 0.53288 0.61725
 C1962 C 0.02912 0.52766 0.60311
 C1963 C 0.02360 0.52197 0.58629
 C1964 C 0.01922 0.51752 0.57169
 C1965 C 0.53358 0.03420 0.61753
 C1966 C 0.52842 0.02886 0.60348
 C1967 C 0.52276 0.02302 0.58674
 C1968 C 0.51828 0.01846 0.57219
 C1969 C 0.53346 0.53445 0.11637
 C1970 C 0.52789 0.52894 0.10254
 C1971 C 0.52186 0.52288 0.08601
 C1972 C 0.51722 0.51811 0.07158
 C1973 C 0.21585 0.53414 0.63246
 C1974 C 0.22093 0.52864 0.64645
 C1975 C 0.22649 0.52271 0.66314
 C1976 C 0.23092 0.51816 0.67767
 C1977 C 0.21757 0.03280 0.13173
 C1978 C 0.22234 0.02791 0.14606
 C1979 C 0.22763 0.02251 0.16305
 C1980 C 0.23186 0.01827 0.17775
 C1981 C 0.71543 0.21524 0.61603
 C1982 C 0.72057 0.22046 0.60196
 C1983 C 0.72626 0.22627 0.58527
 C1984 C 0.73083 0.23094 0.57082
 C1985 C 0.71332 0.71501 0.11484
 C1986 C 0.71840 0.72041 0.10080
 C1987 C 0.72418 0.72645 0.08420
 C1988 C 0.72895 0.73128 0.06985
 C1989 C 0.53561 0.71464 0.13455
 C1990 C 0.53031 0.72009 0.14847
 C1991 C 0.52436 0.72615 0.16501
 C1992 C 0.51956 0.73099 0.17934
 C1993 C 0.03311 0.71638 0.63241
 C1994 C 0.02774 0.72168 0.64637
 C1995 C 0.02192 0.72748 0.66303
 C1996 C 0.01741 0.73200 0.67755
 C1997 C 0.53567 0.63540 0.21385
 C1998 C 0.53022 0.64927 0.21927
 C1999 C 0.52416 0.66573 0.22535
 C2000 C 0.51931 0.68001 0.23026
 C2001 C 0.03183 0.63210 0.71692
 C2002 C 0.02680 0.64634 0.72173
 C2003 C 0.02131 0.66327 0.72702
 C2004 C 0.01703 0.67793 0.73124
 C2005 C 0.03295 0.11790 0.03394
 C2006 C 0.02791 0.10376 0.02875
 C2007 C 0.02246 0.08695 0.02300
 C2008 C 0.01820 0.07234 0.01847
 C2009 C 0.03343 0.61687 0.53379
 C2010 C 0.02816 0.60285 0.52852
 C2011 C 0.02244 0.58614 0.52272
 C2012 C 0.01799 0.57159 0.51817
 C2013 C 0.53286 0.11782 0.53411
 C2014 C 0.52744 0.10386 0.52887
 C2015 C 0.52156 0.08719 0.52318
 C2016 C 0.51705 0.07266 0.51870
 C2017 C 0.53199 0.61711 0.03288
 C2018 C 0.52688 0.60298 0.02772
 C2019 C 0.52133 0.58615 0.02207
 C2020 C 0.51700 0.57153 0.01763
 C2021 C 0.71513 0.13336 0.53425
 C2022 C 0.72003 0.14763 0.52931
 C2023 C 0.72568 0.16444 0.52374
 C2024 C 0.73035 0.17891 0.51918
 C2025 C 0.71415 0.63437 0.03444
 C2026 C 0.71923 0.64844 0.02913
 C2027 C 0.72501 0.66508 0.02323
 C2028 C 0.72973 0.67947 0.01851
 C2029 C 0.21622 0.61725 0.71540
 C2030 C 0.22155 0.60334 0.72084
 C2031 C 0.22735 0.58673 0.72675
 C2032 C 0.23188 0.57225 0.73134
 C2033 C 0.21724 0.11832 0.21687
 C2034 C 0.22224 0.10413 0.22182
 C2035 C 0.22772 0.08727 0.22730
 C2036 C 0.23203 0.07266 0.23163
 C2037 C 0.71665 1.11723 0.71572
 C2038 C 0.72174 1.10318 0.72098
 C2039 C 0.72723 1.08644 0.72679
 C2040 C 0.73154 1.07190 0.73134
 C2041 C 0.71612 0.61608 0.21472
 C2042 C 0.72131 0.60200 0.21983
 C2043 C 0.72710 0.58534 0.22564
 C2044 C 0.73175 0.57094 0.23039
 C2045 C 0.53359 0.13291 0.71458
 C2046 C 0.52830 0.14693 0.71981
 C2047 C 0.52253 0.16360 0.72562
 C2048 C 0.51801 0.17808 0.73024
 C2049 C 1.03267 0.13191 0.21757
 C2050 C 1.02774 0.14615 0.22251
 C2051 C 1.02224 0.16303 0.22794
 C2052 C 1.01788 0.17765 0.23225
 C2053 C 0.21433 0.63484 0.53512
 C2054 C 0.21957 0.64885 0.52980
 C2055 C 0.22551 0.66544 0.52390
 C2056 C 0.23034 0.67980 0.51917
 C2057 C 0.21869 0.13192 1.03245
 C2058 C 0.22346 0.14632 1.02777
 C2059 C 0.22873 0.16336 1.02253
 C2060 C 0.23289 0.17809 1.01833
 C2061 C 0.21338 0.71527 0.61523
 C2062 C 0.21859 0.72074 0.60127
 C2063 C 0.22453 0.72677 0.58472
 C2064 C 0.22941 0.73158 0.57040
 C2065 C 0.21724 0.21764 1.11812
 C2066 C 0.22224 0.22262 1.10391
 C2067 C 0.22772 0.22811 1.08703
 C2068 C 0.23204 0.23245 1.07240
 C2069 C 0.71525 0.53509 0.13423
 C2070 C 0.72050 0.52981 0.14824
 C2071 C 0.72635 0.52388 0.16485
 C2072 C 0.73105 0.51910 0.17922
 C2073 C 0.71645 1.03243 0.63197
 C2074 C 0.72113 1.02740 0.64628
 C2075 C 0.72635 1.02182 0.66323
 C2076 C 0.73058 1.01744 0.67788
 C2077 C 0.53428 0.21801 0.63203
 C2078 C 0.52923 0.22327 0.64611
 C2079 C 0.52355 0.22879 0.66290
 C2080 C 0.51901 0.23298 0.67751
 C2081 C 1.03340 0.21700 0.13303
 C2082 C 1.02829 0.22214 0.14714
 C2083 C 1.02270 0.22775 0.16395
 C2084 C 1.01828 0.23212 0.17855
 C2085 C 0.61816 0.21717 0.71757
 C2086 C 0.60395 0.22205 0.72263
 C2087 C 0.58705 0.22740 0.72813
 C2088 C 0.57239 0.23165 0.73242
 C2089 C 1.11778 0.21750 0.21772
 C2090 C 1.10355 0.22232 0.22279
 C2091 C 1.08665 0.22758 0.22841
 C2092 C 1.07200 0.23174 0.23285
 C2093 C 0.13380 0.71567 0.53405
 C2094 C 0.14795 0.72074 0.52896
 C2095 C 0.16471 0.72644 0.52327
 C2096 C 0.17919 0.73107 0.51869
 C2097 C 0.13207 0.21761 1.03272
 C2098 C 0.14637 0.22234 1.02771
 C2099 C 0.16336 0.22752 1.02220
 C2100 C 0.17806 0.23167 1.01789
 C2101 C 0.63507 0.53590 0.21406
 C2102 C 0.64911 0.53066 0.21927
 C2103 C 0.66573 0.52477 0.22515
 C2104 C 0.68008 0.51999 0.22994
 C2105 C 0.63147 1.03318 0.71753
 C2106 C 0.64564 1.02808 0.72258
 C2107 C 0.66249 1.02246 0.72808
 C2108 C 0.67712 1.01804 0.73238
 C2109 C 0.86719 0.46583 0.28492
 C2110 C 0.85336 0.47147 0.27958
 C2111 C 0.83681 0.47754 0.27372
 C2112 C 0.82237 0.48220 0.26910
 C2113 C 0.86510 0.96544 0.78538
 C2114 C 0.85117 0.97079 0.78001
 C2115 C 0.83461 0.97667 0.77402
 C2116 C 0.82023 0.98135 0.76922
 C2117 C 0.38541 0.28659 0.78594
 C2118 C 0.39917 0.28097 0.78040
 C2119 C 0.41552 0.27467 0.77425
 C2120 C 0.42972 0.26963 0.76931
 C2121 C 0.88421 0.28422 0.28624
 C2122 C 0.89818 0.27871 0.28114
 C2123 C 0.91476 0.27262 0.27539
 C2124 C 0.92912 0.26782 0.27070
 C2125 C 0.36815 0.78327 0.46729
 C2126 C 0.35398 0.77810 0.47228
 C2127 C 0.33712 0.77246 0.47775
 C2128 C 0.32248 0.76805 0.48207
 C2129 C 0.36560 0.28625 0.96449
 C2130 C 0.35152 0.28105 0.96968
 C2131 C 0.33491 0.27501 0.97549
 C2132 C 0.32057 0.27005 0.98023
 C2133 C 0.78230 0.46678 0.36788
 C2134 C 0.77727 0.47181 0.35369
 C2135 C 0.77184 0.47735 0.33681
 C2136 C 0.76761 0.48173 0.32215
 C2137 C 0.78554 0.96465 0.86533
 C2138 C 0.78009 0.96995 0.85139
 C2139 C 0.77389 0.97577 0.83485
 C2140 C 0.76888 0.98044 0.82053
 C2141 C 0.28329 0.78386 0.38245
 C2142 C 0.27828 0.77875 0.39660
 C2143 C 0.27277 0.77315 0.41344
 C2144 C 0.26839 0.76877 0.42805
 C2145 C 0.28500 0.28608 0.88464
 C2146 C 0.27974 0.28086 0.89866
 C2147 C 0.27391 0.27499 0.91528
 C2148 C 0.26924 0.27021 0.92967
 C2149 C 0.46527 0.28446 0.86561
 C2150 C 0.47033 0.27923 0.85152
 C2151 C 0.47604 0.27334 0.83484
 C2152 C 0.48069 0.26862 0.82043
 C2153 C 0.96395 0.28544 0.36596
 C2154 C 0.96922 0.27994 0.35205
 C2155 C 0.97520 0.27387 0.33554
 C2156 C 0.98007 0.26902 0.32125
 C2157 C 0.46359 0.36470 0.78527
 C2158 C 0.46917 0.35086 0.77994
 C2159 C 0.47533 0.33442 0.77394
 C2160 C 0.48024 0.32016 0.76907
 C2161 C 0.96395 0.36472 0.28657
 C2162 C 0.96933 0.35081 0.28118
 C2163 C 0.97531 0.33430 0.27513
 C2164 C 0.98012 0.32000 0.27027
 C2165 C 0.28397 0.86787 0.46734
 C2166 C 0.27891 0.85378 0.47257
 C2167 C 0.27333 0.83698 0.47821
 C2168 C 0.26890 0.82239 0.48257
 C2169 C 0.28488 0.36618 0.96519
 C2170 C 0.27970 0.35215 0.97047
 C2171 C 0.27388 0.33554 0.97640
 C2172 C 0.26918 0.32116 0.98117
 C2173 C 0.78353 0.38257 0.28260
 C2174 C 0.77849 0.39672 0.27754
 C2175 C 0.77293 0.41355 0.27202
 C2176 C 0.76854 0.42816 0.26769
   
