data_POSCAR
  _audit_creation_date              2014-09-24
  _audit_creation_method            'ToBaCCo'
  _symmetry_space_group_name_H-M    'P1'
  _symmetry_Int_Tables_number       1
  _symmetry_cell_setting            triclinic
  loop_
  _symmetry_equiv_pos_as_xyz
 x,y,z
_cell_length_a 62.3868
_cell_length_b 62.7242
_cell_length_c 58.1755
_cell_angle_alpha 89.756300
_cell_angle_beta 89.451300
_cell_angle_gamma 89.124100
loop_
  _atom_site_label
  _atom_site_type_symbol
  _atom_site_fract_x
  _atom_site_fract_y
  _atom_site_fract_z
C1 C 0.19055 0.22393 0.22066
 C2 C 0.19718 0.23692 0.20238
 C3 C 0.21491 0.23111 0.18853
 C4 C 0.22669 0.21254 0.19395
 C5 C 0.22064 0.19959 0.21270
 C6 C 0.20240 0.20532 0.22575
 H7 H 0.18845 0.25165 0.19915
 H8 H 0.24024 0.20817 0.18315
 H9 H 0.19796 0.19555 0.24036
 C10 C 0.68612 0.72461 0.71726
 C11 C 0.69810 0.70630 0.72328
 C12 C 0.71721 0.70102 0.71165
 C13 C 0.72468 0.71458 0.69413
 C14 C 0.71306 0.73303 0.68796
 C15 C 0.69385 0.73803 0.69979
 H16 H 0.69291 0.69621 0.73733
 H17 H 0.73979 0.71116 0.68553
 H18 H 0.68498 0.75252 0.69587
 C19 C 0.31346 0.76846 0.70683
 C20 C 0.31107 0.75780 0.68584
 C21 C 0.29506 0.76416 0.67035
 C22 C 0.28152 0.78140 0.67592
 C23 C 0.28326 0.79215 0.69692
 C24 C 0.29920 0.78535 0.71247
 H25 H 0.32204 0.74487 0.68145
 H26 H 0.26927 0.78630 0.66379
 H27 H 0.30011 0.79253 0.72920
 C28 C 0.80297 0.29466 0.23253
 C29 C 0.79492 0.28049 0.21619
 C30 C 0.77622 0.28535 0.20378
 C31 C 0.76506 0.30445 0.20843
 C32 C 0.77274 0.31897 0.22468
 C33 C 0.79169 0.31397 0.23654
 H34 H 0.80316 0.26539 0.21361
 H35 H 0.75029 0.30767 0.19941
 H36 H 0.79736 0.32541 0.24878
 C37 C 0.81733 0.70769 0.28415
 C38 C 0.80505 0.68921 0.28325
 C39 C 0.78604 0.68738 0.29602
 C40 C 0.77967 0.70411 0.31069
 C41 C 0.79206 0.72257 0.31248
 C42 C 0.81077 0.72438 0.29882
 H43 H 0.81009 0.67628 0.27201
 H44 H 0.76540 0.70265 0.32126
 H45 H 0.82025 0.73858 0.29964
 C46 C 0.30876 0.20066 -0.23364
 C47 C 0.29231 0.18338 -0.23618
 C48 C 0.27376 0.18262 -0.22247
 C49 C 0.26960 0.19839 -0.20610
 C50 C 0.28352 0.21519 -0.20214
 C51 C 0.30262 0.21670 -0.21486
 H52 H 0.29513 0.17146 -0.24930
 H53 H 0.25501 0.19744 -0.19586
 H54 H 0.31363 0.22935 -0.21133
 C55 C 0.69420 0.28840 -0.20993
 C56 C 0.70471 0.30817 -0.21167
 C57 C 0.72081 0.31349 -0.19597
 C58 C 0.72601 0.29919 -0.17825
 C59 C 0.71584 0.27955 -0.17616
 C60 C 0.70024 0.27415 -0.19228
 H61 H 0.70047 0.31948 -0.22490
 H62 H 0.73827 0.30332 -0.16601
 H63 H 0.69282 0.25869 -0.19133
 C64 C 0.18621 0.79843 0.26650
 C65 C 0.19878 0.81664 0.26381
 C66 C 0.21520 0.82136 0.27924
 C67 C 0.21923 0.80706 0.29751
 C68 C 0.20709 0.78853 0.30032
 C69 C 0.19035 0.78447 0.28497
 H70 H 0.19550 0.82743 0.24960
 H71 H 0.23206 0.80975 0.30944
 H72 H 0.18023 0.77091 0.28791
 C73 C 0.44670 0.41734 0.46076
 C74 C 0.42754 0.42928 0.46206
 C75 C 0.42446 0.44767 0.44866
 C76 C 0.44074 0.45390 0.43327
 C77 C 0.46016 0.44224 0.43179
 C78 C 0.46287 0.42382 0.44532
 H79 H 0.41499 0.42438 0.47389
 H80 H 0.43798 0.46725 0.42188
 H81 H 0.47756 0.41458 0.44354
 C82 C -0.03582 -0.05328 0.97852
 C83 C -0.05422 -0.04039 0.98042
 C84 C -0.05766 -0.02040 0.96580
 C85 C -0.03920 -0.01660 0.94945
 C86 C -0.02110 -0.03000 0.94835
 C87 C -0.01943 -0.04783 0.96296
 H88 H -0.06661 -0.04472 0.99264
 H89 H -0.04020 -0.00278 0.93822
 H90 H -0.00479 -0.05720 0.96272
 C91 C 1.03162 0.54624 0.96788
 C92 C 1.05013 0.53323 0.96720
 C93 C 1.05182 0.51597 0.95194
 C94 C 1.03484 0.51197 0.93708
 C95 C 1.01615 0.52465 0.93752
 C96 C 1.01450 0.54168 0.95315
 H97 H 1.06340 0.53694 0.97829
 H98 H 1.03614 0.49876 0.92516
 H99 H 0.99972 0.55080 0.95433
 C100 C 0.55080 0.06185 0.46218
 C101 C 0.56998 0.04989 0.46440
 C102 C 0.57427 0.03220 0.45001
 C103 C 0.55905 0.02690 0.43336
 C104 C 0.53991 0.03862 0.43098
 C105 C 0.53606 0.05624 0.44528
 H106 H 0.58159 0.05490 0.47676
 H107 H 0.56202 0.01340 0.42211
 H108 H 0.52171 0.06594 0.44318
 C109 C -0.01967 0.06027 0.53253
 C110 C -0.00426 0.05358 0.54841
 C111 C -0.00647 0.03453 0.56080
 C112 C -0.02448 0.02179 0.55708
 C113 C -0.04034 0.02824 0.54119
 C114 C -0.03773 0.04760 0.52917
 H115 H 0.00970 0.06332 0.55114
 H116 H -0.02556 0.00670 0.56593
 H117 H -0.05007 0.05279 0.51739
 C118 C 0.45424 0.55897 0.03452
 C119 C 0.43699 0.54491 0.03297
 C120 C 0.43597 0.52663 0.04695
 C121 C 0.45227 0.52268 0.06282
 C122 C 0.46953 0.53654 0.06484
 C123 C 0.47058 0.55463 0.05053
 H124 H 0.42424 0.54850 0.02101
 H125 H 0.45153 0.50864 0.07374
 H126 H 0.48444 0.56467 0.05138
 C127 C 0.52655 -0.06011 0.02825
 C128 C 0.54526 -0.04838 0.02354
 C129 C 0.54993 -0.03002 0.03613
 C130 C 0.53557 -0.02306 0.05335
 C131 C 0.51720 -0.03468 0.05871
 C132 C 0.51275 -0.05308 0.04604
 H133 H 0.55659 -0.05336 0.01042
 H134 H 0.53847 -0.00848 0.06261
 H135 H 0.49816 -0.06169 0.04956
 C136 C 1.03484 0.44487 0.52969
 C137 C 1.02183 0.45181 0.54801
 C138 C 1.02627 0.47068 0.55983
 C139 C 1.04369 0.48304 0.55269
 C140 C 1.05703 0.47648 0.53420
 C141 C 1.05232 0.45735 0.52283
 H142 H 1.00793 0.44255 0.55264
 H143 H 1.04642 0.49772 0.56174
 H144 H 1.06213 0.45256 0.50827
 C145 C 0.39759 0.00980 0.22652
 H146 H 0.39961 0.02513 0.23460
 C147 C 0.41130 0.00347 0.20862
 H148 H 0.42397 0.01406 0.20343
 C149 C 0.37913 -0.02286 0.22467
 H150 H 0.36684 -0.03325 0.23120
 C151 C 0.39247 -0.02983 0.20673
 H152 H 0.39013 -0.04548 0.19945
 N153 N 0.38168 -0.00319 0.23391
 C154 C 0.33379 0.03994 0.26425
 H155 H 0.33202 0.03306 0.28124
 C156 C 0.32153 0.05786 0.25805
 H157 H 0.31026 0.06434 0.27048
 C158 C 0.35009 0.03889 0.22734
 H159 H 0.36094 0.03127 0.21524
 C160 C 0.33818 0.05675 0.22042
 H161 H 0.34021 0.06284 0.20309
 Zn162 Zn 0.36402 0.00667 0.25841
 N163 N 0.34796 0.03104 0.24905
 C164 C 0.38287 0.03314 0.29220
 N165 N 0.38244 0.01329 0.28295
 C166 C 0.39611 -0.00237 0.29015
 C167 C 0.41078 0.00148 0.30756
 C168 C 0.39730 0.03774 0.30963
 C169 C 0.32963 -0.02054 0.25170
 C170 C 0.31560 -0.03713 0.25654
 C171 C 0.33171 -0.04079 0.29398
 C172 C 0.34542 -0.02413 0.28837
 N173 N 0.34451 -0.01475 0.26729
 H174 H 0.37223 0.04554 0.28591
 H175 H 0.39561 -0.01794 0.28226
 H176 H 0.42106 -0.01162 0.31277
 H177 H 0.39735 0.05371 0.31667
 H178 H 0.32898 -0.01248 0.23523
 H179 H 0.30421 -0.04115 0.24349
 H180 H 0.33306 -0.04829 0.31073
 H181 H 0.35695 -0.01893 0.30080
 C182 C 0.32385 0.06666 0.23588
 C183 C 0.40861 -0.01652 0.19826
 C184 C 0.31681 -0.04793 0.27784
 C185 C 0.41168 0.02191 0.31756
 C186 C 0.10940 -0.03247 0.73021
 H187 H 0.11060 -0.04637 0.74123
 C188 C 0.09366 -0.03136 0.71329
 H189 H 0.08285 -0.04455 0.71124
 C190 C 0.12163 0.00188 0.71998
 H191 H 0.13210 0.01509 0.72308
 C192 C 0.10614 0.00367 0.70290
 H193 H 0.10500 0.01842 0.69329
 N194 N 0.12312 -0.01608 0.73308
 C195 C 0.17804 -0.04381 0.76888
 H196 H 0.17879 -0.03293 0.78322
 C197 C 0.19310 -0.06036 0.76680
 H198 H 0.20541 -0.06221 0.77970
 C199 C 0.16125 -0.05430 0.73445
 H200 H 0.14909 -0.05157 0.72163
 C201 C 0.17606 -0.07104 0.73164
 H202 H 0.17506 -0.08083 0.71646
 Zn203 Zn 0.14321 -0.01796 0.75725
 N204 N 0.16235 -0.04127 0.75301
 C205 C 0.12960 -0.03952 0.79764
 N206 N 0.12740 -0.02141 0.78493
 C207 C 0.11269 -0.00611 0.79071
 C208 C 0.09957 -0.00858 0.81011
 C209 C 0.11681 -0.04271 0.81712
 C210 C 0.17297 0.01032 0.73932
 C211 C 0.18651 0.02780 0.73867
 C212 C 0.17398 0.03747 0.77670
 C213 C 0.16059 0.01978 0.77654
 N214 N 0.16020 0.00677 0.75795
 H215 H 0.14091 -0.05182 0.79243
 H216 H 0.11092 0.00792 0.77996
 H217 H 0.08787 0.00383 0.81371
 H218 H 0.11876 -0.05740 0.82681
 H219 H 0.17262 -0.00052 0.72492
 H220 H 0.19646 0.03027 0.72354
 H221 H 0.17384 0.04718 0.79195
 H222 H 0.15076 0.01635 0.79144
 C223 C 0.19213 -0.07438 0.74815
 C224 C 0.09200 -0.01321 0.69921
 C225 C 0.18722 0.04179 0.75746
 C226 C 0.10146 -0.02721 0.82369
 C227 C 0.59348 0.50716 0.22872
 H228 H 0.59208 0.49185 0.23719
 C229 C 0.57986 0.51251 0.21065
 H230 H 0.56781 0.50123 0.20581
 C231 C 0.61032 0.54068 0.22599
 H232 H 0.62197 0.55175 0.23225
 C233 C 0.59704 0.54669 0.20779
 H234 H 0.59874 0.56231 0.20003
 N235 N 0.60856 0.52103 0.23577
 C236 C 0.65738 0.47959 0.26638
 H237 H 0.65811 0.48604 0.28357
 C238 C 0.67018 0.46196 0.26036
 H239 H 0.68037 0.45488 0.27331
 C240 C 0.64246 0.48084 0.22911
 H241 H 0.63181 0.48833 0.21688
 C242 C 0.65500 0.46332 0.22234
 H243 H 0.65369 0.45738 0.20496
 Zn244 Zn 0.62615 0.51186 0.26036
 N245 N 0.64360 0.48841 0.25093
 C246 C 0.60732 0.48332 0.29262
 N247 N 0.60751 0.50372 0.28467
 C248 C 0.59328 0.51858 0.29270
 C249 C 0.57821 0.51326 0.30961
 C250 C 0.59249 0.47725 0.30945
 C251 C 0.65917 0.54082 0.25392
 C252 C 0.67294 0.55739 0.25924
 C253 C 0.65666 0.55919 0.29704
 C254 C 0.64318 0.54260 0.29093
 N255 N 0.64445 0.53401 0.26954
 H256 H 0.61833 0.47155 0.28561
 H257 H 0.59352 0.53461 0.28576
 H258 H 0.56736 0.52571 0.31538
 H259 H 0.59259 0.46083 0.31534
 H260 H 0.66000 0.53350 0.23712
 H261 H 0.68397 0.56243 0.24599
 H262 H 0.65519 0.56590 0.31413
 H263 H 0.63173 0.53665 0.30332
 C264 C 0.66906 0.45358 0.23801
 C265 C 0.58180 0.53241 0.19963
 C266 C 0.67179 0.56699 0.28114
 C267 C 0.57749 0.49218 0.31817
 C268 C 0.89403 0.50982 0.71918
 H269 H 0.89427 0.52517 0.72757
 C270 C 0.90999 0.50438 0.70314
 H271 H 0.92251 0.51568 0.69959
 C272 C 0.87787 0.47616 0.71482
 H273 H 0.86561 0.46502 0.71972
 C274 C 0.89354 0.47004 0.69879
 H275 H 0.89298 0.45429 0.69126
 N276 N 0.87822 0.49588 0.72443
 C277 C 0.82513 0.53493 0.75074
 H278 H 0.82181 0.52646 0.76659
 C279 C 0.81261 0.55265 0.74464
 H280 H 0.79951 0.55731 0.75590
 C281 C 0.84575 0.53805 0.71652
 H282 H 0.85844 0.53212 0.70542
 C283 C 0.83365 0.55587 0.70977
 H284 H 0.83734 0.56366 0.69357
 Zn285 Zn 0.85748 0.50405 0.74681
 N286 N 0.84153 0.52820 0.73690
 C287 C 0.87112 0.53000 0.78375
 N288 N 0.87245 0.51033 0.77407
 C289 C 0.88559 0.49491 0.78281
 C290 C 0.89787 0.49885 0.80224
 C291 C 0.88312 0.53467 0.80318
 C292 C 0.82526 0.47618 0.73394
 C293 C 0.81058 0.45974 0.73638
 C294 C 0.82131 0.45564 0.77596
 C295 C 0.83583 0.47215 0.77269
 N296 N 0.83779 0.48179 0.75183
 H297 H 0.86103 0.54225 0.77623
 H298 H 0.88669 0.47955 0.77445
 H299 H 0.90830 0.48616 0.80821
 H300 H 0.88184 0.55051 0.81048
 H301 H 0.82687 0.48439 0.71763
 H302 H 0.80102 0.45540 0.72171
 H303 H 0.82038 0.44857 0.79286
 H304 H 0.84549 0.47725 0.78690
 C305 C 0.81704 0.56359 0.72402
 C306 C 0.90972 0.48428 0.69255
 C307 C 0.80853 0.44894 0.75750
 C308 C 0.89677 0.51906 0.81282
 C309 C 0.22427 0.41191 0.00319
 H310 H 0.23506 0.41224 0.01763
 C311 C 0.20621 0.42526 0.00294
 H312 H 0.20318 0.43585 0.01731
 C313 C 0.21524 0.39764 -0.03303
 H314 H 0.21891 0.38693 -0.04707
 C315 C 0.19691 0.41072 -0.03398
 H316 H 0.18653 0.40943 -0.04865
 N317 N 0.22832 0.39829 -0.01448
 C318 C 0.26618 0.34771 0.01811
 H319 H 0.28089 0.34805 0.00813
 C320 C 0.26390 0.33296 0.03603
 H321 H 0.27699 0.32201 0.03987
 C322 C 0.23104 0.36122 0.02490
 H323 H 0.21802 0.37182 0.02014
 C324 C 0.22806 0.34674 0.04286
 H325 H 0.21261 0.34646 0.05140
 Zn326 Zn 0.25332 0.38104 -0.01172
 N327 N 0.24997 0.36168 0.01313
 C328 C 0.28846 0.39850 0.01261
 N329 N 0.27615 0.39984 -0.00651
 C330 C 0.27909 0.41550 -0.02237
 C331 C 0.29521 0.43039 -0.01961
 C332 C 0.30479 0.41311 0.01613
 C333 C 0.24389 0.35022 -0.04451
 C334 C 0.24698 0.33697 -0.06342
 C335 C 0.28229 0.35492 -0.06970
 C336 C 0.27733 0.36726 -0.05049
 N337 N 0.25866 0.36484 -0.03865
 H338 H 0.28559 0.38620 0.02525
 H339 H 0.26883 0.41638 -0.03725
 H340 H 0.29725 0.44264 -0.03261
 H341 H 0.31434 0.41120 0.03139
 H342 H 0.22949 0.34874 -0.03415
 H343 H 0.23478 0.32552 -0.06743
 H344 H 0.29740 0.35731 -0.07858
 H345 H 0.28885 0.37871 -0.04479
 C346 C 0.24476 0.33253 0.04886
 C347 C 0.19224 0.42483 -0.01578
 C348 C 0.26732 0.33809 -0.07817
 C349 C 0.30836 0.42948 -0.00014
 C350 C 0.71213 0.08448 0.01382
 H351 H 0.72134 0.08318 -0.00198
 C352 C 0.69509 0.07078 0.01794
 H353 H 0.69169 0.05883 0.00522
 C354 C 0.70650 0.10114 0.04989
 H355 H 0.71122 0.11274 0.06246
 C356 C 0.68932 0.08776 0.05472
 H357 H 0.68079 0.08937 0.07094
 N358 N 0.71728 0.09949 0.02954
 C359 C 0.74956 0.14842 -0.01049
 H360 H 0.76466 0.14882 -0.00152
 C361 C 0.74602 0.16225 -0.02887
 H362 H 0.75852 0.17313 -0.03391
 C363 C 0.71490 0.13347 -0.01360
 H364 H 0.70310 0.12253 -0.00708
 C365 C 0.70958 0.14664 -0.03206
 H366 H 0.69386 0.14546 -0.03963
 Zn367 Zn 0.74082 0.11699 0.02218
 N368 N 0.73441 0.13442 -0.00356
 C369 C 0.77523 0.09927 -0.00441
 N370 N 0.76444 0.09852 0.01595
 C371 C 0.76931 0.08419 0.03270
 C372 C 0.78622 0.06966 0.03022
 C373 C 0.79258 0.08565 -0.00889
 C374 C 0.73223 0.15009 0.05348
 C375 C 0.73664 0.16467 0.07085
 C376 C 0.77215 0.14904 0.07377
 C377 C 0.76698 0.13473 0.05648
 N378 N 0.74725 0.13540 0.04680
 H379 H 0.77034 0.11057 -0.01746
 H380 H 0.75987 0.08415 0.04840
 H381 H 0.78965 0.05860 0.04409
 H382 H 0.80086 0.08688 -0.02526
 H383 H 0.71679 0.15054 0.04516
 H384 H 0.72415 0.17594 0.07559
 H385 H 0.78805 0.14819 0.08110
 H386 H 0.77894 0.12335 0.05055
 C387 C 0.72503 0.16247 -0.04153
 C388 C 0.68322 0.07253 0.03854
 C389 C 0.75699 0.16438 0.08126
 C390 C 0.79996 0.06907 0.00877
 C391 C 0.21371 0.58405 0.47351
 H392 H 0.21947 0.58215 0.45603
 C393 C 0.19629 0.57222 0.48139
 H394 H 0.18901 0.56108 0.46980
 C395 C 0.21719 0.60014 0.51002
 H396 H 0.22561 0.61066 0.52132
 C397 C 0.19994 0.58856 0.51863
 H398 H 0.19507 0.59055 0.53643
 N399 N 0.22352 0.59796 0.48770
 C400 C 0.25428 0.64385 0.44176
 H401 H 0.27051 0.64307 0.44815
 C402 C 0.24907 0.65795 0.42395
 H403 H 0.26161 0.66754 0.41647
 C404 C 0.21849 0.63185 0.44372
 H405 H 0.20651 0.62196 0.45173
 C406 C 0.21258 0.64571 0.42595
 H407 H 0.19609 0.64616 0.42027
 Zn408 Zn 0.24729 0.61327 0.47609
 N409 N 0.23910 0.63107 0.45117
 C410 C 0.27693 0.59267 0.44536
 N411 N 0.26844 0.59302 0.46696
 C412 C 0.27474 0.57861 0.48311
 C413 C 0.29074 0.56349 0.47815
 C414 C 0.29299 0.57781 0.43960
 C415 C 0.24511 0.64683 0.50747
 C416 C 0.25185 0.66011 0.52511
 C417 C 0.28599 0.64141 0.52479
 C418 C 0.27852 0.62845 0.50723
 N419 N 0.25824 0.63111 0.49926
 H420 H 0.27139 0.60396 0.43259
 H421 H 0.26754 0.57914 0.50010
 H422 H 0.29551 0.55285 0.49184
 H423 H 0.29972 0.57804 0.42235
 H424 H 0.22915 0.64879 0.50056
 H425 H 0.24056 0.67199 0.53129
 H426 H 0.30213 0.63878 0.53104
 H427 H 0.28896 0.61625 0.50008
 C428 C 0.22786 0.65916 0.41600
 C429 C 0.18905 0.57462 0.50422
 C430 C 0.27260 0.65741 0.53426
 C431 C 0.30032 0.56298 0.45607
 C432 C 0.74254 0.92919 0.51156
 H433 H 0.75092 0.92747 0.52768
 C434 C 0.72713 0.94534 0.50891
 H435 H 0.72369 0.95600 0.52312
 C436 C 0.73686 0.91725 0.47357
 H437 H 0.74090 0.90644 0.45974
 C438 C 0.72129 0.93321 0.47016
 H439 H 0.71379 0.93438 0.45354
 N440 N 0.74677 0.91526 0.49421
 C441 C 0.76849 0.85752 0.52940
 H442 H 0.78392 0.85483 0.52118
 C443 C 0.76108 0.84317 0.54600
 H444 H 0.77098 0.82941 0.55009
 C445 C 0.73659 0.87827 0.53279
 H446 H 0.72686 0.89169 0.52730
 C447 C 0.72855 0.86433 0.54940
 H448 H 0.71279 0.86738 0.55676
 Zn449 Zn 0.76713 0.89326 0.50027
 N450 N 0.75638 0.87482 0.52338
 C451 C 0.80150 0.90183 0.53081
 N452 N 0.79258 0.90646 0.51012
 C453 C 0.80119 0.92136 0.49593
 C454 C 0.81982 0.93193 0.50203
 C455 C 0.82018 0.91197 0.53762
 C456 C 0.75618 0.86513 0.46525
 C457 C 0.75914 0.85112 0.44694
 C458 C 0.79801 0.86097 0.44712
 C459 C 0.79299 0.87454 0.46534
 N460 N 0.77270 0.87633 0.47384
 H461 H 0.79415 0.89034 0.54216
 H462 H 0.79353 0.92501 0.47974
 H463 H 0.82584 0.94366 0.49011
 H464 H 0.82702 0.90789 0.55415
 H465 H 0.74043 0.86690 0.47302
 H466 H 0.74554 0.84241 0.44075
 H467 H 0.81444 0.85985 0.44104
 H468 H 0.80571 0.88339 0.47312
 C469 C 0.74089 0.84664 0.55641
 C470 C 0.71595 0.94729 0.48819
 C471 C 0.78126 0.84743 0.43604
 C472 C 0.82980 0.92720 0.52317
 C473 C 0.00518 0.22399 0.41237
 H474 H 0.02074 0.23137 0.41274
 C475 C 0.00089 0.20665 0.42671
 H476 H 0.01324 0.20117 0.43833
 C477 C -0.02991 0.22308 0.39726
 H478 H -0.04196 0.22965 0.38596
 C479 C -0.03490 0.20571 0.41132
 H480 H -0.05074 0.19894 0.41054
 N481 N -0.00997 0.23153 0.39767
 C482 C 0.02646 0.25993 0.34140
 H483 H 0.01930 0.27574 0.34084
 C484 C 0.04292 0.25441 0.32600
 H485 H 0.04796 0.26612 0.31346
 C486 C 0.02769 0.22540 0.35802
 H487 H 0.02156 0.21402 0.37030
 C488 C 0.04414 0.21920 0.34294
 H489 H 0.05067 0.20313 0.34396
 Zn490 Zn -0.00225 0.25448 0.37823
 N491 N 0.01953 0.24562 0.35733
 C492 C 0.02779 0.28440 0.39453
 N493 N 0.00770 0.27663 0.39719
 C494 C -0.00575 0.28417 0.41387
 C495 C 0.00047 0.30081 0.42809
 C496 C 0.03474 0.30096 0.40841
 C497 C -0.03445 0.25036 0.34540
 C498 C -0.05218 0.25641 0.33228
 C499 C -0.05199 0.29084 0.35073
 C500 C -0.03425 0.28412 0.36341
 N501 N -0.02607 0.26405 0.36084
 H502 H 0.03851 0.27782 0.38163
 H503 H -0.02152 0.27742 0.41588
 H504 H -0.01102 0.30649 0.44070
 H505 H 0.05075 0.30703 0.40573
 H506 H -0.02744 0.23457 0.34348
 H507 H -0.05854 0.24476 0.32069
 H508 H -0.05833 0.30685 0.35329
 H509 H -0.02707 0.29501 0.37530
 C510 C 0.05226 0.23388 0.32697
 C511 C -0.01928 0.19699 0.42594
 C512 C -0.06135 0.27698 0.33490
 C513 C 0.02102 0.30964 0.42538
 C514 C -0.01725 0.71580 0.08323
 H515 H -0.03040 0.72724 0.08327
 C516 C -0.01775 0.69813 0.06873
 H517 H -0.03142 0.69601 0.05767
 C518 C 0.01669 0.70489 0.09736
 H519 H 0.03019 0.70769 0.10836
 C520 C 0.01688 0.68703 0.08308
 H521 H 0.03038 0.67605 0.08393
 N522 N -0.00027 0.71878 0.09728
 C523 C -0.02533 0.76018 0.15174
 H524 H -0.01385 0.77291 0.15070
 C525 C -0.04174 0.76099 0.16821
 H526 H -0.04289 0.77445 0.17977
 C527 C -0.03762 0.72705 0.13805
 H528 H -0.03585 0.71376 0.12641
 C529 C -0.05418 0.72713 0.15440
 H530 H -0.06531 0.71407 0.15466
 Zn531 Zn -0.00053 0.74367 0.11563
 N532 N -0.02370 0.74352 0.13691
 C533 C -0.01948 0.78164 0.09750
 N534 N -0.00294 0.76741 0.09548
 C535 C 0.01213 0.76948 0.07863
 C536 C 0.01128 0.78674 0.06341
 C537 C -0.02096 0.79919 0.08272
 C538 C 0.02863 0.72993 0.14912
 C539 C 0.04618 0.73130 0.16374
 C540 C 0.05547 0.76456 0.14539
 C541 C 0.03781 0.76246 0.13105
 N542 N 0.02479 0.74539 0.13317
 H543 H -0.03165 0.77945 0.11058
 H544 H 0.02496 0.75775 0.07717
 H545 H 0.02364 0.78809 0.05029
 H546 H -0.03429 0.81008 0.08532
 H547 H 0.01782 0.71667 0.15069
 H548 H 0.04876 0.71885 0.17643
 H549 H 0.06541 0.77831 0.14281
 H550 H 0.03432 0.77478 0.11856
 C551 C -0.05630 0.74425 0.16983
 C552 C -0.00046 0.68358 0.06833
 C553 C 0.05972 0.74898 0.16240
 C554 C -0.00533 0.80208 0.06531
 C555 C 0.50687 0.20971 0.59907
 H556 H 0.49128 0.21729 0.59721
 C557 C 0.51193 0.19129 0.58662
 H558 H 0.49981 0.18463 0.57573
 C559 C 0.54126 0.20928 0.61598
 H560 H 0.55283 0.21657 0.62703
 C561 C 0.54698 0.19083 0.60388
 H562 H 0.56288 0.18395 0.60597
 N563 N 0.52143 0.21828 0.61345
 C564 C 0.48252 0.25778 0.65999
 H565 H 0.49058 0.27283 0.65794
 C566 C 0.46483 0.25630 0.67475
 H567 H 0.45932 0.27034 0.68397
 C568 C 0.48014 0.22121 0.65060
 H569 H 0.48641 0.20747 0.64147
 C570 C 0.46242 0.21897 0.66528
 H571 H 0.45551 0.20337 0.66721
 Zn572 Zn 0.51365 0.24418 0.62824
 N573 N 0.48960 0.24048 0.64798
 C574 C 0.48755 0.27375 0.60323
 N575 N 0.50720 0.26421 0.60472
 C576 C 0.52289 0.26832 0.58904
 C577 C 0.51939 0.28314 0.57146
 C578 C 0.48328 0.28861 0.58584
 C579 C 0.54349 0.24157 0.66398
 C580 C 0.56050 0.24796 0.67767
 C581 C 0.56219 0.28060 0.65561
 C582 C 0.54524 0.27351 0.64230
 N583 N 0.53652 0.25411 0.64639
 H584 H 0.47511 0.26993 0.61554
 H585 H 0.53827 0.26024 0.59040
 H586 H 0.53231 0.28636 0.55940
 H587 H 0.46761 0.29614 0.58572
 H588 H 0.53588 0.22646 0.66727
 H589 H 0.56535 0.23746 0.69148
 H590 H 0.56896 0.29605 0.65184
 H591 H 0.53904 0.28363 0.62878
 C592 C 0.45434 0.23679 0.67738
 C593 C 0.53238 0.18176 0.58872
 C594 C 0.57039 0.26769 0.67338
 C595 C 0.49941 0.29363 0.56960
 C596 C 0.50716 0.72330 0.91486
 H597 H 0.52168 0.73239 0.91302
 C598 C 0.50551 0.70795 0.93218
 H599 H 0.51891 0.70521 0.94359
 C600 C 0.47200 0.71609 0.90234
 H601 H 0.45883 0.71963 0.89095
 C602 C 0.46966 0.70054 0.91944
 H603 H 0.45452 0.69250 0.92094
 N604 N 0.49066 0.72688 0.90017
 C605 C 0.52123 0.75350 0.83899
 H606 H 0.51217 0.76825 0.83712
 C607 C 0.53751 0.74837 0.82323
 H608 H 0.54058 0.75923 0.80914
 C609 C 0.52729 0.72113 0.85920
 H610 H 0.52308 0.71040 0.87303
 C611 C 0.54362 0.71533 0.84379
 H612 H 0.55202 0.70024 0.84609
 Zn613 Zn 0.49460 0.74830 0.87757
 N614 N 0.51673 0.74012 0.85679
 C615 C 0.52075 0.78351 0.88887
 N616 N 0.50199 0.77348 0.89330
 C617 C 0.48827 0.78062 0.90993
 C618 C 0.49299 0.79874 0.92268
 C619 C 0.52612 0.80171 0.90115
 C620 C 0.46240 0.73659 0.84696
 C621 C 0.44469 0.73950 0.83269
 C622 C 0.44184 0.77596 0.84571
 C623 C 0.45957 0.77231 0.85971
 N624 N 0.46943 0.75285 0.86014
 H625 H 0.53173 0.77734 0.87599
 H626 H 0.47355 0.77218 0.91326
 H627 H 0.48137 0.80394 0.93540
 H628 H 0.54117 0.80942 0.89725
 H629 H 0.47075 0.72135 0.84737
 H630 H 0.43970 0.72606 0.82266
 H631 H 0.43439 0.79168 0.84560
 H632 H 0.46566 0.78520 0.86988
 C633 C 0.54918 0.72916 0.82577
 C634 C 0.48671 0.69613 0.93449
 C635 C 0.43417 0.75957 0.83172
 C636 C 0.51229 0.80960 0.91845
 C637 C 0.17163 0.23075 0.23448
 C638 C 0.15854 0.21652 0.24643
 C639 C 0.13932 0.22316 0.25995
 C640 C 0.13103 0.20896 0.27636
 C641 C 0.11298 0.21452 0.28957
 C642 C 0.10265 0.23440 0.28644
 C643 C 0.11087 0.24857 0.26998
 C644 C 0.12888 0.24300 0.25673
 C645 C 0.08387 0.24126 0.30047
 C646 C 0.07024 0.22706 0.31173
 H647 H 0.16254 0.19968 0.24615
 H648 H 0.13874 0.19359 0.27920
 H649 H 0.10758 0.20337 0.30252
 H650 H 0.10321 0.26397 0.26721
 H651 H 0.13425 0.25422 0.24384
 H652 H 0.08083 0.25823 0.30180
 H653 H 0.16768 0.24759 0.23448
 H654 H 0.07320 0.21009 0.31008
 C655 C 0.66605 0.73068 0.72958
 C656 C 0.65312 0.71587 0.74092
 C657 C 0.63385 0.72166 0.75475
 C658 C 0.62643 0.70698 0.77114
 C659 C 0.60856 0.71175 0.78492
 C660 C 0.59743 0.73129 0.78235
 C661 C 0.60475 0.74591 0.76581
 C662 C 0.62268 0.74115 0.75205
 C663 C 0.57875 0.73737 0.79700
 C664 C 0.56687 0.72281 0.80997
 H665 H 0.65761 0.69915 0.74038
 H666 H 0.63476 0.69187 0.77361
 H667 H 0.60397 0.70022 0.79783
 H668 H 0.59649 0.76107 0.76345
 H669 H 0.62748 0.75270 0.73924
 H670 H 0.57442 0.75412 0.79764
 H671 H 0.66146 0.74736 0.72951
 H672 H 0.57106 0.70604 0.80939
 C673 C 0.33067 0.76118 0.72263
 C674 C 0.33908 0.77400 0.73988
 C675 C 0.35633 0.76700 0.75569
 C676 C 0.35866 0.77795 0.77648
 C677 C 0.37506 0.77242 0.79167
 C678 C 0.38981 0.75599 0.78618
 C679 C 0.38731 0.74483 0.76553
 C680 C 0.37084 0.75032 0.75035
 C681 C 0.40781 0.74997 0.80152
 C682 C 0.41662 0.76413 0.81733
 H683 H 0.33275 0.78998 0.74227
 H684 H 0.34763 0.79079 0.78107
 H685 H 0.37588 0.78093 0.80775
 H686 H 0.39841 0.73207 0.76090
 H687 H 0.36997 0.74179 0.73429
 H688 H 0.41493 0.73437 0.79893
 H689 H 0.33714 0.74527 0.72011
 H690 H 0.40994 0.78014 0.81803
 C691 C -0.17799 0.28880 0.24397
 C692 C -0.16802 0.30065 0.26110
 C693 C -0.14777 0.29358 0.27209
 C694 C -0.14317 0.30084 0.29426
 C695 C -0.12435 0.29433 0.30529
 C696 C -0.10956 0.28061 0.29418
 C697 C -0.11405 0.27350 0.27195
 C698 C -0.13283 0.28005 0.26089
 C699 C -0.08977 0.27280 0.30551
 C700 C -0.07954 0.28418 0.32281
 H701 H -0.17552 0.31496 0.26783
 H702 H -0.15438 0.31130 0.30324
 H703 H -0.12175 0.29969 0.32268
 H704 H -0.10289 0.26297 0.26300
 H705 H -0.13535 0.27470 0.24350
 H706 H -0.08276 0.25817 0.29896
 H707 H -0.17066 0.27362 0.23940
 H708 H -0.08585 0.29991 0.32693
 C709 C -0.16300 0.70854 0.26972
 C710 C -0.15321 0.72739 0.26263
 C711 C -0.13462 0.72751 0.24655
 C712 C -0.13113 0.74559 0.23280
 C713 C -0.11434 0.74586 0.21670
 C714 C -0.10051 0.72806 0.21423
 C715 C -0.10375 0.71016 0.22829
 C716 C -0.12047 0.70992 0.24443
 C717 C -0.08315 0.72722 0.19670
 C718 C -0.07362 0.74535 0.18737
 H719 H -0.16046 0.74258 0.26721
 H720 H -0.14176 0.75936 0.23413
 H721 H -0.11265 0.75979 0.20584
 H722 H -0.09326 0.69630 0.22682
 H723 H -0.12211 0.69597 0.25524
 H724 H -0.07687 0.71166 0.19194
 H725 H -0.15706 0.69357 0.26282
 H726 H -0.07793 0.76088 0.19417
 C727 C 0.32981 0.20112 0.75063
 C728 C 0.34585 0.21610 0.75308
 C729 C 0.36511 0.21640 0.73803
 C730 C 0.38159 0.23059 0.74296
 C731 C 0.39992 0.23151 0.72899
 C732 C 0.40204 0.21838 0.70949
 C733 C 0.38564 0.20398 0.70475
 C734 C 0.36736 0.20298 0.71882
 C735 C 0.42109 0.21893 0.69396
 C736 C 0.43552 0.23580 0.69317
 H737 H 0.34446 0.22792 0.76656
 H738 H 0.38035 0.24095 0.75778
 H739 H 0.41239 0.24233 0.73382
 H740 H 0.38690 0.19355 0.68999
 H741 H 0.35497 0.19182 0.71452
 H742 H 0.42298 0.20599 0.68187
 H743 H 0.31935 0.20170 0.75917
 H744 H 0.43241 0.24965 0.70376
 C745 C 0.67793 0.28200 0.77503
 C746 C 0.66897 0.29435 0.75733
 C747 C 0.65153 0.28629 0.74270
 C748 C 0.63672 0.30081 0.73317
 C749 C 0.61967 0.29362 0.71996
 C750 C 0.61729 0.27171 0.71575
 C751 C 0.63231 0.25725 0.72496
 C752 C 0.64936 0.26443 0.73810
 C753 C 0.59906 0.26324 0.70261
 C754 C 0.58785 0.27517 0.68610
 H755 H 0.67343 0.31077 0.75490
 H756 H 0.63807 0.31773 0.73642
 H757 H 0.60815 0.30524 0.71365
 H758 H 0.63093 0.24031 0.72187
 H759 H 0.66086 0.25279 0.74442
 H760 H 0.59550 0.24662 0.70531
 H761 H 0.67127 0.26637 0.77793
 H762 H 0.59352 0.29101 0.68214
 C763 C 0.16851 0.79534 0.25005
 C764 C 0.15700 0.77654 0.24763
 C765 C 0.13933 0.77457 0.23091
 C766 C 0.13387 0.75430 0.22290
 C767 C 0.11756 0.75198 0.20677
 C768 C 0.10624 0.76998 0.19853
 C769 C 0.11154 0.79018 0.20675
 C770 C 0.12770 0.79248 0.22293
 C771 C 0.08929 0.76850 0.18100
 C772 C 0.07662 0.75046 0.17820
 H773 H 0.16175 0.76241 0.25711
 H774 H 0.14251 0.74024 0.22883
 H775 H 0.11423 0.73619 0.20046
 H776 H 0.10297 0.80428 0.20078
 H777 H 0.13077 0.80830 0.22927
 H778 H 0.08576 0.78294 0.17151
 H779 H 0.16503 0.80848 0.23851
 H780 H 0.07920 0.73717 0.18985
 C781 C 0.23257 0.17988 0.21930
 C782 C 0.25351 0.17488 0.21215
 C783 C 0.26524 0.15552 0.22006
 C784 C 0.28197 0.14719 0.20637
 C785 C 0.29351 0.12903 0.21335
 C786 C 0.28857 0.11887 0.23432
 C787 C 0.27224 0.12757 0.24830
 C788 C 0.26066 0.14566 0.24128
 C789 C 0.30052 0.09977 0.24259
 C790 C 0.31152 0.08568 0.22794
 H791 H 0.26169 0.18516 0.20010
 H792 H 0.28610 0.15473 0.19017
 H793 H 0.30652 0.12336 0.20247
 H794 H 0.26839 0.12030 0.26473
 H795 H 0.24848 0.15206 0.25279
 H796 H 0.30012 0.09667 0.26087
 H797 H 0.22447 0.16901 0.23084
 H798 H 0.31141 0.08874 0.20963
 C799 C 0.72933 0.68172 0.71896
 C800 C 0.74333 0.67036 0.70445
 C801 C 0.75543 0.65095 0.71162
 C802 C 0.77316 0.64428 0.69829
 C803 C 0.78511 0.62612 0.70439
 C804 C 0.77939 0.61409 0.72391
 C805 C 0.76166 0.62071 0.73719
 C806 C 0.74967 0.63881 0.73106
 C807 C 0.79176 0.59499 0.73137
 C808 C 0.80457 0.58266 0.71654
 H809 H 0.74582 0.67596 0.68703
 H810 H 0.77796 0.65332 0.68324
 H811 H 0.79901 0.62192 0.69404
 H812 H 0.75691 0.61170 0.75228
 H813 H 0.73580 0.64289 0.74148
 H814 H 0.79024 0.59045 0.74924
 H815 H 0.72655 0.67616 0.73632
 H816 H 0.80590 0.58723 0.69864
 C817 C 0.73254 0.33385 0.80297
 C818 C 0.73527 0.34609 0.78306
 C819 C 0.74937 0.36491 0.78224
 C820 C 0.74560 0.38094 0.76581
 C821 C 0.75885 0.39872 0.76441
 C822 C 0.77643 0.40061 0.77924
 C823 C 0.78018 0.38454 0.79561
 C824 C 0.76696 0.36682 0.79701
 C825 C 0.79106 0.41903 0.77853
 C826 C 0.79398 0.43199 0.75910
 H827 H 0.72707 0.34186 0.76747
 H828 H 0.73220 0.37981 0.75419
 H829 H 0.75503 0.41100 0.75195
 H830 H 0.79363 0.38552 0.80718
 H831 H 0.77094 0.35449 0.80936
 H832 H 0.80072 0.42126 0.79359
 H833 H 0.74033 0.33878 0.81857
 H834 H 0.78500 0.42827 0.74384
 C835 C 0.22698 -0.15994 0.27543
 C836 C 0.24243 -0.15180 0.29020
 C837 C 0.25454 -0.13231 0.28456
 C838 C 0.26194 -0.11949 0.30244
 C839 C 0.27337 -0.10095 0.29762
 C840 C 0.27796 -0.09509 0.27473
 C841 C 0.27063 -0.10800 0.25690
 C842 C 0.25918 -0.12647 0.26171
 C843 C 0.29002 -0.07565 0.26862
 C844 C 0.30411 -0.06561 0.28361
 H845 H 0.24493 -0.15875 0.30699
 H846 H 0.25857 -0.12367 0.32018
 H847 H 0.27819 -0.09118 0.31188
 H848 H 0.27399 -0.10391 0.23912
 H849 H 0.25433 -0.13629 0.24748
 H850 H 0.28864 -0.07025 0.25105
 H851 H 0.22331 -0.15073 0.26014
 H852 H 0.30625 -0.07252 0.30053
 C853 C 0.26860 -0.19108 0.70153
 C854 C 0.26934 -0.17729 0.72035
 C855 C 0.25304 -0.16021 0.72386
 C856 C 0.25898 -0.14108 0.73421
 C857 C 0.24403 -0.12445 0.73714
 C858 C 0.22264 -0.12685 0.73016
 C859 C 0.21667 -0.14617 0.72017
 C860 C 0.23164 -0.16272 0.71713
 C861 C 0.20624 -0.10959 0.73233
 C862 C 0.20850 -0.09168 0.74626
 H863 H 0.28288 -0.17757 0.73178
 H864 H 0.27537 -0.13881 0.73957
 H865 H 0.24953 -0.10972 0.74441
 H866 H 0.20032 -0.14851 0.71471
 H867 H 0.22636 -0.17751 0.70971
 H868 H 0.19139 -0.11168 0.72324
 H869 H 0.25611 -0.18811 0.68904
 H870 H 0.22231 -0.09062 0.75725
 C871 C 0.76131 0.33925 0.23038
 C872 C 0.74522 0.34863 0.21696
 C873 C 0.73376 0.36860 0.22351
 C874 C 0.71307 0.37239 0.21504
 C875 C 0.70160 0.39091 0.22098
 C876 C 0.71079 0.40629 0.23526
 C877 C 0.73156 0.40256 0.24359
 C878 C 0.74300 0.38401 0.23769
 C879 C 0.69907 0.42595 0.24242
 C880 C 0.68150 0.43444 0.23055
 H881 H 0.74013 0.34090 0.20142
 H882 H 0.70559 0.36078 0.20409
 H883 H 0.68543 0.39280 0.21471
 H884 H 0.73903 0.41413 0.25459
 H885 H 0.75916 0.38203 0.24401
 H886 H 0.70521 0.43443 0.25704
 H887 H 0.76588 0.34707 0.24609
 H888 H 0.67695 0.42724 0.21449
 C889 C 0.77361 0.66761 0.29355
 C890 C 0.75155 0.66629 0.29765
 C891 C 0.73908 0.64707 0.29207
 C892 C 0.71926 0.64388 0.30307
 C893 C 0.70678 0.62626 0.29768
 C894 C 0.71391 0.61146 0.28105
 C895 C 0.73355 0.61489 0.26979
 C896 C 0.74599 0.63245 0.27518
 C897 C 0.70102 0.59295 0.27404
 C898 C 0.68481 0.58407 0.28773
 H899 H 0.74290 0.67979 0.30485
 H900 H 0.71336 0.65513 0.31582
 H901 H 0.69139 0.62468 0.30618
 H902 H 0.73924 0.60398 0.25661
 H903 H 0.76069 0.63473 0.26555
 H904 H 0.70536 0.58582 0.25778
 H905 H 0.78218 0.65379 0.28694
 H906 H 0.68225 0.59054 0.30477
 C907 C 0.25779 0.16555 0.77518
 C908 C 0.26300 0.14469 0.76863
 C909 C 0.24735 0.12712 0.76950
 C910 C 0.25133 0.10874 0.75637
 C911 C 0.23720 0.09163 0.75720
 C912 C 0.21872 0.09258 0.77128
 C913 C 0.21501 0.11077 0.78477
 C914 C 0.22912 0.12783 0.78395
 C915 C 0.20344 0.07475 0.77315
 C916 C 0.20129 0.05916 0.75618
 H917 H 0.27918 0.14087 0.76300
 H918 H 0.26547 0.10759 0.74547
 H919 H 0.24114 0.07761 0.74719
 H920 H 0.20115 0.11176 0.79609
 H921 H 0.22586 0.14123 0.79512
 H922 H 0.19303 0.07480 0.78808
 H923 H 0.24150 0.16941 0.78037
 H924 H 0.21084 0.06073 0.74066
 C925 C 0.22174 0.24450 0.16878
 C926 C 0.20740 0.25773 0.15685
 C927 C 0.21354 0.27291 0.13843
 C928 C 0.23316 0.27156 0.12633
 C929 C 0.23799 0.28640 0.10904
 C930 C 0.22327 0.30282 0.10351
 C931 C 0.20379 0.30413 0.11570
 C932 C 0.19893 0.28928 0.13280
 C933 C 0.22744 0.31908 0.08554
 C934 C 0.24237 0.31662 0.06762
 H935 H 0.19060 0.25755 0.16166
 H936 H 0.24475 0.25902 0.12987
 H937 H 0.25335 0.28505 0.10037
 H938 H 0.19217 0.31662 0.11185
 H939 H 0.18370 0.29071 0.14181
 H940 H 0.21763 0.33343 0.08619
 H941 H 0.23843 0.24367 0.16365
 H942 H 0.25273 0.30266 0.06711
 C943 C 0.72201 0.74701 0.66976
 C944 C 0.70973 0.76162 0.65707
 C945 C 0.71883 0.77567 0.63901
 C946 C 0.70738 0.79421 0.63282
 C947 C 0.71532 0.80796 0.61592
 C948 C 0.73484 0.80326 0.60456
 C949 C 0.74626 0.78469 0.61071
 C950 C 0.73832 0.77094 0.62762
 C951 C 0.74405 0.81746 0.58672
 C952 C 0.73182 0.83211 0.57403
 H953 H 0.69275 0.76328 0.66065
 H954 H 0.69235 0.79824 0.64134
 H955 H 0.70629 0.82239 0.61224
 H956 H 0.76131 0.78068 0.60222
 H957 H 0.74737 0.75652 0.63131
 H958 H 0.76108 0.81593 0.58342
 H959 H 0.73898 0.74537 0.66615
 H960 H 0.71475 0.83336 0.57723
 C961 C 0.78473 0.73955 0.32861
 C962 C 0.79797 0.75556 0.33689
 C963 C 0.79093 0.77196 0.35383
 C964 C 0.80665 0.78359 0.36525
 C965 C 0.80089 0.79895 0.38160
 C966 C 0.77918 0.80308 0.38691
 C967 C 0.76343 0.79177 0.37524
 C968 C 0.76918 0.77646 0.35877
 C969 C 0.77257 0.81872 0.40472
 C970 C 0.78736 0.83134 0.41583
 H971 H 0.81473 0.75544 0.33200
 H972 H 0.82350 0.78061 0.36168
 H973 H 0.81348 0.80739 0.39023
 H974 H 0.74660 0.79478 0.37886
 H975 H 0.75648 0.76845 0.34994
 H976 H 0.75573 0.82006 0.40933
 H977 H 0.76856 0.73841 0.33526
 H978 H 0.78310 0.83923 0.42608
 C979 C 0.27756 0.23047 -0.18369
 C980 C 0.28539 0.25116 -0.18200
 C981 C 0.27846 0.26596 -0.16347
 C982 C 0.29229 0.28216 -0.15670
 C983 C 0.28645 0.29604 -0.13887
 C984 C 0.26649 0.29408 -0.12762
 C985 C 0.25243 0.27829 -0.13485
 C986 C 0.25827 0.26442 -0.15264
 C987 C 0.26001 0.30797 -0.10820
 C988 C 0.27331 0.32364 -0.09979
 H989 H 0.29733 0.25669 -0.19413
 H990 H 0.30781 0.28384 -0.16496
 H991 H 0.29763 0.30815 -0.13382
 H992 H 0.23688 0.27662 -0.12666
 H993 H 0.24678 0.25274 -0.15797
 H994 H 0.24456 0.30542 -0.10005
 H995 H 0.26599 0.22512 -0.17104
 H996 H 0.26929 0.33049 -0.08864
 C997 C 0.72242 0.26493 -0.15732
 C998 C 0.70975 0.24831 -0.14909
 C999 C 0.71624 0.23385 -0.13009
 C1000 C 0.70039 0.22199 -0.11878
 C1001 C 0.70573 0.20817 -0.10076
 C1002 C 0.72715 0.20587 -0.09370
 C1003 C 0.74305 0.21750 -0.10517
 C1004 C 0.73772 0.23125 -0.12327
 C1005 C 0.73331 0.19163 -0.07449
 C1006 C 0.71861 0.17847 -0.06365
 H1007 H 0.69379 0.24645 -0.15583
 H1008 H 0.68376 0.22353 -0.12380
 H1009 H 0.69305 0.19942 -0.09231
 H1010 H 0.75968 0.21585 -0.10019
 H1011 H 0.75056 0.23950 -0.13198
 H1012 H 0.74982 0.19142 -0.06886
 H1013 H 0.73730 0.26833 -0.14879
 H1014 H 0.72267 0.17076 -0.05247
 C1015 C 0.21210 0.77414 0.31988
 C1016 C 0.20820 0.75223 0.31972
 C1017 C 0.21429 0.73734 0.33859
 C1018 C 0.20622 0.71657 0.33836
 C1019 C 0.21179 0.70181 0.35546
 C1020 C 0.22559 0.70756 0.37331
 C1021 C 0.23391 0.72821 0.37337
 C1022 C 0.22838 0.74295 0.35627
 C1023 C 0.23229 0.69243 0.39165
 C1024 C 0.22117 0.67393 0.39734
 H1025 H 0.20053 0.74543 0.30490
 H1026 H 0.19561 0.71167 0.32479
 H1027 H 0.20555 0.68588 0.35430
 H1028 H 0.24481 0.73298 0.38673
 H1029 H 0.23557 0.75846 0.35694
 H1030 H 0.24590 0.69682 0.40191
 H1031 H 0.22003 0.78116 0.33435
 H1032 H 0.20619 0.67073 0.38892
 C1033 C 0.29195 0.75353 0.64802
 C1034 C 0.29632 0.73193 0.64421
 C1035 C 0.28985 0.72076 0.62300
 C1036 C 0.29977 0.70122 0.61738
 C1037 C 0.29345 0.68982 0.59801
 C1038 C 0.27700 0.69782 0.58382
 C1039 C 0.26694 0.71723 0.58963
 C1040 C 0.27320 0.72856 0.60897
 C1041 C 0.26897 0.68606 0.56367
 C1042 C 0.28043 0.66963 0.55258
 H1043 H 0.30426 0.72260 0.65740
 H1044 H 0.31234 0.69464 0.62813
 H1045 H 0.30115 0.67458 0.59470
 H1046 H 0.25396 0.72359 0.57928
 H1047 H 0.26444 0.74306 0.61310
 H1048 H 0.25355 0.69123 0.55730
 H1049 H 0.28446 0.76296 0.63464
 H1050 H 0.29651 0.66602 0.55837
 C1051 C 0.76757 0.27058 0.18636
 C1052 C 0.77986 0.25448 0.17581
 C1053 C 0.77132 0.23928 0.15895
 C1054 C 0.78173 0.21945 0.15642
 C1055 C 0.77477 0.20478 0.14024
 C1056 C 0.75746 0.20985 0.12577
 C1057 C 0.74683 0.22959 0.12853
 C1058 C 0.75370 0.24423 0.14489
 C1059 C 0.74998 0.19499 0.10783
 C1060 C 0.76303 0.17872 0.09853
 H1061 H 0.79653 0.25237 0.18026
 H1062 H 0.79525 0.21521 0.16715
 H1063 H 0.78292 0.18947 0.13944
 H1064 H 0.73340 0.23388 0.11770
 H1065 H 0.74554 0.25953 0.14600
 H1066 H 0.73408 0.19792 0.10127
 H1067 H 0.75095 0.27269 0.18161
 H1068 H 0.77929 0.17723 0.10467
 C1069 C 0.44894 0.39820 0.47566
 C1070 C 0.46858 0.38855 0.48123
 C1071 C 0.47061 0.37031 0.49744
 C1072 C 0.49045 0.36634 0.50792
 C1073 C 0.49293 0.34972 0.52380
 C1074 C 0.47558 0.33653 0.52937
 C1075 C 0.45581 0.34033 0.51871
 C1076 C 0.45336 0.35688 0.50274
 C1077 C 0.47728 0.31941 0.54690
 C1078 C 0.49664 0.30891 0.55201
 H1079 H 0.48327 0.39553 0.47497
 H1080 H 0.50401 0.37641 0.50414
 H1081 H 0.50826 0.34766 0.53211
 H1082 H 0.44222 0.33037 0.52268
 H1083 H 0.43798 0.35888 0.49455
 H1084 H 0.46250 0.31452 0.55503
 H1085 H 0.43449 0.39252 0.48390
 H1086 H 0.51047 0.31253 0.54137
 C1087 C -0.03433 0.92775 -0.00619
 C1088 C -0.02065 0.91021 -0.00989
 C1089 C -0.02085 0.89112 0.00520
 C1090 C -0.00207 0.87876 0.00758
 C1091 C -0.00173 0.86076 0.02189
 C1092 C -0.02040 0.85453 0.03380
 C1093 C -0.03923 0.86679 0.03112
 C1094 C -0.03953 0.88478 0.01692
 C1095 C -0.02093 0.83597 0.04970
 C1096 C -0.00544 0.81952 0.04991
 H1097 H -0.00918 0.91033 -0.02393
 H1098 H 0.01250 0.88328 -0.00134
 H1099 H 0.01329 0.85218 0.02383
 H1100 H -0.05386 0.86236 0.03999
 H1101 H -0.05453 0.89345 0.01491
 H1102 H -0.03461 0.83532 0.06114
 H1103 H -0.04515 0.92740 0.00846
 H1104 H 0.00733 0.82005 0.03722
 C1105 C 0.03075 0.56403 -0.01539
 C1106 C 0.01716 0.58187 -0.01737
 C1107 C 0.01722 0.59997 -0.00102
 C1108 C -0.00088 0.61349 0.00033
 C1109 C -0.00137 0.63091 0.01528
 C1110 C 0.01635 0.63523 0.02923
 C1111 C 0.03460 0.62194 0.02752
 C1112 C 0.03509 0.60453 0.01260
 C1113 C 0.01689 0.65366 0.04512
 C1114 C -0.00131 0.66502 0.05266
 H1115 H 0.00585 0.58277 -0.03132
 H1116 H -0.01471 0.61057 -0.01026
 H1117 H -0.01551 0.64107 0.01540
 H1118 H 0.04862 0.62507 0.03775
 H1119 H 0.04969 0.59508 0.01151
 H1120 H 0.03247 0.65830 0.05117
 H1121 H 0.04183 0.56311 -0.00123
 H1122 H -0.01693 0.66064 0.04654
 C1123 C 0.54571 0.08077 0.47654
 C1124 C 0.55408 0.08420 0.49841
 C1125 C 0.54759 0.10266 0.51289
 C1126 C 0.56148 0.10957 0.53007
 C1127 C 0.55591 0.12698 0.54399
 C1128 C 0.53609 0.13769 0.54118
 C1129 C 0.52213 0.13058 0.52417
 C1130 C 0.52769 0.11321 0.51030
 C1131 C 0.52948 0.15657 0.55498
 C1132 C 0.53900 0.16248 0.57562
 H1133 H 0.56593 0.07319 0.50527
 H1134 H 0.57686 0.10166 0.53249
 H1135 H 0.56739 0.13211 0.55652
 H1136 H 0.50673 0.13843 0.52169
 H1137 H 0.51614 0.10796 0.49788
 H1138 H 0.51641 0.16621 0.54834
 H1139 H 0.53417 0.09211 0.46971
 H1140 H 0.55229 0.15316 0.58228
 C1141 C -0.01625 0.08069 0.52013
 C1142 C -0.02693 0.08681 0.50008
 C1143 C -0.02235 0.10686 0.48755
 C1144 C -0.03820 0.11582 0.47337
 C1145 C -0.03433 0.13451 0.46093
 C1146 C -0.01439 0.14459 0.46237
 C1147 C 0.00159 0.13538 0.47619
 C1148 C -0.00229 0.11674 0.48867
 C1149 C -0.00923 0.16405 0.44902
 C1150 C -0.02468 0.17809 0.44009
 H1151 H -0.03928 0.07687 0.49317
 H1152 H -0.05364 0.10830 0.47190
 H1153 H -0.04684 0.14062 0.44987
 H1154 H 0.01722 0.14260 0.47727
 H1155 H 0.01064 0.10992 0.49866
 H1156 H 0.00757 0.16730 0.44627
 H1157 H -0.00433 0.09118 0.52704
 H1158 H -0.04150 0.17488 0.44281
 C1159 C 0.45472 0.57739 1.01843
 C1160 C 0.46801 0.59500 1.02066
 C1161 C 0.46832 0.61274 1.00373
 C1162 C 0.48692 0.62488 1.00139
 C1163 C 0.48802 0.64139 0.98520
 C1164 C 0.47031 0.64633 0.97121
 C1165 C 0.45162 0.63437 0.97380
 C1166 C 0.45053 0.61787 0.98997
 C1167 C 0.47086 0.66318 0.95325
 C1168 C 0.48554 0.67981 0.95297
 H1169 H 0.47921 0.59567 1.03468
 H1170 H 0.50083 0.62127 1.01180
 H1171 H 0.50295 0.64978 0.98343
 H1172 H 0.43773 0.63787 0.96333
 H1173 H 0.43562 0.60943 0.99175
 H1174 H 0.45908 0.66228 0.93980
 H1175 H 0.44402 0.57682 1.00394
 H1176 H 0.49718 0.68080 0.96655
 C1177 C 0.52100 0.92139 1.01610
 C1178 C 0.53223 0.91296 0.99713
 C1179 C 0.52567 0.89329 0.98522
 C1180 C 0.53188 0.89030 0.96219
 C1181 C 0.52601 0.87199 0.95033
 C1182 C 0.51402 0.85608 0.96143
 C1183 C 0.50788 0.85903 0.98448
 C1184 C 0.51378 0.87732 0.99634
 C1185 C 0.50715 0.83659 0.94943
 C1186 C 0.51833 0.82792 0.93058
 H1187 H 0.54553 0.92140 0.98961
 H1188 H 0.54105 0.90234 0.95323
 H1189 H 0.53053 0.87061 0.93240
 H1190 H 0.49868 0.84700 0.99343
 H1191 H 0.50928 0.87864 1.01428
 H1192 H 0.49362 0.82841 0.95682
 H1193 H 0.50654 0.91339 1.02151
 H1194 H 0.53311 0.83546 0.92535
 C1195 C 0.02905 0.42488 0.51783
 C1196 C 0.04276 0.41341 0.50311
 C1197 C 0.03621 0.39364 0.49147
 C1198 C 0.04588 0.38821 0.47039
 C1199 C 0.03981 0.36989 0.45866
 C1200 C 0.02417 0.35636 0.46807
 C1201 C 0.01473 0.36168 0.48931
 C1202 C 0.02074 0.38003 0.50098
 C1203 C 0.01659 0.33719 0.45593
 C1204 C 0.02834 0.32690 0.43845
 H1205 H 0.05859 0.41924 0.49919
 H1206 H 0.05785 0.39844 0.46273
 H1207 H 0.04706 0.36680 0.44204
 H1208 H 0.00267 0.35155 0.49697
 H1209 H 0.01341 0.38330 0.51754
 H1210 H 0.00140 0.33099 0.46165
 H1211 H 0.01312 0.41892 0.52106
 H1212 H 0.04430 0.33253 0.43465
 C1213 C 0.40392 0.45970 0.45108
 C1214 C 0.40144 0.48130 0.44548
 C1215 C 0.38139 0.49372 0.44972
 C1216 C 0.37819 0.51301 0.43784
 C1217 C 0.35995 0.52569 0.44203
 C1218 C 0.34445 0.51929 0.45828
 C1219 C 0.34776 0.50010 0.47031
 C1220 C 0.36599 0.48744 0.46613
 C1221 C 0.32546 0.53270 0.46428
 C1222 C 0.31713 0.54877 0.44996
 H1223 H 0.41474 0.48975 0.43788
 H1224 H 0.38998 0.51841 0.42540
 H1225 H 0.35844 0.54071 0.43295
 H1226 H 0.33630 0.49498 0.48322
 H1227 H 0.36813 0.47313 0.47632
 H1228 H 0.31767 0.52907 0.48044
 H1229 H 0.39055 0.45124 0.45850
 H1230 H 0.32397 0.55034 0.43287
 C1231 C 0.92206 -0.00466 -0.03320
 C1232 C 0.90517 -0.00710 -0.01771
 C1233 C 0.88674 0.00798 -0.01688
 C1234 C 0.87157 0.00606 0.00092
 C1235 C 0.85412 0.02023 0.00245
 C1236 C 0.85144 0.03658 -0.01396
 C1237 C 0.86647 0.03834 -0.03194
 C1238 C 0.88400 0.02424 -0.03338
 C1239 C 0.83327 0.05196 -0.01266
 C1240 C 0.81950 0.05263 0.00624
 H1241 H 0.90562 -0.02008 -0.00538
 H1242 H 0.87329 -0.00635 0.01380
 H1243 H 0.84277 0.01834 0.01647
 H1244 H 0.86473 0.05076 -0.04482
 H1245 H 0.89536 0.02609 -0.04741
 H1246 H 0.83109 0.06330 -0.02659
 H1247 H 0.93198 -0.01324 -0.03295
 H1248 H 0.80977 0.06145 0.00636
 C1249 C 0.56959 -0.01805 0.03042
 C1250 C 0.58007 -0.00541 0.04643
 C1251 C 0.59911 0.00769 0.04117
 C1252 C 0.60498 0.02323 0.05712
 C1253 C 0.62263 0.03620 0.05299
 C1254 C 0.63500 0.03372 0.03281
 C1255 C 0.62915 0.01819 0.01686
 C1256 C 0.61150 0.00520 0.02099
 C1257 C 0.65359 0.04735 0.02743
 C1258 C 0.66487 0.05861 0.04401
 H1259 H 0.57386 -0.00470 0.06385
 H1260 H 0.59569 0.02557 0.07276
 H1261 H 0.62611 0.04837 0.06544
 H1262 H 0.63839 0.01597 0.00116
 H1263 H 0.60793 -0.00679 0.00840
 H1264 H 0.65855 0.04826 0.00961
 H1265 H 0.57596 -0.01970 0.01318
 H1266 H 0.65994 0.05761 0.06184
 C1267 C 0.07472 0.48828 0.52625
 C1268 C 0.08216 0.50710 0.53612
 C1269 C 0.10069 0.51893 0.52669
 C1270 C 0.11209 0.53227 0.54135
 C1271 C 0.12963 0.54373 0.53315
 C1272 C 0.13616 0.54211 0.50998
 C1273 C 0.12437 0.52924 0.49519
 C1274 C 0.10682 0.51778 0.50339
 C1275 C 0.15463 0.55396 0.50040
 C1276 C 0.17081 0.56252 0.51384
 H1277 H 0.07525 0.51303 0.55196
 H1278 H 0.10744 0.53377 0.55927
 H1279 H 0.13767 0.55405 0.54501
 H1280 H 0.12877 0.52801 0.47717
 H1281 H 0.09795 0.50840 0.49129
 H1282 H 0.15548 0.55574 0.48191
 H1283 H 0.08358 0.48198 0.51163
 H1284 H 0.17004 0.56085 0.53232
 C1285 C 0.07125 0.50216 -0.04940
 C1286 C 0.08497 0.49878 -0.03087
 C1287 C 0.10406 0.48450 -0.03208
 C1288 C 0.11183 0.47532 -0.01172
 C1289 C 0.12984 0.46181 -0.01211
 C1290 C 0.14076 0.45751 -0.03291
 C1291 C 0.13295 0.46669 -0.05328
 C1292 C 0.11487 0.48014 -0.05290
 C1293 C 0.15998 0.44334 -0.03411
 C1294 C 0.17293 0.43891 -0.01515
 H1295 H 0.08081 0.50562 -0.01434
 H1296 H 0.10375 0.47839 0.00453
 H1297 H 0.13485 0.45456 0.00389
 H1298 H 0.14103 0.46365 -0.06954
 H1299 H 0.10969 0.48736 -0.06887
 H1300 H 0.16460 0.43725 -0.05082
 H1301 H 0.07389 0.49317 -0.06504
 H1302 H 0.16942 0.44689 0.00092
 C1303 C 0.59315 1.01957 0.45120
 C1304 C 0.60965 1.02189 0.46714
 C1305 C 0.62891 1.00771 0.46730
 C1306 C 0.63987 1.00441 0.48800
 C1307 C 0.65768 0.99062 0.48896
 C1308 C 0.66511 0.98004 0.46906
 C1309 C 0.65438 0.98366 0.44828
 C1310 C 0.63662 0.99748 0.44732
 C1311 C 0.68318 0.96440 0.46944
 C1312 C 0.69895 0.96403 0.48636
 H1313 H 0.60812 1.03328 0.48094
 H1314 H 0.63431 1.01214 0.50362
 H1315 H 0.66509 0.98789 0.50545
 H1316 H 0.65980 0.97579 0.43269
 H1317 H 0.62915 1.00018 0.43085
 H1318 H 0.68378 0.95277 0.45580
 H1319 H 0.59472 1.00657 0.43909
 H1320 H 0.69849 0.97613 0.49956
 C1321 C 0.94153 1.01604 0.53616
 C1322 C 0.93546 0.99721 0.54733
 C1323 C 0.91663 0.98506 0.53974
 C1324 C 0.90429 0.97394 0.55596
 C1325 C 0.88602 0.96296 0.54922
 C1326 C 0.88000 0.96257 0.52593
 C1327 C 0.89271 0.97333 0.50971
 C1328 C 0.91085 0.98435 0.51647
 C1329 C 0.86040 0.95193 0.51773
 C1330 C 0.84870 0.93705 0.53060
 H1331 H 0.94348 0.99185 0.56273
 H1332 H 0.90850 0.97419 0.57398
 H1333 H 0.87655 0.95531 0.56243
 H1334 H 0.88858 0.97324 0.49167
 H1335 H 0.92039 0.99216 0.50339
 H1336 H 0.85566 0.95582 0.50042
 H1337 H 0.93109 1.02193 0.52269
 H1338 H 0.85473 0.93240 0.54727
 C1339 C 0.41800 0.51152 0.04590
 C1340 C 0.40509 0.50913 0.02662
 C1341 C 0.38770 0.49336 0.02555
 C1342 C 0.38108 0.48620 0.00398
 C1343 C 0.36490 0.47115 0.00225
 C1344 C 0.35476 0.46318 0.02214
 C1345 C 0.36132 0.47041 0.04370
 C1346 C 0.37748 0.48548 0.04543
 C1347 C 0.33778 0.44698 0.02108
 C1348 C 0.32444 0.44483 0.00203
 H1349 H 0.40877 0.51795 0.01109
 H1350 H 0.38870 0.49201 -0.01159
 H1351 H 0.36075 0.46551 -0.01466
 H1352 H 0.35374 0.46454 0.05928
 H1353 H 0.38165 0.49106 0.06235
 H1354 H 0.33520 0.43754 0.03639
 H1355 H 0.41592 0.50083 0.06036
 H1356 H 0.32621 0.45621 -0.01189
 C1357 C 0.47770 0.44850 0.41585
 C1358 C 0.48040 0.46941 0.40801
 C1359 C 0.49766 0.47595 0.39190
 C1360 C 0.51689 0.46419 0.38915
 C1361 C 0.53280 0.47114 0.37387
 C1362 C 0.52977 0.48996 0.36093
 C1363 C 0.51076 0.50188 0.36413
 C1364 C 0.49493 0.49498 0.37945
 C1365 C 0.54604 0.49802 0.34439
 C1366 C 0.56235 0.48525 0.33464
 H1367 H 0.46917 0.48171 0.41352
 H1368 H 0.52001 0.44990 0.39910
 H1369 H 0.54753 0.46191 0.37272
 H1370 H 0.50807 0.51655 0.35463
 H1371 H 0.48039 0.50449 0.38144
 H1372 H 0.54407 0.51443 0.33909
 H1373 H 0.48903 0.43620 0.41064
 H1374 H 0.56310 0.46860 0.33954
 C1375 C -0.00379 -0.02428 0.93189
 C1376 C 0.01133 -0.03887 0.92315
 C1377 C 0.02766 -0.03307 0.90560
 C1378 C 0.03665 -0.04919 0.89174
 C1379 C 0.05158 -0.04432 0.87451
 C1380 C 0.05806 -0.02315 0.87099
 C1381 C 0.04930 -0.00707 0.88506
 C1382 C 0.03442 -0.01196 0.90234
 C1383 C 0.07301 -0.01718 0.85219
 C1384 C 0.08824 -0.03142 0.84290
 H1385 H 0.01017 -0.05553 0.92781
 H1386 H 0.03174 -0.06558 0.89390
 H1387 H 0.05750 -0.05708 0.86362
 H1388 H 0.05405 0.00934 0.88273
 H1389 H 0.02845 0.00085 0.91312
 H1390 H 0.07225 -0.00082 0.84635
 H1391 H -0.00409 -0.00820 0.92511
 H1392 H 0.09016 -0.04679 0.85124
 C1393 C 0.01091 0.02844 0.57680
 C1394 C 0.00829 0.01538 0.59612
 C1395 C 0.02562 0.01183 0.61308
 C1396 C 0.02547 -0.00653 0.62694
 C1397 C 0.04158 -0.01020 0.64318
 C1398 C 0.05805 0.00464 0.64601
 C1399 C 0.05804 0.02305 0.63225
 C1400 C 0.04197 0.02674 0.61615
 C1401 C 0.07561 0.00174 0.66279
 C1402 C 0.07484 -0.01201 0.68175
 H1403 H -0.00683 0.00758 0.59912
 H1404 H 0.01300 -0.01820 0.62502
 H1405 H 0.04115 -0.02479 0.65311
 H1406 H 0.07040 0.03484 0.63419
 H1407 H 0.04226 0.04153 0.60655
 H1408 H 0.08957 0.01152 0.66028
 H1409 H 0.02635 0.03556 0.57363
 H1410 H 0.06127 -0.02232 0.68413
 C1411 C 0.48642 0.53097 0.08156
 C1412 C 0.49845 0.54603 0.09321
 C1413 C 0.51355 0.54028 0.11190
 C1414 C 0.52905 0.55502 0.11847
 C1415 C 0.54336 0.55022 0.13622
 C1416 C 0.54232 0.53055 0.14787
 C1417 C 0.52682 0.51588 0.14134
 C1418 C 0.51246 0.52071 0.12378
 C1419 C 0.55716 0.52441 0.16654
 C1420 C 0.56792 0.53899 0.18021
 H1421 H 0.49659 0.56274 0.08877
 H1422 H 0.53020 0.57023 0.10970
 H1423 H 0.55539 0.56178 0.14040
 H1424 H 0.52560 0.50067 0.15013
 H1425 H 0.50035 0.50914 0.12005
 H1426 H 0.55903 0.50754 0.17000
 H1427 H 0.48842 0.51424 0.08563
 H1428 H 0.56635 0.55586 0.17660
 C1429 C 0.50274 -0.02667 0.07718
 C1430 C 0.48946 -0.03985 0.09026
 C1431 C 0.47555 -0.03205 0.10934
 C1432 C 0.45857 -0.04483 0.11688
 C1433 C 0.44515 -0.03823 0.13495
 C1434 C 0.44862 -0.01873 0.14609
 C1435 C 0.46557 -0.00595 0.13854
 C1436 C 0.47901 -0.01256 0.12052
 C1437 C 0.43476 -0.01093 0.16517
 C1438 C 0.42249 -0.02430 0.17916
 H1439 H 0.48906 -0.05671 0.08644
 H1440 H 0.45553 -0.05990 0.10857
 H1441 H 0.43191 -0.04829 0.13976
 H1442 H 0.46860 0.00912 0.14685
 H1443 H 0.49224 -0.00247 0.11583
 H1444 H 0.43470 0.00602 0.16842
 H1445 H 0.50331 -0.00984 0.08095
 H1446 H 0.42269 -0.04127 0.17592
 C1447 C 1.01243 0.47836 0.57905
 C1448 C 1.00010 0.46469 0.59265
 C1449 C 0.98478 0.47192 0.61072
 C1450 C 0.96871 0.45790 0.61783
 C1451 C 0.95370 0.46390 0.63463
 C1452 C 0.95465 0.48407 0.64505
 C1453 C 0.97076 0.49811 0.63796
 C1454 C 0.98575 0.49212 0.62106
 C1455 C 0.93888 0.49123 0.66275
 C1456 C 0.92617 0.47726 0.67556
 H1457 H 1.00108 0.44771 0.58953
 H1458 H 0.96753 0.44229 0.61007
 H1459 H 0.94121 0.45279 0.63892
 H1460 H 0.97185 0.51375 0.64567
 H1461 H 0.99815 0.50325 0.61650
 H1462 H 0.93739 0.50820 0.66568
 H1463 H 1.01213 0.49530 0.58243
 H1464 H 0.92780 0.46028 0.67279
 C1465 C 0.99853 0.51906 0.92188
 C1466 C 0.98291 0.53358 0.91429
 C1467 C 0.96658 0.52774 0.89720
 C1468 C 0.95834 0.54348 0.88240
 C1469 C 0.94377 0.53823 0.86526
 C1470 C 0.93687 0.51709 0.86287
 C1471 C 0.94473 0.50148 0.87809
 C1472 C 0.95931 0.50672 0.89516
 C1473 C 0.92256 0.51042 0.84409
 C1474 C 0.90911 0.52454 0.83203
 H1475 H 0.98386 0.55015 0.91923
 H1476 H 0.96367 0.55979 0.88366
 H1477 H 0.93858 0.55067 0.85357
 H1478 H 0.93965 0.48510 0.87670
 H1479 H 0.96477 0.49428 0.90674
 H1480 H 0.92244 0.49358 0.84037
 H1481 H 0.99899 0.50321 0.91459
 H1482 H 0.90788 0.54084 0.83802
 C1483 C 0.52470 0.03232 0.41288
 C1484 C 0.50277 0.03725 0.41361
 C1485 C 0.48753 0.03093 0.39555
 C1486 C 0.46773 0.04178 0.39411
 C1487 C 0.45285 0.03638 0.37737
 C1488 C 0.45750 0.01993 0.36164
 C1489 C 0.47703 0.00870 0.36348
 C1490 C 0.49191 0.01410 0.38021
 C1491 C 0.44224 0.01357 0.34362
 C1492 C 0.42626 0.02724 0.33491
 H1493 H 0.49630 0.04640 0.42786
 H1494 H 0.46377 0.05454 0.40598
 H1495 H 0.43765 0.04489 0.37717
 H1496 H 0.48085 -0.00430 0.35187
 H1497 H 0.50656 0.00474 0.38120
 H1498 H 0.44483 -0.00206 0.33632
 H1499 H 0.53120 0.02308 0.39874
 H1500 H 0.42540 0.04336 0.34147
   
