data_POSCAR
  _audit_creation_date              2014-09-24
  _audit_creation_method            'ToBaCCo'
  _symmetry_space_group_name_H-M    'P1'
  _symmetry_Int_Tables_number       1
  _symmetry_cell_setting            triclinic
  loop_
  _symmetry_equiv_pos_as_xyz
 x,y,z
_cell_length_a 54.9352
_cell_length_b 55.7129
_cell_length_c 56.2251
_cell_angle_alpha 90.046900
_cell_angle_beta 88.093400
_cell_angle_gamma 88.078200
loop_
  _atom_site_label
  _atom_site_type_symbol
  _atom_site_fract_x
  _atom_site_fract_y
  _atom_site_fract_z
C1 C 0.73815 0.66217 0.96476
 H2 H 0.75470 0.66198 0.95377
 C3 C 0.71768 0.67559 0.95779
 H4 H 0.71877 0.68610 0.94163
 C5 C 0.71619 0.64752 0.99842
 H6 H 0.71539 0.63591 1.01377
 C7 C 0.69534 0.66072 0.99215
 H8 H 0.67870 0.65904 1.00281
 N9 N 0.73687 0.64806 0.98445
 C10 C 0.80909 0.62580 1.00760
 H11 H 0.80662 0.60663 1.00849
 C12 C 0.83027 0.63543 1.01598
 H13 H 0.84419 0.62352 1.02312
 C14 C 0.79366 0.66458 0.99752
 H15 H 0.77915 0.67586 0.99066
 C16 C 0.81472 0.67499 1.00556
 H17 H 0.81621 0.69431 1.00494
 Zn18 Zn 0.76260 0.62542 0.98952
 N19 N 0.79128 0.64037 0.99868
 C20 C 0.79150 0.60345 0.95218
 N21 N 0.76839 0.60828 0.96070
 C22 C 0.74873 0.60234 0.94809
 C23 C 0.75192 0.59143 0.92579
 C24 C 0.79550 0.59219 0.93015
 C25 C 0.75423 0.61224 1.03687
 C26 C 0.74641 0.59799 1.05582
 C27 C 0.73630 0.56753 1.02757
 C28 C 0.74469 0.58230 1.00921
 N29 N 0.75305 0.60433 1.01413
 H30 H 0.80688 0.60860 0.96225
 H31 H 0.73055 0.60656 0.95519
 H32 H 0.73612 0.58709 0.91581
 H33 H 0.81400 0.58879 0.92343
 H34 H 0.76080 0.62997 1.04025
 H35 H 0.74660 0.60595 1.07333
 H36 H 0.73054 0.54993 1.02257
 H37 H 0.74427 0.57621 0.99099
 C38 C 0.83321 0.66034 1.01520
 C39 C 0.69570 0.67440 0.97120
 C40 C 0.73664 0.57518 1.05162
 C41 C 0.77556 0.58631 0.91658
 C42 C 0.72090 0.34227 0.51611
 H43 H 0.73794 0.34044 0.52516
 C44 C 0.70084 0.32937 0.52411
 H45 H 0.70260 0.31795 0.53956
 C46 C 0.69773 0.36039 0.48579
 H47 H 0.69646 0.37267 0.47100
 C48 C 0.67731 0.34771 0.49304
 H49 H 0.66063 0.35021 0.48348
 N50 N 0.71879 0.35801 0.49776
 C51 C 0.79568 0.37167 0.48359
 H52 H 0.79571 0.39075 0.48683
 C53 C 0.81766 0.35930 0.47818
 H54 H 0.83437 0.36906 0.47786
 C55 C 0.77391 0.33595 0.48004
 H56 H 0.75672 0.32705 0.48023
 C57 C 0.79550 0.32288 0.47429
 H58 H 0.79461 0.30397 0.47008
 Zn59 Zn 0.74491 0.37833 0.48957
 N60 N 0.77436 0.35995 0.48439
 C61 C 0.76189 0.42095 0.50934
 N62 N 0.74899 0.40104 0.51429
 C63 C 0.74006 0.39681 0.53671
 C64 C 0.74528 0.41206 0.55542
 C65 C 0.76748 0.43675 0.52753
 C66 C 0.74588 0.38433 0.44024
 C67 C 0.73885 0.39400 0.41857
 C68 C 0.71561 0.42513 0.44005
 C69 C 0.72302 0.41477 0.46138
 N70 N 0.73767 0.39458 0.46106
 H71 H 0.76828 0.42434 0.49130
 H72 H 0.72952 0.38122 0.54041
 H73 H 0.73900 0.40761 0.57328
 H74 H 0.77816 0.45224 0.52327
 H75 H 0.75729 0.36814 0.44043
 H76 H 0.74523 0.38533 0.40217
 H77 H 0.70327 0.44071 0.44056
 H78 H 0.71647 0.42235 0.47821
 C79 C 0.81778 0.33461 0.47307
 C80 C 0.67846 0.33246 0.51289
 C81 C 0.72315 0.41439 0.41830
 C82 C 0.75965 0.43206 0.55106
 C83 C 0.22654 -0.15386 0.03614
 H84 H 0.24300 -0.15514 0.04618
 C85 C 0.20571 -0.16559 0.04421
 H86 H 0.20631 -0.17578 0.06057
 C87 C 0.20544 -0.13783 0.00338
 H88 H 0.20515 -0.12661 -0.01225
 C89 C 0.18430 -0.14930 0.01072
 H90 H 0.16820 -0.14716 0.00023
 N91 N 0.22602 -0.14023 0.01610
 C92 C 0.30068 -0.13095 -0.01015
 H93 H 0.30010 -0.11155 -0.01116
 C94 C 0.32137 -0.14393 -0.01843
 H95 H 0.33653 -0.13430 -0.02606
 C96 C 0.28085 -0.16686 -0.00009
 H97 H 0.26485 -0.17566 0.00677
 C98 C 0.30126 -0.18061 -0.00818
 H99 H 0.30090 -0.19999 -0.00714
 Zn100 Zn 0.25366 -0.12234 0.00725
 N101 N 0.28096 -0.14248 -0.00127
 C102 C 0.28237 -0.10817 0.04481
 N103 N 0.26126 -0.10301 0.03362
 C104 C 0.24508 -0.08583 0.04222
 C105 C 0.25018 -0.07271 0.06261
 C106 C 0.28796 -0.09583 0.06538
 C107 C 0.24519 -0.11734 -0.04036
 C108 C 0.23972 -0.10644 -0.06188
 C109 C 0.23816 -0.06804 -0.04189
 C110 C 0.24398 -0.07981 -0.02073
 N111 N 0.24685 -0.10410 -0.02028
 H112 H 0.29469 -0.12232 0.03821
 H113 H 0.22806 -0.08255 0.03344
 H114 H 0.23714 -0.05915 0.06938
 H115 H 0.30482 -0.10027 0.07409
 H116 H 0.24760 -0.13667 -0.03950
 H117 H 0.23722 -0.11834 -0.07670
 H118 H 0.23675 -0.04866 -0.04130
 H119 H 0.24616 -0.06948 -0.00473
 C120 C 0.32184 -0.16912 -0.01769
 C121 C 0.18411 -0.16317 0.03156
 C122 C 0.23563 -0.08123 -0.06324
 C123 C 0.27175 -0.07791 0.07455
 C124 C 0.23634 0.16627 0.48323
 H125 H 0.25447 0.16924 0.47597
 C126 C 0.21619 0.17821 0.47348
 H127 H 0.21888 0.19046 0.45875
 C128 C 0.21050 0.14563 0.51026
 H129 H 0.20813 0.13240 0.52407
 C130 C 0.18996 0.15690 0.50090
 H131 H 0.17206 0.15260 0.50802
 N132 N 0.23318 0.15044 0.50141
 C133 C 0.30292 0.13955 0.53536
 H134 H 0.30217 0.12026 0.53726
 C135 C 0.32230 0.15164 0.54452
 H136 H 0.33655 0.14152 0.55333
 C137 C 0.28521 0.17604 0.52137
 H138 H 0.27053 0.18549 0.51267
 C139 C 0.30452 0.18890 0.53007
 H140 H 0.30459 0.20821 0.52795
 Zn141 Zn 0.26006 0.13226 0.51308
 N142 N 0.28495 0.15176 0.52395
 C143 C 0.29583 0.11520 0.47958
 N144 N 0.27263 0.11229 0.48800
 C145 C 0.25778 0.09664 0.47754
 C146 C 0.26621 0.08305 0.45782
 C147 C 0.30497 0.10203 0.45997
 C148 C 0.24081 0.12777 0.55857
 C149 C 0.23059 0.11685 0.57860
 C150 C 0.23962 0.07813 0.56034
 C151 C 0.24944 0.08988 0.54038
 N152 N 0.24929 0.11430 0.53971
 H153 H 0.30715 0.12823 0.48761
 H154 H 0.23925 0.09499 0.48432
 H155 H 0.25417 0.07063 0.44976
 H156 H 0.32328 0.10516 0.45324
 H157 H 0.24127 0.14715 0.55764
 H158 H 0.22327 0.12790 0.59318
 H159 H 0.23911 0.05871 0.56050
 H160 H 0.25669 0.07952 0.52535
 C161 C 0.32328 0.17662 0.54191
 C162 C 0.19264 0.17325 0.48216
 C163 C 0.22952 0.09177 0.57946
 C164 C 0.29012 0.08573 0.44874
 C165 C 0.15531 0.46889 0.23765
 H166 H 0.15905 0.45920 0.25386
 C167 C 0.16607 0.46101 0.21600
 H168 H 0.17817 0.44526 0.21564
 C169 C 0.13358 0.50015 0.21808
 H170 H 0.12037 0.51493 0.21875
 C171 C 0.14367 0.49274 0.19611
 H172 H 0.13841 0.50216 0.18014
 N173 N 0.13923 0.48801 0.23826
 C174 C 0.13045 0.51071 0.31256
 H175 H 0.11077 0.51099 0.31420
 C176 C 0.14404 0.51788 0.33167
 H177 H 0.13462 0.52391 0.34793
 C178 C 0.16644 0.50348 0.28886
 H179 H 0.17505 0.49818 0.27203
 C180 C 0.18077 0.51060 0.30754
 H181 H 0.20040 0.51035 0.30500
 Zn182 Zn 0.12128 0.49535 0.26682
 N183 N 0.14176 0.50356 0.29175
 C184 C 0.10776 0.45617 0.29583
 N185 N 0.10374 0.46765 0.27492
 C186 C 0.08891 0.45841 0.25856
 C187 C 0.07723 0.43689 0.26306
 C188 C 0.09664 0.43455 0.30096
 C189 C 0.11139 0.54356 0.25839
 C190 C 0.09810 0.56394 0.25137
 C191 C 0.06186 0.54050 0.25184
 C192 C 0.07584 0.52057 0.25913
 N193 N 0.10029 0.52229 0.26147
 H194 H 0.12009 0.46337 0.30835
 H195 H 0.08656 0.46753 0.24177
 H196 H 0.06579 0.42957 0.24971
 H197 H 0.10012 0.42565 0.31768
 H198 H 0.13087 0.54439 0.26038
 H199 H 0.10752 0.58040 0.24785
 H200 H 0.04258 0.53870 0.24916
 H201 H 0.06728 0.50361 0.26202
 C202 C 0.16956 0.51797 0.32929
 C203 C 0.15975 0.47267 0.19485
 C204 C 0.07313 0.56238 0.24736
 C205 C 0.08130 0.42456 0.28439
 C206 C -0.16699 0.02879 0.22398
 H207 H -0.16909 0.03741 0.24122
 C208 C -0.17979 0.03796 0.20471
 H209 H -0.19119 0.05392 0.20776
 C210 C -0.14767 -0.00114 0.19948
 H211 H -0.13485 -0.01616 0.19732
 C212 C -0.16004 0.00736 0.17976
 H213 H -0.15705 -0.00235 0.16322
 N214 N -0.15118 0.00968 0.22103
 C215 C -0.13770 -0.02066 0.29115
 H216 H -0.11800 -0.02078 0.29008
 C217 C -0.14964 -0.02985 0.31123
 H218 H -0.13895 -0.03725 0.32548
 C219 C -0.17540 -0.01150 0.27335
 H220 H -0.18529 -0.00449 0.25843
 C221 C -0.18813 -0.02071 0.29312
 H222 H -0.20785 -0.02047 0.29338
 Zn223 Zn -0.13169 -0.00014 0.24672
 N224 N -0.15062 -0.01150 0.27285
 C225 C -0.11833 0.03557 0.27875
 N226 N -0.11417 0.02674 0.25638
 C227 C -0.09881 0.03768 0.24064
 C228 C -0.08626 0.05788 0.24752
 C229 C -0.10626 0.05564 0.28632
 C230 C -0.12193 -0.04696 0.23273
 C231 C -0.10856 -0.06729 0.22494
 C232 C -0.07183 -0.04475 0.22655
 C233 C -0.08599 -0.02475 0.23446
 N234 N -0.11063 -0.02612 0.23693
 H235 H -0.13130 0.02733 0.29074
 H236 H -0.09628 0.03068 0.22274
 H237 H -0.07375 0.06610 0.23494
 H238 H -0.11011 0.06246 0.30414
 H239 H -0.14151 -0.04764 0.23525
 H240 H -0.11802 -0.08366 0.22177
 H241 H -0.05233 -0.04321 0.22403
 H242 H -0.07729 -0.00817 0.23836
 C243 C -0.17518 -0.02994 0.31244
 C244 C -0.17617 0.02760 0.18182
 C245 C -0.08319 -0.06629 0.22136
 C246 C -0.08980 0.06697 0.27075
 C247 C 0.32980 0.52327 0.73673
 H248 H 0.32766 0.53239 0.75370
 C249 C 0.31649 0.53141 0.71736
 H250 H 0.30411 0.54685 0.71952
 C251 C 0.34972 0.49301 0.71284
 H252 H 0.36312 0.47846 0.71091
 C253 C 0.33697 0.50065 0.69305
 H254 H 0.34041 0.49157 0.67617
 N255 N 0.34613 0.50446 0.73411
 C256 C 0.36161 0.47743 0.80501
 H257 H 0.38130 0.47702 0.80341
 C258 C 0.35012 0.46926 0.82577
 H259 H 0.36122 0.46304 0.84022
 C260 C 0.32350 0.48647 0.78800
 H261 H 0.31324 0.49284 0.77308
 C262 C 0.31120 0.47822 0.80845
 H263 H 0.29149 0.47827 0.80896
 Zn264 Zn 0.36647 0.49604 0.75957
 N265 N 0.34828 0.48613 0.78679
 C266 C 0.38448 0.53175 0.78955
 N267 N 0.38466 0.52327 0.76687
 C268 C 0.39669 0.53476 0.74891
 C269 C 0.40908 0.55574 0.75346
 C270 C 0.39696 0.55230 0.79495
 C271 C 0.37599 0.44852 0.74755
 C272 C 0.38959 0.42766 0.74180
 C273 C 0.42624 0.45041 0.74281
 C274 C 0.41186 0.47094 0.74859
 N275 N 0.38720 0.46960 0.75069
 H276 H 0.37451 0.52277 0.80357
 H277 H 0.39626 0.52785 0.73094
 H278 H 0.41795 0.56493 0.73879
 H279 H 0.39695 0.55819 0.81329
 H280 H 0.35636 0.44798 0.74952
 H281 H 0.38019 0.41118 0.73895
 H282 H 0.44586 0.45167 0.74137
 H283 H 0.42040 0.48784 0.75156
 C284 C 0.32456 0.46947 0.82772
 C285 C 0.32041 0.52032 0.69506
 C286 C 0.41508 0.42837 0.73942
 C287 C 0.40923 0.56488 0.77678
 C288 C 0.67120 0.96613 0.73118
 H289 H 0.67375 0.95708 0.74797
 C290 C 0.68427 0.95811 0.71073
 H291 H 0.69692 0.94286 0.71191
 C292 C 0.65034 0.99592 0.70886
 H293 H 0.63661 1.01018 0.70794
 C294 C 0.66288 0.98845 0.68805
 H295 H 0.65899 0.99744 0.67147
 N296 N 0.65441 0.98456 0.72984
 C297 C 0.63647 1.00931 0.80221
 H298 H 0.61686 1.00889 0.80111
 C299 C 0.64674 1.01686 0.82312
 H300 H 0.63443 1.02287 0.83747
 C301 C 0.67547 1.00325 0.78365
 H302 H 0.68653 0.99787 0.76818
 C303 C 0.68662 1.01102 0.80422
 H304 H 0.70631 1.01075 0.80417
 Zn305 Zn 0.63357 0.99219 0.75655
 N306 N 0.65081 1.00233 0.78316
 C307 C 0.62116 0.95343 0.78594
 N308 N 0.61656 0.96407 0.76472
 C309 C 0.60185 0.95374 0.74888
 C310 C 0.59089 0.93197 0.75433
 C311 C 0.61085 0.93169 0.79197
 C312 C 0.62344 1.03958 0.74583
 C313 C 0.61021 1.05995 0.73879
 C314 C 0.57411 1.03636 0.73829
 C315 C 0.58806 1.01638 0.74560
 N316 N 0.61239 1.01826 0.74868
 H317 H 0.63348 0.96134 0.79802
 H318 H 0.59903 0.96215 0.73181
 H319 H 0.57951 0.92374 0.74148
 H320 H 0.61491 0.92348 0.80890
 H321 H 0.64280 1.04055 0.74849
 H322 H 0.61958 1.07654 0.73586
 H323 H 0.55486 1.03457 0.73544
 H324 H 0.57952 0.99939 0.74838
 C325 C 0.67228 1.01776 0.82468
 C326 C 0.67972 0.96899 0.68870
 C327 C 0.58529 1.05844 0.73459
 C328 C 0.59570 0.92056 0.77601
 C329 C 0.02267 0.24641 -0.17133
 H330 H 0.03053 0.26393 -0.17250
 C331 C 0.03446 0.22674 -0.18265
 H332 H 0.05107 0.22947 -0.19304
 C333 C -0.00810 0.22157 -0.15561
 H334 H -0.02419 0.21944 -0.14435
 C335 C 0.00322 0.20138 -0.16641
 H336 H -0.00444 0.18398 -0.16325
 N337 N 0.00188 0.24348 -0.15801
 C338 C -0.02955 0.31563 -0.14598
 H339 H -0.03277 0.31447 -0.12693
 C340 C -0.03565 0.33678 -0.15792
 H341 H -0.04393 0.35174 -0.14796
 C342 C -0.01522 0.29722 -0.18203
 H343 H -0.00735 0.28171 -0.19134
 C344 C -0.02110 0.31809 -0.19474
 H345 H -0.01739 0.31853 -0.21376
 Zn346 Zn -0.01051 0.26959 -0.13929
 N347 N -0.01913 0.29656 -0.15802
 C348 C 0.02420 0.29970 -0.11980
 N349 N 0.01456 0.27756 -0.11871
 C350 C 0.02396 0.26014 -0.10440
 C351 C 0.04364 0.26481 -0.09017
 C352 C 0.04385 0.30514 -0.10593
 C353 C -0.05862 0.25598 -0.13478
 C354 C -0.08004 0.24842 -0.12356
 C355 C -0.06056 0.25108 -0.08585
 C356 C -0.03958 0.25877 -0.09789
 N357 N -0.03883 0.26057 -0.12196
 H358 H 0.01714 0.31306 -0.13189
 H359 H 0.01630 0.24250 -0.10427
 H360 H 0.05076 0.25079 -0.07876
 H361 H 0.05156 0.32272 -0.10750
 H362 H -0.05752 0.25764 -0.15396
 H363 H -0.09449 0.24368 -0.13505
 H364 H -0.06024 0.25076 -0.06665
 H365 H -0.02390 0.26328 -0.08791
 C366 C -0.03118 0.33832 -0.18260
 C367 C 0.02506 0.20371 -0.17981
 C368 C -0.08151 0.24531 -0.09852
 C369 C 0.05386 0.28758 -0.09086
 C370 C 0.46651 0.22596 0.15891
 H371 H 0.45702 0.24326 0.16028
 C372 C 0.45845 0.20671 0.17262
 H373 H 0.44264 0.20942 0.18444
 C374 C 0.49749 0.20114 0.14040
 H375 H 0.51221 0.19880 0.12733
 C376 C 0.49015 0.18146 0.15387
 H377 H 0.49984 0.16436 0.15140
 N378 N 0.48552 0.22281 0.14299
 C379 C 0.50722 0.29529 0.12475
 H380 H 0.50468 0.29450 0.10577
 C381 C 0.51485 0.31639 0.13506
 H382 H 0.51831 0.33185 0.12393
 C383 C 0.50615 0.27587 0.16228
 H384 H 0.50283 0.25996 0.17271
 C385 C 0.51433 0.29653 0.17327
 H386 H 0.51719 0.29651 0.19224
 Zn387 Zn 0.49229 0.24845 0.12201
 N388 N 0.50264 0.27573 0.13843
 C389 C 0.45093 0.27734 0.11252
 N390 N 0.46282 0.25624 0.10670
 C391 C 0.45248 0.23978 0.09262
 C392 C 0.42928 0.24440 0.08369
 C393 C 0.42777 0.28256 0.10420
 C394 C 0.53990 0.23518 0.11062
 C395 C 0.56037 0.22804 0.09680
 C396 C 0.53587 0.23018 0.06192
 C397 C 0.51574 0.23732 0.07650
 N398 N 0.51808 0.23930 0.10043
 H399 H 0.45888 0.28983 0.12443
 H400 H 0.46194 0.22279 0.08887
 H401 H 0.42104 0.23101 0.07286
 H402 H 0.41856 0.29938 0.10923
 H403 H 0.54126 0.23712 0.12967
 H404 H 0.57735 0.22415 0.10549
 H405 H 0.53376 0.22864 0.04291
 H406 H 0.49836 0.24123 0.06868
 C407 C 0.51852 0.31714 0.15958
 C408 C 0.47005 0.18394 0.16991
 C409 C 0.55855 0.22534 0.07211
 C410 C 0.41652 0.26587 0.08988
 C411 C 0.97423 0.74485 0.66203
 H412 H 0.96468 0.76215 0.66273
 C413 C 0.96444 0.72524 0.67401
 H414 H 0.94749 0.72767 0.68424
 C415 C 1.00746 0.72047 0.64706
 H416 H 1.02371 0.71838 0.63583
 C417 C 0.99839 0.70045 0.65879
 H418 H 1.00790 0.68323 0.65648
 N419 N 0.99529 0.74211 0.64875
 C420 C 1.02118 0.81424 0.63614
 H421 H 1.02321 0.81326 0.61696
 C422 C 1.02740 0.83497 0.64805
 H423 H 1.03446 0.84983 0.63786
 C424 C 1.01029 0.79551 0.67263
 H425 H 1.00384 0.77996 0.68209
 C426 C 1.01640 0.81596 0.68532
 H427 H 1.01428 0.81610 0.70453
 Zn428 Zn 1.00558 0.76819 0.62981
 N429 N 1.01264 0.79513 0.64847
 C430 C 0.96714 0.79747 0.61272
 N431 N 0.97974 0.77622 0.60943
 C432 C 0.97263 0.75975 0.59340
 C433 C 0.95233 0.76458 0.57960
 C434 C 0.94654 0.80283 0.59964
 C435 C 1.05433 0.75421 0.62616
 C436 C 1.07634 0.74600 0.61556
 C437 C 1.05809 0.74945 0.57715
 C438 C 1.03633 0.75760 0.58854
 N439 N 1.03471 0.75921 0.61268
 H440 H 0.97255 0.81002 0.62604
 H441 H 0.98250 0.74267 0.59165
 H442 H 0.94672 0.75126 0.56705
 H443 H 0.93656 0.81971 0.60265
 H444 H 1.05257 0.75593 0.64531
 H445 H 1.09135 0.74113 0.62679
 H446 H 1.05902 0.74798 0.55794
 H447 H 1.02077 0.76233 0.57807
 C448 C 1.02500 0.83607 0.67296
 C449 C 0.97640 0.70259 0.67219
 C450 C 1.07835 0.74315 0.59075
 C451 C 0.93888 0.78624 0.58292
 C452 C 0.52928 0.71862 0.32893
 H453 H 0.53917 0.73500 0.32691
 C454 C 0.53722 0.69797 0.31629
 H455 H 0.55331 0.69866 0.30469
 C456 C 0.49735 0.69738 0.34765
 H457 H 0.48200 0.69690 0.36009
 C458 C 0.50444 0.67654 0.33523
 H459 H 0.49410 0.66052 0.33807
 N460 N 0.51011 0.71776 0.34486
 C461 C 0.47774 0.78814 0.36346
 H462 H 0.47347 0.78411 0.38187
 C463 C 0.46967 0.80996 0.35414
 H464 H 0.45889 0.82182 0.36586
 C465 C 0.49476 0.77596 0.32605
 H466 H 0.50470 0.76267 0.31523
 C467 C 0.48687 0.79772 0.31581
 H468 H 0.49153 0.80075 0.29725
 Zn469 Zn 0.50142 0.74378 0.36590
 N470 N 0.49039 0.77178 0.34961
 C471 C 0.52381 0.76939 0.40144
 N472 N 0.52820 0.75213 0.38457
 C473 C 0.55104 0.74234 0.38067
 C474 C 0.57074 0.75108 0.39282
 C475 C 0.54288 0.77860 0.41396
 C476 C 0.45257 0.73586 0.37838
 C477 C 0.43319 0.72706 0.39202
 C478 C 0.46165 0.71447 0.42181
 C479 C 0.48050 0.72373 0.40768
 N480 N 0.47566 0.73399 0.38635
 H481 H 0.50551 0.77636 0.40499
 H482 H 0.55423 0.72821 0.36771
 H483 H 0.58893 0.74385 0.38870
 H484 H 0.53897 0.79267 0.42697
 H485 H 0.44932 0.74364 0.36112
 H486 H 0.41502 0.72811 0.38511
 H487 H 0.46579 0.70603 0.43861
 H488 H 0.49908 0.72214 0.41342
 C489 C 0.47449 0.81554 0.33000
 C490 C 0.52510 0.67635 0.31989
 C491 C 0.43767 0.71591 0.41388
 C492 C 0.56683 0.76995 0.40922
 Si493 Si 0.37005 0.00091 0.25326
 Si494 Si 0.13029 1.00726 0.76377
 Si495 Si 0.63162 0.49376 0.23087
 Si496 Si 0.86657 0.51456 0.72416
 Si497 Si 0.23599 0.36763 0.00816
 Si498 Si 0.75366 0.12773 0.99596
 Si499 Si 0.25460 0.61844 0.50540
 Si500 Si 0.74667 0.86706 0.49706
 Si501 Si 0.00473 0.23824 0.37548
 Si502 Si 1.00384 0.74162 0.13121
 Si503 Si 0.51035 0.24834 0.63850
 Si504 Si 0.50440 0.74109 0.87044
 C505 C 0.46315 -0.14166 0.33591
 C506 C 0.45377 -0.11987 0.32752
 C507 C 0.44793 -0.11721 0.30374
 C508 C 0.45243 -0.13651 0.28796
 C509 C 0.46192 -0.15854 0.29630
 C510 C 0.46679 -0.16178 0.32069
 N511 N 0.43616 -0.09515 0.29679
 N512 N 0.43083 -0.08996 0.27551
 C513 C 0.41772 -0.06793 0.27044
 C514 C 0.41440 -0.06097 0.24681
 C515 C 0.40076 -0.04000 0.24170
 C516 C 0.39014 -0.02578 0.26018
 C517 C 0.39332 -0.03297 0.28380
 C518 C 0.40715 -0.05365 0.28890
 H519 H 0.46794 -0.14231 0.35440
 H520 H 0.45069 -0.10497 0.33977
 H521 H 0.44795 -0.13481 0.26942
 H522 H 0.46397 -0.17323 0.28375
 H523 H 0.42213 -0.07194 0.23237
 H524 H 0.39787 -0.03537 0.22331
 H525 H 0.38484 -0.02310 0.29851
 H526 H 0.40905 -0.05876 0.30733
 C527 C 0.96715 0.38329 0.81498
 C528 C 0.95988 0.40462 0.80384
 C529 C 0.94818 0.40407 0.78216
 C530 C 0.94443 0.38182 0.77127
 C531 C 0.95171 0.36043 0.78240
 C532 C 0.96275 0.36093 0.80460
 N533 N 0.93877 0.42616 0.77254
 N534 N 0.92756 0.42704 0.75311
 C535 C 0.91656 0.44890 0.74453
 C536 C 0.90304 0.44817 0.72391
 C537 C 0.88924 0.46829 0.71686
 C538 C 0.88892 0.48954 0.73031
 C539 C 0.90342 0.49066 0.75034
 C540 C 0.91716 0.47050 0.75743
 H541 H 0.97600 0.38428 0.83185
 H542 H 0.96287 0.42164 0.81240
 H543 H 0.93531 0.38094 0.75454
 H544 H 0.94792 0.34350 0.77405
 H545 H 0.90233 0.43161 0.71389
 H546 H 0.87803 0.46671 0.70154
 H547 H 0.90307 0.50671 0.76124
 H548 H 0.92739 0.47151 0.77350
 C549 C 0.06443 1.18075 0.81125
 C550 C 0.07737 1.15982 0.80416
 C551 C 0.06507 1.13969 0.79683
 C552 C 0.03954 1.14092 0.79591
 C553 C 0.02654 1.16196 0.80277
 C554 C 0.03882 1.18204 0.81086
 N555 N 0.07896 1.11818 0.79100
 N556 N 0.06916 1.09831 0.78679
 C557 C 0.08361 1.07700 0.78131
 C558 C 0.07209 1.05517 0.77853
 C559 C 0.08585 1.03406 0.77353
 C560 C 0.11131 1.03465 0.77118
 C561 C 0.12284 1.05650 0.77385
 C562 C 0.10914 1.07752 0.77894
 H563 H 0.07451 1.19563 0.81778
 H564 H 0.09705 1.15905 0.80497
 H565 H 0.02965 1.12561 0.79008
 H566 H 0.00688 1.16244 0.80187
 H567 H 0.05244 1.05452 0.78035
 H568 H 0.07658 1.01738 0.77155
 H569 H 0.14248 1.05728 0.77198
 H570 H 0.11852 1.09414 0.78098
 C571 C 0.53373 0.63194 0.32230
 C572 C 0.54293 0.61030 0.31261
 C573 C 0.55338 0.60952 0.28963
 C574 C 0.55434 0.63078 0.27620
 C575 C 0.54501 0.65253 0.28585
 C576 C 0.53461 0.65337 0.30907
 N577 N 0.56360 0.58710 0.28085
 N578 N 0.57465 0.58508 0.26067
 C579 C 0.58562 0.56272 0.25256
 C580 C 0.60021 0.56245 0.23170
 C581 C 0.61314 0.54153 0.22451
 C582 C 0.61138 0.52043 0.23799
 C583 C 0.59598 0.52035 0.25836
 C584 C 0.58321 0.54137 0.26569
 H585 H 0.52638 0.63195 0.34041
 H586 H 0.54228 0.59409 0.32321
 H587 H 0.56238 0.63062 0.25835
 H588 H 0.54580 0.66863 0.27513
 H589 H 0.60224 0.57875 0.22145
 H590 H 0.62499 0.54221 0.20882
 H591 H 0.59452 0.50427 0.26905
 H592 H 0.57198 0.54109 0.28186
 C593 C 0.51570 0.36152 0.16640
 C594 C 0.52529 0.38264 0.17504
 C595 C 0.54708 0.38182 0.18725
 C596 C 0.55864 0.35944 0.19173
 C597 C 0.54877 0.33827 0.18356
 C598 C 0.52749 0.33920 0.17042
 N599 N 0.55758 0.40385 0.19419
 N600 N 0.58000 0.40460 0.19904
 C601 C 0.59126 0.42618 0.20603
 C602 C 0.61668 0.42624 0.20634
 C603 C 0.62846 0.44677 0.21325
 C604 C 0.61493 0.46739 0.22060
 C605 C 0.58942 0.46759 0.22005
 C606 C 0.57759 0.44708 0.21270
 H607 H 0.49920 0.36260 0.15636
 H608 H 0.51617 0.39975 0.17153
 H609 H 0.57541 0.35835 0.20131
 H610 H 0.55821 0.32125 0.18673
 H611 H 0.62739 0.41031 0.20113
 H612 H 0.64819 0.44640 0.21333
 H613 H 0.57868 0.48343 0.22540
 H614 H 0.55789 0.44741 0.21255
 C615 C 0.02671 0.88085 0.67640
 C616 C 0.03531 0.90140 0.68709
 C617 C 0.04936 0.89953 0.70731
 C618 C 0.05411 0.87679 0.71730
 C619 C 0.04551 0.85616 0.70660
 C620 C 0.03211 0.85795 0.68575
 N621 N 0.05980 0.92077 0.71633
 N622 N 0.07281 0.92066 0.73464
 C623 C 0.08432 0.94184 0.74247
 C624 C 0.09804 0.94077 0.76299
 C625 C 0.11111 0.96056 0.76996
 C626 C 0.11086 0.98164 0.75628
 C627 C 0.09637 0.98300 0.73623
 C628 C 0.08321 0.96328 0.72933
 H629 H 0.01609 0.88285 0.66059
 H630 H 0.03149 0.91882 0.67926
 H631 H 0.06502 0.87489 0.73291
 H632 H 0.05014 0.83878 0.71411
 H633 H 0.09894 0.92442 0.77336
 H634 H 0.12158 0.95913 0.78585
 H635 H 0.09543 0.99914 0.72563
 H636 H 0.07264 0.96464 0.71345
 C637 C 0.97974 0.66280 0.69310
 C638 C 0.96947 0.64145 0.70091
 C639 C 0.94463 0.63778 0.69830
 C640 C 0.92993 0.65610 0.68842
 C641 C 0.94015 0.67746 0.68068
 C642 C 0.96524 0.68092 0.68260
 N643 N 0.93492 0.61510 0.70494
 N644 N 0.91279 0.61042 0.70157
 C645 C 0.90267 0.58776 0.70745
 C646 C 0.87818 0.58434 0.70288
 C647 C 0.86768 0.56239 0.70792
 C648 C 0.88147 0.54353 0.71785
 C649 C 0.90618 0.54675 0.72210
 C650 C 0.91672 0.56879 0.71704
 H651 H 0.99908 0.66506 0.69503
 H652 H 0.98097 0.62752 0.70857
 H653 H 0.91066 0.65373 0.68622
 H654 H 0.92856 0.69091 0.67239
 H655 H 0.86725 0.59870 0.69518
 H656 H 0.84883 0.56009 0.70367
 H657 H 0.91743 0.53237 0.72918
 H658 H 0.93580 0.57094 0.72047
 C659 C 0.45045 0.16482 0.20597
 C660 C 0.44001 0.14513 0.21729
 C661 C 0.43942 0.12296 0.20564
 C662 C 0.44973 0.12056 0.18254
 C663 C 0.46003 0.14025 0.17114
 C664 C 0.46037 0.16269 0.18264
 N665 N 0.42743 0.10354 0.21726
 N666 N 0.42742 0.08252 0.20835
 C667 C 0.41453 0.06347 0.21966
 C668 C 0.41697 0.04024 0.21018
 C669 C 0.40397 0.02147 0.22042
 C670 C 0.38827 0.02572 0.24027
 C671 C 0.38566 0.04908 0.24961
 C672 C 0.39880 0.06777 0.23953
 H673 H 0.45068 0.18171 0.21547
 H674 H 0.43214 0.14720 0.23512
 H675 H 0.44934 0.10365 0.17309
 H676 H 0.46707 0.13804 0.15303
 H677 H 0.42883 0.03673 0.19472
 H678 H 0.40594 0.00379 0.21255
 H679 H 0.37316 0.05319 0.26440
 H680 H 0.39630 0.08563 0.24699
 C681 C 0.29027 0.47126 -0.14133
 C682 C 0.27897 0.46275 -0.12046
 C683 C 0.28939 0.44337 -0.10815
 C684 C 0.31112 0.43229 -0.11716
 C685 C 0.32228 0.44059 -0.13809
 C686 C 0.31213 0.46031 -0.15037
 N687 N 0.27739 0.43482 -0.08694
 N688 N 0.28764 0.41928 -0.07366
 C689 C 0.27578 0.40950 -0.05298
 C690 C 0.28878 0.39305 -0.03910
 C691 C 0.27724 0.38145 -0.02006
 C692 C 0.25232 0.38585 -0.01485
 C693 C 0.23966 0.40342 -0.02789
 C694 C 0.25124 0.41511 -0.04693
 H695 H 0.28210 0.48664 -0.15016
 H696 H 0.26217 0.47139 -0.11375
 H697 H 0.31936 0.41704 -0.10817
 H698 H 0.33874 0.43134 -0.14479
 H699 H 0.30782 0.38884 -0.04337
 H700 H 0.28788 0.36887 -0.00973
 H701 H 0.22071 0.40785 -0.02386
 H702 H 0.24087 0.42801 -0.05722
 C703 C 0.79245 0.94448 0.33076
 C704 C 0.78170 0.93329 0.35054
 C705 C 0.79016 0.93725 0.37338
 C706 C 0.80925 0.95302 0.37634
 C707 C 0.82010 0.96413 0.35658
 C708 C 0.81202 0.95974 0.33353
 N709 N 0.77978 0.92427 0.39301
 N710 N 0.78606 0.92733 0.41437
 C711 C 0.77615 0.91347 0.43363
 C712 C 0.78219 0.91883 0.45702
 C713 C 0.77322 0.90515 0.47606
 C714 C 0.75810 0.88590 0.47191
 C715 C 0.75235 0.88035 0.44845
 C716 C 0.76113 0.89410 0.42948
 H717 H 0.78600 0.94056 0.31323
 H718 H 0.76703 0.92112 0.34803
 H719 H 0.81608 0.95641 0.39383
 H720 H 0.83494 0.97603 0.35929
 H721 H 0.79395 0.93357 0.46046
 H722 H 0.77825 0.90953 0.49394
 H723 H 0.74141 0.86516 0.44456
 H724 H 0.75648 0.88932 0.41157
 C725 C 0.79067 0.05197 1.16376
 C726 C 0.78009 0.06245 1.14382
 C727 C 0.79073 0.05897 1.12112
 C728 C 0.81199 0.04446 1.11847
 C729 C 0.82263 0.03391 1.13830
 C730 C 0.81236 0.03757 1.16152
 N731 N 0.78014 0.07098 1.10122
 N732 N 0.78933 0.06888 1.08020
 C733 C 0.77938 0.08150 1.06036
 C734 C 0.79126 0.07920 1.03801
 C735 C 0.78302 0.09253 1.01864
 C736 C 0.76285 0.10849 1.02143
 C737 C 0.75033 0.11011 1.04356
 C738 C 0.75859 0.09680 1.06295
 H739 H 0.78126 0.05478 1.18077
 H740 H 0.76356 0.07348 1.14610
 H741 H 0.82073 0.04165 1.10110
 H742 H 0.83965 0.02395 1.13519
 H743 H 0.80725 0.06741 1.03575
 H744 H 0.79277 0.09086 1.00162
 H745 H 0.73440 0.12186 1.04609
 H746 H 0.74896 0.09875 1.07998
 C747 C 0.28396 0.53717 0.67386
 C748 C 0.27351 0.54698 0.65348
 C749 C 0.28782 0.55039 0.63274
 C750 C 0.31265 0.54338 0.63245
 C751 C 0.32299 0.53336 0.65262
 C752 C 0.30883 0.53025 0.67358
 N753 N 0.27715 0.56145 0.61235
 N754 N 0.29059 0.56855 0.59506
 C755 C 0.28140 0.57972 0.57414
 C756 C 0.29798 0.59052 0.55851
 C757 C 0.29004 0.60200 0.53803
 C758 C 0.26533 0.60232 0.53242
 C759 C 0.24860 0.59144 0.54810
 C760 C 0.25654 0.58024 0.56893
 H761 H 0.27264 0.53486 0.68977
 H762 H 0.25436 0.55229 0.65396
 H763 H 0.32414 0.54576 0.61667
 H764 H 0.34226 0.52849 0.65199
 H765 H 0.31715 0.59037 0.56245
 H766 H 0.30341 0.61072 0.52691
 H767 H 0.22935 0.59199 0.54450
 H768 H 0.24338 0.57205 0.58086
 C769 C 0.20377 0.54179 0.34449
 C770 C 0.21629 0.55157 0.36323
 C771 C 0.20954 0.54645 0.38685
 C772 C 0.19045 0.53081 0.39159
 C773 C 0.17788 0.52103 0.37286
 C774 C 0.18417 0.52670 0.34910
 N775 N 0.22137 0.55849 0.40553
 N776 N 0.21619 0.55503 0.42747
 C777 C 0.22728 0.56843 0.44574
 C778 C 0.22088 0.56409 0.46964
 C779 C 0.22984 0.57836 0.48767
 C780 C 0.24536 0.59716 0.48198
 C781 C 0.25208 0.60121 0.45806
 C782 C 0.24325 0.58691 0.44011
 H783 H 0.20887 0.54675 0.32643
 H784 H 0.23089 0.56371 0.35937
 H785 H 0.18492 0.52656 0.40972
 H786 H 0.16307 0.50920 0.37696
 H787 H 0.20843 0.55002 0.47423
 H788 H 0.22406 0.57513 0.50592
 H789 H 0.26344 0.61595 0.45299
 H790 H 0.24833 0.59082 0.42179
 C791 C 0.67043 0.02339 0.86827
 C792 C 0.67996 0.03248 0.88901
 C793 C 0.70206 0.04408 0.88824
 C794 C 0.71517 0.04572 0.86647
 C795 C 0.70582 0.03643 0.84563
 C796 C 0.68288 0.02560 0.84597
 N797 N 0.71002 0.05508 0.90954
 N798 N 0.72896 0.06759 0.90989
 C799 C 0.73602 0.07960 0.93100
 C800 C 0.75558 0.09501 0.92948
 C801 C 0.76145 0.10886 0.94908
 C802 C 0.74771 0.10753 0.97050
 C803 C 0.72905 0.09102 0.97251
 C804 C 0.72303 0.07730 0.95283
 H805 H 0.65346 0.01417 0.87006
 H806 H 0.66981 0.03085 0.90575
 H807 H 0.73235 0.05469 0.86542
 H808 H 0.71608 0.03915 0.82917
 H809 H 0.76590 0.09677 0.91285
 H810 H 0.77651 0.12077 0.94721
 H811 H 0.71860 0.08934 0.98907
 H812 H 0.70798 0.06531 0.95455
 C813 C 0.71575 0.95200 0.66456
 C814 C 0.72588 0.94224 0.64332
 C815 C 0.71135 0.93912 0.62361
 C816 C 0.68658 0.94626 0.62526
 C817 C 0.67652 0.95618 0.64631
 C818 C 0.69094 0.95908 0.66624
 N819 N 0.72182 0.92814 0.60238
 N820 N 0.70850 0.92209 0.58541
 C821 C 0.71796 0.91075 0.56403
 C822 C 0.70156 0.90081 0.54863
 C823 C 0.70996 0.88833 0.52828
 C824 C 0.73500 0.88610 0.52264
 C825 C 0.75149 0.89661 0.53778
 C826 C 0.74307 0.90876 0.55844
 H827 H 0.72730 0.95413 0.67960
 H828 H 0.74500 0.93680 0.64233
 H829 H 0.67491 0.94403 0.61033
 H830 H 0.65728 0.96113 0.64717
 H831 H 0.68217 0.90216 0.55281
 H832 H 0.69673 0.88013 0.51741
 H833 H 0.77093 0.89474 0.53408
 H834 H 0.75611 0.91632 0.57010
 C835 C 0.15086 0.45910 0.15388
 C836 C 0.15806 0.44863 0.13212
 C837 C 0.18247 0.44197 0.12731
 C838 C 0.19982 0.44589 0.14461
 C839 C 0.19256 0.45602 0.16664
 C840 C 0.16799 0.46272 0.17142
 N841 N 0.18876 0.43015 0.10526
 N842 N 0.21062 0.42698 0.09739
 C843 C 0.21596 0.41392 0.07577
 C844 C 0.23914 0.41499 0.06477
 C845 C 0.24484 0.40176 0.04402
 C846 C 0.22747 0.38706 0.03426
 C847 C 0.20437 0.38580 0.04543
 C848 C 0.19854 0.39931 0.06585
 H849 H 0.13177 0.46379 0.15726
 H850 H 0.14452 0.44550 0.11899
 H851 H 0.21879 0.44064 0.14130
 H852 H 0.20606 0.45865 0.17991
 H853 H 0.25281 0.42600 0.07233
 H854 H 0.26293 0.40261 0.03587
 H855 H 0.19092 0.37395 0.03886
 H856 H 0.18063 0.39784 0.07424
 C857 C -0.15462 0.29749 0.47218
 C858 C -0.13321 0.28515 0.46436
 C859 C -0.11587 0.29662 0.44998
 C860 C -0.12014 0.32070 0.44353
 C861 C -0.14158 0.33298 0.45114
 C862 C -0.15914 0.32154 0.46554
 N863 N -0.09469 0.28323 0.44125
 N864 N -0.07743 0.29325 0.42979
 C865 C -0.05682 0.27997 0.41970
 C866 C -0.03838 0.29243 0.40783
 C867 C -0.01927 0.27995 0.39570
 C868 C -0.01852 0.25474 0.39495
 C869 C -0.03630 0.24228 0.40797
 C870 C -0.05536 0.25476 0.42020
 H871 H -0.16757 0.28822 0.48347
 H872 H -0.13017 0.26657 0.46941
 H873 H -0.10717 0.32990 0.43219
 H874 H -0.14463 0.35129 0.44522
 H875 H -0.03915 0.31187 0.40750
 H876 H -0.00538 0.29012 0.38659
 H877 H -0.03603 0.22294 0.40829
 H878 H -0.06929 0.24470 0.42942
 C879 C 0.33981 0.79610 0.95846
 C880 C 0.35966 0.78417 0.94696
 C881 C 0.38318 0.79274 0.94868
 C882 C 0.38684 0.81306 0.96274
 C883 C 0.36700 0.82498 0.97435
 C884 C 0.34319 0.81688 0.97201
 N885 N 0.40270 0.78105 0.93516
 N886 N 0.42442 0.78839 0.93458
 C887 C 0.44326 0.77664 0.92013
 C888 C 0.46691 0.78536 0.91977
 C889 C 0.48532 0.77461 0.90510
 C890 C 0.48031 0.75486 0.89080
 C891 C 0.45656 0.74635 0.89100
 C892 C 0.43825 0.75700 0.90562
 H893 H 0.32173 0.78955 0.95601
 H894 H 0.35663 0.76854 0.93613
 H895 H 0.40489 0.81994 0.96445
 H896 H 0.37028 0.84070 0.98496
 H897 H 0.47099 0.80065 0.93067
 H898 H 0.50339 0.78182 0.90478
 H899 H 0.45179 0.73174 0.87961
 H900 H 0.42009 0.75008 0.90528
 C901 C 1.13865 0.83815 0.03855
 C902 C 1.11719 0.82806 0.04726
 C903 C 1.11782 0.80549 0.05811
 C904 C 1.14030 0.79289 0.05994
 C905 C 1.16180 0.80294 0.05116
 C906 C 1.16126 0.82575 0.04044
 N907 N 1.09557 0.79617 0.06772
 N908 N 1.09504 0.77639 0.07899
 C909 C 1.07297 0.76736 0.08930
 C910 C 1.07438 0.74692 0.10366
 C911 C 1.05357 0.73865 0.11555
 C912 C 1.03091 0.75056 0.11295
 C913 C 1.02927 0.77061 0.09796
 C914 C 1.05018 0.77905 0.08624
 H915 H 1.13757 0.85592 0.03079
 H916 H 1.10002 0.83802 0.04587
 H917 H 1.14126 0.77538 0.06823
 H918 H 1.17884 0.79279 0.05263
 H919 H 1.09181 0.73778 0.10619
 H920 H 1.05545 0.72328 0.12714
 H921 H 1.01198 0.78016 0.09589
 H922 H 1.04861 0.79489 0.07519
 C923 C 0.63359 0.33404 0.52311
 C924 C 0.61291 0.32441 0.53402
 C925 C 0.61427 0.30191 0.54495
 C926 C 0.63652 0.28866 0.54418
 C927 C 0.65724 0.29822 0.53313
 C928 C 0.65612 0.32121 0.52278
 N929 N 0.59323 0.29369 0.55785
 N930 N 0.59365 0.27439 0.56994
 C931 C 0.57291 0.26701 0.58387
 C932 C 0.57548 0.24710 0.59883
 C933 C 0.55646 0.24092 0.61453
 C934 C 0.53447 0.25450 0.61534
 C935 C 0.53151 0.27387 0.59965
 C936 C 0.55061 0.28017 0.58408
 H937 H 0.63209 0.35195 0.51572
 H938 H 0.59591 0.33485 0.53462
 H939 H 0.63800 0.27116 0.55245
 H940 H 0.67418 0.28770 0.53289
 H941 H 0.59259 0.23686 0.59890
 H942 H 0.55936 0.22596 0.62646
 H943 H 0.51479 0.28474 0.60014
 H944 H 0.54816 0.29567 0.57270
 C945 C 0.35650 0.20642 0.53795
 C946 C 0.37722 0.21694 0.54669
 C947 C 0.38540 0.21094 0.56933
 C948 C 0.37229 0.19462 0.58338
 C949 C 0.35179 0.18398 0.57461
 C950 C 0.34387 0.18951 0.55170
 N951 N 0.40744 0.22081 0.57743
 N952 N 0.41466 0.21659 0.59833
 C953 C 0.43694 0.22516 0.60707
 C954 C 0.44207 0.22099 0.63090
 C955 C 0.46394 0.22820 0.64004
 C956 C 0.48114 0.23971 0.62545
 C957 C 0.47617 0.24371 0.60142
 C958 C 0.45410 0.23662 0.59228
 H959 H 0.35083 0.21086 0.52018
 H960 H 0.38715 0.22947 0.53567
 H961 H 0.37815 0.18969 0.60096
 H962 H 0.34221 0.17122 0.58567
 H963 H 0.42913 0.21190 0.64238
 H964 H 0.46759 0.22424 0.65844
 H965 H 0.48924 0.25210 0.58963
 H966 H 0.45062 0.23974 0.57368
 C967 C 0.86757 0.68912 0.01347
 C968 C 0.88806 0.69896 0.02344
 C969 C 0.89600 0.69102 0.04560
 C970 C 0.88338 0.67281 0.05755
 C971 C 0.86315 0.66284 0.04752
 C972 C 0.85496 0.67092 0.02543
 N973 N 0.91649 0.70184 0.05594
 N974 N 0.92180 0.69745 0.07739
 C975 C 0.94185 0.70765 0.08893
 C976 C 0.94329 0.70470 0.11351
 C977 C 0.96205 0.71479 0.12577
 C978 C 0.98002 0.72764 0.11353
 C979 C 0.97898 0.73033 0.08877
 C980 C 0.95984 0.72050 0.07649
 H981 H 0.86172 0.69555 -0.00366
 H982 H 0.89759 0.71296 0.01403
 H983 H 0.88911 0.66631 0.07469
 H984 H 0.85361 0.64905 0.05727
 H985 H 0.92953 0.69485 0.12327
 H986 H 0.96240 0.71269 0.14491
 H987 H 0.99263 0.74027 0.07903
 H988 H 0.95909 0.72290 0.05742
 C989 C 0.65515 0.69629 0.97773
 C990 C 0.63270 0.70457 0.96928
 C991 C 0.62738 0.70174 0.94528
 C992 C 0.64510 0.69110 0.92963
 C993 C 0.66753 0.68297 0.93800
 C994 C 0.67273 0.68522 0.96219
 N995 N 0.60391 0.70942 0.93715
 N996 N 0.59783 0.70516 0.91596
 C997 C 0.57484 0.71259 0.90669
 C998 C 0.57056 0.70736 0.88291
 C999 C 0.54901 0.71532 0.87265
 C1000 C 0.53138 0.72873 0.88604
 C1001 C 0.53515 0.73327 0.91017
 C1002 C 0.55687 0.72532 0.92047
 H1003 H 0.65872 0.69838 0.99643
 H1004 H 0.61927 0.71284 0.98151
 H1005 H 0.64152 0.68876 0.91097
 H1006 H 0.68049 0.67416 0.92565
 H1007 H 0.58422 0.69747 0.87217
 H1008 H 0.54639 0.71155 0.85402
 H1009 H 0.52166 0.74328 0.92093
 H1010 H 0.55975 0.72939 0.93897
 C1011 C 0.16852 0.20858 0.46642
 C1012 C 0.14743 0.21829 0.45626
 C1013 C 0.12859 0.20336 0.45012
 C1014 C 0.13094 0.17858 0.45451
 C1015 C 0.15176 0.16895 0.46493
 C1016 C 0.17076 0.18382 0.47096
 N1017 N 0.10743 0.21350 0.43914
 N1018 N 0.09227 0.20009 0.42946
 C1019 C 0.07092 0.20920 0.41820
 C1020 C 0.05912 0.19402 0.40286
 C1021 C 0.03899 0.20245 0.39049
 C1022 C 0.02981 0.22603 0.39392
 C1023 C 0.04125 0.24116 0.40976
 C1024 C 0.06184 0.23287 0.42175
 H1025 H 0.18290 0.22039 0.47104
 H1026 H 0.14587 0.23741 0.45294
 H1027 H 0.11665 0.16664 0.44996
 H1028 H 0.15317 0.14977 0.46803
 H1029 H 0.06608 0.17581 0.39989
 H1030 H 0.03125 0.19063 0.37774
 H1031 H 0.03467 0.25955 0.41233
 H1032 H 0.07068 0.24488 0.43361
 C1033 C 0.55629 0.07690 0.70581
 C1034 C 0.54572 0.09710 0.69499
 C1035 C 0.55011 0.12018 0.70333
 C1036 C 0.56462 0.12287 0.72320
 C1037 C 0.57532 0.10270 0.73395
 C1038 C 0.57162 0.07953 0.72509
 N1039 N 0.54084 0.14050 0.69047
 N1040 N 0.54334 0.16201 0.69739
 C1041 C 0.53507 0.18213 0.68363
 C1042 C 0.53551 0.20527 0.69336
 C1043 C 0.52809 0.22527 0.68005
 C1044 C 0.52041 0.22228 0.65673
 C1045 C 0.52013 0.19917 0.64692
 C1046 C 0.52727 0.17920 0.66028
 H1047 H 0.55333 0.05931 0.69845
 H1048 H 0.53463 0.09481 0.67964
 H1049 H 0.56825 0.14053 0.72999
 H1050 H 0.58687 0.10523 0.74893
 H1051 H 0.54163 0.20778 0.71127
 H1052 H 0.52856 0.24299 0.68789
 H1053 H 0.51433 0.19657 0.62890
 H1054 H 0.52696 0.16155 0.65227
 C1055 C 1.04522 0.57871 0.21667
 C1056 C 1.03532 0.59801 0.20398
 C1057 C 1.03945 0.62163 0.21079
 C1058 C 1.05298 0.62585 0.23106
 C1059 C 1.06313 0.60653 0.24365
 C1060 C 1.05971 0.58278 0.23630
 N1061 N 1.03137 0.64078 0.19572
 N1062 N 1.03228 0.66284 0.20142
 C1063 C 1.02550 0.68137 0.18502
 C1064 C 1.02094 0.70489 0.19327
 C1065 C 1.01444 0.72321 0.17741
 C1066 C 1.01306 0.71824 0.15304
 C1067 C 1.01799 0.69479 0.14478
 C1068 C 1.02398 0.67645 0.16061
 H1069 H 1.04256 0.56063 0.21040
 H1070 H 1.02501 0.59456 0.18832
 H1071 H 1.05645 0.64399 0.23661
 H1072 H 1.07414 0.61014 0.25880
 H1073 H 1.02216 0.70894 0.21202
 H1074 H 1.01056 0.74113 0.18422
 H1075 H 1.01700 0.69059 0.12602
 H1076 H 1.02770 0.65850 0.15374
 C1077 C 0.95403 0.90586 0.22038
 C1078 C 0.96658 0.88510 0.21188
 C1079 C 0.95627 0.87058 0.19481
 C1080 C 0.93349 0.87743 0.18585
 C1081 C 0.92106 0.89813 0.19419
 C1082 C 0.93096 0.91242 0.21182
 N1083 N 0.96883 0.84886 0.18695
 N1084 N 0.95842 0.83416 0.17362
 C1085 C 0.96964 0.81222 0.16484
 C1086 C 0.95565 0.79721 0.15130
 C1087 C 0.96575 0.77590 0.14176
 C1088 C 0.99012 0.76919 0.14566
 C1089 C 1.00427 0.78420 0.15927
 C1090 C 0.99406 0.80562 0.16895
 H1091 H 0.96209 0.91643 0.23404
 H1092 H 0.98414 0.88008 0.21890
 H1093 H 0.92520 0.86675 0.17242
 H1094 H 0.90363 0.90297 0.18677
 H1095 H 0.93685 0.80219 0.14796
 H1096 H 0.95442 0.76499 0.13108
 H1097 H 1.02323 0.77950 0.16215
 H1098 H 1.00524 0.81707 0.17928
 C1099 C 0.42311 0.38394 0.74273
 C1100 C 0.43521 0.36273 0.73511
 C1101 C 0.45411 0.36332 0.71789
 C1102 C 0.46144 0.38557 0.70887
 C1103 C 0.44930 0.40685 0.71644
 C1104 C 0.42965 0.40621 0.73309
 N1105 N 0.46417 0.34105 0.70864
 N1106 N 0.48170 0.33998 0.69326
 C1107 C 0.49023 0.31764 0.68284
 C1108 C 0.50990 0.31751 0.66638
 C1109 C 0.51688 0.29651 0.65396
 C1110 C 0.50398 0.27541 0.65757
 C1111 C 0.48513 0.27523 0.67499
 C1112 C 0.47824 0.29617 0.68752
 H1113 H 0.40837 0.38288 0.75592
 H1114 H 0.42942 0.34570 0.74221
 H1115 H 0.47597 0.38646 0.69544
 H1116 H 0.45464 0.42368 0.70856
 H1117 H 0.51943 0.33388 0.66274
 H1118 H 0.53203 0.29707 0.64125
 H1119 H 0.47528 0.25911 0.67860
 H1120 H 0.46307 0.29573 0.70028
 C1121 C 0.44339 0.59373 0.77009
 C1122 C 0.45567 0.61428 0.77655
 C1123 C 0.44684 0.62854 0.79566
 C1124 C 0.42488 0.62280 0.80743
 C1125 C 0.41235 0.60269 0.80068
 C1126 C 0.42174 0.58745 0.78237
 N1127 N 0.46059 0.64826 0.80357
 N1128 N 0.45876 0.65484 0.82525
 C1129 C 0.47113 0.67471 0.83469
 C1130 C 0.47334 0.67604 0.85933
 C1131 C 0.48405 0.69567 0.86958
 C1132 C 0.49195 0.71472 0.85538
 C1133 C 0.49022 0.71334 0.83057
 C1134 C 0.47994 0.69330 0.82020
 H1135 H 0.45128 0.58241 0.75600
 H1136 H 0.47257 0.61855 0.76728
 H1137 H 0.41743 0.63388 0.82192
 H1138 H 0.39531 0.59906 0.80999
 H1139 H 0.46661 0.66182 0.87063
 H1140 H 0.48552 0.69630 0.88874
 H1141 H 0.49654 0.72775 0.81931
 H1142 H 0.47829 0.69260 0.80109
 C1143 C -0.07324 0.10819 0.26415
 C1144 C -0.06225 0.12866 0.27278
 C1145 C -0.05458 0.12942 0.29627
 C1146 C -0.05732 0.10913 0.31084
 C1147 C -0.06815 0.08874 0.30225
 C1148 C -0.07664 0.08814 0.27896
 N1149 N -0.04457 0.15094 0.30527
 N1150 N -0.04014 0.15283 0.32725
 C1151 C -0.03018 0.17359 0.33769
 C1152 C -0.02703 0.17354 0.36222
 C1153 C -0.01698 0.19306 0.37330
 C1154 C -0.00983 0.21307 0.36002
 C1155 C -0.01298 0.21324 0.33533
 C1156 C -0.02321 0.19361 0.32418
 H1157 H -0.07971 0.10833 0.24617
 H1158 H -0.06019 0.14413 0.26133
 H1159 H -0.05128 0.10907 0.32897
 H1160 H -0.06999 0.07341 0.31393
 H1161 H -0.03215 0.15813 0.37276
 H1162 H -0.01398 0.19205 0.39220
 H1163 H -0.00744 0.22835 0.32463
 H1164 H -0.02543 0.19396 0.30512
 C1165 C 0.04563 0.39741 0.28477
 C1166 C 0.03512 0.37554 0.29064
 C1167 C 0.04910 0.35695 0.30074
 C1168 C 0.07393 0.36031 0.30447
 C1169 C 0.08438 0.38215 0.29879
 C1170 C 0.07028 0.40104 0.28919
 N1171 N 0.03752 0.33552 0.30855
 N1172 N 0.04975 0.31820 0.31756
 C1173 C 0.03885 0.29729 0.32740
 C1174 C 0.05384 0.28043 0.33878
 C1175 C 0.04373 0.26177 0.35187
 C1176 C 0.01836 0.25968 0.35374
 C1177 C 0.00337 0.27544 0.34080
 C1178 C 0.01352 0.29434 0.32786
 H1179 H 0.03434 0.41172 0.27748
 H1180 H 0.01594 0.37325 0.28778
 H1181 H 0.08518 0.34627 0.31226
 H1182 H 0.10351 0.38432 0.30202
 H1183 H 0.07339 0.28244 0.33841
 H1184 H 0.05582 0.24957 0.36115
 H1185 H -0.01624 0.27396 0.34183
 H1186 H 0.00157 0.30709 0.31906
 C1187 C 0.60163 0.87881 0.79113
 C1188 C 0.59251 0.85703 0.79887
 C1189 C 0.56768 0.85268 0.79767
 C1190 C 0.55201 0.87011 0.78766
 C1191 C 0.56120 0.89199 0.77967
 C1192 C 0.58602 0.89671 0.78190
 N1193 N 0.55901 0.83114 0.80832
 N1194 N 0.53678 0.82536 0.80918
 C1195 C 0.52961 0.80415 0.82170
 C1196 C 0.50514 0.79769 0.82239
 C1197 C 0.49766 0.77814 0.83622
 C1198 C 0.51459 0.76495 0.84956
 C1199 C 0.53910 0.77120 0.84850
 C1200 C 0.54658 0.79046 0.83461
 H1201 H 0.62088 0.88185 0.79271
 H1202 H 0.60473 0.84371 0.80653
 H1203 H 0.53272 0.86709 0.78661
 H1204 H 0.54882 0.90555 0.77266
 H1205 H 0.49180 0.80812 0.81266
 H1206 H 0.47860 0.77373 0.83702
 H1207 H 0.55258 0.76176 0.85884
 H1208 H 0.56557 0.79506 0.83459
 C1209 C 0.70999 0.54379 0.06582
 C1210 C 0.69892 0.53148 0.08469
 C1211 C 0.70500 0.53600 0.10810
 C1212 C 0.72283 0.55264 0.11256
 C1213 C 0.73375 0.56529 0.09384
 C1214 C 0.72727 0.56161 0.06989
 N1215 N 0.69157 0.52478 0.12704
 N1216 N 0.69765 0.52599 0.14864
 C1217 C 0.68286 0.51628 0.16751
 C1218 C 0.69189 0.51495 0.19050
 C1219 C 0.67707 0.50730 0.20956
 C1220 C 0.65289 0.50135 0.20583
 C1221 C 0.64400 0.50226 0.18276
 C1222 C 0.65888 0.50952 0.16370
 H1223 H 0.70328 0.54030 0.04836
 H1224 H 0.68498 0.51880 0.08106
 H1225 H 0.72800 0.55628 0.13060
 H1226 H 0.74781 0.57737 0.09849
 H1227 H 0.71031 0.52018 0.19368
 H1228 H 0.68438 0.50664 0.22716
 H1229 H 0.62535 0.49783 0.17955
 H1230 H 0.65140 0.51058 0.14615
 C1231 C 0.19333 1.08895 0.60702
 C1232 C 0.18128 1.07907 0.62669
 C1233 C 0.19244 1.06066 0.63970
 C1234 C 0.21573 1.05165 0.63242
 C1235 C 0.22772 1.06132 0.61240
 C1236 C 0.21671 1.08030 0.59978
 N1237 N 0.17963 1.05184 0.66028
 N1238 N 0.18915 1.03753 0.67524
 C1239 C 0.17525 1.02964 0.69565
 C1240 C 0.18690 1.01677 0.71366
 C1241 C 0.17375 1.00982 0.73416
 C1242 C 0.14867 1.01533 0.73665
 C1243 C 0.13707 1.02814 0.71855
 C1244 C 0.15017 1.03523 0.69825
 H1245 H 0.18437 1.10339 0.59740
 H1246 H 0.16330 1.08605 0.63209
 H1247 H 0.22461 1.03730 0.64220
 H1248 H 0.24576 1.05442 0.60713
 H1249 H 0.20625 1.01249 0.71198
 H1250 H 0.18330 1.00037 0.74797
 H1251 H 0.11790 1.03321 0.72026
 H1252 H 0.14069 1.04527 0.68471
 C1253 C 0.23302 0.91798 0.89356
 C1254 C 0.22436 0.92804 0.87261
 C1255 C 0.21139 0.94994 0.87304
 C1256 C 0.20803 0.96238 0.89464
 C1257 C 0.21680 0.95252 0.91571
 C1258 C 0.22891 0.92959 0.91591
 N1259 N 0.20081 0.95846 0.85155
 N1260 N 0.18739 0.97749 0.85091
 C1261 C 0.17582 0.98524 0.82965
 C1262 C 0.16016 1.00554 0.83067
 C1263 C 0.14703 1.01251 0.81082
 C1264 C 0.14955 0.99935 0.78954
 C1265 C 0.16566 0.97927 0.78835
 C1266 C 0.17872 0.97223 0.80824
 H1267 H 0.24358 0.90136 0.89165
 H1268 H 0.22745 0.91846 0.85596
 H1269 H 0.19799 0.97944 0.89540
 H1270 H 0.21227 0.96245 0.93184
 H1271 H 0.15763 1.01561 0.84710
 H1272 H 0.13452 1.02785 0.81248
 H1273 H 0.16755 0.96859 0.77225
 H1274 H 0.19063 0.95636 0.80704
 C1275 C 0.70531 0.40674 0.37886
 C1276 C 0.69554 0.41472 0.35760
 C1277 C 0.69378 0.43923 0.35246
 C1278 C 0.70193 0.45590 0.36893
 C1279 C 0.71158 0.44793 0.39041
 C1280 C 0.71341 0.42323 0.39553
 N1281 N 0.68304 0.44642 0.33065
 N1282 N 0.68200 0.46800 0.32326
 C1283 C 0.67042 0.47388 0.30142
 C1284 C 0.67164 0.49717 0.29218
 C1285 C 0.66031 0.50309 0.27090
 C1286 C 0.64766 0.48574 0.25862
 C1287 C 0.64607 0.46259 0.26818
 C1288 C 0.65748 0.45664 0.28923
 H1289 H 0.70608 0.38764 0.38249
 H1290 H 0.68915 0.40174 0.34509
 H1291 H 0.70064 0.47498 0.36531
 H1292 H 0.71776 0.46100 0.40293
 H1293 H 0.68135 0.51072 0.30148
 H1294 H 0.66125 0.52124 0.26412
 H1295 H 0.63582 0.44898 0.25970
 H1296 H 0.65591 0.43859 0.29611
 C1297 C 0.75250 0.45153 0.59125
 C1298 C 0.76130 0.46303 0.61119
 C1299 C 0.78553 0.46996 0.61143
 C1300 C 0.80072 0.46600 0.59109
 C1301 C 0.79199 0.45448 0.57120
 C1302 C 0.76790 0.44671 0.57118
 N1303 N 0.79476 0.47959 0.63285
 N1304 N 0.81682 0.48569 0.63389
 C1305 C 0.82718 0.49411 0.65524
 C1306 C 0.85166 0.50023 0.65438
 C1307 C 0.86307 0.50681 0.67507
 C1308 C 0.85011 0.50731 0.69695
 C1309 C 0.82539 0.50176 0.69788
 C1310 C 0.81393 0.49514 0.67709
 H1311 H 0.73376 0.44607 0.59167
 H1312 H 0.74938 0.46602 0.62672
 H1313 H 0.81956 0.47113 0.59080
 H1314 H 0.80445 0.45075 0.55623
 H1315 H 0.86205 0.49942 0.63767
 H1316 H 0.88217 0.51108 0.67406
 H1317 H 0.81511 0.50208 0.71464
 H1318 H 0.79498 0.49040 0.67817
 C1319 C 0.27657 -0.03999 0.09779
 C1320 C 0.28431 -0.02816 0.11805
 C1321 C 0.29258 -0.04131 0.13759
 C1322 C 0.29253 -0.06653 0.13687
 C1323 C 0.28515 -0.07833 0.11656
 C1324 C 0.27744 -0.06520 0.09671
 N1325 N 0.30257 -0.02891 0.15717
 N1326 N 0.30799 -0.03976 0.17630
 C1327 C 0.31989 -0.02829 0.19531
 C1328 C 0.32330 -0.04096 0.21650
 C1329 C 0.33724 -0.03149 0.23438
 C1330 C 0.34825 -0.00935 0.23112
 C1331 C 0.34414 0.00380 0.21029
 C1332 C 0.32997 -0.00556 0.19249
 H1333 H 0.27081 -0.02950 0.08265
 H1334 H 0.28436 -0.00873 0.11832
 H1335 H 0.29892 -0.07713 0.15168
 H1336 H 0.28579 -0.09779 0.11620
 H1337 H 0.31570 -0.05852 0.21886
 H1338 H 0.34021 -0.04188 0.25036
 H1339 H 0.35230 0.02101 0.20746
 H1340 H 0.32766 0.00453 0.17623
 C1341 C 0.32388 0.06391 0.42564
 C1342 C 0.33341 0.05326 0.40471
 C1343 C 0.31880 0.05066 0.38505
 C1344 C 0.29417 0.05832 0.38671
 C1345 C 0.28459 0.06911 0.40766
 C1346 C 0.29947 0.07238 0.42724
 N1347 N 0.32987 0.04130 0.36343
 N1348 N 0.31796 0.03692 0.34496
 C1349 C 0.33018 0.02848 0.32346
 C1350 C 0.31654 0.02017 0.30469
 C1351 C 0.32823 0.01184 0.28358
 C1352 C 0.35372 0.01194 0.28099
 C1353 C 0.36728 0.02077 0.29959
 C1354 C 0.35569 0.02879 0.32070
 H1355 H 0.33571 0.06574 0.44050
 H1356 H 0.35240 0.04735 0.40365
 H1357 H 0.28255 0.05656 0.37167
 H1358 H 0.26580 0.07566 0.40822
 H1359 H 0.29686 0.02002 0.30649
 H1360 H 0.31735 0.00537 0.26938
 H1361 H 0.38695 0.02134 0.29779
 H1362 H 0.36668 0.03540 0.33476
 C1363 C 0.76750 0.58574 0.87302
 C1364 C 0.77301 0.57726 0.84998
 C1365 C 0.79029 0.55851 0.84616
 C1366 C 0.80174 0.54796 0.86575
 C1367 C 0.79653 0.55666 0.88873
 C1368 C 0.77958 0.57581 0.89254
 N1369 N 0.79739 0.55180 0.82226
 N1370 N 0.81091 0.53323 0.81781
 C1371 C 0.82019 0.52741 0.79436
 C1372 C 0.83382 0.50599 0.79092
 C1373 C 0.84626 0.50134 0.76927
 C1374 C 0.84560 0.51830 0.75084
 C1375 C 0.83057 0.53903 0.75371
 C1376 C 0.81797 0.54363 0.77535
 H1377 H 0.75452 0.60067 0.87550
 H1378 H 0.76420 0.58566 0.83502
 H1379 H 0.81529 0.53355 0.86325
 H1380 H 0.80595 0.54864 0.90352
 H1381 H 0.83551 0.49326 0.80536
 H1382 H 0.85695 0.48477 0.76738
 H1383 H 0.82925 0.55218 0.73968
 H1384 H 0.80742 0.56029 0.77755
 C1385 C 0.12401 0.73799 0.58802
 C1386 C 0.14518 0.72629 0.57881
 C1387 C 0.14385 0.70905 0.56085
 C1388 C 0.12107 0.70405 0.55168
 C1389 C 0.09988 0.71568 0.56091
 C1390 C 0.10106 0.73253 0.57944
 N1391 N 0.16565 0.69614 0.55299
 N1392 N 0.16560 0.68054 0.53646
 C1393 C 0.18702 0.66682 0.52903
 C1394 C 0.18570 0.65114 0.50972
 C1395 C 0.20594 0.63685 0.50243
 C1396 C 0.22780 0.63797 0.51451
 C1397 C 0.22923 0.65372 0.53383
 C1398 C 0.20898 0.66815 0.54104
 H1399 H 0.12559 0.75114 0.60203
 H1400 H 0.16263 0.73036 0.58597
 H1401 H 0.11954 0.69074 0.53783
 H1402 H 0.08249 0.71082 0.55413
 H1403 H 0.16886 0.64993 0.50036
 H1404 H 0.20436 0.62496 0.48739
 H1405 H 0.24597 0.65477 0.54337
 H1406 H 0.21041 0.68006 0.55611
 C1407 C 0.57782 0.19977 1.03925
 C1408 C 0.59853 0.18984 1.02729
 C1409 C 0.62183 0.19666 1.03332
 C1410 C 0.62419 0.21440 1.05079
 C1411 C 0.60354 0.22442 1.06266
 C1412 C 0.58014 0.21679 1.05746
 N1413 N 0.64274 0.18435 1.02261
 N1414 N 0.66421 0.18794 1.02939
 C1415 C 0.68520 0.17493 1.01974
 C1416 C 0.70778 0.17824 1.02985
 C1417 C 0.72826 0.16441 1.02223
 C1418 C 0.72640 0.14705 1.00438
 C1419 C 0.70404 0.14448 0.99346
 C1420 C 0.68349 0.15818 1.00121
 H1421 H 0.56010 0.19338 1.03494
 H1422 H 0.59647 0.17617 1.01387
 H1423 H 0.64199 0.22016 1.05564
 H1424 H 0.60593 0.23786 1.07623
 H1425 H 0.70935 0.19115 1.04408
 H1426 H 0.74545 0.16690 1.03064
 H1427 H 0.70221 0.13175 0.97919
 H1428 H 0.66627 0.15546 0.99296
 C1429 C 0.87511 0.23720 0.90175
 C1430 C 0.85473 0.22692 0.91258
 C1431 C 0.85634 0.21569 0.93462
 C1432 C 0.87847 0.21557 0.94629
 C1433 C 0.89892 0.22596 0.93567
 C1434 C 0.89803 0.23661 0.91274
 N1435 N 0.83563 0.20354 0.94415
 N1436 N 0.83644 0.19128 0.96321
 C1437 C 0.81605 0.17818 0.97203
 C1438 C 0.81899 0.16317 0.99174
 C1439 C 0.80019 0.14848 0.99948
 C1440 C 0.77820 0.14861 0.98749
 C1441 C 0.77478 0.16454 0.96850
 C1442 C 0.79363 0.17911 0.96066
 H1443 H 0.87221 0.24625 0.88505
 H1444 H 0.83761 0.22744 0.90354
 H1445 H 0.88019 0.20688 0.96340
 H1446 H 0.91565 0.22389 0.94512
 H1447 H 0.83612 0.16243 1.00075
 H1448 H 0.80309 0.13686 1.01457
 H1449 H 0.75776 0.16515 0.95929
 H1450 H 0.79083 0.19070 0.94548
 C1451 C 0.42101 0.68124 0.43666
 C1452 C 0.40158 0.66960 0.44771
 C1453 C 0.37857 0.68104 0.44999
 C1454 C 0.37521 0.70457 0.44144
 C1455 C 0.39459 0.71617 0.43017
 C1456 C 0.41762 0.70452 0.42748
 N1457 N 0.35882 0.66795 0.46008
 N1458 N 0.33776 0.67746 0.46443
 C1459 C 0.31818 0.66355 0.47373
 C1460 C 0.29668 0.67523 0.48230
 C1461 C 0.27746 0.66195 0.49176
 C1462 C 0.27956 0.63680 0.49258
 C1463 C 0.30077 0.62512 0.48324
 C1464 C 0.32004 0.63834 0.47411
 H1465 H 0.43847 0.67173 0.43456
 H1466 H 0.40434 0.65144 0.45417
 H1467 H 0.35754 0.71375 0.44299
 H1468 H 0.39156 0.73418 0.42339
 H1469 H 0.29491 0.69463 0.48184
 H1470 H 0.26111 0.67140 0.49839
 H1471 H 0.30251 0.60569 0.48323
 H1472 H 0.33630 0.62885 0.46723
 C1473 C 0.58743 0.80685 0.42214
 C1474 C 0.60688 0.81828 0.43205
 C1475 C 0.62682 0.80491 0.44032
 C1476 C 0.62718 0.77973 0.43856
 C1477 C 0.60768 0.76820 0.42850
 C1478 C 0.58755 0.78169 0.42026
 N1479 N 0.64639 0.81762 0.45005
 N1480 N 0.66509 0.80740 0.45886
 C1481 C 0.68413 0.82138 0.46806
 C1482 C 0.70404 0.80985 0.47872
 C1483 C 0.72283 0.82329 0.48769
 C1484 C 0.72183 0.84843 0.48606
 C1485 C 0.70201 0.85991 0.47523
 C1486 C 0.68328 0.84657 0.46640
 H1487 H 0.57245 0.81778 0.41554
 H1488 H 0.60649 0.83770 0.43318
 H1489 H 0.64249 0.76905 0.44482
 H1490 H 0.60822 0.74878 0.42736
 H1491 H 0.70499 0.79046 0.48005
 H1492 H 0.73807 0.81402 0.49575
 H1493 H 0.70108 0.87927 0.47348
 H1494 H 0.66823 0.85600 0.45814
 C1495 C 0.09455 0.27595 -0.07425
 C1496 C 0.11545 0.28183 -0.06223
 C1497 C 0.11748 0.30476 -0.05248
 C1498 C 0.09797 0.32159 -0.05420
 C1499 C 0.07709 0.31573 -0.06609
 C1500 C 0.07528 0.29299 -0.07661
 N1501 N 0.13970 0.31094 -0.04170
 N1502 N 0.14306 0.33234 -0.03492
 C1503 C 0.16502 0.33965 -0.02451
 C1504 C 0.16717 0.36391 -0.01904
 C1505 C 0.18840 0.37203 -0.00933
 C1506 C 0.20790 0.35596 -0.00484
 C1507 C 0.20566 0.33148 -0.00995
 C1508 C 0.18437 0.32334 -0.01987
 H1509 H 0.09381 0.25836 -0.08234
 H1510 H 0.13034 0.26870 -0.06103
 H1511 H 0.09896 0.33938 -0.04662
 H1512 H 0.06239 0.32908 -0.06720
 H1513 H 0.15229 0.37659 -0.02235
 H1514 H 0.18924 0.39084 -0.00479
 H1515 H 0.22025 0.31863 -0.00640
 H1516 H 0.18303 0.30443 -0.02388
 C1517 C 0.37365 0.28002 0.09891
 C1518 C 0.35055 0.28730 0.09163
 C1519 C 0.34461 0.28563 0.06774
 C1520 C 0.36175 0.27542 0.05119
 C1521 C 0.38493 0.26795 0.05852
 C1522 C 0.39128 0.27085 0.08234
 N1523 N 0.32211 0.29663 0.06064
 N1524 N 0.31526 0.29698 0.03924
 C1525 C 0.29373 0.31038 0.03284
 C1526 C 0.28724 0.31124 0.00897
 C1527 C 0.26867 0.32717 0.00177
 C1528 C 0.25667 0.34270 0.01834
 C1529 C 0.26202 0.34064 0.04246
 C1530 C 0.28039 0.32464 0.04968
 H1531 H 0.37795 0.28208 0.11745
 H1532 H 0.33750 0.29515 0.10451
 H1533 H 0.35754 0.27404 0.03258
 H1534 H 0.39823 0.26095 0.04542
 H1535 H 0.29732 0.30035 -0.00421
 H1536 H 0.26467 0.32836 -0.01693
 H1537 H 0.25274 0.35197 0.05575
 H1538 H 0.28486 0.32422 0.06829
 C1539 C 0.91657 0.78931 0.54478
 C1540 C 0.89563 0.79557 0.53234
 C1541 C 0.87422 0.80340 0.54463
 C1542 C 0.87392 0.80479 0.56960
 C1543 C 0.89491 0.79897 0.58198
 C1544 C 0.91647 0.79134 0.56969
 N1545 N 0.85350 0.81119 0.53149
 N1546 N 0.83261 0.81477 0.54161
 C1547 C 0.81208 0.82436 0.52928
 C1548 C 0.78917 0.82507 0.54096
 C1549 C 0.76926 0.83667 0.53056
 C1550 C 0.77215 0.84805 0.50847
 C1551 C 0.79487 0.84667 0.49634
 C1552 C 0.81473 0.83479 0.50662
 H1553 H 0.93303 0.78357 0.53494
 H1554 H 0.89614 0.79456 0.51310
 H1555 H 0.85765 0.81095 0.57950
 H1556 H 0.89437 0.80049 0.60120
 H1557 H 0.78691 0.81719 0.55846
 H1558 H 0.75184 0.83760 0.54018
 H1559 H 0.79751 0.85525 0.47924
 H1560 H 0.83230 0.83456 0.49730
   
