data_POSCAR
  _audit_creation_date              2014-09-24
  _audit_creation_method            'ToBaCCo'
  _symmetry_space_group_name_H-M    'P1'
  _symmetry_Int_Tables_number       1
  _symmetry_cell_setting            triclinic
  loop_
  _symmetry_equiv_pos_as_xyz
 x,y,z
_cell_length_a 88.1302
_cell_length_b 86.6506
_cell_length_c 87.9381
_cell_angle_alpha 89.972900
_cell_angle_beta 89.985000
_cell_angle_gamma 89.976700
loop_
  _atom_site_label
  _atom_site_type_symbol
  _atom_site_fract_x
  _atom_site_fract_y
  _atom_site_fract_z
C1 C 0.34995 0.34960 0.33064
 C2 C 0.36291 0.34312 0.32393
 C3 C 0.36976 0.32990 0.33018
 C4 C 0.36353 0.32323 0.34337
 C5 C 0.35055 0.32956 0.35019
 C6 C 0.34372 0.34279 0.34381
 C7 C 0.34301 0.36266 0.32427
 C8 C 0.32986 0.36900 0.33084
 C9 C 0.32376 0.36218 0.34401
 C10 C 0.33059 0.34913 0.35052
 C11 C 0.32437 0.34222 0.36353
 C12 C 0.33106 0.32897 0.36991
 C13 C 0.34419 0.32276 0.36319
 H14 H 0.36774 0.34844 0.31387
 H15 H 0.36859 0.31290 0.34813
 H16 H 0.34767 0.36769 0.31399
 H17 H 0.31373 0.36710 0.34924
 H18 H 0.31412 0.34695 0.36849
 H19 H 0.34952 0.31266 0.36813
 C20 C 0.35080 0.84946 -0.16980
 C21 C 0.36386 0.84285 -0.17623
 C22 C 0.37062 0.82950 -0.16990
 C23 C 0.36391 0.82307 -0.15672
 C24 C 0.35088 0.82959 -0.15019
 C25 C 0.34431 0.84284 -0.15674
 C26 C 0.34406 0.86251 -0.17643
 C27 C 0.33079 0.86922 -0.17022
 C28 C 0.32456 0.86245 -0.15698
 C29 C 0.33117 0.84939 -0.15027
 C30 C 0.32466 0.84261 -0.13733
 C31 C 0.33111 0.82936 -0.13074
 C32 C 0.34429 0.82298 -0.13720
 H33 H 0.36820 0.84782 -0.18665
 H34 H 0.36902 0.81326 -0.15108
 H35 H 0.34962 0.86768 -0.18615
 H36 H 0.31409 0.86677 -0.15215
 H37 H 0.31437 0.84747 -0.13256
 H38 H 0.34944 0.81288 -0.13209
 C39 C 0.85060 0.34943 -0.16940
 C40 C 0.86368 0.34281 -0.17576
 C41 C 0.87042 0.32948 -0.16937
 C42 C 0.86368 0.32310 -0.15619
 C43 C 0.85063 0.32964 -0.14972
 C44 C 0.84407 0.34286 -0.15633
 C45 C 0.84388 0.36247 -0.17608
 C46 C 0.83059 0.36920 -0.16994
 C47 C 0.82432 0.36247 -0.15669
 C48 C 0.83092 0.34943 -0.14993
 C49 C 0.82437 0.34269 -0.13698
 C50 C 0.83081 0.32946 -0.13032
 C51 C 0.84401 0.32307 -0.13673
 H52 H 0.86805 0.34774 -0.18619
 H53 H 0.86878 0.31331 -0.15051
 H54 H 0.84947 0.36760 -0.18580
 H55 H 0.81384 0.36681 -0.15190
 H56 H 0.81407 0.34757 -0.13224
 H57 H 0.84915 0.31299 -0.13157
 C58 C 0.85015 0.84939 0.33010
 C59 C 0.86316 0.84287 0.32352
 C60 C 0.86993 0.82965 0.32985
 C61 C 0.86362 0.82307 0.34303
 C62 C 0.85064 0.82949 0.34976
 C63 C 0.84389 0.84272 0.34328
 C64 C 0.84332 0.86245 0.32362
 C65 C 0.83009 0.86908 0.33000
 C66 C 0.82405 0.86224 0.34331
 C67 C 0.83080 0.84919 0.34991
 C68 C 0.82447 0.84233 0.36290
 C69 C 0.83106 0.82908 0.36938
 C70 C 0.84420 0.82278 0.36276
 H71 H 0.86807 0.84811 0.31346
 H72 H 0.86862 0.81275 0.34787
 H73 H 0.84875 0.86766 0.31385
 H74 H 0.81362 0.86650 0.34827
 H75 H 0.81422 0.84713 0.36781
 H76 H 0.84946 0.81268 0.36778
 C77 C 0.64945 0.65120 0.33021
 C78 C 0.63642 0.65794 0.32390
 C79 C 0.62988 0.67115 0.33050
 C80 C 0.63649 0.67750 0.34365
 C81 C 0.64952 0.67089 0.35008
 C82 C 0.65603 0.65768 0.34335
 C83 C 0.65610 0.63818 0.32347
 C84 C 0.66929 0.63154 0.32965
 C85 C 0.67574 0.63802 0.34281
 C86 C 0.66921 0.65103 0.34969
 C87 C 0.67580 0.65765 0.36266
 C88 C 0.66941 0.67086 0.36940
 C89 C 0.65621 0.67736 0.36306
 H90 H 0.63155 0.65310 0.31364
 H91 H 0.63143 0.68758 0.34891
 H92 H 0.65095 0.63315 0.31343
 H93 H 0.68603 0.63312 0.34753
 H94 H 0.68609 0.65270 0.36733
 H95 H 0.65111 0.68743 0.36829
 C96 C 0.65003 0.15084 -0.16941
 C97 C 0.63706 0.15750 -0.17596
 C98 C 0.63039 0.17075 -0.16956
 C99 C 0.63680 0.17724 -0.15639
 C100 C 0.64979 0.17074 -0.14976
 C101 C 0.65645 0.15751 -0.15630
 C102 C 0.65681 0.13779 -0.17597
 C103 C 0.67009 0.13115 -0.16971
 C104 C 0.67627 0.13798 -0.15647
 C105 C 0.66959 0.15103 -0.14981
 C106 C 0.67595 0.15776 -0.13677
 C107 C 0.66942 0.17098 -0.13020
 C108 C 0.65629 0.17736 -0.13675
 H109 H 0.63231 0.15256 -0.18622
 H110 H 0.63164 0.18733 -0.15126
 H111 H 0.65201 0.13338 -0.18642
 H112 H 0.68602 0.13294 -0.15088
 H113 H 0.68621 0.15291 -0.13193
 H114 H 0.65107 0.18745 -0.13167
 C115 C 0.14959 0.65060 -0.17020
 C116 C 0.13655 0.65727 -0.17660
 C117 C 0.12997 0.67052 -0.17012
 C118 C 0.13651 0.67697 -0.15700
 C119 C 0.14952 0.67042 -0.15047
 C120 C 0.15607 0.65716 -0.15708
 C121 C 0.15626 0.63753 -0.17683
 C122 C 0.16950 0.63076 -0.17062
 C123 C 0.17576 0.63748 -0.15736
 C124 C 0.16918 0.65055 -0.15063
 C125 C 0.17571 0.65729 -0.13768
 C126 C 0.16931 0.67056 -0.13107
 C127 C 0.15614 0.67699 -0.13751
 H128 H 0.13172 0.65236 -0.18684
 H129 H 0.13142 0.68708 -0.15183
 H130 H 0.15068 0.63242 -0.18656
 H131 H 0.18620 0.63311 -0.15254
 H132 H 0.18598 0.65239 -0.13292
 H133 H 0.15101 0.68710 -0.13238
 C134 C 0.14974 0.15068 0.33022
 C135 C 0.13667 0.15734 0.32386
 C136 C 0.12995 0.17067 0.33027
 C137 C 0.13670 0.17701 0.34346
 C138 C 0.14974 0.17043 0.34992
 C139 C 0.15627 0.15721 0.34329
 C140 C 0.15643 0.13764 0.32352
 C141 C 0.16969 0.13086 0.32965
 C142 C 0.17597 0.13754 0.34292
 C143 C 0.16940 0.15058 0.34970
 C144 C 0.17595 0.15727 0.36266
 C145 C 0.16954 0.17049 0.36934
 C146 C 0.15637 0.17694 0.36293
 H147 H 0.13230 0.15244 0.31343
 H148 H 0.13162 0.18680 0.34915
 H149 H 0.15083 0.13255 0.31379
 H150 H 0.18643 0.13316 0.34770
 H151 H 0.18623 0.15235 0.36739
 H152 H 0.15124 0.18703 0.36811
 C153 C 0.64986 0.34919 0.66985
 C154 C 0.63690 0.34256 0.67640
 C155 C 0.63018 0.32937 0.66994
 C156 C 0.63652 0.32294 0.65671
 C157 C 0.64950 0.32942 0.65005
 C158 C 0.65621 0.34259 0.65663
 C159 C 0.65672 0.36217 0.67644
 C160 C 0.66988 0.36866 0.67003
 C161 C 0.67608 0.36206 0.65680
 C162 C 0.66936 0.34908 0.65008
 C163 C 0.67568 0.34238 0.63702
 C164 C 0.66909 0.32921 0.63042
 C165 C 0.65595 0.32285 0.63698
 H166 H 0.63221 0.34746 0.68672
 H167 H 0.63132 0.31289 0.65155
 H168 H 0.65199 0.36704 0.68676
 H169 H 0.68612 0.36710 0.65168
 H170 H 0.68594 0.34722 0.63217
 H171 H 0.65070 0.31280 0.63188
 C172 C 0.64963 0.84919 1.16970
 C173 C 0.63656 0.84257 1.17605
 C174 C 0.62983 0.82924 1.16964
 C175 C 0.63660 0.82286 1.15647
 C176 C 0.64966 0.82939 1.15000
 C177 C 0.65623 0.84257 1.15665
 C178 C 0.65637 0.86220 1.17639
 C179 C 0.66962 0.86870 1.17021
 C180 C 0.67605 0.86210 1.15710
 C181 C 0.66948 0.84908 1.15032
 C182 C 0.67603 0.84238 1.13737
 C183 C 0.66958 0.82919 1.13068
 C184 C 0.65634 0.82282 1.13703
 H185 H 0.63218 0.84751 1.18646
 H186 H 0.63151 0.81308 1.15077
 H187 H 0.65146 0.86709 1.18662
 H188 H 0.68616 0.86714 1.15213
 H189 H 0.68613 0.84748 1.13246
 H190 H 0.65142 0.81252 1.13207
 C191 C 0.14945 0.34909 1.16998
 C192 C 0.13638 0.34246 1.17634
 C193 C 0.12965 0.32914 1.16994
 C194 C 0.13640 0.32277 1.15676
 C195 C 0.14946 0.32929 1.15029
 C196 C 0.15602 0.34250 1.15691
 C197 C 0.15617 0.36210 1.17666
 C198 C 0.16940 0.36863 1.17045
 C199 C 0.17582 0.36205 1.15732
 C200 C 0.16923 0.34904 1.15053
 C201 C 0.17578 0.34233 1.13758
 C202 C 0.16932 0.32913 1.13091
 C203 C 0.15611 0.32274 1.13731
 H204 H 0.13201 0.34740 1.18677
 H205 H 0.13131 0.31299 1.15107
 H206 H 0.15105 0.36722 1.18667
 H207 H 0.18613 0.36688 1.15257
 H208 H 0.18609 0.34720 1.13287
 H209 H 0.15096 0.31267 1.13213
 C210 C 0.15011 0.84915 0.66995
 C211 C 0.13707 0.84261 0.67644
 C212 C 0.13021 0.82930 0.67012
 C213 C 0.13682 0.82287 0.65689
 C214 C 0.14986 0.82931 0.65030
 C215 C 0.15656 0.84247 0.65686
 C216 C 0.15687 0.86224 0.67647
 C217 C 0.17009 0.86868 0.67014
 C218 C 0.17643 0.86195 0.65704
 C219 C 0.16978 0.84890 0.65040
 C220 C 0.17624 0.84209 0.63747
 C221 C 0.16972 0.82886 0.63092
 C222 C 0.15649 0.82258 0.63738
 H223 H 0.13207 0.84835 0.68615
 H224 H 0.13236 0.81236 0.65198
 H225 H 0.15205 0.86721 0.68669
 H226 H 0.18651 0.86694 0.65198
 H227 H 0.18632 0.84712 0.63246
 H228 H 0.15151 0.81227 0.63251
 C229 C 0.35021 0.65060 0.66986
 C230 C 0.36319 0.65721 0.67638
 C231 C 0.36989 0.67041 0.66994
 C232 C 0.36352 0.67689 0.65673
 C233 C 0.35055 0.67040 0.65007
 C234 C 0.34386 0.65720 0.65665
 C235 C 0.34342 0.63757 0.67642
 C236 C 0.33027 0.63106 0.67002
 C237 C 0.32404 0.63767 0.65681
 C238 C 0.33073 0.65069 0.65010
 C239 C 0.32436 0.65744 0.63708
 C240 C 0.33090 0.67065 0.63051
 C241 C 0.34405 0.67702 0.63705
 H242 H 0.36813 0.65204 0.68645
 H243 H 0.36848 0.68720 0.65182
 H244 H 0.34840 0.63244 0.68649
 H245 H 0.31378 0.63287 0.65193
 H246 H 0.31410 0.65259 0.63225
 H247 H 0.34927 0.68710 0.63196
 C248 C 0.35036 0.15042 1.17010
 C249 C 0.36341 0.15694 1.17661
 C250 C 0.37032 0.17021 1.17029
 C251 C 0.36380 0.17663 1.15702
 C252 C 0.35078 0.17019 1.15040
 C253 C 0.34405 0.15703 1.15695
 C254 C 0.34358 0.13735 1.17662
 C255 C 0.33033 0.13070 1.17033
 C256 C 0.32421 0.13751 1.15705
 C257 C 0.33093 0.15055 1.15040
 C258 C 0.32453 0.15738 1.13742
 C259 C 0.33108 0.17060 1.13088
 C260 C 0.34426 0.17689 1.13742
 H261 H 0.36836 0.15123 1.18636
 H262 H 0.36829 0.18713 1.15210
 H263 H 0.34906 0.13215 1.18637
 H264 H 0.31377 0.13324 1.15215
 H265 H 0.31426 0.15258 1.13258
 H266 H 0.34950 0.18697 1.13234
 C267 C 0.85015 0.65064 1.16971
 C268 C 0.86315 0.65723 1.17622
 C269 C 0.86985 0.67045 1.16982
 C270 C 0.86347 0.67696 1.15664
 C271 C 0.85049 0.67048 1.14998
 C272 C 0.84381 0.65725 1.15653
 C273 C 0.84338 0.63758 1.17625
 C274 C 0.83016 0.63089 1.16994
 C275 C 0.82405 0.63767 1.15663
 C276 C 0.83074 0.65072 1.14997
 C277 C 0.82434 0.65751 1.13697
 C278 C 0.83085 0.67075 1.13042
 C279 C 0.84399 0.67712 1.13698
 H280 H 0.86811 0.65203 1.18628
 H281 H 0.86842 0.68729 1.15175
 H282 H 0.84886 0.63243 1.18602
 H283 H 0.81363 0.63336 1.15172
 H284 H 0.81409 0.65266 1.13212
 H285 H 0.84919 0.68722 1.13191
 C286 C 0.85025 0.15130 0.66982
 C287 C 0.86325 0.15799 0.67623
 C288 C 0.86984 0.17121 0.66971
 C289 C 0.86335 0.17762 0.65653
 C290 C 0.85035 0.17106 0.64999
 C291 C 0.84377 0.15785 0.65664
 C292 C 0.84353 0.13828 0.67648
 C293 C 0.83036 0.13170 0.67018
 C294 C 0.82402 0.13825 0.65699
 C295 C 0.83062 0.15127 0.65020
 C296 C 0.82414 0.15796 0.63720
 C297 C 0.83060 0.17118 0.63055
 C298 C 0.84376 0.17760 0.63699
 H299 H 0.86804 0.15310 0.68652
 H300 H 0.86846 0.18770 0.65133
 H301 H 0.84859 0.13320 0.68654
 H302 H 0.81375 0.13339 0.65219
 H303 H 0.81386 0.15306 0.63245
 H304 H 0.84892 0.18768 0.63183
 C305 C 0.34978 0.34906 0.66945
 C306 C 0.34285 0.36212 0.67581
 C307 C 0.32970 0.36848 0.66925
 C308 C 0.32359 0.36167 0.65609
 C309 C 0.33042 0.34862 0.64958
 C310 C 0.34355 0.34226 0.65629
 C311 C 0.36274 0.34258 0.67616
 C312 C 0.36958 0.32935 0.66991
 C313 C 0.36335 0.32270 0.65673
 C314 C 0.35037 0.32904 0.64991
 C315 C 0.34402 0.32224 0.63691
 C316 C 0.33089 0.32847 0.63018
 C317 C 0.32420 0.34171 0.63657
 H318 H 0.34750 0.36715 0.68609
 H319 H 0.31357 0.36659 0.65085
 H320 H 0.36757 0.34790 0.68621
 H321 H 0.36841 0.31237 0.65197
 H322 H 0.34934 0.31215 0.63197
 H323 H 0.31395 0.34645 0.63161
 C324 C 0.34964 0.84903 0.16903
 C325 C 0.34280 0.86202 0.17564
 C326 C 0.32962 0.86851 0.16928
 C327 C 0.32338 0.86191 0.15608
 C328 C 0.33008 0.84892 0.14934
 C329 C 0.34325 0.84242 0.15585
 C330 C 0.36264 0.84239 0.17553
 C331 C 0.36934 0.82921 0.16906
 C332 C 0.36295 0.82276 0.15586
 C333 C 0.34995 0.82925 0.14924
 C334 C 0.34346 0.82267 0.13621
 C335 C 0.33029 0.82903 0.12969
 C336 C 0.32372 0.84221 0.13630
 H337 H 0.34757 0.86689 0.18594
 H338 H 0.31332 0.86694 0.15099
 H339 H 0.36735 0.84731 0.18583
 H340 H 0.36815 0.81271 0.15068
 H341 H 0.34870 0.81262 0.13108
 H342 H 0.31344 0.84706 0.13150
 C343 C 0.85001 0.34938 0.16970
 C344 C 0.84310 0.36242 0.17614
 C345 C 0.82997 0.36884 0.16960
 C346 C 0.82387 0.36214 0.15638
 C347 C 0.83067 0.34911 0.14980
 C348 C 0.84378 0.34268 0.15648
 C349 C 0.86295 0.34282 0.17637
 C350 C 0.86976 0.32962 0.17005
 C351 C 0.86352 0.32306 0.15682
 C352 C 0.85057 0.32948 0.15003
 C353 C 0.84421 0.32279 0.13698
 C354 C 0.83110 0.32909 0.13029
 C355 C 0.82445 0.34231 0.13675
 H356 H 0.84776 0.36737 0.18645
 H357 H 0.81386 0.36712 0.15117
 H358 H 0.86778 0.34805 0.18646
 H359 H 0.86856 0.31275 0.15200
 H360 H 0.84950 0.31270 0.13198
 H361 H 0.81421 0.34711 0.13181
 C362 C 0.84982 0.84974 0.66919
 C363 C 0.84291 0.86278 0.67562
 C364 C 0.82974 0.86915 0.66911
 C365 C 0.82359 0.86237 0.65595
 C366 C 0.83039 0.84934 0.64939
 C367 C 0.84355 0.84298 0.65603
 C368 C 0.86281 0.84325 0.67583
 C369 C 0.86963 0.83004 0.66953
 C370 C 0.86336 0.82342 0.65635
 C371 C 0.85036 0.82978 0.64959
 C372 C 0.84396 0.82302 0.63660
 C373 C 0.83081 0.82925 0.62994
 C374 C 0.82414 0.84247 0.63638
 H375 H 0.84760 0.86779 0.68589
 H376 H 0.81354 0.86731 0.65077
 H377 H 0.86767 0.84853 0.68589
 H378 H 0.86840 0.81311 0.65154
 H379 H 0.84928 0.81293 0.63161
 H380 H 0.81387 0.84722 0.63147
 C381 C 0.64987 0.65081 0.66935
 C382 C 0.65653 0.63779 0.67609
 C383 C 0.66972 0.63116 0.66991
 C384 C 0.67616 0.63764 0.65673
 C385 C 0.66963 0.65066 0.64985
 C386 C 0.65645 0.65729 0.65619
 C387 C 0.63684 0.65755 0.67566
 C388 C 0.63031 0.67076 0.66905
 C389 C 0.63690 0.67711 0.65589
 C390 C 0.64993 0.67050 0.64946
 C391 C 0.65662 0.67698 0.63647
 C392 C 0.66982 0.67050 0.63013
 C393 C 0.67622 0.65729 0.63688
 H394 H 0.65138 0.63276 0.68614
 H395 H 0.68646 0.63275 0.65201
 H396 H 0.63197 0.65271 0.68593
 H397 H 0.63184 0.68719 0.65063
 H398 H 0.65152 0.68705 0.63124
 H399 H 0.68651 0.65235 0.63220
 C400 C 0.64979 0.15090 0.16956
 C401 C 0.65655 0.13788 0.17620
 C402 C 0.66973 0.13133 0.16988
 C403 C 0.67605 0.13791 0.15669
 C404 C 0.66942 0.15093 0.14993
 C405 C 0.65626 0.15748 0.15639
 C406 C 0.63681 0.15759 0.17602
 C407 C 0.63019 0.17081 0.16952
 C408 C 0.63665 0.17723 0.15633
 C409 C 0.64964 0.17069 0.14976
 C410 C 0.65621 0.17724 0.13674
 C411 C 0.66937 0.17083 0.13027
 C412 C 0.67586 0.15761 0.13691
 H413 H 0.65173 0.13303 0.18649
 H414 H 0.68610 0.13283 0.15164
 H415 H 0.63204 0.15270 0.18631
 H416 H 0.63152 0.18731 0.15114
 H417 H 0.65103 0.18733 0.13160
 H418 H 0.68613 0.15272 0.13213
 C419 C 0.14999 0.65080 0.16900
 C420 C 0.15681 0.63780 0.17561
 C421 C 0.16996 0.63127 0.16922
 C422 C 0.17618 0.63784 0.15599
 C423 C 0.16950 0.65085 0.14925
 C424 C 0.15637 0.65738 0.15579
 C425 C 0.13703 0.65748 0.17554
 C426 C 0.13035 0.67069 0.16906
 C427 C 0.13673 0.67711 0.15583
 C428 C 0.14969 0.67058 0.14919
 C429 C 0.15617 0.67713 0.13613
 C430 C 0.16930 0.67073 0.12958
 C431 C 0.17585 0.65753 0.13619
 H432 H 0.15206 0.63295 0.18593
 H433 H 0.18621 0.63277 0.15088
 H434 H 0.13233 0.65259 0.18586
 H435 H 0.13155 0.68717 0.15067
 H436 H 0.15095 0.68720 0.13101
 H437 H 0.18610 0.65266 0.13136
 C438 C 0.14945 0.15078 0.66960
 C439 C 0.15611 0.13779 0.67639
 C440 C 0.16930 0.13114 0.67021
 C441 C 0.17573 0.13757 0.65701
 C442 C 0.16920 0.15056 0.65009
 C443 C 0.15602 0.15723 0.65642
 C444 C 0.13643 0.15755 0.67590
 C445 C 0.12989 0.17073 0.66926
 C446 C 0.13647 0.17705 0.65608
 C447 C 0.14950 0.17041 0.64965
 C448 C 0.15618 0.17684 0.63663
 C449 C 0.16937 0.17034 0.63031
 C450 C 0.17577 0.15715 0.63709
 H451 H 0.15098 0.13280 0.68645
 H452 H 0.18602 0.13266 0.65230
 H453 H 0.13157 0.15274 0.68620
 H454 H 0.13141 0.18711 0.65078
 H455 H 0.15107 0.18690 0.63138
 H456 H 0.18606 0.15219 0.63242
 C457 C 0.34987 0.65086 0.33031
 C458 C 0.34299 0.63783 0.32384
 C459 C 0.32987 0.63138 0.33037
 C460 C 0.32374 0.63806 0.34359
 C461 C 0.33051 0.65108 0.35020
 C462 C 0.34362 0.65753 0.34353
 C463 C 0.36281 0.65744 0.32365
 C464 C 0.36960 0.67063 0.33000
 C465 C 0.36334 0.67716 0.34324
 C466 C 0.35039 0.67072 0.35002
 C467 C 0.34400 0.67739 0.36307
 C468 C 0.33090 0.67106 0.36975
 C469 C 0.32427 0.65785 0.36326
 H470 H 0.34766 0.63290 0.31353
 H471 H 0.31373 0.63306 0.34879
 H472 H 0.36766 0.65223 0.31356
 H473 H 0.36836 0.68746 0.34809
 H474 H 0.34929 0.68746 0.36809
 H475 H 0.31404 0.65304 0.36819
 C476 C 0.35001 0.15054 0.83094
 C477 C 0.34310 0.13749 0.82453
 C478 C 0.32996 0.13110 0.83108
 C479 C 0.32385 0.13784 0.84427
 C480 C 0.33065 0.15087 0.85083
 C481 C 0.34377 0.15727 0.84414
 C482 C 0.36295 0.15706 0.82426
 C483 C 0.36976 0.17027 0.83055
 C484 C 0.36352 0.17686 0.84377
 C485 C 0.35057 0.17047 0.85057
 C486 C 0.34420 0.17720 0.86360
 C487 C 0.33108 0.17093 0.87031
 C488 C 0.32442 0.15771 0.86387
 H489 H 0.34776 0.13252 0.81423
 H490 H 0.31383 0.13288 0.84950
 H491 H 0.36779 0.15180 0.81418
 H492 H 0.36857 0.18717 0.84857
 H493 H 0.34950 0.18729 0.86859
 H494 H 0.31418 0.15293 0.86882
 C495 C 0.84997 0.65105 0.83028
 C496 C 0.84315 0.63803 0.82372
 C497 C 0.83002 0.63151 0.83015
 C498 C 0.82381 0.63811 0.84338
 C499 C 0.83050 0.65112 0.85006
 C500 C 0.84361 0.65765 0.84348
 C501 C 0.86291 0.65771 0.82370
 C502 C 0.86960 0.67092 0.83013
 C503 C 0.86324 0.67737 0.84335
 C504 C 0.85029 0.67086 0.85004
 C505 C 0.84383 0.67743 0.86310
 C506 C 0.83072 0.67104 0.86969
 C507 C 0.82417 0.65783 0.86312
 H508 H 0.84789 0.63315 0.81340
 H509 H 0.81380 0.63305 0.84852
 H510 H 0.86760 0.65279 0.81339
 H511 H 0.86842 0.68745 0.84848
 H512 H 0.84905 0.68751 0.86818
 H513 H 0.81393 0.65296 0.86798
 C514 C 0.85000 0.15041 0.33080
 C515 C 0.84307 0.13739 0.32437
 C516 C 0.82991 0.13102 0.33090
 C517 C 0.82380 0.13778 0.34409
 C518 C 0.83062 0.15078 0.35067
 C519 C 0.84376 0.15715 0.34400
 C520 C 0.86297 0.15690 0.32414
 C521 C 0.86981 0.17009 0.33045
 C522 C 0.86356 0.17669 0.34366
 C523 C 0.85058 0.17034 0.35044
 C524 C 0.84421 0.17708 0.36346
 C525 C 0.83107 0.17084 0.37015
 C526 C 0.82439 0.15763 0.36370
 H527 H 0.84772 0.13240 0.31407
 H528 H 0.81376 0.13284 0.34930
 H529 H 0.86781 0.15164 0.31406
 H530 H 0.86862 0.18699 0.34847
 H531 H 0.84952 0.18715 0.36846
 H532 H 0.81413 0.15288 0.36863
 C533 C 0.64965 0.34944 0.33049
 C534 C 0.65645 0.36245 0.32388
 C535 C 0.66962 0.36896 0.33025
 C536 C 0.67588 0.36236 0.34345
 C537 C 0.66921 0.34934 0.35018
 C538 C 0.65606 0.34283 0.34367
 C539 C 0.63668 0.34279 0.32398
 C540 C 0.63002 0.32957 0.33044
 C541 C 0.63643 0.32312 0.34364
 C542 C 0.64941 0.32962 0.35026
 C543 C 0.65592 0.32304 0.36329
 C544 C 0.66907 0.32942 0.36981
 C545 C 0.67560 0.34263 0.36321
 H546 H 0.65168 0.36733 0.31359
 H547 H 0.68592 0.36741 0.34853
 H548 H 0.63196 0.34770 0.31368
 H549 H 0.63127 0.31304 0.34880
 H550 H 0.65072 0.31296 0.36840
 H551 H 0.68586 0.34749 0.36802
 C552 C 0.65005 0.84924 0.83039
 C553 C 0.65686 0.86228 0.82384
 C554 C 0.67000 0.86878 0.83026
 C555 C 0.67623 0.86214 0.84346
 C556 C 0.66955 0.84911 0.85014
 C557 C 0.65643 0.84260 0.84357
 C558 C 0.63711 0.84260 0.82382
 C559 C 0.63043 0.82937 0.83024
 C560 C 0.63680 0.82288 0.84344
 C561 C 0.64976 0.82938 0.85011
 C562 C 0.65623 0.82277 0.86315
 C563 C 0.66935 0.82914 0.86973
 C564 C 0.67590 0.84236 0.86317
 H565 H 0.65212 0.86717 0.81354
 H566 H 0.68625 0.86719 0.84859
 H567 H 0.63241 0.84754 0.81352
 H568 H 0.63162 0.81280 0.84856
 H569 H 0.65100 0.81268 0.86823
 H570 H 0.68614 0.84722 0.86803
 C571 C 0.14997 0.34900 0.83100
 C572 C 0.15676 0.36200 0.82435
 C573 C 0.16992 0.36854 0.83068
 C574 C 0.17621 0.36197 0.84389
 C575 C 0.16956 0.34897 0.85066
 C576 C 0.15641 0.34243 0.84419
 C577 C 0.13700 0.34233 0.82453
 C578 C 0.13035 0.32913 0.83103
 C579 C 0.13678 0.32271 0.84424
 C580 C 0.14977 0.32924 0.85082
 C581 C 0.15630 0.32269 0.86386
 C582 C 0.16945 0.32910 0.87035
 C583 C 0.17596 0.34230 0.86370
 H584 H 0.15196 0.36685 0.81405
 H585 H 0.18625 0.36704 0.84895
 H586 H 0.13225 0.34722 0.81422
 H587 H 0.13163 0.31265 0.84943
 H588 H 0.15111 0.31263 0.86901
 H589 H 0.18623 0.34718 0.86848
 C590 C 0.14987 0.84907 0.33063
 C591 C 0.15668 0.86209 0.32406
 C592 C 0.16983 0.86860 0.33047
 C593 C 0.17605 0.86199 0.34368
 C594 C 0.16937 0.84896 0.35038
 C595 C 0.15624 0.84245 0.34383
 C596 C 0.13692 0.84242 0.32408
 C597 C 0.13024 0.82920 0.33051
 C598 C 0.13661 0.82273 0.34372
 C599 C 0.14957 0.82924 0.35039
 C600 C 0.15604 0.82264 0.36343
 C601 C 0.16917 0.82902 0.37000
 C602 C 0.17572 0.84224 0.36342
 H603 H 0.15193 0.86698 0.31376
 H604 H 0.18607 0.86703 0.34880
 H605 H 0.13222 0.84735 0.31377
 H606 H 0.13143 0.81265 0.34886
 H607 H 0.15082 0.81256 0.36852
 H608 H 0.18596 0.84709 0.36827
 O609 O 0.25128 1.01486 0.23043
 O610 O 0.23040 0.98482 0.25141
 O611 O 0.23042 1.01490 0.25137
 O612 O 0.25126 0.98478 0.23048
 O613 O 0.26897 0.98477 0.24821
 O614 O 0.24812 1.01491 0.26909
 O615 O 0.24811 0.98483 0.26913
 O616 O 0.26898 1.01485 0.24816
 Cu617 Cu 0.23907 0.99984 0.23915
 Cu618 Cu 0.26032 0.99984 0.26042
 C619 C 0.26369 1.02004 0.23573
 C620 C 0.23570 0.97964 0.26384
 C621 C 0.23573 1.02010 0.26378
 C622 C 0.26366 0.97958 0.23579
 O623 O 0.23021 0.48468 0.75123
 O624 O 0.25104 0.51477 0.73027
 O625 O 0.25100 0.48469 0.73023
 O626 O 0.23021 0.51476 0.75123
 O627 O 0.24795 0.51474 0.76891
 O628 O 0.26874 0.48464 0.74791
 O629 O 0.26878 0.51472 0.74795
 O630 O 0.24795 0.48466 0.76891
 Cu631 Cu 0.23883 0.49973 0.73897
 Cu632 Cu 0.26013 0.49968 0.76019
 C633 C 0.23554 0.47948 0.76364
 C634 C 0.26346 0.51994 0.73555
 C635 C 0.26341 0.47947 0.73550
 C636 C 0.23554 0.51994 0.76364
 O637 O 0.75077 -0.01503 0.27021
 O638 O 0.72993 0.01508 0.24926
 O639 O 0.72990 -0.01501 0.24930
 O640 O 0.75079 0.01506 0.27019
 O641 O 0.76849 0.01503 0.25246
 O642 O 0.74761 -0.01503 0.23158
 O643 O 0.74764 0.01504 0.23154
 O644 O 0.76847 -0.01504 0.25248
 Cu645 Cu 0.73857 0.00003 0.26152
 Cu646 Cu 0.75982 -0.00000 0.24023
 C647 C 0.76317 -0.02023 0.26491
 C648 C 0.73525 0.02026 0.23683
 C649 C 0.73520 -0.02021 0.23689
 C650 C 0.76320 0.02023 0.26488
 O651 O 0.75178 0.48492 0.76952
 O652 O 0.73079 0.51495 0.74863
 O653 O 0.73084 0.48487 0.74867
 O654 O 0.75172 0.51500 0.76947
 O655 O 0.76936 0.51502 0.75168
 O656 O 0.74848 0.48488 0.73088
 O657 O 0.74844 0.51496 0.73083
 O658 O 0.76942 0.48493 0.75172
 Cu659 Cu 0.73951 0.49993 0.76085
 Cu660 Cu 0.76069 0.49995 0.73950
 C661 C 0.76417 0.47974 0.76417
 C662 C 0.73605 0.52014 0.73618
 C663 C 0.73611 0.47968 0.73624
 C664 C 0.76409 0.52021 0.76412
 O665 O 0.24808 0.48498 0.23102
 O666 O 0.26891 0.51511 0.25188
 O667 O 0.26886 0.48503 0.25201
 O668 O 0.24811 0.51507 0.23090
 O669 O 0.23035 0.51517 0.24857
 O670 O 0.25110 0.48514 0.26968
 O671 O 0.25114 0.51521 0.26955
 O672 O 0.23032 0.48509 0.24869
 Cu673 Cu 0.26027 0.50004 0.23968
 Cu674 Cu 0.23895 0.50016 0.26089
 C675 C 0.23565 0.47983 0.23631
 C676 C 0.26357 0.52036 0.26426
 C677 C 0.26351 0.47990 0.26444
 C678 C 0.23570 0.52030 0.23614
 O679 O 0.74818 1.01525 0.76917
 O680 O 0.76894 0.98520 0.74809
 O681 O 0.76902 1.01528 0.74823
 O682 O 0.74816 0.98517 0.76909
 O683 O 0.73041 0.98527 0.75142
 O684 O 0.75128 1.01541 0.73054
 O685 O 0.75119 0.98532 0.73041
 O686 O 0.73043 1.01535 0.75149
 Cu687 Cu 0.76035 1.00021 0.76041
 Cu688 Cu 0.73905 1.00035 0.73919
 C689 C 0.73577 1.02049 0.76392
 C690 C 0.76360 0.98008 0.73566
 C691 C 0.76370 1.02054 0.73584
 C692 C 0.73574 0.98002 0.76381
 O693 O 0.75108 0.51517 0.23015
 O694 O 0.73019 0.48513 0.25112
 O695 O 0.73020 0.51521 0.25107
 O696 O 0.75108 0.48509 0.23023
 O697 O 0.76876 0.48510 0.24797
 O698 O 0.74788 0.51523 0.26881
 O699 O 0.74787 0.48515 0.26886
 O700 O 0.76876 0.51518 0.24790
 Cu701 Cu 0.73887 0.50015 0.23887
 Cu702 Cu 0.76009 0.50017 0.26017
 C703 C 0.76348 0.52035 0.23546
 C704 C 0.73548 0.47996 0.26356
 C705 C 0.73549 0.52042 0.26348
 C706 C 0.76347 0.47990 0.23555
 O707 O 0.25152 -0.01507 0.76980
 O708 O 0.23049 0.01503 0.74904
 O709 O 0.23058 -0.01505 0.74896
 O710 O 0.25136 0.01500 0.76994
 O711 O 0.26902 0.01516 0.75217
 O712 O 0.24824 -0.01491 0.73119
 O713 O 0.24815 0.01516 0.73127
 O714 O 0.26918 -0.01491 0.75202
 Cu715 Cu 0.23922 -0.00004 0.76122
 Cu716 Cu 0.26042 0.00014 0.73988
 C717 C 0.26393 -0.02019 0.76444
 C718 C 0.23574 0.02029 0.73662
 C719 C 0.23587 -0.02017 0.73650
 C720 C 0.26373 0.02027 0.76463
 O721 O 0.24847 0.26982 0.98587
 O722 O 0.26983 0.24907 1.01551
 O723 O 0.26987 0.24914 0.98586
 O724 O 0.24848 0.26980 1.01552
 O725 O 0.23123 0.25137 1.01550
 O726 O 0.25261 0.23072 0.98583
 O727 O 0.25257 0.23064 1.01547
 O728 O 0.23122 0.25139 0.98586
 Cu729 Cu 0.26089 0.26131 1.00069
 Cu730 Cu 0.24018 0.23918 1.00066
 C731 C 0.23621 0.26413 0.98074
 C732 C 0.26483 0.23633 1.02061
 C733 C 0.26487 0.23642 0.98072
 C734 C 0.23622 0.26409 1.02063
 O735 O 0.24785 0.76937 0.48549
 O736 O 0.26927 0.74862 0.51507
 O737 O 0.26929 0.74874 0.48542
 O738 O 0.24781 0.76921 0.51513
 O739 O 0.23062 0.75072 0.51506
 O740 O 0.25211 0.73024 0.48534
 O741 O 0.25209 0.73012 0.51499
 O742 O 0.23066 0.75087 0.48541
 Cu743 Cu 0.26028 0.76084 0.50029
 Cu744 Cu 0.23965 0.73864 0.50019
 C745 C 0.23562 0.76365 0.48034
 C746 C 0.26432 0.73585 0.52014
 C747 C 0.26435 0.73601 0.48025
 C748 C 0.23557 0.76345 0.52023
 O749 O 0.26934 0.75107 -0.01559
 O750 O 0.24800 0.73025 0.01400
 O751 O 0.24809 0.73025 -0.01565
 O752 O 0.26927 0.75105 0.01405
 O753 O 0.25192 0.76940 0.01400
 O754 O 0.23074 0.74860 -0.01569
 O755 O 0.23065 0.74860 0.01395
 O756 O 0.25199 0.76942 -0.01564
 Cu757 Cu 0.26041 0.73882 -0.00079
 Cu758 Cu 0.23958 0.76084 -0.00085
 C759 C 0.26429 0.76378 -0.02073
 C760 C 0.23570 0.73589 0.01909
 C761 C 0.23581 0.73589 -0.02080
 C762 C 0.26419 0.76375 0.01916
 O763 O 0.23137 0.24772 0.48505
 O764 O 0.25270 0.26833 0.51475
 O765 O 0.25273 0.26841 0.48512
 O766 O 0.23135 0.24763 0.51469
 O767 O 0.24862 0.22919 0.51466
 O768 O 0.27000 0.24998 0.48508
 O769 O 0.26997 0.24990 0.51473
 O770 O 0.24863 0.22929 0.48501
 Cu771 Cu 0.24031 0.25987 0.49991
 Cu772 Cu 0.26103 0.23774 0.49986
 C773 C 0.23638 0.23501 0.47989
 C774 C 0.26496 0.26262 0.51987
 C775 C 0.26500 0.26273 0.47999
 C776 C 0.23635 0.23488 0.51979
 O777 O 0.74786 0.76947 0.98535
 O778 O 0.76922 0.74875 1.01498
 O779 O 0.76921 0.74876 0.98533
 O780 O 0.74783 0.76942 1.01499
 O781 O 0.73058 0.75099 1.01499
 O782 O 0.75197 0.73033 0.98533
 O783 O 0.75197 0.73032 1.01497
 O784 O 0.73060 0.75104 0.98534
 Cu785 Cu 0.76026 0.76095 1.00016
 Cu786 Cu 0.73955 0.73882 1.00015
 C787 C 0.73560 0.76378 0.98022
 C788 C 0.76423 0.73601 1.02010
 C789 C 0.76423 0.73603 0.98020
 C790 C 0.73558 0.76372 1.02012
 O791 O 0.74795 0.26985 0.48527
 O792 O 0.76922 0.24910 0.51496
 O793 O 0.76935 0.24918 0.48532
 O794 O 0.74787 0.26982 0.51491
 O795 O 0.73063 0.25139 0.51484
 O796 O 0.75211 0.23075 0.48524
 O797 O 0.75197 0.23067 0.51487
 O798 O 0.73070 0.25141 0.48520
 Cu799 Cu 0.76033 0.26134 0.50012
 Cu800 Cu 0.73962 0.23921 0.50003
 C801 C 0.73570 0.26416 0.48011
 C802 C 0.76421 0.23636 0.52005
 C803 C 0.76439 0.23646 0.48017
 C804 C 0.73560 0.26412 0.51999
 O805 O 0.74832 0.23041 0.01481
 O806 O 0.76954 0.25125 -0.01486
 O807 O 0.76968 0.25111 0.01479
 O808 O 0.74825 0.23048 -0.01483
 O809 O 0.73096 0.24889 -0.01473
 O810 O 0.75239 0.26952 0.01491
 O811 O 0.75225 0.26965 -0.01474
 O812 O 0.73103 0.24882 0.01491
 Cu813 Cu 0.76068 0.23897 -0.00003
 Cu814 Cu 0.73992 0.26106 0.00010
 C815 C 0.73606 0.23608 0.01999
 C816 C 0.76450 0.26399 -0.01993
 C817 C 0.76468 0.26382 0.01997
 C818 C 0.73597 0.23618 -0.01990
 O819 O 0.73143 0.74817 0.48489
 O820 O 0.75272 0.76892 0.51452
 O821 O 0.75271 0.76894 0.48488
 O822 O 0.73147 0.74812 0.51453
 O823 O 0.74881 0.72975 0.51450
 O824 O 0.77006 0.75058 0.48485
 O825 O 0.77006 0.75056 0.51450
 O826 O 0.74877 0.72980 0.48485
 Cu827 Cu 0.74035 0.76037 0.49971
 Cu828 Cu 0.76116 0.73833 0.49967
 C829 C 0.73648 0.73546 0.47975
 C830 C 0.76501 0.76327 0.51963
 C831 C 0.76500 0.76330 0.47974
 C832 C 0.73653 0.73540 0.51965
 O833 O 0.98514 0.25119 0.23092
 O834 O 1.01479 0.23028 0.25208
 O835 O 0.98520 0.23022 0.25208
 O836 O 1.01472 0.25121 0.23087
 O837 O 1.01471 0.26943 0.24837
 O838 O 0.98517 0.24844 0.26959
 O839 O 1.01476 0.24850 0.26957
 O840 O 0.98513 0.26941 0.24842
 Cu841 Cu 0.99997 0.23890 0.23974
 Cu842 Cu 0.99994 0.26077 0.26074
 C843 C 0.98001 0.26385 0.23608
 C844 C 1.01989 0.23584 0.26442
 C845 C 0.98008 0.23576 0.26443
 C846 C 1.01982 0.26389 0.23601
 O847 O 0.51471 0.23038 0.75202
 O848 O 0.48510 0.25137 0.73091
 O849 O 0.51468 0.25143 0.73093
 O850 O 0.48513 0.23038 0.75206
 O851 O 0.48511 0.24855 0.76962
 O852 O 0.51465 0.26960 0.74849
 O853 O 0.48507 0.26954 0.74847
 O854 O 0.51469 0.24855 0.76957
 Cu855 Cu 0.49991 0.23907 0.73972
 Cu856 Cu 0.49988 0.26088 0.76079
 C857 C 0.51983 0.23591 0.76438
 C858 C 0.47996 0.26401 0.73610
 C859 C 0.51978 0.26409 0.73612
 C860 C 0.48001 0.23589 0.76443
 O861 O 0.01494 0.25152 0.76949
 O862 O -0.01471 0.23079 0.74826
 O863 O 0.01486 0.23075 0.74816
 O864 O -0.01463 0.25161 0.76954
 O865 O -0.01463 0.26997 0.75216
 O866 O 0.01485 0.24911 0.73077
 O867 O -0.01473 0.24915 0.73087
 O868 O 0.01494 0.26988 0.75210
 Cu869 Cu 0.00012 0.23933 0.76060
 Cu870 Cu 0.00011 0.26136 0.73973
 C871 C 0.02007 0.26422 0.76441
 C872 C -0.01985 0.23644 0.73596
 C873 C 0.01995 0.23638 0.73583
 C874 C -0.01973 0.26434 0.76448
 O875 O 0.48512 0.26982 0.25166
 O876 O 0.51473 0.24885 0.23056
 O877 O 0.48516 0.24881 0.23054
 O878 O 0.51470 0.26985 0.25167
 O879 O 0.51470 0.25166 0.26923
 O880 O 0.48518 0.23063 0.24810
 O881 O 0.51476 0.23067 0.24812
 O882 O 0.48512 0.25164 0.26922
 Cu883 Cu 0.49992 0.26116 0.23935
 Cu884 Cu 0.49994 0.23933 0.26043
 C885 C 0.48000 0.26429 0.26402
 C886 C 0.51987 0.23620 0.23575
 C887 C 0.48007 0.23614 0.23573
 C888 C 0.51981 0.26432 0.26404
 O889 O 1.01459 0.73040 0.75122
 O890 O 0.98506 0.75149 0.73006
 O891 O 1.01466 0.75137 0.73006
 O892 O 0.98500 0.73048 0.75120
 O893 O 0.98504 0.74867 0.76872
 O894 O 1.01469 0.76956 0.74759
 O895 O 0.98511 0.76967 0.74760
 O896 O 1.01461 0.74860 0.76875
 Cu897 Cu 0.99982 0.73911 0.73888
 Cu898 Cu 0.99987 0.76095 0.75992
 C899 C 1.01970 0.73593 0.76358
 C900 C 0.97998 0.76416 0.73524
 C901 C 1.01980 0.76402 0.73524
 C902 C 0.97989 0.73602 0.76355
 O903 O 0.51452 0.77001 0.24788
 O904 O 0.48491 0.74914 0.26911
 O905 O 0.51449 0.74920 0.26920
 O906 O 0.48493 0.77001 0.24785
 O907 O 0.48500 0.75169 0.23045
 O908 O 0.51457 0.73088 0.25179
 O909 O 0.48499 0.73083 0.25170
 O910 O 0.51458 0.75169 0.23048
 Cu911 Cu 0.49971 0.76143 0.26025
 Cu912 Cu 0.49979 0.73944 0.23936
 C913 C 0.51967 0.76440 0.23557
 C914 C 0.47983 0.73643 0.26401
 C915 C 0.51964 0.73651 0.26413
 C916 C 0.47985 0.76438 0.23553
 O917 O -0.01458 0.76963 0.25155
 O918 O 0.01500 0.74869 0.23036
 O919 O -0.01458 0.74873 0.23033
 O920 O 0.01500 0.76963 0.25153
 O921 O 0.01498 0.75137 0.26902
 O922 O -0.01459 0.73049 0.24782
 O923 O 0.01499 0.73043 0.24785
 O924 O -0.01459 0.75138 0.26904
 Cu925 Cu 0.00022 0.76100 0.23919
 Cu926 Cu 0.00020 0.73909 0.26018
 C927 C -0.01970 0.76406 0.26389
 C928 C 0.02011 0.73600 0.23551
 C929 C -0.01970 0.73606 0.23547
 C930 C 0.02011 0.76405 0.26388
 O931 O 0.48546 0.77000 0.75138
 O932 O 0.51496 0.74908 0.73007
 O933 O 0.48538 0.74909 0.73017
 O934 O 0.51504 0.76998 0.75128
 O935 O 0.51508 0.75171 0.76875
 O936 O 0.48544 0.73083 0.74765
 O937 O 0.51502 0.73081 0.74755
 O938 O 0.48551 0.75173 0.76885
 Cu939 Cu 0.50020 0.76136 0.73897
 Cu940 Cu 0.50027 0.73944 0.75995
 C941 C 0.48038 0.76442 0.76374
 C942 C 0.52009 0.73639 0.73519
 C943 C 0.48028 0.73641 0.73533
 C944 C 0.52018 0.76439 0.76361
 C945 C 0.40847 0.30900 0.30867
 C946 C 0.40792 0.31035 0.32452
 C947 C 0.39538 0.31722 0.33153
 C948 C 0.38322 0.32285 0.32276
 C949 C 0.38393 0.32152 0.30683
 C950 C 0.39647 0.31463 0.29985
 C951 C 0.42121 0.30166 0.30143
 C952 C 0.43175 0.29542 0.29523
 C953 C 0.44419 0.28786 0.28767
 C954 C 0.45013 0.27412 0.29354
 C955 C 0.46190 0.26651 0.28594
 C956 C 0.46786 0.27257 0.27234
 C957 C 0.46190 0.28648 0.26662
 C958 C 0.45014 0.29406 0.27424
 H959 H 0.41716 0.30605 0.33145
 H960 H 0.39525 0.31825 0.34380
 H961 H 0.37466 0.32554 0.29979
 H962 H 0.39674 0.31359 0.28757
 H963 H 0.44559 0.26921 0.30392
 H964 H 0.46623 0.25584 0.29064
 H965 H 0.46623 0.29145 0.25618
 H966 H 0.44560 0.30468 0.26959
 C967 C 0.40911 0.80871 0.80920
 C968 C 0.39927 0.79984 0.81805
 C969 C 0.38669 0.80665 0.82502
 C970 C 0.38362 0.82260 0.82328
 C971 C 0.39384 0.83138 0.81435
 C972 C 0.40641 0.82449 0.80742
 C973 C 0.42182 0.80154 0.80173
 C974 C 0.43233 0.79539 0.79539
 C975 C 0.44472 0.78789 0.78771
 C976 C 0.45067 0.77410 0.79345
 C977 C 0.46239 0.76653 0.78575
 C978 C 0.46830 0.77267 0.77216
 C979 C 0.46233 0.78663 0.76655
 C980 C 0.45061 0.79417 0.77428
 H981 H 0.40118 0.78756 0.81938
 H982 H 0.37908 0.79911 0.83116
 H983 H 0.39258 0.84372 0.81305
 H984 H 0.41405 0.83151 0.80068
 H985 H 0.44618 0.76913 0.80382
 H986 H 0.46672 0.75582 0.79037
 H987 H 0.46662 0.79166 0.75613
 H988 H 0.44606 0.80483 0.76973
 C989 C -0.09103 0.30863 0.80990
 C990 C -0.09372 0.32440 0.80806
 C991 C -0.10631 0.33131 0.81494
 C992 C -0.11656 0.32256 0.82387
 C993 C -0.11349 0.30662 0.82567
 C994 C -0.10090 0.29978 0.81874
 C995 C -0.07832 0.30143 0.80247
 C996 C -0.06780 0.29527 0.79614
 C997 C -0.05540 0.28778 0.78847
 C998 C -0.04945 0.29411 0.77510
 C999 C -0.03773 0.28658 0.76737
 C1000 C -0.03182 0.27257 0.77292
 C1001 C -0.03778 0.26638 0.78645
 C1002 C -0.04950 0.27394 0.79416
 H1003 H -0.08606 0.33139 0.80132
 H1004 H -0.10757 0.34365 0.81360
 H1005 H -0.12112 0.29909 0.83180
 H1006 H -0.09899 0.28750 0.82012
 H1007 H -0.05396 0.30481 0.77058
 H1008 H -0.03340 0.29165 0.75698
 H1009 H -0.03349 0.25562 0.79103
 H1010 H -0.05404 0.26892 0.80449
 C1011 C -0.09131 0.80862 0.30855
 C1012 C -0.10328 0.81423 0.29967
 C1013 C -0.11583 0.82114 0.30659
 C1014 C -0.11659 0.82253 0.32252
 C1015 C -0.10448 0.81690 0.33135
 C1016 C -0.09192 0.81000 0.32440
 C1017 C -0.07853 0.80129 0.30136
 C1018 C -0.06796 0.79507 0.29518
 C1019 C -0.05551 0.78755 0.28762
 C1020 C -0.04955 0.79380 0.27422
 C1021 C -0.03778 0.78626 0.26657
 C1022 C -0.03183 0.77232 0.27224
 C1023 C -0.03780 0.76621 0.28581
 C1024 C -0.04957 0.77378 0.29343
 H1025 H -0.10295 0.81317 0.28740
 H1026 H -0.12507 0.82515 0.29950
 H1027 H -0.10466 0.81796 0.34362
 H1028 H -0.08270 0.80571 0.33137
 H1029 H -0.05408 0.80445 0.26960
 H1030 H -0.03344 0.79127 0.25616
 H1031 H -0.03348 0.75551 0.29048
 H1032 H -0.05412 0.76883 0.30379
 C1033 C 0.59108 0.69245 0.30957
 C1034 C 0.59187 0.67637 0.31081
 C1035 C 0.60443 0.66942 0.31772
 C1036 C 0.61636 0.67849 0.32348
 C1037 C 0.61540 0.69466 0.32225
 C1038 C 0.60284 0.70157 0.31534
 C1039 C 0.57834 0.69962 0.30214
 C1040 C 0.56781 0.70574 0.29580
 C1041 C 0.55539 0.71319 0.28812
 C1042 C 0.54949 0.70685 0.27474
 C1043 C 0.53774 0.71435 0.26700
 C1044 C 0.53175 0.72831 0.27256
 C1045 C 0.53767 0.73451 0.28611
 C1046 C 0.54941 0.72699 0.29382
 H1047 H 0.58282 0.66920 0.30640
 H1048 H 0.60477 0.65697 0.31866
 H1049 H 0.62449 0.70194 0.32637
 H1050 H 0.60237 0.71403 0.31437
 H1051 H 0.55405 0.69619 0.27021
 H1052 H 0.53345 0.70927 0.25661
 H1053 H 0.53332 0.74523 0.29069
 H1054 H 0.55392 0.73201 0.30416
 C1055 C 0.59160 0.19176 0.80919
 C1056 C 0.59248 0.17568 0.81048
 C1057 C 0.60505 0.16882 0.81745
 C1058 C 0.61692 0.17798 0.82322
 C1059 C 0.61589 0.19413 0.82190
 C1060 C 0.60331 0.20096 0.81493
 C1061 C 0.57880 0.19885 0.80180
 C1062 C 0.56821 0.20496 0.79555
 C1063 C 0.55573 0.21244 0.78800
 C1064 C 0.54977 0.20621 0.77459
 C1065 C 0.53797 0.21374 0.76698
 C1066 C 0.53198 0.22764 0.77269
 C1067 C 0.53795 0.23373 0.78626
 C1068 C 0.54975 0.22617 0.79385
 H1069 H 0.58346 0.16845 0.80609
 H1070 H 0.60544 0.15637 0.81845
 H1071 H 0.62493 0.20148 0.82603
 H1072 H 0.60278 0.21341 0.81392
 H1073 H 0.55433 0.19559 0.76995
 H1074 H 0.53364 0.20875 0.75656
 H1075 H 0.53360 0.24440 0.79096
 H1076 H 0.55429 0.23111 0.80421
 C1077 C 1.09118 0.69164 0.80872
 C1078 C 1.10293 0.70080 0.81445
 C1079 C 1.11549 0.69395 0.82142
 C1080 C 1.11647 0.67779 0.82275
 C1081 C 1.10456 0.66867 0.81702
 C1082 C 1.09200 0.67556 0.81006
 C1083 C 1.07843 0.69876 0.80129
 C1084 C 1.06788 0.70488 0.79498
 C1085 C 1.05545 0.71238 0.78737
 C1086 C 1.04949 0.72613 0.79318
 C1087 C 1.03774 0.73372 0.78553
 C1088 C 1.03181 0.72763 0.77194
 C1089 C 1.03778 0.71371 0.76627
 C1090 C 1.04953 0.70615 0.77394
 H1091 H 1.10244 0.71326 0.81341
 H1092 H 1.12456 0.70127 0.82551
 H1093 H 1.10491 0.65622 0.81804
 H1094 H 1.08296 0.66836 0.80568
 H1095 H 1.05400 0.73107 0.80355
 H1096 H 1.03341 0.74441 0.79020
 H1097 H 1.03347 0.70872 0.75584
 H1098 H 1.05408 0.69552 0.76933
 C1099 C 1.09139 0.19156 0.30958
 C1100 C 1.09409 0.17580 0.30773
 C1101 C 1.10667 0.16887 0.31460
 C1102 C 1.11692 0.17760 0.32353
 C1103 C 1.11385 0.19354 0.32535
 C1104 C 1.10126 0.20039 0.31843
 C1105 C 1.07867 0.19877 0.30216
 C1106 C 1.06814 0.20492 0.29586
 C1107 C 1.05571 0.21242 0.28822
 C1108 C 1.04980 0.20615 0.27481
 C1109 C 1.03803 0.21368 0.26713
 C1110 C 1.03204 0.22760 0.27278
 C1111 C 1.03798 0.23373 0.28635
 C1112 C 1.04974 0.22618 0.29400
 H1113 H 1.08643 0.16881 0.30098
 H1114 H 1.10793 0.15654 0.31325
 H1115 H 1.12147 0.20106 0.33150
 H1116 H 1.09935 0.21267 0.31982
 H1117 H 1.05435 0.19551 0.27022
 H1118 H 1.03372 0.20866 0.25672
 H1119 H 1.03362 0.24442 0.29100
 H1120 H 1.05425 0.23114 0.30436
 C1121 C 0.59142 0.30836 0.69124
 C1122 C 0.60309 0.29916 0.68539
 C1123 C 0.61565 0.30599 0.67841
 C1124 C 0.61671 0.32214 0.67718
 C1125 C 0.60489 0.33130 0.68305
 C1126 C 0.59233 0.32444 0.69004
 C1127 C 0.57864 0.30125 0.69864
 C1128 C 0.56806 0.29513 0.70490
 C1129 C 0.55560 0.28763 0.71246
 C1130 C 0.54965 0.27389 0.70662
 C1131 C 0.53788 0.26631 0.71422
 C1132 C 0.53190 0.27238 0.72780
 C1133 C 0.53786 0.28629 0.73350
 C1134 C 0.54963 0.29385 0.72588
 H1135 H 0.60253 0.28670 0.68633
 H1136 H 0.62466 0.29864 0.67420
 H1137 H 0.60531 0.34375 0.68213
 H1138 H 0.58334 0.33167 0.69451
 H1139 H 0.55421 0.26897 0.69625
 H1140 H 0.53356 0.25563 0.70952
 H1141 H 0.53352 0.29127 0.74392
 H1142 H 0.55417 0.30447 0.73052
 C1143 C 0.59121 0.80848 0.19032
 C1144 C 0.59393 0.82424 0.19215
 C1145 C 0.60653 0.83113 0.18528
 C1146 C 0.61678 0.82235 0.17637
 C1147 C 0.61368 0.80642 0.17457
 C1148 C 0.60107 0.79961 0.18149
 C1149 C 0.57847 0.80132 0.19774
 C1150 C 0.56792 0.79520 0.20406
 C1151 C 0.55549 0.78774 0.21171
 C1152 C 0.54953 0.79407 0.22507
 C1153 C 0.53776 0.78657 0.23277
 C1154 C 0.53181 0.77261 0.22719
 C1155 C 0.53778 0.76642 0.21365
 C1156 C 0.54955 0.77394 0.20598
 H1157 H 0.58627 0.83125 0.19888
 H1158 H 0.60780 0.84346 0.18662
 H1159 H 0.62131 0.79888 0.16844
 H1160 H 0.59915 0.78734 0.18011
 H1161 H 0.55406 0.80473 0.22962
 H1162 H 0.53342 0.79164 0.24315
 H1163 H 0.53346 0.75570 0.20905
 H1164 H 0.55409 0.76893 0.19565
 C1165 C 1.09112 0.30829 0.19070
 C1166 C 1.09381 0.32406 0.19253
 C1167 C 1.10638 0.33097 0.18563
 C1168 C 1.11663 0.32222 0.17670
 C1169 C 1.11356 0.30628 0.17490
 C1170 C 1.10098 0.29945 0.18184
 C1171 C 1.07841 0.30109 0.19814
 C1172 C 1.06790 0.29493 0.20447
 C1173 C 1.05551 0.28741 0.21213
 C1174 C 1.04959 0.29366 0.22556
 C1175 C 1.03787 0.28610 0.23326
 C1176 C 1.03191 0.27216 0.22763
 C1177 C 1.03785 0.26605 0.21404
 C1178 C 1.04957 0.27363 0.20636
 H1179 H 1.08615 0.33105 0.19928
 H1180 H 1.10764 0.34330 0.18698
 H1181 H 1.12118 0.29876 0.16875
 H1182 H 1.09907 0.28717 0.18046
 H1183 H 1.05413 0.30431 0.23014
 H1184 H 1.03357 0.29110 0.24369
 H1185 H 1.03352 0.25535 0.20940
 H1186 H 1.05408 0.26868 0.19599
 C1187 C 1.09160 0.80852 0.69081
 C1188 C 1.09420 0.80669 0.67525
 C1189 C 1.10682 0.81357 0.66840
 C1190 C 1.11719 0.82249 0.67699
 C1191 C 1.11423 0.82426 0.69273
 C1192 C 1.10161 0.81734 0.69951
 C1193 C 1.07881 0.80116 0.69795
 C1194 C 1.06822 0.79494 0.70409
 C1195 C 1.05573 0.78744 0.71162
 C1196 C 1.04977 0.77371 0.70577
 C1197 C 1.03796 0.76616 0.71335
 C1198 C 1.03197 0.77225 0.72692
 C1199 C 1.03795 0.78615 0.73262
 C1200 C 1.04976 0.79368 0.72502
 H1201 H 1.08644 0.79997 0.66838
 H1202 H 1.10800 0.81224 0.65623
 H1203 H 1.12196 0.83038 0.70013
 H1204 H 1.09978 0.81872 0.71162
 H1205 H 1.05433 0.76877 0.69541
 H1206 H 1.03362 0.75548 0.70866
 H1207 H 1.03361 0.79115 0.74303
 H1208 H 1.05431 0.80429 0.72966
 C1209 C 0.40862 0.69170 0.69099
 C1210 C 0.39670 0.68611 0.69994
 C1211 C 0.38415 0.67912 0.69310
 C1212 C 0.38336 0.67762 0.67719
 C1213 C 0.39543 0.68323 0.66829
 C1214 C 0.40798 0.69022 0.67516
 C1215 C 0.42140 0.69910 0.69810
 C1216 C 0.43197 0.70536 0.70422
 C1217 C 0.44443 0.71290 0.71174
 C1218 C 0.45046 0.70664 0.72510
 C1219 C 0.46224 0.71420 0.73270
 C1220 C 0.46814 0.72815 0.72702
 C1221 C 0.46209 0.73427 0.71349
 C1222 C 0.45031 0.72669 0.70591
 H1223 H 0.39705 0.68725 0.71221
 H1224 H 0.37494 0.67512 0.70025
 H1225 H 0.39522 0.68209 0.65603
 H1226 H 0.41716 0.69449 0.66813
 H1227 H 0.44597 0.69598 0.72972
 H1228 H 0.46663 0.70918 0.74309
 H1229 H 0.46637 0.74498 0.70882
 H1230 H 0.44570 0.73164 0.69558
 C1231 C 0.40877 0.19110 0.19113
 C1232 C 0.39872 0.18229 0.19980
 C1233 C 0.38616 0.17532 0.19297
 C1234 C 0.38331 0.17703 0.17721
 C1235 C 0.39373 0.18594 0.16864
 C1236 C 0.40629 0.19286 0.17554
 C1237 C 0.42148 0.19854 0.19831
 C1238 C 0.43200 0.20485 0.20449
 C1239 C 0.44439 0.21245 0.21205
 C1240 C 0.45035 0.20627 0.22548
 C1241 C 0.46207 0.21389 0.23312
 C1242 C 0.46797 0.22783 0.22740
 C1243 C 0.46199 0.23387 0.21381
 C1244 C 0.45027 0.22623 0.20620
 H1245 H 0.40047 0.18097 0.21192
 H1246 H 0.37839 0.16922 0.20034
 H1247 H 0.39263 0.18721 0.15646
 H1248 H 0.41409 0.19958 0.16869
 H1249 H 0.44586 0.19563 0.23012
 H1250 H 0.46641 0.20893 0.24355
 H1251 H 0.46628 0.24457 0.20911
 H1252 H 0.44572 0.23112 0.19582
 C1253 C -0.09138 0.69160 0.19093
 C1254 C -0.10331 0.68601 0.19986
 C1255 C -0.11588 0.67907 0.19300
 C1256 C -0.11668 0.67763 0.17709
 C1257 C -0.10460 0.68326 0.16820
 C1258 C -0.09204 0.69020 0.17509
 C1259 C -0.07859 0.69894 0.19806
 C1260 C -0.06800 0.70515 0.20422
 C1261 C -0.05553 0.71264 0.21176
 C1262 C -0.04957 0.70637 0.22516
 C1263 C -0.03779 0.71390 0.23279
 C1264 C -0.03183 0.72782 0.22713
 C1265 C -0.03781 0.73395 0.21356
 C1266 C -0.04959 0.72640 0.20595
 H1267 H -0.10295 0.68710 0.21213
 H1268 H -0.12509 0.67506 0.20014
 H1269 H -0.10482 0.68217 0.15593
 H1270 H -0.08285 0.69447 0.16807
 H1271 H -0.05411 0.69574 0.22977
 H1272 H -0.03346 0.70887 0.24320
 H1273 H -0.03348 0.74465 0.20890
 H1274 H -0.05414 0.73137 0.19560
 C1275 C -0.09140 0.19241 0.69080
 C1276 C -0.09222 0.17632 0.68956
 C1277 C -0.10477 0.16941 0.68263
 C1278 C -0.11667 0.17851 0.67684
 C1279 C -0.11570 0.19467 0.67808
 C1280 C -0.10315 0.20155 0.68502
 C1281 C -0.07866 0.19955 0.69820
 C1282 C -0.06810 0.20567 0.70449
 C1283 C -0.05567 0.21313 0.71212
 C1284 C -0.04969 0.20678 0.72547
 C1285 C -0.03792 0.21427 0.73315
 C1286 C -0.03199 0.22825 0.72758
 C1287 C -0.03799 0.23447 0.71407
 C1288 C -0.04976 0.22695 0.70641
 H1289 H -0.08318 0.16914 0.69399
 H1290 H -0.10512 0.15695 0.68169
 H1291 H -0.12477 0.20197 0.67393
 H1292 H -0.10266 0.21401 0.68597
 H1293 H -0.05420 0.19609 0.73000
 H1294 H -0.03356 0.20918 0.74352
 H1295 H -0.03369 0.24521 0.70948
 H1296 H -0.05433 0.23199 0.69610
 C1297 C 0.30805 0.40792 0.30979
 C1298 C 0.29935 0.39576 0.31557
 C1299 C 0.30643 0.38316 0.32252
 C1300 C 0.32234 0.38256 0.32376
 C1301 C 0.33098 0.39489 0.31798
 C1302 C 0.32387 0.40749 0.31104
 C1303 C 0.30072 0.42070 0.30234
 C1304 C 0.29449 0.43129 0.29600
 C1305 C 0.28695 0.44379 0.28831
 C1306 C 0.27341 0.44980 0.29416
 C1307 C 0.26585 0.46165 0.28647
 C1308 C 0.27172 0.46764 0.27281
 C1309 C 0.28541 0.46159 0.26709
 C1310 C 0.29295 0.44974 0.27479
 H1311 H 0.28709 0.39595 0.31460
 H1312 H 0.29948 0.37375 0.32666
 H1313 H 0.34323 0.39484 0.31893
 H1314 H 0.33071 0.41686 0.30662
 H1315 H 0.26865 0.44526 0.30460
 H1316 H 0.25534 0.46604 0.29118
 H1317 H 0.29024 0.46593 0.25660
 H1318 H 0.30341 0.44515 0.27016
 C1319 C 0.30947 -0.09218 0.80876
 C1320 C 0.31843 -0.10219 0.80016
 C1321 C 0.32554 -0.11480 0.80705
 C1322 C 0.32381 -0.11774 0.82280
 C1323 C 0.31475 -0.10736 0.83130
 C1324 C 0.30769 -0.09475 0.82434
 C1325 C 0.30190 -0.07941 0.80154
 C1326 C 0.29550 -0.06883 0.79536
 C1327 C 0.28779 -0.05634 0.78783
 C1328 C 0.29364 -0.05024 0.77431
 C1329 C 0.28595 -0.03838 0.76676
 C1330 C 0.27228 -0.03247 0.77264
 C1331 C 0.26655 -0.03860 0.78631
 C1332 C 0.27427 -0.05046 0.79384
 H1333 H 0.31976 -0.10038 0.78804
 H1334 H 0.33177 -0.12256 0.79972
 H1335 H 0.31345 -0.10850 0.84347
 H1336 H 0.30086 -0.08697 0.83114
 H1337 H 0.30409 -0.05472 0.76955
 H1338 H 0.29067 -0.03393 0.75627
 H1339 H 0.25606 -0.03432 0.79114
 H1340 H 0.26963 -0.05512 0.80429
 C1341 C 0.80939 0.40777 0.80885
 C1342 C 0.80754 0.40523 0.82442
 C1343 C 0.81456 0.39263 0.83145
 C1344 C 0.82364 0.38221 0.82301
 C1345 C 0.82543 0.38511 0.80726
 C1346 C 0.81837 0.39771 0.80031
 C1347 C 0.80189 0.42054 0.80156
 C1348 C 0.79555 0.43112 0.79532
 C1349 C 0.78789 0.44361 0.78774
 C1350 C 0.77440 0.44959 0.79373
 C1351 C 0.76674 0.46144 0.78614
 C1352 C 0.77248 0.46747 0.77243
 C1353 C 0.78612 0.46146 0.76657
 C1354 C 0.79375 0.44961 0.77418
 H1355 H 0.80070 0.41304 0.83118
 H1356 H 0.81320 0.39153 0.84362
 H1357 H 0.83168 0.37732 0.79998
 H1358 H 0.81976 0.39949 0.78819
 H1359 H 0.76975 0.44501 0.80421
 H1360 H 0.75628 0.46581 0.79096
 H1361 H 0.79084 0.46583 0.75605
 H1362 H 0.80418 0.44505 0.76943
 C1363 C 0.80845 -0.09233 0.30931
 C1364 C 0.81733 -0.10231 0.30059
 C1365 C 0.82452 -0.11492 0.30737
 C1366 C 0.82298 -0.11791 0.32313
 C1367 C 0.81397 -0.10757 0.33175
 C1368 C 0.80682 -0.09495 0.32489
 C1369 C 0.80085 -0.07952 0.30218
 C1370 C 0.79447 -0.06892 0.29603
 C1371 C 0.78682 -0.05640 0.28847
 C1372 C 0.79273 -0.05036 0.27496
 C1373 C 0.78512 -0.03849 0.26735
 C1374 C 0.77145 -0.03252 0.27318
 C1375 C 0.76566 -0.03859 0.28684
 C1376 C 0.77330 -0.05046 0.29443
 H1377 H 0.81855 -0.10045 0.28846
 H1378 H 0.83070 -0.12265 0.29996
 H1379 H 0.81278 -0.10875 0.34393
 H1380 H 0.80004 -0.08720 0.33178
 H1381 H 0.80318 -0.05489 0.27023
 H1382 H 0.78988 -0.03408 0.25686
 H1383 H 0.75517 -0.03425 0.29163
 H1384 H 0.76861 -0.05507 0.30487
 C1385 C 0.30851 0.59217 0.69118
 C1386 C 0.30995 0.59278 0.67534
 C1387 C 0.31708 0.60539 0.66843
 C1388 C 0.32288 0.61754 0.67731
 C1389 C 0.32141 0.61678 0.69322
 C1390 C 0.31428 0.60418 0.70010
 C1391 C 0.30099 0.57933 0.69832
 C1392 C 0.29465 0.56870 0.70447
 C1393 C 0.28704 0.55616 0.71201
 C1394 C 0.27352 0.55023 0.70607
 C1395 C 0.26590 0.53834 0.71364
 C1396 C 0.27172 0.53223 0.72728
 C1397 C 0.28539 0.53819 0.73308
 C1398 C 0.29299 0.55008 0.72549
 H1399 H 0.30555 0.58353 0.66833
 H1400 H 0.31819 0.60556 0.65617
 H1401 H 0.32556 0.62606 0.70035
 H1402 H 0.31317 0.60385 0.71236
 H1403 H 0.26880 0.55487 0.69565
 H1404 H 0.25540 0.53401 0.70887
 H1405 H 0.29018 0.53375 0.74355
 H1406 H 0.30344 0.55460 0.73020
 C1407 C 0.30885 1.09210 0.19118
 C1408 C 0.30714 1.09471 0.17561
 C1409 C 0.31424 1.10733 0.16870
 C1410 C 0.32327 1.11768 0.17726
 C1411 C 0.32491 1.11472 0.19301
 C1412 C 0.31777 1.10210 0.19984
 C1413 C 0.30131 1.07930 0.19837
 C1414 C 0.29495 1.06870 0.20455
 C1415 C 0.28732 1.05619 0.21212
 C1416 C 0.27381 1.05024 0.20618
 C1417 C 0.26617 1.03838 0.21378
 C1418 C 0.27196 1.03232 0.22745
 C1419 C 0.28563 1.03830 0.23326
 C1420 C 0.29323 1.05016 0.22564
 H1421 H 0.30035 1.08696 0.16876
 H1422 H 0.31299 1.10850 0.15652
 H1423 H 0.33110 1.12245 0.20038
 H1424 H 0.31905 1.10026 0.21196
 H1425 H 0.26911 1.05485 0.19573
 H1426 H 0.25568 1.03404 0.20900
 H1427 H 0.29039 1.03390 0.24375
 H1428 H 0.30368 1.05470 0.23036
 C1429 C 0.80871 0.59232 0.19085
 C1430 C 0.80703 0.59488 0.17526
 C1431 C 0.81412 0.60749 0.16833
 C1432 C 0.82312 0.61788 0.17688
 C1433 C 0.82472 0.61496 0.19265
 C1434 C 0.81758 0.60235 0.19950
 C1435 C 0.80116 0.57953 0.19805
 C1436 C 0.79479 0.56895 0.20424
 C1437 C 0.78715 0.55645 0.21183
 C1438 C 0.77364 0.55050 0.20588
 C1439 C 0.76599 0.53865 0.21348
 C1440 C 0.77177 0.53262 0.22717
 C1441 C 0.78542 0.53860 0.23300
 C1442 C 0.79304 0.55045 0.22537
 H1443 H 0.80026 0.58709 0.16842
 H1444 H 0.81290 0.60863 0.15615
 H1445 H 0.83089 0.62273 0.20001
 H1446 H 0.81884 0.60055 0.21163
 H1447 H 0.76897 0.55509 0.19541
 H1448 H 0.75551 0.53430 0.20870
 H1449 H 0.79017 0.53422 0.24350
 H1450 H 0.80348 0.55499 0.23009
 C1451 C 0.80881 1.09279 0.69152
 C1452 C 0.81018 1.09337 0.67567
 C1453 C 0.81726 1.10598 0.66871
 C1454 C 0.82307 1.11817 0.67754
 C1455 C 0.82169 1.11743 0.69346
 C1456 C 0.81461 1.10482 0.70039
 C1457 C 0.80131 1.07997 0.69871
 C1458 C 0.79497 1.06934 0.70487
 C1459 C 0.78733 1.05680 0.71239
 C1460 C 0.77381 1.05090 0.70643
 C1461 C 0.76617 1.03900 0.71398
 C1462 C 0.77198 1.03286 0.72761
 C1463 C 0.78566 1.03879 0.73343
 C1464 C 0.79327 1.05068 0.72586
 H1465 H 0.80575 1.08411 0.66870
 H1466 H 0.81830 1.10613 0.65645
 H1467 H 0.82585 1.12672 0.70055
 H1468 H 0.81355 1.10452 0.71266
 H1469 H 0.76910 1.05557 0.69602
 H1470 H 0.75567 1.03470 0.70920
 H1471 H 0.79043 1.03432 0.74389
 H1472 H 0.80372 1.05518 0.73058
 C1473 C 0.69058 0.59264 0.30804
 C1474 C 0.68933 0.59317 0.32390
 C1475 C 0.68234 0.60577 0.33095
 C1476 C 0.67650 0.61801 0.32220
 C1477 C 0.67776 0.61733 0.30626
 C1478 C 0.68476 0.60473 0.29925
 C1479 C 0.69801 0.57983 0.30077
 C1480 C 0.70431 0.56921 0.29455
 C1481 C 0.71191 0.55667 0.28699
 C1482 C 0.72539 0.55067 0.29297
 C1483 C 0.73300 0.53877 0.28541
 C1484 C 0.72723 0.53274 0.27173
 C1485 C 0.71359 0.53877 0.26587
 C1486 C 0.70600 0.55066 0.27346
 H1487 H 0.69378 0.58386 0.33081
 H1488 H 0.68138 0.60588 0.34322
 H1489 H 0.67357 0.62667 0.29924
 H1490 H 0.68572 0.60447 0.28697
 H1491 H 0.73007 0.55525 0.30343
 H1492 H 0.74347 0.53439 0.29021
 H1493 H 0.70884 0.53439 0.25538
 H1494 H 0.69559 0.55525 0.26872
 C1495 C 0.69128 1.09253 0.80919
 C1496 C 0.69981 1.10267 0.81807
 C1497 C 0.69287 1.11529 0.82510
 C1498 C 0.67714 1.11812 0.82337
 C1499 C 0.66871 1.10762 0.81438
 C1500 C 0.67573 1.09500 0.80740
 C1501 C 0.69857 1.07975 0.80171
 C1502 C 0.70478 1.06915 0.79537
 C1503 C 0.71233 1.05665 0.78771
 C1504 C 0.72585 1.05062 0.79358
 C1505 C 0.73342 1.03875 0.78592
 C1506 C 0.72756 1.03277 0.77226
 C1507 C 0.71389 1.03882 0.76651
 C1508 C 0.70634 1.05069 0.77419
 H1509 H 0.71192 1.10094 0.81941
 H1510 H 0.70014 1.12314 0.83128
 H1511 H 0.65656 1.10867 0.81308
 H1512 H 0.66898 1.08713 0.80063
 H1513 H 0.73060 1.05517 0.80402
 H1514 H 0.74391 1.03436 0.79065
 H1515 H 0.70907 1.03448 0.75603
 H1516 H 0.69589 1.05529 0.76954
 C1517 C 0.19065 0.59209 0.80832
 C1518 C 0.18174 0.60217 0.79973
 C1519 C 0.17470 0.61481 0.80663
 C1520 C 0.17644 0.61772 0.82238
 C1521 C 0.18545 0.60727 0.83086
 C1522 C 0.19245 0.59464 0.82389
 C1523 C 0.19812 0.57928 0.80107
 C1524 C 0.20443 0.56867 0.79485
 C1525 C 0.21202 0.55615 0.78726
 C1526 C 0.20606 0.55013 0.77376
 C1527 C 0.21364 0.53825 0.76614
 C1528 C 0.22730 0.53224 0.77193
 C1529 C 0.23313 0.53828 0.78558
 C1530 C 0.22553 0.55016 0.79319
 H1531 H 0.18039 0.60039 0.78761
 H1532 H 0.16850 0.62261 0.79931
 H1533 H 0.18677 0.60839 0.84304
 H1534 H 0.19924 0.58681 0.83068
 H1535 H 0.19562 0.55470 0.76907
 H1536 H 0.20884 0.53387 0.75566
 H1537 H 0.24362 0.53391 0.79034
 H1538 H 0.23025 0.55475 0.80362
 C1539 C 0.19078 1.09225 0.30844
 C1540 C 0.19262 1.09475 0.32401
 C1541 C 0.18565 1.10737 0.33104
 C1542 C 0.17661 1.11784 0.32260
 C1543 C 0.17483 1.11497 0.30685
 C1544 C 0.18185 1.10235 0.29990
 C1545 C 0.19824 1.07946 0.30114
 C1546 C 0.20455 1.06886 0.29491
 C1547 C 0.21216 1.05634 0.28733
 C1548 C 0.22566 1.05034 0.29329
 C1549 C 0.23327 1.03846 0.28571
 C1550 C 0.22747 1.03241 0.27204
 C1551 C 0.21383 1.03844 0.26621
 C1552 C 0.20624 1.05033 0.27381
 H1553 H 0.19943 1.08691 0.33077
 H1554 H 0.18699 1.10845 0.34321
 H1555 H 0.16861 1.12279 0.29957
 H1556 H 0.18047 1.10059 0.28778
 H1557 H 0.23035 1.05493 0.30374
 H1558 H 0.24374 1.03408 0.29050
 H1559 H 0.20906 1.03406 0.25572
 H1560 H 0.19581 1.05490 0.26909
 C1561 C 0.69147 0.40748 0.69145
 C1562 C 0.67565 0.40697 0.69019
 C1563 C 0.66860 0.39439 0.68317
 C1564 C 0.67732 0.38215 0.67731
 C1565 C 0.69322 0.38280 0.67858
 C1566 C 0.70023 0.39538 0.68561
 C1567 C 0.69874 0.42029 0.69887
 C1568 C 0.70497 0.43090 0.70516
 C1569 C 0.71255 0.44343 0.71274
 C1570 C 0.70663 0.44944 0.72627
 C1571 C 0.71422 0.46133 0.73386
 C1572 C 0.72785 0.46736 0.72800
 C1573 C 0.73363 0.46133 0.71432
 C1574 C 0.72603 0.44943 0.70676
 H1575 H 0.66876 0.41628 0.69465
 H1576 H 0.65636 0.39429 0.68220
 H1577 H 0.70023 0.37346 0.67438
 H1578 H 0.71249 0.39563 0.68658
 H1579 H 0.69622 0.44486 0.73101
 H1580 H 0.70946 0.46572 0.74436
 H1581 H 0.74409 0.46570 0.70951
 H1582 H 0.73071 0.44485 0.69630
 C1583 C 0.69083 -0.09243 0.19190
 C1584 C 0.69969 -0.10454 0.18625
 C1585 C 0.69280 -0.11714 0.17914
 C1586 C 0.67692 -0.11780 0.17759
 C1587 C 0.66811 -0.10555 0.18328
 C1588 C 0.67503 -0.09295 0.19039
 C1589 C 0.69799 -0.07959 0.19938
 C1590 C 0.70415 -0.06896 0.20570
 C1591 C 0.71169 -0.05642 0.21330
 C1592 C 0.72518 -0.05041 0.20736
 C1593 C 0.73277 -0.03853 0.21495
 C1594 C 0.72695 -0.03250 0.22862
 C1595 C 0.71330 -0.03853 0.23443
 C1596 C 0.70573 -0.05041 0.22681
 H1597 H 0.71193 -0.10429 0.18741
 H1598 H 0.69988 -0.12649 0.17507
 H1599 H 0.65588 -0.10565 0.18211
 H1600 H 0.66807 -0.08362 0.19471
 H1601 H 0.72990 -0.05499 0.19692
 H1602 H 0.74325 -0.03415 0.21017
 H1603 H 0.70851 -0.03415 0.24492
 H1604 H 0.69530 -0.05500 0.23152
 C1605 C 0.19082 0.40754 0.19188
 C1606 C 0.18494 0.39552 0.20073
 C1607 C 0.17791 0.38291 0.19377
 C1608 C 0.17667 0.38216 0.17783
 C1609 C 0.18256 0.39433 0.16903
 C1610 C 0.18959 0.40694 0.17603
 C1611 C 0.19825 0.42037 0.19910
 C1612 C 0.20454 0.43101 0.20529
 C1613 C 0.21213 0.44356 0.21283
 C1614 C 0.20617 0.44963 0.22631
 C1615 C 0.21374 0.46154 0.23388
 C1616 C 0.22741 0.46751 0.22807
 C1617 C 0.23325 0.46141 0.21444
 C1618 C 0.22565 0.44951 0.20688
 H1619 H 0.18589 0.39584 0.21301
 H1620 H 0.17369 0.37363 0.20084
 H1621 H 0.18162 0.39416 0.15676
 H1622 H 0.19407 0.41620 0.16907
 H1623 H 0.19572 0.44509 0.23102
 H1624 H 0.20894 0.46597 0.24434
 H1625 H 0.24374 0.46575 0.20966
 H1626 H 0.23037 0.44487 0.19647
 C1627 C 0.19149 -0.09236 0.69148
 C1628 C 0.20030 -0.10451 0.68583
 C1629 C 0.19335 -0.11713 0.67882
 C1630 C 0.17746 -0.11778 0.67738
 C1631 C 0.16870 -0.10548 0.68305
 C1632 C 0.17568 -0.09286 0.69006
 C1633 C 0.19870 -0.07952 0.69891
 C1634 C 0.20488 -0.06889 0.70521
 C1635 C 0.21241 -0.05636 0.71283
 C1636 C 0.22588 -0.05030 0.70689
 C1637 C 0.23346 -0.03843 0.71451
 C1638 C 0.22764 -0.03246 0.72820
 C1639 C 0.21402 -0.03854 0.73402
 C1640 C 0.20647 -0.05041 0.72637
 H1641 H 0.21254 -0.10427 0.68693
 H1642 H 0.20039 -0.12651 0.67477
 H1643 H 0.15646 -0.10557 0.68195
 H1644 H 0.16875 -0.08350 0.69438
 H1645 H 0.23060 -0.05484 0.69642
 H1646 H 0.24392 -0.03401 0.70973
 H1647 H 0.20924 -0.03420 0.74453
 H1648 H 0.19605 -0.05503 0.73108
 C1649 C 0.31039 0.30719 0.40866
 C1650 C 0.31156 0.32328 0.40802
 C1651 C 0.31839 0.33038 0.39548
 C1652 C 0.32414 0.32146 0.38342
 C1653 C 0.32300 0.30528 0.38423
 C1654 C 0.31616 0.29821 0.39677
 C1655 C 0.30301 0.29988 0.42136
 C1656 C 0.29669 0.29366 0.43187
 C1657 C 0.28901 0.28615 0.44427
 C1658 C 0.27571 0.29253 0.45026
 C1659 C 0.26796 0.28500 0.46199
 C1660 C 0.27344 0.27095 0.46788
 C1661 C 0.28690 0.26470 0.46186
 C1662 C 0.29462 0.27225 0.45013
 H1663 H 0.30714 0.33034 0.41717
 H1664 H 0.31926 0.34285 0.39526
 H1665 H 0.32712 0.29811 0.37503
 H1666 H 0.31525 0.28574 0.39712
 H1667 H 0.27125 0.30327 0.44579
 H1668 H 0.25764 0.29012 0.46636
 H1669 H 0.29142 0.25391 0.46613
 H1670 H 0.30490 0.26720 0.44555
 C1671 C 0.30982 0.80801 -0.09209
 C1672 C 0.31108 0.82410 -0.09284
 C1673 C 0.31808 0.83106 -0.10536
 C1674 C 0.32392 0.82200 -0.11729
 C1675 C 0.32266 0.80584 -0.11637
 C1676 C 0.31565 0.79891 -0.10386
 C1677 C 0.30234 0.80083 -0.07938
 C1678 C 0.29599 0.79467 -0.06886
 C1679 C 0.28829 0.78718 -0.05646
 C1680 C 0.27494 0.79352 -0.05053
 C1681 C 0.26720 0.78599 -0.03880
 C1682 C 0.27272 0.77200 -0.03284
 C1683 C 0.28624 0.76580 -0.03878
 C1684 C 0.29396 0.77335 -0.05052
 H1685 H 0.30662 0.83125 -0.08378
 H1686 H 0.31904 0.84351 -0.10566
 H1687 H 0.32684 0.79857 -0.12547
 H1688 H 0.31467 0.78645 -0.10342
 H1689 H 0.27044 0.80421 -0.05507
 H1690 H 0.25683 0.79107 -0.03448
 H1691 H 0.29080 0.75505 -0.03446
 H1692 H 0.30428 0.76833 -0.05504
 C1693 C 0.80956 0.30821 -0.09159
 C1694 C 0.81078 0.32430 -0.09241
 C1695 C 0.81775 0.33123 -0.10497
 C1696 C 0.82360 0.32215 -0.11686
 C1697 C 0.82237 0.30599 -0.11589
 C1698 C 0.81539 0.29908 -0.10334
 C1699 C 0.80216 0.30105 -0.07883
 C1700 C 0.79588 0.29490 -0.06826
 C1701 C 0.78827 0.28741 -0.05580
 C1702 C 0.77499 0.29377 -0.04975
 C1703 C 0.76733 0.28625 -0.03796
 C1704 C 0.77286 0.27222 -0.03208
 C1705 C 0.78631 0.26599 -0.03815
 C1706 C 0.79395 0.27354 -0.04994
 H1707 H 0.80632 0.33147 -0.08337
 H1708 H 0.81868 0.34369 -0.10531
 H1709 H 0.82656 0.29869 -0.12496
 H1710 H 0.81445 0.28662 -0.10285
 H1711 H 0.77048 0.30449 -0.05422
 H1712 H 0.75701 0.29135 -0.03355
 H1713 H 0.79087 0.25522 -0.03389
 H1714 H 0.80421 0.26850 -0.05457
 C1715 C 0.81019 0.80757 0.40817
 C1716 C 0.81141 0.82365 0.40745
 C1717 C 0.81829 0.83067 0.39490
 C1718 C 0.82404 0.82167 0.38289
 C1719 C 0.82284 0.80550 0.38378
 C1720 C 0.81595 0.79851 0.39634
 C1721 C 0.80280 0.80033 0.42091
 C1722 C 0.79650 0.79417 0.43146
 C1723 C 0.78886 0.78668 0.44390
 C1724 C 0.77554 0.79303 0.44989
 C1725 C 0.76784 0.78551 0.46166
 C1726 C 0.77338 0.77151 0.46759
 C1727 C 0.78687 0.76530 0.46158
 C1728 C 0.79454 0.77284 0.44981
 H1729 H 0.80700 0.83077 0.41657
 H1730 H 0.81920 0.84313 0.39462
 H1731 H 0.82697 0.79826 0.37463
 H1732 H 0.81501 0.78605 0.39675
 H1733 H 0.77103 0.80372 0.44537
 H1734 H 0.75750 0.79060 0.46602
 H1735 H 0.79144 0.75455 0.46589
 H1736 H 0.80483 0.76781 0.44524
 C1737 C 0.69004 0.30798 0.59153
 C1738 C 0.68424 0.29883 0.60329
 C1739 C 0.67733 0.30573 0.61588
 C1740 C 0.67613 0.32189 0.61687
 C1741 C 0.68192 0.33099 0.60494
 C1742 C 0.68882 0.32406 0.59236
 C1743 C 0.69747 0.30084 0.57877
 C1744 C 0.70381 0.29473 0.56821
 C1745 C 0.71151 0.28731 0.55578
 C1746 C 0.70591 0.27346 0.54983
 C1747 C 0.71366 0.26598 0.53807
 C1748 C 0.72713 0.27227 0.53211
 C1749 C 0.73258 0.28628 0.53808
 C1750 C 0.72481 0.29374 0.54983
 H1751 H 0.68519 0.28638 0.60279
 H1752 H 0.67318 0.29843 0.62497
 H1753 H 0.68101 0.34344 0.60530
 H1754 H 0.69326 0.33125 0.58330
 H1755 H 0.69564 0.26838 0.55437
 H1756 H 0.70916 0.25522 0.53374
 H1757 H 0.74291 0.29143 0.53375
 H1758 H 0.72926 0.30444 0.55437
 C1759 C 0.69072 0.80785 1.09195
 C1760 C 0.69960 0.81337 1.10396
 C1761 C 0.69273 0.82035 1.11651
 C1762 C 0.67685 0.82191 1.11724
 C1763 C 0.66801 0.81634 1.10510
 C1764 C 0.67492 0.80936 1.09253
 C1765 C 0.69787 0.80052 1.07913
 C1766 C 0.70406 0.79434 1.06853
 C1767 C 0.71167 0.78691 1.05603
 C1768 C 0.72496 0.79332 1.05004
 C1769 C 0.73266 0.78587 1.03824
 C1770 C 0.72716 0.77187 1.03228
 C1771 C 0.71370 0.76560 1.03829
 C1772 C 0.70602 0.77308 1.05009
 H1773 H 0.71184 0.81221 1.10365
 H1774 H 0.69982 0.82432 1.12577
 H1775 H 0.65578 0.81752 1.10525
 H1776 H 0.66794 0.80514 1.08329
 H1777 H 0.72944 0.80401 1.05457
 H1778 H 0.74298 0.79100 1.03387
 H1779 H 0.70916 0.75485 1.03396
 H1780 H 0.69575 0.76801 1.05467
 C1781 C 0.19067 0.30796 1.09220
 C1782 C 0.18479 0.29880 1.10391
 C1783 C 0.17777 0.30567 1.11645
 C1784 C 0.17654 0.32183 1.11744
 C1785 C 0.18242 0.33095 1.10558
 C1786 C 0.18944 0.32404 1.09304
 C1787 C 0.19815 0.30083 1.07946
 C1788 C 0.20451 0.29473 1.06892
 C1789 C 0.21221 0.28730 1.05648
 C1790 C 0.20660 0.27345 1.05054
 C1791 C 0.21431 0.26597 1.03876
 C1792 C 0.22778 0.27225 1.03279
 C1793 C 0.23325 0.28625 1.03875
 C1794 C 0.22551 0.29371 1.05052
 H1795 H 0.18574 0.28634 1.10341
 H1796 H 0.17355 0.29836 1.12549
 H1797 H 0.18149 0.34340 1.10594
 H1798 H 0.19394 0.33124 1.08403
 H1799 H 0.19632 0.26837 1.05509
 H1800 H 0.20980 0.25521 1.03444
 H1801 H 0.24358 0.29139 1.03441
 H1802 H 0.22997 0.30441 1.05505
 C1803 C 0.19068 0.80728 0.59222
 C1804 C 0.19961 0.81283 0.60417
 C1805 C 0.19280 0.81986 0.61673
 C1806 C 0.17692 0.82145 0.61751
 C1807 C 0.16803 0.81583 0.60543
 C1808 C 0.17488 0.80879 0.59286
 C1809 C 0.19778 0.79995 0.57937
 C1810 C 0.20396 0.79380 0.56875
 C1811 C 0.21158 0.78643 0.55622
 C1812 C 0.22484 0.79292 0.55023
 C1813 C 0.23256 0.78553 0.53841
 C1814 C 0.22712 0.77153 0.53242
 C1815 C 0.21369 0.76518 0.53842
 C1816 C 0.20598 0.77259 0.55025
 H1817 H 0.21184 0.81166 0.60381
 H1818 H 0.19993 0.82386 0.62594
 H1819 H 0.15580 0.81703 0.60563
 H1820 H 0.16786 0.80455 0.58365
 H1821 H 0.22928 0.80361 0.55479
 H1822 H 0.24286 0.79072 0.53405
 H1823 H 0.20920 0.75442 0.53407
 H1824 H 0.19574 0.76746 0.55483
 C1825 C 0.30986 0.69191 0.59167
 C1826 C 0.31565 0.70105 0.60344
 C1827 C 0.32259 0.69414 0.61601
 C1828 C 0.32383 0.67798 0.61698
 C1829 C 0.31806 0.66890 0.60505
 C1830 C 0.31112 0.67583 0.59248
 C1831 C 0.30241 0.69906 0.57893
 C1832 C 0.29607 0.70517 0.56838
 C1833 C 0.28837 0.71260 0.55594
 C1834 C 0.29394 0.72649 0.55004
 C1835 C 0.28621 0.73399 0.53828
 C1836 C 0.27277 0.72768 0.53227
 C1837 C 0.26735 0.71363 0.53819
 C1838 C 0.27510 0.70616 0.54995
 H1839 H 0.31467 0.71350 0.60296
 H1840 H 0.32673 0.70144 0.62510
 H1841 H 0.31901 0.65644 0.60539
 H1842 H 0.30670 0.66865 0.58342
 H1843 H 0.30419 0.73160 0.55462
 H1844 H 0.29069 0.74478 0.53399
 H1845 H 0.25705 0.70846 0.53382
 H1846 H 0.27068 0.69542 0.55445
 C1847 C 0.31011 0.19210 1.09214
 C1848 C 0.31130 0.17601 1.09289
 C1849 C 0.31820 0.16900 1.10543
 C1850 C 0.32401 0.17801 1.11740
 C1851 C 0.32283 0.19418 1.11649
 C1852 C 0.31592 0.20116 1.10394
 C1853 C 0.30272 0.19933 1.07940
 C1854 C 0.29641 0.20550 1.06886
 C1855 C 0.28876 0.21299 1.05643
 C1856 C 0.27547 0.20659 1.05042
 C1857 C 0.26776 0.21410 1.03865
 C1858 C 0.27324 0.22813 1.03275
 C1859 C 0.28669 0.23439 1.03878
 C1860 C 0.29438 0.22686 1.05055
 H1861 H 0.30685 0.16889 1.08380
 H1862 H 0.31910 0.15654 1.10573
 H1863 H 0.32700 0.20142 1.12561
 H1864 H 0.31501 0.21363 1.10350
 H1865 H 0.27101 0.19587 1.05491
 H1866 H 0.25744 0.20897 1.03427
 H1867 H 0.29121 0.24517 1.03450
 H1868 H 0.30464 0.23192 1.05513
 C1869 C 0.80976 0.69206 1.09164
 C1870 C 0.81553 0.70118 1.10342
 C1871 C 0.82249 0.69426 1.11597
 C1872 C 0.82376 0.67810 1.11691
 C1873 C 0.81801 0.66903 1.10496
 C1874 C 0.81105 0.67598 1.09241
 C1875 C 0.80230 0.69922 1.07890
 C1876 C 0.79595 0.70533 1.06836
 C1877 C 0.78825 0.71277 1.05592
 C1878 C 0.79386 0.72663 1.04998
 C1879 C 0.78614 0.73412 1.03821
 C1880 C 0.77267 0.72784 1.03224
 C1881 C 0.76720 0.71383 1.03820
 C1882 C 0.77495 0.70636 1.04997
 H1883 H 0.81454 0.71364 1.10297
 H1884 H 0.82662 0.70154 1.12508
 H1885 H 0.81898 0.65658 1.10528
 H1886 H 0.80664 0.66881 1.08334
 H1887 H 0.80414 0.73170 1.05452
 H1888 H 0.79065 0.74488 1.03388
 H1889 H 0.75687 0.70869 1.03387
 H1890 H 0.77050 0.69565 1.05451
 C1891 C 0.80941 0.19233 0.59174
 C1892 C 0.81066 0.17625 0.59258
 C1893 C 0.81762 0.16935 0.60516
 C1894 C 0.82342 0.17846 0.61705
 C1895 C 0.82216 0.19462 0.61605
 C1896 C 0.81519 0.20149 0.60348
 C1897 C 0.80199 0.19946 0.57897
 C1898 C 0.79569 0.20558 0.56839
 C1899 C 0.78806 0.21304 0.55593
 C1900 C 0.77479 0.20664 0.54990
 C1901 C 0.76710 0.21414 0.53811
 C1902 C 0.77260 0.22817 0.53221
 C1903 C 0.78603 0.23443 0.53826
 C1904 C 0.79370 0.22691 0.55005
 H1905 H 0.80623 0.16905 0.58355
 H1906 H 0.81858 0.15689 0.60552
 H1907 H 0.82632 0.20193 0.62512
 H1908 H 0.81422 0.21395 0.60297
 H1909 H 0.77031 0.19593 0.55439
 H1910 H 0.75679 0.20901 0.53372
 H1911 H 0.79056 0.24520 0.53398
 H1912 H 0.80395 0.23197 0.55465
 C1913 C 0.69093 0.69175 0.40814
 C1914 C 0.68963 0.67568 0.40724
 C1915 C 0.68256 0.66886 0.39469
 C1916 C 0.67669 0.67806 0.38288
 C1917 C 0.67800 0.69421 0.38394
 C1918 C 0.68508 0.70099 0.39648
 C1919 C 0.69845 0.69879 0.42089
 C1920 C 0.70483 0.70484 0.43145
 C1921 C 0.71251 0.71225 0.44390
 C1922 C 0.72586 0.70588 0.44980
 C1923 C 0.73359 0.71333 0.46158
 C1924 C 0.72806 0.72729 0.46760
 C1925 C 0.71454 0.73353 0.46168
 C1926 C 0.70684 0.72605 0.44990
 H1927 H 0.69411 0.66842 0.41621
 H1928 H 0.68157 0.65641 0.39428
 H1929 H 0.67379 0.70158 0.37493
 H1930 H 0.68608 0.71344 0.39704
 H1931 H 0.73037 0.69521 0.44522
 H1932 H 0.74396 0.70823 0.46588
 H1933 H 0.70998 0.74425 0.46605
 H1934 H 0.69653 0.73109 0.44540
 C1935 C 0.69046 0.19227 -0.09141
 C1936 C 0.68468 0.20139 -0.10319
 C1937 C 0.67775 0.19448 -0.11575
 C1938 C 0.67651 0.17832 -0.11669
 C1939 C 0.68228 0.16924 -0.10475
 C1940 C 0.68921 0.17618 -0.09219
 C1941 C 0.69789 0.19943 -0.07867
 C1942 C 0.70423 0.20554 -0.06812
 C1943 C 0.71193 0.21297 -0.05569
 C1944 C 0.70630 0.22681 -0.04973
 C1945 C 0.71403 0.23429 -0.03797
 C1946 C 0.72752 0.22803 -0.03203
 C1947 C 0.73300 0.21403 -0.03801
 C1948 C 0.72525 0.20657 -0.04977
 H1949 H 0.68565 0.21385 -0.10273
 H1950 H 0.67361 0.20177 -0.12485
 H1951 H 0.68134 0.15679 -0.10507
 H1952 H 0.69364 0.16901 -0.08312
 H1953 H 0.69601 0.23188 -0.05426
 H1954 H 0.70950 0.24505 -0.03363
 H1955 H 0.74335 0.20890 -0.03370
 H1956 H 0.72972 0.19587 -0.05432
 C1957 C 0.19062 0.69177 -0.09239
 C1958 C 0.18483 0.70091 -0.10415
 C1959 C 0.17782 0.69402 -0.11668
 C1960 C 0.17652 0.67786 -0.11762
 C1961 C 0.18233 0.66877 -0.10570
 C1962 C 0.18933 0.67569 -0.09317
 C1963 C 0.19806 0.69892 -0.07965
 C1964 C 0.20438 0.70505 -0.06910
 C1965 C 0.21201 0.71253 -0.05666
 C1966 C 0.20631 0.72636 -0.05074
 C1967 C 0.21396 0.73389 -0.03897
 C1968 C 0.22745 0.72769 -0.03296
 C1969 C 0.23302 0.71370 -0.03890
 C1970 C 0.22534 0.70619 -0.05067
 H1971 H 0.18582 0.71337 -0.10370
 H1972 H 0.17366 0.70132 -0.12577
 H1973 H 0.18135 0.65632 -0.10601
 H1974 H 0.19377 0.66851 -0.08411
 H1975 H 0.19601 0.73138 -0.05531
 H1976 H 0.20938 0.74463 -0.03466
 H1977 H 0.24336 0.70862 -0.03453
 H1978 H 0.22986 0.69551 -0.05519
 C1979 C 0.19089 0.19146 0.40813
 C1980 C 0.18960 0.17539 0.40726
 C1981 C 0.18257 0.16855 0.39469
 C1982 C 0.17675 0.17772 0.38284
 C1983 C 0.17805 0.19387 0.38387
 C1984 C 0.18508 0.20068 0.39643
 C1985 C 0.19838 0.19852 0.42090
 C1986 C 0.20473 0.20457 0.43147
 C1987 C 0.21242 0.21194 0.44394
 C1988 C 0.22572 0.20550 0.44988
 C1989 C 0.23345 0.21291 0.46169
 C1990 C 0.22796 0.22689 0.46771
 C1991 C 0.21449 0.23319 0.46175
 C1992 C 0.20679 0.22576 0.44994
 H1993 H 0.19404 0.16815 0.41626
 H1994 H 0.18159 0.15610 0.39430
 H1995 H 0.17387 0.20123 0.37484
 H1996 H 0.18608 0.21313 0.39696
 H1997 H 0.23019 0.19482 0.44531
 H1998 H 0.24378 0.20776 0.46602
 H1999 H 0.20996 0.24393 0.46611
 H2000 H 0.19651 0.23085 0.44541
 C2001 C 0.30793 0.40741 0.69030
 C2002 C 0.29921 0.39526 0.68452
 C2003 C 0.30628 0.38266 0.67757
 C2004 C 0.32219 0.38204 0.67632
 C2005 C 0.33085 0.39436 0.68209
 C2006 C 0.32375 0.40696 0.68903
 C2007 C 0.30062 0.42020 0.69775
 C2008 C 0.29440 0.43080 0.70408
 C2009 C 0.28685 0.44330 0.71174
 C2010 C 0.27333 0.44932 0.70587
 C2011 C 0.26576 0.46119 0.71352
 C2012 C 0.27163 0.46719 0.72718
 C2013 C 0.28530 0.46114 0.73292
 C2014 C 0.29285 0.44927 0.72525
 H2015 H 0.28696 0.39547 0.68550
 H2016 H 0.29932 0.37327 0.67343
 H2017 H 0.34310 0.39430 0.68113
 H2018 H 0.33061 0.41632 0.69345
 H2019 H 0.26858 0.44477 0.69543
 H2020 H 0.25527 0.46558 0.70879
 H2021 H 0.29011 0.46549 0.74340
 H2022 H 0.30330 0.44468 0.72990
 C2023 C 0.30812 0.90735 0.19079
 C2024 C 0.29933 0.89527 0.18499
 C2025 C 0.30631 0.88268 0.17793
 C2026 C 0.32221 0.88201 0.17658
 C2027 C 0.33095 0.89424 0.18240
 C2028 C 0.32394 0.90683 0.18946
 C2029 C 0.30089 0.92017 0.19825
 C2030 C 0.29469 0.93079 0.20457
 C2031 C 0.28714 0.94332 0.21219
 C2032 C 0.27364 0.94934 0.20626
 C2033 C 0.26606 0.96124 0.21386
 C2034 C 0.27189 0.96726 0.22752
 C2035 C 0.28554 0.96122 0.23332
 C2036 C 0.29310 0.94932 0.22570
 H2037 H 0.28708 0.89553 0.18601
 H2038 H 0.29929 0.87335 0.17375
 H2039 H 0.34320 0.89414 0.18138
 H2040 H 0.33085 0.91613 0.19389
 H2041 H 0.26892 0.94477 0.19582
 H2042 H 0.25559 0.96562 0.20909
 H2043 H 0.29033 0.96559 0.24380
 H2044 H 0.30353 0.94473 0.23039
 C2045 C 0.80822 0.40774 0.19073
 C2046 C 0.82404 0.40726 0.18952
 C2047 C 0.83114 0.39466 0.18258
 C2048 C 0.82247 0.38238 0.17674
 C2049 C 0.80656 0.38302 0.17794
 C2050 C 0.79950 0.39562 0.18490
 C2051 C 0.80090 0.42055 0.19813
 C2052 C 0.79465 0.43116 0.20441
 C2053 C 0.78706 0.44368 0.21200
 C2054 C 0.79299 0.44970 0.22551
 C2055 C 0.78540 0.46158 0.23312
 C2056 C 0.77174 0.46759 0.22730
 C2057 C 0.76594 0.46154 0.21364
 C2058 C 0.77355 0.44966 0.20606
 H2059 H 0.83090 0.41659 0.19398
 H2060 H 0.84339 0.39457 0.18166
 H2061 H 0.79960 0.37366 0.17375
 H2062 H 0.78724 0.39585 0.18583
 H2063 H 0.80343 0.44514 0.23022
 H2064 H 0.79017 0.46598 0.24360
 H2065 H 0.75545 0.46590 0.20886
 H2066 H 0.76885 0.44506 0.19562
 C2067 C 0.80802 0.90805 0.69030
 C2068 C 0.79929 0.89590 0.68453
 C2069 C 0.80634 0.88331 0.67754
 C2070 C 0.82224 0.88270 0.67624
 C2071 C 0.83092 0.89501 0.68201
 C2072 C 0.82384 0.90760 0.68899
 C2073 C 0.80073 0.92083 0.69777
 C2074 C 0.79452 0.93142 0.70413
 C2075 C 0.78699 0.94393 0.71182
 C2076 C 0.77348 0.94998 0.70596
 C2077 C 0.76593 0.96184 0.71363
 C2078 C 0.77180 0.96780 0.72730
 C2079 C 0.78546 0.96172 0.73303
 C2080 C 0.79299 0.94986 0.72533
 H2081 H 0.78704 0.89611 0.68554
 H2082 H 0.79937 0.87393 0.67341
 H2083 H 0.84317 0.89495 0.68102
 H2084 H 0.83071 0.91695 0.69340
 H2085 H 0.76872 0.94545 0.69551
 H2086 H 0.75544 0.96625 0.70891
 H2087 H 0.79029 0.96604 0.74352
 H2088 H 0.80344 0.94524 0.72998
 C2089 C 0.69103 0.59227 0.69155
 C2090 C 0.68520 0.60436 0.70033
 C2091 C 0.67819 0.61696 0.69330
 C2092 C 0.67694 0.61764 0.67737
 C2093 C 0.68278 0.60540 0.66863
 C2094 C 0.68978 0.59280 0.67569
 C2095 C 0.69846 0.57946 0.69883
 C2096 C 0.70476 0.56885 0.70506
 C2097 C 0.71238 0.55632 0.71263
 C2098 C 0.70651 0.55034 0.72619
 C2099 C 0.71412 0.53846 0.73379
 C2100 C 0.72775 0.53243 0.72792
 C2101 C 0.73349 0.53844 0.71421
 C2102 C 0.72585 0.55032 0.70663
 H2103 H 0.68616 0.60410 0.71261
 H2104 H 0.67400 0.62630 0.70032
 H2105 H 0.68183 0.60551 0.65636
 H2106 H 0.69424 0.58349 0.66878
 H2107 H 0.69610 0.55492 0.73094
 H2108 H 0.70940 0.53410 0.74431
 H2109 H 0.74395 0.53406 0.70939
 H2110 H 0.73051 0.55489 0.69615
 C2111 C 0.69099 0.09245 0.19156
 C2112 C 0.67518 0.09302 0.19016
 C2113 C 0.66825 0.10562 0.18304
 C2114 C 0.67706 0.11781 0.17722
 C2115 C 0.69295 0.11709 0.17864
 C2116 C 0.69985 0.10449 0.18576
 C2117 C 0.69816 0.07963 0.19909
 C2118 C 0.70430 0.06901 0.20545
 C2119 C 0.71182 0.05647 0.21311
 C2120 C 0.70585 0.05053 0.22665
 C2121 C 0.71339 0.03864 0.23431
 C2122 C 0.72702 0.03255 0.22853
 C2123 C 0.73286 0.03853 0.21484
 C2124 C 0.72530 0.05041 0.20720
 H2125 H 0.66822 0.08374 0.19458
 H2126 H 0.65601 0.10576 0.18197
 H2127 H 0.70002 0.12639 0.17447
 H2128 H 0.71210 0.10419 0.18683
 H2129 H 0.69543 0.05516 0.23134
 H2130 H 0.70859 0.03431 0.24482
 H2131 H 0.74333 0.03411 0.21008
 H2132 H 0.73003 0.05495 0.19674
 C2133 C 0.19141 0.59241 0.19075
 C2134 C 0.20021 0.60446 0.18490
 C2135 C 0.19325 0.61705 0.17782
 C2136 C 0.17735 0.61775 0.17651
 C2137 C 0.16859 0.60555 0.18238
 C2138 C 0.17559 0.59296 0.18945
 C2139 C 0.19863 0.57960 0.19826
 C2140 C 0.20480 0.56899 0.20462
 C2141 C 0.21232 0.55647 0.21230
 C2142 C 0.22583 0.55043 0.20644
 C2143 C 0.23338 0.53856 0.21411
 C2144 C 0.22750 0.53258 0.22778
 C2145 C 0.21383 0.53865 0.23351
 C2146 C 0.20630 0.55052 0.22581
 H2147 H 0.21246 0.60418 0.18590
 H2148 H 0.20028 0.62636 0.17362
 H2149 H 0.15634 0.60568 0.18139
 H2150 H 0.16866 0.58368 0.19393
 H2151 H 0.23059 0.55497 0.19599
 H2152 H 0.24387 0.53415 0.20939
 H2153 H 0.20900 0.53432 0.24400
 H2154 H 0.19586 0.55514 0.23046
 C2155 C 0.19061 0.09233 0.69198
 C2156 C 0.18479 0.10445 0.70072
 C2157 C 0.17779 0.11703 0.69365
 C2158 C 0.17652 0.11765 0.67771
 C2159 C 0.18236 0.10537 0.66902
 C2160 C 0.18935 0.09279 0.67612
 C2161 C 0.19805 0.07954 0.69930
 C2162 C 0.20436 0.06895 0.70554
 C2163 C 0.21201 0.05645 0.71312
 C2164 C 0.20614 0.05043 0.72666
 C2165 C 0.21378 0.03856 0.73426
 C2166 C 0.22743 0.03257 0.72839
 C2167 C 0.23317 0.03863 0.71469
 C2168 C 0.22550 0.05049 0.70712
 H2169 H 0.18577 0.10424 0.71300
 H2170 H 0.17361 0.12640 0.70064
 H2171 H 0.18139 0.10543 0.65674
 H2172 H 0.19380 0.08346 0.66924
 H2173 H 0.19571 0.05497 0.73142
 H2174 H 0.20906 0.03416 0.74477
 H2175 H 0.24364 0.03428 0.70987
 H2176 H 0.23015 0.05509 0.69665
 C2177 C 0.30819 0.59250 0.30916
 C2178 C 0.32401 0.59300 0.31037
 C2179 C 0.33108 0.60559 0.31735
 C2180 C 0.32239 0.61785 0.32320
 C2181 C 0.30648 0.61720 0.32199
 C2182 C 0.29945 0.60461 0.31501
 C2183 C 0.30089 0.57970 0.30174
 C2184 C 0.29467 0.56909 0.29545
 C2185 C 0.28709 0.55657 0.28784
 C2186 C 0.29308 0.55051 0.27437
 C2187 C 0.28551 0.53863 0.26675
 C2188 C 0.27182 0.53266 0.27252
 C2189 C 0.26596 0.53875 0.28615
 C2190 C 0.27355 0.55063 0.29374
 H2191 H 0.33089 0.58368 0.30590
 H2192 H 0.34333 0.60568 0.31827
 H2193 H 0.29950 0.62655 0.32619
 H2194 H 0.28719 0.60437 0.31407
 H2195 H 0.30355 0.55504 0.26969
 H2196 H 0.29032 0.53421 0.25630
 H2197 H 0.25545 0.53443 0.29090
 H2198 H 0.26881 0.55526 0.30416
 C2199 C 0.30824 0.09224 0.80989
 C2200 C 0.32406 0.09269 0.81115
 C2201 C 0.33114 0.10527 0.81813
 C2202 C 0.32247 0.11756 0.82395
 C2203 C 0.30656 0.11694 0.82272
 C2204 C 0.29951 0.10436 0.81573
 C2205 C 0.30094 0.07947 0.80243
 C2206 C 0.29472 0.06889 0.79608
 C2207 C 0.28717 0.05640 0.78841
 C2208 C 0.29312 0.05050 0.77485
 C2209 C 0.28557 0.03865 0.76716
 C2210 C 0.27194 0.03255 0.77296
 C2211 C 0.26613 0.03848 0.78667
 C2212 C 0.27370 0.05033 0.79433
 H2213 H 0.33092 0.08336 0.80669
 H2214 H 0.34339 0.10534 0.81907
 H2215 H 0.29959 0.12631 0.82689
 H2216 H 0.28725 0.10415 0.81476
 H2217 H 0.30354 0.05513 0.77016
 H2218 H 0.29035 0.03434 0.75664
 H2219 H 0.25567 0.03405 0.79143
 H2220 H 0.26898 0.05483 0.80481
 C2221 C 0.80856 0.59257 0.80882
 C2222 C 0.82438 0.59314 0.81007
 C2223 C 0.83138 0.60575 0.81706
 C2224 C 0.82263 0.61797 0.82291
 C2225 C 0.80673 0.61726 0.82165
 C2226 C 0.79976 0.60464 0.81464
 C2227 C 0.80133 0.57972 0.80141
 C2228 C 0.79514 0.56908 0.79515
 C2229 C 0.78759 0.55651 0.78759
 C2230 C 0.79352 0.55050 0.77406
 C2231 C 0.78596 0.53859 0.76649
 C2232 C 0.77234 0.53253 0.77235
 C2233 C 0.76654 0.53857 0.78602
 C2234 C 0.77413 0.55049 0.79357
 H2235 H 0.83131 0.58384 0.80562
 H2236 H 0.84363 0.60590 0.81802
 H2237 H 0.79969 0.62658 0.82584
 H2238 H 0.78750 0.60434 0.81368
 H2239 H 0.80392 0.55510 0.76932
 H2240 H 0.79072 0.53420 0.75599
 H2241 H 0.75609 0.53418 0.79084
 H2242 H 0.76943 0.55507 0.80403
 C2243 C 0.80805 0.09220 0.30978
 C2244 C 0.82388 0.09262 0.31101
 C2245 C 0.83101 0.10519 0.31796
 C2246 C 0.82237 0.11752 0.32377
 C2247 C 0.80646 0.11694 0.32253
 C2248 C 0.79937 0.10437 0.31558
 C2249 C 0.80070 0.07942 0.30238
 C2250 C 0.79443 0.06884 0.29609
 C2251 C 0.78682 0.05635 0.28849
 C2252 C 0.79276 0.05032 0.27497
 C2253 C 0.78515 0.03847 0.26735
 C2254 C 0.77147 0.03250 0.27315
 C2255 C 0.76566 0.03855 0.28681
 C2256 C 0.77330 0.05040 0.29441
 H2257 H 0.83071 0.08324 0.30658
 H2258 H 0.84326 0.10522 0.31889
 H2259 H 0.79952 0.12635 0.32670
 H2260 H 0.78711 0.10420 0.31463
 H2261 H 0.80321 0.05486 0.27028
 H2262 H 0.78993 0.03408 0.25686
 H2263 H 0.75517 0.03422 0.29158
 H2264 H 0.76859 0.05500 0.30486
 C2265 C 0.69103 0.40783 0.30871
 C2266 C 0.67521 0.40730 0.31006
 C2267 C 0.66823 0.39470 0.31713
 C2268 C 0.67700 0.38248 0.32295
 C2269 C 0.69289 0.38317 0.32159
 C2270 C 0.69984 0.39576 0.31452
 C2271 C 0.69824 0.42065 0.30123
 C2272 C 0.70442 0.43127 0.29489
 C2273 C 0.71196 0.44379 0.28725
 C2274 C 0.70602 0.44976 0.27372
 C2275 C 0.71358 0.46163 0.26606
 C2276 C 0.72722 0.46768 0.27186
 C2277 C 0.73304 0.46168 0.28555
 C2278 C 0.72545 0.44981 0.29318
 H2279 H 0.66828 0.41660 0.30562
 H2280 H 0.65598 0.39458 0.31816
 H2281 H 0.69993 0.37384 0.32576
 H2282 H 0.71209 0.39603 0.31348
 H2283 H 0.69559 0.44516 0.26902
 H2284 H 0.70881 0.46598 0.25556
 H2285 H 0.74351 0.46608 0.29032
 H2286 H 0.73016 0.44526 0.30364
 C2287 C 0.69140 0.90773 0.80883
 C2288 C 0.67558 0.90716 0.81015
 C2289 C 0.66861 0.89455 0.81719
 C2290 C 0.67738 0.88233 0.82302
 C2291 C 0.69328 0.88305 0.82170
 C2292 C 0.70022 0.89566 0.81465
 C2293 C 0.69860 0.92056 0.80136
 C2294 C 0.70477 0.93119 0.79503
 C2295 C 0.71229 0.94374 0.78742
 C2296 C 0.70630 0.94978 0.77393
 C2297 C 0.71385 0.96168 0.76630
 C2298 C 0.72751 0.96770 0.77208
 C2299 C 0.73337 0.96164 0.78572
 C2300 C 0.72581 0.94973 0.79332
 H2301 H 0.66865 0.91645 0.80571
 H2302 H 0.65636 0.89441 0.81819
 H2303 H 0.70033 0.87373 0.82587
 H2304 H 0.71247 0.89595 0.81364
 H2305 H 0.69586 0.94521 0.76925
 H2306 H 0.70903 0.96609 0.75583
 H2307 H 0.74386 0.96600 0.79047
 H2308 H 0.73055 0.94513 0.80374
 C2309 C 0.19125 0.40737 0.80899
 C2310 C 0.20009 0.39533 0.81481
 C2311 C 0.19316 0.38275 0.82194
 C2312 C 0.17727 0.38204 0.82334
 C2313 C 0.16848 0.39424 0.81749
 C2314 C 0.17544 0.40682 0.81037
 C2315 C 0.19843 0.42017 0.80145
 C2316 C 0.20458 0.43078 0.79507
 C2317 C 0.21211 0.44329 0.78740
 C2318 C 0.22562 0.44931 0.79328
 C2319 C 0.23318 0.46118 0.78563
 C2320 C 0.22732 0.46719 0.77196
 C2321 C 0.21366 0.46114 0.76621
 C2322 C 0.20612 0.44927 0.77388
 H2323 H 0.21233 0.39561 0.81375
 H2324 H 0.20023 0.37344 0.82613
 H2325 H 0.15624 0.39411 0.81855
 H2326 H 0.16849 0.41610 0.80592
 H2327 H 0.23036 0.44476 0.80372
 H2328 H 0.24366 0.46558 0.79036
 H2329 H 0.20884 0.46550 0.75572
 H2330 H 0.19567 0.44467 0.76922
 C2331 C 0.19127 0.90750 0.30900
 C2332 C 0.17545 0.90695 0.31031
 C2333 C 0.16845 0.89435 0.31736
 C2334 C 0.17722 0.88213 0.32320
 C2335 C 0.19311 0.88283 0.32189
 C2336 C 0.20008 0.89543 0.31483
 C2337 C 0.19849 0.92031 0.30152
 C2338 C 0.20467 0.93093 0.29518
 C2339 C 0.21221 0.94345 0.28754
 C2340 C 0.20625 0.94943 0.27402
 C2341 C 0.21381 0.96131 0.26636
 C2342 C 0.22746 0.96735 0.27215
 C2343 C 0.23329 0.96135 0.28582
 C2344 C 0.22571 0.94947 0.29345
 H2345 H 0.16852 0.91624 0.30585
 H2346 H 0.15621 0.89422 0.31836
 H2347 H 0.20015 0.87351 0.32608
 H2348 H 0.21233 0.89571 0.31383
 H2349 H 0.19582 0.94484 0.26933
 H2350 H 0.20902 0.96567 0.25587
 H2351 H 0.24376 0.96573 0.29058
 H2352 H 0.23043 0.94491 0.30390
 C2353 C 0.40833 0.30854 0.69143
 C2354 C 0.40777 0.30986 0.67558
 C2355 C 0.39521 0.31670 0.66856
 C2356 C 0.38305 0.32232 0.67733
 C2357 C 0.38376 0.32099 0.69326
 C2358 C 0.39631 0.31414 0.70025
 C2359 C 0.42109 0.30124 0.69867
 C2360 C 0.43166 0.29504 0.70488
 C2361 C 0.44411 0.28752 0.71244
 C2362 C 0.45010 0.27380 0.70657
 C2363 C 0.46188 0.26622 0.71418
 C2364 C 0.46782 0.27228 0.72778
 C2365 C 0.46181 0.28617 0.73350
 C2366 C 0.45003 0.29372 0.72587
 H2367 H 0.41702 0.30557 0.66864
 H2368 H 0.39507 0.31772 0.65628
 H2369 H 0.37449 0.32500 0.70031
 H2370 H 0.39660 0.31312 0.71253
 H2371 H 0.44558 0.26888 0.69619
 H2372 H 0.46624 0.25556 0.70947
 H2373 H 0.46612 0.29114 0.74394
 H2374 H 0.44546 0.30432 0.73053
 C2375 C 0.40816 0.80823 0.19029
 C2376 C 0.40724 0.82431 0.18905
 C2377 C 0.39466 0.83116 0.18208
 C2378 C 0.38284 0.82199 0.17625
 C2379 C 0.38392 0.80583 0.17750
 C2380 C 0.39650 0.79902 0.18448
 C2381 C 0.42095 0.80116 0.19771
 C2382 C 0.43153 0.79508 0.20402
 C2383 C 0.44400 0.78766 0.21165
 C2384 C 0.44994 0.79400 0.22501
 C2385 C 0.46172 0.78653 0.23270
 C2386 C 0.46771 0.77258 0.22712
 C2387 C 0.46176 0.76638 0.21359
 C2388 C 0.44998 0.77387 0.20592
 H2389 H 0.41622 0.83155 0.19350
 H2390 H 0.39423 0.84361 0.18113
 H2391 H 0.37491 0.79847 0.17332
 H2392 H 0.39707 0.78656 0.18543
 H2393 H 0.44537 0.80466 0.22955
 H2394 H 0.46604 0.79161 0.24308
 H2395 H 0.46611 0.75566 0.20899
 H2396 H 0.44545 0.76885 0.19560
 C2397 C 0.90843 0.30853 0.19146
 C2398 C 0.90789 0.30996 0.17561
 C2399 C 0.89536 0.31689 0.16863
 C2400 C 0.88321 0.32249 0.17743
 C2401 C 0.88390 0.32105 0.19335
 C2402 C 0.89643 0.31412 0.20030
 C2403 C 0.92118 0.30116 0.19866
 C2404 C 0.93173 0.29491 0.20485
 C2405 C 0.94417 0.28737 0.21241
 C2406 C 0.95011 0.27361 0.20658
 C2407 C 0.96188 0.26602 0.21418
 C2408 C 0.96787 0.27211 0.22775
 C2409 C 0.96192 0.28604 0.23343
 C2410 C 0.95014 0.29360 0.22581
 H2411 H 0.91713 0.30569 0.16866
 H2412 H 0.89523 0.31799 0.15636
 H2413 H 0.87464 0.32505 0.20042
 H2414 H 0.89670 0.31301 0.21257
 H2415 H 0.94555 0.26867 0.19622
 H2416 H 0.96620 0.25533 0.20951
 H2417 H 0.96626 0.29104 0.24384
 H2418 H 0.94561 0.30424 0.23043
 C2419 C 0.90842 0.80906 0.69082
 C2420 C 0.90782 0.81046 0.67497
 C2421 C 0.89526 0.81737 0.66803
 C2422 C 0.88313 0.82298 0.67687
 C2423 C 0.88390 0.82158 0.69279
 C2424 C 0.89645 0.81466 0.69970
 C2425 C 0.92118 0.80168 0.69798
 C2426 C 0.93174 0.79541 0.70413
 C2427 C 0.94419 0.78783 0.71164
 C2428 C 0.95009 0.77406 0.70578
 C2429 C 0.96185 0.76643 0.71336
 C2430 C 0.96787 0.77248 0.72693
 C2431 C 0.96196 0.78642 0.73264
 C2432 C 0.95020 0.79402 0.72505
 H2433 H 0.91703 0.80618 0.66799
 H2434 H 0.89507 0.81844 0.65576
 H2435 H 0.87466 0.82558 0.69989
 H2436 H 0.89678 0.81358 0.71197
 H2437 H 0.94550 0.76916 0.69543
 H2438 H 0.96613 0.75573 0.70866
 H2439 H 0.96633 0.79138 0.74306
 H2440 H 0.94570 0.80466 0.72970
 C2441 C 0.59130 0.30853 0.30913
 C2442 C 0.59216 0.32461 0.31040
 C2443 C 0.60471 0.33148 0.31740
 C2444 C 0.61655 0.32233 0.32323
 C2445 C 0.61554 0.30617 0.32195
 C2446 C 0.60300 0.29934 0.31495
 C2447 C 0.57855 0.30143 0.30169
 C2448 C 0.56800 0.29532 0.29539
 C2449 C 0.55557 0.28783 0.28778
 C2450 C 0.54966 0.29406 0.27435
 C2451 C 0.53790 0.28651 0.26669
 C2452 C 0.53192 0.27260 0.27239
 C2453 C 0.53785 0.26652 0.28599
 C2454 C 0.54960 0.27409 0.29362
 H2455 H 0.58316 0.33183 0.30595
 H2456 H 0.60509 0.34393 0.31836
 H2457 H 0.62457 0.29883 0.32613
 H2458 H 0.60248 0.28689 0.31397
 H2459 H 0.55421 0.30468 0.26972
 H2460 H 0.53360 0.29150 0.25626
 H2461 H 0.53351 0.25584 0.29067
 H2462 H 0.55412 0.26915 0.30400
 C2463 C 0.59175 0.80839 0.80879
 C2464 C 0.59261 0.82447 0.81009
 C2465 C 0.60514 0.83131 0.81714
 C2466 C 0.61697 0.82215 0.82298
 C2467 C 0.61596 0.80599 0.82166
 C2468 C 0.60343 0.79918 0.81461
 C2469 C 0.57901 0.80132 0.80132
 C2470 C 0.56846 0.79523 0.79499
 C2471 C 0.55602 0.78777 0.78736
 C2472 C 0.55008 0.79406 0.77397
 C2473 C 0.53830 0.78655 0.76631
 C2474 C 0.53233 0.77261 0.77195
 C2475 C 0.53829 0.76646 0.78551
 C2476 C 0.55006 0.77400 0.79315
 H2477 H 0.58362 0.83170 0.80564
 H2478 H 0.60552 0.84376 0.81814
 H2479 H 0.62497 0.79864 0.82584
 H2480 H 0.60290 0.78673 0.81360
 H2481 H 0.55463 0.80470 0.76938
 H2482 H 0.53398 0.79159 0.75590
 H2483 H 0.53396 0.75576 0.79016
 H2484 H 0.55459 0.76901 0.80350
 C2485 C 0.09162 0.30807 0.80977
 C2486 C 0.09248 0.32414 0.81102
 C2487 C 0.10502 0.33102 0.81802
 C2488 C 0.11687 0.32187 0.82386
 C2489 C 0.11584 0.30572 0.82261
 C2490 C 0.10330 0.29888 0.81561
 C2491 C 0.07888 0.30097 0.80231
 C2492 C 0.06833 0.29489 0.79597
 C2493 C 0.05590 0.28746 0.78830
 C2494 C 0.04997 0.29382 0.77494
 C2495 C 0.03820 0.28636 0.76723
 C2496 C 0.03222 0.27239 0.77280
 C2497 C 0.03818 0.26617 0.78632
 C2498 C 0.04994 0.27366 0.79401
 H2499 H 0.08348 0.33136 0.80656
 H2500 H 0.10540 0.34347 0.81897
 H2501 H 0.12487 0.29838 0.82680
 H2502 H 0.10278 0.28642 0.81464
 H2503 H 0.05451 0.30450 0.77041
 H2504 H 0.03387 0.29146 0.75685
 H2505 H 0.03384 0.25544 0.79091
 H2506 H 0.05447 0.26862 0.80433
 C2507 C 0.09158 0.80815 0.30911
 C2508 C 0.09243 0.82423 0.31038
 C2509 C 0.10496 0.83110 0.31741
 C2510 C 0.11680 0.82195 0.32326
 C2511 C 0.11579 0.80580 0.32198
 C2512 C 0.10326 0.79896 0.31494
 C2513 C 0.07884 0.80105 0.30165
 C2514 C 0.06830 0.79494 0.29533
 C2515 C 0.05587 0.78747 0.28770
 C2516 C 0.04995 0.79375 0.27429
 C2517 C 0.03820 0.78622 0.26661
 C2518 C 0.03222 0.77229 0.27225
 C2519 C 0.03816 0.76615 0.28582
 C2520 C 0.04991 0.77370 0.29348
 H2521 H 0.08343 0.83145 0.30592
 H2522 H 0.10533 0.84355 0.31838
 H2523 H 0.12481 0.79846 0.32617
 H2524 H 0.10275 0.78651 0.31396
 H2525 H 0.05450 0.80439 0.26970
 H2526 H 0.03389 0.79125 0.25620
 H2527 H 0.03382 0.75545 0.29047
 H2528 H 0.05443 0.76873 0.30384
 C2529 C 0.59150 0.69210 0.68994
 C2530 C 0.59229 0.67602 0.68873
 C2531 C 0.60485 0.66906 0.68184
 C2532 C 0.61679 0.67811 0.67608
 C2533 C 0.61584 0.69428 0.67728
 C2534 C 0.60328 0.70121 0.68417
 C2535 C 0.57876 0.69929 0.69734
 C2536 C 0.56822 0.70544 0.70363
 C2537 C 0.55580 0.71293 0.71128
 C2538 C 0.54988 0.70664 0.72468
 C2539 C 0.53814 0.71418 0.73239
 C2540 C 0.53218 0.72814 0.72678
 C2541 C 0.53812 0.73428 0.71321
 C2542 C 0.54985 0.72672 0.70552
 H2543 H 0.58322 0.66886 0.69315
 H2544 H 0.60518 0.65660 0.68093
 H2545 H 0.62494 0.70155 0.67315
 H2546 H 0.60281 0.71367 0.68511
 H2547 H 0.55442 0.69598 0.72925
 H2548 H 0.53384 0.70914 0.74280
 H2549 H 0.53379 0.74500 0.70858
 H2550 H 0.55437 0.73170 0.69517
 C2551 C 0.59144 0.19196 0.19071
 C2552 C 0.59228 0.17588 0.18946
 C2553 C 0.60483 0.16898 0.18249
 C2554 C 0.61670 0.17809 0.17668
 C2555 C 0.61571 0.19425 0.17794
 C2556 C 0.60316 0.20112 0.18491
 C2557 C 0.57868 0.19909 0.19813
 C2558 C 0.56813 0.20522 0.20442
 C2559 C 0.55568 0.21271 0.21203
 C2560 C 0.54976 0.20648 0.22546
 C2561 C 0.53799 0.21403 0.23311
 C2562 C 0.53200 0.22794 0.22742
 C2563 C 0.53794 0.23403 0.21382
 C2564 C 0.54971 0.22646 0.20620
 H2565 H 0.58325 0.16868 0.19390
 H2566 H 0.60519 0.15653 0.18154
 H2567 H 0.62476 0.20157 0.17378
 H2568 H 0.60265 0.21358 0.18588
 H2569 H 0.55433 0.19586 0.23008
 H2570 H 0.53368 0.20903 0.24354
 H2571 H 0.53360 0.24471 0.20913
 H2572 H 0.55423 0.23140 0.19582
 C2573 C 0.09165 0.69180 0.19039
 C2574 C 0.09252 0.67572 0.18917
 C2575 C 0.10506 0.66883 0.18217
 C2576 C 0.11690 0.67795 0.17629
 C2577 C 0.11588 0.69411 0.17753
 C2578 C 0.10334 0.70097 0.18453
 C2579 C 0.07890 0.69892 0.19782
 C2580 C 0.06835 0.70505 0.20412
 C2581 C 0.05591 0.71254 0.21174
 C2582 C 0.04996 0.70626 0.22513
 C2583 C 0.03820 0.71380 0.23280
 C2584 C 0.03224 0.72775 0.22715
 C2585 C 0.03821 0.73388 0.21359
 C2586 C 0.04997 0.72632 0.20595
 H2587 H 0.08352 0.66851 0.19365
 H2588 H 0.10544 0.65637 0.18123
 H2589 H 0.12490 0.70144 0.17332
 H2590 H 0.10281 0.71343 0.18548
 H2591 H 0.05450 0.69561 0.22973
 H2592 H 0.03386 0.70878 0.24321
 H2593 H 0.03388 0.74459 0.20893
 H2594 H 0.05451 0.73128 0.19559
 C2595 C 0.09116 0.19213 0.69023
 C2596 C 0.09193 0.17604 0.68903
 C2597 C 0.10446 0.16907 0.68210
 C2598 C 0.11639 0.17811 0.67629
 C2599 C 0.11544 0.19428 0.67746
 C2600 C 0.10291 0.20122 0.68440
 C2601 C 0.07846 0.19933 0.69769
 C2602 C 0.06796 0.20548 0.70405
 C2603 C 0.05558 0.21297 0.71176
 C2604 C 0.04967 0.20663 0.72514
 C2605 C 0.03796 0.21415 0.73291
 C2606 C 0.03203 0.22815 0.72737
 C2607 C 0.03796 0.23435 0.71382
 C2608 C 0.04966 0.22680 0.70608
 H2609 H 0.08288 0.16890 0.69350
 H2610 H 0.10478 0.15661 0.68121
 H2611 H 0.12453 0.20154 0.67329
 H2612 H 0.10246 0.21368 0.68533
 H2613 H 0.05419 0.19593 0.72965
 H2614 H 0.03366 0.20907 0.74330
 H2615 H 0.03365 0.24511 0.70926
 H2616 H 0.05417 0.23182 0.69574
 C2617 C 0.40827 0.69177 0.30866
 C2618 C 0.39628 0.68620 0.29979
 C2619 C 0.38375 0.67924 0.30672
 C2620 C 0.38304 0.67778 0.32265
 C2621 C 0.39518 0.68337 0.33146
 C2622 C 0.40771 0.69032 0.32450
 C2623 C 0.42101 0.69915 0.30147
 C2624 C 0.43157 0.70540 0.29529
 C2625 C 0.44401 0.71294 0.28773
 C2626 C 0.45004 0.70666 0.27437
 C2627 C 0.46181 0.71421 0.26674
 C2628 C 0.46769 0.72818 0.27236
 C2629 C 0.46165 0.73433 0.28588
 C2630 C 0.44988 0.72675 0.29350
 H2631 H 0.39657 0.68732 0.28752
 H2632 H 0.37450 0.67526 0.29965
 H2633 H 0.39504 0.68225 0.34373
 H2634 H 0.41694 0.69457 0.33147
 H2635 H 0.44556 0.69598 0.26979
 H2636 H 0.46620 0.70917 0.25636
 H2637 H 0.46592 0.74506 0.29051
 H2638 H 0.44527 0.73173 0.30381
 C2639 C 0.40847 0.19121 0.80908
 C2640 C 0.39646 0.18564 0.80026
 C2641 C 0.38392 0.17875 0.80723
 C2642 C 0.38322 0.17736 0.82316
 C2643 C 0.39538 0.18295 0.83194
 C2644 C 0.40792 0.18983 0.82493
 C2645 C 0.42122 0.19854 0.80186
 C2646 C 0.43178 0.20477 0.79566
 C2647 C 0.44422 0.21231 0.78810
 C2648 C 0.45016 0.20613 0.77467
 C2649 C 0.46192 0.21370 0.76704
 C2650 C 0.46789 0.22760 0.77276
 C2651 C 0.46193 0.23365 0.78636
 C2652 C 0.45017 0.22605 0.79396
 H2653 H 0.39674 0.18671 0.78798
 H2654 H 0.37465 0.17476 0.80017
 H2655 H 0.39525 0.18188 0.84421
 H2656 H 0.41717 0.19409 0.83187
 H2657 H 0.44562 0.19551 0.77001
 H2658 H 0.46625 0.20874 0.75660
 H2659 H 0.46626 0.24432 0.79106
 H2660 H 0.44563 0.23095 0.80435
 C2661 C 0.90828 0.69196 0.80870
 C2662 C 0.89661 0.70116 0.81455
 C2663 C 0.88407 0.69432 0.82159
 C2664 C 0.88305 0.67817 0.82287
 C2665 C 0.89487 0.66902 0.81700
 C2666 C 0.90741 0.67588 0.80996
 C2667 C 0.92103 0.69906 0.80125
 C2668 C 0.93159 0.70516 0.79493
 C2669 C 0.94404 0.71263 0.78731
 C2670 C 0.95003 0.72637 0.79312
 C2671 C 0.96181 0.73390 0.78548
 C2672 C 0.96774 0.72779 0.77190
 C2673 C 0.96174 0.71389 0.76623
 C2674 C 0.94996 0.70638 0.77389
 H2675 H 0.89714 0.71361 0.81358
 H2676 H 0.87506 0.70167 0.82580
 H2677 H 0.89449 0.65657 0.81796
 H2678 H 0.91640 0.66866 0.80549
 H2679 H 0.94552 0.73132 0.80349
 H2680 H 0.96617 0.74458 0.79015
 H2681 H 0.96604 0.70888 0.75581
 H2682 H 0.94538 0.69576 0.76928
 C2683 C 0.90855 0.19105 0.30906
 C2684 C 0.90798 0.18963 0.32491
 C2685 C 0.89543 0.18274 0.33188
 C2686 C 0.88328 0.17716 0.32308
 C2687 C 0.88400 0.17858 0.30715
 C2688 C 0.89655 0.18548 0.30021
 C2689 C 0.92130 0.19841 0.30186
 C2690 C 0.93186 0.20465 0.29568
 C2691 C 0.94430 0.21220 0.28813
 C2692 C 0.95021 0.22597 0.29396
 C2693 C 0.96197 0.23356 0.28635
 C2694 C 0.96796 0.22748 0.27278
 C2695 C 0.96204 0.21354 0.26710
 C2696 C 0.95028 0.20597 0.27473
 H2697 H 0.91722 0.19389 0.33187
 H2698 H 0.89528 0.18165 0.34415
 H2699 H 0.87474 0.17461 0.30008
 H2700 H 0.89684 0.18658 0.28794
 H2701 H 0.94564 0.23090 0.30431
 H2702 H 0.96627 0.24426 0.29102
 H2703 H 0.96639 0.20855 0.25668
 H2704 H 0.94577 0.19533 0.27011
 C2705 C 0.31025 0.30676 0.59140
 C2706 C 0.31601 0.29776 0.60329
 C2707 C 0.32284 0.30480 0.61584
 C2708 C 0.32398 0.32098 0.61667
 C2709 C 0.31824 0.32993 0.60461
 C2710 C 0.31143 0.32285 0.59206
 C2711 C 0.30289 0.29948 0.57869
 C2712 C 0.29659 0.29330 0.56815
 C2713 C 0.28891 0.28584 0.55573
 C2714 C 0.29453 0.27197 0.54982
 C2715 C 0.28683 0.26448 0.53804
 C2716 C 0.27337 0.27077 0.53204
 C2717 C 0.26789 0.28478 0.53797
 C2718 C 0.27562 0.29225 0.54974
 H2719 H 0.31510 0.28529 0.60292
 H2720 H 0.32695 0.29761 0.62503
 H2721 H 0.31912 0.34239 0.60484
 H2722 H 0.30702 0.32993 0.58291
 H2723 H 0.30480 0.26689 0.55439
 H2724 H 0.29135 0.25371 0.53374
 H2725 H 0.25758 0.28993 0.53361
 H2726 H 0.27116 0.30297 0.55425
 C2727 C 0.30930 0.80781 0.09083
 C2728 C 0.31049 0.82389 0.09167
 C2729 C 0.31741 0.83082 0.10425
 C2730 C 0.32322 0.82172 0.11616
 C2731 C 0.32204 0.80556 0.11516
 C2732 C 0.31512 0.79867 0.10258
 C2733 C 0.30190 0.80066 0.07807
 C2734 C 0.29561 0.79454 0.06750
 C2735 C 0.28799 0.78708 0.05504
 C2736 C 0.27466 0.79343 0.04905
 C2737 C 0.26699 0.78594 0.03727
 C2738 C 0.27255 0.77195 0.03132
 C2739 C 0.28604 0.76574 0.03733
 C2740 C 0.29369 0.77326 0.04911
 H2741 H 0.30604 0.83108 0.08262
 H2742 H 0.31830 0.84327 0.10461
 H2743 H 0.32620 0.79825 0.12424
 H2744 H 0.31419 0.78621 0.10208
 H2745 H 0.27014 0.80412 0.05358
 H2746 H 0.25665 0.79102 0.03290
 H2747 H 0.29062 0.75501 0.03301
 H2748 H 0.30398 0.76824 0.05368
 C2749 C 0.81032 0.30767 0.09143
 C2750 C 0.81156 0.32376 0.09216
 C2751 C 0.81844 0.33074 0.10473
 C2752 C 0.82416 0.32170 0.11674
 C2753 C 0.82295 0.30553 0.11582
 C2754 C 0.81607 0.29858 0.10326
 C2755 C 0.80287 0.30049 0.07871
 C2756 C 0.79652 0.29438 0.06817
 C2757 C 0.78879 0.28697 0.05575
 C2758 C 0.77545 0.29338 0.04987
 C2759 C 0.76767 0.28594 0.03811
 C2760 C 0.77314 0.27196 0.03210
 C2761 C 0.78664 0.26568 0.03801
 C2762 C 0.79440 0.27314 0.04976
 H2763 H 0.80717 0.33090 0.08306
 H2764 H 0.81937 0.34319 0.10502
 H2765 H 0.82705 0.29828 0.12497
 H2766 H 0.81510 0.28613 0.10283
 H2767 H 0.77099 0.30407 0.05444
 H2768 H 0.75732 0.29108 0.03383
 H2769 H 0.79116 0.25493 0.03364
 H2770 H 0.80470 0.26806 0.05425
 C2771 C 0.81012 0.80758 0.59116
 C2772 C 0.81591 0.79857 0.60302
 C2773 C 0.82274 0.80560 0.61557
 C2774 C 0.82385 0.82178 0.61644
 C2775 C 0.81808 0.83074 0.60441
 C2776 C 0.81126 0.82368 0.59185
 C2777 C 0.80278 0.80031 0.57843
 C2778 C 0.79651 0.79412 0.56789
 C2779 C 0.78887 0.78662 0.55546
 C2780 C 0.79455 0.77278 0.54955
 C2781 C 0.78688 0.76525 0.53779
 C2782 C 0.77340 0.77147 0.53177
 C2783 C 0.76787 0.78547 0.53770
 C2784 C 0.77556 0.79298 0.54946
 H2785 H 0.81503 0.78610 0.60263
 H2786 H 0.82688 0.79840 0.62474
 H2787 H 0.81893 0.84321 0.60466
 H2788 H 0.80683 0.83077 0.58272
 H2789 H 0.80484 0.76775 0.55413
 H2790 H 0.79144 0.75449 0.53349
 H2791 H 0.75753 0.79057 0.53333
 H2792 H 0.77105 0.80368 0.55397
 C2793 C 0.31007 0.69240 0.40865
 C2794 C 0.31134 0.67632 0.40788
 C2795 C 0.31823 0.66936 0.39530
 C2796 C 0.32394 0.67842 0.38331
 C2797 C 0.32272 0.69459 0.38426
 C2798 C 0.31582 0.70151 0.39684
 C2799 C 0.30262 0.69955 0.42139
 C2800 C 0.29625 0.70564 0.43194
 C2801 C 0.28851 0.71301 0.44438
 C2802 C 0.27523 0.70652 0.45031
 C2803 C 0.26744 0.71392 0.46209
 C2804 C 0.27284 0.72793 0.46809
 C2805 C 0.28628 0.73429 0.46214
 C2806 C 0.29405 0.72687 0.45036
 H2807 H 0.30694 0.66915 0.41697
 H2808 H 0.31916 0.65691 0.39499
 H2809 H 0.32682 0.70186 0.37513
 H2810 H 0.31484 0.71397 0.39729
 H2811 H 0.27083 0.69581 0.44575
 H2812 H 0.25713 0.70872 0.46641
 H2813 H 0.29074 0.74506 0.46649
 H2814 H 0.30431 0.73200 0.44583
 C2815 C 0.31035 0.19244 0.90917
 C2816 C 0.31157 0.17636 0.90845
 C2817 C 0.31843 0.16935 0.89588
 C2818 C 0.32415 0.17835 0.88386
 C2819 C 0.32297 0.19452 0.88475
 C2820 C 0.31610 0.20151 0.89732
 C2821 C 0.30294 0.19966 0.92190
 C2822 C 0.29661 0.20580 0.93244
 C2823 C 0.28891 0.21323 0.94487
 C2824 C 0.27561 0.20681 0.95083
 C2825 C 0.26786 0.21427 0.96260
 C2826 C 0.27332 0.22827 0.96856
 C2827 C 0.28678 0.23456 0.96259
 C2828 C 0.29451 0.22708 0.95081
 H2829 H 0.30717 0.16924 0.91757
 H2830 H 0.31933 0.15689 0.89560
 H2831 H 0.32707 0.20176 0.87559
 H2832 H 0.31516 0.21397 0.89773
 H2833 H 0.27116 0.19611 0.94630
 H2834 H 0.25753 0.20912 0.96694
 H2835 H 0.29129 0.24532 0.96691
 H2836 H 0.30479 0.23217 0.94627
 C2837 C 0.80972 0.69222 0.90858
 C2838 C 0.81100 0.67614 0.90777
 C2839 C 0.81793 0.66923 0.89518
 C2840 C 0.82367 0.67834 0.88324
 C2841 C 0.82241 0.69450 0.88422
 C2842 C 0.81548 0.70138 0.89681
 C2843 C 0.80228 0.69935 0.92134
 C2844 C 0.79594 0.70544 0.93191
 C2845 C 0.78825 0.71285 0.94436
 C2846 C 0.77495 0.70643 0.95031
 C2847 C 0.76720 0.71388 0.96209
 C2848 C 0.77267 0.72788 0.96806
 C2849 C 0.78613 0.73417 0.96208
 C2850 C 0.79386 0.72669 0.95030
 H2851 H 0.80660 0.66895 0.91683
 H2852 H 0.81888 0.65678 0.89483
 H2853 H 0.82653 0.70181 0.87512
 H2854 H 0.81449 0.71383 0.89730
 H2855 H 0.77049 0.69573 0.94577
 H2856 H 0.75687 0.70873 0.96643
 H2857 H 0.79064 0.74492 0.96641
 H2858 H 0.80413 0.73178 0.94576
 C2859 C 0.81023 0.19241 0.40891
 C2860 C 0.81144 0.17632 0.40821
 C2861 C 0.81834 0.16929 0.39568
 C2862 C 0.82412 0.17828 0.38367
 C2863 C 0.82295 0.19445 0.38454
 C2864 C 0.81604 0.20146 0.39708
 C2865 C 0.80276 0.19964 0.42159
 C2866 C 0.79637 0.20579 0.43209
 C2867 C 0.78860 0.21324 0.44447
 C2868 C 0.77527 0.20682 0.45036
 C2869 C 0.76746 0.21429 0.46209
 C2870 C 0.77288 0.22831 0.46806
 C2871 C 0.78638 0.23459 0.46214
 C2872 C 0.79416 0.22710 0.45042
 H2873 H 0.80699 0.16921 0.41732
 H2874 H 0.81923 0.15683 0.39542
 H2875 H 0.82709 0.20167 0.37539
 H2876 H 0.81510 0.21392 0.39747
 H2877 H 0.77085 0.19611 0.44582
 H2878 H 0.75711 0.20914 0.46638
 H2879 H 0.79086 0.24536 0.46648
 H2880 H 0.80446 0.23218 0.44592
 C2881 C 0.69021 0.30818 0.40860
 C2882 C 0.68441 0.29904 0.39685
 C2883 C 0.67743 0.30594 0.38429
 C2884 C 0.67617 0.32210 0.38332
 C2885 C 0.68197 0.33119 0.39524
 C2886 C 0.68894 0.32426 0.40779
 C2887 C 0.69768 0.30103 0.42133
 C2888 C 0.70403 0.29492 0.43187
 C2889 C 0.71173 0.28746 0.44430
 C2890 C 0.70611 0.27359 0.45021
 C2891 C 0.71382 0.26608 0.46197
 C2892 C 0.72729 0.27234 0.46796
 C2893 C 0.73276 0.28637 0.46203
 C2894 C 0.72502 0.29386 0.45027
 H2895 H 0.68539 0.28659 0.39733
 H2896 H 0.67327 0.29864 0.37521
 H2897 H 0.68102 0.34364 0.39490
 H2898 H 0.69338 0.33144 0.41684
 H2899 H 0.69584 0.26853 0.44565
 H2900 H 0.70931 0.25531 0.46627
 H2901 H 0.74309 0.29149 0.46638
 H2902 H 0.72948 0.30457 0.44576
 C2903 C 0.69029 0.80782 0.90859
 C2904 C 0.68454 0.79870 0.89680
 C2905 C 0.67764 0.80563 0.88422
 C2906 C 0.67640 0.82179 0.88326
 C2907 C 0.68215 0.83086 0.89522
 C2908 C 0.68905 0.82390 0.90780
 C2909 C 0.69769 0.80065 0.92136
 C2910 C 0.70399 0.79452 0.93192
 C2911 C 0.71165 0.78707 0.94437
 C2912 C 0.70603 0.77321 0.95029
 C2913 C 0.71373 0.76570 0.96207
 C2914 C 0.72718 0.77197 0.96807
 C2915 C 0.73266 0.78599 0.96214
 C2916 C 0.72494 0.79347 0.95037
 H2917 H 0.68551 0.78625 0.89726
 H2918 H 0.67352 0.79835 0.87510
 H2919 H 0.68121 0.84331 0.89489
 H2920 H 0.69345 0.83107 0.91688
 H2921 H 0.69577 0.76813 0.94571
 H2922 H 0.70921 0.75493 0.96637
 H2923 H 0.74297 0.79112 0.96651
 H2924 H 0.72940 0.80419 0.94586
 C2925 C 0.19064 0.30800 0.90919
 C2926 C 0.18483 0.29882 0.89747
 C2927 C 0.17784 0.30567 0.88490
 C2928 C 0.17658 0.32183 0.88388
 C2929 C 0.18238 0.33096 0.89576
 C2930 C 0.18937 0.32408 0.90833
 C2931 C 0.19812 0.30090 0.92194
 C2932 C 0.20448 0.29481 0.93249
 C2933 C 0.21219 0.28738 0.94493
 C2934 C 0.20657 0.27353 0.95088
 C2935 C 0.21430 0.26604 0.96265
 C2936 C 0.22777 0.27231 0.96861
 C2937 C 0.23324 0.28632 0.96264
 C2938 C 0.22549 0.29379 0.95087
 H2939 H 0.18581 0.28637 0.89799
 H2940 H 0.17367 0.29835 0.87585
 H2941 H 0.18143 0.34341 0.89538
 H2942 H 0.19382 0.33129 0.91735
 H2943 H 0.19629 0.26846 0.94635
 H2944 H 0.20978 0.25528 0.96698
 H2945 H 0.24358 0.29145 0.96697
 H2946 H 0.22995 0.30449 0.94633
 C2947 C 0.19016 0.80772 0.40884
 C2948 C 0.18440 0.79860 0.39705
 C2949 C 0.17748 0.80552 0.38448
 C2950 C 0.17623 0.82168 0.38352
 C2951 C 0.18200 0.83075 0.39547
 C2952 C 0.18891 0.82380 0.40804
 C2953 C 0.19758 0.80055 0.42159
 C2954 C 0.20391 0.79442 0.43214
 C2955 C 0.21159 0.78696 0.44457
 C2956 C 0.20602 0.77306 0.45044
 C2957 C 0.21374 0.76554 0.46219
 C2958 C 0.22717 0.77184 0.46822
 C2959 C 0.23260 0.78590 0.46234
 C2960 C 0.22485 0.79340 0.45059
 H2961 H 0.18537 0.78614 0.39752
 H2962 H 0.17335 0.79823 0.37538
 H2963 H 0.18105 0.84321 0.39514
 H2964 H 0.19332 0.83097 0.41711
 H2965 H 0.19577 0.76797 0.44584
 H2966 H 0.20926 0.75474 0.46646
 H2967 H 0.24290 0.79106 0.46672
 H2968 H 0.22928 0.80414 0.44611
 C2969 C 0.69127 0.69146 0.59136
 C2970 C 0.68542 0.70068 0.60303
 C2971 C 0.67838 0.69387 0.61560
 C2972 C 0.67710 0.67772 0.61665
 C2973 C 0.68296 0.66854 0.60483
 C2974 C 0.69000 0.67539 0.59226
 C2975 C 0.69873 0.69854 0.57858
 C2976 C 0.70505 0.70462 0.56800
 C2977 C 0.71269 0.71207 0.55553
 C2978 C 0.70699 0.72589 0.54958
 C2979 C 0.71465 0.73341 0.53779
 C2980 C 0.72815 0.72719 0.53180
 C2981 C 0.73370 0.71321 0.53776
 C2982 C 0.72601 0.70571 0.54956
 H2983 H 0.68640 0.71313 0.60248
 H2984 H 0.67418 0.70123 0.62461
 H2985 H 0.68199 0.65609 0.60524
 H2986 H 0.69447 0.66815 0.58327
 H2987 H 0.69670 0.73092 0.55415
 H2988 H 0.71008 0.74414 0.53347
 H2989 H 0.74405 0.70812 0.53341
 H2990 H 0.73053 0.69503 0.55410
 C2991 C 0.69063 0.19199 0.09150
 C2992 C 0.68481 0.20115 0.10323
 C2993 C 0.67780 0.19427 0.11578
 C2994 C 0.67653 0.17812 0.11677
 C2995 C 0.68236 0.16900 0.10487
 C2996 C 0.68936 0.17591 0.09232
 C2997 C 0.69811 0.19912 0.07876
 C2998 C 0.70446 0.20523 0.06822
 C2999 C 0.71214 0.21270 0.05579
 C3000 C 0.70649 0.22656 0.04988
 C3001 C 0.71418 0.23409 0.03812
 C3002 C 0.72766 0.22786 0.03213
 C3003 C 0.73318 0.21385 0.03805
 C3004 C 0.72546 0.20633 0.04981
 H3005 H 0.68579 0.21360 0.10274
 H3006 H 0.67363 0.20159 0.12484
 H3007 H 0.68140 0.15655 0.10523
 H3008 H 0.69382 0.16871 0.08329
 H3009 H 0.69620 0.23160 0.05445
 H3010 H 0.70963 0.24486 0.03383
 H3011 H 0.74352 0.20875 0.03369
 H3012 H 0.72994 0.19563 0.05432
 C3013 C 0.19032 0.69190 0.09068
 C3014 C 0.18455 0.70106 0.10244
 C3015 C 0.17761 0.69418 0.11503
 C3016 C 0.17637 0.67803 0.11603
 C3017 C 0.18214 0.66891 0.10411
 C3018 C 0.18907 0.67582 0.09152
 C3019 C 0.19775 0.69902 0.07791
 C3020 C 0.20407 0.70513 0.06735
 C3021 C 0.21174 0.71257 0.05490
 C3022 C 0.20606 0.72639 0.04893
 C3023 C 0.21376 0.73390 0.03716
 C3024 C 0.22728 0.72769 0.03122
 C3025 C 0.23281 0.71371 0.03720
 C3026 C 0.22509 0.70622 0.04897
 H3027 H 0.18552 0.71351 0.10193
 H3028 H 0.17348 0.70150 0.12411
 H3029 H 0.18120 0.65646 0.10448
 H3030 H 0.19349 0.66862 0.08247
 H3031 H 0.19575 0.73142 0.05346
 H3032 H 0.20920 0.74464 0.03282
 H3033 H 0.24318 0.70862 0.03289
 H3034 H 0.22959 0.69554 0.05353
 C3035 C 0.19084 0.19116 0.59147
 C3036 C 0.18500 0.20042 0.60312
 C3037 C 0.17794 0.19365 0.61569
 C3038 C 0.17664 0.17751 0.61680
 C3039 C 0.18251 0.16829 0.60500
 C3040 C 0.18956 0.17509 0.59242
 C3041 C 0.19834 0.19819 0.57869
 C3042 C 0.20469 0.20423 0.56811
 C3043 C 0.21237 0.21164 0.55564
 C3044 C 0.20673 0.22548 0.54968
 C3045 C 0.21444 0.23296 0.53790
 C3046 C 0.22792 0.22670 0.53193
 C3047 C 0.23341 0.21269 0.53790
 C3048 C 0.22568 0.20523 0.54968
 H3049 H 0.18599 0.21287 0.60253
 H3050 H 0.17374 0.20105 0.62468
 H3051 H 0.18153 0.15585 0.60545
 H3052 H 0.19403 0.16782 0.58346
 H3053 H 0.19645 0.23055 0.55423
 H3054 H 0.20991 0.24372 0.53357
 H3055 H 0.24375 0.20757 0.53356
 H3056 H 0.23015 0.19453 0.55423
   
