data_POSCAR
  _audit_creation_date              2014-09-24
  _audit_creation_method            'ToBaCCo'
  _symmetry_space_group_name_H-M    'P1'
  _symmetry_Int_Tables_number       1
  _symmetry_cell_setting            triclinic
  loop_
  _symmetry_equiv_pos_as_xyz
 x,y,z
_cell_length_a 97.9801
_cell_length_b 98.0602
_cell_length_c 98.2502
_cell_angle_alpha 89.983400
_cell_angle_beta 89.960100
_cell_angle_gamma 89.968700
loop_
  _atom_site_label
  _atom_site_type_symbol
  _atom_site_fract_x
  _atom_site_fract_y
  _atom_site_fract_z
N1 N 0.35470 0.31705 0.32669
 N2 N 0.35456 0.32661 0.31731
 C3 C 0.36554 0.32503 0.30918
 C4 C 0.37291 0.31392 0.31378
 C5 C 0.36572 0.30907 0.32487
 H6 H 0.36818 0.33161 0.30075
 H7 H 0.36851 0.30056 0.33129
 Cu8 Cu 0.34052 0.34065 0.31727
 Cu9 Cu 0.34113 0.31615 0.34116
 Cu10 Cu 0.31603 0.34107 0.34121
 N11 N 0.32638 0.35460 0.31740
 N12 N 0.31681 0.35466 0.32679
 C13 C 0.30876 0.36565 0.32501
 C14 C 0.31359 0.37288 0.31394
 C15 C 0.32474 0.36559 0.30931
 H16 H 0.30024 0.36839 0.33146
 H17 H 0.33131 0.36828 0.30089
 N18 N 0.31698 0.32647 0.35496
 N19 N 0.32654 0.31698 0.35496
 C20 C 0.32484 0.30894 0.36596
 C21 C 0.31372 0.31365 0.37321
 C22 C 0.30895 0.32472 0.36596
 H23 H 0.33136 0.30048 0.36870
 H24 H 0.30044 0.33119 0.36871
 H25 H 0.32570 0.32573 0.33051
 H26 H 0.33668 0.33675 0.34147
 N27 N 0.35503 0.81730 -0.17348
 N28 N 0.35498 0.82690 -0.18284
 C29 C 0.36600 0.82530 -0.19092
 C30 C 0.37331 0.81414 -0.18632
 C31 C 0.36604 0.80927 -0.17528
 H32 H 0.36868 0.83189 -0.19933
 H33 H 0.36870 0.80067 -0.16889
 Cu34 Cu 0.34095 0.84095 -0.18292
 Cu35 Cu 0.34142 0.81641 -0.15905
 Cu36 Cu 0.31633 0.84139 -0.15907
 N37 N 0.32684 0.85492 -0.18285
 N38 N 0.31720 0.85497 -0.17352
 C39 C 0.30915 0.86595 -0.17537
 C40 C 0.31405 0.87320 -0.18641
 C41 C 0.32525 0.86590 -0.19096
 H42 H 0.30052 0.86862 -0.16900
 H43 H 0.33186 0.86857 -0.19936
 N44 N 0.31722 0.82678 -0.14531
 N45 N 0.32677 0.81728 -0.14531
 C46 C 0.32505 0.80925 -0.13431
 C47 C 0.31393 0.81395 -0.12706
 C48 C 0.30917 0.82504 -0.13431
 H49 H 0.33156 0.80077 -0.13157
 H50 H 0.30066 0.83152 -0.13158
 H51 H 0.32600 0.82604 -0.16978
 H52 H 0.33696 0.83704 -0.15872
 N53 N 0.85459 0.31765 -0.17327
 N54 N 0.85438 0.32706 -0.18281
 C55 C 0.86542 0.32548 -0.19086
 C56 C 0.87285 0.31449 -0.18611
 C57 C 0.86568 0.30973 -0.17497
 H58 H 0.86797 0.33192 -0.19943
 H59 H 0.86851 0.30131 -0.16843
 Cu60 Cu 0.84013 0.34090 -0.18343
 Cu61 Cu 0.84094 0.31677 -0.15893
 Cu62 Cu 0.81600 0.34175 -0.15893
 N63 N 0.82633 0.35518 -0.18279
 N64 N 0.81691 0.35540 -0.17324
 C65 C 0.80901 0.36651 -0.17490
 C66 C 0.81381 0.37370 -0.18602
 C67 C 0.82479 0.36623 -0.19081
 H68 H 0.80059 0.36931 -0.16833
 H69 H 0.83125 0.36876 -0.19937
 N70 N 0.81676 0.32712 -0.14525
 N71 N 0.82628 0.31759 -0.14524
 C72 C 0.82449 0.30953 -0.13427
 C73 C 0.81336 0.31426 -0.12705
 C74 C 0.80866 0.32538 -0.13429
 H75 H 0.83097 0.30104 -0.13153
 H76 H 0.80017 0.33187 -0.13157
 H77 H 0.82546 0.32624 -0.16964
 H78 H 0.83669 0.33743 -0.15908
 N79 N 0.85454 0.81742 0.32671
 N80 N 0.85432 0.82686 0.31720
 C81 C 0.86534 0.82532 0.30913
 C82 C 0.87282 0.81434 0.31387
 C83 C 0.86566 0.80954 0.32500
 H84 H 0.86790 0.83181 0.30061
 H85 H 0.86850 0.80111 0.33151
 Cu86 Cu 0.84007 0.84069 0.31665
 Cu87 Cu 0.84091 0.81652 0.34107
 Cu88 Cu 0.81596 0.84152 0.34116
 N89 N 0.82626 0.85496 0.31732
 N90 N 0.81683 0.85518 0.32685
 C91 C 0.80894 0.86631 0.32517
 C92 C 0.81375 0.87348 0.31404
 C93 C 0.82472 0.86598 0.30927
 H94 H 0.80051 0.86912 0.33171
 H95 H 0.83120 0.86850 0.30071
 N96 N 0.81677 0.82686 0.35483
 N97 N 0.82629 0.81732 0.35480
 C98 C 0.82454 0.80924 0.36576
 C99 C 0.81344 0.81397 0.37303
 C100 C 0.80872 0.82510 0.36582
 H101 H 0.83103 0.80075 0.36848
 H102 H 0.80025 0.83160 0.36858
 H103 H 0.82541 0.82602 0.33044
 H104 H 0.83665 0.83719 0.34100
 N105 N 0.64508 0.68287 0.32682
 N106 N 0.64536 0.67347 0.31729
 C107 C 0.63434 0.67499 0.30922
 C108 C 0.62684 0.68595 0.31395
 C109 C 0.63395 0.69074 0.32510
 H110 H 0.63184 0.66853 0.30066
 H111 H 0.63108 0.69916 0.33162
 Cu112 Cu 0.65965 0.65969 0.31670
 Cu113 Cu 0.65871 0.68381 0.34117
 Cu114 Cu 0.68375 0.65891 0.34118
 N115 N 0.67352 0.64547 0.31732
 N116 N 0.68292 0.64527 0.32686
 C117 C 0.69085 0.63419 0.32518
 C118 C 0.68611 0.62702 0.31405
 C119 C 0.67511 0.63445 0.30929
 H120 H 0.69927 0.63137 0.33172
 H121 H 0.66866 0.63188 0.30074
 N122 N 0.68290 0.67354 0.35486
 N123 N 0.67335 0.68304 0.35488
 C124 C 0.67510 0.69110 0.36585
 C125 C 0.68624 0.68639 0.37307
 C126 C 0.69097 0.67530 0.36581
 H127 H 0.66859 0.69958 0.36861
 H128 H 0.69949 0.66883 0.36854
 H129 H 0.67425 0.67440 0.33049
 H130 H 0.66305 0.66316 0.34105
 N131 N 0.64508 0.18255 -0.17330
 N132 N 0.64504 0.17282 -0.18252
 C133 C 0.63404 0.17441 -0.19061
 C134 C 0.62685 0.18569 -0.18617
 C135 C 0.63414 0.19062 -0.17520
 H136 H 0.63127 0.16778 -0.19896
 H137 H 0.63154 0.19933 -0.16896
 Cu138 Cu 0.65911 0.15881 -0.18255
 Cu139 Cu 0.65875 0.18357 -0.15895
 Cu140 Cu 0.68381 0.15857 -0.15891
 N141 N 0.67314 0.14476 -0.18245
 N142 N 0.68287 0.14485 -0.17322
 C143 C 0.69098 0.13393 -0.17509
 C144 C 0.68605 0.12658 -0.18604
 C145 C 0.67476 0.13377 -0.19053
 H146 H 0.69971 0.13139 -0.16884
 H147 H 0.66813 0.13100 -0.19888
 N148 N 0.68298 0.17329 -0.14526
 N149 N 0.67343 0.18280 -0.14526
 C150 C 0.67518 0.19088 -0.13430
 C151 C 0.68631 0.18618 -0.12707
 C152 C 0.69104 0.17507 -0.13430
 H153 H 0.66866 0.19934 -0.13156
 H154 H 0.69954 0.16859 -0.13157
 H155 H 0.67408 0.17388 -0.16972
 H156 H 0.66325 0.16305 -0.15851
 N157 N 0.14507 0.68292 -0.17320
 N158 N 0.14510 0.67329 -0.18251
 C159 C 0.13413 0.67490 -0.19062
 C160 C 0.12690 0.68614 -0.18611
 C161 C 0.13414 0.69100 -0.17508
 H162 H 0.13143 0.66831 -0.19902
 H163 H 0.13146 0.69960 -0.16872
 Cu164 Cu 0.15915 0.65924 -0.18251
 Cu165 Cu 0.15869 0.68384 -0.15879
 Cu166 Cu 0.18379 0.65886 -0.15882
 N167 N 0.17323 0.64525 -0.18252
 N168 N 0.18290 0.64524 -0.17323
 C169 C 0.19099 0.63432 -0.17513
 C170 C 0.18609 0.62706 -0.18613
 C171 C 0.17484 0.63427 -0.19062
 H172 H 0.19960 0.63165 -0.16878
 H173 H 0.16821 0.63155 -0.19899
 N174 N 0.18289 0.67349 -0.14508
 N175 N 0.17332 0.68299 -0.14506
 C176 C 0.17502 0.69100 -0.13405
 C177 C 0.18613 0.68628 -0.12681
 C178 C 0.19091 0.67522 -0.13408
 H179 H 0.16849 0.69945 -0.13128
 H180 H 0.19940 0.66874 -0.13134
 H181 H 0.17408 0.67420 -0.16947
 H182 H 0.16318 0.66325 -0.15837
 N183 N 0.14511 0.18296 0.32667
 N184 N 0.14514 0.17330 0.31738
 C185 C 0.13420 0.17493 0.30923
 C186 C 0.12693 0.18614 0.31376
 C187 C 0.13416 0.19101 0.32479
 H188 H 0.13151 0.16833 0.30084
 H189 H 0.13145 0.19959 0.33117
 Cu190 Cu 0.15922 0.15932 0.31737
 Cu191 Cu 0.15870 0.18389 0.34112
 Cu192 Cu 0.18380 0.15891 0.34109
 N193 N 0.17327 0.14530 0.31737
 N194 N 0.18293 0.14532 0.32666
 C195 C 0.19103 0.13439 0.32481
 C196 C 0.18616 0.12713 0.31380
 C197 C 0.17493 0.13434 0.30926
 H198 H 0.19961 0.13171 0.33119
 H199 H 0.16832 0.13161 0.30088
 N200 N 0.18288 0.17352 0.35483
 N201 N 0.17333 0.18303 0.35486
 C202 C 0.17504 0.19103 0.36588
 C203 C 0.18614 0.18627 0.37312
 C204 C 0.19091 0.17522 0.36583
 H205 H 0.16851 0.19947 0.36866
 H206 H 0.19939 0.16871 0.36856
 H207 H 0.17409 0.17427 0.33043
 H208 H 0.16316 0.16330 0.34152
 N209 N 0.64506 0.31715 0.67328
 N210 N 0.64527 0.32660 0.68277
 C211 C 0.63426 0.32505 0.69086
 C212 C 0.62679 0.31407 0.68613
 C213 C 0.63395 0.30927 0.67500
 H214 H 0.63169 0.33154 0.69939
 H215 H 0.63111 0.30084 0.66849
 Cu216 Cu 0.65953 0.34041 0.68333
 Cu217 Cu 0.65866 0.31624 0.65891
 Cu218 Cu 0.68360 0.34122 0.65878
 N219 N 0.67335 0.35466 0.68265
 N220 N 0.68275 0.35486 0.67310
 C221 C 0.69066 0.36595 0.67475
 C222 C 0.68594 0.37310 0.68591
 C223 C 0.67497 0.36566 0.69072
 H224 H 0.69907 0.36876 0.66819
 H225 H 0.66854 0.36823 0.69930
 N226 N 0.68277 0.32657 0.64511
 N227 N 0.67327 0.31703 0.64516
 C228 C 0.67501 0.30895 0.63421
 C229 C 0.68610 0.31368 0.62693
 C230 C 0.69081 0.32481 0.63412
 H231 H 0.66854 0.30044 0.63151
 H232 H 0.69928 0.33131 0.63134
 H233 H 0.67417 0.32572 0.66953
 H234 H 0.66291 0.33690 0.65899
 N235 N 0.64517 0.81703 1.17317
 N236 N 0.64524 0.82663 1.18251
 C237 C 0.63426 0.82506 1.19062
 C238 C 0.62698 0.81387 1.18612
 C239 C 0.63419 0.80900 1.17506
 H240 H 0.63159 0.83163 1.19906
 H241 H 0.63152 0.80039 1.16874
 Cu242 Cu 0.65931 0.84062 1.18264
 Cu243 Cu 0.65882 0.81614 1.15877
 Cu244 Cu 0.68388 0.84115 1.15886
 N245 N 0.67332 0.85466 1.18260
 N246 N 0.68297 0.85473 1.17328
 C247 C 0.69102 0.86567 1.17520
 C248 C 0.68611 0.87288 1.18624
 C249 C 0.67488 0.86563 1.19072
 H250 H 0.69966 0.86834 1.16890
 H251 H 0.66827 0.86830 1.19913
 N252 N 0.68301 0.82656 1.14510
 N253 N 0.67348 0.81705 1.14505
 C254 C 0.67522 0.80907 1.13402
 C255 C 0.68633 0.81383 1.12681
 C256 C 0.69106 0.82488 1.13410
 H257 H 0.66871 0.80062 1.13124
 H258 H 0.69954 0.83139 1.13139
 H259 H 0.67422 0.82569 1.16953
 H260 H 0.66329 0.83668 1.15852
 N261 N 0.14512 0.31734 1.17322
 N262 N 0.14531 0.32676 1.18274
 C263 C 0.13427 0.32521 1.19077
 C264 C 0.12683 0.31424 1.18602
 C265 C 0.13401 0.30945 1.17490
 H266 H 0.13169 0.33169 1.19931
 H267 H 0.13119 0.30103 1.16839
 Cu268 Cu 0.15955 0.34058 1.18335
 Cu269 Cu 0.15878 0.31645 1.15892
 Cu270 Cu 0.18372 0.34142 1.15886
 N271 N 0.17335 0.35484 1.18271
 N272 N 0.18277 0.35507 1.17318
 C273 C 0.19064 0.36619 1.17486
 C274 C 0.18585 0.37333 1.18599
 C275 C 0.17488 0.36587 1.19076
 H276 H 0.19908 0.36902 1.16834
 H277 H 0.16841 0.36841 1.19930
 N278 N 0.18294 0.32676 1.14519
 N279 N 0.17343 0.31724 1.14523
 C280 C 0.17518 0.30915 1.13430
 C281 C 0.18628 0.31385 1.12702
 C282 C 0.19100 0.32498 1.13421
 H283 H 0.16868 0.30066 1.13159
 H284 H 0.19948 0.33147 1.13143
 H285 H 0.17429 0.32596 1.16958
 H286 H 0.16305 0.33715 1.15901
 N287 N 0.14515 0.81723 0.67309
 N288 N 0.14538 0.82665 0.68261
 C289 C 0.13435 0.82511 0.69068
 C290 C 0.12688 0.81416 0.68592
 C291 C 0.13403 0.80937 0.67479
 H292 H 0.13179 0.83159 0.69921
 H293 H 0.13119 0.80096 0.66826
 Cu294 Cu 0.15964 0.84045 0.68318
 Cu295 Cu 0.15877 0.81633 0.65874
 Cu296 Cu 0.18376 0.84126 0.65867
 N297 N 0.17347 0.85469 0.68252
 N298 N 0.18290 0.85490 0.67300
 C299 C 0.19079 0.86600 0.67469
 C300 C 0.18600 0.87315 0.68582
 C301 C 0.17503 0.86569 0.69058
 H302 H 0.19922 0.86883 0.66816
 H303 H 0.16856 0.86824 0.69913
 N304 N 0.18292 0.82662 0.64500
 N305 N 0.17338 0.81712 0.64502
 C306 C 0.17511 0.80905 0.63405
 C307 C 0.18621 0.81376 0.62679
 C308 C 0.19095 0.82486 0.63401
 H309 H 0.16860 0.80058 0.63132
 H310 H 0.19944 0.83135 0.63124
 H311 H 0.17430 0.82579 0.66938
 H312 H 0.16306 0.83701 0.65883
 N313 N 0.35480 0.68299 0.67301
 N314 N 0.35465 0.67355 0.68251
 C315 C 0.36564 0.67518 0.69059
 C316 C 0.37307 0.68616 0.68581
 C317 C 0.36589 0.69092 0.67468
 H318 H 0.36822 0.66872 0.69913
 H319 H 0.36867 0.69936 0.66816
 Cu320 Cu 0.34043 0.65969 0.68321
 Cu321 Cu 0.34113 0.68379 0.65871
 Cu322 Cu 0.31625 0.65876 0.65880
 N323 N 0.32664 0.64540 0.68265
 N324 N 0.31718 0.64516 0.67317
 C325 C 0.30933 0.63405 0.67490
 C326 C 0.31412 0.62693 0.68605
 C327 C 0.32508 0.63442 0.69078
 H328 H 0.30090 0.63120 0.66840
 H329 H 0.33157 0.63189 0.69932
 N330 N 0.31698 0.67336 0.64507
 N331 N 0.32647 0.68291 0.64504
 C332 C 0.32466 0.69096 0.63408
 C333 C 0.31356 0.68620 0.62686
 C334 C 0.30889 0.67508 0.63412
 H335 H 0.33112 0.69947 0.63132
 H336 H 0.30042 0.66857 0.63140
 H337 H 0.32568 0.67430 0.66944
 H338 H 0.33692 0.66312 0.65887
 N339 N 0.35493 0.18285 1.17301
 N340 N 0.35475 0.17340 1.18251
 C341 C 0.36577 0.17496 1.19055
 C342 C 0.37322 0.18594 1.18579
 C343 C 0.36604 0.19075 1.17470
 H344 H 0.36835 0.16847 1.19907
 H345 H 0.36886 0.19919 1.16819
 Cu346 Cu 0.34049 0.15959 1.18317
 Cu347 Cu 0.34126 0.18374 1.15872
 Cu348 Cu 0.31632 0.15877 1.15874
 N349 N 0.32668 0.14533 1.18256
 N350 N 0.31724 0.14513 1.17306
 C351 C 0.30936 0.13402 1.17475
 C352 C 0.31416 0.12686 1.18586
 C353 C 0.32513 0.13432 1.19063
 H354 H 0.30094 0.13120 1.16823
 H355 H 0.33161 0.13175 1.19915
 N356 N 0.31709 0.17341 1.14505
 N357 N 0.32661 0.18294 1.14506
 C358 C 0.32485 0.19101 1.13411
 C359 C 0.31376 0.18630 1.12686
 C360 C 0.30903 0.17518 1.13408
 H361 H 0.33135 0.19949 1.13138
 H362 H 0.30056 0.16868 1.13132
 H363 H 0.32577 0.17425 1.16943
 H364 H 0.33699 0.16306 1.15884
 N365 N 0.85490 0.68295 1.17300
 N366 N 0.85468 0.67353 1.18252
 C367 C 0.86568 0.67511 1.19059
 C368 C 0.87315 0.68606 1.18581
 C369 C 0.86601 0.69084 1.17468
 H370 H 0.86822 0.66865 1.19915
 H371 H 0.86883 0.69926 1.16815
 Cu372 Cu 0.84042 0.65974 1.18323
 Cu373 Cu 0.84122 0.68383 1.15870
 Cu374 Cu 0.81627 0.65886 1.15881
 N375 N 0.82663 0.64546 1.18263
 N376 N 0.81719 0.64523 1.17313
 C377 C 0.80933 0.63411 1.17483
 C378 C 0.81414 0.62697 1.18595
 C379 C 0.82509 0.63445 1.19070
 H380 H 0.80091 0.63127 1.16831
 H381 H 0.83158 0.63191 1.19924
 N382 N 0.81703 0.67349 1.14511
 N383 N 0.82654 0.68301 1.14505
 C384 C 0.82475 0.69105 1.13407
 C385 C 0.81361 0.68630 1.12689
 C386 C 0.80893 0.67521 1.13417
 H387 H 0.83122 0.69953 1.13128
 H388 H 0.80044 0.66871 1.13147
 H389 H 0.82575 0.67441 1.16945
 H390 H 0.83697 0.66318 1.15889
 N391 N 0.85476 0.18295 0.67302
 N392 N 0.85480 0.17330 0.68231
 C393 C 0.86574 0.17497 0.69044
 C394 C 0.87297 0.18618 0.68588
 C395 C 0.86569 0.19104 0.67486
 H396 H 0.86849 0.16838 0.69884
 H397 H 0.86832 0.19965 0.66852
 Cu398 Cu 0.84077 0.15926 0.68249
 Cu399 Cu 0.84109 0.18378 0.65865
 Cu400 Cu 0.81612 0.15871 0.65881
 N401 N 0.82680 0.14517 0.68249
 N402 N 0.81710 0.14514 0.67324
 C403 C 0.80907 0.13419 0.67516
 C404 C 0.81401 0.12695 0.68617
 C405 C 0.82521 0.13423 0.69066
 H406 H 0.80044 0.13151 0.66886
 H407 H 0.83186 0.13152 0.69903
 N408 N 0.81691 0.17329 0.64504
 N409 N 0.82642 0.18283 0.64498
 C410 C 0.82467 0.19080 0.63395
 C411 C 0.81358 0.18600 0.62673
 C412 C 0.80886 0.17495 0.63405
 H413 H 0.83116 0.19926 0.63113
 H414 H 0.80041 0.16841 0.63133
 H415 H 0.82575 0.17415 0.66945
 H416 H 0.83671 0.16320 0.65839
 N417 N 0.31687 0.35475 0.67301
 N418 N 0.32631 0.35460 0.68251
 C419 C 0.32473 0.36565 0.69051
 C420 C 0.31369 0.37303 0.68576
 C421 C 0.30891 0.36582 0.67468
 H422 H 0.33120 0.36827 0.69902
 H423 H 0.30046 0.36860 0.66816
 Cu424 Cu 0.34021 0.34042 0.68317
 Cu425 Cu 0.31606 0.34105 0.65874
 Cu426 Cu 0.34115 0.31621 0.65880
 N427 N 0.35451 0.32664 0.68264
 N428 N 0.35478 0.31720 0.67314
 C429 C 0.36590 0.30934 0.67488
 C430 C 0.37303 0.31417 0.68600
 C431 C 0.36554 0.32515 0.69070
 H432 H 0.36878 0.30089 0.66840
 H433 H 0.36807 0.33165 0.69922
 N434 N 0.32651 0.31691 0.64510
 N435 N 0.31694 0.32638 0.64510
 C436 C 0.30889 0.32460 0.63413
 C437 C 0.31367 0.31351 0.62690
 C438 C 0.32480 0.30883 0.63413
 H439 H 0.30039 0.33106 0.63138
 H440 H 0.33135 0.30039 0.63138
 H441 H 0.32562 0.32564 0.66946
 H442 H 0.33677 0.33685 0.65885
 N443 N 0.31706 0.85501 0.17311
 N444 N 0.32672 0.85504 0.18240
 C445 C 0.32512 0.86605 0.19046
 C446 C 0.31385 0.87322 0.18596
 C447 C 0.30895 0.86593 0.17499
 H448 H 0.33174 0.86881 0.19883
 H449 H 0.30035 0.86857 0.16863
 Cu450 Cu 0.34084 0.84108 0.18240
 Cu451 Cu 0.31617 0.84138 0.15873
 Cu452 Cu 0.34130 0.81644 0.15871
 N453 N 0.35489 0.82706 0.18241
 N454 N 0.35494 0.81741 0.17311
 C455 C 0.36589 0.80935 0.17503
 C456 C 0.37311 0.81425 0.18605
 C457 C 0.36587 0.82548 0.19053
 H458 H 0.36858 0.80074 0.16869
 H459 H 0.36854 0.83209 0.19893
 N460 N 0.32664 0.81725 0.14500
 N461 N 0.31706 0.82674 0.14502
 C462 C 0.30903 0.82500 0.13403
 C463 C 0.31381 0.81394 0.12676
 C464 C 0.32493 0.80923 0.13400
 H465 H 0.30053 0.83148 0.13129
 H466 H 0.33147 0.80079 0.13123
 H467 H 0.32591 0.82607 0.16941
 H468 H 0.33679 0.83701 0.15828
 N469 N 0.81716 0.35504 0.17306
 N470 N 0.82681 0.35502 0.18237
 C471 C 0.82520 0.36599 0.19048
 C472 C 0.81399 0.37324 0.18594
 C473 C 0.80911 0.36600 0.17492
 H474 H 0.83180 0.36869 0.19888
 H475 H 0.80052 0.36868 0.16856
 Cu476 Cu 0.84084 0.34097 0.18238
 Cu477 Cu 0.81625 0.34142 0.15865
 Cu478 Cu 0.84127 0.31636 0.15866
 N479 N 0.85487 0.32693 0.18238
 N480 N 0.85489 0.31728 0.17309
 C481 C 0.86585 0.30922 0.17496
 C482 C 0.87308 0.31411 0.18599
 C483 C 0.86584 0.32532 0.19051
 H484 H 0.86853 0.30063 0.16861
 H485 H 0.86854 0.33193 0.19889
 N486 N 0.82663 0.31723 0.14492
 N487 N 0.81711 0.32678 0.14493
 C488 C 0.80907 0.32506 0.13395
 C489 C 0.81377 0.31395 0.12670
 C490 C 0.82488 0.30920 0.13393
 H491 H 0.80059 0.33157 0.13122
 H492 H 0.83136 0.30070 0.13118
 H493 H 0.82590 0.32604 0.16934
 H494 H 0.83686 0.33696 0.15825
 N495 N 0.81710 0.85519 0.67292
 N496 N 0.82654 0.85501 0.68243
 C497 C 0.82494 0.86602 0.69047
 C498 C 0.81394 0.87346 0.68571
 C499 C 0.80918 0.86628 0.67460
 H500 H 0.83140 0.86860 0.69901
 H501 H 0.80073 0.86908 0.66808
 Cu502 Cu 0.84039 0.84077 0.68310
 Cu503 Cu 0.81628 0.84152 0.65862
 Cu504 Cu 0.84132 0.81663 0.65866
 N505 N 0.85469 0.82698 0.68251
 N506 N 0.85493 0.81755 0.67300
 C507 C 0.86606 0.80969 0.67470
 C508 C 0.87319 0.81446 0.68584
 C509 C 0.86569 0.82542 0.69060
 H510 H 0.86891 0.80127 0.66818
 H511 H 0.86822 0.83188 0.69914
 N512 N 0.82670 0.81737 0.64495
 N513 N 0.81714 0.82686 0.64495
 C514 C 0.80908 0.82507 0.63400
 C515 C 0.81384 0.81397 0.62676
 C516 C 0.82498 0.80929 0.63399
 H517 H 0.80056 0.83153 0.63126
 H518 H 0.83150 0.80083 0.63125
 H519 H 0.82579 0.82605 0.66933
 H520 H 0.83698 0.83728 0.65876
 N521 N 0.68281 0.64501 0.67341
 N522 N 0.67337 0.64522 0.68292
 C523 C 0.67493 0.63419 0.69097
 C524 C 0.68592 0.62674 0.68620
 C525 C 0.69070 0.63391 0.67508
 H526 H 0.66844 0.63161 0.69950
 H527 H 0.69914 0.63109 0.66856
 Cu528 Cu 0.65953 0.65948 0.68350
 Cu529 Cu 0.68371 0.65863 0.65907
 Cu530 Cu 0.65876 0.68361 0.65903
 N531 N 0.64528 0.67333 0.68289
 N532 N 0.64509 0.68275 0.67337
 C533 C 0.63400 0.69066 0.67505
 C534 C 0.62682 0.68592 0.68619
 C535 C 0.63425 0.67492 0.69095
 H536 H 0.63119 0.69910 0.66853
 H537 H 0.63167 0.66847 0.69950
 N538 N 0.67343 0.68277 0.64534
 N539 N 0.68296 0.67325 0.64536
 C540 C 0.69105 0.67498 0.63440
 C541 C 0.68635 0.68608 0.62714
 C542 C 0.67521 0.69081 0.63436
 H543 H 0.69953 0.66847 0.63168
 H544 H 0.66873 0.69930 0.63159
 H545 H 0.67422 0.67413 0.66973
 H546 H 0.66302 0.66293 0.65916
 N547 N 0.68288 0.14479 0.17311
 N548 N 0.67343 0.14500 0.18261
 C549 C 0.67498 0.13399 0.19068
 C550 C 0.68597 0.12653 0.18595
 C551 C 0.69077 0.13368 0.17482
 H552 H 0.66848 0.13143 0.19921
 H553 H 0.69922 0.13085 0.16831
 Cu554 Cu 0.65958 0.15923 0.18321
 Cu555 Cu 0.68377 0.15842 0.15877
 Cu556 Cu 0.65874 0.18332 0.15872
 N557 N 0.64530 0.17302 0.18258
 N558 N 0.64507 0.18243 0.17304
 C559 C 0.63394 0.19030 0.17473
 C560 C 0.62681 0.18555 0.18588
 C561 C 0.63429 0.17460 0.19066
 H562 H 0.63110 0.19872 0.16820
 H563 H 0.63174 0.16815 0.19923
 N564 N 0.67341 0.18254 0.14504
 N565 N 0.68297 0.17305 0.14507
 C566 C 0.69107 0.17482 0.13412
 C567 C 0.68633 0.18591 0.12686
 C568 C 0.67517 0.19060 0.13406
 H569 H 0.69959 0.16835 0.13141
 H570 H 0.66866 0.19906 0.13130
 H571 H 0.67424 0.17390 0.16943
 H572 H 0.66307 0.16266 0.15887
 N573 N 0.18267 0.64505 0.17302
 N574 N 0.17313 0.64514 0.18244
 C575 C 0.17476 0.63415 0.19053
 C576 C 0.18590 0.62685 0.18590
 C577 C 0.19070 0.63406 0.17482
 H578 H 0.16822 0.63148 0.19899
 H579 H 0.19922 0.63132 0.16836
 Cu580 Cu 0.15908 0.65917 0.18257
 Cu581 Cu 0.18353 0.65868 0.15862
 Cu582 Cu 0.15857 0.68375 0.15877
 N583 N 0.14509 0.67327 0.18260
 N584 N 0.14501 0.68286 0.17324
 C585 C 0.13404 0.69091 0.17512
 C586 C 0.12682 0.68606 0.18618
 C587 C 0.13411 0.67488 0.19073
 H588 H 0.13131 0.69945 0.16871
 H589 H 0.13142 0.66829 0.19914
 N590 N 0.17314 0.68288 0.14497
 N591 N 0.18264 0.67332 0.14491
 C592 C 0.19066 0.67507 0.13390
 C593 C 0.18595 0.68621 0.12671
 C594 C 0.17488 0.69095 0.13400
 H595 H 0.19913 0.66856 0.13113
 H596 H 0.16841 0.69947 0.13132
 H597 H 0.17396 0.67404 0.16942
 H598 H 0.16287 0.66309 0.15841
 N599 N 0.18267 0.14465 0.67342
 N600 N 0.17297 0.14467 0.68268
 C601 C 0.17457 0.13373 0.69084
 C602 C 0.18582 0.12649 0.68637
 C603 C 0.19074 0.13371 0.67534
 H604 H 0.16795 0.13105 0.69923
 H605 H 0.19936 0.13101 0.66900
 Cu606 Cu 0.15897 0.15875 0.68266
 Cu607 Cu 0.18366 0.15826 0.65899
 Cu608 Cu 0.15867 0.18335 0.65895
 N609 N 0.14495 0.17280 0.68263
 N610 N 0.14500 0.18247 0.67335
 C611 C 0.13409 0.19060 0.67523
 C612 C 0.12680 0.18574 0.68625
 C613 C 0.13398 0.17448 0.69076
 H614 H 0.13145 0.19920 0.66887
 H615 H 0.13124 0.16789 0.69915
 N616 N 0.17334 0.18244 0.64524
 N617 N 0.18286 0.17288 0.64525
 C618 C 0.19091 0.17459 0.63426
 C619 C 0.18621 0.18568 0.62700
 C620 C 0.17511 0.19045 0.63424
 H621 H 0.19938 0.16806 0.63152
 H622 H 0.16863 0.19894 0.63148
 H623 H 0.17399 0.17363 0.66965
 H624 H 0.16305 0.16274 0.65854
 N625 N 0.31710 0.64511 0.32655
 N626 N 0.32680 0.64514 0.31729
 C627 C 0.32524 0.63417 0.30917
 C628 C 0.31397 0.62695 0.31362
 C629 C 0.30904 0.63418 0.32463
 H630 H 0.33188 0.63147 0.30079
 H631 H 0.30043 0.63147 0.33098
 Cu632 Cu 0.34081 0.65918 0.31737
 Cu633 Cu 0.31611 0.65869 0.34099
 Cu634 Cu 0.34111 0.68374 0.34111
 N635 N 0.35482 0.67323 0.31744
 N636 N 0.35480 0.68288 0.32674
 C637 C 0.36573 0.69097 0.32487
 C638 C 0.37300 0.68611 0.31384
 C639 C 0.36581 0.67486 0.30935
 H640 H 0.36839 0.69956 0.33124
 H641 H 0.36854 0.66827 0.30094
 N642 N 0.32642 0.68281 0.35480
 N643 N 0.31690 0.67328 0.35476
 C644 C 0.30885 0.67494 0.36576
 C645 C 0.31358 0.68600 0.37305
 C646 C 0.32467 0.69078 0.36582
 H647 H 0.30039 0.66842 0.36848
 H648 H 0.33117 0.69924 0.36862
 H649 H 0.32581 0.67406 0.33038
 H650 H 0.33673 0.66313 0.34149
 N651 N 0.31709 0.14490 0.82691
 N652 N 0.32655 0.14516 0.81741
 C653 C 0.32503 0.13417 0.80931
 C654 C 0.31408 0.12666 0.81404
 C655 C 0.30925 0.13377 0.82518
 H656 H 0.33154 0.13165 0.80077
 H657 H 0.30082 0.13089 0.83169
 Cu658 Cu 0.34033 0.15943 0.81682
 Cu659 Cu 0.31614 0.15850 0.84127
 Cu660 Cu 0.34105 0.18351 0.84130
 N661 N 0.35457 0.17326 0.81750
 N662 N 0.35473 0.18268 0.82701
 C663 C 0.36584 0.19059 0.82534
 C664 C 0.37303 0.18582 0.81423
 C665 C 0.36560 0.17485 0.80945
 H666 H 0.36864 0.19902 0.83187
 H667 H 0.36819 0.16838 0.80091
 N668 N 0.32639 0.18267 0.85496
 N669 N 0.31689 0.17313 0.85498
 C670 C 0.30883 0.17488 0.86597
 C671 C 0.31355 0.18600 0.87319
 C672 C 0.32464 0.19072 0.86592
 H673 H 0.30036 0.16837 0.86874
 H674 H 0.33112 0.19921 0.86865
 H675 H 0.32556 0.17401 0.83060
 H676 H 0.33679 0.16281 0.84116
 N677 N 0.81724 0.64493 0.82676
 N678 N 0.82692 0.64493 0.81747
 C679 C 0.82532 0.63396 0.80936
 C680 C 0.81412 0.62670 0.81392
 C681 C 0.80921 0.63395 0.82494
 H682 H 0.83191 0.63128 0.80093
 H683 H 0.80064 0.63121 0.83136
 Cu684 Cu 0.84078 0.65914 0.81704
 Cu685 Cu 0.81627 0.65855 0.84110
 Cu686 Cu 0.84120 0.68357 0.84115
 N687 N 0.85493 0.67305 0.81751
 N688 N 0.85487 0.68270 0.82682
 C689 C 0.86583 0.69078 0.82503
 C690 C 0.87312 0.68593 0.81401
 C691 C 0.86591 0.67473 0.80942
 H692 H 0.86852 0.69934 0.83146
 H693 H 0.86864 0.66817 0.80098
 N694 N 0.82653 0.68270 0.85484
 N695 N 0.81702 0.67316 0.85482
 C696 C 0.80897 0.67485 0.86582
 C697 C 0.81368 0.68593 0.87309
 C698 C 0.82477 0.69070 0.86585
 H699 H 0.80051 0.66832 0.86857
 H700 H 0.83126 0.69917 0.86863
 H701 H 0.82588 0.67395 0.83045
 H702 H 0.83688 0.66297 0.84131
 N703 N 0.81728 0.14486 0.32675
 N704 N 0.82673 0.14514 0.31725
 C705 C 0.82524 0.13414 0.30916
 C706 C 0.81429 0.12662 0.31388
 C707 C 0.80944 0.13372 0.32502
 H708 H 0.83175 0.13164 0.30062
 H709 H 0.80102 0.13083 0.33152
 Cu710 Cu 0.84049 0.15945 0.31670
 Cu711 Cu 0.81629 0.15845 0.34111
 Cu712 Cu 0.84116 0.18349 0.34123
 N713 N 0.85470 0.17329 0.31741
 N714 N 0.85486 0.18270 0.32694
 C715 C 0.86595 0.19063 0.32528
 C716 C 0.87315 0.18589 0.31415
 C717 C 0.86573 0.17491 0.30937
 H718 H 0.86874 0.19905 0.33182
 H719 H 0.86833 0.16847 0.30081
 N720 N 0.82648 0.18260 0.35488
 N721 N 0.81699 0.17305 0.35485
 C722 C 0.80888 0.17475 0.36581
 C723 C 0.81355 0.18586 0.37307
 C724 C 0.82466 0.19063 0.36586
 H725 H 0.80041 0.16823 0.36853
 H726 H 0.83112 0.19912 0.36862
 H727 H 0.82572 0.17400 0.33049
 H728 H 0.83695 0.16280 0.34104
 N729 N 0.68284 0.35499 0.32691
 N730 N 0.67317 0.35504 0.31763
 C731 C 0.67476 0.36607 0.30959
 C732 C 0.68605 0.37322 0.31408
 C733 C 0.69093 0.36593 0.32508
 H734 H 0.66815 0.36883 0.30122
 H735 H 0.69961 0.36851 0.33139
 Cu736 Cu 0.65906 0.34108 0.31756
 Cu737 Cu 0.68373 0.34128 0.34124
 Cu738 Cu 0.65867 0.31629 0.34111
 N739 N 0.64507 0.32700 0.31747
 N740 N 0.64505 0.31729 0.32671
 C741 C 0.63410 0.30924 0.32480
 C742 C 0.62687 0.31419 0.31379
 C743 C 0.63407 0.32547 0.30937
 H744 H 0.63146 0.30056 0.33107
 H745 H 0.63135 0.33213 0.30102
 N746 N 0.67330 0.31705 0.35484
 N747 N 0.68284 0.32657 0.35488
 C748 C 0.69086 0.32478 0.36587
 C749 C 0.68611 0.31366 0.37307
 C750 C 0.67501 0.30897 0.36581
 H751 H 0.69934 0.33126 0.36866
 H752 H 0.66849 0.30050 0.36853
 H753 H 0.67403 0.32602 0.33046
 H754 H 0.66313 0.33687 0.34163
 N755 N 0.68271 0.85502 0.82685
 N756 N 0.67326 0.85484 0.81735
 C757 C 0.67483 0.86585 0.80929
 C758 C 0.68581 0.87330 0.81406
 C759 C 0.69059 0.86613 0.82517
 H760 H 0.66835 0.86843 0.80077
 H761 H 0.69902 0.86894 0.83169
 Cu762 Cu 0.65944 0.84059 0.81676
 Cu763 Cu 0.68359 0.84139 0.84119
 Cu764 Cu 0.65863 0.81645 0.84123
 N765 N 0.64519 0.82676 0.81739
 N766 N 0.64499 0.81733 0.82690
 C767 C 0.63388 0.80945 0.82521
 C768 C 0.62671 0.81424 0.81409
 C769 C 0.63418 0.82520 0.80932
 H770 H 0.63105 0.80103 0.83174
 H771 H 0.63162 0.83168 0.80079
 N772 N 0.67327 0.81725 0.85493
 N773 N 0.68279 0.82677 0.85490
 C774 C 0.69086 0.82503 0.86585
 C775 C 0.68616 0.81394 0.87312
 C776 C 0.67504 0.80920 0.86591
 H777 H 0.69935 0.83153 0.86856
 H778 H 0.66856 0.80072 0.86868
 H779 H 0.67411 0.82590 0.83052
 H780 H 0.66290 0.83711 0.84110
 N781 N 0.18269 0.35492 0.82671
 N782 N 0.17303 0.35490 0.81742
 C783 C 0.17469 0.36583 0.80924
 C784 C 0.18585 0.37312 0.81380
 C785 C 0.19074 0.36587 0.82483
 H786 H 0.16809 0.36852 0.80084
 H787 H 0.19929 0.36860 0.83124
 Cu788 Cu 0.15903 0.34084 0.81742
 Cu789 Cu 0.18361 0.34132 0.84117
 Cu790 Cu 0.15859 0.31627 0.84116
 N791 N 0.14499 0.32681 0.81742
 N792 N 0.14500 0.31716 0.82672
 C793 C 0.13405 0.30909 0.82487
 C794 C 0.12680 0.31396 0.81385
 C795 C 0.13407 0.32513 0.80926
 H796 H 0.13134 0.30054 0.83128
 H797 H 0.13135 0.33172 0.80087
 N798 N 0.17320 0.31716 0.85489
 N799 N 0.18273 0.32669 0.85492
 C800 C 0.19075 0.32493 0.86592
 C801 C 0.18598 0.31384 0.87315
 C802 C 0.17491 0.30912 0.86587
 H803 H 0.19922 0.33142 0.86869
 H804 H 0.16840 0.30064 0.86860
 H805 H 0.17399 0.32596 0.83047
 H806 H 0.16299 0.33692 0.84155
 N807 N 0.18283 0.85489 0.32663
 N808 N 0.17317 0.85494 0.31734
 C809 C 0.17483 0.86591 0.30924
 C810 C 0.18607 0.87310 0.31377
 C811 C 0.19093 0.86581 0.32478
 H812 H 0.16822 0.86868 0.30088
 H813 H 0.19955 0.86845 0.33113
 Cu814 Cu 0.15906 0.84099 0.31729
 Cu815 Cu 0.18368 0.84130 0.34106
 Cu816 Cu 0.15854 0.81640 0.34111
 N817 N 0.14501 0.82698 0.31736
 N818 N 0.14495 0.81734 0.32668
 C819 C 0.13398 0.80931 0.32481
 C820 C 0.12677 0.81419 0.31377
 C821 C 0.13405 0.82537 0.30923
 H822 H 0.13128 0.80072 0.33118
 H823 H 0.13137 0.83197 0.30083
 N824 N 0.17317 0.81722 0.35484
 N825 N 0.18274 0.82669 0.35480
 C826 C 0.19077 0.82495 0.36580
 C827 C 0.18597 0.81391 0.37309
 C828 C 0.17486 0.80921 0.36586
 H829 H 0.19928 0.83142 0.36852
 H830 H 0.16832 0.80078 0.36863
 H831 H 0.17395 0.82597 0.33034
 H832 H 0.16302 0.83699 0.34144
 C833 C 0.25807 0.97124 0.24049
 C834 C 0.24997 0.96433 0.24991
 C835 C 0.24187 0.97124 0.25934
 C836 C 0.24170 0.98565 0.25938
 C837 C 0.24998 0.99288 0.24992
 C838 C 0.25824 0.98565 0.24045
 C839 C 0.26618 0.99301 0.23106
 C840 C 0.26619 1.00722 0.23107
 C841 C 0.25828 1.01459 0.24047
 C842 C 0.24999 1.00736 0.24993
 C843 C 0.23376 0.99302 0.26876
 C844 C 0.23377 1.00723 0.26876
 C845 C 0.24172 1.01459 0.25939
 C846 C 0.24191 1.02900 0.25936
 C847 C 0.25004 1.03591 0.24996
 C848 C 0.25814 1.02900 0.24053
 H849 H 0.27239 0.98784 0.22355
 H850 H 0.27241 1.01238 0.22356
 H851 H 0.22753 0.98785 0.27626
 H852 H 0.22755 1.01240 0.27626
 H853 H 0.24998 0.95326 0.24991
 H854 H 0.25006 1.04699 0.24997
 C855 C 0.25987 0.47117 0.74223
 C856 C 0.25175 0.46430 0.75167
 C857 C 0.24260 0.47117 0.76013
 C858 C 0.24175 0.48555 0.75949
 C859 C 0.25010 0.49276 0.75008
 C860 C 0.25905 0.48553 0.74126
 C861 C 0.26723 0.49287 0.73207
 C862 C 0.26673 0.50707 0.73157
 C863 C 0.25819 0.51445 0.74041
 C864 C 0.24971 0.50723 0.74969
 C865 C 0.23321 0.49293 0.76832
 C866 C 0.23288 0.50714 0.76799
 C867 C 0.24102 0.51448 0.75877
 C868 C 0.24106 0.52889 0.75858
 C869 C 0.24927 0.53578 0.74925
 C870 C 0.25776 0.52886 0.74017
 H871 H 0.27420 0.48772 0.72524
 H872 H 0.27318 0.51221 0.72425
 H873 H 0.22688 0.48780 0.77576
 H874 H 0.22628 0.51232 0.77515
 H875 H 0.25234 0.45325 0.75222
 H876 H 0.24917 0.54686 0.74915
 C877 C 0.75923 -0.02915 0.25857
 C878 C 0.75011 -0.03605 0.25013
 C879 C 0.74101 -0.02912 0.24168
 C880 C 0.74113 -0.01471 0.24135
 C881 C 0.75014 -0.00749 0.25010
 C882 C 0.75914 -0.01473 0.25887
 C883 C 0.76790 -0.00737 0.26748
 C884 C 0.76774 0.00684 0.26764
 C885 C 0.75904 0.01421 0.25897
 C886 C 0.75016 0.00699 0.25008
 C887 C 0.73238 -0.00735 0.23273
 C888 C 0.73257 0.00686 0.23253
 C889 C 0.74130 0.01422 0.24118
 C890 C 0.74161 0.02863 0.24106
 C891 C 0.75019 0.03554 0.25004
 C892 C 0.75876 0.02862 0.25904
 H893 H 0.77493 -0.01254 0.27423
 H894 H 0.77455 0.01200 0.27460
 H895 H 0.72534 -0.01251 0.22600
 H896 H 0.72577 0.01203 0.22556
 H897 H 0.75011 -0.04712 0.25012
 H898 H 0.75021 0.04661 0.25003
 C899 C 0.75816 0.47094 0.75950
 C900 C 0.75006 0.46403 0.75008
 C901 C 0.74194 0.47095 0.74067
 C902 C 0.74177 0.48536 0.74065
 C903 C 0.75005 0.49259 0.75009
 C904 C 0.75832 0.48535 0.75954
 C905 C 0.76625 0.49270 0.76892
 C906 C 0.76625 0.50691 0.76893
 C907 C 0.75831 0.51429 0.75955
 C908 C 0.75004 0.50707 0.75010
 C909 C 0.73383 0.49274 0.73128
 C910 C 0.73382 0.50695 0.73129
 C911 C 0.74176 0.51430 0.74066
 C912 C 0.74193 0.52872 0.74070
 C913 C 0.75004 0.53562 0.75011
 C914 C 0.75816 0.52870 0.75951
 H915 H 0.77248 0.48753 0.77641
 H916 H 0.77248 0.51207 0.77642
 H917 H 0.72762 0.48758 0.72378
 H918 H 0.72761 0.51212 0.72380
 H919 H 0.75006 0.45296 0.75008
 H920 H 0.75004 0.54670 0.75010
 C921 C 0.25987 0.47115 0.25771
 C922 C 0.25176 0.46428 0.24828
 C923 C 0.24261 0.47116 0.23983
 C924 C 0.24177 0.48554 0.24045
 C925 C 0.25010 0.49274 0.24985
 C926 C 0.25906 0.48552 0.25867
 C927 C 0.26722 0.49286 0.26786
 C928 C 0.26670 0.50705 0.26835
 C929 C 0.25817 0.51443 0.25952
 C930 C 0.24970 0.50722 0.25024
 C931 C 0.23324 0.49292 0.23162
 C932 C 0.23291 0.50712 0.23193
 C933 C 0.24102 0.51446 0.24116
 C934 C 0.24105 0.52888 0.24134
 C935 C 0.24926 0.53576 0.25067
 C936 C 0.25774 0.52884 0.25975
 H937 H 0.27419 0.48771 0.27468
 H938 H 0.27315 0.51220 0.27566
 H939 H 0.22692 0.48779 0.22417
 H940 H 0.22632 0.51231 0.22477
 H941 H 0.25235 0.45324 0.24774
 H942 H 0.24916 0.54684 0.25078
 C943 C 0.75758 1.02902 0.74030
 C944 C 0.74910 1.03595 0.74938
 C945 C 0.74092 1.02907 0.75875
 C946 C 0.74089 1.01465 0.75895
 C947 C 0.74958 1.00740 0.74987
 C948 C 0.75804 1.01461 0.74056
 C949 C 0.76657 1.00724 0.73173
 C950 C 0.76711 0.99305 0.73225
 C951 C 0.75896 0.98570 0.74146
 C952 C 0.75000 0.99293 0.75028
 C953 C 0.73277 1.00732 0.76819
 C954 C 0.73312 0.99312 0.76854
 C955 C 0.74167 0.98573 0.75972
 C956 C 0.74254 0.97135 0.76037
 C957 C 0.75169 0.96447 0.75191
 C958 C 0.75978 0.97134 0.74244
 H959 H 0.77301 1.01238 0.72440
 H960 H 0.77408 0.98790 0.72543
 H961 H 0.72617 1.01251 0.77535
 H962 H 0.72680 0.98799 0.77599
 H963 H 0.74900 1.04703 0.74927
 H964 H 0.75229 0.95343 0.75248
 C965 C 0.74230 0.52896 0.25981
 C966 C 0.75078 0.53589 0.25073
 C967 C 0.75899 0.52900 0.24138
 C968 C 0.75900 0.51459 0.24117
 C969 C 0.75031 0.50734 0.25024
 C970 C 0.74185 0.51455 0.25955
 C971 C 0.73331 0.50718 0.26838
 C972 C 0.73278 0.49299 0.26786
 C973 C 0.74094 0.48564 0.25866
 C974 C 0.74990 0.49287 0.24984
 C975 C 0.76713 0.50725 0.23193
 C976 C 0.76678 0.49304 0.23159
 C977 C 0.75823 0.48566 0.24041
 C978 C 0.75736 0.47128 0.23976
 C979 C 0.74822 0.46441 0.24822
 C980 C 0.74012 0.47128 0.25768
 H981 H 0.72686 0.51232 0.27570
 H982 H 0.72581 0.48784 0.27468
 H983 H 0.77372 0.51243 0.22477
 H984 H 0.77310 0.48791 0.22415
 H985 H 0.75089 0.54696 0.25086
 H986 H 0.74762 0.45337 0.24766
 C987 C 0.25940 -0.02924 0.75852
 C988 C 0.25028 -0.03614 0.75008
 C989 C 0.24114 -0.02921 0.74167
 C990 C 0.24122 -0.01480 0.74139
 C991 C 0.25025 -0.00758 0.75014
 C992 C 0.25928 -0.01482 0.75886
 C993 C 0.26805 -0.00747 0.76747
 C994 C 0.26786 0.00674 0.76767
 C995 C 0.25912 0.01411 0.75904
 C996 C 0.25024 0.00690 0.75015
 C997 C 0.23243 -0.00743 0.73282
 C998 C 0.23261 0.00678 0.73265
 C999 C 0.24134 0.01413 0.74129
 C1000 C 0.24164 0.02854 0.74120
 C1001 C 0.25022 0.03545 0.75017
 C1002 C 0.25881 0.02853 0.75915
 H1003 H 0.27510 -0.01265 0.77419
 H1004 H 0.27468 0.01190 0.77462
 H1005 H 0.22537 -0.01258 0.72610
 H1006 H 0.22577 0.01195 0.72571
 H1007 H 0.25029 -0.04721 0.75007
 H1008 H 0.25022 0.04652 0.75018
 C1009 C 0.24040 0.25809 1.02885
 C1010 C 0.24985 0.24999 1.03574
 C1011 C 0.25930 0.24190 1.02884
 C1012 C 0.25934 0.24173 1.01445
 C1013 C 0.24984 0.24999 1.00724
 C1014 C 0.24036 0.25825 1.01446
 C1015 C 0.23094 0.26618 1.00712
 C1016 C 0.23093 0.26617 0.99293
 C1017 C 0.24033 0.25823 0.98557
 C1018 C 0.24983 0.24997 0.99279
 C1019 C 0.26875 0.23381 1.00710
 C1020 C 0.26874 0.23380 0.99292
 C1021 C 0.25932 0.24171 0.98557
 C1022 C 0.25927 0.24186 0.97118
 C1023 C 0.24980 0.24994 0.96429
 C1024 C 0.24036 0.25805 0.97118
 H1025 H 0.22343 0.27240 1.01228
 H1026 H 0.22341 0.27238 0.98778
 H1027 H 0.27628 0.22760 1.01225
 H1028 H 0.27627 0.22759 0.98776
 H1029 H 0.24985 0.24999 1.04680
 H1030 H 0.24979 0.24992 0.95323
 C1031 C 0.25944 0.74194 0.47105
 C1032 C 0.25103 0.75113 0.46417
 C1033 C 0.24189 0.75960 0.47105
 C1034 C 0.24120 0.75910 0.48542
 C1035 C 0.24988 0.74999 0.49263
 C1036 C 0.25895 0.74126 0.48542
 C1037 C 0.26765 0.73256 0.49277
 C1038 C 0.26766 0.73257 0.50695
 C1039 C 0.25897 0.74127 0.51431
 C1040 C 0.24989 0.75000 0.50709
 C1041 C 0.23254 0.76783 0.49277
 C1042 C 0.23255 0.76784 0.50696
 C1043 C 0.24121 0.75911 0.51431
 C1044 C 0.24191 0.75961 0.52867
 C1045 C 0.25107 0.75117 0.53555
 C1046 C 0.25948 0.74198 0.52867
 H1047 H 0.27478 0.72589 0.48762
 H1048 H 0.27478 0.72590 0.51210
 H1049 H 0.22590 0.77499 0.48763
 H1050 H 0.22591 0.77500 0.51211
 H1051 H 0.25149 0.75158 0.45314
 H1052 H 0.25153 0.75163 0.54658
 C1053 C 0.24206 0.74053 -0.02890
 C1054 C 0.25127 0.74892 -0.03578
 C1055 C 0.25970 0.75808 -0.02891
 C1056 C 0.25916 0.75880 -0.01455
 C1057 C 0.25005 0.75013 -0.00733
 C1058 C 0.24134 0.74105 -0.01453
 C1059 C 0.23264 0.73237 -0.00718
 C1060 C 0.23261 0.73239 0.00701
 C1061 C 0.24130 0.74109 0.01436
 C1062 C 0.25002 0.75015 0.00714
 C1063 C 0.26787 0.76749 -0.00720
 C1064 C 0.26784 0.76751 0.00699
 C1065 C 0.25911 0.75885 0.01435
 C1066 C 0.25959 0.75817 0.02872
 C1067 C 0.25114 0.74901 0.03560
 C1068 C 0.24197 0.74059 0.02873
 H1069 H 0.22598 0.72524 -0.01232
 H1070 H 0.22594 0.72527 0.01216
 H1071 H 0.27502 0.77413 -0.01235
 H1072 H 0.27497 0.77416 0.01213
 H1073 H 0.25175 0.74844 -0.04681
 H1074 H 0.25160 0.74856 0.04663
 C1075 C 0.25871 0.25849 0.47127
 C1076 C 0.25055 0.24910 0.46439
 C1077 C 0.24211 0.23997 0.47131
 C1078 C 0.24165 0.24022 0.48569
 C1079 C 0.25007 0.24957 0.49289
 C1080 C 0.25872 0.25869 0.48566
 C1081 C 0.26680 0.26797 0.49298
 C1082 C 0.26646 0.26830 0.50716
 C1083 C 0.25795 0.25942 0.51453
 C1084 C 0.24965 0.24996 0.50734
 C1085 C 0.23314 0.23135 0.49305
 C1086 C 0.23260 0.23185 0.50722
 C1087 C 0.24073 0.24109 0.51455
 C1088 C 0.23991 0.24205 0.52889
 C1089 C 0.24798 0.25154 0.53575
 C1090 C 0.25709 0.26005 0.52889
 H1091 H 0.27336 0.27517 0.48781
 H1092 H 0.27274 0.27578 0.51228
 H1093 H 0.22672 0.22400 0.48791
 H1094 H 0.22565 0.22501 0.51236
 H1095 H 0.25068 0.24898 0.45334
 H1096 H 0.24738 0.25209 0.54677
 C1097 C 0.74117 0.75871 1.02872
 C1098 C 0.74928 0.74926 1.03559
 C1099 C 0.75768 0.74009 1.02867
 C1100 C 0.75815 0.74037 1.01429
 C1101 C 0.74976 0.74977 1.00710
 C1102 C 0.74115 0.75892 1.01433
 C1103 C 0.73310 0.76825 1.00702
 C1104 C 0.73344 0.76860 0.99284
 C1105 C 0.74192 0.75970 0.98546
 C1106 C 0.75018 0.75019 0.99265
 C1107 C 0.76663 0.73148 1.00692
 C1108 C 0.76717 0.73200 0.99276
 C1109 C 0.75908 0.74129 0.98543
 C1110 C 0.75990 0.74226 0.97110
 C1111 C 0.75187 0.75180 0.96425
 C1112 C 0.74279 0.76035 0.97111
 H1113 H 0.72655 0.77546 1.01219
 H1114 H 0.72718 0.77611 0.98772
 H1115 H 0.77304 0.72410 1.01206
 H1116 H 0.77411 0.72514 0.98761
 H1117 H 0.74916 0.74913 1.04664
 H1118 H 0.75248 0.75236 0.95323
 C1119 C 0.75933 0.24172 0.47113
 C1120 C 0.75093 0.25092 0.46425
 C1121 C 0.74178 0.25938 0.47113
 C1122 C 0.74106 0.25887 0.48549
 C1123 C 0.74973 0.24975 0.49271
 C1124 C 0.75880 0.24102 0.48549
 C1125 C 0.76748 0.23231 0.49285
 C1126 C 0.76747 0.23230 0.50703
 C1127 C 0.75877 0.24101 0.51438
 C1128 C 0.74972 0.24975 0.50717
 C1129 C 0.73240 0.26761 0.49285
 C1130 C 0.73239 0.26760 0.50703
 C1131 C 0.74104 0.25886 0.51439
 C1132 C 0.74173 0.25937 0.52875
 C1133 C 0.75087 0.25090 0.53562
 C1134 C 0.75927 0.24170 0.52875
 H1135 H 0.77461 0.22563 0.48770
 H1136 H 0.77459 0.22563 0.51218
 H1137 H 0.72577 0.27477 0.48770
 H1138 H 0.72575 0.27476 0.51218
 H1139 H 0.75140 0.25138 0.45322
 H1140 H 0.75133 0.25135 0.54666
 C1141 C 0.75758 0.25992 0.02870
 C1142 C 0.74920 0.25074 0.03561
 C1143 C 0.74105 0.24133 0.02874
 C1144 C 0.74099 0.24117 0.01435
 C1145 C 0.74960 0.25033 0.00711
 C1146 C 0.75801 0.25969 0.01431
 C1147 C 0.76646 0.26861 0.00694
 C1148 C 0.76696 0.26813 -0.00723
 C1149 C 0.75885 0.25887 -0.01456
 C1150 C 0.74998 0.24996 -0.00734
 C1151 C 0.73292 0.23188 0.00703
 C1152 C 0.73323 0.23157 -0.00716
 C1153 C 0.74170 0.24048 -0.01453
 C1154 C 0.74254 0.23986 -0.02889
 C1155 C 0.75161 0.24842 -0.03575
 C1156 C 0.75965 0.25794 -0.02890
 H1157 H 0.77287 0.27597 0.01207
 H1158 H 0.77387 0.27502 -0.01238
 H1159 H 0.72639 0.22465 0.01221
 H1160 H 0.72695 0.22409 -0.01228
 H1161 H 0.74911 0.25084 0.04667
 H1162 H 0.75219 0.24789 -0.04678
 C1163 C 0.75876 0.75875 0.47124
 C1164 C 0.75061 0.74934 0.46437
 C1165 C 0.74219 0.74019 0.47129
 C1166 C 0.74174 0.74044 0.48568
 C1167 C 0.75016 0.74979 0.49287
 C1168 C 0.75879 0.75893 0.48564
 C1169 C 0.76687 0.76822 0.49296
 C1170 C 0.76655 0.76854 0.50713
 C1171 C 0.75806 0.75965 0.51451
 C1172 C 0.74977 0.75018 0.50732
 C1173 C 0.73325 0.73156 0.49305
 C1174 C 0.73273 0.73206 0.50722
 C1175 C 0.74086 0.74130 0.51455
 C1176 C 0.74005 0.74225 0.52889
 C1177 C 0.74813 0.75174 0.53574
 C1178 C 0.75722 0.76027 0.52887
 H1179 H 0.77342 0.77543 0.48777
 H1180 H 0.77282 0.77602 0.51225
 H1181 H 0.72682 0.72421 0.48791
 H1182 H 0.72579 0.72520 0.51237
 H1183 H 0.75072 0.74923 0.45332
 H1184 H 0.74754 0.75229 0.54676
 C1185 C 0.97107 0.25744 0.23979
 C1186 C 0.96419 0.24827 0.24821
 C1187 C 0.97107 0.24015 0.25765
 C1188 C 0.98544 0.24099 0.25864
 C1189 C 0.99267 0.24998 0.24985
 C1190 C 0.98545 0.25832 0.24044
 C1191 C 0.99284 0.26688 0.23164
 C1192 C 1.00705 0.26724 0.23199
 C1193 C 1.01439 0.25911 0.24121
 C1194 C 1.00715 0.25041 0.25026
 C1195 C 0.99280 0.23282 0.26782
 C1196 C 1.00700 0.23337 0.26834
 C1197 C 1.01437 0.24194 0.25954
 C1198 C 1.02879 0.24241 0.25981
 C1199 C 1.03572 0.25090 0.25075
 C1200 C 1.02882 0.25911 0.24142
 H1201 H 0.98770 0.27320 0.22421
 H1202 H 1.01223 0.27386 0.22485
 H1203 H 0.98765 0.22582 0.27461
 H1204 H 1.01215 0.22691 0.27565
 H1205 H 0.95314 0.24767 0.24764
 H1206 H 1.04680 0.25103 0.25088
 C1207 C 0.52871 0.24218 0.75984
 C1208 C 0.53564 0.25067 0.75077
 C1209 C 0.52874 0.25889 0.74145
 C1210 C 0.51431 0.25891 0.74125
 C1211 C 0.50706 0.25021 0.75030
 C1212 C 0.51429 0.24173 0.75958
 C1213 C 0.50691 0.23317 0.76839
 C1214 C 0.49271 0.23265 0.76789
 C1215 C 0.48536 0.24083 0.75871
 C1216 C 0.49258 0.24980 0.74991
 C1217 C 0.50696 0.26703 0.73203
 C1218 C 0.49275 0.26669 0.73169
 C1219 C 0.48536 0.25815 0.74051
 C1220 C 0.47097 0.25730 0.73988
 C1221 C 0.46410 0.24814 0.74833
 C1222 C 0.47098 0.24001 0.75775
 H1223 H 0.51207 0.22672 0.77570
 H1224 H 0.48756 0.22566 0.77469
 H1225 H 0.51215 0.27363 0.72488
 H1226 H 0.48762 0.27301 0.72425
 H1227 H 0.54672 0.25079 0.75090
 H1228 H 0.45305 0.24755 0.74778
 C1229 C 0.02866 0.24224 0.74030
 C1230 C 0.03558 0.25071 0.74938
 C1231 C 0.02868 0.25892 0.75871
 C1232 C 0.01425 0.25897 0.75890
 C1233 C 0.00701 0.25029 0.74984
 C1234 C 0.01423 0.24181 0.74056
 C1235 C 0.00686 0.23326 0.73175
 C1236 C -0.00735 0.23275 0.73227
 C1237 C -0.01470 0.24094 0.74145
 C1238 C -0.00748 0.24990 0.75024
 C1239 C 0.00691 0.26711 0.76811
 C1240 C -0.00731 0.26680 0.76844
 C1241 C -0.01469 0.25826 0.75964
 C1242 C -0.02909 0.25743 0.76028
 C1243 C -0.03596 0.24828 0.75184
 C1244 C -0.02907 0.24014 0.74242
 H1245 H 0.01201 0.22680 0.72444
 H1246 H -0.01250 0.22578 0.72547
 H1247 H 0.01209 0.27371 0.77526
 H1248 H -0.01244 0.27313 0.77587
 H1249 H 0.04666 0.25081 0.74927
 H1250 H -0.04701 0.24770 0.75239
 C1251 C 0.47113 0.25720 0.26024
 C1252 C 0.46426 0.24804 0.25182
 C1253 C 0.47114 0.23990 0.24240
 C1254 C 0.48552 0.24070 0.24142
 C1255 C 0.49274 0.24968 0.25020
 C1256 C 0.48553 0.25805 0.25959
 C1257 C 0.49291 0.26661 0.26838
 C1258 C 0.50713 0.26696 0.26801
 C1259 C 0.51447 0.25881 0.25880
 C1260 C 0.50723 0.25009 0.24978
 C1261 C 0.49287 0.23251 0.23226
 C1262 C 0.50708 0.23303 0.23173
 C1263 C 0.51445 0.24160 0.24051
 C1264 C 0.52887 0.24205 0.24024
 C1265 C 0.53580 0.25057 0.24926
 C1266 C 0.52890 0.25880 0.25858
 H1267 H 0.48777 0.27294 0.27581
 H1268 H 0.51231 0.27358 0.27515
 H1269 H 0.48772 0.22551 0.22548
 H1270 H 0.51223 0.22656 0.22444
 H1271 H 0.45321 0.24744 0.25238
 H1272 H 0.54688 0.25070 0.24912
 C1273 C 0.97104 0.75835 0.74059
 C1274 C 0.96412 0.75022 0.74998
 C1275 C 0.97104 0.74209 0.75938
 C1276 C 0.98547 0.74194 0.75943
 C1277 C 0.99270 0.75023 0.75000
 C1278 C 0.98547 0.75851 0.74055
 C1279 C 0.99284 0.76646 0.73119
 C1280 C 1.00706 0.76647 0.73120
 C1281 C 1.01443 0.75854 0.74058
 C1282 C 1.00719 0.75025 0.75001
 C1283 C 0.99284 0.73400 0.76880
 C1284 C 1.00706 0.73401 0.76881
 C1285 C 1.01443 0.74196 0.75945
 C1286 C 1.02885 0.74214 0.75942
 C1287 C 1.03577 0.75028 0.75003
 C1288 C 1.02886 0.75840 0.74063
 H1289 H 0.98767 0.77267 0.72368
 H1290 H 1.01223 0.77270 0.72371
 H1291 H 0.98767 0.72776 0.77629
 H1292 H 1.01223 0.72777 0.77629
 H1293 H 0.95304 0.75022 0.74997
 H1294 H 1.04685 0.75031 0.75005
 C1295 C 0.52876 0.74313 0.26066
 C1296 C 0.53562 0.75266 0.25261
 C1297 C 0.52876 0.76089 0.24325
 C1298 C 0.51441 0.75993 0.24209
 C1299 C 0.50720 0.75053 0.25045
 C1300 C 0.51441 0.74200 0.25968
 C1301 C 0.50706 0.73284 0.26789
 C1302 C 0.49289 0.73197 0.26701
 C1303 C 0.48554 0.74032 0.25798
 C1304 C 0.49276 0.74971 0.24961
 C1305 C 0.50707 0.76828 0.23306
 C1306 C 0.49290 0.76740 0.23217
 C1307 C 0.48555 0.75824 0.24037
 C1308 C 0.47120 0.75709 0.23939
 C1309 C 0.46434 0.74759 0.24745
 C1310 C 0.47119 0.73937 0.25682
 H1311 H 0.51218 0.72630 0.27514
 H1312 H 0.48776 0.72461 0.27342
 H1313 H 0.51220 0.77563 0.22664
 H1314 H 0.48778 0.77394 0.22492
 H1315 H 0.54665 0.75336 0.25331
 H1316 H 0.45330 0.74690 0.24675
 C1317 C 0.02866 0.74235 0.24024
 C1318 C 0.03559 0.75085 0.24928
 C1319 C 0.02869 0.75908 0.25859
 C1320 C 0.01427 0.75911 0.25880
 C1321 C 0.00702 0.75039 0.24978
 C1322 C 0.01425 0.74189 0.24052
 C1323 C 0.00687 0.73332 0.23174
 C1324 C -0.00733 0.73280 0.23227
 C1325 C -0.01469 0.74099 0.24144
 C1326 C -0.00746 0.74998 0.25020
 C1327 C 0.00692 0.76726 0.26801
 C1328 C -0.00729 0.76693 0.26836
 C1329 C -0.01468 0.75836 0.25959
 C1330 C -0.02907 0.75751 0.26024
 C1331 C -0.03594 0.74833 0.25183
 C1332 C -0.02906 0.74018 0.24242
 H1333 H 0.01202 0.72685 0.22445
 H1334 H -0.01248 0.72579 0.22549
 H1335 H 0.01211 0.77388 0.27514
 H1336 H -0.01243 0.77327 0.27578
 H1337 H 0.04667 0.75097 0.24914
 H1338 H -0.04699 0.74774 0.25240
 C1339 C 0.47091 0.75757 0.76034
 C1340 C 0.46405 0.74843 0.75188
 C1341 C 0.47094 0.74029 0.74247
 C1342 C 0.48532 0.74109 0.74151
 C1343 C 0.49254 0.75005 0.75031
 C1344 C 0.48531 0.75841 0.75971
 C1345 C 0.49269 0.76696 0.76851
 C1346 C 0.50691 0.76729 0.76818
 C1347 C 0.51427 0.75915 0.75897
 C1348 C 0.50703 0.75045 0.74991
 C1349 C 0.49269 0.73290 0.73235
 C1350 C 0.50690 0.73342 0.73184
 C1351 C 0.51427 0.74197 0.74064
 C1352 C 0.52869 0.74241 0.74039
 C1353 C 0.53561 0.75090 0.74945
 C1354 C 0.52869 0.75912 0.75878
 H1355 H 0.48754 0.77329 0.77593
 H1356 H 0.51209 0.77390 0.77532
 H1357 H 0.48754 0.72592 0.72555
 H1358 H 0.51205 0.72695 0.72455
 H1359 H 0.45300 0.74785 0.75243
 H1360 H 0.54669 0.75101 0.74935
 N1361 N 0.40385 0.29302 0.30977
 C1362 C 0.40994 0.29891 0.29885
 N1363 N 0.40383 0.30973 0.29278
 N1364 N 0.39203 0.31456 0.29754
 C1365 C 0.38592 0.30867 0.30848
 N1366 N 0.39207 0.29784 0.31452
 C1367 C 0.42222 0.29314 0.29334
 C1368 C 0.43216 0.28764 0.28863
 C1369 C 0.44335 0.28021 0.28278
 N1370 N 0.45291 0.28656 0.27505
 N1371 N 0.46236 0.27931 0.26846
 C1372 C 0.46257 0.26549 0.26944
 N1373 N 0.45303 0.25922 0.27727
 N1374 N 0.44363 0.26645 0.28387
 N1375 N 0.40357 0.81014 0.79294
 C1376 C 0.40955 0.79918 0.79888
 N1377 N 0.40339 0.79321 0.80970
 N1378 N 0.39163 0.79808 0.81448
 C1379 C 0.38559 0.80906 0.80858
 N1380 N 0.39181 0.81502 0.79774
 C1381 C 0.42183 0.79340 0.79334
 C1382 C 0.43179 0.78792 0.78863
 C1383 C 0.44303 0.78053 0.78283
 N1384 N 0.44337 0.76678 0.78395
 N1385 N 0.45280 0.75957 0.77737
 C1386 C 0.46233 0.76585 0.76953
 N1387 N 0.46207 0.77968 0.76853
 N1388 N 0.45258 0.78691 0.77510
 N1389 N -0.09630 0.31008 0.79281
 C1390 C -0.09020 0.29929 0.79893
 N1391 N -0.09625 0.29350 0.80992
 N1392 N -0.10799 0.29840 0.81469
 C1393 C -0.11413 0.30921 0.80861
 N1394 N -0.10806 0.31499 0.79759
 C1395 C -0.07795 0.29345 0.79341
 C1396 C -0.06804 0.28792 0.78867
 C1397 C -0.05688 0.28047 0.78280
 N1398 N -0.05661 0.26671 0.78388
 N1399 N -0.04721 0.25947 0.77729
 C1400 C -0.03765 0.26573 0.76947
 N1401 N -0.03785 0.27956 0.76849
 N1402 N -0.04730 0.28681 0.77507
 N1403 N -0.09631 0.81012 0.29281
 C1404 C -0.09017 0.79933 0.29892
 N1405 N -0.09620 0.79350 0.30988
 N1406 N -0.10797 0.79833 0.31466
 C1407 C -0.11415 0.80913 0.30859
 N1408 N -0.10809 0.81497 0.29760
 C1409 C -0.07791 0.79353 0.29337
 C1410 C -0.06799 0.78801 0.28863
 C1411 C -0.05683 0.78057 0.28276
 N1412 N -0.05654 0.76681 0.28387
 N1413 N -0.04716 0.75957 0.27728
 C1414 C -0.03763 0.76582 0.26942
 N1415 N -0.03784 0.77964 0.26841
 N1416 N -0.04728 0.78691 0.27500
 N1417 N 0.59586 0.70678 0.30986
 C1418 C 0.58989 0.70095 0.29887
 N1419 N 0.59607 0.69018 0.29277
 N1420 N 0.60783 0.68534 0.29760
 C1421 C 0.61383 0.69116 0.30863
 N1422 N 0.60761 0.70194 0.31468
 C1423 C 0.57764 0.70673 0.29330
 C1424 C 0.56772 0.71226 0.28857
 C1425 C 0.55656 0.71972 0.28276
 N1426 N 0.54726 0.71352 0.27462
 N1427 N 0.53780 0.72087 0.26815
 C1428 C 0.53732 0.73464 0.26967
 N1429 N 0.54660 0.74075 0.27790
 N1430 N 0.55601 0.73343 0.28437
 N1431 N 0.59623 0.20704 0.80949
 C1432 C 0.58999 0.20099 0.79878
 N1433 N 0.59590 0.18994 0.79291
 N1434 N 0.60764 0.18503 0.79771
 C1435 C 0.61390 0.19106 0.80847
 N1436 N 0.60797 0.20214 0.81428
 C1437 C 0.57772 0.20675 0.79325
 C1438 C 0.56778 0.21220 0.78850
 C1439 C 0.55657 0.21952 0.78260
 N1440 N 0.54703 0.21305 0.77494
 N1441 N 0.53754 0.22019 0.76829
 C1442 C 0.53727 0.23402 0.76913
 N1443 N 0.54679 0.24041 0.77687
 N1444 N 0.55622 0.23329 0.78353
 N1445 N 1.09620 0.70736 0.80976
 C1446 C 1.09000 0.70139 0.79897
 N1447 N 1.09596 0.69043 0.79301
 N1448 N 1.10771 0.68552 0.79777
 C1449 C 1.11393 0.69147 0.80860
 N1450 N 1.10794 0.70246 0.81452
 C1451 C 1.07774 0.70719 0.79346
 C1452 C 1.06781 0.71264 0.78868
 C1453 C 1.05664 0.71992 0.78266
 N1454 N 1.04688 0.71332 0.77541
 N1455 N 1.03742 0.72036 0.76861
 C1456 C 1.03742 0.73421 0.76890
 N1457 N 1.04715 0.74074 0.77625
 N1458 N 1.05655 0.73372 0.78305
 N1459 N 1.09600 0.19032 0.29285
 C1460 C 1.09000 0.20127 0.29882
 N1461 N 1.09617 0.20725 0.30962
 N1462 N 1.10793 0.20240 0.31437
 C1463 C 1.11397 0.19145 0.30844
 N1464 N 1.10778 0.18546 0.29761
 C1465 C 1.07773 0.20703 0.29330
 C1466 C 1.06778 0.21247 0.28855
 C1467 C 1.05658 0.21978 0.28263
 N1468 N 1.05620 0.23355 0.28360
 N1469 N 1.04679 0.24066 0.27691
 C1470 C 1.03733 0.23426 0.26911
 N1471 N 1.03764 0.22043 0.26823
 N1472 N 1.04710 0.21330 0.27491
 N1473 N 0.59596 0.30991 0.70724
 C1474 C 0.58982 0.29910 0.70120
 N1475 N 0.59585 0.29320 0.69026
 N1476 N 0.60761 0.29802 0.68545
 C1477 C 0.61378 0.30885 0.69145
 N1478 N 0.60773 0.31474 0.70242
 C1479 C 0.57757 0.29338 0.70680
 C1480 C 0.56765 0.28802 0.71171
 C1481 C 0.55649 0.28087 0.71791
 N1482 N 0.55619 0.26707 0.71742
 N1483 N 0.54681 0.26016 0.72436
 C1484 C 0.53731 0.26678 0.73195
 N1485 N 0.53753 0.28063 0.73234
 N1486 N 0.54696 0.28756 0.72540
 N1487 N 0.59622 0.81019 0.20731
 C1488 C 0.59003 0.79926 0.20155
 N1489 N 0.59603 0.79305 0.19076
 N1490 N 0.60781 0.79772 0.18582
 C1491 C 0.61401 0.80869 0.19155
 N1492 N 0.60799 0.81485 0.20237
 C1493 C 0.57775 0.79386 0.20739
 C1494 C 0.56780 0.78918 0.21288
 C1495 C 0.55658 0.78336 0.22024
 N1496 N 0.54726 0.77532 0.21393
 N1497 N 0.53779 0.76874 0.22116
 C1498 C 0.53732 0.77004 0.23492
 N1499 N 0.54662 0.77817 0.24115
 N1500 N 0.55604 0.78475 0.23394
 N1501 N 1.09598 0.31006 0.20708
 C1502 C 1.08985 0.29924 0.20103
 N1503 N 1.09589 0.29335 0.19010
 N1504 N 1.10765 0.29818 0.18529
 C1505 C 1.11381 0.30901 0.19130
 N1506 N 1.10775 0.31489 0.20226
 C1507 C 1.07762 0.29351 0.20666
 C1508 C 1.06770 0.28816 0.21158
 C1509 C 1.05654 0.28103 0.21779
 N1510 N 1.05621 0.26723 0.21730
 N1511 N 1.04684 0.26034 0.22427
 C1512 C 1.03739 0.26698 0.23190
 N1513 N 1.03764 0.28083 0.23230
 N1514 N 1.04706 0.28774 0.22533
 N1515 N 1.09593 0.79330 0.68989
 C1516 C 1.08989 0.79914 0.70086
 N1517 N 1.09602 0.80991 0.70696
 N1518 N 1.10780 0.81476 0.70219
 C1519 C 1.11386 0.80893 0.69119
 N1520 N 1.10769 0.79814 0.68512
 C1521 C 1.07764 0.79335 0.70642
 C1522 C 1.06774 0.78791 0.71125
 C1523 C 1.05660 0.78062 0.71731
 N1524 N 1.04682 0.78722 0.72456
 N1525 N 1.03739 0.78018 0.73140
 C1526 C 1.03742 0.76633 0.73115
 N1527 N 1.04718 0.75980 0.72380
 N1528 N 1.05655 0.76682 0.71696
 N1529 N 0.40378 0.69023 0.70699
 C1530 C 0.40992 0.70114 0.70111
 N1531 N 0.40393 0.70715 0.69022
 N1532 N 0.39221 0.70235 0.68530
 C1533 C 0.38604 0.69142 0.69117
 N1534 N 0.39206 0.68543 0.70209
 C1535 C 0.42214 0.70671 0.70691
 C1536 C 0.43206 0.71155 0.71233
 C1537 C 0.44324 0.71757 0.71960
 N1538 N 0.45230 0.72588 0.71324
 N1539 N 0.46174 0.73257 0.72040
 C1540 C 0.46242 0.73111 0.73414
 N1541 N 0.45338 0.72272 0.74042
 N1542 N 0.44400 0.71602 0.73328
 N1543 N 0.40400 0.18988 0.20691
 C1544 C 0.41015 0.20077 0.20102
 N1545 N 0.40416 0.20682 0.19015
 N1546 N 0.39240 0.20206 0.18526
 C1547 C 0.38622 0.19114 0.19113
 N1548 N 0.39225 0.18512 0.20202
 C1549 C 0.42238 0.20633 0.20682
 C1550 C 0.43230 0.21116 0.21224
 C1551 C 0.44347 0.21717 0.21951
 N1552 N 0.45253 0.22549 0.21316
 N1553 N 0.46195 0.23219 0.22033
 C1554 C 0.46262 0.23073 0.23407
 N1555 N 0.45359 0.22232 0.24033
 N1556 N 0.44422 0.21562 0.23318
 N1557 N -0.09613 0.69000 0.20701
 C1558 C -0.08994 0.70086 0.20111
 N1559 N -0.09589 0.70689 0.19020
 N1560 N -0.10764 0.70214 0.18529
 C1561 C -0.11386 0.69125 0.19118
 N1562 N -0.10788 0.68525 0.20210
 C1563 C -0.07771 0.70641 0.20692
 C1564 C -0.06781 0.71125 0.21235
 C1565 C -0.05666 0.71731 0.21961
 N1566 N -0.04763 0.72563 0.21324
 N1567 N -0.03823 0.73238 0.22038
 C1568 C -0.03756 0.73097 0.23413
 N1569 N -0.04658 0.72257 0.24042
 N1570 N -0.05593 0.71582 0.23329
 N1571 N -0.09631 0.20733 0.69042
 C1572 C -0.09019 0.20116 0.70116
 N1573 N -0.09621 0.19014 0.70691
 N1574 N -0.10796 0.18536 0.70204
 C1575 C -0.11411 0.19149 0.69128
 N1576 N -0.10806 0.20255 0.68553
 C1577 C -0.07794 0.20670 0.70692
 C1578 C -0.06800 0.21149 0.71232
 C1579 C -0.05679 0.21745 0.71956
 N1580 N -0.05600 0.21587 0.73323
 N1581 N -0.04661 0.22256 0.74037
 C1582 C -0.03760 0.23098 0.73409
 N1583 N -0.03831 0.23247 0.72036
 N1584 N -0.04775 0.22580 0.71320
 N1585 N 0.30972 0.40379 0.29301
 C1586 C 0.29879 0.40991 0.29889
 N1587 N 0.29267 0.40383 0.30969
 N1588 N 0.29741 0.39204 0.31451
 C1589 C 0.30836 0.38589 0.30865
 N1590 N 0.31445 0.39200 0.29783
 C1591 C 0.29328 0.42220 0.29318
 C1592 C 0.28850 0.43217 0.28781
 C1593 C 0.28255 0.44341 0.28058
 N1594 N 0.27415 0.45240 0.28693
 N1595 N 0.26748 0.46186 0.27978
 C1596 C 0.26904 0.46263 0.26605
 N1597 N 0.27752 0.45366 0.25979
 N1598 N 0.28420 0.44426 0.26692
 N1599 N 0.29325 -0.09666 0.80927
 C1600 C 0.29941 -0.09060 0.79849
 N1601 N 0.31040 -0.09669 0.79271
 N1602 N 0.31516 -0.10844 0.79762
 C1603 C 0.30902 -0.11455 0.80842
 N1604 N 0.29799 -0.10842 0.81416
 C1605 C 0.29388 -0.07832 0.79275
 C1606 C 0.28902 -0.06835 0.78745
 C1607 C 0.28288 -0.05708 0.78043
 N1608 N 0.28378 -0.05640 0.76669
 N1609 N 0.27687 -0.04696 0.75983
 C1610 C 0.26889 -0.03779 0.76646
 N1611 N 0.26808 -0.03840 0.78025
 N1612 N 0.27499 -0.04789 0.78713
 N1613 N 0.79310 0.40393 0.81028
 C1614 C 0.79893 0.40998 0.79932
 N1615 N 0.80975 0.40388 0.79321
 N1616 N 0.81464 0.39212 0.79799
 C1617 C 0.80881 0.38603 0.80898
 N1618 N 0.79798 0.39219 0.81505
 C1619 C 0.79312 0.42221 0.79377
 C1620 C 0.78766 0.43210 0.78894
 C1621 C 0.78037 0.44323 0.78285
 N1622 N 0.78698 0.45299 0.77561
 N1623 N 0.77995 0.46241 0.76877
 C1624 C 0.76608 0.46238 0.76899
 N1625 N 0.75954 0.45264 0.77633
 N1626 N 0.76656 0.44327 0.78318
 N1627 N 0.79318 -0.09621 0.30991
 C1628 C 0.79919 -0.09028 0.29898
 N1629 N 0.81004 -0.09649 0.29306
 N1630 N 0.81479 -0.10824 0.29797
 C1631 C 0.80882 -0.11421 0.30894
 N1632 N 0.79794 -0.10795 0.31483
 C1633 C 0.79364 -0.07804 0.29319
 C1634 C 0.78875 -0.06811 0.28783
 C1635 C 0.78260 -0.05691 0.28070
 N1636 N 0.78350 -0.05635 0.26697
 N1637 N 0.77661 -0.04695 0.26002
 C1638 C 0.76866 -0.03770 0.26657
 N1639 N 0.76784 -0.03820 0.28037
 N1640 N 0.77472 -0.04765 0.28733
 N1641 N 0.30984 0.59616 0.70720
 C1642 C 0.29904 0.59002 0.70111
 N1643 N 0.29321 0.59603 0.69013
 N1644 N 0.29806 0.60777 0.68533
 C1645 C 0.30887 0.61394 0.69138
 N1646 N 0.31470 0.60791 0.70238
 C1647 C 0.29325 0.57778 0.70668
 C1648 C 0.28778 0.56787 0.71146
 C1649 C 0.28044 0.55669 0.71740
 N1650 N 0.26665 0.55639 0.71650
 N1651 N 0.25953 0.54696 0.72316
 C1652 C 0.26592 0.53741 0.73087
 N1653 N 0.27977 0.53764 0.73167
 N1654 N 0.28691 0.54712 0.72502
 N1655 N 0.30986 1.09602 0.20689
 C1656 C 0.29905 1.08992 0.20079
 N1657 N 0.29322 1.09597 0.18983
 N1658 N 0.29809 1.10772 0.18507
 C1659 C 0.30891 1.11386 0.19114
 N1660 N 0.31473 1.10778 0.20212
 C1661 C 0.29324 1.07770 0.20635
 C1662 C 0.28776 1.06781 0.21117
 C1663 C 0.28044 1.05669 0.21724
 N1664 N 0.26663 1.05669 0.21691
 N1665 N 0.25958 1.04733 0.22374
 C1666 C 0.26609 1.03755 0.23106
 N1667 N 0.27996 1.03748 0.23129
 N1668 N 0.28702 1.04689 0.22446
 N1669 N 0.79330 0.59602 0.19008
 C1670 C 0.79920 0.59002 0.20103
 N1671 N 0.81001 0.59618 0.20706
 N1672 N 0.81482 0.60794 0.20223
 C1673 C 0.80893 0.61396 0.19126
 N1674 N 0.79811 0.60777 0.18526
 C1675 C 0.79347 0.57779 0.20667
 C1676 C 0.78811 0.56789 0.21160
 C1677 C 0.78096 0.55675 0.21782
 N1678 N 0.78767 0.54724 0.22531
 N1679 N 0.78074 0.53781 0.23225
 C1680 C 0.76688 0.53758 0.23187
 N1681 N 0.76024 0.54706 0.22429
 N1682 N 0.76715 0.55644 0.21735
 N1683 N 0.79285 1.09627 0.69045
 C1684 C 0.79887 1.09009 0.70123
 N1685 N 0.80984 1.09607 0.70715
 N1686 N 0.81470 1.10783 0.70236
 C1687 C 0.80869 1.11402 0.69155
 N1688 N 0.79770 1.10801 0.68566
 C1689 C 0.79310 1.07785 0.70679
 C1690 C 0.78764 1.06793 0.71155
 C1691 C 0.78029 1.05675 0.71748
 N1692 N 0.78675 1.04722 0.72514
 N1693 N 0.77959 1.03778 0.73183
 C1694 C 0.76575 1.03756 0.73101
 N1695 N 0.75937 1.04707 0.72325
 N1696 N 0.76651 1.05646 0.71656
 N1697 N 0.70705 0.59611 0.31006
 C1698 C 0.70122 0.59007 0.29911
 N1699 N 0.69041 0.59619 0.29302
 N1700 N 0.68554 0.60795 0.29780
 C1701 C 0.69136 0.61401 0.30878
 N1702 N 0.70219 0.60786 0.31484
 C1703 C 0.70700 0.57782 0.29357
 C1704 C 0.71244 0.56790 0.28877
 C1705 C 0.71974 0.55672 0.28277
 N1706 N 0.71323 0.54726 0.27507
 N1707 N 0.72034 0.53780 0.26834
 C1708 C 0.73418 0.53749 0.26916
 N1709 N 0.74061 0.54693 0.27695
 N1710 N 0.73352 0.55634 0.28368
 N1711 N 0.70723 1.09670 0.80965
 C1712 C 0.70112 1.09049 0.79895
 N1713 N 0.69002 1.09639 0.79318
 N1714 N 0.68512 1.10810 0.79805
 C1715 C 0.69119 1.11435 0.80881
 N1716 N 0.70234 1.10841 0.81451
 C1717 C 0.70681 1.07822 0.79334
 C1718 C 0.71209 1.06826 0.78844
 C1719 C 0.71915 1.05700 0.78230
 N1720 N 0.71237 1.04757 0.77478
 N1721 N 0.71922 1.03806 0.76787
 C1722 C 0.73308 1.03767 0.76829
 N1723 N 0.73979 1.04708 0.77590
 N1724 N 0.73295 1.05653 0.78283
 N1725 N 0.20724 0.59633 0.80958
 C1726 C 0.20116 0.59014 0.79885
 N1727 N 0.19015 0.59612 0.79298
 N1728 N 0.18532 0.60789 0.79778
 C1729 C 0.19138 0.61409 0.80855
 N1730 N 0.20241 0.60808 0.81438
 C1731 C 0.20684 0.57786 0.79328
 C1732 C 0.21215 0.56790 0.78839
 C1733 C 0.21923 0.55669 0.78221
 N1734 N 0.21247 0.54728 0.77464
 N1735 N 0.21935 0.53782 0.76769
 C1736 C 0.23321 0.53746 0.76812
 N1737 N 0.23989 0.54684 0.77578
 N1738 N 0.23303 0.55624 0.78274
 N1739 N 0.19039 1.09613 0.29301
 C1740 C 0.20135 1.09018 0.29898
 N1741 N 0.20734 1.09640 0.30975
 N1742 N 0.20247 1.10817 0.31447
 C1743 C 0.19150 1.11416 0.30852
 N1744 N 0.18551 1.10791 0.29773
 C1745 C 0.20712 1.07791 0.29349
 C1746 C 0.21254 1.06797 0.28872
 C1747 C 0.21978 1.05677 0.28270
 N1748 N 0.23359 1.05661 0.28311
 N1749 N 0.24057 1.04721 0.27627
 C1750 C 0.23400 1.03756 0.26886
 N1751 N 0.22014 1.03763 0.26856
 N1752 N 0.21313 1.04708 0.27540
 N1753 N 0.69042 0.40386 0.70701
 C1754 C 0.70122 0.40995 0.70087
 N1755 N 0.70699 0.40392 0.68987
 N1756 N 0.70207 0.39221 0.68509
 C1757 C 0.69125 0.38608 0.69119
 N1758 N 0.68549 0.39213 0.70222
 C1759 C 0.70705 0.42217 0.70642
 C1760 C 0.71251 0.43206 0.71125
 C1761 C 0.71978 0.44319 0.71734
 N1762 N 0.73360 0.44325 0.71702
 N1763 N 0.74059 0.45263 0.72386
 C1764 C 0.73403 0.46239 0.73117
 N1765 N 0.72017 0.46241 0.73139
 N1766 N 0.71315 0.45297 0.72456
 N1767 N 0.70707 -0.09629 0.19075
 C1768 C 0.70093 -0.09024 0.20155
 N1769 N 0.68997 -0.09636 0.20737
 N1770 N 0.68524 -0.10811 0.20248
 C1771 C 0.69135 -0.11418 0.19166
 N1772 N 0.70234 -0.10804 0.18586
 C1773 C 0.70645 -0.07799 0.20729
 C1774 C 0.71133 -0.06805 0.21261
 C1775 C 0.71750 -0.05684 0.21968
 N1776 N 0.71661 -0.05621 0.23342
 N1777 N 0.72355 -0.04683 0.24031
 C1778 C 0.73154 -0.03765 0.23372
 N1779 N 0.73235 -0.03821 0.21993
 N1780 N 0.72542 -0.04764 0.21301
 N1781 N 0.19009 0.40413 0.20706
 C1782 C 0.20087 0.41028 0.20094
 N1783 N 0.20671 0.40426 0.18997
 N1784 N 0.20187 0.39251 0.18519
 C1785 C 0.19108 0.38634 0.19127
 N1786 N 0.18524 0.39237 0.20227
 C1787 C 0.20668 0.42249 0.20651
 C1788 C 0.21220 0.43238 0.21127
 C1789 C 0.21963 0.44350 0.21718
 N1790 N 0.23340 0.44375 0.21614
 N1791 N 0.24063 0.45310 0.22278
 C1792 C 0.23434 0.46262 0.23062
 N1793 N 0.22050 0.46245 0.23155
 N1794 N 0.21326 0.45305 0.22491
 N1795 N 0.20689 -0.09595 0.69024
 C1796 C 0.20087 -0.09001 0.70116
 N1797 N 0.18999 -0.09618 0.70706
 N1798 N 0.18522 -0.10790 0.70213
 C1799 C 0.19121 -0.11388 0.69119
 N1800 N 0.20211 -0.10767 0.68531
 C1801 C 0.20647 -0.07781 0.70698
 C1802 C 0.21140 -0.06793 0.71236
 C1803 C 0.21763 -0.05681 0.71952
 N1804 N 0.21683 -0.05636 0.73327
 N1805 N 0.22378 -0.04703 0.74023
 C1806 C 0.23169 -0.03774 0.73368
 N1807 N 0.23240 -0.03813 0.71988
 N1808 N 0.22545 -0.04751 0.71291
 N1809 N 0.29273 0.30968 0.40405
 C1810 C 0.29869 0.29880 0.41016
 N1811 N 0.30956 0.29275 0.40411
 N1812 N 0.31438 0.29750 0.39234
 C1813 C 0.30844 0.30840 0.38620
 N1814 N 0.29755 0.31442 0.39228
 C1815 C 0.29298 0.29326 0.42242
 C1816 C 0.28765 0.28837 0.43236
 C1817 C 0.28054 0.28218 0.44354
 N1818 N 0.28730 0.27469 0.45301
 N1819 N 0.28041 0.26772 0.46244
 C1820 C 0.26655 0.26806 0.46271
 N1821 N 0.25987 0.27564 0.45326
 N1822 N 0.26674 0.28261 0.44388
 N1823 N 0.29300 0.80971 -0.09616
 C1824 C 0.29911 0.79888 -0.09010
 N1825 N 0.31002 0.79298 -0.09621
 N1826 N 0.31476 0.79781 -0.10797
 C1827 C 0.30869 0.80866 -0.11407
 N1828 N 0.29775 0.81454 -0.10793
 C1829 C 0.29359 0.79316 -0.07782
 C1830 C 0.28878 0.78780 -0.06787
 C1831 C 0.28276 0.78059 -0.05666
 N1832 N 0.28392 0.76685 -0.05603
 N1833 N 0.27714 0.75980 -0.04664
 C1834 C 0.26904 0.76624 -0.03745
 N1835 N 0.26798 0.78005 -0.03799
 N1836 N 0.27475 0.78711 -0.04744
 N1837 N 0.79236 0.31012 -0.09620
 C1838 C 0.79842 0.29929 -0.09010
 N1839 N 0.80934 0.29336 -0.09618
 N1840 N 0.81411 0.29815 -0.10795
 C1841 C 0.80807 0.30900 -0.11407
 N1842 N 0.79713 0.31492 -0.10797
 C1843 C 0.79289 0.29360 -0.07782
 C1844 C 0.78811 0.28823 -0.06786
 C1845 C 0.78220 0.28096 -0.05663
 N1846 N 0.78394 0.26730 -0.05575
 N1847 N 0.77731 0.26012 -0.04635
 C1848 C 0.76877 0.26635 -0.03742
 N1849 N 0.76711 0.28009 -0.03823
 N1850 N 0.77374 0.28729 -0.04768
 N1851 N 0.80929 0.79306 0.40392
 C1852 C 0.79846 0.79914 0.41002
 N1853 N 0.79252 0.81004 0.40393
 N1854 N 0.79731 0.81477 0.39215
 C1855 C 0.80816 0.80872 0.38602
 N1856 N 0.81408 0.79780 0.39213
 C1857 C 0.79279 0.79361 0.42231
 C1858 C 0.78751 0.78873 0.43227
 C1859 C 0.78046 0.78253 0.44348
 N1860 N 0.76665 0.78294 0.44388
 N1861 N 0.75983 0.77593 0.45327
 C1862 C 0.76656 0.76834 0.46268
 N1863 N 0.78042 0.76803 0.46236
 N1864 N 0.78726 0.77503 0.45292
 N1865 N 0.69025 0.29273 0.59607
 C1866 C 0.70104 0.29883 0.58993
 N1867 N 0.70695 0.30976 0.59599
 N1868 N 0.70217 0.31450 0.60777
 C1869 C 0.69136 0.30842 0.61394
 N1870 N 0.68546 0.29747 0.60785
 C1871 C 0.70672 0.29331 0.57764
 C1872 C 0.71206 0.28850 0.56768
 C1873 C 0.71924 0.28247 0.55646
 N1874 N 0.73299 0.28365 0.55578
 N1875 N 0.74003 0.27685 0.54640
 C1876 C 0.73358 0.26872 0.53727
 N1877 N 0.71976 0.26764 0.53786
 N1878 N 0.71270 0.27443 0.54730
 N1879 N 0.69053 0.79311 1.09582
 C1880 C 0.70139 0.79919 1.08980
 N1881 N 0.70733 0.81003 1.09596
 N1882 N 0.70250 0.81472 1.10775
 C1883 C 0.69162 0.80867 1.11380
 N1884 N 0.68569 0.79780 1.10761
 C1885 C 0.70711 0.79368 1.07753
 C1886 C 0.71242 0.78880 1.06759
 C1887 C 0.71948 0.78257 1.05641
 N1888 N 0.73329 0.78293 1.05605
 N1889 N 0.74012 0.77589 1.04669
 C1890 C 0.73339 0.76832 1.03728
 N1891 N 0.71953 0.76806 1.03756
 N1892 N 0.71268 0.77509 1.04698
 N1893 N 0.18998 0.29278 1.09624
 C1894 C 0.20086 0.29865 1.09004
 N1895 N 0.20702 0.30948 1.09603
 N1896 N 0.20237 0.31436 1.10781
 C1897 C 0.19146 0.30851 1.11404
 N1898 N 0.18534 0.29765 1.10802
 C1899 C 0.20628 0.29287 1.07776
 C1900 C 0.21103 0.28745 1.06781
 C1901 C 0.21704 0.28021 1.05662
 N1902 N 0.22430 0.28685 1.04689
 N1903 N 0.23114 0.27984 1.03744
 C1904 C 0.23087 0.26599 1.03740
 N1905 N 0.22350 0.25943 1.04711
 N1906 N 0.21666 0.26641 1.05650
 N1907 N 0.20703 0.80988 0.59584
 C1908 C 0.20107 0.79901 0.58974
 N1909 N 0.19026 0.79293 0.59585
 N1910 N 0.18550 0.79764 0.60766
 C1911 C 0.19144 0.80854 0.61378
 N1912 N 0.20228 0.81459 0.60764
 C1913 C 0.20674 0.79351 0.57745
 C1914 C 0.21209 0.78871 0.56750
 C1915 C 0.21931 0.78270 0.55630
 N1916 N 0.21281 0.77466 0.54712
 N1917 N 0.21991 0.76787 0.53771
 C1918 C 0.23373 0.76894 0.53718
 N1919 N 0.24015 0.77707 0.54633
 N1920 N 0.23307 0.78387 0.55569
 N1921 N 0.30959 0.70709 0.59598
 C1922 C 0.29871 0.70114 0.58988
 N1923 N 0.29265 0.69030 0.59597
 N1924 N 0.29739 0.68552 0.60776
 C1925 C 0.30829 0.69146 0.61388
 N1926 N 0.31432 0.70231 0.60776
 C1927 C 0.29320 0.70681 0.57758
 C1928 C 0.28843 0.71216 0.56761
 C1929 C 0.28245 0.71937 0.55639
 N1930 N 0.27438 0.71288 0.54722
 N1931 N 0.26764 0.71998 0.53777
 C1932 C 0.26879 0.73377 0.53719
 N1933 N 0.27696 0.74018 0.54633
 N1934 N 0.28371 0.73310 0.55572
 N1935 N 0.30998 0.20731 1.09605
 C1936 C 0.29910 0.20142 1.08989
 N1937 N 0.29297 0.19059 1.09591
 N1938 N 0.29765 0.18574 1.10769
 C1939 C 0.30856 0.19161 1.11388
 N1940 N 0.31465 0.20247 1.10782
 C1941 C 0.29364 0.20718 1.07762
 C1942 C 0.28885 0.21259 1.06769
 C1943 C 0.28279 0.21982 1.05653
 N1944 N 0.27551 0.21317 1.04684
 N1945 N 0.26862 0.22016 1.03742
 C1946 C 0.26885 0.23401 1.03738
 N1947 N 0.27624 0.24059 1.04704
 N1948 N 0.28312 0.23362 1.05641
 N1949 N 0.80927 0.70702 1.09590
 C1950 C 0.79842 0.70089 1.08991
 N1951 N 0.79254 0.69003 1.09611
 N1952 N 0.79740 0.68538 1.10789
 C1953 C 0.80827 0.69148 1.11390
 N1954 N 0.81414 0.70237 1.10768
 C1955 C 0.79267 0.70631 1.07762
 C1956 C 0.78727 0.71103 1.06766
 C1957 C 0.78004 0.71699 1.05644
 N1958 N 0.76625 0.71616 1.05605
 N1959 N 0.75922 0.72293 1.04663
 C1960 C 0.76572 0.73067 1.03719
 N1961 N 0.77957 0.73141 1.03751
 N1962 N 0.78662 0.72465 1.04698
 N1963 N 0.80967 0.20672 0.59574
 C1964 C 0.79877 0.20077 0.58968
 N1965 N 0.79268 0.18998 0.59582
 N1966 N 0.79743 0.18523 0.60763
 C1967 C 0.80835 0.19118 0.61371
 N1968 N 0.81440 0.20199 0.60753
 C1969 C 0.79322 0.20643 0.57741
 C1970 C 0.78839 0.21179 0.56748
 C1971 C 0.78235 0.21903 0.55632
 N1972 N 0.77425 0.21257 0.54716
 N1973 N 0.76746 0.21968 0.53777
 C1974 C 0.76858 0.23348 0.53724
 N1975 N 0.77676 0.23987 0.54638
 N1976 N 0.78357 0.23277 0.55571
 N1977 N 0.70729 0.69020 0.40386
 C1978 C 0.70139 0.70108 0.41002
 N1979 N 0.69054 0.70720 0.40401
 N1980 N 0.68568 0.70251 0.39223
 C1981 C 0.69156 0.69160 0.38605
 N1982 N 0.70244 0.68552 0.39209
 C1983 C 0.70715 0.70653 0.42230
 C1984 C 0.71255 0.71126 0.43226
 C1985 C 0.71979 0.71721 0.44348
 N1986 N 0.71322 0.72486 0.45295
 N1987 N 0.72028 0.73158 0.46243
 C1988 C 0.73412 0.73080 0.46276
 N1989 N 0.74061 0.72306 0.45331
 N1990 N 0.73357 0.71633 0.44388
 N1991 N 0.69056 0.20704 -0.09615
 C1992 C 0.70140 0.20093 -0.09011
 N1993 N 0.70730 0.19003 -0.09625
 N1994 N 0.70246 0.18533 -0.10801
 C1995 C 0.69160 0.19140 -0.11408
 N1996 N 0.68571 0.20233 -0.10792
 C1997 C 0.70716 0.20640 -0.07783
 C1998 C 0.71259 0.21113 -0.06789
 C1999 C 0.71990 0.21704 -0.05669
 N2000 N 0.73368 0.21605 -0.05630
 N2001 N 0.74079 0.22273 -0.04690
 C2002 C 0.73438 0.23054 -0.03744
 N2003 N 0.72054 0.23141 -0.03774
 N2004 N 0.71341 0.22475 -0.04720
 N2005 N 0.19022 0.70713 -0.09589
 C2006 C 0.20109 0.70108 -0.08984
 N2007 N 0.20706 0.69022 -0.09596
 N2008 N 0.20226 0.68548 -0.10773
 C2009 C 0.19138 0.69150 -0.11382
 N2010 N 0.18542 0.70239 -0.10767
 C2011 C 0.20680 0.70662 -0.07759
 C2012 C 0.21218 0.71144 -0.06766
 C2013 C 0.21942 0.71748 -0.05650
 N2014 N 0.23317 0.71629 -0.05591
 N2015 N 0.24026 0.72308 -0.04657
 C2016 C 0.23386 0.73123 -0.03741
 N2017 N 0.22004 0.73233 -0.03792
 N2018 N 0.21293 0.72554 -0.04731
 N2019 N 0.19040 0.20698 0.40411
 C2020 C 0.20125 0.20084 0.41012
 N2021 N 0.20715 0.18998 0.40394
 N2022 N 0.20230 0.18532 0.39216
 C2023 C 0.19143 0.19143 0.38612
 N2024 N 0.18555 0.20232 0.39233
 C2025 C 0.20701 0.20627 0.42240
 C2026 C 0.21242 0.21101 0.43234
 C2027 C 0.21967 0.21696 0.44355
 N2028 N 0.23346 0.21609 0.44393
 N2029 N 0.24051 0.22282 0.45334
 C2030 C 0.23403 0.23059 0.46278
 N2031 N 0.22019 0.23137 0.46247
 N2032 N 0.21312 0.22464 0.45301
 N2033 N 0.30975 0.40389 0.70676
 C2034 C 0.29883 0.41001 0.70088
 N2035 N 0.29276 0.40397 0.69005
 N2036 N 0.29753 0.39220 0.68520
 C2037 C 0.30847 0.38605 0.69106
 N2038 N 0.31451 0.39212 0.70191
 C2039 C 0.29328 0.42227 0.70663
 C2040 C 0.28848 0.43221 0.71204
 C2041 C 0.28252 0.44342 0.71930
 N2042 N 0.27415 0.45245 0.71297
 N2043 N 0.26749 0.46190 0.72015
 C2044 C 0.26903 0.46263 0.73387
 N2045 N 0.27747 0.45362 0.74012
 N2046 N 0.28414 0.44422 0.73296
 N2047 N 0.29265 0.90394 0.19003
 C2048 C 0.29868 0.91018 0.20076
 N2049 N 0.30968 0.90425 0.20670
 N2050 N 0.31455 0.89247 0.20198
 C2051 C 0.30853 0.88620 0.19122
 N2052 N 0.29752 0.89217 0.18532
 C2053 C 0.29291 0.92244 0.20626
 C2054 C 0.28749 0.93237 0.21105
 C2055 C 0.28023 0.94353 0.21710
 N2056 N 0.28686 0.95326 0.22437
 N2057 N 0.27984 0.96269 0.23122
 C2058 C 0.26597 0.96269 0.23098
 N2059 N 0.25942 0.95299 0.22362
 N2060 N 0.26642 0.94362 0.21676
 N2061 N 0.80981 0.40417 0.20686
 C2062 C 0.79886 0.41017 0.20090
 N2063 N 0.79288 0.40401 0.19009
 N2064 N 0.79773 0.39225 0.18533
 C2065 C 0.80869 0.38621 0.19126
 N2066 N 0.81467 0.39239 0.20209
 C2067 C 0.79309 0.42242 0.20643
 C2068 C 0.78762 0.43236 0.21118
 C2069 C 0.78025 0.44354 0.21707
 N2070 N 0.76648 0.44390 0.21599
 N2071 N 0.75929 0.45329 0.22264
 C2072 C 0.76561 0.46274 0.23052
 N2073 N 0.77945 0.46246 0.23148
 N2074 N 0.78666 0.45302 0.22484
 N2075 N 0.80989 0.90421 0.70685
 C2076 C 0.79897 0.91034 0.70097
 N2077 N 0.79295 0.90434 0.69009
 N2078 N 0.79775 0.89261 0.68519
 C2079 C 0.80869 0.88644 0.69106
 N2080 N 0.81469 0.89247 0.70195
 C2081 C 0.79337 0.92256 0.70678
 C2082 C 0.78852 0.93246 0.71221
 C2083 C 0.78250 0.94364 0.71950
 N2084 N 0.77415 0.95268 0.71316
 N2085 N 0.76746 0.96211 0.72034
 C2086 C 0.76894 0.96281 0.73408
 N2087 N 0.77738 0.95378 0.74032
 N2088 N 0.78408 0.94441 0.73316
 N2089 N 0.69029 0.59588 0.70721
 C2090 C 0.70111 0.58980 0.70108
 N2091 N 0.70692 0.59586 0.69012
 N2092 N 0.70203 0.60761 0.68537
 C2093 C 0.69120 0.61373 0.69146
 N2094 N 0.68539 0.60764 0.70245
 C2095 C 0.70693 0.57756 0.70661
 C2096 C 0.71240 0.56765 0.71141
 C2097 C 0.71970 0.55649 0.71743
 N2098 N 0.73352 0.55646 0.71711
 N2099 N 0.74054 0.54707 0.72392
 C2100 C 0.73400 0.53729 0.73122
 N2101 N 0.72013 0.53725 0.73145
 N2102 N 0.71310 0.54669 0.72463
 N2103 N 0.69012 0.09577 0.20711
 C2104 C 0.70097 0.08963 0.20111
 N2105 N 0.70689 0.09562 0.19016
 N2106 N 0.70207 0.10736 0.18531
 C2107 C 0.69121 0.11354 0.19128
 N2108 N 0.68529 0.10752 0.20225
 C2109 C 0.70670 0.07741 0.20676
 C2110 C 0.71207 0.06750 0.21168
 C2111 C 0.71925 0.05634 0.21783
 N2112 N 0.73302 0.05576 0.21683
 N2113 N 0.74003 0.04638 0.22369
 C2114 C 0.73352 0.03718 0.23171
 N2115 N 0.71969 0.03768 0.23263
 N2116 N 0.71266 0.04711 0.22577
 N2117 N 0.20692 0.59600 0.19005
 C2118 C 0.20096 0.58993 0.20094
 N2119 N 0.19009 0.59603 0.20694
 N2120 N 0.18525 0.60778 0.20212
 C2121 C 0.19118 0.61387 0.19120
 N2122 N 0.20208 0.60775 0.18524
 C2123 C 0.20669 0.57769 0.20656
 C2124 C 0.21204 0.56778 0.21148
 C2125 C 0.21917 0.55661 0.21769
 N2126 N 0.21243 0.54712 0.22519
 N2127 N 0.21934 0.53770 0.23216
 C2128 C 0.23320 0.53745 0.23182
 N2129 N 0.23986 0.54692 0.22423
 N2130 N 0.23297 0.55629 0.21725
 N2131 N 0.18989 0.09563 0.70740
 C2132 C 0.20090 0.08964 0.70154
 N2133 N 0.20696 0.09577 0.69075
 N2134 N 0.20212 0.10750 0.68591
 C2135 C 0.19110 0.11354 0.69174
 N2136 N 0.18505 0.10738 0.70255
 C2137 C 0.20662 0.07740 0.70717
 C2138 C 0.21199 0.06747 0.71204
 C2139 C 0.21919 0.05628 0.71811
 N2140 N 0.23296 0.05569 0.71704
 N2141 N 0.23999 0.04630 0.72385
 C2142 C 0.23351 0.03709 0.73188
 N2143 N 0.21969 0.03761 0.73288
 N2144 N 0.21264 0.04705 0.72608
 N2145 N 0.30989 0.59599 0.29275
 C2146 C 0.29890 0.59002 0.29868
 N2147 N 0.29287 0.59621 0.30944
 N2148 N 0.29770 0.60797 0.31420
 C2149 C 0.30870 0.61398 0.30831
 N2150 N 0.31474 0.60776 0.29752
 C2151 C 0.29316 0.57776 0.29315
 C2152 C 0.28772 0.56782 0.28841
 C2153 C 0.28040 0.55662 0.28252
 N2154 N 0.26661 0.55630 0.28345
 N2155 N 0.25949 0.54689 0.27678
 C2156 C 0.26589 0.53738 0.26903
 N2157 N 0.27974 0.53763 0.26819
 N2158 N 0.28688 0.54709 0.27485
 N2159 N 0.31009 0.09591 0.79285
 C2160 C 0.29929 0.08970 0.79886
 N2161 N 0.29334 0.09566 0.80982
 N2162 N 0.29809 0.10742 0.81467
 C2163 C 0.30891 0.11366 0.80869
 N2164 N 0.31485 0.10768 0.79771
 C2165 C 0.29363 0.07745 0.79323
 C2166 C 0.28830 0.06751 0.78835
 C2167 C 0.28115 0.05630 0.78225
 N2168 N 0.26739 0.05565 0.78334
 N2169 N 0.26040 0.04624 0.77653
 C2170 C 0.26691 0.03707 0.76848
 N2171 N 0.28073 0.03764 0.76748
 N2172 N 0.28774 0.04710 0.77428
 N2173 N 0.80985 0.59579 0.79299
 C2174 C 0.79890 0.58982 0.79898
 N2175 N 0.79297 0.59597 0.80983
 N2176 N 0.79787 0.60770 0.81459
 C2177 C 0.80882 0.61372 0.80863
 N2178 N 0.81476 0.60753 0.79776
 C2179 C 0.79313 0.57757 0.79346
 C2180 C 0.78771 0.56764 0.78868
 C2181 C 0.78042 0.55647 0.78270
 N2182 N 0.76661 0.55641 0.78309
 N2183 N 0.75958 0.54701 0.77631
 C2184 C 0.76610 0.53725 0.76898
 N2185 N 0.77997 0.53723 0.76869
 N2186 N 0.78702 0.54669 0.77547
 N2187 N 0.81027 0.09587 0.29269
 C2188 C 0.79947 0.08967 0.29872
 N2189 N 0.79355 0.09563 0.30968
 N2190 N 0.79832 0.10738 0.31453
 C2191 C 0.80913 0.11361 0.30854
 N2192 N 0.81505 0.10763 0.29755
 C2193 C 0.79378 0.07744 0.29308
 C2194 C 0.78841 0.06752 0.28820
 C2195 C 0.78120 0.05635 0.28210
 N2196 N 0.76744 0.05580 0.28314
 N2197 N 0.76040 0.04641 0.27635
 C2198 C 0.76688 0.03716 0.26836
 N2199 N 0.78071 0.03764 0.26739
 N2200 N 0.78776 0.04708 0.27418
 N2201 N 0.68998 0.40412 0.29313
 C2202 C 0.70105 0.41010 0.29886
 N2203 N 0.70725 0.40391 0.30955
 N2204 N 0.70245 0.39217 0.31442
 C2205 C 0.69134 0.38618 0.30872
 N2206 N 0.68518 0.39238 0.29800
 C2207 C 0.70661 0.42235 0.29311
 C2208 C 0.71143 0.43230 0.28774
 C2209 C 0.71740 0.44353 0.28052
 N2210 N 0.72579 0.45250 0.28688
 N2211 N 0.73248 0.46196 0.27974
 C2212 C 0.73094 0.46276 0.26602
 N2213 N 0.72246 0.45381 0.25974
 N2214 N 0.71577 0.44441 0.26687
 N2215 N 0.70673 0.90421 0.81012
 C2216 C 0.70092 0.91026 0.79916
 N2217 N 0.69012 0.90416 0.79305
 N2218 N 0.68525 0.89240 0.79781
 C2219 C 0.69106 0.88631 0.80879
 N2220 N 0.70187 0.89245 0.81488
 C2221 C 0.70672 0.92251 0.79365
 C2222 C 0.71223 0.93243 0.78892
 C2223 C 0.71963 0.94360 0.78303
 N2224 N 0.71323 0.95315 0.77532
 N2225 N 0.72045 0.96259 0.76869
 C2226 C 0.73429 0.96280 0.76962
 N2227 N 0.74060 0.95329 0.77744
 N2228 N 0.73340 0.94390 0.78407
 N2229 N 0.19006 0.40401 0.79283
 C2230 C 0.20096 0.41005 0.79884
 N2231 N 0.20689 0.40393 0.80970
 N2232 N 0.20205 0.39216 0.81445
 C2233 C 0.19116 0.38607 0.80846
 N2234 N 0.18522 0.39223 0.79759
 C2235 C 0.20673 0.42231 0.79331
 C2236 C 0.21222 0.43225 0.78859
 C2237 C 0.21963 0.44342 0.78273
 N2238 N 0.23340 0.44370 0.78378
 N2239 N 0.24062 0.45309 0.77717
 C2240 C 0.23432 0.46261 0.76935
 N2241 N 0.22049 0.46242 0.76841
 N2242 N 0.21325 0.45298 0.77502
 N2243 N 0.20731 0.90377 0.30968
 C2244 C 0.20131 0.91001 0.29892
 N2245 N 0.19032 0.90410 0.29297
 N2246 N 0.18544 0.89232 0.29770
 C2247 C 0.19143 0.88605 0.30848
 N2248 N 0.20243 0.89201 0.31440
 C2249 C 0.20709 0.92229 0.29344
 C2250 C 0.21250 0.93224 0.28867
 C2251 C 0.21974 0.94344 0.28266
 N2252 N 0.21310 0.95319 0.27542
 N2253 N 0.22010 0.96265 0.26859
 C2254 C 0.23397 0.96267 0.26884
 N2255 N 0.24054 0.95295 0.27618
 N2256 N 0.23355 0.94354 0.28302
 N2257 N 0.40399 0.29330 0.69008
 C2258 C 0.40999 0.29914 0.70105
 N2259 N 0.40384 0.30993 0.70713
 N2260 N 0.39208 0.31479 0.70232
 C2261 C 0.38605 0.30895 0.69131
 N2262 N 0.39224 0.29814 0.68528
 C2263 C 0.42221 0.29333 0.70664
 C2264 C 0.43211 0.28780 0.71141
 C2265 C 0.44323 0.28035 0.71732
 N2266 N 0.45283 0.28669 0.72501
 N2267 N 0.46225 0.27943 0.73161
 C2268 C 0.46241 0.26560 0.73069
 N2269 N 0.45283 0.25934 0.72291
 N2270 N 0.44346 0.26658 0.71630
 N2271 N 0.40398 0.81005 0.20707
 C2272 C 0.40998 0.79908 0.20115
 N2273 N 0.40384 0.79310 0.19034
 N2274 N 0.39210 0.79796 0.18553
 C2275 C 0.38606 0.80894 0.19142
 N2276 N 0.39223 0.81492 0.20226
 C2277 C 0.42224 0.79331 0.20670
 C2278 C 0.43218 0.78782 0.21141
 C2279 C 0.44338 0.78040 0.21721
 N2280 N 0.44398 0.76670 0.21560
 N2281 N 0.45340 0.75941 0.22210
 C2282 C 0.46264 0.76556 0.23035
 N2283 N 0.46211 0.77933 0.23186
 N2284 N 0.45265 0.78663 0.22537
 N2285 N 0.90387 0.29303 0.19014
 C2286 C 0.91004 0.29902 0.20094
 N2287 N 0.90403 0.30996 0.20690
 N2288 N 0.89224 0.31481 0.20213
 C2289 C 0.88605 0.30882 0.19131
 N2290 N 0.89210 0.29787 0.18538
 C2291 C 0.92229 0.29326 0.20647
 C2292 C 0.93222 0.28778 0.21122
 C2293 C 0.94338 0.28038 0.21711
 N2294 N 0.95287 0.28676 0.22491
 N2295 N 0.96229 0.27953 0.23155
 C2296 C 0.96253 0.26570 0.23057
 N2297 N 0.95307 0.25942 0.22267
 N2298 N 0.94371 0.26663 0.21602
 N2299 N 0.90397 0.81009 0.70696
 C2300 C 0.91011 0.79931 0.70084
 N2301 N 0.90410 0.79351 0.68986
 N2302 N 0.89236 0.79840 0.68506
 C2303 C 0.88619 0.80920 0.69114
 N2304 N 0.89222 0.81499 0.70216
 C2305 C 0.92232 0.79347 0.70642
 C2306 C 0.93221 0.78798 0.71125
 C2307 C 0.94332 0.78065 0.71732
 N2308 N 0.94331 0.76685 0.71700
 N2309 N 0.95268 0.75980 0.72383
 C2310 C 0.96248 0.76630 0.73112
 N2311 N 0.96256 0.78016 0.73134
 N2312 N 0.95314 0.78722 0.72452
 N2313 N 0.59618 0.29302 0.30936
 C2314 C 0.59001 0.29912 0.29861
 N2315 N 0.59598 0.31014 0.29278
 N2316 N 0.60772 0.31498 0.29763
 C2317 C 0.61391 0.30891 0.30841
 N2318 N 0.60791 0.29786 0.31420
 C2319 C 0.57777 0.29340 0.29298
 C2320 C 0.56785 0.28805 0.28809
 C2321 C 0.55666 0.28087 0.28198
 N2322 N 0.54713 0.28754 0.27448
 N2323 N 0.53769 0.28058 0.26759
 C2324 C 0.53748 0.26673 0.26803
 N2325 N 0.54699 0.26014 0.27562
 N2326 N 0.55637 0.26708 0.28251
 N2327 N 0.59577 0.79337 0.80998
 C2328 C 0.58976 0.79927 0.79904
 N2329 N 0.59591 0.81008 0.79300
 N2330 N 0.60767 0.81490 0.79782
 C2331 C 0.61371 0.80901 0.80879
 N2332 N 0.60752 0.79818 0.81480
 C2333 C 0.57752 0.79355 0.79342
 C2334 C 0.56761 0.78820 0.78850
 C2335 C 0.55644 0.78106 0.78231
 N2336 N 0.54694 0.78777 0.77481
 N2337 N 0.53751 0.78084 0.76787
 C2338 C 0.53726 0.76700 0.76828
 N2339 N 0.54673 0.76036 0.77588
 N2340 N 0.55612 0.76726 0.78282
 N2341 N 0.09590 0.30981 0.79291
 C2342 C 0.08987 0.29889 0.79887
 N2343 N 0.09599 0.29291 0.80971
 N2344 N 0.10777 0.29773 0.81447
 C2345 C 0.11385 0.30864 0.80852
 N2346 N 0.10768 0.31463 0.79768
 C2347 C 0.07760 0.29319 0.79331
 C2348 C 0.06765 0.28787 0.78843
 C2349 C 0.05644 0.28078 0.78228
 N2350 N 0.05607 0.26699 0.78280
 N2351 N 0.04668 0.26011 0.77585
 C2352 C 0.03725 0.26677 0.76822
 N2353 N 0.03755 0.28062 0.76779
 N2354 N 0.04699 0.28751 0.77474
 N2355 N 0.09599 0.79314 0.30949
 C2356 C 0.08987 0.79916 0.29868
 N2357 N 0.09590 0.81011 0.29277
 N2358 N 0.10767 0.81492 0.29758
 C2359 C 0.11382 0.80890 0.30841
 N2360 N 0.10775 0.79794 0.31430
 C2361 C 0.07761 0.79347 0.29309
 C2362 C 0.06766 0.78814 0.28822
 C2363 C 0.05647 0.78102 0.28208
 N2364 N 0.04700 0.78773 0.27454
 N2365 N 0.03755 0.78081 0.26762
 C2366 C 0.03727 0.76697 0.26807
 N2367 N 0.04672 0.76033 0.27570
 N2368 N 0.05611 0.76723 0.28262
 N2369 N 0.59597 0.70699 0.69024
 C2370 C 0.58992 0.70118 0.70122
 N2371 N 0.59601 0.69036 0.70730
 N2372 N 0.60775 0.68544 0.70250
 C2373 C 0.61383 0.69124 0.69150
 N2374 N 0.60771 0.70208 0.68544
 C2375 C 0.57768 0.70701 0.70678
 C2376 C 0.56775 0.71249 0.71158
 C2377 C 0.55655 0.71981 0.71754
 N2378 N 0.54700 0.71332 0.72518
 N2379 N 0.53752 0.72044 0.73187
 C2380 C 0.53727 0.73427 0.73108
 N2381 N 0.54680 0.74069 0.72335
 N2382 N 0.55623 0.73358 0.71666
 N2383 N 0.59589 0.20650 0.18995
 C2384 C 0.58989 0.20069 0.20096
 N2385 N 0.59604 0.18991 0.20706
 N2386 N 0.60779 0.18503 0.20224
 C2387 C 0.61381 0.19083 0.19120
 N2388 N 0.60763 0.20162 0.18514
 C2389 C 0.57767 0.20651 0.20656
 C2390 C 0.56777 0.21200 0.21138
 C2391 C 0.55662 0.21935 0.21737
 N2392 N 0.54708 0.21289 0.22504
 N2393 N 0.53764 0.22005 0.23175
 C2394 C 0.53742 0.23388 0.23094
 N2395 N 0.54695 0.24026 0.22318
 N2396 N 0.55633 0.23312 0.21647
 N2397 N 0.09598 0.70710 0.19028
 C2398 C 0.08985 0.70115 0.20112
 N2399 N 0.09589 0.69026 0.20713
 N2400 N 0.10768 0.68541 0.20236
 C2401 C 0.11383 0.69134 0.19148
 N2402 N 0.10776 0.70225 0.18551
 C2403 C 0.07758 0.70692 0.20666
 C2404 C 0.06764 0.71237 0.21143
 C2405 C 0.05645 0.71970 0.21738
 N2406 N 0.04693 0.71323 0.22506
 N2407 N 0.03747 0.72037 0.23176
 C2408 C 0.03722 0.73420 0.23093
 N2409 N 0.04672 0.74059 0.22316
 N2410 N 0.05612 0.73347 0.21646
 N2411 N 0.09615 0.20705 0.69046
 C2412 C 0.08993 0.20107 0.70124
 N2413 N 0.09585 0.19006 0.70716
 N2414 N 0.10760 0.18514 0.70238
 C2415 C 0.11385 0.19111 0.69157
 N2416 N 0.10789 0.20213 0.68568
 C2417 C 0.07767 0.20687 0.70677
 C2418 C 0.06773 0.21232 0.71154
 C2419 C 0.05651 0.21963 0.71747
 N2420 N 0.04699 0.21314 0.72515
 N2421 N 0.03751 0.22027 0.73183
 C2422 C 0.03722 0.23410 0.73099
 N2423 N 0.04673 0.24051 0.72323
 N2424 N 0.05616 0.23340 0.71655
 N2425 N 0.40388 0.68987 0.29282
 C2426 C 0.40992 0.70092 0.29851
 N2427 N 0.40381 0.70715 0.30922
 N2428 N 0.39205 0.70241 0.31415
 C2429 C 0.38598 0.69134 0.30846
 N2430 N 0.39213 0.68514 0.29774
 C2431 C 0.42218 0.70640 0.29268
 C2432 C 0.43213 0.71111 0.28720
 C2433 C 0.44335 0.71694 0.27984
 N2434 N 0.45267 0.72499 0.28615
 N2435 N 0.46214 0.73155 0.27892
 C2436 C 0.46263 0.73023 0.26516
 N2437 N 0.45333 0.72209 0.25893
 N2438 N 0.44391 0.71552 0.26615
 N2439 N 0.40384 0.18984 0.79312
 C2440 C 0.40997 0.20072 0.79902
 N2441 N 0.40396 0.20674 0.80991
 N2442 N 0.39220 0.20196 0.81479
 C2443 C 0.38603 0.19105 0.80889
 N2444 N 0.39208 0.18506 0.79799
 C2445 C 0.42221 0.20630 0.79325
 C2446 C 0.43213 0.21116 0.78784
 C2447 C 0.44331 0.21719 0.78059
 N2448 N 0.45231 0.22556 0.78695
 N2449 N 0.46173 0.23229 0.77980
 C2450 C 0.46247 0.23082 0.76607
 N2451 N 0.45349 0.22237 0.75979
 N2452 N 0.44412 0.21564 0.76692
 N2453 N 0.90404 0.69035 0.79306
 C2454 C 0.90997 0.70131 0.79904
 N2455 N 0.90379 0.70720 0.80990
 N2456 N 0.89207 0.70225 0.81467
 C2457 C 0.88609 0.69129 0.80871
 N2458 N 0.89231 0.68539 0.79784
 C2459 C 0.92221 0.70711 0.79351
 C2460 C 0.93213 0.71255 0.78869
 C2461 C 0.94328 0.71984 0.78265
 N2462 N 0.94331 0.73364 0.78299
 N2463 N 0.95270 0.74067 0.77617
 C2464 C 0.96248 0.73415 0.76886
 N2465 N 0.96253 0.72029 0.76862
 N2466 N 0.95309 0.71325 0.77544
 N2467 N 0.90405 0.20684 0.30981
 C2468 C 0.91006 0.20083 0.29892
 N2469 N 0.90393 0.18995 0.29302
 N2470 N 0.89218 0.18516 0.29790
 C2471 C 0.88614 0.19113 0.30882
 N2472 N 0.89231 0.20204 0.31471
 C2473 C 0.92230 0.20642 0.29314
 C2474 C 0.93221 0.21127 0.28772
 C2475 C 0.94339 0.21731 0.28047
 N2476 N 0.94417 0.21580 0.26679
 N2477 N 0.95354 0.22253 0.25966
 C2478 C 0.96255 0.23095 0.26595
 N2479 N 0.96184 0.23238 0.27969
 N2480 N 0.95241 0.22564 0.28684
 N2481 N 0.29269 0.30968 0.59607
 C2482 C 0.29860 0.29881 0.58992
 N2483 N 0.30944 0.29269 0.59595
 N2484 N 0.31428 0.29738 0.60773
 C2485 C 0.30839 0.30829 0.61391
 N2486 N 0.29752 0.31437 0.60784
 C2487 C 0.29284 0.29335 0.57765
 C2488 C 0.28736 0.28865 0.56772
 C2489 C 0.27997 0.28278 0.55656
 N2490 N 0.28638 0.27508 0.54701
 N2491 N 0.27917 0.26844 0.53760
 C2492 C 0.26533 0.26931 0.53742
 N2493 N 0.25900 0.27711 0.54694
 N2494 N 0.26619 0.28377 0.55630
 N2495 N 0.29288 0.80978 0.09590
 C2496 C 0.29900 0.79899 0.08978
 N2497 N 0.30994 0.79309 0.09585
 N2498 N 0.31467 0.79787 0.10762
 C2499 C 0.30858 0.80869 0.11377
 N2500 N 0.29762 0.81457 0.10768
 C2501 C 0.29348 0.79330 0.07751
 C2502 C 0.28867 0.78795 0.06757
 C2503 C 0.28264 0.78073 0.05638
 N2504 N 0.28381 0.76699 0.05577
 N2505 N 0.27703 0.75992 0.04641
 C2506 C 0.26891 0.76634 0.03723
 N2507 N 0.26784 0.78015 0.03775
 N2508 N 0.27462 0.78724 0.04716
 N2509 N 0.80937 0.29306 0.09583
 C2510 C 0.79853 0.29919 0.08981
 N2511 N 0.79268 0.31011 0.09595
 N2512 N 0.79757 0.31482 0.10768
 C2513 C 0.80843 0.30873 0.11373
 N2514 N 0.81427 0.29778 0.10757
 C2515 C 0.79273 0.29371 0.07756
 C2516 C 0.78730 0.28894 0.06763
 C2517 C 0.78003 0.28296 0.05645
 N2518 N 0.76623 0.28375 0.05614
 N2519 N 0.75918 0.27700 0.04674
 C2520 C 0.76565 0.26932 0.03723
 N2521 N 0.77951 0.26862 0.03747
 N2522 N 0.78658 0.27537 0.04692
 N2523 N 0.79280 0.81006 0.59598
 C2524 C 0.79871 0.79918 0.58984
 N2525 N 0.80957 0.79309 0.59586
 N2526 N 0.81443 0.79781 0.60763
 C2527 C 0.80853 0.80872 0.61379
 N2528 N 0.79765 0.81478 0.60773
 C2529 C 0.79293 0.79369 0.57759
 C2530 C 0.78745 0.78895 0.56768
 C2531 C 0.78007 0.78305 0.55653
 N2532 N 0.78649 0.77536 0.54699
 N2533 N 0.77929 0.76869 0.53758
 C2534 C 0.76544 0.76955 0.53740
 N2535 N 0.75911 0.77735 0.54692
 N2536 N 0.76629 0.78402 0.55627
 N2537 N 0.29269 0.69003 0.40399
 C2538 C 0.29878 0.70082 0.41010
 N2539 N 0.30968 0.70676 0.40401
 N2540 N 0.31441 0.70201 0.39222
 C2541 C 0.30835 0.69120 0.38607
 N2542 N 0.29742 0.68527 0.39218
 C2543 C 0.29325 0.70651 0.42237
 C2544 C 0.28844 0.71190 0.43230
 C2545 C 0.28243 0.71918 0.44346
 N2546 N 0.28363 0.73292 0.44400
 N2547 N 0.27686 0.74005 0.45333
 C2548 C 0.26872 0.73370 0.46254
 N2549 N 0.26761 0.71989 0.46208
 N2550 N 0.27438 0.71274 0.45269
 N2551 N 0.30984 0.20703 0.90398
 C2552 C 0.29896 0.20116 0.91018
 N2553 N 0.29281 0.19033 0.90419
 N2554 N 0.29746 0.18546 0.89240
 C2555 C 0.30837 0.19131 0.88618
 N2556 N 0.31449 0.20216 0.89220
 C2557 C 0.29351 0.20696 0.92244
 C2558 C 0.28874 0.21240 0.93236
 C2559 C 0.28270 0.21968 0.94351
 N2560 N 0.27546 0.21307 0.95327
 N2561 N 0.26859 0.22009 0.96268
 C2562 C 0.26880 0.23395 0.96264
 N2563 N 0.27614 0.24049 0.95290
 N2564 N 0.28301 0.23348 0.94355
 N2565 N 0.80974 0.70675 0.90402
 C2566 C 0.79884 0.70080 0.91011
 N2567 N 0.79276 0.68999 0.90401
 N2568 N 0.79752 0.68521 0.89222
 C2569 C 0.80844 0.69115 0.88610
 N2570 N 0.81449 0.70198 0.89224
 C2571 C 0.79329 0.70650 0.92237
 C2572 C 0.78850 0.71189 0.93231
 C2573 C 0.78254 0.71918 0.94349
 N2574 N 0.77407 0.71288 0.95244
 N2575 N 0.76740 0.72010 0.96184
 C2576 C 0.76903 0.73384 0.96260
 N2577 N 0.77758 0.74006 0.95368
 N2578 N 0.78426 0.73285 0.94433
 N2579 N 0.80958 0.20672 0.40396
 C2580 C 0.79869 0.20077 0.41006
 N2581 N 0.79262 0.18995 0.40398
 N2582 N 0.79736 0.18516 0.39219
 C2583 C 0.80828 0.19110 0.38606
 N2584 N 0.81432 0.20194 0.39218
 C2585 C 0.79316 0.20645 0.42234
 C2586 C 0.78836 0.21182 0.43229
 C2587 C 0.78235 0.21906 0.44349
 N2588 N 0.77428 0.21259 0.45268
 N2589 N 0.76751 0.21971 0.46209
 C2590 C 0.76863 0.23351 0.46262
 N2591 N 0.77681 0.23989 0.45345
 N2592 N 0.78358 0.23279 0.44410
 N2593 N 0.69016 0.29277 0.40398
 C2594 C 0.70097 0.29885 0.41009
 N2595 N 0.70692 0.30973 0.40400
 N2596 N 0.70216 0.31447 0.39222
 C2597 C 0.69132 0.30843 0.38608
 N2598 N 0.68539 0.29751 0.39219
 C2599 C 0.70665 0.29332 0.42236
 C2600 C 0.71201 0.28850 0.43230
 C2601 C 0.71922 0.28247 0.44348
 N2602 N 0.73298 0.28362 0.44408
 N2603 N 0.74005 0.27682 0.45344
 C2604 C 0.73361 0.26871 0.46262
 N2605 N 0.71979 0.26766 0.46211
 N2606 N 0.71271 0.27446 0.45269
 N2607 N 0.70720 0.81019 0.90392
 C2608 C 0.70135 0.79930 0.91008
 N2609 N 0.69053 0.79315 0.90407
 N2610 N 0.68565 0.79782 0.89230
 C2611 C 0.69149 0.80875 0.88611
 N2612 N 0.70233 0.81487 0.89215
 C2613 C 0.70715 0.79385 0.92234
 C2614 C 0.71263 0.78912 0.93227
 C2615 C 0.72000 0.78321 0.94343
 N2616 N 0.71356 0.77552 0.95296
 N2617 N 0.72074 0.76883 0.96238
 C2618 C 0.73459 0.76966 0.96257
 N2619 N 0.74095 0.77745 0.95307
 N2620 N 0.73378 0.78415 0.94371
 N2621 N 0.18974 0.29273 0.90391
 C2622 C 0.20065 0.29857 0.91008
 N2623 N 0.20679 0.30941 0.90408
 N2624 N 0.20210 0.31432 0.89231
 C2625 C 0.19117 0.30849 0.88613
 N2626 N 0.18506 0.29763 0.89216
 C2627 C 0.20610 0.29278 0.92234
 C2628 C 0.21088 0.28736 0.93227
 C2629 C 0.21692 0.28012 0.94344
 N2630 N 0.22417 0.28677 0.95316
 N2631 N 0.23103 0.27979 0.96260
 C2632 C 0.23081 0.26593 0.96263
 N2633 N 0.22346 0.25936 0.95294
 N2634 N 0.21659 0.26632 0.94355
 N2635 N 0.20695 0.80996 0.40392
 C2636 C 0.20098 0.79911 0.41007
 N2637 N 0.19010 0.79308 0.40403
 N2638 N 0.18528 0.79781 0.39226
 C2639 C 0.19124 0.80869 0.38609
 N2640 N 0.20214 0.81469 0.39215
 C2641 C 0.20670 0.79358 0.42233
 C2642 C 0.21208 0.78875 0.43225
 C2643 C 0.21931 0.78271 0.44342
 N2644 N 0.21280 0.77470 0.45264
 N2645 N 0.21989 0.76790 0.46205
 C2646 C 0.23371 0.76893 0.46254
 N2647 N 0.24014 0.77704 0.45335
 N2648 N 0.23307 0.78384 0.44400
 N2649 N 0.69038 0.70694 0.59624
 C2650 C 0.70129 0.70099 0.59017
 N2651 N 0.70735 0.69017 0.59628
 N2652 N 0.70258 0.68539 0.60806
 C2653 C 0.69163 0.69133 0.61416
 N2654 N 0.68561 0.70217 0.60802
 C2655 C 0.70682 0.70666 0.57788
 C2656 C 0.71160 0.71202 0.56791
 C2657 C 0.71751 0.71928 0.55667
 N2658 N 0.72594 0.71294 0.54770
 N2659 N 0.73256 0.72012 0.53823
 C2660 C 0.73092 0.73385 0.53741
 N2661 N 0.72241 0.74011 0.54636
 N2662 N 0.71578 0.73294 0.55577
 N2663 N 0.69050 0.20679 0.09596
 C2664 C 0.70140 0.20078 0.08992
 N2665 N 0.70739 0.18993 0.09606
 N2666 N 0.70256 0.18518 0.10782
 C2667 C 0.69164 0.19116 0.11388
 N2668 N 0.68567 0.20203 0.10772
 C2669 C 0.70709 0.20634 0.07765
 C2670 C 0.71238 0.21125 0.06771
 C2671 C 0.71942 0.21750 0.05651
 N2672 N 0.73322 0.21711 0.05610
 N2673 N 0.74003 0.22413 0.04671
 C2674 C 0.73328 0.23172 0.03731
 N2675 N 0.71942 0.23201 0.03765
 N2676 N 0.71259 0.22499 0.04709
 N2677 N 0.19020 0.70723 0.09590
 C2678 C 0.20101 0.70113 0.08978
 N2679 N 0.20689 0.69017 0.09583
 N2680 N 0.20206 0.68540 0.10758
 C2681 C 0.19123 0.69148 0.11373
 N2682 N 0.18537 0.70246 0.10766
 C2683 C 0.20674 0.70668 0.07753
 C2684 C 0.21212 0.71151 0.06760
 C2685 C 0.21936 0.71755 0.05641
 N2686 N 0.23311 0.71638 0.05580
 N2687 N 0.24019 0.72316 0.04644
 C2688 C 0.23378 0.73128 0.03725
 N2689 N 0.21996 0.73235 0.03778
 N2690 N 0.21286 0.72558 0.04720
 N2691 N 0.19019 0.20659 0.59612
 C2692 C 0.20109 0.20064 0.59002
 N2693 N 0.20716 0.18981 0.59611
 N2694 N 0.20240 0.18501 0.60788
 C2695 C 0.19147 0.19094 0.61401
 N2696 N 0.18544 0.20179 0.60789
 C2697 C 0.20663 0.20635 0.57775
 C2698 C 0.21141 0.21174 0.56781
 C2699 C 0.21733 0.21902 0.55660
 N2700 N 0.22576 0.21270 0.54761
 N2701 N 0.23239 0.21990 0.53817
 C2702 C 0.23077 0.23365 0.53740
 N2703 N 0.22227 0.23988 0.54636
 N2704 N 0.21562 0.23270 0.55575
   
