data_POSCAR
  _audit_creation_date              2014-09-24
  _audit_creation_method            'ToBaCCo'
  _symmetry_space_group_name_H-M    'P1'
  _symmetry_Int_Tables_number       1
  _symmetry_cell_setting            triclinic
  loop_
  _symmetry_equiv_pos_as_xyz
 x,y,z
_cell_length_a 50.2552
_cell_length_b 50.2551
_cell_length_c 50.2278
_cell_angle_alpha 89.988700
_cell_angle_beta 89.989900
_cell_angle_gamma 89.989100
loop_
  _atom_site_label
  _atom_site_type_symbol
  _atom_site_fract_x
  _atom_site_fract_y
  _atom_site_fract_z
C1 C 0.33601 1.37127 0.33626
 C2 C 0.34737 1.38239 0.31328
 C3 C 0.37019 1.37101 0.30148
 C4 C 0.38166 1.34836 0.31347
 C5 C 0.37049 1.33706 0.33643
 C6 C 0.34758 1.34851 0.34786
 C7 C 0.31300 1.38237 0.34757
 C8 C 0.30113 1.37097 0.37035
 C9 C 0.31309 1.34832 0.38185
 C10 C 0.33608 1.33703 0.37075
 C11 C 0.34752 1.31417 0.38199
 C12 C 0.37027 1.30246 0.37060
 C13 C 0.38171 1.31420 0.34789
 H14 H 0.33815 1.39981 0.30450
 H15 H 0.39919 1.33920 0.30485
 H16 H 0.30424 1.39979 0.33832
 H17 H 0.30442 1.33914 0.39935
 H18 H 0.33846 1.30534 0.39947
 H19 H 0.39922 1.30540 0.33887
 C20 C 0.33593 0.87121 0.83701
 C21 C 0.34735 0.88237 0.81408
 C22 C 0.37013 0.87098 0.80240
 C23 C 0.38159 0.84833 0.81423
 C24 C 0.37040 0.83696 0.83714
 C25 C 0.34746 0.84840 0.84857
 C26 C 0.31291 0.88230 0.84829
 C27 C 0.30099 0.87084 0.87101
 C28 C 0.31290 0.84813 0.88247
 C29 C 0.33592 0.83686 0.87139
 C30 C 0.34732 0.81394 0.88257
 C31 C 0.37009 0.80226 0.87118
 C32 C 0.38158 0.81406 0.84852
 H33 H 0.33827 0.89980 0.80518
 H34 H 0.39911 0.83930 0.80546
 H35 H 0.30419 0.89974 0.83906
 H36 H 0.30418 0.83891 0.89993
 H37 H 0.33822 0.80506 0.90000
 H38 H 0.39909 0.80528 0.83950
 C39 C 0.83670 1.37122 0.83612
 C40 C 0.84796 1.38231 0.81308
 C41 C 0.87070 1.37090 0.80118
 C42 C 0.88220 1.34823 0.81313
 C43 C 0.87114 1.33695 0.83616
 C44 C 0.84830 1.34845 0.84769
 C45 C 0.81375 1.38234 0.84753
 C46 C 0.80210 1.37094 0.87033
 C47 C 0.81396 1.34832 0.88183
 C48 C 0.83689 1.33700 0.87064
 C49 C 0.84832 1.31413 0.88185
 C50 C 0.87100 1.30237 0.87037
 C51 C 0.88236 1.31407 0.84758
 H52 H 0.83870 1.39973 0.80434
 H53 H 0.89968 1.33904 0.80443
 H54 H 0.80483 1.39974 0.83843
 H55 H 0.80521 1.33929 0.89936
 H56 H 0.83932 1.30534 0.89937
 H57 H 0.89981 1.30522 0.83850
 C58 C 0.83694 0.87138 0.33614
 C59 C 0.84825 0.88250 0.31315
 C60 C 0.87097 0.87106 0.30124
 C61 C 0.88242 0.84834 0.31315
 C62 C 0.87131 0.83703 0.33615
 C63 C 0.84847 0.84855 0.34767
 C64 C 0.81400 0.88252 0.34752
 C65 C 0.80228 0.87109 0.37026
 C66 C 0.81407 0.84843 0.38174
 C67 C 0.83700 0.83708 0.37058
 C68 C 0.84836 0.81416 0.38176
 C69 C 0.87103 0.80238 0.37029
 C70 C 0.88246 0.81410 0.34755
 H71 H 0.83903 0.89995 0.30444
 H72 H 0.89989 0.83914 0.30444
 H73 H 0.80513 0.89995 0.33843
 H74 H 0.80526 0.83937 0.39923
 H75 H 0.83930 0.80536 0.39925
 H76 H 0.89990 0.80523 0.33847
 C77 C 0.66309 0.62871 0.33615
 C78 C 0.65177 0.61760 0.31316
 C79 C 0.62902 0.62904 0.30129
 C80 C 0.61757 0.65173 0.31323
 C81 C 0.62869 0.66302 0.33622
 C82 C 0.65154 0.65151 0.34771
 C83 C 0.68605 0.61757 0.34751
 C84 C 0.69777 0.62898 0.37025
 C85 C 0.68596 0.65162 0.38175
 C86 C 0.66302 0.66297 0.37061
 C87 C 0.65165 0.68587 0.38181
 C88 C 0.62896 0.69764 0.37038
 C89 C 0.61753 0.68593 0.34764
 H90 H 0.66099 0.60016 0.30442
 H91 H 0.60009 0.66093 0.30455
 H92 H 0.69493 0.60015 0.33840
 H93 H 0.69477 0.66067 0.39924
 H94 H 0.66071 0.69466 0.39930
 H95 H 0.60007 0.69479 0.33858
 C96 C 0.66418 0.12911 0.83666
 C97 C 0.65278 0.11795 0.81371
 C98 C 0.62996 0.12930 0.80207
 C99 C 0.61844 0.15190 0.81393
 C100 C 0.62961 0.16326 0.83684
 C101 C 0.65258 0.15186 0.84825
 C102 C 0.68723 0.11806 0.84792
 C103 C 0.69911 0.12950 0.87066
 C104 C 0.68714 0.15217 0.88215
 C105 C 0.66409 0.16340 0.87108
 C106 C 0.65263 0.18627 0.88230
 C107 C 0.62982 0.19790 0.87094
 C108 C 0.61837 0.18611 0.84827
 H109 H 0.66191 0.10056 0.80479
 H110 H 0.60090 0.16090 0.80519
 H111 H 0.69599 0.10065 0.83867
 H112 H 0.69582 0.16138 0.89962
 H113 H 0.66169 0.19514 0.89974
 H114 H 0.60083 0.19485 0.83926
 C115 C 1.16402 0.62871 0.83683
 C116 C 1.15261 0.61754 0.81391
 C117 C 1.12983 0.62893 0.80223
 C118 C 1.11837 0.65158 0.81403
 C119 C 1.12956 0.66296 0.83692
 C120 C 1.15249 0.65153 0.84837
 C121 C 1.18703 0.61762 0.84811
 C122 C 1.19895 0.62908 0.87082
 C123 C 1.18705 0.65180 0.88227
 C124 C 1.16403 0.66308 0.87118
 C125 C 1.15262 0.68601 0.88234
 C126 C 1.12984 0.69768 0.87094
 C127 C 1.11837 0.68587 0.84829
 H128 H 1.16169 0.60010 0.80503
 H129 H 1.10085 0.66061 0.80526
 H130 H 1.19574 0.60016 0.83890
 H131 H 1.19576 0.66102 0.89972
 H132 H 1.16170 0.69490 0.89976
 H133 H 1.10085 0.69463 0.83925
 C134 C 1.16425 0.12903 0.33590
 C135 C 1.15290 0.11791 0.31291
 C136 C 1.13009 0.12930 0.30109
 C137 C 1.11862 0.15196 0.31307
 C138 C 1.12977 0.16325 0.33604
 C139 C 1.15267 0.15179 0.34749
 C140 C 1.18725 0.11792 0.34724
 C141 C 1.19907 0.12931 0.37004
 C142 C 1.18710 0.15197 0.38152
 C143 C 1.16413 0.16326 0.37038
 C144 C 1.15268 0.18611 0.38162
 C145 C 1.12994 0.19783 0.37023
 C146 C 1.11854 0.18611 0.34749
 H147 H 1.16212 0.10050 0.30414
 H148 H 1.10110 0.16112 0.30444
 H149 H 1.19602 0.10051 0.33801
 H150 H 1.19573 0.16114 0.39904
 H151 H 1.16172 0.19492 0.39911
 H152 H 1.10104 0.19492 0.33846
 C153 C 0.66392 1.37116 0.66323
 C154 C 0.65249 1.38231 0.68616
 C155 C 0.62970 1.37093 0.69782
 C156 C 0.61823 1.34830 0.68598
 C157 C 0.62942 1.33694 0.66307
 C158 C 0.65237 1.34837 0.65165
 C159 C 0.68695 1.38223 0.65197
 C160 C 0.69887 1.37079 0.62924
 C161 C 0.68694 1.34810 0.61776
 C162 C 0.66392 1.33684 0.62883
 C163 C 0.65250 1.31394 0.61763
 C164 C 0.62972 1.30227 0.62900
 C165 C 0.61823 1.31406 0.65166
 H166 H 0.66158 1.39972 0.69508
 H167 H 0.60070 1.33928 0.69473
 H168 H 0.69567 1.39966 0.66120
 H169 H 0.69566 1.33889 0.60029
 H170 H 0.66160 1.30507 0.60019
 H171 H 0.60071 1.30530 0.66068
 C172 C 0.66304 0.87134 1.16385
 C173 C 0.65171 0.88247 1.18683
 C174 C 0.62897 0.87104 1.19872
 C175 C 0.61754 0.84832 1.18681
 C176 C 0.62868 0.83701 1.16383
 C177 C 0.65152 0.84852 1.15232
 C178 C 0.68598 0.88249 1.15248
 C179 C 0.69773 0.87106 1.12975
 C180 C 0.68596 0.84839 1.11828
 C181 C 0.66302 0.83703 1.12943
 C182 C 0.65166 0.81411 1.11826
 C183 C 0.62897 0.80235 1.12971
 C184 C 0.61753 0.81409 1.15244
 H185 H 0.66090 0.89993 1.19554
 H186 H 0.60006 0.83913 1.19550
 H187 H 0.69484 0.89993 1.16156
 H188 H 0.69478 0.83933 1.10080
 H189 H 0.66073 0.80529 1.10078
 H190 H 0.60007 0.80524 1.16151
 C191 C 1.16371 1.37152 1.16283
 C192 C 1.15228 1.38271 1.18573
 C193 C 1.12948 1.37135 1.19739
 C194 C 1.11799 1.34873 1.18557
 C195 C 1.12919 1.33733 1.16268
 C196 C 1.15216 1.34873 1.15127
 C197 C 1.18676 1.38255 1.15160
 C198 C 1.19872 1.37106 1.12893
 C199 C 1.18680 1.34836 1.11745
 C200 C 1.16374 1.33714 1.12849
 C201 C 1.15232 1.31423 1.11732
 C202 C 1.12951 1.30260 1.12870
 C203 C 1.11800 1.31445 1.15131
 H204 H 1.16138 1.40011 1.19464
 H205 H 1.10045 1.33972 1.19433
 H206 H 1.19548 1.39999 1.16083
 H207 H 1.19556 1.33912 1.10003
 H208 H 1.16144 1.30530 1.09993
 H209 H 1.10046 1.30571 1.16033
 C210 C 1.16403 0.87118 0.66310
 C211 C 1.15262 0.88237 0.68602
 C212 C 1.12983 0.87100 0.69769
 C213 C 1.11835 0.84836 0.68589
 C214 C 1.12954 0.83697 0.66299
 C215 C 1.15249 0.84838 0.65156
 C216 C 1.18706 0.88224 0.65183
 C217 C 1.19899 0.87077 0.62913
 C218 C 1.18707 0.84806 0.61767
 C219 C 1.16404 0.83681 0.62875
 C220 C 1.15262 0.81389 0.61759
 C221 C 1.12982 0.80225 0.62899
 C222 C 1.11834 0.81408 0.65163
 H223 H 1.16171 0.89978 0.69490
 H224 H 1.10082 0.83935 0.69466
 H225 H 1.19578 0.89968 0.66105
 H226 H 1.19580 0.83883 0.60023
 H227 H 1.16171 0.80499 0.60017
 H228 H 1.10082 0.80534 0.66066
 C229 C 0.33738 0.62807 0.66251
 C230 C 0.34870 0.61693 0.68548
 C231 C 0.37136 0.62840 0.69728
 C232 C 0.38283 0.65109 0.68553
 C233 C 0.37172 0.66244 0.66256
 C234 C 0.34889 0.65093 0.65101
 C235 C 0.31444 0.61695 0.65115
 C236 C 0.30268 0.62843 0.62846
 C237 C 0.31445 0.65112 0.61700
 C238 C 0.33739 0.66246 0.62815
 C239 C 0.34873 0.68542 0.61704
 C240 C 0.37139 0.69719 0.62854
 C241 C 0.38284 0.68541 0.65123
 H242 H 0.33961 0.59948 0.69432
 H243 H 0.40025 0.66018 0.69441
 H244 H 0.30559 0.59950 0.66023
 H245 H 0.30560 0.66022 0.59956
 H246 H 0.33965 0.69428 0.59959
 H247 H 0.40027 0.69426 0.66034
 C248 C 0.33686 0.12857 1.16382
 C249 C 0.34813 0.11747 1.18684
 C250 C 0.37086 0.12890 1.19874
 C251 C 0.38234 0.15157 1.18680
 C252 C 0.37126 0.16285 1.16378
 C253 C 0.34843 0.15135 1.15226
 C254 C 0.31391 0.11745 1.15243
 C255 C 0.30223 0.12886 1.12966
 C256 C 0.31406 0.15149 1.11817
 C257 C 0.33699 0.16282 1.12933
 C258 C 0.34839 0.18571 1.11814
 C259 C 0.37107 0.19747 1.12961
 C260 C 0.38246 0.18575 1.15237
 H261 H 0.33889 0.10004 1.19558
 H262 H 0.39981 0.16077 1.19550
 H263 H 0.30501 0.10004 1.16154
 H264 H 0.30528 0.16054 1.10066
 H265 H 0.33937 0.19452 1.10063
 H266 H 0.39990 0.19460 1.16146
 C267 C 0.83755 0.62813 1.16242
 C268 C 0.84895 0.61697 1.18533
 C269 C 0.87166 0.62842 1.19706
 C270 C 0.88310 0.65111 1.18527
 C271 C 0.87191 0.66248 1.16236
 C272 C 0.84903 0.65100 1.15089
 C273 C 0.81456 0.61704 1.15114
 C274 C 0.80271 0.62856 1.12851
 C275 C 0.81444 0.65125 1.11703
 C276 C 0.83744 0.66256 1.12809
 C277 C 0.84874 0.68554 1.11697
 C278 C 0.87146 0.69728 1.12840
 C279 C 0.88300 0.68545 1.15102
 H280 H 0.83988 0.59953 1.19420
 H281 H 0.90057 0.66018 1.19409
 H282 H 0.80573 0.59959 1.16024
 H283 H 0.80553 0.66038 1.09963
 H284 H 0.83960 0.69444 1.09957
 H285 H 0.90047 0.69427 1.16008
 C286 C 0.83574 0.12918 0.66418
 C287 C 0.84709 0.11806 0.68718
 C288 C 0.86991 0.12943 0.69898
 C289 C 0.88137 0.15208 0.68699
 C290 C 0.87022 0.16338 0.66402
 C291 C 0.84732 0.15193 0.65258
 C292 C 0.81274 0.11806 0.65285
 C293 C 0.80092 0.12944 0.63003
 C294 C 0.81289 0.15210 0.61855
 C295 C 0.83585 0.16339 0.62968
 C296 C 0.84730 0.18624 0.61842
 C297 C 0.87005 0.19795 0.62981
 C298 C 0.88145 0.18623 0.65255
 H299 H 0.83787 0.10064 0.69597
 H300 H 0.89890 0.16124 0.69560
 H301 H 0.80398 0.10065 0.66209
 H302 H 0.80426 0.16126 0.60102
 H303 H 0.83827 0.19505 0.60092
 H304 H 0.89895 0.19502 0.66157
 C305 C 1.37073 0.33545 0.66447
 C306 C 1.38183 0.34677 0.68750
 C307 C 1.37045 0.36958 0.69931
 C308 C 1.34781 0.38107 0.68731
 C309 C 1.33654 0.36996 0.66432
 C310 C 1.34800 0.34706 0.65287
 C311 C 1.38184 0.31245 0.65312
 C312 C 1.37049 0.30067 0.63028
 C313 C 1.34785 0.31267 0.61879
 C314 C 1.33656 0.33564 0.62994
 C315 C 1.31374 0.34712 0.61867
 C316 C 1.30203 0.36987 0.63006
 C317 C 1.31371 0.38123 0.65284
 H318 H 1.39923 0.33752 0.69628
 H319 H 1.33865 0.39860 0.69594
 H320 H 1.39924 0.30366 0.66236
 H321 H 1.33871 0.30408 0.60124
 H322 H 1.30496 0.33812 0.60114
 H323 H 1.30491 0.39873 0.66187
 C324 C 1.37114 0.83607 1.16308
 C325 C 1.38234 0.84753 1.18597
 C326 C 1.37099 0.87036 1.19758
 C327 C 1.34838 0.88186 1.18574
 C328 C 1.33698 0.87063 1.16288
 C329 C 1.34835 0.84763 1.15150
 C330 C 1.38215 0.81299 1.15187
 C331 C 1.37065 0.80103 1.12920
 C332 C 1.34796 0.81297 1.11772
 C333 C 1.33676 0.83605 1.12874
 C334 C 1.31385 0.84749 1.11756
 C335 C 1.30224 0.87032 1.12890
 C336 C 1.31411 0.88184 1.15149
 H337 H 1.39973 0.83842 1.19490
 H338 H 1.33939 0.89942 1.19445
 H339 H 1.39959 0.80426 1.16111
 H340 H 1.33871 0.80422 1.10030
 H341 H 1.30492 0.83837 1.10017
 H342 H 1.30539 0.89940 1.16048
 C343 C 0.87135 0.33612 1.16307
 C344 C 0.88257 0.34755 1.18595
 C345 C 0.87120 0.37033 1.19764
 C346 C 0.84851 0.38177 1.18588
 C347 C 0.83708 0.37056 1.16302
 C348 C 0.84850 0.34762 1.15158
 C349 C 0.88243 0.31310 1.15180
 C350 C 0.87092 0.30114 1.12914
 C351 C 0.84816 0.31301 1.11772
 C352 C 0.83689 0.33604 1.12881
 C353 C 0.81393 0.34743 1.11770
 C354 C 0.80227 0.37021 1.12911
 C355 C 0.81414 0.38171 1.15171
 H356 H 0.90003 0.33849 1.19480
 H357 H 0.83949 0.39929 1.19466
 H358 H 0.89991 0.30442 1.16099
 H359 H 0.83891 0.30426 1.10031
 H360 H 0.80499 0.33832 1.10031
 H361 H 0.80539 0.39924 1.16075
 C362 C 0.87172 0.83731 0.66268
 C363 C 0.88284 0.84867 0.68564
 C364 C 0.87137 0.87136 0.69738
 C365 C 0.84870 0.88283 0.68559
 C366 C 0.83737 0.87169 0.66263
 C367 C 0.84889 0.84883 0.65114
 C368 C 0.88285 0.81434 0.65136
 C369 C 0.87139 0.80257 0.62867
 C370 C 0.84872 0.81434 0.61717
 C371 C 0.83738 0.83730 0.62828
 C372 C 0.81444 0.84864 0.61713
 C373 C 0.80267 0.87133 0.62858
 C374 C 0.81442 0.88281 0.65126
 H375 H 0.90027 0.83958 0.69451
 H376 H 0.83961 0.90028 0.69442
 H377 H 0.90028 0.80549 0.66046
 H378 H 0.83964 0.80549 0.59973
 H379 H 0.80560 0.83955 0.59968
 H380 H 0.80557 0.90027 0.66033
 C381 C 0.62831 0.66279 0.66272
 C382 C 0.61717 0.65146 0.68568
 C383 C 0.62863 0.62878 0.69747
 C384 C 0.65132 0.61730 0.68571
 C385 C 0.66267 0.62842 0.66274
 C386 C 0.65116 0.65127 0.65120
 C387 C 0.61719 0.68575 0.65137
 C388 C 0.62866 0.69751 0.62867
 C389 C 0.65134 0.68574 0.61720
 C390 C 0.66268 0.66278 0.62834
 C391 C 0.68563 0.65143 0.61721
 C392 C 0.69739 0.62875 0.62869
 C393 C 0.68562 0.61729 0.65139
 H394 H 0.59972 0.66056 0.69453
 H395 H 0.66039 0.59986 0.69457
 H396 H 0.59974 0.69460 0.66045
 H397 H 0.66043 0.69458 0.59975
 H398 H 0.69448 0.66052 0.59976
 H399 H 0.69447 0.59985 0.66049
 C400 C 0.62863 1.16393 1.16301
 C401 C 0.61741 1.15246 1.18587
 C402 C 0.62879 1.12969 1.19755
 C403 C 0.65148 1.11826 1.18579
 C404 C 0.66292 1.12950 1.16293
 C405 C 0.65149 1.15245 1.15150
 C406 C 0.61756 1.18696 1.15176
 C407 C 0.62906 1.19895 1.12912
 C408 C 0.65183 1.18710 1.11768
 C409 C 0.66310 1.16406 1.12875
 C410 C 0.68607 1.15271 1.11762
 C411 C 0.69774 1.12992 1.12900
 C412 C 0.68587 1.11837 1.15160
 H413 H 0.59994 1.16152 1.19473
 H414 H 0.66051 1.10074 1.19456
 H415 H 0.60007 1.19562 1.16096
 H416 H 0.66108 1.19589 1.10028
 H417 H 0.69501 1.16185 1.10024
 H418 H 0.69463 1.10085 1.16062
 C419 C 0.12900 0.66422 1.16420
 C420 C 0.11788 0.65287 1.18719
 C421 C 0.12923 0.63002 1.19897
 C422 C 0.15184 0.61852 1.18695
 C423 C 0.16314 0.62967 1.16399
 C424 C 0.15173 0.65261 1.15257
 C425 C 0.11793 0.68726 1.15290
 C426 C 0.12932 0.69910 1.13010
 C427 C 0.15196 0.68710 1.11858
 C428 C 0.16321 0.66408 1.12968
 C429 C 0.18605 0.65259 1.11842
 C430 C 0.19770 0.62980 1.12980
 C431 C 0.18596 0.61840 1.15252
 H432 H 0.10049 0.66212 1.19600
 H433 H 0.16098 0.60096 1.19554
 H434 H 0.10053 0.69604 1.16216
 H435 H 0.16113 0.69575 1.10107
 H436 H 0.19489 0.66163 1.10093
 H437 H 0.19471 0.60086 1.16153
 C438 C 0.12843 1.16292 0.66357
 C439 C 0.11739 1.15165 0.68662
 C440 C 0.12884 1.12891 0.69850
 C441 C 0.15149 1.11741 0.68651
 C442 C 0.16272 1.12849 0.66346
 C443 C 0.15119 1.15133 0.65196
 C444 C 0.11730 1.18588 0.65219
 C445 C 0.12868 1.19755 0.62939
 C446 C 0.15127 1.18569 0.61785
 C447 C 0.16261 1.16275 0.62900
 C448 C 0.18547 1.15135 0.61776
 C449 C 0.19725 1.12868 0.62922
 C450 C 0.18559 1.11729 0.65201
 H451 H 0.09998 1.16089 0.69540
 H452 H 0.16070 1.09994 0.69519
 H453 H 0.09992 1.19481 0.66133
 H454 H 0.16029 1.19445 0.60032
 H455 H 0.19423 1.16038 0.60024
 H456 H 0.19447 1.09985 0.66108
 C457 C 1.37109 0.66415 0.33601
 C458 C 1.38221 0.65277 0.31303
 C459 C 1.37085 0.62992 0.30127
 C460 C 1.34823 0.61845 0.31330
 C461 C 1.33693 0.62963 0.33624
 C462 C 1.34835 0.65257 0.34764
 C463 C 1.38216 0.68719 0.34729
 C464 C 1.37076 0.69905 0.37007
 C465 C 1.34812 0.68708 0.38158
 C466 C 1.33686 0.66407 0.37051
 C467 C 1.31401 0.65262 0.38177
 C468 C 1.30234 0.62984 0.37042
 C469 C 1.31409 0.61840 0.34772
 H470 H 1.39961 0.66200 0.30422
 H471 H 1.33908 0.60090 0.30472
 H472 H 1.39956 0.69596 0.33803
 H473 H 1.33893 0.69575 0.39909
 H474 H 1.30518 0.66168 0.39924
 H475 H 1.30532 0.60087 0.33872
 C476 C 1.37129 1.16388 0.83687
 C477 C 1.38243 1.15251 0.81390
 C478 C 1.37105 1.12973 0.80223
 C479 C 1.34844 1.11822 0.81408
 C480 C 1.33710 1.12937 0.83702
 C481 C 1.34853 1.15230 0.84846
 C482 C 1.38236 1.18690 0.84816
 C483 C 1.37093 1.19877 0.87092
 C484 C 1.34826 1.18681 0.88241
 C485 C 1.33701 1.16380 0.87131
 C486 C 1.31412 1.15235 0.88252
 C487 C 1.30246 1.12958 0.87112
 C488 C 1.31424 1.11815 0.84844
 H489 H 1.39983 1.16162 0.80498
 H490 H 1.33942 1.10071 0.80532
 H491 H 1.39978 1.19566 0.83891
 H492 H 1.33906 1.19549 0.89989
 H493 H 1.30526 1.16141 0.89998
 H494 H 1.30548 1.10064 0.83940
 C495 C 0.87125 0.66310 0.83705
 C496 C 0.88240 0.65172 0.81411
 C497 C 0.87095 0.62902 0.80237
 C498 C 0.84826 0.61758 0.81414
 C499 C 0.83689 0.62873 0.83708
 C500 C 0.84839 0.65160 0.84858
 C501 C 0.88237 0.68606 0.84838
 C502 C 0.87089 0.69784 0.87106
 C503 C 0.84819 0.68610 0.88253
 C504 C 0.83686 0.66313 0.87142
 C505 C 0.81390 0.65180 0.88255
 C506 C 0.80216 0.62909 0.87111
 C507 C 0.81394 0.61761 0.84843
 H508 H 0.89985 0.66079 0.80526
 H509 H 0.83919 0.60012 0.80531
 H510 H 0.89982 0.69489 0.83930
 H511 H 0.83910 0.69496 0.89997
 H512 H 0.80504 0.66090 0.90000
 H513 H 0.80511 0.60015 0.83937
 C514 C 0.87157 1.16296 0.33650
 C515 C 0.88271 1.15167 0.31351
 C516 C 0.87128 1.12897 0.30158
 C517 C 0.84855 1.11752 0.31346
 C518 C 0.83722 1.12862 0.33645
 C519 C 0.84874 1.15143 0.34800
 C520 C 0.88271 1.18589 0.34790
 C521 C 0.87125 1.19760 0.37063
 C522 C 0.84858 1.18582 0.38208
 C523 C 0.83723 1.16290 0.37090
 C524 C 0.81430 1.15154 0.38203
 C525 C 0.80253 1.12888 0.37054
 C526 C 0.81428 1.11747 0.34781
 H527 H 0.90018 1.16088 0.30481
 H528 H 0.83935 1.10007 0.30474
 H529 H 0.90015 1.19476 0.33883
 H530 H 0.83950 1.19462 0.39956
 H531 H 0.80546 1.16059 0.39951
 H532 H 0.80542 1.10004 0.33870
 C533 C 0.62852 0.33711 0.33662
 C534 C 0.61738 0.34843 0.31365
 C535 C 0.62882 0.37115 0.30174
 C536 C 0.65154 0.38259 0.31363
 C537 C 0.66286 0.37146 0.33661
 C538 C 0.65135 0.34862 0.34813
 C539 C 0.61739 0.31416 0.34800
 C540 C 0.62884 0.30241 0.37072
 C541 C 0.65152 0.31419 0.38217
 C542 C 0.66285 0.33712 0.37101
 C543 C 0.68579 0.34847 0.38216
 C544 C 0.69756 0.37115 0.37068
 C545 C 0.68581 0.38259 0.34797
 H546 H 0.59992 0.33923 0.30495
 H547 H 0.66074 0.40005 0.30492
 H548 H 0.59994 0.30530 0.33893
 H549 H 0.66059 0.30536 0.39964
 H550 H 0.69462 0.33940 0.39963
 H551 H 0.69466 0.40003 0.33888
 C552 C 0.62832 0.83736 0.83729
 C553 C 0.61719 0.84871 0.81433
 C554 C 0.62865 0.87140 0.80257
 C555 C 0.65132 0.88286 0.81434
 C556 C 0.66267 0.87172 0.83730
 C557 C 0.65116 0.84887 0.84881
 C558 C 0.61719 0.81440 0.84863
 C559 C 0.62866 0.80262 0.87132
 C560 C 0.65134 0.81438 0.88279
 C561 C 0.66269 0.83734 0.87167
 C562 C 0.68564 0.84868 0.88279
 C563 C 0.69739 0.87138 0.87133
 C564 C 0.68561 0.88285 0.84864
 H565 H 0.59975 0.83963 0.80548
 H566 H 0.66040 0.90031 0.80549
 H567 H 0.59975 0.80557 0.83954
 H568 H 0.66043 0.80552 0.90024
 H569 H 0.69450 0.83960 0.90024
 H570 H 0.69445 0.90030 0.83955
 C571 C 0.12879 0.33587 0.83688
 C572 C 0.11765 0.34730 0.81394
 C573 C 0.12903 0.37009 0.80229
 C574 C 0.15165 0.38157 0.81414
 C575 C 0.16301 0.37037 0.83705
 C576 C 0.15157 0.34742 0.84846
 C577 C 0.11772 0.31284 0.84812
 C578 C 0.12916 0.30091 0.87085
 C579 C 0.15184 0.31283 0.88234
 C580 C 0.16310 0.33586 0.87128
 C581 C 0.18599 0.34727 0.88249
 C582 C 0.19766 0.37006 0.87113
 C583 C 0.18588 0.38156 0.84847
 H584 H 0.10024 0.33821 0.80503
 H585 H 0.16068 0.39910 0.80539
 H586 H 0.10029 0.30412 0.83887
 H587 H 0.16104 0.30410 0.89980
 H588 H 0.19486 0.33818 0.89993
 H589 H 0.19464 0.39908 0.83946
 C590 C 0.12888 0.83605 0.33613
 C591 C 0.11773 0.84741 0.31315
 C592 C 0.12908 0.87023 0.30133
 C593 C 0.15174 0.88171 0.31329
 C594 C 0.16307 0.87055 0.33625
 C595 C 0.15164 0.84763 0.34770
 C596 C 0.11781 0.81304 0.34745
 C597 C 0.12923 0.80119 0.37022
 C598 C 0.15189 0.81315 0.38169
 C599 C 0.16315 0.83615 0.37057
 C600 C 0.18601 0.84759 0.38178
 C601 C 0.19769 0.87036 0.37039
 C602 C 0.18593 0.88178 0.34767
 H603 H 0.10032 0.83818 0.30439
 H604 H 0.16088 0.89924 0.30466
 H605 H 0.10039 0.80428 0.33822
 H606 H 0.16108 0.80449 0.39919
 H607 H 0.19485 0.83854 0.39926
 H608 H 0.19470 0.89929 0.33865
 O609 O 0.97426 0.90417 0.86760
 O610 O 0.97417 0.87324 0.83646
 C611 C 0.96514 0.89489 0.84592
 C612 C 0.94336 0.90909 0.83199
 C613 C 0.93414 0.90014 0.80715
 H614 H 0.94369 0.88324 0.79780
 O615 O 1.02601 1.09594 0.86715
 O616 O 1.02609 1.12693 0.83605
 C617 C 1.03514 1.10528 0.84550
 C618 C 1.05701 1.09117 0.83161
 C619 C 1.06633 1.10021 0.80684
 H620 H 1.05678 1.11711 0.79748
 O621 O 0.86749 0.97447 0.90395
 O622 O 0.83638 0.97435 0.87300
 C623 C 0.84582 0.96535 0.89467
 C624 C 0.83188 0.94360 0.90890
 C625 C 0.80706 0.93435 0.89996
 H626 H 0.79771 0.94385 0.88302
 O627 O 1.13270 1.02599 0.90402
 O628 O 1.16386 1.02598 0.87310
 C629 C 1.15440 1.03505 0.89474
 C630 C 1.16832 1.05681 0.90894
 C631 C 1.19312 1.06612 0.89997
 H632 H 1.20247 1.05666 0.88302
 O633 O 0.90395 0.86791 0.97413
 O634 O 0.87298 0.83682 0.97411
 C635 C 0.89462 0.84625 0.96503
 C636 C 0.90877 0.83229 0.94323
 C637 C 0.89976 0.80750 0.93398
 H638 H 0.88280 0.79820 0.94349
 O639 O 1.09606 1.13241 0.97399
 O640 O 1.12704 1.16348 0.97399
 C641 C 1.10542 1.15404 0.96486
 C642 C 1.09136 1.16795 0.94295
 C643 C 1.10046 1.19268 0.93359
 H644 H 1.11741 1.20199 0.94311
 O645 O 0.90388 1.02632 0.86731
 O646 O 0.87290 1.02624 0.83622
 C647 C 0.89452 1.03536 0.84562
 C648 C 0.90860 1.05717 0.83162
 C649 C 0.89937 1.06658 0.80695
 H650 H 0.88234 1.05713 0.79775
 O651 O 1.09621 0.97417 0.86754
 O652 O 1.12721 0.97410 0.83646
 C653 C 1.10555 0.96506 0.84588
 C654 C 1.09141 0.94328 0.83193
 C655 C 1.10046 0.93401 0.80715
 H656 H 1.11740 0.94354 0.79784
 O657 O 1.02611 0.86749 0.90395
 O658 O 1.02608 0.83641 0.87296
 C659 C 1.03516 0.84580 0.89462
 C660 C 1.05692 0.83181 0.90879
 C661 C 1.06628 0.80705 0.89975
 H662 H 1.05686 0.79776 0.88274
 O663 O 0.97417 1.13245 0.90366
 O664 O 0.97421 1.16360 0.87273
 C665 C 0.96513 1.15416 0.89438
 C666 C 0.94340 1.16815 0.90859
 C667 C 0.93414 1.19293 0.89956
 H668 H 0.94362 1.20222 0.88257
 O669 O 0.86757 1.09645 0.97398
 O670 O 0.83654 1.12748 0.97397
 C671 C 0.84593 1.10583 0.96486
 C672 C 0.83198 1.09175 0.94301
 C673 C 0.80728 1.10088 0.93360
 H674 H 0.79799 1.11788 0.94305
 O675 O 1.13242 0.90372 0.97415
 O676 O 1.16355 0.87280 0.97414
 C677 C 1.15409 0.89442 0.96503
 C678 C 1.16803 0.90856 0.94320
 C679 C 1.19276 0.89946 0.93383
 H680 H 1.20204 0.88246 0.94329
 O681 O 0.97405 1.09620 0.86700
 O682 O 0.97407 1.12719 0.83592
 C683 C 0.96493 1.10558 0.84535
 C684 C 0.94302 1.09153 0.83147
 C685 C 0.93350 1.10068 0.80679
 H686 H 0.94292 1.11767 0.79746
 O687 O 1.02618 0.90403 0.86755
 O688 O 1.02615 0.87310 0.83640
 C689 C 1.03526 0.89472 0.84586
 C690 C 1.05706 0.90886 0.83192
 C691 C 1.06639 0.89986 0.80713
 H692 H 1.05692 0.88290 0.79779
 O693 O 1.13260 0.97406 0.90402
 O694 O 1.16376 0.97400 0.87309
 C695 C 1.15426 0.96491 0.89471
 C696 C 1.16811 0.94302 0.90884
 C697 C 1.19284 0.93364 0.89977
 H698 H 1.20218 0.94314 0.88281
 O699 O 0.86753 1.02639 0.90387
 O700 O 0.83642 1.02633 0.87292
 C701 C 0.84587 1.03547 0.89453
 C702 C 0.83196 1.05734 0.90862
 C703 C 0.80726 1.06674 0.89950
 H704 H 0.79796 1.05726 0.88252
 O705 O 0.90422 1.13270 0.97404
 O706 O 0.87333 1.16387 0.97402
 C707 C 0.89495 1.15438 0.96493
 C708 C 0.90910 1.16827 0.94310
 C709 C 0.90012 1.19306 0.93378
 H710 H 0.88321 1.20243 0.94331
 O711 O 1.09591 0.86734 0.97425
 O712 O 1.12690 0.83627 0.97424
 C713 C 1.10526 0.84569 0.96516
 C714 C 1.09117 0.83176 0.94333
 C715 C 1.10025 0.80701 0.93403
 H716 H 1.11717 0.79770 0.94359
 O717 O 1.09635 1.02608 0.86744
 O718 O 1.12735 1.02606 0.83637
 C719 C 1.10570 1.03515 0.84576
 C720 C 1.09154 1.05692 0.83175
 C721 C 1.10060 1.06624 0.80697
 H722 H 1.11762 1.05681 0.79769
 O723 O 0.90404 0.97439 0.86757
 O724 O 0.87308 0.97427 0.83646
 C725 C 0.89474 0.96525 0.84592
 C726 C 0.90894 0.94346 0.83199
 C727 C 0.90000 0.93423 0.80716
 H728 H 0.88308 0.94375 0.79780
 O729 O 1.02608 1.13240 0.90357
 O730 O 1.02617 1.16354 0.87264
 C731 C 1.03523 1.15406 0.89427
 C732 C 1.05705 1.16795 0.90845
 C733 C 1.06644 1.19268 0.89938
 H734 H 1.05700 1.20199 0.88238
 O735 O 0.97420 0.86771 0.90404
 O736 O 0.97410 0.83663 0.87306
 C737 C 0.96505 0.84608 0.89471
 C738 C 0.94321 0.83220 0.90887
 C739 C 0.93392 0.80741 0.89989
 H740 H 0.94344 0.79805 0.88297
 O741 O 1.13254 1.09600 0.97418
 O742 O 1.16366 1.12693 0.97421
 C743 C 1.15424 1.10529 0.96514
 C744 C 1.16824 1.09114 0.94338
 C745 C 1.19303 1.10018 0.93415
 H746 H 1.20232 1.11712 0.94370
 O747 O 0.86753 0.90439 0.97421
 O748 O 0.83642 0.87345 0.97420
 C749 C 0.84585 0.89509 0.96513
 C750 C 0.83190 0.90925 0.94335
 C751 C 0.80708 0.90028 0.93414
 H752 H 0.79774 0.88337 0.94370
 Cu753 Cu 1.00021 0.88894 0.88889
 Cu754 Cu 1.00011 0.85173 0.85160
 Cu755 Cu 1.00006 1.11113 0.88843
 Cu756 Cu 1.00014 1.14843 0.85122
 Cu757 Cu 0.88884 1.00040 0.88878
 Cu758 Cu 0.85158 1.00028 0.85153
 Cu759 Cu 1.11136 1.00009 0.88885
 Cu760 Cu 1.14867 1.00004 0.85165
 C761 C 0.93079 0.93091 0.84411
 H762 H 0.93754 0.93768 0.86344
 C763 C 0.91245 0.91256 0.79455
 C764 C 1.06958 1.06937 0.84376
 H765 H 1.06273 1.06254 0.86303
 C766 C 1.08814 1.08791 0.79433
 C767 C 0.84399 0.93108 0.93076
 H768 H 0.86331 0.93786 0.93751
 C769 C 0.79447 0.91267 0.91243
 C770 C 1.15619 1.06929 0.93081
 H771 H 1.13690 1.06247 0.93759
 C772 C 1.20565 1.08783 0.91243
 C773 C 0.93066 0.84434 0.93070
 H774 H 0.93748 0.86362 0.93749
 C775 C 0.91218 0.79488 0.91228
 C776 C 1.06950 1.15588 0.93039
 H777 H 1.06261 1.13664 0.93725
 C778 C 1.08816 1.20523 0.91179
 C779 C 0.93058 1.06961 0.84356
 H780 H 0.93755 1.06270 0.86276
 C781 C 0.91165 1.08836 0.79435
 C782 C 1.06955 0.93074 0.84401
 H783 H 1.06272 0.93755 0.86330
 C784 C 1.08811 0.91228 0.79457
 C785 C 1.06934 0.84385 0.93075
 H786 H 1.06249 0.86311 0.93758
 C787 C 1.08797 0.79447 0.91223
 C788 C 0.93091 1.15612 0.93053
 H789 H 0.93770 1.13683 0.93735
 C790 C 0.91248 1.20557 0.91200
 C791 C 0.84401 1.06982 0.93054
 H792 H 0.86323 1.06291 0.93743
 C793 C 0.79473 1.08853 0.91182
 C794 C 1.15601 0.93050 0.93072
 H795 H 1.13676 0.93738 0.93758
 C796 C 1.20535 0.91184 0.91209
 O797 O 1.02604 0.90389 1.13293
 O798 O 1.02591 0.87291 1.16403
 C799 C 1.03506 0.89453 1.15462
 C800 C 1.05687 0.90861 1.16861
 C801 C 1.06623 0.89944 1.19331
 H802 H 1.05676 0.88244 1.20257
 O803 O 0.97424 1.09621 1.13293
 O804 O 0.97422 1.12719 1.16401
 C805 C 0.96515 1.10555 1.15459
 C806 C 0.94334 1.09141 1.16853
 C807 C 0.93402 1.10044 1.19331
 H808 H 0.94353 1.11737 1.20265
 O809 O 0.86764 1.02631 1.09630
 O810 O 0.83651 1.02637 1.12725
 C811 C 0.84597 1.03543 1.10560
 C812 C 0.83206 1.05723 1.09140
 C813 C 0.80728 1.06658 1.10039
 H814 H 0.79793 1.05714 1.11737
 O815 O 1.13232 0.97392 1.09647
 O816 O 1.16352 0.97388 1.12734
 C817 C 1.15402 0.96482 1.10571
 C818 C 1.16794 0.94306 1.09147
 C819 C 1.19276 0.93376 1.10039
 H820 H 1.20212 0.94321 1.11736
 O821 O 1.09609 0.86723 1.02623
 O822 O 1.12710 0.83618 1.02626
 C823 C 1.10547 0.84560 1.03538
 C824 C 1.09141 0.83172 1.05730
 C825 C 1.10056 0.80705 1.06679
 H826 H 1.11755 0.79774 1.05735
 O827 O 0.90412 1.13271 1.02602
 O828 O 0.87322 1.16387 1.02604
 C829 C 0.89482 1.15438 1.03515
 C830 C 0.90891 1.16825 1.05704
 C831 C 0.89981 1.19298 1.06640
 H832 H 0.88287 1.20230 1.05688
 O833 O 0.90401 0.97429 1.13274
 O834 O 0.87304 0.97429 1.16385
 C835 C 0.89467 0.96517 1.15440
 C836 C 0.90876 0.94330 1.16831
 C837 C 0.89967 0.93394 1.19306
 H838 H 0.88272 0.94344 1.20238
 O839 O 1.09599 1.02589 1.13301
 O840 O 1.12703 1.02589 1.16404
 C841 C 1.10540 1.03501 1.15463
 C842 C 1.09139 1.05694 1.16854
 C843 C 1.10061 1.06635 1.19320
 H844 H 1.11758 1.05683 1.20248
 O845 O 0.97421 0.86761 1.09623
 O846 O 0.97404 0.83646 1.12717
 C847 C 0.96506 0.84594 1.10550
 C848 C 0.94332 0.83205 1.09124
 C849 C 0.93413 0.80717 1.10008
 H850 H 0.94367 0.79775 1.11696
 O851 O 1.02607 1.13265 1.09635
 O852 O 1.02611 1.16381 1.12726
 C853 C 1.03515 1.15434 1.10560
 C854 C 1.05688 1.16827 1.09134
 C855 C 1.06618 1.19309 1.10024
 H856 H 1.05674 1.20245 1.11721
 O857 O 0.86752 0.90429 1.02616
 O858 O 0.83643 0.87334 1.02619
 C859 C 0.84587 0.89497 1.03528
 C860 C 0.83194 0.90910 1.05711
 C861 C 0.80718 0.90007 1.06644
 H862 H 0.79786 0.88311 1.05696
 O863 O 1.13234 1.09601 1.02613
 O864 O 1.16347 1.12694 1.02618
 C865 C 1.15400 1.10531 1.03527
 C866 C 1.16790 1.09115 1.05711
 C867 C 1.19269 1.10014 1.06641
 H868 H 1.20203 1.11708 1.05692
 O869 O 1.02618 1.09630 1.13294
 O870 O 1.02623 1.12729 1.16401
 C871 C 1.03531 1.10565 1.15459
 C872 C 1.05716 1.09151 1.16852
 C873 C 1.06667 1.10065 1.19319
 H874 H 1.05732 1.11771 1.20246
 O875 O 0.97411 0.90400 1.13274
 O876 O 0.97394 0.87301 1.16383
 C877 C 0.96493 0.89468 1.15438
 C878 C 0.94310 0.90884 1.16829
 C879 C 0.93373 0.89977 1.19304
 H880 H 0.94319 0.88279 1.20234
 O881 O 1.13229 1.02584 1.09642
 O882 O 1.16348 1.02584 1.12730
 C883 C 1.15398 1.03492 1.10568
 C884 C 1.16789 1.05673 1.09150
 C885 C 1.19267 1.06599 1.10051
 H886 H 1.20200 1.05646 1.11744
 O887 O 0.86755 0.97438 1.09632
 O888 O 0.83643 0.97439 1.12727
 C889 C 0.84587 0.96530 1.10563
 C890 C 0.83194 0.94351 1.09149
 C891 C 0.80718 0.93420 1.10055
 H892 H 0.79786 0.94370 1.11751
 O893 O 1.09596 1.13254 1.02597
 O894 O 1.12694 1.16361 1.02599
 C895 C 1.10528 1.15420 1.03504
 C896 C 1.09115 1.16819 1.05681
 C897 C 1.10016 1.19300 1.06598
 H898 H 1.11706 1.20231 1.05638
 O899 O 0.90402 0.86788 1.02607
 O900 O 0.87307 0.83678 1.02608
 C901 C 0.89473 0.84619 1.03513
 C902 C 0.90892 0.83218 1.05685
 C903 C 0.90001 0.80730 1.06597
 H904 H 0.88311 0.79798 1.05639
 O905 O 1.09600 0.97393 1.13309
 O906 O 1.12704 0.97388 1.16412
 C907 C 1.10538 0.96481 1.15474
 C908 C 1.09128 0.94297 1.16867
 C909 C 1.10038 0.93352 1.19338
 H910 H 1.11737 0.94294 1.20269
 O911 O 0.90404 1.02623 1.13283
 O912 O 0.87307 1.02627 1.16393
 C913 C 0.89473 1.03532 1.15451
 C914 C 0.90890 1.05708 1.16848
 C915 C 0.89986 1.06637 1.19326
 H916 H 0.88289 1.05690 1.20257
 O917 O 0.97415 1.13263 1.09644
 O918 O 0.97413 1.16377 1.12736
 C919 C 0.96504 1.15430 1.10573
 C920 C 0.94321 1.16822 1.09156
 C921 C 0.93381 1.19295 1.10063
 H922 H 0.94324 1.20224 1.11764
 O923 O 1.02614 0.86745 1.09646
 O924 O 1.02601 0.83633 1.12742
 C925 C 1.03518 0.84577 1.10581
 C926 C 1.05704 0.83181 1.09174
 C927 C 1.06646 0.80715 1.10095
 H928 H 1.05701 0.79791 1.11799
 O929 O 1.13229 0.90391 1.02610
 O930 O 1.16344 0.87300 1.02612
 C931 C 1.15397 0.89463 1.03518
 C932 C 1.16791 0.90878 1.05697
 C933 C 1.19271 0.89977 1.06616
 H934 H 1.20204 0.88287 1.05657
 O935 O 0.86769 1.09627 1.02595
 O936 O 0.83664 1.12729 1.02597
 C937 C 0.84605 1.10563 1.03505
 C938 C 0.83210 1.09153 1.05689
 C939 C 0.80733 1.10059 1.06614
 H940 H 0.79802 1.11751 1.05657
 Cu941 Cu 1.00015 0.88884 1.11149
 Cu942 Cu 0.99995 0.85156 1.14873
 Cu943 Cu 1.00017 1.11134 1.11158
 Cu944 Cu 1.00018 1.14863 1.14877
 Cu945 Cu 0.88885 0.88922 1.00015
 Cu946 Cu 0.85161 0.85198 1.00015
 Cu947 Cu 1.11106 0.88864 1.00018
 Cu948 Cu 1.14837 0.85145 1.00019
 Cu949 Cu 0.88899 1.11143 0.99999
 Cu950 Cu 0.85183 1.14875 1.00000
 Cu951 Cu 1.11112 1.11114 1.00007
 Cu952 Cu 1.14839 1.14836 1.00010
 Cu953 Cu 0.88891 1.00031 1.11145
 Cu954 Cu 0.85165 1.00034 1.14870
 Cu955 Cu 1.11103 0.99988 1.11167
 Cu956 Cu 1.14839 0.99986 1.14881
 C957 C 1.06936 0.93053 1.15660
 H958 H 1.06248 0.93746 1.13737
 C959 C 1.08801 0.91173 1.20589
 C960 C 0.93080 1.06957 1.15642
 H961 H 0.93763 1.06275 1.13714
 C962 C 0.91227 1.08807 1.20586
 C963 C 0.84416 1.06968 1.06949
 H964 H 0.86344 1.06284 1.06269
 C965 C 0.79473 1.08828 1.08791
 C966 C 1.15582 0.93059 1.06958
 H967 H 1.13651 0.93740 1.06283
 C968 C 1.20533 0.91209 1.08789
 C969 C 1.06949 0.84379 1.06976
 H970 H 1.06257 0.86298 1.06280
 C971 C 1.08824 0.79457 1.08864
 C972 C 0.93077 1.15617 1.06960
 H973 H 0.93765 1.13693 1.06274
 C974 C 0.91209 1.20551 1.08821
 C975 C 0.93064 0.93077 1.15623
 H976 H 0.93752 0.93763 1.13697
 C977 C 0.91200 0.91216 1.20561
 C978 C 1.06950 1.06949 1.15651
 H979 H 1.06254 1.06257 1.13731
 C980 C 1.08842 1.08823 1.20572
 C981 C 0.93075 0.84425 1.06946
 H982 H 0.93748 0.86361 1.06278
 C983 C 0.91246 0.79461 1.08759
 C984 C 1.06934 1.15613 1.06945
 H985 H 1.06253 1.13682 1.06272
 C986 C 1.08785 1.20564 1.08771
 C987 C 0.84401 0.93098 1.06961
 H988 H 0.86328 0.93781 1.06276
 C989 C 0.79461 0.91246 1.08818
 C990 C 1.15580 1.06928 1.06963
 H991 H 1.13651 1.06248 1.06282
 C992 C 1.20526 1.08771 1.08813
 O993 O 0.97438 0.40388 0.36750
 O994 O 0.97438 0.37294 0.33637
 C995 C 0.96530 0.39457 0.34582
 C996 C 0.94352 0.40870 0.33186
 C997 C 0.93428 0.39967 0.30707
 H998 H 0.94381 0.38273 0.29776
 O999 O 1.02634 0.59625 0.36740
 O1000 O 1.02625 0.62717 0.33624
 C1001 C 1.03539 0.60558 0.34571
 C1002 C 1.05724 0.59151 0.33176
 C1003 C 1.06658 0.60067 0.30705
 H1004 H 1.05707 0.61765 0.29779
 O1005 O 0.86770 0.47397 0.40385
 O1006 O 0.83667 0.47397 0.37281
 C1007 C 0.84604 0.46491 0.39449
 C1008 C 0.83203 0.44316 0.40865
 C1009 C 0.80723 0.43395 0.39963
 H1010 H 0.79794 0.44348 0.38267
 O1011 O 1.13282 0.52608 0.40382
 O1012 O 1.16392 0.52609 0.37284
 C1013 C 1.15448 0.53516 0.39449
 C1014 C 1.16840 0.55696 0.40863
 C1015 C 1.19316 0.56630 0.39961
 H1016 H 1.20251 0.55680 0.38267
 O1017 O 0.90394 0.36752 0.47403
 O1018 O 0.87301 0.33639 0.47391
 C1019 C 0.89467 0.34586 0.46489
 C1020 C 0.90890 0.33194 0.44311
 C1021 C 0.89994 0.30715 0.43381
 H1022 H 0.88298 0.29782 0.44327
 O1023 O 1.09625 0.63281 0.47372
 O1024 O 1.12725 0.66386 0.47380
 C1025 C 1.10562 0.65447 0.46466
 C1026 C 1.09154 0.66843 0.44281
 C1027 C 1.10065 0.69313 0.43338
 H1028 H 1.11765 0.70242 0.44282
 O1029 O 0.90431 0.52583 0.36748
 O1030 O 0.87344 0.52585 0.33628
 C1031 C 0.89506 0.53491 0.34576
 C1032 C 0.90927 0.55665 0.33181
 C1033 C 0.90038 0.56579 0.30692
 H1034 H 0.88350 0.55621 0.29755
 O1035 O 1.09624 0.47427 0.36742
 O1036 O 1.12717 0.47422 0.33627
 C1037 C 1.10553 0.46517 0.34574
 C1038 C 1.09137 0.44339 0.33183
 C1039 C 1.10033 0.43418 0.30700
 H1040 H 1.11721 0.44376 0.29763
 O1041 O 1.02628 0.36738 0.40393
 O1042 O 1.02631 0.33631 0.37293
 C1043 C 1.03537 0.34572 0.39458
 C1044 C 1.05717 0.33177 0.40871
 C1045 C 1.06649 0.30703 0.39964
 H1046 H 1.05701 0.29773 0.38267
 O1047 O 0.97433 0.63260 0.40383
 O1048 O 0.97421 0.66366 0.37281
 C1049 C 0.96517 0.65423 0.39447
 C1050 C 0.94335 0.66814 0.40860
 C1051 C 0.93406 0.69291 0.39956
 H1052 H 0.94360 0.70224 0.38263
 O1053 O 0.86761 0.59603 0.47379
 O1054 O 0.83651 0.62698 0.47378
 C1055 C 0.84595 0.60535 0.46469
 C1056 C 0.83204 0.59121 0.44287
 C1057 C 0.80727 0.60021 0.43353
 H1058 H 0.79792 0.61716 0.44301
 O1059 O 1.13278 0.40390 0.47386
 O1060 O 1.16386 0.37292 0.47386
 C1061 C 1.15443 0.39456 0.46474
 C1062 C 1.16834 0.40868 0.44287
 C1063 C 1.19305 0.39957 0.43344
 H1064 H 1.20235 0.38257 0.44287
 O1065 O 0.97443 0.59609 0.36744
 O1066 O 0.97431 0.62699 0.33626
 C1067 C 0.96532 0.60534 0.34574
 C1068 C 0.94360 0.59108 0.33180
 C1069 C 0.93443 0.59995 0.30691
 H1070 H 0.94396 0.61685 0.29753
 O1071 O 1.02628 0.40395 0.36757
 O1072 O 1.02632 0.37303 0.33642
 C1073 C 1.03536 0.39467 0.34587
 C1074 C 1.05710 0.40889 0.33189
 C1075 C 1.06634 0.39995 0.30705
 H1076 H 1.05687 0.38299 0.29772
 O1077 O 1.13279 0.47415 0.40375
 O1078 O 1.16388 0.47410 0.37276
 C1079 C 1.15443 0.46501 0.39440
 C1080 C 1.16833 0.44313 0.40849
 C1081 C 1.19304 0.43375 0.39936
 H1082 H 1.20233 0.44324 0.38238
 O1083 O 0.86770 0.52588 0.40377
 O1084 O 0.83668 0.52592 0.37273
 C1085 C 0.84607 0.53499 0.39439
 C1086 C 0.83211 0.55680 0.40850
 C1087 C 0.80734 0.56606 0.39944
 H1088 H 0.79805 0.55654 0.38249
 O1089 O 0.90404 0.63248 0.47382
 O1090 O 0.87309 0.66360 0.47382
 C1091 C 0.89473 0.65416 0.46473
 C1092 C 0.90889 0.66812 0.44294
 C1093 C 0.89988 0.69290 0.43362
 H1094 H 0.88290 0.70221 0.44309
 O1095 O 1.09642 0.36739 0.47393
 O1096 O 1.12734 0.33625 0.47396
 C1097 C 1.10572 0.34570 0.46487
 C1098 C 1.09157 0.33176 0.44308
 C1099 C 1.10063 0.30702 0.43374
 H1100 H 1.11760 0.29771 0.44321
 O1101 O 1.09647 0.52620 0.36727
 O1102 O 1.12742 0.52620 0.33613
 C1103 C 1.10580 0.53531 0.34559
 C1104 C 1.09168 0.55717 0.33168
 C1105 C 1.10076 0.56662 0.30696
 H1106 H 1.11776 0.55722 0.29763
 O1107 O 0.90419 0.47392 0.36742
 O1108 O 0.87331 0.47391 0.33624
 C1109 C 0.89492 0.46483 0.34573
 C1110 C 0.90910 0.44305 0.33181
 C1111 C 0.90012 0.43373 0.30702
 H1112 H 0.88317 0.44321 0.29767
 O1113 O 1.02625 0.63279 0.40375
 O1114 O 1.02617 0.66384 0.37272
 C1115 C 1.03530 0.65445 0.39437
 C1116 C 1.05712 0.66841 0.40844
 C1117 C 1.06649 0.69311 0.39929
 H1118 H 1.05701 0.70238 0.38229
 O1119 O 0.97435 0.36751 0.40403
 O1120 O 0.97434 0.33643 0.37305
 C1121 C 0.96525 0.34586 0.39469
 C1122 C 0.94341 0.33194 0.40881
 C1123 C 0.93417 0.30715 0.39979
 H1124 H 0.94375 0.29782 0.38288
 O1125 O 1.13258 0.59625 0.47376
 O1126 O 1.16374 0.62715 0.47386
 C1127 C 1.15429 0.60554 0.46474
 C1128 C 1.16829 0.59139 0.44298
 C1129 C 1.19305 0.60045 0.43370
 H1130 H 1.20232 0.61743 0.44318
 O1131 O 0.86745 0.40393 0.47404
 O1132 O 0.83636 0.37296 0.47392
 C1133 C 0.84580 0.39462 0.46489
 C1134 C 0.83191 0.40880 0.44308
 C1135 C 0.80711 0.39986 0.43379
 H1136 H 0.79773 0.38295 0.44331
 Cu1137 Cu 1.00033 0.38878 0.38887
 Cu1138 Cu 1.00034 0.35155 0.35158
 Cu1139 Cu 1.00035 0.61134 0.38872
 Cu1140 Cu 1.00021 0.64853 0.35138
 Cu1141 Cu 0.88907 0.49989 0.38875
 Cu1142 Cu 0.85191 0.49992 0.35138
 Cu1143 Cu 1.11148 0.50019 0.38867
 Cu1144 Cu 1.14871 0.50014 0.35138
 C1145 C 0.93097 0.43056 0.34393
 H1146 H 0.93776 0.43738 0.36322
 C1147 C 0.91256 0.41202 0.29446
 C1148 C 1.06975 0.56959 0.34377
 H1149 H 1.06288 0.56267 0.36301
 C1150 C 1.08836 0.58841 0.29446
 C1151 C 0.84407 0.43062 0.43054
 H1152 H 0.86337 0.43737 0.43736
 C1153 C 0.79458 0.41228 0.41205
 C1154 C 1.15627 0.56948 0.43048
 H1155 H 1.13700 0.56264 0.43730
 C1156 C 1.20567 0.58806 0.41199
 C1157 C 0.93080 0.34404 0.43064
 H1158 H 0.93757 0.36333 0.43746
 C1159 C 0.91242 0.29457 0.41213
 C1160 C 1.06961 0.65639 0.43036
 H1161 H 1.06272 0.63717 0.43728
 C1162 C 1.08828 0.70566 0.41159
 C1163 C 0.93105 0.56926 0.34395
 H1164 H 0.93777 0.56256 0.36332
 C1165 C 0.91280 0.58746 0.29429
 C1166 C 1.06959 0.43078 0.34398
 H1167 H 1.06282 0.43753 0.36331
 C1168 C 1.08798 0.41245 0.29442
 C1169 C 1.06968 0.34383 0.43060
 H1170 H 1.06283 0.36309 0.43745
 C1171 C 1.08825 0.29447 0.41199
 C1172 C 0.93080 0.65605 0.43046
 H1173 H 0.93761 0.63677 0.43729
 C1174 C 0.91231 0.70548 0.41191
 C1175 C 0.84415 0.56934 0.43038
 H1176 H 0.86343 0.56253 0.43722
 C1177 C 0.79473 0.58779 0.41180
 C1178 C 1.15629 0.43062 0.43041
 H1179 H 1.13707 0.43751 0.43732
 C1180 C 1.20558 0.41195 0.41166
 O1181 O 1.02577 0.40389 0.63250
 O1182 O 1.02584 0.37290 0.66358
 C1183 C 1.03489 0.39454 0.65415
 C1184 C 1.05672 0.40864 0.66807
 C1185 C 1.06601 0.39958 0.69284
 H1186 H 1.05646 0.38266 0.70217
 O1187 O 0.97422 0.59589 0.63236
 O1188 O 0.97415 0.62682 0.66351
 C1189 C 0.96509 0.60519 0.65404
 C1190 C 0.94328 0.59103 0.66796
 C1191 C 0.93401 0.60003 0.69277
 H1192 H 0.94353 0.61695 0.70211
 O1193 O 0.86750 0.52575 0.59591
 O1194 O 0.83639 0.52588 0.62688
 C1195 C 0.84584 0.53489 0.60521
 C1196 C 0.83193 0.55668 0.59100
 C1197 C 0.80711 0.56591 0.59994
 H1198 H 0.79774 0.55637 0.61686
 O1199 O 1.13266 0.47378 0.59603
 O1200 O 1.16375 0.47380 0.62701
 C1201 C 1.15434 0.46472 0.60537
 C1202 C 1.16831 0.44293 0.59124
 C1203 C 1.19302 0.43355 0.60039
 H1204 H 1.20227 0.44299 0.61741
 O1205 O 1.09626 0.36758 0.52587
 O1206 O 1.12717 0.33642 0.52595
 C1207 C 1.10553 0.34590 0.53501
 C1208 C 1.09130 0.33199 0.55680
 C1209 C 1.10024 0.30718 0.56612
 H1210 H 1.11720 0.29783 0.55667
 O1211 O 0.90408 0.63237 0.52576
 O1212 O 0.87314 0.66349 0.52581
 C1213 C 0.89478 0.65404 0.53487
 C1214 C 0.90896 0.66796 0.55666
 C1215 C 0.90003 0.69279 0.56588
 H1216 H 0.88311 0.70215 0.55634
 O1217 O 0.90380 0.47383 0.63253
 O1218 O 0.87284 0.47393 0.66365
 C1219 C 0.89446 0.46479 0.65422
 C1220 C 0.90855 0.44296 0.66818
 C1221 C 0.89945 0.43361 0.69292
 H1222 H 0.88247 0.44310 0.70222
 O1223 O 1.09612 0.52569 0.63243
 O1224 O 1.12709 0.52574 0.66353
 C1225 C 1.10545 0.53479 0.65409
 C1226 C 1.09132 0.55660 0.66804
 C1227 C 1.10038 0.56587 0.69281
 H1228 H 1.11732 0.55633 0.70212
 O1229 O 0.97387 0.36740 0.59607
 O1230 O 0.97391 0.33627 0.62702
 C1231 C 0.96481 0.34571 0.60539
 C1232 C 0.94300 0.33178 0.59125
 C1233 C 0.93364 0.30706 0.60035
 H1234 H 0.94310 0.29775 0.61734
 O1235 O 1.02616 0.63245 0.59602
 O1236 O 1.02614 0.66353 0.62701
 C1237 C 1.03522 0.65413 0.60536
 C1238 C 1.05700 0.66809 0.59118
 C1239 C 1.06633 0.69286 0.60022
 H1240 H 1.05690 0.70216 0.61722
 O1241 O 0.86733 0.40380 0.52599
 O1242 O 0.83625 0.37284 0.52593
 C1243 C 0.84566 0.39445 0.53507
 C1244 C 0.83173 0.40855 0.55693
 C1245 C 0.80701 0.39945 0.56633
 H1246 H 0.79772 0.38247 0.55686
 O1247 O 1.13240 0.59609 0.52568
 O1248 O 1.16357 0.62697 0.52582
 C1249 C 1.15407 0.60533 0.53483
 C1250 C 1.16799 0.59107 0.55659
 C1251 C 1.19284 0.59995 0.56578
 H1252 H 1.20221 0.61686 0.55625
 O1253 O 1.02614 0.59593 0.63243
 O1254 O 1.02613 0.62686 0.66357
 C1255 C 1.03521 0.60523 0.65412
 C1256 C 1.05700 0.59105 0.66806
 C1257 C 1.06634 0.60006 0.69284
 H1258 H 1.05689 0.61704 0.70217
 O1259 O 0.97384 0.40381 0.63257
 O1260 O 0.97387 0.37282 0.66366
 C1261 C 0.96476 0.39445 0.65425
 C1262 C 0.94293 0.40856 0.66820
 C1263 C 0.93355 0.39947 0.69294
 H1264 H 0.94301 0.38249 0.70225
 O1265 O 1.13242 0.52570 0.59583
 O1266 O 1.16354 0.52576 0.62678
 C1267 C 1.15408 0.53482 0.60513
 C1268 C 1.16800 0.55661 0.59094
 C1269 C 1.19286 0.56578 0.59985
 H1270 H 1.20223 0.55620 0.61674
 O1271 O 0.86736 0.47382 0.59607
 O1272 O 0.83626 0.47391 0.62705
 C1273 C 0.84569 0.46477 0.60543
 C1274 C 0.83174 0.44294 0.59133
 C1275 C 0.80703 0.43356 0.60046
 H1276 H 0.79774 0.44303 0.61745
 O1277 O 1.09606 0.63262 0.52568
 O1278 O 1.12707 0.66366 0.52581
 C1279 C 1.10541 0.65424 0.53484
 C1280 C 1.09128 0.66814 0.55667
 C1281 C 1.10033 0.69289 0.56597
 H1282 H 1.11725 0.70222 0.55641
 O1283 O 0.90382 0.36741 0.52597
 O1284 O 0.87289 0.33629 0.52591
 C1285 C 0.89450 0.34573 0.53503
 C1286 C 0.90862 0.33179 0.55685
 C1287 C 0.89953 0.30707 0.56621
 H1288 H 0.88256 0.29778 0.55674
 O1289 O 1.09609 0.47377 0.63240
 O1290 O 1.12703 0.47377 0.66352
 C1291 C 1.10540 0.46469 0.65409
 C1292 C 1.09122 0.44291 0.66805
 C1293 C 1.10024 0.43357 0.69282
 H1294 H 1.11723 0.44299 0.70214
 O1295 O 0.90395 0.52576 0.63237
 O1296 O 0.87299 0.52590 0.66349
 C1297 C 0.89465 0.53491 0.65403
 C1298 C 0.90884 0.55669 0.66795
 C1299 C 0.89986 0.56597 0.69276
 H1300 H 0.88291 0.55648 0.70210
 O1301 O 0.97425 0.63235 0.59592
 O1302 O 0.97417 0.66343 0.62690
 C1303 C 0.96513 0.65400 0.60523
 C1304 C 0.94336 0.66795 0.59105
 C1305 C 0.93414 0.69278 0.60000
 H1306 H 0.94368 0.70213 0.61691
 O1307 O 1.02581 0.36757 0.59594
 O1308 O 1.02587 0.33643 0.62688
 C1309 C 1.03494 0.34591 0.60524
 C1310 C 1.05677 0.33200 0.59110
 C1311 C 1.06599 0.30720 0.60011
 H1312 H 1.05640 0.29787 0.61701
 O1313 O 1.13287 0.40384 0.52582
 O1314 O 1.16394 0.37285 0.52589
 C1315 C 1.15452 0.39450 0.53495
 C1316 C 1.16841 0.40860 0.55680
 C1317 C 1.19311 0.39950 0.56621
 H1318 H 1.20243 0.38253 0.55674
 O1319 O 0.86761 0.59596 0.52573
 O1320 O 0.83650 0.62692 0.52578
 C1321 C 0.84594 0.60527 0.53483
 C1322 C 0.83198 0.59108 0.55661
 C1323 C 0.80715 0.60004 0.56583
 H1324 H 0.79781 0.61697 0.55630
 Cu1325 Cu 0.99980 0.38878 0.61117
 Cu1326 Cu 0.99988 0.35148 0.64840
 Cu1327 Cu 1.00020 0.61106 0.61108
 Cu1328 Cu 1.00014 0.64827 0.64837
 Cu1329 Cu 0.88873 0.38877 0.50002
 Cu1330 Cu 0.85151 0.35150 0.49990
 Cu1331 Cu 1.11149 0.38879 0.49987
 Cu1332 Cu 1.14870 0.35150 0.49992
 Cu1333 Cu 0.88894 0.61111 0.49977
 Cu1334 Cu 0.85169 0.64836 0.49980
 Cu1335 Cu 1.11120 0.61135 0.49969
 Cu1336 Cu 1.14853 0.64853 0.49984
 Cu1337 Cu 0.88875 0.49977 0.61112
 Cu1338 Cu 0.85150 0.49993 0.64839
 Cu1339 Cu 1.11122 0.49972 0.61107
 Cu1340 Cu 1.14847 0.49978 0.64833
 C1341 C 1.06930 0.43048 0.65598
 H1342 H 1.06248 0.43732 0.63670
 C1343 C 1.08778 0.41187 0.70541
 C1344 C 0.93072 0.56920 0.65585
 H1345 H 0.93751 0.56240 0.63655
 C1346 C 0.91228 0.58765 0.70535
 C1347 C 0.84407 0.56923 0.56917
 H1348 H 0.86339 0.56246 0.56241
 C1349 C 0.79453 0.58761 0.58751
 C1350 C 1.15632 0.43049 0.56928
 H1351 H 1.13710 0.43736 0.56237
 C1352 C 1.20560 0.41181 0.58803
 C1353 C 1.06940 0.34410 0.56928
 H1354 H 1.06263 0.36340 0.56246
 C1355 C 1.08773 0.29460 0.58779
 C1356 C 0.93079 0.65584 0.56921
 H1357 H 0.93755 0.63652 0.56245
 C1358 C 0.91246 0.70539 0.58757
 C1359 C 0.93045 0.43047 0.65613
 H1360 H 0.93733 0.43733 0.63688
 C1361 C 0.91179 0.41185 0.70549
 C1362 C 1.06947 0.56916 0.65597
 H1363 H 1.06263 0.56234 0.63669
 C1364 C 1.08806 0.58762 0.70540
 C1365 C 0.93052 0.34384 0.56934
 H1366 H 0.93739 0.36308 0.56247
 C1367 C 0.91188 0.29452 0.58799
 C1368 C 1.06945 0.65604 0.56925
 H1369 H 1.06262 0.63678 0.56241
 C1370 C 1.08802 0.70544 0.58775
 C1371 C 0.84378 0.43045 0.56941
 H1372 H 0.86301 0.43733 0.56251
 C1373 C 0.79447 0.41180 0.58811
 C1374 C 1.15586 0.56923 0.56914
 H1375 H 1.13652 0.56252 0.56240
 C1376 C 1.20546 0.58746 0.58743
 O1377 O 0.47393 0.90405 0.36747
 O1378 O 0.47393 0.87315 0.33630
 C1379 C 0.46485 0.89477 0.34577
 C1380 C 0.44307 0.90893 0.33184
 C1381 C 0.43384 0.89990 0.30705
 H1382 H 0.44340 0.88298 0.29773
 O1383 O 0.52558 1.09617 0.36748
 O1384 O 0.52562 1.12716 0.33639
 C1385 C 0.53467 1.10550 0.34580
 C1386 C 0.55642 1.09134 0.33181
 C1387 C 0.56566 1.10037 0.30701
 H1388 H 0.55614 1.11733 0.29771
 O1389 O 0.36720 0.97414 0.40387
 O1390 O 0.33613 0.97411 0.37288
 C1391 C 0.34555 0.96504 0.39453
 C1392 C 0.33163 0.94321 0.40867
 C1393 C 0.30689 0.93388 0.39962
 H1394 H 0.29756 0.94337 0.38267
 O1395 O 0.63235 1.02602 0.40362
 O1396 O 0.66339 1.02607 0.37259
 C1397 C 0.65401 1.03510 0.39427
 C1398 C 0.66803 1.05682 0.40846
 C1399 C 0.69283 1.06604 0.39943
 H1400 H 0.70210 1.05656 0.38244
 O1401 O 0.40366 0.86733 0.47371
 O1402 O 0.37271 0.83623 0.47374
 C1403 C 0.39432 0.84567 0.46460
 C1404 C 0.40842 0.83177 0.44272
 C1405 C 0.39931 0.80708 0.43325
 H1406 H 0.38230 0.79778 0.44267
 O1407 O 0.59626 1.13235 0.47398
 O1408 O 0.62716 1.16349 0.47383
 C1409 C 0.60552 1.15402 0.46483
 C1410 C 0.59126 1.16795 0.44307
 C1411 C 0.60021 1.19276 0.43378
 H1412 H 0.61719 1.20208 0.44322
 O1413 O 0.40368 1.02605 0.36743
 O1414 O 0.37276 1.02606 0.33628
 C1415 C 0.39438 1.03515 0.34575
 C1416 C 0.40849 1.05699 0.33184
 C1417 C 0.39946 1.06631 0.30706
 H1418 H 0.38254 1.05678 0.29772
 O1419 O 0.59585 0.97412 0.36720
 O1420 O 0.62675 0.97414 0.33602
 C1421 C 0.60515 0.96503 0.34551
 C1422 C 0.59104 0.94319 0.33160
 C1423 C 0.60011 0.93385 0.30685
 H1424 H 0.61705 0.94336 0.29752
 O1425 O 0.52579 0.86748 0.40385
 O1426 O 0.52582 0.83643 0.37284
 C1427 C 0.53488 0.84583 0.39450
 C1428 C 0.55667 0.83189 0.40864
 C1429 C 0.56593 0.80710 0.39961
 H1430 H 0.55639 0.79778 0.38269
 O1431 O 0.47377 1.13272 0.40400
 O1432 O 0.47378 1.16385 0.37305
 C1433 C 0.46471 1.15441 0.39470
 C1434 C 0.44294 1.16838 0.40887
 C1435 C 0.43364 1.19316 0.39984
 H1436 H 0.44313 1.20247 0.38287
 O1437 O 0.36721 1.09638 0.47393
 O1438 O 0.33608 1.12731 0.47393
 C1439 C 0.34555 1.10571 0.46480
 C1440 C 0.33167 1.09159 0.44291
 C1441 C 0.30699 1.10071 0.43342
 H1442 H 0.29769 1.11773 0.44281
 O1443 O 0.63239 0.90403 0.47372
 O1444 O 0.66350 0.87307 0.47370
 C1445 C 0.65405 0.89470 0.46461
 C1446 C 0.66796 0.90885 0.44279
 C1447 C 0.69275 0.89987 0.43348
 H1448 H 0.70210 0.88293 0.44298
 O1449 O 0.47367 1.09625 0.36754
 O1450 O 0.47368 1.12723 0.33645
 C1451 C 0.46459 1.10560 0.34587
 C1452 C 0.44280 1.09146 0.33190
 C1453 C 0.43349 1.10050 0.30713
 H1454 H 0.44295 1.11749 0.29783
 O1455 O 0.52584 0.90387 0.36731
 O1456 O 0.52587 0.87295 0.33615
 C1457 C 0.53494 0.89457 0.34561
 C1458 C 0.55673 0.90873 0.33166
 C1459 C 0.56608 0.89967 0.30690
 H1460 H 0.55664 0.88268 0.29761
 O1461 O 0.63229 0.97412 0.40363
 O1462 O 0.66334 0.97413 0.37260
 C1463 C 0.65394 0.96504 0.39427
 C1464 C 0.66791 0.94325 0.40840
 C1465 C 0.69269 0.93400 0.39936
 H1466 H 0.70200 0.94353 0.38241
 O1467 O 0.36726 1.02609 0.40389
 O1468 O 0.33619 1.02610 0.37289
 C1469 C 0.34562 1.03521 0.39452
 C1470 C 0.33171 1.05710 0.40859
 C1471 C 0.30704 1.06650 0.39939
 H1472 H 0.29777 1.05699 0.38241
 O1473 O 0.40371 1.13276 0.47413
 O1474 O 0.37274 1.16386 0.47414
 C1475 C 0.39439 1.15444 0.46507
 C1476 C 0.40856 1.16840 0.44329
 C1477 C 0.39953 1.19317 0.43398
 H1478 H 0.38258 1.20249 0.44348
 O1479 O 0.59600 0.86754 0.47379
 O1480 O 0.62695 0.83642 0.47379
 C1481 C 0.60531 0.84585 0.46472
 C1482 C 0.59113 0.83189 0.44296
 C1483 C 0.60012 0.80710 0.43366
 H1484 H 0.61709 0.79778 0.44314
 O1485 O 0.59575 1.02604 0.36730
 O1486 O 0.62664 1.02611 0.33611
 C1487 C 0.60502 1.03516 0.34561
 C1488 C 0.59082 1.05696 0.33172
 C1489 C 0.59979 1.06627 0.30691
 H1490 H 0.61672 1.05679 0.29755
 O1491 O 0.40370 0.97413 0.36743
 O1492 O 0.37278 0.97409 0.33628
 C1493 C 0.39441 0.96503 0.34574
 C1494 C 0.40861 0.94325 0.33180
 C1495 C 0.39964 0.93393 0.30700
 H1496 H 0.38268 0.94338 0.29765
 O1497 O 0.52571 1.13250 0.40404
 O1498 O 0.52575 1.16364 0.37309
 C1499 C 0.53484 1.15415 0.39471
 C1500 C 0.55671 1.16802 0.40882
 C1501 C 0.56594 1.19282 0.39982
 H1502 H 0.55635 1.20219 0.38294
 O1503 O 0.47385 0.86738 0.40369
 O1504 O 0.47386 0.83634 0.37266
 C1505 C 0.46475 0.84575 0.39431
 C1506 C 0.44288 0.83181 0.40837
 C1507 C 0.43349 0.80713 0.39918
 H1508 H 0.44299 0.79787 0.38219
 O1509 O 0.63271 1.09590 0.47400
 O1510 O 0.66377 1.12689 0.47385
 C1511 C 0.65433 1.10523 0.46482
 C1512 C 0.66820 1.09109 0.44297
 C1513 C 0.69300 1.10004 0.43368
 H1514 H 0.70239 1.11691 0.44323
 O1515 O 0.36734 0.90391 0.47387
 O1516 O 0.33623 0.87296 0.47390
 C1517 C 0.34565 0.89461 0.46481
 C1518 C 0.33169 0.90878 0.44304
 C1519 C 0.30694 0.89972 0.43372
 H1520 H 0.29766 0.88274 0.44320
 Cu1521 Cu 0.49986 0.88879 0.38869
 Cu1522 Cu 0.49987 0.85160 0.35137
 Cu1523 Cu 0.49967 1.11131 0.38887
 Cu1524 Cu 0.49971 1.14859 0.35163
 Cu1525 Cu 0.38856 1.00009 0.38876
 Cu1526 Cu 0.35135 1.00009 0.35147
 Cu1527 Cu 0.61096 1.00008 0.38855
 Cu1528 Cu 0.64814 1.00012 0.35120
 C1529 C 0.43049 0.93077 0.34392
 H1530 H 0.43727 0.93759 0.36322
 C1531 C 0.41211 0.91223 0.29444
 C1532 C 0.56897 1.06946 0.34386
 H1533 H 0.56220 1.06263 0.36316
 C1534 C 0.58737 1.08800 0.29438
 C1535 C 0.34372 0.93069 0.43055
 H1536 H 0.36299 0.93754 0.43738
 C1537 C 0.29436 0.91211 0.41199
 C1538 C 0.65602 1.06931 0.43040
 H1539 H 0.63672 1.06255 0.43722
 C1540 C 0.70550 1.08767 0.41189
 C1541 C 0.43037 0.84382 0.43029
 H1542 H 0.43727 0.86303 0.43723
 C1543 C 0.41169 0.79458 0.41146
 C1544 C 0.56934 1.15588 0.43061
 H1545 H 0.56257 1.13658 0.43742
 C1546 C 0.58771 1.20538 0.41213
 C1547 C 0.43032 1.06954 0.34395
 H1548 H 0.43715 1.06270 0.36323
 C1549 C 0.41180 1.08808 0.29452
 C1550 C 0.56918 0.93066 0.34370
 H1551 H 0.56233 0.93751 0.36297
 C1552 C 0.58780 0.91207 0.29431
 C1553 C 0.56924 0.84397 0.43048
 H1554 H 0.56244 0.86326 0.43729
 C1555 C 0.58767 0.79452 0.41197
 C1556 C 0.43043 1.15631 0.43076
 H1557 H 0.43724 1.13703 0.43759
 C1558 C 0.41191 1.20573 0.41223
 C1559 C 0.34373 1.06962 0.43050
 H1560 H 0.36293 1.06272 0.43745
 C1561 C 0.29449 1.08832 0.41163
 C1562 C 0.65585 0.93071 0.43027
 H1563 H 0.63656 0.93750 0.43710
 C1564 C 0.70530 0.91229 0.41174
 O1565 O 0.52576 0.90421 0.63233
 O1566 O 0.52585 0.87325 0.66346
 C1567 C 0.53488 0.89490 0.65400
 C1568 C 0.55667 0.90907 0.66792
 C1569 C 0.56586 0.90014 0.69277
 H1570 H 0.55630 0.88325 0.70215
 O1571 O 0.47409 1.09611 0.63225
 O1572 O 0.47409 1.12702 0.66341
 C1573 C 0.46500 1.10541 0.65394
 C1574 C 0.44319 1.09128 0.66788
 C1575 C 0.43393 1.10033 0.69266
 H1576 H 0.44348 1.11725 0.70197
 O1577 O 0.36733 1.02588 0.59591
 O1578 O 0.33624 1.02592 0.62690
 C1579 C 0.34565 1.03496 0.60522
 C1580 C 0.33166 1.05669 0.59104
 C1581 C 0.30683 1.06586 0.60002
 H1582 H 0.29751 1.05629 0.61695
 O1583 O 0.63254 0.97425 0.59574
 O1584 O 0.66360 0.97410 0.62676
 C1585 C 0.65418 0.96510 0.60507
 C1586 C 0.66811 0.94333 0.59088
 C1587 C 0.69294 0.93411 0.59982
 H1588 H 0.70229 0.94365 0.61673
 O1589 O 0.59594 0.86770 0.52572
 O1590 O 0.62688 0.83658 0.52577
 C1591 C 0.60525 0.84604 0.53484
 C1592 C 0.59107 0.83211 0.55664
 C1593 C 0.60001 0.80728 0.56586
 H1594 H 0.61692 0.79792 0.55631
 O1595 O 0.40354 1.13272 0.52608
 O1596 O 0.37255 1.16379 0.52617
 C1597 C 0.39419 1.15435 0.53525
 C1598 C 0.40832 1.16824 0.55713
 C1599 C 0.39917 1.19288 0.56669
 H1600 H 0.38209 1.20215 0.55736
 O1601 O 0.40384 0.97410 0.63249
 O1602 O 0.37290 0.97413 0.66363
 C1603 C 0.39453 0.96504 0.65419
 C1604 C 0.40866 0.94326 0.66816
 C1605 C 0.39960 0.93399 0.69293
 H1606 H 0.38266 0.94352 0.70224
 O1607 O 0.59614 1.02616 0.63222
 O1608 O 0.62704 1.02606 0.66340
 C1609 C 0.60544 1.03520 0.65393
 C1610 C 0.59132 1.05700 0.66788
 C1611 C 0.60042 1.06629 0.69264
 H1612 H 0.61737 1.05677 0.70192
 O1613 O 0.47388 0.86767 0.59594
 O1614 O 0.47393 0.83655 0.62690
 C1615 C 0.46485 0.84597 0.60525
 C1616 C 0.44314 0.83196 0.59105
 C1617 C 0.43398 0.80711 0.59999
 H1618 H 0.44351 0.79779 0.61693
 O1619 O 0.52595 1.13267 0.59581
 O1620 O 0.52600 1.16374 0.62680
 C1621 C 0.53507 1.15431 0.60515
 C1622 C 0.55690 1.16821 0.59100
 C1623 C 0.56623 1.19298 0.60001
 H1624 H 0.55672 1.20235 0.61693
 O1625 O 0.36739 0.90378 0.52582
 O1626 O 0.33630 0.87282 0.52591
 C1627 C 0.34575 0.89445 0.53499
 C1628 C 0.33187 0.90856 0.55688
 C1629 C 0.30716 0.89946 0.56628
 H1630 H 0.29786 0.88248 0.55682
 O1631 O 0.63295 1.09616 0.52597
 O1632 O 0.66400 1.12716 0.52589
 C1633 C 0.65460 1.10554 0.53505
 C1634 C 0.66851 1.09148 0.55695
 C1635 C 0.69315 1.10065 0.56648
 H1636 H 0.70244 1.11767 0.55707
 O1637 O 0.52602 1.09628 0.63236
 O1638 O 0.52606 1.12721 0.66350
 C1639 C 0.53514 1.10558 0.65404
 C1640 C 0.55697 1.09143 0.66795
 C1641 C 0.56635 1.10045 0.69271
 H1642 H 0.55690 1.11742 0.70205
 O1643 O 0.47384 0.90401 0.63252
 O1644 O 0.47388 0.87304 0.66364
 C1645 C 0.46478 0.89467 0.65421
 C1646 C 0.44298 0.90882 0.66817
 C1647 C 0.43364 0.89980 0.69296
 H1648 H 0.44309 0.88282 0.70229
 O1649 O 0.63279 1.02617 0.59597
 O1650 O 0.66382 1.02606 0.62701
 C1651 C 0.65444 1.03522 0.60537
 C1652 C 0.66842 1.05707 0.59134
 C1653 C 0.69305 1.06649 0.60059
 H1654 H 0.70227 1.05703 0.61762
 O1655 O 0.36742 0.97395 0.59601
 O1656 O 0.33634 0.97396 0.62701
 C1657 C 0.34578 0.96483 0.60538
 C1658 C 0.33188 0.94296 0.59129
 C1659 C 0.30717 0.93357 0.60041
 H1660 H 0.29787 0.94304 0.61740
 O1661 O 0.59628 1.13239 0.52590
 O1662 O 0.62718 1.16354 0.52581
 C1663 C 0.60556 1.15410 0.53492
 C1664 C 0.59138 1.16808 0.55668
 C1665 C 0.60042 1.19285 0.56595
 H1666 H 0.61741 1.20212 0.55646
 O1667 O 0.40392 0.86743 0.52567
 O1668 O 0.37299 0.83631 0.52575
 C1669 C 0.39464 0.84576 0.53478
 C1670 C 0.40883 0.83185 0.55657
 C1671 C 0.39995 0.80700 0.56578
 H1672 H 0.38309 0.79760 0.55621
 O1673 O 0.59610 0.97425 0.63223
 O1674 O 0.62700 0.97411 0.66340
 C1675 C 0.60536 0.96512 0.65392
 C1676 C 0.59112 0.94338 0.66787
 C1677 C 0.60003 0.93418 0.69273
 H1678 H 0.61696 0.94368 0.70208
 O1679 O 0.40383 1.02602 0.63234
 O1680 O 0.37289 1.02610 0.66348
 C1681 C 0.39452 1.03516 0.65400
 C1682 C 0.40870 1.05697 0.66791
 C1683 C 0.39971 1.06632 0.69270
 H1684 H 0.38274 1.05688 0.70205
 O1685 O 0.47398 1.13271 0.59596
 O1686 O 0.47400 1.16376 0.62697
 C1687 C 0.46486 1.15434 0.60535
 C1688 C 0.44291 1.16823 0.59136
 C1689 C 0.43347 1.19286 0.60062
 H1690 H 0.44300 1.20212 0.61760
 O1691 O 0.52578 0.86771 0.59594
 O1692 O 0.52588 0.83660 0.62691
 C1693 C 0.53491 0.84605 0.60525
 C1694 C 0.55669 0.83212 0.59106
 C1695 C 0.56590 0.80729 0.60000
 H1696 H 0.55637 0.79793 0.61692
 O1697 O 0.63246 0.90406 0.52565
 O1698 O 0.66356 0.87310 0.52569
 C1699 C 0.65413 0.89475 0.53474
 C1700 C 0.66809 0.90893 0.55650
 C1701 C 0.69292 0.89999 0.56571
 H1702 H 0.70227 0.88306 0.55618
 O1703 O 0.36722 1.09614 0.52588
 O1704 O 0.33607 1.12705 0.52595
 C1705 C 0.34553 1.10539 0.53497
 C1706 C 0.33159 1.09114 0.55670
 C1707 C 0.30676 1.10004 0.56596
 H1708 H 0.29739 1.11697 0.55647
 Cu1709 Cu 0.49980 0.88901 0.61109
 Cu1710 Cu 0.49989 0.85174 0.64835
 Cu1711 Cu 0.50002 1.11135 0.61098
 Cu1712 Cu 0.50004 1.14855 0.64828
 Cu1713 Cu 0.38868 0.88871 0.49975
 Cu1714 Cu 0.35144 0.85147 0.49983
 Cu1715 Cu 0.61110 0.88893 0.49972
 Cu1716 Cu 0.64834 0.85167 0.49975
 Cu1717 Cu 0.38852 1.11141 0.50001
 Cu1718 Cu 0.35124 1.14862 0.50005
 Cu1719 Cu 0.61147 1.11108 0.49998
 Cu1720 Cu 0.64864 1.14839 0.49982
 Cu1721 Cu 0.38870 0.99999 0.61108
 Cu1722 Cu 0.35148 1.00004 0.64837
 Cu1723 Cu 0.61130 1.00022 0.61092
 Cu1724 Cu 0.64847 1.00006 0.64826
 C1725 C 0.56927 0.93086 0.65576
 H1726 H 0.56253 0.93761 0.63642
 C1727 C 0.58756 0.91253 0.70536
 C1728 C 0.43061 1.06943 0.65580
 H1729 H 0.43741 1.06259 0.63652
 C1730 C 0.41217 1.08802 0.70526
 C1731 C 0.34374 1.06929 0.56921
 H1732 H 0.36307 1.06257 0.56243
 C1733 C 0.29419 1.08755 0.58764
 C1734 C 0.65599 0.93077 0.56905
 H1735 H 0.63666 0.93754 0.56230
 C1736 C 0.70554 0.91242 0.58739
 C1737 C 0.56925 0.84424 0.56921
 H1738 H 0.56249 0.86356 0.56245
 C1739 C 0.58758 0.79468 0.58755
 C1740 C 0.43036 1.15622 0.56945
 H1741 H 0.43729 1.13705 0.56245
 C1742 C 0.41158 1.20538 0.58846
 C1743 C 0.43051 0.93072 0.65609
 H1744 H 0.43735 0.93753 0.63680
 C1745 C 0.41192 0.91223 0.70552
 C1746 C 0.56944 1.06954 0.65584
 H1747 H 0.56257 1.06272 0.63658
 C1748 C 0.58810 1.08804 0.70524
 C1749 C 0.43060 0.84403 0.56917
 H1750 H 0.43731 0.86337 0.56241
 C1751 C 0.41237 0.79444 0.58750
 C1752 C 0.56945 1.15607 0.56917
 H1753 H 0.56262 1.13680 0.56236
 C1754 C 0.58802 1.20548 0.58763
 C1755 C 0.34392 0.93047 0.56936
 H1756 H 0.36315 0.93735 0.56245
 C1757 C 0.29462 0.91180 0.58807
 C1758 C 0.65646 1.06953 0.56936
 H1759 H 0.63729 1.06260 0.56237
 C1760 C 0.70561 1.08831 0.58833
 O1761 O 0.47378 0.40365 0.86747
 O1762 O 0.47387 0.37266 0.83639
 C1763 C 0.46471 0.39427 0.84581
 C1764 C 0.44281 0.40829 0.83188
 C1765 C 0.43337 0.39905 0.80723
 H1766 H 0.44287 0.38206 0.79798
 O1767 O 0.52565 0.59607 0.86776
 O1768 O 0.52564 0.62700 0.83661
 C1769 C 0.53473 0.60538 0.84606
 C1770 C 0.55650 0.59121 0.83211
 C1771 C 0.56573 0.60016 0.80727
 H1772 H 0.55621 0.61708 0.79792
 O1773 O 0.36733 0.47371 0.90412
 O1774 O 0.33619 0.47370 0.87319
 C1775 C 0.34564 0.46463 0.89484
 C1776 C 0.33173 0.44285 0.90905
 C1777 C 0.30697 0.43350 0.90007
 H1778 H 0.29762 0.44296 0.88310
 O1779 O 0.63218 0.52594 0.90418
 O1780 O 0.66328 0.52601 0.87320
 C1781 C 0.65384 0.53505 0.89485
 C1782 C 0.66776 0.55685 0.90901
 C1783 C 0.69256 0.56611 0.90001
 H1784 H 0.70190 0.55659 0.88308
 O1785 O 0.40389 0.36720 0.97425
 O1786 O 0.37295 0.33609 0.97431
 C1787 C 0.39456 0.34553 0.96516
 C1788 C 0.40864 0.33161 0.94328
 C1789 C 0.39955 0.30689 0.93389
 H1790 H 0.38258 0.29758 0.94338
 O1791 O 0.59567 0.63252 0.97434
 O1792 O 0.62662 0.66362 0.97430
 C1793 C 0.60498 0.65419 0.96524
 C1794 C 0.59082 0.66814 0.94345
 C1795 C 0.59979 0.69294 0.93420
 H1796 H 0.61671 0.70228 0.94373
 O1797 O 0.40384 0.52552 0.86762
 O1798 O 0.37289 0.52558 0.83650
 C1799 C 0.39454 0.53463 0.84595
 C1800 C 0.40871 0.55643 0.83203
 C1801 C 0.39983 0.56561 0.80715
 H1802 H 0.38298 0.55603 0.79774
 O1803 O 0.59578 0.47400 0.86772
 O1804 O 0.62674 0.47404 0.83660
 C1805 C 0.60511 0.46493 0.84603
 C1806 C 0.59102 0.44313 0.83206
 C1807 C 0.60011 0.43387 0.80730
 H1808 H 0.61707 0.44341 0.79802
 O1809 O 0.52577 0.36738 0.90402
 O1810 O 0.52591 0.33625 0.87309
 C1811 C 0.53493 0.34572 0.89474
 C1812 C 0.55674 0.33184 0.90895
 C1813 C 0.56612 0.30708 0.89994
 H1814 H 0.55669 0.29774 0.88297
 O1815 O 0.47370 0.63248 0.90418
 O1816 O 0.47362 0.66357 0.87318
 C1817 C 0.46457 0.65413 0.89484
 C1818 C 0.44278 0.66805 0.90902
 C1819 C 0.43345 0.69283 0.90003
 H1820 H 0.44292 0.70218 0.88306
 O1821 O 0.36725 0.59585 0.97420
 O1822 O 0.33611 0.62677 0.97416
 C1823 C 0.34560 0.60517 0.96506
 C1824 C 0.33172 0.59106 0.94317
 C1825 C 0.30702 0.60019 0.93375
 H1826 H 0.29772 0.61717 0.94322
 O1827 O 0.63238 0.40390 0.97425
 O1828 O 0.66348 0.37294 0.97421
 C1829 C 0.65404 0.39458 0.96513
 C1830 C 0.66795 0.40872 0.94330
 C1831 C 0.69271 0.39971 0.93392
 H1832 H 0.70206 0.38274 0.94338
 O1833 O 0.47376 0.59592 0.86783
 O1834 O 0.47370 0.62684 0.83668
 C1835 C 0.46468 0.60518 0.84613
 C1836 C 0.44299 0.59093 0.83214
 C1837 C 0.43383 0.59983 0.80726
 H1838 H 0.44334 0.61677 0.79793
 O1839 O 0.52572 0.40380 0.86752
 O1840 O 0.52587 0.37283 0.83643
 C1841 C 0.53488 0.39449 0.84587
 C1842 C 0.55669 0.40868 0.83196
 C1843 C 0.56608 0.39969 0.80719
 H1844 H 0.55664 0.38273 0.79784
 O1845 O 0.63224 0.47402 0.90415
 O1846 O 0.66334 0.47406 0.87317
 C1847 C 0.65392 0.46495 0.89481
 C1848 C 0.66788 0.44315 0.90893
 C1849 C 0.69263 0.43387 0.89984
 H1850 H 0.70191 0.44340 0.88287
 O1851 O 0.36727 0.52565 0.90395
 O1852 O 0.33616 0.52570 0.87300
 C1853 C 0.34562 0.53479 0.89463
 C1854 C 0.33173 0.55667 0.90874
 C1855 C 0.30702 0.56609 0.89962
 H1856 H 0.29773 0.55664 0.88262
 O1857 O 0.40363 0.63236 0.97433
 O1858 O 0.37263 0.66342 0.97430
 C1859 C 0.39429 0.65402 0.96524
 C1860 C 0.40843 0.66800 0.94346
 C1861 C 0.39938 0.69277 0.93420
 H1862 H 0.38244 0.70207 0.94374
 O1863 O 0.59585 0.36754 0.97431
 O1864 O 0.62681 0.33644 0.97429
 C1865 C 0.60517 0.34587 0.96522
 C1866 C 0.59106 0.33192 0.94341
 C1867 C 0.60015 0.30717 0.93414
 H1868 H 0.61711 0.29788 0.94367
 O1869 O 0.59573 0.52592 0.86773
 O1870 O 0.62669 0.52598 0.83660
 C1871 C 0.60504 0.53502 0.84605
 C1872 C 0.59087 0.55680 0.83210
 C1873 C 0.59982 0.56602 0.80726
 H1874 H 0.61673 0.55647 0.79791
 O1875 O 0.40357 0.47358 0.86743
 O1876 O 0.37259 0.47358 0.83635
 C1877 C 0.39421 0.46446 0.84577
 C1878 C 0.40831 0.44259 0.83186
 C1879 C 0.39915 0.43306 0.80719
 H1880 H 0.38210 0.44243 0.79791
 O1881 O 0.52561 0.63251 0.90422
 O1882 O 0.52559 0.66359 0.87323
 C1883 C 0.53467 0.65418 0.89488
 C1884 C 0.55644 0.66814 0.90904
 C1885 C 0.56569 0.69295 0.90006
 H1886 H 0.55618 0.70228 0.88311
 O1887 O 0.47385 0.36728 0.90399
 O1888 O 0.47394 0.33614 0.87306
 C1889 C 0.46481 0.34559 0.89468
 C1890 C 0.44300 0.33164 0.90883
 C1891 C 0.43363 0.30693 0.89972
 H1892 H 0.44309 0.29765 0.88272
 O1893 O 0.63213 0.59610 0.97430
 O1894 O 0.66324 0.62704 0.97425
 C1895 C 0.65380 0.60541 0.96519
 C1896 C 0.66774 0.59125 0.94339
 C1897 C 0.69253 0.60024 0.93412
 H1898 H 0.70186 0.61718 0.94363
 O1899 O 0.36749 0.40370 0.97434
 O1900 O 0.33641 0.37274 0.97441
 C1901 C 0.34581 0.39437 0.96530
 C1902 C 0.33183 0.40849 0.94350
 C1903 C 0.30706 0.39943 0.93425
 H1904 H 0.29778 0.38248 0.94378
 Cu1905 Cu 0.49978 0.38864 0.88884
 Cu1906 Cu 0.49992 0.35135 0.85162
 Cu1907 Cu 0.49968 0.61115 0.88911
 Cu1908 Cu 0.49963 0.64837 0.85180
 Cu1909 Cu 0.38860 0.49960 0.88888
 Cu1910 Cu 0.35134 0.49965 0.85165
 Cu1911 Cu 0.61088 0.49996 0.88905
 Cu1912 Cu 0.64813 0.50003 0.85177
 C1913 C 0.43030 0.43021 0.84388
 H1914 H 0.43723 0.43719 0.86307
 C1915 C 0.41152 0.41126 0.79470
 C1916 C 0.56904 0.56936 0.84422
 H1917 H 0.56228 0.56260 0.86355
 C1918 C 0.58741 0.58771 0.79466
 C1919 C 0.34386 0.43037 0.93094
 H1920 H 0.36313 0.43721 0.93773
 C1921 C 0.29444 0.41177 0.91251
 C1922 C 0.65565 0.56939 0.93086
 H1923 H 0.63636 0.56259 0.93766
 C1924 C 0.70513 0.58783 0.91241
 C1925 C 0.43053 0.34368 0.93077
 H1926 H 0.43741 0.36291 0.93765
 C1927 C 0.41188 0.29436 0.91209
 C1928 C 0.56898 0.65604 0.93090
 H1929 H 0.56220 0.63674 0.93769
 C1930 C 0.58738 0.70554 0.91249
 C1931 C 0.43046 0.56906 0.84422
 H1932 H 0.43717 0.56233 0.86358
 C1933 C 0.41224 0.58733 0.79458
 C1934 C 0.56914 0.43057 0.84409
 H1935 H 0.56226 0.43737 0.86337
 C1936 C 0.58781 0.41213 0.79468
 C1937 C 0.56918 0.34395 0.93085
 H1938 H 0.56231 0.36322 0.93766
 C1939 C 0.58785 0.29457 0.91238
 C1940 C 0.43029 0.65594 0.93090
 H1941 H 0.43713 0.63666 0.93770
 C1942 C 0.41173 0.70538 0.91247
 C1943 C 0.34377 0.56914 0.93068
 H1944 H 0.36299 0.56223 0.93758
 C1945 C 0.29448 0.58787 0.91196
 C1946 C 0.65585 0.43061 0.93082
 H1947 H 0.63659 0.43743 0.93769
 C1948 C 0.70524 0.41213 0.91216
 O1949 O 0.52584 0.40401 1.13316
 O1950 O 0.52588 0.37303 1.16427
 C1951 C 0.53493 0.39468 1.15483
 C1952 C 0.55674 0.40882 1.16876
 C1953 C 0.56606 0.39979 1.19353
 H1954 H 0.55656 0.38285 1.20287
 O1955 O 0.47378 0.59603 1.13291
 O1956 O 0.47377 0.62701 1.16400
 C1957 C 0.46469 0.60537 1.15458
 C1958 C 0.44286 0.59128 1.16854
 C1959 C 0.43351 0.60045 1.19324
 H1960 H 0.44302 0.61743 1.20249
 O1961 O 0.36726 0.52587 1.09654
 O1962 O 0.33611 0.52587 1.12746
 C1963 C 0.34555 0.53493 1.10581
 C1964 C 0.33159 0.55669 1.09160
 C1965 C 0.30684 0.56605 1.10064
 H1966 H 0.29754 0.55663 1.11766
 O1967 O 0.63238 0.47393 1.09650
 O1968 O 0.66352 0.47394 1.12742
 C1969 C 0.65407 0.46485 1.10579
 C1970 C 0.66799 0.44305 1.09161
 C1971 C 0.69277 0.43369 1.10059
 H1972 H 0.70211 0.44312 1.11757
 O1973 O 0.59591 0.36755 1.02628
 O1974 O 0.62687 0.33645 1.02629
 C1975 C 0.60525 0.34590 1.03540
 C1976 C 0.59117 0.33199 1.05728
 C1977 C 0.60025 0.30725 1.06659
 H1978 H 0.61718 0.29793 1.05704
 O1979 O 0.40353 0.63233 1.02628
 O1980 O 0.37253 0.66338 1.02629
 C1981 C 0.39417 0.65397 1.03540
 C1982 C 0.40826 0.66792 1.05725
 C1983 C 0.39916 0.69265 1.06660
 H1984 H 0.38218 0.70194 1.05712
 O1985 O 0.40379 0.47404 1.13307
 O1986 O 0.37278 0.47399 1.16414
 C1987 C 0.39444 0.46493 1.15473
 C1988 C 0.40855 0.44310 1.16868
 C1989 C 0.39940 0.43374 1.19339
 H1990 H 0.38242 0.44323 1.20267
 O1991 O 0.59591 0.52592 1.13286
 O1992 O 0.62691 0.52601 1.16393
 C1993 C 0.60526 0.53507 1.15449
 C1994 C 0.59113 0.55691 1.16840
 C1995 C 0.60022 0.56628 1.19313
 H1996 H 0.61719 0.55681 1.20243
 O1997 O 0.47403 0.36754 1.09660
 O1998 O 0.47403 0.33640 1.12755
 C1999 C 0.46498 0.34584 1.10589
 C2000 C 0.44327 0.33185 1.09167
 C2001 C 0.43404 0.30704 1.10065
 H2002 H 0.44353 0.29774 1.11763
 O2003 O 0.52563 0.63254 1.09640
 O2004 O 0.52564 0.66366 1.12735
 C2005 C 0.53471 0.65422 1.10570
 C2006 C 0.55650 0.66816 1.09155
 C2007 C 0.56580 0.69293 1.10058
 H2008 H 0.55629 0.70225 1.11753
 O2009 O 0.36758 0.40371 1.02630
 O2010 O 0.33650 0.37274 1.02640
 C2011 C 0.34594 0.39438 1.03545
 C2012 C 0.33200 0.40853 1.05728
 C2013 C 0.30722 0.39949 1.06656
 H2014 H 0.29792 0.38254 1.05705
 O2015 O 0.63213 0.59603 1.02623
 O2016 O 0.66325 0.62697 1.02622
 C2017 C 0.65382 0.60532 1.03529
 C2018 C 0.66782 0.59112 1.05702
 C2019 C 0.69269 0.60003 1.06615
 H2020 H 0.70202 0.61694 1.05657
 O2021 O 0.52573 0.59607 1.13285
 O2022 O 0.52575 0.62704 1.16395
 C2023 C 0.53485 0.60541 1.15450
 C2024 C 0.55671 0.59130 1.16841
 C2025 C 0.56609 0.60039 1.19315
 H2026 H 0.55661 0.61736 1.20246
 O2027 O 0.47390 0.40390 1.13316
 O2028 O 0.47388 0.37292 1.16426
 C2029 C 0.46477 0.39455 1.15482
 C2030 C 0.44291 0.40867 1.16873
 C2031 C 0.43347 0.39958 1.19346
 H2032 H 0.44290 0.38258 1.20278
 O2033 O 0.63233 0.52584 1.09637
 O2034 O 0.66348 0.52591 1.12728
 C2035 C 0.65401 0.53494 1.10563
 C2036 C 0.66792 0.55671 1.09140
 C2037 C 0.69279 0.56589 1.10026
 H2038 H 0.70220 0.55634 1.11714
 O2039 O 0.36743 0.47394 1.09654
 O2040 O 0.33627 0.47389 1.12746
 C2041 C 0.34577 0.46480 1.10583
 C2042 C 0.33191 0.44295 1.09168
 C2043 C 0.30713 0.43362 1.10067
 H2044 H 0.29776 0.44312 1.11761
 O2045 O 0.59574 0.63254 1.02628
 O2046 O 0.62670 0.66363 1.02629
 C2047 C 0.60507 0.65420 1.03537
 C2048 C 0.59092 0.66815 1.05717
 C2049 C 0.59994 0.69291 1.06648
 H2050 H 0.61690 0.70223 1.05699
 O2051 O 0.40409 0.36731 1.02622
 O2052 O 0.37316 0.33619 1.02633
 C2053 C 0.39480 0.34565 1.03536
 C2054 C 0.40897 0.33175 1.05717
 C2055 C 0.40003 0.30694 1.06644
 H2056 H 0.38314 0.29756 1.05689
 O2057 O 0.59596 0.47400 1.13301
 O2058 O 0.62695 0.47402 1.16409
 C2059 C 0.60530 0.46494 1.15469
 C2060 C 0.59116 0.44317 1.16869
 C2061 C 0.60021 0.43387 1.19346
 H2062 H 0.61719 0.44334 1.20275
 O2063 O 0.40365 0.52598 1.13307
 O2064 O 0.37266 0.52599 1.16415
 C2065 C 0.39429 0.53510 1.15472
 C2066 C 0.40841 0.55696 1.16863
 C2067 C 0.39931 0.56643 1.19334
 H2068 H 0.38231 0.55703 1.20267
 O2069 O 0.47369 0.63245 1.09642
 O2070 O 0.47366 0.66357 1.12737
 C2071 C 0.46456 0.65410 1.10575
 C2072 C 0.44269 0.66798 1.09163
 C2073 C 0.43331 0.69272 1.10069
 H2074 H 0.44279 0.70205 1.11765
 O2075 O 0.52594 0.36758 1.09669
 O2076 O 0.52599 0.33645 1.12764
 C2077 C 0.53507 0.34591 1.10600
 C2078 C 0.55688 0.33200 1.09181
 C2079 C 0.56625 0.30725 1.10084
 H2080 H 0.55683 0.29793 1.11785
 O2081 O 0.63233 0.40400 1.02620
 O2082 O 0.66343 0.37303 1.02620
 C2083 C 0.65400 0.39467 1.03529
 C2084 C 0.66795 0.40877 1.05710
 C2085 C 0.69272 0.39970 1.06634
 H2086 H 0.70202 0.38278 1.05677
 O2087 O 0.36718 0.59579 1.02618
 O2088 O 0.33603 0.62671 1.02617
 C2089 C 0.34549 0.60509 1.03526
 C2090 C 0.33157 0.59096 1.05708
 C2091 C 0.30682 0.60004 1.06639
 H2092 H 0.29751 0.61697 1.05685
 Cu2093 Cu 0.49992 0.38886 1.11181
 Cu2094 Cu 0.49994 0.35158 1.14905
 Cu2095 Cu 0.49971 0.61117 1.11154
 Cu2096 Cu 0.49970 0.64843 1.14879
 Cu2097 Cu 0.38887 0.38858 1.00026
 Cu2098 Cu 0.35164 0.35132 1.00038
 Cu2099 Cu 0.61102 0.38885 1.00025
 Cu2100 Cu 0.64826 0.35159 1.00025
 Cu2101 Cu 0.38850 0.61098 1.00025
 Cu2102 Cu 0.35120 0.64818 1.00023
 Cu2103 Cu 0.61081 0.61120 1.00029
 Cu2104 Cu 0.64807 0.64844 1.00027
 Cu2105 Cu 0.38864 0.49997 1.11171
 Cu2106 Cu 0.35134 0.49993 1.14892
 Cu2107 Cu 0.61104 0.49991 1.11159
 Cu2108 Cu 0.64833 0.49998 1.14880
 C2109 C 0.56925 0.43068 1.15665
 H2110 H 0.56241 0.43750 1.13737
 C2111 C 0.58782 0.41215 1.20607
 C2112 C 0.43035 0.56937 1.15654
 H2113 H 0.43723 0.56244 1.13731
 C2114 C 0.41172 0.58821 1.20583
 C2115 C 0.34365 0.56912 1.06965
 H2116 H 0.36291 0.56227 1.06282
 C2117 C 0.29428 0.58776 1.08819
 C2118 C 0.65589 0.43060 1.06970
 H2119 H 0.63661 0.43745 1.06290
 C2120 C 0.70532 0.41199 1.08810
 C2121 C 0.56932 0.34407 1.06987
 H2122 H 0.56245 0.36333 1.06303
 C2123 C 0.58796 0.29468 1.08839
 C2124 C 0.43019 0.65589 1.06974
 H2125 H 0.43707 0.63665 1.06289
 C2126 C 0.41153 0.70524 1.08834
 C2127 C 0.43046 0.43059 1.15665
 H2128 H 0.43737 0.43747 1.13742
 C2129 C 0.41169 0.41196 1.20597
 C2130 C 0.56921 0.56940 1.15635
 H2131 H 0.56234 0.56252 1.13710
 C2132 C 0.58786 0.58804 1.20569
 C2133 C 0.43076 0.34391 1.06976
 H2134 H 0.43752 0.36322 1.06297
 C2135 C 0.41240 0.29440 1.08820
 C2136 C 0.56903 0.65608 1.06968
 H2137 H 0.56221 0.63681 1.06285
 C2138 C 0.58754 0.70549 1.08821
 C2139 C 0.34404 0.43042 1.06981
 H2140 H 0.36332 0.43726 1.06300
 C2141 C 0.29460 0.41187 1.08828
 C2142 C 0.65573 0.56929 1.06962
 H2143 H 0.63638 0.56256 1.06292
 C2144 C 0.70536 0.58757 1.08778
 N2145 N 1.13042 1.09699 1.26562
 C2146 C 1.11923 1.11856 1.27753
 N2147 N 1.09755 1.12978 1.26585
 N2148 N 1.08766 1.12005 1.24326
 C2149 C 1.09897 1.09861 1.23131
 N2150 N 1.12052 1.08725 1.24303
 N2151 N 1.09686 0.62896 0.76571
 C2152 C 1.11844 0.61763 0.77742
 N2153 N 1.12971 0.59612 0.76555
 N2154 N 1.11992 0.58645 0.74288
 C2155 C 1.09844 0.59788 0.73109
 N2156 N 1.08708 0.61930 0.74304
 N2157 N 0.62985 1.09654 0.76533
 C2158 C 0.61857 1.11803 0.77725
 N2159 N 0.59695 1.12933 0.76558
 N2160 N 0.58715 1.11968 0.74292
 C2161 C 0.59852 1.09830 0.73092
 N2162 N 0.62004 1.08689 0.74267
 N2163 N 0.59664 0.62955 1.26590
 C2164 C 0.61826 0.61831 1.27769
 N2165 N 0.62949 0.59674 1.26583
 N2166 N 0.61972 0.58701 1.24319
 C2167 C 0.59825 0.59839 1.23135
 N2168 N 0.58687 0.61982 1.24326
 N2169 N 0.90330 0.87059 1.26580
 C2170 C 0.88171 0.88181 1.27764
 N2171 N 0.87046 0.90341 1.26581
 N2172 N 0.88019 0.91316 1.24316
 C2173 C 0.90165 0.90179 1.23128
 N2174 N 0.91303 0.88034 1.24315
 N2175 N 0.90305 0.37038 0.76575
 C2176 C 0.88143 0.38161 0.77755
 N2177 N 0.87017 0.40316 0.76567
 N2178 N 0.87992 0.41288 0.74300
 C2179 C 0.90140 0.40151 0.73117
 N2180 N 0.91280 0.38009 0.74309
 N2181 N 0.40310 0.87091 0.76586
 C2182 C 0.38153 0.88225 0.77758
 N2183 N 0.37027 0.90377 0.76570
 N2184 N 0.38006 0.91342 0.74302
 C2185 C 0.40154 0.90198 0.73122
 N2186 N 0.41289 0.88056 0.74319
 N2187 N 0.40270 0.37051 1.26620
 C2188 C 0.38103 0.38173 1.27790
 N2189 N 0.36982 0.40327 1.26596
 N2190 N 0.37968 0.41299 1.24335
 C2191 C 0.40122 0.40162 1.23161
 N2192 N 0.41256 0.38022 1.24359
 N2193 N 0.90248 1.12990 0.73420
 C2194 C 0.88078 1.11869 0.72254
 N2195 N 0.86960 1.09714 0.73449
 N2196 N 0.87951 1.08740 0.75707
 C2197 C 0.90109 1.09874 0.76876
 N2198 N 0.91240 1.12016 0.75678
 N2199 N 0.87162 0.59570 0.23380
 C2200 C 0.88294 0.61718 0.22193
 N2201 N 0.90443 0.62856 0.23375
 N2202 N 0.91405 0.61898 0.25652
 C2203 C 0.90262 0.59759 0.26847
 N2204 N 0.88124 0.58611 0.25657
 N2205 N 0.37031 1.09666 0.23426
 C2206 C 0.38157 1.11821 0.22238
 N2207 N 0.40315 1.12947 0.23420
 N2208 N 0.41287 1.11978 0.25689
 C2209 C 0.40147 1.09837 0.26881
 N2210 N 0.38003 1.08697 0.25695
 N2211 N 0.40399 0.62853 0.73409
 C2212 C 0.38256 0.61716 0.72219
 N2213 N 0.37120 0.59565 0.73400
 N2214 N 0.38077 0.58604 0.75678
 C2215 C 0.40211 0.59751 0.76877
 N2216 N 0.41356 0.61892 0.75687
 N2217 N 1.09686 0.87098 0.73422
 C2218 C 1.11844 0.88229 0.72251
 N2219 N 1.12973 0.90379 0.73438
 N2220 N 1.11995 0.91345 0.75706
 C2221 C 1.09847 0.90203 0.76886
 N2222 N 1.08709 0.88064 0.75690
 N2223 N 1.12942 0.40410 0.23410
 C2224 C 1.11813 0.38261 0.22223
 N2225 N 1.09659 0.37126 0.23399
 N2226 N 1.08687 0.38087 0.25670
 C2227 C 1.09826 0.40226 0.26867
 N2228 N 1.11970 0.41372 0.25682
 N2229 N 0.59660 0.87054 0.23412
 C2230 C 0.61819 0.88178 0.22231
 N2231 N 0.62941 0.90337 0.23415
 N2232 N 0.61964 0.91311 0.25679
 C2233 C 0.59818 0.90172 0.26864
 N2234 N 0.58682 0.88027 0.25676
 N2235 N 0.62955 0.40368 0.73455
 C2236 C 0.61829 0.38219 0.72264
 N2237 N 0.59669 0.37087 0.73432
 N2238 N 0.58688 0.38051 0.75699
 C2239 C 0.59824 0.40190 0.76898
 N2240 N 0.61974 0.41332 0.75722
 N2241 N 1.26563 1.12897 1.09677
 C2242 C 1.27738 1.11762 1.11833
 N2243 N 1.26551 1.09612 1.12963
 N2244 N 1.24281 1.08650 1.11991
 C2245 C 1.23098 1.09794 1.09845
 N2246 N 1.24293 1.11934 1.08705
 N2247 N 1.26594 0.62859 0.59574
 C2248 C 1.27779 0.61721 0.61722
 N2249 N 1.26595 0.59572 0.62858
 N2250 N 1.24319 0.58613 0.61898
 C2251 C 1.23126 0.59761 0.59760
 N2252 N 1.24318 0.61900 0.58614
 N2253 N 0.76546 1.09713 0.63038
 C2254 C 0.77737 1.11870 0.61918
 N2255 N 0.76569 1.12990 0.59747
 N2256 N 0.74313 1.12015 0.58756
 C2257 C 0.73118 1.09871 0.59889
 N2258 N 0.74289 1.08738 0.62047
 N2259 N 0.76585 0.62873 1.09592
 C2260 C 0.77778 0.61734 1.11735
 N2261 N 0.76598 0.59584 1.12874
 N2262 N 0.74319 0.58625 1.11921
 C2263 C 0.73119 0.59774 1.09788
 N2264 N 0.74306 0.61913 1.08639
 N2265 N 1.26554 0.90315 0.87051
 C2266 C 1.27737 0.88156 0.88175
 N2267 N 1.26554 0.87030 0.90334
 N2268 N 1.24289 0.88003 0.91309
 C2269 C 1.23102 0.90149 0.90172
 N2270 N 1.24289 0.91288 0.88026
 N2271 N 1.26578 0.37047 0.40278
 C2272 C 1.27753 0.38169 0.38113
 N2273 N 1.26564 0.40324 0.36988
 N2274 N 1.24301 0.41296 0.37969
 C2275 C 1.23122 0.40160 0.40122
 N2276 N 1.24316 0.38019 0.41259
 N2277 N 0.76557 0.90385 0.37026
 C2278 C 0.77743 0.88236 0.38159
 N2279 N 0.76567 0.87103 0.40314
 N2280 N 0.74297 0.88067 0.41285
 C2281 C 0.73102 0.90206 0.40143
 N2282 N 0.74287 0.91349 0.37997
 N2283 N 0.76536 0.40368 0.87046
 C2284 C 0.77727 0.38219 0.88173
 N2285 N 0.76558 0.37085 0.90333
 N2286 N 0.74291 0.38048 0.91312
 C2287 C 0.73092 0.40188 0.90176
 N2288 N 0.74269 0.41332 0.88025
 N2289 N 0.73434 0.87105 1.09686
 C2290 C 0.72256 0.88236 1.11841
 N2291 N 0.73438 0.90388 1.12972
 N2292 N 0.75706 0.91357 1.11999
 C2293 C 0.76892 0.90216 1.09853
 N2294 N 0.75702 0.88074 1.08713
 N2295 N 0.73430 0.37027 0.59689
 C2296 C 0.72248 0.38151 0.61850
 N2297 N 0.73433 0.40307 0.62975
 N2298 N 0.75697 0.41281 0.61999
 C2299 C 0.76882 0.40144 0.59851
 N2300 N 0.75694 0.38000 0.58713
 N2301 N 0.23444 0.90307 0.62965
 C2302 C 0.22261 0.88148 0.61840
 N2303 N 0.23446 0.87023 0.59682
 N2304 N 0.25710 0.87997 0.58707
 C2305 C 0.26896 0.90143 0.59845
 N2306 N 0.25708 0.91281 0.61991
 N2307 N 0.23431 0.37045 1.09675
 C2308 C 0.22240 0.38173 1.11828
 N2309 N 0.23422 0.40329 1.12957
 N2310 N 0.25693 0.41298 1.11993
 C2311 C 0.26887 0.40157 1.09853
 N2312 N 0.25702 0.38014 1.08710
 N2313 N 0.73452 1.13005 0.90302
 C2314 C 0.72274 1.11881 0.88140
 N2315 N 0.73461 1.09725 0.87016
 N2316 N 0.75726 1.08753 0.87993
 C2317 C 0.76908 1.09890 0.90141
 N2318 N 0.75717 1.12033 0.91279
 N2319 N 0.73436 0.62904 0.40314
 C2320 C 0.72262 0.61772 0.38157
 N2321 N 0.73451 0.59624 0.37025
 N2322 N 0.75720 0.58660 0.37998
 C2323 C 0.76902 0.59802 0.40146
 N2324 N 0.75705 0.61941 0.41287
 N2325 N 0.23433 1.12982 0.40256
 C2326 C 0.22264 1.11859 0.38088
 N2327 N 0.23456 1.09703 0.36968
 N2328 N 0.25716 1.08731 0.37957
 C2329 C 0.26888 1.09868 0.40111
 N2330 N 0.25693 1.12010 0.41244
 N2331 N 0.23436 0.59671 0.87033
 C2332 C 0.22255 0.61832 0.88157
 N2333 N 0.23439 0.62954 0.90316
 N2334 N 0.25701 0.61976 0.91293
 C2335 C 0.26885 0.59829 0.90156
 N2336 N 0.25698 0.58693 0.88009
 N2337 N 1.09656 1.26609 1.12882
 C2338 C 1.11814 1.27777 1.11746
 N2339 N 1.12943 1.26583 1.09599
 N2340 N 1.11967 1.24313 1.08640
 C2341 C 1.09819 1.23137 1.09787
 N2342 N 1.08680 1.24340 1.11924
 N2343 N 1.12966 0.76557 0.59618
 C2344 C 1.11842 0.77744 0.61772
 N2345 N 1.09686 0.76573 0.62909
 N2346 N 1.08707 0.74307 0.61944
 C2347 C 1.09841 0.73112 0.59801
 N2348 N 1.11987 0.74292 0.58654
 N2349 N 0.62966 1.26559 0.59620
 C2350 C 0.61834 1.27748 0.61769
 N2351 N 0.59673 1.26579 0.62897
 N2352 N 0.58696 1.24313 0.61929
 C2353 C 0.59838 1.23117 0.59790
 N2354 N 0.61989 1.24294 0.58652
 N2355 N 0.62897 0.76574 1.09684
 C2356 C 0.61766 0.77753 1.11838
 N2357 N 0.59612 0.76573 1.12969
 N2358 N 0.58642 0.74306 1.11997
 C2359 C 0.59784 0.73119 1.09852
 N2360 N 0.61928 0.74307 1.08712
 N2361 N 0.90384 1.26573 0.87039
 C2362 C 0.88235 1.27758 0.88174
 N2363 N 0.87110 1.26586 0.90336
 N2364 N 0.88081 1.24321 0.91310
 C2365 C 0.90220 1.23126 0.90166
 N2366 N 0.91355 1.24307 0.88014
 N2367 N 0.90384 0.76571 0.37037
 C2368 C 0.88231 0.77755 0.38165
 N2369 N 0.87097 0.76579 0.40320
 N2370 N 0.88062 0.74311 0.41294
 C2371 C 0.90205 0.73118 0.40157
 N2372 N 0.91350 0.74303 0.38012
 N2373 N 0.40322 1.26593 0.37070
 C2374 C 0.38165 1.27769 0.38199
 N2375 N 0.37036 1.26590 0.40354
 N2376 N 0.38011 1.24326 0.41329
 C2377 C 0.40158 1.23141 0.40190
 N2378 N 0.41297 1.24329 0.38045
 N2379 N 0.37015 0.76556 0.90398
 C2380 C 0.38145 0.77744 0.88248
 N2381 N 0.40303 0.76572 0.87116
 N2382 N 0.41278 0.74304 0.88081
 C2383 C 0.40138 0.73108 0.90222
 N2384 N 0.37990 0.74289 0.91364
 N2385 N 1.12965 0.73435 0.90376
 C2386 C 1.11843 0.72249 0.88222
 N2387 N 1.09687 0.73420 0.87086
 N2388 N 1.08706 0.75685 0.88051
 C2389 C 1.09838 0.76880 0.90196
 N2390 N 1.11984 0.75700 0.91341
 N2391 N 1.12983 0.23434 0.40320
 C2392 C 1.11855 0.22258 0.38163
 N2393 N 1.09698 0.23435 0.37036
 N2394 N 1.08722 0.25697 0.38014
 C2395 C 1.09860 0.26882 0.40162
 N2396 N 1.12007 0.25696 0.41298
 N2397 N 0.62902 0.73422 0.40328
 C2398 C 0.61767 0.72245 0.38174
 N2399 N 0.59614 0.73429 0.37047
 N2400 N 0.58648 0.75697 0.38020
 C2401 C 0.59792 0.76882 0.40164
 N2402 N 0.61936 0.75690 0.41301
 N2403 N 0.59676 0.23433 0.87098
 C2404 C 0.61837 0.22266 0.88228
 N2405 N 0.62963 0.23453 0.90380
 N2406 N 0.61980 0.25715 0.91350
 C2407 C 0.59828 0.26891 0.90210
 N2408 N 0.58693 0.25696 0.88067
 N2409 N 0.90420 0.73397 1.12855
 C2410 C 0.88268 0.72220 1.11720
 N2411 N 0.87127 0.73414 1.09579
 N2412 N 0.88086 0.75692 1.08625
 C2413 C 0.90229 0.76878 1.09769
 N2414 N 0.91379 0.75676 1.11900
 N2415 N 0.90304 0.23443 0.62966
 C2416 C 0.88146 0.22269 0.61839
 N2417 N 0.87020 0.23446 0.59681
 N2418 N 0.88000 0.25706 0.58702
 C2419 C 0.90148 0.26889 0.59838
 N2420 N 0.91284 0.25703 0.61987
 N2421 N 0.37129 0.73391 0.59579
 C2422 C 0.38261 0.72210 0.61732
 N2423 N 0.40405 0.73397 0.62872
 N2424 N 0.41364 0.75674 0.61912
 C2425 C 0.40222 0.76864 0.59769
 N2426 N 0.38088 0.75667 0.58619
 N2427 N 0.40386 0.23413 1.12965
 C2428 C 0.38239 0.22229 1.11829
 N2429 N 0.37112 0.23405 1.09670
 N2430 N 0.38079 0.25674 1.08701
 C2431 C 0.40216 0.26867 1.09847
 N2432 N 0.41353 0.25683 1.11996
 N2433 N 1.12948 1.09660 0.73397
 C2434 C 1.11819 1.11818 0.72216
 N2435 N 1.09665 1.12943 0.73407
 N2436 N 1.08700 1.11970 0.75677
 C2437 C 1.09842 1.09825 0.76861
 N2438 N 1.11983 1.08686 0.75666
 N2439 N 1.09701 0.63038 0.23453
 C2440 C 1.11852 0.61917 0.22255
 N2441 N 1.12974 0.59746 0.23419
 N2442 N 1.12005 0.58757 0.25681
 C2443 C 1.09867 0.59892 0.26883
 N2444 N 1.08732 0.62049 0.25714
 N2445 N 0.59593 1.12959 0.23419
 C2446 C 0.61744 1.11829 0.22234
 N2447 N 0.62873 1.09671 0.23406
 N2448 N 0.61904 1.08695 0.25673
 C2449 C 0.59763 1.09834 0.26867
 N2450 N 0.58624 1.11983 0.25686
 N2451 N 0.62868 0.59605 0.73422
 C2452 C 0.61736 0.61755 0.72237
 N2453 N 0.59587 0.62892 0.73419
 N2454 N 0.58622 0.61931 0.75694
 C2455 C 0.59764 0.59791 0.76888
 N2456 N 0.61903 0.58644 0.75697
 N2457 N 0.87124 0.90412 0.73410
 C2458 C 0.88260 0.88263 0.72227
 N2459 N 0.90410 0.87130 0.73412
 N2460 N 0.91371 0.88094 0.75687
 C2461 C 0.90225 0.90233 0.76877
 N2462 N 0.88085 0.91376 0.75684
 N2463 N 0.87122 0.40329 0.23415
 C2464 C 0.88252 0.38171 0.22243
 N2465 N 0.90403 0.37042 0.23429
 N2466 N 0.91371 0.38019 0.25695
 C2467 C 0.90231 0.40167 0.26876
 N2468 N 0.88090 0.41306 0.25682
 N2469 N 0.37092 0.90339 0.23405
 C2470 C 0.38226 0.88179 0.22238
 N2471 N 0.40374 0.87053 0.23431
 N2472 N 0.41336 0.88035 0.25698
 C2473 C 0.40191 0.90184 0.26873
 N2474 N 0.38053 0.91320 0.25672
 N2475 N 0.40273 0.36923 0.73482
 C2476 C 0.38118 0.38043 0.72288
 N2477 N 0.36997 0.40212 0.73456
 N2478 N 0.37970 0.41202 0.75714
 C2479 C 0.40113 0.40070 0.76911
 N2480 N 0.41247 0.37914 0.75740
 N2481 N 1.09679 0.86983 1.26586
 C2482 C 1.11833 0.88106 1.27777
 N2483 N 1.12952 0.90274 1.26607
 N2484 N 1.11978 0.91260 1.24346
 C2485 C 1.09837 0.90124 1.23151
 N2486 N 1.08704 0.87969 1.24325
 N2487 N 1.09624 0.37024 0.76559
 C2488 C 1.11776 0.38149 0.77746
 N2489 N 1.12910 0.40305 0.76574
 N2490 N 1.11946 0.41283 0.74306
 C2491 C 1.09804 0.40149 0.73111
 N2492 N 1.08660 0.38002 0.74292
 N2493 N 0.59590 0.87132 0.76584
 C2494 C 0.61740 0.88265 0.77767
 N2495 N 0.62876 0.90414 0.76583
 N2496 N 0.61915 0.91376 0.74307
 C2497 C 0.59775 0.90233 0.73116
 N2498 N 0.58629 0.88095 0.74309
 N2499 N 0.62933 0.40347 1.26629
 C2500 C 0.61808 0.38190 1.27814
 N2501 N 0.59649 0.37066 1.26631
 N2502 N 0.58676 0.38040 1.24365
 C2503 C 0.59815 0.40183 1.23177
 N2504 N 0.61959 0.41321 1.24363
 N2505 N 0.90360 1.12951 1.26614
 C2506 C 0.88202 1.11826 1.27797
 N2507 N 0.87077 1.09669 1.26611
 N2508 N 0.88050 1.08699 1.24344
 C2509 C 0.90194 1.09838 1.23157
 N2510 N 0.91334 1.11980 1.24347
 N2511 N 0.87092 0.59621 0.76570
 C2512 C 0.88225 0.61772 0.77751
 N2513 N 0.90377 0.62903 0.76569
 N2514 N 0.91344 0.61934 0.74298
 C2515 C 0.90202 0.59793 0.73109
 N2516 N 0.88059 0.58652 0.74300
 N2517 N 0.40378 1.12964 0.76545
 C2518 C 0.38229 1.11837 0.77737
 N2519 N 0.37095 1.09680 0.76567
 N2520 N 0.38056 1.08703 0.74297
 C2521 C 0.40195 1.09840 0.73097
 N2522 N 0.41339 1.11987 0.74276
 N2523 N 0.40308 0.63023 1.26572
 C2524 C 0.38156 0.61904 1.27771
 N2525 N 0.37033 0.59733 1.26608
 N2526 N 0.38002 0.58742 1.24348
 C2527 C 0.40140 0.59874 1.23145
 N2528 N 0.41277 0.62031 1.24312
 N2529 N 1.12967 1.26544 0.90315
 C2530 C 1.11844 1.27728 0.88155
 N2531 N 1.09689 1.26544 0.87027
 N2532 N 1.08716 1.24278 0.87998
 C2533 C 1.09852 1.23090 0.90145
 N2534 N 1.11994 1.24278 0.91287
 N2535 N 1.12976 0.76584 0.40267
 C2536 C 1.11852 0.77759 0.38102
 N2537 N 1.09697 0.76570 0.36980
 N2538 N 1.08725 0.74308 0.37962
 C2539 C 1.09863 0.73129 0.40114
 N2540 N 1.12005 0.74322 0.41249
 N2541 N 0.59607 1.26573 0.37074
 C2542 C 0.61759 1.27755 0.38203
 N2543 N 0.62897 1.26575 0.40353
 N2544 N 0.61935 1.24303 0.41323
 C2545 C 0.59792 1.23112 0.40185
 N2546 N 0.58645 1.24301 0.38044
 N2547 N 0.62870 0.76590 0.90409
 C2548 C 0.61738 0.77775 0.88257
 N2549 N 0.59588 0.76594 0.87121
 N2550 N 0.58622 0.74322 0.88084
 C2551 C 0.59763 0.73129 0.90226
 N2552 N 0.61904 0.74318 0.91372
 N2553 N 0.87042 1.26563 1.09688
 C2554 C 0.88167 1.27752 1.11843
 N2555 N 0.90329 1.26575 1.12967
 N2556 N 0.91307 1.24310 1.11996
 C2557 C 0.90169 1.23118 1.09855
 N2558 N 0.88020 1.24299 1.08717
 N2559 N 0.90411 0.76582 0.62880
 C2560 C 0.88263 0.77768 0.61743
 N2561 N 0.87129 0.76585 0.59593
 N2562 N 0.88090 0.74310 0.58631
 C2563 C 0.90227 0.73117 0.59777
 N2564 N 0.91372 0.74307 0.61918
 N2565 N 0.37002 1.26548 0.59768
 C2566 C 0.38122 1.27712 0.61940
 N2567 N 0.40278 1.26518 0.63058
 N2568 N 0.41253 1.24262 0.62065
 C2569 C 0.40119 1.23094 0.59906
 N2570 N 0.37976 1.24292 0.58775
 N2571 N 0.37004 0.76549 1.09697
 C2572 C 0.38132 0.77736 1.11852
 N2573 N 0.40290 0.76552 1.12978
 N2574 N 0.41259 0.74284 1.12008
 C2575 C 0.40118 0.73093 1.09867
 N2576 N 0.37974 0.74281 1.08728
 N2577 N 0.90369 0.73450 0.87100
 C2578 C 0.88216 0.72271 0.88232
 N2579 N 0.87081 0.73456 0.90382
 N2580 N 0.88047 0.75728 0.91346
 C2581 C 0.90191 0.76915 0.90204
 N2582 N 0.91336 0.75721 0.88065
 N2583 N 0.87115 0.23422 0.40349
 C2584 C 0.88251 0.22245 0.38196
 N2585 N 0.90403 0.23429 0.37067
 N2586 N 0.91367 0.25698 0.38039
 C2587 C 0.90220 0.26885 0.40182
 N2588 N 0.88078 0.25692 0.41320
 N2589 N 0.40300 0.73457 0.36961
 C2590 C 0.38146 0.72266 0.38085
 N2591 N 0.37023 0.73438 0.40251
 N2592 N 0.37993 0.75700 0.41234
 C2593 C 0.40134 0.76895 0.40098
 N2594 N 0.41271 0.75719 0.37944
 N2595 N 0.37040 0.23416 0.90331
 C2596 C 0.38163 0.22238 0.88167
 N2597 N 0.40319 0.23426 0.87042
 N2598 N 0.41290 0.25690 0.88019
 C2599 C 0.40153 0.26871 0.90169
 N2600 N 0.38012 0.25680 0.91308
 N2601 N 1.12979 0.73441 1.09761
 C2602 C 1.11860 0.72269 1.11930
 N2603 N 1.09705 0.73461 1.13055
 N2604 N 1.08731 0.75721 1.12070
 C2605 C 1.09863 0.76896 1.09914
 N2606 N 1.12005 0.75702 1.08777
 N2607 N 1.09601 0.23435 0.62935
 C2608 C 1.11747 0.22242 0.61805
 N2609 N 1.12884 0.23413 0.59648
 N2610 N 1.11927 0.25685 0.58674
 C2611 C 1.09790 0.26886 0.59813
 N2612 N 1.08643 0.25706 0.61960
 N2613 N 0.62878 0.73423 0.59592
 C2614 C 0.61742 0.72240 0.61742
 N2615 N 0.59593 0.73423 0.62878
 N2616 N 0.58632 0.75698 0.61915
 C2617 C 0.59777 0.76890 0.59775
 N2618 N 0.61916 0.75698 0.58630
 N2619 N 0.59671 0.23435 1.12972
 C2620 C 0.61833 0.22259 1.11846
 N2621 N 0.62958 0.23452 1.09692
 N2622 N 0.61982 0.25720 1.08726
 C2623 C 0.59834 0.26899 1.09867
 N2624 N 0.58695 0.25702 1.12006
 N2625 N 1.26579 1.12945 0.90395
 C2626 C 1.27767 1.11818 0.88244
 N2627 N 1.26597 1.09661 0.87111
 N2628 N 1.24331 1.08683 0.88077
 C2629 C 1.23135 1.09819 0.90219
 N2630 N 1.24313 1.11967 0.91362
 N2631 N 1.26590 0.59682 0.37054
 C2632 C 1.27759 0.61843 0.38180
 N2633 N 1.26574 0.62973 0.40332
 N2634 N 1.24311 0.61995 0.41304
 C2635 C 1.23133 0.59843 0.40168
 N2636 N 1.24327 0.58704 0.38027
 N2637 N 0.76578 1.09616 0.37043
 C2638 C 0.77767 1.11760 0.38182
 N2639 N 0.76592 1.12888 0.40341
 N2640 N 0.74321 1.11923 0.41309
 C2641 C 0.73124 1.09789 0.40160
 N2642 N 0.74307 1.08652 0.38011
 N2643 N 0.76549 0.59630 0.87108
 C2644 C 0.77729 0.61782 0.88239
 N2645 N 0.76546 0.62917 0.90390
 N2646 N 0.74275 0.61951 0.91357
 C2647 C 0.73086 0.59808 0.90215
 N2648 N 0.74278 0.58664 0.88074
 N2649 N 1.26549 0.87045 1.09618
 C2650 C 1.27743 0.88173 1.11766
 N2651 N 1.26576 0.90332 1.12901
 N2652 N 1.24308 0.91310 1.11942
 C2653 C 1.23105 0.90173 1.09805
 N2654 N 1.24280 0.88024 1.08659
 N2655 N 1.26562 0.37010 0.59697
 C2656 C 1.27733 0.38131 0.61860
 N2657 N 1.26555 0.40288 0.62987
 N2658 N 1.24298 0.41270 0.62003
 C2659 C 1.23119 0.40139 0.59848
 N2660 N 1.24305 0.37992 0.58712
 N2661 N 0.76596 0.90408 0.62863
 C2662 C 0.77779 0.88258 0.61730
 N2663 N 0.76596 0.87120 0.59582
 N2664 N 0.74322 0.88082 0.58618
 C2665 C 0.73131 0.90223 0.59760
 N2666 N 0.74322 0.91370 0.61899
 N2667 N 0.76573 0.40316 1.12927
 C2668 C 0.77742 0.38159 1.11790
 N2669 N 0.76549 0.37034 1.09641
 N2670 N 0.74280 0.38013 1.08682
 C2671 C 0.73103 0.40160 1.09830
 N2672 N 0.74304 0.41295 1.11969
 N2673 N 0.73452 1.12988 1.09629
 C2674 C 0.72260 1.11858 1.11777
 N2675 N 0.73431 1.09700 1.12911
 N2676 N 0.75701 1.08725 1.11950
 C2677 C 0.76901 1.09865 1.09812
 N2678 N 0.75722 1.12013 1.08668
 N2679 N 0.73411 0.62885 0.59593
 C2680 C 0.72227 0.61750 0.61743
 N2681 N 0.73410 0.59599 0.62877
 N2682 N 0.75684 0.58637 0.61913
 C2683 C 0.76876 0.59782 0.59773
 N2684 N 0.75685 0.61923 0.58629
 N2685 N 0.23394 1.09591 0.62915
 C2686 C 0.22206 1.11739 0.61784
 N2687 N 0.23378 1.12873 0.59627
 N2688 N 0.25648 1.11911 0.58654
 C2689 C 0.26845 1.09772 0.59794
 N2690 N 0.25664 1.08628 0.61941
 N2691 N 0.23425 0.62953 1.09683
 C2692 C 0.22243 0.61833 1.11842
 N2693 N 0.23413 0.59674 1.12974
 N2694 N 0.25674 0.58689 1.12000
 C2695 C 0.26864 0.59819 1.09852
 N2696 N 0.25685 0.61968 1.08710
 N2697 N 0.73405 0.90417 0.87121
 C2698 C 0.72226 0.88266 0.88257
 N2699 N 0.73411 0.87134 0.90408
 N2700 N 0.75684 0.88101 0.91369
 C2701 C 0.76872 0.90242 0.90223
 N2702 N 0.75678 0.91384 0.88082
 N2703 N 0.73418 0.37108 0.40353
 C2704 C 0.72241 0.38240 0.38198
 N2705 N 0.73429 0.40387 0.37062
 N2706 N 0.75700 0.41350 0.38030
 C2707 C 0.76885 0.40208 0.40176
 N2708 N 0.75689 0.38071 0.41321
 N2709 N 0.23426 0.87048 0.40330
 C2710 C 0.22245 0.88176 0.38175
 N2711 N 0.23418 0.90334 0.37047
 N2712 N 0.25680 0.91312 0.38020
 C2713 C 0.26870 0.90174 0.40166
 N2714 N 0.25688 0.88025 0.41304
 N2715 N 0.23433 0.37013 0.90396
 C2716 C 0.22245 0.38144 0.88246
 N2717 N 0.23415 0.40304 0.87117
 N2718 N 0.25680 0.41281 0.88085
 C2719 C 0.26876 0.40140 0.90225
 N2720 N 0.25698 0.37990 0.91364
   
