data_POSCAR
  _audit_creation_date              2014-09-24
  _audit_creation_method            'ToBaCCo'
  _symmetry_space_group_name_H-M    'P1'
  _symmetry_Int_Tables_number       1
  _symmetry_cell_setting            triclinic
  loop_
  _symmetry_equiv_pos_as_xyz
 x,y,z
_cell_length_a 68.0436
_cell_length_b 67.0310
_cell_length_c 65.2910
_cell_angle_alpha 90.183600
_cell_angle_beta 90.006600
_cell_angle_gamma 89.956800
loop_
  _atom_site_label
  _atom_site_type_symbol
  _atom_site_fract_x
  _atom_site_fract_y
  _atom_site_fract_z
N1 N 0.37054 0.31233 0.33293
 N2 N 0.37201 0.32610 0.31875
 C3 C 0.38762 0.32212 0.30681
 C4 C 0.39649 0.30486 0.31380
 C5 C 0.38526 0.29902 0.33044
 H6 H 0.39167 0.33067 0.29346
 H7 H 0.38724 0.28573 0.33958
 Cu8 Cu 0.35248 0.34691 0.31543
 Cu9 Cu 0.34859 0.31209 0.35225
 Cu10 Cu 0.31316 0.34898 0.34630
 N11 N 0.33226 0.36701 0.31196
 N12 N 0.31717 0.36824 0.32444
 C13 C 0.30525 0.38308 0.31816
 C14 C 0.31334 0.39140 0.30071
 C15 C 0.33034 0.38076 0.29711
 H16 H 0.29136 0.38691 0.32524
 H17 H 0.34021 0.38259 0.28424
 N18 N 0.31158 0.32818 0.36750
 N19 N 0.32521 0.31439 0.37014
 C20 C 0.31940 0.30202 0.38526
 C21 C 0.30120 0.30830 0.39225
 C22 C 0.29669 0.32479 0.38062
 H23 H 0.32724 0.28882 0.39006
 H24 H 0.28319 0.33326 0.38132
 H25 H 0.32871 0.32571 0.33282
 H26 H 0.34246 0.34212 0.35097
 N27 N 0.37145 0.81558 -0.17014
 N28 N 0.37065 0.82877 -0.18498
 C29 C 0.38493 0.82452 -0.19872
 C30 C 0.39491 0.80764 -0.19215
 C31 C 0.38603 0.80259 -0.17382
 H32 H 0.38720 0.83237 -0.21297
 H33 H 0.38921 0.78991 -0.16422
 Cu34 Cu 0.34946 0.84857 -0.18537
 Cu35 Cu 0.35200 0.81387 -0.14856
 Cu36 Cu 0.31445 0.84860 -0.14883
 N37 N 0.32857 0.86867 -0.18498
 N38 N 0.31499 0.86836 -0.17062
 C39 C 0.30164 0.88268 -0.17435
 C40 C 0.30700 0.89256 -0.19210
 C41 C 0.32426 0.88337 -0.19834
 H42 H 0.28875 0.88524 -0.16505
 H43 H 0.33257 0.88666 -0.21204
 N44 N 0.31656 0.82741 -0.12806
 N45 N 0.33103 0.81430 -0.12799
 C46 C 0.32766 0.80071 -0.11330
 C47 C 0.31017 0.80542 -0.10370
 C48 C 0.30361 0.82252 -0.11328
 H49 H 0.33683 0.78787 -0.11040
 H50 H 0.28987 0.83015 -0.11039
 H51 H 0.32896 0.82651 -0.16481
 H52 H 0.34420 0.84375 -0.14884
 N53 N 0.86647 0.32156 -0.17426
 N54 N 0.86590 0.33558 -0.18830
 C55 C 0.88020 0.33222 -0.20211
 C56 C 0.89045 0.31539 -0.19638
 C57 C 0.88140 0.30895 -0.17858
 H58 H 0.88247 0.34081 -0.21591
 H59 H 0.88452 0.29537 -0.17029
 Cu60 Cu 0.84571 0.35613 -0.18869
 Cu61 Cu 0.84588 0.31895 -0.15353
 Cu62 Cu 0.80799 0.35338 -0.15575
 N63 N 0.82408 0.37518 -0.18947
 N64 N 0.80932 0.37385 -0.17659
 C65 C 0.79579 0.38775 -0.18118
 C66 C 0.80238 0.39842 -0.19798
 C67 C 0.82046 0.39014 -0.20272
 H68 H 0.78201 0.38950 -0.17316
 H69 H 0.82985 0.39419 -0.21542
 N70 N 0.80889 0.33185 -0.13553
 N71 N 0.82347 0.31893 -0.13413
 C72 C 0.81908 0.30557 -0.11935
 C73 C 0.80078 0.31036 -0.11138
 C74 C 0.79484 0.32701 -0.12197
 H75 H 0.82792 0.29270 -0.11551
 H76 H 0.78089 0.33458 -0.12032
 H77 H 0.82463 0.33196 -0.17149
 H78 H 0.83806 0.34841 -0.15307
 N79 N 0.87167 0.81998 0.31945
 N80 N 0.86932 0.83465 0.30635
 C81 C 0.88258 0.83273 0.29117
 C82 C 0.89400 0.81617 0.29517
 C83 C 0.88672 0.80842 0.31324
 H84 H 0.88344 0.84217 0.27780
 H85 H 0.89115 0.79470 0.32059
 Cu86 Cu 0.84811 0.85369 0.30995
 Cu87 Cu 0.85337 0.81524 0.34188
 Cu88 Cu 0.81447 0.84864 0.34688
 N89 N 0.82636 0.87226 0.31228
 N90 N 0.81304 0.87004 0.32669
 C91 C 0.79874 0.88369 0.32407
 C92 C 0.80342 0.89505 0.30704
 C93 C 0.82108 0.88748 0.30006
 H94 H 0.78574 0.88479 0.33350
 H95 H 0.82898 0.89218 0.28654
 N96 N 0.81866 0.82596 0.36562
 N97 N 0.83324 0.81309 0.36346
 C98 C 0.83097 0.79829 0.37714
 C99 C 0.81435 0.80211 0.38856
 C100 C 0.80689 0.81977 0.38092
 H101 H 0.84026 0.78524 0.37825
 H102 H 0.79329 0.82692 0.38536
 H103 H 0.82928 0.82863 0.32830
 H104 H 0.84442 0.84440 0.34576
 N105 N 0.62714 0.68954 0.32891
 N106 N 0.62778 0.67670 0.31368
 C107 C 0.61327 0.68090 0.30034
 C108 C 0.60297 0.69725 0.30768
 C109 C 0.61211 0.70228 0.32588
 H110 H 0.61074 0.67299 0.28613
 H111 H 0.60865 0.71486 0.33563
 Cu112 Cu 0.64839 0.65669 0.31223
 Cu113 Cu 0.64709 0.69004 0.35036
 Cu114 Cu 0.68383 0.65400 0.34780
 N115 N 0.66913 0.63685 0.31042
 N116 N 0.68262 0.63534 0.32476
 C117 C 0.69552 0.62095 0.31940
 C118 C 0.68980 0.61326 0.30060
 C119 C 0.67312 0.62373 0.29535
 H120 H 0.70867 0.61727 0.32789
 H121 H 0.66491 0.62227 0.28124
 N122 N 0.68245 0.67436 0.36974
 N123 N 0.66857 0.68812 0.37056
 C124 C 0.67273 0.70100 0.38581
 C125 C 0.69010 0.69513 0.39502
 C126 C 0.69577 0.67814 0.38455
 H127 H 0.66418 0.71416 0.38936
 H128 H 0.70923 0.66987 0.38686
 H129 H 0.66968 0.67736 0.33340
 H130 H 0.65419 0.66010 0.34886
 N131 N 0.62793 0.18885 -0.16768
 N132 N 0.62673 0.17576 -0.18267
 C133 C 0.61151 0.18060 -0.19489
 C134 C 0.60270 0.19757 -0.18714
 C135 C 0.61347 0.20240 -0.16981
 H136 H 0.60745 0.17285 -0.20883
 H137 H 0.61131 0.21506 -0.15978
 Cu138 Cu 0.64637 0.15493 -0.18593
 Cu139 Cu 0.64887 0.18798 -0.14728
 Cu140 Cu 0.68340 0.15005 -0.15232
 N141 N 0.66590 0.13396 -0.18885
 N142 N 0.68007 0.13175 -0.17534
 C143 C 0.69190 0.11672 -0.18136
 C144 C 0.68494 0.10940 -0.19988
 C145 C 0.66847 0.12070 -0.20417
 H146 H 0.70508 0.11224 -0.17338
 H147 H 0.65937 0.11956 -0.21773
 N148 N 0.68425 0.17010 -0.13016
 N149 N 0.67113 0.18451 -0.12821
 C150 C 0.67650 0.19650 -0.11258
 C151 C 0.69388 0.18943 -0.10444
 C152 C 0.69835 0.17261 -0.11590
 H153 H 0.66887 0.20994 -0.10798
 H154 H 0.71123 0.16329 -0.11445
 H155 H 0.66970 0.17433 -0.16566
 H156 H 0.65412 0.15776 -0.14952
 N157 N 0.12653 0.68266 -0.17526
 N158 N 0.12779 0.66857 -0.18924
 C159 C 0.11342 0.67132 -0.20320
 C160 C 0.10266 0.68799 -0.19745
 C161 C 0.11131 0.69468 -0.17965
 H162 H 0.11127 0.66222 -0.21671
 H163 H 0.10736 0.70793 -0.17109
 Cu164 Cu 0.14871 0.64871 -0.18811
 Cu165 Cu 0.14588 0.68597 -0.15376
 Cu166 Cu 0.18238 0.65017 -0.15019
 N167 N 0.16908 0.62842 -0.18560
 N168 N 0.18184 0.62879 -0.17047
 C169 C 0.19469 0.61369 -0.17288
 C170 C 0.18987 0.60341 -0.19053
 C171 C 0.17347 0.61310 -0.19820
 H172 H 0.20724 0.61096 -0.16311
 H173 H 0.16568 0.60965 -0.21219
 N174 N 0.18042 0.67311 -0.13128
 N175 N 0.16670 0.68693 -0.13304
 C176 C 0.17048 0.70181 -0.11975
 C177 C 0.18723 0.69710 -0.10899
 C178 C 0.19320 0.67877 -0.11659
 H179 H 0.16220 0.71553 -0.11855
 H180 H 0.20652 0.67086 -0.11268
 H181 H 0.16915 0.67150 -0.16823
 H182 H 0.15276 0.65591 -0.15179
 N183 N 0.13085 0.18043 0.32305
 N184 N 0.13098 0.16386 0.31223
 C185 C 0.11782 0.16530 0.29695
 C186 C 0.10871 0.18361 0.29846
 C187 C 0.11728 0.19290 0.31520
 H188 H 0.11540 0.15407 0.28528
 H189 H 0.11460 0.20793 0.32059
 Cu190 Cu 0.14897 0.14245 0.31842
 Cu191 Cu 0.14982 0.18512 0.34503
 Cu192 Cu 0.18587 0.14881 0.35174
 N193 N 0.17097 0.12431 0.31906
 N194 N 0.18533 0.12648 0.33235
 C195 C 0.19920 0.11258 0.32853
 C196 C 0.19324 0.10137 0.31180
 C197 C 0.17520 0.10918 0.30626
 H198 H 0.21307 0.11143 0.33653
 H199 H 0.16610 0.10471 0.29348
 N200 N 0.18371 0.17282 0.36930
 N201 N 0.17036 0.18686 0.36634
 C202 C 0.17380 0.20203 0.37942
 C203 C 0.18988 0.19726 0.39128
 C204 C 0.19582 0.17863 0.38452
 H205 H 0.16554 0.21581 0.37999
 H206 H 0.20859 0.17040 0.38959
 H207 H 0.17133 0.16749 0.33175
 H208 H 0.15626 0.15583 0.35236
 N209 N 0.62462 0.31895 0.67343
 N210 N 0.62461 0.33452 0.68570
 C211 C 0.61024 0.33223 0.69974
 C212 C 0.60089 0.31425 0.69602
 C213 C 0.61035 0.30630 0.67912
 H214 H 0.60733 0.34239 0.71227
 H215 H 0.60760 0.29206 0.67189
 Cu216 Cu 0.64441 0.35537 0.68310
 Cu217 Cu 0.64418 0.31509 0.65229
 Cu218 Cu 0.68073 0.35057 0.64786
 N219 N 0.66581 0.37452 0.68105
 N220 N 0.67990 0.37262 0.66740
 C221 C 0.69332 0.38709 0.67043
 C222 C 0.68730 0.39865 0.68691
 C223 C 0.66979 0.39028 0.69319
 H224 H 0.70676 0.38860 0.66175
 H225 H 0.66108 0.39486 0.70624
 N226 N 0.67889 0.32707 0.62962
 N227 N 0.66504 0.31346 0.63171
 C228 C 0.66857 0.29832 0.61868
 C229 C 0.68527 0.30260 0.60771
 C230 C 0.69152 0.32098 0.61492
 H231 H 0.66006 0.28473 0.61770
 H232 H 0.70483 0.32872 0.61064
 H233 H 0.66636 0.33119 0.66702
 H234 H 0.65115 0.34504 0.64790
 N235 N 0.62739 0.81791 1.16814
 N236 N 0.62795 0.83196 1.18224
 C237 C 0.61339 0.82890 1.19582
 C238 C 0.60311 0.81201 1.18988
 C239 C 0.61232 0.80551 1.17221
 H240 H 0.61076 0.83796 1.20927
 H241 H 0.60899 0.79211 1.16361
 Cu242 Cu 0.64855 0.85202 1.18204
 Cu243 Cu 0.64747 0.81558 1.14680
 Cu244 Cu 0.68480 0.85094 1.14768
 N245 N 0.66947 0.87173 1.18279
 N246 N 0.68366 0.87112 1.16915
 C247 C 0.69693 0.88537 1.17351
 C248 C 0.69071 0.89546 1.19086
 C249 C 0.67319 0.88650 1.19630
 H250 H 0.71040 0.88769 1.16509
 H251 H 0.66429 0.89006 1.20955
 N252 N 0.68341 0.82941 1.12718
 N253 N 0.66925 0.81595 1.12671
 C254 C 0.67326 0.80263 1.11174
 C255 C 0.69079 0.80790 1.10254
 C256 C 0.69674 0.82501 1.11265
 H257 H 0.66456 0.78955 1.10830
 H258 H 0.71008 0.83333 1.11004
 H259 H 0.66965 0.82894 1.16339
 H260 H 0.65495 0.84528 1.14610
 N261 N 0.13276 0.31782 1.17277
 N262 N 0.13325 0.33253 1.18613
 C263 C 0.11929 0.32960 1.20036
 C264 C 0.10930 0.31236 1.19557
 C265 C 0.11818 0.30515 1.17793
 H266 H 0.11692 0.33892 1.21367
 H267 H 0.11499 0.29127 1.17013
 Cu268 Cu 0.15283 0.35345 1.18494
 Cu269 Cu 0.15246 0.31544 1.15114
 Cu270 Cu 0.18814 0.35248 1.14898
 N271 N 0.17322 0.37359 1.18387
 N272 N 0.18697 0.37337 1.16976
 C273 C 0.19984 0.38821 1.17361
 C274 C 0.19388 0.39808 1.19117
 C275 C 0.17689 0.38843 1.19722
 H276 H 0.21308 0.39100 1.16491
 H277 H 0.16821 0.39150 1.21071
 N278 N 0.18692 0.33010 1.12937
 N279 N 0.17363 0.31578 1.13042
 C280 C 0.17782 0.30183 1.11616
 C281 C 0.19452 0.30771 1.10566
 C282 C 0.19977 0.32572 1.11433
 H283 H 0.16963 0.28818 1.11395
 H284 H 0.21258 0.33447 1.11051
 H285 H 0.17450 0.33065 1.16647
 H286 H 0.15851 0.34546 1.14894
 N287 N 0.12834 0.81431 0.67044
 N288 N 0.12873 0.82784 0.68506
 C289 C 0.11416 0.82398 0.69849
 C290 C 0.10414 0.80718 0.69176
 C291 C 0.11347 0.80155 0.67391
 H292 H 0.11134 0.83247 0.71228
 H293 H 0.11019 0.78857 0.66465
 Cu294 Cu 0.14877 0.84864 0.68534
 Cu295 Cu 0.14831 0.81277 0.64923
 Cu296 Cu 0.18456 0.84900 0.64964
 N297 N 0.16962 0.86860 0.68567
 N298 N 0.18320 0.86894 0.67134
 C299 C 0.19603 0.88369 0.67544
 C300 C 0.19035 0.89301 0.69336
 C301 C 0.17347 0.88309 0.69946
 H302 H 0.20904 0.88690 0.66653
 H303 H 0.16491 0.88588 0.71312
 N304 N 0.18346 0.82750 0.62901
 N305 N 0.16975 0.81358 0.62906
 C306 C 0.17403 0.79990 0.61459
 C307 C 0.19129 0.80545 0.60501
 C308 C 0.19676 0.82308 0.61438
 H309 H 0.16560 0.78652 0.61178
 H310 H 0.21006 0.83142 0.61148
 H311 H 0.17044 0.82674 0.66580
 H312 H 0.15493 0.84285 0.64899
 N313 N 0.37100 0.67913 0.67288
 N314 N 0.37047 0.66548 0.68728
 C315 C 0.38464 0.66937 0.70112
 C316 C 0.39458 0.68635 0.69501
 C317 C 0.38562 0.69206 0.67698
 H318 H 0.38716 0.66080 0.71486
 H319 H 0.38892 0.70521 0.66807
 Cu320 Cu 0.35059 0.64466 0.68752
 Cu321 Cu 0.35142 0.68035 0.65121
 Cu322 Cu 0.31486 0.64442 0.65185
 N323 N 0.32951 0.62508 0.68788
 N324 N 0.31583 0.62478 0.67367
 C325 C 0.30279 0.61032 0.67801
 C326 C 0.30846 0.60120 0.69599
 C327 C 0.32553 0.61090 0.70185
 H328 H 0.28966 0.60719 0.66924
 H329 H 0.33414 0.60818 0.71547
 N330 N 0.31628 0.66550 0.63101
 N331 N 0.33026 0.67913 0.63064
 C332 C 0.32635 0.69222 0.61555
 C333 C 0.30902 0.68667 0.60614
 C334 C 0.30308 0.66960 0.61625
 H335 H 0.33488 0.70543 0.61227
 H336 H 0.28977 0.66120 0.61359
 H337 H 0.32931 0.66679 0.66792
 H338 H 0.34466 0.65037 0.65113
 N339 N 0.36901 0.18056 1.17679
 N340 N 0.36774 0.16606 1.19025
 C341 C 0.38081 0.16920 1.20535
 C342 C 0.39105 0.18637 1.20104
 C343 C 0.38326 0.19331 1.18277
 H344 H 0.38237 0.16008 1.21890
 H345 H 0.38685 0.20711 1.17509
 Cu346 Cu 0.34829 0.14524 1.18749
 Cu347 Cu 0.35022 0.18303 1.15411
 Cu348 Cu 0.31250 0.14794 1.15313
 N349 N 0.32801 0.12501 1.18641
 N350 N 0.31405 0.12587 1.17252
 C351 C 0.30109 0.11108 1.17592
 C352 C 0.30718 0.10056 1.19297
 C353 C 0.32437 0.10976 1.19920
 H354 H 0.28764 0.10884 1.16739
 H355 H 0.33314 0.10617 1.21250
 N356 N 0.31516 0.16913 1.13243
 N357 N 0.32934 0.18261 1.13287
 C358 C 0.32623 0.19586 1.11769
 C359 C 0.30936 0.19033 1.10723
 C360 C 0.30287 0.17331 1.11687
 H361 H 0.33522 0.20884 1.11488
 H362 H 0.28963 0.16510 1.11329
 H363 H 0.32802 0.16955 1.16972
 H364 H 0.34232 0.15340 1.15184
 N365 N 0.87486 0.68441 1.16746
 N366 N 0.87436 0.67065 1.18175
 C367 C 0.88812 0.67474 1.19597
 C368 C 0.89789 0.69197 1.19019
 C369 C 0.88912 0.69764 1.17199
 H370 H 0.89071 0.66586 1.20949
 H371 H 0.89264 0.71063 1.16291
 Cu372 Cu 0.85588 0.64858 1.18036
 Cu373 Cu 0.85682 0.68405 1.14418
 Cu374 Cu 0.81710 0.65182 1.14882
 N375 N 0.83358 0.63067 1.18296
 N376 N 0.81851 0.63192 1.17044
 C377 C 0.80502 0.61820 1.17574
 C378 C 0.81190 0.60791 1.19257
 C379 C 0.83013 0.61620 1.19678
 H380 H 0.79098 0.61615 1.16825
 H381 H 0.84000 0.61229 1.20911
 N382 N 0.81850 0.67288 1.12787
 N383 N 0.83365 0.68502 1.12590
 C384 C 0.82984 0.69804 1.11068
 C385 C 0.81143 0.69390 1.10276
 C386 C 0.80472 0.67780 1.11398
 H387 H 0.83945 0.71007 1.10612
 H388 H 0.79069 0.67041 1.11244
 H389 H 0.83537 0.67275 1.16278
 H390 H 0.84672 0.65478 1.14447
 N391 N 0.86813 0.19412 0.67046
 N392 N 0.87096 0.17952 0.68351
 C393 C 0.88514 0.18485 0.69685
 C394 C 0.89138 0.20388 0.69183
 C395 C 0.88024 0.20931 0.67511
 H396 H 0.88987 0.17597 0.70975
 H397 H 0.88061 0.22348 0.66724
 Cu398 Cu 0.85453 0.15587 0.68274
 Cu399 Cu 0.84837 0.19276 0.64900
 Cu400 Cu 0.81548 0.15335 0.65091
 N401 N 0.83390 0.13627 0.68649
 N402 N 0.81895 0.13482 0.67379
 C403 C 0.80674 0.12039 0.68048
 C404 C 0.81446 0.11262 0.69843
 C405 C 0.83159 0.12311 0.70179
 H406 H 0.79284 0.11660 0.67347
 H407 H 0.84136 0.12165 0.71477
 N408 N 0.81478 0.17400 0.62922
 N409 N 0.82748 0.18886 0.62861
 C410 C 0.82284 0.20103 0.61303
 C411 C 0.80628 0.19366 0.60336
 C412 C 0.80161 0.17644 0.61396
 H413 H 0.83060 0.21464 0.60950
 H414 H 0.78908 0.16688 0.61123
 H415 H 0.82916 0.17592 0.66672
 H416 H 0.84427 0.16198 0.64752
 N417 N 0.31493 0.36984 0.67421
 N418 N 0.32900 0.37115 0.68795
 C419 C 0.32490 0.38631 0.70088
 C420 C 0.30733 0.39486 0.69496
 C421 C 0.30143 0.38408 0.67790
 H422 H 0.33363 0.39042 0.71408
 H423 H 0.28806 0.38597 0.66919
 Cu424 Cu 0.35036 0.35186 0.68823
 Cu425 Cu 0.31433 0.34886 0.65345
 Cu426 Cu 0.35279 0.31476 0.65380
 N427 N 0.37161 0.33245 0.68888
 N428 N 0.37267 0.31818 0.67506
 C429 C 0.38799 0.30622 0.67947
 C430 C 0.39687 0.31322 0.69710
 C431 C 0.38613 0.32995 0.70266
 H432 H 0.39179 0.29281 0.67111
 H433 H 0.38833 0.33921 0.71604
 N434 N 0.33120 0.31381 0.63365
 N435 N 0.31642 0.32660 0.63373
 C436 C 0.30330 0.32107 0.61934
 C437 C 0.31016 0.30396 0.60980
 C438 C 0.32789 0.29987 0.61915
 H439 H 0.28955 0.32860 0.61645
 H440 H 0.33721 0.28713 0.61616
 H441 H 0.32999 0.32785 0.66990
 H442 H 0.34426 0.34425 0.65232
 N443 N 0.31609 0.87152 0.16894
 N444 N 0.32947 0.87246 0.18342
 C445 C 0.32448 0.88699 0.19676
 C446 C 0.30701 0.89546 0.19030
 C447 C 0.30217 0.88533 0.17252
 H448 H 0.33245 0.89063 0.21061
 H449 H 0.28916 0.88727 0.16326
 Cu450 Cu 0.35123 0.85356 0.18426
 Cu451 Cu 0.31624 0.85112 0.14784
 Cu452 Cu 0.35341 0.81597 0.14981
 N453 N 0.37176 0.83331 0.18527
 N454 N 0.37272 0.81893 0.17156
 C455 C 0.38781 0.80676 0.17616
 C456 C 0.39669 0.81374 0.19378
 C457 C 0.38616 0.83066 0.19917
 H458 H 0.39161 0.79336 0.16779
 H459 H 0.38851 0.84006 0.21243
 N460 N 0.33253 0.81555 0.12892
 N461 N 0.31869 0.82931 0.12788
 C462 C 0.30604 0.82444 0.11283
 C463 C 0.31203 0.80669 0.10417
 C464 C 0.32895 0.80146 0.11465
 H465 H 0.29278 0.83257 0.10914
 H466 H 0.33760 0.78809 0.11252
 H467 H 0.33077 0.82999 0.16538
 H468 H 0.34619 0.84574 0.14811
 N469 N 0.81760 0.37293 0.17115
 N470 N 0.83255 0.37358 0.18390
 C471 C 0.82903 0.38716 0.19860
 C472 C 0.81107 0.39583 0.19477
 C473 C 0.80411 0.38652 0.17719
 H474 H 0.83847 0.38997 0.21162
 H475 H 0.78981 0.38847 0.17024
 Cu476 Cu 0.85449 0.35555 0.18138
 Cu477 Cu 0.81584 0.35228 0.14979
 Cu478 Cu 0.85246 0.31581 0.15072
 N479 N 0.87292 0.33390 0.18439
 N480 N 0.87253 0.31844 0.17197
 C481 C 0.88633 0.30525 0.17794
 C482 C 0.89562 0.31291 0.19514
 C483 C 0.88668 0.33102 0.19884
 H484 H 0.88862 0.29073 0.17106
 H485 H 0.88953 0.34103 0.21153
 N486 N 0.83085 0.31591 0.13055
 N487 N 0.81703 0.32977 0.12995
 C488 C 0.80403 0.32494 0.11514
 C489 C 0.80985 0.30717 0.10619
 C490 C 0.82697 0.30195 0.11626
 H491 H 0.79083 0.33326 0.11165
 H492 H 0.83571 0.28871 0.11373
 H493 H 0.83143 0.33188 0.16680
 H494 H 0.84529 0.34563 0.14669
 N495 N 0.82039 0.87106 0.67499
 N496 N 0.83569 0.87065 0.68729
 C497 C 0.83315 0.88401 0.70244
 C498 C 0.81550 0.89360 0.69934
 C499 C 0.80769 0.88506 0.68176
 H500 H 0.84320 0.88632 0.71506
 H501 H 0.79348 0.88810 0.67503
 Cu502 Cu 0.85714 0.85227 0.68280
 Cu503 Cu 0.81746 0.85187 0.65249
 Cu504 Cu 0.85407 0.81572 0.64808
 N505 N 0.87573 0.83048 0.68273
 N506 N 0.87487 0.81641 0.66869
 C507 C 0.88894 0.80278 0.67252
 C508 C 0.89893 0.80854 0.69000
 C509 C 0.89018 0.82624 0.69607
 H510 H 0.89113 0.78919 0.66385
 H511 H 0.89367 0.83512 0.70943
 N512 N 0.83164 0.81761 0.62903
 N513 N 0.81749 0.83102 0.63092
 C514 C 0.80355 0.82726 0.61675
 C515 C 0.80927 0.81073 0.60544
 C516 C 0.82714 0.80512 0.61354
 H517 H 0.79005 0.83561 0.61513
 H518 H 0.83576 0.79229 0.60901
 H519 H 0.83371 0.82988 0.66670
 H520 H 0.84676 0.84572 0.64764
 N521 N 0.68065 0.63173 0.67043
 N522 N 0.66585 0.63198 0.68338
 C523 C 0.66832 0.61719 0.69709
 C524 C 0.68555 0.60717 0.69234
 C525 C 0.69289 0.61672 0.67531
 H526 H 0.65859 0.61432 0.70982
 H527 H 0.70659 0.61347 0.66759
 Cu528 Cu 0.64530 0.65221 0.68201
 Cu529 Cu 0.68403 0.65185 0.64941
 Cu530 Cu 0.65002 0.69001 0.64831
 N531 N 0.62728 0.67486 0.68181
 N532 N 0.62949 0.68963 0.66883
 C533 C 0.61630 0.70399 0.67308
 C534 C 0.60511 0.69790 0.68947
 C535 C 0.61240 0.67930 0.69470
 H536 H 0.61534 0.71818 0.66530
 H537 H 0.60796 0.67023 0.70756
 N538 N 0.67174 0.68797 0.62868
 N539 N 0.68496 0.67358 0.62925
 C540 C 0.69876 0.67715 0.61492
 C541 C 0.69387 0.69462 0.60489
 C542 C 0.67665 0.70098 0.61390
 H543 H 0.71160 0.66799 0.61231
 H544 H 0.66876 0.71456 0.61041
 H545 H 0.66967 0.67374 0.66600
 H546 H 0.65481 0.65950 0.64674
 N547 N 0.67948 0.13098 0.17599
 N548 N 0.66442 0.13234 0.18854
 C549 C 0.66670 0.11923 0.20390
 C550 C 0.68388 0.10883 0.20065
 C551 C 0.69171 0.11661 0.18278
 H552 H 0.65685 0.11769 0.21680
 H553 H 0.70571 0.11289 0.17590
 Cu554 Cu 0.64377 0.15164 0.18407
 Cu555 Cu 0.68309 0.14981 0.15341
 Cu556 Cu 0.64835 0.18788 0.14949
 N557 N 0.62557 0.17377 0.18359
 N558 N 0.62739 0.18810 0.17001
 C559 C 0.61355 0.20207 0.17363
 C560 C 0.60255 0.19606 0.19039
 C561 C 0.61057 0.17806 0.19626
 H562 H 0.61192 0.21571 0.16500
 H563 H 0.60619 0.16913 0.20924
 N564 N 0.67068 0.18490 0.13034
 N565 N 0.68393 0.17055 0.13189
 C566 C 0.69792 0.17341 0.11758
 C567 C 0.69321 0.19035 0.10652
 C568 C 0.67584 0.19714 0.11492
 H569 H 0.71081 0.16416 0.11573
 H570 H 0.66800 0.21051 0.11059
 H571 H 0.66817 0.17271 0.16778
 H572 H 0.65408 0.15759 0.14883
 N573 N 0.18192 0.62706 0.17189
 N574 N 0.16801 0.62809 0.18583
 C575 C 0.17126 0.61395 0.20007
 C576 C 0.18809 0.60354 0.19464
 C577 C 0.19436 0.61218 0.17666
 H578 H 0.16244 0.61183 0.21366
 H579 H 0.20761 0.60857 0.16828
 Cu580 Cu 0.14809 0.64893 0.18460
 Cu581 Cu 0.18449 0.64654 0.15004
 Cu582 Cu 0.14946 0.68408 0.14820
 N583 N 0.12808 0.66968 0.18318
 N584 N 0.12881 0.68335 0.16880
 C585 C 0.11431 0.69666 0.17185
 C586 C 0.10395 0.69112 0.18915
 C587 C 0.11303 0.67389 0.19591
 H588 H 0.11199 0.70976 0.16255
 H589 H 0.10938 0.66559 0.20957
 N590 N 0.17147 0.68219 0.12872
 N591 N 0.18462 0.66770 0.12921
 C592 C 0.19836 0.67119 0.11483
 C593 C 0.19378 0.68877 0.10502
 C594 C 0.17658 0.69533 0.11410
 H595 H 0.21134 0.66220 0.11232
 H596 H 0.16872 0.70895 0.11080
 H597 H 0.17076 0.66979 0.16536
 H598 H 0.15509 0.65391 0.14842
 N599 N 0.17827 0.12913 0.68001
 N600 N 0.16344 0.13049 0.69285
 C601 C 0.16596 0.11727 0.70810
 C602 C 0.18308 0.10679 0.70443
 C603 C 0.19057 0.11467 0.68646
 H604 H 0.15632 0.11568 0.72116
 H605 H 0.20443 0.11097 0.67929
 Cu606 Cu 0.14275 0.14996 0.68872
 Cu607 Cu 0.18167 0.14799 0.65747
 Cu608 Cu 0.14719 0.18625 0.65399
 N609 N 0.12478 0.17242 0.68854
 N610 N 0.12646 0.18662 0.67481
 C611 C 0.11273 0.20069 0.67851
 C612 C 0.10192 0.19492 0.69551
 C613 C 0.10998 0.17694 0.70143
 H614 H 0.11109 0.21425 0.66976
 H615 H 0.10571 0.16810 0.71453
 N616 N 0.16930 0.18313 0.63451
 N617 N 0.18245 0.16868 0.63594
 C618 C 0.19635 0.17143 0.62151
 C619 C 0.19172 0.18839 0.61047
 C620 C 0.17444 0.19532 0.61903
 H621 H 0.20916 0.16208 0.61957
 H622 H 0.16669 0.20878 0.61478
 H623 H 0.16701 0.17100 0.67210
 H624 H 0.15261 0.15598 0.65332
 N625 N 0.32136 0.63177 0.32428
 N626 N 0.33490 0.63393 0.31010
 C627 C 0.33138 0.62091 0.29477
 C628 C 0.31493 0.60991 0.29976
 C629 C 0.30894 0.61715 0.31861
 H630 H 0.33972 0.61991 0.28070
 H631 H 0.29587 0.61297 0.32698
 Cu632 Cu 0.35481 0.65455 0.31269
 Cu633 Cu 0.31919 0.64983 0.34761
 Cu634 Cu 0.35433 0.68727 0.35163
 N635 N 0.37453 0.67538 0.31482
 N636 N 0.37446 0.68801 0.33028
 C637 C 0.38893 0.70145 0.32759
 C638 C 0.39844 0.69713 0.30939
 C639 C 0.38895 0.68043 0.30172
 H640 H 0.39178 0.71400 0.33761
 H641 H 0.39193 0.67287 0.28741
 N642 N 0.33271 0.68390 0.37155
 N643 N 0.31943 0.66961 0.36998
 C644 C 0.30573 0.67223 0.38461
 C645 C 0.31055 0.68902 0.39591
 C646 C 0.32779 0.69594 0.38733
 H647 H 0.29278 0.66309 0.38632
 H648 H 0.33557 0.70938 0.39163
 H649 H 0.33262 0.67418 0.33398
 H650 H 0.34859 0.65726 0.34933
 N651 N 0.31984 0.13005 0.82266
 N652 N 0.33417 0.13225 0.80936
 C653 C 0.33169 0.11915 0.79390
 C654 C 0.31513 0.10797 0.79784
 C655 C 0.30791 0.11524 0.81624
 H656 H 0.34091 0.11812 0.78043
 H657 H 0.29447 0.11084 0.82380
 Cu658 Cu 0.35428 0.15256 0.81273
 Cu659 Cu 0.31662 0.14806 0.84600
 Cu660 Cu 0.35161 0.18525 0.85173
 N661 N 0.37349 0.17381 0.81604
 N662 N 0.37234 0.18654 0.83132
 C663 C 0.38648 0.20042 0.82924
 C664 C 0.39705 0.19613 0.81166
 C665 C 0.38849 0.17911 0.80373
 H666 H 0.38846 0.21300 0.83942
 H667 H 0.39240 0.17172 0.78954
 N668 N 0.32960 0.18170 0.87087
 N669 N 0.31602 0.16780 0.86858
 C670 C 0.30207 0.17047 0.88301
 C671 C 0.30720 0.18684 0.89489
 C672 C 0.32475 0.19343 0.88685
 H673 H 0.28890 0.16158 0.88436
 H674 H 0.33287 0.20645 0.89177
 H675 H 0.33075 0.17201 0.83273
 H676 H 0.34585 0.15502 0.84898
 N677 N 0.81673 0.63093 0.82189
 N678 N 0.83091 0.63172 0.80823
 C679 C 0.82699 0.61879 0.79296
 C680 C 0.80963 0.60913 0.79746
 C681 C 0.80347 0.61716 0.81595
 H682 H 0.83577 0.61690 0.77929
 H683 H 0.78983 0.61410 0.82383
 Cu684 Cu 0.85238 0.65045 0.81149
 Cu685 Cu 0.81521 0.64978 0.84477
 Cu686 Cu 0.85265 0.68514 0.84828
 N687 N 0.87268 0.67069 0.81229
 N688 N 0.87300 0.68407 0.82707
 C689 C 0.88790 0.69687 0.82365
 C690 C 0.89722 0.69134 0.80569
 C691 C 0.88718 0.67462 0.79890
 H692 H 0.89113 0.70982 0.83298
 H693 H 0.88985 0.66626 0.78499
 N694 N 0.83063 0.68361 0.86803
 N695 N 0.81640 0.67025 0.86660
 C696 C 0.80278 0.67417 0.88104
 C697 C 0.80868 0.69079 0.89206
 C698 C 0.82643 0.69627 0.88350
 H699 H 0.78924 0.66597 0.88288
 H700 H 0.83510 0.70918 0.88765
 H701 H 0.83068 0.67248 0.83064
 H702 H 0.84483 0.65550 0.84766
 N703 N 0.81319 0.12841 0.32783
 N704 N 0.82699 0.12554 0.31405
 C705 C 0.82215 0.10974 0.30237
 C706 C 0.80435 0.10243 0.30902
 C707 C 0.79904 0.11457 0.32529
 H708 H 0.83044 0.10448 0.28930
 H709 H 0.78564 0.11386 0.33415
 Cu710 Cu 0.84895 0.14372 0.31102
 Cu711 Cu 0.81392 0.15075 0.34686
 Cu712 Cu 0.85210 0.18447 0.34126
 N713 N 0.86954 0.16342 0.30759
 N714 N 0.87108 0.17909 0.31964
 C715 C 0.88603 0.19059 0.31307
 C716 C 0.89408 0.18166 0.29586
 C717 C 0.88325 0.16456 0.29281
 H718 H 0.88995 0.20490 0.31955
 H719 H 0.88479 0.15415 0.28024
 N720 N 0.83150 0.18733 0.36226
 N721 N 0.81718 0.17426 0.36465
 C722 C 0.80506 0.18073 0.37957
 C723 C 0.81199 0.19884 0.38671
 C724 C 0.82872 0.20257 0.37543
 H725 H 0.79165 0.17337 0.38414
 H726 H 0.83781 0.21577 0.37636
 H727 H 0.82899 0.16956 0.32720
 H728 H 0.84393 0.15517 0.34613
 N729 N 0.68518 0.37627 0.32759
 N730 N 0.67109 0.37729 0.31386
 C731 C 0.67489 0.39230 0.30083
 C732 C 0.69233 0.40126 0.30674
 C733 C 0.69842 0.39075 0.32382
 H734 H 0.66591 0.39599 0.28773
 H735 H 0.71187 0.39299 0.33234
 Cu736 Cu 0.64996 0.35798 0.31373
 Cu737 Cu 0.68604 0.35503 0.34812
 Cu738 Cu 0.64909 0.31902 0.34538
 N739 N 0.63051 0.33717 0.31051
 N740 N 0.62972 0.32219 0.32345
 C741 C 0.61537 0.30957 0.31750
 C742 C 0.60696 0.31706 0.29978
 C743 C 0.61699 0.33447 0.29575
 H744 H 0.61209 0.29551 0.32481
 H745 H 0.61494 0.34409 0.28265
 N746 N 0.67019 0.31865 0.36624
 N747 N 0.68416 0.33231 0.36732
 C748 C 0.69681 0.32728 0.38233
 C749 C 0.69064 0.30959 0.39098
 C750 C 0.67367 0.30456 0.38047
 H751 H 0.70999 0.33544 0.38624
 H752 H 0.66482 0.29136 0.38260
 H753 H 0.67137 0.33406 0.33050
 H754 H 0.65641 0.34863 0.34915
 N755 N 0.68174 0.87120 0.82500
 N756 N 0.66714 0.87084 0.81181
 C757 C 0.67036 0.88437 0.79707
 C758 C 0.68775 0.89402 0.80131
 C759 C 0.69469 0.88535 0.81919
 H760 H 0.66106 0.88661 0.78384
 H761 H 0.70857 0.88829 0.82667
 Cu762 Cu 0.64595 0.85192 0.81428
 Cu763 Cu 0.68368 0.85135 0.84700
 Cu764 Cu 0.64776 0.81412 0.84728
 N765 N 0.62788 0.82987 0.81204
 N766 N 0.62789 0.81542 0.82559
 C767 C 0.61413 0.80189 0.82026
 C768 C 0.60534 0.80823 0.80226
 C769 C 0.61452 0.82591 0.79743
 H770 H 0.61158 0.78795 0.82812
 H771 H 0.61201 0.83493 0.78397
 N772 N 0.66927 0.81557 0.86764
 N773 N 0.68282 0.82971 0.86767
 C774 C 0.69600 0.82573 0.88255
 C775 C 0.69064 0.80821 0.89214
 C776 C 0.67356 0.80224 0.88238
 H777 H 0.70908 0.83439 0.88560
 H778 H 0.66521 0.78885 0.88532
 H779 H 0.66891 0.82942 0.83086
 H780 H 0.65433 0.84412 0.84973
 N781 N 0.18376 0.37004 0.83239
 N782 N 0.16985 0.37028 0.81841
 C783 C 0.17348 0.38511 0.80507
 C784 C 0.19059 0.39467 0.81104
 C785 C 0.19664 0.38479 0.82849
 H786 H 0.16463 0.38836 0.79175
 H787 H 0.20991 0.38760 0.83714
 Cu788 Cu 0.14907 0.35040 0.81831
 Cu789 Cu 0.18521 0.34937 0.85336
 Cu790 Cu 0.14815 0.31381 0.85314
 N791 N 0.12822 0.33056 0.81841
 N792 N 0.12781 0.31648 0.83236
 C793 C 0.11257 0.30424 0.82859
 C794 C 0.10299 0.31089 0.81128
 C795 C 0.11327 0.32768 0.80519
 H796 H 0.10918 0.29095 0.83724
 H797 H 0.11046 0.33674 0.79184
 N798 N 0.16999 0.31359 0.87292
 N799 N 0.18402 0.32719 0.87319
 C800 C 0.19729 0.32224 0.88765
 C801 C 0.19143 0.30462 0.89672
 C802 C 0.17402 0.29961 0.88708
 H803 H 0.21070 0.33032 0.89080
 H804 H 0.16521 0.28647 0.88975
 H805 H 0.17051 0.32765 0.83694
 H806 H 0.15551 0.34370 0.85435
 N807 N 0.18619 0.86352 0.33190
 N808 N 0.17285 0.86507 0.31742
 C809 C 0.17821 0.87984 0.30454
 C810 C 0.19588 0.88767 0.31141
 C811 C 0.20048 0.87695 0.32869
 H812 H 0.17056 0.88373 0.29060
 H813 H 0.21374 0.87828 0.33770
 Cu814 Cu 0.15128 0.84587 0.31577
 Cu815 Cu 0.18553 0.84304 0.35273
 Cu816 Cu 0.14766 0.80877 0.35047
 N817 N 0.12996 0.82637 0.31474
 N818 N 0.12854 0.81220 0.32856
 C819 C 0.11323 0.80034 0.32389
 C820 C 0.10469 0.80721 0.30610
 C821 C 0.11564 0.82382 0.30068
 H822 H 0.10910 0.78711 0.33229
 H823 H 0.11370 0.83299 0.28724
 N824 N 0.16848 0.80790 0.37148
 N825 N 0.18261 0.82133 0.37254
 C826 C 0.19501 0.81643 0.38775
 C827 C 0.18860 0.79897 0.39652
 C828 C 0.17168 0.79392 0.38593
 H829 H 0.20833 0.82439 0.39158
 H830 H 0.16271 0.78081 0.38817
 H831 H 0.17075 0.82190 0.33521
 H832 H 0.15542 0.83832 0.35202
 C833 C 0.25654 0.95524 0.23251
 C834 C 0.24171 0.94544 0.24339
 C835 C 0.22860 0.95582 0.25607
 C836 C 0.23032 0.97676 0.25804
 C837 C 0.24518 0.98698 0.24699
 C838 C 0.25828 0.97621 0.23412
 C839 C 0.27250 0.98673 0.22289
 C840 C 0.27397 1.00737 0.22435
 C841 C 0.26132 1.01834 0.23715
 C842 C 0.24696 1.00804 0.24881
 C843 C 0.21790 0.98770 0.27112
 C844 C 0.21987 1.00828 0.27318
 C845 C 0.23429 1.01875 0.26217
 C846 C 0.23606 1.03972 0.26374
 C847 C 0.25030 1.04961 0.25214
 C848 C 0.26286 1.03931 0.23884
 H849 H 0.28255 0.97918 0.21263
 H850 H 0.28529 1.01461 0.21542
 H851 H 0.20658 0.98045 0.28004
 H852 H 0.20984 1.01591 0.28340
 H853 H 0.24043 0.92936 0.24212
 H854 H 0.25141 1.06572 0.25327
 C855 C 0.26048 0.45619 0.73923
 C856 C 0.24661 0.44619 0.75123
 C857 C 0.23389 0.45643 0.76444
 C858 C 0.23490 0.47748 0.76567
 C859 C 0.24890 0.48790 0.75363
 C860 C 0.26189 0.47722 0.74056
 C861 C 0.27562 0.48788 0.72881
 C862 C 0.27655 0.50859 0.72977
 C863 C 0.26357 0.51953 0.74225
 C864 C 0.24968 0.50910 0.75441
 C865 C 0.22192 0.48842 0.77814
 C866 C 0.22260 0.50917 0.77880
 C867 C 0.23636 0.51981 0.76708
 C868 C 0.23674 0.54091 0.76715
 C869 C 0.25078 0.55092 0.75538
 C870 C 0.26424 0.54062 0.74305
 H871 H 0.28573 0.48036 0.71860
 H872 H 0.28755 0.51592 0.72051
 H873 H 0.21082 0.48108 0.78727
 H874 H 0.21205 0.51677 0.78846
 H875 H 0.24609 0.43002 0.75072
 H876 H 0.25102 0.56710 0.75558
 C877 C 0.75754 -0.04352 0.26658
 C878 C 0.74630 -0.05372 0.25199
 C879 C 0.73546 -0.04357 0.23707
 C880 C 0.73574 -0.02248 0.23669
 C881 C 0.74696 -0.01189 0.25148
 C882 C 0.75787 -0.02244 0.26649
 C883 C 0.76843 -0.01163 0.28132
 C884 C 0.76842 0.00912 0.28135
 C885 C 0.75806 0.01990 0.26639
 C886 C 0.74724 0.00931 0.25128
 C887 C 0.72542 -0.01171 0.22169
 C888 C 0.72586 0.00904 0.22137
 C889 C 0.73664 0.01987 0.23603
 C890 C 0.73676 0.04097 0.23611
 C891 C 0.74725 0.05114 0.25134
 C892 C 0.75786 0.04099 0.26642
 H893 H 0.77655 -0.01909 0.29331
 H894 H 0.77646 0.01659 0.29344
 H895 H 0.71697 -0.01920 0.20994
 H896 H 0.71747 0.01649 0.20957
 H897 H 0.74611 -0.06989 0.25214
 H898 H 0.74780 0.06731 0.25095
 C899 C 0.72611 0.54452 0.74002
 C900 C 0.73775 0.55428 0.75462
 C901 C 0.75093 0.54385 0.76707
 C902 C 0.75254 0.52291 0.76508
 C903 C 0.74103 0.51276 0.75020
 C904 C 0.72780 0.52359 0.73760
 C905 C 0.71640 0.51315 0.72316
 C906 C 0.71806 0.49255 0.72095
 C907 C 0.73105 0.48151 0.73324
 C908 C 0.74277 0.49172 0.74791
 C909 C 0.76566 0.51190 0.77726
 C910 C 0.76736 0.49132 0.77503
 C911 C 0.75611 0.48093 0.76043
 C912 C 0.75744 0.45998 0.75836
 C913 C 0.74595 0.45019 0.74369
 C914 C 0.73283 0.46056 0.73108
 H915 H 0.70594 0.52075 0.71344
 H916 H 0.70905 0.48543 0.70941
 H917 H 0.77482 0.51910 0.78863
 H918 H 0.77758 0.48363 0.78496
 H919 H 0.73671 0.57036 0.75620
 H920 H 0.74697 0.43409 0.74239
 C921 C 0.25884 0.45974 0.26932
 C922 C 0.24755 0.44947 0.25485
 C923 C 0.23534 0.45948 0.24103
 C924 C 0.23457 0.48056 0.24139
 C925 C 0.24599 0.49125 0.25593
 C926 C 0.25816 0.48081 0.26996
 C927 C 0.26960 0.49172 0.28398
 C928 C 0.26889 0.51246 0.28448
 C929 C 0.25660 0.52310 0.27107
 C930 C 0.24508 0.51242 0.25662
 C931 C 0.22221 0.49119 0.22806
 C932 C 0.22118 0.51191 0.22886
 C933 C 0.23257 0.52286 0.24292
 C934 C 0.23143 0.54392 0.24402
 C935 C 0.24327 0.55422 0.25804
 C936 C 0.25588 0.54417 0.27142
 H937 H 0.27940 0.48437 0.29461
 H938 H 0.27816 0.52005 0.29547
 H939 H 0.21301 0.48359 0.21700
 H940 H 0.21120 0.51921 0.21840
 H941 H 0.24796 0.43329 0.25463
 H942 H 0.24268 0.57038 0.25856
 C943 C 0.76096 1.04533 0.73446
 C944 C 0.75112 1.05552 0.75016
 C945 C 0.74167 1.04538 0.76605
 C946 C 0.74213 1.02430 0.76652
 C947 C 0.75169 1.01367 0.75054
 C948 C 0.76105 1.02420 0.73439
 C949 C 0.77062 1.01331 0.71889
 C950 C 0.77073 0.99254 0.71899
 C951 C 0.76133 0.98180 0.73465
 C952 C 0.75188 0.99245 0.75070
 C953 C 0.73283 1.01359 0.78225
 C954 C 0.73306 0.99282 0.78244
 C955 C 0.74257 0.98194 0.76690
 C956 C 0.74260 0.96082 0.76682
 C957 C 0.75214 0.95062 0.75094
 C958 C 0.76154 0.96070 0.73496
 H959 H 0.77825 1.02073 0.70654
 H960 H 0.77844 0.98501 0.70671
 H961 H 0.72513 1.02114 0.79453
 H962 H 0.72551 0.98542 0.79485
 H963 H 0.75078 1.07170 0.75002
 H964 H 0.75222 0.93444 0.75100
 C965 C 0.74647 0.54643 0.26946
 C966 C 0.75932 0.55648 0.25633
 C967 C 0.76950 0.54651 0.24072
 C968 C 0.76655 0.52576 0.23790
 C969 C 0.75381 0.51527 0.25133
 C970 C 0.74391 0.52560 0.26730
 C971 C 0.73128 0.51494 0.28031
 C972 C 0.72853 0.49450 0.27785
 C973 C 0.73823 0.48391 0.26222
 C974 C 0.75084 0.49441 0.24868
 C975 C 0.77626 0.51514 0.22228
 C976 C 0.77326 0.49475 0.21961
 C977 C 0.76051 0.48411 0.23251
 C978 C 0.75758 0.46335 0.23006
 C979 C 0.74502 0.45329 0.24348
 C980 C 0.73530 0.46317 0.25946
 H981 H 0.72327 0.52231 0.29249
 H982 H 0.71851 0.48716 0.28824
 H983 H 0.78640 0.52244 0.21199
 H984 H 0.78121 0.48739 0.20739
 H985 H 0.76116 0.57246 0.25812
 H986 H 0.74291 0.43736 0.24155
 C987 C 0.26046 -0.04563 0.76625
 C988 C 0.24718 -0.05576 0.75357
 C989 C 0.23486 -0.04563 0.73993
 C990 C 0.23602 -0.02459 0.73858
 C991 C 0.24896 -0.01399 0.75177
 C992 C 0.26120 -0.02453 0.76567
 C993 C 0.27346 -0.01368 0.77897
 C994 C 0.27359 0.00709 0.77881
 C995 C 0.26159 0.01786 0.76524
 C996 C 0.24945 0.00723 0.75128
 C997 C 0.22420 -0.01380 0.72483
 C998 C 0.22514 0.00692 0.72392
 C999 C 0.23761 0.01776 0.73702
 C1000 C 0.23811 0.03887 0.73667
 C1001 C 0.25000 0.04909 0.75070
 C1002 C 0.26160 0.03898 0.76504
 H1003 H 0.28285 -0.02114 0.78992
 H1004 H 0.28335 0.01461 0.78940
 H1005 H 0.21396 -0.02125 0.71471
 H1006 H 0.21561 0.01439 0.71311
 H1007 H 0.24681 -0.07193 0.75390
 H1008 H 0.25011 0.06527 0.75054
 C1009 C 0.25964 0.22919 0.95755
 C1010 C 0.24615 0.24132 0.94721
 C1011 C 0.23427 0.25510 0.95760
 C1012 C 0.23563 0.25665 0.97918
 C1013 C 0.24929 0.24456 0.98996
 C1014 C 0.26148 0.23095 0.97909
 C1015 C 0.27491 0.21920 0.99013
 C1016 C 0.27646 0.22083 1.01133
 C1017 C 0.26435 0.23396 1.02245
 C1018 C 0.25064 0.24599 1.01167
 C1019 C 0.22334 0.26960 0.99033
 C1020 C 0.22452 0.27083 1.01157
 C1021 C 0.23813 0.25927 1.02256
 C1022 C 0.23913 0.26015 1.04420
 C1023 C 0.25303 0.24851 1.05452
 C1024 C 0.26572 0.23557 1.04404
 H1025 H 0.28435 0.20850 0.98255
 H1026 H 0.28725 0.21157 1.01888
 H1027 H 0.21237 0.27867 0.98281
 H1028 H 0.21447 0.28086 1.01928
 H1029 H 0.24549 0.24063 0.93063
 H1030 H 0.25381 0.24936 1.07109
 C1031 C 0.23569 0.75635 0.54475
 C1032 C 0.24887 0.74399 0.55520
 C1033 C 0.26185 0.73133 0.54476
 C1034 C 0.26195 0.73117 0.52309
 C1035 C 0.24845 0.74335 0.51223
 C1036 C 0.23531 0.75602 0.52310
 C1037 C 0.22165 0.76745 0.51205
 C1038 C 0.22078 0.76642 0.49080
 C1039 C 0.23367 0.75407 0.47969
 C1040 C 0.24772 0.74248 0.49048
 C1041 C 0.27468 0.71864 0.51200
 C1042 C 0.27417 0.71801 0.49070
 C1043 C 0.26078 0.72976 0.47961
 C1044 C 0.25968 0.72865 0.45799
 C1045 C 0.24550 0.73995 0.44764
 C1046 C 0.23250 0.75255 0.45811
 H1047 H 0.21114 0.77701 0.51972
 H1048 H 0.20961 0.77522 0.48324
 H1049 H 0.28503 0.70893 0.51965
 H1050 H 0.28412 0.70782 0.48307
 H1051 H 0.24928 0.74446 0.57180
 H1052 H 0.24505 0.73951 0.43105
 C1053 C 0.26809 0.75757 0.04412
 C1054 C 0.25474 0.74554 0.05471
 C1055 C 0.24203 0.73254 0.04442
 C1056 C 0.24292 0.73108 0.02284
 C1057 C 0.25601 0.74356 0.01182
 C1058 C 0.26847 0.75703 0.02248
 C1059 C 0.28130 0.76923 0.01123
 C1060 C 0.28158 0.76859 -0.01006
 C1061 C 0.26926 0.75550 -0.02096
 C1062 C 0.25663 0.74258 -0.00990
 C1063 C 0.23075 0.71784 0.01193
 C1064 C 0.23170 0.71655 -0.00931
 C1065 C 0.24461 0.72870 -0.02053
 C1066 C 0.24541 0.72771 -0.04213
 C1067 C 0.25772 0.74074 -0.05281
 C1068 C 0.26957 0.75464 -0.04259
 H1069 H 0.29133 0.77941 0.01873
 H1070 H 0.29184 0.77828 -0.01784
 H1071 H 0.22029 0.70835 0.01965
 H1072 H 0.22193 0.70614 -0.01687
 H1073 H 0.25425 0.74633 0.07130
 H1074 H 0.25803 0.74008 -0.06940
 C1075 C 0.26683 0.25475 0.54872
 C1076 C 0.25396 0.24186 0.55892
 C1077 C 0.24213 0.22823 0.54830
 C1078 C 0.24303 0.22752 0.52663
 C1079 C 0.25617 0.24031 0.51602
 C1080 C 0.26820 0.25388 0.52710
 C1081 C 0.28084 0.26662 0.51622
 C1082 C 0.28184 0.26595 0.49494
 C1083 C 0.27021 0.25256 0.48363
 C1084 C 0.25717 0.23967 0.49425
 C1085 C 0.23137 0.21416 0.51530
 C1086 C 0.23225 0.21362 0.49400
 C1087 C 0.24503 0.22624 0.48315
 C1088 C 0.24568 0.22609 0.46149
 C1089 C 0.25849 0.23903 0.45127
 C1090 C 0.27089 0.25209 0.46196
 H1091 H 0.28995 0.27747 0.52401
 H1092 H 0.29163 0.27634 0.48744
 H1093 H 0.22139 0.20394 0.52277
 H1094 H 0.22265 0.20327 0.48613
 H1095 H 0.25306 0.24254 0.57549
 H1096 H 0.25938 0.23833 0.43470
 C1097 C 0.73837 0.76380 1.04058
 C1098 C 0.75147 0.75129 1.05097
 C1099 C 0.76395 0.73810 1.04055
 C1100 C 0.76360 0.73758 1.01886
 C1101 C 0.75037 0.75014 1.00802
 C1102 C 0.73766 0.76322 1.01892
 C1103 C 0.72479 0.77557 1.00786
 C1104 C 0.72410 0.77488 0.98657
 C1105 C 0.73639 0.76195 0.97542
 C1106 C 0.74967 0.74944 0.98623
 C1107 C 0.77565 0.72441 1.00773
 C1108 C 0.77489 0.72365 0.98643
 C1109 C 0.76208 0.73607 0.97534
 C1110 C 0.76096 0.73508 0.95370
 C1111 C 0.74768 0.74745 0.94334
 C1112 C 0.73541 0.76083 0.95377
 H1113 H 0.71508 0.78596 1.01553
 H1114 H 0.71364 0.78451 0.97899
 H1115 H 0.78563 0.71431 1.01537
 H1116 H 0.78429 0.71295 0.97880
 H1117 H 0.75184 0.75169 1.06757
 H1118 H 0.74733 0.74710 0.92673
 C1119 C 0.75477 0.23164 0.45354
 C1120 C 0.74278 0.24499 0.44285
 C1121 C 0.73211 0.25994 0.45293
 C1122 C 0.73377 0.26189 0.47448
 C1123 C 0.74576 0.24833 0.48558
 C1124 C 0.75611 0.23301 0.47510
 C1125 C 0.76795 0.21982 0.48638
 C1126 C 0.76955 0.22152 0.50757
 C1127 C 0.75942 0.23654 0.51832
 C1128 C 0.74750 0.25016 0.50722
 C1129 C 0.72349 0.27678 0.48527
 C1130 C 0.72531 0.27867 0.50642
 C1131 C 0.73738 0.26567 0.51767
 C1132 C 0.73922 0.26747 0.53917
 C1133 C 0.75112 0.25400 0.54983
 C1134 C 0.76131 0.23866 0.53980
 H1135 H 0.77626 0.20810 0.47893
 H1136 H 0.77901 0.21104 0.51538
 H1137 H 0.71382 0.28711 0.47753
 H1138 H 0.71697 0.29037 0.51386
 H1139 H 0.74188 0.24377 0.42630
 H1140 H 0.75255 0.25553 0.56631
 C1141 C 0.76884 0.25622 0.04453
 C1142 C 0.75575 0.24370 0.05490
 C1143 C 0.74306 0.23078 0.04442
 C1144 C 0.74321 0.23048 0.02274
 C1145 C 0.75665 0.24278 0.01194
 C1146 C 0.76948 0.25571 0.02285
 C1147 C 0.78292 0.26743 0.01181
 C1148 C 0.78383 0.26645 -0.00947
 C1149 C 0.77134 0.25373 -0.02062
 C1150 C 0.75742 0.24197 -0.00984
 C1151 C 0.73067 0.21781 0.01159
 C1152 C 0.73115 0.21733 -0.00972
 C1153 C 0.74433 0.22932 -0.02077
 C1154 C 0.74514 0.22860 -0.04242
 C1155 C 0.75904 0.24023 -0.05276
 C1156 C 0.77213 0.25272 -0.04227
 H1157 H 0.79309 0.27732 0.01952
 H1158 H 0.79443 0.27589 -0.01708
 H1159 H 0.72045 0.20796 0.01920
 H1160 H 0.72127 0.20711 -0.01739
 H1161 H 0.75502 0.24441 0.07148
 H1162 H 0.75961 0.23963 -0.06934
 C1163 C 0.73512 0.74265 0.45647
 C1164 C 0.74627 0.75700 0.44616
 C1165 C 0.75835 0.77043 0.45670
 C1166 C 0.75938 0.76967 0.47829
 C1167 C 0.74846 0.75501 0.48901
 C1168 C 0.73635 0.74139 0.47807
 C1169 C 0.72551 0.72717 0.48906
 C1170 C 0.72659 0.72622 0.51031
 C1171 C 0.73840 0.73960 0.52148
 C1172 C 0.74956 0.75405 0.51073
 C1173 C 0.77132 0.78294 0.48942
 C1174 C 0.77241 0.78199 0.51067
 C1175 C 0.76173 0.76762 0.52166
 C1176 C 0.76251 0.76675 0.54330
 C1177 C 0.75155 0.75226 0.55361
 C1178 C 0.73956 0.73871 0.54308
 H1179 H 0.71598 0.71661 0.48139
 H1180 H 0.71809 0.71476 0.51785
 H1181 H 0.78000 0.79422 0.48180
 H1182 H 0.78167 0.79277 0.51838
 H1183 H 0.74548 0.75779 0.42959
 H1184 H 0.75221 0.75165 0.57019
 C1185 C 0.95997 0.25489 0.22793
 C1186 C 0.95007 0.24504 0.24373
 C1187 C 0.96020 0.23552 0.25958
 C1188 C 0.98097 0.23598 0.25986
 C1189 C 0.99127 0.24558 0.24375
 C1190 C 0.98075 0.25495 0.22764
 C1191 C 0.99127 0.26459 0.21202
 C1192 C 1.01173 0.26488 0.21205
 C1193 C 1.02248 0.25554 0.22771
 C1194 C 1.01216 0.24592 0.24381
 C1195 C 0.99170 0.22672 0.27557
 C1196 C 1.01214 0.22708 0.27566
 C1197 C 1.02266 0.23672 0.26003
 C1198 C 1.04343 0.23703 0.25994
 C1199 C 1.05335 0.24660 0.24401
 C1200 C 1.04327 0.25600 0.22803
 H1201 H 0.98381 0.27216 0.19964
 H1202 H 1.01902 0.27267 0.19971
 H1203 H 0.98443 0.21896 0.28793
 H1204 H 1.01960 0.21955 0.28806
 H1205 H 0.93413 0.24494 0.24377
 H1206 H 1.06929 0.24689 0.24415
 C1207 C 0.45790 0.27250 0.74651
 C1208 C 0.44783 0.25985 0.75990
 C1209 C 0.45777 0.24661 0.77281
 C1210 C 0.47855 0.24605 0.77254
 C1211 C 0.48903 0.25882 0.75911
 C1212 C 0.47867 0.27192 0.74587
 C1213 C 0.48938 0.28437 0.73267
 C1214 C 0.50983 0.28400 0.73244
 C1215 C 0.52040 0.27140 0.74563
 C1216 C 0.50992 0.25861 0.75904
 C1217 C 0.48913 0.23341 0.78569
 C1218 C 0.50957 0.23324 0.78566
 C1219 C 0.52028 0.24565 0.77242
 C1220 C 0.54106 0.24581 0.77256
 C1221 C 0.55112 0.25836 0.75907
 C1222 C 0.54118 0.27094 0.74550
 H1223 H 0.48209 0.29465 0.72244
 H1224 H 0.51723 0.29379 0.72180
 H1225 H 0.48173 0.22372 0.79643
 H1226 H 0.51689 0.22340 0.79634
 H1227 H 0.43189 0.25981 0.75976
 H1228 H 0.56706 0.25818 0.75898
 C1229 C -0.04143 0.23234 0.75012
 C1230 C -0.05133 0.24459 0.76412
 C1231 C -0.04136 0.25854 0.77625
 C1232 C -0.02071 0.26035 0.77439
 C1233 C -0.01043 0.24816 0.76010
 C1234 C -0.02080 0.23398 0.74807
 C1235 C -0.01038 0.22234 0.73378
 C1236 C 0.00981 0.22459 0.73125
 C1237 C 0.02043 0.23856 0.74292
 C1238 C 0.01021 0.25049 0.75749
 C1239 C -0.01016 0.27449 0.78588
 C1240 C 0.01002 0.27677 0.78334
 C1241 C 0.02051 0.26495 0.76923
 C1242 C 0.04093 0.26758 0.76617
 C1243 C 0.05072 0.25577 0.75167
 C1244 C 0.04089 0.24131 0.74003
 H1245 H -0.01778 0.21157 0.72411
 H1246 H 0.01690 0.21548 0.71972
 H1247 H -0.01747 0.28421 0.79674
 H1248 H 0.01724 0.28820 0.79232
 H1249 H -0.06711 0.24302 0.76585
 H1250 H 0.06651 0.25728 0.75005
 C1251 C 0.54137 0.26034 0.26678
 C1252 C 0.55132 0.25030 0.25107
 C1253 C 0.54126 0.23986 0.23574
 C1254 C 0.52047 0.23947 0.23596
 C1255 C 0.51012 0.24972 0.25168
 C1256 C 0.52060 0.26000 0.26729
 C1257 C 0.51001 0.27017 0.28260
 C1258 C 0.48955 0.27039 0.28254
 C1259 C 0.47887 0.26047 0.26717
 C1260 C 0.48923 0.24997 0.25161
 C1261 C 0.50977 0.22953 0.22060
 C1262 C 0.48932 0.22971 0.22057
 C1263 C 0.47875 0.24004 0.23576
 C1264 C 0.45797 0.24055 0.23565
 C1265 C 0.44806 0.25123 0.25094
 C1266 C 0.45813 0.26130 0.26650
 H1267 H 0.51744 0.27835 0.29463
 H1268 H 0.48221 0.27863 0.29460
 H1269 H 0.51707 0.22167 0.20828
 H1270 H 0.48190 0.22172 0.20841
 H1271 H 0.56726 0.25012 0.25115
 H1272 H 0.43214 0.25203 0.25060
 C1273 C 1.04202 0.73216 0.75716
 C1274 C 1.05224 0.74645 0.74577
 C1275 C 1.04243 0.76130 0.73476
 C1276 C 1.02164 0.76170 0.73469
 C1277 C 1.01103 0.74755 0.74649
 C1278 C 1.02126 0.73284 0.75790
 C1279 C 1.01043 0.71896 0.76940
 C1280 C 0.99000 0.71973 0.77005
 C1281 C 0.97956 0.73427 0.75906
 C1282 C 0.99015 0.74816 0.74693
 C1283 C 1.01118 0.77615 0.72359
 C1284 C 0.99073 0.77656 0.72377
 C1285 C 0.97992 0.76265 0.73524
 C1286 C 0.95915 0.76316 0.73575
 C1287 C 0.94896 0.74939 0.74781
 C1288 C 0.95878 0.73499 0.75942
 H1289 H 1.01761 0.70724 0.77796
 H1290 H 0.98248 0.70860 0.77910
 H1291 H 1.01868 0.78741 0.71470
 H1292 H 0.98351 0.78812 0.71503
 H1293 H 1.06818 0.74610 0.74560
 H1294 H 0.93303 0.74985 0.74810
 C1295 C 0.54192 0.74301 0.26294
 C1296 C 0.55188 0.75650 0.25035
 C1297 C 0.54185 0.77050 0.23840
 C1298 C 0.52107 0.77105 0.23892
 C1299 C 0.51070 0.75761 0.25176
 C1300 C 0.52116 0.74358 0.26385
 C1301 C 0.51055 0.73017 0.27612
 C1302 C 0.49011 0.73062 0.27671
 C1303 C 0.47944 0.74455 0.26511
 C1304 C 0.48982 0.75814 0.25244
 C1305 C 0.51041 0.78498 0.22733
 C1306 C 0.48997 0.78555 0.22805
 C1307 C 0.47936 0.77215 0.24033
 C1308 C 0.45858 0.77263 0.24114
 C1309 C 0.44862 0.75899 0.25355
 C1310 C 0.45866 0.74488 0.26535
 H1311 H 0.51791 0.71899 0.28525
 H1312 H 0.48277 0.71977 0.28625
 H1313 H 0.51775 0.79575 0.21769
 H1314 H 0.48260 0.79676 0.21896
 H1315 H 0.56781 0.75608 0.24982
 H1316 H 0.43268 0.75916 0.25384
 C1317 C 0.04333 0.76535 0.25791
 C1318 C 0.05315 0.75306 0.24388
 C1319 C 0.04311 0.73916 0.23171
 C1320 C 0.02244 0.73756 0.23337
 C1321 C 0.01219 0.74990 0.24748
 C1322 C 0.02268 0.76368 0.25995
 C1323 C 0.01218 0.77574 0.27379
 C1324 C -0.00814 0.77423 0.27551
 C1325 C -0.01881 0.76074 0.26332
 C1326 C -0.00862 0.74855 0.24904
 C1327 C 0.01169 0.72423 0.22101
 C1328 C -0.00869 0.72300 0.22246
 C1329 C -0.01919 0.73513 0.23623
 C1330 C -0.03995 0.73403 0.23779
 C1331 C -0.04970 0.74632 0.25189
 C1332 C -0.03949 0.75954 0.26461
 H1333 H 0.01950 0.78668 0.28331
 H1334 H -0.01543 0.78402 0.28631
 H1335 H 0.01890 0.71474 0.20988
 H1336 H -0.01611 0.71236 0.21265
 H1337 H 0.06905 0.75375 0.24303
 H1338 H -0.06559 0.74567 0.25295
 C1339 C 0.45511 0.75763 0.76757
 C1340 C 0.44502 0.74441 0.75471
 C1341 C 0.45488 0.72999 0.74308
 C1342 C 0.47560 0.72877 0.74408
 C1343 C 0.48607 0.74180 0.75735
 C1344 C 0.47581 0.75635 0.76906
 C1345 C 0.48646 0.76885 0.78236
 C1346 C 0.50678 0.76714 0.78413
 C1347 C 0.51726 0.75286 0.77269
 C1348 C 0.50683 0.74013 0.75909
 C1349 C 0.48609 0.71456 0.73257
 C1350 C 0.50646 0.71323 0.73392
 C1351 C 0.51712 0.72577 0.74716
 C1352 C 0.53783 0.72466 0.74847
 C1353 C 0.54786 0.73731 0.76196
 C1354 C 0.53794 0.75126 0.77414
 H1355 H 0.47917 0.78000 0.79166
 H1356 H 0.51420 0.77727 0.79449
 H1357 H 0.47868 0.70428 0.72238
 H1358 H 0.51375 0.70219 0.72448
 H1359 H 0.42915 0.74555 0.75355
 H1360 H 0.56369 0.73595 0.76334
 C1361 C 0.41268 0.29358 0.30406
 C1362 C 0.42079 0.29963 0.28642
 C1363 C 0.43428 0.28749 0.27388
 C1364 C 0.44634 0.27336 0.28106
 H1365 H 0.41584 0.31332 0.27940
 H1366 H 0.43448 0.29072 0.25761
 H1367 H 0.41679 0.27941 0.31068
 H1368 H 0.44787 0.27085 0.29735
 C1369 C 0.40937 0.79695 0.79712
 C1370 C 0.41581 0.77904 0.80349
 C1371 C 0.42860 0.76589 0.79130
 C1372 C 0.44339 0.77222 0.77953
 H1373 H 0.40986 0.77233 0.81717
 H1374 H 0.42617 0.74999 0.79292
 H1375 H 0.41446 0.80283 0.78262
 H1376 H 0.44723 0.78788 0.77906
 C1377 C -0.09479 0.30508 0.79094
 C1378 C -0.08196 0.29183 0.79835
 C1379 C -0.06888 0.28094 0.78421
 C1380 C -0.05310 0.27086 0.79069
 H1381 H -0.08132 0.28883 0.81464
 H1382 H -0.07237 0.28097 0.76799
 H1383 H -0.09449 0.30865 0.77476
 H1384 H -0.04880 0.27156 0.80665
 C1385 C -0.09137 0.80726 0.28134
 C1386 C -0.07848 0.79361 0.28771
 C1387 C -0.06572 0.78320 0.27301
 C1388 C -0.05094 0.77166 0.27932
 H1389 H -0.07767 0.78966 0.30377
 H1390 H -0.06875 0.78454 0.25676
 H1391 H -0.09147 0.81182 0.26542
 H1392 H -0.04721 0.77095 0.29544
 C1393 C 0.58710 0.70859 0.29763
 C1394 C 0.58196 0.70530 0.27810
 C1395 C 0.56826 0.71819 0.26666
 C1396 C 0.55378 0.72887 0.27528
 H1397 H 0.58946 0.69393 0.26928
 H1398 H 0.57023 0.71875 0.25021
 H1399 H 0.58058 0.72079 0.30614
 H1400 H 0.55054 0.72735 0.29142
 C1401 C 0.58656 0.20871 0.80307
 C1402 C 0.58169 0.22729 0.80873
 C1403 C 0.56785 0.23980 0.79702
 C1404 C 0.55285 0.23259 0.78595
 H1405 H 0.58965 0.23455 0.82100
 H1406 H 0.57022 0.25578 0.79761
 H1407 H 0.57969 0.20195 0.78980
 H1408 H 0.54926 0.21687 0.78646
 C1409 C 1.08672 0.69833 0.79170
 C1410 C 1.08211 0.69455 0.77215
 C1411 C 1.06843 0.70724 0.76044
 C1412 C 1.05360 0.71746 0.76901
 H1413 H 1.09015 0.68326 0.76371
 H1414 H 1.07086 0.70833 0.74408
 H1415 H 1.07982 0.71066 0.79969
 H1416 H 1.04998 0.71534 0.78499
 C1417 C 1.09467 0.19180 0.28361
 C1418 C 1.08278 0.20707 0.28796
 C1419 C 1.06992 0.21528 0.27198
 C1420 C 1.05530 0.22785 0.27643
 H1421 H 1.08260 0.21356 0.30318
 H1422 H 1.07252 0.21104 0.25616
 H1423 H 1.09397 0.18481 0.26863
 H1424 H 1.05195 0.23142 0.29225
 C1425 C 0.58562 0.30486 0.70880
 C1426 C 0.58047 0.28571 0.70619
 C1427 C 0.56720 0.27477 0.71997
 C1428 C 0.55307 0.28322 0.73133
 H1429 H 0.58755 0.27682 0.69448
 H1430 H 0.56897 0.25870 0.72034
 H1431 H 0.57955 0.31350 0.72132
 H1432 H 0.54995 0.29900 0.73005
 C1433 C 0.58727 0.80156 0.20093
 C1434 C 0.58265 0.80598 0.22037
 C1435 C 0.56900 0.79398 0.23280
 C1436 C 0.55364 0.78389 0.22517
 H1437 H 0.59063 0.81758 0.22839
 H1438 H 0.57171 0.79365 0.24915
 H1439 H 0.58036 0.78901 0.19333
 H1440 H 0.54968 0.78529 0.20917
 C1441 C 1.09443 0.30300 0.20873
 C1442 C 1.08251 0.28835 0.20258
 C1443 C 1.06925 0.27903 0.21755
 C1444 C 1.05506 0.26628 0.21214
 H1445 H 1.08280 0.28308 0.18687
 H1446 H 1.07129 0.28252 0.23366
 H1447 H 1.09328 0.30856 0.22430
 H1448 H 1.05215 0.26333 0.19610
 C1449 C 1.08816 0.79601 0.70174
 C1450 C 1.08303 0.79897 0.72130
 C1451 C 1.06920 0.78580 0.73227
 C1452 C 1.05445 0.77588 0.72320
 H1453 H 1.09069 0.81004 0.73037
 H1454 H 1.07131 0.78431 0.74864
 H1455 H 1.08161 0.78391 0.69309
 H1456 H 1.05108 0.77837 0.70721
 C1457 C 0.41002 0.69749 0.70599
 C1458 C 0.41430 0.69394 0.72566
 C1459 C 0.42770 0.70653 0.73784
 C1460 C 0.44297 0.71654 0.73001
 H1461 H 0.40630 0.68261 0.73396
 H1462 H 0.42498 0.70727 0.75418
 H1463 H 0.41688 0.70982 0.69807
 H1464 H 0.44694 0.71477 0.71405
 C1465 C 0.40524 0.19583 0.21495
 C1466 C 0.41791 0.20991 0.20918
 C1467 C 0.43081 0.21911 0.22462
 C1468 C 0.44606 0.23060 0.21957
 H1469 H 0.41870 0.21462 0.19333
 H1470 H 0.42777 0.21637 0.24069
 H1471 H 0.40534 0.19071 0.23069
 H1472 H 0.44987 0.23269 0.20361
 C1473 C -0.08629 0.70277 0.20106
 C1474 C -0.08061 0.69788 0.22006
 C1475 C -0.06665 0.70980 0.23234
 C1476 C -0.05206 0.72084 0.22449
 H1477 H -0.08784 0.68576 0.22793
 H1478 H -0.06842 0.70915 0.24882
 H1479 H -0.08003 0.71571 0.19362
 H1480 H -0.04906 0.72043 0.20821
 C1481 C -0.09480 0.21693 0.70282
 C1482 C -0.08145 0.21007 0.71601
 C1483 C -0.06892 0.22412 0.72739
 C1484 C -0.05318 0.21803 0.73788
 H1485 H -0.07983 0.19418 0.71852
 H1486 H -0.07266 0.23985 0.72724
 H1487 H -0.09560 0.23280 0.69975
 H1488 H -0.04872 0.20251 0.73731
 C1489 C 0.30485 0.40647 0.28704
 C1490 C 0.29117 0.41944 0.29318
 C1491 C 0.28173 0.43280 0.27829
 C1492 C 0.27024 0.44787 0.28430
 H1493 H 0.28657 0.41987 0.30909
 H1494 H 0.28386 0.43009 0.26205
 H1495 H 0.30996 0.40669 0.27132
 H1496 H 0.26884 0.45130 0.30044
 C1497 C 0.29676 -0.09246 0.79741
 C1498 C 0.27888 -0.08610 0.80327
 C1499 C 0.26661 -0.07248 0.79100
 C1500 C 0.27370 -0.05767 0.77944
 H1501 H 0.27173 -0.09261 0.81643
 H1502 H 0.25085 -0.07455 0.79200
 H1503 H 0.30319 -0.08673 0.78344
 H1504 H 0.28925 -0.05428 0.77960
 C1505 C 0.79260 0.41330 0.79099
 C1506 C 0.77408 0.41885 0.79525
 C1507 C 0.76256 0.43254 0.78236
 C1508 C 0.77022 0.44764 0.77163
 H1509 H 0.76603 0.41174 0.80748
 H1510 H 0.74678 0.43034 0.78221
 H1511 H 0.80005 0.41965 0.77788
 H1512 H 0.78568 0.45125 0.77284
 C1513 C 0.79254 -0.09000 0.29744
 C1514 C 0.77431 -0.08481 0.30321
 C1515 C 0.76219 -0.07090 0.29115
 C1516 C 0.76968 -0.05541 0.28087
 H1517 H 0.76712 -0.09245 0.31571
 H1518 H 0.74651 -0.07365 0.29066
 H1519 H 0.79894 -0.08320 0.28397
 H1520 H 0.78505 -0.05153 0.28259
 C1521 C 0.29731 0.58574 0.70698
 C1522 C 0.30106 0.58097 0.72650
 C1523 C 0.28848 0.56747 0.73856
 C1524 C 0.27804 0.55246 0.73042
 H1525 H 0.31260 0.58865 0.73475
 H1526 H 0.28803 0.56993 0.75496
 H1527 H 0.28483 0.57922 0.69915
 H1528 H 0.27951 0.54879 0.71434
 C1529 C 0.29609 1.08470 0.20341
 C1530 C 0.30038 1.07895 0.22253
 C1531 C 0.28788 1.06537 0.23450
 C1532 C 0.27669 1.05107 0.22618
 H1533 H 0.31237 1.08595 0.23072
 H1534 H 0.28808 1.06720 0.25099
 H1535 H 0.28321 1.07886 0.19571
 H1536 H 0.27750 1.04795 0.20992
 C1537 C 0.80107 0.59235 0.20382
 C1538 C 0.80699 0.58547 0.22205
 C1539 C 0.79514 0.57175 0.23467
 C1540 C 0.78231 0.55848 0.22705
 H1541 H 0.82013 0.59148 0.22906
 H1542 H 0.79733 0.57255 0.25109
 H1543 H 0.78723 0.58743 0.19738
 H1544 H 0.78104 0.55637 0.21066
 C1545 C 0.80571 1.09820 0.71274
 C1546 C 0.79142 1.08549 0.70750
 C1547 C 0.78264 1.07244 0.72314
 C1548 C 0.77068 1.05732 0.71828
 H1549 H 0.78612 1.08484 0.69187
 H1550 H 0.78595 1.07534 0.73914
 H1551 H 0.81142 1.09800 0.72824
 H1552 H 0.76801 1.05369 0.70234
 C1553 C 0.70023 0.59915 0.28716
 C1554 C 0.71402 0.58655 0.29381
 C1555 C 0.72456 0.57385 0.27903
 C1556 C 0.73553 0.55834 0.28486
 H1557 H 0.71754 0.58565 0.30997
 H1558 H 0.72327 0.57722 0.26284
 H1559 H 0.69621 0.59907 0.27108
 H1560 H 0.73617 0.55410 0.30084
 C1561 C 0.69316 1.09502 0.78718
 C1562 C 0.70888 1.08404 0.79215
 C1563 C 0.71795 1.07080 0.77683
 C1564 C 0.73159 1.05738 0.78196
 H1565 H 0.71540 1.08505 0.80726
 H1566 H 0.71364 1.07224 0.76090
 H1567 H 0.68650 1.09297 0.77223
 H1568 H 0.73537 1.05509 0.79790
 C1569 C 0.20147 0.58716 0.80011
 C1570 C 0.19880 0.58136 0.78067
 C1571 C 0.21208 0.56745 0.76988
 C1572 C 0.22256 0.55310 0.77905
 H1573 H 0.18771 0.58857 0.77140
 H1574 H 0.21306 0.56908 0.75340
 H1575 H 0.21347 0.58106 0.80900
 H1576 H 0.22069 0.55008 0.79521
 C1577 C 0.20480 1.08599 0.30100
 C1578 C 0.20079 1.08085 0.28160
 C1579 C 0.21325 1.06743 0.26934
 C1580 C 0.22313 1.05191 0.27705
 H1581 H 0.18902 1.08827 0.27346
 H1582 H 0.21377 1.07016 0.25299
 H1583 H 0.21761 1.07994 0.30862
 H1584 H 0.22150 1.04787 0.29301
 C1585 C 0.69778 0.41499 0.69744
 C1586 C 0.71625 0.42016 0.69273
 C1587 C 0.72803 0.43420 0.70516
 C1588 C 0.72039 0.44880 0.71679
 H1589 H 0.72392 0.41236 0.68060
 H1590 H 0.74383 0.43224 0.70472
 H1591 H 0.69045 0.42184 0.71039
 H1592 H 0.70481 0.45198 0.71623
 C1593 C 0.70111 -0.08902 0.20261
 C1594 C 0.72009 -0.08476 0.19936
 C1595 C 0.73144 -0.07113 0.21256
 C1596 C 0.72362 -0.05553 0.22249
 H1597 H 0.72831 -0.09291 0.18786
 H1598 H 0.74706 -0.07403 0.21389
 H1599 H 0.69325 -0.08201 0.21512
 H1600 H 0.70841 -0.05140 0.22004
 C1601 C 0.20474 0.41385 0.20218
 C1602 C 0.20011 0.41905 0.22142
 C1603 C 0.21195 0.43263 0.23417
 C1604 C 0.22325 0.44732 0.22687
 H1605 H 0.18815 0.41165 0.22919
 H1606 H 0.21085 0.43065 0.25060
 H1607 H 0.21755 0.42016 0.19481
 H1608 H 0.22340 0.45075 0.21068
 C1609 C 0.20144 -0.09117 0.70404
 C1610 C 0.19741 -0.08558 0.72329
 C1611 C 0.20995 -0.07182 0.73523
 C1612 C 0.22136 -0.05765 0.72699
 H1613 H 0.18556 -0.09273 0.73152
 H1614 H 0.20956 -0.07342 0.75174
 H1615 H 0.21410 -0.08508 0.69621
 H1616 H 0.22086 -0.05475 0.71071
 C1617 C 0.28780 0.29835 0.40672
 C1618 C 0.29390 0.28518 0.42067
 C1619 C 0.27956 0.27462 0.43360
 C1620 C 0.28512 0.26421 0.45006
 H1621 H 0.30942 0.28204 0.42245
 H1622 H 0.26414 0.27515 0.42941
 H1623 H 0.27231 0.30209 0.40587
 H1624 H 0.30038 0.26440 0.45484
 C1625 C 0.29940 0.79368 -0.08832
 C1626 C 0.30427 0.77476 -0.08407
 C1627 C 0.29268 0.76175 -0.07053
 C1628 C 0.28164 0.76845 -0.05500
 H1629 H 0.31629 0.76768 -0.09213
 H1630 H 0.29382 0.74583 -0.07319
 H1631 H 0.28646 0.80036 -0.08151
 H1632 H 0.28160 0.78414 -0.05106
 C1633 C 0.78822 0.29917 -0.09713
 C1634 C 0.79494 0.28574 -0.08379
 C1635 C 0.78089 0.27488 -0.07076
 C1636 C 0.78657 0.26431 -0.05447
 H1637 H 0.81055 0.28283 -0.08247
 H1638 H 0.76537 0.27567 -0.07450
 H1639 H 0.77261 0.30245 -0.09750
 H1640 H 0.80189 0.26426 -0.04994
 C1641 C 0.80534 0.78847 0.40343
 C1642 C 0.79121 0.79425 0.41632
 C1643 C 0.78130 0.77960 0.42944
 C1644 C 0.76940 0.78530 0.44462
 H1645 H 0.78666 0.80973 0.41697
 H1646 H 0.78352 0.76382 0.42647
 H1647 H 0.81038 0.77312 0.40356
 H1648 H 0.76779 0.80098 0.44834
 C1649 C 0.69514 0.28862 0.59371
 C1650 C 0.70879 0.29408 0.58019
 C1651 C 0.71846 0.27875 0.56756
 C1652 C 0.72908 0.28331 0.55103
 H1653 H 0.71277 0.30964 0.57846
 H1654 H 0.71671 0.26321 0.57179
 H1655 H 0.69071 0.27310 0.59447
 H1656 H 0.73010 0.29866 0.54599
 C1657 C 0.70150 0.79641 1.08675
 C1658 C 0.72029 0.80035 1.08208
 C1659 C 0.73240 0.78792 1.06831
 C1660 C 0.72525 0.77680 1.05295
 H1661 H 0.72798 0.81216 1.09004
 H1662 H 0.74815 0.78842 1.07074
 H1663 H 0.69413 0.78371 1.07995
 H1664 H 0.70976 0.77731 1.04923
 C1665 C 0.20587 0.29678 1.08998
 C1666 C 0.20291 0.27740 1.08597
 C1667 C 0.21566 0.26549 1.07229
 C1668 C 0.22590 0.27301 1.05657
 H1669 H 0.19183 0.26929 1.09442
 H1670 H 0.21623 0.24958 1.07513
 H1671 H 0.21790 0.30462 1.08274
 H1672 H 0.22436 0.28855 1.05241
 C1673 C 0.20289 0.79419 0.58980
 C1674 C 0.19956 0.77484 0.58595
 C1675 C 0.21223 0.76246 0.57269
 C1676 C 0.22268 0.76957 0.55695
 H1677 H 0.18813 0.76706 0.59420
 H1678 H 0.21244 0.74658 0.57577
 H1679 H 0.21528 0.80168 0.58284
 H1680 H 0.22141 0.78508 0.55258
 C1681 C 0.29840 0.69814 0.59039
 C1682 C 0.27961 0.69433 0.58564
 C1683 C 0.26766 0.70698 0.57202
 C1684 C 0.27497 0.71840 0.55705
 H1685 H 0.27187 0.68248 0.59340
 H1686 H 0.25188 0.70644 0.57425
 H1687 H 0.30585 0.71083 0.58375
 H1688 H 0.29048 0.71801 0.55343
 C1689 C 0.29881 0.20083 1.09073
 C1690 C 0.30303 0.21958 1.08524
 C1691 C 0.29063 0.23127 1.07108
 C1692 C 0.27948 0.22321 1.05627
 H1693 H 0.31476 0.22751 1.09293
 H1694 H 0.29079 0.24733 1.07301
 H1695 H 0.28620 0.19332 1.08417
 H1696 H 0.28027 0.20739 1.05307
 C1697 C 0.80092 0.70537 1.08682
 C1698 C 0.78185 0.70227 1.08271
 C1699 C 0.76997 0.71476 1.06882
 C1700 C 0.77708 0.72512 1.05293
 H1701 H 0.77380 0.69115 1.09123
 H1702 H 0.75428 0.71494 1.07166
 H1703 H 0.80879 0.71731 1.07931
 H1704 H 0.79243 0.72394 1.04877
 C1705 C 0.79467 0.20315 0.58687
 C1706 C 0.79918 0.22135 0.57977
 C1707 C 0.78680 0.23301 0.56565
 C1708 C 0.77386 0.22531 0.55235
 H1709 H 0.81172 0.22923 0.58590
 H1710 H 0.78884 0.24904 0.56608
 H1711 H 0.78159 0.19556 0.58157
 H1712 H 0.77257 0.20932 0.55042
 C1713 C 0.70170 0.70573 0.41078
 C1714 C 0.69753 0.72449 0.41648
 C1715 C 0.71010 0.73665 0.43006
 C1716 C 0.72240 0.72922 0.44414
 H1717 H 0.68527 0.73220 0.40953
 H1718 H 0.70872 0.75269 0.42861
 H1719 H 0.71471 0.69837 0.41659
 H1720 H 0.72293 0.71334 0.44700
 C1721 C 0.70572 0.19934 -0.08843
 C1722 C 0.72431 0.19399 -0.08440
 C1723 C 0.73742 0.20521 -0.07050
 C1724 C 0.73121 0.21647 -0.05478
 H1725 H 0.73102 0.18196 -0.09299
 H1726 H 0.75306 0.20378 -0.07328
 H1727 H 0.69932 0.21220 -0.08090
 H1728 H 0.71578 0.21685 -0.05078
 C1729 C 0.19763 0.71056 -0.09491
 C1730 C 0.21165 0.70432 -0.08217
 C1731 C 0.22246 0.71882 -0.06957
 C1732 C 0.23380 0.71304 -0.05401
 H1733 H 0.21526 0.68861 -0.08114
 H1734 H 0.22115 0.73458 -0.07308
 H1735 H 0.19354 0.72620 -0.09507
 H1736 H 0.23440 0.69745 -0.04972
 C1737 C 0.19964 0.21058 0.40608
 C1738 C 0.21271 0.20404 0.41977
 C1739 C 0.22319 0.21820 0.43313
 C1740 C 0.23389 0.21196 0.44904
 H1741 H 0.21589 0.18825 0.42101
 H1742 H 0.22234 0.23402 0.42979
 H1743 H 0.19594 0.22631 0.40561
 H1744 H 0.23407 0.19627 0.45299
 C1745 C 0.29669 0.41074 0.70606
 C1746 C 0.27822 0.41592 0.70132
 C1747 C 0.26622 0.42976 0.71374
 C1748 C 0.27355 0.44408 0.72590
 H1749 H 0.27071 0.40845 0.68888
 H1750 H 0.25041 0.42810 0.71255
 H1751 H 0.30390 0.41729 0.71923
 H1752 H 0.28918 0.44704 0.72617
 C1753 C 0.29536 0.91058 0.20139
 C1754 C 0.27690 0.91512 0.19594
 C1755 C 0.26396 0.92853 0.20776
 C1756 C 0.27040 0.94304 0.22019
 H1757 H 0.27014 0.90755 0.18310
 H1758 H 0.24829 0.92656 0.20565
 H1759 H 0.30181 0.91711 0.21500
 H1760 H 0.28594 0.94626 0.22128
 C1761 C 0.80088 0.40944 0.20889
 C1762 C 0.78706 0.42236 0.20305
 C1763 C 0.77742 0.43494 0.21860
 C1764 C 0.76755 0.45153 0.21385
 H1765 H 0.78309 0.42375 0.18704
 H1766 H 0.77870 0.43066 0.23456
 H1767 H 0.80549 0.40920 0.22479
 H1768 H 0.76707 0.45665 0.19813
 C1769 C 0.80661 0.90809 0.71350
 C1770 C 0.79210 0.92045 0.70819
 C1771 C 0.78339 0.93373 0.72371
 C1772 C 0.77120 0.94859 0.71878
 H1773 H 0.78662 0.92068 0.69261
 H1774 H 0.78695 0.93121 0.73970
 H1775 H 0.81251 0.90875 0.72892
 H1776 H 0.76826 0.95189 0.70284
 C1777 C 0.69553 0.59103 0.70355
 C1778 C 0.69003 0.58524 0.72230
 C1779 C 0.70158 0.57110 0.73476
 C1780 C 0.71314 0.55682 0.72684
 H1781 H 0.67774 0.59249 0.72976
 H1782 H 0.70038 0.57256 0.75125
 H1783 H 0.70866 0.58486 0.69663
 H1784 H 0.71331 0.55412 0.71050
 C1785 C 0.69257 0.09444 0.21498
 C1786 C 0.70652 0.08145 0.20960
 C1787 C 0.71531 0.06837 0.22517
 C1788 C 0.72673 0.05291 0.22014
 H1789 H 0.71155 0.08056 0.19387
 H1790 H 0.71251 0.07156 0.24121
 H1791 H 0.68703 0.09444 0.23055
 H1792 H 0.72885 0.04902 0.20417
 C1793 C 0.19884 0.58812 0.20611
 C1794 C 0.19436 0.58328 0.22543
 C1795 C 0.20659 0.56991 0.23808
 C1796 C 0.21840 0.55570 0.23046
 H1797 H 0.18232 0.59073 0.23311
 H1798 H 0.20559 0.57182 0.25453
 H1799 H 0.21168 0.58174 0.19881
 H1800 H 0.21849 0.55246 0.21422
 C1801 C 0.19221 0.09228 0.71841
 C1802 C 0.20593 0.07926 0.71236
 C1803 C 0.21569 0.06623 0.72738
 C1804 C 0.22678 0.05073 0.72157
 H1805 H 0.21017 0.07838 0.69638
 H1806 H 0.21402 0.06954 0.74356
 H1807 H 0.18737 0.09231 0.73423
 H1808 H 0.22770 0.04673 0.70550
 C1809 C 0.30477 0.59557 0.28634
 C1810 C 0.29079 0.58333 0.29323
 C1811 C 0.27976 0.57052 0.27898
 C1812 C 0.26785 0.55617 0.28579
 H1813 H 0.28722 0.58292 0.30940
 H1814 H 0.28121 0.57297 0.26263
 H1815 H 0.30881 0.59525 0.27029
 H1816 H 0.26700 0.55301 0.30203
 C1817 C 0.30622 0.09337 0.78375
 C1818 C 0.29301 0.07987 0.78975
 C1819 C 0.28358 0.06667 0.77460
 C1820 C 0.27276 0.05098 0.78024
 H1821 H 0.28894 0.07872 0.80575
 H1822 H 0.28524 0.07004 0.75845
 H1823 H 0.31084 0.09370 0.76787
 H1824 H 0.27183 0.04700 0.79629
 C1825 C 0.79909 0.59530 0.78381
 C1826 C 0.78501 0.58304 0.79043
 C1827 C 0.77401 0.57060 0.77580
 C1828 C 0.76281 0.55540 0.78195
 H1829 H 0.78150 0.58226 0.80660
 H1830 H 0.77500 0.57398 0.75959
 H1831 H 0.80317 0.59517 0.76776
 H1832 H 0.76249 0.55122 0.79797
 C1833 C 0.79316 0.08640 0.29896
 C1834 C 0.77416 0.08294 0.30286
 C1835 C 0.76226 0.06900 0.29049
 C1836 C 0.76971 0.05292 0.28102
 H1837 H 0.76643 0.09208 0.31392
 H1838 H 0.74673 0.07229 0.28904
 H1839 H 0.80053 0.07834 0.28678
 H1840 H 0.78482 0.04856 0.28363
 C1841 C 0.70333 0.41723 0.29625
 C1842 C 0.69769 0.42439 0.27802
 C1843 C 0.70956 0.43823 0.26561
 C1844 C 0.72267 0.45117 0.27325
 H1845 H 0.68467 0.41852 0.27067
 H1846 H 0.70712 0.43780 0.24921
 H1847 H 0.71697 0.42216 0.30313
 H1848 H 0.72425 0.45301 0.28964
 C1849 C 0.69731 0.90838 0.78756
 C1850 C 0.71170 0.92072 0.79331
 C1851 C 0.72082 0.93382 0.77794
 C1852 C 0.73282 0.94883 0.78297
 H1853 H 0.71671 0.92109 0.80907
 H1854 H 0.71760 0.93109 0.76189
 H1855 H 0.69194 0.90896 0.77193
 H1856 H 0.73543 0.95238 0.79894
 C1857 C 0.20147 0.41059 0.80040
 C1858 C 0.19717 0.41606 0.78118
 C1859 C 0.20947 0.42980 0.76912
 C1860 C 0.22028 0.44453 0.77727
 H1861 H 0.18537 0.40870 0.77302
 H1862 H 0.20943 0.42771 0.75266
 H1863 H 0.21417 0.41681 0.80808
 H1864 H 0.21929 0.44789 0.79346
 C1865 C 0.20921 0.90184 0.30140
 C1866 C 0.20338 0.91528 0.28765
 C1867 C 0.21816 0.92795 0.27765
 C1868 C 0.21332 0.94420 0.26699
 H1869 H 0.18797 0.91683 0.28376
 H1870 H 0.23354 0.92387 0.27904
 H1871 H 0.22456 0.90127 0.30581
 H1872 H 0.19815 0.94908 0.26637
 C1873 C 0.41282 0.30320 0.70839
 C1874 C 0.41765 0.30828 0.72760
 C1875 C 0.43134 0.29661 0.74034
 C1876 C 0.44611 0.28552 0.73288
 H1877 H 0.40983 0.32023 0.73523
 H1878 H 0.42911 0.29731 0.75676
 H1879 H 0.41962 0.29037 0.70116
 H1880 H 0.44958 0.28581 0.71670
 C1881 C 0.41276 0.80373 0.20486
 C1882 C 0.41771 0.80857 0.22410
 C1883 C 0.43165 0.79671 0.23638
 C1884 C 0.44669 0.78637 0.22838
 H1885 H 0.40980 0.82027 0.23203
 H1886 H 0.42932 0.79651 0.25279
 H1887 H 0.41959 0.79104 0.19743
 H1888 H 0.45019 0.78765 0.21227
 C1889 C 0.90998 0.30327 0.20868
 C1890 C 0.92114 0.28789 0.20285
 C1891 C 0.93415 0.27823 0.21781
 C1892 C 0.94802 0.26520 0.21223
 H1893 H 0.92054 0.28233 0.18726
 H1894 H 0.93228 0.28178 0.23393
 H1895 H 0.91145 0.30921 0.22407
 H1896 H 0.95076 0.26225 0.19616
 C1897 C 0.91428 0.79698 0.70057
 C1898 C 0.91955 0.80090 0.71994
 C1899 C 0.93288 0.78797 0.73174
 C1900 C 0.94753 0.77740 0.72337
 H1901 H 0.91237 0.81278 0.72833
 H1902 H 0.93059 0.78738 0.74815
 H1903 H 0.92025 0.78411 0.69267
 H1904 H 0.95108 0.77907 0.70730
 C1905 C 0.59239 0.30776 0.28616
 C1906 C 0.58054 0.29298 0.29201
 C1907 C 0.56746 0.28347 0.27695
 C1908 C 0.55326 0.27085 0.28248
 H1909 H 0.58068 0.28773 0.30769
 H1910 H 0.56960 0.28671 0.26083
 H1911 H 0.59143 0.31339 0.27064
 H1912 H 0.55032 0.26818 0.29855
 C1913 C 0.59128 0.79760 0.78912
 C1914 C 0.57845 0.78433 0.79634
 C1915 C 0.56561 0.77339 0.78209
 C1916 C 0.54970 0.76357 0.78851
 H1917 H 0.57747 0.78149 0.81264
 H1918 H 0.56931 0.77325 0.76593
 H1919 H 0.59128 0.80116 0.77293
 H1920 H 0.54525 0.76450 0.80442
 C1921 C 0.08670 0.30051 0.80089
 C1922 C 0.08051 0.30551 0.78211
 C1923 C 0.06643 0.29335 0.77026
 C1924 C 0.05279 0.28156 0.77874
 H1925 H 0.08743 0.31774 0.77410
 H1926 H 0.06754 0.29409 0.75373
 H1927 H 0.08077 0.28748 0.80841
 H1928 H 0.05044 0.28180 0.79513
 C1929 C 0.08866 0.79716 0.29488
 C1930 C 0.08364 0.80196 0.27567
 C1931 C 0.06975 0.79006 0.26322
 C1932 C 0.05528 0.77882 0.27105
 H1933 H 0.09139 0.81380 0.26788
 H1934 H 0.07162 0.79065 0.24675
 H1935 H 0.08192 0.78445 0.30225
 H1936 H 0.05222 0.77924 0.28730
 C1937 C 0.59061 0.71034 0.70025
 C1938 C 0.57769 0.70309 0.71367
 C1939 C 0.56479 0.71686 0.72499
 C1940 C 0.54957 0.71045 0.73606
 H1941 H 0.57681 0.68720 0.71650
 H1942 H 0.56793 0.73272 0.72443
 H1943 H 0.59066 0.72619 0.69696
 H1944 H 0.54566 0.69478 0.73599
 C1945 C 0.58666 0.20658 0.20125
 C1946 C 0.58225 0.22575 0.19785
 C1947 C 0.56839 0.23700 0.21091
 C1948 C 0.55300 0.22866 0.22041
 H1949 H 0.59054 0.23417 0.18669
 H1950 H 0.57115 0.25281 0.21287
 H1951 H 0.57944 0.19859 0.21351
 H1952 H 0.54911 0.21328 0.21731
 C1953 C 0.08811 0.70206 0.19977
 C1954 C 0.08293 0.72063 0.19445
 C1955 C 0.06928 0.73310 0.20648
 C1956 C 0.05486 0.72586 0.21827
 H1957 H 0.09037 0.72797 0.18193
 H1958 H 0.07122 0.74911 0.20541
 H1959 H 0.08169 0.69513 0.21314
 H1960 H 0.05169 0.71004 0.21830
 C1961 C 0.08615 0.20572 0.70644
 C1962 C 0.08061 0.22428 0.70152
 C1963 C 0.06674 0.23626 0.71394
 C1964 C 0.05272 0.22853 0.72601
 H1965 H 0.08782 0.23190 0.68902
 H1966 H 0.06822 0.25232 0.71297
 H1967 H 0.07984 0.19846 0.71969
 H1968 H 0.05003 0.21263 0.72596
 C1969 C 0.41392 0.70924 0.29965
 C1970 C 0.41899 0.70670 0.27998
 C1971 C 0.43233 0.72018 0.26885
 C1972 C 0.44684 0.73067 0.27760
 H1973 H 0.41166 0.69547 0.27084
 H1974 H 0.43021 0.72117 0.25243
 H1975 H 0.42015 0.72138 0.30849
 H1976 H 0.45029 0.72874 0.29365
 C1977 C 0.41271 0.20793 0.80189
 C1978 C 0.41704 0.22654 0.80792
 C1979 C 0.43067 0.23961 0.79665
 C1980 C 0.44592 0.23293 0.78562
 H1981 H 0.40891 0.23338 0.82033
 H1982 H 0.42800 0.25553 0.79764
 H1983 H 0.41976 0.20157 0.78851
 H1984 H 0.44977 0.21725 0.78580
 C1985 C 0.91307 0.70240 0.79528
 C1986 C 0.91777 0.69893 0.77566
 C1987 C 0.93144 0.71152 0.76388
 C1988 C 0.94678 0.72122 0.77202
 H1989 H 0.90982 0.68775 0.76702
 H1990 H 0.92881 0.71254 0.74754
 H1991 H 0.91990 0.71459 0.80354
 H1992 H 0.95064 0.71912 0.78796
 C1993 C 0.90892 0.18955 0.28168
 C1994 C 0.92117 0.20434 0.28664
 C1995 C 0.93426 0.21280 0.27101
 C1996 C 0.94850 0.22570 0.27580
 H1997 H 0.92122 0.21052 0.30200
 H1998 H 0.93199 0.20869 0.25510
 H1999 H 0.90959 0.18302 0.26648
 H2000 H 0.95152 0.22921 0.29170
 C2001 C 0.30030 0.29132 0.59439
 C2002 C 0.28139 0.29385 0.58930
 C2003 C 0.27045 0.28016 0.57571
 C2004 C 0.27876 0.26878 0.56117
 H2005 H 0.27287 0.30546 0.59665
 H2006 H 0.25462 0.27989 0.57751
 H2007 H 0.30856 0.27889 0.58820
 H2008 H 0.29432 0.26996 0.55802
 C2009 C 0.30096 0.79522 0.08877
 C2010 C 0.30452 0.77592 0.08500
 C2011 C 0.29196 0.76353 0.07165
 C2012 C 0.28118 0.77075 0.05618
 H2013 H 0.31595 0.76825 0.09338
 H2014 H 0.29192 0.74762 0.07454
 H2015 H 0.28859 0.80260 0.08163
 H2016 H 0.28216 0.78631 0.05196
 C2017 C 0.79896 0.29560 0.09059
 C2018 C 0.80298 0.27633 0.08686
 C2019 C 0.79113 0.26347 0.07326
 C2020 C 0.78124 0.26999 0.05685
 H2021 H 0.81435 0.26889 0.09554
 H2022 H 0.79113 0.24766 0.07669
 H2023 H 0.78662 0.30273 0.08313
 H2024 H 0.78236 0.28544 0.05222
 C2025 C 0.79837 0.79977 0.58945
 C2026 C 0.77925 0.80290 0.58577
 C2027 C 0.76750 0.79024 0.57186
 C2028 C 0.77488 0.78048 0.55564
 H2029 H 0.77129 0.81386 0.59471
 H2030 H 0.75191 0.78916 0.57508
 H2031 H 0.80605 0.78780 0.58167
 H2032 H 0.79005 0.78260 0.55118
 C2033 C 0.29891 0.69911 0.41196
 C2034 C 0.28036 0.69379 0.41622
 C2035 C 0.26733 0.70506 0.43013
 C2036 C 0.27361 0.71652 0.44564
 H2037 H 0.27358 0.68169 0.40783
 H2038 H 0.25167 0.70348 0.42756
 H2039 H 0.30536 0.71204 0.41929
 H2040 H 0.28908 0.71706 0.44947
 C2041 C 0.29601 0.19705 0.91119
 C2042 C 0.27733 0.19255 0.91569
 C2043 C 0.26516 0.20450 0.92996
 C2044 C 0.27243 0.21580 0.94518
 H2045 H 0.26992 0.18084 0.90727
 H2046 H 0.24939 0.20385 0.92774
 H2047 H 0.30309 0.20963 0.91853
 H2048 H 0.28798 0.21546 0.94861
 C2049 C 0.79779 0.70199 0.90793
 C2050 C 0.77888 0.69826 0.91222
 C2051 C 0.76677 0.71072 0.92602
 C2052 C 0.77395 0.72188 0.94137
 H2053 H 0.77118 0.68664 0.90395
 H2054 H 0.75103 0.71032 0.92353
 H2055 H 0.80523 0.71444 0.91512
 H2056 H 0.78942 0.72129 0.94511
 C2057 C 0.80251 0.21274 0.40113
 C2058 C 0.78817 0.20715 0.41384
 C2059 C 0.77798 0.22198 0.42663
 C2060 C 0.76578 0.21652 0.44162
 H2061 H 0.78368 0.19166 0.41461
 H2062 H 0.78032 0.23771 0.42366
 H2063 H 0.80740 0.22813 0.40112
 H2064 H 0.76402 0.20090 0.44539
 C2065 C 0.70129 0.29813 0.40675
 C2066 C 0.69627 0.27946 0.41184
 C2067 C 0.70790 0.26675 0.42577
 C2068 C 0.71997 0.27369 0.44038
 H2069 H 0.68398 0.27235 0.40427
 H2070 H 0.70604 0.25078 0.42406
 H2071 H 0.71429 0.30492 0.41329
 H2072 H 0.72091 0.28954 0.44339
 C2073 C 0.70213 0.79750 0.90788
 C2074 C 0.69849 0.77843 0.91276
 C2075 C 0.71110 0.76638 0.92639
 C2076 C 0.72225 0.77387 0.94150
 H2077 H 0.68678 0.77049 0.90505
 H2078 H 0.71075 0.75037 0.92407
 H2079 H 0.71467 0.80512 0.91443
 H2080 H 0.72164 0.78963 0.94511
 C2081 C 0.20262 0.29310 0.91202
 C2082 C 0.19830 0.27408 0.91643
 C2083 C 0.21041 0.26143 0.92993
 C2084 C 0.22144 0.26845 0.94535
 H2085 H 0.18636 0.26670 0.90852
 H2086 H 0.20974 0.24547 0.92728
 H2087 H 0.21543 0.30013 0.91871
 H2088 H 0.22104 0.28416 0.94922
 C2089 C 0.19931 0.78781 0.41236
 C2090 C 0.19534 0.76880 0.41697
 C2091 C 0.20784 0.75687 0.43080
 C2092 C 0.21865 0.76479 0.44594
 H2093 H 0.18372 0.76101 0.40893
 H2094 H 0.20803 0.74087 0.42839
 H2095 H 0.21186 0.79519 0.41919
 H2096 H 0.21744 0.78050 0.44959
 C2097 C 0.70490 0.70560 0.58918
 C2098 C 0.72357 0.70136 0.58438
 C2099 C 0.73535 0.71394 0.57053
 C2100 C 0.72757 0.72461 0.55522
 H2101 H 0.73118 0.68946 0.59226
 H2102 H 0.75108 0.71429 0.57305
 H2103 H 0.69774 0.71848 0.58253
 H2104 H 0.71214 0.72314 0.55148
 C2105 C 0.70472 0.20055 0.09051
 C2106 C 0.72345 0.19579 0.08641
 C2107 C 0.73612 0.20746 0.07254
 C2108 C 0.72950 0.21823 0.05669
 H2109 H 0.73056 0.18404 0.09498
 H2110 H 0.75179 0.20685 0.07543
 H2111 H 0.69795 0.21322 0.08306
 H2112 H 0.71412 0.21781 0.05252
 C2113 C 0.20614 0.69888 0.08975
 C2114 C 0.20320 0.71790 0.08435
 C2115 C 0.21666 0.72904 0.07088
 C2116 C 0.22821 0.72048 0.05675
 H2117 H 0.19141 0.72637 0.09131
 H2118 H 0.21667 0.74514 0.07244
 H2119 H 0.21874 0.69075 0.08399
 H2120 H 0.22733 0.70462 0.05380
 C2121 C 0.20329 0.19846 0.59438
 C2122 C 0.22209 0.19378 0.59057
 C2123 C 0.23491 0.20541 0.57679
 C2124 C 0.22855 0.21551 0.56037
 H2125 H 0.22920 0.18224 0.59945
 H2126 H 0.25048 0.20534 0.58027
 H2127 H 0.19654 0.21100 0.58667
 H2128 H 0.21332 0.21450 0.55568
   
