data_POSCAR
  _audit_creation_date              2014-09-24
  _audit_creation_method            'ToBaCCo'
  _symmetry_space_group_name_H-M    'P1'
  _symmetry_Int_Tables_number       1
  _symmetry_cell_setting            triclinic
  loop_
  _symmetry_equiv_pos_as_xyz
 x,y,z
_cell_length_a 56.8254
_cell_length_b 56.8156
_cell_length_c 57.0092
_cell_angle_alpha 89.919400
_cell_angle_beta 89.921400
_cell_angle_gamma 89.869500
loop_
  _atom_site_label
  _atom_site_type_symbol
  _atom_site_fract_x
  _atom_site_fract_y
  _atom_site_fract_z
N1 N 0.38100 0.31557 0.33288
 N2 N 0.37984 0.33134 0.31599
 C3 C 0.39612 0.32611 0.29956
 C4 C 0.40804 0.30618 0.30675
 C5 C 0.39803 0.29987 0.32784
 H6 H 0.39819 0.33516 0.28299
 H7 H 0.40174 0.28415 0.33790
 Cu8 Cu 0.35533 0.35540 0.31618
 Cu9 Cu 0.35814 0.31425 0.35829
 Cu10 Cu 0.31434 0.35690 0.35852
 N11 N 0.33084 0.37948 0.31641
 N12 N 0.31501 0.38008 0.33328
 C13 C 0.29907 0.39699 0.32848
 C14 C 0.30532 0.40751 0.30759
 C15 C 0.32542 0.39598 0.30027
 H16 H 0.28333 0.40037 0.33863
 H17 H 0.33452 0.39851 0.28379
 N18 N 0.31664 0.33194 0.38250
 N19 N 0.33338 0.31577 0.38243
 C20 C 0.32849 0.29954 0.39898
 C21 C 0.30786 0.30592 0.40995
 C22 C 0.30070 0.32641 0.39913
 H23 H 0.33812 0.28331 0.40159
 H24 H 0.28419 0.33549 0.40194
 H25 H 0.33061 0.33004 0.34026
 H26 H 0.34979 0.34967 0.35813
 N27 N 0.38169 0.81695 -0.16956
 N28 N 0.38020 0.83296 -0.18619
 C29 C 0.39654 0.82838 -0.20274
 C30 C 0.40890 0.80864 -0.19588
 C31 C 0.39904 0.80169 -0.17490
 H32 H 0.39835 0.83772 -0.21919
 H33 H 0.40310 0.78588 -0.16510
 Cu34 Cu 0.35541 0.85659 -0.18575
 Cu35 Cu 0.35895 0.81498 -0.14403
 Cu36 Cu 0.31487 0.85729 -0.14283
 N37 N 0.33082 0.88044 -0.18482
 N38 N 0.31517 0.88079 -0.16778
 C39 C 0.29912 0.89770 -0.17224
 C40 C 0.30521 0.90848 -0.19304
 C41 C 0.32524 0.89712 -0.20071
 H42 H 0.28343 0.90088 -0.16194
 H43 H 0.33416 0.89983 -0.21727
 N44 N 0.31753 0.83202 -0.11921
 N45 N 0.33431 0.81590 -0.11968
 C46 C 0.32979 0.79957 -0.10311
 C47 C 0.30933 0.80583 -0.09170
 C48 C 0.30192 0.82635 -0.10231
 H49 H 0.33963 0.78345 -0.10064
 H50 H 0.28549 0.83545 -0.09910
 H51 H 0.33122 0.83067 -0.16160
 H52 H 0.35048 0.85024 -0.14377
 N53 N 0.87939 0.31671 -0.16899
 N54 N 0.87860 0.33285 -0.18555
 C55 C 0.89522 0.32802 -0.20176
 C56 C 0.90702 0.30797 -0.19482
 C57 C 0.89655 0.30113 -0.17407
 H58 H 0.89772 0.33753 -0.21801
 H59 H 0.90022 0.28528 -0.16418
 Cu60 Cu 0.85444 0.35717 -0.18532
 Cu61 Cu 0.85634 0.31547 -0.14357
 Cu62 Cu 0.81354 0.35914 -0.14294
 N63 N 0.83033 0.38156 -0.18494
 N64 N 0.81459 0.38241 -0.16801
 C65 C 0.79882 0.39947 -0.17279
 C66 C 0.80514 0.40984 -0.19372
 C67 C 0.82505 0.39806 -0.20113
 H68 H 0.78309 0.40296 -0.16265
 H69 H 0.83404 0.40034 -0.21771
 N70 N 0.81525 0.33406 -0.11913
 N71 N 0.83144 0.31733 -0.11941
 C72 C 0.82606 0.30120 -0.10290
 C73 C 0.80568 0.30824 -0.09177
 C74 C 0.79920 0.32900 -0.10246
 H75 H 0.83522 0.28470 -0.10033
 H76 H 0.78305 0.33866 -0.09952
 H77 H 0.82927 0.33197 -0.16145
 H78 H 0.84893 0.35093 -0.14340
 N79 N 0.88037 0.81651 0.33122
 N80 N 0.87962 0.83243 0.31445
 C81 C 0.89631 0.82746 0.29838
 C82 C 0.90811 0.80754 0.30559
 C83 C 0.89757 0.80090 0.32637
 H84 H 0.89880 0.83673 0.28199
 H85 H 0.90118 0.78513 0.33641
 Cu86 Cu 0.85545 0.85663 0.31400
 Cu87 Cu 0.85711 0.81552 0.35641
 Cu88 Cu 0.81426 0.85910 0.35622
 N89 N 0.83152 0.88109 0.31416
 N90 N 0.81565 0.88219 0.33095
 C91 C 0.80014 0.89941 0.32593
 C92 C 0.80681 0.90960 0.30500
 C93 C 0.82662 0.89756 0.29785
 H94 H 0.78436 0.90317 0.33590
 H95 H 0.83580 0.89968 0.28136
 N96 N 0.81572 0.83417 0.38025
 N97 N 0.83202 0.81754 0.38032
 C98 C 0.82668 0.80163 0.39705
 C99 C 0.80620 0.80868 0.40799
 C100 C 0.79961 0.82923 0.39693
 H101 H 0.83599 0.78526 0.39994
 H102 H 0.78342 0.83887 0.39970
 H103 H 0.83017 0.83176 0.33816
 H104 H 0.84972 0.85105 0.35600
 N105 N 0.62012 0.68556 0.33411
 N106 N 0.62023 0.66976 0.31725
 C107 C 0.60353 0.67539 0.30145
 C108 C 0.59241 0.69563 0.30894
 C109 C 0.60337 0.70175 0.32960
 H110 H 0.60067 0.66639 0.28501
 H111 H 0.60044 0.71759 0.33971
 Cu112 Cu 0.64399 0.64507 0.31621
 Cu113 Cu 0.64380 0.68578 0.35882
 Cu114 Cu 0.68610 0.64164 0.35726
 N115 N 0.66762 0.62024 0.31551
 N116 N 0.68392 0.61885 0.33183
 C117 C 0.69916 0.60156 0.32625
 C118 C 0.69194 0.59160 0.30543
 C119 C 0.67202 0.60389 0.29895
 H120 H 0.71517 0.59761 0.33575
 H121 H 0.66242 0.60205 0.28270
 N122 N 0.68538 0.66630 0.38156
 N123 N 0.66921 0.68304 0.38220
 C124 C 0.67509 0.69874 0.39888
 C125 C 0.69579 0.69146 0.40916
 C126 C 0.70194 0.67096 0.39780
 H127 H 0.66604 0.71520 0.40208
 H128 H 0.71817 0.66123 0.40001
 H129 H 0.67027 0.66942 0.33965
 H130 H 0.65095 0.65022 0.35795
 N131 N 0.62007 0.18431 -0.16814
 N132 N 0.62047 0.16811 -0.18460
 C133 C 0.60387 0.17317 -0.20071
 C134 C 0.59245 0.19342 -0.19381
 C135 C 0.60316 0.20018 -0.17320
 H136 H 0.60115 0.16365 -0.21689
 H137 H 0.59983 0.21613 -0.16340
 Cu138 Cu 0.64407 0.14331 -0.18460
 Cu139 Cu 0.64334 0.18518 -0.14302
 Cu140 Cu 0.68580 0.14119 -0.14297
 N141 N 0.66820 0.11902 -0.18461
 N142 N 0.68427 0.11804 -0.16805
 C143 C 0.69983 0.10090 -0.17320
 C144 C 0.69299 0.09064 -0.19399
 C145 C 0.67304 0.10256 -0.20093
 H146 H 0.71573 0.09725 -0.16342
 H147 H 0.66371 0.10040 -0.21730
 N148 N 0.68451 0.16619 -0.11910
 N149 N 0.66840 0.18299 -0.11915
 C150 C 0.67393 0.19895 -0.10259
 C151 C 0.69434 0.19173 -0.09166
 C152 C 0.70067 0.17103 -0.10252
 H153 H 0.66485 0.21547 -0.09986
 H154 H 0.71676 0.16123 -0.09973
 H155 H 0.66996 0.16835 -0.16139
 H156 H 0.65050 0.14961 -0.14279
 N157 N 0.11905 0.68561 -0.16611
 N158 N 0.11954 0.66986 -0.18301
 C159 C 0.10297 0.67539 -0.19900
 C160 C 0.09155 0.69547 -0.19154
 C161 C 0.10216 0.70160 -0.17073
 H162 H 0.10038 0.66644 -0.21553
 H163 H 0.09895 0.71736 -0.16059
 Cu164 Cu 0.14366 0.64548 -0.18365
 Cu165 Cu 0.14255 0.68637 -0.14132
 Cu166 Cu 0.18578 0.64316 -0.14251
 N167 N 0.16774 0.62107 -0.18419
 N168 N 0.18405 0.62015 -0.16784
 C169 C 0.19949 0.60294 -0.17314
 C170 C 0.19240 0.59257 -0.19380
 C171 C 0.17233 0.60450 -0.20048
 H172 H 0.21544 0.59920 -0.16348
 H173 H 0.16269 0.60215 -0.21665
 N174 N 0.18446 0.66804 -0.11837
 N175 N 0.16785 0.68435 -0.11785
 C176 C 0.17319 0.70028 -0.10121
 C177 C 0.19400 0.69360 -0.09080
 C178 C 0.20079 0.67322 -0.10205
 H179 H 0.16369 0.71649 -0.09811
 H180 H 0.21723 0.66390 -0.09969
 H181 H 0.16934 0.67038 -0.16021
 H182 H 0.15040 0.65088 -0.14184
 N183 N 0.11874 0.18370 0.33196
 N184 N 0.12024 0.16763 0.31544
 C185 C 0.10405 0.17231 0.29879
 C186 C 0.09180 0.19219 0.30546
 C187 C 0.10156 0.19908 0.32646
 H188 H 0.10227 0.16292 0.28241
 H189 H 0.09757 0.21495 0.33613
 Cu190 Cu 0.14491 0.14385 0.31621
 Cu191 Cu 0.14127 0.18559 0.35758
 Cu192 Cu 0.18529 0.14318 0.35910
 N193 N 0.16948 0.11996 0.31723
 N194 N 0.18512 0.11970 0.33422
 C195 C 0.20125 0.10288 0.32980
 C196 C 0.19526 0.09204 0.30905
 C197 C 0.17516 0.10329 0.30141
 H198 H 0.21697 0.09981 0.34005
 H199 H 0.16627 0.10050 0.28489
 N200 N 0.18246 0.16845 0.38262
 N201 N 0.16572 0.18461 0.38204
 C202 C 0.17031 0.20107 0.39839
 C203 C 0.19076 0.19485 0.40976
 C204 C 0.19811 0.17423 0.39938
 H205 H 0.16059 0.21730 0.40065
 H206 H 0.21457 0.16519 0.40255
 H207 H 0.16909 0.16978 0.34009
 H208 H 0.14971 0.15029 0.35808
 N209 N 0.61948 0.31627 0.66877
 N210 N 0.62052 0.33233 0.68535
 C211 C 0.60407 0.32760 0.70172
 C212 C 0.59209 0.30770 0.69488
 C213 C 0.60230 0.30084 0.67402
 H214 H 0.60184 0.33703 0.71805
 H215 H 0.59850 0.28503 0.66420
 Cu216 Cu 0.64484 0.35636 0.68500
 Cu217 Cu 0.64236 0.31478 0.64328
 Cu218 Cu 0.68543 0.35796 0.64224
 N219 N 0.66899 0.38055 0.68426
 N220 N 0.68462 0.38126 0.66723
 C221 C 0.70037 0.39831 0.67177
 C222 C 0.69418 0.40881 0.69265
 C223 C 0.67432 0.39714 0.70024
 H224 H 0.71600 0.40177 0.66149
 H225 H 0.66539 0.39962 0.71682
 N226 N 0.68341 0.33285 0.61857
 N227 N 0.66711 0.31631 0.61900
 C228 C 0.67229 0.30008 0.60254
 C229 C 0.69265 0.30689 0.59128
 C230 C 0.69932 0.32759 0.60184
 H231 H 0.66301 0.28367 0.60011
 H232 H 0.71553 0.33705 0.59877
 H233 H 0.66963 0.33093 0.66093
 H234 H 0.64994 0.35018 0.64304
 N235 N 0.62033 0.81449 1.16635
 N236 N 0.62027 0.83022 1.18327
 C237 C 0.60361 0.82445 1.19908
 C238 C 0.59266 0.80422 1.19151
 C239 C 0.60369 0.79824 1.17080
 H240 H 0.60063 0.83337 1.21557
 H241 H 0.60078 0.78252 1.16053
 Cu242 Cu 0.64357 0.85524 1.18433
 Cu243 Cu 0.64402 0.81447 1.14163
 Cu244 Cu 0.68624 0.85840 1.14359
 N245 N 0.66757 0.87959 1.18543
 N246 N 0.68399 0.88095 1.16919
 C247 C 0.69921 0.89813 1.17492
 C248 C 0.69186 0.90801 1.19576
 C249 C 0.67189 0.89581 1.20211
 H250 H 0.71517 0.90219 1.16540
 H251 H 0.66214 0.89768 1.21831
 N252 N 0.68562 0.83400 1.11904
 N253 N 0.66946 0.81733 1.11824
 C254 C 0.67535 0.80179 1.10138
 C255 C 0.69607 0.80910 1.09115
 C256 C 0.70221 0.82944 1.10272
 H257 H 0.66632 0.78542 1.09802
 H258 H 0.71843 0.83913 1.10061
 H259 H 0.67007 0.83085 1.16103
 H260 H 0.65099 0.85010 1.14250
 N261 N 0.11915 0.31634 1.16820
 N262 N 0.12013 0.33253 1.18466
 C263 C 0.10386 0.32768 1.20120
 C264 C 0.09206 0.30760 1.19452
 C265 C 0.10218 0.30076 1.17363
 H266 H 0.10169 0.33713 1.21751
 H267 H 0.09851 0.28484 1.16393
 Cu268 Cu 0.14443 0.35661 1.18388
 Cu269 Cu 0.14199 0.31470 1.14269
 Cu270 Cu 0.18538 0.35761 1.14156
 N271 N 0.16886 0.38056 1.18341
 N272 N 0.18468 0.38097 1.16654
 C273 C 0.20075 0.39767 1.17126
 C274 C 0.19458 0.40824 1.19212
 C275 C 0.17441 0.39698 1.19950
 H276 H 0.21656 0.40081 1.16115
 H277 H 0.16542 0.39954 1.21604
 N278 N 0.18315 0.33244 1.11791
 N279 N 0.16668 0.31606 1.11837
 C280 C 0.17165 0.29978 1.10191
 C281 C 0.19205 0.30635 1.09062
 C282 C 0.19897 0.32699 1.10114
 H283 H 0.16222 0.28345 1.09950
 H284 H 0.21527 0.33627 1.09803
 H285 H 0.16934 0.33086 1.16040
 H286 H 0.14996 0.35002 1.14208
 N287 N 0.11946 0.81522 0.66640
 N288 N 0.12020 0.83087 0.68336
 C289 C 0.10374 0.82545 0.69952
 C290 C 0.09210 0.80554 0.69209
 C291 C 0.10250 0.79939 0.67113
 H292 H 0.10139 0.83435 0.71612
 H293 H 0.09902 0.78376 0.66091
 Cu294 Cu 0.14421 0.85526 0.68387
 Cu295 Cu 0.14272 0.81439 0.64138
 Cu296 Cu 0.18624 0.85707 0.64236
 N297 N 0.16886 0.87900 0.68439
 N298 N 0.18501 0.87985 0.66786
 C299 C 0.20070 0.89676 0.67313
 C300 C 0.19395 0.90700 0.69398
 C301 C 0.17381 0.89531 0.70080
 H302 H 0.21654 0.90044 0.66326
 H303 H 0.16432 0.89764 0.71710
 N304 N 0.18449 0.83245 0.61805
 N305 N 0.16782 0.81629 0.61763
 C306 C 0.17301 0.80035 0.60092
 C307 C 0.19381 0.80687 0.59037
 C308 C 0.20073 0.82716 0.60162
 H309 H 0.16345 0.78421 0.59789
 H310 H 0.21725 0.83626 0.59923
 H311 H 0.16953 0.83003 0.66021
 H312 H 0.15068 0.84976 0.64194
 N313 N 0.38105 0.68384 0.66936
 N314 N 0.37998 0.66772 0.68593
 C315 C 0.39626 0.67250 0.70239
 C316 C 0.40816 0.69249 0.69560
 C317 C 0.39810 0.69934 0.67469
 H318 H 0.39837 0.66307 0.71875
 H319 H 0.40188 0.71521 0.66489
 Cu320 Cu 0.35571 0.64370 0.68544
 Cu321 Cu 0.35830 0.68538 0.64384
 Cu322 Cu 0.31483 0.64254 0.64308
 N323 N 0.33139 0.61972 0.68504
 N324 N 0.31555 0.61922 0.66823
 C325 C 0.29969 0.60232 0.67306
 C326 C 0.30604 0.59175 0.69390
 C327 C 0.32609 0.60321 0.70115
 H328 H 0.28392 0.59899 0.66300
 H329 H 0.33518 0.60065 0.71762
 N330 N 0.31711 0.66767 0.61924
 N331 N 0.33367 0.68396 0.61954
 C332 C 0.32892 0.70011 0.60285
 C333 C 0.30857 0.69357 0.59154
 C334 C 0.30143 0.67307 0.60234
 H335 H 0.33851 0.71633 0.60026
 H336 H 0.28513 0.66379 0.59923
 H337 H 0.33089 0.66931 0.66163
 H338 H 0.35029 0.65000 0.64352
 N339 N 0.38089 0.18398 1.16703
 N340 N 0.38020 0.16810 1.18385
 C341 C 0.39652 0.17348 1.20011
 C342 C 0.40805 0.19358 1.19286
 C343 C 0.39771 0.19987 1.17194
 H344 H 0.39889 0.16441 1.21664
 H345 H 0.40109 0.21566 1.16188
 Cu346 Cu 0.35599 0.14384 1.18390
 Cu347 Cu 0.35781 0.18505 1.14182
 Cu348 Cu 0.31463 0.14195 1.14208
 N349 N 0.33170 0.11967 1.18415
 N350 N 0.31576 0.11894 1.16743
 C351 C 0.29986 0.10215 1.17257
 C352 C 0.30621 0.09190 1.19353
 C353 C 0.32635 0.10344 1.20057
 H354 H 0.28404 0.09875 1.16263
 H355 H 0.33546 0.10114 1.21706
 N356 N 0.31644 0.16681 1.11799
 N357 N 0.33290 0.18320 1.11789
 C358 C 0.32771 0.19924 1.10124
 C359 C 0.30717 0.19251 1.09042
 C360 C 0.30038 0.17202 1.10140
 H361 H 0.33708 0.21554 1.09841
 H362 H 0.28404 0.16269 1.09871
 H363 H 0.33072 0.16907 1.16023
 H364 H 0.35001 0.14968 1.14204
 N365 N 0.88069 0.68412 1.16902
 N366 N 0.88003 0.66793 1.18552
 C367 C 0.89650 0.67278 1.20176
 C368 C 0.90813 0.69289 1.19491
 C369 C 0.89771 0.69975 1.17416
 H370 H 0.89904 0.66322 1.21799
 H371 H 0.90139 0.71556 1.16424
 Cu372 Cu 0.85638 0.64332 1.18542
 Cu373 Cu 0.85772 0.68518 1.14365
 Cu374 Cu 0.81494 0.64166 1.14343
 N375 N 0.83202 0.61940 1.18534
 N376 N 0.81606 0.61859 1.16867
 C377 C 0.80046 0.60151 1.17373
 C378 C 0.80707 0.59122 1.19463
 C379 C 0.82701 0.60297 1.20164
 H380 H 0.78476 0.59778 1.16371
 H381 H 0.83628 0.60063 1.21804
 N382 N 0.81665 0.66661 1.11944
 N383 N 0.83288 0.68322 1.11955
 C384 C 0.82759 0.69924 1.10290
 C385 C 0.80722 0.69226 1.09184
 C386 C 0.80064 0.67164 1.10274
 H387 H 0.83679 0.71566 1.10020
 H388 H 0.78448 0.66207 1.09988
 H389 H 0.83102 0.66849 1.16167
 H390 H 0.85048 0.64952 1.14331
 N391 N 0.88038 0.18403 0.66896
 N392 N 0.87949 0.16796 0.68553
 C393 C 0.89593 0.17279 0.70187
 C394 C 0.90774 0.19278 0.69494
 C395 C 0.89746 0.19959 0.67411
 H396 H 0.89826 0.16337 0.71821
 H397 H 0.90112 0.21543 0.66424
 Cu398 Cu 0.85537 0.14377 0.68547
 Cu399 Cu 0.85742 0.18534 0.64356
 Cu400 Cu 0.81435 0.14208 0.64321
 N401 N 0.83116 0.11966 0.68519
 N402 N 0.81531 0.11891 0.66845
 C403 C 0.79961 0.10188 0.67339
 C404 C 0.80608 0.09146 0.69426
 C405 C 0.82602 0.10316 0.70144
 H406 H 0.78386 0.09838 0.66336
 H407 H 0.83518 0.10074 0.71789
 N408 N 0.81626 0.16708 0.61926
 N409 N 0.83258 0.18362 0.61943
 C410 C 0.82737 0.19972 0.60282
 C411 C 0.80697 0.19286 0.59173
 C412 C 0.80030 0.17224 0.60256
 H413 H 0.83666 0.21610 0.60016
 H414 H 0.78409 0.16276 0.59967
 H415 H 0.83029 0.16911 0.66151
 H416 H 0.84981 0.14989 0.64344
 N417 N 0.31550 0.38103 0.66762
 N418 N 0.33144 0.37995 0.68429
 C419 C 0.32638 0.39627 0.70069
 C420 C 0.30634 0.40812 0.69377
 C421 C 0.29978 0.39803 0.67283
 H422 H 0.33563 0.39839 0.71711
 H423 H 0.28390 0.40162 0.66301
 Cu424 Cu 0.35569 0.35560 0.68429
 Cu425 Cu 0.31408 0.35810 0.64241
 Cu426 Cu 0.35665 0.31442 0.64188
 N427 N 0.37962 0.33094 0.68353
 N428 N 0.38003 0.31506 0.66677
 C429 C 0.39691 0.29905 0.67150
 C430 C 0.40765 0.30539 0.69221
 C431 C 0.39625 0.32556 0.69949
 H432 H 0.40008 0.28319 0.66149
 H433 H 0.39891 0.33471 0.71589
 N434 N 0.33157 0.31665 0.61814
 N435 N 0.31538 0.33336 0.61831
 C436 C 0.29911 0.32851 0.60186
 C437 C 0.30548 0.30791 0.59083
 C438 C 0.32601 0.30076 0.60153
 H439 H 0.28288 0.33815 0.59933
 H440 H 0.33514 0.28429 0.59863
 H441 H 0.33003 0.33066 0.66076
 H442 H 0.34954 0.34987 0.64253
 N443 N 0.31592 0.88132 0.16841
 N444 N 0.33189 0.88038 0.18507
 C445 C 0.32687 0.89679 0.20138
 C446 C 0.30688 0.90861 0.19438
 C447 C 0.30026 0.89839 0.17351
 H448 H 0.33613 0.89905 0.21778
 H449 H 0.28445 0.90206 0.16360
 Cu450 Cu 0.35606 0.85616 0.18497
 Cu451 Cu 0.31471 0.85830 0.14311
 Cu452 Cu 0.35781 0.81490 0.14294
 N453 N 0.38026 0.83196 0.18480
 N454 N 0.38100 0.81595 0.16816
 C455 C 0.39815 0.80031 0.17313
 C456 C 0.40863 0.80701 0.19387
 C457 C 0.39686 0.82701 0.20093
 H458 H 0.40175 0.78449 0.16320
 H459 H 0.39931 0.83634 0.21726
 N460 N 0.33277 0.81688 0.11901
 N461 N 0.31640 0.83344 0.11907
 C462 C 0.30034 0.82846 0.10243
 C463 C 0.30702 0.80795 0.09140
 C464 C 0.32751 0.80096 0.10232
 H465 H 0.28409 0.83801 0.09970
 H466 H 0.33686 0.78462 0.09946
 H467 H 0.33083 0.83108 0.16122
 H468 H 0.35019 0.85036 0.14306
 N469 N 0.81465 0.37991 0.16625
 N470 N 0.83054 0.37953 0.18304
 C471 C 0.82502 0.39606 0.19908
 C472 C 0.80480 0.40737 0.19178
 C473 C 0.79859 0.39670 0.17101
 H474 H 0.83413 0.39875 0.21550
 H475 H 0.78280 0.39992 0.16090
 Cu476 Cu 0.85515 0.35559 0.18344
 Cu477 Cu 0.81418 0.35664 0.14116
 Cu478 Cu 0.85812 0.31416 0.14169
 N479 N 0.87980 0.33168 0.18374
 N480 N 0.88097 0.31573 0.16705
 C481 C 0.89802 0.30011 0.17226
 C482 C 0.90802 0.30665 0.19324
 C483 C 0.89604 0.32661 0.20021
 H484 H 0.90178 0.28429 0.16238
 H485 H 0.89803 0.33577 0.21671
 N486 N 0.83341 0.31545 0.11752
 N487 N 0.81667 0.33163 0.11730
 C488 C 0.80081 0.32603 0.10067
 C489 C 0.80801 0.30550 0.08999
 C490 C 0.82860 0.29915 0.10106
 H491 H 0.78431 0.33509 0.09778
 H492 H 0.83825 0.28292 0.09855
 H493 H 0.83057 0.32983 0.15981
 H494 H 0.84970 0.34940 0.14163
 N495 N 0.81452 0.88050 0.66684
 N496 N 0.83022 0.88031 0.68378
 C497 C 0.82446 0.89687 0.69969
 C498 C 0.80426 0.90799 0.69216
 C499 C 0.79829 0.89720 0.67137
 H500 H 0.83338 0.89968 0.71619
 H501 H 0.78256 0.90025 0.66113
 Cu502 Cu 0.85502 0.85670 0.68452
 Cu503 Cu 0.81441 0.85705 0.64188
 Cu504 Cu 0.85866 0.81490 0.64323
 N505 N 0.87982 0.83308 0.68528
 N506 N 0.88130 0.81696 0.66880
 C507 C 0.89862 0.80172 0.67425
 C508 C 0.90845 0.80875 0.69517
 C509 C 0.89612 0.82856 0.70185
 H510 H 0.90271 0.78588 0.66455
 H511 H 0.89794 0.83800 0.71820
 N512 N 0.83411 0.81573 0.61884
 N513 N 0.81730 0.83182 0.61830
 C514 C 0.80175 0.82610 0.60143
 C515 C 0.80925 0.80560 0.59089
 C516 C 0.82967 0.79938 0.60233
 H517 H 0.78529 0.83512 0.59821
 H518 H 0.83952 0.78325 0.59996
 H519 H 0.83090 0.83061 0.66076
 H520 H 0.85006 0.85013 0.64264
 N521 N 0.68390 0.62069 0.66789
 N522 N 0.66762 0.62161 0.68430
 C523 C 0.67235 0.60520 0.70073
 C524 C 0.69245 0.59335 0.69408
 C525 C 0.69947 0.60362 0.67330
 H526 H 0.66275 0.60294 0.71698
 H527 H 0.71542 0.59989 0.66360
 Cu528 Cu 0.64322 0.64564 0.68379
 Cu529 Cu 0.68538 0.64359 0.64243
 Cu530 Cu 0.64200 0.68668 0.64139
 N531 N 0.61931 0.67018 0.68328
 N532 N 0.61867 0.68592 0.66635
 C533 C 0.60175 0.70185 0.67108
 C534 C 0.59128 0.69567 0.69199
 C535 C 0.60284 0.67564 0.69941
 H536 H 0.59836 0.71758 0.66091
 H537 H 0.60041 0.66666 0.71598
 N538 N 0.66716 0.68467 0.61771
 N539 N 0.68380 0.66839 0.61816
 C540 C 0.70007 0.67363 0.60174
 C541 C 0.69322 0.69402 0.59050
 C542 C 0.67242 0.70063 0.60102
 H543 H 0.71655 0.66437 0.59934
 H544 H 0.66289 0.71684 0.59798
 H545 H 0.66888 0.67067 0.66027
 H546 H 0.65001 0.65118 0.64191
 N547 N 0.68580 0.11986 0.16570
 N548 N 0.67026 0.11989 0.18283
 C549 C 0.67611 0.10311 0.19849
 C550 C 0.69621 0.09202 0.19062
 C551 C 0.70203 0.10306 0.16988
 H552 H 0.66733 0.10011 0.21507
 H553 H 0.71766 0.10010 0.15943
 Cu554 Cu 0.64550 0.14356 0.18419
 Cu555 Cu 0.68566 0.14357 0.14096
 Cu556 Cu 0.64141 0.18567 0.14306
 N557 N 0.62061 0.16711 0.18524
 N558 N 0.61894 0.18332 0.16881
 C559 C 0.60153 0.19840 0.17444
 C560 C 0.59184 0.19120 0.19542
 C561 C 0.60435 0.17142 0.20194
 H562 H 0.59724 0.21425 0.16481
 H563 H 0.60263 0.16183 0.21825
 N564 N 0.66581 0.18512 0.11844
 N565 N 0.68259 0.16901 0.11760
 C566 C 0.69804 0.17490 0.10065
 C567 C 0.69054 0.19554 0.09037
 C568 C 0.67020 0.20168 0.10205
 H569 H 0.71448 0.16590 0.09722
 H570 H 0.66039 0.21787 0.09994
 H571 H 0.66938 0.16984 0.16021
 H572 H 0.65004 0.15040 0.14227
 N573 N 0.18363 0.61922 0.16866
 N574 N 0.16722 0.62058 0.18491
 C575 C 0.17152 0.60422 0.20153
 C576 C 0.19148 0.59195 0.19513
 C577 C 0.19882 0.60190 0.17431
 H578 H 0.16177 0.60227 0.21772
 H579 H 0.21479 0.59784 0.16478
 Cu580 Cu 0.14346 0.64527 0.18372
 Cu581 Cu 0.18597 0.64195 0.14307
 Cu582 Cu 0.14362 0.68606 0.14116
 N583 N 0.11979 0.67007 0.18276
 N584 N 0.11982 0.68586 0.16585
 C585 C 0.10305 0.70208 0.17025
 C586 C 0.09200 0.69601 0.19092
 C587 C 0.10304 0.67576 0.19852
 H588 H 0.10013 0.71785 0.16000
 H589 H 0.10003 0.66678 0.21499
 N590 N 0.16917 0.68330 0.11785
 N591 N 0.18535 0.66657 0.11862
 C592 C 0.20197 0.67120 0.10236
 C593 C 0.19583 0.69164 0.09084
 C594 C 0.17509 0.69894 0.10107
 H595 H 0.21821 0.66147 0.10023
 H596 H 0.16602 0.71536 0.09772
 H597 H 0.16981 0.66966 0.16037
 H598 H 0.15072 0.65049 0.14194
 N599 N 0.18325 0.11844 0.66862
 N600 N 0.16717 0.11979 0.68520
 C601 C 0.17192 0.10354 0.70179
 C602 C 0.19184 0.09139 0.69505
 C603 C 0.19869 0.10128 0.67405
 H604 H 0.16256 0.10163 0.71821
 H605 H 0.21457 0.09739 0.66432
 Cu606 Cu 0.14332 0.14445 0.68467
 Cu607 Cu 0.18508 0.14114 0.64310
 Cu608 Cu 0.14281 0.18524 0.64200
 N609 N 0.11958 0.16920 0.68389
 N610 N 0.11938 0.18499 0.66698
 C611 C 0.10260 0.20113 0.67153
 C612 C 0.09174 0.19504 0.69229
 C613 C 0.10292 0.17482 0.69979
 H614 H 0.09954 0.21690 0.66132
 H615 H 0.10002 0.16576 0.71624
 N616 N 0.16799 0.18252 0.61832
 N617 N 0.18410 0.16571 0.61873
 C618 C 0.20052 0.17037 0.60229
 C619 C 0.19434 0.19094 0.59107
 C620 C 0.17378 0.19828 0.60162
 H621 H 0.21670 0.16061 0.59990
 H622 H 0.16480 0.21481 0.59862
 H623 H 0.16930 0.16874 0.66082
 H624 H 0.14977 0.14958 0.64277
 N625 N 0.31601 0.61866 0.33111
 N626 N 0.33203 0.61945 0.31445
 C627 C 0.32703 0.60305 0.29817
 C628 C 0.30700 0.59137 0.30519
 C629 C 0.30034 0.60169 0.32604
 H630 H 0.33631 0.60074 0.28175
 H631 H 0.28448 0.59815 0.33594
 Cu632 Cu 0.35618 0.64357 0.31445
 Cu633 Cu 0.31477 0.64172 0.35636
 Cu634 Cu 0.35788 0.68493 0.35635
 N635 N 0.38033 0.66769 0.31447
 N636 N 0.38105 0.68374 0.33106
 C637 C 0.39814 0.69934 0.32598
 C638 C 0.40860 0.69257 0.30521
 C639 C 0.39688 0.67258 0.29824
 H640 H 0.40170 0.71517 0.33585
 H641 H 0.39930 0.66324 0.28190
 N642 N 0.33285 0.68309 0.38035
 N643 N 0.31647 0.66661 0.38035
 C644 C 0.30044 0.67166 0.39705
 C645 C 0.30716 0.69213 0.40807
 C646 C 0.32764 0.69902 0.39708
 H647 H 0.28419 0.66219 0.39986
 H648 H 0.33701 0.71531 0.39993
 H649 H 0.33087 0.66879 0.33817
 H650 H 0.35018 0.64947 0.35636
 N651 N 0.31602 0.11877 0.83203
 N652 N 0.33207 0.11972 0.81541
 C653 C 0.32707 0.10345 0.79898
 C654 C 0.30702 0.09168 0.80588
 C655 C 0.30035 0.10183 0.82680
 H656 H 0.33642 0.10124 0.78260
 H657 H 0.28451 0.09818 0.83669
 Cu658 Cu 0.35653 0.14367 0.81570
 Cu659 Cu 0.31470 0.14160 0.85744
 Cu660 Cu 0.35764 0.18484 0.85801
 N661 N 0.38021 0.16839 0.81600
 N662 N 0.38080 0.18417 0.83285
 C663 C 0.39763 0.20011 0.82801
 C664 C 0.40809 0.19391 0.80709
 C665 C 0.39663 0.17384 0.79980
 H666 H 0.40100 0.21583 0.83813
 H667 H 0.39915 0.16478 0.78332
 N668 N 0.33268 0.18269 0.88191
 N669 N 0.31627 0.16626 0.88167
 C670 C 0.30005 0.17132 0.89819
 C671 C 0.30668 0.19177 0.90929
 C672 C 0.32730 0.19861 0.89858
 H673 H 0.28372 0.16193 0.90073
 H674 H 0.33660 0.21493 0.90148
 H675 H 0.33088 0.16870 0.83933
 H676 H 0.35006 0.14933 0.85763
 N677 N 0.81542 0.61966 0.83222
 N678 N 0.83143 0.61994 0.81554
 C679 C 0.82604 0.60353 0.79940
 C680 C 0.80576 0.59237 0.80651
 C681 C 0.79934 0.60301 0.82729
 H682 H 0.83523 0.60089 0.78298
 H683 H 0.78346 0.59985 0.83728
 Cu684 Cu 0.85626 0.64336 0.81505
 Cu685 Cu 0.81489 0.64295 0.85731
 Cu686 Cu 0.85878 0.68527 0.85644
 N687 N 0.88049 0.66741 0.81456
 N688 N 0.88160 0.68357 0.83101
 C689 C 0.89865 0.69905 0.82553
 C690 C 0.90868 0.69212 0.80462
 C691 C 0.89674 0.67214 0.79798
 H692 H 0.90245 0.71495 0.83522
 H693 H 0.89872 0.66274 0.78161
 N694 N 0.83412 0.68415 0.88074
 N695 N 0.81740 0.66804 0.88108
 C696 C 0.80175 0.67358 0.89800
 C697 C 0.80908 0.69400 0.90874
 C698 C 0.82953 0.70033 0.89740
 H699 H 0.78534 0.66448 0.90112
 H700 H 0.83930 0.71643 0.89997
 H701 H 0.83143 0.66937 0.83846
 H702 H 0.85044 0.64997 0.85692
 N703 N 0.81512 0.11928 0.33293
 N704 N 0.83097 0.11991 0.31609
 C705 C 0.82559 0.10351 0.29992
 C706 C 0.80550 0.09202 0.30720
 C707 C 0.79921 0.10245 0.32809
 H708 H 0.83468 0.10105 0.28342
 H709 H 0.78344 0.09909 0.33820
 Cu710 Cu 0.85532 0.14400 0.31583
 Cu711 Cu 0.81430 0.14240 0.35815
 Cu712 Cu 0.85766 0.18532 0.35764
 N713 N 0.87966 0.16810 0.31553
 N714 N 0.88060 0.18402 0.33225
 C715 C 0.89759 0.19969 0.32714
 C716 C 0.90780 0.19320 0.30619
 C717 C 0.89600 0.17323 0.29913
 H718 H 0.90119 0.21547 0.33709
 H719 H 0.89817 0.16408 0.28264
 N720 N 0.83290 0.18372 0.38183
 N721 N 0.81643 0.16735 0.38206
 C722 C 0.80052 0.17267 0.39879
 C723 C 0.80741 0.19322 0.40953
 C724 C 0.82787 0.19986 0.39840
 H725 H 0.78418 0.16340 0.40172
 H726 H 0.83729 0.21617 0.40099
 H727 H 0.83028 0.16935 0.33962
 H728 H 0.84967 0.14993 0.35769
 N729 N 0.68452 0.38013 0.33311
 N730 N 0.66882 0.37980 0.31616
 C731 C 0.67441 0.39637 0.30019
 C732 C 0.69446 0.40768 0.30771
 C733 C 0.70054 0.39695 0.32853
 H734 H 0.66552 0.39905 0.28363
 H735 H 0.71626 0.40008 0.33872
 Cu736 Cu 0.64435 0.35590 0.31530
 Cu737 Cu 0.68501 0.35667 0.35801
 Cu738 Cu 0.64161 0.31390 0.35672
 N739 N 0.62000 0.33188 0.31475
 N740 N 0.61889 0.31566 0.33121
 C741 C 0.60181 0.30022 0.32580
 C742 C 0.59172 0.30721 0.30494
 C743 C 0.60369 0.32722 0.29826
 H744 H 0.59802 0.28430 0.33550
 H745 H 0.60158 0.33674 0.28195
 N746 N 0.66617 0.31505 0.38110
 N747 N 0.68263 0.33142 0.38163
 C748 C 0.69831 0.32595 0.39850
 C749 C 0.69130 0.30529 0.40904
 C750 C 0.67100 0.29874 0.39761
 H751 H 0.71456 0.33526 0.40172
 H752 H 0.66150 0.28243 0.40001
 H753 H 0.66903 0.33015 0.33904
 H754 H 0.64951 0.34935 0.35720
 N755 N 0.68383 0.87990 0.83316
 N756 N 0.66773 0.87920 0.81662
 C757 C 0.67274 0.89568 0.80032
 C758 C 0.69285 0.90730 0.80724
 C759 C 0.69955 0.89684 0.82802
 H760 H 0.66338 0.89808 0.78398
 H761 H 0.71549 0.90023 0.83779
 Cu762 Cu 0.64356 0.85497 0.81675
 Cu763 Cu 0.68516 0.85673 0.85839
 Cu764 Cu 0.64187 0.81381 0.85891
 N765 N 0.61929 0.83083 0.81711
 N766 N 0.61858 0.81496 0.83392
 C767 C 0.60167 0.79916 0.82910
 C768 C 0.59122 0.80555 0.80826
 C769 C 0.60282 0.82557 0.80094
 H770 H 0.59835 0.78331 0.83911
 H771 H 0.60045 0.83465 0.78443
 N772 N 0.66694 0.81549 0.88264
 N773 N 0.68351 0.83177 0.88241
 C774 C 0.69967 0.82641 0.89886
 C775 C 0.69284 0.80593 0.90988
 C776 C 0.67216 0.79939 0.89921
 H777 H 0.71608 0.83565 0.90144
 H778 H 0.66269 0.78315 0.90209
 H779 H 0.66902 0.82969 0.84021
 H780 H 0.64988 0.84921 0.85845
 N781 N 0.18335 0.38079 0.83287
 N782 N 0.16739 0.37999 0.81618
 C783 C 0.17254 0.39639 0.79986
 C784 C 0.19259 0.40804 0.80692
 C785 C 0.19909 0.39771 0.82780
 H786 H 0.16334 0.39873 0.78342
 H787 H 0.21493 0.40117 0.83770
 Cu788 Cu 0.14323 0.35574 0.81641
 Cu789 Cu 0.18464 0.35771 0.85815
 Cu790 Cu 0.14169 0.31438 0.85837
 N791 N 0.11915 0.33140 0.81646
 N792 N 0.11853 0.31545 0.83321
 C793 C 0.10171 0.29957 0.82828
 C794 C 0.09127 0.30598 0.80743
 C795 C 0.10274 0.32612 0.80025
 H796 H 0.09839 0.28371 0.83826
 H797 H 0.10027 0.33531 0.78381
 N798 N 0.16668 0.31628 0.88223
 N799 N 0.18301 0.33279 0.88215
 C800 C 0.19923 0.32758 0.89859
 C801 C 0.19267 0.30697 0.90947
 C802 C 0.17210 0.30016 0.89874
 H803 H 0.21554 0.33698 0.90120
 H804 H 0.16288 0.28376 0.90149
 H805 H 0.16863 0.33056 0.83999
 H806 H 0.14926 0.34981 0.85824
 N807 N 0.18326 0.88072 0.33109
 N808 N 0.16687 0.87951 0.31485
 C809 C 0.17126 0.89584 0.29824
 C810 C 0.19123 0.90797 0.30467
 C811 C 0.19851 0.89793 0.32546
 H812 H 0.16160 0.89786 0.28203
 H813 H 0.21447 0.90185 0.33498
 Cu814 Cu 0.14309 0.85494 0.31602
 Cu815 Cu 0.18553 0.85792 0.35662
 Cu816 Cu 0.14318 0.81400 0.35841
 N817 N 0.11947 0.83021 0.31681
 N818 N 0.11948 0.81437 0.33368
 C819 C 0.10282 0.79816 0.32918
 C820 C 0.09187 0.80428 0.30849
 C821 C 0.10285 0.82455 0.30098
 H822 H 0.09993 0.78235 0.33936
 H823 H 0.09993 0.83355 0.28451
 N824 N 0.16864 0.81661 0.38176
 N825 N 0.18484 0.83325 0.38103
 C826 C 0.20138 0.82855 0.39732
 C827 C 0.19518 0.80813 0.40881
 C828 C 0.17448 0.80093 0.39855
 H829 H 0.21760 0.83821 0.39951
 H830 H 0.16539 0.78456 0.40187
 H831 H 0.16944 0.83037 0.33922
 H832 H 0.15033 0.84955 0.35777
 C833 C 0.25116 1.06335 0.25180
 C834 C 0.26468 1.05115 0.23544
 C835 C 0.26370 1.02655 0.23446
 C836 C 0.24993 1.01353 0.25072
 C837 C 0.23677 1.02648 0.26751
 C838 C 0.23701 1.05113 0.26760
 C839 C 0.24929 0.98690 0.25015
 C840 C 0.23233 0.97398 0.26316
 C841 C 0.23238 0.94931 0.26310
 C842 C 0.24833 0.93707 0.24912
 C843 C 0.26476 0.94926 0.23568
 C844 C 0.26573 0.97385 0.23664
 H845 H 0.25155 1.08244 0.25216
 H846 H 0.27368 1.01809 0.22076
 H847 H 0.22625 1.01792 0.28074
 H848 H 0.21890 0.98255 0.27344
 H849 H 0.24805 0.91797 0.24879
 H850 H 0.27961 0.98226 0.22684
 C851 C 0.24858 0.56323 0.74969
 C852 C 0.26404 0.55099 0.73519
 C853 C 0.26447 0.52635 0.73550
 C854 C 0.24891 0.51329 0.75004
 C855 C 0.23317 0.52639 0.76442
 C856 C 0.23329 0.55105 0.76439
 C857 C 0.24915 0.48654 0.75022
 C858 C 0.23439 0.47347 0.76556
 C859 C 0.23453 0.44882 0.76553
 C860 C 0.24955 0.43659 0.75057
 C861 C 0.26438 0.44880 0.73542
 C862 C 0.26413 0.47345 0.73505
 H863 H 0.24851 0.58234 0.74958
 H864 H 0.27722 0.51802 0.72425
 H865 H 0.22060 0.51807 0.77586
 H866 H 0.22258 0.48182 0.77778
 H867 H 0.24967 0.41749 0.75068
 H868 H 0.27576 0.48177 0.72267
 C869 C 0.74889 -0.06285 0.25116
 C870 C 0.76537 -0.05065 0.26445
 C871 C 0.76630 -0.02606 0.26346
 C872 C 0.74975 -0.01305 0.25007
 C873 C 0.73278 -0.02595 0.23717
 C874 C 0.73286 -0.05061 0.23725
 C875 C 0.75029 0.01356 0.24953
 C876 C 0.73759 0.02647 0.23238
 C877 C 0.73771 0.05111 0.23230
 C878 C 0.75133 0.06336 0.24846
 C879 C 0.76443 0.05118 0.26519
 C880 C 0.76350 0.02657 0.26616
 H881 H 0.74863 -0.08195 0.25154
 H882 H 0.78019 -0.01757 0.27312
 H883 H 0.71929 -0.01733 0.22699
 H884 H 0.72752 0.01785 0.21888
 H885 H 0.75166 0.08245 0.24811
 H886 H 0.77307 0.01806 0.28014
 C887 C 0.75011 0.43751 0.74952
 C888 C 0.76411 0.44973 0.76536
 C889 C 0.76355 0.47436 0.76590
 C890 C 0.74942 0.48742 0.74994
 C891 C 0.73562 0.47438 0.73380
 C892 C 0.73574 0.44974 0.73393
 C893 C 0.74907 0.51413 0.75015
 C894 C 0.73312 0.52720 0.73601
 C895 C 0.73324 0.55186 0.73598
 C896 C 0.74853 0.56404 0.75062
 C897 C 0.76409 0.55177 0.76499
 C898 C 0.76475 0.52716 0.76449
 H899 H 0.75036 0.41841 0.74937
 H900 H 0.77424 0.48273 0.77903
 H901 H 0.72462 0.48278 0.72089
 H902 H 0.72037 0.51881 0.72487
 H903 H 0.74838 0.58314 0.75076
 H904 H 0.77778 0.51878 0.77537
 C905 C 0.25012 0.43648 0.24981
 C906 C 0.26380 0.44866 0.26598
 C907 C 0.26313 0.47331 0.26660
 C908 C 0.24951 0.48633 0.25020
 C909 C 0.23623 0.47337 0.23361
 C910 C 0.23617 0.44873 0.23386
 C911 C 0.24916 0.51298 0.25037
 C912 C 0.23232 0.52595 0.23720
 C913 C 0.23259 0.55061 0.23689
 C914 C 0.24867 0.56283 0.25064
 C915 C 0.26498 0.55062 0.26422
 C916 C 0.26573 0.52600 0.26364
 H917 H 0.25031 0.41738 0.24967
 H918 H 0.27327 0.48181 0.28012
 H919 H 0.22587 0.48191 0.22024
 H920 H 0.21879 0.51741 0.22711
 H921 H 0.24853 0.58193 0.25072
 H922 H 0.27950 0.51752 0.27354
 C923 C 0.74905 1.06279 0.75036
 C924 C 0.76434 1.05053 0.73570
 C925 C 0.76446 1.02589 0.73572
 C926 C 0.74858 1.01287 0.74998
 C927 C 0.73294 1.02597 0.76441
 C928 C 0.73352 1.05061 0.76480
 C929 C 0.74830 0.98616 0.74976
 C930 C 0.73412 0.97307 0.76564
 C931 C 0.73377 0.94841 0.76512
 C932 C 0.74790 0.93624 0.74927
 C933 C 0.76222 0.94851 0.73368
 C934 C 0.76227 0.97314 0.73366
 H935 H 0.74923 1.08188 0.75051
 H936 H 0.77719 1.01749 0.72450
 H937 H 0.72003 1.01763 0.77547
 H938 H 0.72324 0.98142 0.77869
 H939 H 0.74783 0.91714 0.74911
 H940 H 0.77337 0.98153 0.72084
 C941 C 0.74904 0.56255 0.24959
 C942 C 0.76516 0.55032 0.23578
 C943 C 0.76573 0.52571 0.23622
 C944 C 0.74925 0.51269 0.24967
 C945 C 0.73265 0.52568 0.26314
 C946 C 0.73302 0.55034 0.26349
 C947 C 0.74945 0.48604 0.24969
 C948 C 0.73621 0.47302 0.26633
 C949 C 0.73604 0.44839 0.26600
 C950 C 0.74981 0.43619 0.24985
 C951 C 0.76341 0.44841 0.23359
 C952 C 0.76289 0.47307 0.23309
 H953 H 0.74900 0.58164 0.24956
 H954 H 0.77932 0.51723 0.22604
 H955 H 0.71921 0.51715 0.27343
 H956 H 0.72595 0.48151 0.27981
 H957 H 0.74991 0.41709 0.24991
 H958 H 0.77301 0.48159 0.21953
 C959 C 0.24924 -0.06377 0.75122
 C960 C 0.26370 -0.05153 0.76663
 C961 C 0.26356 -0.02689 0.76680
 C962 C 0.24932 -0.01385 0.75096
 C963 C 0.23502 -0.02692 0.73523
 C964 C 0.23480 -0.05158 0.73567
 C965 C 0.24938 0.01288 0.75086
 C966 C 0.23324 0.02594 0.73695
 C967 C 0.23360 0.05058 0.73663
 C968 C 0.24941 0.06280 0.75067
 C969 C 0.26520 0.05059 0.76484
 C970 C 0.26553 0.02593 0.76470
 H971 H 0.24928 -0.08287 0.75130
 H972 H 0.27470 -0.01850 0.77954
 H973 H 0.22397 -0.01854 0.72235
 H974 H 0.22012 0.01756 0.72624
 H975 H 0.24943 0.08190 0.75058
 H976 H 0.27863 0.01753 0.77549
 C977 C 0.24945 0.24932 1.06303
 C978 C 0.23413 0.26404 1.05082
 C979 C 0.23401 0.26403 1.02625
 C980 C 0.24960 0.24943 1.01324
 C981 C 0.26511 0.23481 1.02627
 C982 C 0.26483 0.23468 1.05082
 C983 C 0.24968 0.24942 0.98659
 C984 C 0.26433 0.23387 0.97358
 C985 C 0.26441 0.23403 0.94901
 C986 C 0.24972 0.24937 0.93679
 C987 C 0.23503 0.26472 0.94899
 C988 C 0.23509 0.26494 0.97355
 H989 H 0.24941 0.24928 1.08207
 H990 H 0.22151 0.27558 1.01794
 H991 H 0.27768 0.22332 1.01798
 H992 H 0.27586 0.22136 0.98190
 H993 H 0.24971 0.24936 0.91776
 H994 H 0.22356 0.27748 0.98185
 C995 C 0.25160 0.75021 0.56281
 C996 C 0.23601 0.76460 0.55057
 C997 C 0.23566 0.76427 0.52600
 C998 C 0.25166 0.75012 0.51302
 C999 C 0.26762 0.73594 0.52608
 C1000 C 0.26722 0.73573 0.55067
 C1001 C 0.25168 0.75017 0.48637
 C1002 C 0.26548 0.73391 0.47332
 C1003 C 0.26572 0.73433 0.44873
 C1004 C 0.25162 0.75028 0.43659
 C1005 C 0.23757 0.76620 0.44881
 C1006 C 0.23788 0.76651 0.47338
 H1007 H 0.25156 0.75025 0.58185
 H1008 H 0.22261 0.77515 0.51760
 H1009 H 0.28062 0.72497 0.51770
 H1010 H 0.27613 0.72066 0.48170
 H1011 H 0.25157 0.75030 0.41755
 H1012 H 0.22724 0.77975 0.48179
 C1013 C 0.25224 0.74940 -0.06315
 C1014 C 0.26806 0.76356 -0.05102
 C1015 C 0.26843 0.76331 -0.02643
 C1016 C 0.25213 0.74959 -0.01339
 C1017 C 0.23586 0.73582 -0.02633
 C1018 C 0.23635 0.73535 -0.05090
 C1019 C 0.25208 0.74961 0.01323
 C1020 C 0.23863 0.73306 0.02622
 C1021 C 0.23817 0.73348 0.05079
 C1022 C 0.25190 0.74962 0.06298
 C1023 C 0.26575 0.76574 0.05081
 C1024 C 0.26548 0.76616 0.02622
 H1025 H 0.25225 0.74935 -0.08219
 H1026 H 0.28165 0.77390 -0.01801
 H1027 H 0.22251 0.72539 -0.01785
 H1028 H 0.22841 0.71956 0.01778
 H1029 H 0.25181 0.74963 0.08202
 H1030 H 0.27577 0.77964 0.01775
 C1031 C 0.24908 0.25051 0.43741
 C1032 C 0.26551 0.26390 0.44961
 C1033 C 0.26617 0.26317 0.47415
 C1034 C 0.24945 0.24995 0.48709
 C1035 C 0.23254 0.23699 0.47419
 C1036 C 0.23283 0.23682 0.44962
 C1037 C 0.24968 0.24968 0.51363
 C1038 C 0.23667 0.23277 0.52654
 C1039 C 0.23641 0.23303 0.55111
 C1040 C 0.25009 0.24923 0.56330
 C1041 C 0.26356 0.26566 0.55110
 C1042 C 0.26289 0.26636 0.52656
 H1043 H 0.24898 0.25069 0.41837
 H1044 H 0.27998 0.27294 0.48265
 H1045 H 0.21892 0.22695 0.48275
 H1046 H 0.22666 0.21916 0.51799
 H1047 H 0.25021 0.24910 0.58234
 H1048 H 0.27269 0.28019 0.51804
 C1049 C 0.75216 0.75094 1.06337
 C1050 C 0.73837 0.76709 1.05113
 C1051 C 0.73868 0.76734 1.02655
 C1052 C 0.75197 0.75056 1.01365
 C1053 C 0.76538 0.73399 1.02668
 C1054 C 0.76587 0.73461 1.05125
 C1055 C 0.75179 0.75031 0.98704
 C1056 C 0.76819 0.73665 0.97403
 C1057 C 0.76758 0.73613 0.94944
 C1058 C 0.75143 0.75004 0.93731
 C1059 C 0.73547 0.76403 0.94956
 C1060 C 0.73519 0.76376 0.97412
 H1061 H 0.75219 0.75104 1.08241
 H1062 H 0.72848 0.78087 1.01801
 H1063 H 0.77550 0.72034 1.01825
 H1064 H 0.78168 0.72633 0.98248
 H1065 H 0.75128 0.74995 0.91827
 H1066 H 0.72174 0.77410 0.98262
 C1067 C 0.74988 0.24982 0.56350
 C1068 C 0.73500 0.26498 0.55130
 C1069 C 0.73507 0.26518 0.52673
 C1070 C 0.74968 0.24963 0.51371
 C1071 C 0.76442 0.23417 0.52675
 C1072 C 0.76468 0.23454 0.55133
 C1073 C 0.74951 0.24954 0.48704
 C1074 C 0.76549 0.23543 0.47399
 C1075 C 0.76506 0.23513 0.44943
 C1076 C 0.74921 0.24929 0.43724
 C1077 C 0.73349 0.26359 0.44944
 C1078 C 0.73338 0.26355 0.47403
 H1079 H 0.74994 0.24990 0.58254
 H1080 H 0.72358 0.27772 0.51839
 H1081 H 0.77585 0.22157 0.51840
 H1082 H 0.77854 0.22449 0.48231
 H1083 H 0.74912 0.24919 0.41821
 H1084 H 0.72045 0.27460 0.48238
 C1085 C 0.75012 0.24980 -0.06377
 C1086 C 0.76381 0.26603 -0.05161
 C1087 C 0.76316 0.26668 -0.02705
 C1088 C 0.74968 0.25017 -0.01406
 C1089 C 0.73641 0.23349 -0.02696
 C1090 C 0.73619 0.23378 -0.05154
 C1091 C 0.74944 0.25036 0.01251
 C1092 C 0.73236 0.23755 0.02544
 C1093 C 0.73259 0.23729 0.05001
 C1094 C 0.74899 0.25072 0.06221
 C1095 C 0.76562 0.26395 0.05003
 C1096 C 0.76630 0.26334 0.02547
 H1097 H 0.75029 0.24966 -0.08280
 H1098 H 0.77318 0.28032 -0.01855
 H1099 H 0.72619 0.22001 -0.01839
 H1100 H 0.71863 0.22770 0.01689
 H1101 H 0.74883 0.25085 0.08125
 H1102 H 0.78021 0.27303 0.01696
 C1103 C 0.75139 0.75001 0.43659
 C1104 C 0.76503 0.76630 0.44871
 C1105 C 0.76471 0.76670 0.47329
 C1106 C 0.75158 0.74991 0.48631
 C1107 C 0.73840 0.73316 0.47341
 C1108 C 0.73790 0.73364 0.44884
 C1109 C 0.75164 0.74984 0.51291
 C1110 C 0.73513 0.73635 0.52590
 C1111 C 0.73568 0.73578 0.55047
 C1112 C 0.75181 0.74956 0.56263
 C1113 C 0.76783 0.76351 0.55042
 C1114 C 0.76819 0.76326 0.52584
 H1115 H 0.75128 0.75007 0.41755
 H1116 H 0.77474 0.78034 0.48176
 H1117 H 0.72845 0.71946 0.48194
 H1118 H 0.72156 0.72622 0.51743
 H1119 H 0.75187 0.74947 0.58167
 H1120 H 0.78161 0.77357 0.51731
 C1121 C 1.06324 0.24990 0.24990
 C1122 C 1.05101 0.23404 0.26395
 C1123 C 1.02637 0.23379 0.26377
 C1124 C 1.01331 0.24999 0.24991
 C1125 C 1.02639 0.26616 0.23603
 C1126 C 1.05104 0.26580 0.23584
 C1127 C 0.98657 0.25000 0.24991
 C1128 C 0.97351 0.26465 0.23444
 C1129 C 0.94886 0.26479 0.23471
 C1130 C 0.93665 0.24998 0.24987
 C1131 C 0.94886 0.23515 0.26503
 C1132 C 0.97351 0.23532 0.26536
 H1133 H 1.08234 0.24987 0.24991
 H1134 H 1.01800 0.22069 0.27458
 H1135 H 1.01803 0.27928 0.22522
 H1136 H 0.98188 0.27608 0.22189
 H1137 H 0.91755 0.24998 0.24986
 H1138 H 0.98187 0.22389 0.27792
 C1139 C 0.56315 0.25070 0.75075
 C1140 C 0.55097 0.23483 0.76484
 C1141 C 0.52632 0.23419 0.76427
 C1142 C 0.51326 0.25029 0.75027
 C1143 C 0.52627 0.26658 0.73652
 C1144 C 0.55092 0.26635 0.73643
 C1145 C 0.48655 0.25011 0.75002
 C1146 C 0.47351 0.26392 0.73377
 C1147 C 0.44884 0.26400 0.73396
 C1148 C 0.43665 0.24975 0.74969
 C1149 C 0.44888 0.23569 0.76556
 C1150 C 0.47351 0.23612 0.76608
 H1151 H 0.58224 0.25083 0.75090
 H1152 H 0.51794 0.22087 0.77481
 H1153 H 0.51782 0.27971 0.72577
 H1154 H 0.48194 0.27472 0.72070
 H1155 H 0.41755 0.24960 0.74958
 H1156 H 0.48193 0.22546 0.77928
 C1157 C -0.06360 0.25033 0.75024
 C1158 C -0.05144 0.26636 0.76410
 C1159 C -0.02679 0.26687 0.76363
 C1160 C -0.01374 0.25044 0.75006
 C1161 C -0.02670 0.23394 0.73660
 C1162 C -0.05134 0.23437 0.73629
 C1163 C 0.01294 0.25051 0.74990
 C1164 C 0.02596 0.23696 0.73344
 C1165 C 0.05062 0.23676 0.73368
 C1166 C 0.06281 0.25072 0.74959
 C1167 C 0.05058 0.26457 0.76564
 C1168 C 0.02594 0.26415 0.76620
 H1169 H -0.08270 0.25029 0.75028
 H1170 H -0.01836 0.28035 0.77388
 H1171 H -0.01820 0.22051 0.72628
 H1172 H 0.01750 0.22648 0.72018
 H1173 H 0.08191 0.25077 0.74950
 H1174 H 0.01746 0.27450 0.77960
 C1175 C 0.43657 0.24989 0.24966
 C1176 C 0.44875 0.26411 0.26535
 C1177 C 0.47338 0.26358 0.26593
 C1178 C 0.48643 0.24953 0.24995
 C1179 C 0.47347 0.23565 0.23381
 C1180 C 0.44882 0.23549 0.23410
 C1181 C 0.51310 0.24934 0.25015
 C1182 C 0.52612 0.23243 0.23717
 C1183 C 0.55076 0.23275 0.23690
 C1184 C 0.56295 0.24901 0.25045
 C1185 C 0.55071 0.26544 0.26387
 C1186 C 0.52608 0.26608 0.26329
 H1187 H 0.41747 0.25002 0.24957
 H1188 H 0.48181 0.27419 0.27911
 H1189 H 0.48200 0.22489 0.22075
 H1190 H 0.51766 0.21878 0.22717
 H1191 H 0.58205 0.24892 0.25053
 H1192 H 0.51760 0.27988 0.27314
 C1193 C 1.06334 0.75060 0.75016
 C1194 C 1.05107 0.73706 0.76645
 C1195 C 1.02645 0.73747 0.76683
 C1196 C 1.01354 0.75057 0.74999
 C1197 C 1.02652 0.76370 0.73324
 C1198 C 1.05115 0.76416 0.73380
 C1199 C 0.98695 0.75054 0.74994
 C1200 C 0.97399 0.76753 0.73704
 C1201 C 0.94937 0.76698 0.73653
 C1202 C 0.93716 0.75050 0.74990
 C1203 C 0.94940 0.73405 0.76330
 C1204 C 0.97403 0.73354 0.76282
 H1205 H 1.08244 0.75059 0.75022
 H1206 H 1.01784 0.72755 0.78050
 H1207 H 1.01797 0.77363 0.71953
 H1208 H 0.98256 0.78140 0.72736
 H1209 H 0.91806 0.75047 0.74987
 H1210 H 0.98261 0.71966 0.77252
 C1211 C 0.56385 0.74993 0.25010
 C1212 C 0.55160 0.73670 0.26665
 C1213 C 0.52695 0.73708 0.26700
 C1214 C 0.51402 0.74987 0.24990
 C1215 C 0.52704 0.76269 0.23292
 C1216 C 0.55166 0.76311 0.23344
 C1217 C 0.48739 0.74984 0.24977
 C1218 C 0.47443 0.76619 0.23603
 C1219 C 0.44979 0.76562 0.23547
 C1220 C 0.43756 0.74976 0.24953
 C1221 C 0.44976 0.73392 0.26369
 C1222 C 0.47439 0.73344 0.26336
 H1223 H 0.58295 0.74996 0.25018
 H1224 H 0.51837 0.72736 0.28082
 H1225 H 0.51854 0.77241 0.21905
 H1226 H 0.48296 0.77963 0.22573
 H1227 H 0.41846 0.74973 0.24947
 H1228 H 0.48292 0.72003 0.27373
 C1229 C -0.06289 0.74992 0.25041
 C1230 C -0.05069 0.76590 0.26430
 C1231 C -0.02607 0.76651 0.26369
 C1232 C -0.01308 0.75007 0.25011
 C1233 C -0.02602 0.73358 0.23666
 C1234 C -0.05066 0.73404 0.23635
 C1235 C 0.01354 0.75013 0.24994
 C1236 C 0.02649 0.73741 0.23282
 C1237 C 0.05112 0.73710 0.23309
 C1238 C 0.06335 0.75026 0.24965
 C1239 C 0.05114 0.76333 0.26637
 C1240 C 0.02651 0.76289 0.26693
 H1241 H -0.08199 0.74987 0.25051
 H1242 H -0.01754 0.78005 0.27381
 H1243 H -0.01746 0.72012 0.22640
 H1244 H 0.01792 0.72768 0.21905
 H1245 H 0.08245 0.75031 0.24953
 H1246 H 0.01797 0.77252 0.28083
 C1247 C 0.43656 0.75093 0.75016
 C1248 C 0.44877 0.76730 0.76359
 C1249 C 0.47339 0.76773 0.76314
 C1250 C 0.48637 0.75081 0.75017
 C1251 C 0.47343 0.73393 0.73721
 C1252 C 0.44880 0.73450 0.73674
 C1253 C 0.51297 0.75079 0.75014
 C1254 C 0.52593 0.73762 0.73339
 C1255 C 0.55055 0.73718 0.73381
 C1256 C 0.56277 0.75076 0.75002
 C1257 C 0.55055 0.76437 0.76630
 C1258 C 0.52592 0.76394 0.76684
 H1259 H 0.41746 0.75098 0.75015
 H1260 H 0.48194 0.78151 0.77292
 H1261 H 0.48200 0.72010 0.72745
 H1262 H 0.51737 0.72766 0.71977
 H1263 H 0.58187 0.75073 0.74999
 H1264 H 0.51734 0.77387 0.78052
 C1265 C 0.42353 0.29190 0.29280
 C1266 C 0.43558 0.27940 0.28064
 C1267 C 0.42355 0.79557 0.79050
 C1268 C 0.43564 0.78320 0.77825
 C1269 C -0.07704 0.29423 0.79116
 C1270 C -0.06471 0.28199 0.77899
 C1271 C -0.07609 0.79366 0.29161
 C1272 C -0.06388 0.78143 0.27933
 C1273 C 0.57683 0.71004 0.29522
 C1274 C 0.56473 0.72221 0.28276
 C1275 C 0.57655 0.20724 0.79221
 C1276 C 0.56423 0.21940 0.77995
 C1277 C 1.07610 0.70993 0.79469
 C1278 C 1.06412 0.72228 0.78232
 C1279 C 1.07626 0.20596 0.29109
 C1280 C 1.06417 0.21833 0.27882
 C1281 C 0.57632 0.29403 0.70908
 C1282 C 0.56411 0.28186 0.72139
 C1283 C 0.57698 0.78980 0.20506
 C1284 C 0.56483 0.77762 0.21742
 C1285 C 1.07643 0.29378 0.20876
 C1286 C 1.06426 0.28146 0.22097
 C1287 C 1.07645 0.79127 0.70582
 C1288 C 1.06431 0.77898 0.71808
 C1289 C 0.42366 0.70629 0.70987
 C1290 C 0.43570 0.71866 0.72208
 C1291 C 0.42358 0.20787 0.20665
 C1292 C 0.43568 0.22031 0.21876
 C1293 C -0.07605 0.70652 0.20901
 C1294 C -0.06382 0.71860 0.22132
 C1295 C -0.07660 0.20656 0.70909
 C1296 C -0.06447 0.21879 0.72136
 C1297 C 0.29106 0.42323 0.29383
 C1298 C 0.27875 0.43544 0.28160
 C1299 C 0.29147 -0.07681 0.79406
 C1300 C 0.27896 -0.06469 0.78197
 C1301 C 0.79159 0.42448 0.79311
 C1302 C 0.77921 0.43658 0.78085
 C1303 C 0.79352 -0.07579 0.29156
 C1304 C 0.78112 -0.06375 0.27930
 C1305 C 0.29185 0.57620 0.70782
 C1306 C 0.27947 0.56413 0.72005
 C1307 C 0.29200 1.07640 0.20753
 C1308 C 0.27968 1.06431 0.21984
 C1309 C 0.79317 0.57557 0.20870
 C1310 C 0.78084 0.56346 0.22092
 C1311 C 0.79205 1.07582 0.70826
 C1312 C 0.77976 1.06368 0.72053
 C1313 C 0.70538 0.57583 0.29094
 C1314 C 0.71746 0.56357 0.27852
 C1315 C 0.70613 1.07595 0.79251
 C1316 C 0.71827 1.06381 0.78009
 C1317 C 0.20596 0.57666 0.79200
 C1318 C 0.21801 0.56433 0.77963
 C1319 C 0.20978 1.07644 0.29549
 C1320 C 0.22216 1.06431 0.28329
 C1321 C 0.70843 0.42445 0.70630
 C1322 C 0.72076 0.43658 0.71846
 C1323 C 0.70512 -0.07613 0.21019
 C1324 C 0.71718 -0.06382 0.22248
 C1325 C 0.20900 0.42364 0.20590
 C1326 C 0.22133 0.43563 0.21818
 C1327 C 0.20769 -0.07714 0.70798
 C1328 C 0.21978 -0.06484 0.72024
 C1329 C 0.29380 0.29129 0.42494
 C1330 C 0.28132 0.27881 0.43666
 C1331 C 0.29569 0.79122 -0.07625
 C1332 C 0.28354 0.77869 -0.06420
 C1333 C 0.79123 0.29413 -0.07657
 C1334 C 0.77880 0.28172 -0.06469
 C1335 C 0.79192 0.79468 0.42346
 C1336 C 0.77972 0.78221 0.43552
 C1337 C 0.70699 0.29262 0.57615
 C1338 C 0.71955 0.28028 0.56433
 C1339 C 0.71089 0.79530 1.07598
 C1340 C 0.72342 0.78292 1.06414
 C1341 C 0.20620 0.29182 1.07557
 C1342 C 0.21864 0.27930 1.06382
 C1343 C 0.20808 0.79243 0.57532
 C1344 C 0.22050 0.77989 0.56356
 C1345 C 0.29477 0.70798 0.57600
 C1346 C 0.28260 0.72047 0.56388
 C1347 C 0.29281 0.20691 1.07546
 C1348 C 0.28030 0.21941 1.06379
 C1349 C 0.79295 0.70634 1.07644
 C1350 C 0.78069 0.71880 1.06442
 C1351 C 0.79266 0.20701 0.57641
 C1352 C 0.78013 0.21928 0.56445
 C1353 C 0.71057 0.70534 0.42416
 C1354 C 0.72305 0.71778 0.43589
 C1355 C 0.70884 0.20568 -0.07645
 C1356 C 0.72126 0.21805 -0.06457
 C1357 C 0.20829 0.70787 -0.07569
 C1358 C 0.22074 0.72027 -0.06389
 C1359 C 0.20459 0.20959 0.42483
 C1360 C 0.21699 0.22204 0.43661
 C1361 C 0.29221 0.42358 0.70793
 C1362 C 0.27980 0.43562 0.72021
 C1363 C 0.29288 0.92413 0.20853
 C1364 C 0.28047 0.93615 0.22080
 C1365 C 0.79050 0.42305 0.20552
 C1366 C 0.77823 0.43523 0.21782
 C1367 C 0.78971 0.92345 0.70582
 C1368 C 0.77727 0.93544 0.71809
 C1369 C 0.70599 0.57746 0.70832
 C1370 C 0.71799 0.56513 0.72073
 C1371 C 0.71081 0.07637 0.20404
 C1372 C 0.72311 0.06425 0.21633
 C1373 C 0.20484 0.57610 0.20961
 C1374 C 0.21693 0.56383 0.22198
 C1375 C 0.20565 0.07583 0.70937
 C1376 C 0.21798 0.06374 0.72167
 C1377 C 0.29307 0.57582 0.29112
 C1378 C 0.28070 0.56375 0.27896
 C1379 C 0.29315 0.07601 0.79181
 C1380 C 0.28083 0.06381 0.77968
 C1381 C 0.79164 0.57688 0.79256
 C1382 C 0.77938 0.56485 0.78024
 C1383 C 0.79129 0.07646 0.29335
 C1384 C 0.77911 0.06435 0.28100
 C1385 C 0.70890 0.42320 0.29403
 C1386 C 0.72124 0.43526 0.28174
 C1387 C 0.70676 0.92297 0.79314
 C1388 C 0.71887 0.93516 0.78073
 C1389 C 0.20673 0.42358 0.79292
 C1390 C 0.21915 0.43566 0.78073
 C1391 C 0.20460 0.92382 0.29026
 C1392 C 0.21670 0.93611 0.27795
 C1393 C 0.42337 0.29116 0.70601
 C1394 C 0.43559 0.27892 0.71831
 C1395 C 0.42442 0.79320 0.20794
 C1396 C 0.43663 0.78104 0.22030
 C1397 C 0.92356 0.29257 0.20731
 C1398 C 0.93567 0.28016 0.21951
 C1399 C 0.92410 0.79514 0.70954
 C1400 C 0.93623 0.78284 0.72181
 C1401 C 0.57604 0.29355 0.29071
 C1402 C 0.56386 0.28125 0.27855
 C1403 C 0.57571 0.79135 0.79439
 C1404 C 0.56366 0.77911 0.78205
 C1405 C 0.07577 0.29177 0.79353
 C1406 C 0.06371 0.27948 0.78124
 C1407 C 0.07634 0.78988 0.29484
 C1408 C 0.06426 0.77775 0.28242
 C1409 C 0.57572 0.71000 0.70577
 C1410 C 0.56366 0.72233 0.71807
 C1411 C 0.57614 0.20467 0.20990
 C1412 C 0.56395 0.21692 0.22219
 C1413 C 0.07637 0.71047 0.20454
 C1414 C 0.06426 0.72264 0.21697
 C1415 C 0.07603 0.20946 0.70587
 C1416 C 0.06383 0.22182 0.71805
 C1417 C 0.42435 0.70633 0.29109
 C1418 C 0.43656 0.71848 0.27876
 C1419 C 0.42365 0.20820 0.79328
 C1420 C 0.43574 0.22058 0.78105
 C1421 C 0.92425 0.70584 0.79027
 C1422 C 0.93632 0.71818 0.77801
 C1423 C 0.92346 0.20729 0.29225
 C1424 C 0.93564 0.21972 0.28016
 C1425 C 0.29088 0.29389 0.57582
 C1426 C 0.27843 0.28145 0.56407
 C1427 C 0.29278 0.79393 0.07599
 C1428 C 0.28055 0.78152 0.06396
 C1429 C 0.79403 0.29093 0.07490
 C1430 C 0.78155 0.27861 0.06307
 C1431 C 0.79564 0.79097 0.57550
 C1432 C 0.78344 0.77850 0.56351
 C1433 C 0.29294 0.70620 0.42351
 C1434 C 0.28066 0.71863 0.43556
 C1435 C 0.29219 0.20603 0.92429
 C1436 C 0.27968 0.21852 0.93602
 C1437 C 0.79535 0.70854 0.92422
 C1438 C 0.78314 0.72104 0.93628
 C1439 C 0.79321 0.20764 0.42462
 C1440 C 0.78071 0.22006 0.43640
 C1441 C 0.70529 0.29087 0.42438
 C1442 C 0.71775 0.27855 0.43634
 C1443 C 0.70713 0.79147 0.92487
 C1444 C 0.71967 0.77902 0.93660
 C1445 C 0.20718 0.29266 0.92436
 C1446 C 0.21973 0.28018 0.93602
 C1447 C 0.20992 0.79425 0.42395
 C1448 C 0.22247 0.78188 0.43578
 C1449 C 0.70750 0.70838 0.57538
 C1450 C 0.71998 0.72078 0.56354
 C1451 C 0.70420 0.21027 0.07505
 C1452 C 0.71659 0.22264 0.06309
 C1453 C 0.21062 0.70543 0.07569
 C1454 C 0.22317 0.71776 0.06384
 C1455 C 0.20907 0.20481 0.57596
 C1456 C 0.22155 0.21721 0.56414
   
