data_POSCAR
  _audit_creation_date              2014-09-24
  _audit_creation_method            'ToBaCCo'
  _symmetry_space_group_name_H-M    'P1'
  _symmetry_Int_Tables_number       1
  _symmetry_cell_setting            triclinic
  loop_
  _symmetry_equiv_pos_as_xyz
 x,y,z
_cell_length_a 47.7275
_cell_length_b 49.7800
_cell_length_c 36.2298
_cell_angle_alpha 90.049900
_cell_angle_beta 90.024800
_cell_angle_gamma 89.990000
loop_
  _atom_site_label
  _atom_site_type_symbol
  _atom_site_fract_x
  _atom_site_fract_y
  _atom_site_fract_z
Zr1 Zr -0.04831 0.00208 -0.00351
 O2 O -0.07992 -0.01845 -0.03338
 O3 O -0.07206 0.02616 0.03231
 O4 O -0.07159 -0.02392 0.03073
 O5 O -0.03744 0.05086 -0.07015
 O6 O -0.03822 -0.04865 0.06056
 O7 O -0.07115 0.02813 -0.03804
 O8 O -0.03891 0.04742 0.06719
 O9 O -0.02506 0.00005 0.04542
 O10 O -0.02420 0.03712 -0.00156
 O11 O -0.02460 -0.03339 -0.00777
 O12 O -0.02464 0.00232 -0.05278
 Zr13 Zr 0.04942 0.00032 -0.00502
 Zr14 Zr 0.00017 -0.03416 0.03995
 Zr15 Zr 0.00086 0.03657 -0.04864
 Zr16 Zr -0.00001 0.03439 0.04593
 O17 O 0.00207 0.03496 -0.10697
 O18 O 0.00000 0.02560 0.10319
 O19 O 0.02594 0.03615 -0.00096
 O20 O 0.02540 0.00017 0.04369
 O21 O 0.02562 -0.03496 -0.00709
 O22 O 0.02581 0.00235 -0.05357
 C23 C -0.06440 0.04236 0.05801
 C24 C -0.06309 0.04544 -0.06215
 C25 C -0.06378 -0.04236 0.05339
 O26 O 0.00196 -0.03269 0.09826
 O27 O 0.03828 -0.05119 0.05761
 O28 O 0.07215 -0.02746 0.02724
 C29 C 0.06395 -0.04589 0.04967
 O30 O -0.03631 -0.04522 -0.08073
 Zr31 Zr 0.00108 -0.03197 -0.05453
 O32 O 0.07314 -0.02421 -0.04026
 O33 O -0.00190 -0.07627 0.03243
 O34 O -0.00063 -0.07432 -0.04854
 O35 O 0.00384 -0.02503 -0.11216
 O36 O 0.03990 -0.04777 -0.07205
 C37 C 0.06540 -0.04220 -0.06354
 O38 O 0.08100 0.01966 0.02634
 O39 O -0.00003 0.07877 -0.04155
 O40 O 0.07273 0.02789 -0.03694
 O41 O 0.03930 0.05349 -0.06527
 O42 O -0.00106 0.07688 0.04187
 O43 O 0.03736 0.05118 0.06805
 C44 C 0.06488 0.04728 -0.05806
 H45 H -0.03557 0.05374 -0.00103
 H46 H 0.03754 -0.00037 0.06585
 H47 H 0.03755 0.00331 -0.07605
 H48 H -0.03688 -0.04937 -0.00940
 H49 H -0.00502 0.04235 0.11643
 H50 H 0.00099 -0.05151 0.10706
 H51 H -0.00119 -0.08447 0.05733
 H52 H 0.00433 -0.08235 -0.07271
 H53 H -0.00565 0.08405 0.06668
 H54 H -0.00061 0.08677 -0.06658
 H55 H 0.00284 0.05379 -0.11576
 H56 H 0.00840 -0.04243 -0.12405
 H57 H 0.03275 0.06219 0.08999
 H58 H 0.09934 0.01326 0.01690
 H59 H -0.09827 -0.01198 -0.02407
 H60 H -0.03179 -0.05964 -0.09862
 Zr61 Zr 0.54939 0.50034 0.49504
 O62 O 0.58090 0.51986 0.52630
 O63 O 0.57319 0.47566 0.46008
 O64 O 0.57208 0.47273 0.52763
 O65 O 0.53936 0.55317 0.43420
 O66 O 0.53818 0.44916 0.55815
 O67 O 0.57275 0.52773 0.46290
 O68 O 0.54000 0.45194 0.42838
 O69 O 0.52561 0.46503 0.49325
 O70 O 0.52586 0.50211 0.44640
 O71 O 0.52530 0.50043 0.54368
 O72 O 0.52590 0.53619 0.49866
 Zr73 Zr 0.45166 0.50206 0.49624
 Zr74 Zr 0.50009 0.46607 0.54020
 Zr75 Zr 0.50089 0.53635 0.45091
 Zr76 Zr 0.50115 0.46777 0.44571
 O77 O 0.49997 0.57857 0.45760
 O78 O 0.49950 0.42546 0.45213
 O79 O 0.47542 0.50206 0.44704
 O80 O 0.47539 0.46658 0.49241
 O81 O 0.47484 0.50030 0.54526
 O82 O 0.47575 0.53713 0.49791
 C83 C 0.56549 0.45758 0.43690
 C84 C 0.56494 0.54700 0.44155
 C85 C 0.56385 0.45442 0.55023
 O86 O 0.49805 0.42392 0.53310
 O87 O 0.46166 0.45168 0.56085
 O88 O 0.42834 0.47623 0.53068
 C89 C 0.43611 0.45792 0.55354
 O90 O 0.53719 0.55160 0.56750
 Zr91 Zr 0.49987 0.53466 0.54549
 O92 O 0.42785 0.52630 0.53178
 O93 O 0.50177 0.46786 0.59850
 O94 O 0.49984 0.52620 0.60284
 O95 O 0.49876 0.57712 0.54101
 O96 O 0.46093 0.54774 0.56657
 C97 C 0.43545 0.54261 0.55738
 O98 O 0.42012 0.48136 0.46649
 O99 O 0.50221 0.53445 0.39260
 O100 O 0.42887 0.52790 0.46136
 O101 O 0.46262 0.55047 0.42912
 O102 O 0.50395 0.47440 0.38801
 O103 O 0.46381 0.45434 0.41956
 C104 C 0.43695 0.54507 0.43708
 H105 H 0.53763 0.50295 0.42394
 H106 H 0.46312 0.45059 0.49090
 H107 H 0.46436 0.55374 0.49825
 H108 H 0.53740 0.50002 0.56587
 H109 H 0.50450 0.41730 0.42806
 H110 H 0.49871 0.41586 0.55809
 H111 H 0.50080 0.44909 0.60749
 H112 H 0.49479 0.54301 0.61590
 H113 H 0.50853 0.45695 0.37630
 H114 H 0.50298 0.55324 0.38364
 H115 H 0.49942 0.58645 0.43249
 H116 H 0.49413 0.58442 0.56573
 H117 H 0.46836 0.43981 0.40186
 H118 H 0.40174 0.48787 0.47569
 H119 H 0.59927 0.51341 0.51699
 H120 H 0.53255 0.56275 0.58931
 Zr121 Zr 0.54828 -0.00240 0.49775
 O122 O 0.58013 0.01794 0.46819
 O123 O 0.57176 -0.02669 0.53364
 O124 O 0.57157 0.02359 0.53216
 O125 O 0.53728 -0.05105 0.43078
 O126 O 0.53822 0.04849 0.56178
 O127 O 0.57105 -0.02854 0.46316
 O128 O 0.53837 -0.04784 0.56816
 O129 O 0.52488 -0.00025 0.54654
 O130 O 0.52393 -0.03730 0.49941
 O131 O 0.52473 0.03318 0.49342
 O132 O 0.52471 -0.00248 0.44833
 Zr133 Zr 0.45047 -0.00010 0.49559
 Zr134 Zr 0.49982 0.03409 0.54099
 Zr135 Zr 0.49900 -0.03659 0.45218
 Zr136 Zr 0.49962 -0.03446 0.54675
 O137 O 0.49793 -0.03494 0.39384
 O138 O 0.49957 -0.02567 0.60403
 O139 O 0.47377 -0.03604 0.49970
 O140 O 0.47438 -0.00011 0.54445
 O141 O 0.47451 0.03505 0.49380
 O142 O 0.47423 -0.00225 0.44719
 C143 C 0.56393 -0.04293 0.55917
 C144 C 0.56295 -0.04576 0.43890
 C145 C 0.56378 0.04213 0.55474
 O146 O 0.49791 0.03258 0.59928
 O147 O 0.46176 0.05131 0.55853
 O148 O 0.42783 0.02782 0.52786
 C149 C 0.43608 0.04619 0.55044
 O150 O 0.53670 0.04499 0.42055
 Zr151 Zr 0.49917 0.03194 0.44650
 O152 O 0.42701 0.02463 0.46028
 O153 O 0.50209 0.07619 0.53358
 O154 O 0.50115 0.07427 0.45262
 O155 O 0.49652 0.02499 0.38884
 O156 O 0.46051 0.04802 0.42879
 C157 C 0.43494 0.04261 0.43712
 O158 O 0.41866 -0.01925 0.52667
 O159 O 0.49966 -0.07879 0.45914
 O160 O 0.42711 -0.02760 0.46346
 O161 O 0.46052 -0.05336 0.43529
 O162 O 0.50032 -0.07695 0.54249
 O163 O 0.46211 -0.05102 0.56869
 C164 C 0.43493 -0.04706 0.44236
 H165 H 0.53520 -0.05398 0.49992
 H166 H 0.46219 0.00049 0.56653
 H167 H 0.46254 -0.00314 0.42464
 H168 H 0.53710 0.04911 0.49189
 H169 H 0.50446 -0.04245 0.61725
 H170 H 0.49895 0.05138 0.60816
 H171 H 0.50136 0.08439 0.55850
 H172 H 0.49633 0.08235 0.42844
 H173 H 0.50481 -0.08420 0.56727
 H174 H 0.50028 -0.08679 0.43409
 H175 H 0.49708 -0.05376 0.38498
 H176 H 0.49208 0.04241 0.37695
 H177 H 0.46661 -0.06206 0.59062
 H178 H 0.40040 -0.01273 0.51711
 H179 H 0.59841 0.01135 0.47762
 H180 H 0.53232 0.05940 0.40262
 Zr181 Zr -0.04964 0.49996 -0.00797
 O182 O -0.08149 0.48083 0.02305
 O183 O -0.07307 0.52487 -0.04309
 O184 O -0.07218 0.52781 0.02453
 O185 O -0.03976 0.44673 -0.06836
 O186 O -0.03816 0.55119 0.05519
 O187 O -0.07306 0.47250 -0.04009
 O188 O -0.03957 0.54827 -0.07447
 O189 O -0.02552 0.53506 -0.00968
 O190 O -0.02595 0.49784 -0.05644
 O191 O -0.02567 0.49981 0.04084
 O192 O -0.02640 0.46397 -0.00402
 Zr193 Zr 0.04817 0.49746 -0.00600
 Zr194 Zr -0.00016 0.53397 0.03745
 Zr195 Zr -0.00123 0.46345 -0.05159
 Zr196 Zr -0.00093 0.53198 -0.05705
 O197 O -0.00064 0.42123 -0.04484
 O198 O 0.00125 0.57430 -0.05085
 O199 O 0.02455 0.49751 -0.05538
 O200 O 0.02469 0.53309 -0.01017
 O201 O 0.02482 0.49957 0.04284
 O202 O 0.02375 0.46261 -0.00441
 C203 C -0.06517 0.54296 -0.06612
 C204 C -0.06535 0.45301 -0.06121
 C205 C -0.06387 0.54610 0.04718
 O206 O 0.00216 0.57608 0.03015
 O207 O 0.03830 0.54826 0.05821
 O208 O 0.07156 0.52335 0.02845
 C209 C 0.06384 0.54185 0.05112
 O210 O -0.03804 0.44888 0.06491
 Zr211 Zr -0.00051 0.46541 0.04299
 O212 O 0.07163 0.47308 0.02980
 O213 O -0.00198 0.53237 0.09575
 O214 O -0.00051 0.47409 0.10030
 O215 O 0.00012 0.42293 0.03858
 O216 O 0.03823 0.45194 0.06431
 C217 C 0.06379 0.45683 0.05532
 O218 O 0.08003 0.51776 -0.03558
 O219 O -0.00237 0.46524 -0.10991
 O220 O 0.07084 0.47127 -0.04065
 O221 O 0.03701 0.44892 -0.07305
 O222 O -0.00378 0.52515 -0.11472
 O223 O 0.03660 0.54494 -0.08309
 C224 C 0.06273 0.45407 -0.06494
 H225 H -0.03770 0.49702 -0.07894
 H226 H 0.03709 0.54899 -0.01168
 H227 H 0.03497 0.44590 -0.00395
 H228 H -0.03783 0.50039 0.06295
 H229 H -0.00358 0.58242 -0.07500
 H230 H 0.00149 0.58424 0.05509
 H231 H -0.00089 0.55116 0.10468
 H232 H 0.00435 0.45728 0.11346
 H233 H -0.00820 0.54259 -0.12651
 H234 H -0.00328 0.44644 -0.11884
 H235 H -0.00007 0.41329 -0.06992
 H236 H 0.00462 0.41563 0.06334
 H237 H 0.03222 0.55934 -0.10104
 H238 H 0.09830 0.51111 -0.02621
 H239 H -0.09974 0.48740 0.01352
 H240 H -0.03354 0.43778 0.08679
 Zr241 Zr 0.04854 0.50205 0.50346
 O242 O 0.08019 0.48142 0.53306
 O243 O 0.07224 0.52632 0.46789
 O244 O 0.07183 0.47622 0.46895
 O245 O 0.03762 0.55046 0.57070
 O246 O 0.03849 0.45160 0.43887
 O247 O 0.07135 0.52793 0.53829
 O248 O 0.03904 0.54772 0.43327
 O249 O 0.02527 0.50022 0.45452
 O250 O 0.02438 0.53708 0.50193
 O251 O 0.02488 0.46654 0.50735
 O252 O 0.02489 0.50204 0.55275
 Zr253 Zr -0.04918 0.50018 0.50503
 Zr254 Zr 0.00009 0.46597 0.45964
 Zr255 Zr -0.00066 0.53627 0.54902
 Zr256 Zr 0.00017 0.53455 0.45443
 O257 O -0.00187 0.53441 0.60733
 O258 O 0.00014 0.52604 0.39707
 O259 O -0.02576 0.53606 0.50135
 O260 O -0.02519 0.50029 0.45630
 O261 O -0.02533 0.46490 0.50669
 O262 O -0.02555 0.50201 0.55359
 C263 C 0.06455 0.54263 0.44236
 C264 C 0.06328 0.54509 0.56262
 C265 C 0.06403 0.45787 0.44612
 O266 O -0.00172 0.46771 0.40135
 O267 O -0.03800 0.44899 0.44183
 O268 O -0.07188 0.47252 0.47252
 C269 C -0.06366 0.45421 0.44987
 O270 O 0.03664 0.45434 0.58015
 Zr271 Zr -0.00078 0.46771 0.55415
 O272 O -0.07286 0.47548 0.54004
 O273 O 0.00222 0.42382 0.46667
 O274 O 0.00095 0.42539 0.54767
 O275 O -0.00349 0.47438 0.61186
 O276 O -0.03957 0.45182 0.57158
 C277 C -0.06509 0.45741 0.56316
 O278 O -0.08079 0.51962 0.47389
 O279 O 0.00019 0.57850 0.54241
 O280 O -0.07252 0.52755 0.53723
 O281 O -0.03912 0.55307 0.56583
 O282 O 0.00117 0.57702 0.45897
 O283 O -0.03723 0.55140 0.43254
 C284 C -0.06469 0.54686 0.55855
 H285 H 0.03573 0.55371 0.50158
 H286 H -0.03734 0.49983 0.43415
 H287 H -0.03729 0.50285 0.57608
 H288 H 0.03718 0.45056 0.50880
 H289 H 0.00513 0.54285 0.38402
 H290 H -0.00073 0.44894 0.39233
 H291 H 0.00151 0.41575 0.44167
 H292 H -0.00398 0.41724 0.57175
 H293 H 0.00573 0.58431 0.43425
 H294 H 0.00076 0.58638 0.56753
 H295 H -0.00267 0.55320 0.61632
 H296 H -0.00802 0.45693 0.62357
 H297 H -0.03265 0.56253 0.41072
 H298 H -0.09912 0.51316 0.48326
 H299 H 0.09853 0.48795 0.52381
 H300 H 0.03215 0.43983 0.59787
 Zr301 Zr 0.45089 0.00007 0.00491
 O302 O 0.41933 0.01950 -0.02633
 O303 O 0.42715 -0.02473 0.03972
 O304 O 0.42832 -0.02758 -0.02777
 O305 O 0.46071 0.05291 0.06588
 O306 O 0.46231 -0.05102 -0.05838
 O307 O 0.42742 0.02738 0.03706
 O308 O 0.46039 -0.04841 0.07133
 O309 O 0.47479 -0.03518 0.00658
 O310 O 0.47437 0.00186 0.05359
 O311 O 0.47501 0.00027 -0.04371
 O312 O 0.47427 0.03598 0.00144
 Zr313 Zr 0.54861 0.00207 0.00380
 Zr314 Zr 0.50033 -0.03402 -0.04034
 Zr315 Zr 0.49923 0.03616 0.04923
 Zr316 Zr 0.49920 -0.03241 0.05417
 O317 O 0.50005 0.07840 0.04276
 O318 O 0.50104 -0.07471 0.04760
 O319 O 0.52482 0.00195 0.05298
 O320 O 0.52498 -0.03348 0.00749
 O321 O 0.52549 0.00028 -0.04527
 O322 O 0.52440 0.03706 0.00226
 C323 C 0.43489 -0.04284 0.06280
 C324 C 0.43516 0.04668 0.05844
 C325 C 0.43662 -0.04584 -0.05043
 O326 O 0.50247 -0.07617 -0.03342
 O327 O 0.53881 -0.04836 -0.06090
 O328 O 0.57203 -0.02371 -0.03064
 C329 C 0.56433 -0.04208 -0.05349
 O330 O 0.46297 0.05136 -0.06746
 Zr331 Zr 0.50033 0.03457 -0.04537
 O332 O 0.57237 0.02647 -0.03155
 O333 O 0.49871 -0.03219 -0.09864
 O334 O 0.50054 0.02612 -0.10275
 O335 O 0.50117 0.07703 -0.04070
 O336 O 0.53924 0.04792 -0.06622
 C337 C 0.56472 0.04287 -0.05700
 O338 O 0.58022 -0.01855 0.03348
 O339 O 0.49785 0.03419 0.10753
 O340 O 0.57128 0.02792 0.03881
 O341 O 0.53744 0.05036 0.07113
 O342 O 0.49630 -0.02582 0.11188
 O343 O 0.53657 -0.04574 0.08033
 C344 C 0.56312 0.04503 0.06315
 H345 H 0.46257 0.00265 0.07603
 H346 H 0.53730 -0.04944 0.00897
 H347 H 0.53571 0.05372 0.00203
 H348 H 0.46293 -0.00016 -0.06592
 H349 H 0.49606 -0.08290 0.07164
 H350 H 0.50184 -0.08421 -0.05845
 H351 H 0.49975 -0.05095 -0.10770
 H352 H 0.50555 0.04297 -0.11573
 H353 H 0.49176 -0.04329 0.12352
 H354 H 0.49701 0.05297 0.11657
 H355 H 0.50055 0.08624 0.06791
 H356 H 0.50579 0.08439 -0.06537
 H357 H 0.53206 -0.06027 0.09800
 H358 H 0.59858 -0.01198 0.02434
 H359 H 0.40099 0.01301 -0.01706
 H360 H 0.46760 0.06250 -0.08925
 Zr361 Zr 0.45159 0.49782 0.00374
 O362 O 0.42006 0.51833 0.03374
 O363 O 0.42776 0.47383 -0.03211
 O364 O 0.42827 0.52387 -0.03039
 O365 O 0.46254 0.44890 0.07019
 O366 O 0.46159 0.54860 -0.06024
 O367 O 0.42879 0.47172 0.03822
 O368 O 0.46081 0.45258 -0.06713
 O369 O 0.47475 0.49990 -0.04524
 O370 O 0.47567 0.46276 0.00163
 O371 O 0.47532 0.53326 0.00802
 O372 O 0.47534 0.49748 0.05297
 Zr373 Zr 0.54931 0.49951 0.00503
 Zr374 Zr 0.50002 0.53408 -0.03974
 Zr375 Zr 0.50081 0.46323 0.04867
 Zr376 Zr 0.49977 0.46554 -0.04590
 O377 O 0.50210 0.46475 0.10701
 O378 O 0.49969 0.47441 -0.10313
 O379 O 0.52581 0.46369 0.00094
 O380 O 0.52521 0.49974 -0.04363
 O381 O 0.52553 0.53481 0.00725
 O382 O 0.52578 0.49742 0.05363
 C383 C 0.43534 0.45767 -0.05788
 C384 C 0.43687 0.45436 0.06225
 C385 C 0.43605 0.54232 -0.05302
 O386 O 0.50172 0.53270 -0.09806
 O387 O 0.53811 0.55113 -0.05740
 O388 O 0.57200 0.52733 -0.02717
 C389 C 0.56379 0.54581 -0.04952
 O390 O 0.46373 0.54499 0.08105
 Zr391 Zr 0.50107 0.53176 0.05473
 O392 O 0.57311 0.52399 0.04026
 O393 O 0.49795 0.57619 -0.03212
 O394 O 0.49934 0.57412 0.04888
 O395 O 0.50397 0.52476 0.11235
 O396 O 0.53993 0.54754 0.07218
 C397 C 0.56542 0.54197 0.06359
 O398 O 0.58080 0.48017 -0.02644
 O399 O 0.49994 0.42104 0.04147
 O400 O 0.57267 0.47193 0.03687
 O401 O 0.53929 0.44630 0.06522
 O402 O 0.49870 0.42304 -0.04197
 O403 O 0.53709 0.44874 -0.06812
 C404 C 0.56486 0.45253 0.05798
 H405 H 0.46429 0.44615 0.00108
 H406 H 0.53732 0.50030 -0.06580
 H407 H 0.53757 0.49644 0.07608
 H408 H 0.46305 0.54925 0.00972
 H409 H 0.49463 0.45768 -0.11641
 H410 H 0.50074 0.55153 -0.10681
 H411 H 0.49861 0.58441 -0.05700
 H412 H 0.50434 0.58211 0.07306
 H413 H 0.49406 0.41591 -0.06678
 H414 H 0.49940 0.41300 0.06648
 H415 H 0.50289 0.44591 0.11574
 H416 H 0.50854 0.54214 0.12426
 H417 H 0.53244 0.43778 -0.09010
 H418 H 0.59917 0.48654 -0.01704
 H419 H 0.40168 0.51189 0.02445
 H420 H 0.46828 0.55936 0.09898
 Zr421 Zr 0.04934 -0.00027 0.50507
 O422 O 0.08088 -0.01957 0.47364
 O423 O 0.07307 0.02435 0.54019
 O424 O 0.07191 0.02754 0.47270
 O425 O 0.03952 -0.05341 0.56543
 O426 O 0.03790 0.05116 0.44240
 O427 O 0.07281 -0.02774 0.53695
 O428 O 0.03984 0.04786 0.57206
 O429 O 0.02544 0.03496 0.50718
 O430 O 0.02585 -0.00233 0.55371
 O431 O 0.02520 -0.00023 0.45644
 O432 O 0.02595 -0.03617 0.50116
 Zr433 Zr -0.04840 -0.00228 0.50391
 Zr434 Zr -0.00011 0.03404 0.46023
 Zr435 Zr 0.00098 -0.03661 0.54892
 Zr436 Zr 0.00102 0.03194 0.55471
 O437 O 0.00021 -0.07882 0.54191
 O438 O -0.00084 0.07427 0.54868
 O439 O -0.02460 -0.00242 0.55310
 O440 O -0.02477 0.03325 0.50802
 O441 O -0.02527 -0.00023 0.45489
 O442 O -0.02419 -0.03726 0.50192
 C443 C 0.06534 0.04235 0.56346
 C444 C 0.06506 -0.04713 0.55812
 C445 C 0.06360 0.04593 0.45026
 O446 O -0.00228 0.07616 0.46769
 O447 O -0.03860 0.04843 0.43976
 O448 O -0.07182 0.02366 0.46973
 C449 C -0.06412 0.04210 0.44705
 O450 O 0.03723 -0.05123 0.43215
 Zr451 Zr -0.00012 -0.03451 0.45435
 O452 O -0.07216 -0.02644 0.46819
 O453 O 0.00151 0.03253 0.40191
 O454 O -0.00029 -0.02577 0.39708
 O455 O -0.00103 -0.07700 0.45848
 O456 O -0.03904 -0.04766 0.43324
 C457 C -0.06453 -0.04265 0.44249
 O458 O -0.07999 0.01819 0.53385
 O459 O 0.00235 -0.03495 0.60725
 O460 O -0.07108 -0.02836 0.53856
 O461 O -0.03722 -0.05098 0.57060
 O462 O 0.00398 0.02505 0.61234
 O463 O -0.03633 0.04512 0.58101
 C464 C -0.06291 -0.04563 0.56268
 H465 H 0.03766 -0.00323 0.57615
 H466 H -0.03709 0.04920 0.50969
 H467 H -0.03551 -0.05391 0.50146
 H468 H 0.03728 0.00032 0.43425
 H469 H 0.00415 0.08233 0.57282
 H470 H -0.00167 0.08433 0.44277
 H471 H 0.00047 0.05134 0.39308
 H472 H -0.00529 -0.04254 0.38388
 H473 H 0.00851 0.04246 0.62419
 H474 H 0.00320 -0.05377 0.61606
 H475 H -0.00028 -0.08679 0.56695
 H476 H -0.00566 -0.08421 0.43370
 H477 H -0.03181 0.05954 0.59889
 H478 H -0.09834 0.01167 0.52460
 H479 H 0.09923 -0.01311 0.48300
 H480 H 0.03260 -0.06226 0.41022
 Zr481 Zr 0.75276 0.20174 0.25237
 O482 O 0.73054 0.17167 0.28154
 O483 O 0.77820 0.17857 0.21752
 O484 O 0.72615 0.17959 0.21729
 O485 O 0.80231 0.21178 0.32070
 O486 O 0.70151 0.21164 0.18627
 O487 O 0.77905 0.17968 0.28785
 O488 O 0.80102 0.20990 0.18297
 O489 O 0.75180 0.22383 0.20327
 O490 O 0.78961 0.22439 0.25150
 O491 O 0.71592 0.22479 0.25521
 O492 O 0.75228 0.22454 0.30153
 Zr493 Zr 0.75185 0.29532 0.25331
 Zr494 Zr 0.71632 0.24838 0.20740
 Zr495 Zr 0.78834 0.24857 0.29841
 Zr496 Zr 0.78787 0.24746 0.20385
 O497 O 0.78577 0.25000 0.35668
 O498 O 0.77986 0.24759 0.14628
 O499 O 0.78908 0.27248 0.25066
 O500 O 0.75241 0.27219 0.20470
 O501 O 0.71475 0.27295 0.25425
 O502 O 0.75284 0.27285 0.30202
 C503 C 0.79548 0.18544 0.19198
 C504 C 0.79672 0.18711 0.31273
 C505 C 0.70750 0.18700 0.19369
 O506 O 0.71887 0.25002 0.14915
 O507 O 0.69926 0.28501 0.18907
 O508 O 0.72357 0.31729 0.22020
 C509 C 0.70465 0.30970 0.19700
 O510 O 0.70179 0.21400 0.32762
 Zr511 Zr 0.71676 0.24957 0.30188
 O512 O 0.72602 0.31846 0.28763
 O513 O 0.67224 0.24665 0.21321
 O514 O 0.67271 0.24866 0.29424
 O515 O 0.72288 0.25213 0.35976
 O516 O 0.70074 0.28708 0.31897
 C517 C 0.70687 0.31155 0.31069
 O518 O 0.77283 0.32536 0.22257
 O519 O 0.83246 0.24726 0.29288
 O520 O 0.78011 0.31748 0.28620
 O521 O 0.80590 0.28533 0.31546
 O522 O 0.83208 0.24569 0.20926
 O523 O 0.80636 0.28302 0.18244
 C524 C 0.79986 0.31000 0.30822
 H525 H 0.80681 0.21327 0.25160
 H526 H 0.75237 0.28379 0.18252
 H527 H 0.75355 0.28415 0.32450
 H528 H 0.69911 0.21317 0.25627
 H529 H 0.79750 0.24248 0.13368
 H530 H 0.69940 0.24917 0.13971
 H531 H 0.66424 0.24735 0.18798
 H532 H 0.66394 0.25373 0.31804
 H533 H 0.83987 0.24105 0.18471
 H534 H 0.84030 0.24673 0.31820
 H535 H 0.80527 0.25057 0.36604
 H536 H 0.70459 0.25680 0.37100
 H537 H 0.81824 0.27842 0.16094
 H538 H 0.76614 0.34301 0.23176
 H539 H 0.73730 0.15399 0.27249
 H540 H 0.68637 0.21860 0.34478
 Zr541 Zr 0.74789 0.79793 0.75302
 O542 O 0.77023 0.82817 0.78179
 O543 O 0.72211 0.82091 0.71832
 O544 O 0.77430 0.81996 0.71757
 O545 O 0.69882 0.78810 0.82195
 O546 O 0.79879 0.78779 0.68653
 O547 O 0.72178 0.82009 0.78862
 O548 O 0.69902 0.78937 0.68434
 O549 O 0.74855 0.77562 0.70405
 O550 O 0.71109 0.77519 0.75274
 O551 O 0.78478 0.77491 0.75565
 O552 O 0.74877 0.77532 0.80233
 Zr553 Zr 0.74895 0.70431 0.75458
 Zr554 Zr 0.78409 0.75112 0.70798
 Zr555 Zr 0.71274 0.75122 0.79979
 Zr556 Zr 0.71252 0.75193 0.70521
 O557 O 0.71579 0.75008 0.85803
 O558 O 0.72016 0.75163 0.64756
 O559 O 0.71169 0.72711 0.75219
 O560 O 0.74802 0.72724 0.70584
 O561 O 0.78602 0.72674 0.75495
 O562 O 0.74829 0.72697 0.80318
 C563 C 0.70457 0.81389 0.69310
 C564 C 0.70427 0.81275 0.81371
 C565 C 0.79286 0.81246 0.69388
 O566 O 0.78112 0.74925 0.64977
 O567 O 0.80106 0.71443 0.68967
 O568 O 0.77703 0.68225 0.72126
 C569 C 0.79577 0.68977 0.69782
 O570 O 0.79936 0.78599 0.82793
 Zr571 Zr 0.78433 0.75031 0.80247
 O572 O 0.77514 0.68133 0.78867
 O573 O 0.82821 0.75289 0.71330
 O574 O 0.82832 0.75136 0.79436
 O575 O 0.77859 0.74788 0.86042
 O576 O 0.80068 0.71287 0.81944
 C577 C 0.79455 0.68835 0.81135
 O578 O 0.72782 0.67409 0.72425
 O579 O 0.66857 0.75245 0.79481
 O580 O 0.72088 0.68226 0.78785
 O581 O 0.69528 0.71453 0.81721
 O582 O 0.66835 0.75355 0.71114
 O583 O 0.69399 0.71625 0.68411
 C584 C 0.70124 0.68983 0.80999
 H585 H 0.69387 0.78627 0.75296
 H586 H 0.74793 0.71555 0.68372
 H587 H 0.74775 0.71575 0.82571
 H588 H 0.80158 0.78655 0.75647
 H589 H 0.70243 0.75666 0.63511
 H590 H 0.80053 0.75007 0.64011
 H591 H 0.83604 0.75207 0.68799
 H592 H 0.83727 0.74641 0.81808
 H593 H 0.66035 0.75806 0.68667
 H594 H 0.66092 0.75309 0.82022
 H595 H 0.69636 0.74951 0.86764
 H596 H 0.79697 0.74325 0.87147
 H597 H 0.68198 0.72075 0.66270
 H598 H 0.73461 0.65649 0.73348
 H599 H 0.76337 0.84579 0.77270
 H600 H 0.81486 0.78148 0.84503
 Zr601 Zr 0.25169 0.29899 0.74782
 O602 O 0.22957 0.32901 0.71839
 O603 O 0.27690 0.32221 0.78294
 O604 O 0.22469 0.32106 0.78259
 O605 O 0.30169 0.28902 0.68004
 O606 O 0.19999 0.28889 0.81327
 O607 O 0.27817 0.32110 0.71262
 O608 O 0.29966 0.29090 0.81765
 O609 O 0.25053 0.27686 0.79690
 O610 O 0.28860 0.27640 0.74906
 O611 O 0.21496 0.27579 0.74455
 O612 O 0.25158 0.27614 0.69866
 Zr613 Zr 0.25115 0.20534 0.74682
 Zr614 Zr 0.21516 0.25219 0.79236
 Zr615 Zr 0.28769 0.25220 0.70214
 Zr616 Zr 0.28668 0.25332 0.79668
 O617 O 0.28543 0.25082 0.64384
 O618 O 0.27833 0.25321 0.85416
 O619 O 0.28828 0.22829 0.74989
 O620 O 0.25134 0.22848 0.79542
 O621 O 0.21398 0.22761 0.74550
 O622 O 0.25231 0.22782 0.69812
 C623 C 0.29411 0.31536 0.80859
 C624 C 0.29602 0.31369 0.68794
 C625 C 0.20588 0.31356 0.80595
 O626 O 0.21740 0.25062 0.85064
 O627 O 0.19819 0.21549 0.81055
 O628 O 0.22282 0.18328 0.77971
 C629 C 0.20375 0.19081 0.80272
 O630 O 0.20123 0.28651 0.67195
 Zr631 Zr 0.21615 0.25100 0.69790
 O632 O 0.22554 0.18212 0.71230
 O633 O 0.17112 0.25370 0.78604
 O634 O 0.17206 0.25182 0.70505
 O635 O 0.22261 0.24842 0.64009
 O636 O 0.20030 0.21343 0.68070
 C637 C 0.20645 0.18898 0.68908
 O638 O 0.27212 0.17536 0.77774
 O639 O 0.33178 0.25360 0.70816
 O640 O 0.27965 0.18325 0.71412
 O641 O 0.30549 0.21548 0.68516
 O642 O 0.33092 0.25518 0.79174
 O643 O 0.30515 0.21783 0.81836
 C644 C 0.29949 0.19078 0.69228
 H645 H 0.30577 0.28755 0.74915
 H646 H 0.25122 0.21690 0.81762
 H647 H 0.25317 0.21652 0.67565
 H648 H 0.19811 0.28735 0.74329
 H649 H 0.29588 0.25837 0.86696
 H650 H 0.19788 0.25136 0.85987
 H651 H 0.16296 0.25297 0.81117
 H652 H 0.16344 0.24673 0.68116
 H653 H 0.33857 0.25982 0.81637
 H654 H 0.33977 0.25417 0.68293
 H655 H 0.30498 0.25030 0.63467
 H656 H 0.20440 0.24368 0.62866
 H657 H 0.31688 0.22247 0.84000
 H658 H 0.26554 0.15769 0.76848
 H659 H 0.23623 0.34669 0.72754
 H660 H 0.18593 0.28187 0.65461
 Zr661 Zr 0.24721 0.70145 0.24716
 O662 O 0.26928 0.67125 0.21795
 O663 O 0.22179 0.67845 0.28219
 O664 O 0.27389 0.67931 0.28219
 O665 O 0.19750 0.71150 0.17900
 O666 O 0.29865 0.71139 0.31307
 O667 O 0.22073 0.67938 0.21181
 O668 O 0.19912 0.70995 0.31672
 O669 O 0.24836 0.72368 0.29621
 O670 O 0.21044 0.72423 0.24812
 O671 O 0.28411 0.72442 0.24416
 O672 O 0.24768 0.72416 0.19796
 Zr673 Zr 0.24841 0.79507 0.24606
 Zr674 Zr 0.28390 0.74814 0.29193
 Zr675 Zr 0.21170 0.74830 0.20116
 Zr676 Zr 0.21236 0.74741 0.29572
 O677 O 0.21418 0.74956 0.14288
 O678 O 0.22049 0.74764 0.35326
 O679 O 0.21113 0.77233 0.24886
 O680 O 0.24788 0.77205 0.29470
 O681 O 0.28545 0.77259 0.24503
 O682 O 0.24726 0.77248 0.19740
 C683 C 0.20458 0.68544 0.30777
 C684 C 0.20301 0.68681 0.18698
 C685 C 0.29260 0.68674 0.30572
 O686 O 0.28147 0.74989 0.35019
 O687 O 0.30111 0.78478 0.31019
 O688 O 0.27681 0.81705 0.27911
 C689 C 0.29576 0.80948 0.30227
 O690 O 0.29808 0.71344 0.17171
 Zr691 Zr 0.28327 0.74910 0.19746
 O692 O 0.27427 0.81806 0.21163
 O693 O 0.32796 0.74627 0.28594
 O694 O 0.32733 0.74805 0.20494
 O695 O 0.27703 0.75158 0.13959
 O696 O 0.29941 0.78653 0.18026
 C697 C 0.29337 0.81104 0.18853
 O698 O 0.22755 0.82525 0.27679
 O699 O 0.16758 0.74718 0.20685
 O700 O 0.22015 0.81723 0.21319
 O701 O 0.19422 0.78509 0.18407
 O702 O 0.16813 0.74577 0.29046
 O703 O 0.19400 0.78307 0.31713
 C704 C 0.20034 0.80976 0.19124
 H705 H 0.19322 0.71317 0.24811
 H706 H 0.24799 0.78369 0.31687
 H707 H 0.24654 0.78374 0.17490
 H708 H 0.30089 0.71275 0.24306
 H709 H 0.20286 0.74262 0.36594
 H710 H 0.30096 0.74901 0.35956
 H711 H 0.33602 0.74700 0.31114
 H712 H 0.33607 0.75304 0.18111
 H713 H 0.16037 0.74122 0.31505
 H714 H 0.15968 0.74661 0.18157
 H715 H 0.19467 0.75019 0.13357
 H716 H 0.29531 0.75618 0.12828
 H717 H 0.18218 0.77856 0.33870
 H718 H 0.23429 0.84286 0.26753
 H719 H 0.26248 0.65362 0.22707
 H720 H 0.31345 0.71796 0.15445
 Zr721 Zr 0.25186 0.79540 0.75320
 O722 O 0.27286 0.82545 0.72247
 O723 O 0.22604 0.81855 0.78751
 O724 O 0.22360 0.81739 0.72010
 O725 O 0.30593 0.78537 0.81530
 O726 O 0.19926 0.78514 0.68897
 O727 O 0.28015 0.81754 0.78608
 O728 O 0.20072 0.78717 0.81882
 O729 O 0.21475 0.77305 0.75413
 O730 O 0.25284 0.77292 0.80190
 O731 O 0.25240 0.77229 0.70458
 O732 O 0.28908 0.77256 0.75052
 Zr733 Zr 0.25274 0.70182 0.75219
 Zr734 Zr 0.21630 0.74850 0.70727
 Zr735 Zr 0.28833 0.74863 0.79825
 Zr736 Zr 0.21676 0.74965 0.80174
 O737 O 0.33245 0.74730 0.79272
 O738 O 0.17271 0.74873 0.79412
 O739 O 0.25227 0.72461 0.80137
 O740 O 0.21591 0.72489 0.75506
 O741 O 0.25177 0.72394 0.70311
 O742 O 0.28960 0.72446 0.75132
 C743 C 0.20686 0.81164 0.81055
 C744 C 0.29991 0.81004 0.80806
 C745 C 0.20467 0.80983 0.69691
 O746 O 0.17222 0.74678 0.71309
 O747 O 0.20149 0.71176 0.68610
 O748 O 0.22613 0.67969 0.71709
 C749 C 0.20747 0.68711 0.69349
 O750 O 0.30636 0.78312 0.68233
 Zr751 Zr 0.28785 0.74755 0.70369
 O752 O 0.27816 0.67866 0.71730
 O753 O 0.21884 0.75015 0.64901
 O754 O 0.27984 0.74774 0.64612
 O755 O 0.33206 0.74574 0.70908
 O756 O 0.30096 0.71001 0.68275
 C757 C 0.29541 0.68554 0.69173
 O758 O 0.23052 0.67175 0.78135
 O759 O 0.28577 0.75005 0.85652
 O760 O 0.27905 0.67974 0.78764
 O761 O 0.30230 0.71184 0.82052
 O762 O 0.22289 0.75223 0.85962
 O763 O 0.20180 0.71409 0.82749
 C764 C 0.29672 0.68717 0.81253
 H765 H 0.25356 0.78422 0.82438
 H766 H 0.19909 0.71327 0.75612
 H767 H 0.30679 0.71334 0.75140
 H768 H 0.25236 0.78390 0.68240
 H769 H 0.16394 0.75380 0.81793
 H770 H 0.16422 0.74749 0.68787
 H771 H 0.19936 0.74932 0.63958
 H772 H 0.29748 0.74263 0.63351
 H773 H 0.20460 0.75690 0.87086
 H774 H 0.30527 0.75061 0.86588
 H775 H 0.34030 0.74676 0.81804
 H776 H 0.33984 0.74112 0.68452
 H777 H 0.18640 0.71868 0.84468
 H778 H 0.23728 0.65407 0.77229
 H779 H 0.26617 0.84310 0.73168
 H780 H 0.31824 0.77853 0.66082
 Zr781 Zr 0.24802 0.20434 0.25291
 O782 O 0.22703 0.17402 0.22257
 O783 O 0.27411 0.18148 0.28728
 O784 O 0.27624 0.18225 0.21984
 O785 O 0.19412 0.21459 0.31519
 O786 O 0.30031 0.21440 0.18825
 O787 O 0.21990 0.18231 0.28615
 O788 O 0.29945 0.21314 0.31811
 O789 O 0.28504 0.22683 0.25340
 O790 O 0.24715 0.22711 0.30140
 O791 O 0.24720 0.22717 0.20408
 O792 O 0.21071 0.22706 0.25020
 Zr793 Zr 0.24679 0.29795 0.25098
 Zr794 Zr 0.28323 0.25110 0.20632
 Zr795 Zr 0.21156 0.25128 0.29771
 Zr796 Zr 0.28315 0.25050 0.30081
 O797 O 0.16742 0.25245 0.29243
 O798 O 0.32716 0.25155 0.29293
 O799 O 0.24755 0.27544 0.30036
 O800 O 0.28371 0.27500 0.25390
 O801 O 0.24765 0.27554 0.20209
 O802 O 0.21003 0.27517 0.25057
 C803 C 0.29338 0.18859 0.31011
 C804 C 0.20018 0.18988 0.30815
 C805 C 0.29504 0.18975 0.19647
 O806 O 0.32732 0.25294 0.21188
 O807 O 0.29795 0.28775 0.18483
 O808 O 0.27330 0.31995 0.21562
 C809 C 0.29196 0.31243 0.19207
 O810 O 0.19324 0.21605 0.18209
 Zr811 Zr 0.21166 0.25180 0.20314
 O812 O 0.22111 0.32081 0.21602
 O813 O 0.28044 0.24912 0.14810
 O814 O 0.21947 0.25136 0.14553
 O815 O 0.16747 0.25340 0.20883
 O816 O 0.19820 0.28917 0.18201
 C817 C 0.20369 0.31372 0.19070
 O818 O 0.26899 0.32830 0.27973
 O819 O 0.21438 0.25022 0.35597
 O820 O 0.22057 0.32014 0.28642
 O821 O 0.19758 0.28816 0.31974
 O822 O 0.27722 0.24825 0.35874
 O823 O 0.29806 0.28627 0.32618
 C824 C 0.20304 0.31281 0.31150
 H825 H 0.24655 0.21594 0.32398
 H826 H 0.30049 0.28667 0.25478
 H827 H 0.19279 0.28623 0.25066
 H828 H 0.24720 0.21543 0.18200
 H829 H 0.33604 0.24668 0.31673
 H830 H 0.33524 0.25209 0.18661
 H831 H 0.29987 0.24995 0.13854
 H832 H 0.20177 0.25634 0.13297
 H833 H 0.29557 0.24368 0.36993
 H834 H 0.19492 0.24966 0.36546
 H835 H 0.15967 0.25314 0.31779
 H836 H 0.15954 0.25785 0.18430
 H837 H 0.31353 0.28182 0.34334
 H838 H 0.26212 0.34589 0.27053
 H839 H 0.23382 0.15645 0.23192
 H840 H 0.18126 0.22049 0.16062
 Zr841 Zr 0.75209 0.70435 0.24646
 O842 O 0.77318 0.67430 0.27709
 O843 O 0.72630 0.68123 0.21205
 O844 O 0.72384 0.68224 0.27946
 O845 O 0.80611 0.71464 0.18437
 O846 O 0.69942 0.71441 0.31063
 O847 O 0.78042 0.68233 0.21341
 O848 O 0.70091 0.71263 0.18083
 O849 O 0.71493 0.72665 0.24556
 O850 O 0.75301 0.72695 0.19786
 O851 O 0.75254 0.72739 0.29516
 O852 O 0.78924 0.72729 0.24930
 Zr853 Zr 0.75269 0.79800 0.24786
 Zr854 Zr 0.71637 0.75113 0.29251
 Zr855 Zr 0.78843 0.75131 0.20167
 Zr856 Zr 0.71687 0.75016 0.19805
 O857 O 0.83255 0.75267 0.20732
 O858 O 0.67282 0.75098 0.20559
 O859 O 0.75232 0.77527 0.19860
 O860 O 0.71593 0.77484 0.24481
 O861 O 0.75177 0.77577 0.29685
 O862 O 0.78959 0.77540 0.24868
 C863 C 0.70709 0.68816 0.18904
 C864 C 0.80014 0.68992 0.19142
 C865 C 0.70488 0.68975 0.30263
 O866 O 0.67229 0.75274 0.28660
 O867 O 0.70138 0.78778 0.31378
 O868 O 0.72591 0.82001 0.28298
 C869 C 0.70726 0.81247 0.30651
 O870 O 0.80648 0.71666 0.31757
 Zr871 Zr 0.78791 0.75222 0.29622
 O872 O 0.77805 0.82113 0.28288
 O873 O 0.71891 0.74937 0.35076
 O874 O 0.77985 0.75194 0.35377
 O875 O 0.83212 0.75409 0.29089
 O876 O 0.80097 0.78975 0.31728
 C877 C 0.79536 0.81423 0.30839
 O878 O 0.73043 0.82809 0.21875
 O879 O 0.78588 0.75008 0.14338
 O880 O 0.77900 0.82019 0.21253
 O881 O 0.80235 0.78818 0.17961
 O882 O 0.72303 0.74770 0.14017
 O883 O 0.70184 0.78573 0.17237
 C884 C 0.79672 0.81283 0.18767
 H885 H 0.75376 0.71571 0.17533
 H886 H 0.69908 0.78642 0.24376
 H887 H 0.80676 0.78655 0.24868
 H888 H 0.75251 0.71575 0.31731
 H889 H 0.66407 0.74595 0.18176
 H890 H 0.66427 0.75195 0.31180
 H891 H 0.69943 0.75012 0.36017
 H892 H 0.79746 0.75708 0.36644
 H893 H 0.70476 0.74299 0.12888
 H894 H 0.80538 0.74957 0.13405
 H895 H 0.84041 0.75331 0.18203
 H896 H 0.83989 0.75869 0.31547
 H897 H 0.68645 0.78114 0.15515
 H898 H 0.73714 0.84575 0.22791
 H899 H 0.76653 0.65665 0.26780
 H900 H 0.81835 0.72125 0.33910
 Zr901 Zr 0.74841 0.29612 0.74775
 O902 O 0.72762 0.32633 0.77849
 O903 O 0.77417 0.31905 0.71312
 O904 O 0.77692 0.31818 0.78051
 O905 O 0.69406 0.28598 0.68605
 O906 O 0.80133 0.28599 0.81161
 O907 O 0.72005 0.31821 0.71491
 O908 O 0.79924 0.28747 0.68177
 O909 O 0.78545 0.27365 0.74663
 O910 O 0.74714 0.27343 0.69917
 O911 O 0.74802 0.27319 0.79649
 O912 O 0.71115 0.27336 0.75083
 Zr913 Zr 0.74727 0.20251 0.74920
 Zr914 Zr 0.78406 0.24929 0.79364
 Zr915 Zr 0.71160 0.24925 0.70320
 Zr916 Zr 0.78316 0.25006 0.69916
 O917 O 0.66750 0.24812 0.70910
 O918 O 0.82724 0.24904 0.70643
 O919 O 0.74758 0.22512 0.69991
 O920 O 0.78416 0.22548 0.74596
 O921 O 0.74854 0.22482 0.79818
 O922 O 0.71049 0.22527 0.75025
 C923 C 0.79322 0.31199 0.68997
 C924 C 0.70019 0.31067 0.69308
 C925 C 0.79596 0.31067 0.80357
 O926 O 0.82810 0.24741 0.78747
 O927 O 0.79888 0.21258 0.81484
 O928 O 0.77401 0.18045 0.78421
 C929 C 0.79280 0.18792 0.80762
 O930 O 0.69423 0.28420 0.81921
 Zr931 Zr 0.71252 0.24852 0.79777
 O932 O 0.72194 0.17955 0.78437
 O933 O 0.78178 0.25119 0.85190
 O934 O 0.72084 0.24880 0.85526
 O935 O 0.66828 0.24691 0.79273
 O936 O 0.69929 0.21107 0.81888
 C937 C 0.70474 0.18655 0.80995
 O938 O 0.76930 0.17228 0.72000
 O939 O 0.71392 0.25039 0.64490
 O940 O 0.72073 0.18036 0.71405
 O941 O 0.69736 0.21239 0.68126
 O942 O 0.77678 0.25244 0.64131
 O943 O 0.79790 0.21435 0.67347
 C944 C 0.70292 0.18772 0.68929
 H945 H 0.74636 0.28464 0.67664
 H946 H 0.80093 0.21382 0.74482
 H947 H 0.69327 0.21420 0.75035
 H948 H 0.74820 0.28488 0.81861
 H949 H 0.83592 0.25398 0.68253
 H950 H 0.83623 0.24820 0.81263
 H951 H 0.80130 0.25033 0.86118
 H952 H 0.70325 0.24377 0.86804
 H953 H 0.79504 0.25701 0.62991
 H954 H 0.69438 0.25098 0.63568
 H955 H 0.65953 0.24749 0.68385
 H956 H 0.66058 0.24239 0.81736
 H957 H 0.81323 0.21884 0.65613
 H958 H 0.76254 0.15466 0.72921
 H959 H 0.73431 0.34393 0.76914
 H960 H 0.68250 0.27972 0.84088
 C961 C 0.15188 0.34683 0.86771
 C962 C 0.15475 0.37387 0.85799
 C963 C 0.17522 0.38145 0.83235
 C964 C 0.19240 0.36197 0.81601
 C965 C 0.08197 0.43998 0.91840
 C966 C 0.16896 0.32735 0.85144
 C967 C 0.13596 0.39345 0.87368
 C968 C 0.11949 0.40898 0.88722
 C969 C 0.09949 0.42616 0.90368
 C970 C 0.18925 0.33461 0.82505
 H971 H 0.13613 0.34071 0.88753
 H972 H 0.17762 0.40234 0.82460
 H973 H 0.20776 0.36828 0.79581
 H974 H 0.16592 0.30655 0.85917
 C975 C 0.34592 0.65327 0.36811
 C976 C 0.34303 0.62627 0.35817
 C977 C 0.32271 0.61877 0.33226
 C978 C 0.30572 0.63832 0.31580
 C979 C 0.41570 0.56031 0.41854
 C980 C 0.32905 0.67281 0.35172
 C981 C 0.36171 0.60665 0.37383
 C982 C 0.37816 0.59114 0.38735
 C983 C 0.39815 0.57403 0.40380
 C984 C 0.30894 0.66564 0.32501
 H985 H 0.36158 0.65930 0.38815
 H986 H 0.32031 0.59790 0.32435
 H987 H 0.29049 0.63208 0.29536
 H988 H 0.33211 0.69360 0.35958
 C989 C 0.84610 0.84579 0.63125
 C990 C 0.84328 0.87281 0.64118
 C991 C 0.82301 0.88036 0.66711
 C992 C 0.80601 0.86086 0.68361
 C993 C 0.91589 0.93897 0.58108
 C994 C 0.82920 0.82629 0.64769
 C995 C 0.86200 0.89240 0.62551
 C996 C 0.87843 0.90794 0.61204
 C997 C 0.89840 0.92514 0.59570
 C998 C 0.80916 0.83351 0.67444
 H999 H 0.86171 0.83972 0.61120
 H1000 H 0.82067 0.90124 0.67501
 H1001 H 0.79083 0.86714 0.70409
 H1002 H 0.83222 0.80549 0.63986
 C1003 C 0.65412 0.15341 0.13151
 C1004 C 0.65704 0.12644 0.14153
 C1005 C 0.67740 0.11899 0.16739
 C1006 C 0.69442 0.13857 0.18372
 C1007 C 0.58432 0.06032 0.08170
 C1008 C 0.67102 0.17299 0.14779
 C1009 C 0.63832 0.10679 0.12604
 C1010 C 0.62185 0.09124 0.11267
 C1011 C 0.60185 0.07408 0.09637
 C1012 C 0.69116 0.16588 0.17445
 H1013 H 0.63842 0.15939 0.11152
 H1014 H 0.67982 0.09814 0.17534
 H1015 H 0.70968 0.13238 0.20414
 H1016 H 0.66794 0.19376 0.13989
 C1017 C 0.84734 0.15280 0.37830
 C1018 C 0.84461 0.12588 0.36776
 C1019 C 0.82545 0.11880 0.34017
 C1020 C 0.80939 0.13862 0.32279
 C1021 C 0.91447 0.05767 0.42932
 C1022 C 0.83136 0.17265 0.36097
 C1023 C 0.86236 0.10585 0.38433
 C1024 C 0.87801 0.08978 0.39829
 C1025 C 0.89725 0.07193 0.41485
 C1026 C 0.81236 0.16585 0.33272
 H1027 H 0.86215 0.15852 0.39957
 H1028 H 0.82322 0.09803 0.33171
 H1029 H 0.79505 0.13265 0.30112
 H1030 H 0.83421 0.19335 0.36936
 C1031 C 0.34691 0.34784 0.62265
 C1032 C 0.34444 0.37475 0.63336
 C1033 C 0.32534 0.38189 0.66099
 C1034 C 0.30909 0.36214 0.67823
 C1035 C 0.41472 0.44243 0.57148
 C1036 C 0.33076 0.32808 0.63984
 C1037 C 0.36235 0.39468 0.61682
 C1038 C 0.37813 0.41062 0.60281
 C1039 C 0.39747 0.42830 0.58611
 C1040 C 0.31182 0.33492 0.66812
 H1041 H 0.36166 0.34207 0.60134
 H1042 H 0.32330 0.40265 0.66958
 H1043 H 0.29481 0.36815 0.69994
 H1044 H 0.33342 0.30738 0.63130
 C1045 C 0.65361 0.84726 0.87905
 C1046 C 0.65609 0.87411 0.86810
 C1047 C 0.67515 0.88109 0.84039
 C1048 C 0.69134 0.86123 0.82326
 C1049 C 0.58577 0.94235 0.92880
 C1050 C 0.66972 0.82738 0.86196
 C1051 C 0.63817 0.89415 0.88439
 C1052 C 0.62240 0.91023 0.89811
 C1053 C 0.60304 0.92809 0.91445
 C1054 C 0.68859 0.83407 0.83357
 H1055 H 0.63888 0.84162 0.90043
 H1056 H 0.67718 0.90180 0.83162
 H1057 H 0.70557 0.86713 0.80145
 H1058 H 0.66704 0.80673 0.87064
 C1059 C 0.15214 0.65261 0.12141
 C1060 C 0.15482 0.62566 0.13178
 C1061 C 0.17397 0.61853 0.15936
 C1062 C 0.19009 0.63832 0.17683
 C1063 C 0.08523 0.55742 0.06908
 C1064 C 0.16817 0.67242 0.13883
 C1065 C 0.13710 0.60563 0.11493
 C1066 C 0.12151 0.58956 0.10070
 C1067 C 0.10237 0.57169 0.08380
 C1068 C 0.18720 0.66557 0.16701
 H1069 H 0.13734 0.65839 0.10015
 H1070 H 0.17619 0.59775 0.16771
 H1071 H 0.20445 0.63229 0.19845
 H1072 H 0.16537 0.69313 0.13051
 C1073 C 0.34582 0.84626 0.12691
 C1074 C 0.34276 0.87297 0.13817
 C1075 C 0.32298 0.87965 0.16513
 C1076 C 0.30651 0.85958 0.18114
 C1077 C 0.41351 0.94138 0.07994
 C1078 C 0.32945 0.82617 0.14287
 C1079 C 0.36075 0.89318 0.12281
 C1080 C 0.37665 0.90929 0.10965
 C1081 C 0.39615 0.92710 0.09386
 C1082 C 0.30974 0.83255 0.17040
 H1083 H 0.36113 0.84090 0.10609
 H1084 H 0.32054 0.90029 0.17410
 H1085 H 0.29160 0.86519 0.20233
 H1086 H 0.33246 0.80562 0.13388
 C1087 C 0.65467 0.34701 0.37245
 C1088 C 0.65769 0.37367 0.36106
 C1089 C 0.67738 0.38026 0.33395
 C1090 C 0.69378 0.36012 0.31792
 C1091 C 0.58691 0.44192 0.41962
 C1092 C 0.67097 0.32686 0.35648
 C1093 C 0.63974 0.39391 0.37645
 C1094 C 0.62384 0.41001 0.38967
 C1095 C 0.60431 0.42774 0.40557
 C1096 C 0.69058 0.33314 0.32881
 H1097 H 0.63943 0.34173 0.39339
 H1098 H 0.67978 0.40086 0.32488
 H1099 H 0.70861 0.36564 0.29662
 H1100 H 0.66799 0.30634 0.36558
 C1101 C 0.84796 0.65311 0.87171
 C1102 C 0.84469 0.62637 0.86066
 C1103 C 0.82447 0.61969 0.83423
 C1104 C 0.80777 0.63977 0.81858
 C1105 C 0.91554 0.55755 0.91833
 C1106 C 0.83137 0.67321 0.85610
 C1107 C 0.86280 0.60610 0.87579
 C1108 C 0.87873 0.58990 0.88877
 C1109 C 0.89822 0.57194 0.90444
 C1110 C 0.81119 0.66682 0.82914
 H1111 H 0.86360 0.65848 0.89211
 H1112 H 0.82183 0.59904 0.82542
 H1113 H 0.79252 0.63415 0.79782
 H1114 H 0.83456 0.69377 0.86493
 C1115 C 0.15435 0.15333 0.62731
 C1116 C 0.15740 0.12669 0.63883
 C1117 C 0.17710 0.12019 0.66598
 C1118 C 0.19348 0.14037 0.68194
 C1119 C 0.08672 0.05810 0.58071
 C1120 C 0.17063 0.17353 0.64322
 C1121 C 0.13946 0.10639 0.62355
 C1122 C 0.12358 0.09022 0.61045
 C1123 C 0.10409 0.07237 0.59467
 C1124 C 0.19024 0.16734 0.67095
 H1125 H 0.13910 0.15855 0.60634
 H1126 H 0.17954 0.09961 0.67515
 H1127 H 0.20831 0.13491 0.70329
 H1128 H 0.16760 0.19403 0.63404
 C1129 C 0.15266 0.34731 0.37719
 C1130 C 0.15518 0.37417 0.36635
 C1131 C 0.17413 0.38116 0.33851
 C1132 C 0.19019 0.36130 0.32117
 C1133 C 0.08539 0.44233 0.42819
 C1134 C 0.16863 0.32742 0.35990
 C1135 C 0.13744 0.39422 0.38293
 C1136 C 0.12179 0.41028 0.39693
 C1137 C 0.10257 0.42811 0.41360
 C1138 C 0.18742 0.33412 0.33141
 H1139 H 0.13801 0.34166 0.39866
 H1140 H 0.17620 0.40189 0.32983
 H1141 H 0.20437 0.36720 0.29931
 H1142 H 0.16594 0.30676 0.36853
 C1143 C 0.34734 0.65292 0.87815
 C1144 C 0.34472 0.62601 0.86752
 C1145 C 0.32563 0.61890 0.83987
 C1146 C 0.30952 0.63870 0.82250
 C1147 C 0.41468 0.55793 0.92920
 C1148 C 0.33132 0.67274 0.86082
 C1149 C 0.36252 0.60602 0.88411
 C1150 C 0.37821 0.58999 0.89809
 C1151 C 0.39747 0.57217 0.91470
 C1152 C 0.31239 0.66592 0.83251
 H1153 H 0.36210 0.65865 0.89948
 H1154 H 0.32349 0.59814 0.83135
 H1155 H 0.29524 0.63271 0.80077
 H1156 H 0.33408 0.69344 0.86929
 C1157 C 0.65186 0.15329 0.62423
 C1158 C 0.65466 0.12637 0.63467
 C1159 C 0.67396 0.11934 0.66212
 C1160 C 0.69010 0.13919 0.67940
 C1161 C 0.58513 0.05779 0.57262
 C1162 C 0.66791 0.17317 0.64146
 C1163 C 0.63694 0.10626 0.61802
 C1164 C 0.62136 0.09012 0.60396
 C1165 C 0.60224 0.07215 0.58723
 C1166 C 0.68709 0.16642 0.66951
 H1167 H 0.63695 0.15899 0.60306
 H1168 H 0.67626 0.09857 0.67052
 H1169 H 0.70456 0.13324 0.70093
 H1170 H 0.66502 0.19386 0.63309
 C1171 C 0.84736 0.84718 0.12222
 C1172 C 0.84484 0.87407 0.13301
 C1173 C 0.82581 0.88113 0.16074
 C1174 C 0.80966 0.86132 0.17801
 C1175 C 0.91486 0.94206 0.07125
 C1176 C 0.83129 0.82735 0.13943
 C1177 C 0.86268 0.89406 0.11647
 C1178 C 0.87838 0.91007 0.10248
 C1179 C 0.89766 0.92784 0.08582
 C1180 C 0.81242 0.83412 0.16781
 H1181 H 0.86206 0.84147 0.10083
 H1182 H 0.82374 0.90187 0.16939
 H1183 H 0.79542 0.86728 0.19980
 H1184 H 0.83398 0.80667 0.13083
 C1185 C 0.84642 0.15438 0.86951
 C1186 C 0.84319 0.12735 0.85991
 C1187 C 0.82258 0.11987 0.83439
 C1188 C 0.80561 0.13946 0.81800
 C1189 C 0.91565 0.06084 0.91958
 C1190 C 0.82956 0.17397 0.85318
 C1191 C 0.86182 0.10764 0.87547
 C1192 C 0.87821 0.09201 0.88884
 C1193 C 0.89814 0.07472 0.90506
 C1194 C 0.80916 0.16682 0.82687
 H1195 H 0.86230 0.16039 0.88924
 H1196 H 0.81991 0.09898 0.82675
 H1197 H 0.79014 0.13323 0.79787
 H1198 H 0.83288 0.19478 0.86077
 C1199 C 0.15415 0.65355 0.63118
 C1200 C 0.15714 0.62655 0.64108
 C1201 C 0.17751 0.61910 0.66692
 C1202 C 0.19447 0.63868 0.68335
 C1203 C 0.08453 0.56038 0.58108
 C1204 C 0.17101 0.67313 0.64755
 C1205 C 0.13848 0.60690 0.62548
 C1206 C 0.12205 0.59133 0.61205
 C1207 C 0.10207 0.57415 0.59572
 C1208 C 0.19116 0.66600 0.67420
 H1209 H 0.13845 0.65953 0.61120
 H1210 H 0.17997 0.59824 0.67478
 H1211 H 0.20975 0.63248 0.70375
 H1212 H 0.16788 0.69391 0.63974
 C1213 C 0.65376 0.84565 0.36909
 C1214 C 0.65663 0.87271 0.35949
 C1215 C 0.67695 0.88033 0.33367
 C1216 C 0.69398 0.86086 0.31702
 C1217 C 0.58419 0.93882 0.42048
 C1218 C 0.67067 0.82619 0.35250
 C1219 C 0.63797 0.89228 0.37544
 C1220 C 0.62158 0.90780 0.38915
 C1221 C 0.60167 0.92499 0.40574
 C1222 C 0.69080 0.83348 0.32592
 H1223 H 0.63811 0.83951 0.38903
 H1224 H 0.67936 0.90123 0.32602
 H1225 H 0.70922 0.86721 0.29669
 H1226 H 0.66762 0.80536 0.36013
 C1227 C 0.34551 0.34574 0.12990
 C1228 C 0.34264 0.37276 0.13979
 C1229 C 0.32222 0.38032 0.16551
 C1230 C 0.30512 0.36082 0.18185
 C1231 C 0.41561 0.43894 0.08049
 C1232 C 0.32852 0.32624 0.14618
 C1233 C 0.36146 0.39234 0.12433
 C1234 C 0.37798 0.40789 0.11106
 C1235 C 0.39804 0.42510 0.09494
 C1236 C 0.30834 0.33347 0.17273
 H1237 H 0.36125 0.33966 0.11002
 H1238 H 0.31983 0.40120 0.17337
 H1239 H 0.28983 0.36711 0.20217
 H1240 H 0.33159 0.30544 0.13840
 C1241 C 0.65467 0.65268 0.12757
 C1242 C 0.65776 0.62601 0.13896
 C1243 C 0.67757 0.61944 0.16593
 C1244 C 0.69405 0.63958 0.18183
 C1245 C 0.58684 0.55763 0.08088
 C1246 C 0.67104 0.67283 0.14342
 C1247 C 0.63974 0.60576 0.12372
 C1248 C 0.62380 0.58963 0.11063
 C1249 C 0.60425 0.57184 0.09486
 C1250 C 0.69078 0.66657 0.17096
 H1251 H 0.63933 0.65795 0.10673
 H1252 H 0.68003 0.59884 0.17499
 H1253 H 0.70897 0.63406 0.20304
 H1254 H 0.66800 0.69335 0.13434
 C1255 C 0.15450 0.84713 0.87206
 C1256 C 0.15756 0.87379 0.86066
 C1257 C 0.17731 0.88036 0.83364
 C1258 C 0.19376 0.86022 0.81770
 C1259 C 0.08679 0.94214 0.91909
 C1260 C 0.17085 0.82697 0.85618
 C1261 C 0.13958 0.89405 0.87598
 C1262 C 0.12368 0.91017 0.88915
 C1263 C 0.10416 0.92794 0.90503
 C1264 C 0.19053 0.83324 0.82859
 H1265 H 0.13921 0.84186 0.89294
 H1266 H 0.17974 0.90096 0.82456
 H1267 H 0.20864 0.86573 0.79646
 H1268 H 0.16784 0.80646 0.86528
 C1269 C 0.34634 0.15366 0.37143
 C1270 C 0.34317 0.12687 0.36054
 C1271 C 0.32318 0.12006 0.33388
 C1272 C 0.30661 0.14007 0.31783
 C1273 C 0.41369 0.05845 0.41965
 C1274 C 0.32986 0.17367 0.35543
 C1275 C 0.36118 0.10670 0.37609
 C1276 C 0.37704 0.09059 0.38943
 C1277 C 0.39644 0.07276 0.40549
 C1278 C 0.30992 0.16716 0.32823
 H1279 H 0.36180 0.15912 0.39202
 H1280 H 0.32064 0.09937 0.32519
 H1281 H 0.29153 0.13435 0.29690
 H1282 H 0.33296 0.19427 0.36416
 C1283 C 0.84548 0.34703 0.62792
 C1284 C 0.84263 0.37374 0.63927
 C1285 C 0.82302 0.38049 0.66641
 C1286 C 0.80652 0.36048 0.68253
 C1287 C 0.91354 0.44174 0.58049
 C1288 C 0.82909 0.32701 0.64399
 C1289 C 0.86067 0.39386 0.62379
 C1290 C 0.87661 0.40988 0.61052
 C1291 C 0.89616 0.42757 0.59456
 C1292 C 0.80956 0.33345 0.67171
 H1293 H 0.86066 0.34162 0.60696
 H1294 H 0.82073 0.40113 0.67545
 H1295 H 0.79176 0.36613 0.70387
 H1296 H 0.83196 0.30645 0.63493
 C1297 C 0.82723 0.62194 0.15889
 C1298 C 0.84870 0.62970 0.13479
 C1299 C 0.85430 0.65699 0.12944
 C1300 C 0.83859 0.67647 0.14794
 C1301 C 0.91527 0.56229 0.06519
 C1302 C 0.81142 0.64144 0.17750
 C1303 C 0.86546 0.60993 0.11583
 C1304 C 0.88032 0.59418 0.09973
 C1305 C 0.89870 0.57659 0.08092
 C1306 C 0.81692 0.66898 0.17225
 H1307 H 0.82274 0.60086 0.16333
 H1308 H 0.87090 0.66325 0.11095
 H1309 H 0.84347 0.69741 0.14312
 H1310 H 0.79490 0.63494 0.19592
 C1311 C 0.64592 0.34380 0.63162
 C1312 C 0.65164 0.37106 0.63709
 C1313 C 0.67324 0.37874 0.66105
 C1314 C 0.68907 0.35917 0.67945
 C1315 C 0.58478 0.43839 0.56823
 C1316 C 0.66164 0.32426 0.64991
 C1317 C 0.63485 0.39088 0.61839
 C1318 C 0.61993 0.40664 0.60249
 C1319 C 0.60145 0.42417 0.58386
 C1320 C 0.68343 0.33166 0.67409
 H1321 H 0.62920 0.33762 0.61322
 H1322 H 0.67782 0.39980 0.66557
 H1323 H 0.70570 0.36560 0.69779
 H1324 H 0.65666 0.30334 0.64503
 C1325 C 0.14611 0.15685 0.36999
 C1326 C 0.15155 0.12958 0.36416
 C1327 C 0.17295 0.12186 0.33993
 C1328 C 0.18884 0.14140 0.32159
 C1329 C 0.08448 0.06210 0.43240
 C1330 C 0.16189 0.17637 0.35175
 C1331 C 0.13464 0.10977 0.38271
 C1332 C 0.11966 0.09400 0.39847
 C1333 C 0.10114 0.07641 0.41692
 C1334 C 0.18346 0.16893 0.32726
 H1335 H 0.12956 0.16307 0.38860
 H1336 H 0.17731 0.10079 0.33513
 H1337 H 0.20528 0.13494 0.30300
 H1338 H 0.15712 0.19731 0.35688
 C1339 C 0.35416 0.84331 0.86942
 C1340 C 0.34864 0.87055 0.86351
 C1341 C 0.32717 0.87817 0.83934
 C1342 C 0.31126 0.85856 0.82116
 C1343 C 0.41574 0.93806 0.93161
 C1344 C 0.33836 0.82372 0.85134
 C1345 C 0.36554 0.89042 0.88195
 C1346 C 0.38053 0.90622 0.89765
 C1347 C 0.39906 0.92380 0.91608
 C1348 C 0.31670 0.83107 0.82693
 H1349 H 0.37077 0.83719 0.88799
 H1350 H 0.32276 0.89923 0.83450
 H1351 H 0.29474 0.86494 0.80263
 H1352 H 0.34317 0.80281 0.85654
 C1353 C 0.15252 0.84297 0.63233
 C1354 C 0.15533 0.87007 0.64179
 C1355 C 0.17449 0.87765 0.66918
 C1356 C 0.19071 0.85815 0.68710
 C1357 C 0.08643 0.93693 0.57543
 C1358 C 0.16862 0.82348 0.65017
 C1359 C 0.13789 0.88975 0.62381
 C1360 C 0.12248 0.90540 0.60849
 C1361 C 0.10349 0.92281 0.59051
 C1362 C 0.18790 0.83078 0.67786
 H1363 H 0.13771 0.83684 0.61126
 H1364 H 0.17676 0.89858 0.67684
 H1365 H 0.20527 0.86448 0.70833
 H1366 H 0.16588 0.80267 0.64223
 C1367 C 0.65263 0.65660 0.36704
 C1368 C 0.65534 0.62951 0.35749
 C1369 C 0.67449 0.62192 0.33009
 C1370 C 0.69080 0.64141 0.31226
 C1371 C 0.58626 0.56290 0.42406
 C1372 C 0.66881 0.67607 0.34930
 C1373 C 0.63783 0.60986 0.37543
 C1374 C 0.62236 0.59428 0.39079
 C1375 C 0.60332 0.57695 0.40886
 C1376 C 0.68807 0.66877 0.32159
 H1377 H 0.63785 0.66274 0.38812
 H1378 H 0.67670 0.60100 0.32236
 H1379 H 0.70533 0.63508 0.29102
 H1380 H 0.66613 0.69687 0.35731
 C1381 C 0.32561 0.12191 0.16941
 C1382 C 0.34460 0.12940 0.14182
 C1383 C 0.34716 0.15644 0.13198
 C1384 C 0.33097 0.17596 0.14965
 C1385 C 0.41379 0.06258 0.07581
 C1386 C 0.30930 0.14144 0.18717
 C1387 C 0.36214 0.10971 0.12401
 C1388 C 0.37763 0.09407 0.10879
 C1389 C 0.39670 0.07668 0.09088
 C1390 C 0.31186 0.16875 0.17756
 H1391 H 0.32354 0.10103 0.17737
 H1392 H 0.36183 0.16250 0.11074
 H1393 H 0.33351 0.19672 0.14143
 H1394 H 0.29488 0.13518 0.20857
 C1395 C 0.84882 0.34403 0.86721
 C1396 C 0.84593 0.37112 0.85775
 C1397 C 0.82650 0.37860 0.83064
 C1398 C 0.81008 0.35904 0.81305
 C1399 C 0.91524 0.43843 0.92315
 C1400 C 0.83252 0.32448 0.84969
 C1401 C 0.86352 0.39091 0.87545
 C1402 C 0.87902 0.40667 0.89053
 C1403 C 0.89810 0.42423 0.90826
 C1404 C 0.81296 0.33169 0.82230
 H1405 H 0.86382 0.33795 0.88805
 H1406 H 0.82413 0.39951 0.82296
 H1407 H 0.79532 0.36533 0.79205
 H1408 H 0.83534 0.30369 0.85764
 C1409 C 0.65523 0.15143 0.87578
 C1410 C 0.65726 0.12478 0.86382
 C1411 C 0.67579 0.11804 0.83538
 C1412 C 0.69185 0.13802 0.81843
 C1413 C 0.58618 0.05780 0.92457
 C1414 C 0.67119 0.17142 0.85888
 C1415 C 0.63926 0.10479 0.87977
 C1416 C 0.62328 0.08894 0.89340
 C1417 C 0.60365 0.07156 0.90987
 C1418 C 0.68945 0.16503 0.82968
 H1419 H 0.64090 0.15684 0.89776
 H1420 H 0.67746 0.09747 0.82587
 H1421 H 0.70565 0.13239 0.79600
 H1422 H 0.66883 0.19195 0.86831
 C1423 C 0.32449 0.61701 0.66654
 C1424 C 0.34268 0.62366 0.63771
 C1425 C 0.34444 0.65023 0.62545
 C1426 C 0.32855 0.67025 0.64243
 C1427 C 0.41395 0.55729 0.57609
 C1428 C 0.30848 0.63702 0.68358
 C1429 C 0.36068 0.60371 0.62164
 C1430 C 0.37670 0.58798 0.60781
 C1431 C 0.39641 0.57082 0.59106
 C1432 C 0.31063 0.66395 0.67202
 H1433 H 0.32306 0.59648 0.67629
 H1434 H 0.35852 0.65557 0.60317
 H1435 H 0.33068 0.69072 0.63274
 H1436 H 0.29495 0.63147 0.70631
 C1437 C 0.15385 0.34849 0.12482
 C1438 C 0.15586 0.37520 0.13649
 C1439 C 0.17442 0.38209 0.16486
 C1440 C 0.19056 0.36221 0.18197
 C1441 C 0.08510 0.44191 0.07415
 C1442 C 0.16988 0.32860 0.14187
 C1443 C 0.13789 0.39512 0.12019
 C1444 C 0.12198 0.41089 0.10619
 C1445 C 0.10245 0.42820 0.08924
 C1446 C 0.18821 0.33515 0.17095
 H1447 H 0.13950 0.34295 0.10290
 H1448 H 0.17608 0.40272 0.17415
 H1449 H 0.20441 0.36797 0.20430
 H1450 H 0.16755 0.30803 0.13261
 C1451 C 0.84458 0.84952 0.37452
 C1452 C 0.84273 0.87610 0.36233
 C1453 C 0.82441 0.88277 0.33362
 C1454 C 0.80837 0.86276 0.31663
 C1455 C 0.91400 0.94262 0.42377
 C1456 C 0.82865 0.82950 0.35758
 C1457 C 0.86075 0.89607 0.37835
 C1458 C 0.87678 0.91182 0.39212
 C1459 C 0.89648 0.92903 0.40883
 C1460 C 0.81060 0.83581 0.32811
 H1461 H 0.85875 0.84416 0.39671
 H1462 H 0.82290 0.90330 0.32393
 H1463 H 0.79474 0.86832 0.29399
 H1464 H 0.83085 0.80901 0.36720
 C1465 C 0.82618 0.62196 0.67035
 C1466 C 0.84506 0.62949 0.64264
 C1467 C 0.84758 0.65654 0.63285
 C1468 C 0.83148 0.67604 0.65069
 C1469 C 0.91400 0.56277 0.57605
 C1470 C 0.80995 0.64147 0.68828
 C1471 C 0.86253 0.60982 0.62466
 C1472 C 0.87796 0.59421 0.60930
 C1473 C 0.89696 0.57685 0.59124
 C1474 C 0.81249 0.66879 0.67872
 H1475 H 0.82414 0.60107 0.67826
 H1476 H 0.86217 0.66263 0.61153
 H1477 H 0.83400 0.69681 0.64251
 H1478 H 0.79563 0.63519 0.70977
 C1479 C 0.65243 0.34272 0.13240
 C1480 C 0.65517 0.36983 0.14184
 C1481 C 0.67431 0.37746 0.16923
 C1482 C 0.69059 0.35800 0.18716
 C1483 C 0.58617 0.43655 0.07534
 C1484 C 0.66858 0.32328 0.15024
 C1485 C 0.63768 0.38947 0.12384
 C1486 C 0.62223 0.40507 0.10848
 C1487 C 0.60322 0.42244 0.09046
 C1488 C 0.68784 0.33062 0.17794
 H1489 H 0.63764 0.33656 0.11132
 H1490 H 0.67653 0.39839 0.17688
 H1491 H 0.70512 0.36437 0.20839
 H1492 H 0.66589 0.30246 0.14231
 C1493 C 0.34822 0.84258 0.36670
 C1494 C 0.34521 0.86974 0.35765
 C1495 C 0.32586 0.87734 0.33050
 C1496 C 0.30964 0.85784 0.31247
 C1497 C 0.41364 0.93693 0.42484
 C1498 C 0.33211 0.82310 0.34876
 C1499 C 0.36257 0.88947 0.37585
 C1500 C 0.37787 0.90518 0.39137
 C1501 C 0.39671 0.92271 0.40958
 C1502 C 0.31262 0.83043 0.32134
 H1503 H 0.36316 0.83642 0.38757
 H1504 H 0.32341 0.89830 0.32313
 H1505 H 0.29492 0.86422 0.29147
 H1506 H 0.33500 0.80226 0.35642
 C1507 C 0.15145 0.15757 0.86698
 C1508 C 0.15457 0.13043 0.85784
 C1509 C 0.17395 0.12288 0.83072
 C1510 C 0.19010 0.14242 0.81277
 C1511 C 0.08615 0.06330 0.92455
 C1512 C 0.16748 0.17709 0.84912
 C1513 C 0.13725 0.11069 0.87591
 C1514 C 0.12196 0.09498 0.89131
 C1515 C 0.10310 0.07749 0.90939
 C1516 C 0.18699 0.16981 0.82172
 H1517 H 0.13648 0.16368 0.88784
 H1518 H 0.17646 0.10193 0.82330
 H1519 H 0.20484 0.13610 0.79178
 H1520 H 0.16451 0.19792 0.85683
 C1521 C 0.14619 0.84308 0.12978
 C1522 C 0.15184 0.87032 0.13556
 C1523 C 0.17336 0.87792 0.15968
 C1524 C 0.18919 0.85829 0.17795
 C1525 C 0.08490 0.93797 0.06745
 C1526 C 0.16191 0.82348 0.14795
 C1527 C 0.13502 0.89021 0.11704
 C1528 C 0.12008 0.90604 0.10131
 C1529 C 0.10158 0.92367 0.08289
 C1530 C 0.18362 0.83080 0.17232
 H1531 H 0.12954 0.83696 0.11125
 H1532 H 0.17787 0.89897 0.16443
 H1533 H 0.20574 0.86466 0.19644
 H1534 H 0.15699 0.80257 0.14285
 C1535 C 0.85398 0.34332 0.36972
 C1536 C 0.84841 0.37056 0.36385
 C1537 C 0.82694 0.37815 0.33965
 C1538 C 0.81110 0.35853 0.32139
 C1539 C 0.91540 0.43812 0.43201
 C1540 C 0.83824 0.32372 0.35157
 C1541 C 0.86524 0.39044 0.38235
 C1542 C 0.88019 0.40626 0.39808
 C1543 C 0.89871 0.42385 0.41652
 C1544 C 0.81660 0.33104 0.32712
 H1545 H 0.87059 0.33721 0.38831
 H1546 H 0.82250 0.39920 0.33483
 H1547 H 0.79459 0.36489 0.30284
 H1548 H 0.84310 0.30280 0.35674
 C1549 C 0.32676 0.12268 0.66053
 C1550 C 0.34836 0.13033 0.63658
 C1551 C 0.35398 0.15760 0.63105
 C1552 C 0.33817 0.17716 0.64924
 C1553 C 0.41518 0.06247 0.56820
 C1554 C 0.31084 0.14226 0.67883
 C1555 C 0.36522 0.11046 0.61795
 C1556 C 0.38013 0.09460 0.60215
 C1557 C 0.39857 0.07688 0.58367
 C1558 C 0.31637 0.16978 0.67340
 H1559 H 0.32225 0.10162 0.66511
 H1560 H 0.37068 0.16378 0.61266
 H1561 H 0.34307 0.19809 0.64430
 H1562 H 0.29423 0.13583 0.69715
 C1563 C 0.64714 0.65675 0.87174
 C1564 C 0.65233 0.62948 0.86548
 C1565 C 0.67361 0.62178 0.84106
 C1566 C 0.68961 0.64133 0.82292
 C1567 C 0.58475 0.56198 0.93280
 C1568 C 0.66304 0.67628 0.85371
 C1569 C 0.63526 0.60967 0.88377
 C1570 C 0.62015 0.59389 0.89930
 C1571 C 0.60150 0.57629 0.91749
 C1572 C 0.68447 0.66886 0.82899
 H1573 H 0.63069 0.66295 0.89051
 H1574 H 0.67776 0.60071 0.83593
 H1575 H 0.70594 0.63489 0.80415
 H1576 H 0.65845 0.69721 0.85915
 C1577 C 0.34315 0.35067 0.87490
 C1578 C 0.34180 0.37715 0.86219
 C1579 C 0.32379 0.38378 0.83312
 C1580 C 0.30759 0.36382 0.81626
 C1581 C 0.41379 0.44308 0.92331
 C1582 C 0.32708 0.33070 0.85810
 C1583 C 0.36004 0.39700 0.87803
 C1584 C 0.37626 0.41263 0.89171
 C1585 C 0.39616 0.42965 0.90836
 C1586 C 0.30937 0.33696 0.82825
 H1587 H 0.35708 0.34535 0.89737
 H1588 H 0.32267 0.40424 0.82302
 H1589 H 0.29424 0.36933 0.79331
 H1590 H 0.32892 0.31029 0.86811
 C1591 C 0.82459 0.11688 0.16699
 C1592 C 0.84288 0.12351 0.13825
 C1593 C 0.84469 0.15007 0.12598
 C1594 C 0.82876 0.17011 0.14286
 C1595 C 0.91413 0.05703 0.07681
 C1596 C 0.80855 0.13690 0.18392
 C1597 C 0.86089 0.10353 0.12227
 C1598 C 0.87691 0.08777 0.10851
 C1599 C 0.89661 0.07058 0.09179
 C1600 C 0.81074 0.16384 0.17235
 H1601 H 0.82311 0.09636 0.17675
 H1602 H 0.85884 0.15540 0.10377
 H1603 H 0.83093 0.19058 0.13316
 H1604 H 0.79494 0.13138 0.20659
 C1605 C 0.65444 0.84882 0.62777
 C1606 C 0.65638 0.87549 0.63968
 C1607 C 0.67501 0.88230 0.66802
 C1608 C 0.69128 0.86239 0.68486
 C1609 C 0.58527 0.94217 0.57801
 C1610 C 0.67060 0.82890 0.64455
 C1611 C 0.63829 0.89542 0.62364
 C1612 C 0.62228 0.91119 0.60982
 C1613 C 0.60267 0.92848 0.59303
 C1614 C 0.68899 0.83537 0.67361
 H1615 H 0.64005 0.84334 0.60587
 H1616 H 0.67662 0.90289 0.67750
 H1617 H 0.70516 0.86808 0.70718
 H1618 H 0.66832 0.80837 0.63511
 C1619 C 0.15534 0.65040 0.37401
 C1620 C 0.15713 0.62378 0.36189
 C1621 C 0.17539 0.61701 0.33316
 C1622 C 0.19144 0.63695 0.31609
 C1623 C 0.08599 0.55738 0.42364
 C1624 C 0.17129 0.67035 0.35699
 C1625 C 0.13912 0.60387 0.37802
 C1626 C 0.12313 0.58815 0.39188
 C1627 C 0.10347 0.57096 0.40866
 C1628 C 0.18928 0.66393 0.32752
 H1629 H 0.14122 0.65583 0.39620
 H1630 H 0.17685 0.59645 0.32352
 H1631 H 0.20503 0.63131 0.29344
 H1632 H 0.16913 0.69086 0.36658
   
