data_POSCAR
  _audit_creation_date              2014-09-24
  _audit_creation_method            'ToBaCCo'
  _symmetry_space_group_name_H-M    'P1'
  _symmetry_Int_Tables_number       1
  _symmetry_cell_setting            triclinic
  loop_
  _symmetry_equiv_pos_as_xyz
 x,y,z
_cell_length_a 59.7865
_cell_length_b 60.8415
_cell_length_c 60.9426
_cell_angle_alpha 94.256100
_cell_angle_beta 93.579000
_cell_angle_gamma 93.425100
loop_
  _atom_site_label
  _atom_site_type_symbol
  _atom_site_fract_x
  _atom_site_fract_y
  _atom_site_fract_z
C1 C 0.71984 0.66100 0.96937
 H2 H 0.73620 0.66028 0.96280
 C3 C 0.70349 0.67313 0.95928
 H4 H 0.70742 0.68175 0.94494
 C5 C 0.69442 0.64949 0.99520
 H6 H 0.69070 0.63985 1.00884
 C7 C 0.67762 0.66134 0.98563
 H8 H 0.66131 0.66107 0.99242
 N9 N 0.71504 0.64945 0.98696
 C10 C 0.77792 0.63508 1.02144
 H11 H 0.77404 0.61767 1.02291
 C12 C 0.79835 0.64503 1.03044
 H13 H 0.81022 0.63509 1.03866
 C14 C 0.76725 0.66889 1.00828
 H15 H 0.75500 0.67810 0.99972
 C16 C 0.78762 0.67954 1.01699
 H17 H 0.79087 0.69697 1.01513
 Zn18 Zn 0.73655 0.63079 0.99819
 N19 N 0.76301 0.64694 1.01033
 C20 C 0.76533 0.61093 0.96879
 N21 N 0.74368 0.61124 0.97439
 C22 C 0.72683 0.59930 0.96198
 C23 C 0.73149 0.58651 0.94296
 C24 C 0.77074 0.59828 0.95011
 C25 C 0.72164 0.62805 1.03992
 C26 C 0.71357 0.61850 1.05818
 C27 C 0.71272 0.58281 1.03792
 C28 C 0.72080 0.59319 1.01998
 N29 N 0.72484 0.61545 1.02125
 H30 H 0.77844 0.62098 0.97840
 H31 H 0.70969 0.60015 0.96658
 H32 H 0.71789 0.57724 0.93312
 H33 H 0.78802 0.59873 0.94568
 H34 H 0.72563 0.64569 1.04068
 H35 H 0.71254 0.62948 1.07278
 H36 H 0.70886 0.56520 1.03550
 H37 H 0.72373 0.58342 1.00500
 C38 C 0.80353 0.66751 1.02811
 C39 C 0.68193 0.67312 0.96723
 C40 C 0.70862 0.59537 1.05769
 C41 C 0.75371 0.58601 0.93680
 C42 C 0.73478 0.36343 0.50536
 H43 H 0.75156 0.36529 0.51329
 C44 C 0.71829 0.34991 0.51387
 H45 H 0.72265 0.34112 0.52818
 C46 C 0.70880 0.37288 0.47717
 H47 H 0.70502 0.38230 0.46322
 C48 C 0.69177 0.35958 0.48517
 H49 H 0.67501 0.35893 0.47722
 N50 N 0.72983 0.37450 0.48729
 C51 C 0.79457 0.38978 0.46114
 H52 H 0.79378 0.40743 0.46037
 C53 C 0.81316 0.37931 0.45382
 H54 H 0.82657 0.38902 0.44723
 C55 C 0.77753 0.35567 0.46998
 H56 H 0.76349 0.34648 0.47602
 C57 C 0.79581 0.34450 0.46280
 H58 H 0.79581 0.32680 0.46378
 Zn59 Zn 0.75280 0.39379 0.47811
 N60 N 0.77736 0.37795 0.46921
 C61 C 0.78315 0.41453 0.51200
 N62 N 0.76186 0.41401 0.50261
 C63 C 0.74600 0.42612 0.51187
 C64 C 0.75122 0.43920 0.53157
 C65 C 0.78908 0.42736 0.53166
 C66 C 0.73632 0.39546 0.43468
 C67 C 0.72872 0.40487 0.41564
 C68 C 0.73413 0.44085 0.43556
 C69 C 0.74160 0.43071 0.45427
 N70 N 0.74228 0.40836 0.45355
 H71 H 0.79534 0.40430 0.50479
 H72 H 0.72909 0.42511 0.50427
 H73 H 0.73830 0.44850 0.53885
 H74 H 0.80586 0.42680 0.53930
 H75 H 0.73748 0.37776 0.43447
 H76 H 0.72412 0.39430 0.40077
 H77 H 0.73329 0.45862 0.43652
 H78 H 0.74688 0.44070 0.46930
 C79 C 0.81396 0.35636 0.45462
 C80 C 0.69639 0.34796 0.50384
 C81 C 0.72742 0.42786 0.41595
 C82 C 0.77294 0.43966 0.54190
 C83 C 0.23418 -0.12825 0.00601
 H84 H 0.25073 -0.12561 0.01439
 C85 C 0.21791 -0.14215 0.01436
 H86 H 0.22219 -0.15043 0.02903
 C87 C 0.20856 -0.12041 -0.02320
 H88 H 0.20482 -0.11152 -0.03753
 C89 C 0.19178 -0.13417 -0.01542
 H90 H 0.17523 -0.13569 -0.02389
 N91 N 0.22930 -0.11777 -0.01246
 C92 C 0.29398 -0.10097 -0.03813
 H93 H 0.29294 -0.08335 -0.03892
 C94 C 0.31272 -0.11119 -0.04548
 H95 H 0.32622 -0.10124 -0.05163
 C96 C 0.27752 -0.13526 -0.02910
 H97 H 0.26358 -0.14465 -0.02313
 C98 C 0.29596 -0.14616 -0.03628
 H99 H 0.29597 -0.16391 -0.03575
 Zn100 Zn 0.25183 -0.09784 -0.02142
 N101 N 0.27695 -0.11302 -0.03000
 C102 C 0.28141 -0.07570 0.01240
 N103 N 0.26003 -0.07739 0.00312
 C104 C 0.24350 -0.06637 0.01256
 C105 C 0.24810 -0.05335 0.03239
 C106 C 0.28675 -0.06283 0.03215
 C107 C 0.23630 -0.09654 -0.06515
 C108 C 0.22867 -0.08742 -0.08434
 C109 C 0.23131 -0.05162 -0.06414
 C110 C 0.23893 -0.06153 -0.04534
 N111 N 0.24102 -0.08365 -0.04613
 H112 H 0.29419 -0.08505 0.00503
 H113 H 0.22655 -0.06830 0.00504
 H114 H 0.23465 -0.04500 0.03986
 H115 H 0.30367 -0.06245 0.03969
 H116 H 0.23871 -0.11405 -0.06544
 H117 H 0.22629 -0.09854 -0.09906
 H118 H 0.22890 -0.03417 -0.06203
 H119 H 0.24303 -0.05150 -0.03007
 C120 C 0.31385 -0.13411 -0.04465
 C121 C 0.19631 -0.14514 0.00370
 C122 C 0.22576 -0.06445 -0.08439
 C123 C 0.26991 -0.05174 0.04262
 C124 C 0.22152 0.15834 0.46951
 H125 H 0.23812 0.15768 0.46347
 C126 C 0.20546 0.17044 0.45895
 H127 H 0.20985 0.17912 0.44479
 C128 C 0.19520 0.14660 0.49442
 H129 H 0.19100 0.13687 0.50785
 C130 C 0.17869 0.15845 0.48439
 H131 H 0.16214 0.15810 0.49066
 N132 N 0.21614 0.14669 0.48687
 C133 C 0.27736 0.13239 0.52436
 H134 H 0.27321 0.11505 0.52594
 C135 C 0.29756 0.14230 0.53403
 H136 H 0.30896 0.13237 0.54290
 C137 C 0.26777 0.16601 0.51005
 H138 H 0.25608 0.17516 0.50069
 C139 C 0.28791 0.17660 0.51941
 H140 H 0.29152 0.19393 0.51726
 Zn141 Zn 0.23729 0.12800 0.49870
 N142 N 0.26314 0.14417 0.51231
 C143 C 0.26786 0.10878 0.47086
 N144 N 0.24578 0.10914 0.47497
 C145 C 0.22958 0.09795 0.46107
 C146 C 0.23538 0.08600 0.44197
 C147 C 0.27439 0.09691 0.45216
 C148 C 0.22019 0.12405 0.53940
 C149 C 0.21079 0.11392 0.55671
 C150 C 0.21086 0.07873 0.53554
 C151 C 0.22022 0.08962 0.51849
 N152 N 0.22442 0.11193 0.52066
 H153 H 0.28047 0.11822 0.48167
 H154 H 0.21211 0.09884 0.46452
 H155 H 0.22232 0.07739 0.43091
 H156 H 0.29201 0.09734 0.44894
 H157 H 0.22408 0.14172 0.54081
 H158 H 0.20763 0.12392 0.57151
 H159 H 0.20727 0.06102 0.53350
 H160 H 0.22405 0.08027 0.50356
 C161 C 0.30322 0.16462 0.53139
 C162 C 0.18361 0.17034 0.46621
 C163 C 0.20583 0.09099 0.55487
 C164 C 0.25807 0.08550 0.43731
 C165 C 0.16849 0.47499 0.22681
 H166 H 0.16764 0.46838 0.24276
 C167 C 0.18140 0.46507 0.21095
 H168 H 0.19081 0.45109 0.21498
 C169 C 0.15649 0.50068 0.20190
 H170 H 0.14617 0.51404 0.19809
 C171 C 0.16920 0.49134 0.18563
 H172 H 0.16849 0.49775 0.16951
 N173 N 0.15626 0.49237 0.22201
 C174 C 0.13793 0.52563 0.28359
 H175 H 0.12026 0.52669 0.27912
 C176 C 0.14688 0.53403 0.30439
 H177 H 0.13601 0.54187 0.31573
 C178 C 0.17345 0.51401 0.27407
 H179 H 0.18366 0.50603 0.26223
 C180 C 0.18314 0.52222 0.29478
 H181 H 0.20077 0.52029 0.29878
 Zn182 Zn 0.13601 0.50265 0.24258
 N183 N 0.15110 0.51542 0.26911
 C184 C 0.11832 0.47158 0.26992
 N185 N 0.11769 0.47771 0.24889
 C186 C 0.10636 0.46483 0.23209
 C187 C 0.09538 0.44470 0.23613
 C188 C 0.10766 0.45168 0.27467
 C189 C 0.13081 0.54407 0.22788
 C190 C 0.12020 0.56126 0.21858
 C191 C 0.08528 0.53877 0.21569
 C192 C 0.09664 0.52190 0.22505
 N193 N 0.11909 0.52474 0.23056
 H194 H 0.12777 0.48167 0.28303
 H195 H 0.10655 0.46982 0.21543
 H196 H 0.08700 0.43432 0.22251
 H197 H 0.10855 0.44706 0.29151
 H198 H 0.14858 0.54599 0.23274
 H199 H 0.12991 0.57649 0.21654
 H200 H 0.06753 0.53611 0.21087
 H201 H 0.08757 0.50651 0.22766
 C202 C 0.16968 0.53203 0.31039
 C203 C 0.18163 0.47310 0.18993
 C204 C 0.09720 0.55865 0.21207
 C205 C 0.09637 0.43773 0.25762
 C206 C -0.12858 0.00309 0.23785
 H207 H -0.12737 0.01183 0.25404
 C208 C -0.14231 0.01044 0.22093
 H209 H -0.15209 0.02437 0.22499
 C210 C -0.11762 -0.02620 0.21400
 H211 H -0.10749 -0.04012 0.21121
 C212 C -0.13115 -0.01944 0.19654
 H213 H -0.13060 -0.02836 0.18059
 N214 N -0.11662 -0.01493 0.23417
 C215 C -0.10207 -0.03767 0.29933
 H216 H -0.08398 -0.03788 0.29948
 C217 C -0.11326 -0.04438 0.31735
 H218 H -0.10360 -0.04950 0.33149
 C219 C -0.13655 -0.03058 0.28064
 H220 H -0.14561 -0.02561 0.26614
 C221 C -0.14842 -0.03715 0.29832
 H222 H -0.16656 -0.03715 0.29722
 Zn223 Zn -0.09717 -0.02236 0.25777
 N224 N -0.11377 -0.03073 0.28156
 C225 C -0.07802 0.01306 0.28720
 N226 N -0.07804 0.00313 0.26645
 C227 C -0.06621 0.01242 0.25077
 C228 C -0.05401 0.03269 0.25560
 C229 C -0.06599 0.03328 0.29275
 C230 C -0.09265 -0.06621 0.24358
 C231 C -0.08181 -0.08502 0.23696
 C232 C -0.04639 -0.06336 0.24191
 C233 C -0.05794 -0.04493 0.24846
 N234 N -0.08069 -0.04663 0.24888
 H235 H -0.08801 0.00580 0.29927
 H236 H -0.06683 0.00436 0.23429
 H237 H -0.04495 0.03999 0.24282
 H238 H -0.06687 0.04127 0.30912
 H239 H -0.11071 -0.06713 0.24432
 H240 H -0.09174 -0.10030 0.23225
 H241 H -0.02828 -0.06174 0.24168
 H242 H -0.04871 -0.02932 0.25323
 C243 C -0.13675 -0.04415 0.31700
 C244 C -0.14372 -0.00061 0.19961
 C245 C -0.05838 -0.08373 0.23593
 C246 C -0.05405 0.04353 0.27676
 C247 C 0.36412 0.50927 0.74018
 H248 H 0.36636 0.51786 0.75644
 C249 C 0.35071 0.51778 0.72368
 H250 H 0.34240 0.53280 0.72746
 C251 C 0.37261 0.47945 0.71548
 H252 H 0.38158 0.46480 0.71220
 C253 C 0.35930 0.48734 0.69851
 H254 H 0.35820 0.47864 0.68228
 N255 N 0.37476 0.49046 0.73584
 C256 C 0.38952 0.46202 0.79816
 H257 H 0.40731 0.46011 0.79717
 C258 C 0.37854 0.45449 0.81597
 H259 H 0.38805 0.44694 0.82878
 C260 C 0.35559 0.47435 0.78266
 H261 H 0.34664 0.48181 0.76950
 C262 C 0.34396 0.46717 0.80027
 H263 H 0.32609 0.46915 0.80045
 Zn264 Zn 0.39436 0.48130 0.75850
 N265 N 0.37801 0.47187 0.78206
 C266 C 0.41563 0.51351 0.79011
 N267 N 0.41415 0.50597 0.76846
 C268 C 0.42460 0.51734 0.75319
 C269 C 0.43645 0.53759 0.75938
 C270 C 0.42737 0.53357 0.79702
 C271 C 0.39775 0.43769 0.74298
 C272 C 0.40791 0.41896 0.73497
 C273 C 0.44336 0.44054 0.73711
 C274 C 0.43249 0.45889 0.74517
 N275 N 0.41003 0.45718 0.74768
 H276 H 0.40702 0.50447 0.80200
 H277 H 0.42283 0.51117 0.73601
 H278 H 0.44372 0.54691 0.74683
 H279 H 0.42800 0.53945 0.81428
 H280 H 0.37996 0.43675 0.74545
 H281 H 0.39781 0.40358 0.73150
 H282 H 0.46115 0.44230 0.73473
 H283 H 0.44197 0.47450 0.74926
 C284 C 0.35546 0.45707 0.81719
 C285 C 0.34834 0.50689 0.70245
 C286 C 0.43099 0.42025 0.73176
 C287 C 0.43742 0.54620 0.78149
 C288 C 0.66667 0.97576 0.72419
 H289 H 0.66645 0.96872 0.73997
 C290 C 0.67923 0.96651 0.70770
 H291 H 0.68902 0.95258 0.71107
 C292 C 0.65353 1.00202 0.70044
 H293 H 0.64295 1.01539 0.69741
 C294 C 0.66586 0.99331 0.68352
 H295 H 0.66461 1.00019 0.66764
 N296 N 0.65404 0.99309 0.72027
 C297 C 0.63806 1.02440 0.78343
 H298 H 0.62024 1.02542 0.77970
 C299 C 0.64777 1.03259 0.80400
 H300 H 0.63705 1.04061 0.81532
 C301 C 0.67316 1.01362 0.77208
 H302 H 0.68292 1.00604 0.75960
 C303 C 0.68366 1.02160 0.79252
 H304 H 0.70136 1.01928 0.79530
 Zn305 Zn 0.63459 1.00249 0.74193
 N306 N 0.65065 1.01471 0.76816
 C307 C 0.61875 0.97035 0.76908
 N308 N 0.61691 0.97714 0.74832
 C309 C 0.60462 0.96480 0.73175
 C310 C 0.59370 0.94464 0.73579
 C311 C 0.60822 0.95037 0.77380
 C312 C 0.62816 1.04451 0.72943
 C313 C 0.61676 1.06231 0.72242
 C314 C 0.58215 1.03935 0.71986
 C315 C 0.59426 1.02193 0.72710
 N316 N 0.61688 1.02479 0.73151
 H317 H 0.62896 0.98002 0.78196
 H318 H 0.60385 0.97031 0.71526
 H319 H 0.58442 0.93474 0.72234
 H320 H 0.61000 0.94528 0.79044
 H321 H 0.64612 1.04635 0.73322
 H322 H 0.62617 1.07775 0.72055
 H323 H 0.56415 1.03689 0.71645
 H324 H 0.58556 1.00623 0.72924
 C325 C 0.67093 1.03089 0.80927
 C326 C 0.67868 0.97511 0.68692
 C327 C 0.59345 1.05989 0.71752
 C328 C 0.59578 0.93706 0.75700
 C329 C 0.00294 0.23665 -0.13379
 H330 H 0.01150 0.25290 -0.13271
 C331 C 0.01084 0.21947 -0.14701
 H332 H 0.02533 0.22275 -0.15634
 C333 C -0.02626 0.21271 -0.12269
 H334 H -0.04040 0.21002 -0.11281
 C335 C -0.01892 0.19503 -0.13571
 H336 H -0.02753 0.17887 -0.13566
 N337 N -0.01533 0.23304 -0.12202
 C338 C -0.04093 0.29798 -0.10880
 H339 H -0.04134 0.29856 -0.09105
 C340 C -0.04809 0.31567 -0.12015
 H341 H -0.05420 0.32977 -0.11100
 C342 C -0.03301 0.27855 -0.14228
 H343 H -0.02733 0.26397 -0.15088
 C344 C -0.04007 0.29584 -0.15430
 H345 H -0.03936 0.29452 -0.17205
 Zn346 Zn -0.02358 0.25694 -0.10321
 N347 N -0.03325 0.28005 -0.11992
 C348 C 0.01134 0.28776 -0.08492
 N349 N 0.00237 0.26670 -0.08477
 C350 C 0.01307 0.25151 -0.07343
 C351 C 0.03391 0.25714 -0.06206
 C352 C 0.03205 0.29411 -0.07373
 C353 C -0.06767 0.24213 -0.09798
 C354 C -0.08622 0.23481 -0.08710
 C355 C -0.06343 0.23996 -0.05279
 C356 C -0.04534 0.24722 -0.06443
 N357 N -0.04766 0.24779 -0.08665
 H358 H 0.00289 0.29951 -0.09434
 H359 H 0.00579 0.23475 -0.07394
 H360 H 0.04257 0.24458 -0.05389
 H361 H 0.03898 0.31089 -0.07428
 H362 H -0.06906 0.24289 -0.11569
 H363 H -0.10113 0.22933 -0.09742
 H364 H -0.06067 0.24070 -0.03507
 H365 H -0.02944 0.25247 -0.05563
 C366 C -0.04759 0.31479 -0.14321
 C367 C -0.00002 0.19826 -0.14798
 C368 C -0.08456 0.23317 -0.06396
 C369 C 0.04387 0.27859 -0.06251
 C370 C 0.47277 0.22272 0.16382
 H371 H 0.46589 0.23867 0.16259
 C372 C 0.46252 0.20716 0.17639
 H373 H 0.44796 0.21139 0.18514
 C374 C 0.49966 0.19758 0.15331
 H375 H 0.51369 0.19357 0.14378
 C376 C 0.49003 0.18161 0.16572
 H377 H 0.49686 0.16552 0.16556
 N378 N 0.49097 0.21769 0.15255
 C379 C 0.52771 0.27811 0.13730
 H380 H 0.53027 0.27331 0.12024
 C381 C 0.53617 0.29874 0.14668
 H382 H 0.54557 0.30960 0.13680
 C383 C 0.51212 0.26969 0.17073
 H384 H 0.50256 0.25838 0.17995
 C385 C 0.52033 0.29025 0.18082
 H386 H 0.51680 0.29467 0.19773
 Zn387 Zn 0.50255 0.23813 0.13342
 N388 N 0.51547 0.26429 0.14917
 C389 C 0.47406 0.26703 0.11314
 N390 N 0.47827 0.24542 0.11437
 C391 C 0.46422 0.22904 0.10376
 C392 C 0.44489 0.23420 0.09151
 C393 C 0.45520 0.27290 0.10091
 C394 C 0.54479 0.22238 0.12940
 C395 C 0.56269 0.21330 0.11918
 C396 C 0.54087 0.21162 0.08430
 C397 C 0.52326 0.22071 0.09525
 N398 N 0.52547 0.22562 0.11746
 H399 H 0.48497 0.27986 0.12208
 H400 H 0.46774 0.21197 0.10530
 H401 H 0.43370 0.22102 0.08336
 H402 H 0.45195 0.29020 0.10058
 H403 H 0.54621 0.22681 0.14698
 H404 H 0.57793 0.21091 0.12904
 H405 H 0.53874 0.20741 0.06669
 H406 H 0.50786 0.22374 0.08604
 C407 C 0.53212 0.30526 0.16858
 C408 C 0.47107 0.18621 0.17732
 C409 C 0.56083 0.20761 0.09637
 C410 C 0.44021 0.25641 0.09006
 C411 C 0.96958 0.72093 0.66915
 H412 H 0.96321 0.73721 0.66925
 C413 C 0.95928 0.70479 0.68102
 H414 H 0.94523 0.70889 0.69057
 C415 C 0.99522 0.69563 0.65603
 H416 H 1.00876 0.69183 0.64576
 C417 C 0.98550 0.67906 0.66768
 H418 H 0.99179 0.66273 0.66622
 N419 N 0.98721 0.71612 0.65696
 C420 C 1.02473 0.77710 0.64452
 H421 H 1.02657 0.77327 0.62713
 C422 C 1.03411 0.79702 0.65485
 H423 H 1.04303 0.80849 0.64521
 C424 C 1.00988 0.76708 0.67780
 H425 H 1.00037 0.75537 0.68662
 C426 C 1.01891 0.78696 0.68880
 H427 H 1.01636 0.79034 0.70613
 Zn428 Zn 0.99888 0.73762 0.63898
 N429 N 1.01254 0.76279 0.65592
 C430 C 0.97019 0.76814 0.62182
 N431 N 0.97456 0.74642 0.62094
 C432 C 0.96083 0.73089 0.60867
 C433 C 0.94181 0.73705 0.59661
 C434 C 0.95157 0.77501 0.60993
 C435 C 1.04050 0.72115 0.63331
 C436 C 1.05824 0.71274 0.62228
 C437 C 1.03651 0.71449 0.58773
 C438 C 1.01905 0.72280 0.59949
 N439 N 1.02131 0.72574 0.62190
 H440 H 0.98084 0.78022 0.63209
 H441 H 0.96446 0.71367 0.60855
 H442 H 0.93099 0.72453 0.58694
 H443 H 0.94824 0.79234 0.61117
 H444 H 1.04199 0.72407 0.65108
 H445 H 1.07342 0.70933 0.63171
 H446 H 1.03442 0.71197 0.56993
 H447 H 1.00379 0.72692 0.59073
 C448 C 1.03098 0.80234 0.67721
 C449 C 0.96716 0.68346 0.68025
 C450 C 1.05635 0.70919 0.59920
 C451 C 0.93705 0.75940 0.59717
 C452 C 0.50709 0.73887 0.36214
 H453 H 0.51572 0.75510 0.36338
 C454 C 0.51551 0.72153 0.34954
 H455 H 0.53047 0.72465 0.34083
 C456 C 0.47724 0.71512 0.37227
 H457 H 0.46265 0.71255 0.38158
 C458 C 0.48507 0.69730 0.35985
 H459 H 0.47637 0.68117 0.35976
 N460 N 0.48825 0.73542 0.37311
 C461 C 0.46152 0.80002 0.38471
 H462 H 0.45994 0.80037 0.40232
 C463 C 0.45481 0.81770 0.37312
 H464 H 0.44751 0.83106 0.38227
 C465 C 0.47165 0.78106 0.35190
 H466 H 0.47816 0.76672 0.34366
 C467 C 0.46507 0.79833 0.33958
 H468 H 0.46759 0.79694 0.32214
 Zn469 Zn 0.47912 0.75937 0.39128
 N470 N 0.47009 0.78235 0.37408
 C471 C 0.51294 0.79056 0.41082
 N472 N 0.50423 0.76939 0.41071
 C473 C 0.51476 0.75435 0.42241
 C474 C 0.53526 0.76024 0.43432
 C475 C 0.53329 0.79716 0.42256
 C476 C 0.43468 0.74472 0.39439
 C477 C 0.41562 0.73704 0.40428
 C478 C 0.43697 0.74118 0.43951
 C479 C 0.45566 0.74883 0.42892
 N480 N 0.45426 0.75007 0.40669
 H481 H 0.50464 0.80220 0.40114
 H482 H 0.50769 0.73750 0.42168
 H483 H 0.54386 0.74779 0.44273
 H484 H 0.54008 0.81402 0.42215
 H485 H 0.43400 0.74617 0.37678
 H486 H 0.40022 0.73279 0.39415
 H487 H 0.43856 0.73964 0.45711
 H488 H 0.47132 0.75346 0.43841
 C489 C 0.45661 0.81730 0.35008
 C490 C 0.50454 0.70036 0.34838
 C491 C 0.41667 0.73492 0.42710
 C492 C 0.54504 0.78179 0.43405
 C493 C 0.37732 -0.02245 0.25919
 C494 C 0.36004 -0.02675 0.23938
 C495 C 0.34796 -0.00910 0.23503
 C496 C 0.35429 0.01145 0.25096
 C497 C 0.39172 -0.00213 0.25347
 C498 C 0.37975 0.01569 0.24927
 C499 C 0.36390 -0.01405 0.27824
 C500 C 0.35194 0.00367 0.27417
 H501 H 0.35942 -0.04138 0.22807
 H502 H 0.34434 0.02576 0.24746
 H503 H 0.40974 -0.00203 0.25247
 H504 H 0.36385 -0.02175 0.29371
 C505 C 0.09069 1.03951 0.75256
 C506 C 0.10230 1.04595 0.73209
 C507 C 0.11642 1.03102 0.72414
 C508 C 0.11734 1.01040 0.73731
 C509 C 0.07880 1.01666 0.74545
 C510 C 0.09275 1.00131 0.73769
 C511 C 0.10981 1.03458 0.76904
 C512 C 0.12370 1.01936 0.76127
 H513 H 0.09913 1.06100 0.72431
 H514 H 0.12904 0.99833 0.73102
 H515 H 0.06105 1.01276 0.74619
 H516 H 0.11091 1.04121 0.78610
 C517 C 0.59628 0.53961 0.25339
 C518 C 0.60887 0.54656 0.23369
 C519 C 0.62266 0.53144 0.22555
 C520 C 0.62243 0.51020 0.23779
 C521 C 0.58387 0.51731 0.24507
 C522 C 0.59753 0.50179 0.23710
 C523 C 0.61459 0.53341 0.27013
 C524 C 0.62825 0.51806 0.26214
 H525 H 0.60657 0.56209 0.22650
 H526 H 0.63395 0.49803 0.23135
 H527 H 0.56601 0.51382 0.24539
 H528 H 0.61535 0.53936 0.28738
 C529 C 0.87280 0.47593 0.76466
 C530 C 0.85862 0.47067 0.74284
 C531 C 0.84625 0.48748 0.73649
 C532 C 0.84925 0.50829 0.75261
 C533 C 0.88703 0.49705 0.76079
 C534 C 0.87480 0.51401 0.75437
 C535 C 0.85616 0.48342 0.78123
 C536 C 0.84372 0.50018 0.77511
 H537 H 0.85972 0.45557 0.73248
 H538 H 0.83892 0.52179 0.74745
 H539 H 0.90515 0.49811 0.76152
 H540 H 0.85490 0.47630 0.79692
 C541 C 0.26738 0.37856 -0.01900
 C542 C 0.24698 0.36224 -0.02480
 C543 C 0.24073 0.35029 -0.00793
 C544 C 0.25560 0.35571 0.01352
 C545 C 0.26068 0.39275 0.00127
 C546 C 0.25460 0.38082 0.01831
 C547 C 0.28570 0.36461 -0.00985
 C548 C 0.27975 0.35270 0.00712
 H549 H 0.23721 0.36164 -0.04044
 H550 H 0.25057 0.34585 0.02722
 H551 H 0.26053 0.41051 0.00232
 H552 H 0.30212 0.36430 -0.01640
 C553 C 0.75844 0.08812 1.04257
 C554 C 0.73760 0.09995 1.04878
 C555 C 0.73014 0.11382 1.03384
 C556 C 0.74441 0.11476 1.01375
 C557 C 0.75167 0.07660 1.01949
 C558 C 0.74442 0.09057 1.00441
 C559 C 0.77577 0.10661 1.03827
 C560 C 0.76873 0.12041 1.02305
 H561 H 0.72922 0.09713 1.06367
 H562 H 0.73819 0.12601 1.00156
 H563 H 0.75294 0.05926 1.01500
 H564 H 0.79268 0.10781 1.04594
 C565 C 0.25614 0.59900 0.54325
 C566 C 0.23733 0.61341 0.55022
 C567 C 0.23008 0.62688 0.53482
 C568 C 0.24240 0.62473 0.51346
 C569 C 0.24665 0.58653 0.52134
 C570 C 0.23959 0.60003 0.50572
 C571 C 0.27450 0.61522 0.53630
 C572 C 0.26751 0.62861 0.52067
 H573 H 0.22951 0.61203 0.56568
 H574 H 0.23639 0.63576 0.50095
 H575 H 0.24697 0.56894 0.51761
 H576 H 0.29178 0.61544 0.54283
 C577 C 0.76878 0.88108 0.47915
 C578 C 0.74843 0.86473 0.47317
 C579 C 0.74171 0.85314 0.49012
 C580 C 0.75610 0.85892 0.51182
 C581 C 0.76158 0.89565 0.49894
 C582 C 0.75505 0.88408 0.51607
 C583 C 0.78683 0.86726 0.48903
 C584 C 0.78042 0.85572 0.50608
 H585 H 0.73897 0.86393 0.45735
 H586 H 0.75069 0.84935 0.52557
 H587 H 0.76123 0.91339 0.49950
 H588 H 0.80343 0.86678 0.48289
 C589 C -0.01926 0.26974 0.37175
 C590 C -0.02497 0.24778 0.35793
 C591 C -0.00792 0.24049 0.34609
 C592 C 0.01357 0.25589 0.34922
 C593 C 0.00191 0.26533 0.38605
 C594 C 0.01909 0.25791 0.37435
 C595 C -0.01101 0.28573 0.35540
 C596 C 0.00604 0.27868 0.34352
 H597 H -0.04054 0.23798 0.35897
 H598 H 0.02727 0.24997 0.33931
 H599 H 0.00275 0.26630 0.40384
 H600 H -0.01772 0.30176 0.35403
 C601 C 1.04037 0.75238 0.09438
 C602 C 1.04686 0.73124 0.10463
 C603 C 1.03175 0.72306 0.11821
 C604 C 1.01116 0.73686 0.12036
 C605 C 1.01687 0.74630 0.08294
 C606 C 1.00152 0.73788 0.09635
 C607 C 1.03595 0.76841 0.11394
 C608 C 1.02083 0.76051 0.12762
 H609 H 1.06232 0.72353 0.10139
 H610 H 0.99920 0.73011 0.13168
 H611 H 1.01237 0.74906 0.06603
 H612 H 1.04320 0.78525 0.11586
 C613 C 0.53900 0.25238 0.59855
 C614 C 0.54643 0.23326 0.61164
 C615 C 0.53128 0.22594 0.62561
 C616 C 0.50969 0.23846 0.62521
 C617 C 0.51617 0.24381 0.58693
 C618 C 0.50074 0.23624 0.60074
 C619 C 0.53289 0.27006 0.61594
 C620 C 0.51773 0.26299 0.62998
 H621 H 0.56208 0.22560 0.60924
 H622 H 0.49786 0.23262 0.63710
 H623 H 0.51198 0.24488 0.56962
 H624 H 0.53917 0.28716 0.61618
 C625 C 0.47840 0.77338 0.87422
 C626 C 0.47195 0.75145 0.86057
 C627 C 0.48866 0.74354 0.84864
 C628 C 0.51058 0.75832 0.85150
 C629 C 0.49948 0.76845 0.88841
 C630 C 0.51631 0.76044 0.87660
 C631 C 0.48701 0.78897 0.85768
 C632 C 0.50368 0.78127 0.84567
 H633 H 0.45609 0.74216 0.86170
 H634 H 0.52398 0.75186 0.84152
 H635 H 0.50053 0.76964 0.90620
 H636 H 0.48073 0.80517 0.85617
 C637 C 0.43635 -0.12903 0.31420
 C638 C 0.44301 -0.12559 0.33661
 C639 C 0.44980 -0.14315 0.34839
 C640 C 0.45008 -0.16472 0.33798
 C641 C 0.44354 -0.16774 0.31516
 C642 C 0.43672 -0.15009 0.30348
 C643 C 0.42824 -0.11110 0.30251
 C644 C 0.42090 -0.09601 0.29319
 C645 C 0.41138 -0.07798 0.28271
 C646 C 0.42113 -0.05651 0.28704
 C647 C 0.41060 -0.03871 0.27865
 C648 C 0.39029 -0.04212 0.26544
 C649 C 0.38068 -0.06390 0.26126
 C650 C 0.39126 -0.08164 0.26965
 H651 H 0.44289 -0.10929 0.34506
 H652 H 0.45548 -0.13939 0.36551
 H653 H 0.44256 -0.18385 0.30628
 H654 H 0.43132 -0.15298 0.28615
 H655 H 0.43649 -0.05344 0.29751
 H656 H 0.41796 -0.02220 0.28322
 H657 H 0.36450 -0.06729 0.25232
 H658 H 0.38331 -0.09816 0.26658
 C659 C 0.93030 0.36898 0.82145
 C660 C 0.94337 0.37306 0.84136
 C661 C 0.95070 0.35544 0.85278
 C662 C 0.94503 0.33349 0.84442
 C663 C 0.93208 0.32958 0.82427
 C664 C 0.92474 0.34723 0.81289
 C665 C 0.92192 0.38711 0.81023
 C666 C 0.91447 0.40228 0.80113
 C667 C 0.90497 0.42035 0.79069
 C668 C 0.91688 0.44093 0.79161
 C669 C 0.90700 0.45886 0.78273
 C670 C 0.88508 0.45639 0.77248
 C671 C 0.87331 0.43554 0.77181
 C672 C 0.88322 0.41768 0.78068
 H673 H 0.94776 0.38984 0.84813
 H674 H 0.96091 0.35898 0.86808
 H675 H 0.92721 0.31289 0.81755
 H676 H 0.91451 0.34390 0.79756
 H677 H 0.93361 0.44326 0.79970
 H678 H 0.91639 0.47467 0.78475
 H679 H 0.85614 0.43318 0.76485
 H680 H 0.87370 0.40190 0.78018
 C681 C 0.02581 1.14371 0.81472
 C682 C 0.04051 1.15970 0.82659
 C683 C 0.03210 1.17746 0.83861
 C684 C 0.00880 1.17951 0.83892
 C685 C -0.00588 1.16336 0.82689
 C686 C 0.00259 1.14557 0.81485
 C687 C 0.03479 1.12535 0.80271
 C688 C 0.04315 1.11026 0.79302
 C689 C 0.05418 1.09265 0.78194
 C690 C 0.07663 1.09611 0.77726
 C691 C 0.08791 1.07891 0.76750
 C692 C 0.07697 1.05785 0.76210
 C693 C 0.05422 1.05460 0.76678
 C694 C 0.04296 1.07192 0.77660
 H695 H 0.05850 1.15837 0.82668
 H696 H 0.04384 1.18938 0.84798
 H697 H -0.02389 1.16459 0.82662
 H698 H -0.00894 1.13329 0.80570
 H699 H 0.08555 1.11205 0.78145
 H700 H 0.10543 1.08195 0.76441
 H701 H 0.04500 1.03883 0.76342
 H702 H 0.02560 1.06903 0.78032
 C703 C 0.53143 0.64529 0.31297
 C704 C 0.50822 0.64739 0.31199
 C705 C 0.49941 0.66537 0.32340
 C706 C 0.51376 0.68146 0.33590
 C707 C 0.53707 0.67919 0.33668
 C708 C 0.54582 0.66124 0.32530
 C709 C 0.54069 0.62671 0.30164
 C710 C 0.54920 0.61139 0.29253
 C711 C 0.56031 0.59347 0.28211
 C712 C 0.54833 0.57357 0.27469
 C713 C 0.55947 0.55601 0.26521
 C714 C 0.58286 0.55813 0.26303
 C715 C 0.59456 0.57838 0.27049
 C716 C 0.58341 0.59584 0.27992
 H717 H 0.49694 0.63515 0.30246
 H718 H 0.48142 0.66679 0.32230
 H719 H 0.54853 0.69108 0.34644
 H720 H 0.56381 0.65971 0.32623
 H721 H 0.53041 0.57158 0.27638
 H722 H 0.54953 0.54098 0.25989
 H723 H 0.61253 0.58061 0.26915
 H724 H 0.59288 0.61114 0.28568
 C725 C 0.55335 0.37103 0.19559
 C726 C 0.54405 0.36737 0.17391
 C727 C 0.53710 0.34601 0.16523
 C728 C 0.53939 0.32791 0.17812
 C729 C 0.54858 0.33173 0.19999
 C730 C 0.55557 0.35318 0.20866
 C731 C 0.56086 0.39311 0.20409
 C732 C 0.56717 0.41181 0.21049
 C733 C 0.57481 0.43428 0.21742
 C734 C 0.59313 0.44417 0.20786
 C735 C 0.60042 0.46610 0.21418
 C736 C 0.58944 0.47857 0.23010
 C737 C 0.57105 0.46839 0.23970
 C738 C 0.56378 0.44642 0.23336
 H739 H 0.54219 0.38106 0.16368
 H740 H 0.52971 0.34368 0.14848
 H741 H 0.55069 0.31811 0.21024
 H742 H 0.56282 0.35583 0.22545
 H743 H 0.60176 0.43494 0.19544
 H744 H 0.61451 0.47322 0.20634
 H745 H 0.56247 0.47720 0.25241
 H746 H 0.54960 0.43891 0.24092
 C747 C 0.05335 0.86771 0.70439
 C748 C 0.03273 0.85813 0.70977
 C749 C 0.02578 0.83654 0.70160
 C750 C 0.03935 0.82430 0.68784
 C751 C 0.06034 0.83386 0.68307
 C752 C 0.06726 0.85541 0.69128
 C753 C 0.05980 0.89048 0.71127
 C754 C 0.06532 0.90966 0.71638
 C755 C 0.07210 0.93263 0.72184
 C756 C 0.06138 0.94503 0.73783
 C757 C 0.06793 0.96739 0.74288
 C758 C 0.08528 0.97771 0.73192
 C759 C 0.09594 0.96502 0.71592
 C760 C 0.08937 0.94269 0.71090
 H761 H 0.02178 0.86753 0.71983
 H762 H 0.00942 0.82974 0.70533
 H763 H 0.07127 0.82476 0.67275
 H764 H 0.08326 0.86264 0.68703
 H765 H 0.04803 0.93741 0.74647
 H766 H 0.05967 0.97644 0.75567
 H767 H 0.10921 0.97227 0.70707
 H768 H 0.09776 0.93327 0.69844
 C769 C 0.93427 0.62964 0.71024
 C770 C 0.92153 0.64523 0.70032
 C771 C 0.93221 0.66309 0.69108
 C772 C 0.95580 0.66553 0.69158
 C773 C 0.96844 0.65002 0.70202
 C774 C 0.95774 0.63221 0.71126
 C775 C 0.92340 0.61049 0.71855
 C776 C 0.91467 0.59410 0.72517
 C777 C 0.90468 0.57414 0.73274
 C778 C 0.88432 0.57431 0.74288
 C779 C 0.87464 0.55479 0.74998
 C780 C 0.88524 0.53484 0.74715
 C781 C 0.90567 0.53487 0.73680
 C782 C 0.91529 0.55437 0.72970
 H783 H 0.90335 0.64335 0.69933
 H784 H 0.92201 0.67458 0.68291
 H785 H 0.98662 0.65159 0.70291
 H786 H 0.96777 0.62026 0.71891
 H787 H 0.87591 0.58950 0.74526
 H788 H 0.85899 0.55545 0.75784
 H789 H 0.91404 0.51977 0.73373
 H790 H 0.93095 0.55399 0.72168
 C791 C 0.43842 0.13302 0.20836
 C792 C 0.46183 0.13650 0.21053
 C793 C 0.47241 0.15422 0.20105
 C794 C 0.45972 0.16872 0.18922
 C795 C 0.43615 0.16548 0.18769
 C796 C 0.42558 0.14770 0.19716
 C797 C 0.42778 0.11367 0.21651
 C798 C 0.41922 0.09704 0.22283
 C799 C 0.40942 0.07673 0.22983
 C800 C 0.41827 0.05669 0.22329
 C801 C 0.40873 0.03684 0.22970
 C802 C 0.39015 0.03676 0.24277
 C803 C 0.38137 0.05699 0.24932
 C804 C 0.39097 0.07685 0.24289
 H805 H 0.47194 0.12524 0.21916
 H806 H 0.49056 0.15644 0.20275
 H807 H 0.42592 0.17618 0.17847
 H808 H 0.40746 0.14510 0.19527
 H809 H 0.43248 0.05639 0.21310
 H810 H 0.41565 0.02155 0.22407
 H811 H 0.36729 0.05750 0.25964
 H812 H 0.38401 0.09228 0.24809
 C813 C 0.32129 0.43387 -0.12819
 C814 C 0.31672 0.45435 -0.13591
 C815 C 0.32771 0.46189 -0.15379
 C816 C 0.34348 0.44904 -0.16407
 C817 C 0.34786 0.42846 -0.15624
 C818 C 0.33681 0.42094 -0.13844
 C819 C 0.31031 0.42602 -0.10966
 C820 C 0.30160 0.41880 -0.09416
 C821 C 0.29180 0.40937 -0.07576
 C822 C 0.28785 0.42270 -0.05687
 C823 C 0.27955 0.41321 -0.03852
 C824 C 0.27498 0.39015 -0.03888
 C825 C 0.27900 0.37703 -0.05811
 C826 C 0.28724 0.38655 -0.07636
 H827 H 0.30477 0.46451 -0.12805
 H828 H 0.32419 0.47790 -0.15935
 H829 H 0.35967 0.41809 -0.16402
 H830 H 0.34039 0.40502 -0.13265
 H831 H 0.29158 0.44039 -0.05616
 H832 H 0.27743 0.42409 -0.02414
 H833 H 0.27608 0.35924 -0.05885
 H834 H 0.29044 0.37603 -0.09082
 C835 C 0.82772 0.93439 0.37155
 C836 C 0.84591 0.92303 0.36436
 C837 C 0.85748 0.93003 0.34666
 C838 C 0.85098 0.94852 0.33587
 C839 C 0.83267 0.95986 0.34323
 C840 C 0.82112 0.95283 0.36098
 C841 C 0.81586 0.92687 0.38969
 C842 C 0.80635 0.91995 0.40487
 C843 C 0.79557 0.91091 0.42294
 C844 C 0.78997 0.88824 0.42215
 C845 C 0.78089 0.87903 0.44018
 C846 C 0.77702 0.89234 0.45935
 C847 C 0.78267 0.91524 0.45988
 C848 C 0.79180 0.92441 0.44176
 H849 H 0.85110 0.90868 0.37239
 H850 H 0.87129 0.92077 0.34120
 H851 H 0.82745 0.97431 0.33542
 H852 H 0.80708 0.96177 0.36646
 H853 H 0.79305 0.87758 0.40776
 H854 H 0.77726 0.86132 0.43935
 H855 H 0.78085 0.92619 0.47431
 H856 H 0.79636 0.94198 0.44263
 C857 C 0.81822 0.02343 1.14612
 C858 C 0.82284 0.00117 1.14549
 C859 C 0.83517 -0.00687 1.16312
 C860 C 0.84319 0.00725 1.18185
 C861 C 0.83807 0.02969 1.18211
 C862 C 0.82578 0.03760 1.16448
 C863 C 0.80631 0.03213 1.12779
 C864 C 0.79677 0.04039 1.11277
 C865 C 0.78597 0.05143 1.09534
 C866 C 0.78045 0.04040 1.07456
 C867 C 0.77114 0.05172 1.05738
 C868 C 0.76723 0.07434 1.06078
 C869 C 0.77264 0.08505 1.08193
 C870 C 0.78188 0.07371 1.09900
 H871 H 0.81692 -0.00999 1.13137
 H872 H 0.83768 -0.02435 1.16212
 H873 H 0.84437 0.04168 1.19536
 H874 H 0.82250 0.05496 1.16502
 H875 H 0.78367 0.02314 1.07154
 H876 H 0.76754 0.04261 1.04158
 H877 H 0.77002 0.10243 1.08512
 H878 H 0.78619 0.08246 1.11499
 C879 C 0.31222 0.53456 0.64904
 C880 C 0.32586 0.54825 0.66453
 C881 C 0.33735 0.53927 0.68204
 C882 C 0.33539 0.51640 0.68429
 C883 C 0.32149 0.50276 0.66873
 C884 C 0.30995 0.51180 0.65122
 C885 C 0.30108 0.54397 0.63070
 C886 C 0.29226 0.55251 0.61548
 C887 C 0.28238 0.56355 0.59756
 C888 C 0.28237 0.58656 0.59930
 C889 C 0.27365 0.59756 0.58173
 C890 C 0.26477 0.58580 0.56199
 C891 C 0.26457 0.56253 0.56056
 C892 C 0.27337 0.55154 0.57823
 H893 H 0.32783 0.56587 0.66293
 H894 H 0.34820 0.55015 0.69353
 H895 H 0.31949 0.48512 0.67015
 H896 H 0.29941 0.50106 0.63932
 H897 H 0.28930 0.59604 0.61418
 H898 H 0.27399 0.61543 0.58346
 H899 H 0.25784 0.55256 0.54602
 H900 H 0.27330 0.53368 0.57675
 C901 C 0.19596 0.55423 0.37613
 C902 C 0.20884 0.55788 0.35816
 C903 C 0.20044 0.55054 0.33674
 C904 C 0.17900 0.53954 0.33305
 C905 C 0.16632 0.53579 0.35127
 C906 C 0.17474 0.54310 0.37262
 C907 C 0.20423 0.56205 0.39818
 C908 C 0.21071 0.56855 0.41680
 C909 C 0.21808 0.57633 0.43912
 C910 C 0.23061 0.59653 0.44340
 C911 C 0.23754 0.60423 0.46508
 C912 C 0.23201 0.59183 0.48279
 C913 C 0.21944 0.57152 0.47833
 C914 C 0.21251 0.56385 0.45662
 H915 H 0.22529 0.56650 0.36069
 H916 H 0.21052 0.55381 0.32304
 H917 H 0.14994 0.52703 0.34904
 H918 H 0.16467 0.54010 0.38640
 H919 H 0.23506 0.60630 0.42998
 H920 H 0.24759 0.61970 0.46789
 H921 H 0.21475 0.56171 0.49163
 H922 H 0.20274 0.54822 0.45350
 C923 C 0.70004 0.05131 0.87365
 C924 C 0.67709 0.04553 0.87032
 C925 C 0.66755 0.03889 0.84923
 C926 C 0.68078 0.03786 0.83073
 C927 C 0.70407 0.04372 0.83450
 C928 C 0.71353 0.05040 0.85572
 C929 C 0.70951 0.05804 0.89557
 C930 C 0.71666 0.06354 0.91423
 C931 C 0.72442 0.07000 0.93674
 C932 C 0.71973 0.05599 0.95331
 C933 C 0.72638 0.06256 0.97533
 C934 C 0.73778 0.08328 0.98105
 C935 C 0.74262 0.09715 0.96427
 C936 C 0.73596 0.09055 0.94225
 H937 H 0.66652 0.04595 0.88414
 H938 H 0.64988 0.03368 0.84787
 H939 H 0.71508 0.04402 0.82111
 H940 H 0.73136 0.05497 0.85811
 H941 H 0.71069 0.04010 0.94923
 H942 H 0.72219 0.05162 0.98790
 H943 H 0.75175 0.11302 0.96810
 H944 H 0.73968 0.10151 0.92955
 C945 C 0.70950 0.94408 0.63179
 C946 C 0.69930 0.93118 0.64692
 C947 C 0.68978 0.94127 0.66515
 C948 C 0.69027 0.96444 0.66847
 C949 C 0.70095 0.97726 0.65339
 C950 C 0.71048 0.96713 0.63517
 C951 C 0.71811 0.93369 0.61235
 C952 C 0.72493 0.92504 0.59583
 C953 C 0.73268 0.91482 0.57587
 C954 C 0.74504 0.89602 0.57650
 C955 C 0.75232 0.88602 0.55703
 C956 C 0.74733 0.89473 0.53668
 C957 C 0.73488 0.91361 0.53622
 C958 C 0.72761 0.92357 0.55569
 H959 H 0.69834 0.91332 0.64440
 H960 H 0.68140 0.93093 0.67625
 H961 H 0.70183 0.99512 0.65562
 H962 H 0.71834 0.97729 0.62357
 H963 H 0.74908 0.88912 0.59204
 H964 H 0.76213 0.87169 0.55796
 H965 H 0.73044 0.92050 0.52078
 H966 H 0.71794 0.93804 0.55499
 C967 C 0.21266 0.44038 0.13588
 C968 C 0.20203 0.42796 0.15113
 C969 C 0.19257 0.43858 0.16914
 C970 C 0.19356 0.46180 0.17208
 C971 C 0.20482 0.47411 0.15697
 C972 C 0.21427 0.46346 0.13900
 C973 C 0.22079 0.42958 0.11639
 C974 C 0.22710 0.42082 0.09968
 C975 C 0.23414 0.41073 0.07934
 C976 C 0.24651 0.39190 0.07930
 C977 C 0.25313 0.38212 0.05942
 C978 C 0.24749 0.39111 0.03935
 C979 C 0.23501 0.41000 0.03958
 C980 C 0.22839 0.41971 0.05943
 H981 H 0.20057 0.41009 0.14882
 H982 H 0.18376 0.42864 0.18029
 H983 H 0.20609 0.49198 0.15892
 H984 H 0.22246 0.47324 0.12730
 H985 H 0.25107 0.38480 0.09461
 H986 H 0.26298 0.36777 0.05981
 H987 H 0.23007 0.41710 0.02438
 H988 H 0.21871 0.43420 0.05925
 C989 C -0.12962 0.32403 0.43012
 C990 C -0.12628 0.34423 0.44277
 C991 C -0.14459 0.35461 0.45099
 C992 C -0.16653 0.34491 0.44661
 C993 C -0.16969 0.32445 0.43408
 C994 C -0.15134 0.31410 0.42587
 C995 C -0.11082 0.31387 0.42097
 C996 C -0.09504 0.30564 0.41305
 C997 C -0.07623 0.29611 0.40325
 C998 C -0.07858 0.28677 0.38152
 C999 C -0.06018 0.27817 0.37169
 C1000 C -0.03912 0.27838 0.38351
 C1001 C -0.03689 0.28824 0.40530
 C1002 C -0.05536 0.29688 0.41510
 H1003 H -0.10953 0.35206 0.44615
 H1004 H -0.14158 0.37019 0.46084
 H1005 H -0.18639 0.31671 0.43019
 H1006 H -0.15412 0.29851 0.41599
 H1007 H -0.09459 0.28639 0.37208
 H1008 H -0.06236 0.27149 0.35466
 H1009 H -0.02093 0.28997 0.41476
 H1010 H -0.05327 0.30447 0.43181
 C1011 C 0.37008 0.83300 0.93109
 C1012 C 0.36118 0.85007 0.91986
 C1013 C 0.34295 0.86081 0.92779
 C1014 C 0.33336 0.85459 0.94709
 C1015 C 0.34245 0.83741 0.95829
 C1016 C 0.36071 0.82669 0.95032
 C1017 C 0.38869 0.82190 0.92264
 C1018 C 0.40419 0.81281 0.91511
 C1019 C 0.42256 0.80224 0.90554
 C1020 C 0.42000 0.79300 0.88379
 C1021 C 0.43801 0.78351 0.87406
 C1022 C 0.45889 0.78275 0.88601
 C1023 C 0.46131 0.79242 0.90788
 C1024 C 0.44322 0.80194 0.91756
 H1025 H 0.36824 0.85501 0.90490
 H1026 H 0.33614 0.87373 0.91861
 H1027 H 0.33560 0.83242 0.97332
 H1028 H 0.36750 0.81350 0.95915
 H1029 H 0.40416 0.79341 0.87421
 H1030 H 0.43572 0.77696 0.85700
 H1031 H 0.47717 0.79334 0.91748
 H1032 H 0.44548 0.80941 0.93432
 C1033 C 1.14397 0.81558 0.03043
 C1034 C 1.14593 0.81455 0.00762
 C1035 C 1.16305 0.82719 -0.00112
 C1036 C 1.17843 0.84099 0.01288
 C1037 C 1.17635 0.84179 0.03579
 C1038 C 1.15923 0.82918 0.04448
 C1039 C 1.12613 0.80306 0.03958
 C1040 C 1.11131 0.79300 0.04788
 C1041 C 1.09385 0.78160 0.05865
 C1042 C 1.07317 0.77508 0.04732
 C1043 C 1.05580 0.76519 0.05831
 C1044 C 1.05887 0.76181 0.08094
 C1045 C 1.08004 0.76798 0.09189
 C1046 C 1.09730 0.77782 0.08089
 H1047 H 1.13420 0.80407 -0.00339
 H1048 H 1.16436 0.82605 -0.01880
 H1049 H 1.18767 0.85252 0.04698
 H1050 H 1.15778 0.83018 0.06215
 H1051 H 1.07036 0.77791 0.03005
 H1052 H 1.04018 0.76057 0.04886
 H1053 H 1.08306 0.76551 0.10923
 H1054 H 1.11324 0.78279 0.08984
 C1055 C 0.64332 0.31045 0.53152
 C1056 C 0.64436 0.30997 0.50861
 C1057 C 0.66175 0.32196 0.49955
 C1058 C 0.67828 0.33461 0.51332
 C1059 C 0.67713 0.33480 0.53632
 C1060 C 0.65978 0.32281 0.54533
 C1061 C 0.62515 0.29880 0.54107
 C1062 C 0.61014 0.28957 0.54986
 C1063 C 0.59256 0.27924 0.56136
 C1064 C 0.57275 0.27005 0.54998
 C1065 C 0.55536 0.26095 0.56151
 C1066 C 0.55753 0.26107 0.58472
 C1067 C 0.57785 0.26994 0.59581
 C1068 C 0.59511 0.27900 0.58427
 H1069 H 0.63170 0.30044 0.49778
 H1070 H 0.66231 0.32126 0.48179
 H1071 H 0.68936 0.34462 0.54738
 H1072 H 0.65907 0.32338 0.56308
 H1073 H 0.57065 0.27010 0.53219
 H1074 H 0.54047 0.25403 0.55200
 H1075 H 0.58019 0.27015 0.61360
 H1076 H 0.61038 0.28606 0.59328
 C1077 C 0.36895 0.19145 0.55579
 C1078 C 0.35978 0.19698 0.53538
 C1079 C 0.33812 0.18879 0.52770
 C1080 C 0.32539 0.17489 0.54034
 C1081 C 0.33458 0.16986 0.56106
 C1082 C 0.35621 0.17808 0.56870
 C1083 C 0.39161 0.19897 0.56327
 C1084 C 0.41063 0.20504 0.56965
 C1085 C 0.43330 0.21224 0.57746
 C1086 C 0.45051 0.21213 0.56296
 C1087 C 0.47244 0.21950 0.57055
 C1088 C 0.47753 0.22733 0.59281
 C1089 C 0.46006 0.22665 0.60730
 C1090 C 0.43817 0.21930 0.59966
 H1091 H 0.36951 0.20730 0.52523
 H1092 H 0.33162 0.19273 0.51158
 H1093 H 0.32509 0.15943 0.57129
 H1094 H 0.36311 0.17377 0.58457
 H1095 H 0.44698 0.20639 0.54576
 H1096 H 0.48531 0.21881 0.55888
 H1097 H 0.46290 0.23197 0.62452
 H1098 H 0.42500 0.21924 0.61110
 C1099 C 0.86920 0.69511 0.05166
 C1100 C 0.85955 0.70077 0.03150
 C1101 C 0.83791 0.69230 0.02407
 C1102 C 0.82571 0.67796 0.03672
 C1103 C 0.83539 0.67277 0.05718
 C1104 C 0.85699 0.68128 0.06457
 C1105 C 0.89184 0.70291 0.05890
 C1106 C 0.91086 0.70908 0.06516
 C1107 C 0.93355 0.71620 0.07289
 C1108 C 0.95051 0.71691 0.05815
 C1109 C 0.97257 0.72374 0.06574
 C1110 C 0.97803 0.73015 0.08827
 C1111 C 0.96078 0.72889 0.10294
 C1112 C 0.93876 0.72207 0.09530
 H1113 H 0.86889 0.71143 0.02135
 H1114 H 0.83100 0.69639 0.00815
 H1115 H 0.82630 0.66202 0.06740
 H1116 H 0.86427 0.67685 0.08024
 H1117 H 0.94673 0.71208 0.04078
 H1118 H 0.98529 0.72359 0.05389
 H1119 H 0.96395 0.73324 0.12034
 H1120 H 0.92577 0.72137 0.10691
 C1121 C 0.62874 0.70580 0.93490
 C1122 C 0.62452 0.68494 0.94254
 C1123 C 0.64183 0.67435 0.95296
 C1124 C 0.66370 0.68449 0.95594
 C1125 C 0.66788 0.70540 0.94803
 C1126 C 0.65047 0.71601 0.93761
 C1127 C 0.61056 0.71659 0.92453
 C1128 C 0.59477 0.72504 0.91612
 C1129 C 0.57536 0.73452 0.90642
 C1130 C 0.55517 0.73345 0.91682
 C1131 C 0.53605 0.74202 0.90725
 C1132 C 0.53683 0.75187 0.88709
 C1133 C 0.55721 0.75278 0.87674
 C1134 C 0.57635 0.74420 0.88636
 H1135 H 0.60779 0.67685 0.94046
 H1136 H 0.63815 0.65809 0.95848
 H1137 H 0.68450 0.71368 0.95023
 H1138 H 0.65391 0.73219 0.93180
 H1139 H 0.55413 0.72575 0.93223
 H1140 H 0.52056 0.74039 0.91544
 H1141 H 0.55849 0.76019 0.86129
 H1142 H 0.59187 0.74502 0.87809
 C1143 C 0.13131 0.20338 0.43296
 C1144 C 0.12682 0.18243 0.44029
 C1145 C 0.14387 0.17169 0.45094
 C1146 C 0.16572 0.18178 0.45450
 C1147 C 0.17018 0.20277 0.44686
 C1148 C 0.15304 0.21353 0.43620
 C1149 C 0.11335 0.21437 0.42249
 C1150 C 0.09767 0.22293 0.41403
 C1151 C 0.07829 0.23244 0.40434
 C1152 C 0.05802 0.23104 0.41458
 C1153 C 0.03887 0.23949 0.40497
 C1154 C 0.03968 0.24959 0.38494
 C1155 C 0.06016 0.25087 0.37477
 C1156 C 0.07934 0.24239 0.38442
 H1157 H 0.11008 0.17440 0.43782
 H1158 H 0.13998 0.15538 0.45624
 H1159 H 0.18680 0.21100 0.44949
 H1160 H 0.15668 0.22979 0.43064
 H1161 H 0.05694 0.22311 0.42985
 H1162 H 0.02332 0.23755 0.41301
 H1163 H 0.06148 0.25845 0.35942
 H1164 H 0.09492 0.24343 0.37627
 C1165 C 0.56154 0.11513 0.69233
 C1166 C 0.55534 0.09369 0.68311
 C1167 C 0.56509 0.07556 0.69179
 C1168 C 0.58130 0.07872 0.70968
 C1169 C 0.58682 0.10026 0.71928
 C1170 C 0.57702 0.11832 0.71064
 C1171 C 0.55365 0.13403 0.68202
 C1172 C 0.54830 0.15020 0.67319
 C1173 C 0.54341 0.16979 0.66238
 C1174 C 0.52161 0.17304 0.65399
 C1175 C 0.51748 0.19163 0.64245
 C1176 C 0.53517 0.20706 0.63908
 C1177 C 0.55689 0.20386 0.64800
 C1178 C 0.56096 0.18537 0.65954
 H1179 H 0.54350 0.09104 0.66883
 H1180 H 0.56065 0.05919 0.68395
 H1181 H 0.59899 0.10318 0.73327
 H1182 H 0.58199 0.13483 0.71788
 H1183 H 0.50791 0.16105 0.65603
 H1184 H 0.50064 0.19352 0.63556
 H1185 H 0.57079 0.21563 0.64598
 H1186 H 0.57789 0.18307 0.66600
 C1187 C 1.06613 0.61154 0.18131
 C1188 C 1.08731 0.60541 0.17563
 C1189 C 1.09720 0.58806 0.18544
 C1190 C 1.08605 0.57652 0.20115
 C1191 C 1.06455 0.58249 0.20651
 C1192 C 1.05466 0.59997 0.19667
 C1193 C 1.05668 0.62998 0.17142
 C1194 C 1.05003 0.64563 0.16251
 C1195 C 1.04359 0.66439 0.15108
 C1196 C 1.04927 0.66593 0.12931
 C1197 C 1.04498 0.68481 0.11850
 C1198 C 1.03495 0.70253 0.12934
 C1199 C 1.02869 0.70065 0.15102
 C1200 C 1.03309 0.68170 0.16187
 H1201 H 1.09628 0.61417 0.16367
 H1202 H 1.11358 0.58361 0.18066
 H1203 H 1.05563 0.57399 0.21865
 H1204 H 1.03824 0.60457 0.20119
 H1205 H 1.05743 0.65266 0.12080
 H1206 H 1.04962 0.68560 0.10168
 H1207 H 1.02113 0.71411 0.15983
 H1208 H 1.02876 0.68076 0.17879
 C1209 C 0.97329 0.85906 0.21041
 C1210 C 0.95638 0.85675 0.22509
 C1211 C 0.94646 0.87541 0.23388
 C1212 C 0.95329 0.89661 0.22801
 C1213 C 0.97069 0.89877 0.21366
 C1214 C 0.98058 0.88011 0.20490
 C1215 C 0.98218 0.83986 0.19979
 C1216 C 0.98939 0.82418 0.18993
 C1217 C 0.99777 0.80613 0.17695
 C1218 C 0.98277 0.78982 0.16595
 C1219 C 0.99047 0.77413 0.15075
 C1220 C 1.01323 0.77466 0.14625
 C1221 C 1.02837 0.79041 0.15826
 C1222 C 1.02066 0.80608 0.17345
 H1223 H 0.95058 0.84053 0.22943
 H1224 H 0.93333 0.87323 0.24513
 H1225 H 0.97613 0.91481 0.20859
 H1226 H 0.99354 0.88207 0.19341
 H1227 H 0.96497 0.78980 0.16841
 H1228 H 0.97838 0.76251 0.14167
 H1229 H 1.04609 0.79105 0.15539
 H1230 H 1.03244 0.81865 0.18183
 C1231 C 0.46235 0.36338 0.70481
 C1232 C 0.47377 0.37746 0.72159
 C1233 C 0.46361 0.39596 0.73044
 C1234 C 0.44190 0.40060 0.72256
 C1235 C 0.43060 0.38630 0.70568
 C1236 C 0.44076 0.36784 0.69690
 C1237 C 0.47287 0.34471 0.69507
 C1238 C 0.48129 0.32923 0.68612
 C1239 C 0.49094 0.31111 0.67440
 C1240 C 0.51397 0.31203 0.67138
 C1241 C 0.52289 0.29575 0.65773
 C1242 C 0.50884 0.27839 0.64683
 C1243 C 0.48593 0.27710 0.65075
 C1244 C 0.47702 0.29340 0.66440
 H1245 H 0.49053 0.37418 0.72778
 H1246 H 0.47265 0.40650 0.74357
 H1247 H 0.41404 0.38958 0.69898
 H1248 H 0.43184 0.35716 0.68378
 H1249 H 0.52491 0.32569 0.67901
 H1250 H 0.54069 0.29704 0.65528
 H1251 H 0.47464 0.26425 0.64242
 H1252 H 0.45913 0.29261 0.66650
 C1253 C 0.46366 0.61291 0.79924
 C1254 C 0.47504 0.59923 0.78483
 C1255 C 0.46679 0.57735 0.77923
 C1256 C 0.44711 0.56897 0.78805
 C1257 C 0.43600 0.58285 0.80268
 C1258 C 0.44422 0.60461 0.80822
 C1259 C 0.47121 0.63567 0.80469
 C1260 C 0.47615 0.65491 0.81001
 C1261 C 0.48044 0.67790 0.81727
 C1262 C 0.46292 0.69208 0.81572
 C1263 C 0.46588 0.71374 0.82522
 C1264 C 0.48642 0.72150 0.83641
 C1265 C 0.50425 0.70745 0.83715
 C1266 C 0.50123 0.68571 0.82770
 H1267 H 0.49013 0.60549 0.77780
 H1268 H 0.47580 0.56701 0.76806
 H1269 H 0.42059 0.57708 0.80945
 H1270 H 0.43521 0.61509 0.81930
 H1271 H 0.44674 0.68619 0.80775
 H1272 H 0.45195 0.72429 0.82420
 H1273 H 0.52016 0.71291 0.84592
 H1274 H 0.51483 0.67481 0.82917
 C1275 C -0.02666 0.11003 0.29304
 C1276 C -0.03715 0.10399 0.27211
 C1277 C -0.04528 0.08214 0.26649
 C1278 C -0.04313 0.06606 0.28181
 C1279 C -0.03188 0.07215 0.30254
 C1280 C -0.02374 0.09400 0.30811
 C1281 C -0.02085 0.13293 0.29980
 C1282 C -0.01705 0.15215 0.30600
 C1283 C -0.01382 0.17502 0.31406
 C1284 C -0.03200 0.18844 0.31296
 C1285 C -0.02983 0.21003 0.32271
 C1286 C -0.00943 0.21849 0.33375
 C1287 C 0.00901 0.20517 0.33415
 C1288 C 0.00679 0.18351 0.32441
 H1289 H -0.03971 0.11631 0.26040
 H1290 H -0.05413 0.07806 0.25052
 H1291 H -0.02976 0.06009 0.31459
 H1292 H -0.01575 0.09851 0.32440
 H1293 H -0.04804 0.18203 0.30504
 H1294 H -0.04424 0.21999 0.32194
 H1295 H 0.02483 0.21112 0.34280
 H1296 H 0.02092 0.17321 0.32550
 C1297 C 0.06689 0.37545 0.27403
 C1298 C 0.08849 0.38286 0.28259
 C1299 C 0.09822 0.40285 0.27679
 C1300 C 0.08645 0.41579 0.26237
 C1301 C 0.06503 0.40790 0.25325
 C1302 C 0.05526 0.38787 0.25914
 C1303 C 0.05618 0.35609 0.28205
 C1304 C 0.04736 0.34048 0.28998
 C1305 C 0.03682 0.32276 0.30080
 C1306 C 0.04995 0.30857 0.31237
 C1307 C 0.03984 0.29341 0.32548
 C1308 C 0.01651 0.29244 0.32736
 C1309 C 0.00337 0.30605 0.31483
 C1310 C 0.01348 0.32114 0.30170
 H1311 H 0.09763 0.37343 0.29416
 H1312 H 0.11492 0.40829 0.28376
 H1313 H 0.05555 0.41757 0.24218
 H1314 H 0.03845 0.38235 0.25255
 H1315 H 0.06807 0.30979 0.31192
 H1316 H 0.05041 0.28331 0.33498
 H1317 H -0.01470 0.30541 0.31559
 H1318 H 0.00314 0.33205 0.29285
 C1319 C 0.56542 0.87530 0.77373
 C1320 C 0.55349 0.88839 0.75973
 C1321 C 0.56355 0.90822 0.75366
 C1322 C 0.58557 0.91523 0.76173
 C1323 C 0.59762 0.90159 0.77520
 C1324 C 0.58758 0.88180 0.78117
 C1325 C 0.55448 0.85626 0.78212
 C1326 C 0.54547 0.84096 0.79036
 C1327 C 0.53471 0.82366 0.80159
 C1328 C 0.51142 0.82267 0.80289
 C1329 C 0.50120 0.80812 0.81648
 C1330 C 0.51418 0.79442 0.82906
 C1331 C 0.53742 0.79470 0.82675
 C1332 C 0.54765 0.80933 0.81318
 H1333 H 0.53625 0.88358 0.75401
 H1334 H 0.55385 0.91844 0.74337
 H1335 H 0.61473 0.90637 0.78135
 H1336 H 0.59694 0.87185 0.79206
 H1337 H 0.50123 0.83368 0.79402
 H1338 H 0.48318 0.80796 0.81754
 H1339 H 0.54786 0.78450 0.83624
 H1340 H 0.56573 0.81007 0.81240
 C1341 C 0.68384 0.56646 0.11293
 C1342 C 0.68220 0.58892 0.11059
 C1343 C 0.69024 0.59846 0.09227
 C1344 C 0.70037 0.58577 0.07553
 C1345 C 0.70151 0.56283 0.07820
 C1346 C 0.69341 0.55340 0.09669
 C1347 C 0.67550 0.55723 0.13215
 C1348 C 0.66807 0.55092 0.14869
 C1349 C 0.65861 0.54510 0.16878
 C1350 C 0.65712 0.56159 0.18579
 C1351 C 0.64609 0.55690 0.20456
 C1352 C 0.63631 0.53561 0.20662
 C1353 C 0.63861 0.51890 0.18986
 C1354 C 0.64961 0.52365 0.17097
 H1355 H 0.67446 0.59915 0.12292
 H1356 H 0.68728 0.61568 0.09114
 H1357 H 0.70964 0.55198 0.06682
 H1358 H 0.69487 0.53593 0.09841
 H1359 H 0.66403 0.57825 0.18430
 H1360 H 0.64491 0.57003 0.21736
 H1361 H 0.63112 0.50246 0.19088
 H1362 H 0.65056 0.51078 0.15785
 C1363 C 0.17736 1.06181 0.60975
 C1364 C 0.16942 1.08129 0.60231
 C1365 C 0.17833 1.09042 0.58417
 C1366 C 0.19541 1.08023 0.57315
 C1367 C 0.20292 1.06031 0.58033
 C1368 C 0.19399 1.05119 0.59861
 C1369 C 0.16889 1.05358 0.62939
 C1370 C 0.16131 1.04808 0.64617
 C1371 C 0.15165 1.04314 0.66644
 C1372 C 0.14870 1.06046 0.68219
 C1373 C 0.13778 1.05637 0.70120
 C1374 C 0.12956 1.03486 0.70475
 C1375 C 0.13325 1.01742 0.68920
 C1376 C 0.14414 1.02156 0.67008
 H1377 H 0.15653 1.08963 0.61077
 H1378 H 0.17196 1.10558 0.57881
 H1379 H 0.21616 1.05218 0.57225
 H1380 H 0.20031 1.03613 0.60427
 H1381 H 0.15447 1.07723 0.67958
 H1382 H 0.13564 1.07012 0.71305
 H1383 H 0.12704 1.00076 0.69135
 H1384 H 0.14627 1.00803 0.65796
 C1385 C 0.20048 0.96399 0.85880
 C1386 C 0.19771 0.94126 0.86030
 C1387 C 0.20623 0.93176 0.87899
 C1388 C 0.21786 0.94481 0.89696
 C1389 C 0.22067 0.96790 0.89476
 C1390 C 0.21206 0.97725 0.87598
 C1391 C 0.19034 0.97377 0.84016
 C1392 C 0.18110 0.98190 0.82488
 C1393 C 0.16906 0.99161 0.80725
 C1394 C 0.15793 0.97814 0.78982
 C1395 C 0.14396 0.98733 0.77416
 C1396 C 0.14088 1.01010 0.77587
 C1397 C 0.15289 1.02363 0.79290
 C1398 C 0.16685 1.01442 0.80850
 H1399 H 0.18844 0.93084 0.84719
 H1400 H 0.20224 0.91427 0.87945
 H1401 H 0.23025 0.97905 0.90693
 H1402 H 0.21441 0.99493 0.87493
 H1403 H 0.15941 0.96043 0.78879
 H1404 H 0.13471 0.97644 0.76144
 H1405 H 0.15103 1.04127 0.79446
 H1406 H 0.17537 1.02501 0.82193
 C1407 C 0.70161 0.45781 0.35870
 C1408 C 0.69167 0.43783 0.36445
 C1409 C 0.70019 0.42802 0.38296
 C1410 C 0.71876 0.43811 0.39602
 C1411 C 0.72875 0.45814 0.39003
 C1412 C 0.72020 0.46792 0.37147
 C1413 C 0.69200 0.46831 0.34027
 C1414 C 0.68320 0.47710 0.32519
 C1415 C 0.67173 0.48766 0.30780
 C1416 C 0.66054 0.47494 0.28987
 C1417 C 0.64718 0.48499 0.27435
 C1418 C 0.64477 0.50787 0.27670
 C1419 C 0.65681 0.52062 0.29425
 C1420 C 0.67018 0.51056 0.30971
 H1421 H 0.67715 0.42996 0.35480
 H1422 H 0.69193 0.41278 0.38731
 H1423 H 0.74322 0.46617 0.39960
 H1424 H 0.72798 0.48343 0.36720
 H1425 H 0.66150 0.45717 0.28833
 H1426 H 0.63788 0.47471 0.26118
 H1427 H 0.65545 0.53831 0.29631
 H1428 H 0.67874 0.52056 0.32353
 C1429 C 0.79044 0.46914 0.60743
 C1430 C 0.76892 0.45915 0.60201
 C1431 C 0.76289 0.45037 0.58046
 C1432 C 0.77837 0.45141 0.56403
 C1433 C 0.79968 0.46224 0.56946
 C1434 C 0.80567 0.47099 0.59103
 C1435 C 0.79766 0.47531 0.63013
 C1436 C 0.80420 0.47923 0.64922
 C1437 C 0.81263 0.48235 0.67194
 C1438 C 0.81168 0.46438 0.68497
 C1439 C 0.82193 0.46631 0.70629
 C1440 C 0.83331 0.48628 0.71489
 C1441 C 0.83347 0.50455 0.70205
 C1442 C 0.82326 0.50256 0.68061
 H1443 H 0.75708 0.45739 0.61463
 H1444 H 0.74651 0.44184 0.57694
 H1445 H 0.81189 0.46350 0.55714
 H1446 H 0.82244 0.47855 0.59506
 H1447 H 0.80354 0.44866 0.67843
 H1448 H 0.82130 0.45206 0.71594
 H1449 H 0.84232 0.52006 0.70817
 H1450 H 0.82423 0.51654 0.67061
 C1451 C 0.28644 -0.02314 0.10861
 C1452 C 0.30122 -0.01965 0.09209
 C1453 C 0.29545 -0.02808 0.07038
 C1454 C 0.27481 -0.04020 0.06490
 C1455 C 0.25967 -0.04279 0.08144
 C1456 C 0.26549 -0.03437 0.10316
 C1457 C 0.29381 -0.01747 0.13137
 C1458 C 0.30071 -0.01397 0.15040
 C1459 C 0.30988 -0.01134 0.17292
 C1460 C 0.32217 0.00817 0.18115
 C1461 C 0.33368 0.00937 0.20198
 C1462 C 0.33315 -0.00903 0.21465
 C1463 C 0.31995 -0.02818 0.20665
 C1464 C 0.30840 -0.02931 0.18592
 H1465 H 0.31754 -0.01110 0.09614
 H1466 H 0.30735 -0.02560 0.05797
 H1467 H 0.24380 -0.05230 0.07785
 H1468 H 0.25402 -0.03739 0.11584
 H1469 H 0.32358 0.02212 0.17115
 H1470 H 0.34393 0.02423 0.20761
 H1471 H 0.31909 -0.04251 0.21617
 H1472 H 0.29900 -0.04451 0.17971
 C1473 C 0.28107 0.05612 0.37732
 C1474 C 0.26149 0.06765 0.37666
 C1475 C 0.25340 0.07653 0.39628
 C1476 C 0.26494 0.07406 0.41671
 C1477 C 0.28417 0.06185 0.41718
 C1478 C 0.29215 0.05297 0.39763
 C1479 C 0.29070 0.04825 0.35739
 C1480 C 0.30021 0.04147 0.34163
 C1481 C 0.31318 0.03295 0.32419
 C1482 C 0.30504 0.03184 0.30203
 C1483 C 0.31786 0.02277 0.28553
 C1484 C 0.33880 0.01460 0.29114
 C1485 C 0.34697 0.01629 0.31338
 C1486 C 0.33424 0.02537 0.32973
 H1487 H 0.25280 0.07022 0.36101
 H1488 H 0.23867 0.08604 0.39543
 H1489 H 0.29323 0.05947 0.43268
 H1490 H 0.30729 0.04402 0.39834
 H1491 H 0.28875 0.03771 0.29756
 H1492 H 0.31114 0.02155 0.26854
 H1493 H 0.36324 0.01056 0.31816
 H1494 H 0.34079 0.02630 0.34679
 C1495 C 0.77263 0.55362 0.87640
 C1496 C 0.75285 0.56484 0.87654
 C1497 C 0.74616 0.57474 0.89636
 C1498 C 0.75929 0.57361 0.91619
 C1499 C 0.77875 0.56173 0.91592
 C1500 C 0.78535 0.55183 0.89617
 C1501 C 0.78068 0.54466 0.85607
 C1502 C 0.78869 0.53708 0.83971
 C1503 C 0.79968 0.52776 0.82118
 C1504 C 0.81116 0.54152 0.80760
 C1505 C 0.82464 0.53247 0.79173
 C1506 C 0.82698 0.50959 0.78947
 C1507 C 0.81447 0.49584 0.80244
 C1508 C 0.80099 0.50488 0.81822
 H1509 H 0.74290 0.56636 0.86132
 H1510 H 0.73122 0.58396 0.89605
 H1511 H 0.78903 0.56036 0.93097
 H1512 H 0.80064 0.54312 0.89626
 H1513 H 0.81041 0.55928 0.80987
 H1514 H 0.83409 0.54347 0.78212
 H1515 H 0.81559 0.47810 0.80081
 H1516 H 0.79224 0.49406 0.82867
 C1517 C 0.11282 0.68448 0.56712
 C1518 C 0.10101 0.70123 0.55806
 C1519 C 0.08221 0.70894 0.56810
 C1520 C 0.07516 0.70007 0.58741
 C1521 C 0.08684 0.68290 0.59602
 C1522 C 0.10550 0.67519 0.58595
 C1523 C 0.13307 0.67729 0.55806
 C1524 C 0.15045 0.67072 0.55193
 C1525 C 0.17150 0.66213 0.54646
 C1526 C 0.17440 0.65249 0.52530
 C1527 C 0.19406 0.64189 0.52111
 C1528 C 0.21082 0.64065 0.53814
 C1529 C 0.20812 0.65118 0.55904
 C1530 C 0.18861 0.66182 0.56315
 H1531 H 0.10658 0.70859 0.54353
 H1532 H 0.07364 0.72230 0.56121
 H1533 H 0.08161 0.67552 0.61066
 H1534 H 0.11448 0.66221 0.59310
 H1535 H 0.16120 0.65251 0.51230
 H1536 H 0.19564 0.63374 0.50493
 H1537 H 0.22090 0.65071 0.57237
 H1538 H 0.18656 0.66920 0.57958
 C1539 C 0.61617 0.17836 1.06605
 C1540 C 0.60445 0.19419 1.05533
 C1541 C 0.58620 0.20356 1.06498
 C1542 C 0.57958 0.19726 1.08550
 C1543 C 0.59134 0.18116 1.09594
 C1544 C 0.60947 0.17181 1.08629
 C1545 C 0.63521 0.16869 1.05673
 C1546 C 0.65127 0.15974 1.05020
 C1547 C 0.67039 0.14796 1.04399
 C1548 C 0.68845 0.15853 1.03450
 C1549 C 0.70776 0.14725 1.03053
 C1550 C 0.70923 0.12541 1.03629
 C1551 C 0.69071 0.11477 1.04516
 C1552 C 0.67148 0.12598 1.04898
 H1553 H 0.60950 0.19938 1.03965
 H1554 H 0.57758 0.21605 1.05664
 H1555 H 0.58644 0.17568 1.11156
 H1556 H 0.61833 0.15949 1.09468
 H1557 H 0.68783 0.17559 1.03065
 H1558 H 0.72180 0.15583 1.02374
 H1559 H 0.69114 0.09780 1.04931
 H1560 H 0.65761 0.11761 1.05630
 C1561 C 0.86140 0.20514 0.96815
 C1562 C 0.85752 0.21364 0.94774
 C1563 C 0.87528 0.22348 0.93730
 C1564 C 0.89767 0.22493 0.94693
 C1565 C 0.90087 0.21682 0.96810
 C1566 C 0.88301 0.20703 0.97841
 C1567 C 0.84370 0.19291 0.97785
 C1568 C 0.82966 0.18161 0.98593
 C1569 C 0.81409 0.16681 0.99559
 C1570 C 0.79161 0.17156 0.99747
 C1571 C 0.77676 0.15656 1.00655
 C1572 C 0.78431 0.13674 1.01390
 C1573 C 0.80691 0.13216 1.01178
 C1574 C 0.82164 0.14709 1.00276
 H1575 H 0.84076 0.21244 0.93971
 H1576 H 0.87086 0.23040 0.92193
 H1577 H 0.91727 0.21638 0.97647
 H1578 H 0.88626 0.20022 0.99415
 H1579 H 0.78557 0.18676 0.99189
 H1580 H 0.75949 0.16055 1.00797
 H1581 H 0.81319 0.11680 1.01663
 H1582 H 0.83893 0.14313 1.00117
 C1583 C 0.36057 0.70620 0.45820
 C1584 C 0.36561 0.69794 0.43718
 C1585 C 0.38365 0.70749 0.42698
 C1586 C 0.39695 0.72548 0.43768
 C1587 C 0.39156 0.73388 0.45871
 C1588 C 0.37348 0.72427 0.46891
 C1589 C 0.34316 0.69504 0.46924
 C1590 C 0.32919 0.68467 0.47837
 C1591 C 0.31348 0.67105 0.48919
 C1592 C 0.32017 0.65102 0.49635
 C1593 C 0.30523 0.63730 0.50660
 C1594 C 0.28330 0.64346 0.50995
 C1595 C 0.27661 0.66358 0.50258
 C1596 C 0.29166 0.67734 0.49227
 H1597 H 0.35589 0.68380 0.42886
 H1598 H 0.38756 0.70038 0.41096
 H1599 H 0.40133 0.74785 0.46727
 H1600 H 0.36980 0.73071 0.48525
 H1601 H 0.33694 0.64590 0.49387
 H1602 H 0.31078 0.62168 0.51153
 H1603 H 0.25989 0.66880 0.50502
 H1604 H 0.28630 0.69281 0.48672
 C1605 C 0.61221 0.79868 0.46213
 C1606 C 0.60500 0.80627 0.44195
 C1607 C 0.58315 0.80088 0.43301
 C1608 C 0.56806 0.78781 0.44415
 C1609 C 0.57542 0.78019 0.46447
 C1610 C 0.59740 0.78564 0.47343
 C1611 C 0.63495 0.80440 0.47074
 C1612 C 0.65422 0.81005 0.47652
 C1613 C 0.67729 0.81786 0.48165
 C1614 C 0.69261 0.81555 0.46532
 C1615 C 0.71407 0.82610 0.46857
 C1616 C 0.72050 0.83911 0.48823
 C1617 C 0.70548 0.84039 0.50507
 C1618 C 0.68390 0.82990 0.50172
 H1619 H 0.61635 0.81627 0.43299
 H1620 H 0.57822 0.80661 0.41712
 H1621 H 0.56416 0.77019 0.47348
 H1622 H 0.60282 0.77968 0.48908
 H1623 H 0.68766 0.80637 0.44968
 H1624 H 0.72541 0.82468 0.45543
 H1625 H 0.70990 0.85052 0.52026
 H1626 H 0.67211 0.83198 0.51439
 C1627 C 0.11141 0.29508 -0.03513
 C1628 C 0.09669 0.28203 -0.02374
 C1629 C 0.07462 0.27669 -0.03250
 C1630 C 0.06706 0.28442 -0.05271
 C1631 C 0.08208 0.29746 -0.06397
 C1632 C 0.10402 0.30274 -0.05523
 C1633 C 0.13420 0.30083 -0.02666
 C1634 C 0.15349 0.30654 -0.02098
 C1635 C 0.17656 0.31446 -0.01601
 C1636 C 0.18337 0.32624 0.00417
 C1637 C 0.20489 0.33689 0.00737
 C1638 C 0.21965 0.33604 -0.00970
 C1639 C 0.21306 0.32327 -0.02946
 C1640 C 0.19167 0.31256 -0.03258
 H1641 H 0.10224 0.27601 -0.00815
 H1642 H 0.06343 0.26670 -0.02339
 H1643 H 0.07699 0.30327 -0.07977
 H1644 H 0.11530 0.31274 -0.06426
 H1645 H 0.17175 0.32800 0.01704
 H1646 H 0.20945 0.34683 0.02266
 H1647 H 0.22421 0.32219 -0.04279
 H1648 H 0.18658 0.30358 -0.04829
 C1649 C 0.37977 0.27852 0.05979
 C1650 C 0.40068 0.28849 0.05585
 C1651 C 0.42037 0.28067 0.06495
 C1652 C 0.41946 0.26271 0.07817
 C1653 C 0.39844 0.25215 0.08133
 C1654 C 0.37866 0.26009 0.07225
 C1655 C 0.35977 0.28842 0.05206
 C1656 C 0.34420 0.29836 0.04541
 C1657 C 0.32731 0.31205 0.03706
 C1658 C 0.33412 0.33303 0.03109
 C1659 C 0.31850 0.34640 0.02192
 C1660 C 0.29574 0.33899 0.01852
 C1661 C 0.28879 0.31818 0.02521
 C1662 C 0.30456 0.30469 0.03437
 H1663 H 0.40174 0.30274 0.04621
 H1664 H 0.43633 0.28897 0.06205
 H1665 H 0.39727 0.23840 0.09160
 H1666 H 0.36256 0.25229 0.07546
 H1667 H 0.35163 0.33897 0.03326
 H1668 H 0.32428 0.36254 0.01737
 H1669 H 0.27136 0.31208 0.02269
 H1670 H 0.29911 0.28848 0.03899
 C1671 C 0.87826 0.78318 0.56518
 C1672 C 0.87649 0.76360 0.57586
 C1673 C 0.89575 0.75533 0.58568
 C1674 C 0.91689 0.76669 0.58502
 C1675 C 0.91849 0.78598 0.57373
 C1676 C 0.89932 0.79413 0.56389
 C1677 C 0.85869 0.79290 0.55617
 C1678 C 0.84345 0.80261 0.54843
 C1679 C 0.82694 0.81595 0.53882
 C1680 C 0.80421 0.80863 0.53569
 C1681 C 0.78878 0.82181 0.52551
 C1682 C 0.79607 0.84227 0.51825
 C1683 C 0.81883 0.84963 0.52200
 C1684 C 0.83410 0.83656 0.53217
 H1685 H 0.86025 0.75501 0.57698
 H1686 H 0.89403 0.74054 0.59444
 H1687 H 0.93457 0.79490 0.57272
 H1688 H 0.90089 0.80925 0.55561
 H1689 H 0.79849 0.79269 0.54082
 H1690 H 0.77137 0.81573 0.52273
 H1691 H 0.82486 0.86552 0.51702
 H1692 H 0.85161 0.84247 0.53466
   
