data_POSCAR
  _audit_creation_date              2014-09-24
  _audit_creation_method            'ToBaCCo'
  _symmetry_space_group_name_H-M    'P1'
  _symmetry_Int_Tables_number       1
  _symmetry_cell_setting            triclinic
  loop_
  _symmetry_equiv_pos_as_xyz
 x,y,z
_cell_length_a 55.3569
_cell_length_b 55.3601
_cell_length_c 55.3648
_cell_angle_alpha 90.095200
_cell_angle_beta 89.937400
_cell_angle_gamma 90.244500
loop_
  _atom_site_label
  _atom_site_type_symbol
  _atom_site_fract_x
  _atom_site_fract_y
  _atom_site_fract_z
N1 N 0.36615 1.36574 0.36557
 N2 N 0.36541 0.86610 0.86744
 N3 N 0.86447 1.36482 0.86485
 N4 N 0.86549 0.86535 0.36614
 N5 N 0.67583 0.67705 0.32033
 N6 N 0.62855 0.12898 0.86973
 N7 N 1.17759 0.67863 0.81908
 N8 N 1.17717 0.17509 0.32168
 N9 N 0.62846 1.37005 0.62797
 N10 N 0.67633 0.81855 1.17898
 N11 N 1.12883 1.36764 1.12924
 N12 N 1.17682 0.81982 0.67789
 N13 N 0.36727 0.62987 0.62942
 N14 N 0.32023 0.17660 1.17845
 N15 N 0.86521 0.62991 1.13062
 N16 N 0.81805 0.18118 0.68141
 N17 N 1.36739 0.36819 0.62809
 N18 N 1.36328 0.86410 1.13422
 N19 N 0.81738 0.31937 1.17682
 N20 N 0.86604 0.86569 0.63072
 N21 N 0.67962 0.67943 0.67902
 N22 N 0.67591 1.17785 1.17607
 N23 N 0.17714 0.67818 1.17684
 N24 N 0.17634 1.17730 0.67675
 N25 N 1.36628 0.63166 0.36535
 N26 N 1.36705 1.12892 0.86875
 N27 N 0.86579 0.62990 0.86590
 N28 N 0.86734 1.13020 0.36672
 N29 N 0.63018 0.36726 0.36467
 N30 N 0.62798 0.86746 0.86876
 N31 N 0.12919 0.36682 0.86605
 N32 N 0.17622 0.82201 0.32096
 O33 O 0.97313 0.91116 0.87818
 O34 O 0.97341 0.88318 0.84978
 C35 C 0.96508 0.90274 0.85839
 C36 C 0.94548 0.91560 0.84561
 C37 C 0.93799 0.90823 0.82249
 H38 H 0.94696 0.89337 0.81346
 O39 O 1.02111 1.08589 0.87914
 O40 O 1.02115 1.11379 0.85076
 C41 C 1.02945 1.09430 0.85948
 C42 C 1.04953 1.08173 0.84709
 C43 C 1.05916 1.09102 0.82552
 H44 H 1.05138 1.10696 0.81732
 O45 O 0.87644 0.97388 0.91163
 O46 O 0.84828 0.97376 0.88348
 C47 C 0.85678 0.96559 0.90314
 C48 C 0.84399 0.94595 0.91613
 C49 C 0.82079 0.93846 0.90898
 H50 H 0.81173 0.94741 0.89414
 O51 O 1.11853 1.02259 0.91206
 O52 O 1.14669 1.02265 0.88385
 C53 C 1.13820 1.03087 0.90353
 C54 C 1.15098 1.05058 0.91644
 C55 C 1.17418 1.05806 0.90923
 H56 H 1.18327 1.04899 0.89445
 O57 O 0.90970 0.87722 0.97466
 O58 O 0.88147 0.84898 0.97464
 C59 C 0.90115 0.85756 0.96638
 C60 C 0.91407 0.84493 0.94666
 C61 C 0.90674 0.82184 0.93892
 H62 H 0.89181 0.81272 0.94778
 O63 O 1.08507 1.11977 0.97477
 O64 O 1.11321 1.14810 0.97477
 C65 C 1.09355 1.13947 0.96655
 C66 C 1.08055 1.15213 0.94696
 C67 C 1.08792 1.17517 0.93922
 H68 H 1.10296 1.18424 0.94795
 O69 O 0.90980 1.02130 0.87913
 O70 O 0.88169 1.02147 0.85094
 C71 C 0.90132 1.02976 0.85962
 C72 C 0.91396 1.04995 0.84735
 C73 C 0.90447 1.05984 0.82604
 H74 H 0.88830 1.05223 0.81798
 O75 O 1.08500 0.97531 0.87937
 O76 O 1.11301 0.97534 0.85102
 C77 C 1.09339 0.96703 0.85969
 C78 C 1.08064 0.94704 0.84717
 C79 C 1.09002 0.93738 0.82565
 H80 H 1.10619 0.94504 0.81762
 O81 O 1.02024 0.87853 0.91148
 O82 O 1.02053 0.85043 0.88321
 C83 C 1.02872 0.85905 0.90286
 C84 C 1.04888 0.84676 0.91534
 C85 C 1.05857 0.82533 0.90584
 H86 H 1.05077 0.81716 0.88982
 O87 O 0.97394 1.11929 0.91174
 O88 O 0.97395 1.14733 0.88348
 C89 C 0.96570 1.13887 0.90316
 C90 C 0.94590 1.15149 0.91595
 C91 C 0.93810 1.17440 0.90842
 H92 H 0.94704 1.18345 0.89352
 O93 O 0.87676 1.08512 0.97453
 O94 O 0.84844 1.11302 0.97485
 C95 C 0.85695 1.09340 0.96655
 C96 C 0.84401 1.08026 0.94714
 C97 C 0.82086 1.08747 0.93975
 H98 H 0.81196 1.10246 0.94864
 O99 O 1.11840 0.91169 0.97494
 O100 O 1.14647 0.88354 0.97479
 C101 C 1.13807 0.90325 0.96670
 C102 C 1.15092 0.91629 0.94718
 C103 C 1.17396 0.90895 0.93951
 H104 H 1.18288 0.89395 0.94830
 O105 O 0.97392 1.08553 0.87934
 O106 O 0.97387 1.11345 0.85097
 C107 C 0.96556 1.09388 0.85972
 C108 C 0.94541 1.08122 0.84739
 C109 C 0.93559 1.09075 0.82607
 H110 H 0.94329 1.10689 0.81803
 O111 O 1.02031 0.91172 0.87867
 O112 O 1.02060 0.88368 0.85033
 C113 C 1.02881 0.90329 0.85909
 C114 C 1.04903 0.91594 0.84685
 C115 C 1.05875 0.90662 0.82534
 H116 H 1.05092 0.89064 0.81707
 O117 O 1.11868 0.97544 0.91183
 O118 O 1.14682 0.97554 0.88360
 C119 C 1.13834 0.96730 0.90328
 C120 C 1.15109 0.94768 0.91613
 C121 C 1.17413 0.94007 0.90870
 H122 H 1.18318 0.94901 0.89379
 O123 O 0.87604 1.02099 0.91148
 O124 O 0.84777 1.02090 0.88343
 C125 C 0.85633 1.02913 0.90308
 C126 C 0.84365 1.04875 0.91610
 C127 C 0.82050 1.05623 0.90895
 H128 H 0.81134 1.04720 0.89416
 O129 O 0.90979 1.11853 0.97445
 O130 O 0.88166 1.14661 0.97472
 C131 C 0.90131 1.13822 0.96640
 C132 C 0.91429 1.15114 0.94687
 C133 C 0.90674 1.17405 0.93909
 H134 H 0.89158 1.18285 0.94778
 O135 O 1.08480 0.87900 0.97478
 O136 O 1.11272 0.85070 0.97453
 C137 C 1.09315 0.85938 0.96635
 C138 C 1.08040 0.84696 0.94634
 C139 C 1.08975 0.82554 0.93653
 H140 H 1.10588 0.81751 0.94408
 O141 O 1.08519 1.02245 0.87928
 O142 O 1.11320 1.02258 0.85094
 C143 C 1.09362 1.03078 0.85963
 C144 C 1.08093 1.05070 0.84718
 C145 C 1.09023 1.06031 0.82561
 H146 H 1.10630 1.05266 0.81747
 O147 O 0.90929 0.97419 0.87826
 O148 O 0.88137 0.97422 0.84988
 C149 C 0.90099 0.96607 0.85845
 C150 C 0.91410 0.94660 0.84563
 C151 C 0.90687 0.93898 0.82250
 H152 H 0.89193 0.94775 0.81349
 O153 O 1.02110 1.11942 0.91181
 O154 O 1.02106 1.14745 0.88355
 C155 C 1.02931 1.13908 0.90322
 C156 C 1.04903 1.15196 0.91601
 C157 C 1.05666 1.17501 0.90852
 H158 H 1.04768 1.18394 0.89363
 O159 O 0.97308 0.87790 0.91110
 O160 O 0.97334 0.84974 0.88289
 C161 C 0.96499 0.85816 0.90254
 C162 C 0.94536 0.84522 0.91540
 C163 C 0.93777 0.82213 0.90792
 H164 H 0.94668 0.81323 0.89292
 O165 O 1.11822 1.08690 0.97494
 O166 O 1.14660 1.11498 0.97512
 C167 C 1.13804 1.09529 0.96688
 C168 C 1.15090 1.08216 0.94744
 C169 C 1.17410 1.08937 0.93997
 H170 H 1.18314 1.10436 0.94883
 O171 O 0.87653 0.91006 0.97492
 O172 O 0.84807 0.88206 0.97512
 C173 C 0.85670 0.90168 0.96687
 C174 C 0.84392 0.91471 0.94737
 C175 C 0.82072 0.90749 0.93995
 H176 H 0.81162 0.89262 0.94891
 Cu177 Cu 0.99659 0.89763 0.89769
 Cu178 Cu 0.99696 0.86394 0.86371
 Cu179 Cu 0.99753 1.09975 0.89836
 Cu180 Cu 0.99751 1.13325 0.86428
 Cu181 Cu 0.89569 0.99756 0.89794
 Cu182 Cu 0.86199 0.99756 0.86406
 Cu183 Cu 1.09906 0.99893 0.89849
 Cu184 Cu 1.13270 0.99904 0.86446
 C185 C 0.93355 0.93493 0.85692
 H186 H 0.93904 0.94051 0.87486
 C187 C 0.91883 0.91994 0.81095
 C188 C 1.06039 1.06138 0.85766
 H189 H 1.05336 1.05436 0.87452
 C190 C 1.07944 1.08040 0.81489
 C191 C 0.85530 0.93409 0.93547
 H192 H 0.87329 0.93960 0.94091
 C193 C 0.80916 0.91939 0.92092
 C194 C 1.13960 1.06262 0.93569
 H195 H 1.12161 1.05713 0.94115
 C196 C 1.18573 1.07730 0.92102
 C197 C 0.93352 0.85634 0.93491
 H198 H 0.93909 0.87425 0.94060
 C199 C 0.91861 0.81045 0.91970
 C200 C 1.06096 1.14079 0.93537
 H201 H 1.05535 1.12291 0.94105
 C202 C 1.07595 1.18661 0.92014
 C203 C 0.93461 1.06064 0.85778
 H204 H 0.94178 1.05344 0.87447
 C205 C 0.91520 1.08018 0.81554
 C206 C 1.05996 0.93634 0.85751
 H207 H 1.05287 0.94337 0.87435
 C208 C 1.07916 0.91724 0.81486
 C209 C 1.05978 0.85732 0.93578
 H210 H 1.05272 0.87408 0.94294
 C211 C 1.07893 0.81485 0.91634
 C212 C 0.93401 1.14014 0.93531
 H213 H 0.93975 1.12235 0.94101
 C214 C 0.91866 1.18568 0.92001
 C215 C 0.85513 1.06075 0.93534
 H216 H 0.87309 1.05528 0.94076
 C217 C 0.80911 1.07544 0.92081
 C218 C 1.13976 0.93581 0.93552
 H219 H 1.12189 0.94138 0.94117
 C220 C 1.18557 0.92086 0.92042
 O221 O 1.02034 0.91093 1.11824
 O222 O 1.02054 0.88280 1.14639
 C223 C 1.02879 0.90244 1.13777
 C224 C 1.04896 0.91508 1.15009
 C225 C 1.05863 0.90583 1.17161
 H226 H 1.05084 0.88984 1.17984
 O227 O 0.97435 1.08585 1.11891
 O228 O 0.97455 1.11382 1.14732
 C229 C 0.96630 1.09415 1.13874
 C230 C 0.94679 1.08102 1.15160
 C231 C 0.93922 1.08836 1.17471
 H232 H 0.94810 1.10338 1.18368
 O233 O 0.87788 1.02157 1.08609
 O234 O 0.84968 1.02165 1.11424
 C235 C 0.85827 1.02986 1.09459
 C236 C 0.84576 1.04975 1.08191
 C237 C 0.82426 1.05936 1.09133
 H238 H 0.81623 1.05175 1.10749
 O239 O 1.11846 0.97487 1.08537
 O240 O 1.14662 0.97514 1.11352
 C241 C 1.13817 0.96681 1.09387
 C242 C 1.15094 0.94714 1.08104
 C243 C 1.17375 0.93922 1.08880
 H244 H 1.18262 0.94799 1.10392
 O245 O 1.08480 0.87881 1.02189
 O246 O 1.11271 0.85050 1.02176
 C247 C 1.09315 0.85912 1.03008
 C248 C 1.08038 0.84656 1.04998
 C249 C 1.08975 0.82511 1.05963
 H250 H 1.10592 0.81714 1.05202
 O251 O 0.91023 1.11812 1.02156
 O252 O 0.88205 1.14616 1.02189
 C253 C 0.90169 1.13763 1.03004
 C254 C 0.91426 1.15006 1.05016
 C255 C 0.90480 1.17144 1.05997
 H256 H 0.88875 1.17951 1.05227
 O257 O 0.91058 0.97457 1.11946
 O258 O 0.88249 0.97462 1.14774
 C259 C 0.90208 0.96637 1.13916
 C260 C 0.91488 0.94667 1.15181
 C261 C 0.90747 0.93896 1.17485
 H262 H 0.89264 0.94791 1.18395
 O263 O 1.08487 1.02183 1.11815
 O264 O 1.11283 1.02194 1.14649
 C265 C 1.09331 1.03018 1.13781
 C266 C 1.08078 1.05028 1.15022
 C267 C 1.09011 1.05990 1.17179
 H268 H 1.10601 1.05205 1.18002
 O269 O 0.97308 0.87749 1.08549
 O270 O 0.97324 0.84921 1.11349
 C271 C 0.96496 0.85771 1.09388
 C272 C 0.94539 0.84481 1.08089
 C273 C 0.93778 0.82171 1.08826
 H274 H 0.94663 0.81281 1.10324
 O275 O 1.02118 1.11935 1.08556
 O276 O 1.02100 1.14774 1.11355
 C277 C 1.02923 1.13921 1.09390
 C278 C 1.04872 1.15216 1.08082
 C279 C 1.05615 1.17537 1.08810
 H280 H 1.04718 1.18434 1.10302
 O281 O 0.87730 0.91048 1.02204
 O282 O 0.84904 0.88229 1.02237
 C283 C 0.85778 0.90193 1.03058
 C284 C 0.84556 0.91455 1.05077
 C285 C 0.82414 0.90512 1.06066
 H286 H 0.81594 0.88901 1.05303
 O287 O 1.11764 1.08670 1.02200
 O288 O 1.14582 1.11499 1.02234
 C289 C 1.13717 1.09530 1.03048
 C290 C 1.14954 1.08261 1.05047
 C291 C 1.17099 1.09202 1.06032
 H292 H 1.17909 1.10823 1.05285
 O293 O 1.02147 1.08577 1.11812
 O294 O 1.02170 1.11402 1.14625
 C295 C 1.02990 1.09439 1.13765
 C296 C 1.04989 1.08179 1.15008
 C297 C 1.05956 1.09113 1.17164
 H298 H 1.05196 1.10723 1.17975
 O299 O 0.97323 0.91056 1.11875
 O300 O 0.97336 0.88247 1.14695
 C301 C 0.96515 0.90212 1.13851
 C302 C 0.94572 0.91513 1.15146
 C303 C 0.93805 0.90768 1.17449
 H304 H 0.94674 0.89259 1.18334
 O305 O 1.11773 1.02205 1.08490
 O306 O 1.14574 1.02232 1.11319
 C307 C 1.13721 1.03058 1.09358
 C308 C 1.14959 1.05088 1.08124
 C309 C 1.17105 1.06060 1.09077
 H310 H 1.17920 1.05270 1.10668
 O311 O 0.87793 0.97441 1.08602
 O312 O 0.84973 0.97438 1.11418
 C313 C 0.85832 0.96605 1.09457
 C314 C 0.84582 0.94591 1.08203
 C315 C 0.82438 0.93616 1.09159
 H316 H 0.81637 0.94388 1.10770
 O317 O 1.08488 1.11991 1.02184
 O318 O 1.11288 1.14837 1.02192
 C319 C 1.09320 1.13970 1.03005
 C320 C 1.08005 1.15240 1.04959
 C321 C 1.08720 1.17559 1.05714
 H322 H 1.10210 1.18473 1.04824
 O323 O 0.90968 0.87692 1.02175
 O324 O 0.88157 0.84857 1.02179
 C325 C 0.90124 0.85718 1.02996
 C326 C 0.91423 0.84452 1.04956
 C327 C 0.90688 0.82143 1.05721
 H328 H 0.89196 0.81231 1.04833
 O329 O 1.08460 0.97464 1.11777
 O330 O 1.11266 0.97473 1.14601
 C331 C 1.09306 0.96638 1.13738
 C332 C 1.08039 0.94634 1.14987
 C333 C 1.08973 0.93679 1.17140
 H334 H 1.10581 0.94458 1.17949
 O335 O 0.91090 1.02172 1.11926
 O336 O 0.88282 1.02173 1.14755
 C337 C 0.90250 1.02995 1.13897
 C338 C 0.91554 1.04961 1.15171
 C339 C 0.90825 1.05721 1.17482
 H340 H 0.89334 1.04827 1.18388
 O341 O 0.97404 1.11839 1.08535
 O342 O 0.97382 1.14648 1.11364
 C343 C 0.96557 1.13785 1.09401
 C344 C 0.94544 1.15013 1.08150
 C345 C 0.93565 1.17151 1.09101
 H346 H 0.94329 1.17962 1.10713
 O347 O 1.02023 0.87796 1.08513
 O348 O 1.02044 0.84975 1.11320
 C349 C 1.02867 0.85844 1.09360
 C350 C 1.04882 0.84619 1.08100
 C351 C 1.05852 0.82475 1.09034
 H352 H 1.05072 0.81650 1.10631
 O353 O 1.11848 0.91143 1.02201
 O354 O 1.14652 0.88325 1.02186
 C355 C 1.13812 0.90290 1.03017
 C356 C 1.15090 0.91578 1.04987
 C357 C 1.17370 0.90810 1.05787
 H358 H 1.18254 0.89295 1.04920
 O359 O 0.87730 1.08489 1.02166
 O360 O 0.84905 1.11285 1.02200
 C361 C 0.85775 1.09330 1.03018
 C362 C 0.84548 1.08071 1.05037
 C363 C 0.82399 1.08998 1.06009
 H364 H 0.81574 1.10588 1.05228
 Cu365 Cu 0.99662 0.89705 1.09909
 Cu366 Cu 0.99686 0.86322 1.13283
 Cu367 Cu 0.99777 1.09953 1.09917
 Cu368 Cu 0.99778 1.13335 1.13302
 Cu369 Cu 0.89613 0.89647 0.99830
 Cu370 Cu 0.86216 0.86267 0.99847
 Cu371 Cu 1.09884 0.89807 0.99843
 Cu372 Cu 1.13236 0.86410 0.99821
 Cu373 Cu 0.89635 1.09887 0.99793
 Cu374 Cu 0.86246 1.13247 0.99835
 Cu375 Cu 1.09864 1.10051 0.99834
 Cu376 Cu 1.13249 1.13443 0.99854
 Cu377 Cu 0.89715 0.99808 1.09990
 Cu378 Cu 0.86330 0.99812 1.13371
 Cu379 Cu 1.09862 0.99828 1.09871
 Cu380 Cu 1.13226 0.99853 1.13265
 C381 C 1.05982 0.93552 1.13949
 H382 H 1.05275 0.94251 1.12267
 C383 C 1.07894 0.91661 1.18217
 C384 C 0.93496 1.06149 1.14037
 H385 H 0.94049 1.05593 1.12243
 C386 C 0.92011 1.07644 1.18631
 C387 C 0.85611 1.06040 1.06125
 H388 H 0.87292 1.05340 1.05414
 C389 C 0.81349 1.07941 1.08049
 C390 C 1.13982 0.93545 1.06143
 H391 H 1.12212 0.94127 1.05555
 C392 C 1.18512 0.91983 1.07721
 C393 C 1.05973 0.85684 1.06063
 H394 H 1.05266 0.87362 1.05359
 C395 C 1.07891 0.81433 1.07975
 C396 C 0.93477 1.13967 1.06090
 H397 H 0.94192 1.12295 1.05372
 C398 C 0.91540 1.18205 1.08032
 C399 C 0.93416 0.93477 1.14039
 H400 H 0.93978 0.94042 1.12252
 C401 C 0.91907 0.91962 1.18618
 C402 C 1.06048 1.06119 1.13964
 H403 H 1.05343 1.05414 1.12280
 C404 C 1.07960 1.08025 1.18239
 C405 C 0.93363 0.85594 1.06139
 H406 H 0.93920 0.87386 1.05579
 C407 C 0.91868 0.81003 1.07641
 C408 C 1.06065 1.14094 1.06141
 H409 H 1.05523 1.12294 1.05589
 C410 C 1.07524 1.18707 1.07624
 C411 C 0.85615 0.93512 1.06144
 H412 H 0.87291 0.94225 1.05422
 C413 C 0.81367 0.91583 1.08099
 C414 C 1.13911 1.06187 1.06091
 H415 H 1.12233 1.05475 1.05372
 C416 C 1.18163 1.08108 1.08040
 O417 O 0.97465 0.41120 0.37810
 O418 O 0.97430 0.38279 0.35013
 C419 C 0.96611 0.40246 0.35866
 C420 C 0.94596 0.41486 0.34632
 C421 C 0.93610 0.40526 0.32497
 H422 H 0.94372 0.38914 0.31691
 O423 O 1.02155 0.58495 0.37792
 O424 O 1.02201 0.61309 0.34977
 C425 C 1.03010 0.59346 0.35839
 C426 C 1.05021 0.58088 0.34603
 C427 C 1.05992 0.59030 0.32455
 H428 H 1.05217 0.60628 0.31640
 O429 O 0.87738 0.47510 0.41065
 O430 O 0.84901 0.47514 0.38271
 C431 C 0.85759 0.46693 0.40231
 C432 C 0.84481 0.44729 0.41528
 C433 C 0.82173 0.43960 0.40793
 H434 H 0.81270 0.44853 0.39307
 O435 O 1.11951 0.52134 0.41038
 O436 O 1.14770 0.52144 0.38220
 C437 C 1.13922 0.52960 0.40192
 C438 C 1.15202 0.54922 0.41495
 C439 C 1.17505 0.55702 0.40752
 H440 H 1.18402 0.54826 0.39249
 O441 O 0.91050 0.37845 0.47420
 O442 O 0.88256 0.34994 0.47439
 C443 C 0.90222 0.35857 0.46616
 C444 C 0.91543 0.34568 0.44677
 C445 C 0.90819 0.32247 0.43932
 H446 H 0.89315 0.31348 0.44813
 O447 O 1.08624 0.61741 0.47435
 O448 O 1.11431 0.64580 0.47431
 C449 C 1.09469 0.63709 0.46607
 C450 C 1.08198 0.64959 0.44616
 C451 C 1.09131 0.67122 0.43665
 H452 H 1.10742 0.67934 0.44435
 O453 O 0.91072 0.52193 0.37728
 O454 O 0.88277 0.52167 0.34893
 C455 C 0.90240 0.52997 0.35749
 C456 C 0.91546 0.54956 0.34472
 C457 C 0.90808 0.55725 0.32171
 H458 H 0.89308 0.54838 0.31272
 O459 O 1.08608 0.47431 0.37735
 O460 O 1.11392 0.47449 0.34882
 C461 C 1.09429 0.46623 0.35750
 C462 C 1.08104 0.44675 0.34471
 C463 C 1.08816 0.43920 0.32154
 H464 H 1.10314 0.44804 0.31248
 O465 O 1.02205 0.37855 0.41096
 O466 O 1.02211 0.35034 0.38280
 C467 C 1.03042 0.35901 0.40238
 C468 C 1.05051 0.34667 0.41491
 C469 C 1.06007 0.32511 0.40558
 H470 H 1.05228 0.31690 0.38958
 O471 O 0.97455 0.61862 0.41056
 O472 O 0.97498 0.64686 0.38252
 C473 C 0.96661 0.63839 0.40214
 C474 C 0.94711 0.65129 0.41513
 C475 C 0.93947 0.67427 0.40761
 H476 H 0.94824 0.68312 0.39249
 O477 O 0.87847 0.58607 0.47456
 O478 O 0.85035 0.61416 0.47465
 C479 C 0.85889 0.59458 0.46629
 C480 C 0.84641 0.58201 0.44620
 C481 C 0.82496 0.59139 0.43653
 H482 H 0.81688 0.60744 0.44428
 O483 O 1.11965 0.41159 0.47438
 O484 O 1.14767 0.38339 0.47438
 C485 C 1.13924 0.40301 0.46611
 C486 C 1.15194 0.41576 0.44628
 C487 C 1.17492 0.40831 0.43853
 H488 H 1.18394 0.39349 0.44750
 O489 O 0.97440 0.58543 0.37742
 O490 O 0.97482 0.61349 0.34919
 C491 C 0.96639 0.59387 0.35767
 C492 C 0.94676 0.58091 0.34482
 C493 C 0.93912 0.58835 0.32180
 H494 H 0.94800 0.60337 0.31288
 O495 O 1.02180 0.41112 0.37741
 O496 O 1.02149 0.38303 0.34912
 C497 C 1.02983 0.40270 0.35761
 C498 C 1.04943 0.41568 0.34473
 C499 C 1.05683 0.40840 0.32155
 H500 H 1.04775 0.39354 0.31252
 O501 O 1.11933 0.47426 0.41028
 O502 O 1.14739 0.47430 0.38197
 C503 C 1.13896 0.46609 0.40169
 C504 C 1.15177 0.44658 0.41465
 C505 C 1.17475 0.43888 0.40715
 H506 H 1.18365 0.44757 0.39201
 O507 O 0.87815 0.52224 0.41089
 O508 O 0.85006 0.52233 0.38268
 C509 C 0.85866 0.53063 0.40230
 C510 C 0.84632 0.55075 0.41487
 C511 C 0.82487 0.56043 0.40551
 H512 H 0.81672 0.55269 0.38946
 O513 O 0.91156 0.61923 0.47457
 O514 O 0.88358 0.64748 0.47469
 C515 C 0.90316 0.63891 0.46639
 C516 C 0.91608 0.65156 0.44664
 C517 C 0.90869 0.67452 0.43886
 H518 H 0.89379 0.68356 0.44776
 O519 O 1.08613 0.37887 0.47448
 O520 O 1.11401 0.35054 0.47444
 C521 C 1.09448 0.35921 0.46617
 C522 C 1.08179 0.34674 0.44614
 C523 C 1.09102 0.32518 0.43651
 H524 H 1.10701 0.31704 0.44426
 O525 O 1.08587 0.52140 0.37796
 O526 O 1.11390 0.52171 0.34962
 C527 C 1.09431 0.52986 0.35837
 C528 C 1.08163 0.54987 0.34605
 C529 C 1.09101 0.55962 0.32457
 H530 H 1.10711 0.55204 0.31644
 O531 O 0.91095 0.47481 0.37809
 O532 O 0.88272 0.47448 0.35002
 C533 C 0.90232 0.46628 0.35861
 C534 C 0.91478 0.44610 0.34629
 C535 C 0.90526 0.43620 0.32493
 H536 H 0.88920 0.44385 0.31683
 O537 O 1.02169 0.61798 0.41099
 O538 O 1.02216 0.64619 0.38291
 C539 C 1.03029 0.63752 0.40252
 C540 C 1.05047 0.64983 0.41515
 C541 C 1.06013 0.67145 0.40596
 H542 H 1.05230 0.67975 0.39009
 O543 O 0.97487 0.37803 0.41100
 O544 O 0.97491 0.34949 0.38315
 C545 C 0.96669 0.35819 0.40275
 C546 C 0.94705 0.34547 0.41581
 C547 C 0.93952 0.32227 0.40864
 H548 H 0.94855 0.31313 0.39386
 O549 O 1.11961 0.58471 0.47427
 O550 O 1.14779 0.61299 0.47425
 C551 C 1.13928 0.59328 0.46603
 C552 C 1.15204 0.58040 0.44635
 C553 C 1.17507 0.58793 0.43865
 H554 H 1.18406 0.60293 0.44755
 O555 O 0.87737 0.41145 0.47401
 O556 O 0.84921 0.38315 0.47401
 C557 C 0.85770 0.40286 0.46580
 C558 C 0.84490 0.41581 0.44626
 C559 C 0.82182 0.40837 0.43863
 H560 H 0.81285 0.39331 0.44740
 Cu561 Cu 0.99837 0.39756 0.39717
 Cu562 Cu 0.99819 0.36357 0.36348
 Cu563 Cu 0.99791 0.59893 0.39703
 Cu564 Cu 0.99851 0.63273 0.36327
 Cu565 Cu 0.89712 0.49855 0.39704
 Cu566 Cu 0.86331 0.49839 0.36326
 Cu567 Cu 1.09991 0.49777 0.39683
 Cu568 Cu 1.13352 0.49798 0.36277
 C569 C 0.93532 0.43545 0.35671
 H570 H 0.94253 0.44271 0.37340
 C571 C 0.91582 0.41586 0.31439
 C572 C 1.06104 0.56048 0.35653
 H573 H 1.05396 0.55337 0.37333
 C574 C 1.08024 0.57977 0.31395
 C575 C 0.85613 0.43541 0.43459
 H576 H 0.87403 0.44106 0.44017
 C577 C 0.81025 0.42029 0.41961
 C578 C 1.14079 0.56089 0.43452
 H579 H 1.12292 0.55517 0.44016
 C580 C 1.18657 0.57623 0.41939
 C581 C 0.93501 0.35692 0.43504
 H582 H 0.94052 0.37492 0.44047
 C583 C 0.92025 0.31078 0.42040
 C584 C 1.06138 0.63915 0.43543
 H585 H 1.05433 0.62225 0.44237
 C586 C 1.08047 0.68204 0.41663
 C587 C 0.93495 0.56137 0.35599
 H588 H 0.94055 0.55573 0.37385
 C589 C 0.91992 0.57650 0.31026
 C590 C 1.06152 0.43501 0.35604
 H591 H 1.05611 0.44053 0.37403
 C592 C 1.07605 0.42018 0.30997
 C593 C 1.06135 0.35722 0.43537
 H594 H 1.05437 0.37407 0.44242
 C595 C 1.08025 0.31447 0.41631
 C596 C 0.93543 0.64022 0.43479
 H597 H 0.94103 0.62240 0.44051
 C598 C 0.92039 0.68587 0.41949
 C599 C 0.85681 0.56151 0.43540
 H600 H 0.87357 0.55441 0.44248
 C601 C 0.81430 0.58068 0.41625
 C602 C 1.14064 0.43503 0.43435
 H603 H 1.12281 0.44068 0.44006
 C604 C 1.18632 0.41989 0.41911
 O605 O 1.02201 0.41209 0.61891
 O606 O 1.02183 0.38387 0.64699
 C607 C 1.03015 0.40355 0.63856
 C608 C 1.04988 0.41641 0.65135
 C609 C 1.05739 0.40903 0.67442
 H610 H 1.04830 0.39418 0.68343
 O611 O 0.97442 0.58538 0.61858
 O612 O 0.97476 0.61349 0.64685
 C613 C 0.96638 0.59384 0.63834
 C614 C 0.94677 0.58087 0.65121
 C615 C 0.93918 0.58829 0.67428
 H616 H 0.94807 0.60332 0.68322
 O617 O 0.87830 0.52184 0.58544
 O618 O 0.85006 0.52203 0.61356
 C619 C 0.85879 0.53030 0.59398
 C620 C 0.84656 0.55046 0.58146
 C621 C 0.82524 0.56032 0.59099
 H622 H 0.81710 0.55267 0.60709
 O623 O 1.11959 0.47467 0.58552
 O624 O 1.14773 0.47487 0.61368
 C625 C 1.13925 0.46658 0.59400
 C626 C 1.15206 0.44706 0.58098
 C627 C 1.17515 0.43954 0.58825
 H628 H 1.18413 0.44838 0.60326
 O629 O 1.08604 0.37911 0.52162
 O630 O 1.11393 0.35078 0.52170
 C631 C 1.09438 0.35950 0.52997
 C632 C 1.08164 0.34714 0.55003
 C633 C 1.09083 0.32561 0.55967
 H634 H 1.10684 0.31743 0.55195
 O635 O 0.91153 0.61931 0.52170
 O636 O 0.88355 0.64756 0.52181
 C637 C 0.90316 0.63899 0.52999
 C638 C 0.91611 0.65164 0.54971
 C639 C 0.90878 0.67464 0.55753
 H640 H 0.89391 0.68370 0.54867
 O641 O 0.91067 0.47456 0.61865
 O642 O 0.88243 0.47446 0.64678
 C643 C 0.90212 0.46631 0.63829
 C644 C 0.91508 0.44677 0.65106
 C645 C 0.90752 0.43893 0.67400
 H646 H 0.89236 0.44754 0.68289
 O647 O 1.08615 0.52187 0.61794
 O648 O 1.11422 0.52234 0.64617
 C649 C 1.09459 0.53041 0.63750
 C650 C 1.08185 0.55039 0.64987
 C651 C 1.09120 0.56024 0.67133
 H652 H 1.10736 0.55276 0.67939
 O653 O 0.97481 0.37947 0.58522
 O654 O 0.97461 0.35114 0.61319
 C655 C 0.96637 0.35984 0.59364
 C656 C 0.94619 0.34747 0.58107
 C657 C 0.93630 0.32613 0.59064
 H658 H 0.94396 0.31811 0.60674
 O659 O 1.02170 0.61795 0.58501
 O660 O 1.02213 0.64620 0.61315
 C661 C 1.03028 0.63750 0.59351
 C662 C 1.05050 0.64978 0.58091
 C663 C 1.06025 0.67132 0.59023
 H664 H 1.05247 0.67957 0.60620
 O665 O 0.87720 0.41161 0.52112
 O666 O 0.84889 0.38345 0.52114
 C667 C 0.85746 0.40316 0.52932
 C668 C 0.84470 0.41618 0.54892
 C669 C 0.82143 0.40906 0.55627
 H670 H 0.81226 0.39429 0.54717
 O671 O 1.11972 0.58481 0.52142
 O672 O 1.14792 0.61308 0.52134
 C673 C 1.13943 0.59339 0.52957
 C674 C 1.15224 0.58056 0.54918
 C675 C 1.17535 0.58803 0.55667
 H676 H 1.18437 0.60293 0.54767
 O677 O 1.02160 0.58514 0.61819
 O678 O 1.02196 0.61332 0.64638
 C679 C 1.03011 0.59371 0.63772
 C680 C 1.05027 0.58125 0.65003
 C681 C 1.05996 0.59076 0.67149
 H682 H 1.05214 0.60673 0.67967
 O683 O 0.97483 0.41190 0.61895
 O684 O 0.97471 0.38367 0.64701
 C685 C 0.96651 0.40331 0.63855
 C686 C 0.94670 0.41602 0.65124
 C687 C 0.93887 0.40843 0.67417
 H688 H 0.94779 0.39356 0.68317
 O689 O 1.11976 0.52173 0.58542
 O690 O 1.14801 0.52199 0.61348
 C691 C 1.13948 0.53003 0.59378
 C692 C 1.15226 0.54956 0.58064
 C693 C 1.17536 0.55729 0.58787
 H694 H 1.18438 0.54856 0.60285
 O695 O 0.87766 0.47473 0.58547
 O696 O 0.84920 0.47480 0.61337
 C697 C 0.85780 0.46663 0.59372
 C698 C 0.84490 0.44722 0.58047
 C699 C 0.82163 0.43983 0.58754
 H700 H 0.81261 0.44872 0.60247
 O701 O 1.08622 0.61737 0.52151
 O702 O 1.11430 0.64574 0.52155
 C703 C 1.09469 0.63704 0.52983
 C704 C 1.08201 0.64953 0.54983
 C705 C 1.09144 0.67107 0.55948
 H706 H 1.10760 0.67914 0.55183
 O707 O 0.91071 0.37916 0.52131
 O708 O 0.88255 0.35086 0.52162
 C709 C 0.90217 0.35962 0.52982
 C710 C 0.91476 0.34738 0.54995
 C711 C 0.90519 0.32605 0.55989
 H712 H 0.88899 0.31796 0.55236
 O713 O 1.08652 0.47482 0.61867
 O714 O 1.11443 0.47512 0.64707
 C715 C 1.09479 0.46682 0.63849
 C716 C 1.08158 0.44735 0.65131
 C717 C 1.08882 0.43973 0.67439
 H718 H 1.10388 0.44850 0.68337
 O719 O 0.91086 0.52164 0.61890
 O720 O 0.88276 0.52159 0.64717
 C721 C 0.90245 0.52982 0.63863
 C722 C 0.91550 0.54947 0.65137
 C723 C 0.90818 0.55715 0.67444
 H724 H 0.89323 0.54826 0.68350
 O725 O 0.97456 0.61867 0.58562
 O726 O 0.97495 0.64695 0.61372
 C727 C 0.96661 0.63845 0.59409
 C728 C 0.94714 0.65136 0.58115
 C729 C 0.93955 0.67438 0.58871
 H730 H 0.94834 0.68324 0.60382
 O731 O 1.02201 0.37929 0.58548
 O732 O 1.02188 0.35096 0.61343
 C733 C 1.03025 0.35965 0.59389
 C734 C 1.05028 0.34721 0.58127
 C735 C 1.05981 0.32568 0.59059
 H736 H 1.05199 0.31754 0.60661
 O737 O 1.11975 0.41168 0.52152
 O738 O 1.14778 0.38348 0.52151
 C739 C 1.13937 0.40316 0.52973
 C740 C 1.15214 0.41607 0.54942
 C741 C 1.17523 0.40880 0.55694
 H742 H 1.18427 0.39399 0.54790
 O743 O 0.87873 0.58584 0.52172
 O744 O 0.85063 0.61396 0.52193
 C745 C 0.85919 0.59435 0.53014
 C746 C 0.84675 0.58176 0.55024
 C747 C 0.82543 0.59129 0.56011
 H748 H 0.81746 0.60743 0.55251
 Cu749 Cu 0.99845 0.39853 0.59936
 Cu750 Cu 0.99825 0.36452 0.63291
 Cu751 Cu 0.99794 0.59896 0.59904
 Cu752 Cu 0.99845 0.63282 0.63285
 Cu753 Cu 0.89674 0.39800 0.49760
 Cu754 Cu 0.86301 0.36397 0.49777
 Cu755 Cu 1.10012 0.39816 0.49800
 Cu756 Cu 1.13361 0.36416 0.49801
 Cu757 Cu 0.89789 0.59981 0.49812
 Cu758 Cu 0.86416 0.63357 0.49829
 Cu759 Cu 1.10015 0.59822 0.49789
 Cu760 Cu 1.13385 0.63229 0.49786
 Cu761 Cu 0.89720 0.49814 0.59932
 Cu762 Cu 0.86324 0.49819 0.63302
 Cu763 Cu 1.10021 0.49820 0.59906
 Cu764 Cu 1.13389 0.49860 0.63297
 C765 C 1.06196 0.43571 0.64007
 H766 H 1.05646 0.44130 0.62216
 C767 C 1.07670 0.42071 0.68593
 C768 C 0.93494 0.56131 0.64003
 H769 H 0.94050 0.55567 0.62213
 C770 C 0.92004 0.57641 0.68589
 C771 C 0.85706 0.56116 0.56090
 H772 H 0.87375 0.55396 0.55369
 C773 C 0.81480 0.58067 0.58041
 C774 C 1.14083 0.43534 0.56142
 H775 H 1.12292 0.44085 0.55588
 C776 C 1.18673 0.42056 0.57620
 C777 C 1.06118 0.35769 0.56080
 H778 H 1.05423 0.37452 0.55375
 C779 C 1.08001 0.31499 0.57988
 C780 C 0.93544 0.64027 0.56151
 H781 H 0.94099 0.62242 0.55577
 C782 C 0.92051 0.68600 0.57689
 C783 C 0.93482 0.43533 0.63995
 H784 H 0.94057 0.44108 0.62215
 C785 C 0.91942 0.41990 0.68555
 C786 C 1.06120 0.56088 0.63947
 H787 H 1.05413 0.55370 0.62269
 C788 C 1.08035 0.58036 0.68201
 C789 C 0.93544 0.35784 0.56053
 H790 H 0.94267 0.37455 0.55330
 C791 C 0.91587 0.31556 0.58017
 C792 C 1.06136 0.63914 0.56052
 H793 H 1.05423 0.62229 0.55347
 C794 C 1.08065 0.68184 0.57962
 C795 C 0.85617 0.43542 0.56100
 H796 H 0.87422 0.44082 0.55562
 C797 C 0.80991 0.42091 0.57542
 C798 C 1.14097 0.56117 0.56114
 H799 H 1.12304 0.55550 0.55564
 C800 C 1.18690 0.57638 0.57587
 O801 O 0.58594 1.02286 0.62129
 O802 O 0.61395 1.02299 0.64960
 C803 C 0.59433 1.03112 0.64101
 C804 C 0.58137 1.05075 0.65374
 C805 C 0.58843 1.05808 0.67700
 H806 H 0.60307 1.04893 0.68616
 O807 O 0.41258 0.97564 0.62132
 O808 O 0.38430 0.97568 0.64942
 C809 C 0.40395 0.96742 0.64096
 C810 C 0.41664 0.94768 0.65367
 C811 C 0.40904 0.93996 0.67664
 H812 H 0.39416 0.94892 0.68565
 O813 O 0.52319 1.12038 0.58800
 O814 O 0.52331 1.14868 0.61608
 C815 C 0.53143 1.14013 0.59637
 C816 C 0.55087 1.15300 0.58315
 C817 C 0.55817 1.17633 0.59012
 H818 H 0.54924 1.18540 0.60500
 O819 O 0.47539 0.87833 0.58809
 O820 O 0.47553 0.84996 0.61601
 C821 C 0.46731 0.85849 0.59639
 C822 C 0.44786 0.84558 0.58324
 C823 C 0.44029 0.82241 0.59043
 H824 H 0.44908 0.81344 0.60540
 O825 O 0.61885 1.08727 0.52385
 O826 O 0.64714 1.11543 0.52429
 C827 C 0.63836 1.09580 0.53244
 C828 C 0.65053 1.08323 0.55262
 C829 C 0.67185 1.09282 0.56257
 H830 H 0.67996 1.10898 0.55501
 O831 O 0.38005 0.91126 0.52395
 O832 O 0.35164 0.88321 0.52411
 C833 C 0.36039 0.90283 0.53233
 C834 C 0.34801 0.91556 0.55235
 C835 C 0.32641 0.90628 0.56199
 H836 H 0.31822 0.89019 0.55430
 O837 O 0.47602 1.08728 0.62110
 O838 O 0.47603 1.11533 0.64944
 C839 C 0.46782 1.09564 0.64083
 C840 C 0.44826 1.08246 0.65357
 C841 C 0.44065 1.08964 0.67672
 H842 H 0.44944 1.10466 0.68577
 O843 O 0.52228 0.91181 0.62124
 O844 O 0.52228 0.88380 0.64953
 C845 C 0.53047 0.90348 0.64096
 C846 C 0.55004 0.91662 0.65369
 C847 C 0.55755 0.90945 0.67681
 H848 H 0.54860 0.89456 0.68588
 O849 O 0.61927 0.97596 0.58818
 O850 O 0.64759 0.97626 0.61615
 C851 C 0.63906 0.96796 0.59651
 C852 C 0.65190 0.94849 0.58341
 C853 C 0.67493 0.94086 0.59081
 H854 H 0.68386 0.94962 0.60589
 O855 O 0.38010 1.02271 0.58781
 O856 O 0.35173 1.02276 0.61580
 C857 C 0.36046 1.03102 0.59623
 C858 C 0.34808 1.05101 0.58357
 C859 C 0.32644 1.06050 0.59280
 H860 H 0.31819 1.05269 0.60876
 O861 O 0.41310 1.12015 0.52398
 O862 O 0.38491 1.14819 0.52406
 C863 C 0.40459 1.13978 0.53224
 C864 C 0.41749 1.15261 0.55190
 C865 C 0.41023 1.17575 0.55932
 H866 H 0.39544 1.18473 0.55025
 O867 O 0.58643 0.87987 0.52383
 O868 O 0.61455 0.85176 0.52386
 C869 C 0.59494 0.86030 0.53215
 C870 C 0.58236 0.84781 0.55223
 C871 C 0.59189 0.82644 0.56192
 H872 H 0.60800 0.81847 0.55420
 O873 O 0.41292 1.02281 0.62112
 O874 O 0.38467 1.02279 0.64925
 C875 C 0.40438 1.03105 0.64078
 C876 C 0.41728 1.05078 0.65356
 C877 C 0.40994 1.05823 0.67670
 H878 H 0.39511 1.04911 0.68573
 O879 O 0.58592 0.97571 0.62112
 O880 O 0.61406 0.97587 0.64930
 C881 C 0.59438 0.96756 0.64080
 C882 C 0.58138 0.94794 0.65360
 C883 C 0.58863 0.94050 0.67673
 H884 H 0.60355 0.94948 0.68574
 O885 O 0.52248 0.87921 0.58773
 O886 O 0.52277 0.85105 0.61584
 C887 C 0.53098 0.85974 0.59622
 C888 C 0.55112 0.84754 0.58357
 C889 C 0.56097 0.82618 0.59294
 H890 H 0.55333 0.81800 0.60902
 O891 O 0.47613 1.12037 0.58811
 O892 O 0.47614 1.14866 0.61620
 C893 C 0.46796 1.14007 0.59653
 C894 C 0.44846 1.15277 0.58342
 C895 C 0.44093 1.17592 0.59058
 H896 H 0.44976 1.18503 0.60552
 O897 O 0.38029 1.08668 0.52399
 O898 O 0.35197 1.11458 0.52415
 C899 C 0.36064 1.09503 0.53236
 C900 C 0.34819 1.08230 0.55236
 C901 C 0.32655 1.09146 0.56190
 H902 H 0.31839 1.10742 0.55414
 O903 O 0.61968 0.91291 0.52390
 O904 O 0.64791 0.88492 0.52386
 C905 C 0.63934 0.90452 0.53212
 C906 C 0.65202 0.91747 0.55186
 C907 C 0.67503 0.91011 0.55952
 H908 H 0.68405 0.89524 0.55055
 O909 O 0.47521 0.91159 0.62108
 O910 O 0.47515 0.88345 0.64923
 C911 C 0.46698 0.90310 0.64074
 C912 C 0.44742 0.91608 0.65352
 C913 C 0.43956 0.90862 0.67648
 H914 H 0.44816 0.89350 0.68538
 O915 O 0.52307 1.08727 0.62103
 O916 O 0.52321 1.11531 0.64937
 C917 C 0.53127 1.09562 0.64077
 C918 C 0.55061 1.08240 0.65358
 C919 C 0.55796 1.08945 0.67685
 H920 H 0.54915 1.10440 0.68590
 O921 O 0.38012 0.97552 0.58768
 O922 O 0.35174 0.97550 0.61567
 C923 C 0.36045 0.96717 0.59611
 C924 C 0.34801 0.94704 0.58350
 C925 C 0.32640 0.93742 0.59281
 H926 H 0.31821 0.94524 0.60879
 O927 O 0.61854 1.02310 0.58777
 O928 O 0.64667 1.02350 0.61594
 C929 C 0.63804 1.03168 0.59633
 C930 C 0.65039 1.05190 0.58382
 C931 C 0.67171 1.06183 0.59342
 H932 H 0.67972 1.05421 0.60955
 O933 O 0.41257 0.87777 0.52386
 O934 O 0.38431 0.84956 0.52389
 C935 C 0.40401 0.85809 0.53208
 C936 C 0.41689 0.84538 0.55172
 C937 C 0.40958 0.82222 0.55917
 H938 H 0.39476 0.81310 0.55012
 O939 O 0.58642 1.12077 0.52366
 O940 O 0.61456 1.14909 0.52380
 C941 C 0.59485 1.14049 0.53193
 C942 C 0.58183 1.15321 0.55153
 C943 C 0.58886 1.17653 0.55879
 H944 H 0.60355 1.18573 0.54962
 Cu945 Cu 0.59960 0.99932 0.60179
 Cu946 Cu 0.63342 0.99966 0.63554
 Cu947 Cu 0.39927 0.99917 0.60169
 Cu948 Cu 0.36522 0.99920 0.63530
 Cu949 Cu 0.49960 1.10102 0.60175
 Cu950 Cu 0.49970 1.13483 0.63562
 Cu951 Cu 0.49878 0.89805 0.60173
 Cu952 Cu 0.49892 0.86420 0.63545
 C953 C 0.56229 1.06289 0.64228
 H954 H 0.55692 1.05751 0.62424
 C955 C 0.57671 1.07726 0.68854
 C956 C 0.43597 0.93575 0.64239
 H957 H 0.44175 0.94143 0.62457
 C958 C 0.42052 0.92058 0.68804
 C959 C 0.56268 1.14169 0.56370
 H960 H 0.55734 1.12360 0.55839
 C961 C 0.57700 1.18808 0.57791
 C962 C 0.43617 0.85679 0.56374
 H963 H 0.44171 0.87477 0.55828
 C964 C 0.42130 0.81074 0.57837
 C965 C 0.64004 1.06259 0.56323
 H966 H 0.62335 1.05535 0.55596
 C967 C 0.68229 1.08222 0.58290
 C968 C 0.35855 0.93613 0.56308
 H969 H 0.37544 0.94314 0.55605
 C970 C 0.31573 0.91712 0.58215
 C971 C 0.43659 1.06288 0.64226
 H972 H 0.44216 1.05741 0.62431
 C973 C 0.42164 1.07750 0.68827
 C974 C 0.56193 0.93602 0.64234
 H975 H 0.55641 0.94147 0.62440
 C976 C 0.57669 0.92140 0.68833
 C977 C 0.64072 0.93680 0.56379
 H978 H 0.62286 0.94238 0.55816
 C979 C 0.68648 0.92180 0.57884
 C980 C 0.35869 1.06189 0.56317
 H981 H 0.37560 1.05497 0.55620
 C982 C 0.31579 1.08065 0.58204
 C983 C 0.43675 1.14138 0.56393
 H984 H 0.44226 1.12342 0.55848
 C985 C 0.42197 1.18740 0.57850
 C986 C 0.56180 0.85809 0.56303
 H987 H 0.55460 0.87481 0.55595
 C988 C 0.58128 0.81575 0.58220
 O989 O 0.58669 0.97621 0.38067
 O990 O 0.61482 0.97623 0.35244
 C991 C 0.59518 0.96790 0.36105
 C992 C 0.58252 0.94784 0.34854
 C993 C 0.59194 0.93816 0.32704
 H994 H 0.60809 0.94586 0.31899
 O995 O 0.41298 1.02240 0.38021
 O996 O 0.38464 1.02250 0.35224
 C997 C 0.40432 1.03081 0.36074
 C998 C 0.41680 1.05100 0.34832
 C999 C 0.40735 1.06059 0.32685
 H1000 H 0.39137 1.05267 0.31871
 O1001 O 0.47615 1.12055 0.41319
 O1002 O 0.47623 1.14867 0.38502
 C1003 C 0.46799 1.14019 0.40470
 C1004 C 0.44835 1.15290 0.41764
 C1005 C 0.44053 1.17581 0.41012
 H1006 H 0.44930 1.18476 0.39505
 O1007 O 0.52238 0.87920 0.41302
 O1008 O 0.52275 0.85100 0.38484
 C1009 C 0.53089 0.85969 0.40449
 C1010 C 0.55099 0.84745 0.41710
 C1011 C 0.56068 0.82596 0.40777
 H1012 H 0.55291 0.81769 0.39178
 O1013 O 0.61994 0.91278 0.47676
 O1014 O 0.64814 0.88475 0.47677
 C1015 C 0.63965 0.90438 0.46856
 C1016 C 0.65245 0.91732 0.44893
 C1017 C 0.67536 0.90976 0.44107
 H1018 H 0.68424 0.89471 0.44980
 O1019 O 0.38028 1.08662 0.47685
 O1020 O 0.35195 1.11450 0.47691
 C1021 C 0.36061 1.09494 0.46861
 C1022 C 0.34810 1.08214 0.44866
 C1023 C 0.32651 1.09132 0.43909
 H1024 H 0.31841 1.10739 0.44678
 O1025 O 0.52322 1.08712 0.38053
 O1026 O 0.52336 1.11508 0.35220
 C1027 C 0.53158 1.09553 0.36089
 C1028 C 0.55158 1.08287 0.34847
 C1029 C 0.56117 1.09207 0.32684
 H1030 H 0.55341 1.10801 0.31862
 O1031 O 0.47527 0.91157 0.37953
 O1032 O 0.47555 0.88350 0.35121
 C1033 C 0.46721 0.90308 0.35976
 C1034 C 0.44759 0.91594 0.34700
 C1035 C 0.43956 0.90821 0.32416
 H1036 H 0.44815 0.89304 0.31528
 O1037 O 0.62001 1.02348 0.41359
 O1038 O 0.64829 1.02354 0.38549
 C1039 C 0.63973 1.03175 0.40515
 C1040 C 0.65249 1.05144 0.41812
 C1041 C 0.67561 1.05904 0.41080
 H1042 H 0.68464 1.05008 0.39591
 O1043 O 0.38000 0.97505 0.41331
 O1044 O 0.35170 0.97500 0.38530
 C1045 C 0.36035 0.96670 0.40485
 C1046 C 0.34786 0.94660 0.41741
 C1047 C 0.32625 0.93701 0.40810
 H1048 H 0.31809 0.94482 0.39215
 O1049 O 0.58675 1.12074 0.47653
 O1050 O 0.61506 1.14889 0.47666
 C1051 C 0.59538 1.14040 0.46836
 C1052 C 0.58256 1.15313 0.44869
 C1053 C 0.59010 1.17614 0.44095
 H1054 H 0.60515 1.18514 0.44973
 O1055 O 0.41247 0.87771 0.47672
 O1056 O 0.38418 0.84953 0.47675
 C1057 C 0.40386 0.85806 0.46846
 C1058 C 0.41663 0.84541 0.44864
 C1059 C 0.40906 0.82245 0.44075
 H1060 H 0.39410 0.81338 0.44961
 O1061 O 0.41245 0.97521 0.37954
 O1062 O 0.38426 0.97533 0.35143
 C1063 C 0.40388 0.96706 0.35985
 C1064 C 0.41661 0.94733 0.34703
 C1065 C 0.40882 0.93935 0.32419
 H1066 H 0.39377 0.94811 0.31533
 O1067 O 0.58690 1.02337 0.38058
 O1068 O 0.61503 1.02350 0.35235
 C1069 C 0.59542 1.03172 0.36097
 C1070 C 0.58282 1.05168 0.34851
 C1071 C 0.59211 1.06122 0.32689
 H1072 H 0.60811 1.05347 0.31871
 O1073 O 0.47525 0.87851 0.41266
 O1074 O 0.47556 0.85026 0.38453
 C1075 C 0.46722 0.85871 0.40418
 C1076 C 0.44765 0.84576 0.41712
 C1077 C 0.43984 0.82279 0.40950
 H1078 H 0.44856 0.81397 0.39434
 O1079 O 0.52325 1.12062 0.41319
 O1080 O 0.52334 1.14873 0.38501
 C1081 C 0.53153 1.14028 0.40467
 C1082 C 0.55123 1.15307 0.41755
 C1083 C 0.55901 1.17606 0.41008
 H1084 H 0.55015 1.18500 0.39512
 O1085 O 0.37983 0.91105 0.47682
 O1086 O 0.35141 0.88302 0.47684
 C1087 C 0.36015 0.90259 0.46854
 C1088 C 0.34774 0.91523 0.44854
 C1089 C 0.32614 0.90593 0.43890
 H1090 H 0.31792 0.88989 0.44659
 O1091 O 0.61975 1.08767 0.47674
 O1092 O 0.64826 1.11561 0.47706
 C1093 C 0.63963 1.09599 0.46874
 C1094 C 0.65246 1.08290 0.44923
 C1095 C 0.67559 1.09024 0.44164
 H1096 H 0.68461 1.10527 0.45045
 O1097 O 0.52239 0.91233 0.38016
 O1098 O 0.52275 0.88422 0.35189
 C1099 C 0.53091 0.90389 0.36060
 C1100 C 0.55106 0.91659 0.34831
 C1101 C 0.56079 0.90727 0.32682
 H1102 H 0.55302 0.89124 0.31860
 O1103 O 0.47610 1.08709 0.38045
 O1104 O 0.47610 1.11506 0.35214
 C1105 C 0.46781 1.09546 0.36081
 C1106 C 0.44781 1.08266 0.34837
 C1107 C 0.43805 1.09194 0.32691
 H1108 H 0.44565 1.10810 0.31881
 O1109 O 0.37992 1.02225 0.41331
 O1110 O 0.35153 1.02222 0.38540
 C1111 C 0.36026 1.03053 0.40495
 C1112 C 0.34790 1.05059 0.41760
 C1113 C 0.32631 1.06008 0.40837
 H1114 H 0.31804 1.05216 0.39246
 O1115 O 0.62018 0.97635 0.41333
 O1116 O 0.64842 0.97644 0.38521
 C1117 C 0.63987 0.96819 0.40485
 C1118 C 0.65257 0.94857 0.41773
 C1119 C 0.67548 0.94074 0.41012
 H1120 H 0.68445 0.94951 0.39506
 O1121 O 0.58647 0.87990 0.47665
 O1122 O 0.61456 0.85178 0.47659
 C1123 C 0.59497 0.86031 0.46831
 C1124 C 0.58235 0.84776 0.44827
 C1125 C 0.59173 0.82626 0.43861
 H1126 H 0.60780 0.81824 0.44630
 O1127 O 0.41287 1.12036 0.47684
 O1128 O 0.38465 1.14837 0.47696
 C1129 C 0.40431 1.13999 0.46867
 C1130 C 0.41717 1.15281 0.44899
 C1131 C 0.40959 1.17572 0.44121
 H1132 H 0.39457 1.18460 0.45005
 Cu1133 Cu 0.60063 0.99984 0.39987
 Cu1134 Cu 0.63442 0.99994 0.36599
 Cu1135 Cu 0.39918 0.99869 0.39938
 Cu1136 Cu 0.36517 0.99876 0.36581
 Cu1137 Cu 0.60010 1.10131 0.50011
 Cu1138 Cu 0.63413 1.13505 0.50047
 Cu1139 Cu 0.60032 0.89918 0.50027
 Cu1140 Cu 0.63406 0.86543 0.50027
 Cu1141 Cu 0.39948 1.10068 0.50039
 Cu1142 Cu 0.36548 1.13417 0.50054
 Cu1143 Cu 0.39908 0.89723 0.50033
 Cu1144 Cu 0.36499 0.86355 0.50042
 Cu1145 Cu 0.49966 1.10105 0.39968
 Cu1146 Cu 0.49977 1.13466 0.36570
 Cu1147 Cu 0.49871 0.89821 0.39916
 Cu1148 Cu 0.49916 0.86442 0.36528
 C1149 C 0.56189 0.93707 0.35892
 H1150 H 0.55478 0.94411 0.37573
 C1151 C 0.58116 0.91794 0.31630
 C1152 C 0.43721 1.06201 0.35880
 H1153 H 0.44435 1.05499 0.37558
 C1154 C 0.41790 1.08098 0.31625
 C1155 C 0.43669 1.14168 0.43721
 H1156 H 0.44242 1.12390 0.44292
 C1157 C 0.42129 1.18721 0.42191
 C1158 C 0.56180 0.85809 0.43754
 H1159 H 0.55472 0.87489 0.44459
 C1160 C 0.58097 0.81547 0.41843
 C1161 C 0.64133 0.93687 0.43729
 H1162 H 0.62355 0.94260 0.44306
 C1163 C 0.68687 0.92148 0.42180
 C1164 C 0.35853 1.06160 0.43794
 H1165 H 0.37541 1.05467 0.44491
 C1166 C 0.31572 1.08037 0.41902
 C1167 C 0.56237 1.06249 0.35903
 H1168 H 0.55536 1.05553 0.37593
 C1169 C 0.58135 1.08133 0.31617
 C1170 C 0.43613 0.93564 0.35814
 H1171 H 0.44202 0.94151 0.37586
 C1172 C 0.42031 0.91993 0.31276
 C1173 C 0.64117 1.06335 0.43748
 H1174 H 0.62323 1.05777 0.44303
 C1175 C 0.68715 1.07829 0.42256
 C1176 C 0.35833 0.93574 0.43781
 H1177 H 0.37521 0.94277 0.44484
 C1178 C 0.31550 0.91675 0.41875
 C1179 C 0.56299 1.14187 0.43700
 H1180 H 0.55725 1.12403 0.44268
 C1181 C 0.57829 1.18759 0.42178
 C1182 C 0.43606 0.85679 0.43683
 H1183 H 0.44179 0.87461 0.44262
 C1184 C 0.42069 0.81114 0.42132
 O1185 O 0.47381 0.41042 0.87631
 O1186 O 0.47359 0.38230 0.84804
 C1187 C 0.46553 0.40200 0.85662
 C1188 C 0.44606 0.41510 0.84390
 C1189 C 0.43859 0.40799 0.82069
 H1190 H 0.44745 0.39311 0.81158
 O1191 O 0.52119 0.58561 0.87761
 O1192 O 0.52163 0.61380 0.84952
 C1193 C 0.52975 0.59416 0.85812
 C1194 C 0.54985 0.58159 0.84575
 C1195 C 0.55981 0.59118 0.82447
 H1196 H 0.55232 0.60738 0.81651
 O1197 O 0.37735 0.47447 0.90940
 O1198 O 0.34905 0.47459 0.88140
 C1199 C 0.35756 0.46635 0.90102
 C1200 C 0.34467 0.44680 0.91405
 C1201 C 0.32153 0.43922 0.90675
 H1202 H 0.31258 0.44808 0.89180
 O1203 O 0.61819 0.52128 0.90990
 O1204 O 0.64647 0.52135 0.88180
 C1205 C 0.63792 0.52954 0.90148
 C1206 C 0.65067 0.54924 0.91445
 C1207 C 0.67377 0.55690 0.90712
 H1208 H 0.68284 0.54794 0.89226
 O1209 O 0.40973 0.37819 0.97348
 O1210 O 0.38168 0.34979 0.97361
 C1211 C 0.40135 0.35838 0.96537
 C1212 C 0.41441 0.34551 0.94585
 C1213 C 0.40722 0.32223 0.93859
 H1214 H 0.39237 0.31318 0.94767
 O1215 O 0.58522 0.61852 0.97364
 O1216 O 0.61326 0.64693 0.97380
 C1217 C 0.59359 0.63835 0.96560
 C1218 C 0.58046 0.65123 0.94622
 C1219 C 0.58767 0.67447 0.93891
 H1220 H 0.60262 0.68349 0.94784
 O1221 O 0.41078 0.52149 0.87636
 O1222 O 0.38279 0.52150 0.84804
 C1223 C 0.40245 0.52972 0.85666
 C1224 C 0.41551 0.54941 0.84401
 C1225 C 0.40832 0.55698 0.82091
 H1226 H 0.39348 0.54797 0.81178
 O1227 O 0.58480 0.47428 0.87669
 O1228 O 0.61273 0.47450 0.84825
 C1229 C 0.59309 0.46620 0.85687
 C1230 C 0.57997 0.44664 0.84406
 C1231 C 0.58711 0.43929 0.82083
 H1232 H 0.60196 0.44833 0.81177
 O1233 O 0.52070 0.37728 0.90928
 O1234 O 0.52057 0.34893 0.88125
 C1235 C 0.52880 0.35753 0.90089
 C1236 C 0.54830 0.34481 0.91397
 C1237 C 0.55572 0.32160 0.90687
 H1238 H 0.54679 0.31245 0.89202
 O1239 O 0.47395 0.61896 0.91016
 O1240 O 0.47413 0.64714 0.88206
 C1241 C 0.46584 0.63864 0.90171
 C1242 C 0.44628 0.65141 0.91471
 C1243 C 0.43866 0.67445 0.90735
 H1244 H 0.44747 0.68342 0.89233
 O1245 O 0.37807 0.58554 0.97393
 O1246 O 0.34979 0.61347 0.97382
 C1247 C 0.35849 0.59393 0.96553
 C1248 C 0.34617 0.58130 0.94537
 C1249 C 0.32475 0.59067 0.93564
 H1250 H 0.31662 0.60669 0.94340
 O1251 O 0.61754 0.41065 0.97285
 O1252 O 0.64563 0.38252 0.97304
 C1253 C 0.63722 0.40214 0.96473
 C1254 C 0.65009 0.41500 0.94508
 C1255 C 0.67306 0.40750 0.93735
 H1256 H 0.68194 0.39250 0.94618
 O1257 O 0.47407 0.58580 0.87703
 O1258 O 0.47441 0.61378 0.84872
 C1259 C 0.46608 0.59413 0.85723
 C1260 C 0.44662 0.58098 0.84431
 C1261 C 0.43915 0.58827 0.82120
 H1262 H 0.44802 0.60330 0.81229
 O1263 O 0.52090 0.41054 0.87646
 O1264 O 0.52079 0.38245 0.84816
 C1265 C 0.52908 0.40212 0.85674
 C1266 C 0.54869 0.41523 0.84399
 C1267 C 0.55610 0.40815 0.82075
 H1268 H 0.54712 0.39329 0.81163
 O1269 O 0.61804 0.47415 0.90960
 O1270 O 0.64617 0.47419 0.88137
 C1271 C 0.63765 0.46593 0.90102
 C1272 C 0.65030 0.44624 0.91386
 C1273 C 0.67328 0.43849 0.90639
 H1274 H 0.68233 0.44732 0.89142
 O1275 O 0.37807 0.52161 0.90980
 O1276 O 0.34994 0.52182 0.88162
 C1277 C 0.35857 0.53004 0.90128
 C1278 C 0.34622 0.55012 0.91393
 C1279 C 0.32481 0.55984 0.90451
 H1280 H 0.31672 0.55218 0.88839
 O1281 O 0.41079 0.61909 0.97409
 O1282 O 0.38263 0.64715 0.97408
 C1283 C 0.40231 0.63872 0.96587
 C1284 C 0.41523 0.65147 0.94620
 C1285 C 0.40786 0.67449 0.93858
 H1286 H 0.39299 0.68349 0.94756
 O1287 O 0.58413 0.37769 0.97292
 O1288 O 0.61203 0.34937 0.97314
 C1289 C 0.59246 0.35791 0.96485
 C1290 C 0.57944 0.34502 0.94531
 C1291 C 0.58659 0.32183 0.93796
 H1292 H 0.60141 0.31285 0.94699
 O1293 O 0.58477 0.52145 0.87728
 O1294 O 0.61291 0.52175 0.84905
 C1295 C 0.59334 0.52997 0.85777
 C1296 C 0.58089 0.55019 0.84556
 C1297 C 0.59051 0.56011 0.82427
 H1298 H 0.60659 0.55246 0.81615
 O1299 O 0.41064 0.47434 0.87646
 O1300 O 0.38255 0.47435 0.84825
 C1301 C 0.40216 0.46612 0.85677
 C1302 C 0.41505 0.44649 0.84398
 C1303 C 0.40785 0.43910 0.82078
 H1304 H 0.39308 0.44815 0.81173
 O1305 O 0.52107 0.61896 0.91040
 O1306 O 0.52126 0.64730 0.88245
 C1307 C 0.52937 0.63870 0.90209
 C1308 C 0.54900 0.65141 0.91518
 C1309 C 0.55649 0.67465 0.90814
 H1310 H 0.54749 0.68379 0.89340
 O1311 O 0.47361 0.37770 0.90965
 O1312 O 0.47337 0.34932 0.88164
 C1313 C 0.46525 0.35799 0.90131
 C1314 C 0.44563 0.34533 0.91449
 C1315 C 0.43816 0.32206 0.90751
 H1316 H 0.44710 0.31288 0.89271
 O1317 O 0.61809 0.58527 0.97336
 O1318 O 0.64634 0.61348 0.97334
 C1319 C 0.63778 0.59377 0.96512
 C1320 C 0.65055 0.58076 0.94552
 C1321 C 0.67365 0.58815 0.93791
 H1322 H 0.68264 0.60319 0.94673
 O1323 O 0.37676 0.41128 0.97334
 O1324 O 0.34849 0.38309 0.97326
 C1325 C 0.35709 0.40276 0.96506
 C1326 C 0.34445 0.41566 0.94539
 C1327 C 0.32132 0.40835 0.93782
 H1328 H 0.31220 0.39348 0.94676
 Cu1329 Cu 0.49728 0.39679 0.89573
 Cu1330 Cu 0.49706 0.36291 0.86194
 Cu1331 Cu 0.49749 0.59953 0.89662
 Cu1332 Cu 0.49786 0.63331 0.86283
 Cu1333 Cu 0.39703 0.49794 0.89581
 Cu1334 Cu 0.36323 0.49805 0.86202
 Cu1335 Cu 0.59865 0.49773 0.89620
 Cu1336 Cu 0.63236 0.49794 0.86225
 C1337 C 0.43430 0.43450 0.85529
 H1338 H 0.43978 0.43992 0.87328
 C1339 C 0.41964 0.42001 0.80914
 C1340 C 0.56037 0.56091 0.85605
 H1341 H 0.55309 0.55366 0.87271
 C1342 C 0.58007 0.58054 0.81386
 C1343 C 0.35586 0.43504 0.93352
 H1344 H 0.37381 0.44059 0.93907
 C1345 C 0.30987 0.42015 0.91866
 C1346 C 0.63932 0.56116 0.93381
 H1347 H 0.62140 0.55553 0.93938
 C1348 C 0.68526 0.57620 0.91887
 C1349 C 0.43377 0.35681 0.93381
 H1350 H 0.43925 0.37486 0.93912
 C1351 C 0.41911 0.31052 0.91959
 C1352 C 0.56097 0.63996 0.93437
 H1353 H 0.55548 0.62194 0.93971
 C1354 C 0.57567 0.68617 0.92002
 C1355 C 0.43481 0.56139 0.85545
 H1356 H 0.44027 0.55585 0.87339
 C1357 C 0.42015 0.57625 0.80951
 C1358 C 0.56061 0.43462 0.85538
 H1359 H 0.55519 0.44002 0.87340
 C1360 C 0.57516 0.42021 0.80919
 C1361 C 0.56015 0.35625 0.93334
 H1362 H 0.55471 0.37425 0.93874
 C1363 C 0.57472 0.31012 0.91890
 C1364 C 0.43458 0.64020 0.93428
 H1365 H 0.44016 0.62233 0.93988
 C1366 C 0.41959 0.68598 0.91931
 C1367 C 0.35665 0.56084 0.93453
 H1368 H 0.37341 0.55376 0.94164
 C1369 C 0.31420 0.58005 0.91529
 C1370 C 0.63898 0.43450 0.93334
 H1371 H 0.62115 0.44019 0.93901
 C1372 C 0.68466 0.41926 0.91816
 O1373 O 0.52072 0.41181 1.11816
 O1374 O 0.52067 0.38364 1.14628
 C1375 C 0.52893 0.40333 1.13780
 C1376 C 0.54862 0.41630 1.15054
 C1377 C 0.55634 0.40887 1.17353
 H1378 H 0.54747 0.39387 1.18251
 O1379 O 0.47321 0.58553 1.11798
 O1380 O 0.47353 0.61363 1.14626
 C1381 C 0.46516 0.59397 1.13775
 C1382 C 0.44557 0.58098 1.15062
 C1383 C 0.43794 0.58846 1.17365
 H1384 H 0.44678 0.60354 1.18254
 O1385 O 0.37737 0.52159 1.08490
 O1386 O 0.34905 0.52176 1.11295
 C1387 C 0.35781 0.53000 1.09337
 C1388 C 0.34555 0.55008 1.08073
 C1389 C 0.32410 0.55982 1.09011
 H1390 H 0.31591 0.55216 1.10617
 O1391 O 0.61711 0.47486 1.08409
 O1392 O 0.64527 0.47475 1.11224
 C1393 C 0.63661 0.46646 1.09263
 C1394 C 0.64894 0.44635 1.08003
 C1395 C 0.67031 0.43658 1.08949
 H1396 H 0.67838 0.44424 1.10563
 O1397 O 0.58388 0.37817 1.02008
 O1398 O 0.61185 0.34992 1.02032
 C1399 C 0.59229 0.35863 1.02856
 C1400 C 0.57969 0.34639 1.04877
 C1401 C 0.58897 0.32492 1.05848
 H1402 H 0.60489 0.31666 1.05064
 O1403 O 0.41050 0.61922 1.02123
 O1404 O 0.38232 0.64726 1.02119
 C1405 C 0.40194 0.63884 1.02947
 C1406 C 0.41470 0.65157 1.04929
 C1407 C 0.40704 0.67440 1.05732
 H1408 H 0.39203 0.68332 1.04855
 O1409 O 0.40974 0.47446 1.11832
 O1410 O 0.38146 0.47436 1.14641
 C1411 C 0.40117 0.46623 1.13796
 C1412 C 0.41413 0.44670 1.15074
 C1413 C 0.40669 0.43896 1.17376
 H1414 H 0.39162 0.44765 1.18272
 O1415 O 0.58448 0.52229 1.11712
 O1416 O 0.61279 0.52258 1.14511
 C1417 C 0.59313 0.53075 1.13663
 C1418 C 0.58057 0.55075 1.14916
 C1419 C 0.59000 0.56047 1.17064
 H1420 H 0.60613 0.55287 1.17865
 O1421 O 0.47346 0.37908 1.08472
 O1422 O 0.47332 0.35078 1.11271
 C1423 C 0.46506 0.35945 1.09315
 C1424 C 0.44496 0.34700 1.08053
 C1425 C 0.43522 0.32551 1.08992
 H1426 H 0.44293 0.31742 1.10596
 O1427 O 0.52046 0.61817 1.08441
 O1428 O 0.52083 0.64641 1.11255
 C1429 C 0.52903 0.63771 1.09292
 C1430 C 0.54929 0.64999 1.08038
 C1431 C 0.55912 0.67142 1.08987
 H1432 H 0.55135 0.67960 1.10588
 O1433 O 0.37649 0.41136 1.02050
 O1434 O 0.34810 0.38329 1.02042
 C1435 C 0.35672 0.40294 1.02868
 C1436 C 0.34400 0.41589 1.04836
 C1437 C 0.32083 0.40857 1.05587
 H1438 H 0.31171 0.39375 1.04681
 O1439 O 0.61841 0.58537 1.02048
 O1440 O 0.64679 0.61346 1.02047
 C1441 C 0.63818 0.59379 1.02865
 C1442 C 0.65090 0.58080 1.04823
 C1443 C 0.67398 0.58819 1.05588
 H1444 H 0.68305 0.60315 1.04703
 O1445 O 0.52037 0.58554 1.11775
 O1446 O 0.52072 0.61372 1.14595
 C1447 C 0.52889 0.59412 1.13728
 C1448 C 0.54906 0.58165 1.14954
 C1449 C 0.55880 0.59106 1.17102
 H1450 H 0.55100 0.60698 1.17930
 O1451 O 0.47357 0.41160 1.11836
 O1452 O 0.47355 0.38342 1.14648
 C1453 C 0.46534 0.40305 1.13802
 C1454 C 0.44563 0.41583 1.15079
 C1455 C 0.43795 0.40836 1.17381
 H1456 H 0.44690 0.39350 1.18280
 O1457 O 0.61797 0.52200 1.08437
 O1458 O 0.64641 0.52193 1.11223
 C1459 C 0.63782 0.53011 1.09263
 C1460 C 0.65071 0.54962 1.07953
 C1461 C 0.67379 0.55728 1.08690
 H1462 H 0.68272 0.54848 1.10190
 O1463 O 0.37686 0.47447 1.08501
 O1464 O 0.34835 0.47453 1.11287
 C1465 C 0.35701 0.46633 1.09324
 C1466 C 0.34418 0.44685 1.08000
 C1467 C 0.32102 0.43926 1.08721
 H1468 H 0.31204 0.44802 1.10225
 O1469 O 0.58492 0.61788 1.02076
 O1470 O 0.61316 0.64610 1.02102
 C1471 C 0.59350 0.63743 1.02925
 C1472 C 0.58087 0.64982 1.04935
 C1473 C 0.59039 0.67124 1.05919
 H1474 H 0.60660 0.67929 1.05164
 O1475 O 0.40979 0.37868 1.02065
 O1476 O 0.38153 0.35047 1.02085
 C1477 C 0.40116 0.35915 1.02911
 C1478 C 0.41368 0.34685 1.04926
 C1479 C 0.40424 0.32537 1.05901
 H1480 H 0.38817 0.31718 1.05132
 O1481 O 0.58468 0.47517 1.11786
 O1482 O 0.61273 0.47542 1.14612
 C1483 C 0.59306 0.46713 1.13763
 C1484 C 0.58000 0.44757 1.15047
 C1485 C 0.58747 0.43988 1.17346
 H1486 H 0.60253 0.44871 1.18239
 O1487 O 0.40986 0.52156 1.11845
 O1488 O 0.38169 0.52153 1.14666
 C1489 C 0.40138 0.52978 1.13814
 C1490 C 0.41436 0.54951 1.15085
 C1491 C 0.40700 0.55726 1.17389
 H1492 H 0.39207 0.54836 1.18296
 O1493 O 0.47331 0.61891 1.08514
 O1494 O 0.47363 0.64718 1.11324
 C1495 C 0.46529 0.63865 1.09362
 C1496 C 0.44572 0.65145 1.08074
 C1497 C 0.43781 0.67428 1.08851
 H1498 H 0.44646 0.68311 1.10372
 O1499 O 0.52061 0.37893 1.08476
 O1500 O 0.52057 0.35065 1.11275
 C1501 C 0.52884 0.35928 1.09315
 C1502 C 0.54872 0.34675 1.08039
 C1503 C 0.55833 0.32527 1.08976
 H1504 H 0.55070 0.31727 1.10594
 O1505 O 0.61710 0.41114 1.02000
 O1506 O 0.64514 0.38296 1.02023
 C1507 C 0.63660 0.40260 1.02845
 C1508 C 0.64898 0.41518 1.04860
 C1509 C 0.67034 0.40572 1.05839
 H1510 H 0.67843 0.38966 1.05066
 O1511 O 0.37790 0.58554 1.02111
 O1512 O 0.34960 0.61346 1.02110
 C1513 C 0.35824 0.59392 1.02940
 C1514 C 0.34575 0.58130 1.04944
 C1515 C 0.32430 0.59071 1.05914
 H1516 H 0.31626 0.60677 1.05143
 Cu1517 Cu 0.49712 0.39820 1.09871
 Cu1518 Cu 0.49704 0.36424 1.13232
 Cu1519 Cu 0.49672 0.59921 1.09850
 Cu1520 Cu 0.49717 0.63307 1.13232
 Cu1521 Cu 0.39600 0.39770 0.99696
 Cu1522 Cu 0.36214 0.36380 0.99701
 Cu1523 Cu 0.59787 0.39724 0.99637
 Cu1524 Cu 0.63147 0.36336 0.99666
 Cu1525 Cu 0.39715 0.59957 0.99760
 Cu1526 Cu 0.36319 0.63309 0.99754
 Cu1527 Cu 0.59886 0.59894 0.99701
 Cu1528 Cu 0.63270 0.63285 0.99714
 Cu1529 Cu 0.39630 0.49797 1.09889
 Cu1530 Cu 0.36226 0.49801 1.13251
 Cu1531 Cu 0.59824 0.49858 1.09806
 Cu1532 Cu 0.63214 0.49869 1.13173
 C1533 C 0.56043 0.43580 1.13930
 H1534 H 0.55476 0.44143 1.12146
 C1535 C 0.57562 0.42067 1.18498
 C1536 C 0.43379 0.56136 1.13948
 H1537 H 0.43939 0.55568 1.12161
 C1538 C 0.41880 0.57659 1.18528
 C1539 C 0.35612 0.56079 1.06022
 H1540 H 0.37290 0.55368 1.05314
 C1541 C 0.31360 0.58007 1.07940
 C1542 C 0.63855 0.43567 1.05940
 H1543 H 0.62184 0.44281 1.05225
 C1544 C 0.68089 0.41634 1.07877
 C1545 C 0.55938 0.35705 1.05971
 H1546 H 0.55238 0.37384 1.05262
 C1547 C 0.57838 0.31447 1.07890
 C1548 C 0.43418 0.64038 1.06099
 H1549 H 0.43999 0.62266 1.05510
 C1550 C 0.41860 0.68575 1.07679
 C1551 C 0.43374 0.43515 1.13953
 H1552 H 0.43939 0.44082 1.12167
 C1553 C 0.41863 0.41993 1.18529
 C1554 C 0.55992 0.56131 1.13888
 H1555 H 0.55279 0.55421 1.12208
 C1556 C 0.57919 0.58055 1.18147
 C1557 C 0.43422 0.35741 1.06002
 H1558 H 0.44135 0.37421 1.05291
 C1559 C 0.41493 0.31482 1.07926
 C1560 C 0.56015 0.63944 1.05994
 H1561 H 0.55296 0.62268 1.05277
 C1562 C 0.57960 0.68192 1.07938
 C1563 C 0.35541 0.43518 1.06042
 H1564 H 0.37338 0.44074 1.05493
 C1565 C 0.30936 0.42027 1.07514
 C1566 C 0.63953 0.56135 1.06003
 H1567 H 0.62161 0.55575 1.05445
 C1568 C 0.68542 0.57642 1.07508
 C1569 C 1.13782 1.13637 1.27425
 N1570 N 1.14657 1.11557 1.26477
 N1571 N 1.13430 1.10380 1.24769
 C1572 C 1.11291 1.11247 1.23962
 N1573 N 1.10413 1.13324 1.24915
 N1574 N 1.11641 1.14501 1.26622
 C1575 C 1.15166 1.14976 1.29161
 C1576 C 1.16348 1.16140 1.30576
 C1577 C 1.10054 1.10068 1.22014
 C1578 C 1.09067 1.09116 1.20322
 C1579 C 1.13837 0.63921 0.77217
 N1580 N 1.14678 0.61774 0.76397
 N1581 N 1.13456 0.60539 0.74728
 C1582 C 1.11355 0.61412 0.73834
 N1583 N 1.10511 0.63557 0.74659
 N1584 N 1.11733 0.64792 0.76328
 C1585 C 1.15211 0.65306 0.78921
 C1586 C 1.16390 0.66489 0.80321
 C1587 C 1.10128 0.60167 0.71924
 C1588 C 1.09146 0.59167 0.70259
 C1589 C 0.61052 1.11059 0.80163
 N1590 N 0.61834 1.08950 0.79196
 N1591 N 0.61186 1.08309 0.76967
 C1592 C 0.59734 1.09758 0.75637
 N1593 N 0.58953 1.11869 0.76603
 N1594 N 0.59602 1.12509 0.78832
 C1595 C 0.61715 1.11728 0.82579
 C1596 C 0.62255 1.12278 0.84619
 C1597 C 0.59014 1.09054 0.73247
 C1598 C 0.58403 1.08453 0.71243
 C1599 C 0.63650 0.63808 1.27307
 N1600 N 0.61566 0.64705 1.26394
 N1601 N 0.60361 0.63498 1.24692
 C1602 C 0.61203 0.61358 1.23853
 N1603 N 0.63284 0.60458 1.24770
 N1604 N 0.64488 0.61665 1.26473
 C1605 C 0.65018 0.65171 1.29037
 C1606 C 0.66199 0.66342 1.30446
 C1607 C 0.59994 0.60140 1.21910
 C1608 C 0.59023 0.59163 1.20224
 C1609 C 0.88372 0.88394 1.29812
 N1610 N 0.90173 0.87219 1.28641
 N1611 N 0.90846 0.87900 1.26431
 C1612 C 0.89740 0.89779 1.25326
 N1613 N 0.87938 0.90953 1.26495
 N1614 N 0.87265 0.90272 1.28705
 C1615 C 0.87692 0.87703 1.32219
 C1616 C 0.87147 0.87148 1.34257
 C1617 C 0.90493 0.90539 1.22961
 C1618 C 0.91134 0.91185 1.20980
 C1619 C 0.88337 0.38348 0.79703
 N1620 N 0.90251 0.37289 0.78604
 N1621 N 0.90939 0.37983 0.76403
 C1622 C 0.89735 0.39760 0.75234
 N1623 N 0.87819 0.40818 0.76331
 N1624 N 0.87131 0.40124 0.78532
 C1625 C 0.87638 0.37648 0.82102
 C1626 C 0.87073 0.37091 0.84134
 C1627 C 0.90501 0.40537 0.72879
 C1628 C 0.91154 0.41197 0.70907
 C1629 C 0.38423 0.88488 0.79964
 N1630 N 0.40224 0.87304 0.78803
 N1631 N 0.40917 0.87987 0.76600
 C1632 C 0.39831 0.89876 0.75492
 N1633 N 0.38028 0.91058 0.76652
 N1634 N 0.37335 0.90375 0.78855
 C1635 C 0.37722 0.87793 0.82364
 C1636 C 0.37160 0.87232 0.84395
 C1637 C 0.40603 0.90636 0.73134
 C1638 C 0.41260 0.91282 0.71159
 C1639 C 0.38410 0.38382 1.29734
 N1640 N 0.40380 0.37405 1.28656
 N1641 N 0.41032 0.38093 1.26442
 C1642 C 0.39737 0.39783 1.25240
 N1643 N 0.37767 0.40758 1.26317
 N1644 N 0.37114 0.40069 1.28531
 C1645 C 0.37750 0.37695 1.32148
 C1646 C 0.37213 0.37156 1.34192
 C1647 C 0.40467 0.40557 1.22873
 C1648 C 0.41095 0.41212 1.20891
 C1649 C 0.85720 1.14082 0.72714
 N1650 N 0.87863 1.14899 0.73579
 N1651 N 0.89078 1.13618 0.75207
 C1652 C 0.88187 1.11480 0.76012
 N1653 N 0.86047 1.10660 0.75141
 N1654 N 0.84832 1.11941 0.73514
 C1655 C 0.84356 1.15512 0.71054
 C1656 C 0.83180 1.16724 0.69690
 C1657 C 0.89408 1.10191 0.77884
 C1658 C 0.90393 1.09164 0.79522
 C1659 C 0.88382 0.61166 0.19856
 N1660 N 0.87282 0.59286 0.20983
 N1661 N 0.87975 0.58618 0.23188
 C1662 C 0.89791 0.59809 0.24332
 N1663 N 0.90889 0.61691 0.23206
 N1664 N 0.90196 0.62358 0.21001
 C1665 C 0.87682 0.61842 0.17453
 C1666 C 0.87126 0.62387 0.15417
 C1667 C 0.90563 0.59063 0.26691
 C1668 C 0.91215 0.58425 0.28668
 C1669 C 0.35983 1.13777 0.22518
 N1670 N 0.35128 1.11652 0.23390
 N1671 N 0.36350 1.10457 0.25079
 C1672 C 0.38463 1.11352 0.25943
 N1673 N 0.39322 1.13475 0.25065
 N1674 N 0.38100 1.14669 0.23377
 C1675 C 0.34601 1.15131 0.20806
 C1676 C 0.33411 1.16297 0.19412
 C1677 C 0.39691 1.10153 0.27874
 C1678 C 0.40675 1.09191 0.29554
 C1679 C 0.38545 0.61120 0.69733
 N1680 N 0.40309 0.62344 0.70922
 N1681 N 0.40973 0.61675 0.73135
 C1682 C 0.39895 0.59760 0.74226
 N1683 N 0.38131 0.58537 0.73037
 N1684 N 0.37467 0.59206 0.70824
 C1685 C 0.37869 0.61806 0.67327
 C1686 C 0.37326 0.62364 0.65293
 C1687 C 0.40635 0.59018 0.76596
 C1688 C 0.41262 0.58386 0.78582
 C1689 C 1.13719 0.85908 0.72441
 N1690 N 1.14558 0.88063 0.73260
 N1691 N 1.13335 0.89287 0.74932
 C1692 C 1.11235 0.88394 0.75831
 N1693 N 1.10393 0.86242 0.75008
 N1694 N 1.11616 0.85018 0.73335
 C1695 C 1.15101 0.84531 0.70743
 C1696 C 1.16292 0.83352 0.69355
 C1697 C 1.10011 0.89625 0.77749
 C1698 C 1.09029 0.90612 0.79420
 C1699 C 1.11076 0.38578 0.19743
 N1700 N 1.09369 0.37298 0.20954
 N1701 N 1.08703 0.37952 0.23175
 C1702 C 1.09723 0.39908 0.24252
 N1703 N 1.11433 0.41187 0.23041
 N1704 N 1.12098 0.40532 0.20821
 C1705 C 1.11750 0.37909 0.17328
 C1706 C 1.12290 0.37367 0.15285
 C1707 C 1.08980 0.40636 0.26629
 C1708 C 1.08353 0.41260 0.28621
 C1709 C 0.63781 0.85863 0.22573
 N1710 N 0.64704 0.87971 0.23423
 N1711 N 0.63520 0.89228 0.25100
 C1712 C 0.61377 0.88414 0.25972
 N1713 N 0.60451 0.86309 0.25117
 N1714 N 0.61634 0.85052 0.23441
 C1715 C 0.65117 0.84448 0.20868
 C1716 C 0.66274 0.83245 0.19473
 C1717 C 0.60188 0.89676 0.27892
 C1718 C 0.59224 0.90678 0.29565
 C1719 C 0.61003 0.38772 0.69617
 N1720 N 0.59486 0.37330 0.70899
 N1721 N 0.58813 0.37947 0.73127
 C1722 C 0.59634 0.40025 0.74142
 N1723 N 0.61152 0.41466 0.72861
 N1724 N 0.61826 0.40849 0.70632
 C1725 C 0.61689 0.38132 0.67199
 C1726 C 0.62240 0.37604 0.65156
 C1727 C 0.58887 0.40707 0.76530
 C1728 C 0.58259 0.41296 0.78532
 C1729 C 1.27288 1.13766 1.13922
 N1730 N 1.26541 1.14591 1.11743
 N1731 N 1.24845 1.13403 1.10509
 C1732 C 1.23849 1.11355 1.11415
 N1733 N 1.24600 1.10527 1.13591
 N1734 N 1.26296 1.11714 1.14826
 C1735 C 1.29015 1.15115 1.15307
 C1736 C 1.30428 1.16285 1.16485
 C1737 C 1.21915 1.10166 1.10165
 C1738 C 1.20234 1.09206 1.09165
 C1739 C 1.29918 0.61165 0.61087
 N1740 N 1.28843 0.62215 0.59157
 N1741 N 1.26626 0.61547 0.58485
 C1742 C 1.25419 0.59805 0.59721
 N1743 N 1.26494 0.58756 0.61651
 N1744 N 1.28710 0.59425 0.62323
 C1745 C 1.32329 0.61842 0.61773
 C1746 C 1.34369 0.62386 0.62328
 C1747 C 1.23047 0.59056 0.58974
 C1748 C 1.21060 0.58414 0.58342
 C1749 C 0.77125 1.14169 0.64215
 N1750 N 0.76262 1.12043 0.65080
 N1751 N 0.74617 1.10794 0.63838
 C1752 C 0.73791 1.11632 0.61694
 N1753 N 0.74658 1.13755 0.60827
 N1754 N 0.76304 1.15004 0.62068
 C1755 C 0.78815 1.15561 0.65598
 C1756 C 0.80212 1.16747 0.66777
 C1757 C 0.71908 1.10373 0.60440
 C1758 C 0.70265 1.09362 0.59432
 C1759 C 0.79728 0.61150 1.11165
 N1760 N 0.78597 0.62342 1.09352
 N1761 N 0.76391 0.61675 1.08647
 C1762 C 0.75247 0.59795 1.09731
 N1763 N 0.76377 0.58604 1.11544
 N1764 N 0.78583 0.59270 1.12249
 C1765 C 0.82131 0.61827 1.11879
 C1766 C 0.84166 0.62377 1.12446
 C1767 C 0.72885 0.59052 1.08947
 C1768 C 0.70905 0.58416 1.08288
 C1769 C 1.29757 0.88479 0.88602
 N1770 N 1.29050 0.88333 0.90944
 N1771 N 1.26842 0.89029 0.91600
 C1772 C 1.25274 0.89896 0.89937
 N1773 N 1.25980 0.90042 0.87594
 N1774 N 1.28189 0.89345 0.86937
 C1775 C 1.32157 0.87781 0.87910
 C1776 C 1.34189 0.87222 0.87356
 C1777 C 1.22906 0.90669 0.90655
 C1778 C 1.20922 0.91318 0.91277
 C1779 C 1.29818 0.38414 0.38397
 N1780 N 1.28707 0.37348 0.40306
 N1781 N 1.26498 0.38031 0.40972
 C1782 C 1.25333 0.39802 0.39753
 N1783 N 1.26444 0.40865 0.37844
 N1784 N 1.28653 0.40183 0.37177
 C1785 C 1.32224 0.37724 0.37719
 C1786 C 1.34260 0.37175 0.37169
 C1787 C 1.22970 0.40565 0.40498
 C1788 C 1.20991 0.41213 0.41136
 C1789 C 0.79790 0.88442 0.38530
 N1790 N 0.78631 0.90226 0.37324
 N1791 N 0.76440 0.90936 0.38021
 C1792 C 0.75342 0.89888 0.39947
 N1793 N 0.76500 0.88103 0.41150
 N1794 N 0.78691 0.87393 0.40454
 C1795 C 0.82180 0.87725 0.37821
 C1796 C 0.84205 0.87155 0.37248
 C1797 C 0.72997 0.90680 0.40721
 C1798 C 0.71032 0.91350 0.41382
 C1799 C 0.79648 0.38337 0.88300
 N1800 N 0.78528 0.40181 0.87148
 N1801 N 0.76320 0.40866 0.87815
 C1802 C 0.75164 0.39731 0.89656
 N1803 N 0.76283 0.37886 0.90806
 N1804 N 0.78491 0.37201 0.90139
 C1805 C 0.82054 0.37644 0.87626
 C1806 C 0.84091 0.37090 0.87083
 C1807 C 0.72802 0.40496 0.90403
 C1808 C 0.70824 0.41146 0.91042
 C1809 C 0.72342 0.85766 1.13966
 N1810 N 0.73177 0.84908 1.11829
 N1811 N 0.74850 0.86131 1.10598
 C1812 C 0.75732 0.88249 1.11466
 N1813 N 0.74891 0.89110 1.13601
 N1814 N 0.73219 0.87887 1.14831
 C1815 C 0.70632 0.84393 1.15346
 C1816 C 0.69227 0.83219 1.16527
 C1817 C 0.77644 0.89480 1.10226
 C1818 C 0.79310 0.90467 1.09229
 C1819 C 0.69678 0.38778 0.60979
 N1820 N 0.70836 0.40630 0.62100
 N1821 N 0.73067 0.41258 0.61439
 C1822 C 0.74208 0.40055 0.59635
 N1823 N 0.73052 0.38202 0.58515
 N1824 N 0.70820 0.37574 0.59177
 C1825 C 0.67256 0.38133 0.61656
 C1826 C 0.65209 0.37603 0.62200
 C1827 C 0.76599 0.40755 0.58900
 C1828 C 0.78602 0.41357 0.58280
 C1829 C 0.22426 0.85925 0.63930
 N1830 N 0.23335 0.88013 0.64844
 N1831 N 0.25032 0.89235 0.63645
 C1832 C 0.25866 0.88407 0.61495
 N1833 N 0.24953 0.86322 0.60578
 N1834 N 0.23256 0.85100 0.61777
 C1835 C 0.20698 0.84545 0.65280
 C1836 C 0.19282 0.83361 0.66439
 C1837 C 0.27805 0.89631 0.60288
 C1838 C 0.29492 0.90610 0.59317
 C1839 C 0.19693 0.38573 1.11050
 N1840 N 0.20883 0.40363 1.12235
 N1841 N 0.23101 0.41019 1.11554
 C1842 C 0.24196 0.39906 1.09666
 N1843 N 0.23007 0.38114 1.08482
 N1844 N 0.20789 0.37458 1.09163
 C1845 C 0.17281 0.37906 1.11746
 C1846 C 0.15241 0.37365 1.12307
 C1847 C 0.26571 0.40638 1.08910
 C1848 C 0.28561 0.41265 1.08273
 C1849 C 0.69664 1.11068 0.88753
 N1850 N 0.70770 1.12087 0.90691
 N1851 N 0.72989 1.11409 0.91323
 C1852 C 0.74169 1.09690 0.90037
 N1853 N 0.73064 1.08673 0.88099
 N1854 N 0.70845 1.09351 0.87467
 C1855 C 0.67252 1.11756 0.88106
 C1856 C 0.65212 1.12303 0.87573
 C1857 C 0.76545 1.08936 0.90740
 C1858 C 0.78537 1.08300 0.91343
 C1859 C 0.72303 0.63790 0.35901
 N1860 N 0.73141 0.64636 0.38043
 N1861 N 0.74837 0.63433 0.39245
 C1862 C 0.75742 0.61346 0.38341
 N1863 N 0.74899 0.60496 0.36202
 N1864 N 0.73204 0.61699 0.35000
 C1865 C 0.70578 0.65153 0.34546
 C1866 C 0.69170 0.66329 0.33384
 C1867 C 0.77677 0.60139 0.39552
 C1868 C 0.79359 0.59169 0.40524
 C1869 C 0.22402 1.13642 0.36129
 N1870 N 0.23264 1.14543 0.38239
 N1871 N 0.24964 1.13364 0.39459
 C1872 C 0.25851 1.11248 0.38606
 N1873 N 0.24984 1.10344 0.36499
 N1874 N 0.23284 1.11522 0.35279
 C1875 C 0.20683 1.14983 0.34744
 C1876 C 0.19285 1.16145 0.33555
 C1877 C 0.27796 1.10068 0.39828
 C1878 C 0.29487 1.09118 0.40804
 C1879 C 0.22413 0.63896 0.85800
 N1880 N 0.23291 0.64737 0.87928
 N1881 N 0.24957 0.63493 0.89129
 C1882 C 0.25791 0.61371 0.88240
 N1883 N 0.24908 0.60526 0.86115
 N1884 N 0.23242 0.61770 0.84914
 C1885 C 0.20717 0.65293 0.84445
 C1886 C 0.19329 0.66485 0.83276
 C1887 C 0.27700 0.60120 0.89446
 C1888 C 0.29363 0.59123 0.90419
 C1889 C 1.11014 1.29959 1.11097
 N1890 N 1.09101 1.28862 1.12174
 N1891 N 1.08429 1.26643 1.11512
 C1892 C 1.09648 1.25453 1.09751
 N1893 N 1.11562 1.26549 1.08675
 N1894 N 1.12234 1.28768 1.09337
 C1895 C 1.11703 1.32370 1.11772
 C1896 C 1.12262 1.34409 1.12318
 C1897 C 1.08904 1.23076 1.09014
 C1898 C 1.08275 1.21084 1.08385
 C1899 C 1.13806 0.77286 0.63801
 N1900 N 1.11643 0.76458 0.64610
 N1901 N 1.10441 0.74772 0.63375
 C1902 C 1.11364 0.73867 0.61294
 N1903 N 1.13525 0.74699 0.60483
 N1904 N 1.14727 0.76385 0.61717
 C1905 C 1.15160 0.79000 0.65197
 C1906 C 1.16325 0.80401 0.66395
 C1907 C 1.10153 0.71937 0.60058
 C1908 C 1.09177 0.70258 0.59072
 C1909 C 0.61039 1.30168 0.61037
 N1910 N 0.62225 1.28991 0.59245
 N1911 N 0.61584 1.26751 0.58626
 C1912 C 0.59737 1.25620 0.59780
 N1913 N 0.58552 1.26796 0.61574
 N1914 N 0.59194 1.29036 0.62192
 C1915 C 0.61702 1.32595 0.61677
 C1916 C 0.62243 1.34643 0.62203
 C1917 C 0.59027 1.23219 0.59093
 C1918 C 0.58424 1.21207 0.58505
 C1919 C 0.63705 0.77207 1.13904
 N1920 N 0.61598 0.76287 1.14758
 N1921 N 0.60394 0.74620 1.13500
 C1922 C 0.61260 0.73826 1.11350
 N1923 N 0.63364 0.74751 1.10493
 N1924 N 0.64568 0.76419 1.11751
 C1925 C 0.65067 0.78902 1.15316
 C1926 C 0.66247 0.80289 1.16515
 C1927 C 0.60053 0.71915 1.10082
 C1928 C 0.59077 0.70250 1.09070
 C1929 C 0.88285 1.29702 0.88367
 N1930 N 0.90118 1.28554 0.87219
 N1931 N 0.90797 1.26355 0.87913
 C1932 C 0.89667 1.25237 0.89780
 N1933 N 0.87832 1.26383 0.90927
 N1934 N 0.87153 1.28582 0.90232
 C1935 C 0.87600 1.32100 0.87664
 C1936 C 0.87051 1.34131 0.87102
 C1937 C 0.90428 1.22885 0.90556
 C1938 C 0.91079 1.20916 0.91213
 C1939 C 0.88412 0.79743 0.38428
 N1940 N 0.90228 0.78609 0.37239
 N1941 N 0.90925 0.76406 0.37904
 C1942 C 0.89830 0.75271 0.39782
 N1943 N 0.88013 0.76405 0.40969
 N1944 N 0.87316 0.78608 0.40304
 C1945 C 0.87710 0.82145 0.37756
 C1946 C 0.87154 0.84180 0.37214
 C1947 C 0.90607 0.72915 0.40527
 C1948 C 0.91262 0.70941 0.41168
 C1949 C 0.38506 1.29841 0.38550
 N1950 N 0.39082 1.28128 0.36894
 N1951 N 0.39772 1.25936 0.37600
 C1952 C 0.39910 1.25389 0.39983
 N1953 N 0.39333 1.27101 0.41638
 N1954 N 0.38643 1.29293 0.40933
 C1955 C 0.37806 1.32220 0.37799
 C1956 C 0.37241 1.34237 0.37205
 C1957 C 0.40682 1.23037 0.40749
 C1958 C 0.41338 1.21069 0.41403
 C1959 C 0.38373 0.79805 0.88536
 N1960 N 0.39703 0.78428 0.87008
 N1961 N 0.40391 0.76215 0.87652
 C1962 C 0.39773 0.75314 0.89845
 N1963 N 0.38441 0.76691 0.91372
 N1964 N 0.37754 0.78902 0.90728
 C1965 C 0.37687 0.82213 0.87871
 C1966 C 0.37139 0.84252 0.87336
 C1967 C 0.40543 0.72946 0.90557
 C1968 C 0.41191 0.70962 0.91174
 C1969 C 1.13780 0.72495 0.85836
 N1970 N 1.14606 0.73344 0.87981
 N1971 N 1.13361 0.75005 0.89196
 C1972 C 1.11252 0.75862 0.88303
 N1973 N 1.10423 0.75008 0.86161
 N1974 N 1.11668 0.73348 0.84946
 C1975 C 1.15181 0.70807 0.84467
 C1976 C 1.16376 0.69425 0.83287
 C1977 C 1.10004 0.77768 0.89525
 C1978 C 1.09008 0.79430 0.90511
 C1979 C 1.13789 0.22264 0.36004
 N1980 N 1.14620 0.23137 0.38138
 N1981 N 1.13402 0.24843 0.39316
 C1982 C 1.11315 0.25724 0.38396
 N1983 N 1.10480 0.24847 0.36265
 N1984 N 1.11699 0.23140 0.35087
 C1985 C 1.15167 0.20527 0.34671
 C1986 C 1.16347 0.19108 0.33519
 C1987 C 1.10093 0.27672 0.39581
 C1988 C 1.09119 0.29363 0.40537
 C1989 C 0.63741 0.72413 0.36012
 N1990 N 0.64664 0.73303 0.38102
 N1991 N 0.63484 0.74998 0.39334
 C1992 C 0.61344 0.75851 0.38516
 N1993 N 0.60417 0.74957 0.36430
 N1994 N 0.61598 0.73262 0.35197
 C1995 C 0.65076 0.70691 0.34618
 C1996 C 0.66230 0.69286 0.33422
 C1997 C 0.60156 0.77788 0.39752
 C1998 C 0.59196 0.79472 0.40737
 C1999 C 0.61006 0.19726 0.88678
 N2000 N 0.59251 0.20862 0.87411
 N2001 N 0.58567 0.23089 0.88014
 C2002 C 0.59617 0.24247 0.89904
 N2003 N 0.61373 0.23111 0.91171
 N2004 N 0.62057 0.20884 0.90568
 C2005 C 0.61702 0.17306 0.88062
 C2006 C 0.62255 0.15261 0.87552
 C2007 C 0.58857 0.26631 0.90579
 C2008 C 0.58221 0.28630 0.91165
 C2009 C 0.88375 0.69790 1.11211
 N2010 N 0.87031 0.71040 1.09595
 N2011 N 0.87698 0.73253 1.08912
 C2012 C 0.89731 0.74282 1.09822
 N2013 N 0.91073 0.73034 1.11440
 N2014 N 0.90406 0.70821 1.12123
 C2015 C 0.87689 0.67383 1.11900
 C2016 C 0.87135 0.65346 1.12454
 C2017 C 0.90471 0.76651 1.09059
 C2018 C 0.91103 0.78636 1.08413
 C2019 C 0.85744 0.22699 0.64094
 N2020 N 0.84865 0.23499 0.61956
 N2021 N 0.86089 0.25130 0.60673
 C2022 C 0.88229 0.26005 0.61489
 N2023 N 0.89111 0.25201 0.63624
 N2024 N 0.87888 0.23569 0.64907
 C2025 C 0.84372 0.21036 0.65527
 C2026 C 0.83188 0.19670 0.66742
 C2027 C 0.89459 0.27881 0.60197
 C2028 C 0.90452 0.29522 0.59167
 C2029 C 0.38597 0.69808 0.61193
 N2030 N 0.40466 0.70918 0.62331
 N2031 N 0.41145 0.73142 0.61696
 C2032 C 0.39977 0.74322 0.59901
 N2033 N 0.38107 0.73213 0.58764
 N2034 N 0.37428 0.70990 0.59399
 C2035 C 0.37904 0.67391 0.61838
 C2036 C 0.37345 0.65348 0.62361
 C2037 C 0.40731 0.76702 0.59190
 C2038 C 0.41369 0.78696 0.58580
 C2039 C 0.35855 0.22377 1.13845
 N2040 N 0.34922 0.23237 1.11755
 N2041 N 0.36098 0.24927 1.10502
 C2042 C 0.38244 0.25802 1.11302
 N2043 N 0.39181 0.24938 1.13390
 N2044 N 0.38005 0.23248 1.14642
 C2045 C 0.34527 0.20657 1.15256
 C2046 C 0.33376 0.19250 1.16457
 C2047 C 0.39428 0.27732 1.10044
 C2048 C 0.40389 0.29411 1.09044
 C2049 C 1.13699 1.13810 0.72371
 N2050 N 1.14551 1.11680 0.73214
 N2051 N 1.13338 1.10464 0.74902
 C2052 C 1.11234 1.11342 0.75795
 N2053 N 1.10378 1.13469 0.74947
 N2054 N 1.11592 1.14684 0.73258
 C2055 C 1.15072 1.15182 0.70656
 C2056 C 1.16254 1.16360 0.69255
 C2057 C 1.10019 1.10121 0.77728
 C2058 C 1.09045 1.09144 0.79412
 C2059 C 1.13809 0.63860 0.22372
 N2060 N 1.14680 0.61735 0.23213
 N2061 N 1.13464 0.60496 0.24883
 C2062 C 1.11341 0.61343 0.25757
 N2063 N 1.10467 0.63464 0.24912
 N2064 N 1.11683 0.64703 0.23242
 C2065 C 1.15176 0.65250 0.20668
 C2066 C 1.16349 0.66439 0.19269
 C2067 C 1.10119 0.60097 0.27669
 C2068 C 1.09137 0.59100 0.29335
 C2069 C 0.63755 1.13887 0.22403
 N2070 N 0.64650 1.11781 0.23263
 N2071 N 0.63472 1.10566 0.24976
 C2072 C 0.61362 1.11419 0.25877
 N2073 N 0.60464 1.13521 0.25012
 N2074 N 0.61642 1.14737 0.23299
 C2075 C 0.65088 1.15258 0.20655
 C2076 C 0.66241 1.16428 0.19224
 C2077 C 0.60179 1.10198 0.27830
 C2078 C 0.59225 1.09225 0.29527
 C2079 C 0.63972 0.63976 0.72509
 N2080 N 0.64812 0.61839 0.73346
 N2081 N 0.63559 0.60595 0.74984
 C2082 C 0.61427 0.61450 0.75829
 N2083 N 0.60584 0.63585 0.74987
 N2084 N 0.61837 0.64829 0.73349
 C2085 C 0.65375 0.65369 0.70837
 C2086 C 0.66573 0.66560 0.69462
 C2087 C 0.60164 0.60198 0.77709
 C2088 C 0.59152 0.59192 0.79352
 C2089 C 0.88442 0.88431 0.69870
 N2090 N 0.90361 0.87387 0.70968
 N2091 N 0.91018 0.88070 0.73183
 C2092 C 0.89779 0.89819 0.74365
 N2093 N 0.87859 0.90862 0.73267
 N2094 N 0.87202 0.90179 0.71053
 C2095 C 0.87768 0.87736 0.67462
 C2096 C 0.87219 0.87180 0.65426
 C2097 C 0.90509 0.90579 0.76737
 C2098 C 0.91131 0.91223 0.78724
 C2099 C 0.85694 0.35831 0.22386
 N2100 N 0.84855 0.37956 0.23266
 N2101 N 0.86094 0.39158 0.24947
 C2102 C 0.88210 0.38273 0.25795
 N2103 N 0.89052 0.36152 0.24910
 N2104 N 0.87813 0.34949 0.23229
 C2105 C 0.84301 0.34476 0.20672
 C2106 C 0.83113 0.33306 0.19268
 C2107 C 0.89459 0.39485 0.27713
 C2108 C 0.90458 0.40464 0.29382
 C2109 C 0.38246 0.88290 0.20197
 N2110 N 0.40110 0.87163 0.21308
 N2111 N 0.40833 0.87866 0.23496
 C2112 C 0.39717 0.89722 0.24640
 N2113 N 0.37851 0.90847 0.23531
 N2114 N 0.37128 0.90144 0.21342
 C2115 C 0.37521 0.87584 0.17804
 C2116 C 0.36949 0.87023 0.15775
 C2117 C 0.40525 0.90510 0.26980
 C2118 C 0.41211 0.91182 0.28939
 C2119 C 0.38548 0.38651 0.69620
 N2120 N 0.40237 0.37365 0.70833
 N2121 N 0.40890 0.38006 0.73060
 C2122 C 0.39876 0.39954 0.74143
 N2123 N 0.38186 0.41239 0.72932
 N2124 N 0.37532 0.40598 0.70704
 C2125 C 0.37878 0.37987 0.67204
 C2126 C 0.37337 0.37439 0.65164
 C2127 C 0.40603 0.40664 0.76530
 C2128 C 0.41221 0.41269 0.78530
 C2129 C 1.13682 0.86063 1.27388
 N2130 N 1.11557 0.85170 1.26548
 N2131 N 1.10336 0.86345 1.24846
 C2132 C 1.11203 0.88449 1.23934
 N2133 N 1.13324 0.89346 1.24779
 N2134 N 1.14545 0.88171 1.26481
 C2135 C 1.15063 0.84726 1.29114
 C2136 C 1.16247 0.83566 1.30518
 C2137 C 1.09976 0.89627 1.21989
 C2138 C 1.08997 0.90577 1.20298
 C2139 C 1.11107 0.38531 0.79807
 N2140 N 1.09325 0.37333 0.78619
 N2141 N 1.08670 0.38010 0.76406
 C2142 C 1.09776 0.39908 0.75314
 N2143 N 1.11559 0.41105 0.76501
 N2144 N 1.12214 0.40427 0.78714
 C2145 C 1.11773 0.37840 0.82214
 C2146 C 1.12315 0.37288 0.84250
 C2147 C 1.09045 0.40662 0.72945
 C2148 C 1.08422 0.41303 0.70960
 C2149 C 0.61034 0.88637 0.80078
 N2150 N 0.61968 0.90679 0.79092
 N2151 N 0.61333 0.91357 0.76873
 C2152 C 0.59742 0.90014 0.75573
 N2153 N 0.58809 0.87971 0.76559
 N2154 N 0.59444 0.87293 0.78778
 C2155 C 0.61680 0.87936 0.82487
 C2156 C 0.62207 0.87371 0.84523
 C2157 C 0.59030 0.90762 0.73198
 C2158 C 0.58417 0.91392 0.71207
 C2159 C 0.61155 0.38517 1.29665
 N2160 N 0.59263 0.37409 1.28562
 N2161 N 0.58577 0.38083 1.26357
 C2162 C 0.59759 0.39888 1.25188
 N2163 N 0.61652 0.40994 1.26290
 N2164 N 0.62339 0.40320 1.28495
 C2165 C 0.61849 0.37842 1.32070
 C2166 C 0.62406 0.37307 1.34108
 C2167 C 0.58993 0.40644 1.22829
 C2168 C 0.58343 0.41289 1.20854
 C2169 C 0.88523 1.11170 1.29856
 N2170 N 0.90279 1.12398 1.28659
 N2171 N 0.90943 1.11724 1.26444
 C2172 C 0.89873 1.09800 1.25358
 N2173 N 0.88116 1.08573 1.26554
 N2174 N 0.87452 1.09247 1.28769
 C2175 C 0.87854 1.11856 1.32269
 C2176 C 0.87320 1.12409 1.34310
 C2177 C 0.90616 1.09049 1.22987
 C2178 C 0.91249 1.08411 1.21001
 C2179 C 0.88456 0.61154 0.79796
 N2180 N 0.87300 0.59322 0.78641
 N2181 N 0.87981 0.58654 0.76429
 C2182 C 0.89842 0.59794 0.75307
 N2183 N 0.90997 0.61627 0.76461
 N2184 N 0.90315 0.62296 0.78673
 C2185 C 0.87760 0.61834 0.82202
 C2186 C 0.87199 0.62382 0.84237
 C2187 C 0.90599 0.59049 0.72939
 C2188 C 0.91239 0.58413 0.70955
 C2189 C 0.38600 1.11098 0.80076
 N2190 N 0.40525 1.12188 0.79014
 N2191 N 0.41212 1.11552 0.76794
 C2192 C 0.39996 1.09806 0.75571
 N2193 N 0.38070 1.08718 0.76633
 N2194 N 0.37383 1.09353 0.78852
 C2195 C 0.37893 1.11750 0.82486
 C2196 C 0.37327 1.12286 0.84523
 C2197 C 0.40757 1.09098 0.73194
 C2198 C 0.41399 1.08490 0.71202
 C2199 C 0.38426 0.61300 1.29726
 N2200 N 0.37187 0.59528 1.28565
 N2201 N 0.37841 0.58830 1.26354
 C2202 C 0.39757 0.59882 1.25237
 N2203 N 0.40995 0.61656 1.26398
 N2204 N 0.40341 0.62353 1.28609
 C2205 C 0.37763 0.62003 1.32135
 C2206 C 0.37226 0.62561 1.34175
 C2207 C 0.40488 0.59102 1.22872
 C2208 C 0.41116 0.58444 1.20891
 C2209 C 1.11082 1.29876 0.88448
 N2210 N 1.09159 1.28770 0.87398
 N2211 N 1.08494 1.26556 0.88078
 C2212 C 1.09731 1.25381 0.89830
 N2213 N 1.11655 1.26485 0.90878
 N2214 N 1.12319 1.28700 0.90199
 C2215 C 1.11759 1.32286 0.87760
 C2216 C 1.12309 1.34325 0.87210
 C2217 C 1.08990 1.23011 0.90590
 C2218 C 1.08359 1.21027 0.91237
 C2219 C 1.13738 0.77426 0.35976
 N2220 N 1.11626 0.76537 0.35102
 N2221 N 1.10430 0.74823 0.36301
 C2222 C 1.11309 0.73950 0.38410
 N2223 N 1.13418 0.74843 0.39287
 N2224 N 1.14614 0.76558 0.38088
 C2225 C 1.15092 0.79170 0.34619
 C2226 C 1.16259 0.80595 0.33454
 C2227 C 1.10108 0.71994 0.39613
 C2228 C 1.09143 0.70295 0.40575
 C2229 C 0.61235 1.29940 0.38432
 N2230 N 0.59351 1.28773 0.37379
 N2231 N 0.58713 1.26566 0.38107
 C2232 C 0.59938 1.25460 0.39912
 N2233 N 0.61823 1.26626 0.40964
 N2234 N 0.62461 1.28833 0.40236
 C2235 C 0.61884 1.32342 0.37692
 C2236 C 0.62417 1.34375 0.37105
 C2237 C 0.59224 1.23098 0.40719
 C2238 C 0.58601 1.21119 0.41391
 C2239 C 0.60976 0.79914 0.88632
 N2240 N 0.59067 0.78809 0.87557
 N2241 N 0.58416 0.76580 0.88201
 C2242 C 0.59654 0.75389 0.89941
 N2243 N 0.61564 0.76493 0.91015
 N2244 N 0.62215 0.78722 0.90371
 C2245 C 0.61644 0.82335 0.87977
 C2246 C 0.62188 0.84382 0.87453
 C2247 C 0.58931 0.73002 0.90660
 C2248 C 0.58314 0.71002 0.91270
 C2249 C 0.85680 1.27242 1.13790
 N2250 N 0.87804 1.26405 1.14668
 N2251 N 0.89037 1.24729 1.13462
 C2252 C 0.88184 1.23843 1.11342
 N2253 N 0.86064 1.24685 1.10461
 N2254 N 0.84831 1.26361 1.11667
 C2255 C 0.84295 1.28951 1.15149
 C2256 C 0.83111 1.30352 1.16317
 C2257 C 0.89426 1.21928 1.10127
 C2258 C 0.90420 1.20261 1.09148
 C2259 C 0.88446 0.79770 0.61234
 N2260 N 0.90238 0.78622 0.62437
 N2261 N 0.90931 0.76416 0.61767
 C2262 C 0.89854 0.75293 0.59871
 N2263 N 0.88060 0.76440 0.58670
 N2264 N 0.87368 0.78646 0.59340
 C2265 C 0.87750 0.82175 0.61913
 C2266 C 0.87200 0.84212 0.62462
 C2267 C 0.90627 0.72933 0.59121
 C2268 C 0.91278 0.70957 0.58476
 C2269 C 0.38624 1.30006 0.61089
 N2270 N 0.37511 1.28810 0.59259
 N2271 N 0.38202 1.26587 0.58651
 C2272 C 0.40028 1.25492 0.59853
 N2273 N 0.41140 1.26687 0.61684
 N2274 N 0.40449 1.28910 0.62292
 C2275 C 0.37917 1.32420 0.61711
 C2276 C 0.37354 1.34461 0.62225
 C2277 C 0.40796 1.23112 0.59172
 C2278 C 0.41439 1.21118 0.58581
 C2279 C 0.38198 0.79648 1.11473
 N2280 N 0.40033 0.78497 1.12608
 N2281 N 0.40728 0.76311 1.11882
 C2282 C 0.39614 0.75208 1.09995
 N2283 N 0.37777 0.76358 1.08862
 N2284 N 0.37081 0.78544 1.09588
 C2285 C 0.37499 0.82037 1.12206
 C2286 C 0.36940 0.84062 1.12788
 C2287 C 0.40392 0.72870 1.09184
 C2288 C 0.41057 0.70912 1.08498
 C2289 C 0.88396 0.69806 0.88433
 N2290 N 0.87195 0.70965 0.90227
 N2291 N 0.87855 0.73184 0.90901
 C2292 C 0.89739 0.74311 0.89802
 N2293 N 0.90938 0.73153 0.88007
 N2294 N 0.90278 0.70934 0.87334
 C2295 C 0.87723 0.67392 0.87750
 C2296 C 0.87180 0.65350 0.87199
 C2297 C 0.90475 0.76686 0.90555
 C2298 C 0.91104 0.78675 0.91196
 C2299 C 0.88583 0.19827 0.38515
 N2300 N 0.87305 0.21029 0.40224
 N2301 N 0.87961 0.23248 0.40902
 C2302 C 0.89919 0.24332 0.39893
 N2303 N 0.91196 0.23130 0.38183
 N2304 N 0.90540 0.20911 0.37505
 C2305 C 0.87908 0.17415 0.37826
 C2306 C 0.87355 0.15376 0.37275
 C2307 C 0.90647 0.26709 0.40647
 C2308 C 0.91269 0.28701 0.41284
 C2309 C 0.38487 0.69957 0.38437
 N2310 N 0.40369 0.71091 0.37344
 N2311 N 0.41049 0.73294 0.38051
 C2312 C 0.39871 0.74430 0.39875
 N2313 N 0.37988 0.73297 0.40966
 N2314 N 0.37307 0.71094 0.40259
 C2315 C 0.37797 0.67555 0.37723
 C2316 C 0.37242 0.65521 0.37155
 C2317 C 0.40632 0.76787 0.40664
 C2318 C 0.41282 0.78760 0.41333
 C2319 C 0.38513 0.19726 0.88655
 N2320 N 0.37369 0.20875 0.90491
 N2321 N 0.38018 0.23109 0.91123
 C2322 C 0.39831 0.24262 0.89938
 N2323 N 0.40974 0.23114 0.88101
 N2324 N 0.40326 0.20879 0.87469
 C2325 C 0.37847 0.17302 0.88005
 C2326 C 0.37306 0.15255 0.87472
 C2327 C 0.40553 0.26656 0.90641
 C2328 C 0.41168 0.28661 0.91238
 C2329 C 1.13742 0.72444 1.13766
 N2330 N 1.11631 0.73308 1.14654
 N2331 N 1.10396 0.74968 1.13436
 C2332 C 1.11234 0.75809 1.11293
 N2333 N 1.13341 0.74940 1.10402
 N2334 N 1.14577 0.73280 1.11619
 C2335 C 1.15134 0.70758 1.15137
 C2336 C 1.16327 0.69378 1.16314
 C2337 C 1.09996 0.77714 1.10069
 C2338 C 1.09006 0.79376 1.09087
 C2339 C 1.13729 0.22395 0.63732
 N2340 N 1.14614 0.23281 0.61625
 N2341 N 1.13405 0.24966 0.60415
 C2342 C 1.11275 0.25812 0.61274
 N2343 N 1.10387 0.24921 0.63377
 N2344 N 1.11596 0.23236 0.64587
 C2345 C 1.15096 0.20688 0.65104
 C2346 C 1.16270 0.19297 0.66289
 C2347 C 1.10062 0.27743 0.60063
 C2348 C 1.09093 0.29424 0.59091
 C2349 C 0.64025 0.72609 0.63998
 N2350 N 0.64894 0.73504 0.61889
 N2351 N 0.63655 0.75163 0.60674
 C2352 C 0.61509 0.75972 0.61531
 N2353 N 0.60638 0.75072 0.63636
 N2354 N 0.61876 0.73413 0.64851
 C2355 C 0.65412 0.70915 0.65363
 C2356 C 0.66594 0.69522 0.66536
 C2357 C 0.60260 0.77871 0.60311
 C2358 C 0.59258 0.79528 0.59331
 C2359 C 0.63627 0.22401 1.13666
 N2360 N 0.64480 0.23252 1.11532
 N2361 N 0.63258 0.24923 1.10316
 C2362 C 0.61145 0.25792 1.11198
 N2363 N 0.60290 0.24936 1.13328
 N2364 N 0.61512 0.23265 1.14544
 C2365 C 0.65011 0.20710 1.15041
 C2366 C 0.66202 0.19334 1.16226
 C2367 C 0.59922 0.27710 1.09978
 C2368 C 0.58943 0.29382 1.08999
 C2369 C 1.29870 1.11099 0.88664
 N2370 N 1.28769 1.09168 0.87622
 N2371 N 1.26540 1.08528 0.88279
 C2372 C 1.25343 1.09798 0.89999
 N2373 N 1.26443 1.11730 0.91040
 N2374 N 1.28672 1.12370 0.90383
 C2375 C 1.32292 1.11756 0.87997
 C2376 C 1.34340 1.12292 0.87462
 C2377 C 1.22956 1.09084 0.90733
 C2378 C 1.20957 1.08473 0.91355
 C2379 C 1.29839 0.61268 0.38399
 N2380 N 1.28674 0.59475 0.37193
 N2381 N 1.26467 0.58777 0.37868
 C2382 C 1.25358 0.59849 0.39772
 N2383 N 1.26522 0.61643 0.40977
 N2384 N 1.28729 0.62341 0.40302
 C2385 C 1.32242 0.61976 0.37711
 C2386 C 1.34276 0.62543 0.37154
 C2387 C 1.22996 0.59072 0.40524
 C2388 C 1.21017 0.58412 0.41165
 C2389 C 0.79936 1.11231 0.38605
 N2390 N 0.78757 1.09389 0.37491
 N2391 N 0.76543 1.08747 0.38198
 C2392 C 0.75442 1.09925 0.40043
 N2393 N 0.76621 1.11769 0.41156
 N2394 N 0.78835 1.12411 0.40448
 C2395 C 0.82344 1.11885 0.37882
 C2396 C 0.84380 1.12420 0.37304
 C2397 C 0.73072 1.09208 0.40827
 C2398 C 0.71085 1.08589 0.41483
 C2399 C 0.79765 0.61134 0.88402
 N2400 N 0.78639 0.59265 0.87278
 N2401 N 0.76421 0.58593 0.87942
 C2402 C 0.75262 0.59769 0.89753
 N2403 N 0.76387 0.61640 0.90875
 N2404 N 0.78605 0.62311 0.90211
 C2405 C 0.82178 0.61819 0.87728
 C2406 C 0.84219 0.62374 0.87186
 C2407 C 0.72887 0.59022 0.90494
 C2408 C 0.70898 0.58386 0.91126
 C2409 C 1.29571 0.88302 1.11500
 N2410 N 1.28483 0.90231 1.12547
 N2411 N 1.26300 0.90931 1.11823
 C2412 C 1.25138 0.89728 1.10029
 N2413 N 1.26224 0.87798 1.08984
 N2414 N 1.28408 0.87098 1.09707
 C2415 C 1.31958 0.87595 1.12226
 C2416 C 1.33982 0.87030 1.12800
 C2417 C 1.22802 0.90510 1.09221
 C2418 C 1.20846 0.91178 1.08538
 C2419 C 1.29921 0.38596 0.61011
 N2420 N 1.28723 0.40312 0.62283
 N2421 N 1.26502 0.40971 0.61639
 C2422 C 1.25412 0.39937 0.59701
 N2423 N 1.26609 0.38220 0.58430
 N2424 N 1.28830 0.37560 0.59074
 C2425 C 1.32336 0.37930 0.61669
 C2426 C 1.34379 0.37400 0.62207
 C2427 C 1.23036 0.40675 0.58983
 C2428 C 1.21045 0.41303 0.58368
 C2429 C 0.79819 0.88488 0.61289
 N2430 N 0.78686 0.90266 0.62535
 N2431 N 0.76482 0.90982 0.61894
 C2432 C 0.75344 0.89943 0.59986
 N2433 N 0.76476 0.88163 0.58742
 N2434 N 0.78681 0.87447 0.59382
 C2435 C 0.82220 0.87763 0.61941
 C2436 C 0.84253 0.87189 0.62474
 C2437 C 0.72984 0.90738 0.59270
 C2438 C 0.71007 0.91402 0.58649
 C2439 C 0.77101 0.35858 1.13721
 N2440 N 0.76254 0.37993 1.14566
 N2441 N 0.74586 0.39205 1.13336
 C2442 C 0.73717 0.38318 1.11222
 N2443 N 0.74569 0.36186 1.10373
 N2444 N 0.76237 0.34974 1.11604
 C2445 C 0.78795 0.34490 1.15109
 C2446 C 0.80178 0.33312 1.16298
 C2447 C 0.71807 0.39537 1.09986
 C2448 C 0.70143 0.40518 1.08995
 C2449 C 0.72269 1.13803 1.13735
 N2450 N 0.73135 1.14621 1.11594
 N2451 N 0.74816 1.13380 1.10404
 C2452 C 0.75679 1.11283 1.11317
 N2453 N 0.74809 1.10462 1.13456
 N2454 N 0.73128 1.11703 1.14646
 C2455 C 0.70561 1.15203 1.15081
 C2456 C 0.69166 1.16399 1.16244
 C2457 C 0.77604 1.10039 1.10121
 C2458 C 0.79280 1.09049 1.09155
 C2459 C 0.72572 0.63983 0.63930
 N2460 N 0.73450 0.64848 0.61812
 N2461 N 0.75094 0.63605 0.60574
 C2462 C 0.75906 0.61458 0.61416
 N2463 N 0.75024 0.60590 0.63531
 N2464 N 0.73379 0.61833 0.64768
 C2465 C 0.70897 0.65376 0.65320
 C2466 C 0.69522 0.66565 0.66514
 C2467 C 0.77793 0.60204 0.60172
 C2468 C 0.79441 0.59200 0.59174
 C2469 C 0.22381 1.13804 0.63829
 N2470 N 0.23255 1.14642 0.61699
 N2471 N 0.24962 1.13428 0.60518
 C2472 C 0.25843 1.11338 0.61430
 N2473 N 0.24964 1.10496 0.63557
 N2474 N 0.23257 1.11711 0.64738
 C2475 C 0.20647 1.15179 0.65167
 C2476 C 0.19231 1.16359 0.66322
 C2477 C 0.27794 1.10122 0.60246
 C2478 C 0.29490 1.09153 0.59292
 C2479 C 0.22361 0.63873 1.13741
 N2480 N 0.23259 0.64745 1.11635
 N2481 N 0.24921 0.63510 1.10413
 C2482 C 0.25732 0.61365 1.11259
 N2483 N 0.24830 0.60489 1.13362
 N2484 N 0.23167 0.61724 1.14584
 C2485 C 0.20670 0.65259 1.15119
 C2486 C 0.19283 0.66444 1.16303
 C2487 C 0.27639 0.60122 1.10035
 C2488 C 0.29303 0.59127 1.09053
 C2489 C 0.69618 0.88547 0.88700
 N2490 N 0.70779 0.87349 0.90488
 N2491 N 0.73008 0.87996 0.91137
 C2492 C 0.74143 0.89862 0.90020
 N2493 N 0.72983 0.91059 0.88232
 N2494 N 0.70754 0.90412 0.87582
 C2495 C 0.67200 0.87882 0.88032
 C2496 C 0.65157 0.87344 0.87487
 C2497 C 0.76531 0.90581 0.90742
 C2498 C 0.78531 0.91195 0.91354
 C2499 C 0.69815 0.38574 0.38336
 N2500 N 0.70922 0.40515 0.37323
 N2501 N 0.73134 0.41170 0.38022
 C2502 C 0.74306 0.39906 0.39757
 N2503 N 0.73200 0.37965 0.40768
 N2504 N 0.70988 0.37309 0.40070
 C2505 C 0.67408 0.37903 0.37630
 C2506 C 0.65372 0.37350 0.37072
 C2507 C 0.76674 0.40635 0.40534
 C2508 C 0.78658 0.41262 0.41188
 C2509 C 0.22349 0.86070 0.36057
 N2510 N 0.23182 0.85177 0.38177
 N2511 N 0.24890 0.86353 0.39406
 C2512 C 0.25813 0.88458 0.38553
 N2513 N 0.24976 0.89354 0.36437
 N2514 N 0.23268 0.88179 0.35208
 C2515 C 0.20617 0.84732 0.34666
 C2516 C 0.19207 0.83570 0.33476
 C2517 C 0.27765 0.89636 0.39788
 C2518 C 0.29461 0.90586 0.40772
 C2519 C 0.19734 0.38523 0.88418
 N2520 N 0.20886 0.40348 0.87252
 N2521 N 0.23107 0.41016 0.87909
 C2522 C 0.24243 0.39880 0.89752
 N2523 N 0.23092 0.38054 0.90917
 N2524 N 0.20871 0.37386 0.90261
 C2525 C 0.17319 0.37842 0.87748
 C2526 C 0.15278 0.37291 0.87206
 C2527 C 0.26620 0.40624 0.90485
 C2528 C 0.28612 0.41256 0.91110
   
