data_POSCAR
  _audit_creation_date              2014-09-24
  _audit_creation_method            'ToBaCCo'
  _symmetry_space_group_name_H-M    'P1'
  _symmetry_Int_Tables_number       1
  _symmetry_cell_setting            triclinic
  loop_
  _symmetry_equiv_pos_as_xyz
 x,y,z
_cell_length_a 48.6850
_cell_length_b 49.4848
_cell_length_c 49.1540
_cell_angle_alpha 89.479700
_cell_angle_beta 90.256300
_cell_angle_gamma 90.409500
loop_
  _atom_site_label
  _atom_site_type_symbol
  _atom_site_fract_x
  _atom_site_fract_y
  _atom_site_fract_z
C1 C 0.08830 0.02118 0.22061
 H2 H 0.09035 0.03591 0.23664
 C3 C 0.07014 0.02591 0.19906
 H4 H 0.05824 0.04428 0.19899
 C5 C 0.10318 -0.01946 0.20052
 H6 H 0.11682 -0.03660 0.20071
 C7 C 0.08537 -0.01542 0.17842
 H8 H 0.08500 -0.03003 0.16217
 N9 N 0.10444 -0.00111 0.22094
 C10 C 0.13898 -0.00099 0.30288
 H11 H 0.16015 -0.00282 0.29669
 C12 C 0.13272 -0.00003 0.33039
 H13 H 0.14937 -0.00163 0.34491
 C14 C 0.09194 0.00240 0.29091
 H15 H 0.07617 0.00301 0.27538
 C16 C 0.08469 0.00356 0.31848
 H17 H 0.06328 0.00546 0.32389
 Zn18 Zn 0.13241 -0.00203 0.24785
 N19 N 0.11882 0.00044 0.28375
 C20 C 0.15704 0.04906 0.25847
 N21 N 0.15548 0.02825 0.24062
 C22 C 0.16923 0.02918 0.21661
 C23 C 0.18575 0.05148 0.20997
 C24 C 0.17325 0.07174 0.25263
 C25 C 0.14054 -0.05891 0.24959
 C26 C 0.15563 -0.08204 0.25650
 C27 C 0.19628 -0.05402 0.25971
 C28 C 0.18069 -0.03177 0.25185
 N29 N 0.15321 -0.03435 0.24770
 H30 H 0.14543 0.04832 0.27714
 H31 H 0.16724 0.01257 0.20256
 H32 H 0.19624 0.05182 0.19062
 H33 H 0.17429 0.08788 0.26730
 H34 H 0.11849 -0.06034 0.24715
 H35 H 0.14487 -0.10114 0.25869
 H36 H 0.21798 -0.05084 0.26328
 H37 H 0.19031 -0.01204 0.25100
 C38 C 0.10533 0.00253 0.33863
 C39 C 0.06880 0.00773 0.17731
 C40 C 0.18376 -0.07959 0.26294
 C41 C 0.18792 0.07319 0.22810
 C42 C 0.41143 0.03095 0.78004
 H43 H 0.41085 0.04395 0.76223
 C44 C 0.42844 0.03760 0.80189
 H45 H 0.44054 0.05595 0.80057
 C46 C 0.39542 -0.00827 0.80308
 H47 H 0.38223 -0.02590 0.80361
 C48 C 0.41227 -0.00241 0.82548
 H49 H 0.41208 -0.01603 0.84281
 N50 N 0.39565 0.00820 0.78079
 C51 C 0.38611 -0.00193 0.69330
 H52 H 0.36427 0.00103 0.69067
 C53 C 0.40269 -0.00649 0.67068
 H54 H 0.39346 -0.00696 0.65060
 C55 C 0.42453 -0.00589 0.72283
 H56 H 0.43290 -0.00613 0.74322
 C57 C 0.44173 -0.01092 0.70086
 H58 H 0.46335 -0.01436 0.70461
 Zn59 Zn 0.37406 0.00281 0.74905
 N60 N 0.39729 -0.00146 0.71871
 C61 C 0.35399 0.05220 0.72469
 N62 N 0.35186 0.03391 0.74546
 C63 C 0.33290 0.03678 0.76541
 C64 C 0.31382 0.05756 0.76404
 C65 C 0.33565 0.07384 0.72292
 C66 C 0.36022 -0.05306 0.75843
 C67 C 0.34250 -0.07555 0.75856
 C68 C 0.30622 -0.04680 0.74185
 C69 C 0.32445 -0.02503 0.74217
 N70 N 0.35075 -0.02824 0.75094
 H71 H 0.36969 0.04994 0.70942
 H72 H 0.33204 0.02222 0.78195
 H73 H 0.29842 0.05908 0.77977
 H74 H 0.33712 0.08807 0.70611
 H75 H 0.38153 -0.05544 0.76423
 H76 H 0.35029 -0.09501 0.76502
 H77 H 0.28564 -0.04338 0.73432
 H78 H 0.31759 -0.00564 0.73468
 C79 C 0.43083 -0.01133 0.67441
 C80 C 0.42929 0.02073 0.82499
 C81 C 0.31494 -0.07248 0.75042
 C82 C 0.31487 0.07617 0.74244
 C83 C 0.91044 0.50891 0.29377
 H84 H 0.92383 0.51929 0.27956
 C85 C 0.91632 0.50964 0.32175
 H86 H 0.93457 0.52027 0.32851
 C87 C 0.86951 0.48425 0.30215
 H88 H 0.85098 0.47476 0.29455
 C89 C 0.87409 0.48519 0.33010
 H90 H 0.85921 0.47534 0.34315
 N91 N 0.88738 0.49616 0.28454
 C92 C 0.89358 0.50194 0.19535
 H93 H 0.87242 0.50752 0.19181
 C94 C 0.91077 0.49757 0.17327
 H95 H 0.90257 0.50023 0.15294
 C96 C 0.92883 0.48955 0.22628
 H97 H 0.93537 0.48529 0.24690
 C98 C 0.94678 0.48478 0.20467
 H99 H 0.96735 0.47782 0.20911
 Zn100 Zn 0.87482 0.49865 0.24785
 N101 N 0.90274 0.49794 0.22122
 C102 C 0.85993 0.55201 0.22907
 N103 N 0.85336 0.53033 0.24508
 C104 C 0.82991 0.52980 0.25997
 C105 C 0.81116 0.55078 0.25791
 C106 C 0.84181 0.57379 0.22673
 C107 C 0.86087 0.44340 0.24647
 C108 C 0.84505 0.42073 0.23978
 C109 C 0.81184 0.45028 0.21852
 C110 C 0.82821 0.47234 0.22571
 N111 N 0.85204 0.46860 0.23974
 H112 H 0.87899 0.55230 0.21787
 H113 H 0.82531 0.51251 0.27280
 H114 H 0.79243 0.54965 0.26967
 H115 H 0.84692 0.59071 0.21354
 H116 H 0.88025 0.44095 0.25703
 H117 H 0.85246 0.40085 0.24532
 H118 H 0.79279 0.45390 0.20775
 H119 H 0.82202 0.49245 0.21967
 C120 C 0.93765 0.48842 0.17769
 C121 C 0.89758 0.49833 0.34053
 C122 C 0.82016 0.42403 0.22559
 C123 C 0.81678 0.57291 0.24081
 C124 C 0.58008 0.51756 0.72867
 H125 H 0.57988 0.53039 0.74631
 C126 C 0.56152 0.52229 0.70755
 H127 H 0.54727 0.53879 0.70949
 C128 C 0.60041 0.48186 0.70434
 H129 H 0.61619 0.46675 0.70276
 C130 C 0.58214 0.48590 0.68262
 H131 H 0.58369 0.47323 0.66488
 N132 N 0.59898 0.49760 0.72685
 C133 C 0.60106 0.46757 0.79978
 H134 H 0.61079 0.45053 0.79052
 C135 C 0.58368 0.46301 0.82182
 H136 H 0.58056 0.44256 0.82930
 C137 C 0.59229 0.51453 0.80098
 H138 H 0.59489 0.53450 0.79227
 C139 C 0.57524 0.51092 0.82366
 H140 H 0.56505 0.52817 0.83237
 Zn141 Zn 0.62467 0.49594 0.75591
 N142 N 0.60478 0.49292 0.78939
 C143 C 0.65067 0.54667 0.77254
 N144 N 0.64603 0.52814 0.75268
 C145 C 0.65658 0.53165 0.72734
 C146 C 0.67222 0.55447 0.72093
 C147 C 0.66615 0.57008 0.76689
 C148 C 0.63946 0.44047 0.74718
 C149 C 0.65711 0.41830 0.74908
 C150 C 0.69387 0.44878 0.76158
 C151 C 0.67560 0.47027 0.75948
 N152 N 0.64880 0.46583 0.75289
 H153 H 0.64265 0.54330 0.79275
 H154 H 0.65264 0.51662 0.71194
 H155 H 0.67990 0.55681 0.70042
 H156 H 0.66979 0.58461 0.78286
 H157 H 0.61798 0.43724 0.74240
 H158 H 0.64900 0.39822 0.74552
 H159 H 0.71496 0.45298 0.76722
 H160 H 0.68266 0.49045 0.76419
 C161 C 0.57033 0.48476 0.83383
 C162 C 0.56240 0.50645 0.68403
 C163 C 0.68457 0.42227 0.75708
 C164 C 0.67721 0.57411 0.74076
 C165 C 0.28279 0.08764 0.97721
 H166 H 0.26331 0.08437 0.96704
 C167 C 0.30518 0.07166 0.97076
 H168 H 0.30221 0.05598 0.95589
 C169 C 0.30938 0.11225 1.00909
 H170 H 0.31093 0.12841 1.02367
 C171 C 0.33254 0.09674 1.00309
 H172 H 0.35171 0.10116 1.01337
 N173 N 0.28511 0.10729 0.99619
 C174 C 0.19823 0.11518 1.01388
 H175 H 0.19528 0.13633 1.00904
 C176 C 0.17570 0.09889 1.02053
 H177 H 0.15537 0.10762 1.02090
 C178 C 0.22836 0.07804 1.01906
 H179 H 0.24893 0.07003 1.01856
 C180 C 0.20647 0.06115 1.02636
 H181 H 0.21037 0.04007 1.03091
 Zn182 Zn 0.25264 0.12739 1.00068
 N183 N 0.22377 0.10436 1.01234
 C184 C 0.22235 0.13204 0.95179
 N185 N 0.24429 0.14188 0.96584
 C186 C 0.26237 0.15944 0.95402
 C187 C 0.25893 0.16740 0.92683
 C188 C 0.21810 0.13949 0.92473
 C189 C 0.26325 0.14724 1.05272
 C190 C 0.26026 0.16513 1.07430
 C191 C 0.24195 0.19809 1.04268
 C192 C 0.24574 0.17969 1.02167
 N193 N 0.25569 0.15465 1.02711
 H194 H 0.20869 0.11742 0.96106
 H195 H 0.28000 0.16651 0.96547
 H196 H 0.27399 0.18072 0.91755
 H197 H 0.20051 0.13119 0.91412
 H198 H 0.27033 0.12689 1.05662
 H199 H 0.26567 0.15806 1.09447
 H200 H 0.23351 0.21761 1.03750
 H201 H 0.23924 0.18493 1.00125
 C202 C 0.17971 0.07145 1.02656
 C203 C 0.33063 0.07612 0.98357
 C204 C 0.24846 0.19073 1.06973
 C205 C 0.23685 0.15688 0.91168
 C206 C 0.71205 0.41093 0.97240
 H207 H 0.72890 0.41029 0.95815
 C208 C 0.68976 0.42757 0.96711
 H209 H 0.68966 0.43946 0.94855
 C210 C 0.69176 0.39499 1.01330
 H211 H 0.69245 0.38183 1.03094
 C212 C 0.66889 0.41146 1.00879
 H213 H 0.65238 0.41120 1.02345
 N214 N 0.71285 0.39534 0.99527
 C215 C 0.80129 0.38512 0.99753
 H216 H 0.80341 0.36381 0.99336
 C217 C 0.82459 0.40099 1.00259
 H218 H 0.84470 0.39181 1.00201
 C219 C 0.77237 0.42263 1.00512
 H220 H 0.75198 0.43084 1.00699
 C221 C 0.79500 0.43907 1.01059
 H222 H 0.79171 0.46002 1.01575
 Zn223 Zn 0.74447 0.37376 0.99723
 N224 N 0.77584 0.39616 0.99890
 C225 C 0.76177 0.35192 0.94580
 N226 N 0.74278 0.35238 0.96598
 C227 C 0.71967 0.33690 0.96499
 C228 C 0.71506 0.31954 0.94340
 C229 C 0.75795 0.33471 0.92365
 C230 C 0.74149 0.35944 1.05337
 C231 C 0.74612 0.34239 1.07575
 C232 C 0.76109 0.30778 1.04493
 C233 C 0.75556 0.32520 1.02327
 N234 N 0.74598 0.35048 1.02775
 H235 H 0.77978 0.36476 0.94688
 H236 H 0.70482 0.33803 0.98124
 H237 H 0.69631 0.30770 0.94310
 H238 H 0.77337 0.33421 0.90788
 H239 H 0.73503 0.38004 1.05650
 H240 H 0.74271 0.35027 1.09589
 H241 H 0.76859 0.28786 1.04028
 H242 H 0.75996 0.31873 1.00283
 C243 C 0.82146 0.42819 1.00976
 C244 C 0.66784 0.42814 0.98547
 C245 C 0.75665 0.31623 1.07177
 C246 C 0.73440 0.31808 0.92247
 C247 C 0.20618 0.90925 0.48430
 H248 H 0.22111 0.92427 0.47800
 C249 C 0.17813 0.91548 0.48398
 H250 H 0.17175 0.93543 0.47745
 C251 C 0.19609 0.86487 0.49995
 H252 H 0.20329 0.84519 0.50639
 C253 C 0.16812 0.87016 0.49992
 H254 H 0.15422 0.85441 0.50673
 N255 N 0.21452 0.88434 0.49269
 C256 C 0.30352 0.89417 0.48617
 H257 H 0.30720 0.87467 0.47735
 C258 C 0.32558 0.91204 0.48970
 H259 H 0.34579 0.90584 0.48332
 C260 C 0.27322 0.92502 0.50665
 H261 H 0.25296 0.92993 0.51384
 C262 C 0.29466 0.94352 0.51047
 H263 H 0.29018 0.96256 0.52003
 Zn264 Zn 0.25103 0.87238 0.49760
 N265 N 0.27803 0.90053 0.49529
 C266 C 0.27917 0.82800 0.47293
 N267 N 0.25762 0.84530 0.47115
 C268 C 0.24047 0.84505 0.44921
 C269 C 0.24496 0.82746 0.42773
 C270 C 0.28453 0.81011 0.45173
 C271 C 0.24486 0.87791 0.55236
 C272 C 0.24001 0.87079 0.57929
 C273 C 0.24907 0.82430 0.56807
 C274 C 0.25375 0.83238 0.54105
 N275 N 0.25126 0.85886 0.53375
 H276 H 0.29261 0.82854 0.49050
 H277 H 0.22370 0.85917 0.44783
 H278 H 0.23144 0.82843 0.41024
 H279 H 0.30199 0.79679 0.45342
 H280 H 0.24216 0.89863 0.54608
 H281 H 0.23471 0.88647 0.59349
 H282 H 0.25021 0.80309 0.57350
 H283 H 0.25805 0.81739 0.52584
 C284 C 0.32151 0.93677 0.50282
 C285 C 0.15874 0.89580 0.49214
 C286 C 0.24142 0.84365 0.58735
 C287 C 0.26752 0.81000 0.42852
 C288 C 0.79042 0.59266 0.49475
 H289 H 0.77607 0.58242 0.48144
 C290 C 0.81809 0.58511 0.49521
 H291 H 0.82486 0.56887 0.48230
 C292 C 0.79940 0.62734 0.52656
 H293 H 0.79238 0.64435 0.53816
 C294 C 0.82710 0.62062 0.52749
 H295 H 0.84074 0.63209 0.54053
 N296 N 0.78167 0.61349 0.51029
 C297 C 0.69220 0.60985 0.51316
 H298 H 0.68882 0.63102 0.50872
 C299 C 0.66991 0.59282 0.51817
 H300 H 0.64944 0.60119 0.51769
 C301 C 0.72333 0.57373 0.51966
 H302 H 0.74423 0.56653 0.52041
 C303 C 0.70148 0.55589 0.52503
 H304 H 0.70581 0.53489 0.52944
 Zn305 Zn 0.74542 0.62667 0.50650
 N306 N 0.71822 0.60009 0.51356
 C307 C 0.72350 0.62652 0.45364
 N308 N 0.74160 0.63951 0.47020
 C309 C 0.75890 0.65890 0.46022
 C310 C 0.75870 0.66544 0.43240
 C311 C 0.72258 0.63243 0.42593
 C312 C 0.74051 0.64379 0.55880
 C313 C 0.73603 0.66082 0.58065
 C314 C 0.72876 0.69762 0.54882
 C315 C 0.73363 0.67978 0.52740
 N316 N 0.73954 0.65346 0.53286
 H317 H 0.71038 0.61070 0.46160
 H318 H 0.77352 0.66857 0.47369
 H319 H 0.77312 0.68034 0.42465
 H320 H 0.70793 0.62164 0.41340
 H321 H 0.74485 0.62265 0.56245
 H322 H 0.73681 0.65248 0.60107
 H323 H 0.72435 0.71857 0.54425
 H324 H 0.73258 0.68689 0.50656
 C325 C 0.67434 0.56542 0.52407
 C326 C 0.83687 0.59955 0.51140
 C327 C 0.73009 0.68813 0.57587
 C328 C 0.74074 0.65164 0.41479
 C329 C 0.02458 0.21596 0.08464
 H330 H 0.03862 0.23296 0.08579
 C331 C 0.03105 0.19401 0.06857
 H332 H 0.05030 0.19442 0.05770
 C333 C -0.01686 0.19488 0.09889
 H334 H -0.03522 0.19527 0.11116
 C335 C -0.01115 0.17227 0.08290
 H336 H -0.02554 0.15550 0.08262
 N337 N 0.00102 0.21612 0.09929
 C338 C 0.00301 0.30322 0.10734
 H339 H 0.00884 0.30599 0.12839
 C340 C -0.00022 0.32574 0.09021
 H341 H 0.00347 0.34562 0.09849
 C342 C -0.01053 0.27391 0.07186
 H343 H -0.01509 0.25373 0.06488
 C344 C -0.01469 0.29573 0.05432
 H345 H -0.02143 0.29146 0.03383
 Zn346 Zn -0.00129 0.24723 0.12089
 N347 N -0.00192 0.27793 0.09783
 C348 C 0.05152 0.26315 0.14309
 N349 N 0.03009 0.24539 0.14325
 C350 C 0.03047 0.22269 0.15897
 C351 C 0.05272 0.21724 0.17585
 C352 C 0.07437 0.25848 0.15982
 C353 C -0.05846 0.24622 0.13217
 C354 C -0.08159 0.25127 0.14815
 C355 C -0.05140 0.26104 0.18600
 C356 C -0.02901 0.25561 0.16949
 N357 N -0.03282 0.24855 0.14306
 H358 H 0.05119 0.28063 0.12977
 H359 H 0.01337 0.20863 0.15815
 H360 H 0.05250 0.19875 0.18773
 H361 H 0.09121 0.27286 0.15964
 H362 H -0.06091 0.24133 0.11089
 H363 H -0.10186 0.25000 0.13909
 H364 H -0.04776 0.26691 0.20687
 H365 H -0.00853 0.25824 0.17759
 C366 C -0.00986 0.32224 0.06337
 C367 C 0.01312 0.17176 0.06742
 C368 C -0.07805 0.25937 0.17527
 C369 C 0.07505 0.23526 0.17654
 C370 C -0.00086 0.79346 0.41477
 H371 H 0.00593 0.77898 0.42994
 C372 C -0.00124 0.82116 0.42081
 H373 H 0.00517 0.82770 0.44080
 C374 C -0.01593 0.80268 0.36979
 H375 H -0.02088 0.79547 0.34964
 C376 C -0.01685 0.83023 0.37497
 H377 H -0.02344 0.84359 0.35874
 N378 N -0.00795 0.78488 0.38946
 C379 C -0.03018 0.70781 0.40660
 H380 H -0.04878 0.71673 0.39879
 C381 C -0.03082 0.68086 0.41512
 H382 H -0.04987 0.66948 0.41388
 C383 C 0.01774 0.71038 0.41469
 H384 H 0.03695 0.72131 0.41271
 C385 C 0.01793 0.68343 0.42379
 H386 H 0.03722 0.67397 0.42918
 Zn387 Zn -0.00391 0.74888 0.37712
 N388 N -0.00587 0.72150 0.40482
 C389 C 0.04107 0.72139 0.35447
 N390 N 0.03081 0.74634 0.35948
 C391 C 0.04614 0.76904 0.35470
 C392 C 0.07321 0.76706 0.34555
 C393 C 0.06823 0.71848 0.34608
 C394 C -0.05838 0.75105 0.35843
 C395 C -0.08136 0.74307 0.34337
 C396 C -0.05180 0.71557 0.31588
 C397 C -0.02942 0.72406 0.33156
 N398 N -0.03307 0.74135 0.35248
 H399 H 0.02863 0.70360 0.35843
 H400 H 0.03782 0.78872 0.35890
 H401 H 0.08548 0.78521 0.34280
 H402 H 0.07645 0.69841 0.34340
 H403 H -0.06092 0.76427 0.37562
 H404 H -0.10107 0.75107 0.34910
 H405 H -0.04781 0.70146 0.29979
 H406 H -0.00924 0.71621 0.32741
 C407 C -0.00638 0.66811 0.42260
 C408 C -0.00889 0.84002 0.40054
 C409 C -0.07849 0.72483 0.32175
 C410 C 0.08474 0.74149 0.34205
 C411 C 0.51445 0.30591 0.88569
 H412 H 0.52745 0.30504 0.86802
 C413 C 0.51602 0.32856 0.90241
 H414 H 0.53009 0.34490 0.89741
 C415 C 0.48144 0.28550 0.91474
 H416 H 0.46846 0.26841 0.91988
 C417 C 0.48317 0.30731 0.93254
 H418 H 0.47133 0.30703 0.95114
 N419 N 0.49770 0.28469 0.89228
 C420 C 0.49972 0.19699 0.88524
 H421 H 0.49670 0.19477 0.86357
 C422 C 0.49747 0.17439 0.90234
 H423 H 0.49280 0.15486 0.89365
 C424 C 0.50831 0.22529 0.92299
 H425 H 0.51285 0.24505 0.93102
 C426 C 0.50567 0.20334 0.94086
 H427 H 0.50808 0.20649 0.96251
 Zn428 Zn 0.49964 0.25200 0.87193
 N429 N 0.50410 0.22197 0.89583
 C430 C 0.55287 0.23992 0.85175
 N431 N 0.52959 0.25436 0.84735
 C432 C 0.52738 0.27161 0.82579
 C433 C 0.54934 0.27541 0.80798
 C434 C 0.57537 0.24304 0.83436
 C435 C 0.44162 0.25081 0.86287
 C436 C 0.41761 0.24230 0.84962
 C437 C 0.44557 0.22300 0.81444
 C438 C 0.46896 0.23198 0.82822
 N439 N 0.46669 0.24545 0.85209
 H440 H 0.55418 0.22632 0.86904
 H441 H 0.50863 0.28287 0.82277
 H442 H 0.54697 0.28976 0.79148
 H443 H 0.59368 0.23143 0.83845
 H444 H 0.44015 0.26110 0.88205
 H445 H 0.39790 0.24634 0.85877
 H446 H 0.44810 0.21235 0.79551
 H447 H 0.48903 0.22733 0.82029
 C448 C 0.49944 0.17767 0.93058
 C449 C 0.50088 0.32892 0.92650
 C450 C 0.41945 0.22777 0.82530
 C451 C 0.57395 0.26121 0.81219
 C452 C 0.52678 0.71994 0.59803
 H453 H 0.54228 0.73539 0.60117
 C454 C 0.53312 0.69691 0.58340
 H455 H 0.55374 0.69478 0.57565
 C456 C 0.48129 0.70411 0.60521
 H457 H 0.46121 0.70706 0.61394
 C458 C 0.48680 0.68058 0.59064
 H459 H 0.47067 0.66568 0.58792
 N460 N 0.50118 0.72332 0.60824
 C461 C 0.49959 0.81071 0.61255
 H462 H 0.49970 0.81384 0.63431
 C463 C 0.49646 0.83270 0.59482
 H464 H 0.49460 0.85279 0.60312
 C465 C 0.49953 0.78042 0.57546
 H466 H 0.49958 0.75995 0.56802
 C467 C 0.49603 0.80176 0.55707
 H468 H 0.49438 0.79749 0.53556
 Zn469 Zn 0.49669 0.75590 0.62718
 N470 N 0.50077 0.78519 0.60265
 C471 C 0.54579 0.77261 0.65441
 N472 N 0.52369 0.75566 0.65478
 C473 C 0.52202 0.73474 0.67278
 C474 C 0.54336 0.72979 0.69108
 C475 C 0.56773 0.76834 0.67239
 C476 C 0.44071 0.76083 0.62237
 C477 C 0.41423 0.76808 0.62978
 C478 C 0.42964 0.77153 0.67643
 C479 C 0.45603 0.76436 0.66805
 N480 N 0.46102 0.75942 0.64134
 H481 H 0.54702 0.78866 0.63940
 H482 H 0.50452 0.72116 0.67206
 H483 H 0.54182 0.71235 0.70441
 H484 H 0.58537 0.78173 0.67146
 H485 H 0.44540 0.75726 0.60122
 H486 H 0.39851 0.76914 0.61420
 H487 H 0.42605 0.77603 0.69762
 H488 H 0.47267 0.76386 0.68267
 C489 C 0.49384 0.82821 0.56675
 C490 C 0.51295 0.67698 0.57924
 C491 C 0.40852 0.77405 0.65702
 C492 C 0.56688 0.74638 0.69074
 C493 C 0.91842 0.99834 0.70431
 H494 H 0.93528 0.99830 0.71871
 C495 C 0.92352 1.00030 0.67749
 H496 H 0.94462 1.00166 0.67083
 C497 C 0.87003 0.99737 0.69701
 H498 H 0.84926 0.99672 0.70468
 C499 C 0.87457 0.99942 0.66753
 H500 H 0.85646 0.99963 0.65483
 N501 N 0.89060 0.99673 0.71395
 C502 C 0.90875 1.01347 0.79969
 H503 H 0.89350 1.02916 0.80117
 C504 C 0.92628 1.00917 0.82038
 H505 H 0.92510 1.02205 0.83798
 C506 C 0.92746 0.97760 0.77379
 H507 H 0.92653 0.96413 0.75660
 C508 C 0.94775 0.97267 0.79568
 H509 H 0.96177 0.95613 0.79290
 Zn510 Zn 0.87955 0.99658 0.75098
 N511 N 0.90932 0.99660 0.77604
 C512 C 0.84748 0.96308 0.78408
 N513 N 0.85857 0.96506 0.75880
 C514 C 0.85503 0.94505 0.74029
 C515 C 0.83904 0.92231 0.74668
 C516 C 0.83132 0.94075 0.79130
 C517 C 0.86863 1.05255 0.75230
 C518 C 0.85205 1.07533 0.74872
 C519 C 0.81210 1.04615 0.74996
 C520 C 0.82932 1.02405 0.75398
 N521 N 0.85707 1.02750 0.75452
 H522 H 0.85100 0.97908 0.79856
 H523 H 0.86453 0.94667 0.72051
 H524 H 0.83609 0.90691 0.73144
 H525 H 0.82277 0.93974 0.81155
 H526 H 0.89075 1.05468 0.75196
 H527 H 0.86157 1.09501 0.74601
 H528 H 0.79013 1.04284 0.74870
 H529 H 0.82052 1.00397 0.75486
 C530 C 0.94690 0.98708 0.81888
 C531 C 0.90029 1.00101 0.65750
 C532 C 0.82346 1.07207 0.74662
 C533 C 0.82668 0.92008 0.77240
 C534 C 0.41649 0.49042 0.22886
 H535 H 0.42277 0.48295 0.24864
 C536 C 0.43542 0.49132 0.20762
 H537 H 0.45627 0.48463 0.21120
 C538 C 0.38181 0.50827 0.20001
 H539 H 0.36103 0.51539 0.19733
 C540 C 0.39986 0.50889 0.17807
 H541 H 0.39283 0.51654 0.15857
 N542 N 0.39056 0.49984 0.22497
 C543 C 0.37901 0.49466 0.31016
 H544 H 0.35933 0.48455 0.31071
 C545 C 0.39643 0.49273 0.33274
 H546 H 0.38992 0.48128 0.35048
 C547 C 0.41207 0.52093 0.28633
 H548 H 0.41826 0.53157 0.26803
 C549 C 0.43055 0.51859 0.30804
 H550 H 0.45080 0.52766 0.30647
 Zn551 Zn 0.36637 0.50464 0.25456
 N552 N 0.38728 0.50804 0.28726
 C553 C 0.32020 0.47515 0.27364
 N554 N 0.34292 0.47392 0.25773
 C555 C 0.35040 0.45041 0.24582
 C556 C 0.33524 0.42671 0.25038
 C557 C 0.30440 0.45198 0.27866
 C558 C 0.35865 0.56104 0.24929
 C559 C 0.34555 0.58454 0.24015
 C560 C 0.30681 0.55721 0.22620
 C561 C 0.32054 0.53429 0.23575
 N562 N 0.34606 0.53653 0.24692
 H563 H 0.31476 0.49405 0.28303
 H564 H 0.36869 0.44979 0.23346
 H565 H 0.34212 0.40817 0.24124
 H566 H 0.28655 0.45369 0.29150
 H567 H 0.37919 0.56231 0.25762
 H568 H 0.35613 0.60377 0.24182
 H569 H 0.28656 0.55477 0.21739
 H570 H 0.31121 0.51459 0.23323
 C571 C 0.42288 0.50391 0.33132
 C572 C 0.42723 0.50114 0.18204
 C573 C 0.31944 0.58275 0.22801
 C574 C 0.31209 0.42715 0.26738
 C575 C 0.60739 0.99107 0.30741
 H576 H 0.62278 0.97567 0.31005
 C577 C 0.59131 0.99752 0.32839
 H578 H 0.59439 0.98707 0.34754
 C579 C 0.58493 1.02219 0.27770
 H580 H 0.58229 1.03154 0.25794
 C581 C 0.56673 1.02994 0.30015
 H582 H 0.55149 1.04509 0.29572
 N583 N 0.60425 1.00452 0.28155
 C584 C 0.61358 1.00524 0.19619
 H585 H 0.63133 1.01844 0.19493
 C586 C 0.59770 1.00025 0.17291
 H587 H 0.60355 1.00979 0.15390
 C588 C 0.58495 0.97638 0.22247
 H589 H 0.58020 0.96707 0.24191
 C590 C 0.56849 0.97095 0.19985
 H591 H 0.55097 0.95770 0.20253
 Zn592 Zn 0.62850 0.99820 0.25210
 N593 N 0.60706 0.99313 0.22027
 C594 C 0.64743 0.94505 0.24185
 N595 N 0.64989 0.96651 0.25888
 C596 C 0.66836 0.96618 0.27978
 C597 C 0.68632 0.94449 0.28313
 C598 C 0.66441 0.92257 0.24503
 C599 C 0.64066 1.05416 0.24572
 C600 C 0.65691 1.07744 0.24841
 C601 C 0.69643 1.04897 0.25494
 C602 C 0.67955 1.02637 0.25144
 N603 N 0.65195 1.02919 0.24845
 H604 H 0.63276 0.94555 0.22531
 H605 H 0.66995 0.98335 0.29317
 H606 H 0.70157 0.94500 0.29923
 H607 H 0.66263 0.90598 0.23089
 H608 H 0.61884 1.05616 0.24246
 H609 H 0.64700 1.09691 0.24734
 H610 H 0.71816 1.04570 0.25792
 H611 H 0.68862 1.00657 0.25197
 C612 C 0.57484 0.98272 0.17448
 C613 C 0.56977 1.01860 0.32504
 C614 C 0.68508 1.07506 0.25453
 C615 C 0.68459 0.92249 0.26545
 C616 C 0.09840 0.48598 0.80089
 H617 H 0.11292 0.46960 0.80225
 C618 C 0.08100 0.49092 0.82279
 H619 H 0.08213 0.47780 0.84047
 C620 C 0.07998 0.52313 0.77646
 H621 H 0.08037 0.53626 0.75876
 C622 C 0.06226 0.52886 0.79794
 H623 H 0.04901 0.54622 0.79612
 N624 N 0.09794 0.50227 0.77846
 C625 C 0.12884 0.47850 0.69893
 H626 H 0.14878 0.47214 0.70616
 C627 C 0.12195 0.47474 0.67172
 H628 H 0.13670 0.46520 0.65859
 C629 C 0.08566 0.49828 0.70753
 H630 H 0.07164 0.50767 0.72146
 C631 C 0.07790 0.49496 0.68022
 H632 H 0.05802 0.50207 0.67346
 Zn633 Zn 0.12555 0.49771 0.75154
 N634 N 0.11107 0.49059 0.71619
 C635 C 0.14005 0.44280 0.75607
 N636 N 0.14869 0.46845 0.76124
 C637 C 0.17477 0.47361 0.76989
 C638 C 0.19394 0.45285 0.77150
 C639 C 0.15855 0.42138 0.75754
 C640 C 0.14367 0.55106 0.76528
 C641 C 0.16149 0.57329 0.76409
 C642 C 0.18800 0.55018 0.73014
 C643 C 0.16932 0.52875 0.73144
 N644 N 0.14789 0.52929 0.74911
 H645 H 0.11920 0.43926 0.74919
 H646 H 0.18108 0.49403 0.77452
 H647 H 0.21480 0.45757 0.77760
 H648 H 0.15162 0.40136 0.75189
 H649 H 0.12697 0.55105 0.77962
 H650 H 0.15816 0.59030 0.77736
 H651 H 0.20525 0.54914 0.71637
 H652 H 0.17256 0.51121 0.71900
 C653 C 0.09651 0.48365 0.66180
 C654 C 0.06292 0.51293 0.82177
 C655 C 0.18421 0.57270 0.74669
 C656 C 0.18615 0.42650 0.76436
 C657 C 0.79730 0.91291 0.00782
 H658 H 0.78814 0.91478 0.02764
 C659 C 0.82006 0.92898 0.00124
 H660 H 0.82804 0.94325 0.01593
 C661 C 0.79920 0.89166 -0.03509
 H662 H 0.79175 0.87675 -0.04915
 C663 C 0.82130 0.90799 -0.04284
 H664 H 0.83042 0.90550 -0.06272
 N665 N 0.78734 0.89448 -0.01021
 C666 C 0.70225 0.89339 -0.01423
 H667 H 0.70101 0.87857 -0.03017
 C668 C 0.68028 0.91104 -0.01034
 H669 H 0.66272 0.90991 -0.02385
 C670 C 0.72601 0.91235 0.02318
 H671 H 0.74338 0.91217 0.03686
 C672 C 0.70462 0.93019 0.02785
 H673 H 0.70621 0.94361 0.04503
 Zn674 Zn 0.75616 0.87241 -0.00111
 N675 N 0.72486 0.89481 0.00210
 C676 C 0.73830 0.84410 0.04488
 N677 N 0.76086 0.85579 0.03334
 C678 C 0.78479 0.85849 0.04742
 C679 C 0.78594 0.85145 0.07492
 C680 C 0.73871 0.83628 0.07227
 C681 C 0.74496 0.85307 -0.05394
 C682 C 0.74862 0.83533 -0.07547
 C683 C 0.76554 0.80194 -0.04355
 C684 C 0.76150 0.82034 -0.02258
 N685 N 0.75214 0.84563 -0.02820
 H686 H 0.71952 0.84223 0.03317
 H687 H 0.80269 0.86714 0.03770
 H688 H 0.80482 0.85475 0.08616
 H689 H 0.72024 0.82822 0.08159
 H690 H 0.73869 0.87360 -0.05818
 H691 H 0.74419 0.84241 -0.09589
 H692 H 0.77381 0.78226 -0.03866
 H693 H 0.76750 0.81497 -0.00204
 C694 C 0.68149 0.93000 0.01078
 C695 C 0.83202 0.92671 -0.02447
 C696 C 0.75995 0.80969 -0.07055
 C697 C 0.76244 0.84100 0.08779
 C698 C 0.28921 0.41316 0.51036
 H699 H 0.28566 0.40462 0.53031
 C700 C 0.31073 0.43164 0.50676
 H701 H 0.32353 0.43694 0.52399
 C702 C 0.27689 0.41699 0.46386
 H703 H 0.26400 0.41097 0.44705
 C704 C 0.29794 0.43589 0.45945
 H705 H 0.30100 0.44404 0.43917
 N706 N 0.27349 0.40529 0.48881
 C707 C 0.19357 0.36472 0.48557
 H708 H 0.20071 0.34407 0.48538
 C709 C 0.16555 0.37001 0.48374
 H710 H 0.15147 0.35310 0.48235
 C711 C 0.20379 0.41147 0.48877
 H712 H 0.21888 0.42746 0.49096
 C713 C 0.17582 0.41771 0.48697
 H714 H 0.16967 0.43867 0.48749
 Zn715 Zn 0.24909 0.37501 0.49259
 N716 N 0.21199 0.38527 0.48833
 C717 C 0.23176 0.35652 0.54472
 N718 N 0.25370 0.35899 0.52774
 C719 C 0.27936 0.35194 0.53618
 C720 C 0.28393 0.34356 0.56300
 C721 C 0.23530 0.34741 0.57148
 C722 C 0.24814 0.35619 0.43926
 C723 C 0.25346 0.33911 0.41752
 C724 C 0.27616 0.30854 0.44870
 C725 C 0.27038 0.32627 0.46990
 N726 N 0.25695 0.34981 0.46478
 H727 H 0.21155 0.36241 0.53792
 H728 H 0.29653 0.35415 0.52242
 H729 H 0.30462 0.33905 0.56971
 H730 H 0.21779 0.34628 0.58497
 H731 H 0.23669 0.37453 0.43575
 H732 H 0.24654 0.34503 0.39742
 H733 H 0.28678 0.28994 0.45336
 H734 H 0.27668 0.32113 0.49037
 C735 C 0.15624 0.39679 0.48457
 C736 C 0.31573 0.44272 0.48088
 C737 C 0.26784 0.31496 0.42201
 C738 C 0.26176 0.34158 0.58101
 C739 C 0.21773 0.58653 -0.02437
 H740 H 0.23722 0.58509 -0.03473
 C741 C 0.19583 0.57009 -0.03225
 H742 H 0.19931 0.55634 -0.04876
 C743 C 0.19068 0.60695 0.00950
 H744 H 0.18877 0.62156 0.02557
 C745 C 0.16809 0.59085 0.00228
 H746 H 0.14920 0.59347 0.01337
 N747 N 0.21497 0.60423 -0.00365
 C748 C 0.30044 0.61253 0.02107
 H749 H 0.30377 0.63403 0.01842
 C750 C 0.32254 0.59570 0.02731
 H751 H 0.34288 0.60438 0.02968
 C752 C 0.26995 0.57498 0.02060
 H753 H 0.24945 0.56693 0.01786
 C754 C 0.29132 0.55752 0.02743
 H755 H 0.28709 0.53610 0.02950
 Zn756 Zn 0.24675 0.62491 0.00407
 N757 N 0.27500 0.60181 0.01675
 C758 C 0.24540 0.67764 0.02573
 N759 N 0.24052 0.65108 0.03117
 C760 C 0.23336 0.64254 0.05656
 C761 C 0.23090 0.66105 0.07773
 C762 C 0.24324 0.69680 0.04625
 C763 C 0.28108 0.63400 -0.04157
 C764 C 0.28727 0.64309 -0.06775
 C765 C 0.24424 0.66701 -0.06889
 C766 C 0.23889 0.65751 -0.04254
 N767 N 0.25717 0.64118 -0.02950
 H768 H 0.25180 0.68397 0.00563
 H769 H 0.23006 0.62121 0.06047
 H770 H 0.22529 0.65370 0.09775
 H771 H 0.24799 0.71761 0.04129
 H772 H 0.29501 0.62032 -0.03149
 H773 H 0.30642 0.63692 -0.07678
 H774 H 0.22904 0.67931 -0.07918
 H775 H 0.21971 0.66241 -0.03277
 C776 C 0.31810 0.56778 0.03012
 C777 C 0.17040 0.57178 -0.01881
 C778 C 0.26850 0.65934 -0.08202
 C779 C 0.23610 0.68864 0.07280
 C780 C 0.72855 0.07994 0.48969
 H781 H 0.74909 0.07358 0.48471
 C782 C 0.70649 0.06217 0.48579
 H783 H 0.71056 0.04197 0.47872
 C784 C 0.69827 0.11446 0.50343
 H785 H 0.69521 0.13524 0.50929
 C786 C 0.67562 0.09733 0.49990
 H787 H 0.65524 0.10510 0.50340
 N788 N 0.72403 0.10566 0.49798
 C789 C 0.80378 0.12835 0.47080
 H790 H 0.79619 0.14435 0.45780
 C791 C 0.83144 0.12143 0.46960
 H792 H 0.84459 0.13156 0.45496
 C793 C 0.79655 0.09728 0.50712
 H794 H 0.78306 0.08892 0.52252
 C795 C 0.82405 0.08943 0.50632
 H796 H 0.83152 0.07470 0.52094
 Zn797 Zn 0.75234 0.13187 0.49626
 N798 N 0.78705 0.11654 0.48961
 C799 C 0.77707 0.17036 0.52750
 N800 N 0.75699 0.15121 0.52876
 C801 C 0.74376 0.14546 0.55242
 C802 C 0.75082 0.15935 0.57617
 C803 C 0.78462 0.18477 0.55053
 C804 C 0.74211 0.14515 0.44217
 C805 C 0.73600 0.16162 0.41985
 C806 C 0.73004 0.19906 0.45047
 C807 C 0.73658 0.18191 0.47221
 N808 N 0.74291 0.15562 0.46762
 H809 H 0.78750 0.17422 0.50845
 H810 H 0.72830 0.12967 0.55305
 H811 H 0.74039 0.15415 0.59490
 H812 H 0.80049 0.20000 0.54854
 H813 H 0.74672 0.12402 0.43923
 H814 H 0.73578 0.15298 0.39970
 H815 H 0.72563 0.22006 0.45443
 H816 H 0.73660 0.18963 0.49270
 C817 C 0.84196 0.10217 0.48788
 C818 C 0.67953 0.07101 0.49028
 C819 C 0.73007 0.18899 0.42388
 C820 C 0.77172 0.17919 0.57546
 C821 C 0.99233 0.72227 0.93296
 H822 H 0.99150 0.74239 0.94116
 C823 C 0.99507 0.70120 0.94984
 H824 H 0.99644 0.70481 0.97147
 C825 C 0.98606 0.69412 0.89438
 H826 H 0.98507 0.69139 0.87258
 C827 C 0.98809 0.67013 0.91238
 H828 H 0.98741 0.65046 0.90299
 N829 N 0.99069 0.71812 0.90411
 C830 C 0.99047 0.80251 0.89107
 H831 H 0.97795 0.80247 0.87284
 C832 C 0.99157 0.82457 0.90661
 H833 H 0.97954 0.84204 0.90088
 C834 C 1.02281 0.77913 0.91907
 H835 H 1.03487 0.76141 0.92377
 C836 C 1.02323 0.80218 0.93780
 H837 H 1.03598 0.80080 0.95584
 Zn838 Zn 1.00099 0.74621 0.87945
 N839 N 1.00589 0.77887 0.89852
 C840 C 0.94640 0.75192 0.86439
 N841 N 0.97212 0.75046 0.85382
 C842 C 0.97641 0.75265 0.82657
 C843 C 0.95428 0.75718 0.80887
 C844 C 0.92369 0.75595 0.84743
 C845 C 1.04729 0.71326 0.87094
 C846 C 1.07267 0.70592 0.86053
 C847 C 1.07447 0.74832 0.83596
 C848 C 1.04857 0.75467 0.84647
 N849 N 1.03534 0.73700 0.86340
 H850 H 0.94359 0.75019 0.88616
 H851 H 0.99699 0.75128 0.81857
 H852 H 0.95806 0.75907 0.78725
 H853 H 0.90346 0.75741 0.85633
 H854 H 1.03757 0.69993 0.88544
 H855 H 1.08160 0.68685 0.86675
 H856 H 1.08465 0.76241 0.82230
 H857 H 1.03913 0.77378 0.84132
 C858 C 1.00766 0.82398 0.93240
 C859 C 0.99503 0.67336 0.93879
 C860 C 1.08656 0.72346 0.84280
 C861 C 0.92752 0.75899 0.81931
 C862 C 0.48412 0.20634 0.40692
 H863 H 0.46380 0.20911 0.39858
 C864 C 0.48988 0.18302 0.42220
 H865 H 0.47396 0.16789 0.42504
 C866 C 0.52904 0.22316 0.41496
 H867 H 0.54419 0.23897 0.41236
 C868 C 0.53558 0.20041 0.43044
 H869 H 0.55600 0.19887 0.43906
 N870 N 0.50389 0.22560 0.40312
 C871 C 0.51198 0.31143 0.40066
 H872 H 0.52491 0.31377 0.38295
 C873 C 0.50514 0.33408 0.41604
 H874 H 0.51353 0.35358 0.41024
 C875 C 0.48314 0.28366 0.42794
 H876 H 0.47377 0.26412 0.43177
 C877 C 0.47598 0.30557 0.44391
 H878 H 0.46188 0.30217 0.46052
 Zn879 Zn 0.49972 0.25773 0.38213
 N880 N 0.50029 0.28702 0.40645
 C881 C 0.45840 0.28645 0.35743
 N882 N 0.46608 0.26051 0.36264
 C883 C 0.45253 0.23935 0.35104
 C884 C 0.43009 0.24405 0.33378
 C885 C 0.43656 0.29202 0.34005
 C886 C 0.55472 0.26536 0.36295
 C887 C 0.57610 0.26059 0.34472
 C888 C 0.54283 0.24357 0.31248
 C889 C 0.52221 0.24858 0.33125
 N890 N 0.52842 0.25872 0.35617
 H891 H 0.46986 0.30308 0.36593
 H892 H 0.45991 0.21899 0.35388
 H893 H 0.41977 0.22713 0.32423
 H894 H 0.43105 0.31285 0.33606
 H895 H 0.55929 0.27339 0.38286
 H896 H 0.59699 0.26502 0.35092
 H897 H 0.53721 0.23512 0.29300
 H898 H 0.50134 0.24320 0.32617
 C899 C 0.48615 0.33144 0.43747
 C900 C 0.51598 0.17986 0.43410
 C901 C 0.57028 0.24880 0.31938
 C902 C 0.42233 0.27073 0.32781
 C903 C 0.96665 0.28678 0.60456
 H904 H 0.95149 0.27612 0.61656
 C905 C 0.96062 0.31247 0.59446
 H906 H 0.94072 0.32100 0.59885
 C907 C 1.01089 0.28875 0.58492
 H908 H 1.03109 0.28010 0.58272
 C909 C 1.00519 0.31406 0.57318
 H910 H 1.02115 0.32436 0.56175
 N911 N 0.99218 0.27639 0.60146
 C912 C 1.02657 0.19797 0.62502
 H913 H 1.03561 0.20433 0.64406
 C914 C 1.02766 0.17086 0.61789
 H915 H 1.03874 0.15701 0.63101
 C916 C 0.99937 0.20809 0.58620
 H917 H 0.98737 0.22253 0.57464
 C918 C 0.99991 0.18090 0.57829
 H919 H 0.98855 0.17468 0.56041
 Zn920 Zn 1.00447 0.24945 0.62651
 N921 N 1.01210 0.21590 0.60959
 C922 C 0.96831 0.21617 0.65751
 N923 N 0.97654 0.24230 0.65349
 C924 C 0.96397 0.26274 0.66699
 C925 C 0.94176 0.25733 0.68426
 C926 C 0.94687 0.20984 0.67523
 C927 C 1.06222 0.25398 0.63572
 C928 C 1.08619 0.26399 0.64786
 C929 C 1.05852 0.29501 0.67329
 C930 C 1.03512 0.28417 0.66085
 N931 N 1.03717 0.26349 0.64301
 H932 H 0.97776 0.19999 0.64655
 H933 H 0.97010 0.28346 0.66332
 H934 H 0.93146 0.27387 0.69414
 H935 H 0.94045 0.18896 0.67768
 H936 H 1.06378 0.23869 0.62027
 H937 H 1.10558 0.25560 0.64164
 H938 H 1.05558 0.31103 0.68771
 H939 H 1.01529 0.29237 0.66559
 C940 C 1.01338 0.16178 0.59487
 C941 C 0.98056 0.32716 0.57979
 C942 C 1.08470 0.28457 0.66744
 C943 C 0.93301 0.23057 0.68843
 C944 C 0.48848 0.79994 0.09128
 H945 H 0.46850 0.79732 0.10033
 C946 C 0.49317 0.82206 0.07401
 H947 H 0.47684 0.83639 0.07038
 C948 C 0.53351 0.78402 0.08370
 H949 H 0.54915 0.76907 0.08731
 C950 C 0.53897 0.80560 0.06608
 H951 H 0.55903 0.80721 0.05680
 N952 N 0.50883 0.78183 0.09642
 C953 C 0.51030 0.69555 0.11254
 H954 H 0.51810 0.69433 0.13316
 C955 C 0.50418 0.67184 0.09824
 H956 H 0.50764 0.65239 0.10787
 C957 C 0.49412 0.72231 0.07568
 H958 H 0.48929 0.74197 0.06727
 C959 C 0.48773 0.69933 0.06080
 H960 H 0.47891 0.70176 0.04070
 Zn961 Zn 0.50457 0.75245 0.12145
 N962 N 0.50467 0.72011 0.10123
 C963 C 0.45345 0.73222 0.14014
 N964 N 0.47010 0.75448 0.13955
 C965 C 0.46154 0.77845 0.14976
 C966 C 0.43461 0.78126 0.15885
 C967 C 0.42662 0.73394 0.14992
 C968 C 0.55985 0.74746 0.13859
 C969 C 0.58285 0.75473 0.15409
 C970 C 0.55262 0.77485 0.18684
 C971 C 0.53026 0.76732 0.17067
 N972 N 0.53422 0.75459 0.14663
 H973 H 0.46053 0.71327 0.13217
 H974 H 0.47513 0.79584 0.14937
 H975 H 0.42754 0.80084 0.16542
 H976 H 0.41322 0.71639 0.14923
 H977 H 0.56256 0.73708 0.11954
 H978 H 0.60304 0.74976 0.14663
 H979 H 0.54869 0.78535 0.20559
 H980 H 0.50982 0.77272 0.17690
 C981 C 0.49189 0.67368 0.07235
 C982 C 0.51880 0.82518 0.06138
 C983 C 0.57947 0.76938 0.17822
 C984 C 0.41678 0.75893 0.15844
 O985 O 0.00799 0.96934 0.92303
 O986 O 0.05423 0.97634 0.93230
 O987 O -0.01712 0.92222 0.99483
 O988 O -0.02600 0.92808 1.03780
 O989 O -0.06578 0.99205 0.96232
 O990 O -0.06032 1.03963 0.96892
 O991 O 0.04292 0.99499 1.06991
 O992 O 0.04163 0.95017 1.05788
 O993 O 0.07558 1.03835 1.00391
 O994 O 0.06638 1.04000 0.95486
 O995 O 0.00244 1.06535 1.03824
 O996 O -0.04371 1.05245 1.03780
 O997 O 0.00746 1.02465 1.07231
 O998 O -0.04376 1.01834 1.06053
 O999 O 0.03473 1.07107 1.00540
 O1000 O 0.03395 1.06447 0.95541
 O1001 O 0.07849 1.00343 1.03415
 O1002 O 0.07371 0.95527 1.02120
 O1003 O -0.02710 0.99946 0.92511
 O1004 O -0.02961 1.04583 0.93969
 O1005 O -0.06287 0.95736 0.99285
 O1006 O -0.05191 0.95951 1.04288
 O1007 O 0.01122 0.92885 0.95863
 O1008 O 0.05929 0.94376 0.96489
 Zr1009 Zr 0.02437 0.96919 0.96279
 O1010 O 0.04874 0.99334 0.98861
 Zr1011 Zr -0.02352 0.96113 1.01038
 O1012 O -0.00074 0.98423 1.03828
 Zr1013 Zr -0.02766 1.01188 0.96605
 O1014 O -0.00576 1.03762 0.99247
 Zr1015 Zr 0.04126 0.98244 1.02929
 O1016 O 0.01881 0.95643 1.00352
 Zr1017 Zr 0.03659 1.03379 0.98558
 O1018 O 0.01446 1.01018 0.95712
 Zr1019 Zr -0.01089 1.02514 1.03320
 O1020 O -0.03599 1.00163 1.00690
 O1021 O -0.01767 0.97123 0.96970
 O1022 O 0.03122 1.02332 1.02638
 C1023 C -0.01174 0.98293 0.91217
 C1024 C -0.00325 0.91377 0.97448
 C1025 C -0.07579 0.97143 0.97490
 C1026 C 0.02774 1.01160 1.08287
 C1027 C 0.08826 1.02455 1.02229
 C1028 C 0.02014 1.07967 1.02513
 H1029 H 0.06834 0.99105 0.98405
 H1030 H -0.01215 1.05633 0.98947
 H1031 H -0.02812 0.95931 0.95725
 H1032 H -0.00444 0.97745 1.05690
 H1033 H 0.03700 0.93358 1.04768
 H1034 H -0.00935 0.92905 1.04935
 H1035 H 0.01673 1.07448 0.95844
 H1036 H -0.01167 1.04702 0.93033
 H1037 H 0.08657 0.95561 1.03691
 H1038 H 0.05875 0.93113 0.94932
 H1039 H -0.04699 1.06093 1.01979
 H1040 H -0.06948 1.03592 0.98652
 H1041 H 0.05242 0.99546 0.92654
 H1042 H 0.07889 1.02433 0.95518
 H1043 H -0.06521 0.97427 1.03980
 H1044 H -0.03835 1.00363 1.07318
 O1045 O 0.56693 0.54029 0.50905
 O1046 O 0.55608 0.54287 0.46306
 O1047 O 0.49503 0.57178 0.54826
 O1048 O 0.45049 0.56198 0.55063
 O1049 O 0.53221 0.49704 0.57697
 O1050 O 0.53022 0.45168 0.56112
 O1051 O 0.42078 0.50593 0.47279
 O1052 O 0.42812 0.55070 0.48356
 O1053 O 0.49049 0.48052 0.43045
 O1054 O 0.53988 0.48114 0.43913
 O1055 O 0.46083 0.43319 0.49653
 O1056 O 0.46286 0.43664 0.54557
 O1057 O 0.42245 0.46947 0.50134
 O1058 O 0.43461 0.46494 0.55066
 O1059 O 0.49291 0.43811 0.46334
 O1060 O 0.54201 0.44986 0.46442
 O1061 O 0.45561 0.51023 0.43627
 O1062 O 0.46433 0.55741 0.45090
 O1063 O 0.56914 0.50314 0.53669
 O1064 O 0.55902 0.45606 0.53011
 O1065 O 0.49828 0.52792 0.58217
 O1066 O 0.44867 0.52451 0.57211
 O1067 O 0.52775 0.57617 0.51558
 O1068 O 0.52024 0.57193 0.46618
 Zr1069 Zr 0.52634 0.53964 0.49428
 O1070 O 0.50166 0.51865 0.46620
 Zr1071 Zr 0.48019 0.53196 0.54341
 O1072 O 0.45330 0.51114 0.51712
 Zr1073 Zr 0.52920 0.48635 0.53570
 O1074 O 0.50426 0.46327 0.50948
 Zr1075 Zr 0.46018 0.52294 0.47664
 O1076 O 0.48465 0.54648 0.50326
 Zr1077 Zr 0.50907 0.47708 0.46919
 O1078 O 0.53625 0.49830 0.49515
 Zr1079 Zr 0.46252 0.46976 0.51803
 O1080 O 0.48767 0.49021 0.54672
 O1081 O 0.52158 0.52756 0.53465
 O1082 O 0.46737 0.48139 0.47749
 C1083 C 0.57994 0.52389 0.52484
 C1084 C 0.51361 0.58529 0.53540
 C1085 C 0.51789 0.51319 0.59141
 C1086 C 0.40996 0.48503 0.48427
 C1087 C 0.46998 0.49436 0.42167
 C1088 C 0.47468 0.42438 0.47632
 H1089 H 0.50528 0.52585 0.44771
 H1090 H 0.50932 0.44406 0.51162
 H1091 H 0.53362 0.53781 0.54722
 H1092 H 0.43410 0.51468 0.52242
 H1093 H 0.43683 0.56722 0.49100
 H1094 H 0.43615 0.55987 0.53651
 H1095 H 0.54100 0.43641 0.47940
 H1096 H 0.56747 0.45961 0.51214
 H1097 H 0.44804 0.55811 0.43872
 H1098 H 0.53478 0.58579 0.46900
 H1099 H 0.48060 0.42730 0.54344
 H1100 H 0.51233 0.45085 0.57059
 H1101 H 0.56440 0.52479 0.46116
 H1102 H 0.53795 0.49920 0.43058
 H1103 H 0.45220 0.50649 0.58027
 H1104 H 0.42204 0.48055 0.55032
 O1105 O 0.45991 0.00252 0.56811
 O1106 O 0.46129 0.04793 0.55746
 O1107 O 0.43012 -0.03509 0.49496
 O1108 O 0.44257 -0.03900 0.45203
 O1109 O 0.50225 -0.06662 0.53745
 O1110 O 0.54875 -0.05334 0.53920
 O1111 O 0.50564 0.03608 0.42597
 O1112 O 0.45948 0.02827 0.43012
 O1113 O 0.53201 0.07654 0.49563
 O1114 O 0.52786 0.06971 0.54393
 O1115 O 0.57567 0.00874 0.46999
 O1116 O 0.56898 -0.03921 0.47199
 O1117 O 0.54046 0.00580 0.43004
 O1118 O 0.54054 -0.04363 0.44305
 O1119 O 0.57152 0.04220 0.50104
 O1120 O 0.55616 0.04107 0.54991
 O1121 O 0.50153 0.07326 0.46060
 O1122 O 0.45245 0.06045 0.46566
 O1123 O 0.49589 -0.02636 0.57294
 O1124 O 0.54494 -0.02155 0.56625
 O1125 O 0.47255 -0.07106 0.50190
 O1126 O 0.47917 -0.06109 0.45264
 O1127 O 0.42542 -0.00178 0.52617
 O1128 O 0.43439 0.04712 0.51959
 Zr1129 Zr 0.46429 0.01710 0.52802
 O1130 O 0.48915 0.04371 0.50507
 Zr1131 Zr 0.47162 -0.03243 0.48339
 O1132 O 0.49566 -0.00733 0.45802
 Zr1133 Zr 0.51554 -0.02633 0.53483
 O1134 O 0.54222 -0.00210 0.51133
 Zr1135 Zr 0.48614 0.03352 0.46385
 O1136 O 0.45923 0.00818 0.48643
 Zr1137 Zr 0.53078 0.03851 0.51493
 O1138 O 0.50564 0.01441 0.54060
 Zr1139 Zr 0.53705 -0.01049 0.46974
 O1140 O 0.51324 -0.03764 0.49368
 O1141 O 0.47421 -0.02356 0.52450
 O1142 O 0.52782 0.03034 0.47350
 C1143 C 0.47487 -0.01383 0.58212
 C1144 C 0.41585 -0.02116 0.51164
 C1145 C 0.48606 -0.08054 0.52234
 C1146 C 0.52640 0.02336 0.41657
 C1147 C 0.51905 0.08637 0.47506
 C1148 C 0.58533 0.02859 0.48376
 H1149 H 0.48309 0.06248 0.50807
 H1150 H 0.56127 -0.00524 0.51754
 H1151 H 0.46223 -0.03548 0.53566
 H1152 H 0.49263 -0.01251 0.43885
 H1153 H 0.44184 0.02139 0.43746
 H1154 H 0.44498 -0.02404 0.43879
 H1155 H 0.57014 0.02672 0.54875
 H1156 H 0.54134 -0.00387 0.57474
 H1157 H 0.45343 0.07277 0.44965
 H1158 H 0.41899 0.04495 0.53261
 H1159 H 0.57719 -0.03809 0.49039
 H1160 H 0.55071 -0.06245 0.52148
 H1161 H 0.47957 0.04956 0.56620
 H1162 H 0.50955 0.07801 0.54184
 H1163 H 0.49628 -0.07061 0.45775
 H1164 H 0.52609 -0.04188 0.42894
 O1165 O -0.07095 0.45636 0.99911
 O1166 O -0.06082 0.45896 0.95340
 O1167 O 0.00205 0.42708 1.03739
 O1168 O 0.04655 0.43867 1.03859
 O1169 O -0.03808 0.49677 1.07021
 O1170 O -0.04084 0.54288 1.05706
 O1171 O 0.07157 0.50446 0.96577
 O1172 O 0.06830 0.45864 0.97337
 O1173 O 0.00073 0.52910 0.92560
 O1174 O -0.04849 0.52376 0.93341
 O1175 O 0.02615 0.57181 0.99594
 O1176 O 0.02546 0.56211 1.04487
 O1177 O 0.06760 0.53808 0.99677
 O1178 O 0.05715 0.53731 1.04565
 O1179 O -0.00452 0.56736 0.96123
 O1180 O -0.05309 0.55212 0.96148
 O1181 O 0.03634 0.49973 0.92862
 O1182 O 0.03192 0.45124 0.94094
 O1183 O -0.07524 0.49060 1.02945
 O1184 O -0.06920 0.53864 1.02598
 O1185 O -0.00216 0.46781 1.07372
 O1186 O 0.04660 0.47436 1.06358
 O1187 O -0.02858 0.42289 1.00259
 O1188 O -0.02278 0.43261 0.95382
 Zr1189 Zr -0.03071 0.46139 0.98455
 O1190 O -0.00794 0.48651 0.95816
 Zr1191 Zr 0.01513 0.46771 1.03448
 O1192 O 0.04019 0.49259 1.00976
 Zr1193 Zr -0.03688 0.51049 1.02962
 O1194 O -0.01396 0.53751 1.00536
 Zr1195 Zr 0.03380 0.48406 0.96845
 O1196 O 0.01140 0.45662 0.99331
 Zr1197 Zr -0.01808 0.52709 0.96415
 O1198 O -0.04344 0.50175 0.98833
 Zr1199 Zr 0.02816 0.53304 1.01370
 O1200 O 0.00487 0.50843 1.04067
 O1201 O -0.02653 0.47012 1.02577
 O1202 O 0.02385 0.52483 0.97237
 C1203 C -0.08477 0.47037 1.01609
 C1204 C -0.01465 0.41321 1.02260
 C1205 C -0.02237 0.48084 1.08383
 C1206 C 0.08100 0.52505 0.97865
 C1207 C 0.02140 0.51674 0.91550
 C1208 C 0.01192 0.58132 0.97606
 H1209 H -0.01123 0.48079 0.93919
 H1210 H -0.02044 0.55600 1.00900
 H1211 H -0.03765 0.45810 1.03766
 H1212 H 0.05968 0.48998 1.01478
 H1213 H 0.06122 0.44098 0.98000
 H1214 H 0.06126 0.44398 1.02578
 H1215 H -0.05260 0.56453 0.97714
 H1216 H -0.07742 0.53608 1.00772
 H1217 H 0.04792 0.45268 0.92857
 H1218 H -0.03614 0.41745 0.95554
 H1219 H 0.00776 0.57157 1.04256
 H1220 H -0.02303 0.54453 1.06671
 H1221 H -0.06988 0.47678 0.95239
 H1222 H -0.04535 0.50668 0.92364
 H1223 H 0.04269 0.49189 1.07227
 H1224 H 0.07009 0.52203 1.04470
 O1225 O -0.00264 0.41908 0.52191
 O1226 O -0.02998 0.41878 0.48287
 O1227 O 0.06904 0.46438 0.49878
 O1228 O 0.07957 0.50528 0.48342
 O1229 O 0.02574 0.48192 0.57368
 O1230 O -0.01411 0.50803 0.58299
 O1231 O -0.00294 0.54810 0.43923
 O1232 O 0.03279 0.51934 0.42872
 O1233 O -0.07142 0.50075 0.45594
 O1234 O -0.08274 0.46428 0.48649
 O1235 O -0.04658 0.56276 0.51001
 O1236 O -0.01187 0.56663 0.54530
 O1237 O -0.00596 0.57245 0.47820
 O1238 O 0.02093 0.57278 0.52153
 O1239 O -0.07744 0.52994 0.49896
 O1240 O -0.08571 0.48436 0.52136
 O1241 O -0.03588 0.50948 0.42730
 O1242 O 0.00420 0.48031 0.42061
 O1243 O -0.01425 0.44377 0.55891
 O1244 O -0.04219 0.47904 0.57438
 O1245 O 0.06166 0.49135 0.54562
 O1246 O 0.06936 0.53166 0.51549
 O1247 O 0.03853 0.43086 0.48884
 O1248 O 0.00347 0.43069 0.45262
 Zr1249 Zr -0.00030 0.44913 0.49127
 O1250 O -0.02527 0.47601 0.46893
 Zr1251 Zr 0.04406 0.49778 0.50695
 O1252 O 0.02145 0.52643 0.48433
 Zr1253 Zr -0.00870 0.48464 0.54765
 O1254 O -0.03339 0.51335 0.52748
 Zr1255 Zr -0.00111 0.50773 0.45312
 O1256 O 0.02462 0.47944 0.47338
 Zr1257 Zr -0.05344 0.49502 0.49449
 O1258 O -0.03085 0.46563 0.51638
 Zr1259 Zr -0.00840 0.54335 0.50958
 O1260 O 0.01607 0.51657 0.53304
 O1261 O 0.02080 0.46644 0.52365
 O1262 O -0.03036 0.52633 0.47737
 C1263 C -0.01068 0.42117 0.54670
 C1264 C 0.06307 0.44008 0.49185
 C1265 C 0.05144 0.48582 0.56909
 C1266 C -0.00439 0.57053 0.45222
 C1267 C -0.06153 0.50545 0.43216
 C1268 C -0.07111 0.55430 0.50536
 H1269 H -0.03447 0.46580 0.45424
 H1270 H -0.04655 0.52098 0.54054
 H1271 H 0.03192 0.45295 0.53372
 H1272 H 0.03407 0.54028 0.47676
 H1273 H 0.04659 0.50486 0.43072
 H1274 H 0.07341 0.51470 0.46669
 H1275 H -0.08617 0.49792 0.53602
 H1276 H -0.05700 0.47037 0.56364
 H1277 H 0.00188 0.49039 0.40322
 H1278 H 0.00960 0.41176 0.45527
 H1279 H -0.02588 0.55788 0.55699
 H1280 H -0.00173 0.52390 0.58114
 H1281 H -0.04597 0.42228 0.49467
 H1282 H -0.07509 0.45261 0.47221
 H1283 H 0.06249 0.53966 0.53253
 H1284 H 0.03531 0.57371 0.50739
 O1285 O 0.53503 0.92810 -0.00090
 O1286 O 0.52830 0.93562 -0.04688
 O1287 O 0.58133 0.99744 0.02522
 O1288 O 0.57657 1.04207 0.02667
 O1289 O 0.51046 0.96978 0.07108
 O1290 O 0.46247 0.97467 0.06513
 O1291 O 0.50784 1.07188 -0.04130
 O1292 O 0.55316 1.06057 -0.04031
 O1293 O 0.46439 1.00397 -0.07090
 O1294 O 0.46210 0.95660 -0.05875
 O1295 O 0.43711 1.04311 -0.00052
 O1296 O 0.44900 1.04362 0.04540
 O1297 O 0.47903 1.07621 -0.00524
 O1298 O 0.48422 1.06537 0.04571
 O1299 O 0.43147 1.00971 -0.03154
 O1300 O 0.43743 0.95910 -0.02620
 O1301 O 0.49909 1.03472 -0.07501
 O1302 O 0.54859 1.02243 -0.06964
 O1303 O 0.50409 0.93102 0.03361
 O1304 O 0.45642 0.94547 0.03545
 O1305 O 0.54572 0.99997 0.06753
 O1306 O 0.54454 1.04881 0.05401
 O1307 O 0.57572 0.96302 -0.00473
 O1308 O 0.56100 0.96845 -0.05281
 Zr1309 Zr 0.53484 0.96689 -0.01837
 O1310 O 0.50991 0.99118 -0.04351
 Zr1311 Zr 0.54249 1.01541 0.02745
 O1312 O 0.51911 1.04218 0.00341
 Zr1313 Zr 0.49087 0.97161 0.03292
 O1314 O 0.46468 0.99718 0.01034
 Zr1315 Zr 0.52087 1.03177 -0.03791
 O1316 O 0.54767 1.00740 -0.01431
 Zr1317 Zr 0.46877 0.98861 -0.03117
 O1318 O 0.49311 0.96132 -0.00836
 Zr1319 Zr 0.47753 1.03770 0.01372
 O1320 O 0.50121 1.01243 0.03972
 O1321 O 0.53216 0.97496 0.02301
 O1322 O 0.47942 1.02930 -0.02766
 C1323 C 0.52118 0.91789 0.01890
 C1324 C 0.59026 0.97723 0.01174
 C1325 C 0.53121 0.98262 0.08088
 C1326 C 0.49192 1.08567 -0.02609
 C1327 C 0.47801 1.02192 -0.08426
 C1328 C 0.42291 1.03021 -0.01831
 H1329 H 0.51226 0.98578 -0.06268
 H1330 H 0.44558 0.99466 0.01666
 H1331 H 0.54394 0.96292 0.03415
 H1332 H 0.52603 1.06077 0.00633
 H1333 H 0.57024 1.05096 -0.03525
 H1334 H 0.57418 1.05376 0.01044
 H1335 H 0.42587 0.96448 -0.01069
 H1336 H 0.45554 0.93553 0.01808
 H1337 H 0.54767 1.03714 -0.08345
 H1338 H 0.57406 0.95317 -0.05170
 H1339 H 0.44055 1.02584 0.04954
 H1340 H 0.46501 0.99292 0.07287
 H1341 H 0.50903 0.92947 -0.04474
 H1342 H 0.47845 0.95552 -0.07054
 H1343 H 0.52931 1.04666 0.06715
 H1344 H 0.49944 1.07758 0.04026
 O1345 O 0.41914 0.50060 0.03787
 O1346 O 0.42404 0.45522 0.02878
 O1347 O 0.49337 0.52059 0.08191
 O1348 O 0.53797 0.52293 0.07493
 O1349 O 0.46483 0.57194 0.01376
 O1350 O 0.46656 0.56765 -0.03413
 O1351 O 0.56174 0.45737 0.00240
 O1352 O 0.55315 0.45701 0.04784
 O1353 O 0.49025 0.43210 -0.03779
 O1354 O 0.44256 0.44580 -0.03792
 O1355 O 0.53186 0.50292 -0.06415
 O1356 O 0.53438 0.54863 -0.04931
 O1357 O 0.56622 0.49418 -0.02546
 O1358 O 0.55946 0.54439 -0.01705
 O1359 O 0.49705 0.47253 -0.06939
 O1360 O 0.44596 0.47915 -0.06153
 O1361 O 0.52111 0.42495 -0.00363
 O1362 O 0.51234 0.42969 0.04567
 O1363 O 0.42292 0.53694 0.00929
 O1364 O 0.43460 0.53968 -0.03869
 O1365 O 0.49601 0.56555 0.04778
 O1366 O 0.54481 0.55060 0.04372
 O1367 O 0.45601 0.49330 0.07616
 O1368 O 0.45821 0.44631 0.05941
 Zr1369 Zr 0.45758 0.48199 0.03509
 O1370 O 0.48013 0.45768 0.00853
 Zr1371 Zr 0.50944 0.52548 0.04251
 O1372 O 0.53447 0.50221 0.01718
 Zr1373 Zr 0.46314 0.53483 -0.00650
 O1374 O 0.48688 0.51306 -0.03450
 Zr1375 Zr 0.52201 0.46149 0.01795
 O1376 O 0.49938 0.48410 0.04632
 Zr1377 Zr 0.47662 0.47186 -0.03170
 O1378 O 0.45087 0.49409 -0.00559
 Zr1379 Zr 0.52858 0.51474 -0.02335
 O1380 O 0.50524 0.53987 0.00229
 O1381 O 0.46777 0.52291 0.03387
 O1382 O 0.51837 0.47377 -0.02261
 C1383 C 0.40947 0.52175 0.02605
 C1384 C 0.47238 0.50747 0.09089
 C1385 C 0.47913 0.58023 0.03408
 C1386 C 0.57539 0.47254 -0.01410
 C1387 C 0.50717 0.41721 -0.02442
 C1388 C 0.51803 0.48581 -0.07820
 H1389 H 0.47370 0.43877 0.01055
 H1390 H 0.48385 0.52037 -0.05304
 H1391 H 0.45677 0.53376 0.04663
 H1392 H 0.55381 0.50409 0.02314
 H1393 H 0.54479 0.46175 0.06547
 H1394 H 0.54887 0.50650 0.07180
 H1395 H 0.45175 0.49500 -0.07255
 H1396 H 0.42407 0.52254 -0.03981
 H1397 H 0.52655 0.41554 0.04400
 H1398 H 0.44329 0.44724 0.07306
 H1399 H 0.51704 0.55147 -0.05944
 H1400 H 0.48569 0.57442 -0.03261
 H1401 H 0.41721 0.45860 0.01007
 H1402 H 0.44143 0.43345 -0.02202
 H1403 H 0.54273 0.56427 0.02904
 H1404 H 0.57193 0.53768 -0.00259
 O1405 O 0.04248 -0.06716 0.50051
 O1406 O 0.01064 -0.07286 0.53590
 O1407 O -0.00407 -0.04311 0.43205
 O1408 O -0.03334 -0.01020 0.42037
 O1409 O 0.06868 0.00297 0.45452
 O1410 O 0.07904 0.03433 0.48914
 O1411 O -0.07206 0.03362 0.50058
 O1412 O -0.07998 -0.00374 0.47472
 O1413 O -0.02989 0.00651 0.57131
 O1414 O 0.01007 -0.01906 0.58023
 O1415 O 0.00009 0.07456 0.52749
 O1416 O 0.02604 0.08086 0.48598
 O1417 O -0.04095 0.06764 0.49408
 O1418 O -0.00431 0.07516 0.45933
 O1419 O 0.00518 0.04553 0.56323
 O1420 O 0.03987 0.00807 0.57187
 O1421 O -0.06562 0.00328 0.54154
 O1422 O -0.07164 -0.03590 0.51038
 O1423 O 0.07377 -0.03306 0.49506
 O1424 O 0.08221 0.00731 0.52172
 O1425 O 0.03338 -0.00283 0.42461
 O1426 O -0.00804 0.02511 0.41870
 O1427 O 0.00065 -0.07239 0.46771
 O1428 O -0.02788 -0.07509 0.50897
 Zr1429 Zr 0.00461 -0.04711 0.50175
 O1430 O -0.01942 -0.02276 0.52710
 Zr1431 Zr -0.00182 -0.00443 0.44949
 O1432 O -0.02689 0.02113 0.47245
 Zr1433 Zr 0.05014 0.00246 0.49297
 O1434 O 0.02765 0.02911 0.51731
 Zr1435 Zr -0.04730 -0.00082 0.50313
 O1436 O -0.02511 -0.02716 0.47772
 Zr1437 Zr 0.00497 0.00673 0.54605
 O1438 O 0.02975 -0.01987 0.52343
 Zr1439 Zr -0.00219 0.04897 0.49357
 O1440 O 0.02297 0.02502 0.46844
 O1441 O 0.02667 -0.02589 0.47220
 O1442 O -0.02412 0.02829 0.52363
 C1443 C 0.06717 -0.05815 0.49786
 C1444 C -0.00285 -0.06708 0.44232
 C1445 C 0.05890 0.00089 0.43033
 C1446 C -0.06562 0.05855 0.49658
 C1447 C -0.05566 0.00524 0.56570
 C1448 C 0.00333 0.06940 0.55293
 H1449 H -0.02912 -0.03435 0.54052
 H1450 H 0.04051 0.04198 0.52599
 H1451 H 0.03777 -0.03769 0.46046
 H1452 H -0.04015 0.03009 0.46011
 H1453 H -0.07624 -0.01976 0.46343
 H1454 H -0.05048 -0.00361 0.42860
 H1455 H 0.05085 0.02423 0.56682
 H1456 H 0.07824 -0.00532 0.53695
 H1457 H -0.09031 -0.03001 0.51560
 H1458 H -0.02127 -0.09359 0.50514
 H1459 H 0.04179 0.07848 0.49854
 H1460 H 0.07058 0.04798 0.47694
 H1461 H 0.02441 -0.06397 0.54777
 H1462 H -0.00047 -0.03581 0.57662
 H1463 H 0.00634 0.03914 0.42120
 H1464 H -0.02050 0.06979 0.44835
 O1465 O 0.71602 0.25228 0.32094
 O1466 O 0.72378 0.29779 0.31262
 O1467 O 0.66990 0.22452 0.25307
 O1468 O 0.67676 0.22604 0.20402
 O1469 O 0.74175 0.17914 0.27753
 O1470 O 0.78913 0.18635 0.27606
 O1471 O 0.74524 0.28975 0.17577
 O1472 O 0.69994 0.28836 0.18561
 O1473 O 0.78754 0.32003 0.24286
 O1474 O 0.78917 0.30938 0.29120
 O1475 O 0.81468 0.24929 0.20594
 O1476 O 0.79990 0.20135 0.20802
 O1477 O 0.77394 0.25385 0.17245
 O1478 O 0.76886 0.20493 0.18169
 O1479 O 0.82068 0.28010 0.23950
 O1480 O 0.81365 0.27710 0.28996
 O1481 O 0.75259 0.32370 0.21223
 O1482 O 0.70289 0.31825 0.22423
 O1483 O 0.74533 0.21671 0.31803
 O1484 O 0.79341 0.21565 0.30519
 O1485 O 0.70560 0.18276 0.24828
 O1486 O 0.70355 0.19503 0.20147
 O1487 O 0.67570 0.25633 0.28575
 O1488 O 0.69108 0.30360 0.27964
 Zr1489 Zr 0.71667 0.26905 0.28164
 O1490 O 0.74179 0.29337 0.25660
 Zr1491 Zr 0.70834 0.22286 0.23356
 O1492 O 0.73259 0.24564 0.20634
 Zr1493 Zr 0.75998 0.21773 0.27766
 O1494 O 0.78669 0.23962 0.25194
 Zr1495 Zr 0.73103 0.28687 0.21584
 O1496 O 0.70368 0.26447 0.24096
 Zr1497 Zr 0.78281 0.28107 0.25971
 O1498 O 0.75822 0.25888 0.28745
 Zr1499 Zr 0.77409 0.23543 0.21123
 O1500 O 0.74957 0.21055 0.23670
 O1501 O 0.71878 0.22769 0.27417
 O1502 O 0.77244 0.27669 0.21885
 C1503 C 0.72883 0.23200 0.33121
 C1504 C 0.66107 0.23920 0.27256
 C1505 C 0.72132 0.16917 0.26432
 C1506 C 0.76162 0.27460 0.16244
 C1507 C 0.77383 0.33301 0.22466
 C1508 C 0.82923 0.26651 0.21916
 H1509 H 0.73947 0.31255 0.26155
 H1510 H 0.80567 0.23324 0.25487
 H1511 H 0.70700 0.21647 0.28622
 H1512 H 0.72586 0.24249 0.18761
 H1513 H 0.68241 0.28398 0.19478
 H1514 H 0.66707 0.24317 0.20739
 H1515 H 0.82410 0.26050 0.28613
 H1516 H 0.79396 0.23306 0.31496
 H1517 H 0.70384 0.33158 0.20907
 H1518 H 0.67811 0.30301 0.29517
 H1519 H 0.81367 0.20227 0.22284
 H1520 H 0.78878 0.17965 0.25715
 H1521 H 0.74296 0.29540 0.31889
 H1522 H 0.77302 0.32139 0.29156
 H1523 H 0.72108 0.18512 0.20021
 H1524 H 0.75177 0.20881 0.17147
 O1525 O 0.74549 0.71342 0.68203
 O1526 O 0.79182 0.71228 0.69248
 O1527 O 0.70700 0.68061 0.75446
 O1528 O 0.70434 0.69077 0.79807
 O1529 O 0.67608 0.75470 0.71628
 O1530 O 0.69141 0.80032 0.71666
 O1531 O 0.78080 0.74902 0.82649
 O1532 O 0.77285 0.70417 0.81941
 O1533 O 0.82377 0.77683 0.75596
 O1534 O 0.81468 0.77562 0.70721
 O1535 O 0.75698 0.82071 0.78616
 O1536 O 0.70720 0.81644 0.78280
 O1537 O 0.75117 0.78435 0.82364
 O1538 O 0.70177 0.78771 0.81090
 O1539 O 0.79043 0.81720 0.75431
 O1540 O 0.78813 0.80599 0.70489
 O1541 O 0.81917 0.74706 0.79119
 O1542 O 0.80551 0.69914 0.78357
 O1543 O 0.71681 0.74956 0.67925
 O1544 O 0.72262 0.79668 0.68809
 O1545 O 0.67177 0.72335 0.75014
 O1546 O 0.68226 0.72722 0.79926
 O1547 O 0.73991 0.67711 0.72202
 O1548 O 0.78989 0.68367 0.72872
 Zr1549 Zr 0.76057 0.71465 0.72219
 O1550 O 0.78859 0.73698 0.74600
 Zr1551 Zr 0.71107 0.72073 0.76788
 O1552 O 0.73729 0.74261 0.79384
 Zr1553 Zr 0.71766 0.76650 0.71842
 O1554 O 0.74365 0.79081 0.74251
 Zr1555 Zr 0.77854 0.73243 0.78728
 O1556 O 0.75196 0.70776 0.76369
 Zr1557 Zr 0.78453 0.77845 0.73793
 O1558 O 0.75878 0.75596 0.71161
 Zr1559 Zr 0.73522 0.78392 0.78387
 O1560 O 0.70669 0.76229 0.75960
 O1561 O 0.71956 0.72528 0.72675
 O1562 O 0.77643 0.77386 0.77933
 C1563 C 0.72921 0.72927 0.66888
 C1564 C 0.72025 0.66731 0.73649
 C1565 C 0.66192 0.73807 0.73084
 C1566 C 0.76805 0.76916 0.83673
 C1567 C 0.83330 0.76362 0.77649
 C1568 C 0.77770 0.83005 0.77293
 H1569 H 0.80741 0.73058 0.74242
 H1570 H 0.74122 0.80998 0.73732
 H1571 H 0.70702 0.71449 0.71515
 H1572 H 0.73186 0.73881 0.81286
 H1573 H 0.76544 0.68747 0.81109
 H1574 H 0.71936 0.69268 0.81152
 H1575 H 0.77367 0.81979 0.70681
 H1576 H 0.74113 0.79416 0.68030
 H1577 H 0.81814 0.69916 0.79946
 H1578 H 0.78709 0.66940 0.71489
 H1579 H 0.71011 0.82653 0.76558
 H1580 H 0.68264 0.80151 0.73474
 H1581 H 0.79367 0.73050 0.68419
 H1582 H 0.82373 0.75789 0.70932
 H1583 H 0.67307 0.74458 0.79514
 H1584 H 0.70217 0.77211 0.82361
 O1585 O 0.22829 0.19176 0.79561
 O1586 O 0.18731 0.20228 0.77390
 O1587 O 0.28627 0.18218 0.73186
 O1588 O 0.29974 0.20649 0.69540
 O1589 O 0.30908 0.23301 0.79924
 O1590 O 0.29556 0.27524 0.81502
 O1591 O 0.24061 0.28431 0.67443
 O1592 O 0.24420 0.23985 0.66432
 O1593 O 0.18140 0.29060 0.73616
 O1594 O 0.17461 0.26874 0.78081
 O1595 O 0.25668 0.33048 0.74459
 O1596 O 0.30316 0.31678 0.75794
 O1597 O 0.27133 0.31011 0.69798
 O1598 O 0.31441 0.30099 0.72304
 O1599 O 0.21464 0.32060 0.76209
 O1600 O 0.20115 0.29187 0.80164
 O1601 O 0.19281 0.27317 0.69510
 O1602 O 0.20244 0.22523 0.68561
 O1603 O 0.25791 0.21824 0.81984
 O1604 O 0.25701 0.26603 0.82956
 O1605 O 0.32053 0.21462 0.75860
 O1606 O 0.32561 0.23722 0.71442
 O1607 O 0.24402 0.17249 0.74908
 O1608 O 0.19927 0.18880 0.73137
 Zr1609 Zr 0.22661 0.21030 0.75722
 O1610 O 0.20866 0.24405 0.73813
 Zr1611 Zr 0.28805 0.22473 0.73228
 O1612 O 0.27249 0.25869 0.71145
 Zr1613 Zr 0.26973 0.24933 0.79228
 O1614 O 0.25404 0.28473 0.77400
 Zr1615 Zr 0.23050 0.25356 0.70259
 O1616 O 0.24704 0.21785 0.72024
 Zr1617 Zr 0.21290 0.27824 0.76270
 O1618 O 0.22779 0.24372 0.78348
 Zr1619 Zr 0.27416 0.29249 0.73700
 O1620 O 0.29237 0.25904 0.75706
 O1621 O 0.26773 0.21521 0.76814
 O1622 O 0.23285 0.28819 0.72649
 C1623 C 0.24122 0.19804 0.81750
 C1624 C 0.26734 0.16553 0.73939
 C1625 C 0.32571 0.22068 0.78343
 C1626 C 0.25780 0.30407 0.67634
 C1627 C 0.17668 0.28612 0.71090
 C1628 C 0.23337 0.33729 0.75443
 H1629 H 0.18921 0.23977 0.73402
 H1630 H 0.25608 0.29994 0.78675
 H1631 H 0.27572 0.19932 0.77756
 H1632 H 0.28320 0.26150 0.69461
 H1633 H 0.24836 0.22041 0.66662
 H1634 H 0.29256 0.21796 0.68045
 H1635 H 0.21669 0.30230 0.80936
 H1636 H 0.23695 0.26287 0.83080
 H1637 H 0.19505 0.23299 0.66842
 H1638 H 0.19657 0.17027 0.73884
 H1639 H 0.29541 0.32108 0.77594
 H1640 H 0.30861 0.28345 0.80190
 H1641 H 0.18419 0.21604 0.78803
 H1642 H 0.16495 0.25573 0.76889
 H1643 H 0.33390 0.25083 0.72666
 H1644 H 0.31710 0.29101 0.70592
 O1645 O 0.20273 0.73446 0.31164
 O1646 O 0.22202 0.69362 0.30316
 O1647 O 0.27485 0.78702 0.31775
 O1648 O 0.30790 0.80207 0.29133
 O1649 O 0.20366 0.81404 0.26712
 O1650 O 0.18411 0.79952 0.22689
 O1651 O 0.32252 0.73788 0.21586
 O1652 O 0.33473 0.74197 0.25989
 O1653 O 0.25587 0.68209 0.21417
 O1654 O 0.21072 0.67976 0.23577
 O1655 O 0.25103 0.75657 0.17066
 O1656 O 0.24171 0.80254 0.18242
 O1657 O 0.29956 0.76850 0.18958
 O1658 O 0.27722 0.81289 0.19896
 O1659 O 0.23239 0.71575 0.18175
 O1660 O 0.19159 0.70625 0.21148
 O1661 O 0.29876 0.69184 0.22995
 O1662 O 0.31101 0.70284 0.27706
 O1663 O 0.17943 0.76460 0.28507
 O1664 O 0.16802 0.76280 0.23740
 O1665 O 0.24567 0.82263 0.28548
 O1666 O 0.28974 0.82446 0.26053
 O1667 O 0.25213 0.74860 0.33026
 O1668 O 0.26618 0.70312 0.31443
 Zr1669 Zr 0.24101 0.73096 0.29284
 O1670 O 0.25758 0.71125 0.25892
 Zr1671 Zr 0.26967 0.78922 0.27536
 O1672 O 0.28835 0.77175 0.24144
 Zr1673 Zr 0.20697 0.77396 0.25301
 O1674 O 0.22298 0.75653 0.21740
 Zr1675 Zr 0.29463 0.73021 0.24776
 O1676 O 0.27938 0.74857 0.28344
 Zr1677 Zr 0.23198 0.71564 0.22470
 O1678 O 0.21352 0.73246 0.25959
 Zr1679 Zr 0.26128 0.77396 0.20814
 O1680 O 0.24350 0.79389 0.24149
 O1681 O 0.23252 0.77185 0.28699
 O1682 O 0.26943 0.73289 0.21334
 C1683 C 0.18112 0.74781 0.30521
 C1684 C 0.26632 0.76988 0.33558
 C1685 C 0.22137 0.82982 0.27841
 C1686 C 0.32084 0.75444 0.19557
 C1687 C 0.28109 0.67606 0.21868
 C1688 C 0.24029 0.73372 0.16440
 H1689 H 0.26041 0.69208 0.26395
 H1690 H 0.20977 0.75884 0.20226
 H1691 H 0.22442 0.78062 0.30309
 H1692 H 0.30593 0.78128 0.23799
 H1693 H 0.33365 0.74673 0.27938
 H1694 H 0.32192 0.79014 0.28347
 H1695 H 0.18510 0.72127 0.19976
 H1696 H 0.16603 0.74310 0.24056
 H1697 H 0.32763 0.69443 0.26930
 H1698 H 0.25971 0.70169 0.33351
 H1699 H 0.22245 0.79659 0.17984
 H1700 H 0.19769 0.81073 0.21688
 H1701 H 0.20773 0.69020 0.28920
 H1702 H 0.22208 0.67007 0.24939
 H1703 H 0.27678 0.83361 0.24796
 H1704 H 0.29575 0.81427 0.20720
 O1705 O 0.25526 0.67033 0.75704
 O1706 O 0.29631 0.68191 0.73701
 O1707 O 0.24930 0.72144 0.82658
 O1708 O 0.25371 0.76885 0.83291
 O1709 O 0.18065 0.71359 0.77344
 O1710 O 0.16897 0.73163 0.73019
 O1711 O 0.28976 0.81839 0.75509
 O1712 O 0.30876 0.79701 0.79150
 O1713 O 0.29761 0.76701 0.69001
 O1714 O 0.28401 0.71984 0.68052
 O1715 O 0.22439 0.80652 0.70177
 O1716 O 0.18454 0.79995 0.73095
 O1717 O 0.24533 0.82780 0.74442
 O1718 O 0.20017 0.81499 0.76517
 O1719 O 0.24929 0.77752 0.67633
 O1720 O 0.24485 0.72763 0.67033
 O1721 O 0.31873 0.78315 0.72796
 O1722 O 0.32716 0.76275 0.77681
 O1723 O 0.21103 0.67973 0.74504
 O1724 O 0.19301 0.70550 0.70685
 O1725 O 0.19728 0.73570 0.81052
 O1726 O 0.21483 0.78000 0.82088
 O1727 O 0.27567 0.69334 0.80143
 O1728 O 0.31544 0.70439 0.77248
 Zr1729 Zr 0.27346 0.70861 0.76145
 O1730 O 0.28914 0.74000 0.73673
 Zr1731 Zr 0.23604 0.75079 0.79810
 O1732 O 0.25086 0.78417 0.77550
 Zr1733 Zr 0.20935 0.72228 0.74292
 O1734 O 0.22199 0.75483 0.71802
 Zr1735 Zr 0.28979 0.77594 0.75917
 O1736 O 0.27652 0.74389 0.78495
 Zr1737 Zr 0.26201 0.74776 0.70429
 O1738 O 0.24822 0.71387 0.72693
 Zr1739 Zr 0.22555 0.79009 0.74129
 O1740 O 0.20907 0.75836 0.76538
 O1741 O 0.23416 0.71493 0.77657
 O1742 O 0.26471 0.78391 0.72560
 C1743 C 0.23073 0.66327 0.75030
 C1744 C 0.26523 0.70101 0.82400
 C1745 C 0.17887 0.72167 0.79806
 C1746 C 0.27017 0.83490 0.74973
 C1747 C 0.31763 0.77869 0.70226
 C1748 C 0.23496 0.79892 0.67926
 H1749 H 0.30762 0.73484 0.73045
 H1750 H 0.20886 0.75704 0.70279
 H1751 H 0.22713 0.69968 0.78778
 H1752 H 0.25148 0.80024 0.78730
 H1753 H 0.29472 0.79896 0.80580
 H1754 H 0.27373 0.76565 0.83190
 H1755 H 0.22564 0.73367 0.66816
 H1756 H 0.20857 0.69721 0.69717
 H1757 H 0.33721 0.75262 0.76278
 H1758 H 0.31832 0.68605 0.78030
 H1759 H 0.17858 0.78774 0.71621
 H1760 H 0.16389 0.74840 0.73970
 H1761 H 0.28743 0.68181 0.71886
 H1762 H 0.30218 0.71713 0.68916
 H1763 H 0.19878 0.78552 0.80978
 H1764 H 0.21133 0.82182 0.78055
 O1765 O 0.25614 0.21422 0.17485
 O1766 O 0.30170 0.21605 0.18763
 O1767 O 0.21568 0.17840 0.24421
 O1768 O 0.21111 0.18684 0.28823
 O1769 O 0.18233 0.25013 0.20614
 O1770 O 0.19386 0.29653 0.20766
 O1771 O 0.28295 0.25023 0.32066
 O1772 O 0.27645 0.20471 0.31333
 O1773 O 0.32488 0.28288 0.25488
 O1774 O 0.32013 0.28080 0.20538
 O1775 O 0.25397 0.32069 0.28041
 O1776 O 0.20521 0.31239 0.27594
 O1777 O 0.25131 0.28382 0.31747
 O1778 O 0.20123 0.28257 0.30342
 O1779 O 0.28886 0.32022 0.24986
 O1780 O 0.29059 0.30842 0.20042
 O1781 O 0.32144 0.25003 0.28739
 O1782 O 0.31119 0.20179 0.27874
 O1783 O 0.22572 0.24882 0.17114
 O1784 O 0.22685 0.29627 0.18141
 O1785 O 0.17841 0.21843 0.23973
 O1786 O 0.18613 0.22197 0.28916
 O1787 O 0.25048 0.17718 0.21351
 O1788 O 0.29973 0.18675 0.22356
 Zr1789 Zr 0.26882 0.21588 0.21570
 O1790 O 0.29399 0.23969 0.24107
 Zr1791 Zr 0.21685 0.21804 0.25912
 O1792 O 0.24019 0.24097 0.28678
 Zr1793 Zr 0.22271 0.26491 0.21064
 O1794 O 0.24552 0.29042 0.23647
 Zr1795 Zr 0.28215 0.23343 0.28162
 O1796 O 0.25857 0.20754 0.25655
 Zr1797 Zr 0.28737 0.28098 0.23357
 O1798 O 0.26475 0.25720 0.20567
 Zr1799 Zr 0.23575 0.28219 0.27737
 O1800 O 0.21005 0.25932 0.25123
 O1801 O 0.22703 0.22387 0.21848
 O1802 O 0.27761 0.27481 0.27435
 C1803 C 0.23986 0.22946 0.16103
 C1804 C 0.23042 0.16622 0.22658
 C1805 C 0.16865 0.23250 0.21994
 C1806 C 0.26933 0.26993 0.33063
 C1807 C 0.33437 0.26915 0.27507
 C1808 C 0.27416 0.33191 0.26784
 H1809 H 0.31342 0.23469 0.23842
 H1810 H 0.24183 0.30942 0.23135
 H1811 H 0.21583 0.21263 0.20601
 H1812 H 0.23440 0.23659 0.30557
 H1813 H 0.27079 0.18759 0.30456
 H1814 H 0.22445 0.19017 0.30306
 H1815 H 0.27522 0.32131 0.20168
 H1816 H 0.24557 0.29481 0.17381
 H1817 H 0.32283 0.20206 0.29536
 H1818 H 0.29861 0.17256 0.20945
 H1819 H 0.20719 0.32220 0.25844
 H1820 H 0.18412 0.29690 0.22529
 H1821 H 0.30339 0.23476 0.18053
 H1822 H 0.33044 0.26385 0.20814
 H1823 H 0.17640 0.23908 0.28525
 H1824 H 0.20331 0.26769 0.31682
 O1825 O 0.78847 0.67996 0.23217
 O1826 O 0.79552 0.70767 0.19359
 O1827 O 0.81394 0.73132 0.29795
 O1828 O 0.80003 0.76730 0.31977
 O1829 O 0.73392 0.68614 0.29917
 O1830 O 0.69048 0.69539 0.27853
 O1831 O 0.75599 0.82706 0.25119
 O1832 O 0.79931 0.81470 0.26422
 O1833 O 0.73719 0.78279 0.18039
 O1834 O 0.73705 0.73728 0.16764
 O1835 O 0.67922 0.78310 0.24527
 O1836 O 0.67718 0.76184 0.29013
 O1837 O 0.71385 0.81545 0.26770
 O1838 O 0.70386 0.78652 0.30871
 O1839 O 0.68928 0.76734 0.20319
 O1840 O 0.70422 0.72185 0.18651
 O1841 O 0.76642 0.80994 0.20411
 O1842 O 0.81152 0.79498 0.22164
 O1843 O 0.74672 0.66876 0.24986
 O1844 O 0.70010 0.68156 0.24003
 O1845 O 0.76404 0.71273 0.32245
 O1846 O 0.76008 0.76200 0.33214
 O1847 O 0.82208 0.71175 0.25713
 O1848 O 0.82438 0.73809 0.21464
 Zr1849 Zr 0.78820 0.72251 0.23319
 O1850 O 0.77075 0.75668 0.21440
 Zr1851 Zr 0.77281 0.74479 0.29503
 O1852 O 0.75510 0.78008 0.27857
 Zr1853 Zr 0.72900 0.70552 0.26138
 O1854 O 0.70900 0.73901 0.24394
 Zr1855 Zr 0.77293 0.78960 0.24101
 O1856 O 0.79308 0.75620 0.25893
 Zr1857 Zr 0.72866 0.75043 0.20756
 O1858 O 0.74678 0.71480 0.22353
 Zr1859 Zr 0.71354 0.77282 0.26922
 O1860 O 0.73051 0.73816 0.28850
 O1861 O 0.77040 0.71130 0.27006
 O1862 O 0.73116 0.78435 0.23232
 C1863 C 0.76994 0.66269 0.23930
 C1864 C 0.82944 0.71871 0.28113
 C1865 C 0.74790 0.69213 0.32049
 C1866 C 0.73228 0.83292 0.26080
 C1867 C 0.75276 0.80380 0.18269
 C1868 C 0.67312 0.77842 0.22032
 H1869 H 0.78071 0.76062 0.19731
 H1870 H 0.68955 0.73390 0.24109
 H1871 H 0.77943 0.69542 0.27851
 H1872 H 0.75758 0.79515 0.29143
 H1873 H 0.81473 0.80324 0.27044
 H1874 H 0.80221 0.78516 0.31085
 H1875 H 0.68772 0.71812 0.19765
 H1876 H 0.70672 0.68040 0.22107
 H1877 H 0.81376 0.81442 0.21701
 H1878 H 0.83789 0.72328 0.21301
 H1879 H 0.66791 0.74755 0.27947
 H1880 H 0.68807 0.70731 0.29440
 H1881 H 0.77790 0.70021 0.18675
 H1882 H 0.75723 0.73744 0.16543
 H1883 H 0.74092 0.75593 0.33522
 H1884 H 0.71923 0.79799 0.31515
 O1885 O 0.68194 0.24603 0.78616
 O1886 O 0.69358 0.20061 0.78638
 O1887 O 0.75317 0.28612 0.81860
 O1888 O 0.79744 0.29051 0.80922
 O1889 O 0.71471 0.31602 0.74438
 O1890 O 0.71633 0.30181 0.69839
 O1891 O 0.82836 0.21556 0.75016
 O1892 O 0.82145 0.22453 0.79567
 O1893 O 0.75969 0.17266 0.72271
 O1894 O 0.70991 0.17971 0.72354
 O1895 O 0.78864 0.24002 0.67854
 O1896 O 0.78492 0.28808 0.68219
 O1897 O 0.82626 0.24617 0.71535
 O1898 O 0.81164 0.29503 0.71241
 O1899 O 0.75684 0.20628 0.68169
 O1900 O 0.70743 0.20584 0.69266
 O1901 O 0.79402 0.17786 0.75381
 O1902 O 0.78572 0.19110 0.80156
 O1903 O 0.67887 0.27451 0.74957
 O1904 O 0.68863 0.26957 0.70163
 O1905 O 0.74868 0.32103 0.77588
 O1906 O 0.79876 0.31268 0.77224
 O1907 O 0.72168 0.25209 0.82230
 O1908 O 0.72968 0.20353 0.81596
 Zr1909 Zr 0.72277 0.23253 0.78460
 O1910 O 0.74785 0.20621 0.76254
 Zr1911 Zr 0.76778 0.28307 0.77862
 O1912 O 0.79513 0.25848 0.75715
 Zr1913 Zr 0.71854 0.27542 0.73237
 O1914 O 0.74404 0.25113 0.70832
 Zr1915 Zr 0.78914 0.21765 0.76754
 O1916 O 0.76432 0.24260 0.79193
 Zr1917 Zr 0.74017 0.21053 0.72075
 O1918 O 0.71254 0.23456 0.74296
 Zr1919 Zr 0.78560 0.26071 0.71552
 O1920 O 0.75985 0.28765 0.73674
 O1921 O 0.72657 0.27316 0.77382
 O1922 O 0.78167 0.21992 0.72576
 C1923 C 0.66851 0.26191 0.77019
 C1924 C 0.73535 0.27211 0.83192
 C1925 C 0.72880 0.33018 0.76129
 C1926 C 0.83902 0.22864 0.73008
 C1927 C 0.78008 0.16375 0.73679
 C1928 C 0.77549 0.21964 0.66892
 H1929 H 0.74462 0.18749 0.76906
 H1930 H 0.73900 0.25366 0.68897
 H1931 H 0.71442 0.28491 0.78458
 H1932 H 0.81420 0.26431 0.76106
 H1933 H 0.81285 0.23123 0.81251
 H1934 H 0.81171 0.27657 0.80729
 H1935 H 0.70830 0.22112 0.67957
 H1936 H 0.68052 0.25142 0.70482
 H1937 H 0.80219 0.17942 0.80201
 H1938 H 0.71515 0.20528 0.82992
 H1939 H 0.76675 0.28638 0.67329
 H1940 H 0.73426 0.31133 0.69743
 H1941 H 0.68512 0.19929 0.76809
 H1942 H 0.71224 0.17049 0.74133
 H1943 H 0.79441 0.32199 0.75485
 H1944 H 0.82506 0.29415 0.72755
 N1945 N 0.01935 1.03216 1.12822
 N1946 N 0.02985 1.03093 1.15303
 C1947 C 0.05115 1.01359 1.15323
 C1948 C 0.05420 1.00335 1.12718
 C1949 C 0.03370 1.01573 1.11197
 H1950 H 0.06942 0.98926 1.12008
 H1951 H 0.00256 1.04405 1.12264
 H1952 H 0.02220 1.04171 1.16947
 N1953 N 0.50922 0.52934 0.63829
 N1954 N 0.52062 0.52737 0.66264
 C1955 C 0.54342 0.51208 0.66095
 C1956 C 0.54641 0.50382 0.63417
 C1957 C 0.52437 0.51533 0.62054
 H1958 H 0.56260 0.49175 0.62558
 H1959 H 0.49130 0.54009 0.63405
 H1960 H 0.51254 0.53631 0.67997
 N1961 N 0.48298 -0.03331 0.62827
 N1962 N 0.47163 -0.03243 0.65258
 C1963 C 0.44874 -0.01729 0.65103
 C1964 C 0.44538 -0.00817 0.62445
 C1965 C 0.46764 -0.01869 0.61075
 H1966 H 0.42948 0.00485 0.61638
 H1967 H 0.50114 -0.04351 0.62394
 H1968 H 0.47948 -0.04224 0.66980
 N1969 N -0.01257 0.46273 1.13050
 N1970 N -0.02269 0.46517 1.15528
 C1971 C -0.04466 0.48165 1.15420
 C1972 C -0.04856 0.48999 1.12742
 C1973 C -0.02786 0.47754 1.11311
 H1974 H -0.06406 0.50345 1.11935
 H1975 H 0.00457 0.45113 1.12572
 H1976 H -0.01480 0.45524 1.17241
 N1977 N -0.10686 0.49863 0.41335
 N1978 N -0.11831 0.49570 0.38755
 C1979 C -0.09841 0.50038 0.36897
 C1980 C -0.07397 0.50669 0.38269
 C1981 C -0.08006 0.50477 0.41035
 H1982 H -0.05394 0.51037 0.37389
 H1983 H -0.11739 0.49507 0.43152
 H1984 H -0.13903 0.49134 0.38416
 N1985 N 0.48133 1.04588 -0.12897
 N1986 N 0.46867 1.04551 -0.15280
 C1987 C 0.44787 1.02728 -0.15181
 C1988 C 0.44745 1.01560 -0.12600
 C1989 C 0.46897 1.02795 -0.11224
 H1990 H 0.43366 1.00018 -0.11821
 H1991 H 0.49839 1.05800 -0.12449
 H1992 H 0.47481 1.05726 -0.16945
 N1993 N 0.51897 0.45882 -0.12059
 N1994 N 0.53306 0.45828 -0.14346
 C1995 C 0.55042 0.47962 -0.14411
 C1996 C 0.54729 0.49441 -0.12051
 C1997 C 0.52724 0.48035 -0.10605
 H1998 H 0.55876 0.51213 -0.11426
 H1999 H 0.50455 0.44416 -0.11476
 H2000 H 0.53086 0.44339 -0.15826
 N2001 N 0.10539 0.00905 0.41152
 N2002 N 0.11754 0.00981 0.38760
 C2003 C 0.09884 0.00409 0.36807
 C2004 C 0.07347 -0.00029 0.38033
 C2005 C 0.07867 0.00296 0.40790
 H2006 H 0.05410 -0.00542 0.37075
 H2007 H 0.11534 0.01293 0.42996
 H2008 H 0.13827 0.01464 0.38504
 N2009 N 0.13270 1.01891 1.04684
 N2010 N 0.15689 1.03112 1.04790
 C2011 C 0.15603 1.05348 1.03207
 C2012 C 0.13014 1.05558 1.02042
 C2013 C 0.11608 1.03314 1.03016
 H2014 H 0.12295 1.07059 1.00594
 H2015 H 0.12798 1.00079 1.05691
 H2016 H 0.17364 1.02405 1.05917
 N2017 N 0.62639 0.51307 0.54376
 N2018 N 0.65136 0.52379 0.54327
 C2019 C 0.65058 0.54717 0.52896
 C2020 C 0.62391 0.55137 0.51991
 C2021 C 0.60927 0.52935 0.52970
 H2022 H 0.61619 0.56789 0.50757
 H2023 H 0.62131 0.49485 0.55346
 H2024 H 0.66842 0.51527 0.55291
 N2025 N 0.62032 0.47905 -0.03705
 N2026 N 0.64470 0.46757 -0.03701
 C2027 C 0.64414 0.44599 -0.02000
 C2028 C 0.61814 0.44370 -0.00877
 C2029 C 0.60375 0.46503 -0.02015
 H2030 H 0.61068 0.42879 0.00569
 H2031 H 0.61535 0.49640 -0.04824
 H2032 H 0.66142 0.47500 -0.04806
 N2033 N 0.08496 -0.10502 0.49654
 N2034 N 0.10890 -0.11715 0.49446
 C2035 C 0.12898 -0.09819 0.49330
 C2036 C 0.11710 -0.07283 0.49456
 C2037 C 0.08922 -0.07814 0.49674
 H2038 H 0.12720 -0.05328 0.49431
 H2039 H 0.06606 -0.11511 0.49751
 H2040 H 0.11108 -0.13808 0.49351
 N2041 N 0.36911 -0.01451 0.53072
 N2042 N 0.34429 -0.02515 0.52810
 C2043 C 0.34519 -0.04540 0.50987
 C2044 C 0.37202 -0.04760 0.50058
 C2045 C 0.38645 -0.02770 0.51434
 H2046 H 0.38011 -0.06166 0.48598
 H2047 H 0.37399 0.00144 0.54369
 H2048 H 0.32735 -0.01884 0.53924
 N2049 N -0.13084 0.47696 1.03639
 N2050 N -0.15561 0.46613 1.03444
 C2051 C -0.15459 0.44500 1.01734
 C2052 C -0.12793 0.44219 1.00810
 C2053 C -0.11361 0.46298 1.02056
 H2054 H -0.12021 0.42770 0.99370
 H2055 H -0.12604 0.49388 1.04809
 H2056 H -0.17275 0.47314 1.04487
 N2057 N -0.08939 0.59990 0.51515
 N2058 N -0.11350 0.61174 0.51698
 C2059 C -0.13339 0.59359 0.51098
 C2060 C -0.12126 0.56908 0.50489
 C2061 C -0.09335 0.57398 0.50796
 H2062 H -0.13128 0.55020 0.49972
 H2063 H -0.07060 0.60948 0.51900
 H2064 H -0.11603 0.63201 0.52204
 N2065 N 0.37950 1.02993 -0.04493
 N2066 N 0.35541 1.04196 -0.04463
 C2067 C 0.35477 1.05937 -0.02361
 C2068 C 0.37994 1.05838 -0.01012
 C2069 C 0.39488 1.03939 -0.02428
 H2070 H 0.38645 1.06942 0.00770
 H2071 H 0.38523 1.01553 -0.05921
 H2072 H 0.34002 1.03818 -0.05895
 N2073 N 0.04073 1.12522 1.01910
 N2074 N 0.03861 1.14945 1.02979
 C2075 C 0.02025 1.14837 1.05028
 C2076 C 0.01013 1.12212 1.05256
 C2077 C 0.02379 1.10815 1.03244
 H2078 H -0.00484 1.11421 1.06681
 H2079 H 0.05339 1.12068 1.00267
 H2080 H 0.04935 1.16636 1.02259
 N2081 N 0.53973 0.62839 0.53261
 N2082 N 0.53959 0.65242 0.54398
 C2083 C 0.51936 0.65304 0.56264
 C2084 C 0.50599 0.62813 0.56306
 C2085 C 0.51966 0.61313 0.54373
 H2086 H 0.48884 0.62177 0.57557
 H2087 H 0.55330 0.62274 0.51730
 H2088 H 0.55287 0.66816 0.53843
 N2089 N -0.00857 0.59714 0.40917
 N2090 N -0.00934 0.62280 0.40160
 C2091 C -0.00562 0.63838 0.42365
 C2092 C -0.00252 0.62197 0.44642
 C2093 C -0.00463 0.59586 0.43628
 H2094 H 0.00013 0.62811 0.46735
 H2095 H -0.01131 0.58088 0.39600
 H2096 H -0.01259 0.62950 0.38164
 N2097 N 0.47893 1.13291 -0.01514
 N2098 N 0.48176 1.15722 -0.02616
 C2099 C 0.49367 1.15481 -0.05072
 C2100 C 0.49865 1.12774 -0.05554
 C2101 C 0.48910 1.11458 -0.03241
 H2102 H 0.50841 1.11892 -0.07306
 H2103 H 0.47067 1.12912 0.00410
 H2104 H 0.47534 1.17505 -0.01701
 N2105 N 0.51758 0.36891 -0.01541
 N2106 N 0.51486 0.34557 -0.02798
 C2107 C 0.50565 0.35028 -0.05343
 C2108 C 0.50219 0.37781 -0.05731
 C2109 C 0.50986 0.38888 -0.03256
 H2110 H 0.49455 0.38818 -0.07526
 H2111 H 0.52382 0.37095 0.00483
 H2112 H 0.51931 0.32677 -0.01925
 N2113 N -0.00709 -0.08713 0.39632
 N2114 N -0.00863 -0.11134 0.38536
 C2115 C -0.00786 -0.13030 0.40532
 C2116 C -0.00552 -0.11726 0.43020
 C2117 C -0.00518 -0.08994 0.42349
 H2118 H -0.00435 -0.12622 0.45033
 H2119 H -0.00710 -0.06903 0.38522
 H2120 H -0.00963 -0.11445 0.36441
 N2121 N 0.47052 -0.12769 0.51302
 N2122 N 0.47319 -0.15184 0.52439
 C2123 C 0.48742 -0.14928 0.54787
 C2124 C 0.49407 -0.12231 0.55154
 C2125 C 0.48306 -0.10936 0.52898
 H2126 H 0.50569 -0.11338 0.56804
 H2127 H 0.46056 -0.12400 0.49450
 H2128 H 0.46501 -0.16960 0.51627
 N2129 N -0.03289 0.36903 1.01234
 N2130 N -0.03097 0.34311 1.02335
 C2131 C -0.01545 0.34451 1.04618
 C2132 C -0.00699 0.37125 1.04990
 C2133 C -0.01818 0.38577 1.02827
 H2134 H 0.00595 0.37922 1.06593
 H2135 H -0.04362 0.37393 0.99453
 H2136 H -0.04140 0.32642 1.01548
 N2137 N 0.78047 0.26514 0.11816
 N2138 N 0.77850 0.27653 0.09222
 C2139 C 0.76309 0.29910 0.09391
 C2140 C 0.75497 0.30238 0.12080
 C2141 C 0.76596 0.28069 0.13511
 H2142 H 0.74195 0.31794 0.12897
 H2143 H 0.79080 0.24726 0.12289
 H2144 H 0.78846 0.26884 0.07525
 N2145 N 0.21526 0.83876 0.65544
 N2146 N 0.21708 0.85061 0.63136
 C2147 C 0.23377 0.83593 0.61545
 C2148 C 0.24274 0.81356 0.63005
 C2149 C 0.23065 0.81630 0.65535
 H2150 H 0.25683 0.79808 0.62361
 H2151 H 0.20387 0.84620 0.67166
 H2152 H 0.20684 0.86838 0.62611
 N2153 N 0.70999 0.73978 0.62278
 N2154 N 0.71058 0.72923 0.59816
 C2155 C 0.72530 0.70625 0.59916
 C2156 C 0.73454 0.70214 0.62561
 C2157 C 0.72439 0.72379 0.63989
 H2158 H 0.74715 0.68589 0.63343
 H2159 H 0.69996 0.75768 0.62764
 H2160 H 0.70066 0.73754 0.58121
 N2161 N 0.22295 0.24046 0.11584
 N2162 N 0.22607 0.23002 0.08979
 C2163 C 0.24212 0.20787 0.09168
 C2164 C 0.24974 0.20414 0.11886
 C2165 C 0.23738 0.22480 0.13317
 H2166 H 0.26266 0.18853 0.12746
 H2167 H 0.21154 0.25760 0.12050
 H2168 H 0.21613 0.23782 0.07263
 N2169 N 0.22078 0.15784 0.84024
 N2170 N 0.21934 0.14715 0.86486
 C2171 C 0.23388 0.16274 0.88219
 C2172 C 0.24533 0.18428 0.86771
 C2173 C 0.23634 0.18041 0.84121
 H2174 H 0.25784 0.20073 0.87535
 H2175 H 0.21114 0.14971 0.82310
 H2176 H 0.20881 0.12922 0.86932
 N2177 N 0.73350 0.64893 0.34203
 N2178 N 0.73139 0.63835 0.36665
 C2179 C 0.74128 0.65620 0.38491
 C2180 C 0.75060 0.67910 0.37102
 C2181 C 0.74497 0.67367 0.34389
 H2182 H 0.75889 0.69758 0.37946
 H2183 H 0.72680 0.63939 0.32431
 H2184 H 0.72325 0.61914 0.37056
 N2185 N 0.29913 0.77365 0.37407
 N2186 N 0.29953 0.78424 0.39866
 C2187 C 0.27413 0.79319 0.40457
 C2188 C 0.25678 0.78756 0.38274
 C2189 C 0.27347 0.77523 0.36398
 H2190 H 0.23552 0.79319 0.37996
 H2191 H 0.31645 0.76659 0.36395
 H2192 H 0.31735 0.78666 0.41029
 N2193 N 0.71270 0.26585 0.87667
 N2194 N 0.71256 0.27778 0.90056
 C2195 C 0.72971 0.29933 0.89965
 C2196 C 0.74139 0.30103 0.87402
 C2197 C 0.72994 0.27950 0.86014
 H2198 H 0.75576 0.31600 0.86633
 H2199 H 0.70122 0.24859 0.87195
 H2200 H 0.70108 0.27085 0.91712
 N2201 N 0.77115 0.37634 0.19861
 N2202 N 0.78325 0.40032 0.19887
 C2203 C 0.80291 0.40035 0.21833
 C2204 C 0.80337 0.37512 0.23084
 C2205 C 0.78285 0.36061 0.21784
 H2206 H 0.81609 0.36846 0.24769
 H2207 H 0.75500 0.37104 0.18561
 H2208 H 0.77798 0.41620 0.18578
 N2209 N 0.25619 0.88293 0.74814
 N2210 N 0.26771 0.90712 0.74858
 C2211 C 0.29524 0.90440 0.75039
 C2212 C 0.30137 0.87695 0.75147
 C2213 C 0.27595 0.86413 0.74982
 H2214 H 0.32135 0.86757 0.75268
 H2215 H 0.23503 0.87950 0.74686
 H2216 H 0.25652 0.92502 0.74795
 N2217 N 0.23328 0.87514 0.29170
 N2218 N 0.22339 0.90090 0.28614
 C2219 C 0.19903 0.89834 0.27313
 C2220 C 0.19267 0.87084 0.27074
 C2221 C 0.21506 0.85709 0.28181
 H2222 H 0.17552 0.86197 0.25985
 H2223 H 0.25266 0.87117 0.29997
 H2224 H 0.23363 0.91861 0.29172
 N2225 N 0.73659 0.37599 0.78018
 N2226 N 0.72531 0.40014 0.77884
 C2227 C 0.70308 0.39905 0.76237
 C2228 C 0.70017 0.37278 0.75282
 C2229 C 0.72191 0.35888 0.76462
 H2230 H 0.68453 0.36485 0.73931
 H2231 H 0.75403 0.37140 0.79174
 H2232 H 0.73254 0.41678 0.78972
 N2233 N 0.72397 0.62347 0.71257
 N2234 N 0.71289 0.59907 0.71376
 C2235 C 0.69414 0.59828 0.73389
 C2236 C 0.69335 0.62351 0.74610
 C2237 C 0.71253 0.63889 0.73182
 H2238 H 0.68052 0.62988 0.76275
 H2239 H 0.73920 0.62932 0.69877
 H2240 H 0.71857 0.58323 0.70112
 N2241 N 0.23642 0.12250 0.20235
 N2242 N 0.22525 0.09807 0.20270
 C2243 C 0.20507 0.09729 0.22147
 C2244 C 0.20341 0.12251 0.23348
 C2245 C 0.22359 0.13783 0.22081
 H2246 H 0.18947 0.12900 0.24916
 H2247 H 0.25264 0.12842 0.18975
 H2248 H 0.23183 0.08222 0.19053
 N2249 N 0.25491 0.11732 0.74668
 N2250 N 0.26751 0.09383 0.74787
 C2251 C 0.29389 0.09744 0.74042
 C2252 C 0.29826 0.12447 0.73395
 C2253 C 0.27302 0.13643 0.73856
 H2254 H 0.31750 0.13433 0.72887
 H2255 H 0.23455 0.12028 0.75250
 H2256 H 0.25827 0.07580 0.75437
 N2257 N 0.75669 0.61428 0.24015
 N2258 N 0.76900 0.59063 0.24080
 C2259 C 0.79625 0.59457 0.23781
 C2260 C 0.80147 0.62203 0.23463
 C2261 C 0.77578 0.63379 0.23664
 H2262 H 0.82124 0.63212 0.23341
 H2263 H 0.73564 0.61695 0.24305
 H2264 H 0.75880 0.57222 0.24386
 N2265 N 0.87554 0.28727 0.22396
 N2266 N 0.89996 0.28518 0.21266
 C2267 C 0.89834 0.26731 0.19215
 C2268 C 0.87158 0.25769 0.19023
 C2269 C 0.85788 0.27076 0.21093
 H2270 H 0.86343 0.24272 0.17639
 H2271 H 0.87127 0.29957 0.24055
 H2272 H 0.91728 0.29605 0.21895
 N2273 N 0.33834 0.79544 0.65953
 N2274 N 0.36228 0.79366 0.64724
 C2275 C 0.38069 0.78296 0.66480
 C2276 C 0.36795 0.77848 0.68968
 C2277 C 0.34104 0.78637 0.68528
 H2278 H 0.37614 0.76798 0.70731
 H2279 H 0.32014 0.80139 0.64993
 H2280 H 0.36544 0.79882 0.62684
 N2281 N 0.36953 0.19544 0.78208
 N2282 N 0.39439 0.19758 0.79271
 C2283 C 0.39446 0.21750 0.81129
 C2284 C 0.36814 0.22805 0.81292
 C2285 C 0.35310 0.21368 0.79382
 H2286 H 0.36147 0.24533 0.82443
 H2287 H 0.36426 0.18235 0.76631
 H2288 H 0.41100 0.18585 0.78673
 N2289 N 0.87359 0.69861 0.27285
 N2290 N 0.89983 0.70048 0.28408
 C2291 C 0.89847 0.71628 0.30633
 C2292 C 0.87111 0.72394 0.31006
 C2293 C 0.85648 0.71295 0.28848
 H2294 H 0.86290 0.73734 0.32520
 H2295 H 0.86889 0.68888 0.25462
 H2296 H 0.91708 0.69203 0.27512
 N2297 N 0.15535 0.72185 0.34017
 N2298 N 0.12994 0.71952 0.34914
 C2299 C 0.11439 0.73846 0.33686
 C2300 C 0.13070 0.75368 0.31922
 C2301 C 0.15658 0.74222 0.32182
 H2302 H 0.12440 0.76986 0.30567
 H2303 H 0.17134 0.70904 0.34601
 H2304 H 0.12348 0.70513 0.36344
 N2305 N 0.62231 0.28089 0.75996
 N2306 N 0.59750 0.28056 0.77073
 C2307 C 0.59797 0.26571 0.79395
 C2308 C 0.62452 0.25614 0.79788
 C2309 C 0.63922 0.26627 0.77592
 H2310 H 0.63233 0.24380 0.81442
 H2311 H 0.62742 0.29092 0.74186
 H2312 H 0.58071 0.29033 0.76192
 N2313 N 0.61489 0.72055 0.74034
 N2314 N 0.58987 0.72307 0.73021
 C2315 C 0.59079 0.73983 0.70840
 C2316 C 0.61777 0.74841 0.70466
 C2317 C 0.63233 0.73560 0.72526
 H2318 H 0.62587 0.76161 0.68892
 H2319 H 0.61980 0.70877 0.75740
 H2320 H 0.57260 0.71350 0.73846
 N2321 N 0.12302 0.21100 0.22672
 N2322 N 0.09834 0.21192 0.21561
 C2323 C 0.09889 0.22938 0.19435
 C2324 C 0.12519 0.24012 0.19198
 C2325 C 0.13978 0.22783 0.21284
 H2326 H 0.13279 0.25457 0.17713
 H2327 H 0.12810 0.19919 0.24371
 H2328 H 0.08150 0.20099 0.22299
 N2329 N -0.00381 0.96143 0.86727
 N2330 N -0.01530 0.96256 0.84124
 C2331 C -0.03578 0.98093 0.84135
 C2332 C -0.03748 0.99175 0.86746
 C2333 C -0.01738 0.97894 0.88295
 H2334 H -0.05190 1.00650 0.87479
 H2335 H 0.01224 0.94875 0.87320
 H2336 H -0.00839 0.95096 0.82508
 N2337 N 0.48106 0.48704 0.37293
 N2338 N 0.46898 0.49076 0.34907
 C2339 C 0.44294 0.49872 0.35322
 C2340 C 0.43821 0.50028 0.38090
 C2341 C 0.46298 0.49285 0.39266
 H2342 H 0.41964 0.50660 0.39100
 H2343 H 0.50155 0.48145 0.37554
 H2344 H 0.47843 0.48772 0.33032
 N2345 N 0.52169 0.04705 0.37198
 N2346 N 0.53357 0.04553 0.34629
 C2347 C 0.55323 0.02632 0.34724
 C2348 C 0.55420 0.01554 0.37357
 C2349 C 0.53424 0.02891 0.38820
 H2350 H 0.56722 -0.00037 0.38135
 H2351 H 0.50557 0.05983 0.37711
 H2352 H 0.52751 0.05757 0.32984
 N2353 N 0.01389 0.53844 0.87001
 N2354 N 0.02448 0.53719 0.84533
 C2355 C 0.04567 0.51970 0.84569
 C2356 C 0.04857 0.50951 0.87200
 C2357 C 0.02807 0.52189 0.88670
 H2358 H 0.06338 0.49505 0.87957
 H2359 H -0.00302 0.55021 0.87513
 H2360 H 0.01680 0.54792 0.82861
 N2361 N 0.09832 0.48238 0.58869
 N2362 N 0.11014 0.48168 0.61288
 C2363 C 0.09053 0.48240 0.63220
 C2364 C 0.06495 0.48351 0.61951
 C2365 C 0.07093 0.48347 0.59191
 H2366 H 0.04495 0.48481 0.62888
 H2367 H 0.10901 0.48252 0.57031
 H2368 H 0.13138 0.48167 0.61581
 N2369 N 0.52703 0.95703 0.12446
 N2370 N 0.53837 0.95695 0.14892
 C2371 C 0.55782 0.97654 0.15000
 C2372 C 0.55887 0.98950 0.12475
 C2373 C 0.53897 0.97652 0.10926
 H2374 H 0.57187 1.00622 0.11848
 H2375 H 0.51141 0.94380 0.11838
 H2376 H 0.53277 0.94335 0.16428
 N2377 N 0.48541 0.51466 0.13936
 N2378 N 0.47373 0.51207 0.16348
 C2379 C 0.44734 0.50442 0.15991
 C2380 C 0.44203 0.50182 0.13238
 C2381 C 0.46671 0.50845 0.12011
 H2382 H 0.42296 0.49589 0.12264
 H2383 H 0.50590 0.52024 0.13628
 H2384 H 0.48362 0.51603 0.18194
 N2385 N -0.10277 0.00629 0.58452
 N2386 N -0.11513 0.00488 0.60998
 C2387 C -0.09507 0.00331 0.62910
 C2388 C -0.06964 0.00394 0.61597
 C2389 C -0.07544 0.00565 0.58827
 H2390 H -0.04942 0.00262 0.62504
 H2391 H -0.11335 0.00721 0.56600
 H2392 H -0.13636 0.00504 0.61259
 N2393 N -0.11611 0.96772 0.94379
 N2394 N -0.14036 0.95555 0.94381
 C2395 C -0.14391 0.94319 0.96808
 C2396 C -0.12091 0.94732 0.98411
 C2397 C -0.10374 0.96284 0.96788
 H2398 H -0.11693 0.93953 1.00439
 H2399 H -0.10799 0.97853 0.92730
 H2400 H -0.15413 0.95571 0.92745
 N2401 N 0.36675 0.49035 0.45722
 N2402 N 0.34196 0.47929 0.45630
 C2403 C 0.34002 0.46031 0.47609
 C2404 C 0.36482 0.45920 0.49009
 C2405 C 0.38120 0.47849 0.47743
 H2406 H 0.37039 0.44584 0.50675
 H2407 H 0.37364 0.50556 0.44399
 H2408 H 0.32671 0.48484 0.44236
 N2409 N 0.36369 0.51340 0.04701
 N2410 N 0.33962 0.52548 0.04817
 C2411 C 0.34135 0.54929 0.03472
 C2412 C 0.36768 0.55244 0.02447
 C2413 C 0.38110 0.52915 0.03258
 H2414 H 0.37566 0.56890 0.01211
 H2415 H 0.36787 0.49449 0.05563
 H2416 H 0.32240 0.51741 0.05799
 N2417 N -0.08439 0.10389 0.48541
 N2418 N -0.10872 0.11517 0.48241
 C2419 C -0.12828 0.09677 0.48874
 C2420 C -0.11582 0.07270 0.49619
 C2421 C -0.08798 0.07808 0.49362
 H2422 H -0.12559 0.05376 0.50183
 H2423 H -0.06574 0.11365 0.48136
 H2424 H -0.11167 0.13522 0.47632
 N2425 N 0.63165 0.02202 0.46370
 N2426 N 0.65648 0.03273 0.46582
 C2427 C 0.65569 0.05346 0.48346
 C2428 C 0.62897 0.05600 0.49290
 C2429 C 0.61446 0.03565 0.47989
 H2430 H 0.62119 0.07033 0.50741
 H2431 H 0.62670 0.00557 0.45140
 H2432 H 0.67343 0.02609 0.45487
 N2433 N 0.12376 0.52216 0.95399
 N2434 N 0.14912 0.53537 0.95461
 C2435 C 0.14814 0.55473 0.97388
 C2436 C 0.12205 0.55425 0.98555
 C2437 C 0.10765 0.53362 0.97273
 H2438 H 0.11436 0.56674 1.00173
 H2439 H 0.11881 0.50599 0.94131
 H2440 H 0.16553 0.53002 0.94228
 N2441 N 0.08246 0.39603 0.47773
 N2442 N 0.10683 0.38473 0.47551
 C2443 C 0.12633 0.40259 0.48343
 C2444 C 0.11357 0.42644 0.49088
 C2445 C 0.08580 0.42132 0.48704
 H2446 H 0.12297 0.44478 0.49845
 H2447 H 0.06391 0.38649 0.47278
 H2448 H 0.10972 0.36517 0.46836
 N2449 N 0.63704 0.98403 0.03099
 N2450 N 0.66101 0.97175 0.03069
 C2451 C 0.65884 0.94930 0.01538
 C2452 C 0.63219 0.94743 0.00535
 C2453 C 0.61911 0.96978 0.01584
 H2454 H 0.62331 0.93185 -0.00732
 H2455 H 0.63319 1.00192 0.04138
 H2456 H 0.67847 0.97907 0.04066
 N2457 N 0.00495 0.86714 0.99021
 N2458 N 0.01018 0.84233 0.97820
 C2459 C 0.00553 0.84506 0.95120
 C2460 C -0.00225 0.87153 0.94549
 C2461 C -0.00209 0.88460 0.97031
 H2462 H -0.00605 0.88063 0.92574
 H2463 H 0.00834 0.87159 1.01069
 H2464 H 0.01553 0.82486 0.98898
 N2465 N 0.45039 0.38001 0.47834
 N2466 N 0.45369 0.35548 0.46858
 C2467 C 0.47588 0.35547 0.45213
 C2468 C 0.48688 0.38142 0.45124
 C2469 C 0.47017 0.39624 0.46818
 H2470 H 0.50502 0.38847 0.44062
 H2471 H 0.43498 0.38535 0.49195
 H2472 H 0.44066 0.33927 0.47322
 N2473 N -0.03368 0.39765 0.58323
 N2474 N -0.03799 0.37091 0.59123
 C2475 C -0.02299 0.35501 0.57488
 C2476 C -0.00969 0.37123 0.55550
 C2477 C -0.01711 0.39769 0.56138
 H2478 H 0.00375 0.36473 0.53938
 H2479 H -0.04296 0.41430 0.59222
 H2480 H -0.04895 0.36515 0.60858
 N2481 N 0.54420 0.87368 0.01262
 N2482 N 0.54361 0.84928 0.02372
 C2483 C 0.52465 0.84879 0.04364
 C2484 C 0.51264 0.87407 0.04525
 C2485 C 0.52574 0.88923 0.02531
 H2486 H 0.49712 0.88072 0.05934
 H2487 H 0.55721 0.87950 -0.00325
 H2488 H 0.55594 0.83334 0.01747
 N2489 N 0.45756 0.62531 0.02977
 N2490 N 0.46112 0.64984 0.03948
 C2491 C 0.48179 0.64943 0.05785
 C2492 C 0.49162 0.62320 0.06014
 C2493 C 0.47578 0.60864 0.04175
 H2494 H 0.50852 0.61597 0.07252
 H2495 H 0.44307 0.62026 0.01489
 H2496 H 0.44931 0.66643 0.03357
 N2497 N 0.00989 0.08922 0.59872
 N2498 N 0.01297 0.11332 0.60962
 C2499 C 0.01098 0.13234 0.58986
 C2500 C 0.00614 0.11960 0.56518
 C2501 C 0.00580 0.09223 0.57177
 H2502 H 0.00391 0.12882 0.54525
 H2503 H 0.01082 0.07105 0.60966
 H2504 H 0.01601 0.11645 0.63040
 N2505 N 0.54364 0.13021 0.48033
 N2506 N 0.54273 0.15480 0.46975
 C2507 C 0.52291 0.15557 0.45048
 C2508 C 0.51071 0.13021 0.44873
 C2509 C 0.52454 0.11477 0.46796
 H2510 H 0.49419 0.12384 0.43540
 H2511 H 0.55703 0.12428 0.49590
 H2512 H 0.55523 0.17076 0.47618
 N2513 N 0.02286 0.62844 0.98913
 N2514 N 0.01661 0.65421 0.97938
 C2515 C 0.00343 0.65151 0.95529
 C2516 C 0.00099 0.62410 0.94939
 C2517 C 0.01318 0.61052 0.97101
 H2518 H -0.00928 0.61492 0.93220
 H2519 H 0.03199 0.62424 1.00795
 H2520 H 0.02246 0.67201 0.98911
 N2521 N 0.28973 0.66405 0.84810
 N2522 N 0.29083 0.65324 0.87271
 C2523 C 0.27366 0.66675 0.88914
 C2524 C 0.26107 0.68718 0.87411
 C2525 C 0.27189 0.68468 0.84822
 H2526 H 0.24603 0.70162 0.88085
 H2527 H 0.30089 0.65710 0.83149
 H2528 H 0.30266 0.63637 0.87766
 N2529 N 0.70904 0.24097 0.37687
 N2530 N 0.70943 0.22974 0.40136
 C2531 C 0.72444 0.20697 0.40041
 C2532 C 0.73407 0.20364 0.37418
 C2533 C 0.72391 0.22564 0.35997
 H2534 H 0.74708 0.18778 0.36657
 H2535 H 0.69888 0.25890 0.37198
 H2536 H 0.69934 0.23755 0.41822
 N2537 N 0.29308 0.26495 0.37553
 N2538 N 0.29265 0.27670 0.39958
 C2539 C 0.27395 0.29673 0.39899
 C2540 C 0.26200 0.29761 0.37329
 C2541 C 0.27469 0.27720 0.35911
 H2542 H 0.24620 0.31104 0.36578
 H2543 H 0.30593 0.24895 0.37051
 H2544 H 0.30541 0.27120 0.41579
 N2545 N 0.78786 0.76095 0.88312
 N2546 N 0.78514 0.77122 0.90771
 C2547 C 0.76734 0.79203 0.90640
 C2548 C 0.75850 0.79503 0.87975
 C2549 C 0.77197 0.77507 0.86570
 H2550 H 0.74400 0.80947 0.87154
 H2551 H 0.80033 0.74454 0.87849
 H2552 H 0.79578 0.76422 0.92483
 N2553 N 0.77296 0.84396 0.15981
 N2554 N 0.77632 0.85324 0.13482
 C2555 C 0.76234 0.83718 0.11757
 C2556 C 0.74916 0.81685 0.13231
 C2557 C 0.75678 0.82177 0.15906
 H2558 H 0.73733 0.79999 0.12453
 H2559 H 0.78247 0.85225 0.17694
 H2560 H 0.78824 0.87017 0.12979
 N2561 N 0.28629 0.33635 0.64963
 N2562 N 0.28796 0.34542 0.62436
 C2563 C 0.26661 0.33546 0.61002
 C2564 C 0.25057 0.31926 0.62692
 C2565 C 0.26396 0.32025 0.65187
 H2566 H 0.23241 0.30770 0.62159
 H2567 H 0.30075 0.34055 0.66481
 H2568 H 0.30348 0.35827 0.61718
 N2569 N 0.80350 0.22079 0.62679
 N2570 N 0.80257 0.21022 0.60223
 C2571 C 0.78026 0.19390 0.60036
 C2572 C 0.76666 0.19397 0.62513
 C2573 C 0.78201 0.21133 0.64116
 H2574 H 0.74779 0.18365 0.63062
 H2575 H 0.81860 0.23435 0.63342
 H2576 H 0.81721 0.21433 0.58730
 N2577 N 0.23804 0.74733 0.11571
 N2578 N 0.23675 0.73569 0.09169
 C2579 C 0.23527 0.70862 0.09526
 C2580 C 0.23516 0.70298 0.12309
 C2581 C 0.23717 0.72810 0.13521
 H2582 H 0.23520 0.68347 0.13319
 H2583 H 0.23984 0.76816 0.11859
 H2584 H 0.23717 0.74643 0.07334
 N2585 N 0.24413 0.61519 0.74544
 N2586 N 0.23183 0.59138 0.74394
 C2587 C 0.20454 0.59487 0.74652
 C2588 C 0.19917 0.62212 0.74956
 C2589 C 0.22485 0.63426 0.74866
 H2590 H 0.17944 0.63173 0.75200
 H2591 H 0.26532 0.61825 0.74400
 H2592 H 0.24210 0.57308 0.74166
 N2593 N 0.73558 0.12289 0.27736
 N2594 N 0.72614 0.09658 0.27343
 C2595 C 0.70136 0.09788 0.26100
 C2596 C 0.69470 0.12502 0.25673
 C2597 C 0.71668 0.13986 0.26705
 H2598 H 0.67680 0.13313 0.24653
 H2599 H 0.75467 0.12801 0.28568
 H2600 H 0.73657 0.07948 0.28032
 N2601 N 0.77154 0.11688 0.72077
 N2602 N 0.78252 0.09272 0.72398
 C2603 C 0.80560 0.09506 0.73908
 C2604 C 0.80950 0.12201 0.74574
 C2605 C 0.78731 0.13512 0.73384
 H2606 H 0.82568 0.13072 0.75809
 H2607 H 0.75325 0.12060 0.71024
 H2608 H 0.77432 0.07504 0.71570
 N2609 N 0.27485 0.63161 0.19621
 N2610 N 0.28450 0.60686 0.19913
 C2611 C 0.30544 0.60723 0.21722
 C2612 C 0.30959 0.63368 0.22570
 C2613 C 0.28955 0.64841 0.21212
 H2614 H 0.32338 0.64079 0.24145
 H2615 H 0.25771 0.63660 0.18440
 H2616 H 0.27625 0.59005 0.18927
 N2617 N 0.26785 0.37437 0.29385
 N2618 N 0.27755 0.39937 0.29364
 C2619 C 0.29652 0.40189 0.27378
 C2620 C 0.29901 0.37707 0.26097
 C2621 C 0.28045 0.36029 0.27428
 H2622 H 0.31201 0.37190 0.24404
 H2623 H 0.25282 0.36719 0.30724
 H2624 H 0.27124 0.41415 0.30721
 N2625 N 0.77711 0.87269 0.79953
 N2626 N 0.79000 0.89628 0.79949
 C2627 C 0.80881 0.89660 0.77938
 C2628 C 0.80778 0.87193 0.76613
 C2629 C 0.78742 0.85744 0.77953
 H2630 H 0.81992 0.86539 0.74906
 H2631 H 0.76135 0.86734 0.81293
 H2632 H 0.78534 0.91196 0.81271
 N2633 N 0.74462 0.88097 0.26961
 N2634 N 0.73194 0.90439 0.27162
 C2635 C 0.70487 0.90047 0.26719
 C2636 C 0.70005 0.87324 0.26248
 C2637 C 0.72583 0.86163 0.26426
 H2638 H 0.68067 0.86338 0.25791
 H2639 H 0.76578 0.87836 0.27194
 H2640 H 0.74187 0.92282 0.27516
 N2641 N 0.24630 0.38612 0.75405
 N2642 N 0.23395 0.40957 0.75723
 C2643 C 0.20705 0.40502 0.76226
 C2644 C 0.20221 0.37738 0.76244
 C2645 C 0.22758 0.36620 0.75710
 H2646 H 0.18290 0.36682 0.76541
 H2647 H 0.26711 0.38394 0.74955
 H2648 H 0.24377 0.42827 0.75497
 N2649 N 0.14324 0.68885 0.81282
 N2650 N 0.11881 0.68938 0.82433
 C2651 C 0.11307 0.71506 0.83115
 C2652 C 0.13514 0.73157 0.82408
 C2653 C 0.15382 0.71403 0.81265
 H2654 H 0.13682 0.75331 0.82578
 H2655 H 0.15215 0.67162 0.80459
 H2656 H 0.10590 0.67254 0.82636
 N2657 N 0.61395 0.21959 0.26869
 N2658 N 0.58999 0.22237 0.28081
 C2659 C 0.59259 0.24088 0.30072
 C2660 C 0.61948 0.25017 0.30124
 C2661 C 0.63226 0.23621 0.28064
 H2662 H 0.62857 0.26510 0.31455
 H2663 H 0.61759 0.20646 0.25260
 H2664 H 0.57245 0.21124 0.27569
 N2665 N 0.62735 0.79982 0.22534
 N2666 N 0.60253 0.79693 0.21474
 C2667 C 0.60366 0.77923 0.19400
 C2668 C 0.63072 0.77103 0.19106
 C2669 C 0.64495 0.78438 0.21143
 H2670 H 0.63871 0.75592 0.17751
 H2671 H 0.63188 0.81151 0.24240
 H2672 H 0.58523 0.80674 0.22213
 N2673 N 0.13492 0.31451 0.71183
 N2674 N 0.10885 0.31371 0.70002
 C2675 C 0.10850 0.29381 0.68131
 C2676 C 0.13464 0.28233 0.68038
 C2677 C 0.15021 0.29545 0.69999
 H2678 H 0.14102 0.26482 0.66910
 H2679 H 0.14048 0.32646 0.72840
 H2680 H 0.09275 0.32598 0.70617
 N2681 N 0.88183 0.20136 0.73233
 N2682 N 0.90655 0.20183 0.72135
 C2683 C 0.90893 0.22412 0.70553
 C2684 C 0.88455 0.23837 0.70632
 C2685 C 0.86785 0.22313 0.72342
 H2686 H 0.87936 0.25667 0.69527
 H2687 H 0.87453 0.18602 0.74519
 H2688 H 0.92140 0.18700 0.72456
 N2689 N 0.34710 0.78072 0.16132
 N2690 N 0.37255 0.78264 0.15244
 C2691 C 0.38737 0.76264 0.16378
 C2692 C 0.37065 0.74715 0.18071
 C2693 C 0.34522 0.75957 0.17872
 H2694 H 0.37646 0.73024 0.19356
 H2695 H 0.33159 0.79439 0.15628
 H2696 H 0.37960 0.79754 0.13894
 N2697 N 0.37622 0.29813 0.27778
 N2698 N 0.39933 0.29866 0.29192
 C2699 C 0.40010 0.27666 0.30831
 C2700 C 0.37650 0.26148 0.30447
 C2701 C 0.36187 0.27591 0.28509
 H2702 H 0.37044 0.24303 0.31488
 H2703 H 0.37027 0.31301 0.26378
 H2704 H 0.41423 0.31386 0.29023
 N2705 N 0.88064 0.78047 0.76675
 N2706 N 0.90545 0.77878 0.77761
 C2707 C 0.90384 0.76462 0.80112
 C2708 C 0.87665 0.75693 0.80534
 C2709 C 0.86266 0.76733 0.78300
 H2710 H 0.86830 0.74506 0.82199
 H2711 H 0.87626 0.79022 0.74831
 H2712 H 0.92304 0.78752 0.76909
   
