data_POSCAR
  _audit_creation_date              2014-09-24
  _audit_creation_method            'ToBaCCo'
  _symmetry_space_group_name_H-M    'P1'
  _symmetry_Int_Tables_number       1
  _symmetry_cell_setting            triclinic
  loop_
  _symmetry_equiv_pos_as_xyz
 x,y,z
_cell_length_a 48.7903
_cell_length_b 48.5141
_cell_length_c 49.8232
_cell_angle_alpha 89.767500
_cell_angle_beta 89.320400
_cell_angle_gamma 90.260400
loop_
  _atom_site_label
  _atom_site_type_symbol
  _atom_site_fract_x
  _atom_site_fract_y
  _atom_site_fract_z
C1 C 0.43611 0.00518 0.26220
 H2 H 0.44238 0.00260 0.24153
 C3 C 0.45581 0.00318 0.28217
 H4 H 0.47700 0.00025 0.27630
 C5 C 0.40084 0.01022 0.29486
 H6 H 0.37922 0.01152 0.29972
 C7 C 0.41992 0.00829 0.31550
 H8 H 0.41263 0.00876 0.33608
 N9 N 0.40911 0.00813 0.26877
 C10 C 0.41357 0.02908 0.20303
 H11 H 0.41128 0.04572 0.21725
 C12 C 0.43043 0.03251 0.18051
 H13 H 0.44085 0.05202 0.17727
 C14 C 0.40333 -0.01693 0.19056
 H15 H 0.39317 -0.03630 0.19497
 C16 C 0.41951 -0.01411 0.16727
 H17 H 0.42171 -0.03138 0.15372
 Zn18 Zn 0.38260 0.00198 0.24149
 N19 N 0.40110 0.00444 0.20804
 C20 C 0.35635 0.05237 0.25788
 N21 N 0.35523 0.03013 0.24129
 C22 C 0.33665 0.02902 0.22120
 C23 C 0.31862 0.05082 0.21686
 C24 C 0.33867 0.07477 0.25418
 C25 C 0.34649 -0.04550 0.23346
 C26 C 0.33670 -0.07216 0.23949
 C27 C 0.37109 -0.07582 0.27359
 C28 C 0.38029 -0.04954 0.26673
 N29 N 0.36770 -0.03445 0.24743
 H30 H 0.37182 0.05352 0.27314
 H31 H 0.33671 0.01180 0.20756
 H32 H 0.30436 0.04930 0.20049
 H33 H 0.34066 0.09262 0.26697
 H34 H 0.33702 -0.03380 0.21765
 H35 H 0.31955 -0.08012 0.22829
 H36 H 0.38226 -0.08670 0.28887
 H37 H 0.39795 -0.04151 0.27690
 C38 C 0.43380 0.01066 0.16252
 C39 C 0.44776 0.00390 0.30927
 C40 C 0.34867 -0.08764 0.26031
 C41 C 0.31988 0.07447 0.23300
 C42 C 0.08649 0.01138 0.70414
 H43 H 0.08659 0.03171 0.71294
 C44 C 0.07327 0.00703 0.67964
 H45 H 0.06334 0.02408 0.66966
 C46 C 0.09834 -0.03584 0.70659
 H47 H 0.10796 -0.05268 0.71705
 C48 C 0.08487 -0.04117 0.68268
 H49 H 0.08454 -0.06201 0.67496
 N50 N 0.09915 -0.00990 0.71687
 C51 C 0.10334 -0.01133 0.80444
 H52 H 0.12325 -0.02068 0.80667
 C53 C 0.08809 -0.00470 0.82738
 H54 H 0.09644 -0.00954 0.84684
 C55 C 0.06966 0.00833 0.77655
 H56 H 0.06296 0.01418 0.75675
 C57 C 0.05372 0.01538 0.79899
 H58 H 0.03451 0.02589 0.79594
 Zn59 Zn 0.11877 -0.00600 0.74967
 N60 N 0.09418 -0.00446 0.77961
 C61 C 0.14184 0.04579 0.73069
 N62 N 0.13982 0.02695 0.75097
 C63 C 0.15102 0.03197 0.77532
 C64 C 0.16225 0.05764 0.78102
 C65 C 0.15339 0.07180 0.73543
 C66 C 0.13687 -0.05954 0.76637
 C67 C 0.15274 -0.08327 0.76318
 C68 C 0.18068 -0.05884 0.73045
 C69 C 0.16466 -0.03549 0.73462
 N70 N 0.14293 -0.03636 0.75193
 H71 H 0.13382 0.04112 0.71113
 H72 H 0.15018 0.01642 0.79083
 H73 H 0.17000 0.06155 0.80093
 H74 H 0.15377 0.08713 0.71958
 H75 H 0.11875 -0.06030 0.77903
 H76 H 0.14697 -0.10192 0.77387
 H77 H 0.19725 -0.05807 0.71582
 H78 H 0.16861 -0.01702 0.72293
 C79 C 0.06322 0.00947 0.82491
 C80 C 0.07228 -0.01961 0.66882
 C81 C 0.17438 -0.08326 0.74438
 C82 C 0.16265 0.07819 0.76125
 C83 C 0.56396 0.50508 0.23373
 H84 H 0.55640 0.50617 0.25409
 C85 C 0.54519 0.50239 0.21296
 H86 H 0.52353 0.50132 0.21780
 C87 C 0.60091 0.50606 0.20260
 H88 H 0.62257 0.50782 0.19848
 C89 C 0.58284 0.50365 0.18120
 H90 H 0.59104 0.50296 0.16093
 N91 N 0.59141 0.50531 0.22840
 C92 C 0.60331 0.51891 0.30979
 H93 H 0.61935 0.53401 0.30652
 C94 C 0.58770 0.51969 0.33350
 H95 H 0.59186 0.53535 0.34835
 C96 C 0.57760 0.48069 0.29434
 H97 H 0.57370 0.46557 0.27893
 C98 C 0.56093 0.48136 0.31728
 H99 H 0.54426 0.46668 0.31951
 Zn100 Zn 0.61699 0.50088 0.25699
 N101 N 0.59777 0.49985 0.29057
 C102 C 0.63900 0.55367 0.24287
 N103 N 0.64285 0.53003 0.25708
 C104 C 0.66514 0.52666 0.27282
 C105 C 0.68420 0.54793 0.27553
 C106 C 0.65765 0.57555 0.24497
 C107 C 0.63371 0.44581 0.26926
 C108 C 0.64558 0.42032 0.26336
 C109 C 0.66324 0.43963 0.22188
 C110 C 0.65164 0.46483 0.22885
 N111 N 0.63614 0.46721 0.25158
 H112 H 0.62105 0.55589 0.23054
 H113 H 0.66774 0.50756 0.28376
 H114 H 0.70162 0.54479 0.28840
 H115 H 0.65377 0.59454 0.23424
 H116 H 0.62214 0.44822 0.28769
 H117 H 0.64275 0.40320 0.27716
 H118 H 0.67478 0.43791 0.20326
 H119 H 0.65484 0.48241 0.21588
 C120 C 0.56580 0.50120 0.33700
 C121 C 0.55466 0.50064 0.18636
 C122 C 0.65976 0.41689 0.23898
 C123 C 0.68032 0.57300 0.26194
 C124 C 0.93366 0.51491 0.78057
 H125 H 0.94178 0.51559 0.76037
 C126 C 0.95154 0.51882 0.80185
 H127 H 0.97292 0.52222 0.79700
 C128 C 0.89590 0.51177 0.81048
 H129 H 0.87412 0.50979 0.81386
 C130 C 0.91305 0.51585 0.83247
 H131 H 0.90386 0.51605 0.85232
 N132 N 0.90650 0.51022 0.78513
 C133 C 0.90285 0.51595 0.70232
 H134 H 0.88649 0.53086 0.70263
 C135 C 0.92037 0.51462 0.67998
 H136 H 0.91725 0.52848 0.66321
 C137 C 0.92738 0.48021 0.72380
 H138 H 0.92995 0.46684 0.74101
 C139 C 0.94581 0.47875 0.70221
 H140 H 0.96244 0.46406 0.70279
 Zn141 Zn 0.88384 0.50143 0.75500
 N142 N 0.90667 0.49894 0.72374
 C143 C 0.85916 0.55351 0.76377
 N144 N 0.85748 0.52947 0.74990
 C145 C 0.83809 0.52565 0.73089
 C146 C 0.82018 0.54696 0.72429
 C147 C 0.84147 0.57527 0.75801
 C148 C 0.86878 0.44638 0.74184
 C149 C 0.85722 0.42029 0.74627
 C150 C 0.83843 0.43676 0.78820
 C151 C 0.84983 0.46266 0.78271
 N152 N 0.86563 0.46678 0.76035
 H153 H 0.87486 0.55622 0.77866
 H154 H 0.83719 0.50631 0.72019
 H155 H 0.80528 0.54366 0.70870
 H156 H 0.84378 0.59453 0.76865
 H157 H 0.88045 0.45013 0.72365
 H158 H 0.86060 0.40412 0.73170
 H159 H 0.82650 0.43375 0.80645
 H160 H 0.84618 0.47932 0.79649
 C161 C 0.94238 0.49614 0.68001
 C162 C 0.94160 0.51841 0.82849
 C163 C 0.84249 0.41509 0.77007
 C164 C 0.82207 0.57235 0.73760
 C165 C 0.21221 0.41467 0.97539
 H166 H 0.22911 0.41339 0.96120
 C167 C 0.19071 0.43274 0.97056
 H168 H 0.19187 0.44581 0.95296
 C169 C 0.19022 0.39826 1.01501
 H170 H 0.18976 0.38411 1.03182
 C171 C 0.16806 0.41596 1.01081
 H172 H 0.15083 0.41532 1.02467
 N173 N 0.21152 0.39769 0.99713
 C174 C 0.29466 0.36794 1.00849
 H175 H 0.29033 0.34607 1.00943
 C176 C 0.32041 0.37779 1.01588
 H177 H 0.33597 0.36335 1.02212
 C178 C 0.27917 0.41346 1.00059
 H179 H 0.26278 0.42740 0.99569
 C180 C 0.30495 0.42414 1.00708
 H181 H 0.30824 0.44623 1.00681
 Zn182 Zn 0.23892 0.37021 0.99805
 N183 N 0.27448 0.38577 1.00157
 C184 C 0.25624 0.34623 0.94784
 N185 N 0.23535 0.35019 0.96572
 C186 C 0.20971 0.34051 0.96091
 C187 C 0.20430 0.32557 0.93774
 C188 C 0.25169 0.33139 0.92419
 C189 C 0.23690 0.35614 1.05287
 C190 C 0.23777 0.33828 1.07495
 C191 C 0.23171 0.29992 1.04484
 C192 C 0.23099 0.31846 1.02339
 N193 N 0.23391 0.34598 1.02767
 H194 H 0.27639 0.35444 0.95193
 H195 H 0.19339 0.34436 0.97529
 H196 H 0.18364 0.31826 0.93446
 H197 H 0.26859 0.32803 0.91036
 H198 H 0.23976 0.37807 1.05568
 H199 H 0.24111 0.34679 1.09468
 H200 H 0.22962 0.27814 1.04077
 H201 H 0.22923 0.31064 1.00323
 C202 C 0.32565 0.40622 1.01551
 C203 C 0.16782 0.43303 0.98793
 C204 C 0.23578 0.30967 1.07099
 C205 C 0.22545 0.32060 0.91908
 C206 C 0.78941 0.09684 0.97718
 H207 H 0.77455 0.09823 0.96131
 C208 C 0.81592 0.08823 0.97118
 H209 H 0.82063 0.08233 0.95072
 C210 C 0.80089 0.10377 1.02268
 H211 H 0.79538 0.11119 1.04242
 C212 C 0.82750 0.09375 1.01782
 H213 H 0.84198 0.09332 1.03412
 N214 N 0.78265 0.10554 1.00224
 C215 C 0.69336 0.11109 0.99571
 H216 H 0.69113 0.13307 0.99279
 C217 C 0.67019 0.09403 0.99586
 H218 H 0.65014 0.10298 0.99303
 C219 C 0.72212 0.07292 1.00447
 H220 H 0.74236 0.06492 1.00826
 C221 C 0.69940 0.05525 1.00558
 H222 H 0.70232 0.03360 1.01003
 Zn223 Zn 0.74878 0.12491 1.00277
 N224 N 0.71868 0.10034 0.99992
 C225 C 0.73600 0.14525 0.94983
 N226 N 0.75137 0.14852 0.97224
 C227 C 0.77290 0.16634 0.97247
 C228 C 0.77999 0.18151 0.94960
 C229 C 0.74234 0.16018 0.92640
 C230 C 0.74388 0.13327 1.05911
 C231 C 0.73768 0.14806 1.08251
 C232 C 0.72961 0.18829 1.05513
 C233 C 0.73643 0.17294 1.03237
 N234 N 0.74336 0.14590 1.03466
 H235 H 0.71959 0.13024 0.94964
 H236 H 0.78531 0.16792 0.99026
 H237 H 0.79778 0.19476 0.95052
 H238 H 0.73004 0.15698 0.90875
 H239 H 0.74860 0.11155 1.06042
 H240 H 0.73796 0.13764 1.10177
 H241 H 0.72404 0.20972 1.05274
 H242 H 0.73538 0.18249 1.01279
 C243 C 0.67306 0.06584 1.00141
 C244 C 0.83574 0.08725 0.99140
 C245 C 0.73003 0.17585 1.08061
 C246 C 0.76486 0.17840 0.92593
 C247 C 0.28727 0.59464 0.48424
 H248 H 0.27115 0.59276 0.46963
 C249 C 0.31184 0.58074 0.48032
 H250 H 0.31422 0.56793 0.46273
 C251 C 0.30349 0.61411 0.52464
 H252 H 0.30029 0.62772 0.54151
 C253 C 0.32864 0.60040 0.52148
 H254 H 0.34470 0.60358 0.53596
 N255 N 0.28363 0.61123 0.50585
 C256 C 0.19531 0.61393 0.49667
 H257 H 0.19241 0.63466 0.48919
 C258 C 0.17271 0.59634 0.50001
 H259 H 0.15249 0.60356 0.49480
 C260 C 0.22482 0.58003 0.51462
 H261 H 0.24502 0.57409 0.52112
 C262 C 0.20276 0.56210 0.51890
 H263 H 0.20626 0.54222 0.52816
 Zn264 Zn 0.25024 0.63099 0.50484
 N265 N 0.22075 0.60550 0.50390
 C266 C 0.23918 0.64693 0.45014
 N267 N 0.25274 0.65318 0.47309
 C268 C 0.27201 0.67348 0.47330
 C269 C 0.27836 0.68838 0.44998
 C270 C 0.24503 0.66128 0.42621
 C271 C 0.24478 0.63922 0.56036
 C272 C 0.23697 0.65290 0.58390
 C273 C 0.22821 0.69362 0.55743
 C274 C 0.23638 0.67922 0.53442
 N275 N 0.24434 0.65246 0.53624
 H276 H 0.22470 0.63001 0.45000
 H277 H 0.28303 0.67765 0.49157
 H278 H 0.29376 0.70438 0.45114
 H279 H 0.23446 0.65544 0.40813
 H280 H 0.25048 0.61771 0.56122
 H281 H 0.23702 0.64176 0.60277
 H282 H 0.22188 0.71485 0.55538
 H283 H 0.23539 0.68918 0.51501
 C284 C 0.17630 0.57034 0.51188
 C285 C 0.33318 0.58404 0.49866
 C286 C 0.22811 0.68036 0.58259
 C287 C 0.26521 0.68211 0.42576
 C288 C 0.73114 0.90778 0.46911
 H289 H 0.74870 0.90556 0.45584
 C290 C 0.70888 0.92361 0.46103
 H291 H 0.70992 0.93415 0.44186
 C292 C 0.70790 0.89508 0.50934
 H293 H 0.70708 0.88285 0.52751
 C294 C 0.68518 0.91094 0.50212
 H295 H 0.66722 0.91104 0.51508
 N296 N 0.73002 0.89335 0.49253
 C297 C 0.81243 0.86063 0.50498
 H298 H 0.80643 0.83927 0.50747
 C299 C 0.83973 0.86831 0.50834
 H300 H 0.85460 0.85264 0.51327
 C301 C 0.80010 0.90682 0.49552
 H302 H 0.78448 0.92176 0.49088
 C303 C 0.82744 0.91536 0.49828
 H304 H 0.83265 0.93695 0.49584
 Zn305 Zn 0.75701 0.86567 0.49633
 N306 N 0.79321 0.87979 0.49889
 C307 C 0.77545 0.83982 0.44810
 N308 N 0.75403 0.84381 0.46533
 C309 C 0.72918 0.83181 0.46124
 C310 C 0.72565 0.81345 0.44015
 C311 C 0.77256 0.82217 0.42623
 C312 C 0.75082 0.85301 0.55208
 C313 C 0.74951 0.83527 0.57435
 C314 C 0.74753 0.79663 0.54408
 C315 C 0.74904 0.81493 0.52258
 N316 N 0.75066 0.84258 0.52677
 H317 H 0.79484 0.85004 0.45146
 H318 H 0.71240 0.83578 0.47506
 H319 H 0.70595 0.80350 0.43752
 H320 H 0.78981 0.81876 0.41280
 H321 H 0.75280 0.87501 0.55497
 H322 H 0.75040 0.84389 0.59432
 H323 H 0.74623 0.77482 0.53989
 H324 H 0.75006 0.80666 0.50257
 C325 C 0.84754 0.89597 0.50512
 C326 C 0.68516 0.92464 0.47720
 C327 C 0.74832 0.80659 0.57041
 C328 C 0.74758 0.80834 0.42255
 C329 C -0.00605 0.29488 0.41356
 H330 H 0.00888 0.28197 0.42334
 C331 C -0.01269 0.32052 0.42439
 H332 H -0.00304 0.32686 0.44281
 C333 C -0.03608 0.30238 0.37726
 H334 H -0.04483 0.29558 0.35862
 C335 C -0.04324 0.32813 0.38733
 H336 H -0.05735 0.34056 0.37600
 N337 N -0.01727 0.28662 0.39003
 C338 C 0.00545 0.19953 0.39145
 H339 H 0.01703 0.19722 0.37304
 C340 C 0.00272 0.17707 0.40895
 H341 H 0.01261 0.15799 0.40344
 C342 C -0.02204 0.22700 0.42002
 H343 H -0.03234 0.24623 0.42399
 C344 C -0.02540 0.20517 0.43800
 H345 H -0.03778 0.20886 0.45570
 Zn346 Zn -0.00465 0.25407 0.37295
 N347 N -0.00670 0.22397 0.39732
 C348 C 0.04490 0.24137 0.34476
 N349 N 0.03193 0.26025 0.36049
 C350 C 0.04468 0.28415 0.36740
 C351 C 0.07178 0.28917 0.35975
 C352 C 0.07212 0.24562 0.33654
 C353 C -0.05241 0.23434 0.34980
 C354 C -0.07346 0.23450 0.33111
 C355 C -0.04381 0.25997 0.30065
 C356 C -0.02325 0.25920 0.31991
 N357 N -0.02815 0.24706 0.34411
 H358 H 0.03412 0.22306 0.33843
 H359 H 0.03399 0.29958 0.37888
 H360 H 0.08129 0.30839 0.36559
 H361 H 0.08224 0.23010 0.32450
 H362 H -0.05597 0.22539 0.36945
 H363 H -0.09280 0.22487 0.33645
 H364 H -0.03977 0.27101 0.28214
 H365 H -0.00405 0.26988 0.31623
 C366 C -0.01308 0.17950 0.43270
 C367 C -0.03104 0.33783 0.41088
 C368 C -0.06965 0.24825 0.30646
 C369 C 0.08602 0.26962 0.34448
 C370 C 0.00778 0.69987 0.13231
 H371 H 0.02183 0.70531 0.14804
 C372 C 0.00267 0.67215 0.12686
 H373 H 0.01327 0.65629 0.13799
 C374 C -0.02442 0.71358 0.09959
 H375 H -0.03589 0.72983 0.09001
 C376 C -0.02938 0.68618 0.09283
 H377 H -0.04417 0.68132 0.07749
 N378 N -0.00559 0.71991 0.11854
 C379 C 0.01338 0.80668 0.10637
 H380 H 0.01620 0.81174 0.12729
 C381 C 0.01234 0.82769 0.08735
 H382 H 0.01486 0.84873 0.09399
 C383 C 0.00402 0.77315 0.07323
 H384 H 0.00042 0.75194 0.06785
 C385 C 0.00262 0.79361 0.05349
 H386 H -0.00180 0.78775 0.03307
 Zn387 Zn -0.00139 0.75703 0.12851
 N388 N 0.00772 0.78027 0.09931
 C389 C 0.05225 0.75458 0.14607
 N390 N 0.02630 0.76062 0.15420
 C391 C 0.02084 0.76994 0.17937
 C392 C 0.04205 0.77333 0.19763
 C393 C 0.07406 0.75768 0.16364
 C394 C -0.04953 0.78869 0.12942
 C395 C -0.07622 0.79518 0.13709
 C396 C -0.07411 0.75977 0.17120
 C397 C -0.04737 0.75397 0.16281
 N398 N -0.03572 0.76831 0.14216
 H399 H 0.05596 0.74752 0.12579
 H400 H 0.00010 0.77499 0.18527
 H401 H 0.03710 0.78052 0.21760
 H402 H 0.09455 0.75305 0.15653
 H403 H -0.04037 0.79945 0.11258
 H404 H -0.08624 0.81145 0.12618
 H405 H -0.08276 0.74750 0.18737
 H406 H -0.03611 0.73748 0.17226
 C407 C 0.00541 0.82141 0.06079
 C408 C -0.01588 0.66525 0.10675
 C409 C -0.08933 0.78027 0.15789
 C410 C 0.06913 0.76730 0.18980
 C411 C 0.52064 0.22294 0.58021
 H412 H 0.53517 0.23984 0.57935
 C413 C 0.52045 0.20334 0.55995
 H414 H 0.53485 0.20538 0.54337
 C415 C 0.48539 0.19891 0.60386
 H416 H 0.47234 0.19690 0.62143
 C417 C 0.48484 0.17850 0.58422
 H418 H 0.47088 0.16120 0.58641
 N419 N 0.50292 0.22070 0.60131
 C420 C 0.50722 0.30228 0.63590
 H421 H 0.50827 0.29552 0.65658
 C422 C 0.50991 0.33009 0.62969
 H423 H 0.51255 0.34468 0.64584
 C424 C 0.50275 0.29107 0.58987
 H425 H 0.50003 0.27572 0.57448
 C426 C 0.50530 0.31890 0.58271
 H427 H 0.50493 0.32477 0.56173
 Zn428 Zn 0.50619 0.24681 0.62862
 N429 N 0.50474 0.28336 0.61607
 C430 C 0.56053 0.26016 0.64217
 N431 N 0.54021 0.24102 0.64488
 C432 C 0.54334 0.21815 0.66037
 C433 C 0.56617 0.21568 0.67671
 C434 C 0.58416 0.25798 0.65742
 C435 C 0.45166 0.24325 0.64479
 C436 C 0.42964 0.23957 0.66247
 C437 C 0.46166 0.23625 0.69901
 C438 C 0.48304 0.24012 0.68063
 N439 N 0.47774 0.24267 0.65400
 H440 H 0.55803 0.27763 0.62893
 H441 H 0.52714 0.20287 0.66149
 H442 H 0.56762 0.19848 0.69056
 H443 H 0.59963 0.27404 0.65624
 H444 H 0.44808 0.24607 0.62357
 H445 H 0.40905 0.23930 0.65465
 H446 H 0.46629 0.23421 0.72011
 H447 H 0.50377 0.24140 0.68781
 C448 C 0.50985 0.33859 0.60279
 C449 C 0.50238 0.18083 0.56188
 C450 C 0.43463 0.23561 0.68990
 C451 C 0.58641 0.23618 0.67573
 C452 C 0.49365 0.79341 0.90363
 H453 H 0.51185 0.78287 0.91031
 C454 C 0.48741 0.81947 0.91366
 H455 H 0.50109 0.82872 0.92801
 C456 C 0.45446 0.79414 0.87609
 H457 H 0.44140 0.78412 0.86178
 C458 C 0.44730 0.82009 0.88575
 H459 H 0.42876 0.82948 0.87848
 N460 N 0.47797 0.78191 0.88423
 C461 C 0.51275 0.70348 0.89959
 H462 H 0.52992 0.70331 0.88576
 C463 C 0.51087 0.68330 0.91969
 H464 H 0.52673 0.66786 0.92125
 C465 C 0.47090 0.72324 0.91438
 H466 H 0.45498 0.73842 0.91172
 C467 C 0.46847 0.70387 0.93493
 H468 H 0.45060 0.70440 0.94799
 Zn469 Zn 0.49057 0.74858 0.86869
 N470 N 0.49265 0.72268 0.89710
 C471 C 0.53980 0.73405 0.84078
 N472 N 0.52529 0.75501 0.85205
 C473 C 0.53571 0.78106 0.85265
 C474 C 0.56255 0.78630 0.84434
 C475 C 0.56681 0.73846 0.83189
 C476 C 0.45322 0.71036 0.84834
 C477 C 0.43099 0.70149 0.83339
 C478 C 0.43425 0.74335 0.80712
 C479 C 0.45684 0.75127 0.82242
 N480 N 0.46497 0.73536 0.84340
 H481 H 0.53074 0.71372 0.83949
 H482 H 0.52350 0.79792 0.86004
 H483 H 0.57060 0.80707 0.84576
 H484 H 0.57854 0.72134 0.82404
 H485 H 0.46027 0.69767 0.86469
 H486 H 0.42118 0.68223 0.83891
 H487 H 0.42707 0.75688 0.79140
 H488 H 0.46679 0.77091 0.81864
 C489 C 0.48843 0.68339 0.93757
 C490 C 0.46444 0.83359 0.90402
 C491 C 0.42060 0.71847 0.81308
 C492 C 0.57871 0.76471 0.83460
 C493 C -0.23567 0.65056 0.94914
 H494 H -0.22014 0.63500 0.95162
 C495 C -0.23498 0.66763 0.92636
 H496 H -0.21868 0.66532 0.91162
 C497 C -0.27598 0.67254 0.96494
 H498 H -0.29191 0.67433 0.98011
 C499 C -0.27575 0.69030 0.94290
 H500 H -0.29179 0.70551 0.94109
 N501 N -0.25556 0.65390 0.96825
 C502 C -0.26007 0.65070 1.05563
 H503 H -0.26347 0.62897 1.05941
 C504 C -0.25994 0.66926 1.07703
 H505 H -0.26334 0.66112 1.09701
 C506 C -0.25096 0.68683 1.02478
 H507 H -0.24670 0.69364 1.00451
 C508 C -0.25055 0.70607 1.04547
 H509 H -0.24649 0.72726 1.04005
 Zn510 Zn -0.25717 0.63422 1.00134
 N511 N -0.25626 0.65981 1.03004
 C512 C -0.20119 0.62001 1.00184
 N513 N -0.22708 0.61004 1.00556
 C514 C -0.23156 0.58392 1.01472
 C515 C -0.20947 0.56676 1.02066
 C516 C -0.17854 0.60325 1.00669
 C517 C -0.31122 0.61823 1.01962
 C518 C -0.33652 0.60490 1.01668
 C519 C -0.31894 0.58352 0.97634
 C520 C -0.29393 0.59682 0.98028
 N521 N -0.29064 0.61415 1.00136
 H522 H -0.19814 0.64115 0.99545
 H523 H -0.25227 0.57665 1.01826
 H524 H -0.21331 0.54619 1.02838
 H525 H -0.15807 0.61152 1.00376
 H526 H -0.30852 0.63256 1.03589
 H527 H -0.35302 0.60901 1.03081
 H528 H -0.32135 0.57036 0.95902
 H529 H -0.27733 0.59413 0.96596
 C530 C -0.25526 0.69760 1.07222
 C531 C -0.25479 0.68831 0.92353
 C532 C -0.34074 0.58787 0.99441
 C533 C -0.18261 0.57642 1.01658
 C534 C -0.24520 0.31748 0.52671
 H535 H -0.24870 0.30997 0.50664
 C536 C -0.24670 0.30002 0.54750
 H537 H -0.25060 0.27853 0.54337
 C538 C -0.23458 0.35554 0.55487
 H539 H -0.23198 0.37745 0.55793
 C540 C -0.23550 0.33688 0.57845
 H541 H -0.23238 0.34581 0.59804
 N542 N -0.23984 0.34624 0.53093
 C543 C -0.21836 0.33961 0.46473
 H544 H -0.20261 0.34254 0.47957
 C545 C -0.21254 0.32465 0.44156
 H546 H -0.19214 0.31640 0.43884
 C547 C -0.26374 0.34768 0.45042
 H548 H -0.28365 0.35672 0.45404
 C549 C -0.25869 0.33288 0.42666
 H550 H -0.27493 0.33045 0.41224
 Zn551 Zn -0.24631 0.37082 0.50150
 N552 N -0.24359 0.35065 0.46889
 C553 C -0.19551 0.39717 0.51427
 N554 N -0.21861 0.39843 0.49926
 C555 C -0.22162 0.41830 0.48021
 C556 C -0.20114 0.43795 0.47571
 C557 C -0.17445 0.41646 0.51041
 C558 C -0.29316 0.38358 0.53181
 C559 C -0.31566 0.39891 0.54016
 C560 C -0.31632 0.42079 0.49668
 C561 C -0.29314 0.40535 0.48933
 N562 N -0.28138 0.38786 0.50727
 H563 H -0.19275 0.38058 0.52845
 H564 H -0.23957 0.41845 0.46783
 H565 H -0.20413 0.45342 0.46034
 H566 H -0.15595 0.41450 0.52201
 H567 H -0.28481 0.36878 0.54555
 H568 H -0.32391 0.39484 0.56002
 H569 H -0.32463 0.43522 0.48233
 H570 H -0.28434 0.40787 0.46949
 C571 C -0.23280 0.32094 0.42214
 C572 C -0.24270 0.31020 0.57540
 C573 C -0.32717 0.41862 0.52296
 C574 C -0.17697 0.43697 0.49062
 C575 C 0.25074 -0.18204 0.03041
 H576 H 0.25088 -0.19190 0.01101
 C577 C 0.24536 -0.19713 0.05231
 H578 H 0.24239 -0.21908 0.05000
 C579 C 0.25505 -0.14063 0.05560
 H580 H 0.25632 -0.11839 0.05659
 C581 C 0.25064 -0.15684 0.08065
 H582 H 0.25007 -0.14594 0.09956
 N583 N 0.25472 -0.15275 0.03230
 C584 C 0.28014 -0.17017 -0.03187
 H585 H 0.29573 -0.16692 -0.01693
 C586 C 0.28490 -0.18845 -0.05300
 H587 H 0.30434 -0.19904 -0.05429
 C588 C 0.23600 -0.15985 -0.04841
 H589 H 0.21703 -0.14856 -0.04659
 C590 C 0.24008 -0.17761 -0.07010
 H591 H 0.22396 -0.18006 -0.08465
 Zn592 Zn 0.25111 -0.13238 -0.00031
 N593 N 0.25587 -0.15663 -0.02974
 C594 C 0.29870 -0.09944 0.01186
 N595 N 0.27750 -0.10387 -0.00511
 C596 C 0.27559 -0.08965 -0.02856
 C597 C 0.29553 -0.07030 -0.03596
 C598 C 0.31933 -0.08033 0.00511
 C599 C 0.20809 -0.09165 -0.00433
 C600 C 0.18072 -0.08318 -0.00203
 C601 C 0.16814 -0.12991 0.00980
 C602 C 0.19541 -0.13754 0.00650
 N603 N 0.21485 -0.11847 0.00002
 H604 H 0.30024 -0.11145 0.03009
 H605 H 0.25882 -0.09393 -0.04195
 H606 H 0.29328 -0.05945 -0.05478
 H607 H 0.33645 -0.07782 0.01849
 H608 H 0.22385 -0.07665 -0.00910
 H609 H 0.17600 -0.06165 -0.00514
 H610 H 0.15345 -0.14588 0.01492
 H611 H 0.20124 -0.15878 0.00960
 C612 C 0.26472 -0.19233 -0.07246
 C613 C 0.24435 -0.18392 0.07918
 C614 C 0.16032 -0.10230 0.00593
 C615 C 0.31819 -0.06581 -0.01939
 C616 C 0.27691 1.15441 0.44560
 H617 H 0.29090 1.13723 0.44508
 C618 C 0.27631 1.17277 0.42392
 H619 H 0.29029 1.16987 0.40714
 C620 C 0.24096 1.17853 0.46743
 H621 H 0.22693 1.18033 0.48431
 C622 C 0.23997 1.19759 0.44641
 H623 H 0.22496 1.21393 0.44724
 N624 N 0.25968 1.15785 0.46702
 C625 C 0.26022 1.13897 0.55318
 H626 H 0.25494 1.11729 0.55333
 C627 C 0.26523 1.15255 0.57741
 H628 H 0.26351 1.14126 0.59614
 C629 C 0.27049 1.17964 0.52852
 H630 H 0.27343 1.19000 0.50949
 C631 C 0.27607 1.19382 0.55215
 H632 H 0.28239 1.21520 0.55090
 Zn633 Zn 0.25932 1.13296 0.49658
 N634 N 0.26267 1.15269 0.52936
 C635 C 0.31512 1.12222 0.49208
 N636 N 0.29030 1.10948 0.49461
 C637 C 0.28836 1.08177 0.49856
 C638 C 0.31217 1.06590 0.50081
 C639 C 0.33932 1.10703 0.49325
 C640 C 0.20564 1.11435 0.51404
 C641 C 0.17939 1.10363 0.50931
 C642 C 0.19434 1.09116 0.46465
 C643 C 0.22038 1.10149 0.47040
 N644 N 0.22543 1.11338 0.49452
 H645 H 0.31612 1.14439 0.48981
 H646 H 0.26843 1.07220 0.50116
 H647 H 0.31054 1.04406 0.50515
 H648 H 0.35891 1.11755 0.49184
 H649 H 0.20968 1.12455 0.53281
 H650 H 0.16362 1.10535 0.52467
 H651 H 0.19056 1.08260 0.44500
 H652 H 0.23628 1.10132 0.45509
 C653 C 0.27368 1.18023 0.57698
 C654 C 0.25788 1.19489 0.42435
 C655 C 0.17331 1.09264 0.48403
 C656 C 0.33794 1.07865 0.49817
 C657 C 0.15771 0.47363 0.27113
 H658 H 0.15727 0.49105 0.28461
 C659 C 0.17481 0.45134 0.27656
 H660 H 0.18799 0.45241 0.29382
 C661 C 0.13997 0.45089 0.23310
 H662 H 0.12554 0.45030 0.21682
 C663 C 0.15679 0.42803 0.23785
 H664 H 0.15526 0.41027 0.22487
 N665 N 0.14041 0.47292 0.24996
 C666 C 0.10832 0.55695 0.24232
 H667 H 0.08699 0.55102 0.24100
 C668 C 0.11570 0.58462 0.23976
 H669 H 0.09986 0.59979 0.23649
 C670 C 0.15466 0.54421 0.24839
 H671 H 0.16978 0.52833 0.25146
 C672 C 0.16293 0.57192 0.24642
 H673 H 0.18446 0.57716 0.24783
 Zn674 Zn 0.11317 0.50091 0.24901
 N675 N 0.12766 0.53733 0.24640
 C676 C 0.09199 0.51831 0.29970
 N677 N 0.09306 0.49746 0.28155
 C678 C 0.07931 0.47337 0.28585
 C679 C 0.06217 0.47024 0.30825
 C680 C 0.07558 0.51577 0.32277
 C681 C 0.09782 0.49587 0.19408
 C682 C 0.07935 0.49599 0.17274
 C683 C 0.04209 0.49763 0.20492
 C684 C 0.06116 0.49730 0.22548
 N685 N 0.08849 0.49651 0.21990
 H686 H 0.10354 0.53707 0.29617
 H687 H 0.08091 0.45698 0.27126
 H688 H 0.05077 0.45122 0.31101
 H689 H 0.07441 0.53274 0.33678
 H690 H 0.11966 0.49598 0.19004
 H691 H 0.08760 0.49594 0.15251
 H692 H 0.02070 0.49830 0.21066
 H693 H 0.05392 0.49887 0.24595
 C694 C 0.14327 0.59244 0.24175
 C695 C 0.17394 0.42774 0.26032
 C696 C 0.05087 0.49746 0.17790
 C697 C 0.05995 0.49175 0.32683
 C698 C -0.14892 1.03864 0.27231
 H699 H -0.15120 1.02224 0.28695
 C700 C -0.15950 1.06461 0.27783
 H701 H -0.17023 1.06806 0.29667
 C702 C -0.13063 1.05445 0.23067
 H703 H -0.11815 1.05084 0.21301
 C704 C -0.14160 1.08070 0.23510
 H705 H -0.13790 1.09701 0.22058
 N706 N -0.13431 1.03416 0.24937
 C707 C -0.13552 0.94523 0.25922
 H708 H -0.11569 0.94181 0.26807
 C709 C -0.15323 0.92289 0.25501
 H710 H -0.14704 0.90241 0.26107
 C711 C -0.16666 0.97561 0.23826
 H712 H -0.17134 0.99603 0.23091
 C713 C -0.18462 0.95383 0.23313
 H714 H -0.20336 0.95783 0.22238
 Zn715 Zn -0.11626 0.99981 0.24928
 N716 N -0.14250 0.97095 0.25078
 C717 C -0.09968 0.98991 0.30391
 N718 N -0.09330 1.00173 0.27980
 C719 C -0.07238 1.02020 0.27741
 C720 C -0.05704 1.02768 0.29968
 C721 C -0.08489 0.99698 0.32688
 C722 C -0.10603 0.99903 0.19312
 C723 C -0.09133 0.99261 0.16970
 C724 C -0.05538 0.97404 0.19721
 C725 C -0.07039 0.98156 0.22001
 N726 N -0.09514 0.99396 0.21765
 H727 H -0.11711 0.97616 0.30567
 H728 H -0.06824 1.02994 0.25821
 H729 H -0.04065 1.04249 0.29686
 H730 H -0.09088 0.98795 0.34595
 H731 H -0.12636 1.00764 0.19170
 H732 H -0.10065 0.99685 0.15054
 H733 H -0.03569 0.96446 0.20014
 H734 H -0.06255 0.97678 0.23968
 C735 C -0.17775 0.92702 0.24110
 C736 C -0.15549 1.08605 0.25932
 C737 C -0.06569 0.97953 0.17143
 C738 C -0.06352 1.01657 0.32507
 C739 C 0.33008 0.51755 -0.23425
 H740 H 0.32384 0.49634 -0.23118
 C741 C 0.31116 0.53872 -0.23042
 H742 H 0.29020 0.53380 -0.22472
 C743 C 0.36553 0.55016 -0.24285
 H744 H 0.38707 0.55446 -0.24622
 C745 C 0.34711 0.57188 -0.24020
 H746 H 0.35446 0.59292 -0.24189
 N747 N 0.35674 0.52366 -0.24002
 C748 C 0.36456 0.43987 -0.22118
 H749 H 0.36996 0.44464 -0.20074
 C750 C 0.35577 0.41442 -0.22742
 H751 H 0.35428 0.39886 -0.21183
 C752 C 0.36016 0.45557 -0.26635
 H753 H 0.36229 0.47148 -0.28150
 C754 C 0.35176 0.42776 -0.27434
 H755 H 0.34701 0.42450 -0.29524
 Zn756 Zn 0.38334 0.49586 -0.23824
 N757 N 0.36694 0.46072 -0.24172
 C758 C 0.38735 0.49872 -0.18180
 N759 N 0.40150 0.50126 -0.20538
 C760 C 0.42732 0.51195 -0.20618
 C761 C 0.43979 0.52083 -0.18274
 C762 C 0.39923 0.50712 -0.15773
 C763 C 0.40527 0.51571 -0.28836
 C764 C 0.42365 0.51515 -0.31005
 C765 C 0.44858 0.47895 -0.28769
 C766 C 0.42965 0.48006 -0.26659
 N767 N 0.40877 0.49848 -0.26708
 H768 H 0.36645 0.49119 -0.18181
 H769 H 0.43788 0.51489 -0.22513
 H770 H 0.46027 0.52944 -0.18398
 H771 H 0.38753 0.50552 -0.13919
 H772 H 0.38786 0.52934 -0.28896
 H773 H 0.42060 0.52902 -0.32681
 H774 H 0.46482 0.46387 -0.28693
 H775 H 0.43140 0.46600 -0.24978
 C776 C 0.34998 0.40745 -0.25591
 C777 C 0.31978 0.56617 -0.23328
 C778 C 0.44567 0.49662 -0.30980
 C779 C 0.42558 0.51889 -0.15819
 C780 C 0.66364 -0.02951 -0.24290
 H781 H 0.66874 -0.00926 -0.23540
 C782 C 0.67863 -0.05119 -0.23563
 H783 H 0.69614 -0.04776 -0.22294
 C784 C 0.63359 -0.05714 -0.26902
 H785 H 0.61478 -0.05982 -0.27996
 C786 C 0.65064 -0.08153 -0.26285
 H787 H 0.64436 -0.10133 -0.27067
 N788 N 0.64020 -0.03296 -0.25976
 C789 C 0.64016 0.04916 -0.24021
 H790 H 0.62898 0.04523 -0.22174
 C791 C 0.65449 0.07414 -0.24363
 H792 H 0.65416 0.08912 -0.22758
 C793 C 0.65305 0.03511 -0.28402
 H794 H 0.65237 0.01981 -0.29973
 C795 C 0.66636 0.06005 -0.28873
 H796 H 0.67640 0.06314 -0.30799
 Zn797 Zn 0.61720 -0.00156 -0.26200
 N798 N 0.63938 0.03051 -0.26056
 C799 C 0.56459 -0.00601 -0.23760
 N800 N 0.59188 -0.00352 -0.23280
 C801 C 0.60158 -0.00406 -0.20733
 C802 C 0.58352 -0.00658 -0.18545
 C803 C 0.54584 -0.00855 -0.21635
 C804 C 0.58257 0.02562 -0.29567
 C805 C 0.56897 0.03331 -0.31891
 C806 C 0.58785 -0.00654 -0.34113
 C807 C 0.60122 -0.01353 -0.31726
 N808 N 0.59804 0.00239 -0.29499
 H809 H 0.55725 -0.00643 -0.25795
 H810 H 0.62341 -0.00276 -0.20400
 H811 H 0.59180 -0.00714 -0.16541
 H812 H 0.52428 -0.01009 -0.22086
 H813 H 0.58121 0.03853 -0.27805
 H814 H 0.55725 0.05216 -0.31868
 H815 H 0.59049 -0.01951 -0.35858
 H816 H 0.61466 -0.03113 -0.31692
 C817 C 0.66663 0.08040 -0.26873
 C818 C 0.67182 -0.07913 -0.24581
 C819 C 0.57135 0.01716 -0.34211
 C820 C 0.55518 -0.00890 -0.18980
 C821 C 0.03778 0.27899 0.83870
 H822 H 0.02162 0.29416 0.83976
 C823 C 0.05871 0.28183 0.81975
 H824 H 0.05868 0.29957 0.80653
 C825 C 0.05743 0.23784 0.85551
 H826 H 0.05682 0.22088 0.86963
 C827 C 0.07891 0.23993 0.83683
 H828 H 0.09463 0.22427 0.83655
 N829 N 0.03732 0.25711 0.85582
 C830 C -0.05008 0.25195 0.87167
 H831 H -0.05214 0.25676 0.89277
 C832 C -0.07337 0.24595 0.85661
 H833 H -0.09346 0.24636 0.86606
 C834 C -0.02138 0.24397 0.83376
 H835 H -0.00117 0.24234 0.82494
 C836 C -0.04386 0.23746 0.81824
 H837 H -0.04063 0.23171 0.79747
 Zn838 Zn 0.00742 0.25647 0.87981
 N839 N -0.02475 0.25113 0.85994
 C840 C -0.01286 0.30877 0.89707
 N841 N 0.00851 0.29087 0.89693
 C842 C 0.03380 0.29858 0.90541
 C843 C 0.03875 0.32562 0.91329
 C844 C -0.00900 0.33585 0.90564
 C845 C 0.00833 0.20121 0.89454
 C846 C 0.00953 0.17858 0.91182
 C847 C 0.01419 0.21001 0.94904
 C848 C 0.01284 0.23204 0.93104
 N849 N 0.01021 0.22724 0.90436
 H850 H -0.03257 0.30250 0.88954
 H851 H 0.05050 0.28400 0.90465
 H852 H 0.05919 0.33173 0.91916
 H853 H -0.02595 0.35018 0.90514
 H854 H 0.00591 0.19809 0.87321
 H855 H 0.00841 0.15803 0.90353
 H856 H 0.01606 0.21432 0.97022
 H857 H 0.01375 0.25295 0.93839
 C858 C -0.07014 0.23821 0.82968
 C859 C 0.07954 0.26208 0.81854
 C860 C 0.01266 0.18284 0.93946
 C861 C 0.01726 0.34459 0.91308
 C862 C 0.45511 0.25581 0.15233
 H863 H 0.46677 0.27371 0.15840
 C864 C 0.42763 0.25303 0.16025
 H865 H 0.41838 0.26887 0.17256
 C866 C 0.45268 0.21432 0.12756
 H867 H 0.46209 0.19970 0.11409
 C868 C 0.42525 0.21076 0.13495
 H869 H 0.41440 0.19283 0.12772
 N870 N 0.46702 0.23662 0.13620
 C871 C 0.55532 0.25037 0.14090
 H872 H 0.55978 0.25338 0.11977
 C873 C 0.57669 0.24897 0.15916
 H874 H 0.59755 0.25106 0.15180
 C875 C 0.52258 0.24211 0.17556
 H876 H 0.50151 0.23869 0.18168
 C877 C 0.54337 0.24048 0.19454
 H878 H 0.53787 0.23650 0.21529
 Zn879 Zn 0.50266 0.24357 0.12216
 N880 N 0.52895 0.24668 0.14929
 C881 C 0.51492 0.29945 0.10737
 N882 N 0.50023 0.27631 0.10175
 C883 C 0.48090 0.27625 0.08236
 C884 C 0.47526 0.30023 0.06803
 C885 C 0.50996 0.32398 0.09341
 C886 C 0.51590 0.18866 0.11253
 C887 C 0.52335 0.16557 0.09758
 C888 C 0.52851 0.19498 0.05855
 C889 C 0.52055 0.21744 0.07417
 N890 N 0.51396 0.21380 0.10052
 H891 H 0.52981 0.29919 0.12325
 H892 H 0.46937 0.25761 0.07851
 H893 H 0.45962 0.29962 0.05283
 H894 H 0.52121 0.34242 0.09868
 H895 H 0.51105 0.18651 0.13369
 H896 H 0.52423 0.14560 0.10730
 H897 H 0.53294 0.19819 0.03744
 H898 H 0.51953 0.23770 0.06517
 C899 C 0.57089 0.24338 0.18631
 C900 C 0.41221 0.23048 0.15114
 C901 C 0.52960 0.16860 0.07019
 C902 C 0.48948 0.32465 0.07384
 C903 C -0.04635 0.75722 0.65954
 H904 H -0.03157 0.76167 0.67494
 C905 C -0.07294 0.75449 0.66614
 H906 H -0.07902 0.75650 0.68698
 C907 C -0.05510 0.75108 0.61299
 H908 H -0.04797 0.74935 0.59243
 C909 C -0.08442 0.74732 0.61932
 H910 H -0.09799 0.74364 0.60273
 N911 N -0.03744 0.75418 0.63210
 C912 C 0.04527 0.77679 0.64767
 H913 H 0.04714 0.78969 0.63002
 C914 C 0.06594 0.77731 0.66681
 H915 H 0.08324 0.79116 0.66417
 C916 C 0.02173 0.74141 0.67166
 H917 H 0.00519 0.72650 0.67264
 C918 C 0.04156 0.74168 0.69151
 H919 H 0.03986 0.72714 0.70799
 Zn920 Zn 0.00001 0.75307 0.62156
 N921 N 0.02383 0.75887 0.65037
 C922 C 0.00014 0.80670 0.60275
 N923 N 0.00602 0.78044 0.59544
 C924 C 0.01588 0.77442 0.57054
 C925 C 0.02081 0.79553 0.55195
 C926 C 0.00479 0.82839 0.58488
 C927 C -0.01072 0.69834 0.60450
 C928 C -0.00355 0.67203 0.59597
 C929 C 0.04410 0.68584 0.59612
 C930 C 0.03595 0.71220 0.60396
 N931 N 0.00893 0.71792 0.60800
 H932 H -0.00778 0.81076 0.62272
 H933 H 0.02003 0.75328 0.56511
 H934 H 0.02857 0.79027 0.53221
 H935 H 0.00050 0.84915 0.59147
 H936 H -0.03196 0.70280 0.60866
 H937 H -0.01947 0.65669 0.59330
 H938 H 0.06566 0.68146 0.59309
 H939 H 0.05121 0.72802 0.60734
 C940 C 0.06420 0.75947 0.68893
 C941 C -0.09334 0.74792 0.64503
 C942 C 0.02414 0.66554 0.59191
 C943 C 0.01544 0.82298 0.55912
 C944 C 0.54371 0.75446 0.34101
 H945 H 0.53334 0.77320 0.33524
 C946 C 0.57057 0.74972 0.33227
 H947 H 0.58061 0.76495 0.31959
 C948 C 0.54368 0.71284 0.36606
 H949 H 0.53361 0.69890 0.37995
 C950 C 0.57042 0.70725 0.35774
 H951 H 0.58002 0.68855 0.36474
 N952 N 0.53095 0.73621 0.35779
 C953 C 0.44339 0.75255 0.35711
 H954 H 0.43997 0.75622 0.37829
 C955 C 0.42114 0.75011 0.34003
 H956 H 0.40064 0.75224 0.34826
 C957 C 0.47439 0.74310 0.32134
 H958 H 0.49513 0.73953 0.31440
 C959 C 0.45270 0.74035 0.30354
 H960 H 0.45711 0.73542 0.28279
 Zn961 Zn 0.49690 0.74602 0.37330
 N962 N 0.46930 0.74874 0.34762
 C963 C 0.48563 0.80153 0.38927
 N964 N 0.50246 0.77939 0.39167
 C965 C 0.52578 0.78069 0.40628
 C966 C 0.53356 0.80526 0.41842
 C967 C 0.49233 0.82641 0.40170
 C968 C 0.47966 0.69317 0.38669
 C969 C 0.47350 0.67098 0.40356
 C970 C 0.47770 0.70149 0.44160
 C971 C 0.48410 0.72301 0.42402
 N972 N 0.48566 0.71826 0.39722
 H973 H 0.46742 0.80018 0.37723
 H974 H 0.53880 0.76278 0.40776
 H975 H 0.55262 0.80620 0.42930
 H976 H 0.47921 0.84415 0.39910
 H977 H 0.48071 0.69022 0.36519
 H978 H 0.46970 0.65086 0.39499
 H979 H 0.47776 0.70540 0.46296
 H980 H 0.48856 0.74326 0.43183
 C981 C 0.42564 0.74326 0.31301
 C982 C 0.58443 0.72607 0.34108
 C983 C 0.47296 0.67497 0.43139
 C984 C 0.51689 0.82851 0.41591
 Zr985 Zr 0.01648 -0.02890 1.03265
 O986 O 0.04181 -0.02475 1.06666
 O987 O 0.00623 -0.07083 1.03430
 O988 O -0.00557 -0.03502 1.06866
 O989 O 0.07135 -0.03593 0.98835
 O990 O -0.04202 -0.00587 1.06577
 O991 O 0.05298 -0.05111 1.02815
 O992 O -0.02155 -0.07703 0.99831
 O993 O -0.02466 -0.02850 1.02131
 O994 O 0.01652 -0.03950 0.99209
 O995 O 0.00294 0.01130 1.04065
 O996 O 0.04275 -0.00013 1.01342
 Zr997 Zr -0.01370 0.03136 0.96687
 Zr998 Zr -0.03760 0.01230 1.02723
 Zr999 Zr 0.04057 -0.00996 0.97250
 Zr1000 Zr -0.02407 -0.03761 0.98036
 O1001 O 0.07869 0.01063 0.96826
 O1002 O -0.06472 -0.04941 0.99079
 O1003 O 0.00000 -0.00899 0.95871
 O1004 O -0.03914 0.00216 0.98638
 O1005 O -0.01383 0.04246 1.00740
 O1006 O 0.02732 0.03045 0.97847
 C1007 C -0.00839 -0.08589 1.01881
 C1008 C 0.07172 -0.05092 1.00980
 C1009 C -0.02728 -0.02363 1.07832
 O1010 O -0.07688 -0.00622 1.02971
 O1011 O -0.06742 0.04021 1.01304
 O1012 O -0.05069 0.05298 0.97188
 C1013 C -0.06917 0.05331 0.99055
 O1014 O 0.05325 0.03397 1.05255
 Zr1015 Zr 0.02703 0.03969 1.01923
 O1016 O -0.00288 0.07351 0.96531
 O1017 O -0.04257 0.04383 1.05606
 O1018 O 0.01335 0.06649 1.05010
 O1019 O 0.06697 0.05393 1.00893
 O1020 O 0.02291 0.07930 1.00275
 C1021 C 0.01100 0.08841 0.98169
 O1022 O -0.03996 0.02889 0.93335
 O1023 O 0.04794 -0.04265 0.94535
 O1024 O 0.00645 0.03416 0.92927
 O1025 O 0.04220 0.00417 0.93245
 O1026 O -0.01077 -0.06595 0.95069
 O1027 O -0.04717 -0.03318 0.94470
 C1028 C 0.02704 0.02104 0.91930
 H1029 H 0.02407 -0.05799 0.98833
 H1030 H -0.05812 0.00276 0.97961
 H1031 H 0.03890 0.04356 0.96804
 H1032 H 0.00413 0.01562 1.06000
 H1033 H -0.06782 -0.06807 0.98339
 H1034 H -0.08722 0.00372 1.04388
 H1035 H -0.06154 0.04212 1.06322
 H1036 H 0.02644 0.08214 1.05089
 H1037 H -0.02443 -0.08113 0.95014
 H1038 H 0.06705 -0.04052 0.93865
 H1039 H 0.08922 0.00048 0.95438
 H1040 H 0.06944 0.07222 1.01737
 H1041 H -0.05861 -0.04985 0.94214
 H1042 H -0.04063 0.04745 0.92489
 H1043 H 0.04295 -0.04314 1.07536
 H1044 H 0.06082 0.05199 1.05815
 Zr1045 Zr 0.53166 0.49380 0.55176
 O1046 O 0.55701 0.51383 0.57995
 O1047 O 0.53082 0.45368 0.56676
 O1048 O 0.51370 0.49348 0.59018
 O1049 O 0.58342 0.48268 0.50446
 O1050 O 0.47033 0.50952 0.58373
 O1051 O 0.57227 0.47986 0.54902
 O1052 O 0.50158 0.43102 0.53898
 O1053 O 0.49101 0.48165 0.54561
 O1054 O 0.53185 0.47123 0.51619
 O1055 O 0.50907 0.53047 0.55068
 O1056 O 0.54945 0.52025 0.52276
 Zr1057 Zr 0.48473 0.52286 0.47691
 Zr1058 Zr 0.46877 0.51827 0.54218
 Zr1059 Zr 0.54729 0.49802 0.48672
 Zr1060 Zr 0.49134 0.46058 0.50927
 O1061 O 0.58033 0.52390 0.47497
 O1062 O 0.45405 0.44433 0.52503
 O1063 O 0.50697 0.48573 0.47805
 O1064 O 0.46747 0.49620 0.50607
 O1065 O 0.48418 0.54493 0.51284
 O1066 O 0.52528 0.53482 0.48339
 C1067 C 0.51724 0.43230 0.55962
 C1068 C 0.58884 0.47653 0.52903
 C1069 C 0.48964 0.50012 0.59860
 O1070 O 0.43400 0.49399 0.55223
 O1071 O 0.43366 0.53639 0.52462
 O1072 O 0.44477 0.53819 0.48002
 C1073 C 0.42834 0.54226 0.49993
 O1074 O 0.55620 0.56402 0.54801
 Zr1075 Zr 0.52485 0.55556 0.51995
 O1076 O 0.48440 0.56429 0.46381
 O1077 O 0.45900 0.55460 0.56350
 O1078 O 0.51332 0.58727 0.54693
 O1079 O 0.55515 0.57727 0.49733
 O1080 O 0.50203 0.58594 0.50021
 C1081 C 0.48909 0.58592 0.47793
 O1082 O 0.45781 0.50424 0.44917
 O1083 O 0.55917 0.46130 0.46705
 O1084 O 0.50161 0.51897 0.43802
 O1085 O 0.54471 0.50239 0.44471
 O1086 O 0.51018 0.42696 0.48933
 O1087 O 0.46757 0.44867 0.47574
 C1088 C 0.52503 0.51026 0.42955
 H1089 H 0.54295 0.45425 0.51713
 H1090 H 0.44845 0.49103 0.50146
 H1091 H 0.53236 0.54661 0.46858
 H1092 H 0.51017 0.54035 0.56798
 H1093 H 0.45505 0.42400 0.52359
 H1094 H 0.42256 0.50523 0.56454
 H1095 H 0.44123 0.55108 0.57277
 H1096 H 0.52262 0.60443 0.54082
 H1097 H 0.50009 0.41004 0.49483
 H1098 H 0.57705 0.46507 0.45809
 H1099 H 0.59214 0.51285 0.46284
 H1100 H 0.55189 0.59714 0.50048
 H1101 H 0.46070 0.42962 0.47849
 H1102 H 0.45222 0.51864 0.43615
 H1103 H 0.56308 0.49968 0.59301
 H1104 H 0.56475 0.58209 0.54378
 Zr1105 Zr 0.49297 1.02980 0.51758
 O1106 O 0.46912 1.01707 0.55129
 O1107 O 0.49519 1.07287 0.52447
 O1108 O 0.51314 1.03408 0.55448
 O1109 O 0.43894 1.03289 0.47265
 O1110 O 0.55393 1.01195 0.54880
 O1111 O 0.45141 1.04115 0.51590
 O1112 O 0.52321 1.08821 0.49055
 O1113 O 0.53387 1.03831 0.50737
 O1114 O 0.49215 1.04651 0.47892
 O1115 O 0.51315 0.99156 0.51994
 O1116 O 0.47353 0.99984 0.49351
 Zr1117 Zr 0.53611 0.98750 0.44468
 Zr1118 Zr 0.55366 0.99997 0.50809
 Zr1119 Zr 0.47478 1.01652 0.45463
 Zr1120 Zr 0.53298 1.05342 0.46802
 O1121 O 0.44097 0.99053 0.44650
 O1122 O 0.57043 1.07084 0.48112
 O1123 O 0.51512 1.02521 0.44177
 O1124 O 0.55518 1.01679 0.46922
 O1125 O 0.53671 0.96990 0.48311
 O1126 O 0.49525 0.97877 0.45492
 C1127 C 0.50803 1.09205 0.51132
 C1128 C 0.43377 1.04056 0.49691
 C1129 C 0.53617 1.02502 0.56313
 O1130 O 0.58915 1.02435 0.51379
 O1131 O 0.58755 0.97872 0.49169
 O1132 O 0.57608 0.97148 0.44798
 C1133 C 0.59260 0.96967 0.46790
 O1134 O 0.46817 0.95711 0.52653
 Zr1135 Zr 0.49582 0.96283 0.49367
 O1136 O 0.53494 0.94520 0.43723
 O1137 O 0.56303 0.96601 0.53310
 O1138 O 0.51402 0.93424 0.52030
 O1139 O 0.45914 0.94404 0.48027
 O1140 O 0.50750 0.92797 0.47079
 C1141 C 0.52319 0.92532 0.44999
 O1142 O 0.56238 1.00112 0.41313
 O1143 O 0.46286 1.05151 0.43215
 O1144 O 0.51735 0.98648 0.40661
 O1145 O 0.47632 1.00804 0.41339
 O1146 O 0.51559 1.08333 0.44221
 O1147 O 0.55759 1.05857 0.43285
 C1148 C 0.49440 0.99634 0.39837
 H1149 H 0.48109 1.06351 0.47770
 H1150 H 0.57428 1.02051 0.46329
 H1151 H 0.48663 0.96561 0.44240
 H1152 H 0.51216 0.98399 0.53840
 H1153 H 0.57052 1.09055 0.47583
 H1154 H 0.60085 1.01409 0.52647
 H1155 H 0.58144 0.96954 0.54060
 H1156 H 0.50455 0.91631 0.51798
 H1157 H 0.52664 1.10045 0.44368
 H1158 H 0.44465 1.04726 0.42455
 H1159 H 0.42926 1.00063 0.43371
 H1160 H 0.46001 0.92423 0.48508
 H1161 H 0.56585 1.07724 0.43271
 H1162 H 0.56693 0.98481 0.40200
 H1163 H 0.46440 1.03378 0.56181
 H1164 H 0.46451 0.93717 0.52911
 Zr1165 Zr -0.03286 0.51530 1.04263
 O1166 O -0.05863 0.49030 1.06717
 O1167 O -0.03385 0.55262 1.06358
 O1168 O -0.01632 0.50951 1.08113
 O1169 O -0.08217 0.53135 0.99532
 O1170 O 0.02822 0.49753 1.07333
 O1171 O -0.07452 0.52662 1.04028
 O1172 O -0.00526 0.58048 1.03891
 O1173 O 0.00755 0.52966 1.03914
 O1174 O -0.03223 0.54324 1.01054
 O1175 O -0.00872 0.48002 1.03674
 O1176 O -0.04753 0.49320 1.00933
 Zr1177 Zr 0.01964 0.50044 0.96581
 Zr1178 Zr 0.03144 0.49481 1.03120
 Zr1179 Zr -0.04450 0.52099 0.97690
 Zr1180 Zr 0.00816 0.55631 1.00622
 O1181 O -0.07636 0.49679 0.96058
 O1182 O 0.04350 0.57157 1.02569
 O1183 O -0.00441 0.53603 0.97120
 O1184 O 0.03388 0.52264 0.99898
 O1185 O 0.01917 0.47227 0.99769
 O1186 O -0.02071 0.48618 0.96942
 C1187 C -0.02111 0.57545 1.05919
 C1188 C -0.08991 0.53209 1.02011
 C1189 C 0.00791 0.50320 1.08907
 O1190 O 0.06484 0.51845 1.04525
 O1191 O 0.06801 0.48081 1.01261
 O1192 O 0.06027 0.48660 0.96788
 C1193 C 0.07536 0.47957 0.98771
 O1194 O -0.05104 0.44314 1.02965
 Zr1195 Zr -0.02153 0.45957 1.00217
 O1196 O 0.02278 0.46217 0.94659
 O1197 O 0.04153 0.45618 1.04819
 O1198 O -0.00268 0.42563 1.02141
 O1199 O -0.05475 0.44222 0.98087
 O1200 O -0.00498 0.43414 0.97197
 C1201 C 0.01194 0.43868 0.95245
 O1202 O 0.04674 0.52495 0.94214
 O1203 O -0.05587 0.56022 0.96219
 O1204 O 0.00435 0.50873 0.92738
 O1205 O -0.04000 0.52171 0.93459
 O1206 O -0.01120 0.59169 0.99020
 O1207 O 0.03352 0.57439 0.97591
 C1208 C -0.01931 0.51644 0.91911
 H1209 H -0.04428 0.55932 1.01357
 H1210 H 0.05290 0.52924 0.99591
 H1211 H -0.02714 0.47645 0.95323
 H1212 H -0.01012 0.46737 1.05235
 H1213 H 0.04167 0.59186 1.02687
 H1214 H 0.07628 0.50587 1.05606
 H1215 H 0.05895 0.45882 1.05789
 H1216 H -0.01044 0.40860 1.01355
 H1217 H -0.00241 0.60807 0.99831
 H1218 H -0.07319 0.55758 0.95232
 H1219 H -0.08781 0.50941 0.94981
 H1220 H -0.05239 0.42194 0.98101
 H1221 H 0.03895 0.59320 0.98144
 H1222 H 0.05379 0.51325 0.92731
 H1223 H -0.06565 0.50204 1.08197
 H1224 H -0.05256 0.42296 1.02708
 Zr1225 Zr -0.02659 0.49304 0.46535
 O1226 O -0.04845 0.51837 0.43838
 O1227 O -0.03350 0.45396 0.44915
 O1228 O -0.00893 0.49162 0.42666
 O1229 O -0.07774 0.48498 0.51363
 O1230 O 0.03577 0.50388 0.43286
 O1231 O -0.06905 0.48637 0.46849
 O1232 O -0.00570 0.42612 0.47376
 O1233 O 0.01241 0.47593 0.46934
 O1234 O -0.02862 0.46771 0.49934
 O1235 O 0.00023 0.52682 0.46840
 O1236 O -0.03971 0.51876 0.49695
 Zr1237 Zr 0.02632 0.50958 0.54054
 Zr1238 Zr 0.03890 0.50955 0.47465
 Zr1239 Zr -0.03937 0.49332 0.53114
 Zr1240 Zr 0.01051 0.45185 0.50398
 O1241 O -0.06876 0.52129 0.54639
 O1242 O 0.04425 0.43288 0.48437
 O1243 O -0.00070 0.47566 0.53755
 O1244 O 0.03884 0.48403 0.50872
 O1245 O 0.02841 0.53528 0.50672
 O1246 O -0.01272 0.52656 0.53619
 C1247 C -0.02295 0.43048 0.45482
 C1248 C -0.08512 0.48332 0.48894
 C1249 C 0.01561 0.49639 0.41808
 O1250 O 0.07075 0.48283 0.46231
 O1251 O 0.07591 0.52312 0.49176
 O1252 O 0.06819 0.51978 0.53694
 C1253 C 0.08353 0.52500 0.51634
 O1254 O -0.03848 0.56761 0.47327
 Zr1255 Zr -0.01098 0.55070 0.50165
 O1256 O 0.03233 0.54883 0.55718
 O1257 O 0.05203 0.54583 0.45447
 O1258 O 0.01123 0.58152 0.48020
 O1259 O -0.04303 0.57197 0.52174
 O1260 O 0.00706 0.57680 0.53017
 C1261 C 0.02316 0.57251 0.54999
 O1262 O 0.05104 0.48491 0.56565
 O1263 O -0.05490 0.45638 0.54832
 O1264 O 0.00986 0.50493 0.57966
 O1265 O -0.03518 0.49413 0.57312
 O1266 O -0.01131 0.41936 0.52334
 O1267 O 0.03469 0.43410 0.53470
 C1268 C -0.01444 0.49880 0.58819
 H1269 H -0.04219 0.45257 0.49799
 H1270 H 0.05725 0.47630 0.51196
 H1271 H -0.01853 0.53778 0.55179
 H1272 H 0.00001 0.53816 0.45183
 H1273 H 0.04074 0.41275 0.48445
 H1274 H 0.08309 0.49372 0.45037
 H1275 H 0.06935 0.54126 0.44492
 H1276 H 0.00503 0.59964 0.48701
 H1277 H -0.00401 0.40177 0.51622
 H1278 H -0.07206 0.46122 0.55801
 H1279 H -0.08151 0.51043 0.55795
 H1280 H -0.03891 0.59196 0.52035
 H1281 H 0.03896 0.41476 0.53002
 H1282 H 0.05891 0.49714 0.57953
 H1283 H -0.05675 0.50608 0.42480
 H1284 H -0.03805 0.58798 0.47443
 Zr1285 Zr 0.46778 -0.00807 -0.05110
 O1286 O 0.44570 0.01488 -0.07983
 O1287 O 0.46152 -0.04824 -0.06461
 O1288 O 0.48585 -0.01142 -0.08962
 O1289 O 0.41591 -0.01174 -0.00276
 O1290 O 0.53083 -0.00021 -0.08334
 O1291 O 0.42525 -0.01539 -0.04764
 O1292 O 0.48759 -0.07430 -0.03660
 O1293 O 0.50646 -0.02538 -0.04497
 O1294 O 0.46490 -0.03008 -0.01504
 O1295 O 0.49530 0.02533 -0.05056
 O1296 O 0.45455 0.02069 -0.02215
 Zr1297 Zr 0.51962 0.01495 0.02330
 Zr1298 Zr 0.53358 0.00812 -0.04200
 Zr1299 Zr 0.45405 -0.00145 0.01423
 Zr1300 Zr 0.50355 -0.04605 -0.00830
 O1301 O 0.42500 0.02844 0.02620
 O1302 O 0.53739 -0.06726 -0.02534
 O1303 O 0.49228 -0.01892 0.02286
 O1304 O 0.53221 -0.01394 -0.00575
 O1305 O 0.52289 0.03699 -0.01278
 O1306 O 0.48104 0.03202 0.01662
 C1307 C 0.47135 -0.07130 -0.05663
 C1308 C 0.40891 -0.01657 -0.02715
 C1309 C 0.51060 -0.00745 -0.09814
 O1310 O 0.56453 -0.02057 -0.05203
 O1311 O 0.57096 0.02142 -0.02508
 O1312 O 0.56201 0.02257 0.02000
 C1313 C 0.57814 0.02486 -0.00050
 O1314 O 0.45514 0.06596 -0.04897
 Zr1315 Zr 0.48387 0.05251 -0.02005
 O1316 O 0.52685 0.05586 0.03550
 O1317 O 0.54825 0.04260 -0.06408
 O1318 O 0.50427 0.08074 -0.04615
 O1319 O 0.45401 0.07717 -0.00043
 O1320 O 0.50566 0.08115 0.00312
 C1321 C 0.52088 0.07874 0.02385
 O1322 O 0.54227 -0.00767 0.05188
 O1323 O 0.43755 -0.03631 0.03448
 O1324 O 0.50198 0.01635 0.06210
 O1325 O 0.45768 0.00257 0.05612
 O1326 O 0.48063 -0.07614 0.01344
 O1327 O 0.52680 -0.06144 0.02427
 C1328 C 0.47777 0.01021 0.07088
 H1329 H 0.45131 -0.04528 -0.01534
 H1330 H 0.55033 -0.02181 -0.00145
 H1331 H 0.47544 0.04503 0.03090
 H1332 H 0.49551 0.03517 -0.06801
 H1333 H 0.53349 -0.08726 -0.02367
 H1334 H 0.57745 -0.01096 -0.06444
 H1335 H 0.56551 0.03683 -0.07307
 H1336 H 0.49800 0.09951 -0.04135
 H1337 H 0.48751 -0.09448 0.00793
 H1338 H 0.42043 -0.03029 0.04358
 H1339 H 0.41195 0.01901 0.03859
 H1340 H 0.45891 0.09669 -0.00407
 H1341 H 0.53048 -0.08129 0.02149
 H1342 H 0.55037 0.00576 0.06454
 H1343 H 0.43760 0.00148 -0.09251
 H1344 H 0.45411 0.08634 -0.04881
 Zr1345 Zr 0.50417 0.53410 -0.02046
 O1346 O 0.52787 0.52516 -0.05525
 O1347 O 0.49813 0.57681 -0.02545
 O1348 O 0.48232 0.53949 -0.05617
 O1349 O 0.55986 0.53882 0.02220
 O1350 O 0.44350 0.51369 -0.05028
 O1351 O 0.54406 0.55023 -0.01931
 O1352 O 0.46993 0.58733 0.00978
 O1353 O 0.46316 0.53824 -0.00844
 O1354 O 0.50532 0.54830 0.01903
 O1355 O 0.48704 0.49452 -0.02470
 O1356 O 0.52721 0.50464 0.00089
 Zr1357 Zr 0.46807 0.48255 0.05066
 Zr1358 Zr 0.44656 0.49837 -0.01076
 Zr1359 Zr 0.52613 0.51828 0.04078
 Zr1360 Zr 0.46456 0.55051 0.03161
 O1361 O 0.56217 0.49498 0.04646
 O1362 O 0.42505 0.56541 0.02229
 O1363 O 0.48566 0.52199 0.05535
 O1364 O 0.44550 0.51186 0.02918
 O1365 O 0.46728 0.46824 0.01118
 O1366 O 0.50906 0.47870 0.03858
 C1367 C 0.48370 0.59379 -0.01147
 C1368 C 0.56284 0.54941 -0.00146
 C1369 C 0.45958 0.52926 -0.06437
 O1370 O 0.40895 0.51971 -0.01295
 O1371 O 0.41545 0.47262 0.00517
 O1372 O 0.43065 0.46103 0.04685
 C1373 C 0.41327 0.45958 0.02764
 O1374 O 0.53538 0.46607 -0.03474
 Zr1375 Zr 0.50811 0.46581 -0.00117
 O1376 O 0.47392 0.44010 0.05560
 O1377 O 0.43864 0.46593 -0.03791
 O1378 O 0.49222 0.43811 -0.02996
 O1379 O 0.54615 0.44881 0.01046
 O1380 O 0.49883 0.42807 0.01842
 C1381 C 0.48512 0.42233 0.03996
 O1382 O 0.44108 0.49057 0.08327
 O1383 O 0.53631 0.55269 0.06474
 O1384 O 0.48781 0.48125 0.08806
 O1385 O 0.52667 0.50700 0.08160
 O1386 O 0.48116 0.57937 0.05882
 O1387 O 0.43893 0.55466 0.06600
 C1388 C 0.50995 0.49282 0.09637
 H1389 H 0.51483 0.56626 0.02076
 H1390 H 0.42646 0.51306 0.03616
 H1391 H 0.51917 0.46548 0.04992
 H1392 H 0.48778 0.48853 -0.04366
 H1393 H 0.42389 0.58458 0.02902
 H1394 H 0.39760 0.50971 -0.02613
 H1395 H 0.41971 0.46849 -0.04447
 H1396 H 0.50352 0.42119 -0.02943
 H1397 H 0.46909 0.59575 0.05852
 H1398 H 0.55510 0.54955 0.07140
 H1399 H 0.57354 0.50534 0.05935
 H1400 H 0.54657 0.42952 0.00399
 H1401 H 0.44793 0.54460 0.08078
 H1402 H 0.43875 0.47309 0.09348
 H1403 H 0.53085 0.54270 -0.06522
 H1404 H 0.54137 0.44700 -0.03860
 Zr1405 Zr 0.02010 1.03325 0.46264
 O1406 O 0.04486 1.03165 0.42744
 O1407 O 0.00721 1.07467 0.46096
 O1408 O -0.00232 1.03721 0.42673
 O1409 O 0.07510 1.04130 0.50627
 O1410 O -0.03720 1.00590 0.43092
 O1411 O 0.05791 1.05435 0.46573
 O1412 O -0.02214 1.07806 0.49668
 O1413 O -0.02096 1.03034 0.47501
 O1414 O 0.01950 1.04405 0.50324
 O1415 O 0.00847 0.99217 0.45523
 O1416 O 0.04700 1.00570 0.48194
 Zr1417 Zr -0.00799 0.97132 0.52921
 Zr1418 Zr -0.03207 0.98892 0.46945
 Zr1419 Zr 0.04425 1.01556 0.52296
 Zr1420 Zr -0.02106 1.03952 0.51594
 O1421 O 0.08325 0.99732 0.52761
 O1422 O -0.06265 1.04857 0.50788
 O1423 O 0.00381 1.01228 0.53750
 O1424 O -0.03454 0.99900 0.51022
 O1425 O -0.00720 0.96011 0.48877
 O1426 O 0.03299 0.97449 0.51696
 C1427 C -0.00981 1.08809 0.47589
 C1428 C 0.07680 1.05416 0.48363
 C1429 C -0.02345 1.02427 0.41775
 O1430 O -0.07190 1.00581 0.46764
 O1431 O -0.06062 0.95956 0.48432
 O1432 O -0.04276 0.94604 0.52437
 C1433 C -0.06098 0.94490 0.50593
 O1434 O 0.05965 0.97209 0.44250
 Zr1435 Zr 0.03354 0.96500 0.47631
 O1436 O 0.00438 0.92999 0.53063
 O1437 O -0.03578 0.95699 0.44090
 O1438 O 0.02101 0.93731 0.44595
 O1439 O 0.07418 0.95342 0.48576
 O1440 O 0.03147 0.92520 0.49334
 C1441 C 0.01930 0.91571 0.51447
 O1442 O -0.03487 0.97338 0.56285
 O1443 O 0.04922 1.04928 0.54930
 O1444 O 0.01280 0.96803 0.56574
 O1445 O 0.04637 1.00091 0.56302
 O1446 O -0.00830 1.06946 0.54413
 O1447 O -0.04331 1.03423 0.55256
 C1448 C 0.03275 0.98193 0.57564
 H1449 H 0.02636 1.06302 0.50626
 H1450 H -0.05349 0.99718 0.51734
 H1451 H 0.04516 0.96202 0.52707
 H1452 H 0.00998 0.98772 0.43590
 H1453 H -0.06666 1.06697 0.51552
 H1454 H -0.08202 0.99500 0.45409
 H1455 H -0.05490 0.95742 0.43442
 H1456 H 0.03474 0.92234 0.44501
 H1457 H -0.02252 1.08398 0.54479
 H1458 H 0.06813 1.04821 0.55623
 H1459 H 0.09287 1.00807 0.54153
 H1460 H 0.07756 0.93521 0.47744
 H1461 H -0.05422 1.05097 0.55628
 H1462 H -0.03502 0.95494 0.57157
 H1463 H 0.04496 1.05034 0.41924
 H1464 H 0.06766 0.95439 0.43654
 Zr1465 Zr 0.72005 0.26451 0.21627
 O1466 O 0.72451 0.28808 0.18057
 O1467 O 0.67804 0.25465 0.21496
 O1468 O 0.71469 0.24104 0.18112
 O1469 O 0.71392 0.32098 0.25870
 O1470 O 0.74291 0.20404 0.18610
 O1471 O 0.70116 0.30336 0.21824
 O1472 O 0.67146 0.22686 0.25153
 O1473 O 0.71970 0.22354 0.22953
 O1474 O 0.70861 0.26590 0.25682
 O1475 O 0.76006 0.25017 0.20917
 O1476 O 0.74879 0.29067 0.23495
 Zr1477 Zr 0.77826 0.23510 0.28384
 Zr1478 Zr 0.76016 0.20983 0.22435
 Zr1479 Zr 0.73814 0.28981 0.27596
 Zr1480 Zr 0.70985 0.22537 0.27040
 O1481 O 0.75887 0.32805 0.27896
 O1482 O 0.69798 0.18412 0.26249
 O1483 O 0.73820 0.24951 0.29147
 O1484 O 0.74931 0.20941 0.26520
 O1485 O 0.78995 0.23377 0.24335
 O1486 O 0.77832 0.27594 0.27053
 C1487 C 0.66297 0.23949 0.23049
 C1488 C 0.70159 0.32251 0.23603
 C1489 C 0.72582 0.21861 0.17266
 O1490 O 0.74148 0.17041 0.22407
 O1491 O 0.78811 0.18073 0.23960
 O1492 O 0.80011 0.19806 0.28037
 C1493 C 0.80118 0.17965 0.26189
 O1494 O 0.78315 0.30086 0.19613
 Zr1495 Zr 0.78830 0.27445 0.22982
 O1496 O 0.82045 0.24445 0.28468
 O1497 O 0.79164 0.20365 0.19545
 O1498 O 0.81475 0.26019 0.19882
 O1499 O 0.80371 0.31415 0.23925
 O1500 O 0.82757 0.26849 0.24579
 C1501 C 0.83603 0.25657 0.26720
 O1502 O 0.77402 0.20965 0.31833
 O1503 O 0.70489 0.29783 0.30243
 O1504 O 0.78153 0.25700 0.32015
 O1505 O 0.75179 0.29289 0.31595
 O1506 O 0.68091 0.24060 0.29871
 O1507 O 0.71292 0.20331 0.30719
 C1508 C 0.76884 0.27826 0.32939
 H1509 H 0.69025 0.27402 0.25978
 H1510 H 0.74969 0.19050 0.27271
 H1511 H 0.79148 0.28757 0.28043
 H1512 H 0.76477 0.25074 0.18980
 H1513 H 0.67924 0.18146 0.26997
 H1514 H 0.75164 0.15933 0.21061
 H1515 H 0.79013 0.18425 0.18946
 H1516 H 0.83050 0.27313 0.19756
 H1517 H 0.66546 0.22728 0.29966
 H1518 H 0.70692 0.31716 0.30847
 H1519 H 0.74857 0.33909 0.29234
 H1520 H 0.82211 0.31583 0.23075
 H1521 H 0.69559 0.19319 0.31079
 H1522 H 0.79216 0.20886 0.32711
 H1523 H 0.70623 0.28913 0.17207
 H1524 H 0.80119 0.30835 0.19033
 Zr1525 Zr 0.75773 0.72147 0.70905
 O1526 O 0.73552 0.69482 0.68360
 O1527 O 0.79605 0.72268 0.68968
 O1528 O 0.75401 0.73841 0.67035
 O1529 O 0.77276 0.67174 0.75688
 O1530 O 0.73883 0.78225 0.67740
 O1531 O 0.77095 0.68027 0.71181
 O1532 O 0.82074 0.75325 0.71445
 O1533 O 0.76975 0.76266 0.71293
 O1534 O 0.78371 0.72293 0.74206
 O1535 O 0.72115 0.74380 0.71338
 O1536 O 0.73454 0.70522 0.74145
 Zr1537 Zr 0.73601 0.77235 0.78501
 Zr1538 Zr 0.73352 0.78472 0.71936
 Zr1539 Zr 0.76025 0.70905 0.77480
 Zr1540 Zr 0.79442 0.76409 0.74675
 O1541 O 0.73695 0.67581 0.79078
 O1542 O 0.80895 0.80098 0.72843
 O1543 O 0.77286 0.74999 0.78103
 O1544 O 0.75927 0.78807 0.75259
 O1545 O 0.70983 0.77103 0.75209
 O1546 O 0.72409 0.73117 0.78083
 C1547 C 0.81762 0.73716 0.69420
 C1548 C 0.77552 0.66453 0.73214
 C1549 C 0.74690 0.76249 0.66213
 O1550 O 0.75605 0.81969 0.70612
 O1551 O 0.71669 0.82034 0.73709
 O1552 O 0.72153 0.81314 0.78208
 C1553 C 0.71472 0.82797 0.76174
 O1554 O 0.68611 0.69948 0.71935
 Zr1555 Zr 0.69943 0.72961 0.74721
 O1556 O 0.69672 0.77341 0.80248
 O1557 O 0.69571 0.79312 0.70071
 O1558 O 0.66612 0.74723 0.72636
 O1559 O 0.68257 0.69517 0.76804
 O1560 O 0.67147 0.74469 0.77621
 C1561 C 0.67418 0.76154 0.79590
 O1562 O 0.75786 0.79966 0.81011
 O1563 O 0.79904 0.69916 0.79063
 O1564 O 0.74139 0.75610 0.82384
 O1565 O 0.75886 0.71306 0.81702
 O1566 O 0.82962 0.74572 0.76369
 O1567 O 0.80938 0.78961 0.77795
 C1568 C 0.75040 0.73275 0.83226
 H1569 H 0.80039 0.71162 0.73960
 H1570 H 0.76479 0.80743 0.75577
 H1571 H 0.71375 0.72392 0.79656
 H1572 H 0.70963 0.74199 0.69725
 H1573 H 0.82925 0.80026 0.72821
 H1574 H 0.74362 0.83068 0.69475
 H1575 H 0.69799 0.81090 0.69106
 H1576 H 0.64909 0.73861 0.73353
 H1577 H 0.84587 0.75550 0.75617
 H1578 H 0.79677 0.68144 0.80038
 H1579 H 0.74955 0.66471 0.80188
 H1580 H 0.66235 0.69657 0.76706
 H1581 H 0.82833 0.79562 0.77350
 H1582 H 0.74494 0.80605 0.82428
 H1583 H 0.74832 0.68862 0.66924
 H1584 H 0.66601 0.69703 0.72108
 Zr1585 Zr 0.22494 0.22977 0.78417
 O1586 O 0.22727 0.20511 0.81927
 O1587 O 0.18371 0.24170 0.78564
 O1588 O 0.21881 0.25282 0.81945
 O1589 O 0.21758 0.17449 0.74059
 O1590 O 0.24925 0.28854 0.81590
 O1591 O 0.20373 0.19216 0.78093
 O1592 O 0.17985 0.27104 0.75001
 O1593 O 0.22718 0.27096 0.77187
 O1594 O 0.21472 0.22985 0.74355
 O1595 O 0.26528 0.24228 0.79221
 O1596 O 0.25290 0.20283 0.76523
 Zr1597 Zr 0.28664 0.25841 0.71816
 Zr1598 Zr 0.26799 0.28291 0.77794
 Zr1599 Zr 0.24368 0.20515 0.72417
 Zr1600 Zr 0.21853 0.27059 0.73093
 O1601 O 0.26245 0.16611 0.72026
 O1602 O 0.20866 0.31229 0.73898
 O1603 O 0.24629 0.24576 0.70961
 O1604 O 0.25845 0.28481 0.73706
 O1605 O 0.29727 0.25822 0.75869
 O1606 O 0.28418 0.21728 0.73047
 C1607 C 0.17018 0.25841 0.77078
 C1608 C 0.20410 0.17320 0.76295
 C1609 C 0.23050 0.27470 0.82846
 O1610 O 0.25127 0.32304 0.77919
 O1611 O 0.29747 0.31154 0.76356
 O1612 O 0.31009 0.29449 0.72264
 C1613 C 0.31110 0.31271 0.74128
 O1614 O 0.28556 0.19102 0.80484
 Zr1615 Zr 0.29292 0.21730 0.77126
 O1616 O 0.32793 0.24662 0.71712
 O1617 O 0.29875 0.28699 0.80725
 O1618 O 0.31959 0.23046 0.80204
 O1619 O 0.30581 0.17675 0.76184
 O1620 O 0.33267 0.22033 0.75482
 C1621 C 0.34215 0.23232 0.73364
 O1622 O 0.28509 0.28490 0.68427
 O1623 O 0.21098 0.19930 0.69722
 O1624 O 0.29020 0.23759 0.68135
 O1625 O 0.25903 0.20247 0.68438
 O1626 O 0.18930 0.25723 0.70256
 O1627 O 0.22422 0.29269 0.69435
 C1628 C 0.27708 0.21698 0.67149
 H1629 H 0.19602 0.22268 0.74032
 H1630 H 0.25998 0.30385 0.72996
 H1631 H 0.29695 0.20522 0.72042
 H1632 H 0.26917 0.24111 0.81164
 H1633 H 0.19043 0.31591 0.73117
 H1634 H 0.26148 0.33332 0.79305
 H1635 H 0.29786 0.30621 0.81384
 H1636 H 0.33464 0.21688 0.80315
 H1637 H 0.17478 0.27142 0.70177
 H1638 H 0.21233 0.18011 0.69062
 H1639 H 0.25201 0.15591 0.70652
 H1640 H 0.32372 0.17381 0.77056
 H1641 H 0.20756 0.30353 0.69052
 H1642 H 0.30357 0.28514 0.67570
 H1643 H 0.20872 0.20460 0.82766
 H1644 H 0.30315 0.18331 0.81106
 Zr1645 Zr 0.27685 0.76665 0.28640
 O1646 O 0.27391 0.79144 0.32121
 O1647 O 0.31806 0.75433 0.28790
 O1648 O 0.28093 0.74357 0.32212
 O1649 O 0.28622 0.82239 0.24292
 O1650 O 0.24957 0.70873 0.31875
 O1651 O 0.29938 0.80358 0.28277
 O1652 O 0.32274 0.72562 0.25202
 O1653 O 0.27444 0.72546 0.27436
 O1654 O 0.28823 0.76656 0.24585
 O1655 O 0.23596 0.75482 0.29389
 O1656 O 0.24987 0.79416 0.26722
 Zr1657 Zr 0.21672 0.73920 0.21981
 Zr1658 Zr 0.23316 0.71419 0.27997
 Zr1659 Zr 0.26039 0.79195 0.22628
 Zr1660 Zr 0.28426 0.72589 0.23344
 O1661 O 0.24193 0.83107 0.22200
 O1662 O 0.29338 0.68422 0.24253
 O1663 O 0.25761 0.75134 0.21194
 O1664 O 0.24389 0.71227 0.23913
 O1665 O 0.20487 0.73942 0.26028
 O1666 O 0.21946 0.78032 0.23185
 C1667 C 0.33210 0.73823 0.27262
 C1668 C 0.29984 0.82290 0.26494
 C1669 C 0.26805 0.72230 0.33150
 O1670 O 0.24990 0.67411 0.28213
 O1671 O 0.20449 0.68544 0.26500
 O1672 O 0.19150 0.70418 0.22504
 C1673 C 0.19026 0.68542 0.24339
 O1674 O 0.21537 0.80603 0.30642
 Zr1675 Zr 0.20933 0.78027 0.27257
 O1676 O 0.17580 0.75238 0.21760
 O1677 O 0.20077 0.71017 0.30834
 O1678 O 0.18113 0.76720 0.30279
 O1679 O 0.19792 0.82123 0.26293
 O1680 O 0.17022 0.77833 0.25532
 C1681 C 0.16125 0.76692 0.23390
 O1682 O 0.21837 0.71198 0.18667
 O1683 O 0.29424 0.79781 0.19985
 O1684 O 0.21673 0.75927 0.18219
 O1685 O 0.24729 0.79476 0.18612
 O1686 O 0.31417 0.73851 0.20465
 O1687 O 0.27935 0.70368 0.19711
 C1688 C 0.23066 0.77974 0.17255
 H1689 H 0.30708 0.77350 0.24256
 H1690 H 0.24226 0.69329 0.23210
 H1691 H 0.20737 0.79259 0.22143
 H1692 H 0.23128 0.75609 0.31323
 H1693 H 0.31182 0.68029 0.23497
 H1694 H 0.23898 0.66386 0.29582
 H1695 H 0.20123 0.69094 0.31509
 H1696 H 0.16616 0.78092 0.30357
 H1697 H 0.32842 0.72403 0.20386
 H1698 H 0.29338 0.81710 0.19330
 H1699 H 0.25292 0.84128 0.20836
 H1700 H 0.17958 0.82448 0.27105
 H1701 H 0.29555 0.69184 0.19401
 H1702 H 0.20021 0.71245 0.17789
 H1703 H 0.29223 0.79166 0.32966
 H1704 H 0.19763 0.81411 0.31209
 Zr1705 Zr 0.21732 0.75980 0.72237
 O1706 O 0.22870 0.78243 0.68746
 O1707 O 0.17401 0.75991 0.71873
 O1708 O 0.20981 0.73902 0.68601
 O1709 O 0.22093 0.81538 0.76631
 O1710 O 0.22941 0.69679 0.69133
 O1711 O 0.20837 0.80210 0.72426
 O1712 O 0.15957 0.73439 0.75477
 O1713 O 0.20689 0.71971 0.73439
 O1714 O 0.20402 0.76305 0.76224
 O1715 O 0.25365 0.73695 0.71756
 O1716 O 0.25016 0.77806 0.74346
 Zr1717 Zr 0.26219 0.71611 0.79279
 Zr1718 Zr 0.24351 0.69728 0.73122
 Zr1719 Zr 0.23683 0.77912 0.78365
 Zr1720 Zr 0.19517 0.72304 0.77481
 O1721 O 0.26535 0.81169 0.78824
 O1722 O 0.17435 0.68618 0.76447
 O1723 O 0.22646 0.73972 0.79829
 O1724 O 0.22982 0.69832 0.77129
 O1725 O 0.27638 0.71300 0.75310
 O1726 O 0.27286 0.75609 0.78066
 C1727 C 0.15515 0.74890 0.73375
 C1728 C 0.21134 0.82021 0.74279
 C1729 C 0.21712 0.71518 0.67726
 O1730 O 0.21628 0.66345 0.72811
 O1731 O 0.26331 0.66240 0.74722
 O1732 O 0.27293 0.67424 0.79045
 C1733 C 0.27237 0.65711 0.77084
 O1734 O 0.28964 0.78036 0.70739
 Zr1735 Zr 0.28531 0.75321 0.74078
 O1736 O 0.30485 0.71302 0.79526
 O1737 O 0.27475 0.68430 0.70434
 O1738 O 0.30985 0.73283 0.71165
 O1739 O 0.30800 0.78861 0.75212
 O1740 O 0.32102 0.73870 0.75995
 C1741 C 0.32428 0.72266 0.78030
 O1742 O 0.24950 0.69306 0.82699
 O1743 O 0.20504 0.79400 0.80890
 O1744 O 0.26948 0.73654 0.82943
 O1745 O 0.24890 0.77836 0.82406
 O1746 O 0.16897 0.74369 0.80234
 O1747 O 0.19103 0.69976 0.81089
 C1748 C 0.26171 0.76031 0.83808
 H1749 H 0.18796 0.77524 0.76452
 H1750 H 0.22503 0.67967 0.77802
 H1751 H 0.28770 0.76411 0.79160
 H1752 H 0.25988 0.73692 0.69858
 H1753 H 0.15524 0.68770 0.77124
 H1754 H 0.22478 0.65049 0.71517
 H1755 H 0.26939 0.66582 0.69773
 H1756 H 0.32834 0.74136 0.71196
 H1757 H 0.15105 0.73398 0.80250
 H1758 H 0.21110 0.81221 0.81563
 H1759 H 0.25730 0.82448 0.80160
 H1760 H 0.32703 0.78614 0.74539
 H1761 H 0.17182 0.69339 0.81304
 H1762 H 0.26624 0.68741 0.83669
 H1763 H 0.21162 0.78786 0.67820
 H1764 H 0.30933 0.78281 0.70295
 Zr1765 Zr 0.25777 0.22591 0.20941
 O1766 O 0.23398 0.19987 0.18474
 O1767 O 0.29587 0.22467 0.18959
 O1768 O 0.25274 0.24271 0.17071
 O1769 O 0.27373 0.17586 0.25706
 O1770 O 0.23806 0.28666 0.17817
 O1771 O 0.26976 0.18430 0.21213
 O1772 O 0.32246 0.25433 0.21351
 O1773 O 0.27100 0.26687 0.21239
 O1774 O 0.28492 0.22695 0.24152
 O1775 O 0.22195 0.24918 0.21514
 O1776 O 0.23547 0.21034 0.24274
 Zr1777 Zr 0.24022 0.27766 0.28582
 Zr1778 Zr 0.23551 0.28988 0.22030
 Zr1779 Zr 0.26255 0.21368 0.27511
 Zr1780 Zr 0.29687 0.26787 0.24538
 O1781 O 0.23895 0.18119 0.29209
 O1782 O 0.31122 0.30353 0.22478
 O1783 O 0.27634 0.25439 0.28051
 O1784 O 0.26256 0.29274 0.25252
 O1785 O 0.21275 0.27684 0.25394
 O1786 O 0.22724 0.23671 0.28239
 C1787 C 0.31853 0.23736 0.19409
 C1788 C 0.27512 0.16851 0.23224
 C1789 C 0.24499 0.26666 0.16265
 O1790 O 0.25856 0.32387 0.20557
 O1791 O 0.22078 0.32639 0.23840
 O1792 O 0.22529 0.31827 0.28327
 C1793 C 0.21869 0.33360 0.26321
 O1794 O 0.18593 0.20595 0.22242
 Zr1795 Zr 0.20121 0.23563 0.24977
 O1796 O 0.20200 0.27902 0.30543
 O1797 O 0.19700 0.29945 0.20362
 O1798 O 0.16745 0.25414 0.23038
 O1799 O 0.18444 0.20151 0.27117
 O1800 O 0.17491 0.25121 0.28002
 C1801 C 0.17895 0.26759 0.29987
 O1802 O 0.26376 0.30507 0.30930
 O1803 O 0.30164 0.20278 0.28959
 O1804 O 0.24718 0.26186 0.32451
 O1805 O 0.26319 0.21831 0.31728
 O1806 O 0.33210 0.24965 0.26242
 O1807 O 0.31364 0.29423 0.27500
 C1808 C 0.25607 0.23839 0.33270
 H1809 H 0.30119 0.21511 0.23887
 H1810 H 0.26857 0.31201 0.25540
 H1811 H 0.21747 0.22972 0.29858
 H1812 H 0.20968 0.24756 0.19953
 H1813 H 0.33147 0.30229 0.22360
 H1814 H 0.24597 0.33509 0.19457
 H1815 H 0.19935 0.31706 0.19368
 H1816 H 0.15053 0.24596 0.23829
 H1817 H 0.34840 0.25887 0.25433
 H1818 H 0.29921 0.18532 0.29975
 H1819 H 0.25161 0.16998 0.30301
 H1820 H 0.16423 0.20338 0.27103
 H1821 H 0.33210 0.30050 0.26911
 H1822 H 0.25167 0.31189 0.32396
 H1823 H 0.24621 0.19301 0.17020
 H1824 H 0.16586 0.20401 0.22497
 Zr1825 Zr 0.73938 0.72383 0.28463
 O1826 O 0.76397 0.69934 0.31001
 O1827 O 0.70069 0.71931 0.30285
 O1828 O 0.74046 0.74010 0.32366
 O1829 O 0.72748 0.67428 0.23597
 O1830 O 0.75466 0.78458 0.31746
 O1831 O 0.73026 0.68167 0.28111
 O1832 O 0.67392 0.74891 0.27910
 O1833 O 0.72431 0.76399 0.28179
 O1834 O 0.71331 0.72412 0.25166
 O1835 O 0.77423 0.74915 0.28060
 O1836 O 0.76356 0.71045 0.25186
 Zr1837 Zr 0.75667 0.77861 0.20977
 Zr1838 Zr 0.75890 0.78906 0.27561
 Zr1839 Zr 0.73747 0.71306 0.21871
 Zr1840 Zr 0.69953 0.76439 0.24803
 O1841 O 0.76326 0.68242 0.20216
 O1842 O 0.68264 0.79873 0.26844
 O1843 O 0.72175 0.75299 0.21342
 O1844 O 0.73272 0.79146 0.24264
 O1845 O 0.78317 0.77837 0.24246
 O1846 O 0.77171 0.73842 0.21288
 C1847 C 0.67785 0.73138 0.29812
 C1848 C 0.72611 0.66619 0.26064
 C1849 C 0.74688 0.76418 0.33230
 O1850 O 0.73409 0.82169 0.28980
 O1851 O 0.77350 0.82628 0.25865
 O1852 O 0.76915 0.82010 0.21351
 C1853 C 0.77538 0.83465 0.23415
 O1854 O 0.81266 0.70815 0.27330
 Zr1855 Zr 0.79667 0.73789 0.24631
 O1856 O 0.79531 0.78340 0.19174
 O1857 O 0.79614 0.79998 0.29426
 O1858 O 0.82877 0.75761 0.26730
 O1859 O 0.81593 0.70570 0.22456
 O1860 O 0.82291 0.75640 0.21735
 C1861 C 0.81875 0.77341 0.19791
 O1862 O 0.73254 0.80516 0.18597
 O1863 O 0.69962 0.70020 0.20255
 O1864 O 0.75157 0.76344 0.17063
 O1865 O 0.73828 0.71864 0.17670
 O1866 O 0.66568 0.74451 0.22995
 O1867 O 0.68265 0.79029 0.21802
 C1868 C 0.74453 0.73956 0.16177
 H1869 H 0.69760 0.71126 0.25357
 H1870 H 0.72590 0.81045 0.23996
 H1871 H 0.78238 0.73258 0.19689
 H1872 H 0.78591 0.74778 0.29666
 H1873 H 0.66246 0.79629 0.26881
 H1874 H 0.74582 0.83321 0.30141
 H1875 H 0.79269 0.81723 0.30432
 H1876 H 0.84632 0.75087 0.25963
 H1877 H 0.64877 0.75270 0.23767
 H1878 H 0.70331 0.68308 0.19237
 H1879 H 0.75157 0.67066 0.19074
 H1880 H 0.83598 0.70898 0.22521
 H1881 H 0.66367 0.79529 0.22323
 H1882 H 0.74472 0.81307 0.17179
 H1883 H 0.75172 0.69125 0.32403
 H1884 H 0.83286 0.70749 0.27127
 Zr1885 Zr 0.78325 0.26065 0.78656
 O1886 O 0.77412 0.28551 0.82037
 O1887 O 0.82446 0.25047 0.79386
 O1888 O 0.78462 0.23866 0.82287
 O1889 O 0.79409 0.31637 0.74351
 O1890 O 0.75709 0.20108 0.81684
 O1891 O 0.80256 0.29946 0.78542
 O1892 O 0.83426 0.22006 0.76040
 O1893 O 0.78507 0.21927 0.77508
 O1894 O 0.79973 0.26097 0.74770
 O1895 O 0.74276 0.24581 0.78970
 O1896 O 0.75696 0.28578 0.76376
 Zr1897 Zr 0.73443 0.22817 0.71409
 Zr1898 Zr 0.74448 0.20488 0.77639
 Zr1899 Zr 0.77273 0.28402 0.72436
 Zr1900 Zr 0.79997 0.21995 0.73562
 O1901 O 0.75231 0.32170 0.71732
 O1902 O 0.81057 0.17849 0.74410
 O1903 O 0.77482 0.24323 0.71046
 O1904 O 0.76046 0.20338 0.73710
 O1905 O 0.71757 0.22778 0.75288
 O1906 O 0.73230 0.26942 0.72557
 C1907 C 0.84031 0.23326 0.78177
 C1908 C 0.80376 0.31850 0.76739
 C1909 C 0.77272 0.21649 0.83122
 O1910 O 0.76310 0.16587 0.78075
 O1911 O 0.71868 0.17471 0.75879
 O1912 O 0.71284 0.19084 0.71618
 C1913 C 0.70922 0.17270 0.73477
 O1914 O 0.71862 0.29742 0.79708
 Zr1915 Zr 0.71726 0.26889 0.76486
 O1916 O 0.69305 0.23704 0.70733
 O1917 O 0.70955 0.19937 0.80142
 O1918 O 0.68776 0.25692 0.79434
 O1919 O 0.70159 0.30691 0.75071
 O1920 O 0.68024 0.25878 0.74593
 C1921 C 0.67500 0.24706 0.72348
 O1922 O 0.74290 0.20157 0.68139
 O1923 O 0.80903 0.29189 0.70191
 O1924 O 0.73614 0.24815 0.67662
 O1925 O 0.76375 0.28562 0.68285
 O1926 O 0.83351 0.23498 0.71228
 O1927 O 0.80104 0.19857 0.69848
 C1928 C 0.74929 0.26952 0.66802
 H1929 H 0.81840 0.26905 0.74694
 H1930 H 0.76113 0.18426 0.73025
 H1931 H 0.72039 0.28027 0.71359
 H1932 H 0.73578 0.24706 0.80839
 H1933 H 0.82994 0.17594 0.73844
 H1934 H 0.75127 0.15514 0.79332
 H1935 H 0.71044 0.18032 0.80858
 H1936 H 0.67195 0.26955 0.79274
 H1937 H 0.84842 0.22125 0.71357
 H1938 H 0.80754 0.31091 0.69477
 H1939 H 0.76421 0.33256 0.70494
 H1940 H 0.68222 0.30792 0.75684
 H1941 H 0.81891 0.18921 0.69631
 H1942 H 0.72605 0.20014 0.67047
 H1943 H 0.79106 0.28712 0.83112
 H1944 H 0.70043 0.30611 0.79946
 N1945 N 0.50461 0.98388 0.35065
 N1946 N 0.49250 0.98631 0.32716
 C1947 C 0.46794 0.99863 0.33077
 C1948 C 0.46440 1.00417 0.35784
 C1949 C 0.48803 0.99451 0.36969
 H1950 H 0.44717 1.01399 0.36770
 H1951 H 0.52385 0.97503 0.35348
 H1952 H 0.50091 0.97907 0.30918
 N1953 N -0.00175 0.51570 0.87361
 N1954 N -0.01265 0.51672 0.84793
 C1955 C -0.04014 0.51958 0.85032
 C1956 C -0.04703 0.52120 0.87762
 C1957 C -0.02255 0.51838 0.89137
 H1958 H -0.06723 0.52291 0.88662
 H1959 H 0.01894 0.51256 0.87778
 H1960 H -0.00097 0.51350 0.83058
 N1961 N 0.01934 0.04195 0.87418
 N1962 N 0.02835 0.03848 0.84930
 C1963 C 0.04800 0.01897 0.84919
 C1964 C 0.05169 0.00985 0.87537
 C1965 C 0.03311 0.02487 0.89051
 H1966 H 0.06528 -0.00611 0.88244
 H1967 H 0.00376 0.05556 0.87971
 H1968 H 0.02109 0.04958 0.83288
 N1969 N 0.50876 0.50608 0.38267
 N1970 N 0.51949 0.50282 0.35844
 C1971 C 0.54701 0.50360 0.36022
 C1972 C 0.55419 0.50731 0.38680
 C1973 C 0.52926 0.50864 0.40037
 H1974 H 0.57457 0.50836 0.39509
 H1975 H 0.48776 0.50588 0.38699
 H1976 H 0.50808 0.50031 0.34100
 N1977 N 0.49969 0.47890 0.14367
 N1978 N 0.51112 0.48161 0.16744
 C1979 C 0.53541 0.49474 0.16433
 C1980 C 0.53956 0.50057 0.13732
 C1981 C 0.51643 0.49023 0.12497
 H1982 H 0.55671 0.51123 0.12793
 H1983 H 0.48063 0.46967 0.14048
 H1984 H 0.50247 0.47415 0.18531
 N1985 N 0.03251 0.95144 0.61573
 N1986 N 0.04286 0.95098 0.64007
 C1987 C 0.05734 0.97433 0.64388
 C1988 C 0.05632 0.99038 0.62073
 C1989 C 0.04042 0.97493 0.60332
 H1990 H 0.06598 1.01017 0.61699
 H1991 H 0.02044 0.93571 0.60775
 H1992 H 0.03977 0.93496 0.65385
 N1993 N 0.00071 0.49290 0.63549
 N1994 N -0.01077 0.49161 0.65964
 C1995 C -0.03800 0.49538 0.65726
 C1996 C -0.04416 0.49895 0.63043
 C1997 C -0.01906 0.49715 0.61732
 H1998 H -0.06408 0.50226 0.62166
 H1999 H 0.02166 0.49058 0.63161
 H2000 H 0.00001 0.48863 0.67740
 N2001 N 0.48876 0.02705 0.11661
 N2002 N 0.47695 0.02759 0.14059
 C2003 C 0.45300 0.01368 0.13958
 C2004 C 0.44934 0.00390 0.11377
 C2005 C 0.47244 0.01303 0.09981
 H2006 H 0.43197 -0.00739 0.10606
 H2007 H 0.50735 0.03675 0.11179
 H2008 H 0.48524 0.03737 0.15729
 N2009 N 0.38817 0.42092 0.05010
 N2010 N 0.36558 0.40638 0.04640
 C2011 C 0.35202 0.41704 0.02538
 C2012 C 0.36672 0.43934 0.01516
 C2013 C 0.38962 0.44097 0.03135
 H2014 H 0.36183 0.45207 -0.00201
 H2015 H 0.40259 0.41670 0.06487
 H2016 H 0.35956 0.38955 0.05825
 N2017 N -0.08334 0.90449 0.52800
 N2018 N -0.10723 0.89162 0.52771
 C2019 C -0.12369 0.90431 0.51001
 C2020 C -0.10943 0.92622 0.49831
 C2021 C -0.08389 0.92551 0.51029
 H2022 H -0.11666 0.94078 0.48350
 H2023 H -0.06702 0.89897 0.54027
 H2024 H -0.11225 0.87483 0.54003
 N2025 N -0.09873 0.07733 0.96008
 N2026 N -0.12601 0.08547 0.95980
 C2027 C -0.13678 0.08131 0.98458
 C2028 C -0.11655 0.07038 1.00115
 C2029 C -0.09329 0.06754 0.98478
 H2030 H -0.11894 0.06361 1.02178
 H2031 H -0.08583 0.07716 0.94319
 H2032 H -0.13548 0.09419 0.94314
 N2033 N 0.39418 0.55806 0.46715
 N2034 N 0.36946 0.56879 0.46672
 C2035 C 0.36040 0.57221 0.49214
 C2036 C 0.38059 0.56324 0.50971
 C2037 C 0.40164 0.55423 0.49283
 H2038 H 0.37996 0.56306 0.53142
 H2039 H 0.40570 0.55349 0.44994
 H2040 H 0.35932 0.57412 0.44912
 N2041 N 0.12583 0.52675 0.54358
 N2042 N 0.15042 0.53816 0.54210
 C2043 C 0.15247 0.55283 0.51911
 C2044 C 0.12814 0.55036 0.50516
 C2045 C 0.11186 0.53360 0.52141
 H2046 H 0.12281 0.55990 0.48627
 H2047 H 0.11877 0.51459 0.55960
 H2048 H 0.16515 0.53659 0.55707
 N2049 N 0.62089 0.01936 0.02535
 N2050 N 0.64604 0.02951 0.02541
 C2051 C 0.64864 0.04808 0.00534
 C2052 C 0.62404 0.04949 -0.00842
 C2053 C 0.60706 0.03088 0.00500
 H2054 H 0.61895 0.06280 -0.02510
 H2055 H 0.61332 0.00490 0.03919
 H2056 H 0.66077 0.02454 0.03966
 N2057 N 0.62938 0.95095 0.43820
 N2058 N 0.65383 0.93972 0.44061
 C2059 C 0.65999 0.93787 0.46690
 C2060 C 0.63832 0.94856 0.48188
 C2061 C 0.61939 0.95667 0.46284
 H2062 H 0.63648 0.95007 0.50349
 H2063 H 0.61976 0.95455 0.41990
 H2064 H 0.66565 0.93278 0.42441
 N2065 N 0.11372 0.47056 0.95590
 N2066 N 0.13796 0.45863 0.95591
 C2067 C 0.14329 0.44952 0.98094
 C2068 C 0.12122 0.45618 0.99765
 C2069 C 0.10295 0.46945 0.98087
 H2070 H 0.11841 0.45143 1.01874
 H2071 H 0.10456 0.47883 0.93884
 H2072 H 0.14994 0.45601 0.93863
 N2073 N -0.05325 0.40756 0.42192
 N2074 N -0.05585 0.38309 0.41074
 C2075 C -0.03619 0.36631 0.42031
 C2076 C -0.02059 0.38089 0.43862
 C2077 C -0.03200 0.40690 0.43887
 H2078 H -0.00285 0.37404 0.44960
 H2079 H -0.06591 0.42436 0.41794
 H2080 H -0.07094 0.37834 0.39682
 N2081 N 0.44404 -0.09543 -0.09109
 N2082 N 0.44185 -0.12041 -0.10122
 C2083 C 0.45922 -0.13736 -0.08830
 C2084 C 0.47296 -0.12226 -0.06891
 C2085 C 0.46281 -0.09583 -0.07153
 H2086 H 0.48870 -0.12908 -0.05533
 H2087 H 0.43314 -0.07834 -0.09790
 H2088 H 0.42927 -0.12515 -0.11736
 N2089 N -0.02183 -0.13456 1.00944
 N2090 N -0.01731 -0.15916 1.01996
 C2091 C -0.00138 -0.15621 1.04176
 C2092 C 0.00446 -0.12848 1.04510
 C2093 C -0.00900 -0.11554 1.02441
 H2094 H 0.01656 -0.11882 1.06053
 H2095 H -0.03365 -0.13098 0.99245
 H2096 H -0.02584 -0.17739 1.01268
 N2097 N 0.53416 0.40830 0.59995
 N2098 N 0.53195 0.38391 0.61151
 C2099 C 0.51629 0.36755 0.59608
 C2100 C 0.50825 0.38222 0.57353
 C2101 C 0.51998 0.40802 0.57693
 H2102 H 0.49543 0.37532 0.55728
 H2103 H 0.54514 0.42484 0.60790
 H2104 H 0.54148 0.37866 0.62945
 N2105 N 0.51091 1.14183 0.50192
 N2106 N 0.50939 1.16528 0.51502
 C2107 C 0.50251 1.15983 0.54073
 C2108 C 0.49901 1.13155 0.54413
 C2109 C 0.50499 1.12097 0.51899
 H2110 H 0.49492 1.12028 0.56254
 H2111 H 0.51663 1.14023 0.48171
 H2112 H 0.51357 1.18454 0.50644
 N2113 N -0.02938 0.59275 1.10545
 N2114 N -0.02718 0.61645 1.11825
 C2115 C -0.02107 0.63631 1.10018
 C2116 C -0.01902 0.62493 1.07489
 C2117 C -0.02427 0.59725 1.07915
 H2118 H -0.01330 0.63514 1.05628
 H2119 H -0.03315 0.57376 1.11477
 H2120 H -0.02952 0.61883 1.13897
 N2121 N 0.46998 0.64243 -0.00498
 N2122 N 0.47140 0.66603 -0.01814
 C2123 C 0.48515 0.66207 -0.04141
 C2124 C 0.49307 0.63464 -0.04303
 C2125 C 0.48275 0.62290 -0.01958
 H2126 H 0.50356 0.62444 -0.05944
 H2127 H 0.46006 0.63979 0.01355
 H2128 H 0.46285 0.68440 -0.01121
 N2129 N -0.03230 1.13136 0.48451
 N2130 N -0.03320 1.15729 0.47255
 C2131 C -0.01689 1.15692 0.45041
 C2132 C -0.00526 1.13070 0.44807
 C2133 C -0.01544 1.11551 0.46968
 H2134 H 0.00873 1.12329 0.43275
 H2135 H -0.04309 1.12577 0.50195
 H2136 H -0.04521 1.17331 0.47999
 N2137 N 0.73974 0.74645 0.87920
 N2138 N 0.73790 0.73465 0.90307
 C2139 C 0.74645 0.70835 0.90111
 C2140 C 0.75434 0.70324 0.87473
 C2141 C 0.74945 0.72793 0.86145
 H2142 H 0.76094 0.68389 0.86613
 H2143 H 0.73354 0.76660 0.87509
 H2144 H 0.73053 0.74449 0.92029
 N2145 N 0.24845 0.25266 0.38011
 N2146 N 0.24852 0.24116 0.40418
 C2147 C 0.25695 0.21484 0.40184
 C2148 C 0.26270 0.20945 0.37502
 C2149 C 0.25679 0.23393 0.36191
 H2150 H 0.26874 0.19006 0.36612
 H2151 H 0.24202 0.27279 0.37625
 H2152 H 0.24259 0.25125 0.42177
 N2153 N 0.79346 0.27370 0.37258
 N2154 N 0.79293 0.28465 0.39679
 C2155 C 0.77339 0.30424 0.39783
 C2156 C 0.76089 0.30572 0.37287
 C2157 C 0.77438 0.28602 0.35744
 H2158 H 0.74442 0.31915 0.36678
 H2159 H 0.80663 0.25786 0.36669
 H2160 H 0.80552 0.27822 0.41239
 N2161 N 0.28480 0.75356 0.88215
 N2162 N 0.28578 0.76619 0.90560
 C2163 C 0.26936 0.78850 0.90487
 C2164 C 0.25759 0.79016 0.87975
 C2165 C 0.26793 0.76769 0.86597
 H2166 H 0.24357 0.80561 0.87240
 H2167 H 0.29558 0.73565 0.87739
 H2168 H 0.29719 0.75925 0.92187
 N2169 N 0.21761 0.76668 0.12644
 N2170 N 0.22262 0.77612 0.10042
 C2171 C 0.23603 0.80049 0.10190
 C2172 C 0.23980 0.80694 0.12896
 C2173 C 0.22830 0.78510 0.14352
 H2174 H 0.25074 0.82441 0.13709
 H2175 H 0.20859 0.74771 0.13130
 H2176 H 0.21588 0.76595 0.08329
 N2177 N 0.73758 0.25656 0.62153
 N2178 N 0.74051 0.26742 0.59576
 C2179 C 0.75240 0.29254 0.59766
 C2180 C 0.75743 0.29791 0.62481
 C2181 C 0.74788 0.27492 0.63891
 H2182 H 0.76692 0.31597 0.63341
 H2183 H 0.72914 0.23724 0.62604
 H2184 H 0.73319 0.25759 0.57869
 N2185 N 0.30094 0.22464 0.62776
 N2186 N 0.29980 0.21536 0.60294
 C2187 C 0.28117 0.19478 0.60195
 C2188 C 0.27007 0.19067 0.62751
 C2189 C 0.28306 0.21027 0.64322
 H2190 H 0.25402 0.17639 0.63354
 H2191 H 0.31343 0.24098 0.63379
 H2192 H 0.31167 0.22314 0.58705
 N2193 N 0.75068 0.75589 0.11613
 N2194 N 0.75088 0.74405 0.09069
 C2195 C 0.74514 0.71685 0.09350
 C2196 C 0.74076 0.71115 0.12070
 C2197 C 0.74466 0.73589 0.13404
 H2198 H 0.73626 0.69147 0.13007
 H2199 H 0.75530 0.77651 0.12009
 H2200 H 0.75560 0.75507 0.07323
 N2201 N 0.15017 0.66343 0.22171
 N2202 N 0.13788 0.63914 0.22128
 C2203 C 0.15110 0.62177 0.23785
 C2204 C 0.17274 0.63585 0.24958
 C2205 C 0.17131 0.66226 0.23879
 H2206 H 0.18758 0.62796 0.26361
 H2207 H 0.14418 0.68045 0.21032
 H2208 H 0.12110 0.63450 0.20926
 N2209 N 0.68942 0.14348 0.70131
 N2210 N 0.67878 0.11694 0.70002
 C2211 C 0.67733 0.10670 0.72522
 C2212 C 0.68728 0.12645 0.74309
 C2213 C 0.69514 0.14891 0.72715
 H2214 H 0.68961 0.12436 0.76458
 H2215 H 0.69342 0.15596 0.68457
 H2216 H 0.67186 0.10787 0.68237
 N2217 N 0.82848 0.14972 0.29175
 N2218 N 0.83939 0.12490 0.29124
 C2219 C 0.83609 0.11416 0.26660
 C2220 C 0.82249 0.13299 0.25060
 C2221 C 0.81780 0.15519 0.26751
 H2222 H 0.81575 0.13033 0.23015
 H2223 H 0.82765 0.16224 0.30875
 H2224 H 0.84868 0.11545 0.30764
 N2225 N 0.27568 0.61486 0.79872
 N2226 N 0.28721 0.59034 0.79708
 C2227 C 0.30121 0.58884 0.77368
 C2228 C 0.29822 0.61328 0.75958
 C2229 C 0.28185 0.62913 0.77621
 H2230 H 0.30737 0.61902 0.74046
 H2231 H 0.26384 0.62162 0.81498
 H2232 H 0.28636 0.57539 0.81222
 N2233 N 0.33672 0.34380 0.71061
 N2234 N 0.34633 0.37082 0.71098
 C2235 C 0.34341 0.38039 0.73628
 C2236 C 0.33210 0.35966 0.75247
 C2237 C 0.32769 0.33742 0.73549
 H2238 H 0.32578 0.36122 0.77330
 H2239 H 0.33495 0.33182 0.69334
 H2240 H 0.35474 0.38094 0.69427
 N2241 N 0.78023 0.87761 0.20698
 N2242 N 0.79200 0.90207 0.20911
 C2243 C 0.80506 0.90339 0.23278
 C2244 C 0.80119 0.87866 0.24645
 C2245 C 0.78526 0.86294 0.22936
 H2246 H 0.80915 0.87277 0.26581
 H2247 H 0.76898 0.87116 0.19041
 H2248 H 0.79168 0.91722 0.19417
 N2249 N 0.71335 0.87121 0.78802
 N2250 N 0.70233 0.89750 0.78525
 C2251 C 0.68683 0.89778 0.76294
 C2252 C 0.68807 0.87183 0.75095
 C2253 C 0.70497 0.85605 0.76713
 H2254 H 0.67865 0.86533 0.73245
 H2255 H 0.72669 0.86514 0.80317
 H2256 H 0.70497 0.91326 0.79918
 N2257 N 0.20867 0.37241 0.29421
 N2258 N 0.19737 0.39707 0.29345
 C2259 C 0.18925 0.40249 0.26816
 C2260 C 0.19590 0.37996 0.25208
 C2261 C 0.20820 0.36138 0.26948
 H2262 H 0.19199 0.37722 0.23093
 H2263 H 0.21631 0.36325 0.31158
 H2264 H 0.19457 0.40942 0.31035
 N2265 N 0.12446 0.27914 0.76332
 N2266 N 0.10050 0.28007 0.77583
 C2267 C 0.10193 0.26498 0.79859
 C2268 C 0.12791 0.25384 0.80051
 C2269 C 0.14150 0.26345 0.77785
 H2270 H 0.13612 0.24130 0.81649
 H2271 H 0.12897 0.28923 0.74523
 H2272 H 0.08359 0.29080 0.76863
 N2273 N 0.65530 0.70630 0.33606
 N2274 N 0.63067 0.70468 0.34724
 C2275 C 0.61359 0.72158 0.33388
 C2276 C 0.62814 0.73453 0.31332
 C2277 C 0.65441 0.72425 0.31544
 H2278 H 0.62080 0.74928 0.29877
 H2279 H 0.67238 0.69539 0.34264
 H2280 H 0.62610 0.69259 0.36410
 N2281 N 0.61532 0.22344 0.24005
 N2282 N 0.59102 0.22486 0.22875
 C2283 C 0.59345 0.23911 0.20552
 C2284 C 0.62063 0.24714 0.20201
 C2285 C 0.63374 0.23674 0.22431
 H2286 H 0.62974 0.25873 0.18556
 H2287 H 0.61913 0.21334 0.25817
 H2288 H 0.57338 0.21549 0.23666
 N2289 N 0.10604 0.74810 0.74614
 N2290 N 0.08208 0.75107 0.73463
 C2291 C 0.08627 0.75826 0.70879
 C2292 C 0.11433 0.76037 0.70366
 C2293 C 0.12607 0.75331 0.72792
 H2294 H 0.12461 0.76428 0.68465
 H2295 H 0.10851 0.74188 0.76607
 H2296 H 0.06327 0.74756 0.74430
 N2297 N 0.83637 0.72615 0.64911
 N2298 N 0.86091 0.73006 0.63501
 C2299 C 0.87912 0.74176 0.65182
 C2300 C 0.86640 0.74562 0.67676
 C2301 C 0.83985 0.73572 0.67412
 H2302 H 0.87491 0.75495 0.69451
 H2303 H 0.81842 0.71806 0.64099
 H2304 H 0.86405 0.72356 0.61528
 N2305 N 0.34014 0.21448 0.15469
 N2306 N 0.36472 0.21240 0.14355
 C2307 C 0.38256 0.22785 0.15761
 C2308 C 0.36849 0.24048 0.17857
 C2309 C 0.34171 0.23133 0.17601
 H2310 H 0.37660 0.25385 0.19392
 H2311 H 0.32267 0.20436 0.14777
 H2312 H 0.36885 0.20076 0.12641
 N2313 N 0.37865 0.71993 0.26293
 N2314 N 0.40343 0.72174 0.27316
 C2315 C 0.40222 0.73764 0.29529
 C2316 C 0.37543 0.74627 0.29928
 C2317 C 0.36123 0.73457 0.27836
 H2318 H 0.36734 0.75935 0.31500
 H2319 H 0.37390 0.70885 0.24565
 H2320 H 0.42057 0.71169 0.26526
 N2321 N 0.88465 0.20905 0.78164
 N2322 N 0.90816 0.21017 0.79428
 C2323 C 0.90646 0.22963 0.81341
 C2324 C 0.88057 0.24133 0.81318
 C2325 C 0.86757 0.22783 0.79242
 H2326 H 0.87290 0.25815 0.82529
 H2327 H 0.88070 0.19592 0.76556
 H2328 H 0.92508 0.19791 0.78958
 N2329 N 0.52609 1.04490 0.60801
 N2330 N 0.53497 1.04258 0.63283
 C2331 C 0.55661 1.02533 0.63313
 C2332 C 0.56171 1.01639 0.60703
 C2333 C 0.54183 1.02933 0.59178
 H2334 H 0.57712 1.00201 0.60013
 H2335 H 0.50906 1.05652 0.60250
 H2336 H 0.52557 1.05211 0.64925
 N2337 N -0.00733 0.50689 1.13528
 N2338 N 0.00466 0.50492 1.16045
 C2339 C 0.03168 0.49960 1.15688
 C2340 C 0.03716 0.49783 1.12935
 C2341 C 0.01235 0.50253 1.11668
 H2342 H 0.05662 0.49388 1.11949
 H2343 H -0.02798 0.51124 1.13200
 H2344 H -0.00607 0.50838 1.17832
 N2345 N -0.01907 -0.04698 1.12181
 N2346 N -0.02912 -0.04535 1.14803
 C2347 C -0.05080 -0.02810 1.14815
 C2348 C -0.05501 -0.01869 1.12196
 C2349 C -0.03454 -0.03063 1.10631
 H2350 H -0.06973 -0.00360 1.11530
 H2351 H -0.00155 -0.05782 1.11600
 H2352 H -0.02091 -0.05630 1.16407
 N2353 N 0.50233 0.48612 0.64479
 N2354 N 0.49087 0.48521 0.66891
 C2355 C 0.46517 0.49516 0.66734
 C2356 C 0.46010 0.50278 0.64100
 C2357 C 0.48416 0.49660 0.62741
 H2358 H 0.44144 0.51105 0.63272
 H2359 H 0.52224 0.47952 0.64043
 H2360 H 0.50077 0.47807 0.68603
 N2361 N 0.46609 0.55271 -0.10836
 N2362 N 0.45748 0.54969 -0.13318
 C2363 C 0.43813 0.52976 -0.13351
 C2364 C 0.43392 0.51999 -0.10758
 C2365 C 0.45233 0.53489 -0.09234
 H2366 H 0.42096 0.50300 -0.10108
 H2367 H 0.48181 0.56613 -0.10275
 H2368 H 0.46520 0.56089 -0.14956
 N2369 N -0.02115 1.05010 0.37441
 N2370 N -0.03133 1.04789 0.35005
 C2371 C -0.04863 1.02604 0.34938
 C2372 C -0.04960 1.01413 0.37481
 C2373 C -0.03181 1.02994 0.38997
 H2374 H -0.06074 0.99590 0.38127
 H2375 H -0.00684 1.06501 0.38007
 H2376 H -0.02627 1.06134 0.33435
 N2377 N 0.00456 0.47786 0.37300
 N2378 N 0.01652 0.47604 0.34916
 C2379 C 0.04082 0.48932 0.34987
 C2380 C 0.04457 0.49999 0.37533
 C2381 C 0.02113 0.49213 0.38938
 H2382 H 0.06209 0.51125 0.38275
 H2383 H -0.01435 0.46893 0.37802
 H2384 H 0.00798 0.46601 0.33272
 N2385 N 0.49761 -0.01993 -0.14483
 N2386 N 0.50926 -0.02029 -0.16891
 C2387 C 0.53556 -0.01175 -0.16690
 C2388 C 0.54075 -0.00584 -0.14019
 C2389 C 0.51617 -0.01122 -0.12695
 H2390 H 0.55950 0.00187 -0.13153
 H2391 H 0.47727 -0.02554 -0.14084
 H2392 H 0.49918 -0.02657 -0.18621
 N2393 N 0.59680 0.56506 -0.03559
 N2394 N 0.62217 0.57447 -0.03678
 C2395 C 0.63179 0.57671 -0.01165
 C2396 C 0.61151 0.56814 0.00648
 C2397 C 0.58966 0.56084 -0.00969
 H2398 H 0.61252 0.56731 0.02815
 H2399 H 0.58471 0.56141 -0.05238
 H2400 H 0.63241 0.57979 -0.05460
 N2401 N 0.10877 1.07890 0.45247
 N2402 N 0.13424 1.08824 0.45236
 C2403 C 0.14491 1.08465 0.47696
 C2404 C 0.12515 1.07245 0.49355
 C2405 C 0.10255 1.06898 0.47710
 H2406 H 0.12725 1.06611 0.51428
 H2407 H 0.09616 1.07876 0.43567
 H2408 H 0.14403 1.09699 0.43561
 N2409 N 0.09048 -0.09447 1.02718
 N2410 N 0.11475 -0.10929 1.02539
 C2411 C 0.13298 -0.09420 1.01085
 C2412 C 0.12045 -0.06968 1.00280
 C2413 C 0.09397 -0.07084 1.01336
 H2414 H 0.12914 -0.05326 0.99061
 H2415 H 0.07267 -0.10126 1.03705
 H2416 H 0.11791 -0.12796 1.03533
 N2417 N 0.62201 0.45592 0.56020
 N2418 N 0.64472 0.43879 0.55852
 C2419 C 0.65137 0.43564 0.53229
 C2420 C 0.63324 0.45114 0.51687
 C2421 C 0.61498 0.46300 0.53510
 H2422 H 0.63201 0.45197 0.49521
 H2423 H 0.61153 0.46064 0.57799
 H2424 H 0.65458 0.43074 0.57526
 N2425 N -0.12562 0.48004 0.45941
 N2426 N -0.14987 0.46787 0.45985
 C2427 C -0.15387 0.45586 0.48408
 C2428 C -0.13119 0.46115 0.49989
 C2429 C -0.11375 0.47632 0.48338
 H2430 H -0.12702 0.45349 0.51985
 H2431 H -0.11697 0.48974 0.44255
 H2432 H -0.16256 0.46658 0.44318
 N2433 N 0.36921 -0.02677 -0.05639
 N2434 N 0.34545 -0.03980 -0.05440
 C2435 C 0.34112 -0.04755 -0.02860
 C2436 C 0.36322 -0.03851 -0.01351
 C2437 C 0.38058 -0.02563 -0.03196
 H2438 H 0.36715 -0.04232 0.00750
 H2439 H 0.37793 -0.01981 -0.07445
 H2440 H 0.33335 -0.04446 -0.07091
 N2441 N 0.39425 1.04407 0.52854
 N2442 N 0.36870 1.05294 0.52851
 C2443 C 0.36320 1.06337 0.50410
 C2444 C 0.38629 1.06086 0.48768
 C2445 C 0.40550 1.04839 0.50405
 H2446 H 0.38894 1.06781 0.46715
 H2447 H 0.40379 1.03525 0.54514
 H2448 H 0.35562 1.05276 0.54526
 N2449 N -0.13311 0.53222 1.04742
 N2450 N -0.15773 0.54338 1.04612
 C2451 C -0.15897 0.55910 1.02379
 C2452 C -0.13414 0.55758 1.01008
 C2453 C -0.11836 0.54028 1.02574
 H2454 H -0.12823 0.56792 0.99160
 H2455 H -0.12662 0.51929 1.06289
 H2456 H -0.17311 0.54082 1.06070
 N2457 N 0.05331 0.59864 0.58124
 N2458 N 0.05389 0.62359 0.59185
 C2459 C 0.03183 0.63763 0.58331
 C2460 C 0.01680 0.62114 0.56638
 C2461 C 0.03105 0.59667 0.56561
 H2462 H -0.00203 0.62615 0.55620
 H2463 H 0.06795 0.58341 0.58460
 H2464 H 0.06878 0.63053 0.60514
 N2465 N 0.54816 0.12123 0.01824
 N2466 N 0.55023 0.14535 0.03020
 C2467 C 0.53601 0.14430 0.05355
 C2468 C 0.52484 0.11809 0.05679
 C2469 C 0.53291 0.10426 0.03384
 H2470 H 0.51035 0.11113 0.07201
 H2471 H 0.55581 0.11699 -0.00096
 H2472 H 0.56030 0.16242 0.02183
 N2473 N 0.02610 0.13569 0.99342
 N2474 N 0.02652 0.16050 0.98249
 C2475 C 0.01480 0.15919 0.95815
 C2476 C 0.00644 0.13220 0.95349
 C2477 C 0.01406 0.11805 0.97636
 H2478 H -0.00344 0.12390 0.93594
 H2479 H 0.03428 0.13098 1.01216
 H2480 H 0.03544 0.17770 0.99145
 N2481 N 0.46642 0.62994 0.48789
 N2482 N 0.46170 0.65356 0.47568
 C2483 C 0.46972 0.65135 0.44981
 C2484 C 0.47936 0.62485 0.44520
 C2485 C 0.47727 0.61223 0.47001
 H2486 H 0.48931 0.61695 0.42731
 H2487 H 0.46324 0.62643 0.50840
 H2488 H 0.45414 0.67105 0.48534
 N2489 N 0.55423 0.88966 0.43200
 N2490 N 0.55273 0.86397 0.42358
 C2491 C 0.52656 0.85526 0.42597
 C2492 C 0.51068 0.87621 0.43679
 C2493 C 0.52914 0.89760 0.44027
 H2494 H 0.48881 0.87622 0.44068
 H2495 H 0.57213 0.90156 0.43186
 H2496 H 0.56922 0.85305 0.41542
 N2497 N 0.04321 0.41311 0.92177
 N2498 N 0.04500 0.38790 0.91200
 C2499 C 0.02250 0.37357 0.91972
 C2500 C 0.00573 0.39019 0.93511
 C2501 C 0.01970 0.41501 0.93605
 H2502 H -0.01341 0.38471 0.94501
 H2503 H 0.05827 0.42833 0.91940
 H2504 H 0.06138 0.38072 0.90034
 N2505 N 0.45529 0.38134 0.04225
 N2506 N 0.45633 0.35565 0.05091
 C2507 C 0.48154 0.35081 0.06069
 C2508 C 0.49732 0.37466 0.05796
 C2509 C 0.47978 0.39335 0.04613
 H2510 H 0.51822 0.37815 0.06418
 H2511 H 0.43794 0.39055 0.03411
 H2512 H 0.43960 0.34216 0.05089
 N2513 N 0.03831 0.86882 0.50632
 N2514 N 0.03723 0.84432 0.51799
 C2515 C 0.02104 0.84592 0.54010
 C2516 C 0.01142 0.87265 0.54244
 C2517 C 0.02288 0.88643 0.52075
 H2518 H -0.00203 0.88113 0.55770
 H2519 H 0.04967 0.87333 0.48894
 H2520 H 0.04796 0.82716 0.51105
 N2521 N 0.24918 0.25217 0.11487
 N2522 N 0.24646 0.26334 0.09083
 C2523 C 0.23930 0.29004 0.09363
 C2524 C 0.23740 0.29601 0.12083
 C2525 C 0.24383 0.27145 0.13353
 H2526 H 0.23224 0.31542 0.13019
 H2527 H 0.25486 0.23174 0.11831
 H2528 H 0.25022 0.25279 0.07295
 N2529 N 0.75636 0.74872 0.61502
 N2530 N 0.75678 0.76023 0.59098
 C2531 C 0.74920 0.78688 0.59323
 C2532 C 0.74374 0.79247 0.62008
 C2533 C 0.74852 0.76769 0.63312
 H2534 H 0.73752 0.81180 0.62898
 H2535 H 0.76184 0.72830 0.61888
 H2536 H 0.76301 0.74994 0.57362
 N2537 N 0.19878 0.72612 0.63197
 N2538 N 0.20216 0.71742 0.60705
 C2539 C 0.21836 0.69493 0.60712
 C2540 C 0.22521 0.68892 0.63353
 C2541 C 0.21255 0.70935 0.64861
 H2542 H 0.23897 0.67313 0.64063
 H2543 H 0.18788 0.74380 0.63729
 H2544 H 0.19364 0.72708 0.59037
 N2545 N 0.70259 0.22385 0.12871
 N2546 N 0.70405 0.21299 0.10446
 C2547 C 0.72183 0.19179 0.10475
 C2548 C 0.73195 0.18891 0.13058
 C2549 C 0.71940 0.20988 0.14508
 H2550 H 0.74747 0.17473 0.13743
 H2551 H 0.69084 0.24109 0.13364
 H2552 H 0.69315 0.22031 0.08801
 N2553 N 0.79432 0.22347 0.87544
 N2554 N 0.79201 0.21407 0.90024
 C2555 C 0.77311 0.19364 0.90104
 C2556 C 0.76305 0.18996 0.87517
 C2557 C 0.77707 0.20937 0.85964
 H2558 H 0.74737 0.17576 0.86858
 H2559 H 0.80718 0.23977 0.86967
 H2560 H 0.80293 0.22229 0.91621
 N2561 N 0.29602 0.72363 0.37291
 N2562 N 0.29523 0.71346 0.39754
 C2563 C 0.27313 0.69673 0.40031
 C2564 C 0.25950 0.69613 0.37585
 C2565 C 0.27467 0.71360 0.35912
 H2566 H 0.24071 0.68540 0.37105
 H2567 H 0.31093 0.73747 0.36583
 H2568 H 0.30985 0.71812 0.41195
 N2569 N 0.72981 0.75318 0.37835
 N2570 N 0.72951 0.76515 0.40212
 C2571 C 0.74426 0.78867 0.40046
 C2572 C 0.75431 0.79190 0.37460
 C2573 C 0.74450 0.76906 0.36120
 H2574 H 0.76601 0.80905 0.36641
 H2575 H 0.71934 0.73497 0.37386
 H2576 H 0.71919 0.75739 0.41902
 N2577 N 0.20060 0.27343 0.86923
 N2578 N 0.19930 0.28536 0.89298
 C2579 C 0.21996 0.30384 0.89484
 C2580 C 0.23502 0.30365 0.87098
 C2581 C 0.22200 0.28407 0.85533
 H2582 H 0.25306 0.31569 0.86581
 H2583 H 0.18719 0.25800 0.86288
 H2584 H 0.18484 0.28019 0.90778
 N2585 N 0.82193 0.35124 0.80105
 N2586 N 0.83140 0.37674 0.80189
 C2587 C 0.83244 0.38705 0.77675
 C2588 C 0.82310 0.36712 0.75903
 C2589 C 0.81651 0.34474 0.77538
 H2590 H 0.82088 0.36883 0.73750
 H2591 H 0.81883 0.33873 0.81794
 H2592 H 0.83730 0.38670 0.81946
 N2593 N 0.33265 0.84744 0.29179
 N2594 N 0.34666 0.87245 0.29046
 C2595 C 0.33883 0.88592 0.26799
 C2596 C 0.31968 0.86953 0.25463
 C2597 C 0.31656 0.84569 0.27013
 H2598 H 0.30945 0.87403 0.23598
 H2599 H 0.33476 0.83290 0.30715
 H2600 H 0.35974 0.87922 0.30548
 N2601 N 0.20455 0.85891 0.71099
 N2602 N 0.19557 0.88451 0.71152
 C2603 C 0.18827 0.89086 0.73693
 C2604 C 0.19317 0.86830 0.75342
 C2605 C 0.20347 0.84852 0.73607
 H2606 H 0.18901 0.86625 0.77472
 H2607 H 0.21110 0.84872 0.69365
 H2608 H 0.19350 0.89694 0.69451
 N2609 N 0.67980 0.35535 0.20452
 N2610 N 0.66940 0.38041 0.20518
 C2611 C 0.66991 0.38963 0.23065
 C2612 C 0.68123 0.36957 0.24697
 C2613 C 0.68735 0.34823 0.22951
 H2614 H 0.68502 0.37060 0.26830
 H2615 H 0.68211 0.34363 0.18711
 H2616 H 0.66193 0.39084 0.18843
 N2617 N 0.72477 0.62454 0.28963
 N2618 N 0.71289 0.60005 0.28997
 C2619 C 0.69881 0.59673 0.26704
 C2620 C 0.70229 0.62025 0.25123
 C2621 C 0.71880 0.63734 0.26643
 H2622 H 0.69301 0.62492 0.23214
 H2623 H 0.73614 0.63259 0.30544
 H2624 H 0.71343 0.58659 0.30635
 N2625 N 0.17660 0.14277 0.79305
 N2626 N 0.16620 0.11763 0.79277
 C2627 C 0.17102 0.10642 0.76847
 C2628 C 0.18505 0.12533 0.75245
 C2629 C 0.18835 0.14804 0.76897
 H2630 H 0.19261 0.12262 0.73213
 H2631 H 0.17608 0.15577 0.80970
 H2632 H 0.15593 0.10846 0.80903
 N2633 N 0.28127 0.12867 0.20156
 N2634 N 0.29273 0.10408 0.20175
 C2635 C 0.30322 0.09919 0.22628
 C2636 C 0.29785 0.12196 0.24248
 C2637 C 0.28394 0.14017 0.22593
 H2638 H 0.30399 0.12532 0.26301
 H2639 H 0.27226 0.13760 0.18473
 H2640 H 0.29418 0.09153 0.18484
 N2641 N 0.78368 0.62405 0.70251
 N2642 N 0.79555 0.59967 0.70405
 C2643 C 0.80510 0.59606 0.72913
 C2644 C 0.79868 0.61919 0.74427
 C2645 C 0.78519 0.63642 0.72659
 H2646 H 0.80387 0.62337 0.76492
 H2647 H 0.77514 0.63218 0.68507
 H2648 H 0.79794 0.58636 0.68779
 N2649 N 0.83993 0.79984 0.16201
 N2650 N 0.86613 0.80216 0.15081
 C2651 C 0.88287 0.78500 0.16441
 C2652 C 0.86767 0.77185 0.18461
 C2653 C 0.84114 0.78151 0.18227
 H2654 H 0.87452 0.75671 0.19900
 H2655 H 0.82272 0.81044 0.15528
 H2656 H 0.87066 0.81447 0.13413
 N2657 N 0.38924 0.21650 0.74403
 N2658 N 0.41376 0.21754 0.73258
 C2659 C 0.41176 0.23091 0.70890
 C2660 C 0.38487 0.23879 0.70519
 C2661 C 0.37136 0.22926 0.72786
 H2662 H 0.37626 0.24994 0.68845
 H2663 H 0.38495 0.20711 0.76252
 H2664 H 0.43129 0.20870 0.74074
 N2665 N 0.35779 0.68695 0.79247
 N2666 N 0.38341 0.68554 0.80047
 C2667 C 0.39439 0.71113 0.80015
 C2668 C 0.37491 0.72956 0.79076
 C2669 C 0.35196 0.71332 0.78655
 H2670 H 0.37626 0.75181 0.78976
 H2671 H 0.34431 0.67017 0.79183
 H2672 H 0.39269 0.66734 0.80683
 N2673 N 0.88432 0.26511 0.25288
 N2674 N 0.90914 0.26237 0.26280
 C2675 C 0.90699 0.25210 0.28797
 C2676 C 0.87937 0.24799 0.29412
 C2677 C 0.86579 0.25664 0.27141
 H2678 H 0.87020 0.24058 0.31267
 H2679 H 0.88027 0.27264 0.23367
 H2680 H 0.92703 0.26759 0.25224
 N2681 N 0.15658 0.29086 0.33867
 N2682 N 0.13218 0.29144 0.35039
 C2683 C 0.11514 0.27441 0.33711
 C2684 C 0.12947 0.26245 0.31599
 C2685 C 0.15560 0.27352 0.31770
 H2686 H 0.12200 0.24796 0.30130
 H2687 H 0.17356 0.30214 0.34509
 H2688 H 0.12767 0.30302 0.36748
 N2689 N 0.64865 0.78780 0.83075
 N2690 N 0.62347 0.78889 0.84063
 C2691 C 0.60800 0.76966 0.82840
 C2692 C 0.62411 0.75567 0.80991
 C2693 C 0.64969 0.76794 0.81199
 H2694 H 0.61804 0.73924 0.79657
 H2695 H 0.66471 0.80063 0.83669
 H2696 H 0.61727 0.80239 0.85578
 N2697 N 0.62623 0.23913 0.73510
 N2698 N 0.60305 0.23474 0.72242
 C2699 C 0.60798 0.23664 0.69584
 C2700 C 0.63545 0.24223 0.69125
 C2701 C 0.64622 0.24360 0.71673
 H2702 H 0.64598 0.24514 0.67219
 H2703 H 0.62830 0.23864 0.75595
 H2704 H 0.58412 0.23127 0.73188
 N2705 N 0.11501 0.78652 0.24265
 N2706 N 0.09076 0.78662 0.23117
 C2707 C 0.09211 0.77141 0.20857
 C2708 C 0.11852 0.76119 0.20566
 C2709 C 0.13230 0.77129 0.22764
 H2710 H 0.12675 0.74828 0.18988
 H2711 H 0.11959 0.79697 0.26034
 H2712 H 0.07394 0.79751 0.23863
   
