data_POSCAR
  _audit_creation_date              2014-09-24
  _audit_creation_method            'ToBaCCo'
  _symmetry_space_group_name_H-M    'P1'
  _symmetry_Int_Tables_number       1
  _symmetry_cell_setting            triclinic
  loop_
  _symmetry_equiv_pos_as_xyz
 x,y,z
_cell_length_a 56.2145
_cell_length_b 56.1732
_cell_length_c 51.8387
_cell_angle_alpha 90.635500
_cell_angle_beta 89.713800
_cell_angle_gamma 91.557700
loop_
  _atom_site_label
  _atom_site_type_symbol
  _atom_site_fract_x
  _atom_site_fract_y
  _atom_site_fract_z
C1 C 0.37619 0.02229 0.29026
 C2 C 0.36259 0.04313 0.27956
 C3 C 0.34906 0.03763 0.25857
 C4 C 0.35023 0.01143 0.24998
 C5 C 0.35723 0.00268 0.29506
 C6 C 0.34344 -0.00310 0.27422
 C7 C 0.39035 0.01256 0.26723
 C8 C 0.37708 0.00734 0.24584
 H9 H 0.36370 0.06086 0.28800
 H10 H 0.33900 0.00749 0.23289
 H11 H 0.35646 -0.00727 0.31282
 H12 H 0.40901 0.00859 0.26826
 C13 C 0.11695 -0.02244 0.76659
 C14 C 0.13208 -0.04240 0.75533
 C15 C 0.14647 -0.03534 0.73555
 C16 C 0.14425 -0.00899 0.72838
 C17 C 0.13501 -0.00247 0.77355
 C18 C 0.14919 0.00490 0.75366
 C19 C 0.10407 -0.01373 0.74452
 C20 C 0.11882 -0.00599 0.72332
 H21 H 0.13147 -0.06066 0.76161
 H22 H 0.15642 -0.00420 0.71233
 H23 H 0.13618 0.00519 0.79278
 H24 H 0.08495 -0.01220 0.74496
 C25 C 0.61697 0.48146 0.26871
 C26 C 0.63195 0.46143 0.25768
 C27 C 0.64660 0.46810 0.23802
 C28 C 0.64479 0.49434 0.23053
 C29 C 0.63493 0.50154 0.27545
 C30 C 0.64937 0.50856 0.25563
 C31 C 0.60362 0.49072 0.24515
 C32 C 0.61811 0.49747 0.22515
 H33 H 0.63137 0.44350 0.26521
 H34 H 0.65660 0.49934 0.21416
 H35 H 0.63564 0.50975 0.29444
 H36 H 0.58455 0.49192 0.24400
 C37 C 0.87223 0.52321 0.79605
 C38 C 0.85697 0.54289 0.78507
 C39 C 0.84464 0.53627 0.76348
 C40 C 0.84852 0.51041 0.75471
 C41 C 0.85479 0.50215 0.79994
 C42 C 0.84270 0.49500 0.77840
 C43 C 0.88793 0.51576 0.77318
 C44 C 0.87570 0.50897 0.75157
 H45 H 0.85674 0.56094 0.79240
 H46 H 0.83845 0.50532 0.73706
 H47 H 0.85289 0.49320 0.81827
 H48 H 0.90716 0.51570 0.77429
 C49 C 0.28284 0.40294 1.00248
 C50 C 0.27408 0.38645 1.02414
 C51 C 0.25556 0.37161 1.01732
 C52 C 0.24729 0.37467 0.98934
 C53 C 0.28821 0.38633 0.97980
 C54 C 0.26988 0.37138 0.97291
 C55 C 0.26037 0.41595 0.99463
 C56 C 0.24159 0.40140 0.98743
 H57 H 0.28065 0.38756 1.04372
 H58 H 0.23276 0.36194 0.98391
 H59 H 0.30522 0.38668 0.96989
 H60 H 0.25888 0.43492 0.99754
 C61 C 0.76612 0.09303 0.99196
 C62 C 0.75889 0.11176 0.97228
 C63 C 0.74209 0.12683 0.98119
 C64 C 0.73366 0.12158 1.00885
 C65 C 0.77352 0.10749 1.01591
 C66 C 0.75677 0.12257 1.02481
 C67 C 0.74385 0.08102 0.99895
 C68 C 0.72572 0.09646 1.00844
 H69 H 0.76558 0.11258 0.95269
 H70 H 0.72068 0.13456 1.01600
 H71 H 0.79061 0.10561 1.02513
 H72 H 0.74023 0.06265 0.99349
 C73 C 0.26899 0.58935 0.48512
 C74 C 0.26153 0.60729 0.46480
 C75 C 0.24495 0.62277 0.47324
 C76 C 0.23684 0.61875 0.50125
 C77 C 0.27661 0.60459 0.50843
 C78 C 0.26002 0.62002 0.51694
 C79 C 0.24545 0.57713 0.49331
 C80 C 0.22862 0.59232 0.50210
 H81 H 0.26814 0.60742 0.44515
 H82 H 0.22349 0.63164 0.50791
 H83 H 0.29360 0.60265 0.51785
 H84 H 0.24189 0.55825 0.49056
 C85 C 0.77783 0.90589 0.50410
 C86 C 0.76896 0.88941 0.52574
 C87 C 0.75086 0.87416 0.51866
 C88 C 0.74303 0.87686 0.49049
 C89 C 0.78388 0.88920 0.48171
 C90 C 0.76596 0.87389 0.47459
 C91 C 0.75525 0.91843 0.49561
 C92 C 0.73685 0.90345 0.48819
 H93 H 0.77535 0.89067 0.54539
 H94 H 0.72889 0.86379 0.48485
 H95 H 0.80105 0.88979 0.47212
 H96 H 0.75337 0.93739 0.49818
 C97 C -0.00068 0.28200 0.40005
 C98 C 0.02016 0.28170 0.38069
 C99 C 0.01957 0.26272 0.36399
 C100 C -0.00172 0.24525 0.36883
 C101 C -0.02188 0.27997 0.38430
 C102 C -0.02280 0.25995 0.36688
 C103 C 0.00087 0.25807 0.41367
 C104 C 0.00005 0.23866 0.39770
 H105 H 0.03487 0.29445 0.38083
 H106 H -0.00159 0.22972 0.35558
 H107 H -0.03642 0.29201 0.38694
 H108 H 0.00359 0.25684 0.43427
 C109 C 0.00587 0.77232 0.10577
 C110 C -0.01578 0.77079 0.12395
 C111 C -0.01598 0.75181 0.14008
 C112 C 0.00556 0.73575 0.13650
 C113 C 0.02707 0.77204 0.12435
 C114 C 0.02697 0.75304 0.14046
 C115 C 0.00609 0.74828 0.09177
 C116 C 0.00602 0.72903 0.10753
 H117 H -0.02883 0.78454 0.12549
 H118 H 0.00548 0.72040 0.14978
 H119 H 0.04033 0.78634 0.12562
 H120 H 0.00562 0.74682 0.07093
 C121 C 0.50889 0.27063 0.60799
 C122 C 0.48700 0.26933 0.62571
 C123 C 0.48641 0.25055 0.64210
 C124 C 0.50763 0.23402 0.63869
 C125 C 0.53014 0.26959 0.62630
 C126 C 0.52952 0.25066 0.64249
 C127 C 0.50842 0.24644 0.59389
 C128 C 0.50805 0.22725 0.60976
 H129 H 0.47329 0.28250 0.62548
 H130 H 0.50716 0.21866 0.65196
 H131 H 0.54455 0.28279 0.62623
 H132 H 0.50709 0.24427 0.57325
 C133 C 0.49636 0.78019 0.89705
 C134 C 0.51704 0.77992 0.87740
 C135 C 0.51713 0.76010 0.86192
 C136 C 0.49644 0.74229 0.86757
 C137 C 0.47417 0.77704 0.88013
 C138 C 0.47406 0.75732 0.86462
 C139 C 0.49802 0.75808 0.91094
 C140 C 0.49812 0.73692 0.89518
 H141 H 0.52998 0.79427 0.87498
 H142 H 0.49605 0.72684 0.85418
 H143 H 0.46004 0.78977 0.88005
 H144 H 0.50170 0.75825 0.93139
 C145 C -0.22263 0.63020 0.95527
 C146 C -0.20175 0.61633 0.96545
 C147 C -0.20697 0.60268 0.98629
 C148 C -0.23301 0.60399 0.99526
 C149 C -0.24245 0.61144 0.95046
 C150 C -0.24799 0.59746 0.97110
 C151 C -0.23175 0.64432 0.97867
 C152 C -0.23682 0.63087 0.99984
 H153 H -0.18424 0.61718 0.95660
 H154 H -0.23674 0.59276 1.01230
 H155 H -0.25253 0.61086 0.93272
 H156 H -0.23559 0.66302 0.97817
 C157 C -0.27173 0.37094 0.49210
 C158 C -0.29132 0.38626 0.50341
 C159 C -0.28410 0.40072 0.52316
 C160 C -0.25775 0.39840 0.53027
 C161 C -0.25157 0.38868 0.48507
 C162 C -0.24399 0.40302 0.50491
 C163 C -0.26248 0.35809 0.51396
 C164 C -0.25486 0.37299 0.53532
 H165 H -0.30929 0.38615 0.49590
 H166 H -0.25269 0.41069 0.54624
 H167 H -0.24366 0.38924 0.46599
 H168 H -0.25767 0.33969 0.51270
 C169 C 0.22694 -0.13064 -0.01807
 C170 C 0.20734 -0.11542 -0.00665
 C171 C 0.21449 -0.10120 0.01332
 C172 C 0.24084 -0.10362 0.02046
 C173 C 0.24716 -0.11286 -0.02484
 C174 C 0.25469 -0.09873 -0.00480
 C175 C 0.23614 -0.14375 0.00362
 C176 C 0.24371 -0.12912 0.02516
 H177 H 0.18937 -0.11552 -0.01415
 H178 H 0.24585 -0.09152 0.03662
 H179 H 0.25518 -0.11217 -0.04386
 H180 H 0.24124 -0.16206 0.00196
 C181 C 0.27811 1.12889 0.45438
 C182 C 0.29712 1.11275 0.46488
 C183 C 0.28971 1.09880 0.48480
 C184 C 0.26358 1.10211 0.49255
 C185 C 0.25701 1.11208 0.44775
 C186 C 0.24915 1.09815 0.46758
 C187 C 0.26926 1.14288 0.47808
 C188 C 0.26195 1.12900 0.49816
 H189 H 0.31522 1.11291 0.45757
 H190 H 0.25782 1.09078 0.50893
 H191 H 0.24852 1.11202 0.42905
 H192 H 0.26726 1.16192 0.47863
 C193 C 0.15275 0.52659 0.24838
 C194 C 0.13549 0.51729 0.22748
 C195 C 0.12072 0.49917 0.23532
 C196 C 0.12456 0.49173 0.26339
 C197 C 0.13689 0.53285 0.27135
 C198 C 0.12198 0.51489 0.27919
 C199 C 0.16578 0.50422 0.25658
 C200 C 0.15124 0.48585 0.26471
 H201 H 0.13579 0.52345 0.20776
 H202 H 0.11194 0.47743 0.26958
 H203 H 0.13762 0.55022 0.28065
 H204 H 0.18463 0.50233 0.25329
 C205 C -0.16238 1.02030 0.26592
 C206 C -0.14280 1.01315 0.28471
 C207 C -0.12774 0.99678 0.27483
 C208 C -0.13385 0.98864 0.24719
 C209 C -0.14895 1.02832 0.24167
 C210 C -0.13394 1.01197 0.23175
 C211 C -0.17423 0.99792 0.25882
 C212 C -0.15880 0.98022 0.24831
 H213 H -0.14148 1.01936 0.30449
 H214 H -0.12109 0.97590 0.23910
 H215 H -0.15047 1.04600 0.23382
 H216 H -0.19243 0.99400 0.26452
 C217 C 0.33806 0.51740 -0.23375
 C218 C 0.35757 0.51029 -0.21494
 C219 C 0.37283 0.49412 -0.22479
 C220 C 0.36712 0.48609 -0.25254
 C221 C 0.35148 0.52551 -0.25795
 C222 C 0.36672 0.50939 -0.26787
 C223 C 0.32590 0.49360 -0.24142
 C224 C 0.34089 0.47719 -0.25155
 H225 H 0.35887 0.51675 -0.19523
 H226 H 0.37966 0.47299 -0.26055
 H227 H 0.34975 0.54317 -0.26580
 H228 H 0.30733 0.48958 -0.23739
 C229 C 0.65430 0.02261 -0.25217
 C230 C 0.63851 0.01409 -0.27470
 C231 C 0.62243 -0.00349 -0.26842
 C232 C 0.62369 -0.01122 -0.24009
 C233 C 0.63691 0.02939 -0.23077
 C234 C 0.62076 0.01199 -0.22446
 C235 C 0.66569 -0.00027 -0.24292
 C236 C 0.64989 -0.01812 -0.23624
 H237 H 0.64069 0.02031 -0.29428
 H238 H 0.61010 -0.02507 -0.23512
 H239 H 0.63766 0.04665 -0.22122
 H240 H 0.68464 -0.00278 -0.24440
 C241 C 0.03027 0.24254 0.84503
 C242 C 0.03186 0.26386 0.86387
 C243 C 0.01259 0.26602 0.87980
 C244 C -0.00637 0.24587 0.87576
 C245 C 0.02663 0.22119 0.86289
 C246 C 0.00738 0.22255 0.87884
 C247 C 0.00787 0.24480 0.83180
 C248 C -0.01253 0.24683 0.84828
 H249 H 0.04749 0.27541 0.86560
 H250 H -0.02169 0.24669 0.88917
 H251 H 0.03895 0.20674 0.86373
 H252 H 0.00734 0.24746 0.81117
 C253 C 0.52437 0.25832 0.14321
 C254 C 0.52070 0.23595 0.12622
 C255 C 0.50220 0.23703 0.10946
 C256 C 0.48900 0.26065 0.11088
 C257 C 0.52704 0.27847 0.12363
 C258 C 0.50852 0.28016 0.10691
 C259 C 0.50022 0.26202 0.15610
 C260 C 0.48163 0.26310 0.13946
 H261 H 0.53243 0.22103 0.12596
 H262 H 0.47385 0.26155 0.09734
 H263 H 0.54282 0.28991 0.12269
 H264 H 0.49796 0.26211 0.17686
 C265 C 0.02130 0.76360 0.64119
 C266 C 0.01928 0.73998 0.62607
 C267 C 0.00061 0.73837 0.60946
 C268 C -0.01443 0.76079 0.60919
 C269 C 0.02227 0.78244 0.61989
 C270 C 0.00362 0.78106 0.60320
 C271 C -0.00301 0.76630 0.65406
 C272 C -0.02178 0.76476 0.63756
 H273 H 0.03242 0.72629 0.62723
 H274 H -0.02958 0.75961 0.59555
 H275 H 0.03675 0.79526 0.61746
 H276 H -0.00512 0.76787 0.67478
 C277 C 0.52917 0.74301 0.34516
 C278 C 0.52958 0.76429 0.36407
 C279 C 0.51013 0.76546 0.37986
 C280 C 0.49216 0.74453 0.37578
 C281 C 0.52626 0.72145 0.36285
 C282 C 0.50687 0.72189 0.37871
 C283 C 0.50544 0.74443 0.33110
 C284 C 0.48603 0.74532 0.34684
 H285 H 0.54462 0.77655 0.36605
 H286 H 0.47627 0.74495 0.38850
 H287 H 0.53919 0.70755 0.36357
 H288 H 0.50438 0.74597 0.31033
 B289 B -0.01797 0.01521 1.02483
 B290 B -0.03051 0.00921 0.99608
 B291 B -0.00899 0.03047 0.99845
 B292 B 0.01129 0.02173 1.02017
 B293 B 0.00202 -0.00559 1.03097
 B294 B -0.02409 -0.01334 1.01597
 B295 B 0.01045 -0.00925 0.97905
 B296 B 0.02311 -0.00324 1.00777
 B297 B 0.00152 -0.02442 1.00535
 B298 B -0.01874 -0.01566 0.98373
 B299 B -0.00943 0.01155 0.97287
 B300 B 0.01672 0.01930 0.98785
 B301 B 0.48400 0.51538 0.52640
 B302 B 0.47211 0.50846 0.49754
 B303 B 0.49302 0.53030 0.49983
 B304 B 0.51318 0.52258 0.52215
 B305 B 0.50444 0.49531 0.53346
 B306 B 0.47878 0.48655 0.51815
 B307 B 0.51382 0.49077 0.48181
 B308 B 0.52585 0.49773 0.51061
 B309 B 0.50487 0.47596 0.50834
 B310 B 0.48473 0.48368 0.48610
 B311 B 0.49351 0.51088 0.47471
 B312 B 0.51921 0.51963 0.49000
 B313 B 0.51398 0.97063 0.53297
 B314 B 0.52661 0.97764 0.50445
 B315 B 0.50262 0.95918 0.50532
 B316 B 0.48409 0.96839 0.52902
 B317 B 0.49705 0.99320 0.54277
 B318 B 0.52363 0.99887 0.52750
 B319 B 0.48816 1.00271 0.49213
 B320 B 0.47549 0.99576 0.52052
 B321 B 0.49962 1.01415 0.51976
 B322 B 0.51796 1.00495 0.49602
 B323 B 0.50500 0.98021 0.48226
 B324 B 0.47852 0.97443 0.49751
 B325 B 0.01759 0.47111 1.03601
 B326 B 0.03246 0.47891 1.00903
 B327 B 0.00926 0.45945 1.00726
 B328 B -0.01171 0.46761 1.02879
 B329 B -0.00111 0.49276 1.04400
 B330 B 0.02649 0.49980 1.03170
 B331 B -0.00569 0.50257 0.99275
 B332 B -0.02067 0.49445 1.01957
 B333 B 0.00253 0.51412 1.02146
 B334 B 0.02345 0.50599 0.99984
 B335 B 0.01301 0.48074 0.98476
 B336 B -0.01450 0.47380 0.99676
 B337 B 0.00147 0.51793 0.48521
 B338 B 0.01485 0.51664 0.51405
 B339 B -0.00687 0.53607 0.50957
 B340 B -0.02767 0.52335 0.49003
 B341 B -0.01858 0.49541 0.48264
 B342 B 0.00800 0.49126 0.49761
 B343 B -0.02553 0.49828 0.53492
 B344 B -0.03899 0.49970 0.50618
 B345 B -0.01726 0.48019 0.51049
 B346 B 0.00357 0.49292 0.53009
 B347 B -0.00557 0.52087 0.53751
 B348 B -0.03210 0.52504 0.52256
 B349 B 0.49940 0.02021 -0.02092
 B350 B 0.51258 0.01846 0.00800
 B351 B 0.49049 0.03757 0.00390
 B352 B 0.47008 0.02492 -0.01621
 B353 B 0.47981 -0.00264 -0.02431
 B354 B 0.50638 -0.00663 -0.00924
 B355 B 0.47240 -0.00122 0.02791
 B356 B 0.45912 0.00063 -0.00088
 B357 B 0.48124 -0.01852 0.00308
 B358 B 0.50165 -0.00587 0.02321
 B359 B 0.49187 0.02167 0.03136
 B360 B 0.46536 0.02569 0.01631
 B361 B 0.50260 0.48798 -0.03746
 B362 B 0.49020 0.49331 -0.00849
 B363 B 0.51170 0.47327 -0.01126
 B364 B 0.53187 0.48308 -0.03331
 B365 B 0.52255 0.50988 -0.04397
 B366 B 0.49650 0.51616 -0.02849
 B367 B 0.53135 0.51401 0.00784
 B368 B 0.54376 0.50872 -0.02111
 B369 B 0.52216 0.52873 -0.01831
 B370 B 0.50207 0.51883 0.00370
 B371 B 0.51144 0.49214 0.01434
 B372 B 0.53744 0.48579 -0.00110
 B373 B -0.00103 0.98844 0.46388
 B374 B -0.01356 0.99346 0.49287
 B375 B 0.00781 0.97330 0.48985
 B376 B 0.02819 0.98328 0.46810
 B377 B 0.01908 1.01028 0.45784
 B378 B -0.00700 1.01654 0.47328
 B379 B 0.02767 1.01360 0.50976
 B380 B 0.04017 1.00866 0.48080
 B381 B 0.01871 1.02878 0.48379
 B382 B -0.00154 1.01873 0.50555
 B383 B 0.00755 0.99178 0.51578
 B384 B 0.03359 0.98546 0.50036
 B385 B 0.76226 0.23563 0.23514
 B386 B 0.75622 0.22364 0.26404
 B387 B 0.77761 0.24495 0.26146
 B388 B 0.76903 0.26494 0.23947
 B389 B 0.74168 0.25572 0.22862
 B390 B 0.73373 0.22990 0.24391
 B391 B 0.73811 0.26505 0.28041
 B392 B 0.74424 0.27719 0.25158
 B393 B 0.72289 0.25583 0.25409
 B394 B 0.73146 0.23583 0.27605
 B395 B 0.75876 0.24509 0.28698
 B396 B 0.76670 0.27094 0.27172
 B397 B 0.72078 0.76232 0.71200
 B398 B 0.72763 0.77460 0.74086
 B399 B 0.71003 0.75002 0.73937
 B400 B 0.71960 0.73230 0.71510
 B401 B 0.74382 0.74634 0.70157
 B402 B 0.74872 0.77284 0.71757
 B403 B 0.75423 0.73688 0.75183
 B404 B 0.74734 0.72447 0.72316
 B405 B 0.76494 0.74921 0.72450
 B406 B 0.75534 0.76680 0.74879
 B407 B 0.73127 0.75272 0.76234
 B408 B 0.72622 0.72635 0.74640
 B409 B 0.26848 0.24892 0.76686
 B410 B 0.26703 0.26200 0.73795
 B411 B 0.28642 0.24025 0.74250
 B412 B 0.27380 0.21968 0.76221
 B413 B 0.24594 0.22894 0.76957
 B414 B 0.24174 0.25538 0.75445
 B415 B 0.24845 0.22139 0.71735
 B416 B 0.25001 0.20823 0.74617
 B417 B 0.23057 0.22998 0.74171
 B418 B 0.24320 0.25059 0.72200
 B419 B 0.27103 0.24128 0.71460
 B420 B 0.27524 0.21486 0.72970
 B421 B 0.23548 0.74711 0.28164
 B422 B 0.24074 0.73478 0.25256
 B423 B 0.22051 0.75607 0.25554
 B424 B 0.23022 0.77633 0.27775
 B425 B 0.25718 0.76727 0.28830
 B426 B 0.26365 0.74131 0.27258
 B427 B 0.26085 0.77624 0.23657
 B428 B 0.25562 0.78851 0.26565
 B429 B 0.27586 0.76714 0.26262
 B430 B 0.26605 0.74697 0.24042
 B431 B 0.23919 0.75605 0.22990
 B432 B 0.23264 0.78197 0.24560
 B433 B 0.26169 0.73179 0.72774
 B434 B 0.25530 0.71983 0.75659
 B435 B 0.27662 0.74124 0.75426
 B436 B 0.26824 0.76114 0.73205
 B437 B 0.24109 0.75173 0.72080
 B438 B 0.23305 0.72591 0.73606
 B439 B 0.23682 0.76122 0.77249
 B440 B 0.24323 0.77329 0.74370
 B441 B 0.22197 0.75182 0.74598
 B442 B 0.23033 0.73195 0.76816
 B443 B 0.25744 0.74138 0.77947
 B444 B 0.26547 0.76722 0.76422
 B445 B 0.22460 0.26599 0.21470
 B446 B 0.23147 0.27848 0.24345
 B447 B 0.21358 0.25408 0.24214
 B448 B 0.22306 0.23603 0.21811
 B449 B 0.24748 0.24968 0.20457
 B450 B 0.25263 0.27625 0.22033
 B451 B 0.25755 0.24049 0.25499
 B452 B 0.25067 0.22796 0.22638
 B453 B 0.26853 0.25250 0.22757
 B454 B 0.25906 0.27039 0.25167
 B455 B 0.23473 0.25672 0.26522
 B456 B 0.22945 0.23027 0.24949
 B457 B 0.76862 0.75250 0.26871
 B458 B 0.76722 0.76570 0.23987
 B459 B 0.78661 0.74393 0.24436
 B460 B 0.77393 0.72328 0.26394
 B461 B 0.74607 0.73252 0.27128
 B462 B 0.74190 0.75902 0.25628
 B463 B 0.74869 0.72518 0.21903
 B464 B 0.75018 0.71191 0.24780
 B465 B 0.73074 0.73367 0.24339
 B466 B 0.74342 0.75436 0.22382
 B467 B 0.77128 0.74509 0.21644
 B468 B 0.77545 0.71861 0.23142
 B469 B 0.73627 0.24469 0.78727
 B470 B 0.74389 0.22968 0.76041
 B471 B 0.72245 0.24988 0.75925
 B472 B 0.72978 0.27293 0.77908
 B473 B 0.75640 0.26666 0.79261
 B474 B 0.76523 0.23967 0.78094
 B475 B 0.76301 0.27001 0.74036
 B476 B 0.75506 0.28512 0.76717
 B477 B 0.77670 0.26495 0.76845
 B478 B 0.76937 0.24192 0.74850
 B479 B 0.74260 0.24799 0.73517
 B480 B 0.73393 0.27498 0.74648
 C481 C 0.41670 1.04076 0.35903
 C482 C 0.39205 1.03689 0.36046
 C483 C 0.37905 1.03165 0.33814
 C484 C 0.39057 1.02958 0.31405
 C485 C 0.41515 1.03535 0.31266
 C486 C 0.42814 1.04053 0.33505
 C487 C 0.43034 1.04173 0.38240
 C488 C 0.44090 1.04013 0.40242
 C489 C 0.45194 1.03503 0.42659
 C490 C 0.43929 1.02053 0.44379
 C491 C 0.45055 1.01135 0.46514
 C492 C 0.47469 1.01695 0.47024
 C493 C 0.48709 1.03239 0.45331
 C494 C 0.47578 1.04132 0.43152
 H495 H 0.38298 1.03710 0.37895
 H496 H 0.36001 1.02856 0.33983
 H497 H 0.42457 1.03572 0.29445
 H498 H 0.44721 1.04368 0.33371
 H499 H 0.42097 1.01518 0.43992
 H500 H 0.44042 0.99892 0.47692
 H501 H 0.50582 1.03655 0.45602
 H502 H 0.48588 1.05219 0.41800
 C503 C -0.08573 0.53577 0.86518
 C504 C -0.08467 0.51435 0.85135
 C505 C -0.09831 0.51076 0.82924
 C506 C -0.11325 0.52858 0.82030
 C507 C -0.11433 0.55013 0.83454
 C508 C -0.10058 0.55367 0.85682
 C509 C -0.07152 0.53857 0.88804
 C510 C -0.05885 0.53831 0.90669
 C511 C -0.04306 0.53460 0.92787
 C512 C -0.02310 0.52088 0.92340
 C513 C -0.01025 0.51227 0.94401
 C514 C -0.01720 0.51712 0.96967
 C515 C -0.03585 0.53302 0.97387
 C516 C -0.04900 0.54135 0.95310
 H517 H -0.07332 0.50030 0.85774
 H518 H -0.09723 0.49390 0.81901
 H519 H -0.12576 0.56428 0.82901
 H520 H -0.10163 0.57027 0.86755
 H521 H -0.01826 0.51561 0.90393
 H522 H 0.00441 0.50081 0.93957
 H523 H -0.04105 0.53822 0.99317
 H524 H -0.06438 0.55212 0.95680
 C525 C 0.07511 -0.03486 0.83595
 C526 C 0.07233 -0.01430 0.82151
 C527 C 0.08523 -0.01101 0.79874
 C528 C 0.10104 -0.02835 0.78975
 C529 C 0.10331 -0.04926 0.80434
 C530 C 0.09038 -0.05245 0.82722
 C531 C 0.06421 -0.03639 0.86100
 C532 C 0.05561 -0.03578 0.88228
 C533 C 0.04593 -0.03263 0.90772
 C534 C 0.05769 -0.01703 0.92483
 C535 C 0.04693 -0.01063 0.94805
 C536 C 0.02425 -0.01998 0.95476
 C537 C 0.01296 -0.03642 0.93778
 C538 C 0.02374 -0.04268 0.91439
 H539 H 0.06084 -0.00037 0.82834
 H540 H 0.08349 0.00558 0.78854
 H541 H 0.11569 -0.06283 0.79912
 H542 H 0.09298 -0.06825 0.83857
 H543 H 0.07477 -0.00895 0.91971
 H544 H 0.05610 0.00235 0.96027
 H545 H -0.00469 -0.04357 0.94182
 H546 H 0.01434 -0.05453 0.90106
 C547 C 0.57941 0.46398 0.33952
 C548 C 0.56669 0.47296 0.31884
 C549 C 0.57818 0.47787 0.29544
 C550 C 0.60271 0.47385 0.29243
 C551 C 0.61503 0.46404 0.31326
 C552 C 0.60350 0.45916 0.33656
 C553 C 0.56864 0.46279 0.36465
 C554 C 0.56011 0.46363 0.38596
 C555 C 0.55036 0.46697 0.41134
 C556 C 0.56156 0.48333 0.42807
 C557 C 0.55055 0.48984 0.45112
 C558 C 0.52816 0.47988 0.45800
 C559 C 0.51752 0.46263 0.44147
 C560 C 0.52855 0.45625 0.41826
 H561 H 0.54807 0.47710 0.32113
 H562 H 0.56780 0.48565 0.28046
 H563 H 0.63394 0.46099 0.31177
 H564 H 0.61361 0.45256 0.35259
 H565 H 0.57836 0.49190 0.42276
 H566 H 0.55924 0.50338 0.46304
 H567 H 0.50012 0.45492 0.44567
 H568 H 0.51960 0.44377 0.40525
 C569 C 0.59127 0.52292 0.15326
 C570 C 0.57828 0.50584 0.16730
 C571 C 0.58694 0.49768 0.19069
 C572 C 0.60879 0.50652 0.20048
 C573 C 0.62167 0.52388 0.18638
 C574 C 0.61296 0.53200 0.16286
 C575 C 0.58305 0.52926 0.12805
 C576 C 0.57583 0.53250 0.10653
 C577 C 0.56714 0.53341 0.08049
 C578 C 0.57927 0.52102 0.06127
 C579 C 0.56867 0.51663 0.03741
 C580 C 0.54574 0.52486 0.03206
 C581 C 0.53438 0.53884 0.05093
 C582 C 0.54496 0.54294 0.07507
 H583 H 0.56167 0.49839 0.15987
 H584 H 0.57679 0.48399 0.20074
 H585 H 0.63838 0.53126 0.19356
 H586 H 0.62329 0.54506 0.15203
 H587 H 0.59629 0.51328 0.06531
 H588 H 0.57794 0.50535 0.02387
 H589 H 0.51665 0.54522 0.04779
 H590 H 0.53524 0.55232 0.08995
 C591 C 0.09046 1.02173 0.65422
 C592 C 0.07592 1.00874 0.67115
 C593 C 0.08518 0.99986 0.69392
 C594 C 0.10942 1.00370 0.70040
 C595 C 0.12377 1.01734 0.68324
 C596 C 0.11437 1.02615 0.66038
 C597 C 0.08130 1.02806 0.62940
 C598 C 0.07340 1.03127 0.60817
 C599 C 0.06417 1.03210 0.58235
 C600 C 0.07593 1.01957 0.56297
 C601 C 0.06503 1.01532 0.53927
 C602 C 0.04218 1.02390 0.53416
 C603 C 0.03113 1.03792 0.55322
 C604 C 0.04201 1.04184 0.57726
 H605 H 0.05748 1.00478 0.66634
 H606 H 0.07328 0.98901 0.70557
 H607 H 0.14216 1.02186 0.68738
 H608 H 0.12586 1.03613 0.64732
 H609 H 0.09292 1.01166 0.56675
 H610 H 0.07406 1.00400 0.52558
 H611 H 0.01347 1.04455 0.55025
 H612 H 0.03258 1.05134 0.59228
 C613 C -0.08994 0.48825 0.68085
 C614 C -0.11186 0.47767 0.68778
 C615 C -0.12298 0.48419 0.71094
 C616 C -0.11232 0.50146 0.72737
 C617 C -0.09016 0.51175 0.72032
 C618 C -0.07909 0.50518 0.69726
 C619 C -0.07950 0.48371 0.65593
 C620 C -0.07085 0.48188 0.63469
 C621 C -0.06109 0.48241 0.60899
 C622 C -0.07199 0.49654 0.59077
 C623 C -0.06119 0.50057 0.56697
 C624 C -0.03927 0.49030 0.56065
 C625 C -0.02889 0.47519 0.57867
 C626 C -0.03970 0.47138 0.60280
 H627 H -0.12054 0.46471 0.67510
 H628 H -0.13986 0.47569 0.71599
 H629 H -0.08165 0.52540 0.73223
 H630 H -0.06233 0.51378 0.69190
 H631 H -0.08844 0.50532 0.59538
 H632 H -0.06983 0.51239 0.55384
 H633 H -0.01200 0.46711 0.57462
 H634 H -0.03098 0.46056 0.61689
 C635 C 0.40900 -0.01391 0.17365
 C636 C 0.38530 -0.02038 0.17901
 C637 C 0.37490 -0.01372 0.20250
 C638 C 0.38807 -0.00050 0.22102
 C639 C 0.41196 0.00584 0.21528
 C640 C 0.42229 -0.00087 0.19187
 C641 C 0.41903 -0.01819 0.14851
 C642 C 0.42742 -0.01983 0.12716
 C643 C 0.43700 -0.01908 0.10141
 C644 C 0.42560 -0.00530 0.08325
 C645 C 0.43635 -0.00071 0.05954
 C646 C 0.45869 -0.01011 0.05328
 C647 C 0.46954 -0.02496 0.07123
 C648 C 0.45879 -0.02931 0.09525
 H649 H 0.37470 -0.03012 0.16481
 H650 H 0.35657 -0.01884 0.20585
 H651 H 0.42261 0.01668 0.22844
 H652 H 0.44049 0.00474 0.18769
 H653 H 0.40885 0.00289 0.08789
 H654 H 0.42737 0.01093 0.04649
 H655 H 0.48678 -0.03232 0.06726
 H656 H 0.46790 -0.03981 0.10933
 C657 C 0.34764 0.44515 0.01432
 C658 C 0.33009 0.45312 -0.00226
 C659 C 0.30873 0.44008 -0.00517
 C660 C 0.30436 0.41899 0.00880
 C661 C 0.32220 0.41128 0.02557
 C662 C 0.34354 0.42436 0.02844
 C663 C 0.37102 0.45617 0.01391
 C664 C 0.39110 0.46405 0.01207
 C665 C 0.41547 0.47153 0.00799
 C666 C 0.42479 0.49291 0.01836
 C667 C 0.44850 0.49984 0.01336
 C668 C 0.46315 0.48546 -0.00213
 C669 C 0.45336 0.46398 -0.01224
 C670 C 0.42985 0.45713 -0.00722
 H671 H 0.33336 0.46880 -0.01387
 H672 H 0.29614 0.44601 -0.01928
 H673 H 0.32026 0.39455 0.03559
 H674 H 0.35730 0.41763 0.04074
 H675 H 0.41374 0.50424 0.03014
 H676 H 0.45524 0.51649 0.02152
 H677 H 0.46371 0.45235 -0.02435
 H678 H 0.42282 0.44058 -0.01543
 C679 C -0.15704 0.94751 0.51566
 C680 C -0.17490 0.95611 0.49986
 C681 C -0.19653 0.94343 0.49727
 C682 C -0.20081 0.92205 0.51075
 C683 C -0.18272 0.91382 0.52688
 C684 C -0.16115 0.92655 0.52946
 C685 C -0.13345 0.95809 0.51480
 C686 C -0.11322 0.96554 0.51276
 C687 C -0.08872 0.97265 0.50872
 C688 C -0.07909 0.99378 0.51933
 C689 C -0.05525 1.00036 0.51454
 C690 C -0.04074 0.98587 0.49902
 C691 C -0.05081 0.96461 0.48866
 C692 C -0.07448 0.95811 0.49347
 H693 H -0.17168 0.97198 0.48853
 H694 H -0.20932 0.94979 0.48362
 H695 H -0.18463 0.89688 0.53650
 H696 H -0.14722 0.91937 0.54120
 H697 H -0.09000 1.00521 0.53116
 H698 H -0.04833 1.01685 0.52290
 H699 H -0.04058 0.95294 0.47648
 H700 H -0.08174 0.94173 0.48508
 C701 C -0.17251 0.05041 0.97548
 C702 C -0.17544 0.07182 0.96256
 C703 C -0.19584 0.08497 0.96671
 C704 C -0.21397 0.07671 0.98355
 C705 C -0.21092 0.05481 0.99605
 C706 C -0.19043 0.04173 0.99190
 C707 C -0.14954 0.03984 0.97544
 C708 C -0.12960 0.03275 0.97701
 C709 C -0.10528 0.02658 0.98084
 C710 C -0.09089 0.04183 0.99583
 C711 C -0.06734 0.03636 1.00047
 C712 C -0.05756 0.01546 0.99018
 C713 C -0.07221 0.00021 0.97493
 C714 C -0.09596 0.00575 0.97031
 H715 H -0.16131 0.07908 0.95045
 H716 H -0.19657 0.10225 0.95783
 H717 H -0.22376 0.04835 1.01012
 H718 H -0.18801 0.02553 1.00262
 H719 H -0.09795 0.05798 1.00412
 H720 H -0.05694 0.04859 1.01239
 H721 H -0.06546 -0.01605 0.96665
 H722 H -0.10702 -0.00621 0.95868
 C723 C 0.33024 0.54636 0.47036
 C724 C 0.32756 0.56757 0.45699
 C725 C 0.30711 0.58078 0.46048
 C726 C 0.28871 0.57276 0.47710
 C727 C 0.29144 0.55100 0.48993
 C728 C 0.31197 0.53786 0.48645
 C729 C 0.35329 0.53607 0.47143
 C730 C 0.37325 0.52934 0.47404
 C731 C 0.39750 0.52372 0.47914
 C732 C 0.41099 0.53948 0.49449
 C733 C 0.43448 0.53463 0.50023
 C734 C 0.44506 0.51384 0.49072
 C735 C 0.43128 0.49804 0.47517
 C736 C 0.40761 0.50297 0.46943
 H737 H 0.34195 0.57470 0.44514
 H738 H 0.30653 0.59796 0.45136
 H739 H 0.27841 0.54476 0.50390
 H740 H 0.31420 0.52184 0.49753
 H741 H 0.40330 0.55558 0.50216
 H742 H 0.44422 0.54726 0.51231
 H743 H 0.43868 0.48186 0.46744
 H744 H 0.39724 0.49063 0.45753
 C745 C 0.15832 0.56631 0.52184
 C746 C 0.16180 0.58959 0.51297
 C747 C 0.18471 0.59837 0.50738
 C748 C 0.20450 0.58389 0.51036
 C749 C 0.20087 0.56083 0.52039
 C750 C 0.17792 0.55208 0.52594
 C751 C 0.13453 0.55656 0.52445
 C752 C 0.11429 0.54898 0.52499
 C753 C 0.08980 0.54107 0.52349
 C754 C 0.07467 0.55310 0.50721
 C755 C 0.05110 0.54541 0.50438
 C756 C 0.04201 0.52545 0.51783
 C757 C 0.05740 0.51349 0.53438
 C758 C 0.08118 0.52124 0.53715
 H759 H 0.14670 0.60073 0.50961
 H760 H 0.18666 0.61615 0.49984
 H761 H 0.21570 0.54938 0.52367
 H762 H 0.17544 0.53404 0.53283
 H763 H 0.08118 0.56839 0.49643
 H764 H 0.04013 0.55519 0.49138
 H765 H 0.05120 0.49807 0.54507
 H766 H 0.09284 0.51170 0.54973
 C767 C 0.65539 0.06987 0.02241
 C768 C 0.65964 0.09430 0.01938
 C769 C 0.68282 0.10333 0.01565
 C770 C 0.70232 0.08796 0.01450
 C771 C 0.69766 0.06342 0.01878
 C772 C 0.67448 0.05452 0.02254
 C773 C 0.63137 0.06038 0.02321
 C774 C 0.61114 0.05272 0.02250
 C775 C 0.58685 0.04434 0.01993
 C776 C 0.57184 0.05633 0.00344
 C777 C 0.54850 0.04815 -0.00024
 C778 C 0.53953 0.02774 0.01252
 C779 C 0.55480 0.01583 0.02924
 C780 C 0.57832 0.02407 0.03287
 H781 H 0.64491 0.10636 0.01910
 H782 H 0.68480 0.12220 0.01233
 H783 H 0.71180 0.05079 0.01949
 H784 H 0.67142 0.03556 0.02506
 H785 H 0.57826 0.07197 -0.00679
 H786 H 0.53758 0.05792 -0.01331
 H787 H 0.54870 0.00009 0.03944
 H788 H 0.58987 0.01457 0.04561
 C789 C 0.66625 0.92967 0.47630
 C790 C 0.66952 0.90542 0.48018
 C791 C 0.69241 0.89669 0.48275
 C792 C 0.71259 0.91214 0.48190
 C793 C 0.70903 0.93635 0.47626
 C794 C 0.68607 0.94504 0.47375
 C795 C 0.64259 0.93885 0.47715
 C796 C 0.62259 0.94590 0.47933
 C797 C 0.59859 0.95339 0.48359
 C798 C 0.58244 0.93804 0.49607
 C799 C 0.55964 0.94553 0.50222
 C800 C 0.55242 0.96861 0.49601
 C801 C 0.56874 0.98379 0.48297
 C802 C 0.59166 0.97624 0.47688
 H803 H 0.65429 0.89330 0.48204
 H804 H 0.69382 0.87793 0.48621
 H805 H 0.72384 0.94885 0.47417
 H806 H 0.68378 0.96386 0.47048
 H807 H 0.58766 0.92039 0.50160
 H808 H 0.54802 0.93336 0.51265
 H809 H 0.56405 1.00168 0.47783
 H810 H 0.60409 0.98836 0.46735
 C811 C 0.17153 0.42970 0.97896
 C812 C 0.19162 0.44450 0.97552
 C813 C 0.21437 0.43509 0.97673
 C814 C 0.21743 0.41073 0.98197
 C815 C 0.19690 0.39581 0.98348
 C816 C 0.17421 0.40526 0.98223
 C817 C 0.14828 0.43963 0.98134
 C818 C 0.12866 0.44727 0.98470
 C819 C 0.10506 0.45530 0.99015
 C820 C 0.09815 0.47812 0.98328
 C821 C 0.07526 0.48574 0.98943
 C822 C 0.05898 0.47064 1.00261
 C823 C 0.06634 0.44776 1.00940
 C824 C 0.08910 0.44021 1.00323
 H825 H 0.18976 0.46343 0.97264
 H826 H 0.22943 0.44719 0.97404
 H827 H 0.19795 0.37695 0.98655
 H828 H 0.15873 0.39357 0.98468
 H829 H 0.11044 0.49001 0.97325
 H830 H 0.07041 0.50344 0.98377
 H831 H 0.05464 0.43558 1.01972
 H832 H 0.09430 0.42257 1.00883
 C833 C -0.00661 0.34177 0.45377
 C834 C -0.02046 0.32098 0.45702
 C835 C -0.01813 0.30184 0.43981
 C836 C -0.00175 0.30300 0.41907
 C837 C 0.01196 0.32419 0.41597
 C838 C 0.00960 0.34329 0.43325
 C839 C -0.01047 0.36240 0.46984
 C840 C -0.01394 0.38060 0.48168
 C841 C -0.01831 0.40352 0.49320
 C842 C -0.00471 0.41238 0.51393
 C843 C -0.00609 0.43639 0.52143
 C844 C -0.02087 0.45186 0.50802
 C845 C -0.03542 0.44219 0.48820
 C846 C -0.03425 0.41830 0.48105
 H847 H -0.03343 0.31975 0.47251
 H848 H -0.02945 0.28614 0.44244
 H849 H 0.02401 0.32666 0.39991
 H850 H 0.02002 0.35954 0.43019
 H851 H 0.00787 0.40113 0.52337
 H852 H 0.00563 0.44311 0.53649
 H853 H -0.04664 0.45337 0.47688
 H854 H -0.04472 0.41173 0.46483
 C855 C 0.49041 -0.15907 -0.05051
 C856 C 0.47190 -0.17607 -0.05276
 C857 C 0.47422 -0.19564 -0.06940
 C858 C 0.49494 -0.19839 -0.08453
 C859 C 0.51384 -0.18158 -0.08124
 C860 C 0.51146 -0.16203 -0.06455
 C861 C 0.48711 -0.13761 -0.03559
 C862 C 0.48412 -0.11883 -0.02468
 C863 C 0.48032 -0.09540 -0.01415
 C864 C 0.49339 -0.08653 0.00698
 C865 C 0.49221 -0.06241 0.01410
 C866 C 0.47810 -0.04685 -0.00002
 C867 C 0.46425 -0.05642 -0.02046
 C868 C 0.46525 -0.08042 -0.02728
 H869 H 0.45550 -0.17400 -0.04201
 H870 H 0.45961 -0.20855 -0.07078
 H871 H 0.53058 -0.18324 -0.09124
 H872 H 0.52596 -0.14900 -0.06288
 H873 H 0.50530 -0.09795 0.01718
 H874 H 0.50342 -0.05576 0.02964
 H875 H 0.45349 -0.04517 -0.03223
 H876 H 0.45518 -0.08699 -0.04378
 C877 C 0.00730 -0.16669 1.05488
 C878 C 0.02851 -0.17739 1.06169
 C879 C 0.02799 -0.19750 1.07734
 C880 C 0.00625 -0.20684 1.08711
 C881 C -0.01504 -0.19696 1.07843
 C882 C -0.01448 -0.17685 1.06277
 C883 C 0.00793 -0.14416 1.04193
 C884 C 0.00837 -0.12456 1.03268
 C885 C 0.00879 -0.10037 1.02379
 C886 C -0.00370 -0.09401 1.00174
 C887 C -0.00522 -0.06999 0.99509
 C888 C 0.00576 -0.05203 1.01045
 C889 C 0.01860 -0.05885 1.03233
 C890 C 0.02021 -0.08276 1.03880
 H891 H 0.04549 -0.16983 1.05544
 H892 H 0.04470 -0.20543 1.08217
 H893 H -0.03221 -0.20447 1.08394
 H894 H -0.03104 -0.16890 1.05732
 H895 H -0.01288 -0.10750 0.99015
 H896 H -0.01577 -0.06555 0.97854
 H897 H 0.02702 -0.04570 1.04496
 H898 H 0.02974 -0.08745 1.05606
 C899 C 0.51179 0.33601 0.56388
 C900 C 0.51416 0.31424 0.55095
 C901 C 0.51335 0.29294 0.56473
 C902 C 0.50990 0.29314 0.59175
 C903 C 0.50800 0.31532 0.60445
 C904 C 0.50882 0.33650 0.59065
 C905 C 0.51255 0.35806 0.55005
 C906 C 0.51303 0.37724 0.53987
 C907 C 0.51339 0.40098 0.52980
 C908 C 0.50096 0.40634 0.50736
 C909 C 0.49915 0.43004 0.49967
 C910 C 0.50977 0.44868 0.51437
 C911 C 0.52263 0.44284 0.53660
 C912 C 0.52454 0.41925 0.54409
 H913 H 0.51675 0.31371 0.53022
 H914 H 0.51577 0.27669 0.55393
 H915 H 0.50583 0.31622 0.62521
 H916 H 0.50716 0.35329 0.60090
 H917 H 0.49199 0.39231 0.49632
 H918 H 0.48860 0.43373 0.48288
 H919 H 0.53074 0.45654 0.54878
 H920 H 0.53401 0.41533 0.56164
 C921 C 0.50651 1.15603 0.57833
 C922 C 0.49510 1.16083 0.60183
 C923 C 0.49599 1.18387 0.61242
 C924 C 0.50817 1.20244 0.59953
 C925 C 0.52008 1.19724 0.57624
 C926 C 0.51919 1.17424 0.56572
 C927 C 0.50505 1.13251 0.56704
 C928 C 0.50370 1.11273 0.55779
 C929 C 0.50189 1.08883 0.54754
 C930 C 0.51116 1.08321 0.52316
 C931 C 0.51002 1.05967 0.51392
 C932 C 0.49952 1.04146 0.52895
 C933 C 0.49009 1.04752 0.55337
 C934 C 0.49121 1.07096 0.56248
 H935 H 0.48529 1.14683 0.61182
 H936 H 0.48663 1.18719 0.63028
 H937 H 0.53016 1.21094 0.56611
 H938 H 0.52829 1.17069 0.54766
 H939 H 0.51955 1.09694 0.51146
 H940 H 0.51778 1.05575 0.49529
 H941 H 0.48183 1.03416 0.56562
 H942 H 0.48396 1.07509 0.58136
 C943 C 0.00419 0.65765 1.07608
 C944 C -0.00661 0.66245 1.09992
 C945 C -0.00562 0.68552 1.11045
 C946 C 0.00609 0.70419 1.09721
 C947 C 0.01732 0.69902 1.07350
 C948 C 0.01633 0.67597 1.06303
 C949 C 0.00299 0.63392 1.06513
 C950 C 0.00207 0.61388 1.05642
 C951 C 0.00113 0.58956 1.04718
 C952 C -0.00135 0.57118 1.06496
 C953 C -0.00134 0.54749 1.05668
 C954 C 0.00069 0.54152 1.03025
 C955 C 0.00347 0.56021 1.01248
 C956 C 0.00351 0.58405 1.02087
 H957 H -0.01597 0.64838 1.11028
 H958 H -0.01451 0.68877 1.12861
 H959 H 0.02701 0.71277 1.06302
 H960 H 0.02500 0.67246 1.04472
 H961 H -0.00288 0.57517 1.08540
 H962 H -0.00251 0.53390 1.07129
 H963 H 0.00618 0.55649 0.99218
 H964 H 0.00579 0.59814 1.00691
 C965 C 0.50967 0.66894 -0.07201
 C966 C 0.51193 0.67201 -0.09865
 C967 C 0.50756 0.69411 -0.10971
 C968 C 0.50108 0.71385 -0.09425
 C969 C 0.49811 0.70998 -0.06743
 C970 C 0.50245 0.68790 -0.05653
 C971 C 0.51453 0.64633 -0.06053
 C972 C 0.51842 0.62728 -0.05109
 C973 C 0.52259 0.60410 -0.04061
 C974 C 0.53553 0.58769 -0.05501
 C975 C 0.53697 0.56419 -0.04681
 C976 C 0.52550 0.55662 -0.02394
 C977 C 0.51371 0.57366 -0.00879
 C978 C 0.51222 0.59721 -0.01713
 H979 H 0.51732 0.65735 -0.11091
 H980 H 0.51017 0.69543 -0.13025
 H981 H 0.49192 0.72369 -0.05449
 H982 H 0.50016 0.68563 -0.03593
 H983 H 0.54367 0.59279 -0.07319
 H984 H 0.54619 0.55173 -0.05910
 H985 H 0.50455 0.56861 0.00880
 H986 H 0.50215 0.60978 -0.00579
 C987 C 0.00835 1.16911 0.43002
 C988 C 0.01670 1.17389 0.40504
 C989 C 0.01323 1.19618 0.39402
 C990 C 0.00157 1.21408 0.40792
 C991 C -0.00755 1.20871 0.43264
 C992 C -0.00411 1.18646 0.44360
 C993 C 0.01264 1.14651 0.44180
 C994 C 0.01613 1.12746 0.45143
 C995 C 0.01996 1.10425 0.46197
 C996 C 0.03310 1.08786 0.44780
 C997 C 0.03425 1.06432 0.45590
 C998 C 0.02232 1.05668 0.47848
 C999 C 0.01034 1.07371 0.49346
 C1000 C 0.00911 1.09731 0.48519
 H1001 H 0.02620 1.16051 0.39424
 H1002 H 0.02037 1.19953 0.37503
 H1003 H -0.01723 1.22178 0.44368
 H1004 H -0.01094 1.18289 0.46279
 H1005 H 0.04161 1.09300 0.42982
 H1006 H 0.04362 1.05188 0.44371
 H1007 H 0.00083 1.06860 0.51082
 H1008 H -0.00112 1.10988 0.49635
 C1009 C 0.79485 0.66896 0.88546
 C1010 C 0.79298 0.64411 0.88514
 C1011 C 0.78802 0.63184 0.90788
 C1012 C 0.78432 0.64425 0.93127
 C1013 C 0.78787 0.66923 0.93160
 C1014 C 0.79280 0.68147 0.90878
 C1015 C 0.79553 0.68154 0.86150
 C1016 C 0.79374 0.69135 0.84112
 C1017 C 0.78851 0.70185 0.81676
 C1018 C 0.77461 0.68856 0.79933
 C1019 C 0.76490 0.69944 0.77801
 C1020 C 0.76935 0.72382 0.77326
 C1021 C 0.78432 0.73683 0.79035
 C1022 C 0.79379 0.72590 0.81203
 H1023 H 0.79450 0.63424 0.86716
 H1024 H 0.78636 0.61259 0.90708
 H1025 H 0.78677 0.67959 0.94919
 H1026 H 0.79431 0.70074 0.90922
 H1027 H 0.77002 0.67004 0.80307
 H1028 H 0.75285 0.68884 0.76608
 H1029 H 0.78760 0.75573 0.78795
 H1030 H 0.80416 0.73647 0.82574
 C1031 C 0.29900 0.16938 0.38674
 C1032 C 0.29726 0.18109 0.41056
 C1033 C 0.29166 0.16820 0.43280
 C1034 C 0.28708 0.14337 0.43138
 C1035 C 0.29082 0.13165 0.40759
 C1036 C 0.29645 0.14457 0.38542
 C1037 C 0.29959 0.18282 0.36332
 C1038 C 0.29753 0.19332 0.34336
 C1039 C 0.29181 0.20439 0.31942
 C1040 C 0.29745 0.22841 0.31484
 C1041 C 0.28784 0.23973 0.29343
 C1042 C 0.27237 0.22714 0.27650
 C1043 C 0.26740 0.20284 0.28123
 C1044 C 0.27725 0.19158 0.30222
 H1045 H 0.29934 0.20030 0.41182
 H1046 H 0.29064 0.17803 0.45074
 H1047 H 0.28836 0.11251 0.40595
 H1048 H 0.29773 0.13529 0.36705
 H1049 H 0.30833 0.23864 0.32838
 H1050 H 0.29154 0.25857 0.29102
 H1051 H 0.25500 0.19254 0.26943
 H1052 H 0.27238 0.17311 0.30583
 C1053 C 0.70900 0.33274 0.42172
 C1054 C 0.70792 0.35751 0.42327
 C1055 C 0.71301 0.36933 0.44647
 C1056 C 0.71970 0.35665 0.46850
 C1057 C 0.71899 0.33151 0.46713
 C1058 C 0.71392 0.31972 0.44381
 C1059 C 0.70830 0.32117 0.39688
 C1060 C 0.70968 0.31208 0.37581
 C1061 C 0.71371 0.30186 0.35071
 C1062 C 0.73029 0.31294 0.33432
 C1063 C 0.73715 0.30175 0.31145
 C1064 C 0.72732 0.27929 0.30439
 C1065 C 0.70996 0.26867 0.32062
 C1066 C 0.70324 0.27989 0.34365
 H1067 H 0.70417 0.36779 0.40627
 H1068 H 0.71279 0.38861 0.44694
 H1069 H 0.72280 0.32068 0.48356
 H1070 H 0.71471 0.30048 0.44279
 H1071 H 0.73867 0.32986 0.33972
 H1072 H 0.75071 0.31045 0.29973
 H1073 H 0.70232 0.25124 0.31624
 H1074 H 0.69058 0.27103 0.35639
 C1075 C 0.20671 0.83090 0.91208
 C1076 C 0.20690 0.85575 0.91303
 C1077 C 0.21238 0.86776 0.93601
 C1078 C 0.21824 0.85515 0.95837
 C1079 C 0.21616 0.83004 0.95762
 C1080 C 0.21071 0.81806 0.93452
 C1081 C 0.20581 0.81890 0.88753
 C1082 C 0.20719 0.80940 0.86669
 C1083 C 0.21142 0.79876 0.84186
 C1084 C 0.22774 0.80991 0.82524
 C1085 C 0.23498 0.79838 0.80274
 C1086 C 0.22573 0.77556 0.79622
 C1087 C 0.20875 0.76477 0.81277
 C1088 C 0.20165 0.77633 0.83547
 H1089 H 0.20385 0.86588 0.89575
 H1090 H 0.21305 0.88705 0.93608
 H1091 H 0.21908 0.81937 0.97442
 H1092 H 0.21047 0.79876 0.93397
 H1093 H 0.23565 0.82715 0.83020
 H1094 H 0.24838 0.80717 0.79086
 H1095 H 0.20172 0.74700 0.80895
 H1096 H 0.18929 0.76738 0.84847
 C1097 C 0.27115 0.84149 0.09385
 C1098 C 0.25841 0.82718 0.07630
 C1099 C 0.24972 0.83681 0.05364
 C1100 C 0.25352 0.86119 0.04786
 C1101 C 0.26694 0.87531 0.06561
 C1102 C 0.27556 0.86553 0.08838
 C1103 C 0.27711 0.83192 0.11858
 C1104 C 0.27995 0.82363 0.13966
 C1105 C 0.28031 0.81390 0.16523
 C1106 C 0.28987 0.79158 0.16994
 C1107 C 0.28554 0.78028 0.19359
 C1108 C 0.27133 0.79107 0.21263
 C1109 C 0.26285 0.81402 0.20790
 C1110 C 0.26749 0.82534 0.18460
 H1111 H 0.25445 0.80864 0.08056
 H1112 H 0.23898 0.82510 0.04147
 H1113 H 0.27134 0.89382 0.06206
 H1114 H 0.28532 0.87686 0.10193
 H1115 H 0.29956 0.78238 0.15491
 H1116 H 0.29206 0.76252 0.19622
 H1117 H 0.25134 0.82286 0.22153
 H1118 H 0.25969 0.84243 0.18109
 C1119 C 0.77296 0.34420 0.60418
 C1120 C 0.76003 0.32983 0.58685
 C1121 C 0.75109 0.33930 0.56426
 C1122 C 0.75488 0.36360 0.55823
 C1123 C 0.76830 0.37790 0.57588
 C1124 C 0.77717 0.36826 0.59866
 C1125 C 0.78001 0.33399 0.62826
 C1126 C 0.78358 0.32339 0.64792
 C1127 C 0.78450 0.30852 0.67033
 C1128 C 0.79248 0.31718 0.69430
 C1129 C 0.78824 0.30373 0.71662
 C1130 C 0.77492 0.28212 0.71528
 C1131 C 0.76942 0.27262 0.69066
 C1132 C 0.77408 0.28574 0.66851
 H1133 H 0.75629 0.31124 0.59112
 H1134 H 0.74030 0.32748 0.55228
 H1135 H 0.77262 0.39639 0.57218
 H1136 H 0.78713 0.37961 0.61200
 H1137 H 0.80092 0.33469 0.69594
 H1138 H 0.79419 0.31096 0.73496
 H1139 H 0.76015 0.25562 0.68829
 H1140 H 0.76811 0.27867 0.65004
 C1141 C 0.23912 0.15867 0.57064
 C1142 C 0.25637 0.17058 0.55574
 C1143 C 0.26360 0.16097 0.53216
 C1144 C 0.25362 0.13926 0.52300
 C1145 C 0.23608 0.12747 0.53795
 C1146 C 0.22890 0.13712 0.56170
 C1147 C 0.23388 0.16782 0.59601
 C1148 C 0.23167 0.17585 0.61752
 C1149 C 0.23192 0.18537 0.64338
 C1150 C 0.22128 0.20701 0.64943
 C1151 C 0.22528 0.21796 0.67353
 C1152 C 0.24018 0.20747 0.69170
 C1153 C 0.25003 0.18528 0.68554
 C1154 C 0.24581 0.17433 0.66174
 H1155 H 0.26469 0.18705 0.56265
 H1156 H 0.27749 0.17028 0.52145
 H1157 H 0.22786 0.11088 0.53129
 H1158 H 0.21569 0.12763 0.57323
 H1159 H 0.21073 0.21589 0.63519
 H1160 H 0.21758 0.23509 0.67738
 H1161 H 0.26172 0.17658 0.69879
 H1162 H 0.25436 0.15773 0.65719
 C1163 C 0.74132 0.66236 0.07205
 C1164 C 0.75532 0.67549 0.05467
 C1165 C 0.76232 0.66527 0.03128
 C1166 C 0.75535 0.64166 0.02476
 C1167 C 0.74126 0.62863 0.04244
 C1168 C 0.73429 0.63891 0.06590
 C1169 C 0.73635 0.67227 0.09713
 C1170 C 0.73397 0.68052 0.11851
 C1171 C 0.73371 0.68994 0.14439
 C1172 C 0.74688 0.67854 0.16310
 C1173 C 0.75047 0.68919 0.18717
 C1174 C 0.74067 0.71142 0.19322
 C1175 C 0.72641 0.72225 0.17468
 C1176 C 0.72306 0.71160 0.15032
 H1177 H 0.76132 0.69349 0.05947
 H1178 H 0.77377 0.67574 0.01868
 H1179 H 0.73558 0.61054 0.03837
 H1180 H 0.72376 0.62843 0.07943
 H1181 H 0.75539 0.66189 0.15867
 H1182 H 0.76172 0.68025 0.20067
 H1183 H 0.71877 0.73942 0.17847
 H1184 H 0.71300 0.72070 0.13584
 C1185 C 0.19439 0.59105 0.23311
 C1186 C 0.17269 0.58683 0.22060
 C1187 C 0.15979 0.56556 0.22456
 C1188 C 0.16858 0.54786 0.24078
 C1189 C 0.19062 0.55230 0.25308
 C1190 C 0.20346 0.57363 0.24911
 C1191 C 0.20531 0.61450 0.23265
 C1192 C 0.21295 0.63474 0.23378
 C1193 C 0.21999 0.65939 0.23710
 C1194 C 0.20527 0.67397 0.25169
 C1195 C 0.21172 0.69771 0.25624
 C1196 C 0.23312 0.70758 0.24623
 C1197 C 0.24778 0.69277 0.23126
 C1198 C 0.24125 0.66879 0.22676
 H1199 H 0.16513 0.60048 0.20879
 H1200 H 0.14240 0.56357 0.21584
 H1201 H 0.19748 0.53986 0.26678
 H1202 H 0.21990 0.57699 0.25952
 H1203 H 0.18881 0.66689 0.25990
 H1204 H 0.19995 0.70810 0.26810
 H1205 H 0.26441 0.69954 0.22325
 H1206 H 0.25284 0.65760 0.21546
 C1207 C 0.69935 0.08571 0.73872
 C1208 C 0.67959 0.08199 0.72276
 C1209 C 0.66574 0.06105 0.72462
 C1210 C 0.67165 0.04323 0.74225
 C1211 C 0.69186 0.04711 0.75793
 C1212 C 0.70566 0.06809 0.75603
 C1213 C 0.71065 0.10894 0.74024
 C1214 C 0.71846 0.12900 0.74278
 C1215 C 0.72557 0.15346 0.74725
 C1216 C 0.71025 0.16792 0.76124
 C1217 C 0.71622 0.19180 0.76565
 C1218 C 0.73774 0.20186 0.75619
 C1219 C 0.75320 0.18703 0.74226
 C1220 C 0.74713 0.16297 0.73782
 H1221 H 0.67414 0.09583 0.70983
 H1222 H 0.64971 0.05954 0.71322
 H1223 H 0.69636 0.03453 0.77265
 H1224 H 0.72051 0.07108 0.76902
 H1225 H 0.69352 0.16075 0.76867
 H1226 H 0.70374 0.20232 0.77647
 H1227 H 0.76989 0.19398 0.73457
 H1228 H 0.75914 0.15187 0.72694
 C1229 C 0.79487 0.08103 0.28465
 C1230 C 0.78632 0.06359 0.26737
 C1231 C 0.79940 0.04320 0.26262
 C1232 C 0.82118 0.03977 0.27530
 C1233 C 0.82919 0.05730 0.29318
 C1234 C 0.81603 0.07760 0.29794
 C1235 C 0.78468 0.10417 0.28505
 C1236 C 0.77805 0.12430 0.28370
 C1237 C 0.77248 0.14880 0.28005
 C1238 C 0.75165 0.15846 0.29005
 C1239 C 0.74655 0.18228 0.28531
 C1240 C 0.76222 0.19665 0.27044
 C1241 C 0.78315 0.18656 0.26075
 C1242 C 0.78820 0.16294 0.26553
 H1243 H 0.77030 0.06641 0.25640
 H1244 H 0.79312 0.03077 0.24789
 H1245 H 0.84635 0.05635 0.30234
 H1246 H 0.82318 0.09136 0.31075
 H1247 H 0.73933 0.14759 0.30129
 H1248 H 0.73023 0.18927 0.29311
 H1249 H 0.79559 0.19669 0.24897
 H1250 H 0.80433 0.15559 0.25760
 C1251 C 0.29539 0.57836 0.78326
 C1252 C 0.28628 0.55992 0.76758
 C1253 C 0.29928 0.53934 0.76363
 C1254 C 0.32154 0.53674 0.77557
 C1255 C 0.33008 0.55520 0.79200
 C1256 C 0.31701 0.57571 0.79595
 C1257 C 0.28515 0.60147 0.78239
 C1258 C 0.27831 0.62143 0.77990
 C1259 C 0.27231 0.64562 0.77496
 C1260 C 0.25140 0.65536 0.78464
 C1261 C 0.24595 0.67890 0.77893
 C1262 C 0.26137 0.69295 0.76341
 C1263 C 0.28235 0.68277 0.75394
 C1264 C 0.28773 0.65940 0.75967
 H1265 H 0.26988 0.56208 0.75707
 H1266 H 0.29257 0.52622 0.74987
 H1267 H 0.34759 0.55471 0.80048
 H1268 H 0.32456 0.59018 0.80753
 H1269 H 0.23931 0.64478 0.79647
 H1270 H 0.22964 0.68597 0.78663
 H1271 H 0.29468 0.69270 0.74185
 H1272 H 0.30394 0.65199 0.75200
 C1273 C 0.31544 0.40612 0.73009
 C1274 C 0.33911 0.41020 0.73755
 C1275 C 0.34765 0.43336 0.74271
 C1276 C 0.33256 0.45280 0.74069
 C1277 C 0.30902 0.44856 0.73216
 C1278 C 0.30052 0.42538 0.72702
 C1279 C 0.30612 0.38209 0.72772
 C1280 C 0.29884 0.36171 0.72723
 C1281 C 0.29116 0.33711 0.72860
 C1282 C 0.30349 0.32200 0.74463
 C1283 C 0.29596 0.29836 0.74736
 C1284 C 0.27585 0.28916 0.73406
 C1285 C 0.26361 0.30452 0.71772
 C1286 C 0.27121 0.32836 0.71505
 H1287 H 0.35080 0.39539 0.74011
 H1288 H 0.36580 0.43579 0.74915
 H1289 H 0.29704 0.46312 0.72970
 H1290 H 0.28217 0.42245 0.72123
 H1291 H 0.31887 0.32859 0.75533
 H1292 H 0.30590 0.28745 0.76026
 H1293 H 0.24806 0.29825 0.70717
 H1294 H 0.26144 0.33997 0.70266
 C1295 C 0.81539 0.90993 0.23163
 C1296 C 0.83980 0.91445 0.23453
 C1297 C 0.84853 0.93763 0.23931
 C1298 C 0.83289 0.95686 0.24159
 C1299 C 0.80833 0.95194 0.23762
 C1300 C 0.79973 0.92876 0.23282
 C1301 C 0.80632 0.88579 0.22956
 C1302 C 0.79912 0.86538 0.22922
 C1303 C 0.79142 0.84079 0.23064
 C1304 C 0.80370 0.82568 0.24673
 C1305 C 0.79613 0.80205 0.24944
 C1306 C 0.77605 0.79287 0.23607
 C1307 C 0.76387 0.80823 0.21970
 C1308 C 0.77151 0.83206 0.21704
 H1309 H 0.85208 0.89992 0.23387
 H1310 H 0.86741 0.93978 0.24249
 H1311 H 0.79548 0.96590 0.23788
 H1312 H 0.78078 0.92548 0.23048
 H1313 H 0.81906 0.83226 0.25747
 H1314 H 0.80604 0.79111 0.26235
 H1315 H 0.74835 0.80198 0.20909
 H1316 H 0.76178 0.84368 0.20460
 C1317 C 0.67472 0.91103 0.77602
 C1318 C 0.65085 0.91445 0.76999
 C1319 C 0.64235 0.93746 0.76754
 C1320 C 0.65772 0.95751 0.77061
 C1321 C 0.68128 0.95377 0.77866
 C1322 C 0.68974 0.93073 0.78108
 C1323 C 0.68419 0.88753 0.77438
 C1324 C 0.69183 0.86785 0.77133
 C1325 C 0.70030 0.84439 0.76581
 C1326 C 0.68560 0.82814 0.75244
 C1327 C 0.69411 0.80606 0.74486
 C1328 C 0.71760 0.79969 0.75050
 C1329 C 0.73214 0.81610 0.76442
 C1330 C 0.72356 0.83831 0.77194
 H1331 H 0.63899 0.89930 0.76619
 H1332 H 0.62399 0.93915 0.76224
 H1333 H 0.69351 0.96854 0.78255
 H1334 H 0.70821 0.92831 0.78603
 H1335 H 0.66766 0.83276 0.74728
 H1336 H 0.68239 0.79440 0.73375
 H1337 H 0.75029 0.81203 0.76920
 H1338 H 0.73519 0.85087 0.78211
 C1339 C 0.17913 0.41591 0.27556
 C1340 C 0.19389 0.43610 0.27904
 C1341 C 0.18461 0.45884 0.27689
 C1342 C 0.16042 0.46179 0.27075
 C1343 C 0.14552 0.44126 0.26897
 C1344 C 0.15485 0.41857 0.27115
 C1345 C 0.18904 0.39256 0.27412
 C1346 C 0.19676 0.37287 0.27139
 C1347 C 0.20504 0.34923 0.26638
 C1348 C 0.22814 0.34291 0.27293
 C1349 C 0.23642 0.32039 0.26611
 C1350 C 0.22173 0.30388 0.25249
 C1351 C 0.19842 0.31050 0.24642
 C1352 C 0.19020 0.33289 0.25330
 H1353 H 0.21272 0.43428 0.28268
 H1354 H 0.19661 0.47403 0.27959
 H1355 H 0.12681 0.44232 0.26489
 H1356 H 0.14320 0.40304 0.26852
 H1357 H 0.23987 0.35551 0.28292
 H1358 H 0.25445 0.31614 0.27118
 H1359 H 0.18660 0.29875 0.23553
 H1360 H 0.17238 0.33765 0.24786
 C1361 C 0.08921 0.23560 0.79098
 C1362 C 0.08362 0.25802 0.80090
 C1363 C 0.06450 0.26043 0.81799
 C1364 C 0.05099 0.24029 0.82604
 C1365 C 0.05594 0.21805 0.81459
 C1366 C 0.07508 0.21569 0.79752
 C1367 C 0.11071 0.23271 0.77624
 C1368 C 0.12966 0.23014 0.76572
 C1369 C 0.15338 0.22691 0.75597
 C1370 C 0.16242 0.24022 0.73525
 C1371 C 0.18674 0.23978 0.72912
 C1372 C 0.20230 0.22618 0.74385
 C1373 C 0.19260 0.21213 0.76389
 C1374 C 0.16842 0.21237 0.76971
 H1375 H 0.09432 0.27362 0.79579
 H1376 H 0.06043 0.27812 0.82481
 H1377 H 0.04517 0.20235 0.81904
 H1378 H 0.07914 0.19824 0.78982
 H1379 H 0.15094 0.25176 0.72464
 H1380 H 0.19348 0.25115 0.71388
 H1381 H 0.20383 0.20179 0.77613
 H1382 H 0.16170 0.20218 0.78595
 C1383 C 0.58874 0.73790 0.29164
 C1384 C 0.58315 0.75998 0.30245
 C1385 C 0.56379 0.76190 0.31932
 C1386 C 0.55000 0.74157 0.32622
 C1387 C 0.55498 0.71973 0.31390
 C1388 C 0.57436 0.71786 0.29706
 C1389 C 0.61048 0.73541 0.27716
 C1390 C 0.62959 0.73315 0.26686
 C1391 C 0.65345 0.73023 0.25734
 C1392 C 0.66251 0.74357 0.23665
 C1393 C 0.68687 0.74328 0.23064
 C1394 C 0.70246 0.72980 0.24547
 C1395 C 0.69276 0.71573 0.26550
 C1396 C 0.66854 0.71583 0.27119
 H1397 H 0.59404 0.77568 0.29822
 H1398 H 0.55980 0.77937 0.32681
 H1399 H 0.54408 0.70394 0.31761
 H1400 H 0.57842 0.70067 0.28870
 H1401 H 0.65099 0.75499 0.22593
 H1402 H 0.69362 0.75462 0.21538
 H1403 H 0.70399 0.70546 0.27779
 H1404 H 0.66181 0.70560 0.28740
 C1405 C 0.58296 0.25959 0.19768
 C1406 C 0.57133 0.28050 0.19173
 C1407 C 0.55209 0.27976 0.17474
 C1408 C 0.54449 0.25817 0.16288
 C1409 C 0.55548 0.23703 0.17032
 C1410 C 0.57470 0.23783 0.18735
 C1411 C 0.60467 0.26069 0.21227
 C1412 C 0.62373 0.26158 0.22284
 C1413 C 0.64746 0.26260 0.23311
 C1414 C 0.66529 0.27465 0.21922
 C1415 C 0.68898 0.27333 0.22664
 C1416 C 0.69539 0.26021 0.24844
 C1417 C 0.67718 0.24870 0.26280
 C1418 C 0.65336 0.24988 0.25515
 H1419 H 0.57751 0.29747 0.19969
 H1420 H 0.54347 0.29623 0.17034
 H1421 H 0.54951 0.21979 0.16319
 H1422 H 0.58345 0.22149 0.19202
 H1423 H 0.66098 0.28432 0.20195
 H1424 H 0.70232 0.28204 0.21463
 H1425 H 0.68133 0.23788 0.27921
 H1426 H 0.63971 0.24020 0.26587
 C1427 C 0.08072 0.76429 0.69444
 C1428 C 0.06598 0.74399 0.69180
 C1429 C 0.04634 0.74420 0.67539
 C1430 C 0.04154 0.76452 0.66072
 C1431 C 0.05551 0.78539 0.66514
 C1432 C 0.07510 0.78514 0.68160
 C1433 C 0.10291 0.76312 0.70798
 C1434 C 0.12237 0.76217 0.71749
 C1435 C 0.14650 0.76119 0.72638
 C1436 C 0.15229 0.74871 0.74861
 C1437 C 0.17618 0.74625 0.75545
 C1438 C 0.19454 0.75631 0.74013
 C1439 C 0.18830 0.76890 0.71790
 C1440 C 0.16455 0.77145 0.71126
 H1441 H 0.07005 0.72778 0.70182
 H1442 H 0.03529 0.72819 0.67358
 H1443 H 0.05163 0.80195 0.65586
 H1444 H 0.08625 0.80108 0.68377
 H1445 H 0.13842 0.74038 0.76026
 H1446 H 0.18018 0.73584 0.77220
 H1447 H 0.20175 0.77659 0.70526
 H1448 H 0.16030 0.78093 0.69385
 C1449 C 0.90661 0.76168 0.66693
 C1450 C 0.92360 0.77704 0.67836
 C1451 C 0.94673 0.77855 0.66837
 C1452 C 0.95321 0.76466 0.64681
 C1453 C 0.93587 0.74969 0.63508
 C1454 C 0.91273 0.74820 0.64512
 C1455 C 0.88305 0.75942 0.67786
 C1456 C 0.86326 0.75733 0.68682
 C1457 C 0.83941 0.75459 0.69684
 C1458 C 0.83353 0.76334 0.72139
 C1459 C 0.81008 0.76122 0.73055
 C1460 C 0.79219 0.75023 0.71528
 C1461 C 0.79847 0.74139 0.69066
 C1462 C 0.82184 0.74348 0.68162
 H1463 H 0.91904 0.78766 0.69515
 H1464 H 0.95959 0.79049 0.67762
 H1465 H 0.94037 0.73853 0.61872
 H1466 H 0.89972 0.73623 0.63613
 H1467 H 0.84699 0.77207 0.73332
 H1468 H 0.80598 0.76865 0.74931
 H1469 H 0.78535 0.73282 0.67821
 H1470 H 0.82616 0.73663 0.66260
 C1471 C 0.41009 0.26272 0.16907
 C1472 C 0.42798 0.27631 0.18139
 C1473 C 0.45109 0.27706 0.17128
 C1474 C 0.45665 0.26417 0.14869
 C1475 C 0.43843 0.25109 0.13603
 C1476 C 0.41530 0.25034 0.14621
 C1477 C 0.38657 0.26098 0.18024
 C1478 C 0.36683 0.25925 0.18941
 C1479 C 0.34300 0.25686 0.19963
 C1480 C 0.33728 0.26593 0.22410
 C1481 C 0.31384 0.26411 0.23339
 C1482 C 0.29581 0.25309 0.21834
 C1483 C 0.30195 0.24389 0.19382
 C1484 C 0.32529 0.24569 0.18466
 H1485 H 0.42416 0.28606 0.19901
 H1486 H 0.46467 0.28756 0.18129
 H1487 H 0.44220 0.24072 0.11884
 H1488 H 0.40159 0.23973 0.13651
 H1489 H 0.35086 0.27469 0.23586
 H1490 H 0.30985 0.27177 0.25208
 H1491 H 0.28873 0.23529 0.18152
 H1492 H 0.32948 0.23857 0.16571
 C1493 C 0.41699 0.75740 0.31497
 C1494 C 0.43278 0.74249 0.30213
 C1495 C 0.45499 0.73809 0.31283
 C1496 C 0.46175 0.74857 0.33657
 C1497 C 0.44559 0.76315 0.34963
 C1498 C 0.42335 0.76756 0.33886
 C1499 C 0.39420 0.76203 0.30370
 C1500 C 0.37495 0.76555 0.29447
 C1501 C 0.35151 0.76916 0.28431
 C1502 C 0.33495 0.78144 0.29915
 C1503 C 0.31130 0.78229 0.29124
 C1504 C 0.30372 0.77088 0.26821
 C1505 C 0.32085 0.75970 0.25267
 C1506 C 0.34456 0.75880 0.26073
 H1507 H 0.42799 0.73434 0.28377
 H1508 H 0.46689 0.72649 0.30247
 H1509 H 0.45039 0.77172 0.36775
 H1510 H 0.41123 0.77907 0.34903
 H1511 H 0.34009 0.78954 0.31743
 H1512 H 0.29878 0.79107 0.30383
 H1513 H 0.31579 0.75060 0.23495
 H1514 H 0.35724 0.74920 0.24906
 C1515 C 0.91934 0.26074 0.81726
 C1516 C 0.93671 0.25021 0.80198
 C1517 C 0.95893 0.24535 0.81233
 C1518 C 0.96442 0.25095 0.83837
 C1519 C 0.94645 0.26126 0.85367
 C1520 C 0.92420 0.26612 0.84316
 C1521 C 0.89627 0.26523 0.80656
 C1522 C 0.87664 0.26841 0.79813
 C1523 C 0.85253 0.27128 0.78958
 C1524 C 0.83487 0.27500 0.80805
 C1525 C 0.81099 0.27451 0.80098
 C1526 C 0.80413 0.27062 0.77507
 C1527 C 0.82215 0.26787 0.75637
 C1528 C 0.84620 0.26817 0.76360
 H1529 H 0.93303 0.24555 0.78202
 H1530 H 0.97141 0.23649 0.79981
 H1531 H 0.94956 0.26662 0.87347
 H1532 H 0.91081 0.27424 0.85524
 H1533 H 0.83947 0.27717 0.82823
 H1534 H 0.79798 0.27592 0.81630
 H1535 H 0.81768 0.26422 0.73641
 H1536 H 0.85974 0.26502 0.74911
 C1537 C 0.57774 0.96573 0.67262
 C1538 C 0.57972 0.99049 0.67579
 C1539 C 0.59374 1.00045 0.69547
 C1540 C 0.60591 0.98575 0.71237
 C1541 C 0.60324 0.96090 0.70968
 C1542 C 0.58930 0.95091 0.68979
 C1543 C 0.56601 0.95626 0.64998
 C1544 C 0.55713 0.95085 0.62955
 C1545 C 0.54798 0.94815 0.60380
 C1546 C 0.56183 0.95747 0.58374
 C1547 C 0.55155 0.96222 0.56008
 C1548 C 0.52719 0.95715 0.55565
 C1549 C 0.51395 0.94542 0.57515
 C1550 C 0.52423 0.94123 0.59924
 H1551 H 0.57104 1.00216 0.66247
 H1552 H 0.59544 1.01965 0.69722
 H1553 H 0.61284 0.94924 0.72204
 H1554 H 0.58822 0.93174 0.68728
 H1555 H 0.58012 0.96326 0.58713
 H1556 H 0.56234 0.97204 0.54633
 H1557 H 0.49513 0.94148 0.57274
 H1558 H 0.51322 0.93426 0.61477
 C1559 C 0.07445 0.46606 1.17948
 C1560 C 0.08922 0.45203 1.19435
 C1561 C 0.10357 0.46266 1.21351
 C1562 C 0.10343 0.48740 1.21771
 C1563 C 0.08799 0.50122 1.20333
 C1564 C 0.07354 0.49059 1.18441
 C1565 C 0.06321 0.45661 1.15655
 C1566 C 0.05510 0.45135 1.13572
 C1567 C 0.04734 0.44901 1.10941
 C1568 C 0.02403 0.44173 1.10307
 C1569 C 0.01521 0.44595 1.07829
 C1570 C 0.02944 0.45809 1.05989
 C1571 C 0.05330 0.46375 1.06625
 C1572 C 0.06218 0.45891 1.09053
 H1573 H 0.09049 0.43314 1.19034
 H1574 H 0.11577 0.45179 1.22387
 H1575 H 0.08766 0.52033 1.20625
 H1576 H 0.06248 0.50170 1.17275
 H1577 H 0.01224 0.43434 1.11769
 H1578 H -0.00332 0.44163 1.07440
 H1579 H 0.06473 0.47400 1.05348
 H1580 H 0.08011 0.46502 1.09530
 C1581 C -0.08947 0.02784 1.16616
 C1582 C -0.11252 0.03651 1.16765
 C1583 C -0.12698 0.03119 1.18889
 C1584 C -0.11861 0.01707 1.20901
 C1585 C -0.09538 0.00848 1.20743
 C1586 C -0.08091 0.01381 1.18608
 C1587 C -0.07571 0.03142 1.14298
 C1588 C -0.06541 0.03308 1.12260
 C1589 C -0.05481 0.03263 1.09730
 C1590 C -0.06636 0.01910 1.07819
 C1591 C -0.05528 0.01510 1.05459
 C1592 C -0.03244 0.02491 1.04926
 C1593 C -0.02145 0.03969 1.06812
 C1594 C -0.03255 0.04343 1.09210
 H1595 H -0.11949 0.04699 1.15214
 H1596 H -0.14489 0.03780 1.18934
 H1597 H -0.08830 -0.00210 1.22278
 H1598 H -0.06319 0.00675 1.18496
 H1599 H -0.08352 0.01057 1.08201
 H1600 H -0.06430 0.00319 1.04107
 H1601 H -0.00379 0.04728 1.06494
 H1602 H -0.02339 0.05389 1.10686
 C1603 C 0.41102 0.52622 0.66671
 C1604 C 0.38786 0.53459 0.66825
 C1605 C 0.37343 0.52891 0.68940
 C1606 C 0.38196 0.51474 0.70940
 C1607 C 0.40527 0.50638 0.70774
 C1608 C 0.41971 0.51207 0.68647
 C1609 C 0.42478 0.53027 0.64363
 C1610 C 0.43513 0.53234 0.62332
 C1611 C 0.44588 0.53235 0.59810
 C1612 C 0.43472 0.51877 0.57877
 C1613 C 0.44613 0.51501 0.55530
 C1614 C 0.46891 0.52512 0.55035
 C1615 C 0.47944 0.54004 0.56939
 C1616 C 0.46802 0.54352 0.59324
 H1617 H 0.38078 0.54515 0.65285
 H1618 H 0.35544 0.53531 0.68988
 H1619 H 0.41244 0.49572 0.72298
 H1620 H 0.43752 0.50523 0.68529
 H1621 H 0.41765 0.50993 0.58234
 H1622 H 0.43749 0.50294 0.54167
 H1623 H 0.49705 0.54787 0.56652
 H1624 H 0.47687 0.55402 0.60817
 C1625 C 0.42801 0.47202 -0.17483
 C1626 C 0.41268 0.45486 -0.18617
 C1627 C 0.39542 0.46181 -0.20382
 C1628 C 0.39322 0.48596 -0.20984
 C1629 C 0.40929 0.50285 -0.19925
 C1630 C 0.42663 0.49591 -0.18194
 C1631 C 0.44245 0.46646 -0.15296
 C1632 C 0.45332 0.46458 -0.13313
 C1633 C 0.46440 0.46604 -0.10817
 C1634 C 0.48689 0.45688 -0.10344
 C1635 C 0.49856 0.46227 -0.08009
 C1636 C 0.48793 0.47714 -0.06147
 C1637 C 0.46499 0.48548 -0.06640
 C1638 C 0.45332 0.47976 -0.08928
 H1639 H 0.41328 0.43640 -0.18046
 H1640 H 0.38291 0.44860 -0.21143
 H1641 H 0.40782 0.52156 -0.20366
 H1642 H 0.43815 0.50939 -0.17305
 H1643 H 0.49578 0.44646 -0.11811
 H1644 H 0.51631 0.45583 -0.07726
 H1645 H 0.45625 0.49740 -0.05308
 H1646 H 0.43606 0.48721 -0.09281
 C1647 C -0.07360 0.97353 0.32534
 C1648 C -0.08834 0.95658 0.31278
 C1649 C -0.10515 0.96394 0.29481
 C1650 C -0.10754 0.98827 0.28981
 C1651 C -0.09193 1.00496 0.30153
 C1652 C -0.07502 0.99762 0.31908
 C1653 C -0.05977 0.96752 0.34749
 C1654 C -0.04933 0.96546 0.36757
 C1655 C -0.03862 0.96678 0.39270
 C1656 C -0.01614 0.95769 0.39760
 C1657 C -0.00467 0.96306 0.42104
 C1658 C -0.01549 0.97781 0.43964
 C1659 C -0.03840 0.98614 0.43455
 C1660 C -0.04987 0.98045 0.41153
 H1661 H -0.08766 0.93794 0.31776
 H1662 H -0.11724 0.95086 0.28615
 H1663 H -0.09349 1.02380 0.29785
 H1664 H -0.06392 1.01092 0.32887
 H1665 H -0.00709 0.94738 0.38296
 H1666 H 0.01310 0.95671 0.42393
 H1667 H -0.04723 0.99801 0.44784
 H1668 H -0.06711 0.98788 0.40784
 C1669 C 0.07360 0.52444 0.34269
 C1670 C 0.07846 0.54321 0.32581
 C1671 C 0.09382 0.53996 0.30484
 C1672 C 0.10464 0.51791 0.30056
 C1673 C 0.09919 0.49900 0.31727
 C1674 C 0.08382 0.50229 0.33823
 C1675 C 0.05955 0.52813 0.36562
 C1676 C 0.04889 0.53008 0.38575
 C1677 C 0.03790 0.53031 0.41088
 C1678 C 0.04911 0.51835 0.43062
 C1679 C 0.03803 0.51566 0.45446
 C1680 C 0.01548 0.52523 0.45937
 C1681 C 0.00466 0.53816 0.43968
 C1682 C 0.01580 0.54062 0.41549
 H1683 H 0.07070 0.56043 0.32908
 H1684 H 0.09728 0.55476 0.29203
 H1685 H 0.10741 0.48192 0.31468
 H1686 H 0.08033 0.48768 0.35132
 H1687 H 0.06615 0.51023 0.42729
 H1688 H 0.04697 0.50527 0.46873
 H1689 H -0.01277 0.54550 0.44256
 H1690 H 0.00690 0.54987 0.40024
 C1691 C 0.57010 0.02365 -0.16367
 C1692 C 0.57625 0.04209 -0.18052
 C1693 C 0.59214 0.03807 -0.20083
 C1694 C 0.60223 0.01558 -0.20444
 C1695 C 0.59530 -0.00307 -0.18798
 C1696 C 0.57938 0.00099 -0.16767
 C1697 C 0.55613 0.02830 -0.14091
 C1698 C 0.54572 0.03113 -0.12076
 C1699 C 0.53516 0.03240 -0.09545
 C1700 C 0.54714 0.02191 -0.07524
 C1701 C 0.53635 0.01963 -0.05120
 C1702 C 0.51333 0.02818 -0.04656
 C1703 C 0.50183 0.03991 -0.06670
 C1704 C 0.51266 0.04190 -0.09109
 H1705 H 0.56925 0.05970 -0.17759
 H1706 H 0.59677 0.05268 -0.21351
 H1707 H 0.60291 -0.02048 -0.19009
 H1708 H 0.57490 -0.01337 -0.15457
 H1709 H 0.56449 0.01440 -0.07838
 H1710 H 0.54578 0.01001 -0.03666
 H1711 H 0.48402 0.04641 -0.06405
 H1712 H 0.50317 0.05000 -0.10671
 C1713 C 0.68890 0.55239 -0.03166
 C1714 C 0.70224 0.55635 -0.05411
 C1715 C 0.72353 0.56980 -0.05300
 C1716 C 0.73162 0.57986 -0.02945
 C1717 C 0.71881 0.57437 -0.00683
 C1718 C 0.69757 0.56088 -0.00795
 C1719 C 0.66518 0.54212 -0.03307
 C1720 C 0.64470 0.53512 -0.03333
 C1721 C 0.61974 0.52874 -0.03220
 C1722 C 0.60430 0.54454 -0.02029
 C1723 C 0.58024 0.53851 -0.01756
 C1724 C 0.57096 0.51648 -0.02677
 C1725 C 0.58660 0.50083 -0.03928
 C1726 C 0.61085 0.50693 -0.04195
 H1727 H 0.69577 0.54979 -0.07259
 H1728 H 0.73327 0.57281 -0.07078
 H1729 H 0.72437 0.58132 0.01166
 H1730 H 0.68738 0.55795 0.00958
 H1731 H 0.61097 0.56142 -0.01253
 H1732 H 0.56922 0.55089 -0.00723
 H1733 H 0.58030 0.48366 -0.04650
 H1734 H 0.62268 0.49451 -0.05119
 C1735 C 0.18377 1.05654 0.46459
 C1736 C 0.18674 1.07689 0.44954
 C1737 C 0.20807 1.09013 0.45024
 C1738 C 0.22698 1.08318 0.46597
 C1739 C 0.22400 1.06247 0.48080
 C1740 C 0.20249 1.04924 0.48014
 C1741 C 0.16070 1.04481 0.46566
 C1742 C 0.14061 1.03680 0.46691
 C1743 C 0.11595 1.02953 0.46934
 C1744 C 0.10058 1.04471 0.48230
 C1745 C 0.07665 1.03832 0.48532
 C1746 C 0.06740 1.01653 0.47538
 C1747 C 0.08299 1.00143 0.46203
 C1748 C 0.10713 1.00791 0.45902
 H1749 H 0.17225 1.08296 0.43779
 H1750 H 0.20935 1.10628 0.43908
 H1751 H 0.23820 1.05652 0.49296
 H1752 H 0.20030 1.03364 0.49210
 H1753 H 0.10717 1.06148 0.49039
 H1754 H 0.06566 1.05033 0.49620
 H1755 H 0.07669 0.98447 0.45422
 H1756 H 0.11889 0.99603 0.44886
 C1757 C 0.16034 -0.05414 1.03616
 C1758 C 0.18224 -0.04476 1.02733
 C1759 C 0.20111 -0.05998 1.02225
 C1760 C 0.19796 -0.08462 1.02558
 C1761 C 0.17657 -0.09365 1.03611
 C1762 C 0.15791 -0.07847 1.04148
 C1763 C 0.13912 -0.04044 1.03489
 C1764 C 0.12022 -0.03125 1.03178
 C1765 C 0.09680 -0.02322 1.02582
 C1766 C 0.08761 -0.00244 1.03667
 C1767 C 0.06438 0.00420 1.03072
 C1768 C 0.05009 -0.00991 1.01389
 C1769 C 0.05983 -0.03063 1.00310
 C1770 C 0.08285 -0.03714 1.00898
 H1771 H 0.18421 -0.02605 1.02273
 H1772 H 0.21736 -0.05281 1.01370
 H1773 H 0.17379 -0.11265 1.03853
 H1774 H 0.14099 -0.08600 1.04795
 H1775 H 0.09826 0.00848 1.04980
 H1776 H 0.05762 0.02022 1.03953
 H1777 H 0.04964 -0.04223 0.99032
 H1778 H 0.08971 -0.05331 1.00052
 C1779 C 0.66239 0.44892 0.54464
 C1780 C 0.65957 0.42474 0.55049
 C1781 C 0.67801 0.40918 0.54558
 C1782 C 0.69956 0.41771 0.53500
 C1783 C 0.70313 0.44225 0.53122
 C1784 C 0.68448 0.45783 0.53583
 C1785 C 0.64136 0.46276 0.54245
 C1786 C 0.62262 0.47191 0.53844
 C1787 C 0.59939 0.47963 0.53129
 C1788 C 0.58633 0.46542 0.51393
 C1789 C 0.56339 0.47141 0.50713
 C1790 C 0.55287 0.49191 0.51747
 C1791 C 0.56631 0.50638 0.53476
 C1792 C 0.58945 0.50024 0.54166
 H1793 H 0.64249 0.41756 0.55693
 H1794 H 0.67493 0.39026 0.54835
 H1795 H 0.71952 0.44903 0.52264
 H1796 H 0.68674 0.47642 0.53078
 H1797 H 0.59378 0.44934 0.50587
 H1798 H 0.55381 0.45947 0.49416
 H1799 H 0.55890 0.52223 0.54328
 H1800 H 0.59941 0.51137 0.55522
 C1801 C -0.18162 0.44856 0.49926
 C1802 C -0.20023 0.45489 0.51582
 C1803 C -0.22081 0.44032 0.51746
 C1804 C -0.22286 0.41925 0.50261
 C1805 C -0.20405 0.41327 0.48592
 C1806 C -0.18369 0.42784 0.48423
 C1807 C -0.15924 0.46151 0.49938
 C1808 C -0.13947 0.47029 0.49970
 C1809 C -0.11500 0.47819 0.50094
 C1810 C -0.10644 0.49803 0.48727
 C1811 C -0.08226 0.50470 0.48845
 C1812 C -0.06637 0.49151 0.50324
 C1813 C -0.07541 0.47151 0.51664
 C1814 C -0.09940 0.46497 0.51548
 H1815 H -0.19864 0.47077 0.52781
 H1816 H -0.23499 0.44552 0.53034
 H1817 H -0.20461 0.39689 0.47473
 H1818 H -0.16920 0.42253 0.47175
 H1819 H -0.11841 0.50829 0.47577
 H1820 H -0.07612 0.52026 0.47796
 H1821 H -0.06408 0.46089 0.52842
 H1822 H -0.10580 0.44949 0.52601
 C1823 C 0.31721 -0.05317 -0.00957
 C1824 C 0.29850 -0.04699 0.00693
 C1825 C 0.27789 -0.06157 0.00829
 C1826 C 0.27590 -0.08251 -0.00678
 C1827 C 0.29481 -0.08835 -0.02339
 C1828 C 0.31521 -0.07378 -0.02480
 C1829 C 0.33955 -0.04007 -0.00930
 C1830 C 0.35922 -0.03103 -0.00885
 C1831 C 0.38359 -0.02269 -0.00742
 C1832 C 0.39175 -0.00228 -0.02038
 C1833 C 0.41578 0.00497 -0.01881
 C1834 C 0.43193 -0.00819 -0.00434
 C1835 C 0.42330 -0.02878 0.00833
 C1836 C 0.39947 -0.03590 0.00678
 H1837 H 0.30000 -0.03119 0.01905
 H1838 H 0.26363 -0.05646 0.02112
 H1839 H 0.29428 -0.10463 -0.03476
 H1840 H 0.32975 -0.07898 -0.03726
 H1841 H 0.37958 0.00802 -0.03159
 H1842 H 0.42159 0.02096 -0.02874
 H1843 H 0.43479 -0.03939 0.01992
 H1844 H 0.39339 -0.05179 0.01680
 C1845 C 0.34059 1.05437 0.52026
 C1846 C 0.34577 1.07857 0.51638
 C1847 C 0.32882 1.09312 0.50571
 C1848 C 0.30632 1.08373 0.49885
 C1849 C 0.30063 1.05973 0.50402
 C1850 C 0.31784 1.04498 0.51446
 C1851 C 0.35999 1.03941 0.52695
 C1852 C 0.37837 1.02939 0.53055
 C1853 C 0.40227 1.02095 0.53208
 C1854 C 0.42058 1.03668 0.52466
 C1855 C 0.44372 1.02893 0.52218
 C1856 C 0.44943 1.00522 0.52751
 C1857 C 0.43098 0.98961 0.53601
 C1858 C 0.40747 0.99740 0.53812
 H1859 H 0.36333 1.08602 0.52061
 H1860 H 0.33349 1.11165 0.50221
 H1861 H 0.28338 1.05215 0.49879
 H1862 H 0.31372 1.02622 0.51710
 H1863 H 0.41676 1.05482 0.51946
 H1864 H 0.45660 1.04140 0.51424
 H1865 H 0.43446 0.97115 0.53995
 H1866 H 0.39335 0.98495 0.54363
 C1867 C -0.15248 0.55963 1.01734
 C1868 C -0.14744 0.58333 1.01079
 C1869 C -0.16542 0.59756 1.00164
 C1870 C -0.18877 0.58831 0.99889
 C1871 C -0.19403 0.56485 1.00666
 C1872 C -0.17589 0.55050 1.01568
 C1873 C -0.13299 0.54448 1.02304
 C1874 C -0.11561 0.53273 1.02606
 C1875 C -0.09388 0.51986 1.02750
 C1876 C -0.07714 0.52537 1.04670
 C1877 C -0.05434 0.51603 1.04524
 C1878 C -0.04778 0.50153 1.02421
 C1879 C -0.06540 0.49470 1.00610
 C1880 C -0.08815 0.50397 1.00764
 H1881 H -0.12941 0.59057 1.01190
 H1882 H -0.16097 0.61570 0.99617
 H1883 H -0.21185 0.55730 1.00459
 H1884 H -0.17995 0.53211 1.02050
 H1885 H -0.08139 0.53761 1.06224
 H1886 H -0.04173 0.52084 1.06014
 H1887 H -0.06133 0.48334 0.98977
 H1888 H -0.10092 0.49964 0.99259
 C1889 C -0.00724 0.67727 0.55967
 C1890 C -0.00135 0.67464 0.58564
 C1891 C 0.00049 0.69448 0.60193
 C1892 C -0.00356 0.71734 0.59251
 C1893 C -0.01028 0.71989 0.56659
 C1894 C -0.01200 0.69990 0.55016
 C1895 C -0.00720 0.65644 0.54327
 C1896 C -0.00600 0.63753 0.53220
 C1897 C -0.00337 0.61355 0.52280
 C1898 C 0.01075 0.59856 0.53711
 C1899 C 0.01077 0.57427 0.53172
 C1900 C -0.00303 0.56437 0.51146
 C1901 C -0.01620 0.57982 0.49612
 C1902 C -0.01649 0.60430 0.50189
 H1903 H 0.00228 0.65722 0.59323
 H1904 H 0.00534 0.69196 0.62189
 H1905 H -0.01330 0.73736 0.55883
 H1906 H -0.01653 0.70214 0.53007
 H1907 H 0.02083 0.60546 0.55346
 H1908 H 0.02084 0.56316 0.54436
 H1909 H -0.02727 0.57290 0.48060
 H1910 H -0.02766 0.61575 0.49079
 C1911 C 0.48983 0.17791 0.05785
 C1912 C 0.48882 0.20117 0.04847
 C1913 C 0.49174 0.22066 0.06546
 C1914 C 0.49602 0.21697 0.09180
 C1915 C 0.49614 0.19359 0.10107
 C1916 C 0.49304 0.17425 0.08424
 C1917 C 0.48955 0.15740 0.04092
 C1918 C 0.49057 0.13867 0.02941
 C1919 C 0.49313 0.11482 0.01951
 C1920 C 0.48031 0.10599 -0.00183
 C1921 C 0.48080 0.08163 -0.00828
 C1922 C 0.49389 0.06588 0.00678
 C1923 C 0.50733 0.07538 0.02754
 C1924 C 0.50710 0.09952 0.03362
 H1925 H 0.48649 0.20422 0.02806
 H1926 H 0.49180 0.23848 0.05783
 H1927 H 0.49915 0.19027 0.12133
 H1928 H 0.49388 0.15636 0.09174
 H1929 H 0.46926 0.11766 -0.01280
 H1930 H 0.47002 0.07501 -0.02419
 H1931 H 0.51732 0.06404 0.04000
 H1932 H 0.51696 0.10608 0.05028
 C1933 C -0.00679 0.16586 0.93251
 C1934 C 0.00088 0.16090 0.90736
 C1935 C 0.00475 0.17930 0.88986
 C1936 C 0.00109 0.20313 0.89715
 C1937 C -0.00732 0.20798 0.92222
 C1938 C -0.01116 0.18944 0.93986
 C1939 C -0.00993 0.14631 0.95018
 C1940 C -0.01208 0.12845 0.96288
 C1941 C -0.01442 0.10548 0.97501
 C1942 C -0.00189 0.10010 0.99746
 C1943 C -0.00145 0.07652 1.00622
 C1944 C -0.01329 0.05801 0.99243
 C1945 C -0.02649 0.06399 0.97045
 C1946 C -0.02717 0.08741 0.96203
 H1947 H 0.00409 0.14274 0.90131
 H1948 H 0.01077 0.17485 0.87056
 H1949 H -0.01020 0.22607 0.92848
 H1950 H -0.01722 0.19352 0.95924
 H1951 H 0.00830 0.11391 1.00755
 H1952 H 0.00910 0.07266 1.02300
 H1953 H -0.03561 0.05045 0.95893
 H1954 H -0.03672 0.09121 0.94450
 C1955 C 0.49369 0.66480 0.43217
 C1956 C 0.50298 0.66018 0.40761
 C1957 C 0.50668 0.67865 0.39015
 C1958 C 0.50123 0.70222 0.39694
 C1959 C 0.49129 0.70667 0.42144
 C1960 C 0.48761 0.68807 0.43901
 C1961 C 0.49048 0.64525 0.44978
 C1962 C 0.48835 0.62748 0.46258
 C1963 C 0.48620 0.60466 0.47498
 C1964 C 0.49818 0.59995 0.49796
 C1965 C 0.49901 0.57653 0.50712
 C1966 C 0.48811 0.55755 0.49320
 C1967 C 0.47537 0.56285 0.47069
 C1968 C 0.47431 0.58611 0.46185
 H1969 H 0.50750 0.64223 0.40194
 H1970 H 0.51383 0.67443 0.37126
 H1971 H 0.48695 0.72452 0.42733
 H1972 H 0.48027 0.69187 0.45792
 H1973 H 0.50770 0.61415 0.50817
 H1974 H 0.50916 0.57320 0.52434
 H1975 H 0.46693 0.54891 0.45910
 H1976 H 0.46517 0.58942 0.44393
 C1977 C 0.50243 0.82354 0.43404
 C1978 C 0.49220 0.80117 0.43959
 C1979 C 0.49433 0.78225 0.42188
 C1980 C 0.50689 0.78546 0.39854
 C1981 C 0.51661 0.80822 0.39305
 C1982 C 0.51445 0.82699 0.41065
 C1983 C 0.50083 0.84345 0.45168
 C1984 C 0.50074 0.86163 0.46431
 C1985 C 0.50209 0.88496 0.47615
 C1986 C 0.49248 0.88982 0.50061
 C1987 C 0.49324 0.91322 0.51054
 C1988 C 0.50353 0.93194 0.49602
 C1989 C 0.51345 0.92651 0.47169
 C1990 C 0.51280 0.90334 0.46200
 H1991 H 0.48270 0.79832 0.45757
 H1992 H 0.48651 0.76514 0.42675
 H1993 H 0.52576 0.81167 0.37500
 H1994 H 0.52221 0.84429 0.40596
 H1995 H 0.48412 0.87568 0.51176
 H1996 H 0.48538 0.91672 0.52926
 H1997 H 0.52165 0.94018 0.45980
 H1998 H 0.52036 0.89983 0.44310
 C1999 C 0.00837 0.32469 0.93383
 C2000 C -0.00299 0.30287 0.93955
 C2001 C -0.00204 0.28378 0.92188
 C2002 C 0.01045 0.28627 0.89840
 C2003 C 0.02129 0.30851 0.89273
 C2004 C 0.02030 0.32745 0.91029
 C2005 C 0.00795 0.34471 0.95149
 C2006 C 0.00866 0.36273 0.96441
 C2007 C 0.01059 0.38566 0.97714
 C2008 C -0.00075 0.39031 1.00074
 C2009 C -0.00017 0.41348 1.01125
 C2010 C 0.01160 0.43226 0.99812
 C2011 C 0.02353 0.42702 0.97484
 C2012 C 0.02309 0.40400 0.96459
 H2013 H -0.01245 0.30056 0.95764
 H2014 H -0.01070 0.26708 0.92689
 H2015 H 0.03044 0.31144 0.87458
 H2016 H 0.02891 0.34433 0.90547
 H2017 H -0.01051 0.37623 1.01065
 H2018 H -0.00960 0.41679 1.02913
 H2019 H 0.03284 0.44080 0.96405
 H2020 H 0.03196 0.40066 0.94635
 C2021 C 0.50657 0.33636 0.05102
 C2022 C 0.49479 0.31454 0.04589
 C2023 C 0.49525 0.29619 0.06403
 C2024 C 0.50753 0.29946 0.08748
 C2025 C 0.51902 0.32163 0.09241
 C2026 C 0.51860 0.33980 0.07434
 C2027 C 0.50532 0.35614 0.03365
 C2028 C 0.50460 0.37429 0.02149
 C2029 C 0.50375 0.39766 0.01042
 C2030 C 0.49248 0.41534 0.02464
 C2031 C 0.49430 0.43897 0.01705
 C2032 C 0.50712 0.44557 -0.00534
 C2033 C 0.51767 0.42752 -0.02021
 C2034 C 0.51611 0.40367 -0.01227
 H2035 H 0.48512 0.31178 0.02803
 H2036 H 0.48613 0.27952 0.05952
 H2037 H 0.52802 0.32524 0.11050
 H2038 H 0.52739 0.35675 0.07877
 H2039 H 0.48310 0.41101 0.04237
 H2040 H 0.48607 0.45214 0.02932
 H2041 H 0.52791 0.43188 -0.03733
 H2042 H 0.52518 0.39014 -0.02328
 C2043 C -0.00135 0.83282 0.54347
 C2044 C -0.02199 0.82432 0.55596
 C2045 C -0.02058 0.80656 0.57460
 C2046 C 0.00157 0.79739 0.58114
 C2047 C 0.02201 0.80517 0.56754
 C2048 C 0.02055 0.82281 0.54889
 C2049 C -0.00194 0.85411 0.52831
 C2050 C -0.00200 0.87314 0.51778
 C2051 C -0.00190 0.89713 0.50831
 C2052 C -0.01228 0.91457 0.52369
 C2053 C -0.00978 0.93847 0.51725
 C2054 C 0.00290 0.94555 0.49495
 C2055 C 0.01269 0.92779 0.47905
 C2056 C 0.01038 0.90369 0.48577
 H2057 H -0.03900 0.83218 0.55219
 H2058 H -0.03656 0.80099 0.58487
 H2059 H 0.03925 0.79807 0.57181
 H2060 H 0.03667 0.82937 0.53953
 H2061 H -0.02161 0.90976 0.54131
 H2062 H -0.01749 0.95141 0.53020
 H2063 H 0.02282 0.93250 0.46197
 H2064 H 0.01876 0.89031 0.47387
 C2065 C 0.22218 0.32816 0.07526
 C2066 C 0.24692 0.32826 0.07193
 C2067 C 0.25770 0.34180 0.05249
 C2068 C 0.24384 0.35536 0.03600
 C2069 C 0.21896 0.35453 0.03882
 C2070 C 0.20816 0.34107 0.05845
 C2071 C 0.21206 0.31702 0.09780
 C2072 C 0.20601 0.30852 0.11813
 C2073 C 0.20246 0.29956 0.14378
 C2074 C 0.21077 0.31369 0.16430
 C2075 C 0.21513 0.30352 0.18811
 C2076 C 0.21076 0.27900 0.19212
 C2077 C 0.19979 0.26550 0.17214
 C2078 C 0.19597 0.27567 0.14798
 H2079 H 0.25798 0.31853 0.08499
 H2080 H 0.27691 0.34211 0.05066
 H2081 H 0.20796 0.36524 0.02681
 H2082 H 0.18905 0.34145 0.06110
 H2083 H 0.21621 0.33211 0.16121
 H2084 H 0.22432 0.31455 0.20228
 H2085 H 0.19637 0.24657 0.17422
 H2086 H 0.18976 0.26446 0.13212
 C2087 C 0.71803 0.82843 0.57497
 C2088 C 0.74285 0.83015 0.57279
 C2089 C 0.75350 0.84455 0.55400
 C2090 C 0.73944 0.85737 0.53701
 C2091 C 0.71452 0.85497 0.53871
 C2092 C 0.70384 0.84065 0.55771
 C2093 C 0.70780 0.81620 0.59678
 C2094 C 0.70170 0.80685 0.61664
 C2095 C 0.69815 0.79708 0.64194
 C2096 C 0.69232 0.77292 0.64535
 C2097 C 0.69627 0.76224 0.66923
 C2098 C 0.70675 0.77550 0.68968
 C2099 C 0.71052 0.80021 0.68641
 C2100 C 0.70596 0.81087 0.66293
 H2101 H 0.75402 0.82095 0.58620
 H2102 H 0.77273 0.84598 0.55299
 H2103 H 0.70332 0.86502 0.52626
 H2104 H 0.68463 0.83975 0.55946
 H2105 H 0.68654 0.76197 0.62911
 H2106 H 0.69337 0.74317 0.67072
 H2107 H 0.71944 0.81111 0.70088
 H2108 H 0.71093 0.82949 0.66044
 C2109 C 0.27233 0.66283 0.58491
 C2110 C 0.29103 0.65870 0.56770
 C2111 C 0.28690 0.64530 0.54520
 C2112 C 0.26401 0.63578 0.53970
 C2113 C 0.24522 0.64056 0.55677
 C2114 C 0.24939 0.65397 0.57925
 C2115 C 0.27663 0.67500 0.60907
 C2116 C 0.27887 0.68440 0.62996
 C2117 C 0.27916 0.69453 0.65555
 C2118 C 0.28975 0.71692 0.66074
 C2119 C 0.28617 0.72806 0.68475
 C2120 C 0.27174 0.71699 0.70369
 C2121 C 0.26230 0.69393 0.69848
 C2122 C 0.26614 0.68280 0.67479
 H2123 H 0.30884 0.66549 0.57186
 H2124 H 0.30167 0.64226 0.53220
 H2125 H 0.22750 0.63324 0.55326
 H2126 H 0.23480 0.65696 0.59254
 H2127 H 0.29976 0.72624 0.64587
 H2128 H 0.29345 0.74590 0.68778
 H2129 H 0.25062 0.68488 0.71207
 H2130 H 0.25771 0.66555 0.67094
 C2131 C 0.76968 0.16590 0.09231
 C2132 C 0.78815 0.16179 0.07481
 C2133 C 0.78381 0.14818 0.05252
 C2134 C 0.76093 0.13839 0.04750
 C2135 C 0.74234 0.14314 0.06484
 C2136 C 0.74673 0.15677 0.08714
 C2137 C 0.77431 0.17832 0.11626
 C2138 C 0.77698 0.18791 0.13700
 C2139 C 0.77787 0.19818 0.16253
 C2140 C 0.78866 0.22056 0.16737
 C2141 C 0.78573 0.23175 0.19148
 C2142 C 0.77175 0.22076 0.21085
 C2143 C 0.76211 0.19771 0.20593
 C2144 C 0.76532 0.18654 0.18215
 H2145 H 0.80596 0.16878 0.07859
 H2146 H 0.79841 0.14522 0.03928
 H2147 H 0.72463 0.13566 0.06165
 H2148 H 0.73231 0.15975 0.10065
 H2149 H 0.79833 0.22981 0.15221
 H2150 H 0.79313 0.24958 0.19428
 H2151 H 0.75070 0.18873 0.21981
 H2152 H 0.75674 0.16930 0.17859
 C2153 C 0.71871 0.17960 0.92909
 C2154 C 0.74277 0.17845 0.93565
 C2155 C 0.75016 0.16194 0.95358
 C2156 C 0.73354 0.14648 0.96541
 C2157 C 0.70922 0.14859 0.96006
 C2158 C 0.70183 0.16497 0.94170
 C2159 C 0.71277 0.19274 0.90645
 C2160 C 0.71100 0.20237 0.88591
 C2161 C 0.71306 0.21167 0.86023
 C2162 C 0.70349 0.23342 0.85313
 C2163 C 0.70942 0.24340 0.82911
 C2164 C 0.72520 0.23183 0.81218
 C2165 C 0.73413 0.20974 0.81962
 C2166 C 0.72786 0.19970 0.84310
 H2167 H 0.75604 0.18942 0.92579
 H2168 H 0.76898 0.16061 0.95754
 H2169 H 0.69619 0.13662 0.96881
 H2170 H 0.68322 0.16540 0.93646
 H2171 H 0.69230 0.24306 0.86647
 H2172 H 0.70265 0.26067 0.82444
 H2173 H 0.74690 0.20046 0.80783
 H2174 H 0.73570 0.18306 0.84852
 C2175 C 0.22203 0.67474 0.41985
 C2176 C 0.24615 0.67313 0.42598
 C2177 C 0.25341 0.65685 0.44423
 C2178 C 0.23662 0.64204 0.45676
 C2179 C 0.21231 0.64450 0.45158
 C2180 C 0.20503 0.66070 0.43299
 C2181 C 0.21586 0.68829 0.39758
 C2182 C 0.21351 0.69858 0.37751
 C2183 C 0.21442 0.70922 0.35240
 C2184 C 0.20506 0.73161 0.34765
 C2185 C 0.21013 0.74311 0.32426
 C2186 C 0.22488 0.73244 0.30559
 C2187 C 0.23339 0.70956 0.31050
 C2188 C 0.22798 0.69804 0.33345
 H2189 H 0.25949 0.68370 0.41575
 H2190 H 0.27224 0.65525 0.44801
 H2191 H 0.19915 0.63299 0.46073
 H2192 H 0.18636 0.66151 0.42811
 H2193 H 0.19480 0.74059 0.36237
 H2194 H 0.20360 0.76084 0.32148
 H2195 H 0.24525 0.70082 0.29715
 H2196 H 0.23560 0.68087 0.33702
 C2197 C 0.77513 0.82453 0.41168
 C2198 C 0.75293 0.83459 0.41620
 C2199 C 0.74973 0.85019 0.43707
 C2200 C 0.76877 0.85601 0.45361
 C2201 C 0.79083 0.84526 0.44936
 C2202 C 0.79399 0.82968 0.42848
 C2203 C 0.77881 0.81049 0.38868
 C2204 C 0.78081 0.79990 0.36847
 C2205 C 0.78114 0.78897 0.34324
 C2206 C 0.76939 0.80031 0.32342
 C2207 C 0.76672 0.78924 0.29948
 C2208 C 0.77610 0.76658 0.29456
 C2209 C 0.78888 0.75567 0.31432
 C2210 C 0.79131 0.76680 0.33860
 H2211 H 0.73825 0.83087 0.40316
 H2212 H 0.73264 0.85834 0.43965
 H2213 H 0.80573 0.84903 0.46205
 H2214 H 0.81125 0.82205 0.42516
 H2215 H 0.76138 0.81741 0.32678
 H2216 H 0.75643 0.79824 0.28516
 H2217 H 0.79607 0.73816 0.31143
 H2218 H 0.80041 0.75781 0.35391
 C2219 C 0.27702 0.32217 0.90944
 C2220 C 0.25510 0.33260 0.91452
 C2221 C 0.25256 0.34817 0.93555
 C2222 C 0.27200 0.35360 0.95169
 C2223 C 0.29379 0.34250 0.94685
 C2224 C 0.29628 0.32695 0.92582
 C2225 C 0.28000 0.30799 0.88638
 C2226 C 0.28152 0.29721 0.86621
 C2227 C 0.28143 0.28598 0.84110
 C2228 C 0.26939 0.29708 0.82132
 C2229 C 0.26654 0.28580 0.79749
 C2230 C 0.27599 0.26317 0.79264
 C2231 C 0.28898 0.25246 0.81237
 C2232 C 0.29162 0.26380 0.83653
 H2233 H 0.24010 0.32916 0.90183
 H2234 H 0.23566 0.35659 0.93859
 H2235 H 0.30898 0.34596 0.95921
 H2236 H 0.31333 0.31903 0.92208
 H2237 H 0.26136 0.31419 0.82460
 H2238 H 0.25610 0.29467 0.78319
 H2239 H 0.29622 0.23496 0.80955
 H2240 H 0.30094 0.25498 0.85179
 C2241 C 0.80236 0.42893 0.77485
 C2242 C 0.79556 0.44813 0.75977
 C2243 C 0.80850 0.46983 0.76099
 C2244 C 0.82831 0.47247 0.77736
 C2245 C 0.83493 0.45298 0.79231
 C2246 C 0.82203 0.43147 0.79109
 C2247 C 0.79009 0.40615 0.77336
 C2248 C 0.78124 0.38636 0.77293
 C2249 C 0.77235 0.36210 0.77301
 C2250 C 0.75760 0.35340 0.75323
 C2251 C 0.75117 0.32919 0.75206
 C2252 C 0.75987 0.31321 0.77036
 C2253 C 0.77356 0.32249 0.79096
 C2254 C 0.77989 0.34668 0.79214
 H2255 H 0.78040 0.44630 0.74701
 H2256 H 0.80293 0.48450 0.74931
 H2257 H 0.85047 0.45406 0.80455
 H2258 H 0.82763 0.41667 0.80261
 H2259 H 0.75162 0.36517 0.73832
 H2260 H 0.74030 0.32290 0.73608
 H2261 H 0.77976 0.31111 0.80598
 H2262 H 0.79117 0.35327 0.80769
 C2263 C 0.29844 0.93384 0.27688
 C2264 C 0.30799 0.94161 0.25337
 C2265 C 0.32153 0.96279 0.25222
 C2266 C 0.32594 0.97650 0.27461
 C2267 C 0.31497 0.96927 0.29790
 C2268 C 0.30147 0.94800 0.29904
 C2269 C 0.28811 0.91018 0.27851
 C2270 C 0.28116 0.88968 0.27883
 C2271 C 0.27498 0.86467 0.27758
 C2272 C 0.29088 0.84938 0.26559
 C2273 C 0.28506 0.82528 0.26260
 C2274 C 0.26314 0.81578 0.27164
 C2275 C 0.24740 0.83126 0.28425
 C2276 C 0.25329 0.85557 0.28716
 H2277 H 0.30586 0.93074 0.23609
 H2278 H 0.32948 0.96760 0.23401
 H2279 H 0.31735 0.97966 0.31544
 H2280 H 0.29416 0.94219 0.31736
 H2281 H 0.30766 0.85623 0.25793
 H2282 H 0.29749 0.81442 0.25215
 H2283 H 0.23031 0.82479 0.29133
 H2284 H 0.24079 0.86729 0.29645
 C2285 C 0.19324 0.91025 0.71264
 C2286 C 0.20270 0.93222 0.72141
 C2287 C 0.18755 0.95114 0.72651
 C2288 C 0.16289 0.94797 0.72325
 C2289 C 0.15378 0.92652 0.71273
 C2290 C 0.16890 0.90780 0.70734
 C2291 C 0.20688 0.88900 0.71412
 C2292 C 0.21599 0.87011 0.71752
 C2293 C 0.22383 0.84674 0.72395
 C2294 C 0.24465 0.83724 0.71366
 C2295 C 0.25111 0.81409 0.72014
 C2296 C 0.23678 0.80020 0.73696
 C2297 C 0.21602 0.81026 0.74718
 C2298 C 0.20969 0.83319 0.74076
 H2299 H 0.22143 0.93420 0.72600
 H2300 H 0.19479 0.96745 0.73503
 H2301 H 0.13477 0.92374 0.71034
 H2302 H 0.16131 0.89082 0.70092
 H2303 H 0.25574 0.84759 0.70055
 H2304 H 0.26717 0.80707 0.71175
 H2305 H 0.20423 0.80038 0.75990
 H2306 H 0.19348 0.84030 0.74880
 C2307 C 0.69395 0.41341 0.21783
 C2308 C 0.70318 0.43566 0.22599
 C2309 C 0.68787 0.45463 0.23014
 C2310 C 0.66328 0.45122 0.22655
 C2311 C 0.65442 0.42943 0.21661
 C2312 C 0.66970 0.41067 0.21216
 C2313 C 0.70767 0.39232 0.22027
 C2314 C 0.71687 0.37361 0.22439
 C2315 C 0.72493 0.35051 0.23147
 C2316 C 0.74542 0.34073 0.22075
 C2317 C 0.75194 0.31768 0.22749
 C2318 C 0.73796 0.30414 0.24497
 C2319 C 0.71758 0.31450 0.25570
 C2320 C 0.71120 0.33737 0.24905
 H2321 H 0.72183 0.43788 0.23086
 H2322 H 0.69490 0.47120 0.23825
 H2323 H 0.63546 0.42647 0.21397
 H2324 H 0.66230 0.39347 0.20620
 H2325 H 0.75617 0.35074 0.20703
 H2326 H 0.76769 0.31041 0.21867
 H2327 H 0.70600 0.30481 0.26881
 H2328 H 0.69522 0.34469 0.25737
 C2329 C 0.69582 0.57049 0.25984
 C2330 C 0.67529 0.56905 0.27508
 C2331 C 0.66046 0.54878 0.27399
 C2332 C 0.66598 0.52948 0.25766
 C2333 C 0.68691 0.53088 0.24270
 C2334 C 0.70174 0.55133 0.24375
 C2335 C 0.70908 0.59271 0.25894
 C2336 C 0.71833 0.61226 0.25778
 C2337 C 0.72699 0.63644 0.25542
 C2338 C 0.71454 0.65168 0.23966
 C2339 C 0.72175 0.67545 0.23752
 C2340 C 0.74169 0.68462 0.25112
 C2341 C 0.75418 0.66908 0.26701
 C2342 C 0.74683 0.64512 0.26918
 H2343 H 0.67031 0.58394 0.28723
 H2344 H 0.64423 0.54869 0.28529
 H2345 H 0.69180 0.51631 0.23011
 H2346 H 0.71748 0.55239 0.23163
 H2347 H 0.69907 0.64520 0.22904
 H2348 H 0.71157 0.68652 0.22502
 H2349 H 0.76963 0.67533 0.27775
 H2350 H 0.75652 0.63346 0.28160
 C2351 C 0.19578 0.06673 0.75835
 C2352 C 0.17546 0.06502 0.77391
 C2353 C 0.16062 0.04476 0.77269
 C2354 C 0.16590 0.02574 0.75588
 C2355 C 0.18665 0.02737 0.74063
 C2356 C 0.20148 0.04781 0.74182
 C2357 C 0.20898 0.08899 0.75755
 C2358 C 0.21820 0.10856 0.75643
 C2359 C 0.22683 0.13276 0.75405
 C2360 C 0.21432 0.14798 0.73833
 C2361 C 0.22153 0.17174 0.73612
 C2362 C 0.24152 0.18095 0.74960
 C2363 C 0.25406 0.16543 0.76546
 C2364 C 0.24671 0.14147 0.76771
 H2365 H 0.17064 0.07973 0.78642
 H2366 H 0.14455 0.04447 0.78426
 H2367 H 0.19138 0.01300 0.72770
 H2368 H 0.21705 0.04906 0.72946
 H2369 H 0.19881 0.14149 0.72778
 H2370 H 0.21128 0.18279 0.72365
 H2371 H 0.26955 0.17170 0.77612
 H2372 H 0.25646 0.12982 0.78009
 C2373 C 0.30851 0.09244 0.22444
 C2374 C 0.33243 0.09662 0.23079
 C2375 C 0.34578 0.07850 0.24104
 C2376 C 0.33543 0.05580 0.24505
 C2377 C 0.31174 0.05125 0.23747
 C2378 C 0.29823 0.06961 0.22741
 C2379 C 0.29456 0.11260 0.21787
 C2380 C 0.28502 0.13127 0.21447
 C2381 C 0.27661 0.15521 0.21322
 C2382 C 0.29224 0.17359 0.22093
 C2383 C 0.28429 0.19667 0.22388
 C2384 C 0.26046 0.20216 0.21879
 C2385 C 0.24500 0.18364 0.20992
 C2386 C 0.25300 0.16025 0.20731
 H2387 H 0.34055 0.11423 0.22871
 H2388 H 0.36410 0.08235 0.24636
 H2389 H 0.30341 0.03389 0.24048
 H2390 H 0.27966 0.06622 0.22281
 H2391 H 0.31044 0.16987 0.22603
 H2392 H 0.29667 0.20966 0.23196
 H2393 H 0.22647 0.18695 0.20610
 H2394 H 0.24063 0.14607 0.20159
 C2395 C 0.80484 0.58926 0.72529
 C2396 C 0.79444 0.56662 0.72934
 C2397 C 0.80774 0.54873 0.74068
 C2398 C 0.83130 0.55363 0.74847
 C2399 C 0.84180 0.57604 0.74332
 C2400 C 0.82869 0.59367 0.73179
 C2401 C 0.79106 0.60919 0.71757
 C2402 C 0.78167 0.62777 0.71324
 C2403 C 0.77338 0.65168 0.71095
 C2404 C 0.74968 0.65656 0.70529
 C2405 C 0.74169 0.68000 0.70735
 C2406 C 0.75725 0.69874 0.71547
 C2407 C 0.78119 0.69342 0.72016
 C2408 C 0.78913 0.67029 0.71772
 H2409 H 0.77592 0.56308 0.72462
 H2410 H 0.79935 0.53155 0.74452
 H2411 H 0.86004 0.58009 0.74883
 H2412 H 0.83691 0.61112 0.72889
 H2413 H 0.73721 0.64223 0.70032
 H2414 H 0.72308 0.68316 0.70388
 H2415 H 0.79366 0.70659 0.72775
 H2416 H 0.80740 0.66671 0.72264
 C2417 C 0.92945 0.74544 0.19790
 C2418 C 0.94077 0.76748 0.19335
 C2419 C 0.95912 0.76934 0.17521
 C2420 C 0.96639 0.74917 0.16125
 C2421 C 0.95588 0.72686 0.16691
 C2422 C 0.93733 0.72503 0.18500
 C2423 C 0.90759 0.74473 0.21250
 C2424 C 0.88822 0.74541 0.22254
 C2425 C 0.86402 0.74749 0.23126
 C2426 C 0.84891 0.76125 0.21667
 C2427 C 0.82466 0.76124 0.22199
 C2428 C 0.81488 0.74772 0.24240
 C2429 C 0.83043 0.73484 0.25792
 C2430 C 0.85489 0.73464 0.25228
 H2431 H 0.93471 0.78343 0.20301
 H2432 H 0.96728 0.78669 0.17167
 H2433 H 0.96112 0.71108 0.15644
 H2434 H 0.92847 0.70792 0.18809
 H2435 H 0.85574 0.77119 0.20029
 H2436 H 0.81347 0.77112 0.20925
 H2437 H 0.82361 0.72400 0.27357
 H2438 H 0.86644 0.72381 0.26366
 C2439 C 0.43003 0.24392 0.69794
 C2440 C 0.44053 0.26622 0.69275
 C2441 C 0.45938 0.26821 0.67522
 C2442 C 0.46799 0.24790 0.66251
 C2443 C 0.45820 0.22542 0.66880
 C2444 C 0.43916 0.22346 0.68628
 C2445 C 0.40789 0.24278 0.71201
 C2446 C 0.38833 0.24304 0.72163
 C2447 C 0.36393 0.24460 0.72989
 C2448 C 0.34871 0.25783 0.71486
 C2449 C 0.32440 0.25749 0.71993
 C2450 C 0.31468 0.24414 0.74050
 C2451 C 0.33030 0.23172 0.75637
 C2452 C 0.35482 0.23187 0.75100
 H2453 H 0.43351 0.28220 0.70146
 H2454 H 0.46692 0.28574 0.67124
 H2455 H 0.46443 0.20952 0.65935
 H2456 H 0.43096 0.20613 0.68987
 H2457 H 0.35552 0.26768 0.69841
 H2458 H 0.31317 0.26706 0.70695
 H2459 H 0.32353 0.22102 0.77215
 H2460 H 0.36647 0.22145 0.76272
 C2461 C 0.41625 0.74319 0.81213
 C2462 C 0.42723 0.72427 0.82435
 C2463 C 0.44658 0.72871 0.84087
 C2464 C 0.45492 0.75217 0.84557
 C2465 C 0.44426 0.77093 0.83254
 C2466 C 0.42508 0.76647 0.81600
 C2467 C 0.39456 0.73932 0.79772
 C2468 C 0.37558 0.73699 0.78704
 C2469 C 0.35194 0.73502 0.77639
 C2470 C 0.33389 0.72410 0.79100
 C2471 C 0.31025 0.72508 0.78321
 C2472 C 0.30408 0.73686 0.76040
 C2473 C 0.32249 0.74690 0.74515
 C2474 C 0.34627 0.74607 0.75318
 H2475 H 0.42042 0.70618 0.82170
 H2476 H 0.45437 0.71394 0.85072
 H2477 H 0.45060 0.78915 0.83532
 H2478 H 0.41672 0.78127 0.80677
 H2479 H 0.33797 0.71565 0.80908
 H2480 H 0.29675 0.71719 0.79565
 H2481 H 0.31851 0.75627 0.72763
 H2482 H 0.36008 0.75479 0.74178
 C2483 C 0.91794 0.24738 0.31721
 C2484 C 0.92304 0.27013 0.32712
 C2485 C 0.94268 0.27424 0.34307
 C2486 C 0.95789 0.25561 0.34965
 C2487 C 0.95290 0.23280 0.33880
 C2488 C 0.93303 0.22875 0.32290
 C2489 C 0.89617 0.24322 0.30301
 C2490 C 0.87707 0.24073 0.29258
 C2491 C 0.85327 0.23866 0.28230
 C2492 C 0.84726 0.24964 0.25916
 C2493 C 0.82337 0.25047 0.25153
 C2494 C 0.80516 0.24051 0.26712
 C2495 C 0.81166 0.22876 0.28985
 C2496 C 0.83542 0.22779 0.29725
 H2497 H 0.91156 0.28475 0.32283
 H2498 H 0.94599 0.29234 0.34966
 H2499 H 0.96337 0.21761 0.34350
 H2500 H 0.92910 0.21093 0.31559
 H2501 H 0.86091 0.25833 0.24751
 H2502 H 0.81914 0.25978 0.23405
 H2503 H 0.79833 0.22090 0.30252
 H2504 H 0.83976 0.21939 0.31528
 C2505 C 0.07478 0.25556 0.30664
 C2506 C 0.06648 0.27805 0.31338
 C2507 C 0.04804 0.28026 0.33136
 C2508 C 0.03764 0.25998 0.34310
 C2509 C 0.04533 0.23739 0.33529
 C2510 C 0.06390 0.23520 0.31733
 C2511 C 0.09617 0.25381 0.29130
 C2512 C 0.11511 0.25328 0.28022
 C2513 C 0.13892 0.25374 0.26968
 C2514 C 0.15740 0.26226 0.28540
 C2515 C 0.18078 0.26258 0.27644
 C2516 C 0.18632 0.25444 0.25134
 C2517 C 0.16756 0.24614 0.23540
 C2518 C 0.14396 0.24577 0.24455
 H2519 H 0.07478 0.29397 0.30536
 H2520 H 0.04218 0.29793 0.33634
 H2521 H 0.03779 0.22143 0.34373
 H2522 H 0.07030 0.21768 0.31247
 H2523 H 0.15376 0.26858 0.30482
 H2524 H 0.19446 0.26934 0.28940
 H2525 H 0.17112 0.23972 0.21604
 H2526 H 0.12976 0.23915 0.23215
 C2527 C 0.57154 0.75137 0.80426
 C2528 C 0.56155 0.77365 0.80836
 C2529 C 0.54336 0.77636 0.82655
 C2530 C 0.53494 0.75679 0.84102
 C2531 C 0.54440 0.73429 0.83607
 C2532 C 0.56269 0.73162 0.81790
 C2533 C 0.59279 0.74959 0.78873
 C2534 C 0.61166 0.74897 0.77757
 C2535 C 0.63545 0.74929 0.76706
 C2536 C 0.65404 0.75679 0.78318
 C2537 C 0.67740 0.75713 0.77422
 C2538 C 0.68283 0.75002 0.74873
 C2539 C 0.66398 0.74266 0.73242
 C2540 C 0.64038 0.74229 0.74157
 H2541 H 0.56837 0.78912 0.79812
 H2542 H 0.53613 0.79385 0.82957
 H2543 H 0.53848 0.71898 0.84706
 H2544 H 0.57051 0.71435 0.81520
 H2545 H 0.65049 0.76236 0.80288
 H2546 H 0.69114 0.76317 0.78748
 H2547 H 0.66746 0.73708 0.71275
 H2548 H 0.62608 0.73647 0.72886
 C2549 C 0.58504 0.24115 0.69763
 C2550 C 0.57677 0.26392 0.69278
 C2551 C 0.55833 0.26692 0.67529
 C2552 C 0.54792 0.24717 0.66231
 C2553 C 0.55573 0.22425 0.66793
 C2554 C 0.57431 0.22127 0.68541
 C2555 C 0.60610 0.23874 0.71293
 C2556 C 0.62467 0.23767 0.72434
 C2557 C 0.64788 0.23740 0.73588
 C2558 C 0.65298 0.25066 0.75831
 C2559 C 0.67652 0.25349 0.76681
 C2560 C 0.69526 0.24325 0.75280
 C2561 C 0.68965 0.22913 0.73089
 C2562 C 0.66620 0.22619 0.72261
 H2563 H 0.58502 0.27944 0.70200
 H2564 H 0.55237 0.28475 0.67172
 H2565 H 0.54814 0.20875 0.65809
 H2566 H 0.58077 0.20359 0.68879
 H2567 H 0.63893 0.25963 0.76859
 H2568 H 0.68006 0.26459 0.78361
 H2569 H 0.70345 0.22094 0.71949
 H2570 H 0.66251 0.21604 0.70511
 C2571 C 0.08089 0.74753 0.19828
 C2572 C 0.07113 0.76958 0.19307
 C2573 C 0.05310 0.77124 0.17481
 C2574 C 0.04462 0.75084 0.16138
 C2575 C 0.05373 0.72858 0.16752
 C2576 C 0.07191 0.72696 0.18576
 C2577 C 0.10208 0.74665 0.21370
 C2578 C 0.12094 0.74645 0.22468
 C2579 C 0.14472 0.74647 0.23485
 C2580 C 0.15087 0.75860 0.25776
 C2581 C 0.17482 0.76083 0.26522
 C2582 C 0.19285 0.75113 0.24969
 C2583 C 0.18616 0.73857 0.22703
 C2584 C 0.16242 0.73615 0.21986
 H2585 H 0.07803 0.78564 0.20246
 H2586 H 0.04603 0.78857 0.17093
 H2587 H 0.04756 0.71262 0.15742
 H2588 H 0.07954 0.70982 0.18939
 H2589 H 0.13729 0.76693 0.26939
 H2590 H 0.17924 0.77084 0.28258
 H2591 H 0.19931 0.73090 0.21434
 H2592 H 0.15795 0.72692 0.20199
   
