data_POSCAR
  _audit_creation_date              2014-09-24
  _audit_creation_method            'ToBaCCo'
  _symmetry_space_group_name_H-M    'P1'
  _symmetry_Int_Tables_number       1
  _symmetry_cell_setting            triclinic
  loop_
  _symmetry_equiv_pos_as_xyz
 x,y,z
_cell_length_a 109.8409
_cell_length_b 109.8817
_cell_length_c 110.0292
_cell_angle_alpha 89.985200
_cell_angle_beta 89.991900
_cell_angle_gamma 89.969100
loop_
  _atom_site_label
  _atom_site_type_symbol
  _atom_site_fract_x
  _atom_site_fract_y
  _atom_site_fract_z
N1 N 0.35751 0.32390 0.33246
 N2 N 0.35748 0.33249 0.32414
 C3 C 0.36692 0.33070 0.31655
 C4 C 0.37320 0.32038 0.32025
 C5 C 0.36691 0.31633 0.33040
 H6 H 0.36906 0.33649 0.30891
 H7 H 0.36893 0.30841 0.33587
 Cu8 Cu 0.34498 0.34505 0.32420
 Cu9 Cu 0.34529 0.32306 0.34529
 Cu10 Cu 0.32293 0.34540 0.34524
 N11 N 0.33241 0.35755 0.32408
 N12 N 0.32382 0.35758 0.33239
 C13 C 0.31624 0.36697 0.33031
 C14 C 0.32026 0.37323 0.32013
 C15 C 0.33059 0.36696 0.31645
 H16 H 0.30840 0.36907 0.33587
 H17 H 0.33630 0.36900 0.30872
 N18 N 0.32364 0.33228 0.35746
 N19 N 0.33215 0.32380 0.35749
 C20 C 0.33020 0.31625 0.36692
 C21 C 0.31996 0.32011 0.37318
 C22 C 0.31605 0.33032 0.36688
 H23 H 0.33591 0.30855 0.36912
 H24 H 0.30824 0.33592 0.36896
 H25 H 0.33159 0.33169 0.33574
 H26 H 0.34129 0.34142 0.34568
 N27 N 0.35783 0.82389 -0.16780
 N28 N 0.35740 0.83208 -0.17649
 C29 C 0.36672 0.83016 -0.18423
 C30 C 0.37342 0.82021 -0.18017
 C31 C 0.36742 0.81650 -0.16968
 H32 H 0.36850 0.83571 -0.19213
 H33 H 0.36974 0.80898 -0.16380
 Cu34 Cu 0.34488 0.84464 -0.17645
 Cu35 Cu 0.34584 0.82322 -0.15472
 Cu36 Cu 0.32218 0.84409 -0.15623
 N37 N 0.33235 0.85722 -0.17641
 N38 N 0.32354 0.85697 -0.16835
 C39 C 0.31602 0.86644 -0.17028
 C40 C 0.32033 0.87312 -0.18013
 C41 C 0.33079 0.86693 -0.18373
 H42 H 0.30802 0.86824 -0.16486
 H43 H 0.33677 0.86920 -0.19118
 N44 N 0.32369 0.83196 -0.14308
 N45 N 0.33271 0.82405 -0.14250
 C46 C 0.33108 0.81689 -0.13270
 C47 C 0.32053 0.82045 -0.12676
 C48 C 0.31613 0.83009 -0.13362
 H49 H 0.33706 0.80950 -0.13019
 H50 H 0.30802 0.83536 -0.13188
 H51 H 0.33218 0.83056 -0.16489
 H52 H 0.34070 0.84141 -0.15501
 N53 N 0.85742 0.32413 -0.16761
 N54 N 0.85719 0.33251 -0.17613
 C55 C 0.86656 0.33062 -0.18381
 C56 C 0.87302 0.32050 -0.17991
 C57 C 0.86691 0.31664 -0.16958
 H58 H 0.86856 0.33627 -0.19159
 H59 H 0.86911 0.30891 -0.16392
 Cu60 Cu 0.84477 0.34516 -0.17624
 Cu61 Cu 0.84538 0.32343 -0.15464
 Cu62 Cu 0.82188 0.34438 -0.15606
 N63 N 0.83217 0.35767 -0.17603
 N64 N 0.82330 0.35735 -0.16804
 C65 C 0.81575 0.36679 -0.16999
 C66 C 0.82008 0.37350 -0.17980
 C67 C 0.83059 0.36738 -0.18334
 H68 H 0.80769 0.36851 -0.16464
 H69 H 0.83659 0.36968 -0.19077
 N70 N 0.82326 0.33217 -0.14302
 N71 N 0.83223 0.32421 -0.14246
 C72 C 0.83058 0.31702 -0.13269
 C73 C 0.82004 0.32062 -0.12674
 C74 C 0.81569 0.33030 -0.13357
 H75 H 0.83654 0.30961 -0.13020
 H76 H 0.80762 0.33562 -0.13181
 H77 H 0.83194 0.33098 -0.16497
 H78 H 0.84044 0.34166 -0.15484
 N79 N 0.85731 0.82402 0.33230
 N80 N 0.85695 0.83229 0.32369
 C81 C 0.86631 0.83042 0.31599
 C82 C 0.87290 0.82042 0.31998
 C83 C 0.86687 0.81661 0.33038
 H84 H 0.86824 0.83603 0.30816
 H85 H 0.86919 0.80898 0.33613
 Cu86 Cu 0.84443 0.84483 0.32372
 Cu87 Cu 0.84534 0.82334 0.34539
 Cu88 Cu 0.82176 0.84430 0.34396
 N89 N 0.83192 0.85740 0.32376
 N90 N 0.82314 0.85720 0.33186
 C91 C 0.81565 0.86669 0.32994
 C92 C 0.81991 0.87331 0.32004
 C93 C 0.83033 0.86707 0.31640
 H94 H 0.80766 0.86850 0.33538
 H95 H 0.83629 0.86931 0.30892
 N96 N 0.82324 0.83215 0.35708
 N97 N 0.83223 0.82419 0.35762
 C98 C 0.83060 0.81703 0.36742
 C99 C 0.82007 0.82063 0.37338
 C100 C 0.81570 0.83030 0.36655
 H101 H 0.83655 0.80961 0.36990
 H102 H 0.80762 0.83561 0.36831
 H103 H 0.83172 0.83075 0.33525
 H104 H 0.84029 0.84153 0.34516
 N105 N 0.64298 0.67653 0.33217
 N106 N 0.64287 0.66784 0.32398
 C107 C 0.63320 0.66943 0.31662
 C108 C 0.62691 0.67972 0.32038
 C109 C 0.63343 0.68395 0.33032
 H110 H 0.63100 0.66361 0.30903
 H111 H 0.63146 0.69187 0.33580
 Cu112 Cu 0.65549 0.65540 0.32388
 Cu113 Cu 0.65592 0.67799 0.34420
 Cu114 Cu 0.67708 0.65459 0.34545
 N115 N 0.66808 0.64295 0.32378
 N116 N 0.67638 0.64262 0.33238
 C117 C 0.68382 0.63309 0.33044
 C118 C 0.68001 0.62706 0.32005
 C119 C 0.66997 0.63360 0.31608
 H120 H 0.69138 0.63072 0.33625
 H121 H 0.66444 0.63173 0.30818
 N122 N 0.67624 0.66770 0.35768
 N123 N 0.66818 0.67661 0.35721
 C124 C 0.67004 0.68415 0.36667
 C125 C 0.67981 0.67987 0.37342
 C126 C 0.68347 0.66940 0.36742
 H127 H 0.66465 0.69217 0.36848
 H128 H 0.69096 0.66351 0.36984
 H129 H 0.66951 0.66819 0.33538
 H130 H 0.65885 0.65949 0.34532
 N131 N 0.64314 0.17638 -0.16808
 N132 N 0.64308 0.16774 -0.17633
 C133 C 0.63343 0.16936 -0.18371
 C134 C 0.62709 0.17961 -0.17990
 C135 C 0.63357 0.18379 -0.16992
 H136 H 0.63126 0.16357 -0.19134
 H137 H 0.63155 0.19165 -0.16438
 Cu138 Cu 0.65573 0.15530 -0.17640
 Cu139 Cu 0.65600 0.17776 -0.15595
 Cu140 Cu 0.67699 0.15419 -0.15452
 N141 N 0.66829 0.14279 -0.17645
 N142 N 0.67636 0.14224 -0.16765
 C143 C 0.68369 0.13261 -0.16950
 C144 C 0.68009 0.12673 -0.18009
 C145 C 0.67025 0.13354 -0.18423
 H146 H 0.69114 0.13020 -0.16356
 H147 H 0.66478 0.13184 -0.19220
 N148 N 0.67611 0.16731 -0.14227
 N149 N 0.66814 0.17629 -0.14284
 C150 C 0.67000 0.18386 -0.13340
 C151 C 0.67969 0.17953 -0.12657
 C152 C 0.68329 0.16899 -0.13249
 H153 H 0.66469 0.19195 -0.13167
 H154 H 0.69073 0.16306 -0.13001
 H155 H 0.66969 0.16791 -0.16461
 H156 H 0.65882 0.15925 -0.15489
 N157 N 0.14311 0.67661 -0.16789
 N158 N 0.14301 0.66793 -0.17610
 C159 C 0.13337 0.66955 -0.18348
 C160 C 0.12707 0.67984 -0.17972
 C161 C 0.13356 0.68404 -0.16976
 H162 H 0.13118 0.66373 -0.19108
 H163 H 0.13158 0.69194 -0.16426
 Cu164 Cu 0.15560 0.65545 -0.17615
 Cu165 Cu 0.15599 0.67799 -0.15578
 Cu166 Cu 0.17705 0.65449 -0.15444
 N167 N 0.16814 0.64294 -0.17619
 N168 N 0.17639 0.64255 -0.16755
 C169 C 0.18378 0.63297 -0.16946
 C170 C 0.17998 0.62697 -0.17987
 C171 C 0.17000 0.63360 -0.18389
 H172 H 0.19138 0.63062 -0.16369
 H173 H 0.16441 0.63168 -0.19173
 N174 N 0.17617 0.66758 -0.14218
 N175 N 0.16817 0.67653 -0.14270
 C176 C 0.17002 0.68407 -0.13324
 C177 C 0.17973 0.67975 -0.12644
 C178 C 0.18336 0.66924 -0.13241
 H179 H 0.16468 0.69214 -0.13147
 H180 H 0.19082 0.66333 -0.12996
 H181 H 0.16960 0.66815 -0.16452
 H182 H 0.15883 0.65948 -0.15468
 N183 N 0.14266 0.17636 0.33231
 N184 N 0.14269 0.16779 0.32399
 C185 C 0.13330 0.16965 0.31633
 C186 C 0.12702 0.17996 0.32005
 C187 C 0.13327 0.18394 0.33024
 H188 H 0.13123 0.16394 0.30862
 H189 H 0.13115 0.19174 0.33584
 Cu190 Cu 0.15493 0.15498 0.32404
 Cu191 Cu 0.15477 0.17710 0.34519
 Cu192 Cu 0.17705 0.15478 0.34521
 N193 N 0.16772 0.14271 0.32402
 N194 N 0.17628 0.14266 0.33235
 C195 C 0.18386 0.13327 0.33029
 C196 C 0.17988 0.12703 0.32009
 C197 C 0.16958 0.13333 0.31636
 H198 H 0.19164 0.13112 0.33590
 H199 H 0.16389 0.13128 0.30862
 N200 N 0.17630 0.16783 0.35746
 N201 N 0.16781 0.17632 0.35746
 C202 C 0.16974 0.18388 0.36689
 C203 C 0.17997 0.18000 0.37317
 C204 C 0.18386 0.16977 0.36690
 H205 H 0.16406 0.19161 0.36904
 H206 H 0.19166 0.16417 0.36899
 H207 H 0.16836 0.16839 0.33552
 H208 H 0.15865 0.15872 0.34558
 N209 N 0.64265 0.32364 0.66783
 N210 N 0.64289 0.33202 0.67634
 C211 C 0.63349 0.33017 0.68400
 C212 C 0.62700 0.32007 0.68009
 C213 C 0.63313 0.31620 0.66977
 H214 H 0.63156 0.33576 0.69185
 H215 H 0.63082 0.30859 0.66400
 Cu216 Cu 0.65541 0.34456 0.67632
 Cu217 Cu 0.65468 0.32292 0.65483
 Cu218 Cu 0.67704 0.34524 0.65480
 N219 N 0.66796 0.35705 0.67630
 N220 N 0.67636 0.35729 0.66780
 C221 C 0.68380 0.36681 0.66975
 C222 C 0.67990 0.37295 0.68005
 C223 C 0.66979 0.36646 0.68395
 H224 H 0.69152 0.36903 0.66407
 H225 H 0.66410 0.36848 0.69170
 N226 N 0.67616 0.33224 0.64245
 N227 N 0.66767 0.32375 0.64247
 C228 C 0.66960 0.31619 0.63303
 C229 C 0.67981 0.32009 0.62672
 C230 C 0.68369 0.33031 0.63300
 H231 H 0.66403 0.30836 0.63097
 H232 H 0.69142 0.33598 0.63083
 H233 H 0.66856 0.33138 0.66422
 H234 H 0.65865 0.34130 0.65464
 N235 N 0.64276 0.82370 1.16784
 N236 N 0.64286 0.83219 1.17623
 C237 C 0.63348 0.83034 1.18389
 C238 C 0.62712 0.82011 1.18010
 C239 C 0.63332 0.81617 1.16985
 H240 H 0.63146 0.83599 1.19167
 H241 H 0.63113 0.80844 1.16419
 Cu242 Cu 0.65527 0.84482 1.17628
 Cu243 Cu 0.65483 0.82296 1.15490
 Cu244 Cu 0.67702 0.84537 1.15479
 N245 N 0.66779 0.85734 1.17609
 N246 N 0.67626 0.85749 1.16766
 C247 C 0.68375 0.86696 1.16963
 C248 C 0.67980 0.87315 1.17988
 C249 C 0.66963 0.86674 1.18373
 H250 H 0.69151 0.86911 1.16400
 H251 H 0.66394 0.86877 1.19147
 N252 N 0.67627 0.83232 1.14255
 N253 N 0.66783 0.82378 1.14259
 C254 C 0.66979 0.81621 1.13318
 C255 C 0.67998 0.82014 1.12686
 C256 C 0.68382 0.83039 1.13310
 H257 H 0.66416 0.80845 1.13105
 H258 H 0.69160 0.83602 1.13099
 H259 H 0.66853 0.83158 1.16441
 H260 H 0.65861 0.84134 1.15465
 N261 N 0.14262 0.32381 1.16780
 N262 N 0.14284 0.33222 1.17628
 C263 C 0.13346 0.33037 1.18395
 C264 C 0.12699 0.32025 1.18007
 C265 C 0.13311 0.31636 1.16976
 H266 H 0.13154 0.33594 1.19181
 H267 H 0.13082 0.30872 1.16402
 Cu268 Cu 0.15543 0.34467 1.17644
 Cu269 Cu 0.15468 0.32307 1.15484
 Cu270 Cu 0.17700 0.34538 1.15481
 N271 N 0.16789 0.35725 1.17623
 N272 N 0.17631 0.35745 1.16775
 C273 C 0.18377 0.36695 1.16970
 C274 C 0.17986 0.37311 1.17999
 C275 C 0.16972 0.36664 1.18387
 H276 H 0.19149 0.36916 1.16403
 H277 H 0.16406 0.36863 1.19164
 N278 N 0.17616 0.33238 1.14250
 N279 N 0.16768 0.32388 1.14252
 C280 C 0.16962 0.31633 1.13307
 C281 C 0.17982 0.32024 1.12677
 C282 C 0.18370 0.33046 1.13305
 H283 H 0.16405 0.30850 1.13100
 H284 H 0.19141 0.33615 1.13087
 H285 H 0.16854 0.33150 1.16431
 H286 H 0.15861 0.34142 1.15475
 N287 N 0.14281 0.82368 0.66783
 N288 N 0.14300 0.83211 0.67629
 C289 C 0.13366 0.83024 0.68400
 C290 C 0.12722 0.82009 0.68016
 C291 C 0.13334 0.81618 0.66985
 H292 H 0.13173 0.83583 0.69184
 H293 H 0.13106 0.80853 0.66413
 Cu294 Cu 0.15548 0.84467 0.67627
 Cu295 Cu 0.15481 0.82300 0.65480
 Cu296 Cu 0.17702 0.84545 0.65466
 N297 N 0.16792 0.85727 0.67613
 N298 N 0.17630 0.85751 0.66761
 C299 C 0.18375 0.86703 0.66956
 C300 C 0.17986 0.87314 0.67988
 C301 C 0.16977 0.86663 0.68380
 H302 H 0.19144 0.86927 0.66387
 H303 H 0.16415 0.86857 0.69161
 N304 N 0.17620 0.83245 0.64235
 N305 N 0.16776 0.82390 0.64241
 C306 C 0.16970 0.81636 0.63296
 C307 C 0.17986 0.82030 0.62662
 C308 C 0.18371 0.83055 0.63287
 H309 H 0.16407 0.80859 0.63084
 H310 H 0.19149 0.83617 0.63075
 H311 H 0.16866 0.83154 0.66418
 H312 H 0.15866 0.84135 0.65460
 N313 N 0.35752 0.67625 0.66772
 N314 N 0.35749 0.66769 0.67604
 C315 C 0.36688 0.66954 0.68370
 C316 C 0.37317 0.67984 0.67996
 C317 C 0.36692 0.68382 0.66976
 H318 H 0.36894 0.66385 0.69143
 H319 H 0.36905 0.69161 0.66415
 Cu320 Cu 0.34520 0.65491 0.67603
 Cu321 Cu 0.34537 0.67704 0.65486
 Cu322 Cu 0.32301 0.65483 0.65492
 N323 N 0.33236 0.64269 0.67610
 N324 N 0.32376 0.64270 0.66781
 C325 C 0.31616 0.63333 0.66988
 C326 C 0.32016 0.62704 0.68005
 C327 C 0.33050 0.63329 0.68375
 H328 H 0.30835 0.63122 0.66429
 H329 H 0.33623 0.63119 0.69145
 N330 N 0.32379 0.66787 0.64264
 N331 N 0.33230 0.67633 0.64261
 C332 C 0.33037 0.68388 0.63316
 C333 C 0.32012 0.68003 0.62690
 C334 C 0.31622 0.66983 0.63321
 H335 H 0.33598 0.69167 0.63105
 H336 H 0.30848 0.66416 0.63106
 H337 H 0.33179 0.66838 0.66458
 H338 H 0.34142 0.65866 0.65449
 N339 N 0.35744 0.17621 1.16782
 N340 N 0.35766 0.16741 1.17589
 C341 C 0.36709 0.16922 1.18350
 C342 C 0.37315 0.17973 1.18000
 C343 C 0.36672 0.18389 1.16999
 H344 H 0.36932 0.16335 1.19105
 H345 H 0.36866 0.19186 1.16456
 Cu346 Cu 0.34555 0.15447 1.17582
 Cu347 Cu 0.34525 0.17707 1.15503
 Cu348 Cu 0.32436 0.15354 1.15377
 N349 N 0.33244 0.14255 1.17596
 N350 N 0.32411 0.14232 1.16741
 C351 C 0.31638 0.13306 1.16954
 C352 C 0.32004 0.12710 1.18003
 C353 C 0.33028 0.13343 1.18386
 H354 H 0.30878 0.13080 1.16375
 H355 H 0.33588 0.13146 1.19168
 N356 N 0.32428 0.16724 1.14226
 N357 N 0.33222 0.17622 1.14275
 C358 C 0.32991 0.18406 1.13364
 C359 C 0.32000 0.17986 1.12707
 C360 C 0.31666 0.16916 1.13287
 H361 H 0.33520 0.19215 1.13183
 H362 H 0.30925 0.16318 1.13045
 H363 H 0.33187 0.16733 1.16409
 H364 H 0.34266 0.15872 1.15417
 N365 N 0.85720 0.67636 1.16793
 N366 N 0.85736 0.66765 1.17610
 C367 C 0.86706 0.66923 1.18342
 C368 C 0.87332 0.67954 1.17967
 C369 C 0.86676 0.68378 1.16976
 H370 H 0.86924 0.66344 1.19105
 H371 H 0.86868 0.69174 1.16432
 Cu372 Cu 0.84460 0.65535 1.17667
 Cu373 Cu 0.84418 0.67790 1.15606
 Cu374 Cu 0.82318 0.65447 1.15474
 N375 N 0.83219 0.64273 1.17627
 N376 N 0.82391 0.64241 1.16766
 C377 C 0.81650 0.63285 1.16954
 C378 C 0.82032 0.62677 1.17991
 C379 C 0.83034 0.63333 1.18391
 H380 H 0.80886 0.63058 1.16380
 H381 H 0.83591 0.63142 1.19176
 N382 N 0.82393 0.66760 1.14258
 N383 N 0.83192 0.67654 1.14308
 C384 C 0.83002 0.68410 1.13365
 C385 C 0.82029 0.67978 1.12688
 C386 C 0.81669 0.66928 1.13285
 H387 H 0.83536 0.69216 1.13187
 H388 H 0.80927 0.66333 1.13039
 H389 H 0.83063 0.66808 1.16493
 H390 H 0.84146 0.65936 1.15515
 N391 N 0.85745 0.17613 0.66766
 N392 N 0.85723 0.16775 0.67618
 C393 C 0.86662 0.16960 0.68383
 C394 C 0.87307 0.17972 0.67992
 C395 C 0.86694 0.18360 0.66961
 H396 H 0.86856 0.16404 0.69169
 H397 H 0.86921 0.19125 0.66388
 Cu398 Cu 0.84471 0.15522 0.67643
 Cu399 Cu 0.84537 0.17688 0.65474
 Cu400 Cu 0.82216 0.15563 0.65585
 N401 N 0.83247 0.14241 0.67583
 N402 N 0.82376 0.14256 0.66766
 C403 C 0.81636 0.13298 0.66946
 C404 C 0.82061 0.12642 0.67936
 C405 C 0.83091 0.13269 0.68313
 H406 H 0.80839 0.13109 0.66404
 H407 H 0.83671 0.13050 0.69074
 N408 N 0.82338 0.16802 0.64298
 N409 N 0.83223 0.17611 0.64256
 C410 C 0.83050 0.18339 0.63287
 C411 C 0.82005 0.17972 0.62685
 C412 C 0.81581 0.16990 0.63353
 H413 H 0.83644 0.19081 0.63039
 H414 H 0.80775 0.16457 0.63173
 H415 H 0.83186 0.16921 0.66486
 H416 H 0.84071 0.15861 0.65495
 N417 N 0.32359 0.35734 0.66785
 N418 N 0.33225 0.35741 0.67608
 C419 C 0.33066 0.36708 0.68344
 C420 C 0.32041 0.37341 0.67964
 C421 C 0.31620 0.36693 0.66968
 H422 H 0.33644 0.36923 0.69109
 H423 H 0.30831 0.36893 0.66417
 Cu424 Cu 0.34463 0.34471 0.67625
 Cu425 Cu 0.32210 0.34439 0.65583
 Cu426 Cu 0.34534 0.32305 0.65477
 N427 N 0.35703 0.33206 0.67641
 N428 N 0.35731 0.32372 0.66786
 C429 C 0.36681 0.31625 0.66982
 C430 C 0.37289 0.32008 0.68017
 C431 C 0.36639 0.33018 0.68410
 H432 H 0.36914 0.30866 0.66403
 H433 H 0.36832 0.33574 0.69196
 N434 N 0.33226 0.32394 0.64250
 N435 N 0.32341 0.33205 0.64289
 C436 C 0.31587 0.33018 0.63341
 C437 C 0.32012 0.32034 0.62676
 C438 C 0.33055 0.31666 0.63282
 H439 H 0.30780 0.33550 0.63160
 H440 H 0.33647 0.30920 0.63037
 H441 H 0.33175 0.33077 0.66474
 H442 H 0.34059 0.34130 0.65481
 N443 N 0.32358 0.85718 0.16790
 N444 N 0.33226 0.85728 0.17610
 C445 C 0.33065 0.86693 0.18349
 C446 C 0.32036 0.87322 0.17973
 C447 C 0.31615 0.86673 0.16977
 H448 H 0.33647 0.86911 0.19109
 H449 H 0.30824 0.86871 0.16428
 Cu450 Cu 0.34474 0.84470 0.17617
 Cu451 Cu 0.32218 0.84430 0.15581
 Cu452 Cu 0.34564 0.82321 0.15451
 N453 N 0.35721 0.83213 0.17624
 N454 N 0.35758 0.82386 0.16762
 C455 C 0.36712 0.81644 0.16956
 C456 C 0.37314 0.82025 0.17996
 C457 C 0.36655 0.83026 0.18395
 H458 H 0.36945 0.80883 0.16380
 H459 H 0.36847 0.83585 0.19178
 N460 N 0.33257 0.82410 0.14225
 N461 N 0.32363 0.83212 0.14274
 C462 C 0.31610 0.83027 0.13327
 C463 C 0.32043 0.82055 0.12649
 C464 C 0.33091 0.81691 0.13248
 H465 H 0.30805 0.83562 0.13147
 H466 H 0.33683 0.80944 0.13005
 H467 H 0.33200 0.83070 0.16459
 H468 H 0.34069 0.84143 0.15472
 N469 N 0.82375 0.35747 0.16766
 N470 N 0.83218 0.35728 0.17612
 C471 C 0.83035 0.36668 0.18377
 C472 C 0.82020 0.37313 0.17990
 C473 C 0.81628 0.36697 0.16962
 H474 H 0.83599 0.36865 0.19156
 H475 H 0.80862 0.36923 0.16390
 Cu476 Cu 0.84473 0.34479 0.17609
 Cu477 Cu 0.82300 0.34540 0.15470
 Cu478 Cu 0.84540 0.32312 0.15464
 N479 N 0.85728 0.33230 0.17606
 N480 N 0.85750 0.32390 0.16757
 C481 C 0.86702 0.31645 0.16951
 C482 C 0.87317 0.32036 0.17980
 C483 C 0.86669 0.33047 0.18370
 H484 H 0.86932 0.30882 0.16376
 H485 H 0.86863 0.33606 0.19154
 N486 N 0.83233 0.32390 0.14236
 N487 N 0.82382 0.33238 0.14239
 C488 C 0.81624 0.33043 0.13297
 C489 C 0.82014 0.32022 0.12668
 C490 C 0.83039 0.31635 0.13293
 H491 H 0.80850 0.33609 0.13083
 H492 H 0.83598 0.30853 0.13083
 H493 H 0.83156 0.33159 0.16411
 H494 H 0.84138 0.34149 0.15444
 N495 N 0.82391 0.85762 0.66765
 N496 N 0.83248 0.85756 0.67599
 C497 C 0.83066 0.86698 0.68362
 C498 C 0.82038 0.87330 0.67988
 C499 C 0.81637 0.86705 0.66969
 H500 H 0.83634 0.86901 0.69137
 H501 H 0.80860 0.86921 0.66408
 Cu502 Cu 0.84504 0.84507 0.67595
 Cu503 Cu 0.82309 0.84546 0.65477
 Cu504 Cu 0.84551 0.82318 0.65470
 N505 N 0.85759 0.83257 0.67592
 N506 N 0.85769 0.82405 0.66755
 C507 C 0.86715 0.81653 0.66956
 C508 C 0.87336 0.82051 0.67978
 C509 C 0.86701 0.83074 0.68356
 H510 H 0.86933 0.80878 0.66393
 H511 H 0.86900 0.83638 0.69135
 N512 N 0.83237 0.82389 0.64250
 N513 N 0.82385 0.83236 0.64253
 C514 C 0.81627 0.83039 0.63312
 C515 C 0.82017 0.82018 0.62682
 C516 C 0.83042 0.81632 0.63307
 H517 H 0.80853 0.83606 0.63096
 H518 H 0.83604 0.80853 0.63096
 H519 H 0.83176 0.83172 0.66424
 H520 H 0.84147 0.84152 0.65436
 N521 N 0.67618 0.64233 0.66758
 N522 N 0.66776 0.64253 0.67606
 C523 C 0.66955 0.63307 0.68364
 C524 C 0.67967 0.62660 0.67974
 C525 C 0.68361 0.63278 0.66949
 H526 H 0.66387 0.63104 0.69139
 H527 H 0.69139 0.63062 0.66387
 Cu528 Cu 0.65541 0.65523 0.67646
 Cu529 Cu 0.67699 0.65453 0.65476
 Cu530 Cu 0.65483 0.67698 0.65494
 N531 N 0.64283 0.66774 0.67624
 N532 N 0.64271 0.67622 0.66783
 C533 C 0.63323 0.68372 0.66981
 C534 C 0.62701 0.67977 0.68004
 C535 C 0.63340 0.66956 0.68386
 H536 H 0.63104 0.69145 0.66415
 H537 H 0.63139 0.66391 0.69164
 N538 N 0.66787 0.67621 0.64265
 N539 N 0.67630 0.66766 0.64257
 C540 C 0.68384 0.66960 0.63312
 C541 C 0.68000 0.67988 0.62691
 C542 C 0.66983 0.68381 0.63326
 H543 H 0.69161 0.66396 0.63096
 H544 H 0.66419 0.69158 0.63114
 H545 H 0.66861 0.66834 0.66436
 H546 H 0.65858 0.65853 0.65479
 N547 N 0.67622 0.14224 0.16752
 N548 N 0.66790 0.14256 0.17610
 C549 C 0.66973 0.13318 0.18377
 C550 C 0.67978 0.12662 0.17981
 C551 C 0.68363 0.13269 0.16945
 H552 H 0.66410 0.13121 0.19157
 H553 H 0.69130 0.13042 0.16374
 Cu554 Cu 0.65537 0.15508 0.17607
 Cu555 Cu 0.67695 0.15427 0.15449
 Cu556 Cu 0.65588 0.17777 0.15587
 N557 N 0.64276 0.16754 0.17602
 N558 N 0.64292 0.17629 0.16789
 C559 C 0.63339 0.18374 0.16979
 C560 C 0.62684 0.17947 0.17970
 C561 C 0.63308 0.16912 0.18338
 H562 H 0.63147 0.19171 0.16437
 H563 H 0.63085 0.16326 0.19094
 N564 N 0.66813 0.17639 0.14284
 N565 N 0.67613 0.16744 0.14230
 C566 C 0.68335 0.16914 0.13255
 C567 C 0.67973 0.17966 0.12660
 C568 C 0.67001 0.18397 0.13340
 H569 H 0.69080 0.16322 0.13008
 H570 H 0.66466 0.19203 0.13163
 H571 H 0.66944 0.16784 0.16458
 H572 H 0.65872 0.15925 0.15463
 N573 N 0.17611 0.64265 0.16758
 N574 N 0.16772 0.64287 0.17609
 C575 C 0.16953 0.63346 0.18372
 C576 C 0.17963 0.62696 0.17980
 C577 C 0.18354 0.63311 0.16950
 H578 H 0.16393 0.63151 0.19155
 H579 H 0.19117 0.63082 0.16375
 Cu580 Cu 0.15523 0.65543 0.17613
 Cu581 Cu 0.17691 0.65475 0.15465
 Cu582 Cu 0.15467 0.67719 0.15475
 N583 N 0.14277 0.66802 0.17618
 N584 N 0.14259 0.67646 0.16772
 C585 C 0.13310 0.68393 0.16970
 C586 C 0.12692 0.68000 0.17997
 C587 C 0.13336 0.66984 0.18382
 H588 H 0.13083 0.69160 0.16398
 H589 H 0.13138 0.66420 0.19162
 N590 N 0.16769 0.67636 0.14243
 N591 N 0.17615 0.66782 0.14239
 C592 C 0.18371 0.66976 0.13295
 C593 C 0.17987 0.68003 0.12671
 C594 C 0.16967 0.68394 0.13302
 H595 H 0.19151 0.66416 0.13085
 H596 H 0.16403 0.69170 0.13088
 H597 H 0.16847 0.66858 0.16415
 H598 H 0.15854 0.65879 0.15447
 N599 N 0.17620 0.14248 0.66779
 N600 N 0.16762 0.14249 0.67610
 C601 C 0.16950 0.13310 0.68376
 C602 C 0.17981 0.12683 0.68003
 C603 C 0.18380 0.13310 0.66985
 H604 H 0.16378 0.13102 0.69147
 H605 H 0.19160 0.13099 0.66424
 Cu606 Cu 0.15477 0.15470 0.67604
 Cu607 Cu 0.17692 0.15459 0.65489
 Cu608 Cu 0.15457 0.17683 0.65486
 N609 N 0.14250 0.16750 0.67606
 N610 N 0.14245 0.17606 0.66773
 C611 C 0.13305 0.18363 0.66977
 C612 C 0.12681 0.17965 0.67998
 C613 C 0.13311 0.16937 0.68373
 H614 H 0.13090 0.19140 0.66416
 H615 H 0.13106 0.16368 0.69147
 N616 N 0.16762 0.17609 0.64259
 N617 N 0.17613 0.16762 0.64261
 C618 C 0.18370 0.16957 0.63318
 C619 C 0.17980 0.17979 0.62689
 C620 C 0.16955 0.18366 0.63316
 H621 H 0.19144 0.16391 0.63103
 H622 H 0.16395 0.19146 0.63106
 H623 H 0.16817 0.16816 0.66457
 H624 H 0.15853 0.15846 0.65450
 N625 N 0.32363 0.64264 0.33218
 N626 N 0.33217 0.64270 0.32382
 C627 C 0.33032 0.63331 0.31617
 C628 C 0.32004 0.62700 0.31993
 C629 C 0.31607 0.63323 0.33014
 H630 H 0.33600 0.63127 0.30842
 H631 H 0.30831 0.63108 0.33577
 Cu632 Cu 0.34482 0.65510 0.32378
 Cu633 Cu 0.32288 0.65472 0.34509
 Cu634 Cu 0.34531 0.67688 0.34523
 N635 N 0.35735 0.66762 0.32398
 N636 N 0.35747 0.67610 0.33239
 C637 C 0.36694 0.68359 0.33042
 C638 C 0.37316 0.67964 0.32019
 C639 C 0.36678 0.66944 0.31636
 H640 H 0.36905 0.69139 0.33601
 H641 H 0.36885 0.66373 0.30864
 N642 N 0.33222 0.67616 0.35746
 N643 N 0.32368 0.66773 0.35739
 C644 C 0.31610 0.66968 0.36681
 C645 C 0.32003 0.67985 0.37315
 C646 C 0.33030 0.68369 0.36692
 H647 H 0.30833 0.66405 0.36895
 H648 H 0.33594 0.69145 0.36906
 H649 H 0.33157 0.66840 0.33560
 H650 H 0.34129 0.65849 0.34540
 N651 N 0.32366 0.14236 0.83238
 N652 N 0.33221 0.14242 0.82403
 C653 C 0.33035 0.13306 0.81636
 C654 C 0.32007 0.12675 0.82010
 C655 C 0.31609 0.13297 0.83032
 H656 H 0.33604 0.13102 0.80861
 H657 H 0.30832 0.13081 0.83594
 Cu658 Cu 0.34496 0.15473 0.82408
 Cu659 Cu 0.32290 0.15443 0.84530
 Cu660 Cu 0.34519 0.17673 0.84532
 N661 N 0.35726 0.16749 0.82407
 N662 N 0.35729 0.17604 0.83241
 C663 C 0.36669 0.18362 0.83036
 C664 C 0.37294 0.17964 0.82016
 C665 C 0.36665 0.16935 0.81642
 H666 H 0.36875 0.19147 0.83589
 H667 H 0.36879 0.16358 0.80877
 N668 N 0.33217 0.17591 0.85761
 N669 N 0.32367 0.16744 0.85760
 C670 C 0.31611 0.16937 0.86704
 C671 C 0.32001 0.17957 0.87334
 C672 C 0.33024 0.18345 0.86706
 H673 H 0.30829 0.16378 0.86912
 H674 H 0.33593 0.19116 0.86924
 H675 H 0.33155 0.16806 0.83567
 H676 H 0.34127 0.15833 0.84565
 N677 N 0.82389 0.64251 0.83237
 N678 N 0.83235 0.64265 0.82393
 C679 C 0.83053 0.63321 0.81633
 C680 C 0.82036 0.62680 0.82019
 C681 C 0.81642 0.63301 0.83043
 H682 H 0.83615 0.63121 0.80852
 H683 H 0.80873 0.63079 0.83613
 Cu684 Cu 0.84482 0.65524 0.82367
 Cu685 Cu 0.82313 0.65464 0.84525
 Cu686 Cu 0.84553 0.67681 0.84538
 N687 N 0.85752 0.66761 0.82407
 N688 N 0.85771 0.67600 0.83256
 C689 C 0.86726 0.68343 0.83067
 C690 C 0.87345 0.67950 0.82041
 C691 C 0.86698 0.66940 0.81649
 H692 H 0.86943 0.69117 0.83631
 H693 H 0.86900 0.66374 0.80872
 N694 N 0.83243 0.67611 0.85757
 N695 N 0.82389 0.66768 0.85752
 C696 C 0.81630 0.66965 0.86692
 C697 C 0.82022 0.67983 0.87324
 C698 C 0.83049 0.68367 0.86701
 H699 H 0.80853 0.66401 0.86905
 H700 H 0.83612 0.69143 0.86914
 H701 H 0.83172 0.66841 0.83581
 H702 H 0.84158 0.65838 0.84536
 N703 N 0.82380 0.14235 0.33220
 N704 N 0.83234 0.14242 0.32385
 C705 C 0.83048 0.13304 0.31618
 C706 C 0.82020 0.12673 0.31994
 C707 C 0.81623 0.13296 0.33016
 H708 H 0.83616 0.13100 0.30843
 H709 H 0.80848 0.13079 0.33579
 Cu710 Cu 0.84508 0.15473 0.32390
 Cu711 Cu 0.82303 0.15443 0.34512
 Cu712 Cu 0.84531 0.17674 0.34513
 N713 N 0.85737 0.16749 0.32388
 N714 N 0.85741 0.17604 0.33222
 C715 C 0.86680 0.18362 0.33017
 C716 C 0.87305 0.17964 0.31997
 C717 C 0.86676 0.16935 0.31623
 H718 H 0.86887 0.19147 0.33570
 H719 H 0.86891 0.16358 0.30857
 N720 N 0.83229 0.17591 0.35743
 N721 N 0.82380 0.16743 0.35741
 C722 C 0.81623 0.16937 0.36685
 C723 C 0.82013 0.17957 0.37315
 C724 C 0.83036 0.18345 0.36688
 H725 H 0.80842 0.16378 0.36892
 H726 H 0.83604 0.19117 0.36905
 H727 H 0.83167 0.16806 0.33549
 H728 H 0.84141 0.15833 0.34547
 N729 N 0.67634 0.35747 0.33222
 N730 N 0.66793 0.35726 0.32373
 C731 C 0.66975 0.36667 0.31609
 C732 C 0.67986 0.37314 0.31999
 C733 C 0.68377 0.36699 0.33028
 H734 H 0.66415 0.36864 0.30825
 H735 H 0.69140 0.36927 0.33602
 Cu736 Cu 0.65540 0.34475 0.32364
 Cu737 Cu 0.67712 0.34538 0.34514
 Cu738 Cu 0.65483 0.32302 0.34510
 N739 N 0.64294 0.33218 0.32369
 N740 N 0.64274 0.32376 0.33216
 C741 C 0.63324 0.31631 0.33020
 C742 C 0.62707 0.32023 0.31992
 C743 C 0.63352 0.33037 0.31604
 H744 H 0.63099 0.30866 0.33593
 H745 H 0.63154 0.33599 0.30823
 N746 N 0.66786 0.32384 0.35740
 N747 N 0.67634 0.33233 0.35741
 C748 C 0.68391 0.33037 0.36684
 C749 C 0.68004 0.32014 0.37311
 C750 C 0.66981 0.31627 0.36682
 H751 H 0.69172 0.33597 0.36893
 H752 H 0.66415 0.30852 0.36896
 H753 H 0.66865 0.33157 0.33569
 H754 H 0.65876 0.34141 0.34534
 N755 N 0.67638 0.85764 0.83242
 N756 N 0.66801 0.85739 0.82390
 C757 C 0.66983 0.86678 0.81625
 C758 C 0.67990 0.87330 0.82018
 C759 C 0.68380 0.86719 0.83050
 H760 H 0.66417 0.86878 0.80847
 H761 H 0.69150 0.86943 0.83618
 Cu762 Cu 0.65557 0.84478 0.82383
 Cu763 Cu 0.67711 0.84559 0.84540
 Cu764 Cu 0.65489 0.82315 0.84528
 N765 N 0.64308 0.83223 0.82376
 N766 N 0.64288 0.82382 0.83225
 C767 C 0.63339 0.81634 0.83029
 C768 C 0.62724 0.82023 0.81998
 C769 C 0.63369 0.83037 0.81610
 H770 H 0.63112 0.80870 0.83603
 H771 H 0.63172 0.83599 0.80829
 N772 N 0.66784 0.82403 0.85766
 N773 N 0.67629 0.83257 0.85772
 C774 C 0.68381 0.83065 0.86718
 C775 C 0.67995 0.82039 0.87342
 C776 C 0.66978 0.81647 0.86709
 H777 H 0.69160 0.83625 0.86930
 H778 H 0.66415 0.80870 0.86921
 H779 H 0.66874 0.83173 0.83593
 H780 H 0.65875 0.84154 0.84550
 N781 N 0.17616 0.35750 0.83248
 N782 N 0.16770 0.35735 0.82404
 C783 C 0.16954 0.36675 0.81640
 C784 C 0.17971 0.37316 0.82024
 C785 C 0.18365 0.36697 0.83050
 H786 H 0.16382 0.36882 0.80868
 H787 H 0.19143 0.36913 0.83611
 Cu788 Cu 0.15504 0.34494 0.82400
 Cu789 Cu 0.17690 0.34539 0.84538
 Cu790 Cu 0.15469 0.32298 0.84527
 N791 N 0.14274 0.33218 0.82391
 N792 N 0.14264 0.32368 0.83230
 C793 C 0.13322 0.31614 0.83028
 C794 C 0.12702 0.32008 0.82003
 C795 C 0.13337 0.33031 0.81624
 H796 H 0.13103 0.30842 0.83595
 H797 H 0.13133 0.33599 0.80849
 N798 N 0.16767 0.32382 0.85760
 N799 N 0.17612 0.33234 0.85765
 C800 C 0.18366 0.33041 0.86711
 C801 C 0.17980 0.32016 0.87336
 C802 C 0.16961 0.31625 0.86703
 H803 H 0.19143 0.33604 0.86924
 H804 H 0.16398 0.30848 0.86915
 H805 H 0.16836 0.33168 0.83577
 H806 H 0.15850 0.34139 0.84562
 N807 N 0.17624 0.85765 0.33220
 N808 N 0.16794 0.85732 0.32360
 C809 C 0.16982 0.86667 0.31590
 C810 C 0.17986 0.87321 0.31987
 C811 C 0.18367 0.86717 0.33026
 H812 H 0.16429 0.86855 0.30800
 H813 H 0.19123 0.86953 0.33608
 Cu814 Cu 0.15536 0.84487 0.32370
 Cu815 Cu 0.17695 0.84568 0.34528
 Cu816 Cu 0.15580 0.82230 0.34405
 N817 N 0.14274 0.83244 0.32381
 N818 N 0.14286 0.82374 0.33201
 C819 C 0.13331 0.81633 0.33016
 C820 C 0.12678 0.82055 0.32022
 C821 C 0.13307 0.83084 0.31645
 H822 H 0.13135 0.80840 0.33564
 H823 H 0.13087 0.83667 0.30886
 N824 N 0.16807 0.82368 0.35706
 N825 N 0.17611 0.83258 0.35752
 C826 C 0.18335 0.83089 0.36725
 C827 C 0.17970 0.82042 0.37327
 C828 C 0.16993 0.81614 0.36653
 H829 H 0.19085 0.83677 0.36967
 H830 H 0.16455 0.80812 0.36836
 H831 H 0.16940 0.83209 0.33523
 H832 H 0.15873 0.84080 0.34515
 C833 C 0.25389 0.96183 0.24509
 C834 C 0.24479 0.96186 0.25359
 C835 C 0.24246 0.97394 0.25638
 N836 N 0.24984 0.98125 0.24982
 C837 C 0.25682 0.97390 0.24285
 C838 C 0.23393 0.97787 0.26520
 C839 C 0.23153 0.99020 0.26816
 C840 C 0.22463 0.99389 0.27805
 C841 C 0.22463 1.00640 0.27805
 C842 C 0.23154 1.01006 0.26815
 N843 N 0.23550 1.00012 0.26203
 C844 C 0.23390 1.02238 0.26512
 C845 C 0.24240 1.02623 0.25624
 C846 C 0.24439 1.03827 0.25303
 C847 C 0.25359 1.03826 0.24464
 C848 C 0.25695 1.02621 0.24293
 N849 N 0.25008 1.01891 0.25005
 C850 C 0.26617 1.02230 0.23479
 C851 C 0.26907 1.00998 0.23222
 C852 C 0.27751 1.00629 0.22359
 C853 C 0.27737 0.99378 0.22346
 C854 C 0.26891 0.99009 0.23207
 N855 N 0.26404 1.00004 0.23745
 C856 C 0.26584 0.97778 0.23447
 H857 H 0.25792 0.95378 0.24108
 H858 H 0.24047 0.95385 0.25736
 H859 H 0.25788 1.00004 0.24451
 H860 H 0.22016 0.98817 0.28471
 H861 H 0.22017 1.01213 0.28469
 H862 H 0.23972 1.04627 0.25639
 H863 H 0.25731 1.04624 0.24024
 H864 H 0.28282 0.98806 0.21758
 H865 H 0.23980 1.00012 0.25366
 H866 H 0.28310 1.01200 0.21784
 C867 C 0.24768 0.46202 0.75651
 C868 C 0.25653 0.46205 0.74775
 C869 C 0.25787 0.47402 0.74398
 N870 N 0.25005 0.48128 0.75011
 C871 C 0.24386 0.47398 0.75785
 C872 C 0.26590 0.47783 0.73467
 C873 C 0.26795 0.49013 0.73137
 C874 C 0.27446 0.49381 0.72121
 C875 C 0.27447 0.50633 0.72123
 C876 C 0.26797 0.50998 0.73140
 N877 N 0.26420 0.50005 0.73762
 C878 C 0.26593 0.52227 0.73474
 C879 C 0.25789 0.52604 0.74406
 C880 C 0.25654 0.53800 0.74788
 C881 C 0.24768 0.53797 0.75663
 C882 C 0.24387 0.52601 0.75792
 N883 N 0.25008 0.51875 0.75017
 C884 C 0.23446 0.52220 0.76585
 C885 C 0.23114 0.50991 0.76786
 C886 C 0.22092 0.50623 0.77430
 C887 C 0.22092 0.49372 0.77429
 C888 C 0.23114 0.49005 0.76784
 N889 N 0.23740 0.49998 0.76414
 C890 C 0.23446 0.47776 0.76580
 H891 H 0.24440 0.45408 0.76131
 H892 H 0.26139 0.45412 0.74450
 H893 H 0.24598 0.49999 0.76026
 H894 H 0.27876 0.48807 0.71446
 H895 H 0.27878 0.51207 0.71450
 H896 H 0.26138 0.54594 0.74466
 H897 H 0.24439 0.54590 0.76146
 H898 H 0.21414 0.48797 0.77854
 H899 H 0.26026 0.50003 0.74615
 H900 H 0.21414 0.51197 0.77856
 C901 C 0.74724 -0.03822 0.24403
 C902 C 0.75610 -0.03824 0.25278
 C903 C 0.75771 -0.02624 0.25633
 N904 N 0.75004 -0.01893 0.25008
 C905 C 0.74369 -0.02621 0.24247
 C906 C 0.76592 -0.02243 0.26550
 C907 C 0.76812 -0.01013 0.26870
 C908 C 0.77493 -0.00646 0.27866
 C909 C 0.77493 0.00606 0.27865
 C910 C 0.76814 0.00973 0.26868
 N911 N 0.76421 -0.00020 0.26257
 C912 C 0.76597 0.02203 0.26544
 C913 C 0.75782 0.02586 0.25623
 C914 C 0.75632 0.03786 0.25259
 C915 C 0.74746 0.03787 0.24384
 C916 C 0.74379 0.02589 0.24237
 N917 N 0.75008 0.01859 0.25002
 C918 C 0.73448 0.02208 0.23432
 C919 C 0.73123 0.00979 0.23218
 C920 C 0.72120 0.00613 0.22546
 C921 C 0.72119 -0.00639 0.22547
 C922 C 0.73121 -0.01007 0.23221
 N923 N 0.73738 -0.00015 0.23607
 C924 C 0.73443 -0.02236 0.23438
 H925 H 0.74379 -0.04618 0.23938
 H926 H 0.76078 -0.04622 0.25617
 H927 H 0.74580 -0.00016 0.24023
 H928 H 0.77942 -0.01220 0.28528
 H929 H 0.77943 0.01179 0.28526
 H930 H 0.76109 0.04581 0.25591
 H931 H 0.74410 0.04583 0.23912
 H932 H 0.71453 -0.01212 0.22102
 H933 H 0.75999 -0.00020 0.25418
 H934 H 0.71455 0.01187 0.22100
 C935 C 0.74760 0.46187 0.74382
 C936 C 0.75645 0.46188 0.75258
 C937 C 0.75791 0.47386 0.75625
 N938 N 0.75015 0.48114 0.75006
 C939 C 0.74389 0.47385 0.74239
 C940 C 0.76602 0.47767 0.76550
 C941 C 0.76814 0.48997 0.76876
 C942 C 0.77483 0.49364 0.77880
 C943 C 0.77482 0.50616 0.77880
 C944 C 0.76814 0.50983 0.76875
 N945 N 0.76428 0.49990 0.76259
 C946 C 0.76601 0.52213 0.76548
 C947 C 0.75791 0.52593 0.75622
 C948 C 0.75647 0.53790 0.75249
 C949 C 0.74761 0.53790 0.74374
 C950 C 0.74388 0.52592 0.74236
 N951 N 0.75014 0.51864 0.75006
 C952 C 0.73452 0.52211 0.73437
 C953 C 0.73124 0.50982 0.73229
 C954 C 0.72109 0.50615 0.72575
 C955 C 0.72110 0.49363 0.72574
 C956 C 0.73125 0.48995 0.73229
 N957 N 0.73748 0.49988 0.73605
 C958 C 0.73454 0.47766 0.73438
 H959 H 0.74425 0.45391 0.73909
 H960 H 0.76123 0.45392 0.75589
 H961 H 0.74600 0.49989 0.74003
 H962 H 0.77925 0.48790 0.78547
 H963 H 0.77924 0.51190 0.78546
 H964 H 0.76127 0.54585 0.75576
 H965 H 0.74428 0.54585 0.73897
 H966 H 0.71436 0.48789 0.72142
 H967 H 0.76016 0.49990 0.75415
 H968 H 0.71435 0.51189 0.72143
 C969 C 0.25531 0.53832 0.25333
 C970 C 0.24623 0.53833 0.24480
 C971 C 0.24322 0.52625 0.24268
 N972 N 0.25011 0.51893 0.24976
 C973 C 0.25754 0.52625 0.25627
 C974 C 0.23416 0.52236 0.23436
 C975 C 0.23104 0.51005 0.23202
 C976 C 0.22232 0.50635 0.22368
 C977 C 0.22220 0.49384 0.22382
 C978 C 0.23090 0.49016 0.23219
 N979 N 0.23612 0.50011 0.23720
 C980 C 0.23387 0.47784 0.23472
 C981 C 0.24312 0.47396 0.24284
 C982 C 0.24657 0.46193 0.24449
 C983 C 0.25573 0.46193 0.25293
 C984 C 0.25761 0.47396 0.25623
 N985 N 0.24989 0.48127 0.25005
 C986 C 0.26603 0.47783 0.26517
 C987 C 0.26835 0.49015 0.26821
 C988 C 0.27516 0.49383 0.27816
 C989 C 0.27517 0.50634 0.27815
 C990 C 0.26836 0.51002 0.26818
 N991 N 0.26445 0.50008 0.26204
 C992 C 0.26600 0.52234 0.26516
 H993 H 0.25967 0.54634 0.25703
 H994 H 0.24228 0.54636 0.24070
 H995 H 0.26026 0.50007 0.25361
 H996 H 0.21668 0.51206 0.21797
 H997 H 0.21644 0.48811 0.21825
 H998 H 0.24292 0.45394 0.24003
 H999 H 0.26043 0.45395 0.25627
 H1000 H 0.27959 0.51207 0.28482
 H1001 H 0.24270 0.50011 0.24385
 H1002 H 0.27958 0.48810 0.28485
 C1003 C 0.75649 0.96215 0.74784
 C1004 C 0.74765 0.96218 0.75661
 C1005 C 0.74387 0.97415 0.75794
 N1006 N 0.75009 0.98141 0.75019
 C1007 C 0.75788 0.97411 0.74406
 C1008 C 0.73449 0.97798 0.76589
 C1009 C 0.73118 0.99027 0.76794
 C1010 C 0.72098 0.99395 0.77441
 C1011 C 0.72098 1.00647 0.77441
 C1012 C 0.73117 1.01013 0.76793
 N1013 N 0.73743 1.00020 0.76421
 C1014 C 0.73446 1.02242 0.76585
 C1015 C 0.74383 1.02620 0.75786
 C1016 C 0.74759 1.03817 0.75645
 C1017 C 0.75643 1.03814 0.74768
 C1018 C 0.75784 1.02615 0.74399
 N1019 N 0.75006 1.01889 0.75017
 C1020 C 0.76591 1.02232 0.73471
 C1021 C 0.76799 1.01003 0.73143
 C1022 C 0.77462 1.00635 0.72134
 C1023 C 0.77463 0.99383 0.72136
 C1024 C 0.76802 0.99017 0.73146
 N1025 N 0.76419 1.00011 0.73764
 C1026 C 0.76595 0.97789 0.73476
 H1027 H 0.76131 0.95420 0.74460
 H1028 H 0.74435 0.95425 0.76143
 H1029 H 0.76014 1.00012 0.74612
 H1030 H 0.71421 0.98821 0.77868
 H1031 H 0.71421 1.01221 0.77867
 H1032 H 0.74427 1.04613 0.76120
 H1033 H 0.76123 1.04607 0.74437
 H1034 H 0.77901 0.98809 0.71467
 H1035 H 0.74599 1.00018 0.76029
 H1036 H 0.77899 1.01209 0.71465
 C1037 C 0.74480 0.46179 0.25361
 C1038 C 0.75389 0.46178 0.24510
 C1039 C 0.75683 0.47385 0.24289
 N1040 N 0.74987 0.48119 0.24990
 C1041 C 0.74249 0.47387 0.25645
 C1042 C 0.76585 0.47775 0.23453
 C1043 C 0.76892 0.49006 0.23214
 C1044 C 0.77744 0.49376 0.22359
 C1045 C 0.77757 0.50627 0.22374
 C1046 C 0.76908 0.50995 0.23232
 N1047 N 0.76400 0.50000 0.23749
 C1048 C 0.76616 0.52226 0.23490
 C1049 C 0.75695 0.52615 0.24305
 C1050 C 0.75359 0.53820 0.24478
 C1051 C 0.74440 0.53820 0.25319
 C1052 C 0.74242 0.52616 0.25639
 N1053 N 0.75010 0.51884 0.25018
 C1054 C 0.73393 0.52228 0.26527
 C1055 C 0.73157 0.50997 0.26828
 C1056 C 0.72466 0.50629 0.27817
 C1057 C 0.72466 0.49378 0.27817
 C1058 C 0.73157 0.49010 0.26827
 N1059 N 0.73554 0.50004 0.26216
 C1060 C 0.73398 0.47778 0.26529
 H1061 H 0.74048 0.45377 0.25736
 H1062 H 0.75790 0.45374 0.24105
 H1063 H 0.73983 0.50004 0.25378
 H1064 H 0.78293 0.48805 0.21774
 H1065 H 0.78320 0.51200 0.21803
 H1066 H 0.75730 0.54619 0.24038
 H1067 H 0.73974 0.54619 0.25657
 H1068 H 0.72019 0.48805 0.28480
 H1069 H 0.75776 0.50000 0.24447
 H1070 H 0.72019 0.51202 0.28481
 C1071 C 0.25589 -0.03843 0.75304
 C1072 C 0.24671 -0.03838 0.74463
 C1073 C 0.24331 -0.02633 0.74299
 N1074 N 0.25013 -0.01906 0.75018
 C1075 C 0.25784 -0.02640 0.75634
 C1076 C 0.23407 -0.02241 0.73488
 C1077 C 0.23112 -0.01008 0.73235
 C1078 C 0.22254 -0.00638 0.72387
 C1079 C 0.22266 0.00613 0.72375
 C1080 C 0.23126 0.00981 0.73222
 N1081 N 0.23625 -0.00015 0.73748
 C1082 C 0.23436 0.02212 0.73461
 C1083 C 0.24340 0.02598 0.74297
 C1084 C 0.24638 0.03804 0.74519
 C1085 C 0.25546 0.03799 0.75371
 C1086 C 0.25774 0.02589 0.75653
 N1087 N 0.25034 0.01861 0.74997
 C1088 C 0.26624 0.02195 0.76538
 C1089 C 0.26864 0.00961 0.76834
 C1090 C 0.27554 0.00590 0.77824
 C1091 C 0.27555 -0.00661 0.77821
 C1092 C 0.26867 -0.01026 0.76830
 N1093 N 0.26470 -0.00031 0.76219
 C1094 C 0.26632 -0.02258 0.76525
 H1095 H 0.26058 -0.04643 0.75636
 H1096 H 0.24302 -0.04635 0.74017
 H1097 H 0.26043 -0.00028 0.75381
 H1098 H 0.21685 -0.01209 0.71822
 H1099 H 0.21710 0.01185 0.71798
 H1100 H 0.24238 0.04609 0.74117
 H1101 H 0.25980 0.04599 0.75747
 H1102 H 0.28001 -0.01235 0.78485
 H1103 H 0.24264 -0.00017 0.74433
 H1104 H 0.27999 0.01162 0.78490
 C1105 C 0.25340 0.24446 0.96197
 C1106 C 0.24476 0.25345 0.96196
 C1107 C 0.24265 0.25649 0.97401
 N1108 N 0.24986 0.24972 0.98133
 C1109 C 0.25640 0.24231 0.97402
 C1110 C 0.23426 0.26553 0.97789
 C1111 C 0.23199 0.26873 0.99018
 C1112 C 0.22396 0.27776 0.99387
 C1113 C 0.22412 0.27790 1.00637
 C1114 C 0.23218 0.26890 1.01005
 N1115 N 0.23693 0.26342 1.00012
 C1116 C 0.23466 0.26587 1.02234
 C1117 C 0.24275 0.25658 1.02620
 C1118 C 0.24429 0.25302 1.03821
 C1119 C 0.25280 0.24391 1.03820
 C1120 C 0.25625 0.24216 1.02620
 N1121 N 0.25012 0.24994 1.01892
 C1122 C 0.26528 0.23381 1.02235
 C1123 C 0.26840 0.23155 1.01006
 C1124 C 0.27842 0.22480 1.00639
 C1125 C 0.27843 0.22481 0.99390
 C1126 C 0.26842 0.23157 0.99022
 N1127 N 0.26222 0.23542 1.00013
 C1128 C 0.26538 0.23391 0.97791
 H1129 H 0.25712 0.24010 0.95396
 H1130 H 0.24059 0.25733 0.95393
 H1131 H 0.25374 0.23953 1.00014
 H1132 H 0.21845 0.28360 0.98817
 H1133 H 0.21878 0.28388 1.01209
 H1134 H 0.23971 0.25656 1.04617
 H1135 H 0.25607 0.23913 1.04616
 H1136 H 0.28515 0.22043 0.98818
 H1137 H 0.24302 0.25632 1.00012
 H1138 H 0.28512 0.22041 1.01212
 C1139 C 0.24779 0.75670 0.53785
 C1140 C 0.25659 0.74787 0.53787
 C1141 C 0.25792 0.74405 0.52593
 N1142 N 0.25015 0.75023 0.51865
 C1143 C 0.24400 0.75803 0.52591
 C1144 C 0.26590 0.73466 0.52215
 C1145 C 0.26793 0.73133 0.50988
 C1146 C 0.27441 0.72113 0.50622
 C1147 C 0.27440 0.72112 0.49371
 C1148 C 0.26791 0.73132 0.49004
 N1149 N 0.26418 0.73758 0.49996
 C1150 C 0.26587 0.73464 0.47777
 C1151 C 0.25789 0.74402 0.47397
 C1152 C 0.25657 0.74782 0.46202
 C1153 C 0.24777 0.75665 0.46201
 C1154 C 0.24396 0.75798 0.47396
 N1155 N 0.25011 0.75019 0.48123
 C1156 C 0.23459 0.76598 0.47774
 C1157 C 0.23128 0.76803 0.49001
 C1158 C 0.22108 0.77451 0.49368
 C1159 C 0.22109 0.77453 0.50618
 C1160 C 0.23130 0.76806 0.50984
 N1161 N 0.23755 0.76431 0.49992
 C1162 C 0.23464 0.76603 0.52210
 H1163 H 0.24453 0.76154 0.54578
 H1164 H 0.26140 0.74459 0.54580
 H1165 H 0.24612 0.76040 0.49992
 H1166 H 0.27869 0.71437 0.51195
 H1167 H 0.27868 0.71436 0.48798
 H1168 H 0.26141 0.74455 0.45410
 H1169 H 0.24451 0.76148 0.45408
 H1170 H 0.21433 0.77882 0.51191
 H1171 H 0.26026 0.74613 0.49995
 H1172 H 0.21430 0.77878 0.48795
 C1173 C 0.24800 0.74356 0.03788
 C1174 C 0.25682 0.75236 0.03786
 C1175 C 0.25810 0.75620 0.02592
 N1176 N 0.25028 0.75006 0.01867
 C1177 C 0.24415 0.74227 0.02595
 C1178 C 0.26606 0.76559 0.02212
 C1179 C 0.26808 0.76891 0.00984
 C1180 C 0.27449 0.77914 0.00616
 C1181 C 0.27451 0.77911 -0.00634
 C1182 C 0.26812 0.76886 -0.00999
 N1183 N 0.26441 0.76260 -0.00006
 C1184 C 0.26613 0.76549 -0.02225
 C1185 C 0.25817 0.75609 -0.02601
 C1186 C 0.25689 0.75221 -0.03793
 C1187 C 0.24806 0.74342 -0.03791
 C1188 C 0.24419 0.74219 -0.02598
 N1189 N 0.25033 0.75001 -0.01874
 C1190 C 0.23475 0.73428 -0.02218
 C1191 C 0.23140 0.73231 -0.00991
 C1192 C 0.22115 0.72592 -0.00624
 C1193 C 0.22115 0.72592 0.00626
 C1194 C 0.23139 0.73232 0.00992
 N1195 N 0.23768 0.73599 -0.00000
 C1196 C 0.23474 0.73432 0.02218
 H1197 H 0.24477 0.73872 0.04581
 H1198 H 0.26169 0.75560 0.04578
 H1199 H 0.24628 0.73983 -0.00001
 H1200 H 0.27870 0.78595 0.01189
 H1201 H 0.27875 0.78589 -0.01208
 H1202 H 0.26178 0.75540 -0.04586
 H1203 H 0.24482 0.73855 -0.04582
 H1204 H 0.21435 0.72170 0.01200
 H1205 H 0.26057 0.75401 -0.00004
 H1206 H 0.21435 0.72169 -0.01197
 C1207 C 0.25289 0.25590 0.53818
 C1208 C 0.24433 0.24684 0.53819
 C1209 C 0.24272 0.24335 0.52618
 N1210 N 0.25008 0.24997 0.51889
 C1211 C 0.25628 0.25769 0.52617
 C1212 C 0.23455 0.23412 0.52233
 C1213 C 0.23206 0.23111 0.51003
 C1214 C 0.22399 0.22213 0.50635
 C1215 C 0.22384 0.22226 0.49385
 C1216 C 0.23189 0.23127 0.49016
 N1217 N 0.23682 0.23657 0.50009
 C1218 C 0.23420 0.23444 0.47786
 C1219 C 0.24262 0.24344 0.47398
 C1220 C 0.24476 0.24645 0.46192
 C1221 C 0.25342 0.25541 0.46192
 C1222 C 0.25641 0.25758 0.47397
 N1223 N 0.24984 0.25020 0.48129
 C1224 C 0.26537 0.26598 0.47786
 C1225 C 0.26840 0.26835 0.49016
 C1226 C 0.27835 0.27518 0.49384
 C1227 C 0.27835 0.27518 0.50634
 C1228 C 0.26839 0.26835 0.51001
 N1229 N 0.26224 0.26444 0.50009
 C1230 C 0.26530 0.26604 0.52230
 H1231 H 0.25623 0.26063 0.54614
 H1232 H 0.23978 0.24330 0.54616
 H1233 H 0.25381 0.26026 0.50010
 H1234 H 0.21864 0.21616 0.51207
 H1235 H 0.21835 0.21642 0.48814
 H1236 H 0.24060 0.24257 0.45390
 H1237 H 0.25716 0.25974 0.45391
 H1238 H 0.28501 0.27963 0.51206
 H1239 H 0.24290 0.24368 0.50009
 H1240 H 0.28502 0.27963 0.48812
 C1241 C 0.74665 0.75539 1.03825
 C1242 C 0.75525 0.74637 1.03826
 C1243 C 0.75741 0.74336 1.02621
 N1244 N 0.75025 0.75018 1.01889
 C1245 C 0.74370 0.75759 1.02620
 C1246 C 0.76579 0.73433 1.02233
 C1247 C 0.76812 0.73116 1.01003
 C1248 C 0.77627 0.72224 1.00635
 C1249 C 0.77614 0.72212 0.99384
 C1250 C 0.76798 0.73103 0.99016
 N1251 N 0.76312 0.73641 1.00010
 C1252 C 0.76551 0.73406 0.97786
 C1253 C 0.75739 0.74332 0.97400
 C1254 C 0.75582 0.74686 0.96200
 C1255 C 0.74729 0.75596 0.96200
 C1256 C 0.74387 0.75772 0.97401
 N1257 N 0.75003 0.74997 0.98129
 C1258 C 0.73484 0.76607 0.97786
 C1259 C 0.73174 0.76836 0.99016
 C1260 C 0.72173 0.77513 0.99382
 C1261 C 0.72173 0.77514 1.00631
 C1262 C 0.73173 0.76837 1.00999
 N1263 N 0.73792 0.76448 1.00008
 C1264 C 0.73476 0.76602 1.02230
 H1265 H 0.74292 0.75973 1.04626
 H1266 H 0.75937 0.74243 1.04629
 H1267 H 0.74639 0.76036 1.00008
 H1268 H 0.78183 0.71646 1.01206
 H1269 H 0.78157 0.71622 0.98813
 H1270 H 0.76038 0.74331 0.95403
 H1271 H 0.74399 0.76071 0.95404
 H1272 H 0.71502 0.77954 1.01203
 H1273 H 0.75684 0.74334 1.00009
 H1274 H 0.71503 0.77952 0.98809
 C1275 C 0.74490 0.25349 0.46177
 C1276 C 0.75354 0.24450 0.46177
 C1277 C 0.75647 0.24228 0.47383
 N1278 N 0.74989 0.24965 0.48114
 C1279 C 0.74273 0.25648 0.47383
 C1280 C 0.76541 0.23384 0.47773
 C1281 C 0.76839 0.23144 0.49004
 C1282 C 0.77833 0.22458 0.49373
 C1283 C 0.77831 0.22457 0.50622
 C1284 C 0.76835 0.23142 0.50988
 N1285 N 0.76222 0.23536 0.49995
 C1286 C 0.76526 0.23373 0.52218
 C1287 C 0.75627 0.24212 0.52604
 C1288 C 0.75290 0.24395 0.53805
 C1289 C 0.74439 0.25306 0.53805
 C1290 C 0.74276 0.25654 0.52604
 N1291 N 0.75007 0.24985 0.51875
 C1292 C 0.73461 0.26578 0.52217
 C1293 C 0.73211 0.26878 0.50987
 C1294 C 0.72392 0.27766 0.50619
 C1295 C 0.72379 0.27753 0.49368
 C1296 C 0.73197 0.26863 0.49000
 N1297 N 0.73699 0.26341 0.49994
 C1298 C 0.73431 0.26548 0.47771
 H1299 H 0.74078 0.25742 0.45374
 H1300 H 0.75729 0.24018 0.45377
 H1301 H 0.74330 0.25650 0.49994
 H1302 H 0.78501 0.22013 0.48802
 H1303 H 0.78496 0.22010 0.51196
 H1304 H 0.75624 0.23923 0.54602
 H1305 H 0.73987 0.25665 0.54602
 H1306 H 0.71822 0.28330 0.48797
 H1307 H 0.75380 0.23957 0.49995
 H1308 H 0.71848 0.28356 0.51190
 C1309 C 0.75652 0.25233 -0.03795
 C1310 C 0.74773 0.24351 -0.03794
 C1311 C 0.74387 0.24224 -0.02601
 N1312 N 0.74998 0.25007 -0.01876
 C1313 C 0.75779 0.25620 -0.02602
 C1314 C 0.73447 0.23428 -0.02221
 C1315 C 0.73114 0.23227 -0.00994
 C1316 C 0.72090 0.22587 -0.00626
 C1317 C 0.72092 0.22586 0.00624
 C1318 C 0.73116 0.23226 0.00989
 N1319 N 0.73743 0.23596 -0.00003
 C1320 C 0.73452 0.23426 0.02216
 C1321 C 0.74392 0.24222 0.02593
 C1322 C 0.74779 0.24350 0.03786
 C1323 C 0.75659 0.25232 0.03785
 C1324 C 0.75785 0.25617 0.02591
 N1325 N 0.75004 0.25003 0.01866
 C1326 C 0.76580 0.26557 0.02212
 C1327 C 0.76778 0.26893 0.00985
 C1328 C 0.77419 0.27917 0.00618
 C1329 C 0.77417 0.27918 -0.00632
 C1330 C 0.76775 0.26895 -0.00998
 N1331 N 0.76407 0.26266 -0.00006
 C1332 C 0.76574 0.26561 -0.02225
 H1333 H 0.76139 0.25555 -0.04587
 H1334 H 0.74451 0.23863 -0.04585
 H1335 H 0.76021 0.25408 -0.00006
 H1336 H 0.71410 0.22164 -0.01199
 H1337 H 0.71413 0.22163 0.01198
 H1338 H 0.74457 0.23863 0.04579
 H1339 H 0.76145 0.25556 0.04577
 H1340 H 0.77840 0.28597 -0.01206
 H1341 H 0.74603 0.23980 -0.00004
 H1342 H 0.77843 0.28595 0.01191
 C1343 C 0.74777 0.74355 0.46216
 C1344 C 0.75656 0.75237 0.46215
 C1345 C 0.75785 0.75622 0.47408
 N1346 N 0.75006 0.75008 0.48135
 C1347 C 0.74393 0.74226 0.47410
 C1348 C 0.76580 0.76563 0.47786
 C1349 C 0.76783 0.76895 0.49012
 C1350 C 0.77427 0.77917 0.49378
 C1351 C 0.77429 0.77916 0.50628
 C1352 C 0.76786 0.76894 0.50995
 N1353 N 0.76414 0.76268 0.50004
 C1354 C 0.76586 0.76559 0.52222
 C1355 C 0.75790 0.75621 0.52602
 C1356 C 0.75660 0.75239 0.53797
 C1357 C 0.74779 0.74358 0.53798
 C1358 C 0.74396 0.74226 0.52605
 N1359 N 0.75010 0.75006 0.51877
 C1360 C 0.73458 0.73428 0.52227
 C1361 C 0.73124 0.73226 0.51000
 C1362 C 0.72102 0.72581 0.50635
 C1363 C 0.72101 0.72582 0.49384
 C1364 C 0.73123 0.73227 0.49017
 N1365 N 0.73750 0.73598 0.50008
 C1366 C 0.73455 0.73429 0.47790
 H1367 H 0.74453 0.73869 0.45424
 H1368 H 0.76141 0.75562 0.45422
 H1369 H 0.74607 0.73987 0.50007
 H1370 H 0.77851 0.78596 0.48805
 H1371 H 0.77855 0.78594 0.51201
 H1372 H 0.76145 0.75565 0.54589
 H1373 H 0.74455 0.73873 0.54591
 H1374 H 0.71423 0.72156 0.48812
 H1375 H 0.76027 0.75410 0.50005
 H1376 H 0.71425 0.72155 0.51209
 C1377 C 1.03822 0.25539 0.24656
 C1378 C 1.03821 0.24633 0.25511
 C1379 C 1.02613 0.24335 0.25725
 N1380 N 1.01881 0.25024 0.25015
 C1381 C 1.02614 0.25764 0.24364
 C1382 C 1.02222 0.23430 0.26560
 C1383 C 1.00990 0.23116 0.26791
 C1384 C 1.00620 0.22228 0.27609
 C1385 C 0.99367 0.22215 0.27593
 C1386 C 0.99000 0.23101 0.26773
 N1387 N 0.99995 0.23636 0.26286
 C1388 C 0.97768 0.23400 0.26521
 C1389 C 0.97381 0.24327 0.25709
 C1390 C 0.96178 0.24675 0.25545
 C1391 C 0.96180 0.25589 0.24699
 C1392 C 0.97384 0.25774 0.24368
 N1393 N 0.98113 0.24999 0.24985
 C1394 C 0.97773 0.26617 0.23475
 C1395 C 0.99006 0.26850 0.23171
 C1396 C 0.99375 0.27538 0.22180
 C1397 C 1.00626 0.27540 0.22183
 C1398 C 1.00993 0.26852 0.23175
 N1399 N 0.99998 0.26456 0.23786
 C1400 C 1.02225 0.26614 0.23477
 H1401 H 1.04624 0.25972 0.24284
 H1402 H 1.04624 0.24236 0.25920
 H1403 H 0.99996 0.26033 0.24626
 H1404 H 1.01191 0.21653 0.28168
 H1405 H 0.98795 0.21627 0.28137
 H1406 H 0.95379 0.24314 0.25993
 H1407 H 0.95383 0.26062 0.24366
 H1408 H 1.01200 0.27987 0.21520
 H1409 H 0.99996 0.24320 0.25648
 H1410 H 0.98802 0.27985 0.21515
 C1411 C 0.46177 0.24662 0.75562
 C1412 C 0.46178 0.25575 0.74714
 C1413 C 0.47382 0.25758 0.74380
 N1414 N 0.48111 0.24983 0.74997
 C1415 C 0.47380 0.24313 0.75725
 C1416 C 0.47770 0.26599 0.73485
 C1417 C 0.49002 0.26830 0.73178
 C1418 C 0.49370 0.27516 0.72186
 C1419 C 0.50621 0.27516 0.72186
 C1420 C 0.50990 0.26829 0.73178
 N1421 N 0.49996 0.26436 0.73791
 C1422 C 0.52223 0.26591 0.73479
 C1423 C 0.52612 0.25744 0.74369
 C1424 C 0.53820 0.25521 0.74661
 C1425 C 0.53820 0.24619 0.75521
 C1426 C 0.52612 0.24321 0.75738
 N1427 N 0.51880 0.25006 0.75024
 C1428 C 0.52223 0.23419 0.76576
 C1429 C 0.50990 0.23104 0.76808
 C1430 C 0.50620 0.22214 0.77623
 C1431 C 0.49368 0.22200 0.77607
 C1432 C 0.48999 0.23088 0.76789
 N1433 N 0.49995 0.23626 0.76305
 C1434 C 0.47767 0.23387 0.76537
 H1435 H 0.45378 0.24303 0.76012
 H1436 H 0.45381 0.26048 0.74382
 H1437 H 0.49995 0.24316 0.75674
 H1438 H 0.48797 0.27963 0.71521
 H1439 H 0.51195 0.27962 0.71521
 H1440 H 0.54622 0.25952 0.74287
 H1441 H 0.54624 0.24224 0.75932
 H1442 H 0.48795 0.21610 0.78148
 H1443 H 0.49995 0.26014 0.74631
 H1444 H 0.51192 0.21637 0.78180
 C1445 C 0.03812 0.24448 0.74671
 C1446 C 0.03814 0.25350 0.75529
 C1447 C 0.02606 0.25658 0.75738
 N1448 N 0.01873 0.24980 0.75021
 C1449 C 0.02605 0.24234 0.74372
 C1450 C 0.02218 0.26566 0.76571
 C1451 C 0.00987 0.26888 0.76797
 C1452 C 0.00618 0.27797 0.77591
 C1453 C -0.00635 0.27812 0.77576
 C1454 C -0.01004 0.26905 0.76779
 N1455 N -0.00009 0.26353 0.76310
 C1456 C -0.02236 0.26602 0.76534
 C1457 C -0.02623 0.25671 0.75730
 C1458 C -0.03825 0.25316 0.75577
 C1459 C -0.03824 0.24402 0.74732
 C1460 C -0.02622 0.24224 0.74389
 N1461 N -0.01893 0.25004 0.74998
 C1462 C -0.02237 0.23384 0.73492
 C1463 C -0.01005 0.23156 0.73181
 C1464 C -0.00638 0.22477 0.72183
 C1465 C 0.00613 0.22477 0.72181
 C1466 C 0.00982 0.23157 0.73178
 N1467 N -0.00011 0.23545 0.73795
 C1468 C 0.02215 0.23391 0.73480
 H1469 H 0.04614 0.24009 0.74303
 H1470 H 0.04618 0.25739 0.75944
 H1471 H -0.00011 0.23960 0.74639
 H1472 H 0.01189 0.28385 0.78136
 H1473 H -0.01207 0.28414 0.78104
 H1474 H -0.04623 0.25673 0.76031
 H1475 H -0.04622 0.23924 0.74406
 H1476 H 0.01186 0.22036 0.71513
 H1477 H -0.00010 0.25634 0.75712
 H1478 H -0.01212 0.22035 0.71517
 C1479 C 0.46190 0.25306 0.25580
 C1480 C 0.46191 0.24393 0.24734
 C1481 C 0.47393 0.24217 0.24391
 N1482 N 0.48122 0.24995 0.25001
 C1483 C 0.47392 0.25662 0.25733
 C1484 C 0.47780 0.23380 0.23491
 C1485 C 0.49011 0.23154 0.23178
 C1486 C 0.49378 0.22480 0.22177
 C1487 C 0.50630 0.22481 0.22174
 C1488 C 0.50999 0.23156 0.23174
 N1489 N 0.50006 0.23541 0.23794
 C1490 C 0.52232 0.23389 0.23477
 C1491 C 0.52621 0.24230 0.24371
 C1492 C 0.53828 0.24442 0.24673
 C1493 C 0.53829 0.25344 0.25532
 C1494 C 0.52621 0.25653 0.25738
 N1495 N 0.51889 0.24976 0.25019
 C1496 C 0.52232 0.26562 0.26569
 C1497 C 0.51001 0.26882 0.26797
 C1498 C 0.50632 0.27788 0.27596
 C1499 C 0.49379 0.27800 0.27582
 C1500 C 0.49010 0.26897 0.26782
 N1501 N 0.50006 0.26348 0.26309
 C1502 C 0.47779 0.26593 0.26538
 H1503 H 0.45392 0.25663 0.26034
 H1504 H 0.45394 0.23916 0.24407
 H1505 H 0.50005 0.25634 0.25706
 H1506 H 0.48804 0.22042 0.21508
 H1507 H 0.51202 0.22045 0.21503
 H1508 H 0.54630 0.24002 0.24307
 H1509 H 0.54632 0.25732 0.25949
 H1510 H 0.48806 0.28400 0.28114
 H1511 H 0.50006 0.23950 0.24641
 H1512 H 0.51203 0.28374 0.28141
 C1513 C 1.03833 0.74649 0.75530
 C1514 C 1.03833 0.75551 0.74672
 C1515 C 1.02625 0.75771 0.74376
 N1516 N 1.01893 0.75030 0.75027
 C1517 C 1.02625 0.74347 0.75742
 C1518 C 1.02236 0.76617 0.73485
 C1519 C 1.01004 0.76852 0.73181
 C1520 C 1.00637 0.77534 0.72185
 C1521 C 0.99385 0.77533 0.72182
 C1522 C 0.99017 0.76851 0.73178
 N1523 N 1.00010 0.76461 0.73794
 C1524 C 0.97785 0.76621 0.73485
 C1525 C 0.97397 0.75782 0.74382
 C1526 C 0.96194 0.75604 0.74720
 C1527 C 0.96193 0.74692 0.75569
 C1528 C 0.97395 0.74338 0.75727
 N1529 N 0.98126 0.75005 0.74995
 C1530 C 0.97781 0.73411 0.76537
 C1531 C 0.99013 0.73109 0.76786
 C1532 C 0.99381 0.72210 0.77592
 C1533 C 1.00634 0.72223 0.77609
 C1534 C 1.01004 0.73124 0.76805
 N1535 N 1.00009 0.73654 0.76310
 C1536 C 1.02235 0.73442 0.76577
 H1537 H 1.04636 0.74255 0.75942
 H1538 H 1.04635 0.75986 0.74301
 H1539 H 1.00009 0.74360 0.75698
 H1540 H 1.01210 0.77978 0.71519
 H1541 H 0.98813 0.77976 0.71515
 H1542 H 0.95397 0.76081 0.74391
 H1543 H 0.95394 0.74336 0.76022
 H1544 H 1.01205 0.71640 0.78159
 H1545 H 1.00008 0.76044 0.74637
 H1546 H 0.98808 0.71613 0.78126
 C1547 C 0.53833 0.74558 0.25452
 C1548 C 0.53834 0.75436 0.24567
 C1549 C 0.52625 0.75698 0.24310
 N1550 N 0.51893 0.75010 0.25019
 C1551 C 0.52623 0.74311 0.25719
 C1552 C 0.52236 0.76567 0.23438
 C1553 C 0.51004 0.76861 0.23175
 C1554 C 0.50636 0.77733 0.22339
 C1555 C 0.49382 0.77745 0.22349
 C1556 C 0.49012 0.76874 0.23185
 N1557 N 0.50007 0.76344 0.23677
 C1558 C 0.47779 0.76603 0.23466
 C1559 C 0.47386 0.75715 0.24318
 C1560 C 0.46176 0.75444 0.24560
 C1561 C 0.46174 0.74547 0.25426
 C1562 C 0.47383 0.74287 0.25686
 N1563 N 0.48116 0.75006 0.25009
 C1564 C 0.47773 0.73405 0.26546
 C1565 C 0.49005 0.73142 0.26840
 C1566 C 0.49373 0.72298 0.27703
 C1567 C 0.50627 0.72312 0.27719
 C1568 C 0.50997 0.73159 0.26860
 N1569 N 0.50002 0.73654 0.26332
 C1570 C 0.52230 0.73445 0.26594
 H1571 H 0.54635 0.74149 0.25851
 H1572 H 0.54638 0.75835 0.24163
 H1573 H 0.50003 0.74294 0.25655
 H1574 H 0.51208 0.78304 0.21778
 H1575 H 0.48811 0.78330 0.21800
 H1576 H 0.45373 0.75847 0.24156
 H1577 H 0.45370 0.74137 0.25819
 H1578 H 0.51198 0.71758 0.28299
 H1579 H 0.50005 0.75659 0.24310
 H1580 H 0.48800 0.71729 0.28266
 C1581 C 0.03814 0.74467 0.24666
 C1582 C 0.03816 0.75367 0.25526
 C1583 C 0.02608 0.75673 0.25737
 N1584 N 0.01875 0.74997 0.25018
 C1585 C 0.02606 0.74253 0.24367
 C1586 C 0.02220 0.76580 0.26571
 C1587 C 0.00989 0.76901 0.26798
 C1588 C 0.00620 0.77815 0.27587
 C1589 C -0.00633 0.77828 0.27572
 C1590 C -0.01002 0.76916 0.26782
 N1591 N -0.00007 0.76361 0.26317
 C1592 C -0.02234 0.76611 0.26539
 C1593 C -0.02620 0.75679 0.25735
 C1594 C -0.03822 0.75321 0.25586
 C1595 C -0.03822 0.74409 0.24738
 C1596 C -0.02620 0.74236 0.24390
 N1597 N -0.01891 0.75016 0.24998
 C1598 C -0.02235 0.73399 0.23490
 C1599 C -0.01004 0.73173 0.23176
 C1600 C -0.00637 0.72496 0.22177
 C1601 C 0.00614 0.72498 0.22175
 C1602 C 0.00984 0.73176 0.23172
 N1603 N -0.00010 0.73563 0.23790
 C1604 C 0.02216 0.73410 0.23474
 H1605 H 0.04615 0.74030 0.24295
 H1606 H 0.04620 0.75756 0.25941
 H1607 H -0.00009 0.73975 0.24635
 H1608 H 0.01191 0.78407 0.28126
 H1609 H -0.01206 0.78434 0.28097
 H1610 H -0.04619 0.75674 0.26044
 H1611 H -0.04619 0.73929 0.24414
 H1612 H 0.01187 0.72058 0.21505
 H1613 H -0.00008 0.75633 0.25730
 H1614 H -0.01212 0.72055 0.21511
 C1615 C 0.46186 0.75344 0.75570
 C1616 C 0.46187 0.74430 0.74723
 C1617 C 0.47390 0.74243 0.74391
 N1618 N 0.48120 0.75015 0.75009
 C1619 C 0.47389 0.75689 0.75734
 C1620 C 0.47778 0.73401 0.73497
 C1621 C 0.49010 0.73169 0.73190
 C1622 C 0.49378 0.72487 0.72196
 C1623 C 0.50630 0.72485 0.72196
 C1624 C 0.50998 0.73168 0.73191
 N1625 N 0.50004 0.73560 0.73805
 C1626 C 0.52231 0.73403 0.73492
 C1627 C 0.52621 0.74249 0.74382
 C1628 C 0.53829 0.74470 0.74676
 C1629 C 0.53829 0.75375 0.75531
 C1630 C 0.52621 0.75678 0.75744
 N1631 N 0.51889 0.74992 0.75033
 C1632 C 0.52232 0.76584 0.76578
 C1633 C 0.51000 0.76898 0.76812
 C1634 C 0.50630 0.77780 0.77635
 C1635 C 0.49377 0.77792 0.77623
 C1636 C 0.49009 0.76912 0.76797
 N1637 N 0.50005 0.76382 0.76304
 C1638 C 0.47776 0.76613 0.76547
 H1639 H 0.45387 0.75707 0.76017
 H1640 H 0.45388 0.73960 0.74389
 H1641 H 0.50005 0.75707 0.75657
 H1642 H 0.48805 0.72044 0.71529
 H1643 H 0.51203 0.72042 0.71529
 H1644 H 0.54631 0.74033 0.74306
 H1645 H 0.54633 0.75769 0.75942
 H1646 H 0.48804 0.78375 0.78172
 H1647 H 0.50003 0.73979 0.74647
 H1648 H 0.51201 0.78351 0.78198
 C1649 C 0.40540 0.30467 0.30406
 C1650 C 0.40094 0.30032 0.31522
 C1651 C 0.39048 0.30536 0.32042
 C1652 C 0.38421 0.31490 0.31462
 C1653 C 0.38863 0.31917 0.30341
 C1654 C 0.39908 0.31411 0.29819
 C1655 C 0.41659 0.29943 0.29862
 N1656 N 0.42054 0.30314 0.28752
 N1657 N 0.43058 0.29843 0.28262
 C1658 C 0.43713 0.28983 0.28861
 N1659 N 0.43320 0.28614 0.29973
 N1660 N 0.42315 0.29084 0.30462
 C1661 C 0.44812 0.28434 0.28300
 C1662 C 0.45505 0.27562 0.28934
 C1663 C 0.46497 0.26993 0.28376
 C1664 C 0.46813 0.27287 0.27178
 C1665 C 0.46148 0.28178 0.26553
 C1666 C 0.45158 0.28748 0.27109
 H1667 H 0.40554 0.29301 0.31997
 H1668 H 0.38742 0.30180 0.32906
 H1669 H 0.38403 0.32640 0.29858
 H1670 H 0.40222 0.31767 0.28956
 H1671 H 0.45269 0.27303 0.29854
 H1672 H 0.47001 0.26302 0.28866
 H1673 H 0.46380 0.28407 0.25624
 H1674 H 0.44647 0.29416 0.26595
 C1675 C 0.40540 0.80496 0.80417
 C1676 C 0.40059 0.80026 0.81502
 C1677 C 0.39004 0.80521 0.82014
 C1678 C 0.38400 0.81509 0.81458
 C1679 C 0.38886 0.81973 0.80365
 C1680 C 0.39937 0.81472 0.79853
 C1681 C 0.41662 0.79973 0.79877
 N1682 N 0.42076 0.80362 0.78781
 N1683 N 0.43079 0.79887 0.78292
 C1684 C 0.43714 0.79004 0.78880
 N1685 N 0.43303 0.78617 0.79978
 N1686 N 0.42299 0.79091 0.80466
 C1687 C 0.44811 0.78452 0.78318
 C1688 C 0.45491 0.77562 0.78941
 C1689 C 0.46482 0.76992 0.78381
 C1690 C 0.46811 0.77304 0.77191
 C1691 C 0.46158 0.78210 0.76576
 C1692 C 0.45169 0.78781 0.77134
 H1693 H 0.40496 0.79270 0.81960
 H1694 H 0.38677 0.80125 0.82851
 H1695 H 0.38460 0.82723 0.79893
 H1696 H 0.40280 0.81856 0.79014
 H1697 H 0.45245 0.77289 0.79855
 H1698 H 0.46976 0.76288 0.78863
 H1699 H 0.46398 0.78452 0.75652
 H1700 H 0.44668 0.79461 0.76626
 C1701 C -0.09463 0.30493 0.80406
 C1702 C -0.09896 0.30075 0.81533
 C1703 C -0.10946 0.30575 0.82050
 C1704 C -0.11590 0.31507 0.81453
 C1705 C -0.11160 0.31918 0.80321
 C1706 C -0.10111 0.31417 0.79804
 C1707 C -0.08344 0.29969 0.79862
 N1708 N -0.07961 0.30324 0.78742
 N1709 N -0.06960 0.29850 0.78251
 C1710 C -0.06294 0.29004 0.78859
 N1711 N -0.06675 0.28651 0.79980
 N1712 N -0.07677 0.29124 0.80471
 C1713 C -0.05198 0.28451 0.78296
 C1714 C -0.04498 0.27589 0.78934
 C1715 C -0.03508 0.27016 0.78375
 C1716 C -0.03201 0.27299 0.77172
 C1717 C -0.03873 0.28180 0.76542
 C1718 C -0.04862 0.28753 0.77099
 H1719 H -0.09424 0.29361 0.82021
 H1720 H -0.11242 0.30233 0.82922
 H1721 H -0.11632 0.32625 0.79826
 H1722 H -0.09807 0.31759 0.78932
 H1723 H -0.04726 0.27338 0.79858
 H1724 H -0.02998 0.26332 0.78869
 H1725 H -0.03650 0.28400 0.75608
 H1726 H -0.05379 0.29413 0.76580
 C1727 C -0.09462 0.80504 0.30405
 C1728 C -0.10120 0.81415 0.29795
 C1729 C -0.11173 0.81911 0.30309
 C1730 C -0.11596 0.81507 0.31446
 C1731 C -0.10940 0.80589 0.32051
 C1732 C -0.09887 0.80095 0.31538
 C1733 C -0.08340 0.79983 0.29862
 N1734 N -0.07668 0.79147 0.30476
 N1735 N -0.06665 0.78674 0.29985
 C1736 C -0.06290 0.79017 0.28860
 N1737 N -0.06961 0.79856 0.28247
 N1738 N -0.07964 0.80329 0.28738
 C1739 C -0.05195 0.78464 0.28297
 C1740 C -0.04863 0.78760 0.27098
 C1741 C -0.03874 0.78185 0.26542
 C1742 C -0.03198 0.77308 0.27175
 C1743 C -0.03502 0.77032 0.28380
 C1744 C -0.04492 0.77606 0.28938
 H1745 H -0.09821 0.81751 0.28919
 H1746 H -0.11653 0.82608 0.29808
 H1747 H -0.11231 0.80254 0.32928
 H1748 H -0.09406 0.79391 0.32032
 H1749 H -0.05381 0.79416 0.26577
 H1750 H -0.03653 0.78400 0.25607
 H1751 H -0.02991 0.76351 0.28877
 H1752 H -0.04718 0.77360 0.29864
 C1753 C 0.59463 0.69556 0.30449
 C1754 C 0.60083 0.70149 0.31395
 C1755 C 0.61126 0.69636 0.31908
 C1756 C 0.61581 0.68517 0.31487
 C1757 C 0.60965 0.67927 0.30533
 C1758 C 0.59919 0.68441 0.30020
 C1759 C 0.58346 0.70098 0.29919
 N1760 N 0.57709 0.69508 0.29040
 N1761 N 0.56704 0.69997 0.28569
 C1762 C 0.56293 0.71096 0.28957
 N1763 N 0.56930 0.71686 0.29835
 N1764 N 0.57934 0.71197 0.30306
 C1765 C 0.55193 0.71658 0.28413
 C1766 C 0.54813 0.72826 0.28776
 C1767 C 0.53821 0.73388 0.28214
 C1768 C 0.53192 0.72793 0.27280
 C1769 C 0.53541 0.71616 0.26936
 C1770 C 0.54533 0.71051 0.27499
 H1771 H 0.59760 0.71012 0.31746
 H1772 H 0.61574 0.70126 0.32633
 H1773 H 0.61283 0.67065 0.30181
 H1774 H 0.59469 0.67961 0.29288
 H1775 H 0.55297 0.73319 0.29477
 H1776 H 0.53563 0.74301 0.28483
 H1777 H 0.53063 0.71149 0.26213
 H1778 H 0.54795 0.70150 0.27201
 C1779 C 0.59467 0.19539 0.80434
 C1780 C 0.60078 0.20123 0.81392
 C1781 C 0.61126 0.19612 0.81900
 C1782 C 0.61594 0.18504 0.81463
 C1783 C 0.60986 0.17923 0.80499
 C1784 C 0.59936 0.18434 0.79991
 C1785 C 0.58346 0.20078 0.79907
 N1786 N 0.57722 0.19497 0.79013
 N1787 N 0.56716 0.19984 0.78542
 C1788 C 0.56290 0.21073 0.78945
 N1789 N 0.56914 0.21653 0.79839
 N1790 N 0.57919 0.21166 0.80310
 C1791 C 0.55188 0.21632 0.78399
 C1792 C 0.54787 0.22788 0.78781
 C1793 C 0.53794 0.23348 0.78218
 C1794 C 0.53185 0.22765 0.77262
 C1795 C 0.53556 0.21600 0.76899
 C1796 C 0.54547 0.21037 0.77464
 H1797 H 0.59747 0.20977 0.81755
 H1798 H 0.61567 0.20095 0.82634
 H1799 H 0.61314 0.17070 0.80134
 H1800 H 0.59492 0.17961 0.79250
 H1801 H 0.55256 0.23272 0.79499
 H1802 H 0.53521 0.24251 0.78502
 H1803 H 0.53094 0.21142 0.76160
 H1804 H 0.54825 0.20145 0.77152
 C1805 C 1.09473 0.69562 0.80442
 C1806 C 1.10082 0.70148 0.81400
 C1807 C 1.11128 0.69637 0.81911
 C1808 C 1.11595 0.68527 0.81478
 C1809 C 1.10989 0.67945 0.80513
 C1810 C 1.09941 0.68456 0.80001
 C1811 C 1.08354 0.70101 0.79911
 N1812 N 1.07732 0.69519 0.79017
 N1813 N 1.06726 0.70006 0.78543
 C1814 C 1.06299 0.71094 0.78945
 N1815 N 1.06922 0.71676 0.79840
 N1816 N 1.07926 0.71189 0.80313
 C1817 C 1.05199 0.71654 0.78398
 C1818 C 1.04796 0.72807 0.78783
 C1819 C 1.03803 0.73367 0.78220
 C1820 C 1.03197 0.72787 0.77262
 C1821 C 1.03569 0.71623 0.76896
 C1822 C 1.04560 0.71059 0.77462
 H1823 H 1.09750 0.71003 0.81760
 H1824 H 1.11567 0.70120 0.82646
 H1825 H 1.11316 0.67091 0.80150
 H1826 H 1.09499 0.67983 0.79261
 H1827 H 1.05263 0.73291 0.79502
 H1828 H 1.03528 0.74270 0.78506
 H1829 H 1.03109 0.71166 0.76155
 H1830 H 1.04840 0.70168 0.77148
 C1831 C 1.09467 0.19570 0.30421
 C1832 C 1.10080 0.20161 0.31373
 C1833 C 1.11130 0.19654 0.31880
 C1834 C 1.11597 0.18543 0.31448
 C1835 C 1.10989 0.17959 0.30486
 C1836 C 1.09937 0.18466 0.29979
 C1837 C 1.08343 0.20104 0.29896
 N1838 N 1.07718 0.19517 0.29006
 N1839 N 1.06710 0.20000 0.28536
 C1840 C 1.06282 0.21089 0.28937
 N1841 N 1.06906 0.21673 0.29828
 N1842 N 1.07913 0.21190 0.30298
 C1843 C 1.05181 0.21646 0.28390
 C1844 C 1.04780 0.22801 0.28770
 C1845 C 1.03789 0.23361 0.28204
 C1846 C 1.03183 0.22777 0.27247
 C1847 C 1.03553 0.21612 0.26887
 C1848 C 1.04542 0.21048 0.27455
 H1849 H 1.09748 0.21015 0.31734
 H1850 H 1.11572 0.20140 0.32611
 H1851 H 1.11315 0.17104 0.30126
 H1852 H 1.09492 0.17988 0.29242
 H1853 H 1.05247 0.23287 0.29488
 H1854 H 1.03515 0.24265 0.28486
 H1855 H 1.03092 0.21153 0.26147
 H1856 H 1.04821 0.20156 0.27145
 C1857 C 0.59458 0.30439 0.69586
 C1858 C 0.60071 0.29850 0.68632
 C1859 C 0.61122 0.30356 0.68126
 C1860 C 0.61590 0.31465 0.68561
 C1861 C 0.60981 0.32049 0.69523
 C1862 C 0.59928 0.31543 0.70028
 C1863 C 0.58334 0.29904 0.70111
 N1864 N 0.57698 0.30498 0.70988
 N1865 N 0.56691 0.30014 0.71460
 C1866 C 0.56276 0.28916 0.71073
 N1867 N 0.56911 0.28323 0.70195
 N1868 N 0.57917 0.28808 0.69722
 C1869 C 0.55177 0.28358 0.71624
 C1870 C 0.54807 0.27179 0.71285
 C1871 C 0.53820 0.26621 0.71860
 C1872 C 0.53182 0.27232 0.72780
 C1873 C 0.53519 0.28420 0.73095
 C1874 C 0.54508 0.28980 0.72522
 H1875 H 0.59739 0.28997 0.68269
 H1876 H 0.61565 0.29870 0.67395
 H1877 H 0.61308 0.32903 0.69885
 H1878 H 0.59482 0.32019 0.70766
 H1879 H 0.55297 0.26675 0.70596
 H1880 H 0.53570 0.25701 0.71611
 H1881 H 0.53035 0.28900 0.73807
 H1882 H 0.54762 0.29890 0.72801
 C1883 C 0.59478 0.80438 0.19593
 C1884 C 0.59944 0.81545 0.20031
 C1885 C 0.60995 0.82052 0.19524
 C1886 C 0.61606 0.81465 0.18566
 C1887 C 0.61144 0.80352 0.18136
 C1888 C 0.60095 0.79846 0.18643
 C1889 C 0.58356 0.79903 0.20117
 N1890 N 0.57935 0.78811 0.19721
 N1891 N 0.56929 0.78326 0.20191
 C1892 C 0.56297 0.78914 0.21075
 N1893 N 0.56716 0.80008 0.21469
 N1894 N 0.57723 0.80493 0.21000
 C1895 C 0.55198 0.78354 0.21620
 C1896 C 0.54544 0.78957 0.22541
 C1897 C 0.53554 0.78392 0.23106
 C1898 C 0.53199 0.77219 0.22755
 C1899 C 0.53821 0.76628 0.21814
 C1900 C 0.54812 0.77190 0.21250
 H1901 H 0.59496 0.82024 0.20766
 H1902 H 0.61319 0.82909 0.19882
 H1903 H 0.61590 0.79864 0.17408
 H1904 H 0.59766 0.78989 0.18285
 H1905 H 0.54811 0.79855 0.22844
 H1906 H 0.53081 0.78856 0.23835
 H1907 H 0.53559 0.75719 0.21540
 H1908 H 0.55291 0.76699 0.20544
 C1909 C 1.09461 0.30460 0.19591
 C1910 C 1.09931 0.31564 0.20031
 C1911 C 1.10984 0.32069 0.19524
 C1912 C 1.11591 0.31482 0.18562
 C1913 C 1.11124 0.30373 0.18130
 C1914 C 1.10073 0.29868 0.18638
 C1915 C 1.08337 0.29927 0.20116
 N1916 N 1.07920 0.28830 0.19729
 N1917 N 1.06914 0.28347 0.20201
 C1918 C 1.06279 0.28941 0.21079
 N1919 N 1.06694 0.30039 0.21465
 N1920 N 1.07702 0.30522 0.20993
 C1921 C 1.05180 0.28383 0.21628
 C1922 C 1.04511 0.29004 0.22527
 C1923 C 1.03522 0.28444 0.23098
 C1924 C 1.03185 0.27257 0.22781
 C1925 C 1.03822 0.26647 0.21861
 C1926 C 1.04810 0.27205 0.21288
 H1927 H 1.09487 0.32042 0.20769
 H1928 H 1.11311 0.32923 0.19884
 H1929 H 1.11566 0.29885 0.17400
 H1930 H 1.09740 0.29014 0.18278
 H1931 H 1.04766 0.29913 0.22807
 H1932 H 1.03038 0.28923 0.23810
 H1933 H 1.03573 0.25727 0.21611
 H1934 H 1.05300 0.26701 0.20598
 C1935 C 1.09476 0.80451 0.69595
 C1936 C 1.09945 0.81558 0.70031
 C1937 C 1.11001 0.82060 0.69526
 C1938 C 1.11613 0.81468 0.68571
 C1939 C 1.11147 0.80356 0.68143
 C1940 C 1.10094 0.79855 0.68648
 C1941 C 1.08351 0.79921 0.70119
 N1942 N 1.07935 0.78822 0.69737
 N1943 N 1.06929 0.78340 0.70209
 C1944 C 1.06291 0.78938 0.71082
 N1945 N 1.06705 0.80039 0.71463
 N1946 N 1.07713 0.80520 0.70991
 C1947 C 1.05191 0.78382 0.71633
 C1948 C 1.04520 0.79006 0.72527
 C1949 C 1.03531 0.78447 0.73099
 C1950 C 1.03196 0.77258 0.72787
 C1951 C 1.03836 0.76645 0.71871
 C1952 C 1.04824 0.77202 0.71297
 H1953 H 1.09497 0.82041 0.70763
 H1954 H 1.11326 0.82917 0.69882
 H1955 H 1.11592 0.79864 0.67417
 H1956 H 1.09761 0.78999 0.68290
 H1957 H 1.04773 0.79917 0.72803
 H1958 H 1.03045 0.78929 0.73808
 H1959 H 1.03588 0.75723 0.71625
 H1960 H 1.05316 0.76695 0.70611
 C1961 C 0.40547 0.69565 0.69584
 C1962 C 0.40098 0.68442 0.70002
 C1963 C 0.39048 0.67933 0.69494
 C1964 C 0.38421 0.68533 0.68554
 C1965 C 0.38866 0.69661 0.68144
 C1966 C 0.39914 0.70170 0.68653
 C1967 C 0.41668 0.70101 0.70112
 N1968 N 0.42064 0.71216 0.69753
 N1969 N 0.43068 0.71700 0.70227
 C1970 C 0.43724 0.71090 0.71079
 N1971 N 0.43330 0.69974 0.71436
 N1972 N 0.42324 0.69490 0.70962
 C1973 C 0.44822 0.71648 0.71632
 C1974 C 0.45515 0.71007 0.72498
 C1975 C 0.46504 0.71562 0.73074
 C1976 C 0.46816 0.72766 0.72795
 C1977 C 0.46153 0.73398 0.71907
 C1978 C 0.45166 0.72844 0.71329
 H1979 H 0.40558 0.67953 0.70723
 H1980 H 0.38739 0.67064 0.69836
 H1981 H 0.38408 0.70159 0.67431
 H1982 H 0.40230 0.71038 0.68311
 H1983 H 0.45280 0.70083 0.72749
 H1984 H 0.47007 0.71066 0.73761
 H1985 H 0.46383 0.74330 0.71686
 H1986 H 0.44657 0.73363 0.70665
 C1987 C 0.40537 0.19559 0.19595
 C1988 C 0.40102 0.18426 0.19998
 C1989 C 0.39054 0.17915 0.19488
 C1990 C 0.38415 0.18525 0.18562
 C1991 C 0.38845 0.19665 0.18170
 C1992 C 0.39891 0.20175 0.18680
 C1993 C 0.41659 0.20094 0.20121
 N1994 N 0.42047 0.21214 0.19773
 N1995 N 0.43053 0.21697 0.20244
 C1996 C 0.43719 0.21078 0.21081
 N1997 N 0.43334 0.19955 0.21427
 N1998 N 0.42326 0.19473 0.20957
 C1999 C 0.44820 0.21632 0.21631
 C2000 C 0.45521 0.20985 0.22486
 C2001 C 0.46512 0.21539 0.23061
 C2002 C 0.46817 0.22746 0.22790
 C2003 C 0.46147 0.23383 0.21912
 C2004 C 0.45158 0.22831 0.21336
 H2005 H 0.40572 0.17928 0.20706
 H2006 H 0.38756 0.17038 0.19817
 H2007 H 0.38377 0.20171 0.17468
 H2008 H 0.40196 0.21052 0.18351
 H2009 H 0.45291 0.20059 0.22730
 H2010 H 0.47021 0.21039 0.23740
 H2011 H 0.46372 0.24319 0.21698
 H2012 H 0.44643 0.23355 0.20680
 C2013 C -0.09462 0.69556 0.19578
 C2014 C -0.09893 0.68420 0.19978
 C2015 C -0.10932 0.67901 0.19458
 C2016 C -0.11566 0.68505 0.18524
 C2017 C -0.11138 0.69646 0.18133
 C2018 C -0.10101 0.70165 0.18654
 C2019 C -0.08349 0.70099 0.20115
 N2020 N -0.07965 0.71222 0.19770
 N2021 N -0.06964 0.71710 0.20246
 C2022 C -0.06299 0.71094 0.21087
 N2023 N -0.06682 0.69970 0.21432
 N2024 N -0.07685 0.69483 0.20956
 C2025 C -0.05200 0.71650 0.21637
 C2026 C -0.04497 0.71004 0.22491
 C2027 C -0.03504 0.71558 0.23063
 C2028 C -0.03199 0.72765 0.22790
 C2029 C -0.03872 0.73402 0.21914
 C2030 C -0.04862 0.72850 0.21341
 H2031 H -0.09428 0.67928 0.20693
 H2032 H -0.11229 0.67023 0.19787
 H2033 H -0.11602 0.70148 0.17426
 H2034 H -0.09799 0.71043 0.18326
 H2035 H -0.04726 0.70078 0.22736
 H2036 H -0.02993 0.71058 0.23741
 H2037 H -0.03647 0.74337 0.21699
 H2038 H -0.05379 0.73373 0.20686
 C2039 C -0.09466 0.19551 0.69583
 C2040 C -0.10100 0.20159 0.68655
 C2041 C -0.11147 0.19650 0.68144
 C2042 C -0.11588 0.18519 0.68549
 C2043 C -0.10960 0.17916 0.69486
 C2044 C -0.09911 0.18425 0.69996
 C2045 C -0.08346 0.20086 0.70112
 N2046 N -0.07688 0.19472 0.70959
 N2047 N -0.06682 0.19956 0.71433
 C2048 C -0.06292 0.21075 0.71081
 N2049 N -0.06950 0.21688 0.70233
 N2050 N -0.07954 0.21204 0.69758
 C2051 C -0.05194 0.21631 0.71633
 C2052 C -0.04854 0.22829 0.71334
 C2053 C -0.03866 0.23383 0.71910
 C2054 C -0.03199 0.22749 0.72793
 C2055 C -0.03507 0.21543 0.73069
 C2056 C -0.04497 0.20988 0.72494
 H2057 H -0.09787 0.21030 0.68317
 H2058 H -0.11608 0.20150 0.67434
 H2059 H -0.11266 0.17044 0.69822
 H2060 H -0.09449 0.17933 0.70713
 H2061 H -0.05366 0.23350 0.70673
 H2062 H -0.03639 0.24317 0.71692
 H2063 H -0.03000 0.21046 0.73752
 H2064 H -0.04729 0.20063 0.72742
 C2065 C 0.30431 0.40537 0.30408
 C2066 C 0.29823 0.39901 0.31335
 C2067 C 0.30337 0.38858 0.31849
 C2068 C 0.31472 0.38420 0.31449
 C2069 C 0.32073 0.39049 0.30510
 C2070 C 0.31559 0.40094 0.29997
 C2071 C 0.29893 0.41657 0.29881
 N2072 N 0.30507 0.42317 0.29035
 N2073 N 0.30023 0.43325 0.28565
 C2074 C 0.28906 0.43718 0.28922
 N2075 N 0.28293 0.43059 0.29768
 N2076 N 0.28777 0.42052 0.30238
 C2077 C 0.28352 0.44820 0.28374
 C2078 C 0.27157 0.45168 0.28680
 C2079 C 0.26605 0.46159 0.28106
 C2080 C 0.27238 0.46822 0.27220
 C2081 C 0.28441 0.46508 0.26939
 C2082 C 0.28995 0.45515 0.27511
 H2083 H 0.28950 0.40211 0.31672
 H2084 H 0.29838 0.38397 0.32560
 H2085 H 0.32946 0.38744 0.30174
 H2086 H 0.32049 0.40557 0.29279
 H2087 H 0.26636 0.44658 0.29342
 H2088 H 0.25672 0.46391 0.28327
 H2089 H 0.28938 0.47011 0.26254
 H2090 H 0.29918 0.45278 0.27259
 C2091 C 0.30476 -0.09503 0.80426
 C2092 C 0.31575 -0.09979 0.79978
 C2093 C 0.32087 -0.11028 0.80487
 C2094 C 0.31516 -0.11631 0.81465
 C2095 C 0.30411 -0.11149 0.81907
 C2096 C 0.29899 -0.10105 0.81393
 C2097 C 0.29935 -0.08385 0.79893
 N2098 N 0.28824 -0.07984 0.80259
 N2099 N 0.28337 -0.06981 0.79783
 C2100 C 0.28941 -0.06332 0.78922
 N2101 N 0.30053 -0.06732 0.78556
 N2102 N 0.30540 -0.07737 0.79031
 C2103 C 0.28384 -0.05231 0.78372
 C2104 C 0.29025 -0.04535 0.77509
 C2105 C 0.28470 -0.03539 0.76940
 C2106 C 0.27268 -0.03224 0.77224
 C2107 C 0.26636 -0.03890 0.78108
 C2108 C 0.27189 -0.04883 0.78679
 H2109 H 0.32043 -0.09542 0.79229
 H2110 H 0.32935 -0.11353 0.80109
 H2111 H 0.29926 -0.11573 0.82650
 H2112 H 0.29049 -0.09767 0.81760
 H2113 H 0.29947 -0.04771 0.77255
 H2114 H 0.28967 -0.03034 0.76255
 H2115 H 0.25704 -0.03658 0.78333
 H2116 H 0.26669 -0.05394 0.79341
 C2117 C 0.80445 0.40527 0.80451
 C2118 C 0.79878 0.39938 0.81432
 C2119 C 0.80391 0.38895 0.81948
 C2120 C 0.81488 0.38404 0.81496
 C2121 C 0.82047 0.38994 0.80503
 C2122 C 0.81533 0.40040 0.79991
 C2123 C 0.79904 0.41644 0.79917
 N2124 N 0.80499 0.42279 0.79040
 N2125 N 0.80013 0.43284 0.78565
 C2126 C 0.78911 0.43696 0.78946
 N2127 N 0.78316 0.43061 0.79822
 N2128 N 0.78803 0.42058 0.80299
 C2129 C 0.78354 0.44797 0.78395
 C2130 C 0.77162 0.45149 0.78709
 C2131 C 0.76609 0.46141 0.78137
 C2132 C 0.77238 0.46803 0.77248
 C2133 C 0.78438 0.46483 0.76957
 C2134 C 0.78992 0.45487 0.77525
 H2135 H 0.79036 0.40285 0.81809
 H2136 H 0.79916 0.38483 0.82703
 H2137 H 0.82886 0.38659 0.80113
 H2138 H 0.81992 0.40466 0.79230
 H2139 H 0.76645 0.44642 0.79376
 H2140 H 0.75679 0.46376 0.78365
 H2141 H 0.78931 0.46984 0.76267
 H2142 H 0.79912 0.45247 0.77267
 C2143 C 0.80438 -0.09486 0.30440
 C2144 C 0.79880 -0.10064 0.31433
 C2145 C 0.80391 -0.11108 0.31948
 C2146 C 0.81476 -0.11613 0.31482
 C2147 C 0.82026 -0.11034 0.30478
 C2148 C 0.81515 -0.09986 0.29967
 C2149 C 0.79898 -0.08369 0.29906
 N2150 N 0.80485 -0.07744 0.29016
 N2151 N 0.79999 -0.06740 0.28540
 C2152 C 0.78906 -0.06316 0.28935
 N2153 N 0.78320 -0.06941 0.29825
 N2154 N 0.78806 -0.07944 0.30302
 C2155 C 0.78349 -0.05215 0.28386
 C2156 C 0.77165 -0.04851 0.28717
 C2157 C 0.76610 -0.03858 0.28148
 C2158 C 0.77231 -0.03208 0.27245
 C2159 C 0.78423 -0.03540 0.26936
 C2160 C 0.78978 -0.04536 0.27502
 H2161 H 0.79047 -0.09706 0.31821
 H2162 H 0.79923 -0.11511 0.32712
 H2163 H 0.82856 -0.11379 0.30078
 H2164 H 0.81966 -0.09568 0.29198
 H2165 H 0.76654 -0.05350 0.29395
 H2166 H 0.75686 -0.03614 0.28389
 H2167 H 0.78909 -0.03047 0.26235
 H2168 H 0.79892 -0.04786 0.27230
 C2169 C 0.30438 0.59468 0.69584
 C2170 C 0.31569 0.59906 0.69991
 C2171 C 0.32077 0.60959 0.69486
 C2172 C 0.31468 0.61599 0.68560
 C2173 C 0.30332 0.61165 0.68163
 C2174 C 0.29823 0.60115 0.68668
 C2175 C 0.29901 0.58345 0.70108
 N2176 N 0.28776 0.57965 0.69765
 N2177 N 0.28290 0.56960 0.70236
 C2178 C 0.28908 0.56289 0.71069
 N2179 N 0.30035 0.56667 0.71411
 N2180 N 0.30521 0.57673 0.70940
 C2181 C 0.28348 0.55190 0.71620
 C2182 C 0.28998 0.54474 0.72459
 C2183 C 0.28441 0.53482 0.73031
 C2184 C 0.27226 0.53192 0.72775
 C2185 C 0.26584 0.53880 0.71915
 C2186 C 0.27140 0.54868 0.71340
 H2187 H 0.32066 0.59436 0.70699
 H2188 H 0.32953 0.61260 0.69818
 H2189 H 0.29826 0.61634 0.67462
 H2190 H 0.28949 0.59808 0.68335
 H2191 H 0.29931 0.54691 0.72692
 H2192 H 0.28946 0.52960 0.73697
 H2193 H 0.25643 0.53667 0.71712
 H2194 H 0.26612 0.55395 0.70696
 C2195 C 0.30455 1.09468 0.19594
 C2196 C 0.29980 1.09951 0.18511
 C2197 C 0.30473 1.11007 0.18002
 C2198 C 0.31457 1.11605 0.18561
 C2199 C 0.31923 1.11126 0.19652
 C2200 C 0.31428 1.10072 0.20161
 C2201 C 0.29940 1.08341 0.20130
 N2202 N 0.30348 1.07917 0.21216
 N2203 N 0.29882 1.06911 0.21703
 C2204 C 0.28989 1.06282 0.21125
 N2205 N 0.28584 1.06703 0.20036
 N2206 N 0.29050 1.07711 0.19549
 C2207 C 0.28443 1.05185 0.21689
 C2208 C 0.27537 1.04516 0.21078
 C2209 C 0.26970 1.03529 0.21644
 C2210 C 0.27302 1.03191 0.22827
 C2211 C 0.28225 1.03832 0.23428
 C2212 C 0.28793 1.04819 0.22864
 H2213 H 0.29225 1.09513 0.18053
 H2214 H 0.30084 1.11343 0.17165
 H2215 H 0.32673 1.11559 0.20117
 H2216 H 0.31815 1.09728 0.20999
 H2217 H 0.27250 1.04769 0.20171
 H2218 H 0.26253 1.03044 0.21173
 H2219 H 0.28483 1.03585 0.24346
 H2220 H 0.29486 1.05310 0.23361
 C2221 C 0.80469 0.59449 0.19596
 C2222 C 0.80001 0.59925 0.18507
 C2223 C 0.80504 0.60972 0.17989
 C2224 C 0.81489 0.61570 0.18547
 C2225 C 0.81950 0.61096 0.19642
 C2226 C 0.81446 0.60051 0.20160
 C2227 C 0.79945 0.58332 0.20140
 N2228 N 0.80348 0.57913 0.21229
 N2229 N 0.79877 0.56911 0.21720
 C2230 C 0.78985 0.56281 0.21142
 N2231 N 0.78584 0.56698 0.20050
 N2232 N 0.79054 0.57702 0.19560
 C2233 C 0.78438 0.55185 0.21706
 C2234 C 0.77535 0.54515 0.21093
 C2235 C 0.76970 0.53525 0.21657
 C2236 C 0.77301 0.53188 0.22840
 C2237 C 0.78221 0.53831 0.23443
 C2238 C 0.78787 0.54819 0.22881
 H2239 H 0.79244 0.59490 0.18051
 H2240 H 0.80118 0.61305 0.17149
 H2241 H 0.82701 0.61529 0.20106
 H2242 H 0.81828 0.59712 0.21001
 H2243 H 0.77249 0.54767 0.20185
 H2244 H 0.76256 0.53039 0.21184
 H2245 H 0.78478 0.53583 0.24361
 H2246 H 0.79479 0.55313 0.23380
 C2247 C 0.80453 1.09440 0.69552
 C2248 C 0.79878 1.10039 0.68581
 C2249 C 0.80400 1.11074 0.68058
 C2250 C 0.81509 1.11540 0.68494
 C2251 C 0.82078 1.10945 0.69474
 C2252 C 0.81557 1.09908 0.69996
 C2253 C 0.79907 1.08330 0.70090
 N2254 N 0.80503 1.07691 0.70965
 N2255 N 0.80014 1.06690 0.71442
 C2256 C 0.78909 1.06284 0.71066
 N2257 N 0.78313 1.06924 0.70192
 N2258 N 0.78803 1.07923 0.69713
 C2259 C 0.78349 1.05188 0.71618
 C2260 C 0.77155 1.04842 0.71308
 C2261 C 0.76599 1.03855 0.71883
 C2262 C 0.77227 1.03193 0.72773
 C2263 C 0.78429 1.03507 0.73060
 C2264 C 0.78986 1.04497 0.72488
 H2265 H 0.79025 1.09707 0.68218
 H2266 H 0.79925 1.11504 0.67312
 H2267 H 0.82930 1.11273 0.69841
 H2268 H 0.82022 1.09475 0.70748
 H2269 H 0.76639 1.05350 0.70640
 H2270 H 0.75667 1.03624 0.71658
 H2271 H 0.78922 1.03004 0.73749
 H2272 H 0.79908 1.04733 0.72743
 C2273 C 0.69565 0.59464 0.30429
 C2274 C 0.70162 0.60083 0.31373
 C2275 C 0.69658 0.61134 0.31879
 C2276 C 0.68543 0.61596 0.31453
 C2277 C 0.67950 0.60982 0.30501
 C2278 C 0.68454 0.59929 0.29995
 C2279 C 0.70098 0.58341 0.29903
 N2280 N 0.69493 0.57698 0.29039
 N2281 N 0.69976 0.56691 0.28566
 C2282 C 0.71083 0.56284 0.28937
 N2283 N 0.71686 0.56927 0.29802
 N2284 N 0.71204 0.57932 0.30276
 C2285 C 0.71639 0.55185 0.28385
 C2286 C 0.72828 0.54828 0.28703
 C2287 C 0.73382 0.53840 0.28127
 C2288 C 0.72756 0.53189 0.27227
 C2289 C 0.71559 0.53513 0.26933
 C2290 C 0.71003 0.54504 0.27507
 H2291 H 0.71021 0.59754 0.31728
 H2292 H 0.70150 0.61582 0.32603
 H2293 H 0.67089 0.61304 0.30147
 H2294 H 0.67971 0.59478 0.29265
 H2295 H 0.73343 0.55328 0.29376
 H2296 H 0.74310 0.53600 0.28359
 H2297 H 0.71068 0.53019 0.26237
 H2298 H 0.70085 0.54748 0.27246
 C2299 C 0.69527 1.09477 0.80419
 C2300 C 0.68584 1.10109 0.79832
 C2301 C 0.68084 1.11159 0.80347
 C2302 C 0.68519 1.11616 0.81464
 C2303 C 0.69474 1.10982 0.82043
 C2304 C 0.69967 1.09928 0.81530
 C2305 C 0.70050 1.08355 0.79878
 N2306 N 0.70887 1.07685 0.80494
 N2307 N 0.71362 1.06681 0.80006
 C2308 C 0.71020 1.06304 0.78881
 N2309 N 0.70182 1.06974 0.78266
 N2310 N 0.69706 1.07976 0.78755
 C2311 C 0.71576 1.05207 0.78323
 C2312 C 0.71303 1.04885 0.77115
 C2313 C 0.71883 1.03896 0.76564
 C2314 C 0.72741 1.03208 0.77211
 C2315 C 0.72991 1.03500 0.78425
 C2316 C 0.72414 1.04492 0.78977
 H2317 H 0.68225 1.09790 0.78973
 H2318 H 0.67361 1.11609 0.79855
 H2319 H 0.69844 1.11284 0.82901
 H2320 H 0.70696 1.09467 0.82006
 H2321 H 0.70662 1.05412 0.76584
 H2322 H 0.71686 1.03683 0.75624
 H2323 H 0.73655 1.02979 0.78934
 H2324 H 0.72642 1.04710 0.79909
 C2325 C 0.19528 0.59445 0.80422
 C2326 C 0.19932 0.59865 0.81559
 C2327 C 0.19440 0.60920 0.82071
 C2328 C 0.18530 0.61582 0.81461
 C2329 C 0.18130 0.61163 0.80321
 C2330 C 0.18624 0.60109 0.79808
 C2331 C 0.20048 0.58322 0.79882
 N2332 N 0.19715 0.57953 0.78752
 N2333 N 0.20189 0.56950 0.78263
 C2334 C 0.21015 0.56271 0.78885
 N2335 N 0.21345 0.56639 0.80016
 N2336 N 0.20872 0.57642 0.80504
 C2337 C 0.21570 0.55175 0.78325
 C2338 C 0.22407 0.54458 0.78981
 C2339 C 0.22985 0.53469 0.78427
 C2340 C 0.22739 0.53183 0.77212
 C2341 C 0.21883 0.53871 0.76564
 C2342 C 0.21301 0.54857 0.77116
 H2343 H 0.20630 0.59379 0.82057
 H2344 H 0.19771 0.61206 0.82951
 H2345 H 0.17439 0.61648 0.79817
 H2346 H 0.18293 0.59814 0.78929
 H2347 H 0.22632 0.54673 0.79914
 H2348 H 0.23649 0.52947 0.78936
 H2349 H 0.21689 0.53660 0.75622
 H2350 H 0.20661 0.55386 0.76585
 C2351 C 0.19568 1.09476 0.30419
 C2352 C 0.20173 1.10106 0.31352
 C2353 C 0.19664 1.11153 0.31861
 C2354 C 0.18537 1.11600 0.31451
 C2355 C 0.17938 1.10977 0.30509
 C2356 C 0.18447 1.09927 0.30000
 C2357 C 0.20102 1.08354 0.29892
 N2358 N 0.19491 1.07702 0.29039
 N2359 N 0.19973 1.06695 0.28567
 C2360 C 0.21087 1.06296 0.28927
 N2361 N 0.21697 1.06947 0.29781
 N2362 N 0.21215 1.07953 0.30254
 C2363 C 0.21641 1.05196 0.28376
 C2364 C 0.22833 1.04843 0.28685
 C2365 C 0.23386 1.03855 0.28107
 C2366 C 0.22756 1.03200 0.27214
 C2367 C 0.21555 1.03519 0.26930
 C2368 C 0.21001 1.04509 0.27505
 H2369 H 0.21041 1.09787 0.31695
 H2370 H 0.20162 1.11609 0.32576
 H2371 H 0.17069 1.11288 0.30167
 H2372 H 0.17958 1.09469 0.29279
 H2373 H 0.23352 1.05347 0.29353
 H2374 H 0.24316 1.03618 0.28333
 H2375 H 0.21060 1.03020 0.26239
 H2376 H 0.20079 1.04750 0.27250
 C2377 C 0.69536 0.40537 0.69601
 C2378 C 0.68618 0.39885 0.70207
 C2379 C 0.68119 0.38834 0.69692
 C2380 C 0.68527 0.38406 0.68558
 C2381 C 0.69452 0.39055 0.67956
 C2382 C 0.69949 0.40107 0.68471
 C2383 C 0.70060 0.41658 0.70142
 N2384 N 0.70895 0.42328 0.69526
 N2385 N 0.71369 0.43332 0.70013
 C2386 C 0.71027 0.43709 0.71138
 N2387 N 0.70190 0.43039 0.71754
 N2388 N 0.69715 0.42037 0.71266
 C2389 C 0.71583 0.44806 0.71697
 C2390 C 0.71302 0.45134 0.72901
 C2391 C 0.71883 0.46121 0.73453
 C2392 C 0.72748 0.46801 0.72810
 C2393 C 0.73005 0.46505 0.71599
 C2394 C 0.72428 0.45515 0.71046
 H2395 H 0.68279 0.40187 0.71081
 H2396 H 0.67416 0.38359 0.70190
 H2397 H 0.69791 0.38761 0.67082
 H2398 H 0.70658 0.40582 0.67979
 H2399 H 0.70655 0.44612 0.73429
 H2400 H 0.71680 0.46339 0.74392
 H2401 H 0.73676 0.47021 0.71093
 H2402 H 0.72662 0.45293 0.70116
 C2403 C 0.69545 -0.09459 0.19594
 C2404 C 0.68568 -0.10060 0.20159
 C2405 C 0.68064 -0.11106 0.19641
 C2406 C 0.68525 -0.11580 0.18546
 C2407 C 0.69510 -0.10983 0.17989
 C2408 C 0.70013 -0.09936 0.18505
 C2409 C 0.70069 -0.08340 0.20134
 N2410 N 0.70954 -0.07708 0.19546
 N2411 N 0.71426 -0.06704 0.20032
 C2412 C 0.71034 -0.06287 0.21126
 N2413 N 0.70148 -0.06919 0.21713
 N2414 N 0.69675 -0.07922 0.21227
 C2415 C 0.71586 -0.05190 0.21684
 C2416 C 0.71263 -0.04833 0.22869
 C2417 C 0.71840 -0.03846 0.23424
 C2418 C 0.72744 -0.03197 0.22802
 C2419 C 0.73045 -0.03523 0.21609
 C2420 C 0.72471 -0.04512 0.21054
 H2421 H 0.68186 -0.09721 0.21000
 H2422 H 0.67312 -0.11539 0.20105
 H2423 H 0.69896 -0.11315 0.17148
 H2424 H 0.70770 -0.09501 0.18048
 H2425 H 0.70584 -0.05331 0.23380
 H2426 H 0.71603 -0.03605 0.24349
 H2427 H 0.73746 -0.03031 0.21122
 H2428 H 0.72738 -0.04758 0.20139
 C2429 C 0.19529 0.40553 0.19595
 C2430 C 0.18557 0.39946 0.20162
 C2431 C 0.18060 0.38895 0.19647
 C2432 C 0.18524 0.38421 0.18554
 C2433 C 0.19504 0.39025 0.17993
 C2434 C 0.19999 0.40077 0.18506
 C2435 C 0.20048 0.41675 0.20135
 N2436 N 0.20935 0.42308 0.19552
 N2437 N 0.21405 0.43313 0.20040
 C2438 C 0.21007 0.43728 0.21133
 N2439 N 0.20119 0.43097 0.21715
 N2440 N 0.19648 0.42093 0.21226
 C2441 C 0.21556 0.44825 0.21695
 C2442 C 0.21215 0.45188 0.22874
 C2443 C 0.21784 0.46177 0.23434
 C2444 C 0.22700 0.46821 0.22825
 C2445 C 0.23023 0.46487 0.21640
 C2446 C 0.22455 0.45497 0.21078
 H2447 H 0.18173 0.40284 0.21003
 H2448 H 0.17313 0.38458 0.20114
 H2449 H 0.19890 0.38694 0.17152
 H2450 H 0.20752 0.40517 0.18048
 H2451 H 0.20527 0.44694 0.23376
 H2452 H 0.21533 0.46422 0.24354
 H2453 H 0.23734 0.46975 0.21163
 H2454 H 0.22736 0.45247 0.20168
 C2455 C 0.19532 -0.09448 0.69588
 C2456 C 0.19994 -0.09917 0.68493
 C2457 C 0.19498 -0.10968 0.67979
 C2458 C 0.18524 -0.11577 0.68544
 C2459 C 0.18068 -0.11110 0.69644
 C2460 C 0.18566 -0.10060 0.70159
 C2461 C 0.20054 -0.08329 0.70131
 N2462 N 0.19660 -0.07918 0.71227
 N2463 N 0.20134 -0.06917 0.71719
 C2464 C 0.21019 -0.06282 0.71135
 N2465 N 0.21410 -0.06691 0.70037
 N2466 N 0.20938 -0.07693 0.69546
 C2467 C 0.21571 -0.05190 0.71701
 C2468 C 0.22469 -0.04516 0.71085
 C2469 C 0.23039 -0.03530 0.71651
 C2470 C 0.22719 -0.03201 0.72838
 C2471 C 0.21804 -0.03847 0.73446
 C2472 C 0.21233 -0.04832 0.72882
 H2473 H 0.20742 -0.09472 0.68031
 H2474 H 0.19878 -0.11293 0.67133
 H2475 H 0.17325 -0.11551 0.70114
 H2476 H 0.18188 -0.09727 0.71005
 H2477 H 0.22748 -0.04762 0.70174
 H2478 H 0.23750 -0.03040 0.71175
 H2479 H 0.21555 -0.03606 0.74368
 H2480 H 0.20545 -0.05329 0.73384
 C2481 C 0.30429 0.30427 0.40553
 C2482 C 0.31372 0.29832 0.39926
 C2483 C 0.31875 0.30342 0.38877
 C2484 C 0.31447 0.31461 0.38424
 C2485 C 0.30495 0.32050 0.39046
 C2486 C 0.29993 0.31540 0.40096
 C2487 C 0.29907 0.29892 0.41675
 N2488 N 0.29041 0.30494 0.42319
 N2489 N 0.28571 0.30012 0.43326
 C2490 C 0.28949 0.28907 0.43734
 N2491 N 0.29817 0.28306 0.43091
 N2492 N 0.30287 0.28789 0.42085
 C2493 C 0.28399 0.28352 0.44834
 C2494 C 0.28728 0.27170 0.45199
 C2495 C 0.28152 0.26616 0.46186
 C2496 C 0.27240 0.27235 0.46828
 C2497 C 0.26934 0.28427 0.46495
 C2498 C 0.27508 0.28982 0.45506
 H2499 H 0.31728 0.28971 0.40248
 H2500 H 0.32597 0.29852 0.38423
 H2501 H 0.30139 0.32912 0.38731
 H2502 H 0.29264 0.32021 0.40552
 H2503 H 0.29411 0.26659 0.44705
 H2504 H 0.28393 0.25692 0.46433
 H2505 H 0.26228 0.28913 0.46982
 H2506 H 0.27237 0.29896 0.45255
 C2507 C 0.30454 0.80459 -0.09454
 C2508 C 0.31603 0.80076 -0.09868
 C2509 C 0.32120 0.80588 -0.10910
 C2510 C 0.31503 0.81498 -0.11567
 C2511 C 0.30350 0.81874 -0.11156
 C2512 C 0.29832 0.81361 -0.10114
 C2513 C 0.29910 0.79927 -0.08339
 N2514 N 0.28774 0.80251 -0.07974
 N2515 N 0.28285 0.79776 -0.06973
 C2516 C 0.28913 0.78958 -0.06290
 N2517 N 0.30050 0.78635 -0.06654
 N2518 N 0.30538 0.79110 -0.07656
 C2519 C 0.28354 0.78407 -0.05192
 C2520 C 0.29014 0.77582 -0.04467
 C2521 C 0.28461 0.77010 -0.03474
 C2522 C 0.27242 0.77252 -0.03191
 C2523 C 0.26590 0.78099 -0.03887
 C2524 C 0.27141 0.78674 -0.04877
 H2525 H 0.32106 0.79379 -0.09386
 H2526 H 0.33008 0.80271 -0.11192
 H2527 H 0.29838 0.82563 -0.11637
 H2528 H 0.28944 0.81676 -0.09826
 H2529 H 0.29951 0.77360 -0.04678
 H2530 H 0.28973 0.76354 -0.02946
 H2531 H 0.25645 0.78291 -0.03680
 H2532 H 0.26607 0.79307 -0.05410
 C2533 C 0.80409 0.30487 -0.09446
 C2534 C 0.81556 0.30102 -0.09861
 C2535 C 0.82072 0.30610 -0.10906
 C2536 C 0.81455 0.31518 -0.11564
 C2537 C 0.80303 0.31898 -0.11151
 C2538 C 0.79787 0.31388 -0.10108
 C2539 C 0.79866 0.29956 -0.08330
 N2540 N 0.78729 0.30280 -0.07965
 N2541 N 0.78241 0.29803 -0.06965
 C2542 C 0.78869 0.28985 -0.06283
 N2543 N 0.80006 0.28663 -0.06646
 N2544 N 0.80494 0.29139 -0.07648
 C2545 C 0.78311 0.28431 -0.05186
 C2546 C 0.78972 0.27605 -0.04463
 C2547 C 0.78420 0.27028 -0.03473
 C2548 C 0.77199 0.27267 -0.03190
 C2549 C 0.76546 0.28115 -0.03883
 C2550 C 0.77097 0.28694 -0.04871
 H2551 H 0.82059 0.29405 -0.09379
 H2552 H 0.82959 0.30291 -0.11188
 H2553 H 0.79792 0.32586 -0.11633
 H2554 H 0.78899 0.31705 -0.09818
 H2555 H 0.79909 0.27385 -0.04675
 H2556 H 0.78933 0.26372 -0.02946
 H2557 H 0.75601 0.28304 -0.03676
 H2558 H 0.76562 0.29327 -0.05403
 C2559 C 0.80410 0.80483 0.40561
 C2560 C 0.81558 0.80099 0.40148
 C2561 C 0.82075 0.80610 0.39104
 C2562 C 0.81457 0.81518 0.38447
 C2563 C 0.80305 0.81896 0.38858
 C2564 C 0.79788 0.81385 0.39900
 C2565 C 0.79867 0.79952 0.41676
 N2566 N 0.78731 0.80276 0.42042
 N2567 N 0.78243 0.79800 0.43043
 C2568 C 0.78871 0.78983 0.43725
 N2569 N 0.80008 0.78659 0.43360
 N2570 N 0.80495 0.79134 0.42358
 C2571 C 0.78314 0.78430 0.44823
 C2572 C 0.78975 0.77603 0.45544
 C2573 C 0.78425 0.77028 0.46536
 C2574 C 0.77205 0.77269 0.46821
 C2575 C 0.76552 0.78117 0.46129
 C2576 C 0.77102 0.78696 0.45140
 H2577 H 0.82061 0.79402 0.40630
 H2578 H 0.82963 0.80292 0.38823
 H2579 H 0.79794 0.82585 0.38377
 H2580 H 0.78900 0.81700 0.40189
 H2581 H 0.79912 0.77381 0.45330
 H2582 H 0.78938 0.76370 0.47061
 H2583 H 0.75608 0.78308 0.46339
 H2584 H 0.76566 0.79330 0.44609
 C2585 C 0.69580 0.30430 0.59450
 C2586 C 0.70178 0.31367 0.60083
 C2587 C 0.69662 0.31874 0.61127
 C2588 C 0.68535 0.31457 0.61569
 C2589 C 0.67944 0.30511 0.60942
 C2590 C 0.68459 0.30005 0.59896
 C2591 C 0.70123 0.29907 0.58331
 N2592 N 0.69520 0.29050 0.57675
 N2593 N 0.70009 0.28582 0.56671
 C2594 C 0.71122 0.28951 0.56278
 N2595 N 0.71724 0.29808 0.56934
 N2596 N 0.71234 0.30277 0.57937
 C2597 C 0.71685 0.28406 0.55180
 C2598 C 0.72876 0.28728 0.54833
 C2599 C 0.73436 0.28162 0.53843
 C2600 C 0.72815 0.27268 0.53180
 C2601 C 0.71618 0.26966 0.53497
 C2602 C 0.71055 0.27531 0.54488
 H2603 H 0.71045 0.31715 0.59770
 H2604 H 0.70154 0.32590 0.61586
 H2605 H 0.67076 0.30164 0.61249
 H2606 H 0.67976 0.29281 0.59435
 H2607 H 0.73387 0.29398 0.55341
 H2608 H 0.74365 0.28397 0.53611
 H2609 H 0.71131 0.26272 0.52995
 H2610 H 0.70136 0.27266 0.54725
 C2611 C 0.69578 0.80425 1.09462
 C2612 C 0.68644 0.79823 1.10093
 C2613 C 0.68136 0.80335 1.11139
 C2614 C 0.68550 0.81462 1.11583
 C2615 C 0.69494 0.82057 1.10956
 C2616 C 0.70001 0.81545 1.09909
 C2617 C 0.70103 0.79890 1.08341
 N2618 N 0.70963 0.80497 1.07692
 N2619 N 0.71434 0.80016 1.06685
 C2620 C 0.71063 0.78908 1.06282
 N2621 N 0.70203 0.78302 1.06930
 N2622 N 0.69732 0.78783 1.07936
 C2623 C 0.71613 0.78355 1.05181
 C2624 C 0.71286 0.77171 1.04818
 C2625 C 0.71862 0.76618 1.03830
 C2626 C 0.72772 0.77239 1.03187
 C2627 C 0.73074 0.78432 1.03517
 C2628 C 0.72500 0.78987 1.04506
 H2629 H 0.68298 0.78956 1.09778
 H2630 H 0.67419 0.79841 1.11598
 H2631 H 0.69840 0.82925 1.11263
 H2632 H 0.70724 0.82032 1.09449
 H2633 H 0.70605 0.76660 1.05312
 H2634 H 0.71624 0.75694 1.03585
 H2635 H 0.73778 0.78919 1.03029
 H2636 H 0.72769 0.79901 1.04756
 C2637 C 0.19587 0.30449 1.09459
 C2638 C 0.20185 0.31382 1.10095
 C2639 C 0.19668 0.31888 1.11139
 C2640 C 0.18538 0.31473 1.11576
 C2641 C 0.17946 0.30531 1.10945
 C2642 C 0.18464 0.30025 1.09899
 C2643 C 0.20131 0.29926 1.08341
 N2644 N 0.19526 0.29075 1.07681
 N2645 N 0.20016 0.28606 1.06677
 C2646 C 0.21133 0.28970 1.06290
 N2647 N 0.21737 0.29821 1.06949
 N2648 N 0.21246 0.30291 1.07952
 C2649 C 0.21696 0.28424 1.05193
 C2650 C 0.22891 0.28736 1.04852
 C2651 C 0.23450 0.28166 1.03864
 C2652 C 0.22824 0.27279 1.03197
 C2653 C 0.21622 0.26988 1.03508
 C2654 C 0.21061 0.27556 1.04497
 H2655 H 0.21055 0.31728 1.09785
 H2656 H 0.20161 0.32602 1.11601
 H2657 H 0.17076 0.30185 1.11248
 H2658 H 0.17980 0.29303 1.09436
 H2659 H 0.23406 0.29400 1.05365
 H2660 H 0.24382 0.28394 1.03637
 H2661 H 0.21131 0.26300 1.03002
 H2662 H 0.20139 0.27299 1.04729
 C2663 C 0.19569 0.80435 0.59442
 C2664 C 0.18652 0.79823 0.60090
 C2665 C 0.18143 0.80337 0.61135
 C2666 C 0.18539 0.81477 0.61560
 C2667 C 0.19466 0.82083 0.60918
 C2668 C 0.19974 0.81569 0.59873
 C2669 C 0.20094 0.79897 0.58323
 N2670 N 0.20925 0.80518 0.57650
 N2671 N 0.21395 0.80033 0.56645
 C2672 C 0.21053 0.78906 0.56267
 N2673 N 0.20222 0.78286 0.56939
 N2674 N 0.19751 0.78772 0.57944
 C2675 C 0.21603 0.78350 0.55168
 C2676 C 0.21322 0.77143 0.54844
 C2677 C 0.21899 0.76590 0.53856
 C2678 C 0.22760 0.77234 0.53173
 C2679 C 0.23017 0.78448 0.53465
 C2680 C 0.22443 0.79002 0.54455
 H2681 H 0.18322 0.78945 0.59789
 H2682 H 0.17442 0.79834 0.61606
 H2683 H 0.19796 0.82962 0.61212
 H2684 H 0.20683 0.82064 0.59401
 H2685 H 0.20677 0.76615 0.55369
 H2686 H 0.21696 0.75650 0.53641
 H2687 H 0.23685 0.78953 0.52945
 H2688 H 0.22676 0.79934 0.54675
 C2689 C 0.30419 0.69576 0.59460
 C2690 C 0.29810 0.68655 0.60106
 C2691 C 0.30323 0.68150 0.61153
 C2692 C 0.31459 0.68553 0.61585
 C2693 C 0.32061 0.69484 0.60945
 C2694 C 0.31548 0.69987 0.59896
 C2695 C 0.29880 0.70099 0.58338
 N2696 N 0.30499 0.70933 0.57668
 N2697 N 0.30013 0.71403 0.56662
 C2698 C 0.28888 0.71058 0.56282
 N2699 N 0.28270 0.70223 0.56951
 N2700 N 0.28756 0.69753 0.57956
 C2701 C 0.28332 0.71608 0.55181
 C2702 C 0.27125 0.71327 0.54854
 C2703 C 0.26574 0.71902 0.53864
 C2704 C 0.27219 0.72762 0.53180
 C2705 C 0.28432 0.73020 0.53475
 C2706 C 0.28985 0.72448 0.54468
 H2707 H 0.28936 0.68318 0.59801
 H2708 H 0.29822 0.67446 0.61623
 H2709 H 0.32936 0.69820 0.61244
 H2710 H 0.32041 0.70700 0.59426
 H2711 H 0.26596 0.70683 0.55379
 H2712 H 0.25634 0.71699 0.53647
 H2713 H 0.28939 0.73687 0.52957
 H2714 H 0.29916 0.72682 0.54690
 C2715 C 0.30425 0.19569 1.09476
 C2716 C 0.30026 0.18433 1.09905
 C2717 C 0.30528 0.17924 1.10956
 C2718 C 0.31443 0.18539 1.11606
 C2719 C 0.31831 0.19683 1.11183
 C2720 C 0.31328 0.20192 1.10132
 C2721 C 0.29905 0.20102 1.08351
 N2722 N 0.30247 0.21226 1.07968
 N2723 N 0.29778 0.21707 1.06960
 C2724 C 0.28949 0.21083 1.06290
 N2725 N 0.28609 0.19958 1.06670
 N2726 N 0.29078 0.19477 1.07679
 C2727 C 0.28397 0.21637 1.05190
 C2728 C 0.27546 0.20987 1.04488
 C2729 C 0.26969 0.21540 1.03498
 C2730 C 0.27233 0.22750 1.03196
 C2731 C 0.28107 0.23390 1.03868
 C2732 C 0.28686 0.22839 1.04855
 H2733 H 0.29327 0.17930 1.09426
 H2734 H 0.30202 0.17044 1.11248
 H2735 H 0.32524 0.20193 1.11659
 H2736 H 0.31654 0.21071 1.09832
 H2737 H 0.27307 0.20059 1.04715
 H2738 H 0.26293 0.21037 1.02988
 H2739 H 0.28315 0.24327 1.03645
 H2740 H 0.29338 0.23366 1.05371
 C2741 C 0.80451 0.69569 1.09461
 C2742 C 0.80028 0.68449 1.09908
 C2743 C 0.80537 0.67934 1.10953
 C2744 C 0.81483 0.68527 1.11579
 C2745 C 0.81899 0.69653 1.11135
 C2746 C 0.81390 0.70168 1.10091
 C2747 C 0.79923 0.70109 1.08344
 N2748 N 0.80309 0.71207 1.07930
 N2749 N 0.79836 0.71692 1.06926
 C2750 C 0.78959 0.71099 1.06290
 N2751 N 0.78573 0.70000 1.06704
 N2752 N 0.79045 0.69515 1.07708
 C2753 C 0.78411 0.71655 1.05191
 C2754 C 0.77485 0.71051 1.04545
 C2755 C 0.76916 0.71612 1.03556
 C2756 C 0.77269 0.72782 1.03193
 C2757 C 0.78218 0.73373 1.03806
 C2758 C 0.78783 0.72816 1.04797
 H2759 H 0.79302 0.67965 1.09451
 H2760 H 0.80187 0.67069 1.11261
 H2761 H 0.82619 0.70145 1.11590
 H2762 H 0.81736 0.71035 1.09776
 H2763 H 0.77181 0.70155 1.04818
 H2764 H 0.76183 0.71148 1.03090
 H2765 H 0.78493 0.74280 1.03537
 H2766 H 0.79494 0.73307 1.05270
 C2767 C 0.80427 0.19552 0.59454
 C2768 C 0.79997 0.18437 0.59910
 C2769 C 0.80505 0.17927 0.60959
 C2770 C 0.81457 0.18517 0.61576
 C2771 C 0.81880 0.19636 0.61123
 C2772 C 0.81372 0.20147 0.60077
 C2773 C 0.79899 0.20088 0.58334
 N2774 N 0.80268 0.21197 0.57931
 N2775 N 0.79794 0.21680 0.56926
 C2776 C 0.78934 0.21074 0.56279
 N2777 N 0.78567 0.19964 0.56681
 N2778 N 0.79040 0.19481 0.57686
 C2779 C 0.78384 0.21627 0.55179
 C2780 C 0.77513 0.20987 0.54491
 C2781 C 0.76941 0.21539 0.53499
 C2782 C 0.77228 0.22739 0.53179
 C2783 C 0.78120 0.23370 0.53836
 C2784 C 0.78695 0.22819 0.54826
 H2785 H 0.79267 0.17955 0.59458
 H2786 H 0.80153 0.17064 0.61274
 H2787 H 0.82602 0.20128 0.61576
 H2788 H 0.81723 0.21010 0.59755
 H2789 H 0.77257 0.20067 0.54732
 H2790 H 0.76250 0.21045 0.53000
 H2791 H 0.78346 0.24299 0.53600
 H2792 H 0.79363 0.23338 0.55331
 C2793 C 0.69555 0.69589 0.40564
 C2794 C 0.68645 0.70204 0.39909
 C2795 C 0.68136 0.69686 0.38866
 C2796 C 0.68525 0.68540 0.38449
 C2797 C 0.69443 0.67929 0.39101
 C2798 C 0.69951 0.68447 0.40145
 C2799 C 0.70082 0.70132 0.41681
 N2800 N 0.70908 0.69510 0.42358
 N2801 N 0.71380 0.69998 0.43361
 C2802 C 0.71045 0.71129 0.43731
 N2803 N 0.70220 0.71752 0.43053
 N2804 N 0.69747 0.71263 0.42051
 C2805 C 0.71595 0.71687 0.44829
 C2806 C 0.71320 0.72896 0.45150
 C2807 C 0.71895 0.73448 0.46138
 C2808 C 0.72751 0.72800 0.46827
 C2809 C 0.73002 0.71584 0.46538
 C2810 C 0.72430 0.71031 0.45547
 H2811 H 0.68320 0.71086 0.40202
 H2812 H 0.67441 0.70192 0.38388
 H2813 H 0.69770 0.67047 0.38814
 H2814 H 0.70654 0.67950 0.40623
 H2815 H 0.70680 0.73428 0.44621
 H2816 H 0.71697 0.74390 0.46350
 H2817 H 0.73666 0.71076 0.47061
 H2818 H 0.72659 0.70098 0.45330
 C2819 C 0.69546 0.19568 -0.09440
 C2820 C 0.68640 0.20183 -0.10102
 C2821 C 0.68131 0.19661 -0.11142
 C2822 C 0.68514 0.18510 -0.11551
 C2823 C 0.69428 0.17900 -0.10893
 C2824 C 0.69936 0.18422 -0.09852
 C2825 C 0.70074 0.20116 -0.08326
 N2826 N 0.70895 0.19494 -0.07643
 N2827 N 0.71366 0.19985 -0.06641
 C2828 C 0.71037 0.21121 -0.06279
 N2829 N 0.70216 0.21743 -0.06962
 N2830 N 0.69743 0.21251 -0.07963
 C2831 C 0.71587 0.21682 -0.05182
 C2832 C 0.71317 0.22894 -0.04867
 C2833 C 0.71893 0.23447 -0.03879
 C2834 C 0.72743 0.22798 -0.03185
 C2835 C 0.72989 0.21580 -0.03467
 C2836 C 0.72416 0.21025 -0.04458
 H2837 H 0.68320 0.21070 -0.09816
 H2838 H 0.67439 0.20168 -0.11624
 H2839 H 0.69751 0.17014 -0.11174
 H2840 H 0.70637 0.17924 -0.09369
 H2841 H 0.70681 0.23425 -0.05400
 H2842 H 0.71698 0.24391 -0.03672
 H2843 H 0.73648 0.21071 -0.02940
 H2844 H 0.72641 0.20090 -0.04669
 C2845 C 0.19555 0.69581 -0.09428
 C2846 C 0.19941 0.68433 -0.09840
 C2847 C 0.19430 0.67913 -0.10881
 C2848 C 0.18519 0.68528 -0.11538
 C2849 C 0.18140 0.69680 -0.11129
 C2850 C 0.18653 0.70200 -0.10089
 C2851 C 0.20086 0.70126 -0.08315
 N2852 N 0.19761 0.71262 -0.07952
 N2853 N 0.20236 0.71753 -0.06952
 C2854 C 0.21055 0.71127 -0.06269
 N2855 N 0.21380 0.69990 -0.06631
 N2856 N 0.20905 0.69500 -0.07632
 C2857 C 0.21608 0.71686 -0.05174
 C2858 C 0.22435 0.71028 -0.04451
 C2859 C 0.23011 0.71581 -0.03461
 C2860 C 0.22770 0.72801 -0.03180
 C2861 C 0.21921 0.73452 -0.03874
 C2862 C 0.21342 0.72900 -0.04860
 H2863 H 0.20640 0.67932 -0.09357
 H2864 H 0.19749 0.67025 -0.11161
 H2865 H 0.17450 0.70190 -0.11611
 H2866 H 0.18336 0.71088 -0.09803
 H2867 H 0.22657 0.70091 -0.04661
 H2868 H 0.23669 0.71070 -0.02934
 H2869 H 0.21730 0.74397 -0.03667
 H2870 H 0.20707 0.73433 -0.05392
 C2871 C 0.19568 0.19589 0.40546
 C2872 C 0.20019 0.18487 0.40078
 C2873 C 0.19515 0.17976 0.39030
 C2874 C 0.18547 0.18552 0.38422
 C2875 C 0.18105 0.19661 0.38885
 C2876 C 0.18610 0.20173 0.39933
 C2877 C 0.20091 0.20125 0.41668
 N2878 N 0.19682 0.21209 0.42098
 N2879 N 0.20151 0.21692 0.43105
 C2880 C 0.21046 0.21110 0.43727
 N2881 N 0.21454 0.20024 0.43298
 N2882 N 0.20985 0.19542 0.42291
 C2883 C 0.21592 0.21665 0.44828
 C2884 C 0.22530 0.21068 0.45464
 C2885 C 0.23098 0.21629 0.46453
 C2886 C 0.22733 0.22792 0.46826
 C2887 C 0.21772 0.23376 0.46223
 C2888 C 0.21207 0.22819 0.45232
 H2889 H 0.20761 0.18016 0.40523
 H2890 H 0.19883 0.17123 0.38706
 H2891 H 0.17370 0.20141 0.38442
 H2892 H 0.18243 0.21025 0.40263
 H2893 H 0.22845 0.20178 0.45183
 H2894 H 0.23841 0.21170 0.46911
 H2895 H 0.21487 0.24278 0.46499
 H2896 H 0.20487 0.23304 0.44766
 C2897 C 0.30452 0.40562 0.69560
 C2898 C 0.31584 0.40125 0.69965
 C2899 C 0.32099 0.39081 0.69451
 C2900 C 0.31495 0.38449 0.68517
 C2901 C 0.30359 0.38884 0.68119
 C2902 C 0.29844 0.39926 0.68634
 C2903 C 0.29908 0.41677 0.70093
 N2904 N 0.28783 0.42058 0.69749
 N2905 N 0.28293 0.43059 0.70224
 C2906 C 0.28908 0.43726 0.71063
 N2907 N 0.30034 0.43346 0.71407
 N2908 N 0.30523 0.42344 0.70932
 C2909 C 0.28347 0.44823 0.71613
 C2910 C 0.28995 0.45535 0.72458
 C2911 C 0.28437 0.46526 0.73029
 C2912 C 0.27225 0.46820 0.72766
 C2913 C 0.26584 0.46137 0.71902
 C2914 C 0.27141 0.45149 0.71328
 H2915 H 0.32075 0.40589 0.70682
 H2916 H 0.32975 0.38779 0.69784
 H2917 H 0.29858 0.38422 0.67411
 H2918 H 0.28968 0.40233 0.68302
 H2919 H 0.29926 0.45314 0.72694
 H2920 H 0.28940 0.47045 0.73699
 H2921 H 0.25645 0.46354 0.71695
 H2922 H 0.26615 0.44626 0.70681
 C2923 C 0.30460 0.90557 0.19557
 C2924 C 0.31568 0.90090 0.19995
 C2925 C 0.32078 0.89041 0.19485
 C2926 C 0.31493 0.88433 0.18523
 C2927 C 0.30380 0.88898 0.18092
 C2928 C 0.29871 0.89944 0.18603
 C2929 C 0.29922 0.91676 0.20086
 N2930 N 0.28830 0.92100 0.19690
 N2931 N 0.28343 0.93103 0.20165
 C2932 C 0.28929 0.93729 0.21054
 N2933 N 0.30022 0.93306 0.21449
 N2934 N 0.30508 0.92302 0.20975
 C2935 C 0.28368 0.94826 0.21605
 C2936 C 0.28971 0.95469 0.22534
 C2937 C 0.28406 0.96456 0.23106
 C2938 C 0.27234 0.96817 0.22757
 C2939 C 0.26645 0.96206 0.21806
 C2940 C 0.27206 0.95219 0.21235
 H2941 H 0.32044 0.90534 0.20733
 H2942 H 0.32934 0.88716 0.19845
 H2943 H 0.29894 0.88457 0.17361
 H2944 H 0.29014 0.90274 0.18245
 H2945 H 0.29868 0.95197 0.22836
 H2946 H 0.28870 0.96920 0.23840
 H2947 H 0.25737 0.96474 0.21531
 H2948 H 0.26717 0.94748 0.20522
 C2949 C 0.80456 0.40554 0.19566
 C2950 C 0.81556 0.40078 0.20014
 C2951 C 0.82061 0.39025 0.19508
 C2952 C 0.81479 0.38423 0.18541
 C2953 C 0.80373 0.38896 0.18103
 C2954 C 0.79869 0.39947 0.18608
 C2955 C 0.79923 0.41677 0.20091
 N2956 N 0.78837 0.42109 0.19687
 N2957 N 0.78353 0.43114 0.20160
 C2958 C 0.78935 0.43733 0.21056
 N2959 N 0.80023 0.43304 0.21458
 N2960 N 0.80507 0.42298 0.20985
 C2961 C 0.78374 0.44830 0.21608
 C2962 C 0.78972 0.45467 0.22542
 C2963 C 0.78406 0.46451 0.23116
 C2964 C 0.77236 0.46816 0.22763
 C2965 C 0.76651 0.46211 0.21806
 C2966 C 0.77215 0.45226 0.21233
 H2967 H 0.82031 0.40520 0.20754
 H2968 H 0.82913 0.38694 0.19873
 H2969 H 0.79889 0.38458 0.17369
 H2970 H 0.79018 0.40284 0.18243
 H2971 H 0.79868 0.45193 0.22848
 H2972 H 0.78866 0.46912 0.23855
 H2973 H 0.75745 0.46482 0.21527
 H2974 H 0.76729 0.44760 0.20515
 C2975 C 0.80458 0.90563 0.69572
 C2976 C 0.81589 0.90124 0.69979
 C2977 C 0.82098 0.89072 0.69473
 C2978 C 0.81490 0.88435 0.68545
 C2979 C 0.80355 0.88871 0.68147
 C2980 C 0.79845 0.89920 0.68654
 C2981 C 0.79920 0.91685 0.70098
 N2982 N 0.78796 0.92068 0.69752
 N2983 N 0.78307 0.93071 0.70225
 C2984 C 0.78922 0.93738 0.71063
 N2985 N 0.80048 0.93358 0.71407
 N2986 N 0.80537 0.92353 0.70934
 C2987 C 0.78359 0.94833 0.71617
 C2988 C 0.79005 0.95544 0.72464
 C2989 C 0.78444 0.96531 0.73039
 C2990 C 0.77230 0.96824 0.72778
 C2991 C 0.76593 0.96142 0.71911
 C2992 C 0.77152 0.95158 0.71332
 H2993 H 0.82085 0.90593 0.70689
 H2994 H 0.82974 0.88770 0.69806
 H2995 H 0.79850 0.88404 0.67445
 H2996 H 0.78970 0.90228 0.68321
 H2997 H 0.79936 0.95325 0.72700
 H2998 H 0.78945 0.97050 0.73710
 H2999 H 0.75653 0.96357 0.71703
 H3000 H 0.76629 0.94636 0.70682
 C3001 C 0.69538 0.59439 0.69591
 C3002 C 0.69951 0.59867 0.68460
 C3003 C 0.69445 0.60911 0.67938
 C3004 C 0.68512 0.61555 0.68534
 C3005 C 0.68106 0.61131 0.69670
 C3006 C 0.68614 0.60087 0.70192
 C3007 C 0.70064 0.58321 0.70136
 N3008 N 0.69719 0.57944 0.71260
 N3009 N 0.70193 0.56941 0.71749
 C3010 C 0.71029 0.56269 0.71135
 N3011 N 0.71373 0.56645 0.70010
 N3012 N 0.70900 0.57649 0.69521
 C3013 C 0.71582 0.55171 0.71694
 C3014 C 0.72425 0.54459 0.71043
 C3015 C 0.73002 0.53468 0.71596
 C3016 C 0.72746 0.53175 0.72809
 C3017 C 0.71883 0.53858 0.73452
 C3018 C 0.71303 0.54846 0.72899
 H3019 H 0.70666 0.59395 0.67973
 H3020 H 0.69784 0.61204 0.67063
 H3021 H 0.67399 0.61603 0.70164
 H3022 H 0.68276 0.59787 0.71067
 H3023 H 0.72657 0.54678 0.70112
 H3024 H 0.73671 0.52950 0.71091
 H3025 H 0.71681 0.53642 0.74391
 H3026 H 0.70656 0.55370 0.73427
 C3027 C 0.69523 0.09421 0.19579
 C3028 C 0.69938 0.09851 0.18450
 C3029 C 0.69441 0.10903 0.17935
 C3030 C 0.68514 0.11551 0.18535
 C3031 C 0.68104 0.11122 0.19668
 C3032 C 0.68603 0.10072 0.20183
 C3033 C 0.70046 0.08301 0.20121
 N3034 N 0.69699 0.07922 0.21244
 N3035 N 0.70174 0.06920 0.21734
 C3036 C 0.71015 0.06252 0.21121
 N3037 N 0.71360 0.06630 0.19997
 N3038 N 0.70885 0.07632 0.19507
 C3039 C 0.71573 0.05159 0.21682
 C3040 C 0.72425 0.04454 0.21035
 C3041 C 0.73006 0.03467 0.21592
 C3042 C 0.72745 0.03171 0.22802
 C3043 C 0.71872 0.03848 0.23441
 C3044 C 0.71289 0.04831 0.22886
 H3045 H 0.70650 0.09377 0.17960
 H3046 H 0.69782 0.11197 0.17061
 H3047 H 0.67400 0.11597 0.20164
 H3048 H 0.68263 0.09769 0.21056
 H3049 H 0.72661 0.04676 0.20106
 H3050 H 0.73681 0.02954 0.21090
 H3051 H 0.71666 0.03629 0.24379
 H3052 H 0.70636 0.05350 0.23410
 C3053 C 0.19531 0.59455 0.19557
 C3054 C 0.18436 0.59937 0.20012
 C3055 C 0.17930 0.60989 0.19506
 C3056 C 0.18505 0.61586 0.18531
 C3057 C 0.19605 0.61107 0.18085
 C3058 C 0.20111 0.60057 0.18591
 C3059 C 0.20065 0.58333 0.20083
 N3060 N 0.21146 0.57897 0.19670
 N3061 N 0.21632 0.56893 0.20143
 C3062 C 0.21057 0.56278 0.21047
 N3063 N 0.19974 0.56712 0.21458
 N3064 N 0.19488 0.57718 0.20985
 C3065 C 0.21619 0.55182 0.21598
 C3066 C 0.21028 0.54550 0.22541
 C3067 C 0.21597 0.53565 0.23113
 C3068 C 0.22761 0.53195 0.22749
 C3069 C 0.23339 0.53795 0.21784
 C3070 C 0.22774 0.54781 0.21213
 H3071 H 0.17967 0.59501 0.20760
 H3072 H 0.17083 0.61326 0.19878
 H3073 H 0.20085 0.61540 0.17344
 H3074 H 0.20958 0.59715 0.18220
 H3075 H 0.20136 0.54828 0.22855
 H3076 H 0.21142 0.53109 0.23858
 H3077 H 0.24242 0.53520 0.21498
 H3078 H 0.23254 0.55243 0.20489
 C3079 C 0.19555 0.09440 0.69576
 C3080 C 0.20147 0.10059 0.68628
 C3081 C 0.19641 0.11111 0.68125
 C3082 C 0.18529 0.11575 0.68557
 C3083 C 0.17942 0.10962 0.69514
 C3084 C 0.18448 0.09908 0.70017
 C3085 C 0.20089 0.08315 0.70100
 N3086 N 0.19501 0.07686 0.70986
 N3087 N 0.19987 0.06680 0.71459
 C3088 C 0.21081 0.06259 0.71064
 N3089 N 0.21666 0.06886 0.70175
 N3090 N 0.21181 0.07891 0.69703
 C3091 C 0.21643 0.05163 0.71617
 C3092 C 0.22807 0.04772 0.71248
 C3093 C 0.23371 0.03787 0.71821
 C3094 C 0.22784 0.03175 0.72773
 C3095 C 0.21611 0.03534 0.73122
 C3096 C 0.21043 0.04519 0.72548
 H3097 H 0.21003 0.09728 0.68268
 H3098 H 0.20130 0.11557 0.67398
 H3099 H 0.17085 0.11286 0.69875
 H3100 H 0.17968 0.09458 0.70751
 H3101 H 0.23295 0.05243 0.70534
 H3102 H 0.24280 0.03520 0.71546
 H3103 H 0.21148 0.03069 0.73856
 H3104 H 0.20145 0.04789 0.72849
 C3105 C 0.30423 0.59473 0.30407
 C3106 C 0.29823 0.60099 0.31345
 C3107 C 0.30332 0.61147 0.31853
 C3108 C 0.31455 0.61597 0.31436
 C3109 C 0.32050 0.60977 0.30488
 C3110 C 0.31541 0.59927 0.29981
 C3111 C 0.29889 0.58351 0.29883
 N3112 N 0.30495 0.57704 0.29021
 N3113 N 0.30013 0.56696 0.28551
 C3114 C 0.28906 0.56290 0.28923
 N3115 N 0.28302 0.56936 0.29786
 N3116 N 0.28784 0.57943 0.30256
 C3117 C 0.28353 0.55189 0.28375
 C3118 C 0.27169 0.54825 0.28702
 C3119 C 0.26616 0.53836 0.28128
 C3120 C 0.27236 0.53193 0.27219
 C3121 C 0.28429 0.53524 0.26915
 C3122 C 0.28984 0.54514 0.27488
 H3123 H 0.28959 0.59779 0.31694
 H3124 H 0.29838 0.61600 0.32572
 H3125 H 0.32915 0.61291 0.30140
 H3126 H 0.32026 0.59472 0.29255
 H3127 H 0.26657 0.55320 0.29383
 H3128 H 0.25691 0.53591 0.28367
 H3129 H 0.28917 0.53035 0.26212
 H3130 H 0.29899 0.54764 0.27219
 C3131 C 0.30431 0.09444 0.80424
 C3132 C 0.29835 0.10063 0.81370
 C3133 C 0.30342 0.11112 0.81877
 C3134 C 0.31459 0.11571 0.81452
 C3135 C 0.32049 0.10958 0.80497
 C3136 C 0.31542 0.09908 0.79990
 C3137 C 0.29900 0.08320 0.79900
 N3138 N 0.30502 0.07681 0.79030
 N3139 N 0.30024 0.06672 0.78561
 C3140 C 0.28924 0.06256 0.78942
 N3141 N 0.28322 0.06895 0.79812
 N3142 N 0.28801 0.07904 0.80282
 C3143 C 0.28373 0.05153 0.78395
 C3144 C 0.27196 0.04778 0.78732
 C3145 C 0.26645 0.03787 0.78160
 C3146 C 0.27262 0.03152 0.77242
 C3147 C 0.28449 0.03493 0.76929
 C3148 C 0.29002 0.04486 0.77500
 H3149 H 0.28976 0.09736 0.81724
 H3150 H 0.29852 0.11559 0.82603
 H3151 H 0.32909 0.11279 0.80142
 H3152 H 0.32024 0.09458 0.79258
 H3153 H 0.26686 0.05267 0.79419
 H3154 H 0.25724 0.03534 0.78406
 H3155 H 0.28933 0.03012 0.76218
 H3156 H 0.29911 0.04744 0.77223
 C3157 C 0.80450 0.59453 0.80433
 C3158 C 0.79843 0.60091 0.81359
 C3159 C 0.80355 0.61137 0.81868
 C3160 C 0.81488 0.61575 0.81464
 C3161 C 0.82090 0.60943 0.80529
 C3162 C 0.81578 0.59894 0.80020
 C3163 C 0.79911 0.58332 0.79906
 N3164 N 0.80525 0.57667 0.79065
 N3165 N 0.80038 0.56662 0.78594
 C3166 C 0.78916 0.56278 0.78945
 N3167 N 0.78303 0.56942 0.79787
 N3168 N 0.78790 0.57946 0.80259
 C3169 C 0.78356 0.55178 0.78397
 C3170 C 0.77154 0.54846 0.78689
 C3171 C 0.76598 0.53857 0.78117
 C3172 C 0.77236 0.53178 0.77246
 C3173 C 0.78445 0.53478 0.76977
 C3174 C 0.79002 0.54470 0.77546
 H3175 H 0.78971 0.59781 0.81697
 H3176 H 0.79854 0.61600 0.82577
 H3177 H 0.82963 0.61247 0.80192
 H3178 H 0.82069 0.59430 0.79304
 H3179 H 0.76630 0.55367 0.79341
 H3180 H 0.75661 0.53637 0.78329
 H3181 H 0.78946 0.52963 0.76302
 H3182 H 0.79930 0.54695 0.77304
 C3183 C 0.80442 0.09440 0.30418
 C3184 C 0.81563 0.09888 0.29996
 C3185 C 0.82072 0.10940 0.30500
 C3186 C 0.81472 0.11569 0.31439
 C3187 C 0.80345 0.11124 0.31852
 C3188 C 0.79836 0.10075 0.31348
 C3189 C 0.79905 0.08317 0.29897
 N3190 N 0.78790 0.07925 0.30258
 N3191 N 0.78304 0.06920 0.29788
 C3192 C 0.78914 0.06260 0.28941
 N3193 N 0.80032 0.06650 0.28582
 N3194 N 0.80517 0.07657 0.29050
 C3195 C 0.78355 0.05161 0.28393
 C3196 C 0.78997 0.04460 0.27534
 C3197 C 0.78439 0.03470 0.26964
 C3198 C 0.77233 0.03165 0.27241
 C3199 C 0.76600 0.03837 0.28120
 C3200 C 0.77156 0.04825 0.28693
 H3201 H 0.82052 0.09426 0.29277
 H3202 H 0.82940 0.11249 0.30156
 H3203 H 0.79847 0.11584 0.32564
 H3204 H 0.78969 0.09760 0.31693
 H3205 H 0.79923 0.04689 0.27285
 H3206 H 0.78936 0.02960 0.26282
 H3207 H 0.75665 0.03613 0.28338
 H3208 H 0.76636 0.05341 0.29351
 C3209 C 0.69559 0.40549 0.30420
 C3210 C 0.70151 0.39932 0.31369
 C3211 C 0.69643 0.38884 0.31877
 C3212 C 0.68530 0.38422 0.31447
 C3213 C 0.67942 0.39034 0.30488
 C3214 C 0.68450 0.40084 0.29982
 C3215 C 0.70094 0.41670 0.29895
 N3216 N 0.69496 0.42308 0.29021
 N3217 N 0.69979 0.43315 0.28550
 C3218 C 0.71080 0.43728 0.28934
 N3219 N 0.71676 0.43090 0.29808
 N3220 N 0.71193 0.42084 0.30279
 C3221 C 0.71636 0.44827 0.28385
 C3222 C 0.72815 0.45196 0.28722
 C3223 C 0.73371 0.46184 0.28148
 C3224 C 0.72758 0.46820 0.27230
 C3225 C 0.71569 0.46485 0.26916
 C3226 C 0.71011 0.45496 0.27489
 H3227 H 0.71008 0.40260 0.31727
 H3228 H 0.70132 0.38438 0.32604
 H3229 H 0.67084 0.38711 0.30131
 H3230 H 0.67972 0.40533 0.29247
 H3231 H 0.73321 0.44706 0.29411
 H3232 H 0.74292 0.46434 0.28395
 H3233 H 0.71088 0.46968 0.26205
 H3234 H 0.70101 0.45241 0.27211
 C3235 C 0.69541 0.90566 0.80418
 C3236 C 0.68630 0.89908 0.79807
 C3237 C 0.68130 0.88860 0.80323
 C3238 C 0.68528 0.88440 0.81464
 C3239 C 0.69445 0.89094 0.82070
 C3240 C 0.69944 0.90144 0.81554
 C3241 C 0.70064 0.91685 0.79876
 N3242 N 0.70890 0.92363 0.80498
 N3243 N 0.71362 0.93367 0.80011
 C3244 C 0.71029 0.93738 0.78881
 N3245 N 0.70203 0.93061 0.78259
 N3246 N 0.69729 0.92057 0.78747
 C3247 C 0.71581 0.94836 0.78324
 C3248 C 0.71309 0.95158 0.77116
 C3249 C 0.71887 0.96147 0.76567
 C3250 C 0.72742 0.96835 0.77215
 C3251 C 0.72991 0.96544 0.78430
 C3252 C 0.72416 0.95552 0.78981
 H3253 H 0.68300 0.90204 0.78928
 H3254 H 0.67434 0.88379 0.79822
 H3255 H 0.69776 0.88807 0.82950
 H3256 H 0.70647 0.90624 0.82049
 H3257 H 0.70671 0.94630 0.76585
 H3258 H 0.71692 0.96361 0.75626
 H3259 H 0.73654 0.97066 0.78939
 H3260 H 0.72643 0.95334 0.79913
 C3261 C 0.19526 0.40551 0.80423
 C3262 C 0.18606 0.39901 0.79818
 C3263 C 0.18105 0.38852 0.80334
 C3264 C 0.18512 0.38424 0.81469
 C3265 C 0.19440 0.39071 0.82069
 C3266 C 0.19939 0.40121 0.81553
 C3267 C 0.20051 0.41671 0.79880
 N3268 N 0.20884 0.42343 0.80497
 N3269 N 0.21358 0.43346 0.80008
 C3270 C 0.21020 0.43720 0.78881
 N3271 N 0.20185 0.43049 0.78265
 N3272 N 0.19710 0.42047 0.78754
 C3273 C 0.21575 0.44816 0.78322
 C3274 C 0.21303 0.45137 0.77113
 C3275 C 0.21884 0.46124 0.76561
 C3276 C 0.22741 0.46811 0.77207
 C3277 C 0.22990 0.46521 0.78422
 C3278 C 0.22413 0.45531 0.78975
 H3279 H 0.18268 0.40203 0.78944
 H3280 H 0.17401 0.38378 0.79837
 H3281 H 0.19778 0.38777 0.82943
 H3282 H 0.20650 0.40595 0.82043
 H3283 H 0.20661 0.44610 0.76584
 H3284 H 0.21686 0.46337 0.75620
 H3285 H 0.23655 0.47042 0.78929
 H3286 H 0.22641 0.45314 0.79908
 C3287 C 0.19551 0.90562 0.30414
 C3288 C 0.20141 0.89949 0.31368
 C3289 C 0.19636 0.88898 0.31872
 C3290 C 0.18528 0.88430 0.31436
 C3291 C 0.17943 0.89037 0.30474
 C3292 C 0.18448 0.90091 0.29969
 C3293 C 0.20084 0.91685 0.29890
 N3294 N 0.19489 0.92318 0.29011
 N3295 N 0.19972 0.93325 0.28540
 C3296 C 0.21070 0.93742 0.28928
 N3297 N 0.21663 0.93109 0.29807
 N3298 N 0.21180 0.92103 0.30279
 C3299 C 0.21627 0.94840 0.28378
 C3300 C 0.22804 0.95212 0.28719
 C3301 C 0.23362 0.96198 0.28144
 C3302 C 0.22752 0.96831 0.27221
 C3303 C 0.21565 0.96492 0.26902
 C3304 C 0.21006 0.95505 0.27476
 H3305 H 0.20994 0.90283 0.31731
 H3306 H 0.20123 0.88456 0.32603
 H3307 H 0.17089 0.88710 0.30112
 H3308 H 0.17971 0.90536 0.29232
 H3309 H 0.23308 0.94725 0.29411
 H3310 H 0.24281 0.96450 0.28394
 H3311 H 0.21086 0.96973 0.26188
 H3312 H 0.20097 0.95248 0.27195
 C3313 C 0.40537 0.30444 0.69584
 C3314 C 0.40080 0.31560 0.70011
 C3315 C 0.39024 0.32065 0.69509
 C3316 C 0.38400 0.31466 0.68566
 C3317 C 0.38855 0.30346 0.68147
 C3318 C 0.39908 0.29842 0.68650
 C3319 C 0.41661 0.29910 0.70108
 N3320 N 0.42062 0.28799 0.69742
 N3321 N 0.43067 0.28314 0.70215
 C3322 C 0.43718 0.28921 0.71072
 N3323 N 0.43320 0.30033 0.71435
 N3324 N 0.42313 0.30518 0.70963
 C3325 C 0.44816 0.28362 0.71624
 C3326 C 0.45506 0.28998 0.72495
 C3327 C 0.46494 0.28440 0.73070
 C3328 C 0.46808 0.27237 0.72785
 C3329 C 0.46148 0.26610 0.71894
 C3330 C 0.45162 0.27167 0.71316
 H3331 H 0.40537 0.32048 0.70734
 H3332 H 0.38708 0.32929 0.69857
 H3333 H 0.38399 0.29850 0.67432
 H3334 H 0.40230 0.28979 0.68300
 H3335 H 0.45269 0.29920 0.72749
 H3336 H 0.46996 0.28932 0.73760
 H3337 H 0.46380 0.25679 0.71668
 H3338 H 0.44655 0.26651 0.70649
 C3339 C 0.40561 0.80488 0.19589
 C3340 C 0.39918 0.81419 0.20186
 C3341 C 0.38865 0.81914 0.19673
 C3342 C 0.38427 0.81490 0.18549
 C3343 C 0.39067 0.80554 0.17956
 C3344 C 0.40120 0.80060 0.18469
 C3345 C 0.41682 0.79968 0.20130
 N3346 N 0.42332 0.79102 0.19533
 N3347 N 0.43335 0.78630 0.20022
 C3348 C 0.43734 0.79005 0.21129
 N3349 N 0.43086 0.79873 0.21725
 N3350 N 0.42083 0.80345 0.21235
 C3351 C 0.44829 0.78453 0.21691
 C3352 C 0.45198 0.78797 0.22867
 C3353 C 0.46184 0.78223 0.23426
 C3354 C 0.46818 0.77297 0.22822
 C3355 C 0.46479 0.76973 0.21638
 C3356 C 0.45494 0.77547 0.21076
 H3357 H 0.40229 0.81769 0.21052
 H3358 H 0.38398 0.82626 0.20164
 H3359 H 0.38765 0.80202 0.17090
 H3360 H 0.40590 0.79341 0.17985
 H3361 H 0.44709 0.79491 0.23366
 H3362 H 0.46434 0.78477 0.24344
 H3363 H 0.46961 0.76255 0.21163
 H3364 H 0.45239 0.77264 0.20168
 C3365 C 0.90552 0.30464 0.19562
 C3366 C 0.90094 0.31579 0.19989
 C3367 C 0.89043 0.32087 0.19482
 C3368 C 0.88425 0.31492 0.18533
 C3369 C 0.88880 0.30372 0.18114
 C3370 C 0.89928 0.29864 0.18622
 C3371 C 0.91673 0.29928 0.20089
 N3372 N 0.92075 0.28818 0.19722
 N3373 N 0.93079 0.28332 0.20197
 C3374 C 0.93727 0.28937 0.21057
 N3375 N 0.93327 0.30048 0.21422
 N3376 N 0.92322 0.30534 0.20948
 C3377 C 0.94824 0.28378 0.21610
 C3378 C 0.95511 0.29014 0.22484
 C3379 C 0.96498 0.28456 0.23060
 C3380 C 0.96813 0.27254 0.22774
 C3381 C 0.96157 0.26628 0.21879
 C3382 C 0.95172 0.27185 0.21300
 H3383 H 0.90548 0.32064 0.20716
 H3384 H 0.88726 0.32951 0.19830
 H3385 H 0.88427 0.29878 0.17394
 H3386 H 0.90251 0.29001 0.18273
 H3387 H 0.95273 0.29936 0.22739
 H3388 H 0.96998 0.28948 0.23752
 H3389 H 0.96391 0.25697 0.21653
 H3390 H 0.94668 0.26670 0.20630
 C3391 C 0.90561 0.80466 0.69570
 C3392 C 0.89928 0.79861 0.68640
 C3393 C 0.88882 0.80372 0.68130
 C3394 C 0.88439 0.81501 0.68537
 C3395 C 0.89066 0.82101 0.69476
 C3396 C 0.90115 0.81590 0.69986
 C3397 C 0.91682 0.79929 0.70099
 N3398 N 0.92338 0.80540 0.70947
 N3399 N 0.93344 0.80055 0.71421
 C3400 C 0.93736 0.78938 0.71066
 N3401 N 0.93080 0.78327 0.70216
 N3402 N 0.92076 0.78813 0.69741
 C3403 C 0.94833 0.78379 0.71619
 C3404 C 0.95175 0.77182 0.71318
 C3405 C 0.96160 0.76626 0.71897
 C3406 C 0.96824 0.77257 0.72783
 C3407 C 0.96515 0.78463 0.73061
 C3408 C 0.95527 0.79020 0.72484
 H3409 H 0.90243 0.78991 0.68300
 H3410 H 0.88423 0.79873 0.67418
 H3411 H 0.88758 0.82972 0.69816
 H3412 H 0.90576 0.82079 0.70706
 H3413 H 0.94666 0.76663 0.70655
 H3414 H 0.96389 0.75693 0.71677
 H3415 H 0.97020 0.78958 0.73746
 H3416 H 0.95294 0.79945 0.72732
 C3417 C 0.59468 0.30451 0.30416
 C3418 C 0.60073 0.29870 0.31380
 C3419 C 0.61123 0.30377 0.31885
 C3420 C 0.61598 0.31479 0.31440
 C3421 C 0.60997 0.32056 0.30469
 C3422 C 0.59945 0.31548 0.29963
 C3423 C 0.58345 0.29915 0.29892
 N3424 N 0.57726 0.30491 0.28991
 N3425 N 0.56720 0.30005 0.28521
 C3426 C 0.56289 0.28922 0.28933
 N3427 N 0.56907 0.28347 0.29835
 N3428 N 0.57912 0.28834 0.30305
 C3429 C 0.55190 0.28360 0.28387
 C3430 C 0.54787 0.27209 0.28779
 C3431 C 0.53797 0.26645 0.28216
 C3432 C 0.53194 0.27219 0.27251
 C3433 C 0.53566 0.28380 0.26878
 C3434 C 0.54555 0.28948 0.27443
 H3435 H 0.59736 0.29022 0.31750
 H3436 H 0.61559 0.29897 0.32624
 H3437 H 0.61329 0.32904 0.30099
 H3438 H 0.59505 0.32018 0.29218
 H3439 H 0.55251 0.26730 0.29503
 H3440 H 0.53521 0.25745 0.28508
 H3441 H 0.53109 0.28833 0.26132
 H3442 H 0.54835 0.29837 0.27124
 C3443 C 0.59477 0.80459 0.80428
 C3444 C 0.60080 0.79879 0.81394
 C3445 C 0.61133 0.80383 0.81897
 C3446 C 0.61613 0.81481 0.81448
 C3447 C 0.61014 0.82056 0.80473
 C3448 C 0.59959 0.81551 0.79971
 C3449 C 0.58352 0.79925 0.79906
 N3450 N 0.57734 0.80502 0.79004
 N3451 N 0.56727 0.80017 0.78534
 C3452 C 0.56292 0.78937 0.78948
 N3453 N 0.56908 0.78362 0.79852
 N3454 N 0.57914 0.78846 0.80321
 C3455 C 0.55191 0.78376 0.78401
 C3456 C 0.54787 0.77225 0.78790
 C3457 C 0.53797 0.76662 0.78225
 C3458 C 0.53194 0.77239 0.77262
 C3459 C 0.53568 0.78401 0.76893
 C3460 C 0.54557 0.78967 0.77459
 H3461 H 0.59739 0.79034 0.81768
 H3462 H 0.61568 0.79904 0.82638
 H3463 H 0.61351 0.82901 0.80100
 H3464 H 0.59522 0.82020 0.79224
 H3465 H 0.55251 0.76744 0.79514
 H3466 H 0.53521 0.75762 0.78515
 H3467 H 0.53110 0.78855 0.76148
 H3468 H 0.54837 0.79856 0.77141
 C3469 C 0.09461 0.30437 0.80426
 C3470 C 0.09935 0.31538 0.79979
 C3471 C 0.10988 0.32044 0.80484
 C3472 C 0.11594 0.31462 0.81450
 C3473 C 0.11123 0.30356 0.81888
 C3474 C 0.10072 0.29851 0.81383
 C3475 C 0.08338 0.29903 0.79901
 N3476 N 0.07907 0.28818 0.80308
 N3477 N 0.06901 0.28333 0.79836
 C3478 C 0.06280 0.28914 0.78940
 N3479 N 0.06709 0.30000 0.78534
 N3480 N 0.07716 0.30484 0.79006
 C3481 C 0.05180 0.28354 0.78392
 C3482 C 0.04543 0.28948 0.77453
 C3483 C 0.03554 0.28383 0.76887
 C3484 C 0.03181 0.27221 0.77254
 C3485 C 0.03786 0.26641 0.78215
 C3486 C 0.04777 0.27201 0.78779
 H3487 H 0.09491 0.32013 0.79239
 H3488 H 0.11317 0.32896 0.80119
 H3489 H 0.11563 0.29872 0.82623
 H3490 H 0.09737 0.28999 0.81749
 H3491 H 0.04823 0.29838 0.77137
 H3492 H 0.03095 0.28840 0.76144
 H3493 H 0.03511 0.25739 0.78502
 H3494 H 0.05243 0.26718 0.79499
 C3495 C 0.09450 0.80471 0.30433
 C3496 C 0.09914 0.81580 0.29995
 C3497 C 0.10960 0.82093 0.30508
 C3498 C 0.11569 0.81511 0.31471
 C3499 C 0.11107 0.80397 0.31901
 C3500 C 0.10063 0.79884 0.31388
 C3501 C 0.08333 0.79930 0.29902
 N3502 N 0.07910 0.78840 0.30302
 N3503 N 0.06907 0.78352 0.29829
 C3504 C 0.06281 0.78934 0.28937
 N3505 N 0.06703 0.80025 0.28537
 N3506 N 0.07707 0.80513 0.29010
 C3507 C 0.05182 0.78372 0.28390
 C3508 C 0.04541 0.78967 0.27454
 C3509 C 0.03551 0.78401 0.26889
 C3510 C 0.03183 0.77236 0.27253
 C3511 C 0.03792 0.76655 0.28211
 C3512 C 0.04784 0.77217 0.28773
 H3513 H 0.09469 0.82055 0.29256
 H3514 H 0.11282 0.82950 0.30148
 H3515 H 0.11549 0.79912 0.32633
 H3516 H 0.09736 0.79027 0.31746
 H3517 H 0.04817 0.79859 0.27141
 H3518 H 0.03089 0.78858 0.26149
 H3519 H 0.03521 0.75752 0.28497
 H3520 H 0.05253 0.76733 0.29492
 C3521 C 0.59476 0.69564 0.69599
 C3522 C 0.59931 0.68446 0.70024
 C3523 C 0.60978 0.67934 0.69512
 C3524 C 0.61598 0.68527 0.68563
 C3525 C 0.61147 0.69651 0.68147
 C3526 C 0.60101 0.70163 0.68659
 C3527 C 0.58354 0.70101 0.70127
 N3528 N 0.57946 0.71206 0.69752
 N3529 N 0.56940 0.71690 0.70224
 C3530 C 0.56293 0.71088 0.71087
 N3531 N 0.56700 0.69981 0.71461
 N3532 N 0.57708 0.69497 0.70990
 C3533 C 0.55191 0.71644 0.71636
 C3534 C 0.54515 0.71015 0.72524
 C3535 C 0.53524 0.71571 0.73096
 C3536 C 0.53192 0.72764 0.72791
 C3537 C 0.53836 0.73382 0.71881
 C3538 C 0.54826 0.72827 0.71307
 H3539 H 0.59476 0.67961 0.70751
 H3540 H 0.61293 0.67068 0.69859
 H3541 H 0.61600 0.70144 0.67427
 H3542 H 0.59782 0.71028 0.68312
 H3543 H 0.54765 0.70101 0.72794
 H3544 H 0.53034 0.71086 0.73800
 H3545 H 0.53591 0.74306 0.71640
 H3546 H 0.55322 0.73337 0.70626
 C3547 C 0.59462 0.19536 0.19571
 C3548 C 0.60095 0.20141 0.18640
 C3549 C 0.61137 0.19627 0.18123
 C3550 C 0.61577 0.18493 0.18525
 C3551 C 0.60948 0.17893 0.19464
 C3552 C 0.59905 0.18408 0.19980
 C3553 C 0.58345 0.20078 0.20104
 N3554 N 0.57692 0.19470 0.20959
 N3555 N 0.56687 0.19957 0.21433
 C3556 C 0.56291 0.21071 0.21072
 N3557 N 0.56945 0.21678 0.20217
 N3558 N 0.57949 0.21191 0.19742
 C3559 C 0.55191 0.21629 0.21621
 C3560 C 0.54834 0.22817 0.21300
 C3561 C 0.53844 0.23372 0.21873
 C3562 C 0.53192 0.22750 0.22774
 C3563 C 0.53515 0.21554 0.23072
 C3564 C 0.54507 0.20996 0.22500
 H3565 H 0.59785 0.21014 0.18304
 H3566 H 0.61595 0.20125 0.17411
 H3567 H 0.61254 0.17020 0.19801
 H3568 H 0.59444 0.17918 0.20700
 H3569 H 0.55335 0.23330 0.20625
 H3570 H 0.53604 0.24300 0.21638
 H3571 H 0.53020 0.21065 0.23769
 H3572 H 0.54751 0.20079 0.22764
 C3573 C 0.09451 0.69566 0.19577
 C3574 C 0.09913 0.68453 0.20007
 C3575 C 0.10966 0.67948 0.19500
 C3576 C 0.11582 0.68542 0.18550
 C3577 C 0.11124 0.69660 0.18128
 C3578 C 0.10073 0.70165 0.18635
 C3579 C 0.08327 0.70100 0.20103
 N3580 N 0.07917 0.71203 0.19726
 N3581 N 0.06911 0.71687 0.20199
 C3582 C 0.06269 0.71087 0.21066
 N3583 N 0.06677 0.69981 0.21442
 N3584 N 0.07684 0.69498 0.20970
 C3585 C 0.05169 0.71645 0.21617
 C3586 C 0.04494 0.71018 0.22507
 C3587 C 0.03505 0.71577 0.23080
 C3588 C 0.03175 0.72770 0.22773
 C3589 C 0.03819 0.73386 0.21862
 C3590 C 0.04806 0.72828 0.21287
 H3591 H 0.09460 0.67968 0.20735
 H3592 H 0.11286 0.67086 0.19851
 H3593 H 0.11574 0.70154 0.17407
 H3594 H 0.09747 0.71026 0.18284
 H3595 H 0.04744 0.70104 0.22779
 H3596 H 0.03017 0.71094 0.23786
 H3597 H 0.03574 0.74310 0.21620
 H3598 H 0.05301 0.73336 0.20604
 C3599 C 0.09445 0.19543 0.69579
 C3600 C 0.10072 0.20143 0.68641
 C3601 C 0.11122 0.19635 0.68135
 C3602 C 0.11575 0.18513 0.68554
 C3603 C 0.10954 0.17919 0.69501
 C3604 C 0.09902 0.18427 0.70007
 C3605 C 0.08322 0.20078 0.70104
 N3606 N 0.07676 0.19475 0.70968
 N3607 N 0.06669 0.19959 0.71440
 C3608 C 0.06264 0.21066 0.71068
 N3609 N 0.06909 0.21668 0.70203
 N3610 N 0.07915 0.21183 0.69730
 C3611 C 0.05166 0.21625 0.71620
 C3612 C 0.04805 0.22810 0.71293
 C3613 C 0.03819 0.23368 0.71869
 C3614 C 0.03174 0.22751 0.72779
 C3615 C 0.03502 0.21557 0.73083
 C3616 C 0.04490 0.20997 0.72508
 H3617 H 0.09750 0.21006 0.68291
 H3618 H 0.11575 0.20128 0.67415
 H3619 H 0.11270 0.17055 0.69851
 H3620 H 0.09446 0.17942 0.70733
 H3621 H 0.05301 0.23319 0.70611
 H3622 H 0.03576 0.24293 0.71630
 H3623 H 0.03012 0.21072 0.73787
 H3624 H 0.04738 0.20082 0.72778
 C3625 C 0.40541 0.69533 0.30413
 C3626 C 0.39916 0.68585 0.29827
 C3627 C 0.38870 0.68079 0.30345
 C3628 C 0.38421 0.68510 0.31462
 C3629 C 0.39042 0.69467 0.32042
 C3630 C 0.40088 0.69971 0.31525
 C3631 C 0.41660 0.70058 0.29872
 N3632 N 0.42298 0.70937 0.30462
 N3633 N 0.43302 0.71408 0.29975
 C3634 C 0.43714 0.71021 0.28877
 N3635 N 0.43076 0.70142 0.28287
 N3636 N 0.42072 0.69669 0.28775
 C3637 C 0.44812 0.71569 0.28318
 C3638 C 0.45192 0.71213 0.27149
 C3639 C 0.46183 0.71781 0.26591
 C3640 C 0.46810 0.72715 0.27191
 C3641 C 0.46459 0.73052 0.28368
 C3642 C 0.45470 0.72483 0.28929
 H3643 H 0.40236 0.68227 0.28967
 H3644 H 0.38417 0.67352 0.29862
 H3645 H 0.38730 0.69825 0.32902
 H3646 H 0.40543 0.70705 0.32000
 H3647 H 0.44710 0.70513 0.26653
 H3648 H 0.46441 0.71518 0.25678
 H3649 H 0.46935 0.73775 0.28839
 H3650 H 0.45207 0.72775 0.29831
 C3651 C 0.40528 0.19521 0.80413
 C3652 C 0.40085 0.19949 0.81533
 C3653 C 0.39035 0.19450 0.82048
 C3654 C 0.38401 0.18508 0.81459
 C3655 C 0.38840 0.18086 0.80334
 C3656 C 0.39889 0.18587 0.79818
 C3657 C 0.41650 0.20042 0.79871
 N3658 N 0.42041 0.19676 0.78758
 N3659 N 0.43045 0.20147 0.78267
 C3660 C 0.43703 0.21002 0.78869
 N3661 N 0.43314 0.21366 0.79984
 N3662 N 0.42309 0.20896 0.80474
 C3663 C 0.44801 0.21551 0.78306
 C3664 C 0.45495 0.22422 0.78938
 C3665 C 0.46486 0.22990 0.78378
 C3666 C 0.46801 0.22696 0.77179
 C3667 C 0.46134 0.21806 0.76556
 C3668 C 0.45144 0.21237 0.77114
 H3669 H 0.40551 0.20671 0.82015
 H3670 H 0.38731 0.19800 0.82915
 H3671 H 0.38375 0.17372 0.79845
 H3672 H 0.40201 0.18237 0.78952
 H3673 H 0.45261 0.22681 0.79858
 H3674 H 0.46991 0.23681 0.78867
 H3675 H 0.46363 0.21577 0.75626
 H3676 H 0.44632 0.20570 0.76601
 C3677 C 0.90562 0.69526 0.80425
 C3678 C 0.90129 0.69944 0.81552
 C3679 C 0.89086 0.69436 0.82074
 C3680 C 0.88450 0.68496 0.81483
 C3681 C 0.88880 0.68085 0.80351
 C3682 C 0.89922 0.68594 0.79829
 C3683 C 0.91677 0.70054 0.79877
 N3684 N 0.92060 0.69697 0.78759
 N3685 N 0.93060 0.70171 0.78265
 C3686 C 0.93723 0.71021 0.78869
 N3687 N 0.93341 0.71378 0.79988
 N3688 N 0.92340 0.70904 0.80481
 C3689 C 0.94818 0.71572 0.78305
 C3690 C 0.95517 0.72437 0.78939
 C3691 C 0.96507 0.73006 0.78379
 C3692 C 0.96816 0.72719 0.77177
 C3693 C 0.96144 0.71835 0.76551
 C3694 C 0.95155 0.71264 0.77109
 H3695 H 0.90596 0.70664 0.82034
 H3696 H 0.88789 0.69779 0.82946
 H3697 H 0.88414 0.67372 0.79861
 H3698 H 0.90226 0.68252 0.78958
 H3699 H 0.95288 0.72691 0.79862
 H3700 H 0.97016 0.73692 0.78870
 H3701 H 0.96370 0.71610 0.75619
 H3702 H 0.94640 0.70602 0.76594
 C3703 C 0.90537 0.19523 0.30395
 C3704 C 0.90095 0.19951 0.31515
 C3705 C 0.89045 0.19450 0.32030
 C3706 C 0.88411 0.18508 0.31440
 C3707 C 0.88851 0.18088 0.30315
 C3708 C 0.89899 0.18589 0.29799
 C3709 C 0.91658 0.20046 0.29853
 N3710 N 0.92049 0.19681 0.28740
 N3711 N 0.93052 0.20154 0.28249
 C3712 C 0.93709 0.21009 0.28852
 N3713 N 0.93320 0.21371 0.29966
 N3714 N 0.92316 0.20900 0.30457
 C3715 C 0.94805 0.21560 0.28289
 C3716 C 0.95499 0.22431 0.28921
 C3717 C 0.96488 0.23002 0.28361
 C3718 C 0.96802 0.22709 0.27162
 C3719 C 0.96137 0.21819 0.26538
 C3720 C 0.95148 0.21248 0.27096
 H3721 H 0.90559 0.20673 0.31997
 H3722 H 0.88741 0.19800 0.32897
 H3723 H 0.88386 0.17372 0.29826
 H3724 H 0.90211 0.18240 0.28934
 H3725 H 0.95265 0.22689 0.29841
 H3726 H 0.96993 0.23692 0.28850
 H3727 H 0.96366 0.21591 0.25608
 H3728 H 0.94637 0.20581 0.26582
 C3729 C 0.30431 0.30439 0.59456
 C3730 C 0.29999 0.31556 0.59907
 C3731 C 0.30508 0.32071 0.60952
 C3732 C 0.31463 0.31484 0.61571
 C3733 C 0.31887 0.30363 0.61122
 C3734 C 0.31377 0.29847 0.60080
 C3735 C 0.29903 0.29899 0.58339
 N3736 N 0.30273 0.28789 0.57939
 N3737 N 0.29800 0.28303 0.56935
 C3738 C 0.28940 0.28908 0.56286
 N3739 N 0.28571 0.30019 0.56684
 N3740 N 0.29043 0.30504 0.57689
 C3741 C 0.28390 0.28353 0.55187
 C3742 C 0.27520 0.28993 0.54497
 C3743 C 0.26947 0.28440 0.53507
 C3744 C 0.27232 0.27239 0.53191
 C3745 C 0.28124 0.26608 0.53849
 C3746 C 0.28700 0.27160 0.54838
 H3747 H 0.29268 0.32035 0.59454
 H3748 H 0.30156 0.32935 0.61264
 H3749 H 0.32610 0.29874 0.61577
 H3750 H 0.31729 0.28983 0.59762
 H3751 H 0.27264 0.29914 0.54736
 H3752 H 0.26256 0.28935 0.53007
 H3753 H 0.28350 0.25677 0.53615
 H3754 H 0.29368 0.26641 0.55343
 C3755 C 0.30442 0.80472 0.09431
 C3756 C 0.29823 0.81377 0.10089
 C3757 C 0.30341 0.81890 0.11129
 C3758 C 0.31491 0.81508 0.11542
 C3759 C 0.32106 0.80595 0.10888
 C3760 C 0.31588 0.80084 0.09847
 C3761 C 0.29898 0.79941 0.08317
 N3762 N 0.30524 0.79120 0.07638
 N3763 N 0.30036 0.78646 0.06636
 C3764 C 0.28901 0.78973 0.06269
 N3765 N 0.28275 0.79795 0.06949
 N3766 N 0.28764 0.80270 0.07950
 C3767 C 0.28344 0.78422 0.05172
 C3768 C 0.27132 0.78692 0.04853
 C3769 C 0.26582 0.78116 0.03864
 C3770 C 0.27233 0.77265 0.03174
 C3771 C 0.28451 0.77018 0.03461
 C3772 C 0.29003 0.77592 0.04452
 H3773 H 0.28936 0.81696 0.09799
 H3774 H 0.29832 0.82581 0.11609
 H3775 H 0.32992 0.80275 0.11172
 H3776 H 0.32088 0.79384 0.09367
 H3777 H 0.26599 0.79329 0.05383
 H3778 H 0.25638 0.78310 0.03654
 H3779 H 0.28962 0.76358 0.02937
 H3780 H 0.29938 0.77367 0.04667
 C3781 C 0.80416 0.30449 0.09444
 C3782 C 0.81547 0.30037 0.09877
 C3783 C 0.82062 0.30541 0.10925
 C3784 C 0.81459 0.31471 0.11565
 C3785 C 0.80322 0.31874 0.11136
 C3786 C 0.79807 0.31369 0.10090
 C3787 C 0.79876 0.29926 0.08323
 N3788 N 0.78752 0.30272 0.07944
 N3789 N 0.78265 0.29802 0.06940
 C3790 C 0.78883 0.28968 0.06269
 N3791 N 0.80010 0.28624 0.06646
 N3792 N 0.80496 0.29094 0.07652
 C3793 C 0.78325 0.28419 0.05170
 C3794 C 0.78979 0.27580 0.04456
 C3795 C 0.78425 0.27007 0.03465
 C3796 C 0.77209 0.27261 0.03175
 C3797 C 0.76563 0.28120 0.03860
 C3798 C 0.77116 0.28697 0.04848
 H3799 H 0.82040 0.29325 0.09407
 H3800 H 0.82938 0.30205 0.11222
 H3801 H 0.79821 0.32579 0.11606
 H3802 H 0.78932 0.31706 0.09786
 H3803 H 0.79912 0.27349 0.04674
 H3804 H 0.78932 0.26341 0.02945
 H3805 H 0.75622 0.28320 0.03647
 H3806 H 0.76587 0.29339 0.05374
 C3807 C 0.80425 0.80449 0.59453
 C3808 C 0.79815 0.81369 0.60100
 C3809 C 0.80328 0.81872 0.61147
 C3810 C 0.81464 0.81468 0.61578
 C3811 C 0.82068 0.80539 0.60938
 C3812 C 0.81555 0.80036 0.59889
 C3813 C 0.79886 0.79928 0.58332
 N3814 N 0.80505 0.79094 0.57661
 N3815 N 0.80019 0.78625 0.56655
 C3816 C 0.78893 0.78970 0.56277
 N3817 N 0.78276 0.79805 0.56947
 N3818 N 0.78762 0.80275 0.57951
 C3819 C 0.78335 0.78420 0.55179
 C3820 C 0.77127 0.78701 0.54855
 C3821 C 0.76573 0.78124 0.53868
 C3822 C 0.77217 0.77262 0.53184
 C3823 C 0.78432 0.77006 0.53476
 C3824 C 0.78987 0.77579 0.54466
 H3825 H 0.78940 0.81706 0.59795
 H3826 H 0.79827 0.82576 0.61617
 H3827 H 0.82943 0.80202 0.61236
 H3828 H 0.82048 0.79324 0.59418
 H3829 H 0.76599 0.79346 0.55380
 H3830 H 0.75632 0.78327 0.53654
 H3831 H 0.78937 0.76338 0.52957
 H3832 H 0.79919 0.77346 0.54685
 C3833 C 0.30414 0.69557 0.40545
 C3834 C 0.29801 0.68642 0.39896
 C3835 C 0.30313 0.68136 0.38849
 C3836 C 0.31452 0.68534 0.38420
 C3837 C 0.32060 0.69458 0.39063
 C3838 C 0.31548 0.69963 0.40112
 C3839 C 0.29876 0.70082 0.41665
 N3840 N 0.30498 0.70912 0.42337
 N3841 N 0.30013 0.71384 0.43341
 C3842 C 0.28885 0.71046 0.43719
 N3843 N 0.28264 0.70215 0.43048
 N3844 N 0.28749 0.69742 0.42044
 C3845 C 0.28328 0.71598 0.44817
 C3846 C 0.27120 0.71323 0.45141
 C3847 C 0.26569 0.71900 0.46129
 C3848 C 0.27216 0.72759 0.46814
 C3849 C 0.28431 0.73011 0.46521
 C3850 C 0.28984 0.72436 0.45530
 H3851 H 0.28924 0.68310 0.40199
 H3852 H 0.29809 0.67437 0.38377
 H3853 H 0.32937 0.69790 0.38768
 H3854 H 0.32044 0.70670 0.40585
 H3855 H 0.26589 0.70681 0.44616
 H3856 H 0.25627 0.71702 0.46344
 H3857 H 0.28939 0.73676 0.47040
 H3858 H 0.29916 0.72666 0.45310
 C3859 C 0.30427 0.19551 0.90561
 C3860 C 0.29994 0.18436 0.90108
 C3861 C 0.30498 0.17923 0.89060
 C3862 C 0.31451 0.18510 0.88438
 C3863 C 0.31875 0.19631 0.88887
 C3864 C 0.31370 0.20144 0.89933
 C3865 C 0.29904 0.20089 0.91681
 N3866 N 0.30282 0.21193 0.92087
 N3867 N 0.29812 0.21678 0.93093
 C3868 C 0.28945 0.21078 0.93739
 N3869 N 0.28569 0.19972 0.93334
 N3870 N 0.29038 0.19488 0.92328
 C3871 C 0.28397 0.21634 0.94839
 C3872 C 0.27510 0.21004 0.95515
 C3873 C 0.26937 0.21560 0.96504
 C3874 C 0.27241 0.22753 0.96833
 C3875 C 0.28151 0.23372 0.96189
 C3876 C 0.28726 0.22817 0.95201
 H3877 H 0.29264 0.17956 0.90564
 H3878 H 0.30144 0.17060 0.88748
 H3879 H 0.32598 0.20119 0.88433
 H3880 H 0.31724 0.21006 0.90252
 H3881 H 0.27239 0.20090 0.95266
 H3882 H 0.26233 0.21075 0.96994
 H3883 H 0.28391 0.24296 0.96433
 H3884 H 0.29407 0.23327 0.94705
 C3885 C 0.80431 0.69550 0.90556
 C3886 C 0.79825 0.68626 0.89913
 C3887 C 0.80337 0.68123 0.88865
 C3888 C 0.81470 0.68532 0.88430
 C3889 C 0.82070 0.69465 0.89067
 C3890 C 0.81558 0.69967 0.90117
 C3891 C 0.79890 0.70071 0.91676
 N3892 N 0.80499 0.70918 0.92340
 N3893 N 0.80010 0.71386 0.93344
 C3894 C 0.78891 0.71027 0.93730
 N3895 N 0.78284 0.70179 0.93067
 N3896 N 0.78773 0.69711 0.92064
 C3897 C 0.78328 0.71574 0.94827
 C3898 C 0.77133 0.71260 0.95166
 C3899 C 0.76572 0.71828 0.96155
 C3900 C 0.77196 0.72715 0.96823
 C3901 C 0.78398 0.73009 0.96513
 C3902 C 0.78961 0.72442 0.95524
 H3903 H 0.78953 0.68285 0.90221
 H3904 H 0.79838 0.67416 0.88398
 H3905 H 0.82943 0.69805 0.88766
 H3906 H 0.82048 0.70681 0.90586
 H3907 H 0.76619 0.70596 0.94653
 H3908 H 0.75640 0.71599 0.96381
 H3909 H 0.78888 0.73697 0.97020
 H3910 H 0.79883 0.72700 0.95292
 C3911 C 0.80437 0.19549 0.40542
 C3912 C 0.81381 0.20142 0.39917
 C3913 C 0.81888 0.19629 0.38870
 C3914 C 0.81462 0.18510 0.38419
 C3915 C 0.80508 0.17923 0.39039
 C3916 C 0.80002 0.18436 0.40087
 C3917 C 0.79913 0.20086 0.41663
 N3918 N 0.79044 0.19486 0.42306
 N3919 N 0.78574 0.19970 0.43313
 C3920 C 0.78953 0.21073 0.43720
 N3921 N 0.79822 0.21672 0.43078
 N3922 N 0.80293 0.21189 0.42072
 C3923 C 0.78403 0.21628 0.44820
 C3924 C 0.78735 0.22809 0.45188
 C3925 C 0.78159 0.23363 0.46176
 C3926 C 0.77245 0.22746 0.46815
 C3927 C 0.76937 0.21556 0.46481
 C3928 C 0.77511 0.21000 0.45492
 H3929 H 0.81736 0.21003 0.40237
 H3930 H 0.82612 0.20117 0.38417
 H3931 H 0.80153 0.17061 0.38726
 H3932 H 0.79272 0.17956 0.40541
 H3933 H 0.79420 0.23318 0.44696
 H3934 H 0.78401 0.24286 0.46423
 H3935 H 0.76229 0.21071 0.46967
 H3936 H 0.77238 0.20088 0.45240
 C3937 C 0.69579 0.30417 0.40535
 C3938 C 0.70026 0.31522 0.40071
 C3939 C 0.69521 0.32036 0.39024
 C3940 C 0.68556 0.31459 0.38413
 C3941 C 0.68118 0.30348 0.38873
 C3942 C 0.68623 0.29834 0.39919
 C3943 C 0.70101 0.29879 0.41656
 N3944 N 0.69696 0.28792 0.42082
 N3945 N 0.70165 0.28307 0.43088
 C3946 C 0.71056 0.28890 0.43715
 N3947 N 0.71460 0.29979 0.43290
 N3948 N 0.70992 0.30463 0.42283
 C3949 C 0.71601 0.28332 0.44815
 C3950 C 0.72535 0.28930 0.45456
 C3951 C 0.73103 0.28367 0.46444
 C3952 C 0.72743 0.27200 0.46811
 C3953 C 0.71787 0.26616 0.46203
 C3954 C 0.71221 0.27175 0.45213
 H3955 H 0.70766 0.31994 0.40518
 H3956 H 0.69886 0.32891 0.38703
 H3957 H 0.67385 0.29866 0.38428
 H3958 H 0.68259 0.28979 0.40246
 H3959 H 0.72845 0.29824 0.45180
 H3960 H 0.73841 0.28827 0.46906
 H3961 H 0.71506 0.25711 0.46475
 H3962 H 0.70505 0.26689 0.44744
 C3963 C 0.69575 0.80439 0.90563
 C3964 C 0.68651 0.79833 0.89920
 C3965 C 0.68143 0.80349 0.88876
 C3966 C 0.68547 0.81484 0.88445
 C3967 C 0.69481 0.82084 0.89082
 C3968 C 0.69987 0.81569 0.90127
 C3969 C 0.70099 0.79900 0.91682
 N3970 N 0.70941 0.80515 0.92346
 N3971 N 0.71412 0.80031 0.93351
 C3972 C 0.71062 0.78910 0.93737
 N3973 N 0.70219 0.78296 0.93074
 N3974 N 0.69747 0.78781 0.92070
 C3975 C 0.71614 0.78354 0.94835
 C3976 C 0.71319 0.77155 0.95173
 C3977 C 0.71899 0.76602 0.96159
 C3978 C 0.72779 0.77239 0.96826
 C3979 C 0.73049 0.78447 0.96521
 C3980 C 0.72471 0.79001 0.95533
 H3981 H 0.68313 0.78959 0.90226
 H3982 H 0.67436 0.79850 0.88408
 H3983 H 0.69818 0.82959 0.88784
 H3984 H 0.70702 0.82059 0.90595
 H3985 H 0.70661 0.76631 0.94661
 H3986 H 0.71686 0.75667 0.96386
 H3987 H 0.73729 0.78947 0.97028
 H3988 H 0.72714 0.79927 0.95303
 C3989 C 0.19558 0.30420 0.90560
 C3990 C 0.18605 0.29833 0.89941
 C3991 C 0.18098 0.30347 0.88896
 C3992 C 0.18531 0.31461 0.88439
 C3993 C 0.19493 0.32042 0.89052
 C3994 C 0.20000 0.31528 0.90099
 C3995 C 0.20082 0.29882 0.91681
 N3996 N 0.20970 0.30469 0.92308
 N3997 N 0.21440 0.29985 0.93315
 C3998 C 0.21040 0.28894 0.93738
 N3999 N 0.20151 0.28309 0.93111
 N4000 N 0.19680 0.28793 0.92106
 C4001 C 0.21589 0.28337 0.94837
 C4002 C 0.21210 0.27180 0.95236
 C4003 C 0.21779 0.26620 0.96224
 C4004 C 0.22737 0.27205 0.96830
 C4005 C 0.23095 0.28372 0.96462
 C4006 C 0.22524 0.28935 0.95475
 H4007 H 0.18246 0.28975 0.90266
 H4008 H 0.17368 0.29863 0.88449
 H4009 H 0.19855 0.32899 0.88734
 H4010 H 0.20737 0.32002 0.90548
 H4011 H 0.20492 0.26694 0.94769
 H4012 H 0.21498 0.25716 0.96497
 H4013 H 0.23835 0.28832 0.96922
 H4014 H 0.22833 0.29829 0.95199
 C4015 C 0.19548 0.80442 0.40551
 C4016 C 0.18638 0.79827 0.39896
 C4017 C 0.18128 0.80345 0.38853
 C4018 C 0.18516 0.81490 0.38435
 C4019 C 0.19434 0.82101 0.39085
 C4020 C 0.19943 0.81584 0.40130
 C4021 C 0.20076 0.79899 0.41667
 N4022 N 0.20902 0.80521 0.42344
 N4023 N 0.21375 0.80033 0.43347
 C4024 C 0.21042 0.78902 0.43717
 N4025 N 0.20216 0.78280 0.43041
 N4026 N 0.19742 0.78769 0.42039
 C4027 C 0.21593 0.78343 0.44815
 C4028 C 0.21319 0.77134 0.45136
 C4029 C 0.21897 0.76581 0.46124
 C4030 C 0.22754 0.77227 0.46811
 C4031 C 0.23004 0.78443 0.46522
 C4032 C 0.22429 0.78998 0.45531
 H4033 H 0.18314 0.78945 0.40190
 H4034 H 0.17433 0.79838 0.38377
 H4035 H 0.19760 0.82983 0.38798
 H4036 H 0.20646 0.82081 0.40607
 H4037 H 0.20678 0.76604 0.44610
 H4038 H 0.21699 0.75639 0.46336
 H4039 H 0.23668 0.78951 0.47044
 H4040 H 0.22657 0.79931 0.45315
 C4041 C 0.69565 0.69581 0.59458
 C4042 C 0.69971 0.68447 0.59887
 C4043 C 0.69470 0.67934 0.60937
 C4044 C 0.68548 0.68541 0.61585
 C4045 C 0.68149 0.69681 0.61160
 C4046 C 0.68651 0.70194 0.60111
 C4047 C 0.70087 0.70122 0.58337
 N4048 N 0.69746 0.71250 0.57963
 N4049 N 0.70218 0.71738 0.56960
 C4050 C 0.71047 0.71119 0.56284
 N4051 N 0.71386 0.69989 0.56657
 N4052 N 0.70916 0.69501 0.57661
 C4053 C 0.71598 0.71679 0.55187
 C4054 C 0.72434 0.71026 0.54469
 C4055 C 0.73007 0.71581 0.53479
 C4056 C 0.72755 0.72797 0.53191
 C4057 C 0.71899 0.73443 0.53880
 C4058 C 0.71322 0.72889 0.54868
 H4059 H 0.70677 0.67951 0.59411
 H4060 H 0.69803 0.67055 0.61230
 H4061 H 0.67451 0.70185 0.61635
 H4062 H 0.68318 0.71072 0.59811
 H4063 H 0.72664 0.70092 0.54684
 H4064 H 0.73671 0.71074 0.52955
 H4065 H 0.71700 0.74385 0.53670
 H4066 H 0.70681 0.73418 0.55396
 C4067 C 0.69547 0.19571 0.09438
 C4068 C 0.69935 0.18423 0.09850
 C4069 C 0.69427 0.17904 0.10893
 C4070 C 0.68517 0.18519 0.11553
 C4071 C 0.68136 0.19671 0.11143
 C4072 C 0.68645 0.20190 0.10101
 C4073 C 0.70076 0.20117 0.08323
 N4074 N 0.69750 0.21253 0.07960
 N4075 N 0.70224 0.21744 0.06960
 C4076 C 0.71042 0.21120 0.06275
 N4077 N 0.71367 0.19983 0.06637
 N4078 N 0.70894 0.19492 0.07638
 C4079 C 0.71593 0.21680 0.05179
 C4080 C 0.72420 0.21023 0.04453
 C4081 C 0.72993 0.21578 0.03462
 C4082 C 0.72749 0.22797 0.03181
 C4083 C 0.71901 0.23447 0.03877
 C4084 C 0.71326 0.22894 0.04866
 H4085 H 0.70632 0.17923 0.09366
 H4086 H 0.69747 0.17017 0.11174
 H4087 H 0.67447 0.20180 0.11626
 H4088 H 0.68327 0.21077 0.09813
 H4089 H 0.72643 0.20086 0.04664
 H4090 H 0.73650 0.21067 0.02934
 H4091 H 0.71709 0.24392 0.03671
 H4092 H 0.70692 0.23426 0.05400
 C4093 C 0.19567 0.69599 0.09448
 C4094 C 0.19973 0.68466 0.09880
 C4095 C 0.19467 0.67952 0.10927
 C4096 C 0.18540 0.68557 0.11569
 C4097 C 0.18141 0.69696 0.11142
 C4098 C 0.18649 0.70211 0.10096
 C4099 C 0.20092 0.70139 0.08329
 N4100 N 0.19752 0.71266 0.07952
 N4101 N 0.20224 0.71753 0.06949
 C4102 C 0.21055 0.71132 0.06276
 N4103 N 0.21394 0.70004 0.06651
 N4104 N 0.20922 0.69518 0.07655
 C4105 C 0.21608 0.71690 0.05178
 C4106 C 0.22443 0.71034 0.04461
 C4107 C 0.23018 0.71587 0.03471
 C4108 C 0.22770 0.72804 0.03182
 C4109 C 0.21914 0.73453 0.03871
 C4110 C 0.21335 0.72901 0.04858
 H4111 H 0.20683 0.67971 0.09408
 H4112 H 0.19800 0.67074 0.11222
 H4113 H 0.17439 0.70199 0.11614
 H4114 H 0.18316 0.71088 0.09794
 H4115 H 0.22669 0.70100 0.04677
 H4116 H 0.23681 0.71078 0.02948
 H4117 H 0.21718 0.74395 0.03659
 H4118 H 0.20695 0.73432 0.05385
 C4119 C 0.19578 0.19556 0.59466
 C4120 C 0.20180 0.18624 0.60103
 C4121 C 0.19665 0.18118 0.61149
 C4122 C 0.18534 0.18531 0.61586
 C4123 C 0.17939 0.19472 0.60954
 C4124 C 0.18454 0.19977 0.59907
 C4125 C 0.20120 0.20079 0.58346
 N4126 N 0.19514 0.20931 0.57686
 N4127 N 0.20003 0.21399 0.56682
 C4128 C 0.21119 0.21035 0.56293
 N4129 N 0.21725 0.20182 0.56952
 N4130 N 0.21235 0.19713 0.57955
 C4131 C 0.21682 0.21580 0.55195
 C4132 C 0.22875 0.21264 0.54852
 C4133 C 0.23435 0.21831 0.53862
 C4134 C 0.22812 0.22722 0.53196
 C4135 C 0.21611 0.23018 0.53509
 C4136 C 0.21049 0.22452 0.54500
 H4137 H 0.21050 0.18280 0.59793
 H4138 H 0.20160 0.17405 0.61611
 H4139 H 0.17068 0.19816 0.61258
 H4140 H 0.17968 0.20698 0.59443
 H4141 H 0.23389 0.20596 0.55363
 H4142 H 0.24366 0.21600 0.53633
 H4143 H 0.21122 0.23709 0.53004
 H4144 H 0.20128 0.22713 0.54734
   
