data_POSCAR
  _audit_creation_date              2014-09-24
  _audit_creation_method            'ToBaCCo'
  _symmetry_space_group_name_H-M    'P1'
  _symmetry_Int_Tables_number       1
  _symmetry_cell_setting            triclinic
  loop_
  _symmetry_equiv_pos_as_xyz
 x,y,z
_cell_length_a 71.3388
_cell_length_b 71.3244
_cell_length_c 71.3677
_cell_angle_alpha 89.995100
_cell_angle_beta 89.999700
_cell_angle_gamma 90.038300
loop_
  _atom_site_label
  _atom_site_type_symbol
  _atom_site_fract_x
  _atom_site_fract_y
  _atom_site_fract_z
N1 N 0.17763 0.22219 0.22665
 N2 N 0.18252 0.20714 0.23611
 C3 C 0.17047 0.20470 0.25045
 C4 C 0.15742 0.21901 0.24990
 C5 C 0.16236 0.22985 0.23464
 H6 H 0.17113 0.19348 0.26061
 H7 H 0.15537 0.24237 0.22975
 Cu8 Cu 0.20443 0.19263 0.22878
 Cu9 Cu 0.19134 0.23080 0.20465
 Cu10 Cu 0.23037 0.20488 0.19153
 N11 N 0.22634 0.17813 0.22146
 N12 N 0.23642 0.18306 0.20684
 C13 C 0.25075 0.17096 0.20483
 C14 C 0.24961 0.15779 0.21897
 C15 C 0.23398 0.16272 0.22929
 H16 H 0.26128 0.17172 0.19396
 H17 H 0.22865 0.15561 0.24157
 N18 N 0.22193 0.22738 0.17787
 N19 N 0.20703 0.23719 0.18282
 C20 C 0.20482 0.25151 0.17071
 C21 C 0.21900 0.25066 0.15759
 C22 C 0.22960 0.23524 0.16251
 H23 H 0.19373 0.26182 0.17133
 H24 H 0.24194 0.23014 0.15535
 H25 H 0.20198 0.20499 0.19705
 H26 H 0.21702 0.21987 0.21241
 N27 N 0.67791 0.72238 0.72659
 N28 N 0.68281 0.70734 0.73605
 C29 C 0.67075 0.70487 0.75038
 C30 C 0.65770 0.71918 0.74985
 C31 C 0.66265 0.73003 0.73460
 H32 H 0.67141 0.69363 0.76053
 H33 H 0.65566 0.74257 0.72973
 Cu34 Cu 0.70468 0.69278 0.72870
 Cu35 Cu 0.69163 0.73100 0.70460
 Cu36 Cu 0.73066 0.70508 0.69147
 N37 N 0.72662 0.67833 0.72138
 N38 N 0.73669 0.68326 0.70675
 C39 C 0.75101 0.67116 0.70473
 C40 C 0.74986 0.65797 0.71885
 C41 C 0.73423 0.66290 0.72918
 H42 H 0.76155 0.67192 0.69386
 H43 H 0.72891 0.65577 0.74145
 N44 N 0.72222 0.72758 0.67784
 N45 N 0.70733 0.73740 0.68279
 C46 C 0.70514 0.75172 0.67069
 C47 C 0.71933 0.75088 0.65758
 C48 C 0.72991 0.73545 0.66249
 H49 H 0.69406 0.76204 0.67131
 H50 H 0.74225 0.73034 0.65532
 H51 H 0.70227 0.70519 0.69697
 H52 H 0.71732 0.72004 0.71236
 N53 N 0.32147 0.77777 0.72699
 N54 N 0.31626 0.79249 0.73679
 C55 C 0.32831 0.79489 0.75115
 C56 C 0.34169 0.78090 0.75026
 C57 C 0.33693 0.77029 0.73479
 H58 H 0.32748 0.80595 0.76148
 H59 H 0.34424 0.75808 0.72957
 Cu60 Cu 0.29432 0.80700 0.72946
 Cu61 Cu 0.30796 0.76938 0.70477
 Cu62 Cu 0.26895 0.79533 0.69163
 N63 N 0.27241 0.82154 0.72212
 N64 N 0.26270 0.81697 0.70714
 C65 C 0.24857 0.82927 0.70490
 C66 C 0.24945 0.84224 0.71928
 C67 C 0.26475 0.83693 0.72998
 H68 H 0.23841 0.82882 0.69366
 H69 H 0.26990 0.84383 0.74245
 N70 N 0.27755 0.77298 0.67780
 N71 N 0.29244 0.76316 0.68277
 C72 C 0.29464 0.74883 0.67066
 C73 C 0.28046 0.74967 0.65753
 C74 C 0.26988 0.76511 0.66244
 H75 H 0.30567 0.73846 0.67135
 H76 H 0.25750 0.77017 0.65531
 H77 H 0.29733 0.79532 0.69749
 H78 H 0.28216 0.78005 0.71234
 N79 N 0.82250 0.27752 0.22713
 N80 N 0.81741 0.29238 0.23678
 C81 C 0.82944 0.29483 0.25114
 C82 C 0.84270 0.28069 0.25040
 C83 C 0.83787 0.26996 0.23501
 H84 H 0.82866 0.30600 0.26134
 H85 H 0.84503 0.25761 0.22991
 Cu86 Cu 0.79560 0.30702 0.22942
 Cu87 Cu 0.80893 0.26907 0.20499
 Cu88 Cu 0.76996 0.29501 0.19182
 N89 N 0.77362 0.32141 0.22208
 N90 N 0.76377 0.31669 0.20723
 C91 C 0.74957 0.32892 0.20507
 C92 C 0.75058 0.34197 0.21933
 C93 C 0.76597 0.33682 0.22989
 H94 H 0.73925 0.32837 0.19398
 H95 H 0.77121 0.34384 0.24226
 N96 N 0.77850 0.27261 0.17807
 N97 N 0.79338 0.26279 0.18304
 C98 C 0.79558 0.24846 0.17094
 C99 C 0.78141 0.24932 0.15780
 C100 C 0.77083 0.26476 0.16271
 H101 H 0.80663 0.23811 0.17160
 H102 H 0.75848 0.26985 0.15556
 H103 H 0.79837 0.29501 0.19753
 H104 H 0.78323 0.27994 0.21263
 N105 N 0.82225 0.72244 0.27338
 N106 N 0.81736 0.70736 0.26396
 C107 C 0.82940 0.70491 0.24961
 C108 C 0.84244 0.71924 0.25011
 C109 C 0.83750 0.73011 0.26535
 H110 H 0.82873 0.69366 0.23948
 H111 H 0.84449 0.74266 0.27020
 Cu112 Cu 0.79548 0.69282 0.27132
 Cu113 Cu 0.80853 0.73106 0.29536
 Cu114 Cu 0.76952 0.70507 0.30853
 N115 N 0.77359 0.67830 0.27865
 N116 N 0.76350 0.68323 0.29327
 C117 C 0.74917 0.67111 0.29529
 C118 C 0.75034 0.65792 0.28117
 C119 C 0.76597 0.66286 0.27085
 H120 H 0.73864 0.67186 0.30616
 H121 H 0.77130 0.65575 0.25858
 N122 N 0.77795 0.72760 0.32214
 N123 N 0.79284 0.73744 0.31718
 C124 C 0.79503 0.75178 0.32927
 C125 C 0.78084 0.75091 0.34238
 C126 C 0.77026 0.73546 0.33748
 H127 H 0.80610 0.76212 0.32864
 H128 H 0.75793 0.73034 0.34465
 H129 H 0.79791 0.70524 0.30302
 H130 H 0.78285 0.72006 0.28762
 N131 N 0.32223 0.22252 -0.22711
 N132 N 0.31725 0.20756 -0.23667
 C133 C 0.32930 0.20514 -0.25102
 C134 C 0.34249 0.21938 -0.25039
 C135 C 0.33756 0.23016 -0.23505
 H136 H 0.32859 0.19390 -0.26117
 H137 H 0.34464 0.24259 -0.23001
 Cu138 Cu 0.29547 0.19277 -0.22931
 Cu139 Cu 0.30858 0.23095 -0.20500
 Cu140 Cu 0.26958 0.20502 -0.19191
 N141 N 0.27333 0.17851 -0.22203
 N142 N 0.26337 0.18334 -0.20729
 C143 C 0.24906 0.17120 -0.20521
 C144 C 0.25008 0.15810 -0.21941
 C145 C 0.26562 0.16312 -0.22985
 H146 H 0.23866 0.17185 -0.19420
 H147 H 0.27089 0.15603 -0.24216
 N148 N 0.27809 0.22740 -0.17813
 N149 N 0.29298 0.23724 -0.18305
 C150 C 0.29516 0.25155 -0.17091
 C151 C 0.28095 0.25066 -0.15780
 C152 C 0.27038 0.23522 -0.16277
 H153 H 0.30620 0.26191 -0.17153
 H154 H 0.25801 0.23010 -0.15566
 H155 H 0.29799 0.20503 -0.19750
 H156 H 0.28293 0.21995 -0.21282
 N157 N 0.67792 0.27735 -0.22701
 N158 N 0.68289 0.29232 -0.23658
 C159 C 0.67084 0.29471 -0.25093
 C160 C 0.65768 0.28046 -0.25029
 C161 C 0.66260 0.26969 -0.23494
 H162 H 0.67154 0.30594 -0.26109
 H163 H 0.65553 0.25726 -0.22990
 Cu164 Cu 0.70463 0.30713 -0.22921
 Cu165 Cu 0.69156 0.26896 -0.20487
 Cu166 Cu 0.73051 0.29496 -0.19178
 N167 N 0.72674 0.32143 -0.22193
 N168 N 0.73669 0.31663 -0.20718
 C169 C 0.75097 0.32879 -0.20509
 C170 C 0.74994 0.34188 -0.21931
 C171 C 0.73442 0.33683 -0.22976
 H172 H 0.76136 0.32817 -0.19407
 H173 H 0.72915 0.34390 -0.24207
 N174 N 0.72203 0.27257 -0.17799
 N175 N 0.70715 0.26271 -0.18292
 C176 C 0.70499 0.24840 -0.17077
 C177 C 0.71919 0.24932 -0.15765
 C178 C 0.72973 0.26477 -0.16262
 H179 H 0.69396 0.23802 -0.17139
 H180 H 0.74209 0.26991 -0.15551
 H181 H 0.70211 0.29491 -0.19739
 H182 H 0.71720 0.27999 -0.21268
 N183 N 0.17806 0.77789 0.27328
 N184 N 0.18317 0.79274 0.26362
 C185 C 0.17111 0.79516 0.24928
 C186 C 0.15784 0.78104 0.25004
 C187 C 0.16266 0.77034 0.26542
 H188 H 0.17191 0.80626 0.23899
 H189 H 0.15548 0.75798 0.27049
 Cu190 Cu 0.20523 0.80721 0.27068
 Cu191 Cu 0.19169 0.76940 0.29534
 Cu192 Cu 0.23065 0.79534 0.30853
 N193 N 0.22702 0.82181 0.27834
 N194 N 0.23684 0.81710 0.29321
 C195 C 0.25103 0.82935 0.29541
 C196 C 0.25009 0.84241 0.28111
 C197 C 0.23468 0.83722 0.27052
 H198 H 0.26133 0.82876 0.30652
 H199 H 0.22950 0.84416 0.25809
 N200 N 0.22214 0.77287 0.32223
 N201 N 0.20726 0.76305 0.31724
 C202 C 0.20503 0.74871 0.32933
 C203 C 0.21919 0.74954 0.34248
 C204 C 0.22979 0.76500 0.33760
 H205 H 0.19396 0.73836 0.32865
 H206 H 0.24213 0.77009 0.34477
 H207 H 0.20229 0.79537 0.30260
 H208 H 0.21747 0.78017 0.28766
 N209 N 0.47234 0.42759 0.47685
 N210 N 0.45747 0.43263 0.48649
 C211 C 0.45507 0.42057 0.50084
 C212 C 0.46921 0.40735 0.50011
 C213 C 0.47992 0.41222 0.48473
 H214 H 0.44395 0.42134 0.51111
 H215 H 0.49231 0.40509 0.47968
 Cu216 Cu 0.44296 0.45465 0.47941
 Cu217 Cu 0.48080 0.44129 0.45478
 Cu218 Cu 0.45482 0.48022 0.44165
 N219 N 0.42835 0.47641 0.47181
 N220 N 0.43308 0.48631 0.45699
 C221 C 0.42084 0.50050 0.45484
 C222 C 0.40777 0.49945 0.46908
 C223 C 0.41292 0.48402 0.47961
 H224 H 0.42141 0.51086 0.44379
 H225 H 0.40593 0.47881 0.49201
 N226 N 0.47727 0.47179 0.42793
 N227 N 0.48711 0.45692 0.43288
 C228 C 0.50143 0.45476 0.42076
 C229 C 0.50055 0.46895 0.40763
 C230 C 0.48510 0.47950 0.41256
 H231 H 0.51179 0.44371 0.42139
 H232 H 0.47997 0.49184 0.40542
 H233 H 0.46997 0.46706 0.46250
 H234 H 0.45481 0.45188 0.44750
 N235 N -0.02779 -0.07226 0.97661
 N236 N -0.04283 -0.06737 0.98608
 C237 C -0.04526 -0.07940 1.00044
 C238 C -0.03096 -0.09245 0.99990
 C239 C -0.02013 -0.08752 0.98463
 H240 H -0.05649 -0.07872 1.01060
 H241 H -0.00761 -0.09452 0.97975
 Cu242 Cu -0.05735 -0.04549 0.97877
 Cu243 Cu -0.01922 -0.05854 0.95458
 Cu244 Cu -0.04518 -0.01952 0.94151
 N245 N -0.07186 -0.02361 0.97146
 N246 N -0.06695 -0.01351 0.95685
 C247 C -0.07904 0.00082 0.95487
 C248 C -0.09220 -0.00036 0.96901
 C249 C -0.08727 -0.01600 0.97931
 H250 H -0.07831 0.01137 0.94401
 H251 H -0.09437 -0.02134 0.99158
 N252 N -0.02271 -0.02793 0.92782
 N253 N -0.01288 -0.04283 0.93274
 C254 C 0.00141 -0.04500 0.92059
 C255 C 0.00052 -0.03079 0.90748
 C256 C -0.01490 -0.02023 0.91245
 H257 H 0.01174 -0.05607 0.92118
 H258 H -0.02005 -0.00789 0.90531
 H259 H -0.03016 -0.03286 0.96237
 H260 H -0.04505 -0.04792 0.94702
 N261 N 1.02787 0.57230 0.97664
 N262 N 1.04290 0.56740 0.98611
 C263 C 1.04535 0.57944 1.00046
 C264 C 1.03104 0.59249 0.99993
 C265 C 1.02020 0.58756 0.98466
 H266 H 1.05658 0.57877 1.01062
 H267 H 1.00767 0.59455 0.97979
 Cu268 Cu 1.05747 0.54557 0.97878
 Cu269 Cu 1.01929 0.55859 0.95463
 Cu270 Cu 1.04525 0.51958 0.94152
 N271 N 1.07194 0.52366 0.97146
 N272 N 1.06703 0.51357 0.95683
 C273 C 1.07913 0.49925 0.95484
 C274 C 1.09229 0.50042 0.96897
 C275 C 1.08736 0.51606 0.97928
 H276 H 1.07838 0.48870 0.94398
 H277 H 1.09448 0.52139 0.99155
 N278 N 1.02277 0.52800 0.92785
 N279 N 1.01294 0.54289 0.93279
 C280 C 0.99864 0.54507 0.92065
 C281 C 0.99953 0.53088 0.90754
 C282 C 1.01495 0.52031 0.91249
 H283 H 0.98831 0.55615 0.92125
 H284 H 1.02009 0.50797 0.90534
 H285 H 1.03025 0.53290 0.96239
 H286 H 1.04512 0.54797 0.94704
 N287 N 0.52776 0.07220 0.47680
 N288 N 0.54262 0.06712 0.48645
 C289 C 0.54506 0.07916 0.50080
 C290 C 0.53094 0.09241 0.50007
 C291 C 0.52022 0.08758 0.48469
 H292 H 0.55617 0.07837 0.51107
 H293 H 0.50786 0.09475 0.47964
 Cu294 Cu 0.55709 0.04510 0.47941
 Cu295 Cu 0.51930 0.05852 0.45473
 Cu296 Cu 0.54525 0.01959 0.44158
 N297 N 0.57170 0.02340 0.47174
 N298 N 0.56697 0.01351 0.45691
 C299 C 0.57922 -0.00066 0.45475
 C300 C 0.59228 0.00040 0.46898
 C301 C 0.58714 0.01580 0.47952
 H302 H 0.57866 -0.01102 0.44370
 H303 H 0.59413 0.02100 0.49191
 N304 N 0.52282 0.02802 0.42788
 N305 N 0.51297 0.04289 0.43283
 C306 C 0.49866 0.04506 0.42070
 C307 C 0.49955 0.03086 0.40758
 C308 C 0.51499 0.02032 0.41252
 H309 H 0.48831 0.05610 0.42133
 H310 H 0.52013 0.00798 0.40538
 H311 H 0.53012 0.03272 0.46243
 H312 H 0.54531 0.04791 0.44747
 N313 N -0.02785 0.07231 0.52310
 N314 N -0.04271 0.06722 0.51347
 C315 C -0.04515 0.07924 0.49910
 C316 C -0.03104 0.09249 0.49982
 C317 C -0.02030 0.08770 0.51519
 H318 H -0.05635 0.07851 0.48890
 H319 H -0.00793 0.09487 0.52023
 Cu320 Cu -0.05739 0.04546 0.52082
 Cu321 Cu -0.01941 0.05871 0.54523
 Cu322 Cu -0.04538 0.01972 0.55834
 N323 N -0.07177 0.02348 0.52813
 N324 N -0.06704 0.01358 0.54292
 C325 C -0.07928 -0.00062 0.54505
 C326 C -0.09233 0.00045 0.53081
 C327 C -0.08719 0.01587 0.52030
 H328 H -0.07872 -0.01100 0.55608
 H329 H -0.09426 0.02116 0.50798
 N330 N -0.02300 0.02823 0.57211
 N331 N -0.01315 0.04312 0.56718
 C332 C 0.00116 0.04529 0.57930
 C333 C 0.00027 0.03107 0.59241
 C334 C -0.01518 0.02052 0.58746
 H335 H 0.01154 0.05633 0.57868
 H336 H -0.02030 0.00815 0.59458
 H337 H -0.03034 0.03302 0.53755
 H338 H -0.04536 0.04813 0.55270
 N339 N 0.47239 0.57221 0.02334
 N340 N 0.45753 0.56713 0.01369
 C341 C 0.45511 0.57919 -0.00065
 C342 C 0.46924 0.59244 0.00009
 C343 C 0.47995 0.58760 0.01547
 H344 H 0.44400 0.57840 -0.01093
 H345 H 0.49232 0.59477 0.02052
 Cu346 Cu 0.44304 0.54510 0.02072
 Cu347 Cu 0.48086 0.55853 0.04539
 Cu348 Cu 0.45487 0.51957 0.05851
 N349 N 0.42841 0.52335 0.02836
 N350 N 0.43312 0.51347 0.04319
 C351 C 0.42085 0.49930 0.04535
 C352 C 0.40780 0.50034 0.03110
 C353 C 0.41298 0.51575 0.02056
 H354 H 0.42140 0.48894 0.05641
 H355 H 0.40600 0.52095 0.00816
 N356 N 0.47733 0.52801 0.07222
 N357 N 0.48718 0.54289 0.06727
 C358 C 0.50150 0.54506 0.07938
 C359 C 0.50062 0.53087 0.09250
 C360 C 0.48516 0.52031 0.08757
 H361 H 0.51186 0.55612 0.07875
 H362 H 0.48003 0.50795 0.09471
 H363 H 0.47004 0.53276 0.03767
 H364 H 0.45486 0.54793 0.05264
 N365 N 0.52777 -0.07219 0.02338
 N366 N 0.54263 -0.06711 0.01372
 C367 C 0.54504 -0.07916 -0.00062
 C368 C 0.53091 -0.09241 0.00012
 C369 C 0.52020 -0.08758 0.01550
 H370 H 0.55615 -0.07837 -0.01090
 H371 H 0.50783 -0.09474 0.02055
 Cu372 Cu 0.55713 -0.04508 0.02077
 Cu373 Cu 0.51931 -0.05852 0.04545
 Cu374 Cu 0.54531 -0.01958 0.05858
 N375 N 0.57176 -0.02335 0.02841
 N376 N 0.56706 -0.01348 0.04324
 C377 C 0.57933 0.00069 0.04541
 C378 C 0.59238 -0.00034 0.03116
 C379 C 0.58720 -0.01574 0.02061
 H380 H 0.57879 0.01104 0.05647
 H381 H 0.59418 -0.02094 0.00821
 N382 N 0.52286 -0.02802 0.07230
 N383 N 0.51300 -0.04289 0.06735
 C384 C 0.49867 -0.04506 0.07946
 C385 C 0.49956 -0.03087 0.09259
 C386 C 0.51503 -0.02031 0.08766
 H387 H 0.48831 -0.05611 0.07882
 H388 H 0.52016 -0.00797 0.09480
 H389 H 0.53014 -0.03276 0.03773
 H390 H 0.54531 -0.04794 0.05269
 N391 N 1.02765 0.42772 0.52318
 N392 N 1.04270 0.43261 0.51372
 C393 C 1.04512 0.42058 0.49936
 C394 C 1.03079 0.40755 0.49989
 C395 C 1.01996 0.41247 0.51515
 H396 H 1.05635 0.42126 0.48921
 H397 H 1.00741 0.40548 0.52001
 Cu398 Cu 1.05727 0.45446 0.52106
 Cu399 Cu 1.01908 0.44142 0.54520
 Cu400 Cu 1.04511 0.48041 0.55831
 N401 N 1.07181 0.47632 0.52839
 N402 N 1.06690 0.48641 0.54300
 C403 C 1.07903 0.50073 0.54501
 C404 C 1.09219 0.49955 0.53088
 C405 C 1.08724 0.48392 0.52057
 H406 H 1.07830 0.51128 0.55587
 H407 H 1.09435 0.47859 0.50830
 N408 N 1.02262 0.47201 0.57197
 N409 N 1.01276 0.45713 0.56704
 C410 C 0.99845 0.45496 0.57917
 C411 C 0.99938 0.46916 0.59229
 C412 C 1.01482 0.47971 0.58733
 H413 H 0.98810 0.44389 0.57858
 H414 H 1.01998 0.49204 0.59448
 H415 H 1.03008 0.46710 0.53743
 H416 H 1.04493 0.45202 0.55279
 C417 C 0.40318 0.00866 0.22515
 H418 H 0.40417 0.02115 0.23369
 C419 C 0.41540 0.00616 0.21006
 H420 H 0.42571 0.01689 0.20706
 C421 C 0.38861 -0.02055 0.21897
 H422 H 0.37836 -0.03106 0.22263
 C423 C 0.40051 -0.02361 0.20374
 H424 H 0.39911 -0.03646 0.19579
 N425 N 0.39000 -0.00451 0.22919
 C426 C 0.34543 0.02492 0.25898
 H427 H 0.34438 0.01639 0.27148
 C428 C 0.33336 0.04014 0.25650
 H429 H 0.32309 0.04323 0.26722
 C430 C 0.36005 0.03102 0.22981
 H431 H 0.37027 0.02728 0.21930
 C432 C 0.34830 0.04637 0.22676
 H433 H 0.34978 0.05434 0.21393
 Zn434 Zn 0.37425 -0.00023 0.25013
 N435 N 0.35857 0.02078 0.24582
 C436 C 0.38864 0.02019 0.28122
 N437 N 0.38999 0.00411 0.27106
 C438 C 0.40317 -0.00904 0.27514
 C439 C 0.41540 -0.00647 0.29020
 C440 C 0.40056 0.02332 0.29642
 C441 C 0.34535 -0.02538 0.24132
 C442 C 0.33322 -0.04055 0.24385
 C443 C 0.34813 -0.04674 0.27360
 C444 C 0.35995 -0.03143 0.27050
 N445 N 0.35851 -0.02123 0.25446
 H446 H 0.37841 0.03070 0.27751
 H447 H 0.40414 -0.02157 0.26664
 H448 H 0.42571 -0.01719 0.29323
 H449 H 0.39919 0.03620 0.30432
 H450 H 0.34433 -0.01687 0.22881
 H451 H 0.32292 -0.04363 0.23314
 H452 H 0.34958 -0.05467 0.28645
 H453 H 0.37018 -0.02769 0.28100
 C454 C 0.33474 0.05114 0.24022
 C455 C 0.41413 -0.01014 0.19908
 C456 C 0.33454 -0.05151 0.26016
 C457 C 0.41416 0.00988 0.30111
 C458 C 0.09663 -0.00907 0.72473
 H459 H 0.09566 -0.02161 0.73320
 C460 C 0.08438 -0.00647 0.70969
 H461 H 0.07406 -0.01719 0.70664
 C462 C 0.11115 0.02020 0.71872
 H463 H 0.12138 0.03072 0.72245
 C464 C 0.09922 0.02336 0.70354
 H465 H 0.10058 0.03627 0.69568
 N466 N 0.10981 0.00409 0.72883
 C467 C 0.15437 -0.02540 0.75864
 H468 H 0.15537 -0.01690 0.77115
 C469 C 0.16649 -0.04058 0.75614
 H470 H 0.17675 -0.04366 0.76688
 C471 C 0.13983 -0.03146 0.72942
 H472 H 0.12962 -0.02773 0.71890
 C473 C 0.15164 -0.04677 0.72636
 H474 H 0.15022 -0.05471 0.71350
 Zn475 Zn 0.12554 -0.00025 0.74976
 N476 N 0.14125 -0.02126 0.74546
 C477 C 0.11112 -0.02056 0.78089
 N478 N 0.10977 -0.00453 0.77066
 C479 C 0.09660 0.00865 0.77469
 C480 C 0.08440 0.00617 0.78979
 C481 C 0.09922 -0.02361 0.79612
 C482 C 0.15435 0.02496 0.74094
 C483 C 0.16641 0.04018 0.74345
 C484 C 0.15150 0.04634 0.77321
 C485 C 0.13975 0.03098 0.77014
 N486 N 0.14122 0.02077 0.75411
 H487 H 0.12135 -0.03109 0.77722
 H488 H 0.09564 0.02114 0.76614
 H489 H 0.07411 0.01691 0.79279
 H490 H 0.10060 -0.03645 0.80408
 H491 H 0.15538 0.01645 0.72843
 H492 H 0.17667 0.04331 0.73271
 H493 H 0.15003 0.05428 0.78605
 H494 H 0.12953 0.02721 0.78065
 C495 C 0.16520 -0.05153 0.73982
 C496 C 0.08561 0.00991 0.69882
 C497 C 0.16506 0.05115 0.75975
 C498 C 0.08565 -0.01012 0.80078
 C499 C 0.59689 0.49100 0.22497
 H500 H 0.59590 0.47847 0.23345
 C501 C 0.58472 0.49355 0.20986
 H502 H 0.57443 0.48282 0.20679
 C503 C 0.61145 0.52025 0.21894
 H504 H 0.62167 0.53077 0.22268
 C505 C 0.59959 0.52336 0.20369
 H506 H 0.60100 0.53625 0.19580
 N507 N 0.61005 0.50417 0.22909
 C508 C 0.65462 0.47482 0.25894
 H509 H 0.65560 0.48335 0.27143
 C510 C 0.66678 0.45969 0.25645
 H511 H 0.67706 0.45665 0.26719
 C512 C 0.64009 0.46869 0.22972
 H513 H 0.62987 0.47239 0.21920
 C514 C 0.65194 0.45342 0.22667
 H515 H 0.65054 0.44547 0.21383
 Zn516 Zn 0.62574 0.49984 0.25005
 N517 N 0.64147 0.47890 0.24576
 C518 C 0.61141 0.47945 0.28119
 N519 N 0.61000 0.49549 0.27098
 C520 C 0.59682 0.50864 0.27505
 C521 C 0.58465 0.50612 0.29016
 C522 C 0.59955 0.47636 0.29644
 C523 C 0.65461 0.52492 0.24125
 C524 C 0.66672 0.54010 0.24376
 C525 C 0.65176 0.54635 0.27348
 C526 C 0.63996 0.53103 0.27041
 N527 N 0.64143 0.52081 0.25439
 H528 H 0.62166 0.46895 0.27749
 H529 H 0.59582 0.52115 0.26652
 H530 H 0.57435 0.51683 0.29319
 H531 H 0.60097 0.46351 0.30439
 H532 H 0.65565 0.51639 0.22876
 H533 H 0.67702 0.54317 0.23305
 H534 H 0.65029 0.55431 0.28631
 H535 H 0.62972 0.52730 0.28090
 C536 C 0.66551 0.44872 0.24015
 C537 C 0.58600 0.50991 0.19895
 C538 C 0.66535 0.55110 0.26004
 C539 C 0.58594 0.48981 0.30113
 C540 C 0.90344 0.50895 0.72496
 H541 H 0.90445 0.52146 0.73347
 C542 C 0.91563 0.50642 0.70986
 H543 H 0.92594 0.51714 0.70682
 C544 C 0.88885 0.47973 0.71886
 H545 H 0.87862 0.46922 0.72257
 C546 C 0.90073 0.47663 0.70363
 H547 H 0.89931 0.46377 0.69570
 N548 N 0.89026 0.49579 0.72903
 C549 C 0.84571 0.52518 0.75877
 H550 H 0.84467 0.51665 0.77127
 C551 C 0.83361 0.54036 0.75627
 H552 H 0.82333 0.54343 0.76699
 C553 C 0.86033 0.53129 0.72960
 H554 H 0.87056 0.52756 0.71910
 C555 C 0.84855 0.54661 0.72654
 H556 H 0.85002 0.55457 0.71370
 Zn557 Zn 0.87454 0.50010 0.74994
 N558 N 0.85887 0.52107 0.74562
 C559 C 0.88889 0.52048 0.78103
 N560 N 0.89028 0.50443 0.77084
 C561 C 0.90345 0.49127 0.77489
 C562 C 0.91565 0.49380 0.78998
 C563 C 0.90078 0.52357 0.79625
 C564 C 0.84569 0.47500 0.74113
 C565 C 0.83358 0.45982 0.74364
 C566 C 0.84848 0.45362 0.77340
 C567 C 0.86028 0.46893 0.77032
 N568 N 0.85884 0.47913 0.75429
 H569 H 0.87866 0.53099 0.77734
 H570 H 0.90443 0.47877 0.76637
 H571 H 0.92595 0.48308 0.79300
 H572 H 0.89939 0.53643 0.80419
 H573 H 0.84468 0.48352 0.72862
 H574 H 0.82330 0.45673 0.73291
 H575 H 0.84992 0.44568 0.78625
 H576 H 0.87051 0.47268 0.78083
 C577 C 0.83497 0.55135 0.73999
 C578 C 0.91433 0.49009 0.69892
 C579 C 0.83491 0.44885 0.75994
 C580 C 0.91438 0.51011 0.80093
 C581 C 0.22499 0.40453 0.00873
 H582 H 0.23358 0.40557 0.02118
 C583 C 0.20986 0.41668 0.00626
 H584 H 0.20687 0.42701 0.01696
 C585 C 0.21870 0.38984 -0.02038
 H586 H 0.22235 0.37956 -0.03086
 C587 C 0.20342 0.40166 -0.02341
 H588 H 0.19541 0.40019 -0.03620
 N589 N 0.22898 0.39131 -0.00440
 C590 C 0.25862 0.34677 0.02497
 H591 H 0.27114 0.34574 0.01647
 C592 C 0.25606 0.33463 0.04011
 H593 H 0.26677 0.32433 0.04318
 C594 C 0.22943 0.36139 0.03102
 H595 H 0.21895 0.37164 0.02729
 C596 C 0.22631 0.34957 0.04630
 H597 H 0.21345 0.35101 0.05422
 Zn598 Zn 0.24987 0.37561 -0.00010
 N599 N 0.24549 0.35994 0.02085
 C600 C 0.28095 0.38995 0.02031
 N601 N 0.27080 0.39133 0.00424
 C602 C 0.27490 0.40451 -0.00891
 C603 C 0.29001 0.41671 -0.00635
 C604 C 0.29619 0.40183 0.02342
 C605 C 0.24101 0.34671 -0.02514
 C606 C 0.24351 0.33459 -0.04029
 C607 C 0.27326 0.34953 -0.04655
 C608 C 0.27020 0.36135 -0.03126
 N609 N 0.25417 0.35989 -0.02104
 H610 H 0.27721 0.37972 0.03081
 H611 H 0.26640 0.40551 -0.02142
 H612 H 0.29307 0.42701 -0.01707
 H613 H 0.30410 0.40042 0.03630
 H614 H 0.22851 0.34568 -0.01660
 H615 H 0.23278 0.32429 -0.04335
 H616 H 0.28610 0.35099 -0.05451
 H617 H 0.28070 0.37160 -0.02755
 C618 C 0.23974 0.33597 0.05104
 C619 C 0.19880 0.41529 -0.00997
 C620 C 0.25980 0.33593 -0.05128
 C621 C 0.30094 0.41541 0.00997
 C622 C 0.72527 0.09556 -0.00871
 H623 H 0.73379 0.09458 -0.02122
 C624 C 0.71017 0.08336 -0.00618
 H625 H 0.70712 0.07306 -0.01690
 C626 C 0.71919 0.11011 0.02050
 H627 H 0.72292 0.12033 0.03102
 C628 C 0.70395 0.09822 0.02360
 H629 H 0.69604 0.09961 0.03647
 N630 N 0.72935 0.10874 0.00444
 C631 C 0.75914 0.15338 -0.02491
 H632 H 0.77163 0.15441 -0.01638
 C633 C 0.75664 0.16550 -0.04007
 H634 H 0.76736 0.17580 -0.04314
 C635 C 0.72995 0.13874 -0.03103
 H636 H 0.71945 0.12849 -0.02732
 C637 C 0.72689 0.15055 -0.04633
 H638 H 0.71405 0.14908 -0.05428
 Zn639 Zn 0.75028 0.12447 0.00012
 N640 N 0.74598 0.14020 -0.02081
 C641 C 0.78144 0.11025 -0.02019
 N642 N 0.77116 0.10876 -0.00421
 C643 C 0.77516 0.09553 0.00891
 C644 C 0.79028 0.08338 0.00642
 C645 C 0.79671 0.09842 -0.02323
 C646 C 0.74156 0.15328 0.02522
 C647 C 0.74414 0.16540 0.04037
 C648 C 0.77389 0.15045 0.04652
 C649 C 0.77075 0.13864 0.03123
 N650 N 0.75468 0.14011 0.02107
 H651 H 0.77779 0.12054 -0.03066
 H652 H 0.76657 0.09448 0.02136
 H653 H 0.79326 0.07303 0.01711
 H654 H 0.80472 0.09990 -0.03603
 H655 H 0.72904 0.15432 0.01674
 H656 H 0.73344 0.17570 0.04346
 H657 H 0.78676 0.14899 0.05442
 H658 H 0.78123 0.12840 0.02747
 C659 C 0.74035 0.16414 -0.05106
 C660 C 0.69923 0.08464 0.01014
 C661 C 0.76047 0.16405 0.05129
 C662 C 0.80133 0.08477 -0.00981
 C663 C 0.22507 0.59538 0.49120
 H664 H 0.23366 0.59434 0.47875
 C665 C 0.20992 0.58323 0.49367
 H666 H 0.20692 0.57290 0.48297
 C667 C 0.21880 0.61008 0.52030
 H668 H 0.22246 0.62035 0.53079
 C669 C 0.20351 0.59825 0.52333
 H670 H 0.19549 0.59973 0.53613
 N671 N 0.22908 0.60860 0.50433
 C672 C 0.25875 0.65316 0.47492
 H673 H 0.27127 0.65418 0.48341
 C674 C 0.25618 0.66531 0.45980
 H675 H 0.26689 0.67562 0.45673
 C676 C 0.22954 0.63853 0.46889
 H677 H 0.21905 0.62828 0.47263
 C678 C 0.22641 0.65038 0.45363
 H679 H 0.21353 0.64894 0.44573
 Zn680 Zn 0.24999 0.62431 0.50001
 N681 N 0.24561 0.63998 0.47905
 C682 C 0.28108 0.60993 0.47965
 N683 N 0.27091 0.60857 0.49571
 C684 C 0.27496 0.59539 0.50887
 C685 C 0.29004 0.58318 0.50634
 C686 C 0.29630 0.59803 0.47657
 C687 C 0.24111 0.65318 0.52503
 C688 C 0.24355 0.66529 0.54020
 C689 C 0.27327 0.65038 0.54656
 C690 C 0.27026 0.63857 0.53125
 N691 N 0.25428 0.64002 0.52097
 H692 H 0.27738 0.62016 0.46914
 H693 H 0.26644 0.59440 0.52137
 H694 H 0.29306 0.57287 0.51706
 H695 H 0.30422 0.59942 0.46370
 H696 H 0.22864 0.65420 0.51646
 H697 H 0.23281 0.67557 0.54322
 H698 H 0.28608 0.64893 0.55457
 H699 H 0.28077 0.62833 0.52757
 C700 C 0.23984 0.66399 0.44889
 C701 C 0.19886 0.58462 0.50990
 C702 C 0.25980 0.66396 0.55124
 C703 C 0.30100 0.58445 0.49003
 C704 C 0.72505 0.90466 0.50875
 H705 H 0.73361 0.90568 0.52122
 C706 C 0.70995 0.91684 0.50623
 H707 H 0.70696 0.92717 0.51693
 C708 C 0.71884 0.89001 0.47960
 H709 H 0.72252 0.87975 0.46911
 C710 C 0.70360 0.90187 0.47653
 H711 H 0.69564 0.90043 0.46370
 N712 N 0.72906 0.89145 0.49562
 C713 C 0.75876 0.84694 0.52493
 H714 H 0.77125 0.84592 0.51639
 C715 C 0.75627 0.83483 0.54009
 H716 H 0.76699 0.82454 0.54314
 C717 C 0.72959 0.86156 0.53108
 H718 H 0.71909 0.87180 0.52737
 C719 C 0.72653 0.84976 0.54638
 H720 H 0.71370 0.85121 0.55435
 Zn721 Zn 0.74993 0.87577 0.49994
 N722 N 0.74560 0.86010 0.52085
 C723 C 0.78101 0.89007 0.52027
 N724 N 0.77079 0.89149 0.50425
 C725 C 0.77479 0.90470 0.49112
 C726 C 0.78988 0.91690 0.49362
 C727 C 0.79625 0.90195 0.52333
 C728 C 0.74115 0.84692 0.47493
 C729 C 0.74369 0.83481 0.45978
 C730 C 0.77343 0.84980 0.45355
 C731 C 0.77033 0.86160 0.46883
 N732 N 0.75429 0.86011 0.47902
 H733 H 0.77734 0.87981 0.53077
 H734 H 0.76622 0.90571 0.47865
 H735 H 0.79288 0.92724 0.48292
 H736 H 0.80422 0.90052 0.53615
 H737 H 0.72865 0.84588 0.48345
 H738 H 0.73298 0.82449 0.45672
 H739 H 0.78627 0.85127 0.44561
 H740 H 0.78082 0.87186 0.47255
 C741 C 0.73998 0.83617 0.55108
 C742 C 0.69895 0.91549 0.48996
 C743 C 0.75999 0.83618 0.44883
 C744 C 0.80089 0.91557 0.50989
 C745 C 0.00830 0.22504 0.40354
 H746 H 0.02084 0.23352 0.40456
 C747 C 0.00572 0.20991 0.41568
 H748 H 0.01644 0.20681 0.42596
 C749 C -0.02093 0.21904 0.38896
 H750 H -0.03143 0.22281 0.37874
 C751 C -0.02407 0.20377 0.40079
 H752 H -0.03696 0.19587 0.39937
 N753 N -0.00484 0.22918 0.39039
 C754 C 0.02477 0.25881 0.34588
 H755 H 0.01632 0.27137 0.34487
 C756 C 0.03995 0.25625 0.33380
 H757 H 0.04310 0.26699 0.32355
 C758 C 0.03066 0.22955 0.36044
 H759 H 0.02685 0.21904 0.37064
 C760 C 0.04598 0.22642 0.34866
 H761 H 0.05385 0.21353 0.35010
 Zn762 Zn -0.00038 0.25010 0.37469
 N763 N 0.02056 0.24565 0.35901
 C764 C 0.02022 0.28111 0.38900
 N765 N 0.00409 0.27102 0.39039
 C766 C -0.00906 0.27520 0.40352
 C767 C -0.00647 0.29034 0.41564
 C768 C 0.02338 0.29638 0.40083
 C769 C -0.02543 0.24142 0.34582
 C770 C -0.04059 0.24397 0.33371
 C771 C -0.04681 0.27369 0.34871
 C772 C -0.03150 0.27058 0.36050
 N773 N -0.02131 0.25454 0.35901
 H774 H 0.03073 0.27731 0.37881
 H775 H -0.02163 0.26675 0.40451
 H776 H -0.01721 0.29347 0.42590
 H777 H 0.03629 0.30424 0.39943
 H778 H -0.01693 0.22891 0.34477
 H779 H -0.04367 0.23327 0.32340
 H780 H -0.05475 0.28653 0.35019
 H781 H -0.02777 0.28106 0.37075
 C782 C 0.05083 0.23989 0.33514
 C783 C -0.01063 0.19899 0.41436
 C784 C -0.05155 0.26027 0.33510
 C785 C 0.00991 0.30122 0.41435
 C786 C -0.00866 0.72490 0.09624
 H787 H -0.02122 0.73334 0.09525
 C788 C -0.00610 0.70975 0.08412
 H789 H -0.01684 0.70661 0.07388
 C790 C 0.02063 0.71901 0.11073
 H791 H 0.03115 0.72282 0.12091
 C792 C 0.02376 0.70373 0.09892
 H793 H 0.03666 0.69587 0.10031
 N794 N 0.00452 0.72910 0.10935
 C795 C -0.02503 0.75878 0.15384
 H796 H -0.01655 0.77133 0.15482
 C797 C -0.04020 0.75625 0.16593
 H798 H -0.04332 0.76701 0.17616
 C799 C -0.03099 0.72950 0.13934
 H800 H -0.02721 0.71897 0.12916
 C801 C -0.04631 0.72640 0.15113
 H802 H -0.05421 0.71352 0.14972
 Zn803 Zn 0.00009 0.75003 0.12505
 N804 N -0.02085 0.74559 0.14074
 C805 C -0.02050 0.78101 0.11072
 N806 N -0.00437 0.77095 0.10934
 C807 C 0.00879 0.77516 0.09622
 C808 C 0.00620 0.79030 0.08409
 C809 C -0.02366 0.79628 0.09889
 C810 C 0.02519 0.74130 0.15389
 C811 C 0.04034 0.74386 0.16600
 C812 C 0.04648 0.77366 0.15113
 C813 C 0.03119 0.77054 0.13932
 N814 N 0.02103 0.75446 0.14075
 H815 H -0.03102 0.77719 0.12090
 H816 H 0.02136 0.76673 0.09523
 H817 H 0.01693 0.79345 0.07384
 H818 H -0.03658 0.80412 0.10028
 H819 H 0.01670 0.72876 0.15490
 H820 H 0.04344 0.73312 0.17627
 H821 H 0.05439 0.78654 0.14970
 H822 H 0.02742 0.78105 0.12911
 C823 C -0.05112 0.73990 0.16463
 C824 C 0.01028 0.69888 0.08541
 C825 C 0.05127 0.76020 0.16469
 C826 C -0.01019 0.80115 0.08538
 C827 C 0.49141 0.22472 0.59676
 H828 H 0.47887 0.23319 0.59577
 C829 C 0.49399 0.20962 0.58457
 H830 H 0.48327 0.20654 0.57429
 C831 C 0.52066 0.21874 0.61129
 H832 H 0.53117 0.22249 0.62151
 C833 C 0.52380 0.20350 0.59941
 H834 H 0.53669 0.19562 0.60079
 N835 N 0.50457 0.22886 0.60992
 C836 C 0.47489 0.25856 0.65448
 H837 H 0.48337 0.27110 0.65553
 C838 C 0.45966 0.25601 0.66653
 H839 H 0.45652 0.26675 0.67679
 C840 C 0.46892 0.22934 0.63988
 H841 H 0.47270 0.21884 0.62967
 C842 C 0.45355 0.22624 0.65163
 H843 H 0.44562 0.21337 0.65015
 Zn844 Zn 0.50015 0.24983 0.62565
 N845 N 0.47911 0.24541 0.64135
 C846 C 0.47967 0.28090 0.61121
 N847 N 0.49577 0.27078 0.60986
 C848 C 0.50892 0.27491 0.59670
 C849 C 0.50634 0.29000 0.58449
 C850 C 0.47653 0.29612 0.59931
 C851 C 0.52539 0.24111 0.65450
 C852 C 0.54061 0.24366 0.66656
 C853 C 0.54674 0.27343 0.65163
 C854 C 0.53137 0.27032 0.63988
 N855 N 0.52118 0.25426 0.64137
 H856 H 0.46916 0.27715 0.62143
 H857 H 0.52146 0.26645 0.59573
 H858 H 0.51706 0.29307 0.57420
 H859 H 0.46363 0.30399 0.60068
 H860 H 0.51691 0.22857 0.65556
 H861 H 0.54374 0.23294 0.67683
 H862 H 0.55466 0.28629 0.65015
 H863 H 0.52760 0.28081 0.62966
 C864 C 0.44871 0.23968 0.66518
 C865 C 0.51035 0.19872 0.58583
 C866 C 0.55157 0.25999 0.66520
 C867 C 0.48998 0.30089 0.58573
 C868 C 0.50871 0.72497 0.90364
 H869 H 0.52124 0.73347 0.90463
 C870 C 0.50618 0.70982 0.91578
 H871 H 0.51692 0.70675 0.92605
 C872 C 0.47947 0.71891 0.88911
 H873 H 0.46896 0.72265 0.87889
 C874 C 0.47638 0.70363 0.90094
 H875 H 0.46351 0.69570 0.89954
 N876 N 0.49554 0.72910 0.89050
 C877 C 0.52506 0.75882 0.84596
 H878 H 0.51660 0.77137 0.84496
 C879 C 0.54025 0.75629 0.83387
 H880 H 0.54338 0.76703 0.82363
 C881 C 0.53100 0.72956 0.86049
 H882 H 0.52720 0.71904 0.87069
 C883 C 0.54631 0.72646 0.84871
 H884 H 0.55420 0.71357 0.85014
 Zn885 Zn 0.49991 0.75005 0.87479
 N886 N 0.52087 0.74565 0.85908
 C887 C 0.52043 0.78114 0.88911
 N888 N 0.50434 0.77100 0.89051
 C889 C 0.49119 0.77514 0.90366
 C890 C 0.49377 0.79027 0.91581
 C891 C 0.52357 0.79641 0.90095
 C892 C 0.47477 0.74131 0.84592
 C893 C 0.45961 0.74389 0.83380
 C894 C 0.45347 0.77364 0.84876
 C895 C 0.46877 0.77051 0.86055
 N896 N 0.47894 0.75445 0.85909
 H897 H 0.53094 0.77739 0.87889
 H898 H 0.47865 0.76666 0.90466
 H899 H 0.48305 0.79336 0.92609
 H900 H 0.53646 0.80431 0.89954
 H901 H 0.48325 0.72879 0.84487
 H902 H 0.45651 0.73318 0.82350
 H903 H 0.44556 0.78650 0.85023
 H904 H 0.47253 0.78099 0.87079
 C905 C 0.55115 0.73994 0.83519
 C906 C 0.48985 0.69888 0.91450
 C907 C 0.44868 0.76022 0.83516
 C908 C 0.51012 0.80119 0.91452
 C909 C 0.11247 0.22802 0.28643
 N910 N 0.11609 0.24025 0.27231
 N911 N 0.13041 0.23736 0.26069
 C912 C 0.14166 0.22216 0.26278
 N913 N 0.13807 0.20995 0.27692
 N914 N 0.12373 0.21281 0.28853
 C915 C 0.09658 0.23115 0.29914
 N916 N 0.09254 0.21861 0.31287
 N917 N 0.07804 0.22140 0.32429
 C918 C 0.06702 0.23684 0.32247
 N919 N 0.07114 0.24938 0.30873
 N920 N 0.08563 0.24658 0.29729
 C921 C 0.61277 0.72814 0.78642
 N922 N 0.62403 0.71294 0.78849
 N923 N 0.63837 0.71008 0.77687
 C924 C 0.64195 0.72232 0.76274
 N925 N 0.63069 0.73752 0.76067
 N926 N 0.61637 0.74038 0.77230
 C927 C 0.59688 0.73125 0.79914
 N928 N 0.58592 0.74668 0.79731
 N929 N 0.57144 0.74946 0.80877
 C930 C 0.56733 0.73690 0.82250
 N931 N 0.57836 0.72147 0.82430
 N932 N 0.59285 0.71870 0.81286
 C933 C 0.38703 0.77215 0.78641
 N934 N 0.38359 0.76012 0.77208
 N935 N 0.36916 0.76294 0.76057
 C936 C 0.35762 0.77787 0.76298
 N937 N 0.36105 0.78991 0.77731
 N938 N 0.37550 0.78711 0.78881
 C939 C 0.40297 0.76904 0.79908
 N940 N 0.40686 0.78142 0.81298
 N941 N 0.42135 0.77861 0.82442
 C942 C 0.43252 0.76330 0.82244
 N943 N 0.42856 0.75092 0.80852
 N944 N 0.41409 0.75373 0.79706
 C945 C -0.11301 0.27211 0.28618
 N946 N -0.11623 0.26020 0.27170
 N947 N -0.13057 0.26301 0.26009
 C948 C -0.14227 0.27782 0.26254
 N949 N -0.13906 0.28973 0.27704
 N950 N -0.12469 0.28694 0.28863
 C951 C -0.09714 0.26902 0.29891
 N952 N -0.09341 0.28133 0.31292
 N953 N -0.07896 0.27854 0.32441
 C954 C -0.06769 0.26332 0.32238
 N955 N -0.07150 0.25100 0.30836
 N956 N -0.08593 0.25380 0.29685
 C957 C -0.11269 0.72817 0.21347
 N958 N -0.12396 0.71295 0.21145
 N959 N -0.13828 0.71012 0.22309
 C960 C -0.14183 0.72237 0.23720
 N961 N -0.13056 0.73758 0.23923
 N962 N -0.11626 0.74043 0.22757
 C963 C -0.09682 0.73126 0.20073
 N964 N -0.08584 0.74670 0.20252
 N965 N -0.07137 0.74946 0.19104
 C966 C -0.06729 0.73688 0.17733
 N967 N -0.07834 0.72145 0.17557
 N968 N -0.09282 0.71869 0.18703
 C969 C 0.38690 0.22794 0.71389
 N970 N 0.37528 0.21304 0.71150
 N971 N 0.36086 0.21027 0.72306
 C972 C 0.35754 0.22227 0.73747
 N973 N 0.36919 0.23715 0.73984
 N974 N 0.38358 0.23995 0.72826
 C975 C 0.40286 0.23101 0.70118
 N976 N 0.41403 0.24629 0.70319
 N977 N 0.42853 0.24906 0.69175
 C978 C 0.43248 0.23664 0.67785
 N979 N 0.42126 0.22136 0.67587
 N980 N 0.40673 0.21860 0.68730
 C981 C 0.61331 0.27181 0.71395
 N982 N 0.61663 0.25982 0.72834
 N983 N 0.63101 0.26264 0.73993
 C984 C 0.64264 0.27754 0.73755
 N985 N 0.63932 0.28952 0.72313
 N986 N 0.62491 0.28672 0.71156
 C987 C 0.59737 0.26872 0.70123
 N988 N 0.59351 0.28111 0.68733
 N989 N 0.57900 0.27834 0.67590
 C990 C 0.56778 0.26304 0.67788
 N991 N 0.57173 0.25064 0.69179
 N992 N 0.58622 0.25343 0.70324
 C993 C 0.11278 0.77212 0.21359
 N994 N 0.12419 0.78722 0.21137
 N995 N 0.13856 0.79006 0.22296
 C996 C 0.14202 0.77794 0.23721
 N997 N 0.13061 0.76286 0.23943
 N998 N 0.11627 0.76000 0.22783
 C999 C 0.09691 0.76899 0.20085
 N1000 N 0.08586 0.75360 0.20274
 N1001 N 0.07142 0.75080 0.19124
 C1002 C 0.06742 0.76327 0.17742
 N1003 N 0.07852 0.77865 0.17556
 N1004 N 0.09298 0.78146 0.18703
 C1005 C 0.28597 0.11276 0.22836
 N1006 N 0.28839 0.12422 0.21336
 N1007 N 0.27682 0.13857 0.21040
 C1008 C 0.26238 0.14197 0.22231
 N1009 N 0.25995 0.13052 0.23731
 N1010 N 0.27154 0.11618 0.24029
 C1011 C 0.29868 0.09687 0.23153
 N1012 N 0.29666 0.08573 0.24681
 N1013 N 0.30813 0.07125 0.24960
 C1014 C 0.32206 0.06733 0.23721
 N1015 N 0.32405 0.07854 0.22194
 N1016 N 0.31260 0.09303 0.21916
 C1017 C 0.78619 0.61293 0.72816
 N1018 N 0.78862 0.62441 0.71319
 N1019 N 0.77706 0.63877 0.71025
 C1020 C 0.76262 0.64216 0.72216
 N1021 N 0.76018 0.63068 0.73715
 N1022 N 0.77176 0.61633 0.74010
 C1023 C 0.79889 0.59704 0.73132
 N1024 N 0.79687 0.58588 0.74659
 N1025 N 0.80834 0.57142 0.74937
 C1026 C 0.82227 0.56752 0.73698
 N1027 N 0.82426 0.57873 0.72171
 N1028 N 0.81281 0.59322 0.71894
 C1029 C 0.78611 0.38717 0.77166
 N1030 N 0.78843 0.37576 0.78671
 N1031 N 0.77692 0.36133 0.78956
 C1032 C 0.76264 0.35779 0.77749
 N1033 N 0.76031 0.36921 0.76244
 N1034 N 0.77184 0.38363 0.75957
 C1035 C 0.79880 0.40311 0.76856
 N1036 N 0.79687 0.41420 0.75324
 N1037 N 0.80835 0.42869 0.75048
 C1038 C 0.82219 0.43268 0.76295
 N1039 N 0.82408 0.42153 0.77828
 N1040 N 0.81262 0.40703 0.78103
 C1041 C 0.28565 -0.11313 0.27209
 N1042 N 0.27118 -0.11653 0.26020
 N1043 N 0.25964 -0.13093 0.26312
 C1044 C 0.26214 -0.14250 0.27804
 N1045 N 0.27663 -0.13909 0.28991
 N1046 N 0.28815 -0.12468 0.28700
 C1047 C 0.29836 -0.09721 0.26893
 N1048 N 0.31231 -0.09337 0.28128
 N1049 N 0.32378 -0.07889 0.27848
 C1050 C 0.32179 -0.06768 0.26321
 N1051 N 0.30783 -0.07158 0.25085
 N1052 N 0.29633 -0.08605 0.25365
 C1053 C 0.21408 -0.11314 0.72807
 N1054 N 0.22840 -0.11665 0.74011
 N1055 N 0.23989 -0.13110 0.73726
 C1056 C 0.23748 -0.14260 0.72228
 N1057 N 0.22316 -0.13907 0.71025
 N1058 N 0.21169 -0.12461 0.71308
 C1059 C 0.20140 -0.09720 0.73117
 N1060 N 0.18756 -0.09330 0.71871
 N1061 N 0.17609 -0.07883 0.72147
 C1062 C 0.17796 -0.06769 0.73681
 N1063 N 0.19181 -0.07165 0.74927
 N1064 N 0.20331 -0.08610 0.74650
 C1065 C 0.71445 0.38724 0.22840
 N1066 N 0.71215 0.37586 0.21332
 N1067 N 0.72366 0.36144 0.21045
 C1068 C 0.73792 0.35789 0.22253
 N1069 N 0.74024 0.36927 0.23761
 N1070 N 0.72871 0.38368 0.24049
 C1071 C 0.70175 0.40314 0.23151
 N1072 N 0.70364 0.41422 0.24686
 N1073 N 0.69212 0.42865 0.24962
 C1074 C 0.67827 0.43259 0.23715
 N1075 N 0.67642 0.42145 0.22182
 N1076 N 0.68791 0.40701 0.21905
 C1077 C 0.71407 0.61279 0.27185
 N1078 N 0.71161 0.62427 0.28682
 N1079 N 0.72315 0.63866 0.28976
 C1080 C 0.73759 0.64208 0.27786
 N1081 N 0.74006 0.63060 0.26288
 N1082 N 0.72850 0.61622 0.25992
 C1083 C 0.70139 0.59687 0.26870
 N1084 N 0.70344 0.58570 0.25344
 N1085 N 0.69198 0.57121 0.25067
 C1086 C 0.67804 0.56729 0.26305
 N1087 N 0.67603 0.57851 0.27830
 N1088 N 0.68746 0.59302 0.28107
 C1089 C 0.21383 0.11286 0.77152
 N1090 N 0.21152 0.12427 0.78657
 N1091 N 0.22306 0.13869 0.78943
 C1092 C 0.23736 0.14220 0.77737
 N1093 N 0.23968 0.13079 0.76233
 N1094 N 0.22812 0.11639 0.75945
 C1095 C 0.20113 0.09693 0.76841
 N1096 N 0.20307 0.08585 0.75307
 N1097 N 0.19160 0.07136 0.75030
 C1098 C 0.17775 0.06736 0.76277
 N1099 N 0.17585 0.07850 0.77809
 N1100 N 0.18730 0.09300 0.78086
 C1101 C 0.22787 0.28698 0.11244
 N1102 N 0.21282 0.28923 0.12386
 N1103 N 0.21000 0.27767 0.13825
 C1104 C 0.22212 0.26342 0.14173
 N1105 N 0.23716 0.26115 0.13030
 N1106 N 0.23999 0.27273 0.11593
 C1107 C 0.23097 0.29971 0.09658
 N1108 N 0.24632 0.29781 0.08551
 N1109 N 0.24912 0.30934 0.07109
 C1110 C 0.23667 0.32320 0.06714
 N1111 N 0.22132 0.32507 0.07826
 N1112 N 0.21853 0.31356 0.09270
 C1113 C 0.72824 0.78723 0.61250
 N1114 N 0.74036 0.77298 0.61597
 N1115 N 0.73751 0.76138 0.63033
 C1116 C 0.72246 0.76364 0.64174
 N1117 N 0.71035 0.77790 0.63828
 N1118 N 0.71319 0.78948 0.62391
 C1119 C 0.73134 0.79997 0.59665
 N1120 N 0.71888 0.81381 0.59279
 N1121 N 0.72165 0.82531 0.57835
 C1122 C 0.73698 0.82344 0.56720
 N1123 N 0.74944 0.80959 0.57113
 N1124 N 0.74668 0.79807 0.58556
 C1125 C 0.77187 0.78725 0.38745
 N1126 N 0.78693 0.78953 0.37604
 N1127 N 0.78978 0.77796 0.36167
 C1128 C 0.77769 0.76367 0.35821
 N1129 N 0.76264 0.76138 0.36962
 N1130 N 0.75977 0.77297 0.38397
 C1131 C 0.76875 0.79998 0.40329
 N1132 N 0.75340 0.79804 0.41436
 N1133 N 0.75060 0.80956 0.42878
 C1134 C 0.76304 0.82345 0.43272
 N1135 N 0.77839 0.82535 0.42159
 N1136 N 0.78118 0.81385 0.40716
 C1137 C 0.27173 0.28701 -0.11274
 N1138 N 0.28684 0.28930 -0.12409
 N1139 N 0.28977 0.27774 -0.13845
 C1140 C 0.27771 0.26343 -0.14197
 N1141 N 0.26261 0.26113 -0.13062
 N1142 N 0.25967 0.27271 -0.11627
 C1143 C 0.26856 0.29975 -0.09688
 N1144 N 0.25319 0.29782 -0.08583
 N1145 N 0.25038 0.30933 -0.07139
 C1146 C 0.26284 0.32320 -0.06742
 N1147 N 0.27819 0.32509 -0.07853
 N1148 N 0.28099 0.31361 -0.09298
 C1149 C 0.72842 0.21301 -0.11257
 N1150 N 0.71332 0.21069 -0.12392
 N1151 N 0.71039 0.22225 -0.13829
 C1152 C 0.72243 0.23656 -0.14181
 N1153 N 0.73752 0.23889 -0.13046
 N1154 N 0.74047 0.22732 -0.11610
 C1155 C 0.73160 0.20029 -0.09670
 N1156 N 0.74696 0.20223 -0.08564
 N1157 N 0.74976 0.19074 -0.07119
 C1158 C 0.73732 0.17686 -0.06721
 N1159 N 0.72197 0.17495 -0.07833
 N1160 N 0.71917 0.18642 -0.09279
 C1161 C 0.22802 0.71307 0.38752
 N1162 N 0.21297 0.71084 0.37608
 N1163 N 0.21018 0.72245 0.36172
 C1164 C 0.22230 0.73673 0.35830
 N1165 N 0.23733 0.73896 0.36974
 N1166 N 0.24015 0.72734 0.38409
 C1167 C 0.23110 0.70031 0.40338
 N1168 N 0.24644 0.70220 0.41446
 N1169 N 0.24923 0.69066 0.42887
 C1170 C 0.23677 0.67678 0.43279
 N1171 N 0.22142 0.67492 0.42167
 N1172 N 0.21864 0.68645 0.40724
 C1173 C 0.27142 0.71303 0.61266
 N1174 N 0.25932 0.72731 0.61608
 N1175 N 0.26220 0.73899 0.63036
 C1176 C 0.27727 0.73680 0.64177
 N1177 N 0.28936 0.72250 0.63837
 N1178 N 0.28649 0.71084 0.62406
 C1179 C 0.26833 0.70023 0.59683
 N1180 N 0.28080 0.68640 0.59300
 N1181 N 0.27808 0.67488 0.57856
 C1182 C 0.26276 0.67671 0.56739
 N1183 N 0.25027 0.69055 0.57130
 N1184 N 0.25300 0.70209 0.58572
 C1185 C 0.77241 0.21294 0.11274
 N1186 N 0.78747 0.21067 0.12415
 N1187 N 0.79033 0.22225 0.13852
 C1188 C 0.77824 0.23653 0.14198
 N1189 N 0.76319 0.23881 0.13057
 N1190 N 0.76032 0.22721 0.11622
 C1191 C 0.76928 0.20022 0.09687
 N1192 N 0.75394 0.20216 0.08581
 N1193 N 0.75113 0.19066 0.07137
 C1194 C 0.76356 0.17678 0.06741
 N1195 N 0.77891 0.17488 0.07852
 N1196 N 0.78172 0.18636 0.09298
 C1197 C 0.47808 0.36230 0.53662
 N1198 N 0.49023 0.36580 0.52240
 N1199 N 0.48739 0.38014 0.51078
 C1200 C 0.47231 0.39154 0.51296
 N1201 N 0.46017 0.38806 0.52719
 N1202 N 0.46299 0.37370 0.53880
 C1203 C 0.48119 0.34643 0.54939
 N1204 N 0.46871 0.34251 0.56320
 N1205 N 0.47151 0.32808 0.57472
 C1206 C 0.48690 0.31699 0.57291
 N1207 N 0.49938 0.32098 0.55908
 N1208 N 0.49658 0.33539 0.54754
 C1209 C -0.02204 0.86268 0.03654
 N1210 N -0.00980 0.86625 0.02242
 N1211 N -0.01265 0.88056 0.01076
 C1212 C -0.02784 0.89183 0.01281
 N1213 N -0.04007 0.88828 0.02695
 N1214 N -0.03723 0.87396 0.03859
 C1215 C -0.01894 0.84682 0.04928
 N1216 N -0.03148 0.84279 0.06300
 N1217 N -0.02869 0.82831 0.07445
 C1218 C -0.01326 0.81729 0.07266
 N1219 N -0.00072 0.82139 0.05893
 N1220 N -0.00350 0.83586 0.04745
 C1221 C 0.02210 0.63734 0.03657
 N1222 N 0.03730 0.62608 0.03862
 N1223 N 0.04014 0.61176 0.02698
 C1224 C 0.02791 0.60821 0.01284
 N1225 N 0.01271 0.61947 0.01080
 N1226 N 0.00985 0.63377 0.02245
 C1227 C 0.01899 0.65320 0.04931
 N1228 N 0.00355 0.66417 0.04750
 N1229 N 0.00077 0.67863 0.05897
 C1230 C 0.01333 0.68273 0.07270
 N1231 N 0.02876 0.67171 0.07448
 N1232 N 0.03154 0.65723 0.06302
 C1233 C 0.52219 0.13738 0.53668
 N1234 N 0.53726 0.12596 0.53882
 N1235 N 0.54005 0.11162 0.52718
 C1236 C 0.52789 0.10820 0.51295
 N1237 N 0.51283 0.11962 0.51080
 N1238 N 0.51002 0.13394 0.52245
 C1239 C 0.51910 0.15322 0.54947
 N1240 N 0.50372 0.16426 0.54764
 N1241 N 0.50093 0.17867 0.55919
 C1242 C 0.51342 0.18263 0.57302
 N1243 N 0.52880 0.17154 0.57482
 N1244 N 0.53159 0.15711 0.56328
 C1245 C -0.02239 0.13753 0.46331
 N1246 N -0.03745 0.12608 0.46115
 N1247 N -0.04021 0.11171 0.47278
 C1248 C -0.02803 0.10831 0.48699
 N1249 N -0.01297 0.11975 0.48913
 N1250 N -0.01019 0.13409 0.47750
 C1251 C -0.01933 0.15338 0.45055
 N1252 N -0.00396 0.16444 0.45241
 N1253 N -0.00119 0.17888 0.44091
 C1254 C -0.01368 0.18286 0.42710
 N1255 N -0.02904 0.17173 0.42525
 N1256 N -0.03181 0.15727 0.43674
 C1257 C 0.47806 0.63744 0.96354
 N1258 N 0.46297 0.62602 0.96138
 N1259 N 0.46016 0.61167 0.97301
 C1260 C 0.47231 0.60824 0.98724
 N1261 N 0.48739 0.61966 0.98940
 N1262 N 0.49022 0.63399 0.97776
 C1263 C 0.48115 0.65329 0.95077
 N1264 N 0.49653 0.66435 0.95261
 N1265 N 0.49931 0.67878 0.94108
 C1266 C 0.48681 0.68275 0.92726
 N1267 N 0.47144 0.67163 0.92545
 N1268 N 0.46866 0.65718 0.93697
 C1269 C 0.52204 0.86260 0.96356
 N1270 N 0.50990 0.86606 0.97779
 N1271 N 0.51274 0.88038 0.98943
 C1272 C 0.52782 0.89179 0.98726
 N1273 N 0.53996 0.88836 0.97302
 N1274 N 0.53714 0.87401 0.96139
 C1275 C 0.51892 0.84675 0.95078
 N1276 N 0.53140 0.84285 0.93697
 N1277 N 0.52859 0.82841 0.92546
 C1278 C 0.51320 0.81731 0.92729
 N1279 N 0.50073 0.82129 0.94111
 N1280 N 0.50354 0.83571 0.95264
 C1281 C 0.02180 0.36272 0.46321
 N1282 N 0.00956 0.36629 0.47732
 N1283 N 0.01243 0.38058 0.48899
 C1284 C 0.02764 0.39184 0.48696
 N1285 N 0.03988 0.38830 0.47283
 N1286 N 0.03702 0.37399 0.46117
 C1287 C 0.01868 0.34687 0.45046
 N1288 N 0.03122 0.34286 0.43675
 N1289 N 0.02843 0.32838 0.42528
 C1290 C 0.01298 0.31736 0.42706
 N1291 N 0.00043 0.32145 0.44079
 N1292 N 0.00323 0.33591 0.45227
 C1293 C 0.36251 0.53555 0.47824
 N1294 N 0.37388 0.53790 0.46317
 N1295 N 0.38830 0.52640 0.46027
 C1296 C 0.39186 0.51212 0.47233
 N1297 N 0.38049 0.50976 0.48740
 N1298 N 0.36608 0.52128 0.49031
 C1299 C 0.34659 0.54823 0.48136
 N1300 N 0.33551 0.54631 0.49670
 N1301 N 0.32106 0.55781 0.49947
 C1302 C 0.31710 0.57167 0.48700
 N1303 N 0.32824 0.57354 0.47167
 N1304 N 0.34270 0.56207 0.46891
 C1305 C 0.86282 0.03595 -0.02158
 N1306 N 0.87436 0.03848 -0.03649
 N1307 N 0.88870 0.02692 -0.03945
 C1308 C 0.89201 0.01239 -0.02764
 N1309 N 0.88048 0.00985 -0.01272
 N1310 N 0.86614 0.02143 -0.00974
 C1311 C 0.84696 0.04865 -0.01842
 N1312 N 0.83568 0.04651 -0.00327
 N1313 N 0.82122 0.05800 -0.00050
 C1314 C 0.81747 0.07205 -0.01280
 N1315 N 0.82881 0.07416 -0.02795
 N1316 N 0.84327 0.06270 -0.03070
 C1317 C 0.63768 0.03576 0.02199
 N1318 N 0.63409 0.02148 0.00991
 N1319 N 0.61966 0.00996 0.01283
 C1320 C 0.60831 0.01232 0.02792
 N1321 N 0.61189 0.02660 0.03997
 N1322 N 0.62632 0.03810 0.03707
 C1323 C 0.65360 0.04843 0.01885
 N1324 N 0.65751 0.06227 0.03129
 N1325 N 0.67198 0.07375 0.02852
 C1326 C 0.68311 0.07187 0.01318
 N1327 N 0.67913 0.05801 0.00072
 N1328 N 0.66467 0.04651 0.00350
 C1329 C 0.13725 0.53585 0.52156
 N1330 N 0.13392 0.52134 0.50970
 N1331 N 0.11955 0.50976 0.51265
 C1332 C 0.10801 0.51230 0.52756
 N1333 N 0.11133 0.52682 0.53939
 N1334 N 0.12570 0.53838 0.53646
 C1335 C 0.15314 0.54854 0.51843
 N1336 N 0.15684 0.56257 0.53073
 N1337 N 0.17134 0.57402 0.52800
 C1338 C 0.18270 0.57191 0.51286
 N1339 N 0.17892 0.55787 0.50055
 N1340 N 0.16444 0.54640 0.50329
 C1341 C 0.13729 0.46411 -0.02168
 N1342 N 0.12574 0.46158 -0.03658
 N1343 N 0.11139 0.47315 -0.03953
 C1344 C 0.10809 0.48767 -0.02770
 N1345 N 0.11963 0.49020 -0.01278
 N1346 N 0.13397 0.47862 -0.00982
 C1347 C 0.15315 0.45141 -0.01854
 N1348 N 0.16444 0.45354 -0.00338
 N1349 N 0.17890 0.44206 -0.00063
 C1350 C 0.18266 0.42801 -0.01294
 N1351 N 0.17131 0.42591 -0.02808
 N1352 N 0.15683 0.43737 -0.03083
 C1353 C 0.63748 0.96430 0.47816
 N1354 N 0.62605 0.96188 0.46316
 N1355 N 0.61164 0.97338 0.46025
 C1356 C 0.60817 0.98774 0.47222
 N1357 N 0.61961 0.99019 0.48723
 N1358 N 0.63401 0.97866 0.49015
 C1359 C 0.65337 0.95164 0.48130
 N1360 N 0.66456 0.95370 0.49654
 N1361 N 0.67901 0.94221 0.49931
 C1362 C 0.68285 0.92823 0.48695
 N1363 N 0.67160 0.92622 0.47172
 N1364 N 0.65714 0.93768 0.46895
 C1365 C 0.86239 0.96441 0.52165
 N1366 N 0.86589 0.97877 0.50966
 N1367 N 0.88031 0.99027 0.51258
 C1368 C 0.89175 0.98781 0.52758
 N1369 N 0.88827 0.97343 0.53954
 N1370 N 0.87384 0.96195 0.53664
 C1371 C 0.84650 0.95174 0.51851
 N1372 N 0.84273 0.93778 0.53086
 N1373 N 0.82826 0.92631 0.52811
 C1374 C 0.81700 0.92832 0.51289
 N1375 N 0.82085 0.94229 0.50052
 N1376 N 0.83531 0.95379 0.50328
 C1377 C 0.36250 0.46426 0.02189
 N1378 N 0.37385 0.46190 0.03697
 N1379 N 0.38829 0.47339 0.03989
 C1380 C 0.39188 0.48768 0.02785
 N1381 N 0.38052 0.49006 0.01277
 N1382 N 0.36610 0.47854 0.00983
 C1383 C 0.34658 0.45159 0.01873
 N1384 N 0.33551 0.45354 0.00339
 N1385 N 0.32105 0.44205 0.00059
 C1386 C 0.31706 0.42818 0.01303
 N1387 N 0.32818 0.42627 0.02837
 N1388 N 0.34265 0.43774 0.03116
 C1389 C 0.53692 0.47799 0.36254
 N1390 N 0.52264 0.49007 0.36602
 N1391 N 0.51105 0.48719 0.38038
 C1392 C 0.51333 0.47213 0.39179
 N1393 N 0.52762 0.46006 0.38833
 N1394 N 0.53919 0.46293 0.37396
 C1395 C 0.54966 0.48111 0.34668
 N1396 N 0.56351 0.46866 0.34282
 N1397 N 0.57502 0.47144 0.32838
 C1398 C 0.57316 0.48677 0.31724
 N1399 N 0.55929 0.49922 0.32116
 N1400 N 0.54776 0.49644 0.33558
 C1401 C 0.03669 -0.02181 0.86225
 N1402 N 0.02244 -0.00971 0.86578
 N1403 N 0.01091 -0.01257 0.88018
 C1404 C 0.01322 -0.02763 0.89159
 N1405 N 0.02748 -0.03972 0.88807
 N1406 N 0.03899 -0.03687 0.87365
 C1407 C 0.04939 -0.01872 0.84635
 N1408 N 0.06322 -0.03119 0.84249
 N1409 N 0.07471 -0.02844 0.82804
 C1410 C 0.07286 -0.01311 0.81688
 N1411 N 0.05902 -0.00063 0.82081
 N1412 N 0.04750 -0.00338 0.83525
 C1413 C 0.03653 0.02195 0.63753
 N1414 N 0.02224 0.00988 0.63400
 N1415 N 0.01068 0.01279 0.61963
 C1416 C 0.01301 0.02787 0.60825
 N1417 N 0.02730 0.03994 0.61177
 N1418 N 0.03884 0.03704 0.62616
 C1419 C 0.04925 0.01879 0.65340
 N1420 N 0.06311 0.03123 0.65728
 N1421 N 0.07464 0.02840 0.67169
 C1422 C 0.07278 0.01302 0.68278
 N1423 N 0.05888 0.00058 0.67883
 N1424 N 0.04734 0.00342 0.66444
 C1425 C 0.53698 0.52182 0.13758
 N1426 N 0.52269 0.50972 0.13408
 N1427 N 0.51111 0.51261 0.11973
 C1428 C 0.51340 0.52768 0.10833
 N1429 N 0.52769 0.53976 0.11182
 N1430 N 0.53925 0.53690 0.12619
 C1431 C 0.54971 0.51869 0.15344
 N1432 N 0.56357 0.53114 0.15733
 N1433 N 0.57507 0.52834 0.17176
 C1434 C 0.57321 0.51297 0.18286
 N1435 N 0.55934 0.50052 0.17891
 N1436 N 0.54781 0.50332 0.16450
 C1437 C 0.46321 -0.02186 0.13769
 N1438 N 0.46092 -0.03692 0.12627
 N1439 N 0.47249 -0.03977 0.11190
 C1440 C 0.48679 -0.02769 0.10843
 N1441 N 0.48908 -0.01263 0.11984
 N1442 N 0.47749 -0.00976 0.13420
 C1443 C 0.45046 -0.01877 0.15356
 N1444 N 0.45235 -0.00343 0.16466
 N1445 N 0.44081 -0.00068 0.17908
 C1446 C 0.42694 -0.01315 0.18299
 N1447 N 0.42509 -0.02849 0.17184
 N1448 N 0.43661 -0.03124 0.15741
 C1449 C 0.96323 0.47820 0.63750
 N1450 N 0.96089 0.46313 0.62610
 N1451 N 0.97239 0.46026 0.61169
 C1452 C 0.98668 0.47233 0.60816
 N1453 N 0.98904 0.48739 0.61956
 N1454 N 0.97751 0.49028 0.63396
 C1455 C 0.95054 0.48133 0.65338
 N1456 N 0.95249 0.49668 0.66445
 N1457 N 0.94098 0.49948 0.67888
 C1458 C 0.92710 0.48704 0.68283
 N1459 N 0.92520 0.47169 0.67171
 N1460 N 0.93668 0.46890 0.65726
 C1461 C 0.96334 0.52191 0.86234
 N1462 N 0.96104 0.53697 0.87375
 N1463 N 0.97256 0.53981 0.88816
 C1464 C 0.98682 0.52772 0.89166
 N1465 N 0.98914 0.51267 0.88025
 N1466 N 0.97759 0.50981 0.86586
 C1467 C 0.95064 0.51880 0.84646
 N1468 N 0.95254 0.50346 0.83537
 N1469 N 0.94102 0.50069 0.82095
 C1470 C 0.92716 0.51315 0.81702
 N1471 N 0.92530 0.52848 0.82816
 N1472 N 0.93680 0.53125 0.84260
 C1473 C 0.46326 0.02181 0.36244
 N1474 N 0.47754 0.00973 0.36594
 N1475 N 0.48911 0.01262 0.38032
 C1476 C 0.48680 0.02767 0.39172
 N1477 N 0.47251 0.03974 0.38823
 N1478 N 0.46097 0.03687 0.37384
 C1479 C 0.45053 0.01867 0.34656
 N1480 N 0.43667 0.03111 0.34270
 N1481 N 0.42515 0.02831 0.32829
 C1482 C 0.42700 0.01295 0.31717
 N1483 N 0.44088 0.00051 0.32109
 N1484 N 0.45243 0.00332 0.33549
   
