data_POSCAR
  _audit_creation_date              2014-09-24
  _audit_creation_method            'ToBaCCo'
  _symmetry_space_group_name_H-M    'P1'
  _symmetry_Int_Tables_number       1
  _symmetry_cell_setting            triclinic
  loop_
  _symmetry_equiv_pos_as_xyz
 x,y,z
_cell_length_a 72.1045
_cell_length_b 73.2604
_cell_length_c 72.5847
_cell_angle_alpha 90.048300
_cell_angle_beta 89.946700
_cell_angle_gamma 90.266100
loop_
  _atom_site_label
  _atom_site_type_symbol
  _atom_site_fract_x
  _atom_site_fract_y
  _atom_site_fract_z
N1 N 0.34161 0.40428 0.90349
 N2 N 0.40655 0.84704 0.40372
 N3 N 0.91050 0.90771 0.84279
 N4 N 0.40961 -0.09155 0.34071
 N5 N 0.84297 0.34556 0.34480
 N6 N -0.15418 0.84558 0.84499
 N7 N 0.90389 0.34841 0.40444
 N8 N 0.40295 0.40283 0.84394
 N9 N 0.84429 0.90487 0.90765
 N10 N 0.34705 0.84747 0.34481
 N11 N 0.84252 0.40694 0.40664
 N12 N 0.91020 0.84292 -0.09116
 N13 N 0.34078 0.34201 0.84094
 N14 N 0.15634 0.59646 0.59311
 N15 N 0.59178 0.65589 0.09238
 N16 N 0.66018 0.15633 0.66071
 N17 N 1.08701 0.08953 0.16439
 N18 N 0.09310 0.15562 1.09635
 N19 N 0.15673 0.65443 0.65450
 N20 N 1.16041 0.15930 0.16247
 N21 N 0.65853 1.09423 0.59551
 N22 N 0.58798 0.58995 0.16072
 N23 N 0.65865 0.65651 0.15929
 N24 N 0.15536 0.09538 1.09719
 N25 N 0.59705 0.15304 0.59742
 N26 N 0.09514 0.59690 0.65436
 N27 N 0.65605 0.59145 0.09246
 N28 N 0.09501 0.65639 0.59319
 N29 N 0.59238 1.09061 0.66097
 N30 N 0.40262 0.34616 0.90323
 N31 N 0.90541 0.40503 0.34351
 N32 N 0.34582 0.90405 0.40494
 O33 O 0.20019 0.52266 0.74541
 O34 O 0.20538 0.51917 0.77830
 O35 O 0.24842 0.54892 0.72614
 O36 O 0.27960 0.54452 0.72819
 O37 O 0.22714 0.50279 0.69830
 O38 O 0.22966 0.47013 0.70338
 O39 O 0.29642 0.49683 0.77433
 O40 O 0.29186 0.52918 0.77142
 O41 O 0.24958 0.47361 0.79474
 O42 O 0.21588 0.47532 0.78727
 O43 O 0.27455 0.45259 0.74878
 O44 O 0.27330 0.46001 0.71501
 O45 O 0.29770 0.47613 0.75092
 O46 O 0.29285 0.48050 0.71653
 O47 O 0.25158 0.45139 0.77032
 O48 O 0.21682 0.45694 0.76589
 O49 O 0.27192 0.49563 0.79652
 O50 O 0.26858 0.52960 0.79196
 O51 O 0.20119 0.50151 0.72231
 O52 O 0.20806 0.46880 0.72368
 O53 O 0.24912 0.52524 0.70011
 O54 O 0.28255 0.52156 0.70781
 O55 O 0.22507 0.54767 0.74737
 O56 O 0.22636 0.53985 0.78012
 Zr57 Zr 0.22642 0.52097 0.75808
 O58 O 0.24210 0.50425 0.77568
 Zr59 Zr 0.26029 0.52272 0.72684
 O60 O 0.27767 0.50634 0.74325
 Zr61 Zr 0.22791 0.49012 0.72432
 O62 O 0.24392 0.47212 0.74030
 Zr63 Zr 0.27045 0.50935 0.77113
 O64 O 0.25475 0.52768 0.75496
 Zr65 Zr 0.23816 0.47676 0.76829
 O66 O 0.22052 0.49335 0.75222
 Zr67 Zr 0.27216 0.47876 0.73719
 O68 O 0.25624 0.49521 0.71928
 O69 O 0.23230 0.51741 0.73040
 O70 O 0.26626 0.48199 0.76498
 C71 C 0.19328 0.51443 0.73133
 C72 C 0.23440 0.55572 0.73463
 C73 C 0.23593 0.51668 0.69184
 C74 C 0.30418 0.48373 0.76551
 C75 C 0.26310 0.48174 0.80285
 C76 C 0.26587 0.44487 0.76211
 H77 H 0.23851 0.50649 0.78861
 H78 H 0.24130 0.45935 0.73670
 H79 H 0.22460 0.52545 0.72266
 H80 H 0.29085 0.50955 0.74125
 H81 H 0.28666 0.54035 0.76580
 H82 H 0.29061 0.54008 0.73493
 H83 H 0.22045 0.44817 0.75618
 H84 H 0.20121 0.46941 0.73549
 H85 H 0.25821 0.52635 0.80027
 H86 H 0.23843 0.54633 0.77965
 H87 H 0.26272 0.45147 0.71629
 H88 H 0.24217 0.47137 0.69789
 H89 H 0.19939 0.50710 0.77666
 H90 H 0.21699 0.48587 0.79571
 H91 H 0.28049 0.51061 0.70006
 H92 H 0.30154 0.49040 0.72000
 O93 O 0.19912 0.01952 0.24789
 O94 O 0.20384 0.01525 0.28059
 O95 O 0.24651 0.04985 0.23128
 O96 O 0.27765 0.04700 0.23326
 O97 O 0.22866 0.00354 0.20045
 O98 O 0.23303 -0.02895 0.20428
 O99 O 0.29650 -0.00074 0.27767
 O100 O 0.28928 0.03103 0.27667
 O101 O 0.25072 -0.02853 0.29608
 O102 O 0.21672 -0.02780 0.28794
 O103 O 0.27795 -0.04562 0.25069
 O104 O 0.27671 -0.03719 0.21684
 O105 O 0.29956 -0.02054 0.25364
 O106 O 0.29507 -0.01583 0.21957
 O107 O 0.25399 -0.04938 0.27083
 O108 O 0.21939 -0.04556 0.26618
 O109 O 0.27188 -0.00556 0.29919
 O110 O 0.26557 0.02855 0.29655
 O111 O 0.20204 -0.00056 0.22402
 O112 O 0.21116 -0.03253 0.22375
 O113 O 0.24914 0.02712 0.20384
 O114 O 0.28243 0.02533 0.21239
 O115 O 0.22275 0.04626 0.25177
 O116 O 0.22319 0.03690 0.28386
 Zr117 Zr 0.22520 0.01912 0.26100
 O118 O 0.24149 0.00267 0.27834
 Zr119 Zr 0.25963 0.02426 0.23078
 O120 O 0.27760 0.00827 0.24694
 Zr121 Zr 0.22950 -0.01005 0.22600
 O122 O 0.24618 -0.02773 0.24168
 Zr123 Zr 0.26956 0.00966 0.27473
 O124 O 0.25312 0.02763 0.25892
 Zr125 Zr 0.23943 -0.02463 0.26968
 O126 O 0.22123 -0.00850 0.25380
 Zr127 Zr 0.27405 -0.01934 0.23965
 O128 O 0.25759 -0.00309 0.22201
 O129 O 0.23186 0.01725 0.23328
 O130 O 0.26726 -0.01761 0.26735
 C131 C 0.19296 0.01121 0.23352
 C132 C 0.23212 0.05556 0.23996
 C133 C 0.23694 0.01802 0.19471
 C134 C 0.30537 -0.01283 0.26845
 C135 C 0.26386 -0.02027 0.30464
 C136 C 0.26910 -0.05455 0.26314
 H137 H 0.23750 0.00412 0.29128
 H138 H 0.24445 -0.04046 0.23750
 H139 H 0.22385 0.02517 0.22573
 H140 H 0.29057 0.01240 0.24536
 H141 H 0.28335 0.04204 0.27146
 H142 H 0.28837 0.04314 0.24077
 H143 H 0.22331 -0.05324 0.25567
 H144 H 0.20414 -0.03309 0.23546
 H145 H 0.25623 0.02347 0.30514
 H146 H 0.23508 0.04367 0.28448
 H147 H 0.26716 -0.04685 0.21804
 H148 H 0.24574 -0.02701 0.19947
 H149 H 0.19893 0.00277 0.27859
 H150 H 0.21778 -0.01831 0.29759
 H151 H 0.28137 0.01458 0.20418
 H152 H 0.30254 -0.00502 0.22311
 O153 O 0.55103 0.73086 0.24433
 O154 O 0.54708 0.73539 0.27710
 O155 O 0.50275 0.70134 0.22886
 O156 O 0.47169 0.70477 0.23166
 O157 O 0.52080 0.74707 0.19748
 O158 O 0.51714 0.77972 0.20128
 O159 O 0.45491 0.75341 0.27646
 O160 O 0.46112 0.72132 0.27490
 O161 O 0.50099 0.78025 0.29335
 O162 O 0.53513 0.77850 0.28469
 O163 O 0.47396 0.79776 0.24809
 O164 O 0.47371 0.78869 0.21469
 O165 O 0.45183 0.77333 0.25258
 O166 O 0.45509 0.76765 0.21820
 O167 O 0.49826 0.80106 0.26787
 O168 O 0.53245 0.79641 0.26312
 O169 O 0.48004 0.75721 0.29729
 O170 O 0.48532 0.72315 0.29434
 O171 O 0.54799 0.75082 0.22041
 O172 O 0.53956 0.78292 0.22017
 O173 O 0.49989 0.72394 0.20141
 O174 O 0.46688 0.72646 0.21071
 O175 O 0.52697 0.70461 0.24882
 O176 O 0.52739 0.71413 0.28089
 Zr177 Zr 0.52524 0.73183 0.25801
 O178 O 0.50964 0.74866 0.27565
 Zr179 Zr 0.49007 0.72717 0.22859
 O180 O 0.47276 0.74361 0.24508
 Zr181 Zr 0.52079 0.76085 0.22298
 O182 O 0.50482 0.77892 0.23897
 Zr183 Zr 0.48138 0.74217 0.27267
 O184 O 0.49714 0.72381 0.25658
 Zr185 Zr 0.51204 0.77588 0.26685
 O186 O 0.52958 0.75933 0.25060
 Zr187 Zr 0.47674 0.77110 0.23760
 O188 O 0.49249 0.75443 0.21966
 O189 O 0.51802 0.73366 0.23044
 O190 O 0.48406 0.76938 0.26515
 C191 C 0.55703 0.73895 0.22978
 C192 C 0.51720 0.69541 0.23724
 C193 C 0.51208 0.73273 0.19198
 C194 C 0.44626 0.76590 0.26762
 C195 C 0.48813 0.77200 0.30237
 C196 C 0.48330 0.80664 0.26022
 H197 H 0.51387 0.74720 0.28850
 H198 H 0.50675 0.79158 0.23466
 H199 H 0.52572 0.72554 0.22273
 H200 H 0.45966 0.73977 0.24386
 H201 H 0.46670 0.71013 0.26968
 H202 H 0.46105 0.70897 0.23912
 H203 H 0.52899 0.80363 0.25215
 H204 H 0.54683 0.78342 0.23172
 H205 H 0.49533 0.72773 0.30243
 H206 H 0.51544 0.70748 0.28172
 H207 H 0.48404 0.79762 0.21497
 H208 H 0.50443 0.77774 0.19652
 H209 H 0.55206 0.74783 0.27506
 H210 H 0.53361 0.76956 0.29480
 H211 H 0.46789 0.73726 0.20257
 H212 H 0.44706 0.75754 0.22250
 O213 O 0.05163 0.72913 0.74584
 O214 O 0.04693 0.73284 0.77874
 O215 O 0.00370 0.70173 0.72757
 O216 O -0.02756 0.70547 0.73038
 O217 O 0.02332 0.74800 0.69896
 O218 O 0.02046 0.78059 0.70384
 O219 O -0.04461 0.75319 0.77633
 O220 O -0.03932 0.72104 0.77374
 O221 O 0.00187 0.77802 0.79539
 O222 O 0.03569 0.77645 0.78753
 O223 O -0.02393 0.79784 0.74978
 O224 O -0.02348 0.78993 0.71623
 O225 O -0.04662 0.77390 0.75302
 O226 O -0.04248 0.76900 0.71843
 O227 O -0.00041 0.79982 0.77064
 O228 O 0.03418 0.79463 0.76610
 O229 O -0.01989 0.75550 0.79790
 O230 O -0.01550 0.72137 0.79370
 O231 O 0.04976 0.74985 0.72244
 O232 O 0.04234 0.78250 0.72372
 O233 O 0.00185 0.72513 0.70139
 O234 O -0.03146 0.72815 0.70984
 O235 O 0.02734 0.70368 0.74839
 O236 O 0.02636 0.71182 0.78115
 Zr237 Zr 0.02558 0.73044 0.75893
 O238 O 0.00991 0.74707 0.77669
 Zr239 Zr -0.00879 0.72766 0.72836
 O240 O -0.02620 0.74388 0.74499
 Zr241 Zr 0.02289 0.76086 0.72491
 O242 O 0.00679 0.77871 0.74101
 Zr243 Zr -0.01839 0.74133 0.77274
 O244 O -0.00264 0.72312 0.75642
 Zr245 Zr 0.01317 0.77452 0.76892
 O246 O 0.03085 0.75809 0.75268
 Zr247 Zr -0.02139 0.77150 0.73857
 O248 O -0.00544 0.75517 0.72050
 O249 O 0.01915 0.73356 0.73133
 O250 O -0.01488 0.76870 0.76624
 C251 C 0.05807 0.73721 0.73147
 C252 C 0.01801 0.69532 0.73585
 C253 C 0.01463 0.73394 0.69275
 C254 C -0.05273 0.76618 0.76771
 C255 C -0.01141 0.76979 0.80379
 C256 C -0.01494 0.80601 0.76265
 H257 H 0.01375 0.74506 0.78958
 H258 H 0.00909 0.79146 0.73720
 H259 H 0.02685 0.72562 0.72347
 H260 H -0.03935 0.74038 0.74329
 H261 H -0.03399 0.70991 0.76812
 H262 H -0.03852 0.70976 0.73732
 H263 H 0.03064 0.80280 0.75586
 H264 H 0.04955 0.78201 0.73531
 H265 H -0.00552 0.72534 0.80216
 H266 H 0.01446 0.70504 0.78091
 H267 H -0.01284 0.79847 0.71695
 H268 H 0.00786 0.77914 0.69864
 H269 H 0.05247 0.74511 0.77706
 H270 H 0.03453 0.76633 0.79647
 H271 H -0.02986 0.73910 0.70201
 H272 H -0.05112 0.75926 0.72244
 O273 O 0.05091 0.01971 0.00608
 O274 O 0.04764 0.01487 -0.02685
 O275 O 0.00376 0.04969 0.02100
 O276 O -0.02751 0.04726 0.01613
 O277 O 0.01889 0.00398 0.05234
 O278 O 0.01499 -0.02868 0.04845
 O279 O -0.04497 -0.00150 -0.02797
 O280 O -0.03788 0.03033 -0.02666
 O281 O 0.00159 -0.02880 -0.04413
 O282 O 0.03481 -0.02858 -0.03423
 O283 O -0.02753 -0.04620 0.00139
 O284 O -0.02871 -0.03661 0.03435
 O285 O -0.04929 -0.02102 -0.00392
 O286 O -0.04648 -0.01552 0.03028
 O287 O -0.00311 -0.05001 -0.01812
 O288 O 0.03108 -0.04585 -0.01265
 O289 O -0.01866 -0.00547 -0.04872
 O290 O -0.01361 0.02805 -0.04553
 O291 O 0.04672 0.00035 0.03036
 O292 O 0.03788 -0.03200 0.02998
 O293 O -0.00131 0.02744 0.04782
 O294 O -0.03388 0.02577 0.03760
 O295 O 0.02828 0.04594 0.00146
 O296 O 0.02840 0.03667 -0.03098
 Zr297 Zr 0.02552 0.01894 -0.00818
 O298 O 0.00994 0.00222 -0.02601
 Zr299 Zr -0.01022 0.02438 0.02034
 O300 O -0.02754 0.00812 0.00358
 Zr301 Zr 0.01949 -0.00982 0.02687
 O302 O 0.00337 -0.02769 0.01066
 Zr303 Zr -0.01822 0.00919 -0.02382
 O304 O -0.00237 0.02746 -0.00750
 Zr305 Zr 0.01134 -0.02501 -0.01707
 O306 O 0.02898 -0.00861 -0.00057
 Zr307 Zr -0.02451 -0.01938 0.01132
 O308 O -0.00872 -0.00288 0.02949
 O309 O 0.01750 0.01727 0.01918
 O310 O -0.01659 -0.01811 -0.01619
 C311 C 0.05619 0.01212 0.02112
 C312 C 0.01889 0.05510 0.01331
 C313 C 0.01035 0.01845 0.05758
 C314 C -0.05440 -0.01346 -0.01902
 C315 C -0.01038 -0.02011 -0.05377
 C316 C -0.01814 -0.05543 -0.01035
 H317 H 0.01461 0.00356 -0.03873
 H318 H 0.00485 -0.04033 0.01513
 H319 H 0.02515 0.02513 0.02722
 H320 H -0.04054 0.01222 0.00450
 H321 H -0.03222 0.04144 -0.02122
 H322 H -0.03852 0.04304 0.00918
 H323 H 0.02726 -0.05277 -0.00157
 H324 H 0.04565 -0.03228 0.01874
 H325 H -0.00230 0.02438 -0.05226
 H326 H 0.01692 0.04401 -0.03150
 H327 H -0.01839 -0.04545 0.03470
 H328 H 0.00226 -0.02649 0.05304
 H329 H 0.05262 0.00257 -0.02425
 H330 H 0.03485 -0.01866 -0.04346
 H331 H -0.03356 0.01491 0.04570
 H332 H -0.05390 -0.00502 0.02602
 O333 O 0.00135 0.55176 0.52101
 O334 O -0.03177 0.54608 0.51824
 O335 O 0.02170 0.50573 0.54877
 O336 O 0.01978 0.47486 0.54550
 O337 O 0.04868 0.52510 0.50097
 O338 O 0.04293 0.52132 0.46823
 O339 O -0.02736 0.45571 0.49876
 O340 O -0.02388 0.46151 0.53117
 O341 O -0.04872 0.50054 0.47412
 O342 O -0.04150 0.53383 0.47452
 O343 O -0.00258 0.47579 0.45296
 O344 O 0.03153 0.47779 0.45982
 O345 O -0.00410 0.45395 0.47756
 O346 O 0.03052 0.45937 0.48114
 O347 O -0.02450 0.49801 0.45133
 O348 O -0.02029 0.53250 0.45566
 O349 O -0.04993 0.47942 0.49712
 O350 O -0.04474 0.48418 0.53120
 O351 O 0.02425 0.55025 0.49932
 O352 O 0.02229 0.54223 0.46659
 O353 O 0.04748 0.50435 0.52438
 O354 O 0.03989 0.47125 0.52208
 O355 O 0.00006 0.52831 0.54710
 O356 O -0.03305 0.52625 0.53984
 Zr357 Zr -0.01120 0.52574 0.52041
 O358 O -0.02906 0.50940 0.50441
 Zr359 Zr 0.02060 0.49295 0.52280
 O360 O 0.00394 0.47496 0.50717
 Zr361 Zr 0.02223 0.52352 0.48874
 O362 O 0.00599 0.50681 0.47144
 Zr363 Zr -0.02414 0.48179 0.51046
 O364 O -0.00768 0.49820 0.52811
 Zr365 Zr -0.02216 0.51227 0.47642
 O366 O -0.00586 0.53052 0.49226
 Zr367 Zr 0.00951 0.47936 0.47906
 O368 O 0.02767 0.49593 0.49478
 O369 O 0.01666 0.52021 0.51653
 O370 O -0.01846 0.48489 0.48261
 C371 C 0.01538 0.55837 0.51230
 C372 C 0.01313 0.51966 0.55531
 C373 C 0.05557 0.51703 0.51509
 C374 C -0.01862 0.44769 0.48566
 C375 C -0.05662 0.48745 0.48292
 C376 C -0.01620 0.48383 0.44509
 H377 H -0.04208 0.51284 0.50678
 H378 H 0.00936 0.50892 0.45841
 H379 H 0.02456 0.52818 0.52422
 H380 H 0.00614 0.46216 0.51083
 H381 H -0.01809 0.46715 0.54217
 H382 H 0.01301 0.46377 0.54154
 H383 H -0.01063 0.52871 0.44678
 H384 H 0.01036 0.54883 0.46721
 H385 H -0.05329 0.49409 0.52767
 H386 H -0.03233 0.51466 0.54681
 H387 H 0.02997 0.48781 0.45084
 H388 H 0.04860 0.50914 0.46979
 H389 H -0.03038 0.55151 0.50583
 H390 H -0.04976 0.53309 0.48539
 H391 H 0.04746 0.47289 0.51081
 H392 H 0.02730 0.45118 0.49151
 O393 O 0.50486 0.04961 0.52139
 O394 O 0.47176 0.04462 0.51733
 O395 O 0.52319 0.00297 0.54952
 O396 O 0.52102 -0.02784 0.54589
 O397 O 0.55229 0.02219 0.50279
 O398 O 0.54761 0.01869 0.46983
 O399 O 0.47531 -0.04592 0.49804
 O400 O 0.47747 -0.03995 0.53037
 O401 O 0.45572 -0.00101 0.47205
 O402 O 0.46315 0.03271 0.47377
 O403 O 0.50181 -0.02577 0.45263
 O404 O 0.53558 -0.02473 0.46067
 O405 O 0.49880 -0.04781 0.47711
 O406 O 0.53352 -0.04314 0.48195
 O407 O 0.48081 -0.00275 0.45024
 O408 O 0.48465 0.03122 0.45526
 O409 O 0.45332 -0.02210 0.49499
 O410 O 0.45708 -0.01685 0.52947
 O411 O 0.52851 0.04777 0.50054
 O412 O 0.52745 0.04005 0.46767
 O413 O 0.54987 0.00142 0.52609
 O414 O 0.54182 -0.03157 0.52318
 O415 O 0.50205 0.02597 0.54725
 O416 O 0.46924 0.02470 0.53873
 Zr417 Zr 0.49179 0.02384 0.52014
 O418 O 0.47416 0.00790 0.50346
 Zr419 Zr 0.52289 -0.00956 0.52341
 O420 O 0.50645 -0.02714 0.50713
 Zr421 Zr 0.52628 0.02117 0.48965
 O422 O 0.51032 0.00488 0.47171
 Zr423 Zr 0.47842 -0.01980 0.50954
 O424 O 0.49457 -0.00379 0.52780
 Zr425 Zr 0.48211 0.01081 0.47575
 O426 O 0.49823 0.02867 0.49221
 Zr427 Zr 0.51301 -0.02272 0.47922
 O428 O 0.53096 -0.00656 0.49565
 O429 O 0.51966 0.01781 0.51721
 O430 O 0.48509 -0.01667 0.48191
 C431 C 0.51936 0.05599 0.51326
 C432 C 0.51460 0.01698 0.55587
 C433 C 0.55850 0.01400 0.51715
 C434 C 0.48413 -0.05397 0.48502
 C435 C 0.44743 -0.01417 0.48038
 C436 C 0.48895 -0.01709 0.44419
 H437 H 0.46112 0.01150 0.50539
 H438 H 0.51420 0.00702 0.45884
 H439 H 0.52740 0.02556 0.52526
 H440 H 0.50829 -0.04000 0.51079
 H441 H 0.48297 -0.03438 0.54154
 H442 H 0.51402 -0.03869 0.54166
 H443 H 0.49543 0.02814 0.44744
 H444 H 0.51570 0.04699 0.46805
 H445 H 0.44825 -0.00755 0.52504
 H446 H 0.46936 0.01301 0.54556
 H447 H 0.53478 -0.01439 0.45196
 H448 H 0.55302 0.00642 0.47153
 H449 H 0.47351 0.04987 0.50488
 H450 H 0.45369 0.03112 0.48352
 H451 H 0.54979 -0.02998 0.51218
 H452 H 0.52966 -0.05143 0.49200
 O453 O 0.44999 0.49872 -0.02844
 O454 O 0.45853 0.53090 -0.02794
 O455 O 0.49722 0.47214 -0.04867
 O456 O 0.52824 0.47217 -0.04212
 O457 O 0.47028 0.45226 -0.00125
 O458 O 0.47104 0.46089 0.03106
 O459 O 0.54701 0.52067 0.00186
 O460 O 0.54400 0.51502 -0.03048
 O461 O 0.50137 0.54787 0.01979
 O462 O 0.46685 0.54366 0.01522
 O463 O 0.51924 0.50344 0.04734
 O464 O 0.51467 0.46935 0.04344
 O465 O 0.54413 0.50034 0.02544
 O466 O 0.53592 0.46682 0.02474
 O467 O 0.49825 0.52642 0.04457
 O468 O 0.46419 0.52522 0.03638
 O469 O 0.52538 0.54492 -0.00041
 O470 O 0.52306 0.53732 -0.03461
 O471 O 0.44705 0.47839 -0.00477
 O472 O 0.45168 0.48283 0.02834
 O473 O 0.49389 0.44940 -0.02200
 O474 O 0.52752 0.45438 -0.01682
 O475 O 0.47655 0.49546 -0.05160
 O476 O 0.48086 0.52830 -0.04717
 Zr477 Zr 0.47727 0.50889 -0.02592
 O478 O 0.49363 0.52663 -0.00982
 Zr479 Zr 0.50753 0.47492 -0.02164
 O480 O 0.52543 0.49124 -0.00553
 Zr481 Zr 0.47295 0.47920 0.00864
 O482 O 0.48930 0.49548 0.02624
 Zr483 Zr 0.52157 0.51888 -0.01212
 O484 O 0.50546 0.50241 -0.03002
 Zr485 Zr 0.48697 0.52290 0.01811
 O486 O 0.46887 0.50684 0.00183
 Zr487 Zr 0.51743 0.48905 0.02228
 O488 O 0.50086 0.47108 0.00638
 O489 O 0.47981 0.48161 -0.01896
 O490 O 0.51483 0.51641 0.01556
 C491 C 0.44110 0.48643 -0.01933
 C492 C 0.48476 0.48107 -0.05752
 C493 C 0.47939 0.44344 -0.01358
 C494 C 0.55281 0.51290 0.01659
 C495 C 0.51646 0.55344 0.01224
 C496 C 0.51121 0.51798 0.05308
 H497 H 0.49170 0.53939 -0.01372
 H498 H 0.48542 0.49367 0.03917
 H499 H 0.47190 0.47375 -0.02675
 H500 H 0.53848 0.48764 -0.00747
 H501 H 0.53887 0.50884 -0.04151
 H502 H 0.53959 0.47824 -0.03747
 H503 H 0.46538 0.51560 0.04585
 H504 H 0.44620 0.49495 0.02590
 H505 H 0.51438 0.54747 -0.03229
 H506 H 0.49331 0.52613 -0.05247
 H507 H 0.50410 0.47294 0.05132
 H508 H 0.48296 0.45425 0.03148
 H509 H 0.45167 0.53129 -0.01612
 H510 H 0.47050 0.55141 0.00466
 H511 H 0.52418 0.44845 -0.00502
 H512 H 0.54523 0.46789 0.01479
 O513 O 0.75028 0.27681 0.45400
 O514 O 0.71767 0.27485 0.46233
 O515 O 0.77616 0.29855 0.50111
 O516 O 0.77658 0.29225 0.53186
 O517 O 0.79862 0.25258 0.47455
 O518 O 0.79150 0.22011 0.47568
 O519 O 0.72897 0.24630 0.55037
 O520 O 0.73365 0.27865 0.54742
 O521 O 0.70240 0.22729 0.50510
 O522 O 0.70667 0.23126 0.47093
 O523 O 0.74919 0.20209 0.52334
 O524 O 0.78335 0.20771 0.51926
 O525 O 0.75084 0.22407 0.54792
 O526 O 0.78505 0.22679 0.53997
 O527 O 0.72543 0.20364 0.50275
 O528 O 0.72651 0.21137 0.46864
 O529 O 0.70430 0.24791 0.52855
 O530 O 0.71085 0.28173 0.52662
 O531 O 0.77193 0.25433 0.45136
 O532 O 0.76911 0.22141 0.45632
 O533 O 0.80051 0.27340 0.49789
 O534 O 0.79571 0.26802 0.53136
 O535 O 0.75254 0.30012 0.48026
 O536 O 0.71936 0.29415 0.48441
 Zr537 Zr 0.74005 0.27406 0.48109
 O538 O 0.72278 0.25736 0.49737
 Zr539 Zr 0.77466 0.27173 0.51140
 O540 O 0.75879 0.25515 0.52924
 Zr541 Zr 0.77180 0.24132 0.47725
 O542 O 0.75606 0.22322 0.49358
 Zr543 Zr 0.73045 0.26027 0.52516
 O544 O 0.74637 0.27867 0.50909
 Zr545 Zr 0.72784 0.22983 0.49107
 O546 O 0.74341 0.24661 0.47303
 Zr547 Zr 0.76235 0.22770 0.52152
 O548 O 0.77989 0.24417 0.50499
 O549 O 0.76804 0.26855 0.48383
 O550 O 0.73425 0.23293 0.51876
 C551 C 0.76307 0.26824 0.44524
 C552 C 0.76682 0.30673 0.48853
 C553 C 0.80694 0.26535 0.48352
 C554 C 0.73749 0.23213 0.55629
 C555 C 0.69620 0.23493 0.51977
 C556 C 0.73458 0.19567 0.51556
 H557 H 0.70966 0.26058 0.49532
 H558 H 0.75852 0.21049 0.48985
 H559 H 0.77561 0.27660 0.47591
 H560 H 0.76229 0.25733 0.54222
 H561 H 0.73948 0.28983 0.54233
 H562 H 0.77069 0.28741 0.54317
 H563 H 0.73644 0.20225 0.47025
 H564 H 0.75663 0.22304 0.45090
 H565 H 0.70123 0.27957 0.51716
 H566 H 0.72142 0.29973 0.49666
 H567 H 0.78054 0.20009 0.50835
 H568 H 0.79837 0.22028 0.48749
 H569 H 0.71780 0.26308 0.45563
 H570 H 0.69864 0.24173 0.47403
 H571 H 0.80240 0.25672 0.52800
 H572 H 0.78312 0.23626 0.54949
 O573 O 0.79865 0.74741 -0.02883
 O574 O 0.78966 0.71538 -0.02903
 O575 O 0.75162 0.77512 -0.04784
 O576 O 0.72063 0.77515 -0.04102
 O577 O 0.77919 0.79363 -0.00037
 O578 O 0.77870 0.78436 0.03172
 O579 O 0.70164 0.72608 0.00209
 O580 O 0.70445 0.73220 -0.03012
 O581 O 0.74723 0.69796 0.01893
 O582 O 0.78170 0.70186 0.01405
 O583 O 0.73013 0.74204 0.04764
 O584 O 0.73503 0.77613 0.04447
 O585 O 0.70503 0.74588 0.02611
 O586 O 0.71367 0.77930 0.02606
 O587 O 0.75081 0.71888 0.04412
 O588 O 0.78484 0.71993 0.03551
 O589 O 0.72297 0.70162 -0.00079
 O590 O 0.72516 0.70981 -0.03495
 O591 O 0.80208 0.76725 -0.00477
 O592 O 0.79772 0.76224 0.02831
 O593 O 0.75535 0.79719 -0.02069
 O594 O 0.72172 0.79242 -0.01532
 O595 O 0.77199 0.75164 -0.05156
 O596 O 0.76713 0.71872 -0.04791
 Zr597 Zr 0.77126 0.73759 -0.02623
 O598 O 0.75487 0.71971 -0.01031
 Zr599 Zr 0.74146 0.77180 -0.02080
 O600 O 0.72354 0.75536 -0.00486
 Zr601 Zr 0.77630 0.76652 0.00894
 O602 O 0.75993 0.75008 0.02638
 Zr603 Zr 0.72700 0.72780 -0.01208
 O604 O 0.74311 0.74447 -0.02983
 Zr605 Zr 0.76187 0.72281 0.01761
 O606 O 0.77998 0.73898 0.00145
 Zr607 Zr 0.73184 0.75690 0.02290
 O608 O 0.74848 0.77500 0.00720
 O609 O 0.76913 0.76475 -0.01860
 O610 O 0.73405 0.72965 0.01555
 C611 C 0.80780 0.75939 -0.01955
 C612 C 0.76395 0.76630 -0.05700
 C613 C 0.77000 0.80281 -0.01233
 C614 C 0.69607 0.73364 0.01705
 C615 C 0.73196 0.69274 0.01152
 C616 C 0.73803 0.72730 0.05296
 H617 H 0.75661 0.70701 -0.01451
 H618 H 0.76396 0.75159 0.03929
 H619 H 0.77708 0.77269 -0.02627
 H620 H 0.71052 0.75914 -0.00656
 H621 H 0.70952 0.73855 -0.04106
 H622 H 0.70927 0.76909 -0.03639
 H623 H 0.78377 0.72928 0.04529
 H624 H 0.80304 0.75012 0.02552
 H625 H 0.73354 0.69939 -0.03280
 H626 H 0.75469 0.72125 -0.05305
 H627 H 0.74567 0.77230 0.05210
 H628 H 0.76685 0.79108 0.03249
 H629 H 0.79661 0.71461 -0.01730
 H630 H 0.77790 0.69442 0.00332
 H631 H 0.72522 0.79808 -0.00342
 H632 H 0.70422 0.77853 0.01622
 O633 O 1.00239 0.20114 0.23185
 O634 O 0.96938 0.20586 0.23559
 O635 O 1.01969 0.24635 0.19978
 O636 O 1.01678 0.27720 0.20132
 O637 O 1.05004 0.23139 0.24728
 O638 O 1.04572 0.23673 0.27992
 O639 O 0.97175 0.29738 0.24922
 O640 O 0.97360 0.28953 0.21711
 O641 O 0.95323 0.25331 0.27789
 O642 O 0.96169 0.21998 0.27853
 O643 O 0.99884 0.28115 0.29479
 O644 O 1.03309 0.27968 0.28642
 O645 O 0.99604 0.30138 0.26890
 O646 O 1.03027 0.29717 0.26449
 O647 O 0.97842 0.25773 0.29912
 O648 O 0.98331 0.22357 0.29659
 O649 O 0.95011 0.27299 0.25381
 O650 O 0.95349 0.26617 0.21984
 O651 O 1.02630 0.20500 0.25209
 O652 O 1.02631 0.21514 0.28395
 O653 O 1.04681 0.25066 0.22283
 O654 O 1.03794 0.28314 0.22313
 O655 O 0.99901 0.22307 0.20405
 O656 O 0.96651 0.22397 0.21292
 Zr657 Zr 0.98921 0.22674 0.23114
 O658 O 0.97155 0.24329 0.24703
 Zr659 Zr 1.01953 0.26061 0.22500
 O660 O 1.00310 0.27881 0.24046
 Zr661 Zr 1.02413 0.23236 0.26071
 O662 O 1.00809 0.24931 0.27787
 Zr663 Zr 0.97515 0.27069 0.23911
 O664 O 0.99125 0.25388 0.22162
 Zr665 Zr 0.97996 0.24237 0.27471
 O666 O 0.99619 0.22397 0.25919
 Zr667 Zr 1.01018 0.27638 0.26847
 O668 O 1.02811 0.25973 0.25273
 O669 O 1.01708 0.23356 0.23306
 O670 O 0.98231 0.26948 0.26674
 C671 C 1.01681 0.19552 0.24052
 C672 C 1.01115 0.23182 0.19452
 C673 C 1.05599 0.23917 0.23254
 C674 C 0.98097 0.30659 0.26119
 C675 C 0.94449 0.26560 0.26885
 C676 C 0.98615 0.27279 0.30393
 H677 H 0.95856 0.23919 0.24558
 H678 H 1.01218 0.24814 0.29080
 H679 H 1.02489 0.22541 0.22551
 H680 H 1.00467 0.29144 0.23592
 H681 H 0.97885 0.28335 0.20616
 H682 H 1.00974 0.28818 0.20496
 H683 H 0.99376 0.22784 0.30431
 H684 H 1.01444 0.20836 0.28481
 H685 H 0.94538 0.25631 0.22458
 H686 H 0.96608 0.23534 0.20559
 H687 H 1.03163 0.27092 0.29668
 H688 H 1.05064 0.24913 0.27751
 H689 H 0.97136 0.20141 0.24830
 H690 H 0.95214 0.22049 0.26878
 H691 H 1.04585 0.28287 0.23426
 H692 H 1.02684 0.30402 0.25327
 O693 O 0.77817 0.95201 0.75008
 O694 O 0.77737 0.96085 0.71779
 O695 O 0.79805 0.99862 0.77760
 O696 O 0.79097 1.02885 0.77861
 O697 O 0.75077 0.97071 0.79738
 O698 O 0.71817 0.97128 0.78896
 O699 O 0.74676 1.04760 0.73034
 O700 O 0.77921 1.04472 0.73559
 O701 O 0.72918 1.00247 0.70148
 O702 O 0.73335 0.96891 0.70508
 O703 O 0.70076 1.01881 0.74759
 O704 O 0.70502 1.01464 0.78130
 O705 O 0.72316 1.04416 0.75096
 O706 O 0.72390 1.03510 0.78451
 O707 O 0.70374 0.99874 0.72381
 O708 O 0.71270 0.96548 0.72388
 O709 O 0.74956 1.02610 0.70481
 O710 O 0.78338 1.02504 0.71264
 O711 O 0.75435 0.94844 0.77052
 O712 O 0.72093 0.95266 0.76629
 O713 O 0.77141 0.99419 0.80067
 O714 O 0.76555 1.02733 0.79653
 O715 O 0.80115 0.97854 0.75374
 O716 O 0.79647 0.98314 0.72069
 Zr717 Zr 0.77523 0.97897 0.74035
 O718 O 0.75877 0.99514 0.72294
 Zr719 Zr 0.77066 1.00816 0.77529
 O720 O 0.75425 1.02580 0.75927
 Zr721 Zr 0.74060 0.97377 0.77036
 O722 O 0.72268 0.98992 0.75440
 Zr723 Zr 0.76082 1.02256 0.73127
 O724 O 0.77905 1.00667 0.74746
 Zr725 Zr 0.73069 0.98824 0.72661
 O726 O 0.74736 0.97035 0.74232
 Zr727 Zr 0.72634 1.01756 0.76144
 O728 O 0.74255 1.00112 0.77915
 O729 O 0.76830 0.98095 0.76796
 O730 O 0.73290 1.01570 0.73362
 C731 C 0.76905 0.94289 0.76224
 C732 C 0.80707 0.98661 0.76834
 C733 C 0.76318 0.97966 0.80637
 C734 C 0.73215 1.05318 0.73868
 C735 C 0.73712 1.01717 0.69589
 C736 C 0.69483 1.01086 0.73297
 H737 H 0.76269 0.99345 0.71001
 H738 H 0.70973 0.98585 0.75625
 H739 H 0.77630 0.97315 0.77562
 H740 H 0.75612 1.03859 0.76322
 H741 H 0.79024 1.03972 0.74191
 H742 H 0.78616 1.04006 0.77277
 H743 H 0.70335 0.96616 0.73382
 H744 H 0.72353 0.94737 0.75401
 H745 H 0.78213 1.01547 0.70310
 H746 H 0.80179 0.99537 0.72321
 H747 H 0.69816 1.00325 0.77849
 H748 H 0.71785 0.98277 0.79615
 H749 H 0.76560 0.95385 0.71740
 H750 H 0.74473 0.97191 0.69808
 H751 H 0.75390 1.02354 0.80269
 H752 H 0.73382 1.04443 0.78364
 O753 O 0.74483 0.54816 0.22952
 O754 O 0.77779 0.54343 0.23286
 O755 O 0.72683 0.50176 0.19942
 O756 O 0.72964 0.47097 0.20211
 O757 O 0.69722 0.51875 0.24671
 O758 O 0.70190 0.51463 0.27945
 O759 O 0.77539 0.45257 0.24995
 O760 O 0.77300 0.45917 0.21765
 O761 O 0.79414 0.49715 0.27699
 O762 O 0.78618 0.53085 0.27607
 O763 O 0.74842 0.47095 0.29562
 O764 O 0.71447 0.47156 0.28733
 O765 O 0.75174 0.44957 0.27058
 O766 O 0.71717 0.45340 0.26591
 O767 O 0.76900 0.49444 0.29871
 O768 O 0.76486 0.52828 0.29465
 O769 O 0.79702 0.47690 0.25334
 O770 O 0.79318 0.48266 0.21916
 O771 O 0.72116 0.54517 0.25021
 O772 O 0.72146 0.53624 0.28244
 O773 O 0.70001 0.49846 0.22303
 O774 O 0.70880 0.46597 0.22448
 O775 O 0.74767 0.52510 0.20250
 O776 O 0.78031 0.52441 0.21094
 Zr777 Zr 0.75783 0.52247 0.22956
 O778 O 0.77566 0.50649 0.24581
 Zr779 Zr 0.72729 0.48850 0.22517
 O780 O 0.74390 0.47085 0.24106
 Zr781 Zr 0.72328 0.51815 0.25982
 O782 O 0.73948 0.50182 0.27735
 Zr783 Zr 0.77183 0.47884 0.23895
 O784 O 0.75554 0.49500 0.22110
 Zr785 Zr 0.76761 0.50850 0.27355
 O786 O 0.75123 0.52636 0.25758
 Zr787 Zr 0.73722 0.47437 0.26907
 O788 O 0.71912 0.49049 0.25298
 O789 O 0.72996 0.51584 0.23214
 O790 O 0.76506 0.48112 0.26665
 C791 C 0.73056 0.55417 0.23820
 C792 C 0.73537 0.51603 0.19347
 C793 C 0.69103 0.51040 0.23239
 C794 C 0.76660 0.44399 0.26267
 C795 C 0.80271 0.48453 0.26822
 C796 C 0.76108 0.47976 0.30436
 H797 H 0.78864 0.51046 0.24402
 H798 H 0.73553 0.50355 0.29027
 H799 H 0.72209 0.52374 0.22440
 H800 H 0.74226 0.45805 0.23703
 H801 H 0.76763 0.46495 0.20655
 H802 H 0.73671 0.46013 0.20606
 H803 H 0.75402 0.52487 0.30227
 H804 H 0.73329 0.54314 0.28277
 H805 H 0.80156 0.49244 0.22356
 H806 H 0.78052 0.51280 0.20395
 H807 H 0.71543 0.48135 0.29667
 H808 H 0.69680 0.50222 0.27749
 H809 H 0.77624 0.54816 0.24555
 H810 H 0.79599 0.52943 0.26666
 H811 H 0.70113 0.46664 0.23578
 H812 H 0.72096 0.44569 0.25538
 O813 O 0.50204 0.19964 0.72912
 O814 O 0.46890 0.20467 0.73199
 O815 O 0.52152 0.24570 0.70023
 O816 O 0.51866 0.27660 0.70287
 O817 O 0.54925 0.22798 0.74777
 O818 O 0.54391 0.23217 0.78057
 O819 O 0.47186 0.29524 0.75029
 O820 O 0.47522 0.28922 0.71781
 O821 O 0.45169 0.25024 0.77563
 O822 O 0.45965 0.21723 0.77584
 O823 O 0.49777 0.27670 0.79580
 O824 O 0.53179 0.27545 0.78844
 O825 O 0.49548 0.29804 0.77095
 O826 O 0.53014 0.29351 0.76682
 O827 O 0.47610 0.25409 0.79801
 O828 O 0.48110 0.21955 0.79435
 O829 O 0.44976 0.27085 0.75222
 O830 O 0.45475 0.26601 0.71829
 O831 O 0.52523 0.20213 0.75038
 O832 O 0.52373 0.21076 0.78293
 O833 O 0.54736 0.24842 0.72413
 O834 O 0.53914 0.28126 0.72596
 O835 O 0.50040 0.22250 0.70259
 O836 O 0.46724 0.22410 0.71003
 Zr837 Zr 0.48918 0.22541 0.72928
 O838 O 0.47123 0.24151 0.74529
 Zr839 Zr 0.52028 0.25901 0.72592
 O840 O 0.50351 0.27681 0.74150
 Zr841 Zr 0.52296 0.22905 0.76045
 O842 O 0.50662 0.24559 0.77772
 Zr843 Zr 0.47553 0.26916 0.73874
 O844 O 0.49206 0.25291 0.72109
 Zr845 Zr 0.47851 0.23931 0.77323
 O846 O 0.49495 0.22126 0.75745
 Zr847 Zr 0.50954 0.27300 0.76958
 O848 O 0.52779 0.25667 0.75387
 O849 O 0.51697 0.23174 0.73271
 O850 O 0.48163 0.26666 0.76653
 C851 C 0.51620 0.19347 0.73783
 C852 C 0.51331 0.23131 0.69413
 C853 C 0.55578 0.23605 0.73343
 C854 C 0.48065 0.30372 0.76310
 C855 C 0.44337 0.26285 0.76663
 C856 C 0.48427 0.26856 0.80390
 H857 H 0.45826 0.23766 0.74316
 H858 H 0.51018 0.24379 0.79072
 H859 H 0.52492 0.22378 0.72514
 H860 H 0.50542 0.28961 0.73761
 H861 H 0.48094 0.28359 0.70678
 H862 H 0.51197 0.28770 0.70682
 H863 H 0.49052 0.22397 0.80321
 H864 H 0.51184 0.20395 0.78275
 H865 H 0.44679 0.25553 0.72174
 H866 H 0.46785 0.23551 0.70276
 H867 H 0.53055 0.26553 0.79760
 H868 H 0.54936 0.24445 0.77867
 H869 H 0.47045 0.19947 0.74448
 H870 H 0.45130 0.21748 0.76504
 H871 H 0.54686 0.28006 0.73717
 H872 H 0.52657 0.30151 0.75646
 O873 O 0.27753 0.79811 0.49923
 O874 O 0.27676 0.78965 0.53147
 O875 O 0.29961 0.75182 0.47262
 O876 O 0.29353 0.72129 0.47207
 O877 O 0.25206 0.77752 0.45154
 O878 O 0.21931 0.77571 0.45920
 O879 O 0.24874 0.70192 0.52035
 O880 O 0.28128 0.70567 0.51531
 O881 O 0.22894 0.74630 0.54730
 O882 O 0.23283 0.78034 0.54334
 O883 O 0.20255 0.72816 0.50141
 O884 O 0.20731 0.73195 0.46759
 O885 O 0.22521 0.70411 0.49955
 O886 O 0.22722 0.71205 0.46528
 O887 O 0.20445 0.74872 0.52491
 O888 O 0.21210 0.78247 0.52413
 O889 O 0.25008 0.72340 0.54486
 O890 O 0.28458 0.72651 0.53784
 O891 O 0.25414 0.80038 0.47819
 O892 O 0.22080 0.79474 0.48161
 O893 O 0.27339 0.75473 0.44904
 O894 O 0.26838 0.72137 0.45381
 O895 O 0.30157 0.77254 0.49605
 O896 O 0.29648 0.76808 0.52918
 Zr897 Zr 0.27547 0.77115 0.50915
 O898 O 0.25914 0.75472 0.52662
 Zr899 Zr 0.27252 0.74120 0.47467
 O900 O 0.25637 0.72319 0.49077
 Zr901 Zr 0.24131 0.77447 0.47838
 O902 O 0.22356 0.75791 0.49431
 Zr903 Zr 0.26227 0.72729 0.51881
 O904 O 0.28032 0.74352 0.50260
 Zr905 Zr 0.23097 0.76048 0.52219
 O906 O 0.24740 0.77868 0.50645
 Zr907 Zr 0.22828 0.73029 0.48790
 O908 O 0.24430 0.74705 0.47016
 O909 O 0.26915 0.76844 0.48146
 O910 O 0.23431 0.73312 0.51567
 C911 C 0.26835 0.80669 0.48680
 C912 C 0.30801 0.76445 0.48170
 C913 C 0.26493 0.76889 0.44294
 C914 C 0.23408 0.69586 0.51239
 C915 C 0.23687 0.73177 0.55313
 C916 C 0.19624 0.73592 0.51597
 H917 H 0.26270 0.75677 0.53960
 H918 H 0.21052 0.76139 0.49216
 H919 H 0.27702 0.77649 0.47383
 H920 H 0.25868 0.71038 0.48719
 H921 H 0.29237 0.71094 0.50923
 H922 H 0.28905 0.71009 0.47826
 H923 H 0.20280 0.78100 0.51422
 H924 H 0.22283 0.80027 0.49390
 H925 H 0.28190 0.73511 0.54800
 H926 H 0.30231 0.75609 0.52684
 H927 H 0.19995 0.74303 0.47012
 H928 H 0.21947 0.76403 0.45233
 H929 H 0.26460 0.79584 0.53192
 H930 H 0.24339 0.77709 0.55137
 H931 H 0.25677 0.72461 0.44734
 H932 H 0.23663 0.70248 0.46729
 O933 O 0.27422 0.29694 0.99758
 O934 O 0.27458 0.28875 1.02999
 O935 O 0.29446 0.25038 0.97038
 O936 O 0.28807 0.21983 0.97048
 O937 O 0.24626 0.27632 0.95133
 O938 O 0.21382 0.27498 0.96058
 O939 O 0.24493 0.20134 1.02086
 O940 O 0.27737 0.20442 1.01384
 O941 O 0.22730 0.24580 1.04825
 O942 O 0.23146 0.27992 1.04391
 O943 O 0.19847 0.22805 1.00358
 O944 O 0.20191 0.23160 0.96950
 O945 O 0.22060 0.20369 1.00101
 O946 O 0.22125 0.21122 0.96666
 O947 O 0.20173 0.24856 1.02698
 O948 O 0.20968 0.28208 1.02588
 O949 O 0.24835 0.22292 1.04507
 O950 O 0.28218 0.22516 1.03623
 O951 O 0.24990 0.29935 0.97763
 O952 O 0.21673 0.29425 0.98267
 O953 O 0.26720 0.25329 0.94801
 O954 O 0.26211 0.22012 0.95314
 O955 O 0.29772 0.27102 0.99375
 O956 O 0.29403 0.26702 1.02702
 Zr957 Zr 0.27219 0.27010 1.00788
 O958 O 0.25653 0.25389 1.02615
 Zr959 Zr 0.26738 0.23997 0.97374
 O960 O 0.25172 0.22222 0.99062
 Zr961 Zr 0.23674 0.27362 0.97866
 O962 O 0.21955 0.25738 0.99550
 Zr963 Zr 0.25897 0.22638 1.01832
 O964 O 0.27645 0.24238 1.00129
 Zr965 Zr 0.22826 0.25996 1.02302
 O966 O 0.24412 0.27791 1.00642
 Zr967 Zr 0.22363 0.22970 0.98899
 O968 O 0.23905 0.24614 0.97047
 O969 O 0.26461 0.26728 0.98052
 O970 O 0.23097 0.23254 1.01646
 C971 C 0.26463 0.30552 0.98547
 C972 C 0.30345 0.26284 0.97916
 C973 C 0.25863 0.26751 0.94223
 C974 C 0.22981 0.19547 1.01362
 C975 C 0.23557 0.23137 1.05387
 C976 C 0.19292 0.23591 1.01839
 H977 H 0.26073 0.25596 1.03893
 H978 H 0.20647 0.26102 0.99392
 H979 H 0.27224 0.27516 0.97248
 H980 H 0.25368 0.20936 0.98701
 H981 H 0.28830 0.20953 1.00733
 H982 H 0.28356 0.20859 0.97657
 H983 H 0.20017 0.28094 1.01613
 H984 H 0.21933 0.29973 0.99487
 H985 H 0.28060 0.23444 1.04600
 H986 H 0.29957 0.25491 1.02460
 H987 H 0.19468 0.24267 0.97242
 H988 H 0.21363 0.26334 0.95364
 H989 H 0.26257 0.29519 1.03078
 H990 H 0.24219 0.27644 1.05160
 H991 H 0.25012 0.22330 0.94738
 H992 H 0.23062 0.20156 0.96832
 C993 C 0.29264 0.40353 0.78820
 C994 C 0.29106 0.38467 0.78433
 C995 C 0.30129 0.37187 0.79491
 C996 C 0.31303 0.37804 0.80927
 C997 C 0.31484 0.39693 0.81295
 C998 C 0.30458 0.40972 0.80242
 C999 C 0.30660 0.42855 0.80642
 C1000 C 0.31850 0.43452 0.82028
 C1001 C 0.32855 0.42202 0.83054
 C1002 C 0.32676 0.40342 0.82702
 C1003 C 0.29949 0.35306 0.79081
 C1004 C 0.28790 0.34707 0.77666
 C1005 C 0.27789 0.35959 0.76634
 C1006 C 0.27939 0.37820 0.77007
 C1007 C 0.32305 0.36500 0.82045
 C1008 C 0.33132 0.35428 0.82994
 C1009 C 0.28210 0.41675 0.77769
 C1010 C 0.27405 0.42885 0.76985
 H1011 H 0.29913 0.43887 0.79884
 H1012 H 0.31998 0.44897 0.82304
 H1013 H 0.33782 0.42676 0.84126
 H1014 H 0.33490 0.39423 0.83537
 H1015 H 0.30702 0.34280 0.79844
 H1016 H 0.28669 0.33263 0.77370
 H1017 H 0.26891 0.35486 0.75537
 H1018 H 0.27135 0.38744 0.76168
 C1019 C 0.29574 -0.09583 0.28947
 C1020 C 0.31259 -0.10318 0.28279
 C1021 C 0.32343 -0.11463 0.29430
 C1022 C 0.31726 -0.11883 0.31234
 C1023 C 0.30068 -0.11108 0.31921
 C1024 C 0.28987 -0.09958 0.30774
 C1025 C 0.27365 -0.09154 0.31512
 C1026 C 0.26840 -0.09462 0.33334
 C1027 C 0.27898 -0.10586 0.34454
 C1028 C 0.29490 -0.11411 0.33760
 C1029 C 0.34060 -0.12118 0.28762
 C1030 C 0.34688 -0.11658 0.27006
 C1031 C 0.33621 -0.10551 0.25875
 C1032 C 0.31923 -0.09887 0.26496
 C1033 C 0.32813 -0.13078 0.32398
 C1034 C 0.33699 -0.14084 0.33369
 C1035 C 0.28570 -0.08255 0.27855
 C1036 C 0.27778 -0.07045 0.27061
 H1037 H 0.26498 -0.08264 0.30698
 H1038 H 0.25607 -0.08819 0.33880
 H1039 H 0.27489 -0.10816 0.35871
 H1040 H 0.30276 -0.12262 0.34691
 H1041 H 0.34947 -0.12968 0.29598
 H1042 H 0.36012 -0.12156 0.26523
 H1043 H 0.34116 -0.10196 0.24513
 H1044 H 0.31146 -0.09023 0.25570
 C1045 C 0.79531 0.90054 0.78714
 C1046 C 0.81457 0.89813 0.78415
 C1047 C 0.82489 0.88647 0.79591
 C1048 C 0.81592 0.87736 0.81066
 C1049 C 0.79670 0.87981 0.81370
 C1050 C 0.78636 0.89141 0.80189
 C1051 C 0.76723 0.89394 0.80546
 C1052 C 0.75859 0.88528 0.82026
 C1053 C 0.76870 0.87393 0.83178
 C1054 C 0.78753 0.87116 0.82859
 C1055 C 0.84421 0.88463 0.79295
 C1056 C 0.85311 0.89422 0.77891
 C1057 C 0.84304 0.90569 0.76746
 C1058 C 0.82398 0.90762 0.76994
 C1059 C 0.82659 0.86601 0.82308
 C1060 C 0.83551 0.85656 0.83335
 C1061 C 0.78526 0.91414 0.77662
 C1062 C 0.77738 0.92654 0.76911
 H1063 H 0.75878 0.90264 0.79687
 H1064 H 0.74397 0.88742 0.82282
 H1065 H 0.76192 0.86725 0.84327
 H1066 H 0.79481 0.86224 0.83795
 H1067 H 0.85266 0.87595 0.80155
 H1068 H 0.86792 0.89276 0.77693
 H1069 H 0.85003 0.91314 0.75659
 H1070 H 0.81674 0.91670 0.76068
 C1071 C 0.45919 0.85027 0.28519
 C1072 C 0.44254 0.85803 0.27857
 C1073 C 0.43227 0.87015 0.28994
 C1074 C 0.43885 0.87461 0.30777
 C1075 C 0.45539 0.86670 0.31448
 C1076 C 0.46562 0.85452 0.30315
 C1077 C 0.48179 0.84632 0.31039
 C1078 C 0.48760 0.84994 0.32834
 C1079 C 0.47759 0.86185 0.33941
 C1080 C 0.46171 0.87023 0.33261
 C1081 C 0.41526 0.87713 0.28334
 C1082 C 0.40856 0.87226 0.26601
 C1083 C 0.41864 0.86048 0.25486
 C1084 C 0.43546 0.85343 0.26098
 C1085 C 0.42828 0.88678 0.31950
 C1086 C 0.41958 0.89685 0.32936
 C1087 C 0.46834 0.83603 0.27470
 C1088 C 0.47550 0.82320 0.26719
 H1089 H 0.49004 0.83694 0.30234
 H1090 H 0.49991 0.84343 0.33370
 H1091 H 0.48213 0.86459 0.35336
 H1092 H 0.45434 0.87929 0.34179
 H1093 H 0.40685 0.88620 0.29158
 H1094 H 0.39546 0.87760 0.26123
 H1095 H 0.41337 0.85672 0.24142
 H1096 H 0.44278 0.84427 0.25185
 C1097 C -0.03989 0.84891 0.78807
 C1098 C -0.03439 0.85259 0.80645
 C1099 C -0.04496 0.86473 0.81750
 C1100 C -0.06091 0.87318 0.81008
 C1101 C -0.06658 0.86931 0.79183
 C1102 C -0.05601 0.85717 0.78077
 C1103 C -0.06214 0.85322 0.76268
 C1104 C -0.07828 0.86101 0.75573
 C1105 C -0.08864 0.87285 0.76656
 C1106 C -0.08291 0.87703 0.78441
 C1107 C -0.03959 0.86767 0.83603
 C1108 C -0.02434 0.85872 0.84349
 C1109 C -0.01400 0.84685 0.83269
 C1110 C -0.01883 0.84385 0.81435
 C1111 C -0.07164 0.88553 0.82145
 C1112 C -0.08014 0.89583 0.83124
 C1113 C -0.03028 0.83496 0.77762
 C1114 C -0.02282 0.82236 0.77000
 H1115 H -0.05456 0.84406 0.75375
 H1116 H -0.08281 0.85778 0.74189
 H1117 H -0.10122 0.87879 0.76113
 H1118 H -0.09146 0.88625 0.79234
 H1119 H -0.04724 0.87669 0.84504
 H1120 H -0.02056 0.86098 0.85775
 H1121 H -0.00218 0.83990 0.83856
 H1122 H -0.01036 0.83446 0.80653
 C1123 C -0.04316 -0.10094 -0.03123
 C1124 C -0.06274 -0.10043 -0.03241
 C1125 C -0.07227 -0.11303 -0.04394
 C1126 C -0.06214 -0.12610 -0.05412
 C1127 C -0.04272 -0.12757 -0.05176
 C1128 C -0.03321 -0.11499 -0.04017
 C1129 C -0.01379 -0.11660 -0.03806
 C1130 C -0.00401 -0.13025 -0.04722
 C1131 C -0.01329 -0.14248 -0.05866
 C1132 C -0.03244 -0.14122 -0.06096
 C1133 C -0.09185 -0.11214 -0.04507
 C1134 C -0.10175 -0.09938 -0.03484
 C1135 C -0.09242 -0.08718 -0.02343
 C1136 C -0.07314 -0.08749 -0.02233
 C1137 C -0.07169 -0.13756 -0.06739
 C1138 C -0.07999 -0.14672 -0.07847
 C1139 C -0.03332 -0.08590 -0.02254
 C1140 C -0.02587 -0.07248 -0.01635
 H1141 H -0.00602 -0.10739 -0.02928
 H1142 H 0.01085 -0.13131 -0.04547
 H1143 H -0.00563 -0.15302 -0.06579
 H1144 H -0.03908 -0.15106 -0.06995
 H1145 H -0.09973 -0.12144 -0.05366
 H1146 H -0.11673 -0.09906 -0.03567
 H1147 H -0.10015 -0.07751 -0.01526
 H1148 H -0.06652 -0.07773 -0.01323
 C1149 C -0.04421 0.40544 0.45942
 C1150 C -0.03897 0.40244 0.44083
 C1151 C -0.04970 0.39059 0.42954
 C1152 C -0.06556 0.38177 0.43690
 C1153 C -0.07097 0.38497 0.45537
 C1154 C -0.06024 0.39684 0.46668
 C1155 C -0.06618 0.40022 0.48494
 C1156 C -0.08231 0.39216 0.49183
 C1157 C -0.09280 0.38056 0.48077
 C1158 C -0.08723 0.37691 0.46276
 C1159 C -0.04461 0.38832 0.41083
 C1160 C -0.02948 0.39767 0.40343
 C1161 C -0.01898 0.40927 0.41447
 C1162 C -0.02353 0.41160 0.43298
 C1163 C -0.07666 0.36990 0.42527
 C1164 C -0.08577 0.35997 0.41557
 C1165 C -0.03441 0.41910 0.47020
 C1166 C -0.02678 0.43150 0.47809
 H1167 H -0.05850 0.40917 0.49405
 H1168 H -0.08671 0.39498 0.50580
 H1169 H -0.10535 0.37438 0.48616
 H1170 H -0.09588 0.36785 0.45467
 H1171 H -0.05242 0.37954 0.40166
 H1172 H -0.02592 0.39595 0.38904
 H1173 H -0.00726 0.41654 0.40865
 H1174 H -0.01496 0.42080 0.44097
 C1175 C 0.45758 -0.09632 0.45984
 C1176 C 0.43829 -0.09846 0.46301
 C1177 C 0.42771 -0.11047 0.45174
 C1178 C 0.43647 -0.12022 0.43734
 C1179 C 0.45568 -0.11790 0.43399
 C1180 C 0.46628 -0.10595 0.44531
 C1181 C 0.48536 -0.10348 0.44139
 C1182 C 0.49371 -0.11247 0.42666
 C1183 C 0.48334 -0.12416 0.41559
 C1184 C 0.46456 -0.12695 0.41919
 C1185 C 0.40836 -0.11194 0.45476
 C1186 C 0.39966 -0.10165 0.46838
 C1187 C 0.40999 -0.08987 0.47938
 C1188 C 0.42910 -0.08831 0.47686
 C1189 C 0.42557 -0.13194 0.42539
 C1190 C 0.41665 -0.14168 0.41533
 C1191 C 0.46791 -0.08255 0.46996
 C1192 C 0.47586 -0.07013 0.47749
 H1193 H 0.49400 -0.09451 0.44960
 H1194 H 0.50829 -0.11033 0.42379
 H1195 H 0.48987 -0.13107 0.40412
 H1196 H 0.45707 -0.13614 0.41015
 H1197 H 0.39971 -0.12084 0.44649
 H1198 H 0.38482 -0.10281 0.47038
 H1199 H 0.40317 -0.08186 0.48991
 H1200 H 0.43653 -0.07893 0.48574
 C1201 C 0.45329 0.40062 -0.03821
 C1202 C 0.46219 0.39128 -0.05282
 C1203 C 0.45172 0.37970 -0.06464
 C1204 C 0.43243 0.37748 -0.06173
 C1205 C 0.42351 0.38679 -0.04714
 C1206 C 0.43396 0.39844 -0.03536
 C1207 C 0.42460 0.40821 -0.02135
 C1208 C 0.40546 0.40662 -0.01913
 C1209 C 0.39526 0.39518 -0.03061
 C1210 C 0.40411 0.38527 -0.04441
 C1211 C 0.46082 0.37093 -0.07948
 C1212 C 0.47970 0.37359 -0.08261
 C1213 C 0.48994 0.38492 -0.07105
 C1214 C 0.48137 0.39366 -0.05628
 C1215 C 0.42164 0.36631 -0.07429
 C1216 C 0.41275 0.35701 -0.08479
 C1217 C 0.46342 0.41436 -0.02785
 C1218 C 0.47126 0.42692 -0.02043
 H1219 H 0.43194 0.41728 -0.01208
 H1220 H 0.39851 0.41431 -0.00845
 H1221 H 0.38039 0.39403 -0.02886
 H1222 H 0.39557 0.37662 -0.05304
 H1223 H 0.45344 0.36203 -0.08888
 H1224 H 0.48641 0.36687 -0.09409
 H1225 H 0.50461 0.38697 -0.07356
 H1226 H 0.48993 0.40233 -0.04767
 C1227 C 0.79346 0.34766 0.46168
 C1228 C 0.80507 0.34075 0.44753
 C1229 C 0.81543 0.35298 0.43632
 C1230 C 0.81405 0.37202 0.43925
 C1231 C 0.80263 0.37890 0.45351
 C1232 C 0.79230 0.36667 0.46477
 C1233 C 0.78097 0.37383 0.47893
 C1234 C 0.77988 0.39259 0.48191
 C1235 C 0.79000 0.40457 0.47092
 C1236 C 0.80126 0.39789 0.45686
 C1237 C 0.82705 0.34580 0.42237
 C1238 C 0.82841 0.32705 0.41959
 C1239 C 0.81820 0.31508 0.43046
 C1240 C 0.80663 0.32175 0.44426
 C1241 C 0.82428 0.38450 0.42751
 C1242 C 0.83276 0.39490 0.41775
 C1243 C 0.78281 0.33497 0.47284
 C1244 C 0.77476 0.32300 0.48098
 H1245 H 0.77286 0.36501 0.48782
 H1246 H 0.77116 0.39785 0.49281
 H1247 H 0.78912 0.41913 0.47330
 H1248 H 0.80889 0.40774 0.44869
 H1249 H 0.83526 0.35456 0.41354
 H1250 H 0.83744 0.32177 0.40895
 H1251 H 0.81930 0.30051 0.42825
 H1252 H 0.79905 0.31182 0.45236
 C1253 C 0.79555 0.84647 -0.03604
 C1254 C 0.78621 0.85626 -0.05003
 C1255 C 0.79623 0.86861 -0.06143
 C1256 C 0.81551 0.87113 -0.05874
 C1257 C 0.82488 0.86131 -0.04481
 C1258 C 0.81488 0.84890 -0.03345
 C1259 C 0.82467 0.83870 -0.02010
 C1260 C 0.84380 0.84064 -0.01809
 C1261 C 0.85357 0.85284 -0.02914
 C1262 C 0.84428 0.86315 -0.04231
 C1263 C 0.78668 0.87794 -0.07558
 C1264 C 0.76779 0.87508 -0.07845
 C1265 C 0.75799 0.86298 -0.06733
 C1266 C 0.76702 0.85366 -0.05325
 C1267 C 0.82583 0.88327 -0.07078
 C1268 C 0.83441 0.89331 -0.08084
 C1269 C 0.78579 0.83228 -0.02596
 C1270 C 0.77813 0.81947 -0.01881
 H1271 H 0.81769 0.82904 -0.01118
 H1272 H 0.85109 0.83263 -0.00791
 H1273 H 0.86843 0.85430 -0.02754
 H1274 H 0.85249 0.87241 -0.05063
 H1275 H 0.79370 0.88747 -0.08460
 H1276 H 0.76071 0.88228 -0.08938
 H1277 H 0.74332 0.86077 -0.06965
 H1278 H 0.75880 0.84439 -0.04495
 C1279 C 0.78724 0.29457 0.40208
 C1280 C 0.78335 0.31333 0.39946
 C1281 C 0.79465 0.32398 0.38749
 C1282 C 0.80981 0.31582 0.37828
 C1283 C 0.81389 0.29715 0.38112
 C1284 C 0.80254 0.28647 0.39300
 C1285 C 0.80714 0.26794 0.39593
 C1286 C 0.82256 0.26020 0.38744
 C1287 C 0.83369 0.27065 0.37585
 C1288 C 0.82945 0.28890 0.37264
 C1289 C 0.79083 0.34281 0.38547
 C1290 C 0.77640 0.35095 0.39521
 C1291 C 0.76539 0.34057 0.40696
 C1292 C 0.76870 0.32195 0.40905
 C1293 C 0.82161 0.32674 0.36640
 C1294 C 0.83153 0.33559 0.35642
 C1295 C 0.77713 0.28429 0.41595
 C1296 C 0.76985 0.27638 0.42860
 H1297 H 0.79892 0.25926 0.40485
 H1298 H 0.82593 0.24603 0.38992
 H1299 H 0.84570 0.26460 0.36935
 H1300 H 0.83857 0.29648 0.36356
 H1301 H 0.79907 0.35147 0.37656
 H1302 H 0.77380 0.36540 0.39365
 H1303 H 0.75422 0.34696 0.41452
 H1304 H 0.75976 0.31445 0.41836
 C1305 C 0.79058 0.79371 -0.09799
 C1306 C 0.80905 0.78830 -0.10182
 C1307 C 0.82054 0.79938 -0.11319
 C1308 C 0.81352 0.81577 -0.12070
 C1309 C 0.79533 0.82154 -0.11630
 C1310 C 0.78380 0.81044 -0.10497
 C1311 C 0.76579 0.81664 -0.10051
 C1312 C 0.75939 0.83337 -0.10696
 C1313 C 0.77068 0.84425 -0.11797
 C1314 C 0.78844 0.83845 -0.12267
 C1315 C 0.83911 0.79399 -0.11636
 C1316 C 0.84620 0.77823 -0.10834
 C1317 C 0.83497 0.76740 -0.09721
 C1318 C 0.81658 0.77225 -0.09403
 C1319 C 0.82506 0.82672 -0.13283
 C1320 C 0.83471 0.83558 -0.14309
 C1321 C 0.77950 0.78319 -0.08504
 C1322 C 0.77144 0.77497 -0.07306
 H1323 H 0.75651 0.80868 -0.09193
 H1324 H 0.74561 0.83796 -0.10332
 H1325 H 0.76568 0.85727 -0.12285
 H1326 H 0.79678 0.84745 -0.13114
 H1327 H 0.84843 0.80203 -0.12481
 H1328 H 0.86049 0.77443 -0.11075
 H1329 H 0.84055 0.75519 -0.09098
 H1330 H 0.80843 0.76339 -0.08524
 C1331 C 0.28673 0.45556 0.84630
 C1332 C 0.28258 0.43681 0.84889
 C1333 C 0.29355 0.42617 0.86105
 C1334 C 0.30861 0.43434 0.87051
 C1335 C 0.31279 0.45306 0.86790
 C1336 C 0.30178 0.46372 0.85580
 C1337 C 0.30650 0.48229 0.85306
 C1338 C 0.32172 0.49010 0.86195
 C1339 C 0.33250 0.47967 0.87377
 C1340 C 0.32812 0.46138 0.87680
 C1341 C 0.28954 0.40733 0.86296
 C1342 C 0.27524 0.39918 0.85298
 C1343 C 0.26454 0.40956 0.84104
 C1344 C 0.26806 0.42818 0.83903
 C1345 C 0.32032 0.42334 0.88227
 C1346 C 0.33021 0.41437 0.89207
 C1347 C 0.27712 0.46575 0.83212
 C1348 C 0.27007 0.47358 0.81935
 H1349 H 0.29854 0.49095 0.84398
 H1350 H 0.32519 0.50430 0.85962
 H1351 H 0.34434 0.48578 0.88060
 H1352 H 0.33696 0.45382 0.88609
 H1353 H 0.29753 0.39867 0.87202
 H1354 H 0.27246 0.38473 0.85450
 H1355 H 0.25347 0.40316 0.83329
 H1356 H 0.25936 0.43567 0.82956
 C1357 C 0.29056 -0.04864 0.34471
 C1358 C 0.30592 -0.05866 0.33798
 C1359 C 0.31699 -0.06893 0.35035
 C1360 C 0.31273 -0.06901 0.36937
 C1361 C 0.29708 -0.05944 0.37602
 C1362 C 0.28596 -0.04920 0.36364
 C1363 C 0.27042 -0.03970 0.37058
 C1364 C 0.26593 -0.04034 0.38926
 C1365 C 0.27678 -0.05038 0.40137
 C1366 C 0.29220 -0.05984 0.39491
 C1367 C 0.33213 -0.07901 0.34331
 C1368 C 0.33613 -0.07906 0.32455
 C1369 C 0.32536 -0.06898 0.31246
 C1370 C 0.31050 -0.05878 0.31900
 C1371 C 0.32460 -0.07873 0.38209
 C1372 C 0.33453 -0.08673 0.39268
 C1373 C 0.27969 -0.03781 0.33198
 C1374 C 0.27166 -0.02930 0.32027
 H1375 H 0.26156 -0.03174 0.36166
 H1376 H 0.25397 -0.03302 0.39435
 H1377 H 0.27322 -0.05085 0.41585
 H1378 H 0.30018 -0.06750 0.40485
 H1379 H 0.34090 -0.08711 0.35216
 H1380 H 0.34760 -0.08704 0.31935
 H1381 H 0.32846 -0.06914 0.29788
 H1382 H 0.30253 -0.05122 0.30898
 C1383 C -0.03085 -0.04572 -0.09930
 C1384 C -0.03249 -0.06495 -0.09824
 C1385 C -0.04400 -0.07446 -0.11092
 C1386 C -0.05365 -0.06467 -0.12468
 C1387 C -0.05086 -0.04564 -0.12663
 C1388 C -0.03935 -0.03613 -0.11391
 C1389 C -0.03688 -0.01708 -0.11596
 C1390 C -0.04560 -0.00766 -0.13018
 C1391 C -0.05693 -0.01694 -0.14258
 C1392 C -0.05958 -0.03572 -0.14089
 C1393 C -0.04566 -0.09367 -0.10943
 C1394 C -0.03592 -0.10323 -0.09601
 C1395 C -0.02447 -0.09393 -0.08377
 C1396 C -0.02288 -0.07500 -0.08466
 C1397 C -0.06664 -0.07421 -0.13653
 C1398 C -0.07737 -0.08249 -0.14616
 C1399 C -0.02219 -0.03581 -0.08425
 C1400 C -0.01611 -0.02820 -0.07082
 H1401 H -0.02817 -0.00932 -0.10665
 H1402 H -0.04358 0.00693 -0.13157
 H1403 H -0.06370 -0.00955 -0.15357
 H1404 H -0.06850 -0.04236 -0.15086
 H1405 H -0.05428 -0.10153 -0.11874
 H1406 H -0.03716 -0.11794 -0.09520
 H1407 H -0.01664 -0.10141 -0.07362
 H1408 H -0.01379 -0.06838 -0.07483
 C1409 C -0.04248 0.45568 0.40432
 C1410 C -0.03846 0.45651 0.38527
 C1411 C -0.04895 0.44579 0.37265
 C1412 C -0.06338 0.43433 0.37919
 C1413 C -0.06727 0.43334 0.39827
 C1414 C -0.05681 0.44405 0.41088
 C1415 C -0.06093 0.44277 0.42991
 C1416 C -0.07484 0.43112 0.43626
 C1417 C -0.08509 0.42069 0.42393
 C1418 C -0.08146 0.42177 0.40513
 C1419 C -0.04470 0.44685 0.35364
 C1420 C -0.03049 0.45817 0.34729
 C1421 C -0.02023 0.46864 0.35964
 C1422 C -0.02412 0.46787 0.37843
 C1423 C -0.07439 0.42371 0.36631
 C1424 C -0.08373 0.41497 0.35569
 C1425 C -0.03199 0.46664 0.41736
 C1426 C -0.02410 0.47509 0.42927
 H1427 H -0.05337 0.45058 0.44012
 H1428 H -0.07761 0.43012 0.45088
 H1429 H -0.09586 0.41164 0.42897
 H1430 H -0.08979 0.41333 0.39608
 H1431 H -0.05228 0.43895 0.34351
 H1432 H -0.02741 0.45881 0.33270
 H1433 H -0.00921 0.47740 0.35463
 H1434 H -0.01578 0.47625 0.38753
 C1435 C 0.46387 -0.04193 0.40055
 C1436 C 0.47126 -0.05781 0.39224
 C1437 C 0.46024 -0.06823 0.37983
 C1438 C 0.44192 -0.06267 0.37575
 C1439 C 0.43441 -0.04697 0.38428
 C1440 C 0.44542 -0.03655 0.39669
 C1441 C 0.43739 -0.02124 0.40551
 C1442 C 0.41898 -0.01649 0.40230
 C1443 C 0.40823 -0.02669 0.39015
 C1444 C 0.41580 -0.04171 0.38114
 C1445 C 0.46772 -0.08434 0.37211
 C1446 C 0.48554 -0.09008 0.37663
 C1447 C 0.49632 -0.07990 0.38877
 C1448 C 0.48935 -0.06391 0.39650
 C1449 C 0.43057 -0.07334 0.36321
 C1450 C 0.42090 -0.08194 0.35277
 C1451 C 0.47425 -0.03244 0.41480
 C1452 C 0.48177 -0.02503 0.42762
 H1453 H 0.44516 -0.01290 0.41511
 H1454 H 0.41303 -0.00485 0.40929
 H1455 H 0.39393 -0.02296 0.38771
 H1456 H 0.40684 -0.04925 0.37190
 H1457 H 0.45984 -0.09275 0.36265
 H1458 H 0.49100 -0.10252 0.37070
 H1459 H 0.51014 -0.08443 0.39227
 H1460 H 0.49823 -0.05646 0.40590
 C1461 C 0.45855 0.45496 -0.09963
 C1462 C 0.46545 0.43853 -0.10724
 C1463 C 0.45393 0.42765 -0.11879
 C1464 C 0.43559 0.43328 -0.12268
 C1465 C 0.42852 0.44947 -0.11473
 C1466 C 0.44004 0.46036 -0.10320
 C1467 C 0.43246 0.47619 -0.09496
 C1468 C 0.41402 0.48100 -0.09787
 C1469 C 0.40277 0.47034 -0.10915
 C1470 C 0.40989 0.45479 -0.11758
 C1471 C 0.46097 0.41105 -0.12586
 C1472 C 0.47883 0.40529 -0.12153
 C1473 C 0.49009 0.41592 -0.11023
 C1474 C 0.48357 0.43238 -0.10316
 C1475 C 0.42385 0.42221 -0.13450
 C1476 C 0.41410 0.41314 -0.14446
 C1477 C 0.46951 0.46504 -0.08623
 C1478 C 0.47743 0.47285 -0.07389
 H1479 H 0.44062 0.48491 -0.08604
 H1480 H 0.40841 0.49306 -0.09132
 H1481 H 0.38844 0.47411 -0.11134
 H1482 H 0.40056 0.44686 -0.12611
 H1483 H 0.45271 0.40227 -0.13463
 H1484 H 0.48394 0.39249 -0.12695
 H1485 H 0.50394 0.41136 -0.10688
 H1486 H 0.49282 0.44017 -0.09442
 C1487 C 0.46189 0.80012 0.34303
 C1488 C 0.44785 0.81185 0.33633
 C1489 C 0.43684 0.82200 0.34889
 C1490 C 0.43967 0.82009 0.36806
 C1491 C 0.45380 0.80850 0.37477
 C1492 C 0.46498 0.79852 0.36219
 C1493 C 0.47901 0.78701 0.36919
 C1494 C 0.48192 0.78541 0.38809
 C1495 C 0.47098 0.79517 0.40040
 C1496 C 0.45706 0.80660 0.39389
 C1497 C 0.42307 0.83383 0.34188
 C1498 C 0.42006 0.83535 0.32302
 C1499 C 0.43054 0.82513 0.31075
 C1500 C 0.44437 0.81360 0.31722
 C1501 C 0.42779 0.82976 0.38087
 C1502 C 0.41787 0.83778 0.39148
 C1503 C 0.47273 0.78950 0.33005
 C1504 C 0.48065 0.78109 0.31816
 H1505 H 0.48786 0.77917 0.36013
 H1506 H 0.49272 0.77656 0.39322
 H1507 H 0.47330 0.79388 0.41507
 H1508 H 0.44893 0.81394 0.40399
 H1509 H 0.41444 0.84196 0.35089
 H1510 H 0.40941 0.84439 0.31788
 H1511 H 0.42793 0.82613 0.29612
 H1512 H 0.45222 0.80607 0.30706
 C1513 C -0.03639 0.79718 0.84572
 C1514 C -0.03247 0.79535 0.86471
 C1515 C -0.04294 0.80536 0.87785
 C1516 C -0.05725 0.81712 0.87188
 C1517 C -0.06088 0.81929 0.85287
 C1518 C -0.05048 0.80924 0.83974
 C1519 C -0.05452 0.81149 0.82079
 C1520 C -0.06832 0.82343 0.81502
 C1521 C -0.07839 0.83336 0.82786
 C1522 C -0.07481 0.83134 0.84659
 C1523 C -0.03882 0.80329 0.89679
 C1524 C -0.02474 0.79166 0.90258
 C1525 C -0.01451 0.78186 0.88972
 C1526 C -0.01828 0.78363 0.87097
 C1527 C -0.06863 0.82655 0.88528
 C1528 C -0.07839 0.83423 0.89628
 C1529 C -0.02624 0.78660 0.83219
 C1530 C -0.01873 0.77838 0.81992
 H1531 H -0.04706 0.80414 0.81021
 H1532 H -0.07119 0.82501 0.80049
 H1533 H -0.08905 0.84267 0.82328
 H1534 H -0.08304 0.83936 0.85605
 H1535 H -0.04637 0.81066 0.90730
 H1536 H -0.02175 0.79025 0.91712
 H1537 H -0.00360 0.77284 0.89428
 H1538 H -0.00995 0.77575 0.86147
 C1539 C 0.40394 0.79128 0.29441
 C1540 C 0.40229 0.78883 0.31371
 C1541 C 0.39025 0.80023 0.32407
 C1542 C 0.38000 0.81403 0.31508
 C1543 C 0.38176 0.81658 0.29583
 C1544 C 0.39376 0.80517 0.28546
 C1545 C 0.39569 0.80831 0.26631
 C1546 C 0.38606 0.82234 0.25766
 C1547 C 0.37427 0.83346 0.26779
 C1548 C 0.37206 0.83064 0.28665
 C1549 C 0.38925 0.79791 0.34341
 C1550 C 0.40003 0.78488 0.35230
 C1551 C 0.41187 0.77379 0.34218
 C1552 C 0.41297 0.77562 0.32310
 C1553 C 0.36826 0.82612 0.32575
 C1554 C 0.35847 0.83613 0.33462
 C1555 C 0.41771 0.78102 0.28419
 C1556 C 0.43012 0.77343 0.27617
 H1557 H 0.40469 0.80001 0.25784
 H1558 H 0.38776 0.82460 0.24302
 H1559 H 0.36681 0.84432 0.26101
 H1560 H 0.36274 0.83964 0.29395
 H1561 H 0.38033 0.80628 0.35189
 H1562 H 0.39925 0.78343 0.36712
 H1563 H 0.42028 0.76374 0.34916
 H1564 H 0.42240 0.76669 0.31584
 C1565 C -0.09504 0.79163 0.79459
 C1566 C -0.10454 0.80628 0.78614
 C1567 C -0.11666 0.81736 0.79675
 C1568 C -0.11934 0.81364 0.81571
 C1569 C -0.10964 0.79918 0.82423
 C1570 C -0.09743 0.78815 0.81365
 C1571 C -0.08738 0.77420 0.82263
 C1572 C -0.08924 0.77131 0.84152
 C1573 C -0.10123 0.78204 0.85184
 C1574 C -0.11142 0.79578 0.84335
 C1575 C -0.12560 0.83225 0.78812
 C1576 C -0.12261 0.83611 0.76957
 C1577 C -0.11079 0.82524 0.75918
 C1578 C -0.10183 0.81048 0.76730
 C1579 C -0.13167 0.82503 0.82651
 C1580 C -0.14206 0.83457 0.83522
 C1581 C -0.08125 0.78150 0.78422
 C1582 C -0.06886 0.77389 0.77617
 H1583 H -0.07785 0.76551 0.81521
 H1584 H -0.08131 0.76068 0.84818
 H1585 H -0.10262 0.77975 0.86651
 H1586 H -0.12049 0.80385 0.85198
 H1587 H -0.13488 0.84114 0.79563
 H1588 H -0.12946 0.84762 0.76323
 H1589 H -0.10849 0.82831 0.74477
 H1590 H -0.09273 0.80246 0.75866
 C1591 C 0.84861 0.29233 0.45718
 C1592 C 0.85150 0.31081 0.46230
 C1593 C 0.86282 0.32231 0.45119
 C1594 C 0.87124 0.31526 0.43507
 C1595 C 0.86806 0.29692 0.42975
 C1596 C 0.85673 0.28541 0.44085
 C1597 C 0.85341 0.26725 0.43505
 C1598 C 0.86102 0.26065 0.41871
 C1599 C 0.87209 0.27190 0.40784
 C1600 C 0.87565 0.28983 0.41325
 C1601 C 0.86501 0.34087 0.45623
 C1602 C 0.85611 0.34793 0.47170
 C1603 C 0.84502 0.33670 0.48256
 C1604 C 0.84276 0.31833 0.47803
 C1605 C 0.88286 0.32702 0.42382
 C1606 C 0.89259 0.33693 0.41471
 C1607 C 0.83542 0.28127 0.46743
 C1608 C 0.82322 0.27313 0.47532
 H1609 H 0.84487 0.25799 0.44302
 H1610 H 0.85827 0.24674 0.41442
 H1611 H 0.87791 0.26671 0.39514
 H1612 H 0.88428 0.29808 0.40429
 H1613 H 0.87337 0.35019 0.44815
 H1614 H 0.85780 0.36220 0.47525
 H1615 H 0.83809 0.34225 0.49454
 H1616 H 0.83397 0.31017 0.48690
 C1617 C 0.84924 0.78577 -0.04656
 C1618 C 0.86844 0.78201 -0.04617
 C1619 C 0.88102 0.79340 -0.05599
 C1620 C 0.87427 0.80845 -0.06617
 C1621 C 0.85500 0.81193 -0.06699
 C1622 C 0.84245 0.80062 -0.05708
 C1623 C 0.82324 0.80455 -0.05790
 C1624 C 0.81667 0.81907 -0.06837
 C1625 C 0.82895 0.82998 -0.07822
 C1626 C 0.84792 0.82657 -0.07754
 C1627 C 0.90020 0.78943 -0.05533
 C1628 C 0.90675 0.77462 -0.04526
 C1629 C 0.89443 0.76348 -0.03565
 C1630 C 0.87547 0.76708 -0.03604
 C1631 C 0.88716 0.82067 -0.07535
 C1632 C 0.89787 0.83100 -0.08276
 C1633 C 0.83628 0.77471 -0.03607
 C1634 C 0.82417 0.76671 -0.02792
 H1635 H 0.81306 0.79643 -0.05059
 H1636 H 0.80195 0.82182 -0.06891
 H1637 H 0.82375 0.84118 -0.08643
 H1638 H 0.85692 0.83548 -0.08542
 H1639 H 0.91030 0.79767 -0.06262
 H1640 H 0.92146 0.77176 -0.04491
 H1641 H 0.89959 0.75199 -0.02784
 H1642 H 0.86641 0.75805 -0.02837
 C1643 C -0.09902 -0.03581 -0.04521
 C1644 C -0.11349 -0.04480 -0.03562
 C1645 C -0.12581 -0.05659 -0.04530
 C1646 C -0.12366 -0.05913 -0.06451
 C1647 C -0.11009 -0.04903 -0.07430
 C1648 C -0.09777 -0.03728 -0.06462
 C1649 C -0.08441 -0.02719 -0.07469
 C1650 C -0.08342 -0.02852 -0.09380
 C1651 C -0.09529 -0.04019 -0.10327
 C1652 C -0.10846 -0.05043 -0.09370
 C1653 C -0.13995 -0.06574 -0.03537
 C1654 C -0.14195 -0.06320 -0.01644
 C1655 C -0.12999 -0.05154 -0.00701
 C1656 C -0.11587 -0.04243 -0.01643
 C1657 C -0.13524 -0.07217 -0.07425
 C1658 C -0.14474 -0.08293 -0.08259
 C1659 C -0.08433 -0.02662 -0.03511
 C1660 C -0.07118 -0.01998 -0.02731
 H1661 H -0.07487 -0.01791 -0.06794
 H1662 H -0.07347 -0.02032 -0.10129
 H1663 H -0.09441 -0.04123 -0.11813
 H1664 H -0.11749 -0.05922 -0.10169
 H1665 H -0.14960 -0.07491 -0.04212
 H1666 H -0.15285 -0.07030 -0.00905
 H1667 H -0.13163 -0.04959 0.00768
 H1668 H -0.10689 -0.03348 -0.00856
 C1669 C -0.10055 0.46289 0.45767
 C1670 C -0.10980 0.44802 0.46617
 C1671 C -0.12197 0.43679 0.45567
 C1672 C -0.12490 0.44058 0.43678
 C1673 C -0.11573 0.45549 0.42828
 C1674 C -0.10350 0.46667 0.43876
 C1675 C -0.09393 0.48106 0.42980
 C1676 C -0.09631 0.48425 0.41103
 C1677 C -0.10831 0.47335 0.40080
 C1678 C -0.11800 0.45915 0.40927
 C1679 C -0.13059 0.42164 0.46430
 C1680 C -0.12721 0.41765 0.48276
 C1681 C -0.11533 0.42864 0.49303
 C1682 C -0.10671 0.44369 0.48491
 C1683 C -0.13661 0.42860 0.42587
 C1684 C -0.14628 0.41854 0.41687
 C1685 C -0.08622 0.47273 0.46765
 C1686 C -0.07331 0.48006 0.47520
 H1687 H -0.08444 0.48991 0.43716
 H1688 H -0.08879 0.49524 0.40438
 H1689 H -0.11012 0.47587 0.38622
 H1690 H -0.12712 0.45100 0.40072
 H1691 H -0.13991 0.41266 0.45688
 H1692 H -0.13382 0.40594 0.48911
 H1693 H -0.11273 0.42547 0.50735
 H1694 H -0.09757 0.45182 0.49345
 C1695 C 0.40664 -0.04085 0.45235
 C1696 C 0.38733 -0.03805 0.45413
 C1697 C 0.37473 -0.04903 0.44387
 C1698 C 0.38153 -0.06268 0.43185
 C1699 C 0.40085 -0.06525 0.42978
 C1700 C 0.41345 -0.05441 0.44017
 C1701 C 0.43271 -0.05753 0.43816
 C1702 C 0.43928 -0.07085 0.42616
 C1703 C 0.42697 -0.08124 0.41579
 C1704 C 0.40795 -0.07857 0.41756
 C1705 C 0.35546 -0.04606 0.44597
 C1706 C 0.34884 -0.03262 0.45784
 C1707 C 0.36119 -0.02188 0.46786
 C1708 C 0.38024 -0.02451 0.46608
 C1709 C 0.36868 -0.07443 0.42199
 C1710 C 0.35805 -0.08440 0.41398
 C1711 C 0.41967 -0.03009 0.46311
 C1712 C 0.43158 -0.02206 0.47151
 H1713 H 0.44291 -0.04976 0.44582
 H1714 H 0.45404 -0.07312 0.42489
 H1715 H 0.43219 -0.09151 0.40641
 H1716 H 0.39892 -0.08707 0.40927
 H1717 H 0.34532 -0.05404 0.43844
 H1718 H 0.33406 -0.03052 0.45927
 H1719 H 0.35598 -0.01146 0.47706
 H1720 H 0.38931 -0.01584 0.47415
 C1721 C 0.40043 0.45962 -0.04697
 C1722 C 0.38109 0.46258 -0.04636
 C1723 C 0.36900 0.45126 -0.05685
 C1724 C 0.37636 0.43708 -0.06788
 C1725 C 0.39575 0.43433 -0.06876
 C1726 C 0.40782 0.44555 -0.05819
 C1727 C 0.42717 0.44236 -0.05913
 C1728 C 0.43432 0.42864 -0.07032
 C1729 C 0.42251 0.41784 -0.08083
 C1730 C 0.40343 0.42052 -0.08006
 C1731 C 0.34967 0.45446 -0.05602
 C1732 C 0.34251 0.46845 -0.04514
 C1733 C 0.35436 0.47950 -0.03488
 C1734 C 0.37345 0.47666 -0.03543
 C1735 C 0.36401 0.42521 -0.07818
 C1736 C 0.35366 0.41540 -0.08670
 C1737 C 0.41297 0.47080 -0.03610
 C1738 C 0.42485 0.47893 -0.02777
 H1739 H 0.43700 0.45044 -0.05132
 H1740 H 0.44914 0.42643 -0.07089
 H1741 H 0.42817 0.40728 -0.08960
 H1742 H 0.39481 0.41171 -0.08844
 H1743 H 0.33991 0.44625 -0.06378
 H1744 H 0.32770 0.47072 -0.04467
 H1745 H 0.34872 0.49034 -0.02645
 H1746 H 0.38213 0.48560 -0.02723
 C1747 C 0.34621 0.45693 0.79124
 C1748 C 0.35461 0.46414 0.80732
 C1749 C 0.36634 0.45295 0.81821
 C1750 C 0.36964 0.43465 0.81293
 C1751 C 0.36103 0.42734 0.79702
 C1752 C 0.34930 0.43851 0.78612
 C1753 C 0.34037 0.43072 0.77061
 C1754 C 0.34281 0.41239 0.76612
 C1755 C 0.35429 0.40147 0.77677
 C1756 C 0.36339 0.40881 0.79201
 C1757 C 0.37418 0.46030 0.83450
 C1758 C 0.37045 0.47816 0.83993
 C1759 C 0.35899 0.48910 0.82928
 C1760 C 0.35115 0.48225 0.81313
 C1761 C 0.38146 0.42318 0.82416
 C1762 C 0.39138 0.41369 0.83342
 C1763 C 0.33262 0.46764 0.78127
 C1764 C 0.32030 0.47568 0.77360
 H1765 H 0.33126 0.43863 0.76192
 H1766 H 0.33572 0.40661 0.75432
 H1767 H 0.35611 0.38723 0.77326
 H1768 H 0.37206 0.39974 0.79996
 H1769 H 0.38313 0.45231 0.84328
 H1770 H 0.37646 0.48352 0.85250
 H1771 H 0.35611 0.50295 0.83357
 H1772 H 0.34230 0.49127 0.80531
 C1773 C 0.35051 -0.03579 0.29270
 C1774 C 0.35337 -0.03297 0.31181
 C1775 C 0.36616 -0.04406 0.32154
 C1776 C 0.37599 -0.05791 0.31212
 C1777 C 0.37327 -0.06062 0.29300
 C1778 C 0.36052 -0.04951 0.28326
 C1779 C 0.35766 -0.05279 0.26425
 C1780 C 0.36712 -0.06668 0.25514
 C1781 C 0.37963 -0.07752 0.26467
 C1782 C 0.38274 -0.07457 0.28338
 C1783 C 0.36834 -0.04140 0.34074
 C1784 C 0.35804 -0.02828 0.35009
 C1785 C 0.34548 -0.01748 0.34058
 C1786 C 0.34316 -0.01969 0.32165
 C1787 C 0.38813 -0.06999 0.32230
 C1788 C 0.39810 -0.08007 0.33083
 C1789 C 0.33560 -0.02631 0.28339
 C1790 C 0.32232 -0.01945 0.27615
 H1791 H 0.34807 -0.04471 0.25624
 H1792 H 0.36472 -0.06905 0.24062
 H1793 H 0.38694 -0.08829 0.25754
 H1794 H 0.39260 -0.08334 0.29020
 H1795 H 0.37788 -0.04952 0.34876
 H1796 H 0.35979 -0.02652 0.36480
 H1797 H 0.33747 -0.00733 0.34791
 H1798 H 0.33322 -0.01096 0.31486
 C1799 C 0.15108 0.54058 0.70542
 C1800 C 0.14805 0.53680 0.68650
 C1801 C 0.13650 0.54842 0.67588
 C1802 C 0.12812 0.56378 0.68423
 C1803 C 0.13142 0.56777 0.70303
 C1804 C 0.14289 0.55611 0.71367
 C1805 C 0.14631 0.56061 0.73233
 C1806 C 0.13871 0.57623 0.74022
 C1807 C 0.12751 0.58765 0.72980
 C1808 C 0.12381 0.58351 0.71143
 C1809 C 0.13406 0.54465 0.65690
 C1810 C 0.14293 0.52993 0.64859
 C1811 C 0.15427 0.51860 0.65895
 C1812 C 0.15679 0.52188 0.67770
 C1813 C 0.11650 0.57574 0.67336
 C1814 C 0.10667 0.58564 0.66446
 C1815 C 0.16450 0.52994 0.71566
 C1816 C 0.17686 0.52208 0.72346
 H1817 H 0.15496 0.55217 0.74099
 H1818 H 0.14156 0.57952 0.75448
 H1819 H 0.12169 0.59980 0.73597
 H1820 H 0.11508 0.59285 0.70387
 H1821 H 0.12547 0.55315 0.64824
 H1822 H 0.14102 0.52734 0.63403
 H1823 H 0.16117 0.50720 0.65242
 H1824 H 0.16575 0.51268 0.68517
 C1825 C 0.14671 0.03213 0.20951
 C1826 C 0.14698 0.03317 0.19003
 C1827 C 0.13402 0.04440 0.18070
 C1828 C 0.12084 0.05448 0.19092
 C1829 C 0.11993 0.05268 0.21032
 C1830 C 0.13284 0.04135 0.21963
 C1831 C 0.13179 0.03984 0.23903
 C1832 C 0.11842 0.04937 0.24898
 C1833 C 0.10587 0.06055 0.23990
 C1834 C 0.10655 0.06223 0.22078
 C1835 C 0.13470 0.04541 0.16122
 C1836 C 0.14770 0.03544 0.15124
 C1837 C 0.16029 0.02436 0.16037
 C1838 C 0.16009 0.02328 0.17953
 C1839 C 0.10855 0.06699 0.18150
 C1840 C 0.09851 0.07748 0.17356
 C1841 C 0.16191 0.02332 0.21906
 C1842 C 0.17553 0.01709 0.22626
 H1843 H 0.14126 0.03130 0.24667
 H1844 H 0.11782 0.04810 0.26383
 H1845 H 0.09555 0.06796 0.24769
 H1846 H 0.09648 0.07107 0.21432
 H1847 H 0.12513 0.05378 0.15351
 H1848 H 0.14793 0.03625 0.13635
 H1849 H 0.17018 0.01646 0.15258
 H1850 H 0.17015 0.01444 0.18599
 C1851 C 0.60214 0.71683 0.20468
 C1852 C 0.60107 0.71523 0.18527
 C1853 C 0.61344 0.70348 0.17575
 C1854 C 0.62683 0.69347 0.18571
 C1855 C 0.62860 0.69588 0.20499
 C1856 C 0.61628 0.70771 0.21449
 C1857 C 0.61818 0.70982 0.23377
 C1858 C 0.63181 0.70040 0.24343
 C1859 C 0.64379 0.68874 0.23416
 C1860 C 0.64228 0.68646 0.21515
 C1861 C 0.61195 0.70190 0.15636
 C1862 C 0.59876 0.71182 0.14663
 C1863 C 0.58676 0.72342 0.15594
 C1864 C 0.58774 0.72505 0.17504
 C1865 C 0.63838 0.68034 0.17621
 C1866 C 0.64782 0.66928 0.16831
 C1867 C 0.58744 0.72607 0.21460
 C1868 C 0.57416 0.73266 0.22212
 H1869 H 0.60917 0.71876 0.24153
 H1870 H 0.63306 0.70214 0.25818
 H1871 H 0.65433 0.68142 0.24173
 H1872 H 0.65193 0.67727 0.20855
 H1873 H 0.62105 0.69312 0.14850
 H1874 H 0.59792 0.71057 0.13179
 H1875 H 0.57672 0.73130 0.14833
 H1876 H 0.57812 0.73428 0.18164
 C1877 C 0.09857 0.70980 0.70437
 C1878 C 0.09109 0.69628 0.69246
 C1879 C 0.10314 0.68501 0.68201
 C1880 C 0.12257 0.68715 0.68367
 C1881 C 0.13004 0.70067 0.69552
 C1882 C 0.11799 0.71206 0.70589
 C1883 C 0.12574 0.72548 0.71763
 C1884 C 0.14490 0.72761 0.71910
 C1885 C 0.15671 0.71648 0.70898
 C1886 C 0.14944 0.70314 0.69730
 C1887 C 0.09537 0.67176 0.67003
 C1888 C 0.07623 0.66967 0.66849
 C1889 C 0.06444 0.68053 0.67887
 C1890 C 0.07168 0.69371 0.69072
 C1891 C 0.13485 0.67540 0.67323
 C1892 C 0.14501 0.66562 0.66453
 C1893 C 0.08605 0.72112 0.71503
 C1894 C 0.07422 0.72942 0.72318
 H1895 H 0.11710 0.73444 0.72576
 H1896 H 0.15062 0.73795 0.72815
 H1897 H 0.17158 0.71819 0.71017
 H1898 H 0.15917 0.69482 0.68970
 H1899 H 0.10396 0.66292 0.66172
 H1900 H 0.07052 0.65953 0.65922
 H1901 H 0.04958 0.67879 0.67768
 H1902 H 0.06187 0.70185 0.69841
 C1903 C 0.65363 0.20923 0.54622
 C1904 C 0.65121 0.21267 0.56529
 C1905 C 0.63928 0.20130 0.57589
 C1906 C 0.62989 0.18653 0.56738
 C1907 C 0.63238 0.18302 0.54836
 C1908 C 0.64425 0.19443 0.53773
 C1909 C 0.64684 0.19041 0.51883
 C1910 C 0.63800 0.17551 0.51067
 C1911 C 0.62641 0.16434 0.52107
 C1912 C 0.62355 0.16800 0.53969
 C1913 C 0.63753 0.20463 0.59503
 C1914 C 0.64746 0.21867 0.60350
 C1915 C 0.65918 0.22975 0.59314
 C1916 C 0.66102 0.22692 0.57424
 C1917 C 0.61823 0.17453 0.57831
 C1918 C 0.60846 0.16451 0.58727
 C1919 C 0.66746 0.21947 0.53593
 C1920 C 0.67995 0.22714 0.52802
 H1921 H 0.65574 0.19870 0.51018
 H1922 H 0.64020 0.17259 0.49622
 H1923 H 0.61963 0.15273 0.51468
 H1924 H 0.61444 0.15888 0.54720
 H1925 H 0.62866 0.19632 0.60368
 H1926 H 0.64608 0.22092 0.61817
 H1927 H 0.66691 0.24061 0.59979
 H1928 H 0.67032 0.23589 0.56679
 C1929 C 0.65184 0.70991 0.04271
 C1930 C 0.64940 0.71295 0.06184
 C1931 C 0.63658 0.70209 0.07196
 C1932 C 0.62632 0.68822 0.06291
 C1933 C 0.62875 0.68517 0.04380
 C1934 C 0.64153 0.69606 0.03366
 C1935 C 0.64402 0.69250 0.01465
 C1936 C 0.63415 0.67858 0.00591
 C1937 C 0.62164 0.66795 0.01582
 C1938 C 0.61890 0.67116 0.03454
 C1939 C 0.63477 0.70501 0.09117
 C1940 C 0.64550 0.71813 0.10015
 C1941 C 0.65809 0.72870 0.09028
 C1942 C 0.66002 0.72626 0.07133
 C1943 C 0.61386 0.67661 0.07340
 C1944 C 0.60359 0.66694 0.08220
 C1945 C 0.66642 0.71954 0.03286
 C1946 C 0.67941 0.72663 0.02519
 H1947 H 0.65360 0.70041 0.00636
 H1948 H 0.63626 0.67601 -0.00863
 H1949 H 0.61402 0.65715 0.00896
 H1950 H 0.60902 0.66254 0.04166
 H1951 H 0.62522 0.69708 0.09946
 H1952 H 0.64404 0.72008 0.11487
 H1953 H 0.66642 0.73885 0.09733
 H1954 H 0.67001 0.73481 0.06425
 C1955 C 0.09832 0.03902 0.04674
 C1956 C 0.10787 0.03216 0.06227
 C1957 C 0.11948 0.04393 0.07278
 C1958 C 0.12147 0.06248 0.06768
 C1959 C 0.11188 0.06939 0.05219
 C1960 C 0.10034 0.05760 0.04163
 C1961 C 0.09066 0.06491 0.02637
 C1962 C 0.09220 0.08333 0.02181
 C1963 C 0.10344 0.09485 0.03219
 C1964 C 0.11326 0.08802 0.04718
 C1965 C 0.12870 0.03683 0.08840
 C1966 C 0.12654 0.01861 0.09348
 C1967 C 0.11518 0.00709 0.08320
 C1968 C 0.10591 0.01372 0.06776
 C1969 C 0.13339 0.07445 0.07835
 C1970 C 0.14351 0.08426 0.08714
 C1971 C 0.08489 0.02765 0.03716
 C1972 C 0.07254 0.01949 0.02953
 H1973 H 0.08168 0.05652 0.01790
 H1974 H 0.08454 0.08871 0.01022
 H1975 H 0.10452 0.10917 0.02866
 H1976 H 0.12174 0.09754 0.05489
 H1977 H 0.13759 0.04527 0.09690
 H1978 H 0.13370 0.01341 0.10548
 H1979 H 0.11353 -0.00705 0.08721
 H1980 H 0.09725 0.00425 0.06017
 C1981 C 0.09859 0.54301 0.54026
 C1982 C 0.10179 0.56151 0.53544
 C1983 C 0.11364 0.57255 0.54647
 C1984 C 0.12223 0.56503 0.56224
 C1985 C 0.11876 0.54666 0.56728
 C1986 C 0.10693 0.53561 0.55623
 C1987 C 0.10334 0.51741 0.56176
 C1988 C 0.11115 0.51036 0.57778
 C1989 C 0.12271 0.52117 0.58859
 C1990 C 0.12656 0.53911 0.58345
 C1991 C 0.11616 0.59114 0.54173
 C1992 C 0.10710 0.59866 0.52662
 C1993 C 0.09548 0.58789 0.51584
 C1994 C 0.09287 0.56950 0.52008
 C1995 C 0.13432 0.57630 0.57349
 C1996 C 0.14449 0.58569 0.58269
 C1997 C 0.08485 0.53244 0.53021
 C1998 C 0.07224 0.52460 0.52266
 H1999 H 0.09442 0.50848 0.55381
 H2000 H 0.10818 0.49644 0.58186
 H2001 H 0.12870 0.51564 0.60106
 H2002 H 0.13557 0.54701 0.59235
 H2003 H 0.12495 0.60011 0.54978
 H2004 H 0.10907 0.61295 0.52329
 H2005 H 0.08843 0.59381 0.50414
 H2006 H 0.08368 0.56169 0.51128
 C2007 C 0.60050 0.04035 0.54352
 C2008 C 0.60292 0.05903 0.53897
 C2009 C 0.61461 0.07028 0.54995
 C2010 C 0.62385 0.06278 0.56535
 C2011 C 0.62108 0.04425 0.57018
 C2012 C 0.60937 0.03299 0.55922
 C2013 C 0.60654 0.01460 0.56451
 C2014 C 0.61501 0.00754 0.58020
 C2015 C 0.62647 0.01855 0.59092
 C2016 C 0.62955 0.03669 0.58602
 C2017 C 0.61640 0.08902 0.54549
 C2018 C 0.60675 0.09649 0.53071
 C2019 C 0.59530 0.08551 0.51997
 C2020 C 0.59343 0.06698 0.52392
 C2021 C 0.63610 0.07415 0.57630
 C2022 C 0.64646 0.08354 0.58528
 C2023 C 0.58717 0.02943 0.53331
 C2024 C 0.57488 0.02147 0.52540
 H2025 H 0.59772 0.00552 0.55662
 H2026 H 0.61263 -0.00654 0.58409
 H2027 H 0.63299 0.01302 0.60312
 H2028 H 0.63848 0.04475 0.59485
 H2029 H 0.62505 0.09815 0.55351
 H2030 H 0.60813 0.11089 0.52761
 H2031 H 0.58777 0.09138 0.50854
 H2032 H 0.58432 0.05902 0.51518
 C2033 C 0.59661 0.53706 0.04249
 C2034 C 0.60680 0.55105 0.03356
 C2035 C 0.61942 0.56203 0.04379
 C2036 C 0.62176 0.55894 0.06290
 C2037 C 0.61159 0.54495 0.07185
 C2038 C 0.59896 0.53398 0.06162
 C2039 C 0.58843 0.52053 0.07100
 C2040 C 0.59025 0.51806 0.08994
 C2041 C 0.60266 0.52874 0.09993
 C2042 C 0.61330 0.54200 0.09105
 C2043 C 0.62921 0.57614 0.03463
 C2044 C 0.62656 0.57937 0.01591
 C2045 C 0.61420 0.56866 0.00591
 C2046 C 0.60440 0.55464 0.01455
 C2047 C 0.63410 0.57060 0.07348
 C2048 C 0.64430 0.58032 0.08230
 C2049 C 0.58223 0.52728 0.03253
 C2050 C 0.56938 0.52005 0.02478
 H2051 H 0.57858 0.51189 0.06383
 H2052 H 0.58198 0.50781 0.09691
 H2053 H 0.60403 0.52678 0.11464
 H2054 H 0.62271 0.55001 0.09942
 H2055 H 0.63897 0.58482 0.04183
 H2056 H 0.63413 0.59024 0.00913
 H2057 H 0.61216 0.57125 -0.00863
 H2058 H 0.59494 0.54667 0.00619
 C2059 C 0.03119 0.04384 0.10300
 C2060 C 0.04172 0.03410 0.11613
 C2061 C 0.05260 0.04374 0.12927
 C2062 C 0.05283 0.06307 0.12921
 C2063 C 0.04194 0.07283 0.11638
 C2064 C 0.03107 0.06318 0.10323
 C2065 C 0.02073 0.07323 0.09016
 C2066 C 0.02124 0.09225 0.09001
 C2067 C 0.03186 0.10168 0.10289
 C2068 C 0.04205 0.09215 0.11600
 C2069 C 0.06331 0.03371 0.14205
 C2070 C 0.06326 0.01469 0.14184
 C2071 C 0.05261 0.00526 0.12900
 C2072 C 0.04193 0.01479 0.11626
 C2073 C 0.06485 0.07283 0.14187
 C2074 C 0.07510 0.08068 0.15235
 C2075 C 0.02227 0.03410 0.08801
 C2076 C 0.01602 0.02646 0.07467
 H2077 H 0.01229 0.06650 0.07985
 H2078 H 0.01341 0.09971 0.07979
 H2079 H 0.03225 0.11645 0.10267
 H2080 H 0.05015 0.10008 0.12571
 H2081 H 0.07183 0.04042 0.15231
 H2082 H 0.07154 0.00723 0.15170
 H2083 H 0.05261 -0.00952 0.12890
 H2084 H 0.03383 0.00686 0.10656
 C2085 C 0.03884 0.54597 0.59760
 C2086 C 0.05435 0.53788 0.60627
 C2087 C 0.06597 0.54856 0.61789
 C2088 C 0.06196 0.56723 0.62085
 C2089 C 0.04664 0.57541 0.61197
 C2090 C 0.03506 0.56476 0.60028
 C2091 C 0.02023 0.57340 0.59102
 C2092 C 0.01699 0.59202 0.59319
 C2093 C 0.02828 0.60241 0.60469
 C2094 C 0.04290 0.59425 0.61407
 C2095 C 0.08170 0.54031 0.62599
 C2096 C 0.08588 0.52206 0.62264
 C2097 C 0.07450 0.51161 0.61129
 C2098 C 0.05888 0.51935 0.60320
 C2099 C 0.07388 0.57810 0.63266
 C2100 C 0.08380 0.58694 0.64265
 C2101 C 0.02829 0.53565 0.58409
 C2102 C 0.02056 0.52774 0.57170
 H2103 H 0.01107 0.56590 0.58193
 H2104 H 0.00567 0.59843 0.58590
 H2105 H 0.02572 0.61687 0.60632
 H2106 H 0.05136 0.60292 0.62278
 H2107 H 0.09102 0.54789 0.63487
 H2108 H 0.09804 0.51601 0.62884
 H2109 H 0.07782 0.49745 0.60870
 H2110 H 0.05046 0.51067 0.59446
 C2111 C 0.53869 0.04205 0.59984
 C2112 C 0.53403 0.06040 0.60382
 C2113 C 0.54503 0.07069 0.61636
 C2114 C 0.56064 0.06259 0.62479
 C2115 C 0.56557 0.04439 0.62049
 C2116 C 0.55452 0.03406 0.60804
 C2117 C 0.55996 0.01603 0.60364
 C2118 C 0.57592 0.00848 0.61122
 C2119 C 0.58675 0.01859 0.62336
 C2120 C 0.58167 0.03632 0.62806
 C2121 C 0.54034 0.08911 0.61986
 C2122 C 0.52529 0.09719 0.61109
 C2123 C 0.51457 0.08716 0.59878
 C2124 C 0.51879 0.06896 0.59517
 C2125 C 0.57187 0.07303 0.63760
 C2126 C 0.58135 0.08137 0.64840
 C2127 C 0.52867 0.03220 0.58560
 C2128 C 0.52141 0.02467 0.57271
 H2129 H 0.55201 0.00763 0.59423
 H2130 H 0.57995 -0.00528 0.60760
 H2131 H 0.59919 0.01269 0.62916
 H2132 H 0.59059 0.04366 0.63751
 H2133 H 0.54833 0.09750 0.62925
 H2134 H 0.52196 0.11132 0.61385
 H2135 H 0.50290 0.09351 0.59199
 H2136 H 0.51003 0.06171 0.58550
 C2137 C 0.53596 0.54523 0.09544
 C2138 C 0.55108 0.55645 0.09003
 C2139 C 0.56118 0.56643 0.10351
 C2140 C 0.55619 0.56504 0.12231
 C2141 C 0.54077 0.55424 0.12766
 C2142 C 0.53062 0.54430 0.11417
 C2143 C 0.51531 0.53354 0.11983
 C2144 C 0.51012 0.53267 0.13831
 C2145 C 0.52002 0.54242 0.15151
 C2146 C 0.53519 0.55309 0.14632
 C2147 C 0.57615 0.57766 0.09779
 C2148 C 0.58096 0.57904 0.07926
 C2149 C 0.57115 0.56922 0.06608
 C2150 C 0.55643 0.55799 0.07131
 C2151 C 0.56730 0.57422 0.13618
 C2152 C 0.57683 0.58160 0.14764
 C2153 C 0.52604 0.53473 0.08161
 C2154 C 0.51861 0.52654 0.06923
 H2155 H 0.50718 0.52574 0.11004
 H2156 H 0.49835 0.52439 0.14241
 H2157 H 0.51592 0.54171 0.16584
 H2158 H 0.54243 0.56048 0.15708
 H2159 H 0.58419 0.58559 0.10753
 H2160 H 0.59236 0.58778 0.07510
 H2161 H 0.57494 0.57036 0.05170
 H2162 H 0.54922 0.55068 0.06049
 C2163 C 0.20948 0.54456 0.65144
 C2164 C 0.21196 0.54316 0.63217
 C2165 C 0.20105 0.55399 0.62013
 C2166 C 0.18774 0.56617 0.62746
 C2167 C 0.18531 0.56765 0.64675
 C2168 C 0.19618 0.55679 0.65878
 C2169 C 0.19343 0.55849 0.67804
 C2170 C 0.18043 0.57061 0.68514
 C2171 C 0.16987 0.58126 0.67336
 C2172 C 0.17218 0.57983 0.65437
 C2173 C 0.20375 0.55232 0.60089
 C2174 C 0.21687 0.54031 0.59376
 C2175 C 0.22754 0.52973 0.60556
 C2176 C 0.22517 0.53108 0.62456
 C2177 C 0.17649 0.57711 0.61518
 C2178 C 0.16710 0.58615 0.60495
 C2179 C 0.22037 0.53349 0.66394
 C2180 C 0.22838 0.52508 0.67573
 H2181 H 0.20131 0.55056 0.68783
 H2182 H 0.17859 0.57179 0.69989
 H2183 H 0.15983 0.59070 0.67897
 H2184 H 0.16362 0.58841 0.64578
 H2185 H 0.19579 0.56027 0.59117
 H2186 H 0.21876 0.53921 0.57901
 H2187 H 0.23770 0.52042 0.59995
 H2188 H 0.23378 0.52259 0.63321
 C2189 C 0.21385 0.04492 0.15152
 C2190 C 0.20373 0.03624 0.13729
 C2191 C 0.19196 0.04671 0.12573
 C2192 C 0.19057 0.06581 0.12837
 C2193 C 0.20144 0.07461 0.14198
 C2194 C 0.21315 0.06414 0.15356
 C2195 C 0.22390 0.07324 0.16709
 C2196 C 0.22319 0.09214 0.16900
 C2197 C 0.21162 0.10238 0.15777
 C2198 C 0.20080 0.09378 0.14442
 C2199 C 0.18165 0.03769 0.11183
 C2200 C 0.18296 0.01887 0.10941
 C2201 C 0.19459 0.00866 0.12063
 C2202 C 0.20489 0.01718 0.13444
 C2203 C 0.17788 0.07640 0.11722
 C2204 C 0.16737 0.08525 0.10796
 C2205 C 0.22338 0.03412 0.16531
 C2206 C 0.23029 0.02607 0.17802
 H2207 H 0.23315 0.06589 0.17614
 H2208 H 0.23176 0.09888 0.17918
 H2209 H 0.21110 0.11706 0.15933
 H2210 H 0.19208 0.10234 0.13595
 H2211 H 0.17250 0.04506 0.10271
 H2212 H 0.17493 0.01218 0.09874
 H2213 H 0.19559 -0.00595 0.11866
 H2214 H 0.21376 0.00871 0.14285
 C2215 C 0.71259 0.20438 0.59814
 C2216 C 0.71663 0.20604 0.61714
 C2217 C 0.70629 0.19574 0.63021
 C2218 C 0.69200 0.18385 0.62418
 C2219 C 0.68822 0.18189 0.60516
 C2220 C 0.69849 0.19223 0.59210
 C2221 C 0.69433 0.19015 0.57315
 C2222 C 0.68055 0.17808 0.56732
 C2223 C 0.67060 0.16789 0.58009
 C2224 C 0.67428 0.16975 0.59881
 C2225 C 0.71054 0.19764 0.64915
 C2226 C 0.72461 0.20939 0.65500
 C2227 C 0.73470 0.21948 0.64220
 C2228 C 0.73081 0.21788 0.62346
 C2229 C 0.68088 0.17392 0.63751
 C2230 C 0.67134 0.16573 0.64837
 C2231 C 0.72271 0.21514 0.58467
 C2232 C 0.73019 0.22346 0.57242
 H2233 H 0.70169 0.19771 0.56262
 H2234 H 0.67761 0.17660 0.55278
 H2235 H 0.65995 0.15849 0.57545
 H2236 H 0.66614 0.16152 0.60821
 H2237 H 0.70308 0.19005 0.65961
 H2238 H 0.72769 0.21068 0.66953
 H2239 H 0.74561 0.22859 0.64682
 H2240 H 0.73904 0.22598 0.61401
 C2241 C 0.71283 0.69964 0.09473
 C2242 C 0.69735 0.68905 0.08905
 C2243 C 0.68681 0.67921 0.10230
 C2244 C 0.69171 0.68017 0.12115
 C2245 C 0.70756 0.69020 0.12674
 C2246 C 0.71816 0.69998 0.11347
 C2247 C 0.73390 0.70999 0.11936
 C2248 C 0.73907 0.71027 0.13786
 C2249 C 0.72873 0.70066 0.15084
 C2250 C 0.71313 0.69074 0.14542
 C2251 C 0.67153 0.66856 0.09632
 C2252 C 0.66683 0.66759 0.07775
 C2253 C 0.67705 0.67731 0.06479
 C2254 C 0.69207 0.68801 0.07029
 C2255 C 0.68005 0.67140 0.13482
 C2256 C 0.67014 0.66440 0.14620
 C2257 C 0.72305 0.71019 0.08117
 C2258 C 0.73063 0.71849 0.06896
 H2259 H 0.74238 0.71764 0.10975
 H2260 H 0.75117 0.71796 0.14214
 H2261 H 0.73282 0.70090 0.16518
 H2262 H 0.70556 0.68343 0.15601
 H2263 H 0.66317 0.66074 0.10589
 H2264 H 0.65522 0.65924 0.07337
 H2265 H 0.67335 0.67649 0.05037
 H2266 H 0.69959 0.69524 0.05963
 C2267 C 0.53374 0.70570 0.14802
 C2268 C 0.53487 0.68651 0.15009
 C2269 C 0.54637 0.67618 0.13812
 C2270 C 0.55657 0.68509 0.12407
 C2271 C 0.55468 0.70413 0.12138
 C2272 C 0.54314 0.71445 0.13335
 C2273 C 0.54152 0.73347 0.13049
 C2274 C 0.55114 0.74210 0.11627
 C2275 C 0.56252 0.73204 0.10464
 C2276 C 0.56431 0.71326 0.10708
 C2277 C 0.54748 0.65704 0.14063
 C2278 C 0.53732 0.64834 0.15443
 C2279 C 0.52593 0.65844 0.16601
 C2280 C 0.52478 0.67731 0.16404
 C2281 C 0.56920 0.67469 0.11261
 C2282 C 0.57972 0.66595 0.10320
 C2283 C 0.52464 0.71643 0.16218
 C2284 C 0.51816 0.72453 0.17512
 H2285 H 0.53281 0.74183 0.13921
 H2286 H 0.54978 0.75667 0.11428
 H2287 H 0.57001 0.73881 0.09364
 H2288 H 0.57332 0.70601 0.09768
 H2289 H 0.55607 0.64860 0.13189
 H2290 H 0.53821 0.63369 0.15606
 H2291 H 0.51783 0.65162 0.17650
 H2292 H 0.51570 0.68454 0.17338
 C2293 C 0.04022 0.70816 0.65023
 C2294 C 0.03269 0.69232 0.64186
 C2295 C 0.04396 0.68140 0.63020
 C2296 C 0.06265 0.68643 0.62694
 C2297 C 0.07030 0.70207 0.63558
 C2298 C 0.05905 0.71298 0.64725
 C2299 C 0.06717 0.72823 0.65621
 C2300 C 0.08589 0.73243 0.65385
 C2301 C 0.09688 0.72176 0.64243
 C2302 C 0.08923 0.70679 0.63329
 C2303 C 0.03628 0.66538 0.62232
 C2304 C 0.01800 0.66026 0.62594
 C2305 C 0.00698 0.67095 0.63734
 C2306 C 0.01416 0.68682 0.64523
 C2307 C 0.07416 0.67538 0.61498
 C2308 C 0.08384 0.66644 0.60491
 C2309 C 0.02946 0.71817 0.66376
 C2310 C 0.02174 0.72590 0.67623
 H2311 H 0.05921 0.73694 0.66526
 H2312 H 0.09190 0.74403 0.66096
 H2313 H 0.11142 0.72506 0.64066
 H2314 H 0.09838 0.69884 0.62464
 H2315 H 0.04433 0.65658 0.61343
 H2316 H 0.01236 0.64792 0.61990
 H2317 H -0.00720 0.66689 0.64013
 H2318 H 0.00507 0.69468 0.65403
 C2319 C 0.54140 0.64953 0.21702
 C2320 C 0.53148 0.63489 0.20892
 C2321 C 0.54098 0.62194 0.19782
 C2322 C 0.56034 0.62366 0.19506
 C2323 C 0.57042 0.63773 0.20399
 C2324 C 0.56092 0.65067 0.21506
 C2325 C 0.57126 0.66463 0.22386
 C2326 C 0.59045 0.66573 0.22182
 C2327 C 0.59973 0.65321 0.21083
 C2328 C 0.58990 0.63934 0.20196
 C2329 C 0.53071 0.60769 0.18943
 C2330 C 0.51160 0.60624 0.19199
 C2331 C 0.50233 0.61887 0.20291
 C2332 C 0.51210 0.63306 0.21132
 C2333 C 0.56991 0.61129 0.18274
 C2334 C 0.57819 0.60129 0.17246
 C2335 C 0.53155 0.66453 0.22558
 C2336 C 0.52430 0.67806 0.23163
 H2337 H 0.56470 0.67469 0.23259
 H2338 H 0.59813 0.67628 0.22892
 H2339 H 0.61463 0.65416 0.20924
 H2340 H 0.59775 0.62985 0.19365
 H2341 H 0.53732 0.59755 0.18083
 H2342 H 0.50395 0.59526 0.18547
 H2343 H 0.48749 0.61767 0.20487
 H2344 H 0.50433 0.64256 0.21972
 C2345 C 0.04382 0.65290 0.71054
 C2346 C 0.03544 0.64434 0.69513
 C2347 C 0.04610 0.63274 0.68358
 C2348 C 0.06505 0.62968 0.68758
 C2349 C 0.07350 0.63837 0.70285
 C2350 C 0.06287 0.65006 0.71435
 C2351 C 0.07179 0.65912 0.72914
 C2352 C 0.09067 0.65676 0.73243
 C2353 C 0.10104 0.64527 0.72123
 C2354 C 0.09261 0.63609 0.70663
 C2355 C 0.03758 0.62478 0.66793
 C2356 C 0.01907 0.62824 0.66377
 C2357 C 0.00864 0.63956 0.67508
 C2358 C 0.01664 0.64753 0.69062
 C2359 C 0.07597 0.61808 0.67561
 C2360 C 0.08495 0.60832 0.66568
 C2361 C 0.03358 0.66645 0.72097
 C2362 C 0.02581 0.67887 0.72859
 H2363 H 0.06432 0.66820 0.73824
 H2364 H 0.09729 0.66390 0.74373
 H2365 H 0.11570 0.64348 0.72384
 H2366 H 0.10128 0.62739 0.69825
 H2367 H 0.04514 0.61594 0.65866
 H2368 H 0.01281 0.62214 0.65168
 H2369 H -0.00573 0.64222 0.67178
 H2370 H 0.00796 0.65625 0.69898
 C2371 C 0.04697 0.09519 0.04016
 C2372 C 0.05705 0.08836 0.05544
 C2373 C 0.06733 0.10053 0.06678
 C2374 C 0.06736 0.11945 0.06287
 C2375 C 0.05784 0.12617 0.04725
 C2376 C 0.04759 0.11399 0.03587
 C2377 C 0.03812 0.12100 0.02037
 C2378 C 0.03882 0.13955 0.01618
 C2379 C 0.04889 0.15148 0.02727
 C2380 C 0.05830 0.14495 0.04265
 C2381 C 0.07743 0.09342 0.08185
 C2382 C 0.07740 0.07477 0.08560
 C2383 C 0.06728 0.06285 0.07458
 C2384 C 0.05715 0.06948 0.05969
 C2385 C 0.07683 0.13208 0.07509
 C2386 C 0.08444 0.14291 0.08509
 C2387 C 0.03608 0.08268 0.02902
 C2388 C 0.02759 0.07101 0.02087
 H2389 H 0.03014 0.11223 0.01133
 H2390 H 0.03152 0.14470 0.00425
 H2391 H 0.04942 0.16587 0.02394
 H2392 H 0.06600 0.15475 0.05082
 H2393 H 0.08553 0.10216 0.09082
 H2394 H 0.08525 0.06954 0.09714
 H2395 H 0.06727 0.04838 0.07757
 H2396 H 0.04956 0.05962 0.05152
 C2397 C 0.04330 0.59865 0.53886
 C2398 C 0.05547 0.59135 0.55229
 C2399 C 0.06637 0.60325 0.56336
 C2400 C 0.06497 0.62236 0.56100
 C2401 C 0.05294 0.62965 0.54749
 C2402 C 0.04207 0.61773 0.53638
 C2403 C 0.03012 0.62529 0.52298
 C2404 C 0.02896 0.64412 0.52061
 C2405 C 0.03959 0.65579 0.53146
 C2406 C 0.05146 0.64871 0.54478
 C2407 C 0.07850 0.59568 0.57661
 C2408 C 0.07982 0.57686 0.57887
 C2409 C 0.06910 0.56521 0.56813
 C2410 C 0.05705 0.57226 0.55499
 C2411 C 0.07580 0.63450 0.57257
 C2412 C 0.08476 0.64463 0.58220
 C2413 C 0.03214 0.58627 0.52784
 C2414 C 0.02370 0.57450 0.51979
 H2415 H 0.02160 0.61673 0.51422
 H2416 H 0.01976 0.64969 0.51029
 H2417 H 0.03864 0.67041 0.52956
 H2418 H 0.05947 0.65833 0.55288
 H2419 H 0.08712 0.60418 0.58532
 H2420 H 0.08921 0.57129 0.58902
 H2421 H 0.07016 0.55059 0.56996
 H2422 H 0.04908 0.56257 0.54698
 C2423 C 0.54706 0.09568 0.54105
 C2424 C 0.55818 0.08826 0.55528
 C2425 C 0.56874 0.10002 0.56682
 C2426 C 0.56806 0.11913 0.56411
 C2427 C 0.55721 0.12653 0.54970
 C2428 C 0.54667 0.11475 0.53813
 C2429 C 0.53591 0.12243 0.52384
 C2430 C 0.53561 0.14124 0.52102
 C2431 C 0.54593 0.15276 0.53230
 C2432 C 0.55663 0.14557 0.54651
 C2433 C 0.57987 0.09231 0.58083
 C2434 C 0.58068 0.07348 0.58327
 C2435 C 0.57034 0.06197 0.57203
 C2436 C 0.55912 0.06917 0.55825
 C2437 C 0.57848 0.13117 0.57618
 C2438 C 0.58711 0.14128 0.58614
 C2439 C 0.53612 0.08348 0.52959
 C2440 C 0.52776 0.07189 0.52118
 H2441 H 0.52768 0.11398 0.51471
 H2442 H 0.52732 0.14689 0.51000
 H2443 H 0.54566 0.16736 0.53004
 H2444 H 0.56445 0.15508 0.55490
 H2445 H 0.58820 0.10070 0.58991
 H2446 H 0.58944 0.06779 0.59389
 H2447 H 0.57112 0.04734 0.57388
 H2448 H 0.55141 0.05958 0.54986
 C2449 C 0.54305 0.59493 0.03882
 C2450 C 0.55967 0.60272 0.03191
 C2451 C 0.57021 0.61485 0.04309
 C2452 C 0.56399 0.61924 0.06105
 C2453 C 0.54777 0.61093 0.06823
 C2454 C 0.53724 0.59877 0.05707
 C2455 C 0.52135 0.59023 0.06473
 C2456 C 0.51616 0.59344 0.08294
 C2457 C 0.52647 0.60532 0.09384
 C2458 C 0.54203 0.61410 0.08661
 C2459 C 0.58703 0.62207 0.03608
 C2460 C 0.59326 0.61744 0.01852
 C2461 C 0.58290 0.60566 0.00755
 C2462 C 0.56628 0.59834 0.01409
 C2463 C 0.57428 0.63225 0.07220
 C2464 C 0.58252 0.64320 0.08155
 C2465 C 0.53300 0.58148 0.02800
 C2466 C 0.52506 0.56933 0.02000
 H2467 H 0.51291 0.58081 0.05684
 H2468 H 0.50410 0.58662 0.08864
 H2469 H 0.52241 0.60773 0.10800
 H2470 H 0.54967 0.62313 0.09568
 H2471 H 0.59563 0.63117 0.04417
 H2472 H 0.60621 0.62299 0.01342
 H2473 H 0.58781 0.60209 -0.00608
 H2474 H 0.55875 0.58916 0.00508
 C2475 C 0.70967 0.15280 0.54145
 C2476 C 0.71508 0.14934 0.55988
 C2477 C 0.70443 0.13723 0.57099
 C2478 C 0.68848 0.12862 0.56359
 C2479 C 0.68291 0.13227 0.54527
 C2480 C 0.69355 0.14437 0.53415
 C2481 C 0.68749 0.14812 0.51602
 C2482 C 0.67132 0.14019 0.50909
 C2483 C 0.66090 0.12838 0.51997
 C2484 C 0.66658 0.12438 0.53785
 C2485 C 0.70971 0.13451 0.58957
 C2486 C 0.72494 0.14364 0.59702
 C2487 C 0.73535 0.15548 0.58617
 C2488 C 0.73061 0.15827 0.56778
 C2489 C 0.67754 0.11640 0.57500
 C2490 C 0.66861 0.10615 0.58454
 C2491 C 0.71934 0.16672 0.53090
 C2492 C 0.72679 0.17931 0.52314
 H2493 H 0.69512 0.15725 0.50704
 H2494 H 0.66683 0.14328 0.49522
 H2495 H 0.64831 0.12232 0.51456
 H2496 H 0.65797 0.11516 0.54581
 H2497 H 0.70199 0.12551 0.59860
 H2498 H 0.72865 0.14155 0.61131
 H2499 H 0.74715 0.16259 0.59204
 H2500 H 0.73913 0.16765 0.55992
 C2501 C 0.70524 0.65137 0.03812
 C2502 C 0.71122 0.64752 0.05630
 C2503 C 0.70064 0.63557 0.06764
 C2504 C 0.68422 0.62746 0.06071
 C2505 C 0.67786 0.63185 0.04282
 C2506 C 0.68845 0.64376 0.03144
 C2507 C 0.68169 0.64815 0.01370
 C2508 C 0.66487 0.64108 0.00743
 C2509 C 0.65445 0.62953 0.01860
 C2510 C 0.66082 0.62488 0.03608
 C2511 C 0.70653 0.63243 0.08597
 C2512 C 0.72231 0.64102 0.09296
 C2513 C 0.73267 0.65269 0.08187
 C2514 C 0.72732 0.65587 0.06372
 C2515 C 0.67385 0.61469 0.07206
 C2516 C 0.66549 0.60392 0.08153
 C2517 C 0.71528 0.66474 0.02718
 C2518 C 0.72325 0.67686 0.01917
 H2519 H 0.68926 0.65716 0.00455
 H2520 H 0.65984 0.64466 -0.00614
 H2521 H 0.64133 0.62420 0.01371
 H2522 H 0.65216 0.61599 0.04433
 H2523 H 0.69886 0.62357 0.09517
 H2524 H 0.72648 0.63864 0.10708
 H2525 H 0.74488 0.65937 0.08738
 H2526 H 0.73581 0.66512 0.05568
 C2527 C 0.20967 0.59851 0.70908
 C2528 C 0.19389 0.60718 0.71666
 C2529 C 0.18294 0.61887 0.70551
 C2530 C 0.18788 0.62186 0.68687
 C2531 C 0.20349 0.61300 0.67920
 C2532 C 0.21443 0.60130 0.69033
 C2533 C 0.22959 0.59208 0.68218
 C2534 C 0.23368 0.59421 0.66354
 C2535 C 0.22299 0.60567 0.65266
 C2536 C 0.20811 0.61506 0.66034
 C2537 C 0.16696 0.62701 0.71324
 C2538 C 0.16189 0.62364 0.73145
 C2539 C 0.17261 0.61221 0.74236
 C2540 C 0.18845 0.60406 0.73513
 C2541 C 0.17656 0.63355 0.67538
 C2542 C 0.16727 0.64324 0.66570
 C2543 C 0.21952 0.58486 0.71970
 C2544 C 0.22695 0.57231 0.72740
 H2545 H 0.23831 0.58299 0.69005
 H2546 H 0.24521 0.58691 0.65750
 H2547 H 0.22620 0.60725 0.63818
 H2548 H 0.20015 0.62374 0.65129
 H2549 H 0.15814 0.63594 0.70528
 H2550 H 0.14956 0.62988 0.73712
 H2551 H 0.16859 0.60961 0.75649
 H2552 H 0.19633 0.59526 0.74414
 C2553 C 0.20722 0.10102 0.21973
 C2554 C 0.18774 0.09961 0.21765
 C2555 C 0.17817 0.11233 0.20642
 C2556 C 0.18813 0.12647 0.19749
 C2557 C 0.20744 0.12849 0.20042
 C2558 C 0.21701 0.11574 0.21164
 C2559 C 0.23635 0.11784 0.21417
 C2560 C 0.24599 0.13213 0.20578
 C2561 C 0.23665 0.14458 0.19476
 C2562 C 0.21758 0.14285 0.19207
 C2563 C 0.15873 0.11043 0.20425
 C2564 C 0.14901 0.09650 0.21312
 C2565 C 0.15837 0.08420 0.22428
 C2566 C 0.17751 0.08558 0.22646
 C2567 C 0.17854 0.13855 0.18493
 C2568 C 0.17024 0.14828 0.17445
 C2569 C 0.21721 0.08617 0.22837
 C2570 C 0.22465 0.07277 0.23442
 H2571 H 0.24417 0.10849 0.22265
 H2572 H 0.26079 0.13354 0.20784
 H2573 H 0.24420 0.15563 0.18826
 H2574 H 0.21091 0.15286 0.18338
 H2575 H 0.15083 0.11974 0.19581
 H2576 H 0.13414 0.09530 0.21141
 H2577 H 0.15076 0.07360 0.23139
 H2578 H 0.18413 0.07569 0.23531
 C2579 C 0.70731 1.09884 0.71844
 C2580 C 0.71731 1.11300 0.70960
 C2581 C 0.70778 1.12581 0.69841
 C2582 C 0.68830 1.12445 0.69632
 C2583 C 0.67817 1.11120 0.70637
 C2584 C 0.68771 1.09840 0.71752
 C2585 C 0.67730 1.08533 0.72753
 C2586 C 0.65801 1.08507 0.72669
 C2587 C 0.64866 1.09742 0.71560
 C2588 C 0.65856 1.11034 0.70546
 C2589 C 0.71809 1.13960 0.68933
 C2590 C 0.73728 1.14076 0.69135
 C2591 C 0.74658 1.12831 0.70241
 C2592 C 0.73677 1.11454 0.71146
 C2593 C 0.67866 1.13628 0.68354
 C2594 C 0.67021 1.14570 0.67289
 C2595 C 0.71708 1.08369 0.72682
 C2596 C 0.72445 1.07022 0.73282
 H2597 H 0.68393 1.07543 0.73638
 H2598 H 0.65030 1.07531 0.73482
 H2599 H 0.63367 1.09711 0.71494
 H2600 H 0.65067 1.11976 0.69714
 H2601 H 0.71144 1.14962 0.68064
 H2602 H 0.74497 1.15140 0.68431
 H2603 H 0.76148 1.12929 0.70395
 H2604 H 0.74455 1.10515 0.71994
 C2605 C 0.70565 0.59937 0.21751
 C2606 C 0.71534 0.61388 0.20892
 C2607 C 0.70562 0.62635 0.19751
 C2608 C 0.68627 0.62427 0.19491
 C2609 C 0.67641 0.61041 0.20438
 C2610 C 0.68613 0.59797 0.21578
 C2611 C 0.67601 0.58420 0.22512
 C2612 C 0.65682 0.58284 0.22330
 C2613 C 0.64732 0.59488 0.21198
 C2614 C 0.65694 0.60853 0.20257
 C2615 C 0.71566 0.64048 0.18865
 C2616 C 0.73476 0.64225 0.19104
 C2617 C 0.74424 0.63009 0.20227
 C2618 C 0.73471 0.61603 0.21115
 C2619 C 0.67655 0.63602 0.18216
 C2620 C 0.66828 0.64557 0.17149
 C2621 C 0.71575 0.58467 0.22625
 C2622 C 0.72320 0.57134 0.23243
 H2623 H 0.68275 0.57451 0.23411
 H2624 H 0.64930 0.57245 0.23081
 H2625 H 0.63242 0.59372 0.21056
 H2626 H 0.64893 0.61766 0.19402
 H2627 H 0.70888 0.65027 0.17979
 H2628 H 0.74223 0.65313 0.18415
 H2629 H 0.75908 0.63154 0.20410
 H2630 H 0.74263 0.60689 0.21977
 C2631 C 0.54169 0.14983 0.71429
 C2632 C 0.56042 0.14621 0.71886
 C2633 C 0.57088 0.13379 0.70803
 C2634 C 0.56259 0.12512 0.69265
 C2635 C 0.54398 0.12895 0.68789
 C2636 C 0.53347 0.14129 0.69878
 C2637 C 0.51500 0.14516 0.69354
 C2638 C 0.50716 0.13713 0.67796
 C2639 C 0.51745 0.12509 0.66729
 C2640 C 0.53564 0.12096 0.67216
 C2641 C 0.58969 0.13068 0.71261
 C2642 C 0.59797 0.13974 0.72737
 C2643 C 0.58776 0.15194 0.73793
 C2644 C 0.56918 0.15514 0.73383
 C2645 C 0.57337 0.11271 0.68139
 C2646 C 0.58225 0.10242 0.67193
 C2647 C 0.53168 0.16399 0.72409
 C2648 C 0.52404 0.17679 0.73119
 H2649 H 0.50645 0.15446 0.70138
 H2650 H 0.49305 0.14031 0.67410
 H2651 H 0.51133 0.11894 0.65515
 H2652 H 0.54310 0.11155 0.66339
 H2653 H 0.59823 0.12137 0.70477
 H2654 H 0.61240 0.13729 0.73061
 H2655 H 0.59426 0.15896 0.74937
 H2656 H 0.56181 0.16474 0.74245
 C2657 C 1.04152 0.14964 0.22097
 C2658 C 1.06099 0.15094 0.21869
 C2659 C 1.07044 0.13794 0.20765
 C2660 C 1.06037 0.12364 0.19911
 C2661 C 1.04107 0.12178 0.20220
 C2662 C 1.03162 0.13479 0.21325
 C2663 C 1.01229 0.13284 0.21595
 C2664 C 1.00252 0.11845 0.20790
 C2665 C 1.01174 0.10575 0.19703
 C2666 C 1.03080 0.10732 0.19417
 C2667 C 1.08987 0.13973 0.20527
 C2668 C 1.09969 0.15383 0.21375
 C2669 C 1.09046 0.16641 0.22472
 C2670 C 1.07133 0.16514 0.22710
 C2671 C 1.06981 0.11122 0.18675
 C2672 C 1.07777 0.10109 0.17635
 C2673 C 1.03162 0.16468 0.22939
 C2674 C 1.02421 0.17820 0.23523
 H2675 H 1.00456 0.14239 0.22432
 H2676 H 0.98772 0.11715 0.21009
 H2677 H 1.00409 0.09461 0.19078
 H2678 H 1.03737 0.09711 0.18561
 H2679 H 1.09767 0.13019 0.19695
 H2680 H 1.11456 0.15494 0.21188
 H2681 H 1.09815 0.17714 0.23154
 H2682 H 1.06479 0.17526 0.23579
 C2683 C 0.20873 0.65329 0.53835
 C2684 C 0.19270 0.64467 0.53112
 C2685 C 0.18202 0.63276 0.54242
 C2686 C 0.18745 0.62953 0.56086
 C2687 C 0.20333 0.63834 0.56819
 C2688 C 0.21403 0.65023 0.55690
 C2689 C 0.22947 0.65937 0.56472
 C2690 C 0.23407 0.65700 0.58321
 C2691 C 0.22360 0.64538 0.59424
 C2692 C 0.20845 0.63604 0.58687
 C2693 C 0.16574 0.62472 0.53506
 C2694 C 0.16011 0.62842 0.51710
 C2695 C 0.17056 0.64006 0.50605
 C2696 C 0.18671 0.64810 0.51289
 C2697 C 0.17630 0.61773 0.57252
 C2698 C 0.16702 0.60789 0.58216
 C2699 C 0.21840 0.66709 0.52763
 C2700 C 0.22595 0.67959 0.51982
 H2701 H 0.23803 0.66860 0.55673
 H2702 H 0.24580 0.66427 0.58901
 H2703 H 0.22719 0.64362 0.60861
 H2704 H 0.20068 0.62722 0.59604
 H2705 H 0.15712 0.61562 0.54314
 H2706 H 0.14754 0.62226 0.51175
 H2707 H 0.16611 0.64293 0.49212
 H2708 H 0.19436 0.65708 0.50379
 C2709 C 0.20416 0.15413 1.04127
 C2710 C 0.21024 0.15081 1.05952
 C2711 C 0.19988 0.13899 1.07118
 C2712 C 0.18356 0.13047 1.06449
 C2713 C 0.17721 0.13413 1.04642
 C2714 C 0.18756 0.14598 1.03476
 C2715 C 0.18076 0.14972 1.01689
 C2716 C 0.16418 0.14201 1.01072
 C2717 C 0.15405 0.13044 1.02213
 C2718 C 0.16045 0.12646 1.03978
 C2719 C 0.20585 0.13638 1.08957
 C2720 C 0.22150 0.14538 1.09631
 C2721 C 0.23166 0.15693 1.08492
 C2722 C 0.22623 0.15958 1.06670
 C2723 C 0.17322 0.11809 1.07627
 C2724 C 0.16482 0.10761 1.08603
 C2725 C 0.21388 0.16748 1.03003
 C2726 C 0.22154 0.17959 1.02172
 H2727 H 0.18813 0.15868 1.00753
 H2728 H 0.15914 0.14508 0.99704
 H2729 H 0.14114 0.12455 1.01731
 H2730 H 0.15205 0.11745 1.04817
 H2731 H 0.19835 0.12762 1.09900
 H2732 H 0.22574 0.14340 1.11047
 H2733 H 0.24378 0.16393 1.09023
 H2734 H 0.23455 0.16876 1.05841
 C2735 C 0.20998 0.70403 0.59378
 C2736 C 0.21341 0.70534 0.61292
 C2737 C 0.20255 0.69493 0.62548
 C2738 C 0.18836 0.68324 0.61880
 C2739 C 0.18505 0.68179 0.59965
 C2740 C 0.19584 0.69226 0.58710
 C2741 C 0.19218 0.69064 0.56801
 C2742 C 0.17841 0.67890 0.56154
 C2743 C 0.16794 0.66860 0.57381
 C2744 C 0.17111 0.67001 0.59267
 C2745 C 0.20618 0.69650 0.64457
 C2746 C 0.22016 0.70802 0.65106
 C2747 C 0.23079 0.71818 0.63877
 C2748 C 0.22751 0.71691 0.61989
 C2749 C 0.17706 0.67284 0.63160
 C2750 C 0.16760 0.66425 0.64223
 C2751 C 0.22081 0.71474 0.58081
 C2752 C 0.22890 0.72305 0.56892
 H2753 H 0.19995 0.69831 0.55785
 H2754 H 0.17591 0.67773 0.54690
 H2755 H 0.15730 0.65945 0.56868
 H2756 H 0.16258 0.66172 0.60166
 H2757 H 0.19829 0.68885 0.65467
 H2758 H 0.22276 0.70905 0.66571
 H2759 H 0.24163 0.72711 0.64388
 H2760 H 0.23612 0.72508 0.61084
 C2761 C 0.21177 0.20416 1.09677
 C2762 C 0.19653 0.19301 1.09158
 C2763 C 0.18665 0.18298 1.10518
 C2764 C 0.19197 0.18427 1.12389
 C2765 C 0.20753 0.19497 1.12901
 C2766 C 0.21746 0.20497 1.11540
 C2767 C 0.23292 0.21564 1.12083
 C2768 C 0.23845 0.21637 1.13921
 C2769 C 0.22876 0.20657 1.15253
 C2770 C 0.21345 0.19599 1.14757
 C2771 C 0.17158 0.17179 1.09967
 C2772 C 0.16650 0.17044 1.08122
 C2773 C 0.17610 0.18030 1.06792
 C2774 C 0.19087 0.19156 1.07295
 C2775 C 0.18103 0.17507 1.13789
 C2776 C 0.17157 0.16766 1.14939
 C2777 C 0.22146 0.21470 1.08280
 C2778 C 0.22861 0.22288 1.07025
 H2779 H 0.24089 0.22346 1.11094
 H2780 H 0.25033 0.22458 1.14313
 H2781 H 0.23313 0.20717 1.16678
 H2782 H 0.20638 0.18856 1.15840
 H2783 H 0.16370 0.16381 1.10950
 H2784 H 0.15508 0.16166 1.07720
 H2785 H 0.17215 0.17915 1.05360
 H2786 H 0.19790 0.19889 1.06204
 C2787 C 0.71332 0.54219 0.14922
 C2788 C 0.70386 0.53322 0.13472
 C2789 C 0.69241 0.54339 0.12258
 C2790 C 0.69070 0.56251 0.12488
 C2791 C 0.70095 0.57161 0.13878
 C2792 C 0.71233 0.56142 0.15095
 C2793 C 0.72245 0.57082 0.16474
 C2794 C 0.72145 0.58974 0.16635
 C2795 C 0.71020 0.59969 0.15456
 C2796 C 0.70000 0.59080 0.14092
 C2797 C 0.68268 0.53405 0.10849
 C2798 C 0.68430 0.51521 0.10640
 C2799 C 0.69562 0.50530 0.11818
 C2800 C 0.70533 0.51414 0.13221
 C2801 C 0.67827 0.57281 0.11316
 C2802 C 0.66792 0.58147 0.10353
 C2803 C 0.72243 0.53167 0.16351
 C2804 C 0.72902 0.52383 0.17653
 H2805 H 0.73143 0.56371 0.17423
 H2806 H 0.72957 0.59670 0.17673
 H2807 H 0.70943 0.61439 0.15591
 H2808 H 0.69151 0.59915 0.13202
 H2809 H 0.67372 0.54118 0.09898
 H2810 H 0.67674 0.50828 0.09556
 H2811 H 0.69686 0.49068 0.11647
 H2812 H 0.71398 0.50588 0.14106
 C2813 C 0.71479 1.04354 0.65185
 C2814 C 0.70461 1.03462 0.63780
 C2815 C 0.69326 1.04497 0.62572
 C2816 C 0.69239 1.06418 0.62765
 C2817 C 0.70355 1.07319 0.64089
 C2818 C 0.71483 1.06283 0.65299
 C2819 C 0.72598 1.07214 0.66604
 C2820 C 0.72613 1.09113 0.66693
 C2821 C 0.71494 1.10126 0.65524
 C2822 C 0.70369 1.09247 0.64238
 C2823 C 0.68290 1.03575 0.61201
 C2824 C 0.68387 1.01684 0.61016
 C2825 C 0.69516 1.00674 0.62182
 C2826 C 0.70542 1.01547 0.63555
 C2827 C 0.68009 1.07474 0.61606
 C2828 C 0.66999 1.08376 0.60653
 C2829 C 0.72378 1.03302 0.66620
 C2830 C 0.73042 1.02517 0.67918
 H2831 H 0.73495 1.06487 0.67542
 H2832 H 0.73509 1.09799 0.67666
 H2833 H 0.71506 1.11602 0.65603
 H2834 H 0.69532 1.10096 0.63351
 H2835 H 0.67400 1.04303 0.60256
 H2836 H 0.67584 1.00999 0.59959
 H2837 H 0.69590 0.99207 0.62030
 H2838 H 0.71399 1.00709 0.64434
 C2839 C 0.54094 0.20429 0.65370
 C2840 C 0.55989 0.20898 0.65137
 C2841 C 0.57150 0.19796 0.64015
 C2842 C 0.56407 0.18234 0.63128
 C2843 C 0.54528 0.17735 0.63401
 C2844 C 0.53367 0.18837 0.64524
 C2845 C 0.51500 0.18298 0.64799
 C2846 C 0.50800 0.16714 0.63988
 C2847 C 0.51935 0.15636 0.62890
 C2848 C 0.53779 0.16135 0.62593
 C2849 C 0.59050 0.20261 0.63845
 C2850 C 0.59789 0.21762 0.64774
 C2851 C 0.58656 0.22840 0.65872
 C2852 C 0.56776 0.22426 0.66049
 C2853 C 0.57580 0.17146 0.61934
 C2854 C 0.58565 0.16276 0.60922
 C2855 C 0.52958 0.21472 0.66640
 C2856 C 0.52123 0.22283 0.67820
 H2857 H 0.50565 0.19091 0.65644
 H2858 H 0.49371 0.16318 0.64217
 H2859 H 0.51385 0.14405 0.62268
 H2860 H 0.54610 0.15248 0.61736
 H2861 H 0.59991 0.19457 0.63017
 H2862 H 0.61250 0.22085 0.64646
 H2863 H 0.59238 0.24000 0.66597
 H2864 H 0.55954 0.23305 0.66924
 C2865 C 1.03335 0.20437 0.15108
 C2866 C 1.03478 0.18523 0.15340
 C2867 C 1.04653 0.17494 0.14164
 C2868 C 1.05668 0.18385 0.12756
 C2869 C 1.05448 0.20283 0.12461
 C2870 C 1.04268 0.21310 0.13636
 C2871 C 1.04075 0.23205 0.13325
 C2872 C 1.05032 0.24066 0.11898
 C2873 C 1.06196 0.23065 0.10756
 C2874 C 1.06405 0.21194 0.11026
 C2875 C 1.04794 0.15586 0.14438
 C2876 C 1.03783 0.14716 0.15821
 C2877 C 1.02620 0.15721 0.16961
 C2878 C 1.02475 0.17603 0.16740
 C2879 C 1.06964 0.17358 0.11636
 C2880 C 1.08053 0.16515 0.10709
 C2881 C 1.02402 0.21515 0.16506
 C2882 C 1.01738 0.22338 0.17783
 H2883 H 1.03183 0.24037 0.14179
 H2884 H 1.04873 0.25518 0.11680
 H2885 H 1.06941 0.23741 0.09653
 H2886 H 1.07325 0.20473 0.10101
 H2887 H 1.05673 0.14746 0.13579
 H2888 H 1.03894 0.13254 0.16002
 H2889 H 1.01816 0.15038 0.18014
 H2890 H 1.01550 0.18324 0.17660
 C2891 C 0.59787 0.21019 0.70711
 C2892 C 0.59146 0.19542 0.69615
 C2893 C 0.60432 0.18465 0.68612
 C2894 C 0.62351 0.18869 0.68712
 C2895 C 0.62988 0.20366 0.69778
 C2896 C 0.61701 0.21444 0.70782
 C2897 C 0.62367 0.22929 0.71841
 C2898 C 0.64255 0.23341 0.71906
 C2899 C 0.65515 0.22288 0.70924
 C2900 C 0.64897 0.20815 0.69871
 C2901 C 0.59761 0.17003 0.67520
 C2902 C 0.57870 0.16626 0.67407
 C2903 C 0.56610 0.17680 0.68383
 C2904 C 0.57232 0.19115 0.69485
 C2905 C 0.63669 0.17725 0.67747
 C2906 C 0.64763 0.16757 0.66961
 C2907 C 0.58459 0.22085 0.71754
 C2908 C 0.57229 0.22867 0.72550
 H2909 H 0.61437 0.23787 0.72625
 H2910 H 0.64742 0.24483 0.72722
 H2911 H 0.66980 0.22613 0.70978
 H2912 H 0.65929 0.20037 0.69129
 H2913 H 0.60686 0.16147 0.66728
 H2914 H 0.57377 0.15517 0.66548
 H2915 H 0.55141 0.17395 0.68275
 H2916 H 0.56192 0.19894 0.70213
 C2917 C 1.10159 0.21747 0.20790
 C2918 C 1.10063 0.21575 0.18849
 C2919 C 1.11342 0.20439 0.17905
 C2920 C 1.12711 0.19485 0.18909
 C2921 C 1.12867 0.19730 0.20837
 C2922 C 1.11594 0.20876 0.21779
 C2923 C 1.11765 0.21093 0.23709
 C2924 C 1.13149 0.20190 0.24683
 C2925 C 1.14387 0.19058 0.23765
 C2926 C 1.14255 0.18827 0.21863
 C2927 C 1.11204 0.20269 0.15966
 C2928 C 1.09855 0.21214 0.14985
 C2929 C 1.08613 0.22336 0.15908
 C2930 C 1.08700 0.22510 0.17818
 C2931 C 1.13925 0.18221 0.17961
 C2932 C 1.14914 0.17158 0.17165
 C2933 C 1.08667 0.22650 0.21771
 C2934 C 1.07325 0.23296 0.22510
 H2935 H 1.10833 0.21960 0.24480
 H2936 H 1.13260 0.20367 0.26160
 H2937 H 1.15457 0.18357 0.24529
 H2938 H 1.15250 0.17935 0.21209
 H2939 H 1.12145 0.19419 0.15186
 H2940 H 1.09779 0.21080 0.13502
 H2941 H 1.07584 0.23086 0.15142
 H2942 H 1.07705 0.23402 0.18472
 C2943 C 0.15268 0.71123 0.54174
 C2944 C 0.15001 0.71493 0.56072
 C2945 C 0.13779 0.70382 0.57128
 C2946 C 0.12836 0.68906 0.56281
 C2947 C 0.13113 0.68525 0.54389
 C2948 C 0.14329 0.69641 0.53330
 C2949 C 0.14622 0.69206 0.51453
 C2950 C 0.13749 0.67704 0.50647
 C2951 C 0.12563 0.66611 0.51683
 C2952 C 0.12238 0.67014 0.53531
 C2953 C 0.13579 0.70741 0.59035
 C2954 C 0.14574 0.72144 0.59879
 C2955 C 0.15774 0.73227 0.58849
 C2956 C 0.15984 0.72918 0.56966
 C2957 C 0.11645 0.67731 0.57375
 C2958 C 0.10654 0.66754 0.58282
 C2959 C 0.16686 0.72112 0.53160
 C2960 C 0.17966 0.72850 0.52389
 H2961 H 0.15536 0.70014 0.50592
 H2962 H 0.13999 0.67383 0.49212
 H2963 H 0.11893 0.65442 0.51052
 H2964 H 0.11307 0.66120 0.54281
 H2965 H 0.12670 0.69929 0.59897
 H2966 H 0.14416 0.72389 0.61342
 H2967 H 0.16548 0.74314 0.59512
 H2968 H 0.16935 0.73797 0.56223
 C2969 C 0.14970 0.21175 1.04521
 C2970 C 0.14742 0.21518 1.06430
 C2971 C 0.13531 0.20400 1.07491
 C2972 C 0.12563 0.18943 1.06639
 C2973 C 0.12781 0.18605 1.04731
 C2974 C 0.13985 0.19727 1.03668
 C2975 C 0.14212 0.19340 1.01770
 C2976 C 0.13276 0.17884 1.00947
 C2977 C 0.12099 0.16785 1.01988
 C2978 C 0.11847 0.17136 1.03858
 C2979 C 0.13366 0.20733 1.09406
 C2980 C 0.14387 0.22118 1.10252
 C2981 C 0.15577 0.23206 1.09216
 C2982 C 0.15753 0.22921 1.07325
 C2983 C 0.11404 0.17742 1.07736
 C2984 C 0.10437 0.16729 1.08629
 C2985 C 0.16382 0.22158 1.03494
 C2986 C 0.17652 0.22880 1.02693
 H2987 H 0.15113 0.20155 1.00904
 H2988 H 0.13470 0.17604 0.99496
 H2989 H 0.11381 0.15652 1.01344
 H2990 H 0.10919 0.16241 1.04609
 H2991 H 0.12463 0.19918 1.10271
 H2992 H 0.14254 0.22344 1.11720
 H2993 H 0.16370 0.24278 1.09881
 H2994 H 0.16697 0.23804 1.06578
 C2995 C 0.64547 0.53167 0.20744
 C2996 C 0.64651 0.53293 0.18800
 C2997 C 0.63393 0.54427 0.17830
 C2998 C 0.62034 0.55421 0.18811
 C2999 C 0.61864 0.55215 0.20744
 C3000 C 0.63119 0.54073 0.21712
 C3001 C 0.62936 0.53898 0.23644
 C3002 C 0.61556 0.54835 0.24596
 C3003 C 0.60336 0.55961 0.23652
 C3004 C 0.60480 0.56152 0.21747
 C3005 C 0.63541 0.54554 0.15888
 C3006 C 0.64879 0.53568 0.14930
 C3007 C 0.66098 0.52446 0.15878
 C3008 C 0.66002 0.52315 0.17791
 C3009 C 0.60851 0.56691 0.17837
 C3010 C 0.59891 0.57760 0.17017
 C3011 C 0.66033 0.52279 0.21745
 C3012 C 0.67374 0.51645 0.22494
 H3013 H 0.63854 0.53036 0.24434
 H3014 H 0.61436 0.54689 0.26076
 H3015 H 0.59269 0.56688 0.24399
 H3016 H 0.59498 0.57041 0.21072
 H3017 H 0.62617 0.55401 0.15090
 H3018 H 0.64963 0.53669 0.13445
 H3019 H 0.67116 0.51661 0.15130
 H3020 H 0.66980 0.51421 0.18464
 C3021 C 0.64895 1.03216 0.70849
 C3022 C 0.64895 1.03249 0.68899
 C3023 C 0.63641 1.04399 0.67944
 C3024 C 0.62393 1.05506 0.68948
 C3025 C 0.62290 1.05360 0.70890
 C3026 C 0.63538 1.04198 0.71843
 C3027 C 0.63411 1.04066 0.73782
 C3028 C 0.62093 1.05065 0.74757
 C3029 C 0.60884 1.06216 0.73827
 C3030 C 0.60975 1.06367 0.71915
 C3031 C 0.63674 1.04418 0.65993
 C3032 C 0.64890 1.03308 0.65015
 C3033 C 0.66106 1.02173 0.65951
 C3034 C 0.66131 1.02153 0.67869
 C3035 C 0.61241 1.06804 0.67976
 C3036 C 0.60308 1.07867 0.67120
 C3037 C 0.66408 1.02336 0.71815
 C3038 C 0.67762 1.01704 0.72544
 H3039 H 0.64324 1.03188 0.74560
 H3040 H 0.62013 1.04950 0.76241
 H3041 H 0.59868 1.06994 0.74591
 H3042 H 0.60004 1.07275 0.71250
 H3043 H 0.62744 1.05269 0.65204
 H3044 H 0.64878 1.03319 0.63523
 H3045 H 0.67025 1.01290 0.65189
 H3046 H 0.67099 1.01242 0.68535
 C3047 C 0.84394 0.45821 0.29547
 C3048 C 0.83731 0.44443 0.30753
 C3049 C 0.85005 0.43379 0.31781
 C3050 C 0.86933 0.43677 0.31574
 C3051 C 0.87597 0.45056 0.30373
 C3052 C 0.86322 0.46135 0.29359
 C3053 C 0.87014 0.47506 0.28169
 C3054 C 0.88916 0.47803 0.27984
 C3055 C 0.90164 0.46747 0.28974
 C3056 C 0.89520 0.45387 0.30157
 C3057 C 0.84312 0.42028 0.32998
 C3058 C 0.82413 0.41727 0.33181
 C3059 C 0.81169 0.42745 0.32153
 C3060 C 0.81809 0.44092 0.30956
 C3061 C 0.88231 0.42546 0.32576
 C3062 C 0.89305 0.41596 0.33404
 C3063 C 0.83077 0.46890 0.28498
 C3064 C 0.81872 0.47684 0.27682
 H3065 H 0.86095 0.48360 0.27371
 H3066 H 0.89423 0.48858 0.27067
 H3067 H 0.91639 0.46983 0.28825
 H3068 H 0.90544 0.44603 0.30900
 H3069 H 0.85225 0.41192 0.33819
 H3070 H 0.81905 0.40690 0.34118
 H3071 H 0.79695 0.42493 0.32287
 H3072 H 0.80779 0.44853 0.30197
 C3073 C 0.84906 0.96134 0.79521
 C3074 C 0.86824 0.96537 0.79440
 C3075 C 0.88100 0.95463 0.80458
 C3076 C 0.87447 0.93992 0.81550
 C3077 C 0.85524 0.93615 0.81666
 C3078 C 0.84250 0.94681 0.80640
 C3079 C 0.82333 0.94263 0.80765
 C3080 C 0.81696 0.92853 0.81889
 C3081 C 0.82942 0.91826 0.82908
 C3082 C 0.84836 0.92189 0.82795
 C3083 C 0.90013 0.95891 0.80358
 C3084 C 0.90647 0.97340 0.79282
 C3085 C 0.89398 0.98389 0.78284
 C3086 C 0.87506 0.97997 0.78357
 C3087 C 0.88751 0.92849 0.82530
 C3088 C 0.89824 0.91884 0.83342
 C3089 C 0.83588 0.97193 0.78463
 C3090 C 0.82360 0.97958 0.77653
 H3091 H 0.81302 0.95026 0.80010
 H3092 H 0.80226 0.92563 0.81979
 H3093 H 0.82438 0.90741 0.83789
 H3094 H 0.85750 0.91347 0.83611
 H3095 H 0.91037 0.95117 0.81113
 H3096 H 0.92115 0.97651 0.79222
 H3097 H 0.89898 0.99512 0.77450
 H3098 H 0.86586 0.98850 0.77560
 C3099 C 0.39847 0.28615 0.79118
 C3100 C 0.38891 0.30047 0.78224
 C3101 C 0.37639 0.31155 0.79237
 C3102 C 0.37340 0.30816 0.81135
 C3103 C 0.38284 0.29377 0.82027
 C3104 C 0.39543 0.28273 0.81016
 C3105 C 0.40525 0.26888 0.81954
 C3106 C 0.40277 0.26607 0.83837
 C3107 C 0.39043 0.27683 0.84824
 C3108 C 0.38049 0.29050 0.83935
 C3109 C 0.36750 0.32621 0.78331
 C3110 C 0.37096 0.32986 0.76478
 C3111 C 0.38319 0.31901 0.75487
 C3112 C 0.39207 0.30444 0.76342
 C3113 C 0.36151 0.32017 0.82193
 C3114 C 0.35183 0.33031 0.83077
 C3115 C 0.41323 0.27664 0.78158
 C3116 C 0.42644 0.26970 0.77425
 H3117 H 0.41501 0.26015 0.81246
 H3118 H 0.41048 0.25548 0.84534
 H3119 H 0.38855 0.27460 0.86287
 H3120 H 0.37110 0.29855 0.84764
 H3121 H 0.35790 0.33506 0.79044
 H3122 H 0.36414 0.34120 0.75810
 H3123 H 0.38585 0.32192 0.74049
 H3124 H 0.40148 0.29640 0.75514
 C3125 C 0.90153 0.29050 0.29511
 C3126 C 0.89934 0.28757 0.31429
 C3127 C 0.88706 0.29874 0.32462
 C3128 C 0.87713 0.31283 0.31572
 C3129 C 0.87959 0.31600 0.29664
 C3130 C 0.89177 0.30476 0.28628
 C3131 C 0.89438 0.30849 0.26732
 C3132 C 0.88534 0.32302 0.25888
 C3133 C 0.87346 0.33405 0.26901
 C3134 C 0.87051 0.33060 0.28766
 C3135 C 0.88551 0.29593 0.34386
 C3136 C 0.89600 0.28264 0.35269
 C3137 C 0.90806 0.27176 0.34262
 C3138 C 0.90969 0.27406 0.32362
 C3139 C 0.86501 0.32456 0.32632
 C3140 C 0.85484 0.33436 0.33499
 C3141 C 0.91553 0.28042 0.28502
 C3142 C 0.92814 0.27297 0.27716
 H3143 H 0.90351 0.30033 0.25887
 H3144 H 0.88760 0.32577 0.24440
 H3145 H 0.86653 0.34537 0.26241
 H3146 H 0.86120 0.33961 0.29497
 H3147 H 0.87639 0.30413 0.35230
 H3148 H 0.89481 0.28084 0.36744
 H3149 H 0.91621 0.26148 0.34955
 H3150 H 0.91928 0.26527 0.31639
 C3151 C 0.34855 0.79139 0.45392
 C3152 C 0.36787 0.78819 0.45407
 C3153 C 0.37988 0.79932 0.44327
 C3154 C 0.37246 0.81356 0.43240
 C3155 C 0.35310 0.81657 0.43199
 C3156 C 0.34110 0.80550 0.44282
 C3157 C 0.32177 0.80885 0.44224
 C3158 C 0.31455 0.82260 0.43117
 C3159 C 0.32628 0.83334 0.42051
 C3160 C 0.34535 0.83048 0.42091
 C3161 C 0.39917 0.79588 0.44365
 C3162 C 0.40638 0.78185 0.45439
 C3163 C 0.39463 0.77098 0.46496
 C3164 C 0.37557 0.77406 0.46485
 C3165 C 0.38473 0.82538 0.42192
 C3166 C 0.39488 0.83541 0.41339
 C3167 C 0.33609 0.78032 0.46500
 C3168 C 0.32424 0.77218 0.47339
 H3169 H 0.31200 0.80086 0.45022
 H3170 H 0.29974 0.82487 0.43080
 H3171 H 0.32057 0.84394 0.41186
 H3172 H 0.35390 0.83921 0.41236
 H3173 H 0.40886 0.80395 0.43564
 H3174 H 0.42118 0.77939 0.45451
 H3175 H 0.40031 0.76010 0.47327
 H3176 H 0.36695 0.76527 0.47328
 C3177 C 0.34562 0.28858 0.95233
 C3178 C 0.34781 0.28578 0.93313
 C3179 C 0.35957 0.29753 0.92276
 C3180 C 0.36899 0.31207 0.93164
 C3181 C 0.36649 0.31514 0.95074
 C3182 C 0.35482 0.30332 0.96113
 C3183 C 0.35224 0.30688 0.98013
 C3184 C 0.36086 0.32174 0.98859
 C3185 C 0.37225 0.33331 0.97842
 C3186 C 0.37512 0.33009 0.95972
 C3187 C 0.36116 0.29479 0.90351
 C3188 C 0.35120 0.28098 0.89471
 C3189 C 0.33963 0.26953 0.90483
 C3190 C 0.33797 0.27178 0.92383
 C3191 C 0.38085 0.32421 0.92109
 C3192 C 0.39088 0.33441 0.91265
 C3193 C 0.33212 0.27784 0.96253
 C3194 C 0.31978 0.27008 0.97058
 H3195 H 0.34350 0.29829 0.98862
 H3196 H 0.35865 0.32432 1.00311
 H3197 H 0.37886 0.34488 0.98504
 H3198 H 0.38404 0.33953 0.95239
 H3199 H 0.36989 0.30343 0.89504
 H3200 H 0.35243 0.27920 0.87995
 H3201 H 0.33188 0.25886 0.89792
 H3202 H 0.32879 0.26254 0.93110
 C3203 C 0.78673 0.45533 0.34769
 C3204 C 0.77969 0.43934 0.35618
 C3205 C 0.79105 0.42923 0.36845
 C3206 C 0.80936 0.43524 0.37221
 C3207 C 0.81649 0.45108 0.36354
 C3208 C 0.80514 0.46119 0.35128
 C3209 C 0.81279 0.47665 0.34232
 C3210 C 0.83116 0.48187 0.34526
 C3211 C 0.84225 0.47199 0.35726
 C3212 C 0.83505 0.45682 0.36641
 C3213 C 0.78391 0.41301 0.37637
 C3214 C 0.76606 0.40690 0.37221
 C3215 C 0.75495 0.41679 0.36022
 C3216 C 0.76160 0.43285 0.35227
 C3217 C 0.82108 0.42485 0.38454
 C3218 C 0.83102 0.41644 0.39479
 C3219 C 0.77602 0.46447 0.33355
 C3220 C 0.76831 0.47173 0.32081
 H3221 H 0.80474 0.48477 0.33282
 H3222 H 0.83682 0.49363 0.33815
 H3223 H 0.85652 0.47608 0.35949
 H3224 H 0.84427 0.44954 0.37554
 H3225 H 0.79206 0.40481 0.38572
 H3226 H 0.76084 0.39441 0.37829
 H3227 H 0.74111 0.41196 0.35701
 H3228 H 0.75246 0.44006 0.34300
 C3229 C 0.78930 0.95338 0.84816
 C3230 C 0.78224 0.93706 0.85597
 C3231 C 0.79361 0.92641 0.86775
 C3232 C 0.81192 0.93221 0.87173
 C3233 C 0.81921 0.94819 0.86343
 C3234 C 0.80786 0.95883 0.85164
 C3235 C 0.81562 0.97447 0.84309
 C3236 C 0.83411 0.97931 0.84593
 C3237 C 0.84521 0.96890 0.85746
 C3238 C 0.83789 0.95357 0.86624
 C3239 C 0.78641 0.90995 0.87507
 C3240 C 0.76846 0.90416 0.87088
 C3241 C 0.75732 0.91460 0.85940
 C3242 C 0.76406 0.93087 0.85199
 C3243 C 0.82330 0.92187 0.88441
 C3244 C 0.83298 0.91377 0.89515
 C3245 C 0.77836 0.96342 0.83485
 C3246 C 0.77047 0.97131 0.82262
 H3247 H 0.80759 0.98300 0.83396
 H3248 H 0.83987 0.99119 0.83911
 H3249 H 0.85958 0.97268 0.85959
 H3250 H 0.84712 0.94584 0.87498
 H3251 H 0.79461 0.90130 0.88393
 H3252 H 0.76319 0.89150 0.87651
 H3253 H 0.74341 0.91002 0.85615
 H3254 H 0.75490 0.93850 0.84308
 C3255 C 0.29143 0.79567 0.40146
 C3256 C 0.31009 0.79060 0.39816
 C3257 C 0.32154 0.80163 0.38670
 C3258 C 0.31427 0.81763 0.37859
 C3259 C 0.29581 0.82300 0.38232
 C3260 C 0.28434 0.81198 0.39379
 C3261 C 0.26609 0.81786 0.39770
 C3262 C 0.25939 0.83421 0.39057
 C3263 C 0.27060 0.84497 0.37934
 C3264 C 0.28859 0.83947 0.37517
 C3265 C 0.34031 0.79662 0.38408
 C3266 C 0.34762 0.78129 0.39272
 C3267 C 0.33644 0.77052 0.40394
 C3268 C 0.31786 0.77499 0.40659
 C3269 C 0.32591 0.82869 0.36667
 C3270 C 0.33572 0.83756 0.35659
 C3271 C 0.28041 0.78533 0.41460
 C3272 C 0.27241 0.77730 0.42674
 H3273 H 0.25687 0.80996 0.40638
 H3274 H 0.24544 0.83857 0.39380
 H3275 H 0.26535 0.85768 0.37388
 H3276 H 0.29682 0.84834 0.36646
 H3277 H 0.34960 0.80463 0.37557
 H3278 H 0.36206 0.77779 0.39073
 H3279 H 0.34220 0.75864 0.41067
 H3280 H 0.30976 0.76618 0.41548
 C3281 C 0.28453 0.29475 0.90087
 C3282 C 0.28137 0.29341 0.88170
 C3283 C 0.29268 0.30350 0.86925
 C3284 C 0.30701 0.31491 0.87609
 C3285 C 0.30993 0.31655 0.89529
 C3286 C 0.29875 0.30635 0.90772
 C3287 C 0.30219 0.30797 0.92687
 C3288 C 0.31610 0.31946 0.93350
 C3289 C 0.32683 0.32964 0.92134
 C3290 C 0.32390 0.32821 0.90244
 C3291 C 0.28933 0.30188 0.85011
 C3292 C 0.27520 0.29062 0.84347
 C3293 C 0.26416 0.28076 0.85565
 C3294 C 0.26715 0.28208 0.87458
 C3295 C 0.31901 0.32469 0.86340
 C3296 C 0.32912 0.33276 0.85293
 C3297 C 0.27354 0.28411 0.91375
 C3298 C 0.26567 0.27590 0.92585
 H3299 H 0.29417 0.30045 0.93696
 H3300 H 0.31853 0.32052 0.94817
 H3301 H 0.33754 0.33864 0.92658
 H3302 H 0.33268 0.33635 0.89354
 H3303 H 0.29754 0.30930 0.84010
 H3304 H 0.27282 0.28954 0.82878
 H3305 H 0.25321 0.27203 0.85042
 H3306 H 0.25822 0.27417 0.88354
 C3307 C 0.45747 0.29738 0.84367
 C3308 C 0.46183 0.29791 0.86266
 C3309 C 0.45091 0.30860 0.87486
 C3310 C 0.43568 0.31864 0.86797
 C3311 C 0.43167 0.31857 0.84891
 C3312 C 0.44258 0.30789 0.83671
 C3313 C 0.43834 0.30812 0.81767
 C3314 C 0.42397 0.31881 0.81090
 C3315 C 0.41330 0.32922 0.82283
 C3316 C 0.41697 0.32908 0.84165
 C3317 C 0.45554 0.30896 0.89379
 C3318 C 0.47054 0.29904 0.90048
 C3319 C 0.48119 0.28855 0.88855
 C3320 C 0.47693 0.28793 0.86983
 C3321 C 0.42390 0.32873 0.88053
 C3322 C 0.41399 0.33690 0.89103
 C3323 C 0.46823 0.28622 0.83110
 C3324 C 0.47627 0.27756 0.81949
 H3325 H 0.44622 0.30029 0.80777
 H3326 H 0.42118 0.31910 0.79626
 H3327 H 0.40219 0.33755 0.81746
 H3328 H 0.40833 0.33748 0.85037
 H3329 H 0.44770 0.31696 0.90360
 H3330 H 0.47391 0.29949 0.91500
 H3331 H 0.49281 0.28087 0.89381
 H3332 H 0.48562 0.27962 0.86105
 C3333 C 0.95915 0.30085 0.34414
 C3334 C 0.94476 0.31210 0.33732
 C3335 C 0.93356 0.32220 0.34976
 C3336 C 0.93660 0.32076 0.36895
 C3337 C 0.95103 0.30959 0.37577
 C3338 C 0.96237 0.29964 0.36331
 C3339 C 0.97671 0.28858 0.37042
 C3340 C 0.97976 0.28738 0.38934
 C3341 C 0.96867 0.29709 0.40153
 C3342 C 0.95444 0.30809 0.39491
 C3343 C 0.91947 0.33357 0.34264
 C3344 C 0.91643 0.33482 0.32375
 C3345 C 0.92717 0.32474 0.31160
 C3346 C 0.94120 0.31351 0.31820
 C3347 C 0.92480 0.33065 0.38165
 C3348 C 0.91501 0.33889 0.39222
 C3349 C 0.97025 0.29035 0.33129
 C3350 C 0.97841 0.28198 0.31954
 H3351 H 0.98569 0.28079 0.36146
 H3352 H 0.99079 0.27886 0.39456
 H3353 H 0.97109 0.29610 0.41621
 H3354 H 0.94619 0.31540 0.40493
 H3355 H 0.91066 0.34161 0.35154
 H3356 H 0.90563 0.34362 0.31851
 H3357 H 0.92467 0.32566 0.29694
 H3358 H 0.94923 0.30604 0.30812
 C3359 C 0.45460 0.34546 0.78946
 C3360 C 0.43830 0.35356 0.78237
 C3361 C 0.42759 0.36535 0.79368
 C3362 C 0.43325 0.36898 0.81200
 C3363 C 0.44930 0.36057 0.81924
 C3364 C 0.46004 0.34881 0.80793
 C3365 C 0.47571 0.34012 0.81565
 C3366 C 0.48052 0.34284 0.83405
 C3367 C 0.47001 0.35434 0.84510
 C3368 C 0.45462 0.36321 0.83783
 C3369 C 0.41107 0.37288 0.78648
 C3370 C 0.40522 0.36876 0.76866
 C3371 C 0.41569 0.35723 0.75760
 C3372 C 0.43208 0.34972 0.76428
 C3373 C 0.42230 0.38098 0.82355
 C3374 C 0.41326 0.39107 0.83309
 C3375 C 0.46449 0.33197 0.77863
 C3376 C 0.47225 0.31972 0.77069
 H3377 H 0.48430 0.33099 0.80765
 H3378 H 0.49242 0.33592 0.83978
 H3379 H 0.47376 0.35636 0.85940
 H3380 H 0.44681 0.37192 0.84701
 H3381 H 0.40242 0.38186 0.79458
 H3382 H 0.39247 0.37452 0.76342
 H3383 H 0.41107 0.35404 0.74378
 H3384 H 0.43974 0.34079 0.75518
 C3385 C 0.95651 0.34987 0.28634
 C3386 C 0.96263 0.35341 0.30456
 C3387 C 0.95229 0.36525 0.31614
 C3388 C 0.93598 0.37358 0.30941
 C3389 C 0.92983 0.37002 0.29123
 C3390 C 0.94015 0.35815 0.27965
 C3391 C 0.93344 0.35433 0.26173
 C3392 C 0.91696 0.36197 0.25546
 C3393 C 0.90686 0.37359 0.26677
 C3394 C 0.91318 0.37766 0.28445
 C3395 C 0.95822 0.36796 0.33454
 C3396 C 0.97381 0.35908 0.34136
 C3397 C 0.98394 0.34751 0.33004
 C3398 C 0.97854 0.34473 0.31182
 C3399 C 0.92501 0.38499 0.32154
 C3400 C 0.91591 0.39432 0.33176
 C3401 C 0.96564 0.33582 0.27560
 C3402 C 0.97290 0.32308 0.26803
 H3403 H 0.94082 0.34536 0.25245
 H3404 H 0.91196 0.35883 0.24175
 H3405 H 0.89404 0.37944 0.26184
 H3406 H 0.90481 0.38672 0.29276
 H3407 H 0.95076 0.37677 0.34392
 H3408 H 0.97803 0.36117 0.35552
 H3409 H 0.99603 0.34062 0.33540
 H3410 H 0.98687 0.33558 0.30358
 C3411 C 0.29414 0.85014 0.46306
 C3412 C 0.28552 0.85950 0.44833
 C3413 C 0.29622 0.87114 0.43678
 C3414 C 0.31544 0.87340 0.44008
 C3415 C 0.32405 0.86412 0.45484
 C3416 C 0.31338 0.85243 0.46636
 C3417 C 0.32243 0.84273 0.48058
 C3418 C 0.34150 0.84445 0.48326
 C3419 C 0.35193 0.85592 0.47202
 C3420 C 0.34337 0.86573 0.45800
 C3421 C 0.28742 0.87993 0.42180
 C3422 C 0.26863 0.87721 0.41827
 C3423 C 0.25817 0.86581 0.42956
 C3424 C 0.26644 0.85705 0.44446
 C3425 C 0.32651 0.88442 0.42764
 C3426 C 0.33557 0.89352 0.41711
 C3427 C 0.28390 0.83620 0.47302
 C3428 C 0.27615 0.82343 0.48016
 H3429 H 0.31491 0.83364 0.48969
 H3430 H 0.34821 0.83682 0.49412
 H3431 H 0.36674 0.85720 0.47415
 H3432 H 0.35208 0.87442 0.44956
 H3433 H 0.29498 0.88890 0.41260
 H3434 H 0.26215 0.88394 0.40669
 H3435 H 0.24358 0.86371 0.42674
 H3436 H 0.25773 0.84832 0.45286
 C3437 C 0.28991 0.34794 0.95940
 C3438 C 0.28427 0.35137 0.94103
 C3439 C 0.29513 0.36296 0.92957
 C3440 C 0.31152 0.37109 0.93655
 C3441 C 0.31735 0.36742 0.95479
 C3442 C 0.30649 0.35583 0.96626
 C3443 C 0.31279 0.35204 0.98431
 C3444 C 0.32937 0.35944 0.99082
 C3445 C 0.33999 0.37076 0.97961
 C3446 C 0.33410 0.37479 0.96180
 C3447 C 0.28956 0.36568 0.91107
 C3448 C 0.27384 0.35704 0.90404
 C3449 C 0.26323 0.34570 0.91523
 C3450 C 0.26826 0.34292 0.93355
 C3451 C 0.32257 0.38290 0.92480
 C3452 C 0.33152 0.39279 0.91491
 C3453 C 0.28002 0.33441 0.97026
 C3454 C 0.27244 0.32197 0.97812
 H3455 H 0.30501 0.34329 0.99354
 H3456 H 0.33404 0.35632 1.00463
 H3457 H 0.35289 0.37641 0.98473
 H3458 H 0.34289 0.38360 0.95356
 H3459 H 0.29742 0.37430 0.90178
 H3460 H 0.26990 0.35915 0.88981
 H3461 H 0.25104 0.33898 0.90970
 H3462 H 0.25956 0.33395 0.94169
 C3463 C 0.79297 0.40182 0.28791
 C3464 C 0.78404 0.39255 0.30259
 C3465 C 0.79438 0.38076 0.31419
 C3466 C 0.81355 0.37819 0.31094
 C3467 C 0.82253 0.38752 0.29635
 C3468 C 0.81221 0.39942 0.28483
 C3469 C 0.82164 0.40919 0.27082
 C3470 C 0.84071 0.40736 0.26835
 C3471 C 0.85077 0.39567 0.27958
 C3472 C 0.84185 0.38576 0.29337
 C3473 C 0.78531 0.37215 0.32918
 C3474 C 0.76656 0.37515 0.33264
 C3475 C 0.75643 0.38663 0.32126
 C3476 C 0.76498 0.39524 0.30637
 C3477 C 0.82419 0.36656 0.32311
 C3478 C 0.83295 0.35686 0.33325
 C3479 C 0.78292 0.41553 0.27756
 C3480 C 0.77504 0.42790 0.26999
 H3481 H 0.81441 0.41847 0.26175
 H3482 H 0.84772 0.41507 0.25768
 H3483 H 0.86559 0.39432 0.27764
 H3484 H 0.85029 0.37691 0.30181
 H3485 H 0.79261 0.36314 0.33846
 H3486 H 0.75988 0.36856 0.34424
 H3487 H 0.74187 0.38894 0.32402
 H3488 H 0.75652 0.40408 0.29794
   
