data_POSCAR
  _audit_creation_date              2014-09-24
  _audit_creation_method            'ToBaCCo'
  _symmetry_space_group_name_H-M    'P1'
  _symmetry_Int_Tables_number       1
  _symmetry_cell_setting            triclinic
  loop_
  _symmetry_equiv_pos_as_xyz
 x,y,z
_cell_length_a 55.7597
_cell_length_b 55.5237
_cell_length_c 55.4326
_cell_angle_alpha 90.015300
_cell_angle_beta 90.007900
_cell_angle_gamma 90.018700
loop_
  _atom_site_label
  _atom_site_type_symbol
  _atom_site_fract_x
  _atom_site_fract_y
  _atom_site_fract_z
C1 C 0.30276 0.44898 0.91844
 C2 C 0.29292 0.42756 0.92747
 C3 C 0.30355 0.41545 0.94697
 C4 C 0.32449 0.42503 0.95740
 C5 C 0.33472 0.44676 0.94899
 C6 C 0.32285 0.45890 0.93005
 H7 H 0.27729 0.41990 0.91884
 H8 H 0.33362 0.41440 0.97089
 H9 H 0.32895 0.47642 0.92422
 C10 C 0.44676 0.83368 0.44928
 C11 C 0.45617 0.82467 0.42740
 C12 C 0.44510 0.80556 0.41500
 C13 C 0.42421 0.79520 0.42466
 C14 C 0.41486 0.80306 0.44683
 C15 C 0.42678 0.82164 0.45924
 H16 H 0.47157 0.83303 0.41914
 H17 H 0.41474 0.78159 0.41442
 H18 H 0.42049 0.82637 0.47705
 C19 C 0.94672 0.91735 0.80361
 C20 C 0.95484 0.92562 0.82617
 C21 C 0.94419 0.94567 0.83776
 C22 C 0.92422 0.95656 0.82638
 C23 C 0.91557 0.94829 0.80405
 C24 C 0.92771 0.92952 0.79238
 H25 H 0.96841 0.91523 0.83538
 H26 H 0.91522 0.97165 0.83460
 H27 H 0.92190 0.92404 0.77458
 C28 C 0.44844 -0.08172 0.30274
 C29 C 0.42930 -0.06948 0.29176
 C30 C 0.41686 -0.05113 0.30388
 C31 C 0.42523 -0.04351 0.32655
 C32 C 0.44553 -0.05417 0.33719
 C33 C 0.45680 -0.07349 0.32523
 H34 H 0.42362 -0.07467 0.27384
 H35 H 0.41531 -0.02998 0.33644
 H36 H 0.47179 -0.08245 0.33372
 C37 C 0.80223 0.30057 0.32971
 C38 C 0.82152 0.28942 0.31780
 C39 C 0.83338 0.30076 0.29857
 C40 C 0.82401 0.32241 0.28950
 C41 C 0.80408 0.33356 0.30040
 C42 C 0.79367 0.32268 0.32081
 H43 H 0.82779 0.27201 0.32387
 H44 H 0.83271 0.33097 0.27434
 H45 H 0.77963 0.33205 0.33046
 C46 C -0.19795 0.83596 0.80256
 C47 C -0.17737 0.82535 0.79216
 C48 C -0.16570 0.80564 0.80303
 C49 C -0.17515 0.79604 0.82448
 C50 C -0.19626 0.80536 0.83465
 C51 C -0.20774 0.82476 0.82319
 H52 H -0.16945 0.83299 0.77617
 H53 H -0.16552 0.78191 0.83379
 H54 H -0.22475 0.83073 0.83034
 C55 C 0.94595 0.33346 0.44591
 C56 C 0.92486 0.32248 0.45485
 C57 C 0.91552 0.30133 0.44439
 C58 C 0.92726 0.29129 0.42435
 C59 C 0.94793 0.30196 0.41472
 C60 C 0.95762 0.32225 0.42625
 H61 H 0.91455 0.33114 0.46887
 H62 H 0.91991 0.27544 0.41579
 H63 H 0.97466 0.32893 0.41986
 C64 C 0.44742 0.44812 0.83503
 C65 C 0.42687 0.45860 0.82468
 C66 C 0.41819 0.45092 0.80215
 C67 C 0.43046 0.43245 0.78997
 C68 C 0.44987 0.42040 0.80070
 C69 C 0.45868 0.42891 0.82288
 H70 H 0.41695 0.47199 0.83476
 H71 H 0.42450 0.42694 0.77224
 H72 H 0.47393 0.42010 0.83104
 C73 C 0.80465 0.91350 0.94684
 C74 C 0.82384 0.92540 0.95845
 C75 C 0.83561 0.94510 0.94789
 C76 C 0.82652 0.95469 0.92634
 C77 C 0.80668 0.94417 0.91478
 C78 C 0.79624 0.92340 0.92489
 H79 H 0.82972 0.91979 0.97613
 H80 H 0.83520 0.97015 0.91831
 H81 H 0.78254 0.91429 0.91459
 C82 C 0.30196 0.83396 0.30032
 C83 C 0.29123 0.82219 0.32015
 C84 C 0.30284 0.80348 0.33255
 C85 C 0.32490 0.79503 0.32383
 C86 C 0.33527 0.80489 0.30296
 C87 C 0.32362 0.82420 0.29132
 H88 H 0.27350 0.82728 0.32610
 H89 H 0.33451 0.78139 0.33388
 H90 H 0.33227 0.83216 0.27589
 C91 C 0.80382 0.41398 0.44654
 C92 C 0.82461 0.42378 0.45709
 C93 C 0.83456 0.44574 0.44890
 C94 C 0.82259 0.45780 0.42995
 C95 C 0.80271 0.44764 0.41818
 C96 C 0.79312 0.42604 0.42704
 H97 H 0.83381 0.41318 0.47055
 H98 H 0.82840 0.47546 0.42424
 H99 H 0.77763 0.41823 0.41832
 C100 C 0.94712 0.83308 -0.05145
 C101 C 0.92573 0.82299 -0.04223
 C102 C 0.91417 0.80364 -0.05388
 C103 C 0.92435 0.79406 -0.07496
 C104 C 0.94614 0.80291 -0.08397
 C105 C 0.95766 0.82173 -0.07162
 H106 H 0.91716 0.83075 -0.02663
 H107 H 0.91476 0.78034 -0.08494
 H108 H 0.97519 0.82724 -0.07782
 C109 C 0.30368 0.33392 0.79980
 C110 C 0.29325 0.32315 0.82026
 C111 C 0.30159 0.30093 0.82909
 C112 C 0.32062 0.28951 0.81702
 C113 C 0.33255 0.30073 0.79775
 C114 C 0.32342 0.32254 0.78878
 H115 H 0.27940 0.33269 0.83001
 H116 H 0.32667 0.27201 0.82306
 H117 H 0.33217 0.33106 0.77363
 C118 C 0.16521 0.55217 0.55352
 C119 C 0.17418 0.54445 0.57595
 C120 C 0.19449 0.55537 0.58635
 C121 C 0.20517 0.57505 0.57447
 C122 C 0.19615 0.58348 0.55234
 C123 C 0.17700 0.57111 0.54155
 H124 H 0.16477 0.53059 0.58587
 H125 H 0.22022 0.58415 0.58270
 H126 H 0.17099 0.57663 0.52384
 C127 C 0.58278 0.69720 0.05232
 C128 C 0.57246 0.67614 0.04266
 C129 C 0.55069 0.66704 0.05169
 C130 C 0.53919 0.67946 0.07049
 C131 C 0.54990 0.69949 0.08158
 C132 C 0.57128 0.70868 0.07183
 H133 H 0.58199 0.66617 0.02891
 H134 H 0.52203 0.67309 0.07699
 H135 H 0.57940 0.72438 0.07996
 C136 C 0.69565 0.19468 0.66251
 C137 C 0.67455 0.20473 0.67197
 C138 C 0.66522 0.19687 0.69410
 C139 C 0.67729 0.17859 0.70675
 C140 C 0.69766 0.16692 0.69710
 C141 C 0.70704 0.17591 0.67517
 H142 H 0.66487 0.21808 0.66161
 H143 H 0.67079 0.17389 0.72449
 H144 H 0.72265 0.16779 0.66708
 C145 C 1.08554 0.05401 0.19805
 C146 C 1.07374 0.04119 0.17973
 C147 C 1.05294 0.05022 0.16840
 C148 C 1.04273 0.07149 0.17795
 C149 C 1.05386 0.08433 0.19680
 C150 C 1.07546 0.07557 0.20645
 H151 H 1.08087 0.02384 0.17461
 H152 H 1.02670 0.07902 0.17012
 H153 H 1.08497 0.08609 0.21982
 C154 C 0.05420 0.16510 1.05261
 C155 C 0.04396 0.17639 1.07286
 C156 C 0.05306 0.19836 1.08197
 C157 C 0.07269 0.20886 1.06979
 C158 C 0.08409 0.19726 1.05043
 C159 C 0.07429 0.17573 1.04157
 H160 H 0.02999 0.16689 1.08243
 H161 H 0.07923 0.22642 1.07503
 H162 H 0.08275 0.16688 1.02643
 C163 C 0.16463 0.69760 0.69717
 C164 C 0.17412 0.70666 0.67550
 C165 C 0.19382 0.69547 0.66419
 C166 C 0.20391 0.67489 0.67496
 C167 C 0.19518 0.66602 0.69700
 C168 C 0.17604 0.67798 0.70825
 H169 H 0.16571 0.72205 0.66709
 H170 H 0.21788 0.66510 0.66562
 H171 H 0.16967 0.67169 0.72558
 C172 C 1.19744 0.16637 0.19597
 C173 C 1.20655 0.17508 0.17399
 C174 C 1.19566 0.19464 0.16207
 C175 C 1.17513 0.20523 0.17237
 C176 C 1.16603 0.19717 0.19459
 C177 C 1.17788 0.17829 0.20655
 H178 H 1.22184 0.16628 0.16586
 H179 H 1.16562 0.21908 0.16253
 H180 H 1.17157 0.17252 0.22408
 C181 C 0.66520 1.05148 0.55311
 C182 C 0.67543 1.04295 0.57477
 C183 C 0.69653 1.05308 0.58422
 C184 C 0.70736 1.07244 0.57206
 C185 C 0.69736 1.08212 0.55081
 C186 C 0.67703 1.07051 0.54106
 H187 H 0.66628 1.02948 0.58540
 H188 H 0.72301 1.08055 0.58010
 H189 H 0.67107 1.07562 0.52327
 C190 C 0.55311 0.55261 0.16891
 C191 C 0.54439 0.57457 0.17807
 C192 C 0.55472 0.58525 0.19865
 C193 C 0.57455 0.57396 0.20958
 C194 C 0.58394 0.55236 0.20037
 C195 C 0.57232 0.54133 0.18080
 H196 H 0.53028 0.58394 0.16852
 H197 H 0.58314 0.58235 0.22492
 H198 H 0.57864 0.52403 0.17447
 C199 C 0.66783 0.70041 0.19935
 C200 C 0.67643 0.67857 0.20882
 C201 C 0.69581 0.66646 0.19797
 C202 C 0.70620 0.67627 0.17701
 C203 C 0.69826 0.69836 0.16756
 C204 C 0.67977 0.71068 0.17956
 H205 H 0.66767 0.67068 0.22431
 H206 H 0.71976 0.66612 0.16746
 H207 H 0.67416 0.72818 0.17310
 C208 C 0.16534 0.05231 1.05359
 C209 C 0.17502 0.04433 1.07580
 C210 C 0.19543 0.05527 1.08603
 C211 C 0.20592 0.07501 1.07419
 C212 C 0.19660 0.08358 1.05233
 C213 C 0.17718 0.07146 1.04177
 H214 H 0.16596 0.03063 1.08618
 H215 H 0.22113 0.08402 1.08226
 H216 H 0.17170 0.07702 1.02394
 C217 C 0.58524 0.19551 0.55246
 C218 C 0.57392 0.20795 0.57137
 C219 C 0.55361 0.19845 0.58295
 C220 C 0.54340 0.17713 0.57394
 C221 C 0.55387 0.16471 0.55449
 C222 C 0.57501 0.17391 0.54411
 H223 H 0.58119 0.22499 0.57740
 H224 H 0.52759 0.16982 0.58253
 H225 H 0.58412 0.16367 0.53026
 C226 C 0.08590 0.55496 0.69769
 C227 C 0.07633 0.57697 0.70572
 C228 C 0.05523 0.58645 0.69548
 C229 C 0.04422 0.57392 0.67636
 C230 C 0.05373 0.55209 0.66776
 C231 C 0.07391 0.54234 0.67933
 H232 H 0.08587 0.58724 0.71926
 H233 H 0.02849 0.58146 0.66782
 H234 H 0.08061 0.52493 0.67372
 C235 C 0.66618 0.55158 0.05289
 C236 C 0.67835 0.57013 0.04079
 C237 C 0.69791 0.58201 0.05142
 C238 C 0.70681 0.57340 0.07353
 C239 C 0.69564 0.55407 0.08554
 C240 C 0.67507 0.54360 0.07523
 H241 H 0.67217 0.57579 0.02318
 H242 H 0.72208 0.58218 0.08173
 H243 H 0.66532 0.52998 0.08517
 C244 C 0.05220 0.69740 0.58292
 C245 C 0.04354 0.67526 0.57427
 C246 C 0.05332 0.66454 0.55349
 C247 C 0.07282 0.67590 0.54197
 C248 C 0.08226 0.69776 0.55065
 C249 C 0.07085 0.70888 0.57036
 H250 H 0.02987 0.66579 0.58437
 H251 H 0.08104 0.66734 0.52656
 H252 H 0.07679 0.72643 0.57635
 C253 C 0.55207 1.05248 0.66895
 C254 C 0.57195 1.04240 0.68095
 C255 C 0.58409 1.05479 0.69929
 C256 C 0.57513 1.07705 0.70712
 C257 C 0.55429 1.08725 0.69685
 C258 C 0.54304 1.07461 0.67775
 H259 H 0.57810 1.02453 0.67630
 H260 H 0.58554 1.08710 0.72014
 H261 H 0.52740 1.08229 0.66943
 C262 C 0.44794 0.33221 0.94836
 C263 C 0.46039 0.32052 0.92966
 C264 C 0.45042 0.30074 0.91746
 C265 C 0.42886 0.29087 0.92608
 C266 C 0.41654 0.30140 0.94557
 C267 C 0.42601 0.32241 0.95620
 H268 H 0.47775 0.32718 0.92409
 H269 H 0.42130 0.27532 0.91715
 H270 H 0.41571 0.33172 0.96985
 C271 C 0.94453 0.44532 0.33715
 C272 C 0.92520 0.45675 0.32519
 C273 C 0.91660 0.44846 0.30282
 C274 C 0.92821 0.42890 0.29180
 C275 C 0.94653 0.41626 0.30364
 C276 C 0.95462 0.42468 0.32613
 H277 H 0.91669 0.47229 0.33305
 H278 H 0.92265 0.42312 0.27402
 H279 H 0.96772 0.41399 0.33569
 C280 C 0.30299 0.94648 0.41776
 C281 C 0.29167 0.92703 0.42944
 C282 C 0.30085 0.91750 0.45103
 C283 C 0.32084 0.92867 0.46164
 C284 C 0.33318 0.94732 0.44987
 C285 C 0.32401 0.95619 0.42796
 H286 H 0.27604 0.91886 0.42131
 H287 H 0.32721 0.92241 0.47897
 H288 H 0.33383 0.96992 0.41825
 O289 O 0.25328 0.47131 0.81544
 O290 O 0.21118 0.47212 0.80663
 O291 O 0.28266 0.43872 0.75192
 O292 O 0.28125 0.44557 0.71184
 O293 O 0.31534 0.50156 0.78139
 O294 O 0.30560 0.54373 0.77994
 O295 O 0.21967 0.50382 0.68830
 O296 O 0.22404 0.46203 0.69518
 O297 O 0.18752 0.53197 0.75053
 O298 O 0.19684 0.52974 0.79419
 O299 O 0.24838 0.56572 0.72157
 O300 O 0.29165 0.55727 0.72229
 O301 O 0.24661 0.53457 0.68927
 O302 O 0.29128 0.53151 0.69642
 O303 O 0.21865 0.56421 0.74958
 O304 O 0.22221 0.55570 0.79404
 O305 O 0.18849 0.50462 0.72003
 O306 O 0.19626 0.46047 0.72353
 O307 O 0.28217 0.50032 0.81515
 O308 O 0.27894 0.54290 0.80696
 O309 O 0.31514 0.47261 0.75234
 O310 O 0.30576 0.47703 0.70932
 O311 O 0.25377 0.43757 0.78093
 O312 O 0.21149 0.44583 0.77953
 Zr313 Zr 0.23865 0.47238 0.78035
 O314 O 0.21504 0.49350 0.75959
 Zr315 Zr 0.28044 0.47369 0.73761
 O316 O 0.25858 0.49465 0.71479
 Zr317 Zr 0.28015 0.51551 0.78050
 O318 O 0.25841 0.53850 0.75968
 Zr319 Zr 0.22235 0.48830 0.72276
 O320 O 0.24413 0.46490 0.74347
 Zr321 Zr 0.22211 0.53013 0.76569
 O322 O 0.24382 0.50901 0.78877
 Zr323 Zr 0.26388 0.53128 0.72287
 O324 O 0.28790 0.51035 0.74374
 O325 O 0.27476 0.47906 0.77422
 O326 O 0.22764 0.52487 0.72895
 C327 C 0.27027 0.48338 0.82550
 C328 C 0.27093 0.42798 0.76875
 C329 C 0.32544 0.48461 0.76925
 C330 C 0.22995 0.52231 0.67895
 C331 C 0.17811 0.52127 0.73228
 C332 C 0.23039 0.57486 0.73273
 H333 H 0.19830 0.48938 0.76371
 H334 H 0.26211 0.55543 0.76372
 H335 H 0.28520 0.46882 0.78437
 H336 H 0.26208 0.49094 0.69771
 H337 H 0.23203 0.44773 0.70221
 H338 H 0.27202 0.45103 0.69762
 H339 H 0.23551 0.56712 0.79109
 H340 H 0.26305 0.54164 0.81482
 H341 H 0.18509 0.46360 0.73702
 H342 H 0.21184 0.43874 0.76314
 H343 H 0.29032 0.56697 0.73719
 H344 H 0.31354 0.54304 0.76398
 H345 H 0.21155 0.48811 0.81453
 H346 H 0.18667 0.51527 0.79219
 H347 H 0.31418 0.49254 0.71175
 H348 H 0.28796 0.51838 0.68484
 O349 O 0.31472 -0.00044 0.28180
 O350 O 0.30580 0.04180 0.28085
 O351 O 0.25253 -0.03076 0.31445
 O352 O 0.21252 -0.02929 0.30819
 O353 O 0.28119 -0.06287 0.25111
 O354 O 0.27959 -0.05284 0.20899
 O355 O 0.18790 0.03249 0.25002
 O356 O 0.19508 0.02810 0.29173
 O357 O 0.24965 0.06548 0.22171
 O358 O 0.29270 0.05632 0.22281
 O359 O 0.22053 0.00401 0.18775
 O360 O 0.22184 -0.03943 0.19603
 O361 O 0.18876 0.00509 0.21954
 O362 O 0.19653 -0.03954 0.22204
 O363 O 0.24779 0.03443 0.18911
 O364 O 0.29250 0.03057 0.19704
 O365 O 0.21932 0.06416 0.24907
 O366 O 0.22318 0.05615 0.29322
 O367 O 0.31455 -0.02919 0.25250
 O368 O 0.30616 -0.02580 0.20984
 O369 O 0.25243 -0.06312 0.28019
 O370 O 0.20962 -0.05378 0.27660
 O371 O 0.28098 -0.00134 0.31550
 O372 O 0.27878 0.04131 0.30737
 Zr373 Zr 0.27981 0.01407 0.28074
 O374 O 0.25885 0.03764 0.25975
 Zr375 Zr 0.23771 -0.02828 0.27966
 O376 O 0.21469 -0.00644 0.25893
 Zr377 Zr 0.28001 -0.02743 0.23739
 O378 O 0.25888 -0.00578 0.21457
 Zr379 Zr 0.22233 0.03004 0.26527
 O380 O 0.24325 0.00824 0.28851
 Zr381 Zr 0.26459 0.03070 0.22295
 O382 O 0.28792 0.00911 0.24395
 Zr383 Zr 0.22244 -0.01166 0.22218
 O384 O 0.24359 -0.03561 0.24287
 O385 O 0.27398 -0.02223 0.27394
 O386 O 0.22816 0.02482 0.22855
 C387 C 0.32477 -0.01740 0.26964
 C388 C 0.26931 -0.01891 0.32508
 C389 C 0.26918 -0.07331 0.26796
 C390 C 0.17846 0.02181 0.23177
 C391 C 0.23153 0.07480 0.23254
 C392 C 0.23113 0.02236 0.17855
 H393 H 0.26289 0.05446 0.26389
 H394 H 0.26274 -0.00941 0.19756
 H395 H 0.28420 -0.03276 0.28402
 H396 H 0.19778 -0.01013 0.26281
 H397 H 0.20222 0.02010 0.30600
 H398 H 0.19826 -0.02009 0.30293
 H399 H 0.28894 0.01786 0.18506
 H400 H 0.31375 -0.00973 0.21107
 H401 H 0.23658 0.06738 0.29009
 H402 H 0.26270 0.04044 0.31488
 H403 H 0.23650 -0.03788 0.18611
 H404 H 0.26375 -0.06086 0.20961
 H405 H 0.31371 0.04132 0.26487
 H406 H 0.29148 0.06582 0.23785
 H407 H 0.21190 -0.06224 0.26105
 H408 H 0.18523 -0.03656 0.23547
 O409 O 0.56560 0.72377 0.24889
 O410 O 0.55632 0.72539 0.29113
 O411 O 0.50280 0.68744 0.22088
 O412 O 0.46296 0.69364 0.22150
 O413 O 0.53001 0.75064 0.18486
 O414 O 0.52803 0.79295 0.19356
 O415 O 0.43822 0.75378 0.28154
 O416 O 0.44640 0.71138 0.27750
 O417 O 0.49753 0.78529 0.31179
 O418 O 0.54256 0.78181 0.30344
 O419 O 0.46947 0.81500 0.25113
 O420 O 0.47092 0.80515 0.20708
 O421 O 0.43816 0.78301 0.25282
 O422 O 0.44531 0.77951 0.20865
 O423 O 0.49936 0.81647 0.27894
 O424 O 0.54187 0.80802 0.27813
 O425 O 0.47056 0.75460 0.31337
 O426 O 0.47334 0.71233 0.30680
 O427 O 0.56419 0.75086 0.21812
 O428 O 0.55523 0.79335 0.21987
 O429 O 0.50253 0.72037 0.18646
 O430 O 0.45981 0.72395 0.19574
 O431 O 0.53329 0.68930 0.24814
 O432 O 0.53038 0.69787 0.29088
 Zr433 Zr 0.53060 0.72402 0.26316
 O434 O 0.50928 0.74526 0.28618
 Zr435 Zr 0.48795 0.72234 0.22136
 O436 O 0.46473 0.74362 0.24253
 Zr437 Zr 0.52940 0.76546 0.21990
 O438 O 0.50821 0.78863 0.24108
 Zr439 Zr 0.47280 0.73870 0.27914
 O440 O 0.49416 0.71511 0.25817
 Zr441 Zr 0.51433 0.78179 0.27786
 O442 O 0.53789 0.76067 0.25664
 Zr443 Zr 0.47181 0.78028 0.23600
 O444 O 0.49296 0.75892 0.21256
 O445 O 0.52419 0.72911 0.22662
 O446 O 0.47792 0.77533 0.27267
 C447 C 0.57511 0.73502 0.23101
 C448 C 0.52087 0.67824 0.23201
 C449 C 0.51853 0.73288 0.17542
 C450 C 0.42831 0.77136 0.27021
 C451 C 0.48105 0.77306 0.32247
 C452 C 0.48162 0.82586 0.26759
 H453 H 0.51347 0.74184 0.30315
 H454 H 0.51188 0.80550 0.23673
 H455 H 0.53454 0.71891 0.21634
 H456 H 0.44785 0.73936 0.23914
 H457 H 0.45428 0.69686 0.27080
 H458 H 0.44866 0.69911 0.23053
 H459 H 0.54138 0.81645 0.26242
 H460 H 0.56372 0.79238 0.23553
 H461 H 0.48948 0.71238 0.31415
 H462 H 0.51504 0.68901 0.28940
 H463 H 0.48464 0.81627 0.20905
 H464 H 0.51198 0.79191 0.18599
 H465 H 0.56337 0.74175 0.29065
 H466 H 0.53865 0.76993 0.31614
 H467 H 0.46168 0.73931 0.18687
 H468 H 0.43513 0.76517 0.21136
 O469 O -0.03055 0.81556 0.75031
 O470 O -0.02837 0.80690 0.70790
 O471 O -0.06491 0.75293 0.77869
 O472 O -0.05855 0.71317 0.77853
 O473 O -0.00265 0.78225 0.81289
 O474 O 0.03965 0.77938 0.80484
 O475 O 0.00250 0.68916 0.71624
 O476 O -0.03978 0.69508 0.72115
 O477 O 0.03153 0.74872 0.68643
 O478 O 0.02931 0.79287 0.69456
 O479 O 0.06157 0.71953 0.74712
 O480 O 0.05280 0.72175 0.79112
 O481 O 0.02953 0.68802 0.74692
 O482 O 0.02670 0.69661 0.79089
 O483 O 0.06294 0.74946 0.71919
 O484 O 0.05408 0.79322 0.72097
 O485 O 0.00129 0.72127 0.68509
 O486 O -0.04162 0.72378 0.69333
 O487 O -0.00173 0.81568 0.77938
 O488 O 0.04052 0.80617 0.77779
 O489 O -0.03141 0.75313 0.81287
 O490 O -0.02765 0.70996 0.80327
 O491 O -0.06387 0.78277 0.75053
 O492 O -0.05511 0.77989 0.70765
 Zr493 Zr -0.02925 0.78070 0.73554
 O494 O -0.00786 0.75963 0.71248
 Zr495 Zr -0.03004 0.73832 0.77783
 O496 O -0.00907 0.71505 0.75636
 Zr497 Zr 0.01251 0.78051 0.77824
 O498 O 0.03558 0.75897 0.75733
 Zr499 Zr -0.01403 0.72302 0.71967
 O500 O -0.03761 0.74408 0.74096
 Zr501 Zr 0.02855 0.76499 0.72061
 O502 O 0.00723 0.78862 0.74154
 Zr503 Zr 0.02737 0.72239 0.76276
 O504 O 0.00638 0.74391 0.78617
 O505 O -0.02371 0.77470 0.77203
 O506 O 0.02237 0.72843 0.72605
 C507 C -0.01869 0.82582 0.76736
 C508 C -0.07447 0.77061 0.76717
 C509 C -0.01959 0.77025 0.82305
 C510 C 0.01908 0.67871 0.72848
 C511 C 0.01937 0.73216 0.67576
 C512 C 0.07221 0.73152 0.73045
 H513 H -0.01148 0.76381 0.69555
 H514 H 0.05240 0.76269 0.76154
 H515 H -0.03395 0.78508 0.78224
 H516 H -0.01317 0.69807 0.75977
 H517 H -0.05425 0.70197 0.72888
 H518 H -0.05342 0.69896 0.76910
 H519 H 0.06424 0.79113 0.73545
 H520 H 0.03955 0.81450 0.76203
 H521 H -0.03993 0.73878 0.68388
 H522 H -0.06382 0.76443 0.70928
 H523 H 0.06341 0.73589 0.78919
 H524 H 0.03860 0.76329 0.81248
 H525 H -0.01216 0.81416 0.70839
 H526 H 0.01540 0.79066 0.68371
 H527 H -0.01281 0.71263 0.81271
 H528 H 0.01265 0.68605 0.78828
 O529 O 0.06397 0.02822 0.00316
 O530 O 0.05430 0.02650 -0.03927
 O531 O 0.00237 0.06175 0.03351
 O532 O -0.03745 0.05502 0.03403
 O533 O 0.03207 -0.00155 0.06612
 O534 O 0.02980 -0.04386 0.05676
 O535 O -0.06348 -0.00318 -0.02693
 O536 O -0.05592 0.03832 -0.02315
 O537 O -0.00307 -0.03258 -0.06093
 O538 O 0.04089 -0.03044 -0.05300
 O539 O -0.03019 -0.06564 0.00094
 O540 O -0.02796 -0.05687 0.04456
 O541 O -0.06209 -0.03373 0.00034
 O542 O -0.05343 -0.03110 0.04483
 O543 O -0.00256 -0.06483 -0.02916
 O544 O 0.04113 -0.05656 -0.02782
 O545 O -0.03289 -0.00472 -0.05940
 O546 O -0.02844 0.03940 -0.05185
 O547 O 0.06484 -0.00095 0.03195
 O548 O 0.05604 -0.04343 0.02924
 O549 O 0.00300 0.02719 0.06719
 O550 O -0.03978 0.02389 0.05857
 O551 O 0.03121 0.06138 0.00441
 O552 O 0.02749 0.05343 -0.03821
 Zr553 Zr 0.02896 0.02690 -0.01090
 O554 O 0.00739 0.00597 -0.03391
 Zr555 Zr -0.01221 0.02663 0.03243
 O556 O -0.03574 0.00567 0.01126
 Zr557 Zr 0.03003 -0.01579 0.03099
 O558 O 0.00836 -0.03868 0.00995
 Zr559 Zr -0.02890 0.01170 -0.02547
 O560 O -0.00739 0.03500 -0.00434
 Zr561 Zr 0.01331 -0.03064 -0.02675
 O562 O 0.03722 -0.00971 -0.00579
 Zr563 Zr -0.02800 -0.03106 0.01647
 O564 O -0.00626 -0.01014 0.03981
 O565 O 0.02389 0.02065 0.02566
 O566 O -0.02302 -0.02497 -0.02020
 C567 C 0.07460 0.01630 0.01994
 C568 C 0.01955 0.07166 0.02155
 C569 C 0.02009 0.01506 0.07692
 C570 C -0.07274 -0.02140 -0.01610
 C571 C -0.02123 -0.02161 -0.07005
 C572 C -0.01922 -0.07525 -0.01704
 H573 H 0.01103 0.00996 -0.05088
 H574 H 0.01233 -0.05562 0.01366
 H575 H 0.03431 0.03080 0.03593
 H576 H -0.05255 0.00961 0.01530
 H577 H -0.04851 0.05261 -0.01547
 H578 H -0.05174 0.04988 0.02479
 H579 H 0.03948 -0.06697 -0.01345
 H580 H 0.06358 -0.04223 0.01312
 H581 H -0.01542 0.03603 -0.06347
 H582 H 0.01148 0.06103 -0.03698
 H583 H -0.01342 -0.06690 0.04266
 H584 H 0.01416 -0.04292 0.06515
 H585 H 0.06230 0.01060 -0.03863
 H586 H 0.03845 -0.01624 -0.06348
 H587 H -0.03763 0.00821 0.06680
 H588 H -0.06463 -0.01756 0.04211
 O589 O 0.00173 0.56131 0.53350
 O590 O -0.04057 0.55255 0.53217
 O591 O 0.03113 0.49833 0.56583
 O592 O 0.03018 0.45829 0.55905
 O593 O 0.06305 0.52800 0.50284
 O594 O 0.05357 0.52619 0.46054
 O595 O -0.03217 0.43437 0.50016
 O596 O -0.02704 0.44085 0.54225
 O597 O -0.06385 0.49582 0.47239
 O598 O -0.05537 0.53938 0.47438
 O599 O -0.00359 0.46700 0.43888
 O600 O 0.03995 0.46858 0.44698
 O601 O -0.00406 0.43503 0.47049
 O602 O 0.04015 0.44295 0.47282
 O603 O -0.03297 0.49531 0.44003
 O604 O -0.02964 0.53978 0.44875
 O605 O -0.06373 0.46640 0.50087
 O606 O -0.05495 0.46908 0.54444
 O607 O 0.03029 0.56114 0.50413
 O608 O 0.02653 0.55301 0.46136
 O609 O 0.06391 0.49877 0.53158
 O610 O 0.05443 0.45573 0.52738
 O611 O 0.00192 0.52698 0.56696
 O612 O -0.04037 0.52538 0.55859
 Zr613 Zr -0.01312 0.52630 0.53210
 O614 O -0.03661 0.50538 0.51096
 Zr615 Zr 0.02904 0.48389 0.53080
 O616 O 0.00713 0.46095 0.50992
 Zr617 Zr 0.02811 0.52661 0.48880
 O618 O 0.00663 0.50557 0.46580
 Zr619 Zr -0.02923 0.46862 0.51623
 O620 O -0.00739 0.48948 0.53958
 Zr621 Zr -0.02960 0.51138 0.47424
 O622 O -0.00817 0.53470 0.49538
 Zr623 Zr 0.01237 0.46893 0.47321
 O624 O 0.03628 0.49002 0.49404
 O625 O 0.02298 0.52034 0.52533
 O626 O -0.02395 0.47473 0.47957
 C627 C 0.01877 0.57133 0.52143
 C628 C 0.01922 0.51504 0.57657
 C629 C 0.07366 0.51604 0.51957
 C630 C -0.02116 0.42481 0.48216
 C631 C -0.07379 0.47830 0.48374
 C632 C -0.02144 0.47823 0.42951
 H633 H -0.05335 0.50944 0.51511
 H634 H 0.01026 0.50957 0.44882
 H635 H 0.03341 0.53047 0.53560
 H636 H 0.01073 0.44392 0.51365
 H637 H -0.01900 0.44782 0.55657
 H638 H 0.02100 0.44402 0.55368
 H639 H -0.01643 0.53687 0.43721
 H640 H 0.01079 0.56107 0.46300
 H641 H -0.06535 0.48333 0.54227
 H642 H -0.03954 0.50926 0.56617
 H643 H 0.03817 0.48322 0.43697
 H644 H 0.06150 0.51025 0.46118
 H645 H -0.04002 0.56050 0.51620
 H646 H -0.06502 0.53775 0.48926
 H647 H 0.06303 0.45836 0.51199
 H648 H 0.03750 0.43181 0.48648
 O649 O 0.56252 0.02911 0.50466
 O650 O 0.55365 0.02706 0.46246
 O651 O 0.50112 0.06194 0.53497
 O652 O 0.46112 0.05581 0.53427
 O653 O 0.53040 -0.00038 0.56746
 O654 O 0.52826 -0.04261 0.55873
 O655 O 0.43580 -0.00300 0.47292
 O656 O 0.44293 0.03838 0.47659
 O657 O 0.49551 -0.03369 0.44110
 O658 O 0.53972 -0.03060 0.44844
 O659 O 0.46805 -0.06474 0.50192
 O660 O 0.46962 -0.05640 0.54524
 O661 O 0.43641 -0.03277 0.50105
 O662 O 0.44507 -0.02966 0.54586
 O663 O 0.49725 -0.06524 0.47336
 O664 O 0.54067 -0.05590 0.47450
 O665 O 0.46752 -0.00391 0.44064
 O666 O 0.47115 0.03991 0.44885
 O667 O 0.56334 -0.00012 0.53341
 O668 O 0.55433 -0.04283 0.53107
 O669 O 0.50108 0.02808 0.56817
 O670 O 0.45820 0.02449 0.55894
 O671 O 0.52897 0.06245 0.50493
 O672 O 0.52648 0.05335 0.46231
 Zr673 Zr 0.52771 0.02747 0.49025
 O674 O 0.50662 0.00606 0.46721
 Zr675 Zr 0.48617 0.02721 0.53324
 O676 O 0.46288 0.00635 0.51173
 Zr677 Zr 0.52850 -0.01499 0.53250
 O678 O 0.50690 -0.03808 0.51160
 Zr679 Zr 0.47026 0.01202 0.47501
 O680 O 0.49131 0.03549 0.49643
 Zr681 Zr 0.51233 -0.03055 0.47490
 O682 O 0.53596 -0.00916 0.49575
 Zr683 Zr 0.47044 -0.03029 0.51744
 O684 O 0.49208 -0.00943 0.54093
 O685 O 0.52235 0.02138 0.52680
 O686 O 0.47592 -0.02463 0.48078
 C687 C 0.57312 0.01714 0.52142
 C688 C 0.51765 0.07233 0.52256
 C689 C 0.51830 0.01626 0.57807
 C690 C 0.42613 -0.02075 0.48412
 C691 C 0.47847 -0.02184 0.43098
 C692 C 0.47985 -0.07508 0.48492
 H693 H 0.51049 0.00984 0.45025
 H694 H 0.51080 -0.05498 0.51559
 H695 H 0.53270 0.03163 0.53704
 H696 H 0.44602 0.01037 0.51550
 H697 H 0.44990 0.05260 0.48480
 H698 H 0.44683 0.05061 0.52507
 H699 H 0.53904 -0.06613 0.48900
 H700 H 0.56259 -0.04126 0.51534
 H701 H 0.48472 0.03691 0.43777
 H702 H 0.51077 0.06154 0.46366
 H703 H 0.48466 -0.06578 0.54424
 H704 H 0.51232 -0.04198 0.56658
 H705 H 0.56075 0.01072 0.46251
 H706 H 0.53687 -0.01689 0.43743
 H707 H 0.46068 0.00921 0.56780
 H708 H 0.43353 -0.01655 0.54255
 O709 O 0.50119 0.56244 0.03357
 O710 O 0.45888 0.55356 0.03179
 O711 O 0.53097 0.50049 0.06615
 O712 O 0.53025 0.46036 0.05984
 O713 O 0.56277 0.53015 0.00352
 O714 O 0.55398 0.52760 -0.03877
 O715 O 0.46870 0.43511 0.00108
 O716 O 0.47290 0.44221 0.04278
 O717 O 0.43671 0.49605 -0.02823
 O718 O 0.44428 0.53967 -0.02612
 O719 O 0.49660 0.46734 -0.06035
 O720 O 0.54024 0.46960 -0.05264
 O721 O 0.49696 0.43576 -0.02845
 O722 O 0.54106 0.44454 -0.02628
 O723 O 0.46849 0.49696 -0.06064
 O724 O 0.47040 0.54095 -0.05103
 O725 O 0.43666 0.46708 0.00072
 O726 O 0.44506 0.47038 0.04448
 O727 O 0.52890 0.56320 0.00342
 O728 O 0.52672 0.55390 -0.03904
 O729 O 0.56381 0.50058 0.03192
 O730 O 0.55456 0.45753 0.02833
 O731 O 0.50139 0.52872 0.06700
 O732 O 0.45909 0.52642 0.05837
 Zr733 Zr 0.48651 0.52750 0.03206
 O734 O 0.46338 0.50635 0.01080
 Zr735 Zr 0.52903 0.48562 0.03130
 O736 O 0.50745 0.46232 0.01049
 Zr737 Zr 0.52802 0.52812 -0.01100
 O738 O 0.50696 0.50662 -0.03397
 Zr739 Zr 0.47098 0.46970 0.01645
 O740 O 0.49251 0.49084 0.03985
 Zr741 Zr 0.47063 0.51222 -0.02593
 O742 O 0.49162 0.53583 -0.00468
 Zr743 Zr 0.51282 0.47003 -0.02623
 O744 O 0.53640 0.49158 -0.00546
 O745 O 0.52273 0.52199 0.02553
 O746 O 0.47642 0.47559 -0.02026
 C747 C 0.51744 0.57306 0.02096
 C748 C 0.51889 0.51717 0.07673
 C749 C 0.57345 0.51800 0.02008
 C750 C 0.48002 0.42541 -0.01663
 C751 C 0.42674 0.47866 -0.01671
 C752 C 0.47965 0.47928 -0.07050
 H753 H 0.44657 0.51029 0.01478
 H754 H 0.51071 0.51055 -0.05094
 H755 H 0.53299 0.53237 0.03573
 H756 H 0.51122 0.44537 0.01443
 H757 H 0.48097 0.44927 0.05704
 H758 H 0.52101 0.44606 0.05467
 H759 H 0.48405 0.53860 -0.06218
 H760 H 0.51100 0.56208 -0.03768
 H761 H 0.43434 0.48432 0.04185
 H762 H 0.46016 0.51042 0.06618
 H763 H 0.53843 0.48422 -0.06266
 H764 H 0.56166 0.51154 -0.03815
 H765 H 0.45942 0.56134 0.01573
 H766 H 0.43466 0.53807 -0.01123
 H767 H 0.56328 0.46007 0.01298
 H768 H 0.53849 0.43345 -0.01257
 O769 O 0.78103 0.31049 0.49513
 O770 O 0.77924 0.30128 0.53759
 O771 O 0.81357 0.24788 0.46531
 O772 O 0.80677 0.20766 0.46617
 O773 O 0.75103 0.27729 0.43210
 O774 O 0.70906 0.27595 0.44168
 O775 O 0.74834 0.18306 0.52673
 O776 O 0.78986 0.19027 0.52324
 O777 O 0.72007 0.24517 0.56004
 O778 O 0.72212 0.28879 0.55105
 O779 O 0.68683 0.21640 0.49868
 O780 O 0.69534 0.21843 0.45480
 O781 O 0.71846 0.18408 0.49886
 O782 O 0.72071 0.19255 0.45468
 O783 O 0.68804 0.24445 0.52853
 O784 O 0.69638 0.28871 0.52557
 O785 O 0.74677 0.21426 0.55882
 O786 O 0.79087 0.21806 0.55166
 O787 O 0.75255 0.31058 0.46566
 O788 O 0.70991 0.30263 0.46895
 O789 O 0.78014 0.24859 0.43226
 O790 O 0.77586 0.20554 0.44094
 O791 O 0.81433 0.27631 0.49492
 O792 O 0.80568 0.27430 0.53720
 Zr793 Zr 0.77954 0.27540 0.50961
 O794 O 0.75832 0.25431 0.53283
 Zr795 Zr 0.77875 0.23334 0.46694
 O796 O 0.75759 0.21028 0.48835
 Zr797 Zr 0.73703 0.27609 0.46742
 O798 O 0.71392 0.25499 0.48878
 Zr799 Zr 0.76354 0.21763 0.52501
 O800 O 0.78707 0.23866 0.50366
 Zr801 Zr 0.72196 0.26053 0.52541
 O802 O 0.74315 0.28391 0.50411
 Zr803 Zr 0.72113 0.21832 0.48283
 O804 O 0.74227 0.23948 0.45919
 O805 O 0.77326 0.26975 0.47314
 O806 O 0.72715 0.22387 0.51945
 C807 C 0.76943 0.32066 0.47784
 C808 C 0.82407 0.26458 0.47748
 C809 C 0.76813 0.26548 0.42198
 C810 C 0.73050 0.17354 0.51557
 C811 C 0.73041 0.22671 0.56936
 C812 C 0.67757 0.22753 0.51675
 H813 H 0.76227 0.25820 0.54976
 H814 H 0.69708 0.25905 0.48502
 H815 H 0.78358 0.27995 0.46283
 H816 H 0.76138 0.19331 0.48453
 H817 H 0.80415 0.19746 0.51545
 H818 H 0.80119 0.19331 0.47511
 H819 H 0.68538 0.28618 0.51180
 H820 H 0.71132 0.31044 0.48495
 H821 H 0.78748 0.23123 0.56317
 H822 H 0.81258 0.25788 0.53688
 H823 H 0.68513 0.23284 0.45692
 H824 H 0.70950 0.25996 0.43379
 H825 H 0.76356 0.30958 0.53665
 H826 H 0.73652 0.28682 0.56128
 H827 H 0.76053 0.20807 0.43229
 H828 H 0.73468 0.18181 0.45692
 O829 O 0.74801 0.68450 0.02888
 O830 O 0.79002 0.69335 0.02721
 O831 O 0.71968 0.74739 0.06363
 O832 O 0.71975 0.78732 0.05735
 O833 O 0.68524 0.71887 0.00051
 O834 O 0.69408 0.72139 -0.04178
 O835 O 0.78074 0.81194 -0.00196
 O836 O 0.77689 0.80446 0.04013
 O837 O 0.81225 0.75115 -0.03188
 O838 O 0.80317 0.70727 -0.03033
 O839 O 0.75229 0.78168 -0.06282
 O840 O 0.70802 0.77875 -0.05477
 O841 O 0.75148 0.81283 -0.03047
 O842 O 0.70797 0.80414 -0.02853
 O843 O 0.78004 0.75172 -0.06402
 O844 O 0.77747 0.70778 -0.05581
 O845 O 0.81185 0.78065 -0.00343
 O846 O 0.80487 0.77627 0.04062
 O847 O 0.71857 0.68533 0.00042
 O848 O 0.72094 0.69457 -0.04224
 O849 O 0.68610 0.74667 0.03067
 O850 O 0.69481 0.79002 0.02649
 O851 O 0.74816 0.71803 0.06340
 O852 O 0.79034 0.71999 0.05412
 Zr853 Zr 0.76254 0.71955 0.02820
 O854 O 0.78559 0.74085 0.00698
 Zr855 Zr 0.72053 0.76204 0.02877
 O856 O 0.74187 0.78543 0.00794
 Zr857 Zr 0.72015 0.72028 -0.01412
 O858 O 0.74133 0.74178 -0.03710
 Zr859 Zr 0.77825 0.77743 0.01328
 O860 O 0.75705 0.75616 0.03668
 Zr861 Zr 0.77780 0.73563 -0.02972
 O862 O 0.75663 0.71201 -0.00860
 Zr863 Zr 0.73590 0.77833 -0.02882
 O864 O 0.71237 0.75684 -0.00791
 O865 O 0.72628 0.72568 0.02242
 O866 O 0.77229 0.77218 -0.02339
 C867 C 0.73077 0.67468 0.01697
 C868 C 0.73143 0.73022 0.07374
 C869 C 0.67558 0.73016 0.01831
 C870 C 0.76910 0.82240 -0.01900
 C871 C 0.82188 0.76898 -0.02068
 C872 C 0.76916 0.76989 -0.07330
 H873 H 0.80243 0.73674 0.01067
 H874 H 0.73734 0.73818 -0.05409
 H875 H 0.71617 0.71528 0.03273
 H876 H 0.73834 0.80235 0.01220
 H877 H 0.76919 0.79712 0.05446
 H878 H 0.72910 0.80154 0.05217
 H879 H 0.76323 0.71014 -0.06619
 H880 H 0.73663 0.68631 -0.04111
 H881 H 0.81572 0.76259 0.03728
 H882 H 0.78981 0.73604 0.06188
 H883 H 0.71082 0.76532 -0.06615
 H884 H 0.68686 0.73766 -0.04118
 H885 H 0.78938 0.68595 0.01097
 H886 H 0.81383 0.70922 -0.01621
 H887 H 0.68552 0.78729 0.01152
 H888 H 0.70983 0.81401 -0.01379
 O889 O 1.06406 0.22048 0.24576
 O890 O 1.05589 0.22270 0.28820
 O891 O 1.00245 0.18776 0.21633
 O892 O 0.96258 0.19387 0.21714
 O893 O 1.03145 0.25051 0.18375
 O894 O 1.02924 0.29261 0.19264
 O895 O 0.93819 0.25333 0.27958
 O896 O 0.94461 0.21145 0.27506
 O897 O 0.99823 0.28259 0.31077
 O898 O 1.04166 0.28081 0.30280
 O899 O 0.96858 0.31378 0.25095
 O900 O 0.97105 0.30647 0.20695
 O901 O 0.93713 0.28109 0.24946
 O902 O 0.94679 0.27970 0.20555
 O903 O 0.99854 0.31465 0.27872
 O904 O 1.04249 0.30554 0.27624
 O905 O 0.97036 0.25268 0.31141
 O906 O 0.97300 0.20943 0.30261
 O907 O 1.06469 0.25015 0.21743
 O908 O 1.05549 0.29290 0.22020
 O909 O 1.00245 0.22169 0.18325
 O910 O 0.95949 0.22528 0.19266
 O911 O 1.03062 0.18723 0.24606
 O912 O 1.02873 0.19630 0.28872
 Zr913 Zr 1.02954 0.22221 0.26079
 O914 O 1.00866 0.24350 0.28407
 Zr915 Zr 0.98761 0.22251 0.21821
 O916 O 0.96446 0.24318 0.24001
 Zr917 Zr 1.02980 0.26492 0.21879
 O918 O 1.00824 0.28786 0.23992
 Zr919 Zr 0.97223 0.23751 0.27666
 O920 O 0.99309 0.21413 0.25496
 Zr921 Zr 1.01412 0.28018 0.27651
 O922 O 1.03764 0.25891 0.25542
 Zr923 Zr 0.97177 0.27988 0.23431
 O924 O 0.99333 0.25920 0.21060
 O925 O 1.02380 0.22847 0.22435
 O926 O 0.97764 0.27419 0.27095
 C927 C 1.07447 0.23260 0.22900
 C928 C 1.01907 0.17734 0.22858
 C929 C 1.01950 0.23369 0.17325
 C930 C 0.92762 0.26984 0.26732
 C931 C 0.98156 0.27043 0.32113
 C932 C 0.98052 0.32415 0.26785
 H933 H 1.01276 0.23961 0.30096
 H934 H 1.01198 0.30482 0.23606
 H935 H 1.03402 0.21824 0.21398
 H936 H 0.94760 0.23905 0.23635
 H937 H 0.95139 0.19722 0.26672
 H938 H 0.94834 0.19897 0.22648
 H939 H 1.03991 0.31653 0.26244
 H940 H 1.06395 0.29123 0.23581
 H941 H 0.98739 0.21158 0.31280
 H942 H 1.01314 0.18787 0.28738
 H943 H 0.98541 0.31674 0.20892
 H944 H 1.01297 0.29243 0.18548
 H945 H 1.06338 0.23885 0.28766
 H946 H 1.04034 0.26593 0.31249
 H947 H 0.96228 0.24025 0.18337
 H948 H 0.93618 0.26558 0.20773
 O949 O 0.74904 1.06654 0.72167
 O950 O 0.79128 1.05713 0.72282
 O951 O 0.72021 1.00334 0.68713
 O952 O 0.71962 0.96363 0.69403
 O953 O 0.68654 1.03277 0.75086
 O954 O 0.69608 1.03016 0.79331
 O955 O 0.78066 0.93845 0.75226
 O956 O 0.77640 0.94654 0.71005
 O957 O 0.81409 1.00027 0.78091
 O958 O 0.80472 1.04383 0.78008
 O959 O 0.75301 0.97063 0.81434
 O960 O 0.70923 0.97311 0.80603
 O961 O 0.75272 0.93898 0.78210
 O962 O 0.70899 0.94755 0.78018
 O963 O 0.78320 0.99814 0.81336
 O964 O 0.77967 1.04279 0.80636
 O965 O 0.81278 0.97007 0.75324
 O966 O 0.80561 0.97326 0.71004
 O967 O 0.72009 1.06614 0.75060
 O968 O 0.72283 1.05718 0.79299
 O969 O 0.68682 1.00470 0.72094
 O970 O 0.69525 0.96137 0.72514
 O971 O 0.74782 1.03356 0.68776
 O972 O 0.79031 1.03063 0.69550
 Zr973 Zr 0.76334 1.03139 0.72229
 O974 O 0.78654 1.00985 0.74305
 Zr975 Zr 0.72113 0.98916 0.72234
 O976 O 0.74242 0.96574 0.74320
 Zr977 Zr 0.72162 1.03119 0.76515
 O978 O 0.74306 1.00976 0.78793
 Zr979 Zr 0.77881 0.97321 0.73719
 O980 O 0.75759 0.99475 0.71399
 Zr981 Zr 0.77947 1.01535 0.77981
 O982 O 0.75810 1.03914 0.75908
 Zr983 Zr 0.73703 0.97327 0.78001
 O984 O 0.71345 0.99470 0.75914
 O985 O 0.72715 1.02551 0.72857
 O986 O 0.77345 0.97880 0.77392
 C987 C 0.73204 1.07659 0.73373
 C988 C 0.73138 1.02109 0.67731
 C989 C 0.67656 1.02136 0.73331
 C990 C 0.76943 0.92864 0.76998
 C991 C 0.82340 0.98221 0.76984
 C992 C 0.77135 0.98115 0.82363
 H993 H 0.80333 1.01387 0.73903
 H994 H 0.73942 1.01349 0.80497
 H995 H 0.71694 1.03595 0.71841
 H996 H 0.73860 0.94883 0.73914
 H997 H 0.76913 0.95433 0.69574
 H998 H 0.72910 0.94946 0.69911
 H999 H 0.76651 1.03951 0.81785
 H1000 H 0.73908 1.06434 0.79247
 H1001 H 0.81472 0.98848 0.71125
 H1002 H 0.78924 1.01464 0.68767
 H1003 H 0.71157 0.98720 0.81669
 H1004 H 0.68797 1.01433 0.79216
 H1005 H 0.79042 1.06525 0.73869
 H1006 H 0.81477 1.04224 0.76547
 H1007 H 0.68635 0.96410 0.74035
 H1008 H 0.71092 0.93725 0.76575
 O1009 O 0.78224 0.43798 0.25206
 O1010 O 0.77888 0.44697 0.20949
 O1011 O 0.81494 0.50086 0.28065
 O1012 O 0.80725 0.54066 0.28122
 O1013 O 0.75277 0.47022 0.31540
 O1014 O 0.71060 0.47124 0.30667
 O1015 O 0.74742 0.56491 0.22147
 O1016 O 0.78913 0.55821 0.22446
 O1017 O 0.71918 0.50309 0.18828
 O1018 O 0.72170 0.45933 0.19687
 O1019 O 0.68660 0.53047 0.25105
 O1020 O 0.69662 0.52871 0.29459
 O1021 O 0.71753 0.56316 0.24932
 O1022 O 0.72150 0.55512 0.29371
 O1023 O 0.68757 0.50310 0.22058
 O1024 O 0.69631 0.45903 0.22267
 O1025 O 0.74594 0.53398 0.18925
 O1026 O 0.78998 0.53066 0.19573
 O1027 O 0.75322 0.43663 0.28092
 O1028 O 0.71093 0.44481 0.27959
 O1029 O 0.78183 0.49903 0.31493
 O1030 O 0.77676 0.54211 0.30667
 O1031 O 0.81451 0.47183 0.25166
 O1032 O 0.80526 0.47436 0.20939
 Zr1033 Zr 0.77966 0.47285 0.23746
 O1034 O 0.75792 0.49393 0.21478
 Zr1035 Zr 0.77960 0.51455 0.28040
 O1036 O 0.75776 0.53761 0.25960
 Zr1037 Zr 0.73805 0.47140 0.28037
 O1038 O 0.71440 0.49249 0.25961
 Zr1039 Zr 0.76308 0.53056 0.22282
 O1040 O 0.78718 0.50957 0.24350
 Zr1041 Zr 0.72173 0.48737 0.22276
 O1042 O 0.74346 0.46397 0.24350
 Zr1043 Zr 0.72145 0.52918 0.26570
 O1044 O 0.74327 0.50801 0.28872
 O1045 O 0.77414 0.47813 0.27412
 O1046 O 0.72682 0.52399 0.22894
 C1047 C 0.77050 0.42715 0.26883
 C1048 C 0.82495 0.48384 0.26847
 C1049 C 0.76990 0.48217 0.32535
 C1050 C 0.72929 0.57393 0.23254
 C1051 C 0.72943 0.52159 0.17890
 C1052 C 0.67706 0.51951 0.23302
 H1053 H 0.76162 0.49020 0.19777
 H1054 H 0.69768 0.48823 0.26370
 H1055 H 0.78473 0.46794 0.28416
 H1056 H 0.76144 0.55460 0.26341
 H1057 H 0.80365 0.55108 0.23185
 H1058 H 0.80148 0.55490 0.27222
 H1059 H 0.68568 0.46121 0.23678
 H1060 H 0.71144 0.43753 0.26329
 H1061 H 0.78683 0.51721 0.18447
 H1062 H 0.81233 0.49070 0.20995
 H1063 H 0.68653 0.51416 0.29275
 H1064 H 0.71130 0.48706 0.31487
 H1065 H 0.76338 0.43840 0.21093
 H1066 H 0.73598 0.46145 0.18651
 H1067 H 0.76149 0.53944 0.31536
 H1068 H 0.73494 0.56637 0.29076
 O1069 O 0.43789 0.25404 0.77963
 O1070 O 0.44653 0.21204 0.77752
 O1071 O 0.50005 0.28362 0.81259
 O1072 O 0.53960 0.28393 0.80598
 O1073 O 0.46983 0.31655 0.75022
 O1074 O 0.47219 0.30828 0.70799
 O1075 O 0.56366 0.22116 0.74563
 O1076 O 0.55793 0.22596 0.78778
 O1077 O 0.50427 0.19038 0.71664
 O1078 O 0.46065 0.19776 0.71893
 O1079 O 0.53267 0.25099 0.68564
 O1080 O 0.53043 0.29464 0.69385
 O1081 O 0.56429 0.25097 0.71754
 O1082 O 0.55525 0.29527 0.72049
 O1083 O 0.50304 0.22286 0.68484
 O1084 O 0.45919 0.22454 0.69452
 O1085 O 0.53225 0.18983 0.74644
 O1086 O 0.52933 0.19833 0.79016
 O1087 O 0.43688 0.28212 0.74974
 O1088 O 0.44636 0.28074 0.70719
 O1089 O 0.49941 0.31736 0.77849
 O1090 O 0.54240 0.30800 0.77463
 O1091 O 0.47200 0.25382 0.81311
 O1092 O 0.47380 0.21146 0.80353
 Zr1093 Zr 0.47268 0.23960 0.77786
 O1094 O 0.49357 0.21660 0.75623
 Zr1095 Zr 0.51434 0.28244 0.77754
 O1096 O 0.53756 0.26091 0.75659
 Zr1097 Zr 0.47191 0.28178 0.73536
 O1098 O 0.49347 0.26100 0.71213
 Zr1099 Zr 0.52996 0.22427 0.76206
 O1100 O 0.50914 0.24566 0.78571
 Zr1101 Zr 0.48786 0.22436 0.71957
 O1102 O 0.46437 0.24512 0.74117
 Zr1103 Zr 0.52997 0.26681 0.71994
 O1104 O 0.50835 0.29020 0.74089
 O1105 O 0.47807 0.27611 0.77186
 O1106 O 0.52426 0.23019 0.72543
 C1107 C 0.42713 0.27026 0.76710
 C1108 C 0.48377 0.27104 0.82316
 C1109 C 0.48208 0.32719 0.76674
 C1110 C 0.57379 0.23292 0.72849
 C1111 C 0.52120 0.18014 0.72856
 C1112 C 0.52074 0.23416 0.67522
 H1113 H 0.48965 0.19968 0.76002
 H1114 H 0.48956 0.26501 0.69521
 H1115 H 0.46775 0.28623 0.78227
 H1116 H 0.55447 0.26451 0.76058
 H1117 H 0.55123 0.23400 0.80223
 H1118 H 0.55359 0.27416 0.80104
 H1119 H 0.46159 0.23836 0.68351
 H1120 H 0.43815 0.26498 0.70839
 H1121 H 0.51552 0.18747 0.78749
 H1122 H 0.48954 0.21266 0.81172
 H1123 H 0.51577 0.29305 0.68393
 H1124 H 0.48829 0.31579 0.70842
 H1125 H 0.43939 0.21212 0.76117
 H1126 H 0.46242 0.18774 0.73356
 H1127 H 0.53960 0.31719 0.75959
 H1128 H 0.56646 0.29233 0.73400
 O1129 O 0.27965 0.81290 0.49892
 O1130 O 0.27776 0.80312 0.54096
 O1131 O 0.31280 0.75053 0.46839
 O1132 O 0.30565 0.71070 0.46789
 O1133 O 0.25120 0.78179 0.43548
 O1134 O 0.20886 0.77927 0.44341
 O1135 O 0.24653 0.68544 0.52852
 O1136 O 0.28799 0.69235 0.52508
 O1137 O 0.21693 0.74575 0.56120
 O1138 O 0.21993 0.78997 0.55405
 O1139 O 0.18507 0.71932 0.49912
 O1140 O 0.19433 0.72089 0.45619
 O1141 O 0.21686 0.68676 0.50041
 O1142 O 0.22048 0.69580 0.45576
 O1143 O 0.18570 0.74723 0.52908
 O1144 O 0.19488 0.79114 0.52794
 O1145 O 0.24599 0.71703 0.56146
 O1146 O 0.28928 0.71981 0.55367
 O1147 O 0.25042 0.81437 0.47030
 O1148 O 0.20819 0.80519 0.47118
 O1149 O 0.27913 0.75192 0.43454
 O1150 O 0.27469 0.70873 0.44308
 O1151 O 0.31251 0.77940 0.49755
 O1152 O 0.30395 0.77570 0.54029
 Zr1153 Zr 0.27794 0.77767 0.51260
 O1154 O 0.25636 0.75641 0.53526
 Zr1155 Zr 0.27767 0.73640 0.46922
 O1156 O 0.25634 0.71304 0.49024
 Zr1157 Zr 0.23594 0.77927 0.47010
 O1158 O 0.21259 0.75768 0.49065
 Zr1159 Zr 0.26189 0.71991 0.52709
 O1160 O 0.28564 0.74110 0.50614
 Zr1161 Zr 0.22005 0.76260 0.52743
 O1162 O 0.24160 0.78635 0.50696
 Zr1163 Zr 0.21990 0.72105 0.48439
 O1164 O 0.24124 0.74275 0.46134
 O1165 O 0.27209 0.77275 0.47597
 O1166 O 0.22546 0.72603 0.52118
 C1167 C 0.26757 0.82391 0.48254
 C1168 C 0.32280 0.76763 0.48045
 C1169 C 0.26774 0.76960 0.42487
 C1170 C 0.22877 0.67606 0.51715
 C1171 C 0.22838 0.72835 0.57121
 C1172 C 0.17529 0.73061 0.51683
 H1173 H 0.26008 0.76011 0.55228
 H1174 H 0.19583 0.76185 0.48664
 H1175 H 0.28244 0.78328 0.46603
 H1176 H 0.26018 0.69611 0.48630
 H1177 H 0.30233 0.69949 0.51733
 H1178 H 0.30025 0.69640 0.47703
 H1179 H 0.18419 0.78919 0.51383
 H1180 H 0.20896 0.81279 0.48731
 H1181 H 0.28726 0.73419 0.56399
 H1182 H 0.31202 0.75992 0.53851
 H1183 H 0.18552 0.73632 0.45692
 H1184 H 0.20999 0.76358 0.43498
 H1185 H 0.26167 0.81065 0.54083
 H1186 H 0.23376 0.78721 0.56488
 H1187 H 0.25959 0.71159 0.43414
 H1188 H 0.23347 0.68412 0.45901
 O1189 O 0.25108 0.27863 0.93208
 O1190 O 0.20905 0.27751 0.94159
 O1191 O 0.28052 0.31207 0.99562
 O1192 O 0.28096 0.30490 1.03536
 O1193 O 0.31334 0.24949 0.96483
 O1194 O 0.30438 0.20684 0.96751
 O1195 O 0.21943 0.24634 1.05987
 O1196 O 0.22395 0.28836 1.05276
 O1197 O 0.18632 0.21835 0.99818
 O1198 O 0.19523 0.21983 0.95451
 O1199 O 0.24825 0.18449 1.02637
 O1200 O 0.29130 0.19340 1.02509
 O1201 O 0.24660 0.21584 1.05866
 O1202 O 0.29112 0.21919 1.05086
 O1203 O 0.21781 0.18580 0.99914
 O1204 O 0.22046 0.19391 0.95467
 O1205 O 0.18762 0.24602 1.02839
 O1206 O 0.19535 0.28955 1.02526
 O1207 O 0.27988 0.24960 0.93206
 O1208 O 0.27735 0.20712 0.94064
 O1209 O 0.31409 0.27782 0.99451
 O1210 O 0.30506 0.27361 1.03762
 O1211 O 0.25250 0.31197 0.96571
 O1212 O 0.20993 0.30414 0.96878
 Zr1213 Zr 0.23698 0.27750 0.96738
 O1214 O 0.21380 0.25646 0.98867
 Zr1215 Zr 0.27943 0.27681 1.00960
 O1216 O 0.25800 0.25579 1.03283
 Zr1217 Zr 0.27858 0.23473 0.96687
 O1218 O 0.25728 0.21173 0.98814
 Zr1219 Zr 0.22164 0.26192 1.02537
 O1220 O 0.24296 0.28529 1.00416
 Zr1221 Zr 0.22084 0.21981 0.98271
 O1222 O 0.24210 0.24086 0.95909
 Zr1223 Zr 0.26333 0.21915 1.02481
 O1224 O 0.28692 0.24013 1.00348
 O1225 O 0.27319 0.27115 0.97311
 O1226 O 0.22691 0.22530 1.01935
 C1227 C 0.26799 0.26662 0.92185
 C1228 C 0.26912 0.32216 0.97815
 C1229 C 0.32386 0.26613 0.97706
 C1230 C 0.22999 0.22798 1.06916
 C1231 C 0.17701 0.22942 1.01627
 C1232 C 0.23007 0.17519 1.01564
 H1233 H 0.19701 0.26053 0.98474
 H1234 H 0.26102 0.19481 0.98411
 H1235 H 0.28342 0.28140 0.96276
 H1236 H 0.26172 0.25959 1.04984
 H1237 H 0.23153 0.30272 1.04540
 H1238 H 0.27149 0.29972 1.04952
 H1239 H 0.23404 0.18276 0.95731
 H1240 H 0.26124 0.20795 0.93319
 H1241 H 0.18516 0.28751 1.01080
 H1242 H 0.21121 0.31184 0.98484
 H1243 H 0.29010 0.18394 1.01002
 H1244 H 0.31297 0.20827 0.98308
 H1245 H 0.20954 0.26159 0.93355
 H1246 H 0.18529 0.23447 0.95628
 H1247 H 0.31356 0.25816 1.03510
 H1248 H 0.28786 0.23230 1.06248
 C1249 C 0.27051 0.36406 0.79270
 C1250 C 0.29493 0.35774 0.79096
 C1251 C 0.31102 0.37463 0.78110
 C1252 C 0.30294 0.39704 0.77314
 C1253 C 0.27872 0.40347 0.77543
 C1254 C 0.26256 0.38680 0.78532
 H1255 H 0.25749 0.35144 0.79977
 H1256 H 0.33003 0.37091 0.78005
 H1257 H 0.31585 0.40969 0.76595
 H1258 H 0.24375 0.39132 0.78721
 C1259 C 0.29819 -0.13525 0.26780
 C1260 C 0.29209 -0.14418 0.29095
 C1261 C 0.27688 -0.12966 0.30534
 C1262 C 0.26883 -0.10728 0.29736
 C1263 C 0.27587 -0.09820 0.27487
 C1264 C 0.29039 -0.11255 0.26002
 H1265 H 0.30876 -0.14566 0.25524
 H1266 H 0.27216 -0.13448 0.32361
 H1267 H 0.25787 -0.09660 0.30944
 H1268 H 0.29585 -0.10617 0.24240
 C1269 C 0.77903 0.87351 0.80878
 C1270 C 0.79239 0.85803 0.79355
 C1271 C 0.79688 0.86610 0.76973
 C1272 C 0.78925 0.88883 0.76195
 C1273 C 0.77649 0.90407 0.77748
 C1274 C 0.77115 0.89598 0.80082
 H1275 H 0.77569 0.86926 0.82749
 H1276 H 0.80589 0.85491 0.75662
 H1277 H 0.79331 0.89444 0.74368
 H1278 H 0.76162 0.90744 0.81339
 C1279 C 0.48190 0.88829 0.29543
 C1280 C 0.45802 0.89567 0.29172
 C1281 C 0.44267 0.88038 0.27854
 C1282 C 0.45078 0.85833 0.26971
 C1283 C 0.47419 0.85049 0.27448
 C1284 C 0.48980 0.86582 0.28717
 H1285 H 0.49448 0.89969 0.30495
 H1286 H 0.42401 0.88489 0.27573
 H1287 H 0.43835 0.84700 0.25993
 H1288 H 0.50808 0.86037 0.29089
 C1289 C -0.05846 0.87945 0.77928
 C1290 C -0.04342 0.89480 0.79270
 C1291 C -0.01942 0.88774 0.79645
 C1292 C -0.01106 0.86556 0.78780
 C1293 C -0.02632 0.85027 0.77467
 C1294 C -0.04991 0.85774 0.77008
 H1295 H -0.07719 0.88368 0.77649
 H1296 H -0.00712 0.89920 0.80626
 H1297 H 0.00727 0.86029 0.79152
 H1298 H -0.06218 0.84630 0.76020
 C1299 C -0.04847 -0.13703 -0.01827
 C1300 C -0.04308 -0.14515 -0.04189
 C1301 C -0.02862 -0.13001 -0.05641
 C1302 C -0.02046 -0.10782 -0.04801
 C1303 C -0.02658 -0.09965 -0.02489
 C1304 C -0.04049 -0.11457 -0.01002
 H1305 H -0.05847 -0.14798 -0.00570
 H1306 H -0.02457 -0.13427 -0.07499
 H1307 H -0.01005 -0.09662 -0.06011
 H1308 H -0.04523 -0.10889 0.00805
 C1309 C -0.05121 0.36342 0.47913
 C1310 C -0.04538 0.35568 0.45550
 C1311 C -0.03105 0.37123 0.44132
 C1312 C -0.02294 0.39322 0.45026
 C1313 C -0.02902 0.40080 0.47359
 C1314 C -0.04326 0.38569 0.48795
 H1315 H -0.06136 0.35216 0.49133
 H1316 H -0.02687 0.36733 0.42269
 H1317 H -0.01243 0.40466 0.43847
 H1318 H -0.04812 0.39099 0.50610
 C1319 C 0.44156 -0.13047 0.47527
 C1320 C 0.45608 -0.14493 0.46011
 C1321 C 0.47949 -0.13647 0.45501
 C1322 C 0.48740 -0.11411 0.46347
 C1323 C 0.47243 -0.09965 0.47772
 C1324 C 0.44968 -0.10835 0.48400
 H1325 H 0.42320 -0.13513 0.47936
 H1326 H 0.49215 -0.14703 0.44473
 H1327 H 0.50527 -0.10810 0.45872
 H1328 H 0.43763 -0.09757 0.49486
 C1329 C 0.46988 0.37146 -0.05685
 C1330 C 0.45698 0.35562 -0.04185
 C1331 C 0.45223 0.36285 -0.01794
 C1332 C 0.45976 0.38545 -0.00954
 C1333 C 0.47272 0.40105 -0.02466
 C1334 C 0.47799 0.39357 -0.04825
 H1335 H 0.47332 0.36716 -0.07557
 H1336 H 0.44271 0.35110 -0.00566
 H1337 H 0.45556 0.39067 0.00881
 H1338 H 0.48787 0.40514 -0.06038
 C1339 C 0.78418 0.37396 0.43834
 C1340 C 0.79419 0.39034 0.45491
 C1341 C 0.79528 0.38374 0.47942
 C1342 C 0.78703 0.36118 0.48703
 C1343 C 0.77697 0.34502 0.47040
 C1344 C 0.77542 0.35172 0.44605
 H1345 H 0.78362 0.37796 0.41925
 H1346 H 0.80251 0.39599 0.49276
 H1347 H 0.78840 0.35641 0.50593
 H1348 H 0.76819 0.33938 0.43276
 C1349 C 0.77197 0.88313 -0.05036
 C1350 C 0.79495 0.89168 -0.04359
 C1351 C 0.80838 0.87724 -0.02743
 C1352 C 0.79949 0.85542 -0.01882
 C1353 C 0.77713 0.84675 -0.02639
 C1354 C 0.76335 0.86094 -0.04208
 H1355 H 0.76014 0.89357 -0.06171
 H1356 H 0.82647 0.88177 -0.02216
 H1357 H 0.81065 0.84492 -0.00680
 H1358 H 0.74585 0.85490 -0.04802
 C1359 C 0.76850 0.29358 0.35954
 C1360 C 0.79258 0.29015 0.35258
 C1361 C 0.80788 0.27750 0.36830
 C1362 C 0.79947 0.26863 0.39022
 C1363 C 0.77574 0.27276 0.39750
 C1364 C 0.76026 0.28524 0.38191
 H1365 H 0.75603 0.30284 0.34782
 H1366 H 0.82668 0.27506 0.36418
 H1367 H 0.81192 0.25930 0.40191
 H1368 H 0.74182 0.28862 0.38705
 C1369 C 0.78342 0.81147 -0.12529
 C1370 C 0.79427 0.79581 -0.14204
 C1371 C 0.79635 0.77126 -0.13603
 C1372 C 0.78807 0.76270 -0.11378
 C1373 C 0.77711 0.77842 -0.09726
 C1374 C 0.77473 0.80283 -0.10333
 H1375 H 0.78207 0.83058 -0.12885
 H1376 H 0.80429 0.75860 -0.14855
 H1377 H 0.79010 0.74377 -0.10954
 H1378 H 0.76678 0.81546 -0.09076
 C1379 C 0.30965 0.47061 0.87927
 C1380 C 0.29356 0.45984 0.89560
 C1381 C 0.26921 0.45809 0.88901
 C1382 C 0.26143 0.46604 0.86635
 C1383 C 0.27770 0.47646 0.85009
 C1384 C 0.30177 0.47906 0.85696
 H1385 H 0.32862 0.47174 0.88324
 H1386 H 0.25616 0.45034 0.90120
 H1387 H 0.24272 0.46398 0.86149
 H1388 H 0.31479 0.48670 0.84463
 C1389 C 0.28297 -0.06007 0.37753
 C1390 C 0.29365 -0.04429 0.39427
 C1391 C 0.29559 -0.01973 0.38819
 C1392 C 0.28744 -0.01130 0.36583
 C1393 C 0.27668 -0.02714 0.34932
 C1394 C 0.27435 -0.05154 0.35550
 H1395 H 0.28175 -0.07919 0.38109
 H1396 H 0.30335 -0.00696 0.40071
 H1397 H 0.28947 0.00761 0.36149
 H1398 H 0.26659 -0.06427 0.34291
 C1399 C -0.06198 -0.03278 -0.12352
 C1400 C -0.04713 -0.04593 -0.13951
 C1401 C -0.02325 -0.05043 -0.13204
 C1402 C -0.01482 -0.04244 -0.10967
 C1403 C -0.02976 -0.02938 -0.09411
 C1404 C -0.05337 -0.02455 -0.10134
 H1405 H -0.08071 -0.02958 -0.12726
 H1406 H -0.01052 -0.05943 -0.14366
 H1407 H 0.00357 -0.04628 -0.10467
 H1408 H -0.06553 -0.01497 -0.08950
 C1409 C -0.06148 0.46791 0.37532
 C1410 C -0.04688 0.45384 0.35988
 C1411 C -0.02335 0.44855 0.36791
 C1412 C -0.01503 0.45662 0.39030
 C1413 C -0.02974 0.47056 0.40533
 C1414 C -0.05297 0.47623 0.39750
 H1415 H -0.08000 0.47178 0.37118
 H1416 H -0.01076 0.43882 0.35673
 H1417 H 0.00307 0.45211 0.39575
 H1418 H -0.06493 0.48657 0.40886
 C1419 C 0.46400 -0.06216 0.37796
 C1420 C 0.45426 -0.04579 0.36122
 C1421 C 0.45282 -0.02130 0.36771
 C1422 C 0.46063 -0.01347 0.39037
 C1423 C 0.47057 -0.02985 0.40685
 C1424 C 0.47229 -0.05424 0.40038
 H1425 H 0.46484 -0.08123 0.37402
 H1426 H 0.44583 -0.00809 0.35520
 H1427 H 0.45919 0.00545 0.39490
 H1428 H 0.47950 -0.06732 0.41294
 C1429 C 0.45402 0.48064 -0.13382
 C1430 C 0.45623 0.45636 -0.14091
 C1431 C 0.46666 0.43998 -0.12462
 C1432 C 0.47483 0.44767 -0.10211
 C1433 C 0.47215 0.47174 -0.09493
 C1434 C 0.46160 0.48817 -0.11097
 H1435 H 0.44654 0.49392 -0.14596
 H1436 H 0.46812 0.42103 -0.12894
 H1437 H 0.48269 0.43458 -0.09003
 H1438 H 0.45946 0.50690 -0.10594
 C1439 C 0.46490 0.81354 0.37486
 C1440 C 0.45484 0.79713 0.39140
 C1441 C 0.45411 0.77258 0.38517
 C1442 C 0.46289 0.76471 0.36290
 C1443 C 0.47301 0.78114 0.34654
 C1444 C 0.47410 0.80559 0.35281
 H1445 H 0.46521 0.83266 0.37866
 H1446 H 0.44686 0.75939 0.39756
 H1447 H 0.46186 0.74573 0.35850
 H1448 H 0.48139 0.81871 0.34034
 C1449 C -0.03220 0.80975 0.87692
 C1450 C -0.04389 0.79382 0.89279
 C1451 C -0.04670 0.76960 0.88578
 C1452 C -0.03850 0.76171 0.86325
 C1453 C -0.02691 0.77776 0.84751
 C1454 C -0.02360 0.80176 0.85472
 H1455 H -0.03028 0.82865 0.88126
 H1456 H -0.05529 0.75675 0.89763
 H1457 H -0.04124 0.74309 0.85811
 H1458 H -0.01513 0.81465 0.84277
 C1459 C 0.37566 0.81195 0.28381
 C1460 C 0.35900 0.79597 0.29417
 C1461 C 0.36542 0.77150 0.29640
 C1462 C 0.38794 0.76338 0.28871
 C1463 C 0.40428 0.77940 0.27807
 C1464 C 0.39781 0.80369 0.27556
 H1465 H 0.37190 0.83101 0.28245
 H1466 H 0.35299 0.75856 0.30395
 H1467 H 0.39247 0.74452 0.29080
 H1468 H 0.41017 0.81649 0.26775
 C1469 C -0.12633 0.81179 0.78162
 C1470 C -0.14279 0.79614 0.79280
 C1471 C -0.13684 0.77153 0.79457
 C1472 C -0.11483 0.76299 0.78589
 C1473 C -0.09857 0.77875 0.77471
 C1474 C -0.10473 0.80313 0.77239
 H1475 H -0.12970 0.83095 0.78054
 H1476 H -0.14916 0.75884 0.80271
 H1477 H -0.11051 0.74408 0.78793
 H1478 H -0.09240 0.81579 0.76424
 C1479 C 0.88645 0.29165 0.47798
 C1480 C 0.89262 0.29064 0.45336
 C1481 C 0.87641 0.27976 0.43720
 C1482 C 0.85474 0.27024 0.44538
 C1483 C 0.84831 0.27199 0.46977
 C1484 C 0.86439 0.28272 0.48604
 H1485 H 0.89860 0.29946 0.49105
 H1486 H 0.88000 0.27919 0.41803
 H1487 H 0.84253 0.26242 0.43239
 H1488 H 0.85985 0.28426 0.50498
 C1489 C 0.87380 0.81027 -0.03472
 C1490 C 0.89068 0.79443 -0.04491
 C1491 C 0.88469 0.76984 -0.04685
 C1492 C 0.86233 0.76142 -0.03903
 C1493 C 0.84575 0.77732 -0.02859
 C1494 C 0.85178 0.80176 -0.02640
 H1495 H 0.87730 0.82941 -0.03359
 H1496 H 0.89732 0.75705 -0.05431
 H1497 H 0.85811 0.74247 -0.04088
 H1498 H 0.83917 0.81447 -0.01882
 C1499 C -0.12544 -0.06164 -0.03037
 C1500 C -0.14166 -0.04559 -0.04136
 C1501 C -0.13529 -0.02111 -0.04299
 C1502 C -0.11305 -0.01308 -0.03445
 C1503 C -0.09692 -0.02926 -0.02367
 C1504 C -0.10350 -0.05354 -0.02142
 H1505 H -0.12930 -0.08072 -0.02933
 H1506 H -0.14741 -0.00813 -0.05095
 H1507 H -0.10844 0.00578 -0.03633
 H1508 H -0.09126 -0.06650 -0.01356
 C1509 C -0.13476 0.44781 0.48141
 C1510 C -0.14339 0.45477 0.45840
 C1511 C -0.12879 0.47047 0.44466
 C1512 C -0.10673 0.47852 0.45329
 C1513 C -0.09810 0.47098 0.47580
 C1514 C -0.11240 0.45565 0.48985
 H1515 H -0.14531 0.43671 0.49340
 H1516 H -0.13341 0.47574 0.42649
 H1517 H -0.09603 0.49008 0.44182
 H1518 H -0.10635 0.44972 0.50744
 C1519 C 0.36377 -0.01979 0.45676
 C1520 C 0.35655 -0.04391 0.45961
 C1521 C 0.37228 -0.06001 0.47126
 C1522 C 0.39449 -0.05223 0.47985
 C1523 C 0.40184 -0.02830 0.47656
 C1524 C 0.38627 -0.01213 0.46495
 H1525 H 0.35206 -0.00681 0.44820
 H1526 H 0.36778 -0.07887 0.47321
 H1527 H 0.40624 -0.06519 0.48839
 H1528 H 0.39147 0.00647 0.46224
 C1529 C 0.37189 0.47048 -0.05589
 C1530 C 0.35697 0.45546 -0.04175
 C1531 C 0.36546 0.44881 -0.01861
 C1532 C 0.38793 0.45646 -0.01031
 C1533 C 0.40251 0.47122 -0.02469
 C1534 C 0.39410 0.47828 -0.04745
 H1535 H 0.36732 0.47540 -0.07418
 H1536 H 0.35468 0.43817 -0.00641
 H1537 H 0.39383 0.45091 0.00745
 H1538 H 0.40507 0.48929 -0.05922
 C1539 C 0.37973 0.44533 0.77922
 C1540 C 0.39518 0.46054 0.79231
 C1541 C 0.38782 0.48441 0.79678
 C1542 C 0.36532 0.49254 0.78900
 C1543 C 0.34997 0.47715 0.77609
 C1544 C 0.35764 0.45363 0.77096
 H1545 H 0.38423 0.42666 0.77597
 H1546 H 0.39933 0.49680 0.80644
 H1547 H 0.35989 0.51081 0.79314
 H1548 H 0.34615 0.44123 0.76129
 C1549 C 0.37849 -0.05702 0.28099
 C1550 C 0.39401 -0.04159 0.29374
 C1551 C 0.38689 -0.01756 0.29756
 C1552 C 0.36456 -0.00942 0.28935
 C1553 C 0.34913 -0.02501 0.27678
 C1554 C 0.35650 -0.04877 0.27241
 H1555 H 0.38290 -0.07581 0.27828
 H1556 H 0.39847 -0.00508 0.30701
 H1557 H 0.35932 0.00902 0.29292
 H1558 H 0.34482 -0.06135 0.26317
 C1559 C 0.12534 0.53406 0.69155
 C1560 C 0.10922 0.54581 0.70714
 C1561 C 0.11592 0.54917 0.73140
 C1562 C 0.13823 0.54108 0.73975
 C1563 C 0.15411 0.52914 0.72411
 C1564 C 0.14735 0.52564 0.69997
 H1565 H 0.12124 0.53178 0.67260
 H1566 H 0.10390 0.55793 0.74397
 H1567 H 0.14300 0.54404 0.75846
 H1568 H 0.15939 0.51696 0.68734
 C1569 C 0.12552 0.03444 0.19132
 C1570 C 0.10918 0.04547 0.20719
 C1571 C 0.11588 0.04861 0.23147
 C1572 C 0.13839 0.04094 0.23960
 C1573 C 0.15446 0.02962 0.22370
 C1574 C 0.14774 0.02642 0.19951
 H1575 H 0.12136 0.03237 0.17235
 H1576 H 0.10368 0.05682 0.24424
 H1577 H 0.14315 0.04363 0.25835
 H1578 H 0.15994 0.01821 0.18672
 C1579 C 0.63814 0.70934 0.23274
 C1580 C 0.64507 0.71131 0.20839
 C1581 C 0.62918 0.72246 0.19209
 C1582 C 0.60697 0.73105 0.19977
 C1583 C 0.59974 0.72828 0.22384
 C1584 C 0.61561 0.71752 0.24033
 H1585 H 0.64998 0.70125 0.24591
 H1586 H 0.63342 0.72375 0.17308
 H1587 H 0.59499 0.73892 0.18655
 H1588 H 0.61051 0.71525 0.25904
 C1589 C 0.12515 0.69114 0.71791
 C1590 C 0.14165 0.70706 0.70715
 C1591 C 0.13530 0.73149 0.70489
 C1592 C 0.11282 0.73961 0.71266
 C1593 C 0.09645 0.72357 0.72329
 C1594 C 0.10298 0.69934 0.72610
 H1595 H 0.12897 0.67209 0.71935
 H1596 H 0.14761 0.74436 0.69704
 H1597 H 0.10823 0.75843 0.71039
 H1598 H 0.09056 0.68648 0.73386
 C1599 C 0.62530 0.21534 0.55824
 C1600 C 0.60861 0.20425 0.54276
 C1601 C 0.61481 0.20109 0.51833
 C1602 C 0.63718 0.20867 0.50972
 C1603 C 0.65362 0.21996 0.52525
 C1604 C 0.64738 0.22329 0.54955
 H1605 H 0.62160 0.21743 0.57729
 H1606 H 0.60234 0.19286 0.50583
 H1607 H 0.64156 0.20590 0.49088
 H1608 H 0.65987 0.23150 0.56207
 C1609 C 0.62286 0.71702 0.05899
 C1610 C 0.60630 0.70626 0.04315
 C1611 C 0.61266 0.70392 0.01864
 C1612 C 0.63508 0.71180 0.01036
 C1613 C 0.65137 0.72272 0.02629
 C1614 C 0.64490 0.72542 0.05061
 H1615 H 0.61915 0.71851 0.07809
 H1616 H 0.60031 0.69606 0.00580
 H1617 H 0.63962 0.70950 -0.00849
 H1618 H 0.65723 0.73337 0.06341
 C1619 C 0.12930 0.05570 0.02779
 C1620 C 0.14373 0.04233 0.04398
 C1621 C 0.13537 0.01923 0.05081
 C1622 C 0.11330 0.01042 0.04254
 C1623 C 0.09904 0.02418 0.02688
 C1624 C 0.10755 0.04669 0.01930
 H1625 H 0.13370 0.07389 0.02252
 H1626 H 0.14584 0.00751 0.06226
 H1627 H 0.10734 -0.00714 0.04856
 H1628 H 0.09690 0.05796 0.00750
 C1629 C 0.12699 0.55655 0.52988
 C1630 C 0.14256 0.54188 0.54342
 C1631 C 0.13567 0.51787 0.54795
 C1632 C 0.11350 0.50912 0.53985
 C1633 C 0.09804 0.52400 0.52650
 C1634 C 0.10531 0.54761 0.52122
 H1635 H 0.13104 0.57531 0.52653
 H1636 H 0.14729 0.50582 0.55789
 H1637 H 0.10840 0.49079 0.54412
 H1638 H 0.09378 0.55961 0.51112
 C1639 C 0.63468 0.01891 0.55073
 C1640 C 0.64307 0.04209 0.54419
 C1641 C 0.62818 0.05611 0.52902
 C1642 C 0.60603 0.04757 0.52110
 C1643 C 0.59764 0.02485 0.52821
 C1644 C 0.61227 0.01053 0.54298
 H1645 H 0.64546 0.00678 0.56143
 H1646 H 0.63267 0.07441 0.52414
 H1647 H 0.59503 0.05931 0.51009
 H1648 H 0.60638 -0.00718 0.54862
 C1649 C 0.62724 0.55774 0.03105
 C1650 C 0.64309 0.54216 0.04315
 C1651 C 0.63612 0.51804 0.04673
 C1652 C 0.61365 0.50994 0.03889
 C1653 C 0.59789 0.52566 0.02693
 C1654 C 0.60508 0.54953 0.02283
 H1655 H 0.63154 0.57658 0.02855
 H1656 H 0.64796 0.50545 0.05569
 H1657 H 0.60856 0.49141 0.04225
 H1658 H 0.59316 0.56221 0.01407
 C1659 C 0.05864 0.02505 0.13203
 C1660 C 0.04368 0.03919 0.14707
 C1661 C 0.01986 0.04319 0.13919
 C1662 C 0.01196 0.03474 0.11679
 C1663 C 0.02737 0.02164 0.10172
 C1664 C 0.05055 0.01635 0.10986
 H1665 H 0.07729 0.02187 0.13620
 H1666 H 0.00695 0.05264 0.15020
 H1667 H -0.00622 0.03871 0.11115
 H1668 H 0.06298 0.00650 0.09853
 C1669 C 0.01955 0.54207 0.63939
 C1670 C 0.04402 0.54049 0.64549
 C1671 C 0.05970 0.52896 0.62925
 C1672 C 0.05129 0.51967 0.60746
 C1673 C 0.02710 0.52214 0.60100
 C1674 C 0.01123 0.53324 0.61724
 H1675 H 0.00682 0.55038 0.65155
 H1676 H 0.07875 0.52792 0.63282
 H1677 H 0.06402 0.51158 0.59512
 H1678 H -0.00755 0.53529 0.61271
 C1679 C 0.55688 0.02619 0.63325
 C1680 C 0.54248 0.04143 0.64776
 C1681 C 0.51894 0.04632 0.63951
 C1682 C 0.51081 0.03756 0.61729
 C1683 C 0.52569 0.02329 0.60275
 C1684 C 0.54857 0.01724 0.61127
 H1685 H 0.57533 0.02229 0.63772
 H1686 H 0.50637 0.05664 0.65013
 H1687 H 0.49288 0.04221 0.61139
 H1688 H 0.56063 0.00649 0.60037
 C1689 C 0.55917 0.53044 0.12983
 C1690 C 0.54361 0.54233 0.14591
 C1691 C 0.51936 0.54498 0.13932
 C1692 C 0.51108 0.53642 0.11704
 C1693 C 0.52676 0.52462 0.10110
 C1694 C 0.55080 0.52147 0.10789
 H1695 H 0.57809 0.52865 0.13376
 H1696 H 0.50677 0.55373 0.15132
 H1697 H 0.49244 0.53910 0.11224
 H1698 H 0.56344 0.51290 0.09579
 C1699 C 0.21374 0.56310 0.62682
 C1700 C 0.20393 0.54680 0.61004
 C1701 C 0.20313 0.52218 0.61615
 C1702 C 0.21162 0.51417 0.63849
 C1703 C 0.22160 0.53049 0.65502
 C1704 C 0.22270 0.55500 0.64891
 H1705 H 0.21411 0.58224 0.62317
 H1706 H 0.19610 0.50902 0.60359
 H1707 H 0.21061 0.49516 0.64275
 H1708 H 0.22989 0.56805 0.66153
 C1709 C 0.21491 0.06308 0.12639
 C1710 C 0.20516 0.04672 0.10961
 C1711 C 0.20466 0.02209 0.11564
 C1712 C 0.21328 0.01413 0.13794
 C1713 C 0.22310 0.03052 0.15452
 C1714 C 0.22400 0.05504 0.14845
 H1715 H 0.21507 0.08224 0.12278
 H1716 H 0.19771 0.00890 0.10307
 H1717 H 0.21242 -0.00489 0.14218
 H1718 H 0.23107 0.06812 0.16110
 C1719 C 0.70378 0.22749 0.63222
 C1720 C 0.70517 0.20305 0.63881
 C1721 C 0.71543 0.18665 0.62242
 C1722 C 0.72418 0.19449 0.60016
 C1723 C 0.72245 0.21883 0.59352
 C1724 C 0.71211 0.23525 0.60973
 H1725 H 0.69633 0.24069 0.64449
 H1726 H 0.71625 0.16761 0.62649
 H1727 H 0.73168 0.18136 0.58783
 H1728 H 0.71060 0.25413 0.60508
 C1729 C 0.69234 0.72011 0.12830
 C1730 C 0.70767 0.70762 0.14411
 C1731 C 0.73149 0.70331 0.13675
 C1732 C 0.73948 0.71082 0.11398
 C1733 C 0.72400 0.72328 0.09838
 C1734 C 0.70049 0.72811 0.10597
 H1735 H 0.67369 0.72316 0.13277
 H1736 H 0.74396 0.69407 0.14850
 H1737 H 0.75774 0.70692 0.10860
 H1738 H 0.68803 0.73742 0.09426
 C1739 C 0.54244 0.73341 0.11128
 C1740 C 0.54009 0.70899 0.10477
 C1741 C 0.52968 0.69301 0.12149
 C1742 C 0.52200 0.70109 0.14399
 C1743 C 0.52499 0.72526 0.15071
 C1744 C 0.53519 0.74141 0.13413
 H1745 H 0.55004 0.74634 0.09883
 H1746 H 0.52821 0.67396 0.11764
 H1747 H 0.51456 0.68812 0.15653
 H1748 H 0.53760 0.76019 0.13885
 C1749 C 0.05904 0.71937 0.62199
 C1750 C 0.04319 0.70762 0.60608
 C1751 C 0.01908 0.70485 0.61306
 C1752 C 0.01120 0.71309 0.63556
 C1753 C 0.02716 0.72466 0.65140
 C1754 C 0.05108 0.72796 0.64425
 H1755 H 0.07786 0.72130 0.61762
 H1756 H 0.00627 0.69623 0.60117
 H1757 H -0.00738 0.71040 0.64057
 H1758 H 0.06388 0.73648 0.65622
 C1759 C 0.52116 0.61476 0.20667
 C1760 C 0.54570 0.60884 0.20790
 C1761 C 0.56167 0.62584 0.21778
 C1762 C 0.55336 0.64796 0.22632
 C1763 C 0.52896 0.65396 0.22471
 C1764 C 0.51293 0.63719 0.21474
 H1765 H 0.50826 0.60205 0.19953
 H1766 H 0.58075 0.62240 0.21842
 H1767 H 0.56622 0.66074 0.23344
 H1768 H 0.49401 0.64138 0.21326
 C1769 C 0.04678 0.61638 0.72861
 C1770 C 0.04533 0.60990 0.70409
 C1771 C 0.03453 0.62614 0.68788
 C1772 C 0.02540 0.64815 0.69597
 C1773 C 0.02725 0.65470 0.72037
 C1774 C 0.03807 0.63861 0.73660
 H1775 H 0.05457 0.60422 0.74170
 H1776 H 0.03359 0.62217 0.66879
 H1777 H 0.01754 0.66039 0.68296
 H1778 H 0.03968 0.64318 0.75553
 C1779 C 0.02028 0.13566 0.04550
 C1780 C 0.04490 0.14135 0.04407
 C1781 C 0.06072 0.12389 0.03487
 C1782 C 0.05221 0.10160 0.02707
 C1783 C 0.02775 0.09587 0.02881
 C1784 C 0.01185 0.11302 0.03824
 H1785 H 0.00749 0.14873 0.05215
 H1786 H 0.07985 0.12711 0.03416
 H1787 H 0.06494 0.08851 0.02032
 H1788 H -0.00710 0.10900 0.03974
 C1789 C 0.01964 0.63468 0.54712
 C1790 C 0.04406 0.64086 0.54471
 C1791 C 0.05968 0.62400 0.53413
 C1792 C 0.05113 0.60184 0.52597
 C1793 C 0.02691 0.59557 0.52877
 C1794 C 0.01122 0.61214 0.53954
 H1795 H 0.00695 0.64729 0.55479
 H1796 H 0.07869 0.62755 0.53258
 H1797 H 0.06371 0.58927 0.51811
 H1798 H -0.00756 0.60774 0.54187
 C1799 C 0.54466 0.13491 0.52142
 C1800 C 0.54353 0.14146 0.54593
 C1801 C 0.53283 0.12535 0.56233
 C1802 C 0.52356 0.10337 0.55446
 C1803 C 0.52525 0.09665 0.53011
 C1804 C 0.53585 0.11263 0.51364
 H1805 H 0.55239 0.14698 0.50820
 H1806 H 0.53218 0.12933 0.58143
 H1807 H 0.51592 0.09118 0.56765
 H1808 H 0.53737 0.10786 0.49475
 C1809 C 0.52959 0.62780 0.05946
 C1810 C 0.54093 0.64353 0.04312
 C1811 C 0.54361 0.63611 0.01899
 C1812 C 0.53561 0.61337 0.01158
 C1813 C 0.52438 0.59776 0.02803
 C1814 C 0.52120 0.60536 0.05196
 H1815 H 0.52780 0.63244 0.07834
 H1816 H 0.55196 0.64782 0.00582
 H1817 H 0.53826 0.60796 -0.00701
 H1818 H 0.51302 0.59355 0.06516
 C1819 C 0.69158 0.11876 0.52613
 C1820 C 0.70652 0.10371 0.54026
 C1821 C 0.73023 0.11172 0.54463
 C1822 C 0.73816 0.13411 0.53625
 C1823 C 0.72287 0.14907 0.52289
 C1824 C 0.69968 0.14094 0.51754
 H1825 H 0.67298 0.11444 0.52277
 H1826 H 0.74310 0.10075 0.55417
 H1827 H 0.75632 0.13973 0.54032
 H1828 H 0.68733 0.15218 0.50751
 C1829 C 0.69147 0.62075 0.02902
 C1830 C 0.70731 0.60474 0.04061
 C1831 C 0.73153 0.61154 0.04310
 C1832 C 0.73942 0.63408 0.03498
 C1833 C 0.72338 0.65005 0.02376
 C1834 C 0.69946 0.64294 0.02048
 H1835 H 0.67258 0.61663 0.02733
 H1836 H 0.74436 0.59960 0.05154
 H1837 H 0.75800 0.63911 0.03764
 H1838 H 0.68658 0.65502 0.01225
 C1839 C 0.22916 0.63721 0.70516
 C1840 C 0.20476 0.64328 0.70741
 C1841 C 0.18923 0.62694 0.71895
 C1842 C 0.19782 0.60512 0.72789
 C1843 C 0.22203 0.59887 0.72510
 C1844 C 0.23766 0.61512 0.71372
 H1845 H 0.24168 0.64949 0.69670
 H1846 H 0.17023 0.63061 0.72046
 H1847 H 0.18528 0.59274 0.73620
 H1848 H 0.25644 0.61073 0.71140
 C1849 C 0.19117 0.12757 0.21844
 C1850 C 0.20693 0.14373 0.20693
 C1851 C 0.23129 0.13734 0.20494
 C1852 C 0.23946 0.11512 0.21360
 C1853 C 0.22357 0.09902 0.22486
 C1854 C 0.19943 0.10564 0.22749
 H1855 H 0.17219 0.13141 0.21977
 H1856 H 0.24405 0.14942 0.19657
 H1857 H 0.25820 0.11049 0.21141
 H1858 H 0.18666 0.09344 0.23572
 C1859 C 0.69316 1.13140 0.72369
 C1860 C 0.70741 1.14590 0.70831
 C1861 C 0.73101 1.13782 0.70343
 C1862 C 0.73933 1.11574 0.71227
 C1863 C 0.72458 1.10120 0.72669
 C1864 C 0.70166 1.10959 0.73277
 H1865 H 0.67468 1.13571 0.72764
 H1866 H 0.74347 1.14844 0.69296
 H1867 H 0.75727 1.10993 0.70758
 H1868 H 0.68969 1.09868 0.74361
 C1869 C 0.72899 0.63691 0.20646
 C1870 C 0.70452 0.64301 0.20773
 C1871 C 0.68847 0.62634 0.21803
 C1872 C 0.69668 0.60422 0.22677
 C1873 C 0.72102 0.59803 0.22496
 C1874 C 0.73710 0.61458 0.21473
 H1875 H 0.74196 0.64942 0.19909
 H1876 H 0.66944 0.63004 0.21883
 H1877 H 0.68383 0.59161 0.23421
 H1878 H 0.75599 0.61028 0.21322
 C1879 C 0.55048 0.11854 0.72846
 C1880 C 0.54553 0.11003 0.70490
 C1881 C 0.53180 0.12513 0.68965
 C1882 C 0.52354 0.14752 0.69754
 C1883 C 0.52890 0.15584 0.72081
 C1884 C 0.54244 0.14111 0.73618
 H1885 H 0.55996 0.10762 0.74149
 H1886 H 0.52824 0.12054 0.67105
 H1887 H 0.51353 0.15868 0.68507
 H1888 H 0.54667 0.14692 0.75434
 C1889 C 1.03282 0.12371 0.18903
 C1890 C 1.04379 0.10770 0.20534
 C1891 C 1.04563 0.11455 0.22973
 C1892 C 1.03725 0.13701 0.23746
 C1893 C 1.02638 0.15290 0.22107
 C1894 C 1.02399 0.14589 0.19686
 H1895 H 1.03165 0.11949 0.17001
 H1896 H 1.05362 0.10258 0.24288
 H1897 H 1.03929 0.14198 0.25625
 H1898 H 1.01611 0.15798 0.18372
 C1899 C 0.22945 0.61317 0.54377
 C1900 C 0.20526 0.60631 0.54148
 C1901 C 0.18929 0.62223 0.52993
 C1902 C 0.19716 0.64447 0.52126
 C1903 C 0.22110 0.65160 0.52432
 C1904 C 0.23723 0.63567 0.53549
 H1905 H 0.24238 0.60128 0.55214
 H1906 H 0.17041 0.61795 0.52833
 H1907 H 0.18425 0.65650 0.51301
 H1908 H 0.25585 0.64065 0.53792
 C1909 C 0.23026 0.11265 1.04302
 C1910 C 0.20590 0.10622 1.04129
 C1911 C 0.18996 0.12234 1.03000
 C1912 C 0.19806 0.14431 1.02093
 C1913 C 0.22220 0.15098 1.02333
 C1914 C 0.23828 0.13490 1.03434
 H1915 H 0.24314 0.10058 1.05121
 H1916 H 0.17098 0.11840 1.02885
 H1917 H 0.18518 0.15650 1.01286
 H1918 H 0.25704 0.13958 1.03631
 C1919 C 0.18731 0.71476 0.62361
 C1920 C 0.20302 0.70438 0.64052
 C1921 C 0.22747 0.70224 0.63440
 C1922 C 0.23584 0.70992 0.61186
 C1923 C 0.22006 0.72049 0.59524
 C1924 C 0.19581 0.72301 0.60145
 H1925 H 0.16828 0.71612 0.62714
 H1926 H 0.24024 0.69477 0.64706
 H1927 H 0.25468 0.70788 0.60755
 H1928 H 0.18323 0.73085 0.58889
 C1929 C 0.20379 0.22792 1.13222
 C1930 C 0.20501 0.20334 1.13840
 C1931 C 0.21497 0.18715 1.12162
 C1932 C 0.22360 0.19531 1.09942
 C1933 C 0.22203 0.21978 1.09321
 C1934 C 0.21196 0.23599 1.10978
 H1935 H 0.19664 0.24100 1.14479
 H1936 H 0.21567 0.16803 1.12533
 H1937 H 0.23089 0.18233 1.08680
 H1938 H 0.21061 0.25497 1.10546
 C1939 C 0.70334 0.52109 0.11580
 C1940 C 0.70467 0.54560 0.10940
 C1941 C 0.71446 0.56196 0.12611
 C1942 C 0.72290 0.55402 0.14845
 C1943 C 0.72132 0.52960 0.15485
 C1944 C 0.71135 0.51322 0.13837
 H1945 H 0.69627 0.50790 0.10329
 H1946 H 0.71520 0.58104 0.12221
 H1947 H 0.73012 0.56712 0.16099
 H1948 H 0.71000 0.49428 0.14284
 C1949 C 0.70531 1.01999 0.61417
 C1950 C 0.70637 1.04451 0.60774
 C1951 C 0.71645 1.06092 0.62424
 C1952 C 0.72533 1.05305 0.64641
 C1953 C 0.72384 1.02868 0.65294
 C1954 C 0.71371 1.01221 0.63665
 H1955 H 0.69798 1.00679 0.60183
 H1956 H 0.71694 1.08002 0.62039
 H1957 H 0.73258 1.06624 0.65884
 H1958 H 0.71234 0.99331 0.64128
 C1959 C 0.56067 0.21993 0.62220
 C1960 C 0.54450 0.20956 0.60567
 C1961 C 0.52003 0.20850 0.61190
 C1962 C 0.51215 0.21677 0.63440
 C1963 C 0.52846 0.22680 0.65087
 C1964 C 0.55270 0.22868 0.64438
 H1965 H 0.57971 0.22052 0.61848
 H1966 H 0.50695 0.20109 0.59953
 H1967 H 0.49332 0.21529 0.63894
 H1968 H 0.56573 0.23602 0.65689
 C1969 C 1.05804 0.22417 0.11802
 C1970 C 1.04375 0.20881 0.10355
 C1971 C 1.02039 0.20342 0.11195
 C1972 C 1.01221 0.21205 0.13418
 C1973 C 1.02691 0.22665 0.14861
 C1974 C 1.04970 0.23300 0.14003
 H1975 H 1.07640 0.22839 0.11346
 H1976 H 1.00800 0.19281 0.10136
 H1977 H 0.99439 0.20710 0.14018
 H1978 H 1.06165 0.24394 0.15087
 C1979 C 0.62598 0.19148 0.71568
 C1980 C 0.64212 0.20668 0.70349
 C1981 C 0.63564 0.23094 0.69987
 C1982 C 0.61351 0.23964 0.70805
 C1983 C 0.59759 0.22438 0.72039
 C1984 C 0.60414 0.20026 0.72420
 H1985 H 0.62992 0.17256 0.71821
 H1986 H 0.64771 0.24324 0.69081
 H1987 H 0.60891 0.25832 0.70487
 H1988 H 0.59206 0.18792 0.73323
 C1989 C 1.12713 0.19177 0.21671
 C1990 C 1.14318 0.20704 0.20449
 C1991 C 1.13668 0.23134 0.20112
 C1992 C 1.11451 0.23993 0.20935
 C1993 C 1.09862 0.22452 0.22154
 C1994 C 1.10531 0.20044 0.22533
 H1995 H 1.13101 0.17282 0.21904
 H1996 H 1.14867 0.24371 0.19206
 H1997 H 1.10978 0.25857 0.20618
 H1998 H 1.09326 0.18797 0.23421
 C1999 C 0.12079 0.72078 0.55605
 C2000 C 0.10519 0.70785 0.54081
 C2001 C 0.11260 0.70352 0.51685
 C2002 C 0.13526 0.71102 0.50882
 C2003 C 0.15072 0.72368 0.52431
 C2004 C 0.14291 0.72896 0.54777
 H2005 H 0.11644 0.72400 0.57478
 H2006 H 0.10106 0.69419 0.50425
 H2007 H 0.14067 0.70693 0.49051
 H2008 H 0.15427 0.73881 0.56012
 C2009 C 0.11378 0.20400 1.01648
 C2010 C 0.10731 0.20671 1.04090
 C2011 C 0.12387 0.21749 1.05675
 C2012 C 0.14616 0.22534 1.04851
 C2013 C 0.15277 0.22221 1.02428
 C2014 C 0.13638 0.21146 1.00832
 H2015 H 0.10144 0.19610 1.00366
 H2016 H 0.11996 0.21928 1.07579
 H2017 H 0.15856 0.23320 1.06134
 H2018 H 0.14100 0.20892 0.98951
 C2019 C 0.62341 0.53180 0.19339
 C2020 C 0.60709 0.54246 0.20956
 C2021 C 0.61383 0.54481 0.23394
 C2022 C 0.63650 0.53720 0.24175
 C2023 C 0.65268 0.52666 0.22545
 C2024 C 0.64576 0.52378 0.20128
 H2025 H 0.61931 0.53030 0.17437
 H2026 H 0.60168 0.55261 0.24700
 H2027 H 0.64136 0.53953 0.26052
 H2028 H 0.65800 0.51608 0.18821
 C2029 C 0.61419 1.04889 0.73299
 C2030 C 0.60724 1.04525 0.70882
 C2031 C 0.62310 1.03311 0.69329
 C2032 C 0.64516 1.02478 0.70160
 C2033 C 0.65228 1.02877 0.72556
 C2034 C 0.63660 1.04093 0.74122
 H2035 H 0.60236 1.05793 0.74555
 H2036 H 0.61882 1.03056 0.67441
 H2037 H 0.65702 1.01590 0.68893
 H2038 H 0.64166 1.04425 0.75979
 C2039 C 0.87851 0.44375 0.27904
 C2040 C 0.89427 0.45878 0.29195
 C2041 C 0.88754 0.48301 0.29564
 C2042 C 0.86522 0.49151 0.28766
 C2043 C 0.84949 0.47618 0.27518
 C2044 C 0.85669 0.45243 0.27046
 H2045 H 0.88245 0.42487 0.27629
 H2046 H 0.89931 0.49542 0.30492
 H2047 H 0.86020 0.50998 0.29139
 H2048 H 0.84496 0.44011 0.26100
 C2049 C 0.88607 0.98211 0.79654
 C2050 C 0.89273 0.95781 0.79377
 C2051 C 0.87664 0.94204 0.78218
 C2052 C 0.85453 0.95023 0.77379
 C2053 C 0.84765 0.97431 0.77716
 C2054 C 0.86366 0.99022 0.78853
 H2055 H 0.89809 0.99488 0.80500
 H2056 H 0.88076 0.92309 0.78025
 H2057 H 0.84243 0.93745 0.76542
 H2058 H 0.85885 1.00892 0.79124
 C2059 C 0.36334 0.29404 0.76480
 C2060 C 0.35591 0.29099 0.78890
 C2061 C 0.37189 0.28004 0.80523
 C2062 C 0.39461 0.27263 0.79784
 C2063 C 0.40227 0.27642 0.77403
 C2064 C 0.38637 0.28705 0.75751
 H2065 H 0.35148 0.30202 0.75158
 H2066 H 0.36727 0.27797 0.82408
 H2067 H 0.40657 0.26478 0.81108
 H2068 H 0.39177 0.29003 0.73898
 C2069 C 0.87301 0.28068 0.30612
 C2070 C 0.85682 0.29125 0.28975
 C2071 C 0.86401 0.29402 0.26555
 C2072 C 0.88697 0.28698 0.25814
 C2073 C 0.90304 0.27659 0.27465
 C2074 C 0.89570 0.27323 0.29861
 H2075 H 0.86853 0.27884 0.32503
 H2076 H 0.85197 0.30173 0.25233
 H2077 H 0.89213 0.28960 0.23949
 H2078 H 0.90781 0.26556 0.31182
 C2079 C 0.38495 0.76905 0.45224
 C2080 C 0.39183 0.79313 0.45643
 C2081 C 0.37605 0.80814 0.46934
 C2082 C 0.35421 0.79942 0.47787
 C2083 C 0.34710 0.77562 0.47321
 C2084 C 0.36269 0.76047 0.46032
 H2085 H 0.39670 0.75682 0.44270
 H2086 H 0.38017 0.82695 0.47235
 H2087 H 0.34248 0.81167 0.48742
 H2088 H 0.35767 0.74202 0.45647
 C2089 C 0.38645 0.29265 0.97842
 C2090 C 0.39317 0.29129 0.95396
 C2091 C 0.37715 0.28051 0.93754
 C2092 C 0.35513 0.27141 0.94532
 C2093 C 0.34823 0.27342 0.96958
 C2094 C 0.36412 0.28408 0.98608
 H2095 H 0.39843 0.30037 0.99170
 H2096 H 0.38123 0.27964 0.91848
 H2097 H 0.34309 0.26362 0.93214
 H2098 H 0.35925 0.28580 1.00492
 C2099 C 0.80941 0.46955 0.37912
 C2100 C 0.79342 0.45851 0.39538
 C2101 C 0.76910 0.45653 0.38875
 C2102 C 0.76124 0.46453 0.36613
 C2103 C 0.77742 0.47519 0.34992
 C2104 C 0.80145 0.47801 0.35684
 H2105 H 0.82836 0.47087 0.38313
 H2106 H 0.75613 0.44858 0.40089
 H2107 H 0.74256 0.46229 0.36127
 H2108 H 0.81440 0.48586 0.34456
 C2109 C 0.77279 0.95337 0.88605
 C2110 C 0.79745 0.95418 0.89156
 C2111 C 0.81321 0.96444 0.87458
 C2112 C 0.80456 0.97376 0.85286
 C2113 C 0.78002 0.97259 0.84730
 C2114 C 0.76422 0.96222 0.86404
 H2115 H 0.76004 0.94601 0.89879
 H2116 H 0.83235 0.96484 0.87776
 H2117 H 0.81721 0.98124 0.84006
 H2118 H 0.74520 0.96114 0.86020
 C2119 C 0.29553 0.76984 0.36240
 C2120 C 0.29261 0.79409 0.35557
 C2121 C 0.28053 0.80974 0.37143
 C2122 C 0.27171 0.80148 0.39346
 C2123 C 0.27516 0.77745 0.40051
 C2124 C 0.28708 0.76167 0.38473
 H2125 H 0.30442 0.75719 0.35054
 H2126 H 0.27847 0.82866 0.36721
 H2127 H 0.26297 0.81418 0.40541
 H2128 H 0.28994 0.74302 0.38970
 C2129 C 0.26807 0.29437 0.85924
 C2130 C 0.29205 0.29071 0.85209
 C2131 C 0.30741 0.27807 0.86778
 C2132 C 0.29914 0.26944 0.88985
 C2133 C 0.27549 0.27377 0.89729
 C2134 C 0.25996 0.28624 0.88175
 H2135 H 0.25557 0.30365 0.84756
 H2136 H 0.32616 0.27546 0.86348
 H2137 H 0.31164 0.26015 0.90154
 H2138 H 0.24159 0.28976 0.88701
 C2139 C 0.45925 0.26799 0.88691
 C2140 C 0.46120 0.29218 0.89433
 C2141 C 0.47200 0.30881 0.87850
 C2142 C 0.48018 0.30162 0.85585
 C2143 C 0.47731 0.27774 0.84813
 C2144 C 0.46696 0.26091 0.86393
 H2145 H 0.45148 0.25455 0.89868
 H2146 H 0.47329 0.32770 0.88312
 H2147 H 0.48779 0.31506 0.84393
 H2148 H 0.46471 0.24232 0.85846
 C2149 C 0.95737 0.26871 0.38497
 C2150 C 0.95830 0.29322 0.39149
 C2151 C 0.96787 0.30980 0.37485
 C2152 C 0.97607 0.30218 0.35234
 C2153 C 0.97440 0.27789 0.34563
 C2154 C 0.96507 0.26118 0.36215
 H2155 H 0.95056 0.25533 0.39739
 H2156 H 0.96833 0.32888 0.37882
 H2157 H 0.98290 0.31550 0.33981
 H2158 H 0.96378 0.24229 0.35743
 C2159 C 0.48322 0.39044 0.79274
 C2160 C 0.45912 0.39753 0.78997
 C2161 C 0.44321 0.38163 0.77830
 C2162 C 0.45100 0.35926 0.76999
 C2163 C 0.47480 0.35188 0.77355
 C2164 C 0.49091 0.36774 0.78484
 H2165 H 0.49613 0.40227 0.80124
 H2166 H 0.42439 0.38598 0.77638
 H2167 H 0.43807 0.34730 0.76165
 H2168 H 0.50942 0.36255 0.78769
 C2169 C 0.97992 0.38624 0.29660
 C2170 C 0.95587 0.39324 0.29332
 C2171 C 0.94038 0.37752 0.28087
 C2172 C 0.94863 0.35548 0.27204
 C2173 C 0.97248 0.34831 0.27578
 C2174 C 0.98807 0.36394 0.28812
 H2175 H 0.99247 0.39797 0.30578
 H2176 H 0.92160 0.38187 0.27851
 H2177 H 0.93607 0.34368 0.26294
 H2178 H 1.00659 0.35892 0.29120
 C2179 C 0.26703 0.88787 0.45845
 C2180 C 0.29128 0.89452 0.46120
 C2181 C 0.30702 0.87808 0.47231
 C2182 C 0.29892 0.85568 0.48013
 C2183 C 0.27502 0.84871 0.47648
 C2184 C 0.25906 0.86507 0.46573
 H2185 H 0.25422 0.90012 0.45043
 H2186 H 0.32594 0.88200 0.47417
 H2187 H 0.31170 0.84337 0.48811
 H2188 H 0.24047 0.86018 0.46286
 C2189 C 0.29488 0.38527 0.97986
 C2190 C 0.29378 0.39190 0.95536
 C2191 C 0.28374 0.37555 0.93878
 C2192 C 0.27500 0.35331 0.94645
 C2193 C 0.27659 0.34656 0.97079
 C2194 C 0.28663 0.36271 0.98745
 H2195 H 0.30214 0.39751 0.99320
 H2196 H 0.28318 0.37958 0.91969
 H2197 H 0.26778 0.34099 0.93314
 H2198 H 0.28803 0.35790 1.00633
 C2199 C 0.81103 0.37425 0.28152
 C2200 C 0.79510 0.35726 0.29145
 C2201 C 0.77061 0.36334 0.29311
 C2202 C 0.76245 0.38597 0.28558
 C2203 C 0.77847 0.40272 0.27561
 C2204 C 0.80275 0.39650 0.27340
 H2205 H 0.83009 0.37072 0.28054
 H2206 H 0.75770 0.35064 0.30022
 H2207 H 0.74360 0.39032 0.28743
 H2208 H 0.81554 0.40922 0.26612
   
