data_POSCAR
  _audit_creation_date              2014-09-24
  _audit_creation_method            'ToBaCCo'
  _symmetry_space_group_name_H-M    'P1'
  _symmetry_Int_Tables_number       1
  _symmetry_cell_setting            triclinic
  loop_
  _symmetry_equiv_pos_as_xyz
 x,y,z
_cell_length_a 54.6897
_cell_length_b 56.6862
_cell_length_c 56.0999
_cell_angle_alpha 89.673200
_cell_angle_beta 89.802500
_cell_angle_gamma 90.450300
loop_
  _atom_site_label
  _atom_site_type_symbol
  _atom_site_fract_x
  _atom_site_fract_y
  _atom_site_fract_z
C1 C 0.36252 0.32144 0.35158
 C2 C 0.34523 0.32227 0.37007
 C3 C 0.32996 0.34153 0.37208
 C4 C 0.33187 0.36025 0.35572
 C5 C 0.34893 0.35943 0.33746
 C6 C 0.36430 0.33986 0.33533
 C7 C 0.37862 0.30433 0.34440
 N8 N 0.38982 0.31180 0.32405
 C9 C 0.38141 0.33360 0.31850
 C10 C 0.34548 0.37908 0.32338
 N11 N 0.32698 0.39188 0.33284
 C12 C 0.31835 0.38036 0.35245
 C13 C 0.31370 0.33671 0.39027
 N14 N 0.31869 0.31497 0.39914
 C15 C 0.33804 0.30605 0.38711
 H16 H 0.38165 0.28747 0.35302
 H17 H 0.38692 0.34383 0.30300
 H18 H 0.35507 0.38336 0.30698
 H19 H 0.30290 0.38592 0.36310
 H20 H 0.29872 0.34771 0.39602
 H21 H 0.34554 0.28863 0.38987
 C22 C 0.36041 0.82664 -0.15348
 C23 C 0.34329 0.82703 -0.13486
 C24 C 0.32820 0.84634 -0.13212
 C25 C 0.33017 0.86551 -0.14791
 C26 C 0.34735 0.86528 -0.16600
 C27 C 0.36259 0.84570 -0.16882
 C28 C 0.37616 0.80959 -0.16140
 N29 N 0.38776 0.81771 -0.18137
 C30 C 0.37991 0.84006 -0.18565
 C31 C 0.34394 0.88529 -0.17951
 N32 N 0.32523 0.89791 -0.16998
 C33 C 0.31655 0.88560 -0.15076
 C34 C 0.31230 0.84124 -0.11371
 N35 N 0.31745 0.81934 -0.10536
 C36 C 0.33639 0.81051 -0.11803
 H37 H 0.37918 0.79262 -0.15299
 H38 H 0.38556 0.85105 -0.20057
 H39 H 0.35330 0.88940 -0.19608
 H40 H 0.30124 0.89071 -0.13969
 H41 H 0.29765 0.85226 -0.10726
 H42 H 0.34398 0.79308 -0.11565
 C43 C 0.86059 0.33523 -0.15419
 C44 C 0.84247 0.33583 -0.13654
 C45 C 0.82433 0.35266 -0.13756
 C46 C 0.82413 0.36908 -0.15632
 C47 C 0.84221 0.36866 -0.17366
 C48 C 0.86058 0.35151 -0.17263
 C49 C 0.87786 0.31861 -0.15947
 N50 N 0.88796 0.32385 -0.18107
 C51 C 0.87802 0.34445 -0.18886
 C52 C 0.83569 0.38464 -0.19105
 N53 N 0.81372 0.39414 -0.18511
 C54 C 0.80687 0.38504 -0.16358
 C55 C 0.80739 0.34703 -0.12017
 N56 N 0.81474 0.32702 -0.10900
 C57 C 0.83625 0.32017 -0.11869
 H58 H 0.88218 0.30336 -0.14861
 H59 H 0.88159 0.35256 -0.20606
 H60 H 0.84534 0.38780 -0.20767
 H61 H 0.79028 0.38939 -0.15401
 H62 H 0.79036 0.35603 -0.11672
 H63 H 0.84590 0.30421 -0.11396
 C64 C 0.86628 0.82549 0.34174
 C65 C 0.85008 0.82760 0.36105
 C66 C 0.83239 0.84490 0.36080
 C67 C 0.83086 0.86050 0.34143
 C68 C 0.84730 0.85890 0.32273
 C69 C 0.86484 0.84099 0.32270
 C70 C 0.88324 0.80869 0.33586
 N71 N 0.89159 0.81307 0.31335
 C72 C 0.88081 0.83324 0.30549
 C73 C 0.84077 0.87553 0.30601
 N74 N 0.82023 0.88656 0.31371
 C75 C 0.81428 0.87765 0.33555
 C76 C 0.81776 0.84137 0.38051
 N77 N 0.82647 0.82267 0.39300
 C78 C 0.84597 0.81388 0.38100
 H79 H 0.88791 0.79346 0.34661
 H80 H 0.88415 0.84165 0.28840
 H81 H 0.84955 0.87851 0.28891
 H82 H 0.79901 0.88328 0.34642
 H83 H 0.80136 0.85101 0.38494
 H84 H 0.85582 0.79812 0.38599
 C85 C 0.63480 0.67635 0.34534
 C86 C 0.65249 0.67626 0.36335
 C87 C 0.66968 0.65848 0.36424
 C88 C 0.66950 0.64067 0.34700
 C89 C 0.65204 0.64079 0.32917
 C90 C 0.63454 0.65870 0.32839
 C91 C 0.61648 0.69186 0.33964
 N92 N 0.60502 0.68385 0.31984
 C93 C 0.61606 0.66375 0.31264
 C94 C 0.65707 0.62230 0.31420
 N95 N 0.67726 0.61121 0.32241
 C96 C 0.68486 0.62208 0.34259
 C97 C 0.68505 0.66336 0.38298
 N98 N 0.67742 0.68353 0.39347
 C99 C 0.65772 0.69172 0.38148
 H100 H 0.61196 0.70791 0.34898
 H101 H 0.61122 0.65382 0.29689
 H102 H 0.64735 0.61771 0.29808
 H103 H 0.70083 0.61722 0.35280
 H104 H 0.70089 0.65333 0.38833
 H105 H 0.64817 0.70788 0.38550
 C106 C 0.64564 0.17240 -0.15971
 C107 C 0.66166 0.17145 -0.14029
 C108 C 0.67709 0.15240 -0.13753
 C109 C 0.67647 0.13392 -0.15404
 C110 C 0.66017 0.13456 -0.17280
 C111 C 0.64474 0.15401 -0.17575
 C112 C 0.62943 0.18919 -0.16740
 N113 N 0.61892 0.18171 -0.18803
 C114 C 0.62782 0.15986 -0.19285
 C115 C 0.66385 0.11458 -0.18610
 N116 N 0.68197 0.10168 -0.17586
 C117 C 0.69005 0.11373 -0.15644
 C118 C 0.69087 0.15642 -0.11744
 N119 N 0.68385 0.17723 -0.10786
 C120 C 0.66627 0.18674 -0.12187
 H121 H 0.62520 0.20545 -0.15826
 H122 H 0.62305 0.14931 -0.20821
 H123 H 0.65486 0.11040 -0.20273
 H124 H 0.70466 0.10815 -0.14476
 H125 H 0.70487 0.14505 -0.11021
 H126 H 0.65757 0.20355 -0.11883
 C127 C 0.14104 0.66801 -0.15941
 C128 C 0.16058 0.66907 -0.14338
 C129 C 0.17868 0.65219 -0.14412
 C130 C 0.17737 0.63398 -0.16086
 C131 C 0.15789 0.63271 -0.17645
 C132 C 0.13958 0.64992 -0.17577
 C133 C 0.12161 0.68268 -0.16344
 N134 N 0.10794 0.67383 -0.18160
 C135 C 0.11909 0.65386 -0.18940
 C136 C 0.16167 0.61344 -0.19079
 N137 N 0.18290 0.60287 -0.18418
 C138 C 0.19278 0.61570 -0.16613
 C139 C 0.19539 0.65768 -0.12668
 N140 N 0.18782 0.67753 -0.11554
 C141 C 0.16651 0.68457 -0.12549
 H142 H 0.11768 0.69867 -0.15371
 H143 H 0.11355 0.64363 -0.20474
 H144 H 0.15034 0.60817 -0.20566
 H145 H 0.20985 0.61187 -0.15723
 H146 H 0.21173 0.64796 -0.12227
 H147 H 0.15613 0.69980 -0.12002
 C148 C 0.13687 0.17632 0.33880
 C149 C 0.15333 0.17376 0.35773
 C150 C 0.16984 0.15535 0.35773
 C151 C 0.17012 0.13933 0.33877
 C152 C 0.15385 0.14186 0.32016
 C153 C 0.13695 0.16033 0.32029
 C154 C 0.12039 0.19364 0.33301
 N155 N 0.11062 0.18873 0.31128
 C156 C 0.12034 0.16804 0.30369
 C157 C 0.15998 0.12555 0.30315
 N158 N 0.17996 0.11346 0.31069
 C159 C 0.18579 0.12140 0.33283
 C160 C 0.18517 0.15859 0.37686
 N161 N 0.17846 0.17860 0.38823
 C162 C 0.15889 0.18789 0.37687
 H163 H 0.11573 0.20862 0.34398
 H164 H 0.11658 0.15981 0.28670
 H165 H 0.15059 0.12284 0.28641
 H166 H 0.20131 0.11566 0.34323
 H167 H 0.20077 0.14789 0.38152
 H168 H 0.15017 0.20432 0.38153
 C169 C 0.63163 0.32772 0.64649
 C170 C 0.65158 0.32636 0.63081
 C171 C 0.66917 0.34408 0.63050
 C172 C 0.66702 0.36338 0.64587
 C173 C 0.64735 0.36466 0.66138
 C174 C 0.62954 0.34675 0.66167
 C175 C 0.61286 0.31227 0.65192
 N176 N 0.59932 0.32164 0.66980
 C177 C 0.60953 0.34260 0.67603
 C178 C 0.65089 0.38423 0.67537
 N179 N 0.67205 0.39495 0.66853
 C180 C 0.68220 0.38224 0.65066
 C181 C 0.68695 0.33756 0.61447
 N182 N 0.68061 0.31629 0.60528
 C183 C 0.65893 0.30938 0.61496
 H184 H 0.60986 0.29503 0.64419
 H185 H 0.60331 0.35359 0.69054
 H186 H 0.63935 0.38989 0.68995
 H187 H 0.69976 0.38598 0.64245
 H188 H 0.70344 0.34735 0.61000
 H189 H 0.64950 0.29300 0.61103
 C190 C 0.64145 0.82956 1.14938
 C191 C 0.66130 0.82807 1.13360
 C192 C 0.67979 0.84488 1.13421
 C193 C 0.67867 0.86334 1.15072
 C194 C 0.65912 0.86469 1.16641
 C195 C 0.64039 0.84768 1.16568
 C196 C 0.62158 0.81510 1.15354
 N197 N 0.60805 0.82417 1.17172
 C198 C 0.61988 0.84392 1.17949
 C199 C 0.66376 0.88318 1.18159
 N200 N 0.68571 0.89285 1.17561
 C201 C 0.69485 0.88107 1.15659
 C202 C 0.69710 0.83844 1.11763
 N203 N 0.68958 0.81807 1.10722
 C204 C 0.66763 0.81172 1.11668
 H205 H 0.61806 0.79845 1.14476
 H206 H 0.61394 0.85501 1.19403
 H207 H 0.65261 0.88853 1.19657
 H208 H 0.71248 0.88452 1.14840
 H209 H 0.71405 0.84765 1.11361
 H210 H 0.65729 0.79610 1.11186
 C211 C 0.13705 0.33769 1.15429
 C212 C 0.15626 0.33586 1.13780
 C213 C 0.17700 0.34981 1.14019
 C214 C 0.17879 0.36575 1.15913
 C215 C 0.15988 0.36742 1.17548
 C216 C 0.13890 0.35326 1.17304
 C217 C 0.11555 0.32522 1.15730
 N218 N 0.10405 0.33299 1.17733
 C219 C 0.11855 0.34997 1.18718
 C220 C 0.16700 0.38347 1.19245
 N221 N 0.18980 0.39140 1.18686
 C222 C 0.19708 0.38087 1.16639
 C223 C 0.19328 0.34313 1.12278
 N224 N 0.18299 0.32532 1.11014
 C225 C 0.16023 0.32097 1.11892
 H226 H 0.10965 0.31045 1.14654
 H227 H 0.11472 0.35924 1.20358
 H228 H 0.15652 0.38888 1.20786
 H229 H 0.21444 0.38397 1.15753
 H230 H 0.21162 0.34998 1.12008
 H231 H 0.14790 0.30737 1.11257
 C232 C 0.13687 0.83347 0.65583
 C233 C 0.15569 0.83347 0.63879
 C234 C 0.17463 0.84974 0.64029
 C235 C 0.17510 0.86606 0.65897
 C236 C 0.15652 0.86615 0.67572
 C237 C 0.13725 0.84973 0.67416
 C238 C 0.11741 0.81845 0.65996
 N239 N 0.10584 0.82535 0.68017
 C240 C 0.11797 0.84429 0.68912
 C241 C 0.16269 0.88264 0.69263
 N242 N 0.18496 0.89210 0.68698
 C243 C 0.19234 0.88235 0.66605
 C244 C 0.19118 0.84451 0.62260
 N245 N 0.18287 0.82529 0.61068
 C246 C 0.16107 0.81856 0.62024
 H247 H 0.11259 0.80303 0.64962
 H248 H 0.11355 0.85293 0.70574
 H249 H 0.15235 0.88647 0.70862
 H250 H 0.20903 0.88679 0.65654
 H251 H 0.20840 0.85346 0.61913
 H252 H 0.15041 0.80342 0.61463
 C253 C 0.36400 0.67593 0.65035
 C254 C 0.34585 0.67624 0.63277
 C255 C 0.32890 0.65801 0.63158
 C256 C 0.32992 0.63923 0.64790
 C257 C 0.34787 0.63893 0.66525
 C258 C 0.36498 0.65741 0.66651
 C259 C 0.38154 0.69214 0.65690
 N260 N 0.39284 0.68401 0.67679
 C261 C 0.38309 0.66268 0.68266
 C262 C 0.34352 0.61951 0.67949
 N263 N 0.32357 0.60795 0.67103
 C264 C 0.31493 0.61999 0.65191
 C265 C 0.31244 0.66376 0.61403
 N266 N 0.31890 0.68511 0.60481
 C267 C 0.33940 0.69281 0.61595
 H268 H 0.38520 0.70903 0.64846
 H269 H 0.38812 0.65230 0.69812
 H270 H 0.35368 0.61444 0.69521
 H271 H 0.29867 0.61530 0.64199
 H272 H 0.29648 0.65362 0.60885
 H273 H 0.34837 0.70961 0.61262
 C274 C 0.35862 0.17036 1.14978
 C275 C 0.34181 0.17035 1.13097
 C276 C 0.32507 0.15206 1.12884
 C277 C 0.32497 0.13349 1.14548
 C278 C 0.34180 0.13330 1.16381
 C279 C 0.35864 0.15197 1.16612
 C280 C 0.37621 0.18633 1.15679
 N281 N 0.38657 0.17828 1.17720
 C282 C 0.37623 0.15713 1.18289
 C283 C 0.33710 0.11348 1.17740
 N284 N 0.31788 0.10148 1.16773
 C285 C 0.31010 0.11398 1.14843
 C286 C 0.31064 0.15704 1.10942
 N287 N 0.31841 0.17775 1.09962
 C288 C 0.33720 0.18621 1.11291
 H289 H 0.38085 0.20283 1.14799
 H290 H 0.38079 0.14661 1.19839
 H291 H 0.34625 0.10880 1.19383
 H292 H 0.29485 0.10914 1.13716
 H293 H 0.29547 0.14652 1.10296
 H294 H 0.34654 0.20287 1.10985
 C295 C 0.86633 0.65924 1.15278
 C296 C 0.84779 0.66014 1.13560
 C297 C 0.82817 0.64462 1.13702
 C298 C 0.82672 0.62817 1.15572
 C299 C 0.84482 0.62751 1.17290
 C300 C 0.86481 0.64315 1.17139
 C301 C 0.88658 0.67319 1.15671
 N302 N 0.89752 0.66590 1.17713
 C303 C 0.88411 0.64776 1.18643
 C304 C 0.83764 0.61108 1.18978
 N305 N 0.81559 0.60205 1.18330
 C306 C 0.80890 0.61218 1.16236
 C307 C 0.81195 0.65083 1.11943
 N308 N 0.82107 0.67000 1.10772
 C309 C 0.84311 0.67564 1.11722
 H310 H 0.89252 0.68808 1.14593
 H311 H 0.88759 0.63921 1.20337
 H312 H 0.84736 0.60647 1.20591
 H313 H 0.79202 0.60852 1.15300
 H314 H 0.79426 0.64281 1.11613
 H315 H 0.85426 0.69065 1.11191
 C316 C 0.86959 0.16606 0.65235
 C317 C 0.85253 0.16564 0.63371
 C318 C 0.83565 0.14731 0.63230
 C319 C 0.83551 0.12931 0.64955
 C320 C 0.85246 0.12971 0.66779
 C321 C 0.86963 0.14809 0.66907
 C322 C 0.88572 0.18312 0.66021
 N323 N 0.89513 0.17617 0.68160
 C324 C 0.88584 0.15432 0.68656
 C325 C 0.84565 0.11263 0.68405
 N326 N 0.82487 0.10209 0.67626
 C327 C 0.81873 0.11181 0.65495
 C328 C 0.81946 0.15294 0.61449
 N329 N 0.82600 0.17423 0.60523
 C330 C 0.84627 0.18209 0.61666
 H331 H 0.88887 0.20013 0.65182
 H332 H 0.89030 0.14362 0.70196
 H333 H 0.85412 0.10927 0.70114
 H334 H 0.80234 0.10757 0.64503
 H335 H 0.80335 0.14294 0.60945
 H336 H 0.85494 0.19909 0.61365
 C337 C 0.32362 0.35455 0.65733
 C338 C 0.32167 0.33593 0.64105
 C339 C 0.33664 0.31645 0.64332
 C340 C 0.35366 0.31531 0.66191
 C341 C 0.35527 0.33350 0.67818
 C342 C 0.34013 0.35319 0.67589
 C343 C 0.31122 0.37544 0.65979
 N344 N 0.31993 0.38683 0.67929
 C345 C 0.33726 0.37305 0.68951
 C346 C 0.37301 0.32757 0.69442
 N347 N 0.38205 0.30616 0.68848
 C348 C 0.37052 0.29862 0.66849
 C349 C 0.32996 0.30068 0.62592
 N350 N 0.31113 0.31000 0.61345
 C351 C 0.30609 0.33166 0.62232
 H352 H 0.29674 0.38182 0.64838
 H353 H 0.34675 0.37699 0.70594
 H354 H 0.37900 0.33805 0.70942
 H355 H 0.37430 0.28227 0.65934
 H356 H 0.33758 0.28335 0.62306
 H357 H 0.29162 0.34304 0.61607
 C358 C 0.31675 0.85925 0.15655
 C359 C 0.31717 0.84145 0.13931
 C360 C 0.33608 0.82537 0.13902
 C361 C 0.35486 0.82696 0.15587
 C362 C 0.35441 0.84448 0.17294
 C363 C 0.33521 0.86069 0.17331
 C364 C 0.30014 0.87658 0.16174
 N365 N 0.30794 0.88822 0.18142
 C366 C 0.32949 0.87884 0.18847
 C367 C 0.37426 0.84115 0.18753
 N368 N 0.38681 0.82224 0.17947
 C369 C 0.37499 0.81326 0.16030
 C370 C 0.33112 0.80937 0.12132
 N371 N 0.30956 0.81523 0.11111
 C372 C 0.30102 0.83500 0.12172
 H373 H 0.28340 0.88026 0.15220
 H374 H 0.33992 0.88452 0.20380
 H375 H 0.37913 0.85149 0.20300
 H376 H 0.38047 0.79769 0.15062
 H377 H 0.34200 0.79421 0.11660
 H378 H 0.28403 0.84365 0.11730
 C379 C 0.81770 0.36580 0.15641
 C380 C 0.81938 0.35046 0.13696
 C381 C 0.83760 0.33367 0.13633
 C382 C 0.85440 0.33203 0.15505
 C383 C 0.85281 0.34721 0.17421
 C384 C 0.83434 0.36419 0.17490
 C385 C 0.80115 0.38297 0.16243
 N386 N 0.80728 0.39154 0.18417
 C387 C 0.82766 0.38038 0.19184
 C388 C 0.87061 0.34080 0.19022
 N389 N 0.88270 0.32200 0.18128
 C390 C 0.87314 0.31664 0.15967
 C391 C 0.83395 0.32030 0.11628
 N392 N 0.81418 0.32877 0.10455
 C393 C 0.80495 0.34703 0.11719
 H394 H 0.78556 0.38856 0.15205
 H395 H 0.83656 0.38347 0.20876
 H396 H 0.87413 0.34877 0.20738
 H397 H 0.87909 0.30228 0.14846
 H398 H 0.84438 0.30503 0.11098
 H399 H 0.78860 0.35668 0.11261
 C400 C 0.82881 0.86343 0.65503
 C401 C 0.82873 0.84645 0.63696
 C402 C 0.84622 0.82890 0.63682
 C403 C 0.86389 0.82803 0.65486
 C404 C 0.86390 0.84476 0.67273
 C405 C 0.84628 0.86259 0.67279
 C406 C 0.81408 0.88246 0.65968
 N407 N 0.82244 0.89329 0.67961
 C408 C 0.84189 0.88106 0.68797
 C409 C 0.88273 0.83941 0.68797
 N410 N 0.89427 0.81999 0.67965
 C411 C 0.88274 0.81275 0.65956
 C412 C 0.84151 0.81477 0.61746
 N413 N 0.82175 0.82345 0.60586
 C414 C 0.81363 0.84265 0.61777
 H415 H 0.79844 0.88808 0.64936
 H416 H 0.85198 0.88530 0.70398
 H417 H 0.88755 0.84875 0.70408
 H418 H 0.88766 0.79741 0.64926
 H419 H 0.85140 0.79910 0.61237
 H420 H 0.79771 0.85285 0.61293
 C421 C 0.66737 0.63555 0.64735
 C422 C 0.66723 0.65323 0.62977
 C423 C 0.65089 0.67168 0.63142
 C424 C 0.63470 0.67283 0.65078
 C425 C 0.63497 0.65552 0.66826
 C426 C 0.65129 0.63664 0.66644
 C427 C 0.68191 0.61614 0.65087
 N428 N 0.67478 0.60533 0.67140
 C429 C 0.65626 0.61783 0.68120
 C430 C 0.61863 0.66213 0.68569
 N431 N 0.60874 0.68310 0.67924
 C432 C 0.61811 0.68956 0.65771
 C433 C 0.65594 0.68703 0.61296
 N434 N 0.67478 0.67824 0.60006
 C435 C 0.68199 0.65770 0.61030
 H436 H 0.69677 0.61040 0.63954
 H437 H 0.64744 0.61373 0.69805
 H438 H 0.61478 0.65280 0.70218
 H439 H 0.61362 0.70558 0.64815
 H440 H 0.64725 0.70383 0.60965
 H441 H 0.69735 0.64726 0.60446
 C442 C 0.67593 0.13549 0.15511
 C443 C 0.67534 0.15290 0.13727
 C444 C 0.65708 0.16966 0.13738
 C445 C 0.63914 0.16920 0.15526
 C446 C 0.63971 0.15207 0.17296
 C447 C 0.65828 0.13510 0.17289
 C448 C 0.69268 0.11830 0.16053
 N449 N 0.68579 0.10773 0.18128
 C450 C 0.66466 0.11765 0.18886
 C451 C 0.62143 0.15727 0.18904
 N452 N 0.61009 0.17718 0.18155
 C453 C 0.62059 0.18448 0.16082
 C454 C 0.66238 0.18566 0.11952
 N455 N 0.68349 0.17911 0.10881
 C456 C 0.69144 0.15895 0.11928
 H457 H 0.70911 0.11426 0.15058
 H458 H 0.65517 0.11306 0.20523
 H459 H 0.61732 0.14790 0.20546
 H460 H 0.61566 0.20026 0.15105
 H461 H 0.65228 0.20149 0.11532
 H462 H 0.70823 0.14999 0.11478
 C463 C 0.17927 0.62866 0.15777
 C464 C 0.17759 0.64460 0.13864
 C465 C 0.15963 0.66165 0.13864
 C466 C 0.14309 0.66297 0.15772
 C467 C 0.14476 0.64729 0.17664
 C468 C 0.16295 0.63000 0.17665
 C469 C 0.19550 0.61097 0.16303
 N470 N 0.18950 0.60179 0.18469
 C471 C 0.16949 0.61308 0.19306
 C472 C 0.12680 0.65308 0.19280
 N473 N 0.11417 0.67161 0.18388
 C474 C 0.12407 0.67795 0.16256
 C475 C 0.16303 0.67533 0.11857
 N476 N 0.18241 0.66681 0.10623
 C477 C 0.19163 0.64819 0.11849
 H478 H 0.21091 0.60552 0.15227
 H479 H 0.16084 0.60965 0.21014
 H480 H 0.12305 0.64445 0.20970
 H481 H 0.11784 0.69239 0.15149
 H482 H 0.15266 0.69078 0.11363
 H483 H 0.20767 0.63834 0.11335
 C484 C 0.16680 0.13010 0.65913
 C485 C 0.16551 0.14579 0.63977
 C486 C 0.14894 0.16411 0.64012
 C487 C 0.13347 0.16701 0.65985
 C488 C 0.13473 0.15153 0.67898
 C489 C 0.15149 0.13292 0.67862
 C490 C 0.18250 0.11198 0.66446
 N491 N 0.17718 0.10393 0.68672
 C492 C 0.15814 0.11643 0.69549
 C493 C 0.11878 0.15951 0.69614
 N494 N 0.10813 0.17949 0.68792
 C495 C 0.11676 0.18408 0.66564
 C496 C 0.15318 0.17767 0.62008
 N497 N 0.17173 0.16787 0.60750
 C498 C 0.17956 0.14852 0.61952
 H499 H 0.19737 0.10574 0.65344
 H500 H 0.15052 0.11438 0.71322
 H501 H 0.11554 0.15170 0.71354
 H502 H 0.11152 0.19899 0.65469
 H503 H 0.14424 0.19405 0.61550
 H504 H 0.19494 0.13777 0.61433
 C505 C 0.32973 0.64099 0.34943
 C506 C 0.32868 0.65951 0.36584
 C507 C 0.34642 0.67708 0.36547
 C508 C 0.36544 0.67633 0.34868
 C509 C 0.36643 0.65808 0.33242
 C510 C 0.34845 0.64031 0.33277
 C511 C 0.31403 0.62257 0.34454
 N512 N 0.32264 0.61101 0.32516
 C513 C 0.34379 0.62152 0.31798
 C514 C 0.38563 0.66283 0.31718
 N515 N 0.39643 0.68333 0.32397
 C516 C 0.38407 0.69187 0.34305
 C517 C 0.33988 0.69355 0.38222
 N518 N 0.31853 0.68648 0.39245
 C519 C 0.31163 0.66559 0.38277
 H520 H 0.29716 0.61834 0.35383
 H521 H 0.35445 0.61637 0.30260
 H522 H 0.39095 0.65254 0.30184
 H523 H 0.38786 0.70858 0.35160
 H524 H 0.34948 0.70983 0.38618
 H525 H 0.29507 0.65595 0.38729
 C526 C 0.32646 0.13935 0.85018
 C527 C 0.32568 0.15951 0.86449
 C528 C 0.34508 0.17535 0.86434
 C529 C 0.36556 0.17116 0.84991
 C530 C 0.36641 0.15115 0.83594
 C531 C 0.34674 0.13518 0.83604
 C532 C 0.30969 0.12171 0.84571
 N533 N 0.31950 0.10692 0.82942
 C534 C 0.34205 0.11504 0.82324
 C535 C 0.38762 0.15233 0.82277
 N536 N 0.39973 0.17251 0.82844
 C537 C 0.38624 0.18426 0.84486
 C538 C 0.33916 0.19335 0.87962
 N539 N 0.31661 0.18883 0.88882
 C540 C 0.30830 0.16810 0.87985
 H541 H 0.29154 0.11997 0.85330
 H542 H 0.35382 0.10715 0.80999
 H543 H 0.39340 0.13989 0.80933
 H544 H 0.39058 0.20161 0.85173
 H545 H 0.35039 0.20856 0.88385
 H546 H 0.29098 0.15982 0.88439
 C547 C 0.82506 0.63048 0.84154
 C548 C 0.82575 0.64718 0.85988
 C549 C 0.84463 0.66357 0.86078
 C550 C 0.86316 0.66335 0.84342
 C551 C 0.86245 0.64687 0.82531
 C552 C 0.84325 0.63038 0.82432
 C553 C 0.80801 0.61368 0.83524
 N554 N 0.81530 0.60369 0.81449
 C555 C 0.83695 0.61355 0.80781
 C556 C 0.88168 0.65182 0.81015
 N557 N 0.89416 0.67066 0.81881
 C558 C 0.88285 0.67803 0.83898
 C559 C 0.83956 0.67869 0.87925
 N560 N 0.81798 0.67198 0.88931
 C561 C 0.80954 0.65256 0.87782
 H562 H 0.79117 0.60950 0.84460
 H563 H 0.84690 0.60931 0.79169
 H564 H 0.88597 0.64279 0.79372
 H565 H 0.88815 0.69338 0.84920
 H566 H 0.85024 0.69397 0.88444
 H567 H 0.79243 0.64359 0.88172
 C568 C 0.83453 0.13076 0.34793
 C569 C 0.83319 0.14904 0.36462
 C570 C 0.84898 0.16817 0.36287
 C571 C 0.86639 0.16923 0.34448
 C572 C 0.86766 0.15126 0.32792
 C573 C 0.85162 0.13188 0.32967
 C574 C 0.82006 0.11120 0.34399
 N575 N 0.82812 0.10032 0.32400
 C576 C 0.84723 0.11297 0.31495
 C577 C 0.88473 0.15797 0.31101
 N578 N 0.89358 0.17959 0.31688
 C579 C 0.88273 0.18648 0.33747
 C580 C 0.84202 0.18421 0.37988
 N581 N 0.82229 0.17535 0.39170
 C582 C 0.81696 0.15369 0.38279
 H583 H 0.80427 0.10573 0.35439
 H584 H 0.85652 0.10922 0.29834
 H585 H 0.88971 0.14829 0.29516
 H586 H 0.88596 0.20320 0.34621
 H587 H 0.84999 0.20150 0.38277
 H588 H 0.80179 0.14262 0.38850
 C589 C 0.66491 0.36139 0.35342
 C590 C 0.66576 0.34342 0.37067
 C591 C 0.64996 0.32431 0.36920
 C592 C 0.63329 0.32278 0.35035
 C593 C 0.63252 0.34044 0.33324
 C594 C 0.64837 0.35994 0.33484
 C595 C 0.67874 0.38149 0.34981
 N596 N 0.67078 0.39237 0.32970
 C597 C 0.65244 0.37917 0.32023
 C598 C 0.61548 0.33371 0.31653
 N599 N 0.60622 0.31233 0.32300
 C600 C 0.61674 0.30563 0.34381
 C601 C 0.65577 0.30901 0.38738
 N602 N 0.67460 0.31842 0.39994
 C603 C 0.68103 0.33935 0.38971
 H604 H 0.69377 0.38758 0.36073
 H605 H 0.64321 0.38302 0.30363
 H606 H 0.61051 0.34338 0.30060
 H607 H 0.61285 0.28930 0.35325
 H608 H 0.64749 0.29191 0.39078
 H609 H 0.69628 0.35032 0.39517
 C610 C 0.67632 0.86113 0.84865
 C611 C 0.67660 0.84306 0.86579
 C612 C 0.65780 0.82654 0.86665
 C613 C 0.63836 0.82805 0.85046
 C614 C 0.63807 0.84597 0.83361
 C615 C 0.65722 0.86252 0.83260
 C616 C 0.69312 0.87829 0.84239
 N617 N 0.68482 0.88970 0.82272
 C618 C 0.66275 0.88043 0.81677
 C619 C 0.61816 0.84212 0.81920
 N620 N 0.60623 0.82245 0.82700
 C621 C 0.61861 0.81354 0.84593
 C622 C 0.66380 0.81014 0.88383
 N623 N 0.68581 0.81625 0.89315
 C624 C 0.69368 0.83646 0.88244
 H625 H 0.71052 0.88168 0.85091
 H626 H 0.65204 0.88574 0.80148
 H627 H 0.61315 0.85240 0.80366
 H628 H 0.61410 0.79720 0.85509
 H629 H 0.65336 0.79454 0.88872
 H630 H 0.71087 0.84530 0.88611
 C631 C 0.16884 0.37369 0.84651
 C632 C 0.16924 0.35638 0.86445
 C633 C 0.15133 0.33900 0.86519
 C634 C 0.13272 0.33879 0.84807
 C635 C 0.13239 0.35580 0.83027
 C636 C 0.15060 0.37334 0.82946
 C637 C 0.18479 0.39167 0.84049
 N638 N 0.17651 0.40230 0.82038
 C639 C 0.15578 0.39109 0.81333
 C640 C 0.11335 0.35030 0.81526
 N641 N 0.10192 0.33061 0.82376
 C642 C 0.11383 0.32327 0.84362
 C643 C 0.15742 0.32351 0.88317
 N644 N 0.17867 0.33098 0.89310
 C645 C 0.18588 0.35125 0.88205
 H646 H 0.20159 0.39625 0.84958
 H647 H 0.14561 0.39522 0.79734
 H648 H 0.10858 0.35947 0.79897
 H649 H 0.10938 0.30747 0.85373
 H650 H 0.14774 0.30744 0.88802
 H651 H 0.20253 0.36093 0.88590
 C652 C 0.16429 0.87023 0.34651
 C653 C 0.16530 0.85266 0.36415
 C654 C 0.14836 0.83439 0.36427
 C655 C 0.13009 0.83354 0.34680
 C656 C 0.12913 0.85086 0.32932
 C657 C 0.14641 0.86929 0.32911
 C658 C 0.17990 0.88851 0.34066
 N659 N 0.17217 0.89837 0.31995
 C660 C 0.15155 0.88699 0.31286
 C661 C 0.11082 0.84457 0.31376
 N662 N 0.10048 0.82409 0.32158
 C663 C 0.11237 0.81702 0.34156
 C664 C 0.15515 0.81879 0.38193
 N665 N 0.17590 0.82708 0.39221
 C666 C 0.18212 0.84789 0.38167
 H667 H 0.19645 0.89346 0.34999
 H668 H 0.14189 0.89048 0.29642
 H669 H 0.10570 0.85389 0.29766
 H670 H 0.10878 0.80071 0.35114
 H671 H 0.14634 0.80215 0.38628
 H672 H 0.19826 0.85823 0.38584
 O673 O 0.24348 1.02736 0.27241
 O674 O 0.27297 0.97783 0.24173
 O675 O 0.27559 1.02336 0.23836
 O676 O 0.24180 0.98100 0.27599
 O677 O 0.21144 0.98073 0.25011
 O678 O 0.24624 1.02194 0.21152
 O679 O 0.24245 0.97647 0.21600
 O680 O 0.21398 1.02699 0.24565
 Cu681 Cu 0.26135 1.00263 0.25989
 Cu682 Cu 0.22538 1.00169 0.22829
 C683 C 0.22407 1.03605 0.26380
 C684 C 0.26235 0.96832 0.22407
 C685 C 0.26710 1.02935 0.21821
 C686 C 0.22137 0.97291 0.26897
 O687 O 0.25273 0.52461 0.77245
 O688 O 0.28536 0.47661 0.74267
 O689 O 0.28545 0.52290 0.73847
 O690 O 0.25067 0.47938 0.77443
 O691 O 0.22295 0.47712 0.74593
 O692 O 0.25602 0.52270 0.71158
 O693 O 0.25774 0.47635 0.71417
 O694 O 0.22344 0.52264 0.74553
 Cu695 Cu 0.27160 0.50100 0.75961
 Cu696 Cu 0.23734 0.49959 0.72636
 C697 C 0.23207 0.53112 0.76470
 C698 C 0.27728 0.46830 0.72328
 C699 C 0.27631 0.53057 0.71913
 C700 C 0.23070 0.47112 0.76635
 O701 O 0.75540 -0.02609 0.27794
 O702 O 0.72477 0.02223 0.24617
 O703 O 0.72374 -0.02391 0.24400
 O704 O 0.75720 0.01986 0.28004
 O705 O 0.78737 0.01983 0.25376
 O706 O 0.75363 -0.02316 0.21736
 O707 O 0.75495 0.02329 0.21991
 O708 O 0.78497 -0.02594 0.25108
 Cu709 Cu 0.73727 -0.00190 0.26468
 Cu710 Cu 0.77317 -0.00121 0.23276
 C711 C 0.77480 -0.03493 0.26943
 C712 C 0.73490 0.03128 0.22788
 C713 C 0.73345 -0.03153 0.22497
 C714 C 0.77815 0.02701 0.27318
 O715 O 0.74507 0.47569 0.77273
 O716 O 0.71294 0.52100 0.73805
 O717 O 0.71266 0.47557 0.73900
 O718 O 0.74490 0.52210 0.77206
 O719 O 0.77539 0.52106 0.74614
 O720 O 0.74162 0.47661 0.71143
 O721 O 0.74343 0.52213 0.71209
 O722 O 0.77399 0.47459 0.74526
 Cu723 Cu 0.72608 0.49859 0.75834
 Cu724 Cu 0.76178 0.49855 0.72620
 C725 C 0.76445 0.46666 0.76439
 C726 C 0.72266 0.52920 0.71913
 C727 C 0.72130 0.46868 0.71922
 C728 C 0.76537 0.52981 0.76449
 O729 O 0.28932 0.52191 0.26284
 O730 O 0.26008 0.47339 0.22983
 O731 O 0.25921 0.51965 0.22770
 O732 O 0.29112 0.47607 0.26476
 O733 O 0.26014 0.47574 0.29014
 O734 O 0.22823 0.51955 0.25311
 O735 O 0.22901 0.47366 0.25512
 O736 O 0.25828 0.52195 0.28818
 Cu737 Cu 0.27800 0.49763 0.24368
 Cu738 Cu 0.24083 0.49756 0.27425
 C739 C 0.27838 0.53062 0.28070
 C740 C 0.23964 0.46519 0.23699
 C741 C 0.23872 0.52761 0.23451
 C742 C 0.28112 0.46854 0.28380
 O743 O 0.75317 1.02239 0.72178
 O744 O 0.72234 0.97451 0.75495
 O745 O 0.72116 1.02032 0.75617
 O746 O 0.75466 0.97630 0.72119
 O747 O 0.78475 0.97724 0.74736
 O748 O 0.75040 1.02008 0.78312
 O749 O 0.75261 0.97421 0.78098
 O750 O 0.78273 1.02300 0.74852
 Cu751 Cu 0.73488 0.99844 0.73582
 Cu752 Cu 0.77060 0.99883 0.76770
 C753 C 0.77309 1.03094 0.72958
 C754 C 0.73252 0.96590 0.77329
 C755 C 0.72975 1.02730 0.77593
 C756 C 0.77540 0.96926 0.72832
 O757 O 0.77043 0.47435 0.25285
 O758 O 0.74153 0.52269 0.28577
 O759 O 0.73902 0.47652 0.28768
 O760 O 0.77283 0.52027 0.25146
 O761 O 0.74235 0.52109 0.22571
 O762 O 0.70875 0.47704 0.26174
 O763 O 0.71097 0.52289 0.26008
 O764 O 0.74008 0.47482 0.22696
 Cu765 Cu 0.75898 0.49830 0.27208
 Cu766 Cu 0.72253 0.49891 0.24095
 C767 C 0.75999 0.46618 0.23447
 C768 C 0.72169 0.53141 0.27815
 C769 C 0.71812 0.46935 0.28090
 C770 C 0.76298 0.52868 0.23284
 O771 O 0.25544 -0.02220 0.78815
 O772 O 0.21946 0.02120 0.75412
 O773 O 0.22215 -0.02534 0.75501
 O774 O 0.25095 0.02310 0.78834
 O775 O 0.28135 0.02391 0.76223
 O776 O 0.25078 -0.02246 0.72731
 O777 O 0.24956 0.02396 0.72789
 O778 O 0.28382 -0.02154 0.76019
 Cu779 Cu 0.23385 -0.00115 0.77394
 Cu780 Cu 0.26915 0.00120 0.74152
 C781 C 0.27598 -0.02905 0.78014
 C782 C 0.22902 0.03075 0.73575
 C783 C 0.23182 -0.03254 0.73580
 C784 C 0.27128 0.03139 0.78115
 O785 O 0.24816 0.28873 0.97688
 O786 O 0.27987 0.25135 1.02063
 O787 O 0.27948 0.25506 0.97461
 O788 O 0.24860 0.28580 1.02377
 O789 O 0.21855 0.25958 1.02278
 O790 O 0.24872 0.22960 0.97285
 O791 O 0.24974 0.22526 1.01906
 O792 O 0.21744 0.26320 0.97614
 Cu793 Cu 0.26696 0.27297 0.99927
 Cu794 Cu 0.23048 0.24189 0.99772
 C795 C 0.22780 0.28188 0.96847
 C796 C 0.27050 0.23170 1.02690
 C797 C 0.26907 0.23742 0.96504
 C798 C 0.22862 0.27756 1.03204
 O799 O 0.24765 0.78762 0.47555
 O800 O 0.27958 0.75315 0.52165
 O801 O 0.27925 0.75377 0.47534
 O802 O 0.24895 0.78756 0.52255
 O803 O 0.21829 0.76193 0.52300
 O804 O 0.24852 0.72821 0.47550
 O805 O 0.24892 0.72752 0.52225
 O806 O 0.21697 0.76203 0.47642
 Cu807 Cu 0.26685 0.77322 0.49867
 Cu808 Cu 0.23011 0.74234 0.49931
 C809 C 0.22716 0.78035 0.46775
 C810 C 0.26935 0.73474 0.53017
 C811 C 0.26887 0.73546 0.46715
 C812 C 0.22890 0.78009 0.53132
 O813 O 0.27977 0.75083 -0.02211
 O814 O 0.24863 0.71217 0.02149
 O815 O 0.25091 0.71497 -0.02514
 O816 O 0.27786 0.74844 0.02435
 O817 O 0.24579 0.77193 0.02450
 O818 O 0.21886 0.73849 -0.02496
 O819 O 0.21666 0.73574 0.02124
 O820 O 0.24777 0.77440 -0.02229
 Cu821 Cu 0.26750 0.72920 -0.00022
 Cu822 Cu 0.22911 0.75760 -0.00026
 C823 C 0.26867 0.76871 -0.03025
 C824 C 0.22731 0.71733 0.02874
 C825 C 0.23065 0.72147 -0.03389
 C826 C 0.26619 0.76563 0.03308
 O827 O 0.21408 0.23869 0.47808
 O828 O 0.24343 0.27045 0.52748
 O829 O 0.24567 0.27255 0.48066
 O830 O 0.21187 0.23604 0.52423
 O831 O 0.24203 0.21036 0.52445
 O832 O 0.27599 0.24701 0.48105
 O833 O 0.27363 0.24481 0.52753
 O834 O 0.24443 0.21316 0.47790
 Cu835 Cu 0.22581 0.25711 0.50273
 Cu836 Cu 0.26206 0.22625 0.50287
 C837 C 0.22461 0.22088 0.46920
 C838 C 0.26329 0.26283 0.53617
 C839 C 0.26621 0.26559 0.47288
 C840 C 0.22111 0.21688 0.53161
 O841 O 0.75543 0.77293 0.97599
 O842 O 0.78567 0.73763 1.02251
 O843 O 0.78459 0.73724 0.97594
 O844 O 0.75656 0.77342 1.02282
 O845 O 0.72450 0.74945 1.02373
 O846 O 0.75254 0.71326 0.97682
 O847 O 0.75361 0.71368 1.02381
 O848 O 0.72339 0.74895 0.97737
 Cu849 Cu 0.77375 0.75774 0.99921
 Cu850 Cu 0.73537 0.72882 1.00057
 C851 C 0.73452 0.76664 0.96841
 C852 C 0.77446 0.71999 1.03148
 C853 C 0.77301 0.71950 0.96794
 C854 C 0.73599 0.76732 1.03157
 O855 O 0.72172 0.24789 0.52389
 O856 O 0.75301 0.21467 0.47682
 O857 O 0.75415 0.21495 0.52366
 O858 O 0.72058 0.24803 0.47779
 O859 O 0.74949 0.27550 0.47786
 O860 O 0.78424 0.24116 0.52200
 O861 O 0.78204 0.24192 0.47528
 O862 O 0.75193 0.27404 0.52395
 Cu863 Cu 0.73452 0.22855 0.50054
 Cu864 Cu 0.77001 0.26076 0.49952
 C865 C 0.73171 0.26637 0.53220
 C866 C 0.77249 0.22297 0.46757
 C867 C 0.77459 0.22274 0.53105
 C868 C 0.72904 0.26771 0.47052
 O869 O 0.71706 0.24563 -0.02294
 O870 O 0.74777 0.28353 0.02094
 O871 O 0.74638 0.28172 -0.02558
 O872 O 0.71806 0.24766 0.02337
 O873 O 0.74989 0.22387 0.02382
 O874 O 0.77815 0.25786 -0.02520
 O875 O 0.77950 0.25965 0.02094
 O876 O 0.74872 0.22169 -0.02280
 Cu877 Cu 0.72914 0.26706 -0.00108
 Cu878 Cu 0.76721 0.23828 -0.00081
 C879 C 0.72764 0.22719 -0.03033
 C880 C 0.76892 0.27808 0.02833
 C881 C 0.76696 0.27545 -0.03385
 C882 C 0.72936 0.23021 0.03217
 O883 O 0.78219 0.75600 0.47596
 O884 O 0.74779 0.72365 0.52210
 O885 O 0.74800 0.72365 0.47607
 O886 O 0.78140 0.75678 0.52205
 O887 O 0.75209 0.78341 0.52257
 O888 O 0.72048 0.75198 0.47436
 O889 O 0.71863 0.75035 0.52051
 O890 O 0.75461 0.78426 0.47639
 Cu891 Cu 0.76774 0.73727 0.49913
 Cu892 Cu 0.73360 0.77029 0.49842
 C893 C 0.77457 0.77585 0.46869
 C894 C 0.72700 0.73108 0.52861
 C895 C 0.72852 0.73222 0.46746
 C896 C 0.77242 0.77576 0.53006
 O897 O 1.02480 0.22907 0.24657
 O898 O 0.97332 0.25784 0.21649
 O899 O 1.02068 0.26257 0.21496
 O900 O 0.97692 0.22523 0.24853
 O901 O 0.97495 0.25250 0.27645
 O902 O 1.01978 0.28894 0.24373
 O903 O 0.97252 0.28513 0.24445
 O904 O 1.02294 0.25527 0.27543
 Cu905 Cu 0.99920 0.24092 0.22884
 Cu906 Cu 0.99756 0.27306 0.26298
 C907 C 1.03293 0.23747 0.26594
 C908 C 0.96393 0.27615 0.22552
 C909 C 1.02752 0.28223 0.22354
 C910 C 0.96776 0.23305 0.26774
 O911 O 0.52903 0.21704 0.74860
 O912 O 0.47403 0.24356 0.72231
 O913 O 0.52102 0.24915 0.71636
 O914 O 0.48199 0.21149 0.75458
 O915 O 0.48196 0.23921 0.78204
 O916 O 0.52180 0.27639 0.74434
 O917 O 0.47480 0.27148 0.74964
 O918 O 0.52903 0.24423 0.77661
 Cu919 Cu 0.50147 0.22754 0.73267
 Cu920 Cu 0.50192 0.26056 0.76597
 C921 C 0.53859 0.22630 0.76694
 C922 C 0.46502 0.26196 0.73156
 C923 C 0.52807 0.26918 0.72384
 C924 C 0.47529 0.21897 0.77486
 O925 O 0.02138 0.25722 0.78514
 O926 O -0.02337 0.21975 0.75415
 O927 O 0.02396 0.22296 0.75474
 O928 O -0.02623 0.25450 0.78434
 O929 O -0.02771 0.27988 0.75445
 O930 O 0.02309 0.24893 0.72524
 O931 O -0.02486 0.24541 0.72472
 O932 O 0.01971 0.28330 0.75579
 Cu933 Cu -0.00096 0.23606 0.77258
 Cu934 Cu -0.00243 0.26690 0.73699
 C935 C 0.02803 0.27670 0.77583
 C936 C -0.03228 0.22630 0.73440
 C937 C 0.03226 0.23081 0.73506
 C938 C -0.03593 0.27224 0.77426
 O939 O 0.47419 0.27304 0.25495
 O940 O 0.52215 0.24274 0.22087
 O941 O 0.47386 0.24318 0.22016
 O942 O 0.52158 0.27306 0.25506
 O943 O 0.52114 0.24355 0.28098
 O944 O 0.47338 0.21353 0.24591
 O945 O 0.52126 0.21319 0.24673
 O946 O 0.47318 0.24339 0.28070
 Cu947 Cu 0.49798 0.26086 0.23502
 Cu948 Cu 0.49715 0.22545 0.26618
 C949 C 0.46528 0.26316 0.27343
 C950 C 0.53040 0.22320 0.22844
 C951 C 0.46503 0.22363 0.22742
 C952 C 0.52977 0.26320 0.27372
 O953 O 0.97696 0.75009 0.71945
 O954 O 1.02501 0.71657 0.75014
 O955 O 0.97755 0.71583 0.75033
 O956 O 1.02433 0.75141 0.71902
 O957 O 1.02475 0.77686 0.74872
 O958 O 0.97757 0.74162 0.77975
 O959 O 1.02478 0.74227 0.77957
 O960 O 0.97734 0.77624 0.74853
 Cu961 Cu 1.00108 0.73087 0.73178
 Cu962 Cu 1.00107 0.76186 0.76709
 C963 C 0.96928 0.76908 0.72861
 C964 C 1.03263 0.72336 0.77035
 C965 C 0.96982 0.72260 0.77050
 C966 C 1.03218 0.77037 0.72835
 O967 O 0.47846 0.75315 0.27757
 O968 O 0.52344 0.78499 0.24009
 O969 O 0.47593 0.78546 0.24464
 O970 O 0.52564 0.75406 0.27485
 O971 O 0.52217 0.72479 0.24919
 O972 O 0.47554 0.75835 0.21648
 O973 O 0.52325 0.75565 0.21458
 O974 O 0.47507 0.72595 0.24970
 Cu975 Cu 0.50115 0.77235 0.26191
 Cu976 Cu 0.49882 0.73845 0.22968
 C977 C 0.46922 0.73398 0.26999
 C978 C 0.53113 0.77574 0.22089
 C979 C 0.46751 0.77741 0.22527
 C980 C 0.53164 0.73369 0.26775
 O981 O -0.02310 0.77094 0.24768
 O982 O 0.02743 0.73908 0.21914
 O983 O -0.01990 0.73698 0.21714
 O984 O 0.02439 0.77367 0.24988
 O985 O 0.02328 0.74818 0.27979
 O986 O -0.01960 0.71063 0.24627
 O987 O 0.02786 0.71374 0.24923
 O988 O -0.02406 0.74456 0.27676
 Cu989 Cu 0.00238 0.75780 0.23053
 Cu990 Cu 0.00197 0.72668 0.26600
 C991 C -0.03262 0.76287 0.26675
 C992 C 0.03604 0.72088 0.22924
 C993 C -0.02715 0.71747 0.22601
 C994 C 0.03088 0.76745 0.27069
 O995 O 0.47726 0.72221 0.74655
 O996 O 0.52241 0.75464 0.78264
 O997 O 0.47490 0.75285 0.78029
 O998 O 0.52498 0.72334 0.74863
 O999 O 0.52534 0.75186 0.72165
 O1000 O 0.47588 0.78184 0.75383
 O1001 O 0.52352 0.78308 0.75557
 O1002 O 0.47742 0.75135 0.72018
 Cu1003 Cu 0.49999 0.73534 0.76720
 Cu1004 Cu 0.50079 0.76989 0.73508
 C1005 C 0.46907 0.73169 0.72767
 C1006 C 0.53050 0.77447 0.77532
 C1007 C 0.46640 0.77201 0.77208
 C1008 C 0.53380 0.73266 0.72982
 C1009 C 0.40309 0.27616 0.30170
 C1010 C 0.40785 0.29903 0.31074
 C1011 C 0.43067 0.30967 0.30661
 C1012 C 0.44901 0.29776 0.29445
 C1013 C 0.44518 0.27473 0.28633
 C1014 C 0.42201 0.26374 0.28969
 C1015 C 0.37963 0.26574 0.30350
 C1016 C 0.37507 0.24335 0.29429
 C1017 C 0.39363 0.23102 0.28296
 C1018 C 0.41687 0.24105 0.28058
 H1019 H 0.36446 0.27494 0.31150
 H1020 H 0.35697 0.23561 0.29577
 H1021 H 0.38993 0.21372 0.27567
 H1022 H 0.43049 0.23103 0.27112
 H1023 H 0.43435 0.32727 0.31316
 H1024 H 0.46651 0.30647 0.29165
 C1025 C 0.40335 0.78155 0.80057
 C1026 C 0.40521 0.80608 0.80581
 C1027 C 0.42588 0.81870 0.79777
 C1028 C 0.44538 0.80730 0.78700
 C1029 C 0.44490 0.78289 0.78353
 C1030 C 0.42347 0.76982 0.78964
 C1031 C 0.38118 0.76890 0.80386
 C1032 C 0.37932 0.74510 0.79804
 C1033 C 0.39918 0.73349 0.78821
 C1034 C 0.42095 0.74567 0.78378
 H1035 H 0.36469 0.77737 0.80991
 H1036 H 0.36219 0.73574 0.80070
 H1037 H 0.39750 0.71510 0.78335
 H1038 H 0.43525 0.73604 0.77494
 H1039 H 0.42761 0.83744 0.80107
 H1040 H 0.46132 0.81761 0.78182
 C1041 C -0.09654 0.28533 0.80660
 C1042 C -0.09541 0.31049 0.80678
 C1043 C -0.07634 0.32186 0.79436
 C1044 C -0.05747 0.30909 0.78405
 C1045 C -0.05690 0.28441 0.78557
 C1046 C -0.07686 0.27222 0.79653
 C1047 C -0.11777 0.27294 0.81420
 C1048 C -0.11866 0.24842 0.81429
 C1049 C -0.09895 0.23565 0.80588
 C1050 C -0.07850 0.24730 0.79656
 H1051 H -0.13433 0.28191 0.81923
 H1052 H -0.13495 0.23927 0.82050
 H1053 H -0.09986 0.21661 0.80591
 H1054 H -0.06452 0.23644 0.78890
 H1055 H -0.07527 0.34094 0.79371
 H1056 H -0.04275 0.31871 0.77529
 C1057 C -0.09350 0.79507 0.27633
 C1058 C -0.09177 0.79964 0.30129
 C1059 C -0.07215 0.78993 0.31400
 C1060 C -0.05350 0.77798 0.30246
 C1061 C -0.05368 0.77505 0.27773
 C1062 C -0.07408 0.78308 0.26443
 C1063 C -0.11500 0.80009 0.26333
 C1064 C -0.11661 0.79520 0.23907
 C1065 C -0.09728 0.78454 0.22732
 C1066 C -0.07637 0.77821 0.23984
 H1067 H -0.13125 0.80679 0.27179
 H1068 H -0.13319 0.79925 0.22943
 H1069 H -0.09877 0.78048 0.20854
 H1070 H -0.06252 0.76883 0.23007
 H1071 H -0.07048 0.79269 0.33301
 H1072 H -0.03837 0.77153 0.31298
 C1073 C 0.56264 0.68503 0.30389
 C1074 C 0.58577 0.69579 0.30747
 C1075 C 0.59017 0.71864 0.29886
 C1076 C 0.57235 0.73066 0.28611
 C1077 C 0.54965 0.72010 0.28150
 C1078 C 0.54440 0.69723 0.29071
 C1079 C 0.55699 0.66274 0.31387
 C1080 C 0.53394 0.65256 0.31073
 C1081 C 0.51611 0.66441 0.29783
 C1082 C 0.52117 0.68654 0.28794
 H1083 H 0.57009 0.65320 0.32454
 H1084 H 0.52982 0.63548 0.31856
 H1085 H 0.49816 0.65653 0.29567
 H1086 H 0.50655 0.69526 0.27856
 H1087 H 0.60775 0.72705 0.30179
 H1088 H 0.57646 0.74823 0.27943
 C1089 C 0.60174 0.21823 0.79564
 C1090 C 0.60134 0.19327 0.79917
 C1091 C 0.58187 0.18016 0.78953
 C1092 C 0.56203 0.19123 0.77896
 C1093 C 0.56094 0.21583 0.77728
 C1094 C 0.58124 0.22958 0.78494
 C1095 C 0.62286 0.23192 0.80052
 C1096 C 0.62319 0.25622 0.79668
 C1097 C 0.60290 0.26736 0.78714
 C1098 C 0.58226 0.25424 0.78098
 H1099 H 0.63972 0.22401 0.80636
 H1100 H 0.63949 0.26639 0.80065
 H1101 H 0.60341 0.28619 0.78382
 H1102 H 0.56759 0.26362 0.77244
 H1103 H 0.58118 0.16115 0.79152
 H1104 H 0.54693 0.18043 0.77276
 C1105 C 1.06757 0.67216 0.79938
 C1106 C 1.08831 0.68479 0.80815
 C1107 C 1.08872 0.70951 0.80594
 C1108 C 1.07053 0.72146 0.79372
 C1109 C 1.05096 0.70931 0.78342
 C1110 C 1.04888 0.68451 0.78675
 C1111 C 1.06380 0.64798 0.80470
 C1112 C 1.04315 0.63597 0.79656
 C1113 C 1.02541 0.64785 0.78364
 C1114 C 1.02797 0.67191 0.77905
 H1115 H 1.07609 0.63825 0.81603
 H1116 H 1.04065 0.61745 0.80077
 H1117 H 1.00923 0.63849 0.77770
 H1118 H 1.01300 0.68049 0.77008
 H1119 H 1.10403 0.71973 0.81256
 H1120 H 1.07212 0.74045 0.79177
 C1121 C 1.09388 0.22672 0.29824
 C1122 C 1.09334 0.20156 0.29940
 C1123 C 1.07432 0.18945 0.28785
 C1124 C 1.05509 0.20146 0.27732
 C1125 C 1.05422 0.22612 0.27745
 C1126 C 1.07408 0.23906 0.28735
 C1127 C 1.11465 0.23981 0.30554
 C1128 C 1.11528 0.26432 0.30374
 C1129 C 1.09573 0.27634 0.29383
 C1130 C 1.07551 0.26393 0.28536
 H1131 H 1.13110 0.23138 0.31171
 H1132 H 1.13131 0.27401 0.30953
 H1133 H 1.09653 0.29536 0.29205
 H1134 H 1.06158 0.27413 0.27659
 H1135 H 1.07360 0.17035 0.28807
 H1136 H 1.04040 0.19128 0.26939
 C1137 C 0.55899 0.30068 0.67090
 C1138 C 0.57997 0.30974 0.68256
 C1139 C 0.58229 0.30681 0.70722
 C1140 C 0.56490 0.29417 0.72024
 C1141 C 0.54461 0.28395 0.70903
 C1142 C 0.54109 0.28769 0.68422
 C1143 C 0.55504 0.30494 0.64642
 C1144 C 0.53409 0.29636 0.63521
 C1145 C 0.51656 0.28378 0.64819
 C1146 C 0.51984 0.27960 0.67248
 H1147 H 0.56776 0.31530 0.63584
 H1148 H 0.53129 0.29977 0.61642
 H1149 H 0.50017 0.27749 0.63945
 H1150 H 0.50529 0.27050 0.68194
 H1151 H 0.59814 0.31385 0.71635
 H1152 H 0.56774 0.29176 0.73918
 C1153 C 0.56996 0.80111 0.16878
 C1154 C 0.58775 0.81398 0.18208
 C1155 C 0.58475 0.81546 0.20690
 C1156 C 0.56633 0.80303 0.21867
 C1157 C 0.54989 0.78853 0.20633
 C1158 C 0.55144 0.78761 0.18094
 C1159 C 0.56887 0.80295 0.14365
 C1160 C 0.55188 0.79001 0.13063
 C1161 C 0.53502 0.77561 0.14230
 C1162 C 0.53445 0.77465 0.16710
 H1163 H 0.58043 0.81507 0.13376
 H1164 H 0.55153 0.79149 0.11139
 H1165 H 0.52168 0.76575 0.13209
 H1166 H 0.52003 0.76410 0.17483
 H1167 H 0.59765 0.82525 0.21766
 H1168 H 0.56545 0.80424 0.23793
 C1169 C 1.06341 0.31456 0.17399
 C1170 C 1.08354 0.32318 0.18762
 C1171 C 1.08265 0.32063 0.21256
 C1172 C 1.06406 0.30783 0.22367
 C1173 C 1.04540 0.29720 0.21043
 C1174 C 1.04438 0.30123 0.18546
 C1175 C 1.06068 0.32052 0.14964
 C1176 C 1.04078 0.31228 0.13657
 C1177 C 1.02273 0.29865 0.14757
 C1178 C 1.02422 0.29344 0.17181
 H1179 H 1.07325 0.33237 0.14062
 H1180 H 1.03909 0.31694 0.11792
 H1181 H 1.00711 0.29264 0.13740
 H1182 H 1.00899 0.28399 0.17973
 H1183 H 1.09740 0.32714 0.22359
 H1184 H 1.06484 0.30541 0.24282
 C1185 C 1.06376 0.80804 0.68028
 C1186 C 1.08624 0.81273 0.69186
 C1187 C 1.08981 0.80455 0.71517
 C1188 C 1.07194 0.79109 0.72677
 C1189 C 1.05006 0.78522 0.71531
 C1190 C 1.04554 0.79405 0.69202
 C1191 C 1.05869 0.81765 0.65760
 C1192 C 1.03630 0.81332 0.64657
 C1193 C 1.01854 0.79957 0.65794
 C1194 C 1.02299 0.79004 0.68046
 H1195 H 1.07170 0.82896 0.64843
 H1196 H 1.03261 0.82088 0.62920
 H1197 H 1.00110 0.79647 0.64939
 H1198 H 1.00842 0.77996 0.68880
 H1199 H 1.10684 0.80823 0.72425
 H1200 H 1.07545 0.78475 0.74469
 C1201 C 0.40646 0.71859 0.70056
 C1202 C 0.41118 0.69638 0.69015
 C1203 C 0.43413 0.68601 0.69305
 C1204 C 0.45270 0.69768 0.70533
 C1205 C 0.44888 0.72015 0.71478
 C1206 C 0.42556 0.73076 0.71269
 C1207 C 0.38291 0.72858 0.69992
 C1208 C 0.37840 0.75031 0.71052
 C1209 C 0.39713 0.76242 0.72201
 C1210 C 0.42049 0.75282 0.72313
 H1211 H 0.36766 0.71953 0.69174
 H1212 H 0.36022 0.75772 0.70995
 H1213 H 0.39349 0.77921 0.73035
 H1214 H 0.43431 0.76267 0.73257
 H1215 H 0.43769 0.66885 0.68548
 H1216 H 0.47031 0.68925 0.70717
 C1217 C 0.40208 0.21319 0.19959
 C1218 C 0.40538 0.19014 0.19053
 C1219 C 0.42750 0.17853 0.19452
 C1220 C 0.44659 0.18964 0.20655
 C1221 C 0.44424 0.21282 0.21468
 C1222 C 0.42176 0.22478 0.21148
 C1223 C 0.37932 0.22464 0.19787
 C1224 C 0.37617 0.24721 0.20709
 C1225 C 0.39546 0.25870 0.21835
 C1226 C 0.41802 0.24765 0.22063
 H1227 H 0.36362 0.21615 0.18990
 H1228 H 0.35860 0.25575 0.20568
 H1229 H 0.39285 0.27614 0.22564
 H1230 H 0.43221 0.25709 0.23003
 H1231 H 0.43006 0.16080 0.18791
 H1232 H 0.46353 0.18020 0.20921
 C1233 C -0.06170 0.66562 0.19732
 C1234 C -0.08241 0.67783 0.18860
 C1235 C -0.08356 0.70235 0.19117
 C1236 C -0.06522 0.71473 0.20289
 C1237 C -0.04518 0.70304 0.21278
 C1238 C -0.04300 0.67827 0.20971
 C1239 C -0.05870 0.64128 0.19320
 C1240 C -0.03814 0.62949 0.20157
 C1241 C -0.02003 0.64173 0.21384
 C1242 C -0.02226 0.66587 0.21778
 H1243 H -0.07185 0.63120 0.18306
 H1244 H -0.03610 0.61081 0.19827
 H1245 H -0.00399 0.63251 0.22005
 H1246 H -0.00731 0.67465 0.22669
 H1247 H -0.09913 0.71194 0.18439
 H1248 H -0.06705 0.73364 0.20473
 C1249 C -0.08909 0.18754 0.72088
 C1250 C -0.08895 0.18891 0.69546
 C1251 C -0.07124 0.20324 0.68431
 C1252 C -0.05315 0.21458 0.69736
 C1253 C -0.05152 0.21197 0.72220
 C1254 C -0.06944 0.19773 0.73425
 C1255 C -0.10935 0.17797 0.73349
 C1256 C -0.10867 0.17482 0.75806
 C1257 C -0.08831 0.18205 0.77076
 C1258 C -0.06924 0.19396 0.75926
 H1259 H -0.12627 0.17345 0.72469
 H1260 H -0.12409 0.16683 0.76729
 H1261 H -0.08765 0.17916 0.78983
 H1262 H -0.05475 0.19987 0.77064
 H1263 H -0.07066 0.20496 0.66510
 H1264 H -0.03987 0.22527 0.68770
 C1265 C 0.33000 0.43288 0.31658
 C1266 C 0.31611 0.41236 0.32214
 C1267 C 0.29115 0.41168 0.31675
 C1268 C 0.28006 0.43040 0.30500
 C1269 C 0.29359 0.45043 0.29823
 C1270 C 0.31867 0.45211 0.30451
 C1271 C 0.35472 0.43497 0.32339
 C1272 C 0.36812 0.45538 0.31813
 C1273 C 0.35710 0.47417 0.30639
 C1274 C 0.33259 0.47272 0.29976
 H1275 H 0.36379 0.42111 0.33319
 H1276 H 0.38709 0.45674 0.32346
 H1277 H 0.36753 0.49009 0.30264
 H1278 H 0.32464 0.48804 0.29137
 H1279 H 0.28035 0.39614 0.32107
 H1280 H 0.26088 0.42889 0.30040
 C1281 C 0.32866 -0.06459 0.80819
 C1282 C 0.31472 -0.08248 0.82009
 C1283 C 0.28915 -0.08041 0.82066
 C1284 C 0.27733 -0.06285 0.80790
 C1285 C 0.29044 -0.04636 0.79415
 C1286 C 0.31651 -0.04668 0.79472
 C1287 C 0.35430 -0.06296 0.81102
 C1288 C 0.36790 -0.04544 0.79948
 C1289 C 0.35627 -0.02868 0.78552
 C1290 C 0.33091 -0.02902 0.78334
 H1291 H 0.36410 -0.07456 0.82290
 H1292 H 0.38753 -0.04457 0.80178
 H1293 H 0.36689 -0.01485 0.77691
 H1294 H 0.32307 -0.01466 0.77341
 H1295 H 0.27790 -0.09345 0.82975
 H1296 H 0.25751 -0.06274 0.80811
 C1297 C 0.77509 0.40867 0.79860
 C1298 C 0.80097 0.41005 0.80146
 C1299 C 0.81385 0.42849 0.79012
 C1300 C 0.80164 0.44650 0.77830
 C1301 C 0.77609 0.44663 0.77694
 C1302 C 0.76255 0.42721 0.78649
 C1303 C 0.76166 0.38826 0.80544
 C1304 C 0.73648 0.38683 0.80206
 C1305 C 0.72418 0.40520 0.79105
 C1306 C 0.73702 0.42502 0.78299
 H1307 H 0.77044 0.37273 0.81244
 H1308 H 0.72655 0.37109 0.80751
 H1309 H 0.70468 0.40379 0.78806
 H1310 H 0.72666 0.43804 0.77336
 H1311 H 0.83356 0.42971 0.79155
 H1312 H 0.81231 0.46084 0.77061
 C1313 C 0.78241 -0.09552 0.29960
 C1314 C 0.80833 -0.09585 0.30185
 C1315 C 0.82217 -0.07748 0.29157
 C1316 C 0.81093 -0.05795 0.28143
 C1317 C 0.78542 -0.05634 0.28047
 C1318 C 0.77087 -0.07571 0.28868
 C1319 C 0.76790 -0.11539 0.30592
 C1320 C 0.74268 -0.11538 0.30263
 C1321 C 0.73142 -0.09605 0.29223
 C1322 C 0.74528 -0.07657 0.28498
 H1323 H 0.77583 -0.13152 0.31251
 H1324 H 0.73188 -0.13073 0.30762
 H1325 H 0.71188 -0.09638 0.28918
 H1326 H 0.73565 -0.06280 0.27570
 H1327 H 0.84194 -0.07759 0.29266
 H1328 H 0.82235 -0.04370 0.27464
 C1329 C 0.32481 0.56611 0.68466
 C1330 C 0.31217 0.58763 0.68185
 C1331 C 0.28802 0.58938 0.68993
 C1332 C 0.27661 0.57052 0.70159
 C1333 C 0.28905 0.54936 0.70552
 C1334 C 0.31314 0.54680 0.69656
 C1335 C 0.34851 0.56314 0.67520
 C1336 C 0.36053 0.54165 0.67758
 C1337 C 0.34908 0.52273 0.68908
 C1338 C 0.32556 0.52519 0.69838
 H1339 H 0.35776 0.57715 0.66551
 H1340 H 0.37868 0.53957 0.67018
 H1341 H 0.35835 0.50600 0.69048
 H1342 H 0.31692 0.50996 0.70646
 H1343 H 0.27816 0.60573 0.68765
 H1344 H 0.25809 0.57264 0.70811
 C1345 C 0.31994 1.06300 0.18773
 C1346 C 0.30661 1.08191 0.17728
 C1347 C 0.28092 1.08071 0.17753
 C1348 C 0.26857 1.06311 0.19019
 C1349 C 0.28134 1.04572 0.20271
 C1350 C 0.30721 1.04481 0.20054
 C1351 C 0.34541 1.06072 0.18407
 C1352 C 0.35820 1.04183 0.19380
 C1353 C 0.34588 1.02439 0.20666
 C1354 C 0.32064 1.02560 0.20976
 H1355 H 0.35561 1.07287 0.17288
 H1356 H 0.37770 1.04043 0.19085
 H1357 H 0.35584 1.00949 0.21373
 H1358 H 0.31185 1.01085 0.21865
 H1359 H 0.27020 1.09454 0.16939
 H1360 H 0.24879 1.06375 0.19109
 C1361 C 0.77743 0.58855 0.20390
 C1362 C 0.80178 0.58451 0.19631
 C1363 C 0.81279 0.56288 0.20142
 C1364 C 0.79986 0.54497 0.21311
 C1365 C 0.77543 0.54808 0.21985
 C1366 C 0.76401 0.57011 0.21553
 C1367 C 0.76647 0.61086 0.20109
 C1368 C 0.74268 0.61479 0.20904
 C1369 C 0.72946 0.59675 0.22012
 C1370 C 0.73994 0.57465 0.22343
 H1371 H 0.77629 0.62561 0.19328
 H1372 H 0.73455 0.63201 0.20682
 H1373 H 0.71109 0.59999 0.22651
 H1374 H 0.72912 0.56150 0.23274
 H1375 H 0.83152 0.55980 0.19601
 H1376 H 0.80893 0.52840 0.21669
 C1377 C 0.78649 1.08917 0.69698
 C1378 C 0.81091 1.08495 0.68962
 C1379 C 0.82238 1.06404 0.69649
 C1380 C 0.80989 1.04697 0.70973
 C1381 C 0.78543 1.05015 0.71629
 C1382 C 0.77353 1.07150 0.71022
 C1383 C 0.77500 1.11092 0.69235
 C1384 C 0.75108 1.11491 0.69992
 C1385 C 0.73832 1.09757 0.71258
 C1386 C 0.74941 1.07612 0.71790
 H1387 H 0.78442 1.12523 0.68334
 H1388 H 0.74251 1.13168 0.69621
 H1389 H 0.71986 1.10088 0.71863
 H1390 H 0.73906 1.06351 0.72845
 H1391 H 0.84118 1.06092 0.69137
 H1392 H 0.81933 1.03094 0.71459
 C1393 C 0.71320 0.59385 0.30191
 C1394 C 0.68911 0.59177 0.31103
 C1395 C 0.67626 0.57049 0.30864
 C1396 C 0.68719 0.55103 0.29810
 C1397 C 0.71135 0.55230 0.28984
 C1398 C 0.72458 0.57388 0.29149
 C1399 C 0.72584 0.61565 0.30208
 C1400 C 0.74935 0.61765 0.29256
 C1401 C 0.76065 0.59809 0.28267
 C1402 C 0.74849 0.57640 0.28211
 H1403 H 0.71755 0.63143 0.30906
 H1404 H 0.75877 0.63451 0.29267
 H1405 H 0.77882 0.59978 0.27511
 H1406 H 0.75785 0.56190 0.27380
 H1407 H 0.65766 0.56897 0.31519
 H1408 H 0.67678 0.53477 0.29655
 C1409 C 0.67809 1.06342 0.80436
 C1410 C 0.69229 1.08176 0.81491
 C1411 C 0.71786 1.07963 0.81512
 C1412 C 0.72944 1.06160 0.80288
 C1413 C 0.71598 1.04456 0.79045
 C1414 C 0.69002 1.04466 0.79212
 C1415 C 0.65244 1.06221 0.80746
 C1416 C 0.63876 1.04382 0.79775
 C1417 C 0.65031 1.02579 0.78555
 C1418 C 0.67566 1.02591 0.78305
 H1419 H 0.64272 1.07483 0.81821
 H1420 H 0.61913 1.04325 0.80027
 H1421 H 0.63963 1.01125 0.77855
 H1422 H 0.68370 1.01067 0.77477
 H1423 H 0.72918 1.09303 0.82334
 H1424 H 0.74925 1.06154 0.80236
 C1425 C 0.18056 0.56398 0.79700
 C1426 C 0.19387 0.58425 0.80474
 C1427 C 0.21923 0.58523 0.80071
 C1428 C 0.23101 0.56795 0.78763
 C1429 C 0.21807 0.54873 0.77838
 C1430 C 0.19275 0.54614 0.78364
 C1431 C 0.15604 0.55993 0.80410
 C1432 C 0.14346 0.53965 0.79717
 C1433 C 0.15516 0.52259 0.78372
 C1434 C 0.17959 0.52556 0.77724
 H1435 H 0.14655 0.57176 0.81589
 H1436 H 0.12468 0.53691 0.80276
 H1437 H 0.14542 0.50666 0.77880
 H1438 H 0.18806 0.51116 0.76789
 H1439 H 0.22993 0.60022 0.80662
 H1440 H 0.25045 0.56990 0.78427
 C1441 C 0.19633 1.09724 0.27346
 C1442 C 0.19202 1.09612 0.29857
 C1443 C 0.20048 1.07642 0.31134
 C1444 C 0.21081 1.05730 0.29973
 C1445 C 0.21331 1.05715 0.27494
 C1446 C 0.20666 1.07743 0.26156
 C1447 C 0.19284 1.11829 0.26025
 C1448 C 0.19746 1.11924 0.23583
 C1449 C 0.20651 1.09964 0.22411
 C1450 C 0.21147 1.07906 0.23680
 H1451 H 0.18762 1.13459 0.26864
 H1452 H 0.19453 1.13549 0.22604
 H1453 H 0.21044 1.10060 0.20520
 H1454 H 0.21978 1.06486 0.22704
 H1455 H 0.19791 1.07521 0.33045
 H1456 H 0.21634 1.04216 0.31023
 C1457 C 0.68988 0.43556 0.66834
 C1458 C 0.68343 0.41445 0.68052
 C1459 C 0.68822 0.41232 0.70491
 C1460 C 0.70011 0.43028 0.71715
 C1461 C 0.70768 0.45092 0.70535
 C1462 C 0.70209 0.45401 0.68085
 C1463 C 0.68373 0.43899 0.64418
 C1464 C 0.68962 0.46008 0.63252
 C1465 C 0.70141 0.47817 0.64472
 C1466 C 0.70752 0.47531 0.66867
 H1467 H 0.67395 0.42566 0.63423
 H1468 H 0.68474 0.46250 0.61399
 H1469 H 0.70564 0.49461 0.63564
 H1470 H 0.71604 0.49009 0.67756
 H1471 H 0.68314 0.39631 0.71439
 H1472 H 0.70394 0.42780 0.73593
 C1473 C 0.72062 -0.09293 0.20004
 C1474 C 0.69805 -0.08881 0.18853
 C1475 C 0.68733 -0.06650 0.18985
 C1476 C 0.69902 -0.04806 0.20173
 C1477 C 0.72189 -0.05139 0.21230
 C1478 C 0.73287 -0.07398 0.21164
 C1479 C 0.73087 -0.11570 0.20096
 C1480 C 0.75303 -0.11958 0.21249
 C1481 C 0.76533 -0.10097 0.22334
 C1482 C 0.75543 -0.07840 0.22293
 H1483 H 0.72170 -0.13078 0.19326
 H1484 H 0.76065 -0.13714 0.21311
 H1485 H 0.78251 -0.10406 0.23232
 H1486 H 0.76550 -0.06460 0.23174
 H1487 H 0.66988 -0.06337 0.18139
 H1488 H 0.69031 -0.03097 0.20242
 C1489 C 0.22685 0.40498 0.20895
 C1490 C 0.20314 0.40912 0.19976
 C1491 C 0.19205 0.43095 0.20352
 C1492 C 0.20421 0.44885 0.21563
 C1493 C 0.22794 0.44553 0.22418
 C1494 C 0.23945 0.42340 0.22115
 C1495 C 0.23792 0.38266 0.20712
 C1496 C 0.26107 0.37871 0.21663
 C1497 C 0.27345 0.39673 0.22838
 C1498 C 0.26278 0.41884 0.23080
 H1499 H 0.22869 0.36795 0.19879
 H1500 H 0.26933 0.36149 0.21509
 H1501 H 0.29131 0.39347 0.23593
 H1502 H 0.27282 0.43210 0.24060
 H1503 H 0.17384 0.43417 0.19676
 H1504 H 0.19512 0.46559 0.21810
 C1505 C 0.22307 -0.09144 0.70314
 C1506 C 0.19719 -0.09110 0.69986
 C1507 C 0.18377 -0.07276 0.71023
 C1508 C 0.19538 -0.05407 0.72161
 C1509 C 0.22086 -0.05304 0.72342
 C1510 C 0.23498 -0.07213 0.71474
 C1511 C 0.23710 -0.11148 0.69729
 C1512 C 0.26227 -0.11182 0.70096
 C1513 C 0.27395 -0.09269 0.71142
 C1514 C 0.26051 -0.07323 0.71865
 H1515 H 0.22882 -0.12755 0.69084
 H1516 H 0.27267 -0.12727 0.69622
 H1517 H 0.29345 -0.09324 0.71464
 H1518 H 0.27037 -0.05960 0.72800
 H1519 H 0.16407 -0.07221 0.70845
 H1520 H 0.18429 -0.03994 0.72865
 C1521 C 0.28042 0.29515 0.41288
 C1522 C 0.30476 0.30266 0.41708
 C1523 C 0.31584 0.29755 0.43890
 C1524 C 0.30299 0.28568 0.45684
 C1525 C 0.27860 0.27875 0.45350
 C1526 C 0.26712 0.28322 0.43126
 C1527 C 0.26937 0.29848 0.39043
 C1528 C 0.24561 0.29049 0.38624
 C1529 C 0.23253 0.27892 0.40418
 C1530 C 0.24310 0.27523 0.42646
 H1531 H 0.27907 0.30687 0.37582
 H1532 H 0.23739 0.29309 0.36891
 H1533 H 0.21417 0.27253 0.40075
 H1534 H 0.23238 0.26566 0.43955
 H1535 H 0.33459 0.30295 0.44204
 H1536 H 0.31209 0.28199 0.47356
 C1537 C 0.28018 0.79868 -0.09056
 C1538 C 0.30432 0.80698 -0.08695
 C1539 C 0.31608 0.80250 -0.06534
 C1540 C 0.30409 0.79034 -0.04705
 C1541 C 0.27995 0.78245 -0.04985
 C1542 C 0.26779 0.78634 -0.07186
 C1543 C 0.26848 0.80163 -0.11273
 C1544 C 0.24497 0.79274 -0.11642
 C1545 C 0.23281 0.78063 -0.09823
 C1546 C 0.24403 0.77737 -0.07619
 H1547 H 0.27750 0.81045 -0.12752
 H1548 H 0.23624 0.79505 -0.13355
 H1549 H 0.21467 0.77352 -0.10127
 H1550 H 0.23403 0.76734 -0.06291
 H1551 H 0.33471 0.80853 -0.06270
 H1552 H 0.31373 0.78711 -0.03052
 C1553 C 0.77800 0.30471 -0.09461
 C1554 C 0.80166 0.31430 -0.09073
 C1555 C 0.81334 0.31037 -0.06895
 C1556 C 0.80178 0.29771 -0.05079
 C1557 C 0.77809 0.28872 -0.05381
 C1558 C 0.76602 0.29192 -0.07593
 C1559 C 0.76641 0.30668 -0.11696
 C1560 C 0.74334 0.29676 -0.12067
 C1561 C 0.73157 0.28439 -0.10241
 C1562 C 0.74278 0.28179 -0.08029
 H1563 H 0.77515 0.31543 -0.13191
 H1564 H 0.73467 0.29843 -0.13791
 H1565 H 0.71379 0.27647 -0.10551
 H1566 H 0.73324 0.27144 -0.06690
 H1567 H 0.83160 0.31727 -0.06605
 H1568 H 0.81136 0.29508 -0.03415
 C1569 C 0.80825 0.82464 0.43389
 C1570 C 0.81476 0.81172 0.41326
 C1571 C 0.80931 0.78759 0.41219
 C1572 C 0.79666 0.77635 0.43056
 C1573 C 0.78892 0.78889 0.45059
 C1574 C 0.79514 0.81314 0.45274
 C1575 C 0.81519 0.84851 0.43656
 C1576 C 0.80899 0.86090 0.45709
 C1577 C 0.79622 0.84971 0.47548
 C1578 C 0.78944 0.82604 0.47349
 H1579 H 0.82584 0.85770 0.42312
 H1580 H 0.81441 0.87922 0.45887
 H1581 H 0.79176 0.85935 0.49149
 H1582 H 0.78018 0.81796 0.48854
 H1583 H 0.81434 0.77749 0.39662
 H1584 H 0.79232 0.75775 0.42884
 C1585 C 0.71821 0.29545 0.59213
 C1586 C 0.69415 0.30341 0.58775
 C1587 C 0.68298 0.29845 0.56594
 C1588 C 0.69547 0.28638 0.54820
 C1589 C 0.71957 0.27903 0.55173
 C1590 C 0.73115 0.28332 0.57390
 C1591 C 0.72935 0.29854 0.61455
 C1592 C 0.75288 0.29022 0.61880
 C1593 C 0.76563 0.27856 0.60095
 C1594 C 0.75494 0.27505 0.57871
 H1595 H 0.71989 0.30696 0.62911
 H1596 H 0.76118 0.29266 0.63611
 H1597 H 0.78380 0.27196 0.60443
 H1598 H 0.76535 0.26545 0.56561
 H1599 H 0.66448 0.30426 0.56260
 H1600 H 0.68636 0.28302 0.53142
 C1601 C 0.72596 0.79626 1.09232
 C1602 C 0.70223 0.80549 1.08881
 C1603 C 0.69031 0.80172 1.06712
 C1604 C 0.70163 0.78945 1.04877
 C1605 C 0.72538 0.78082 1.05144
 C1606 C 0.73779 0.78405 1.07340
 C1607 C 0.73776 0.79803 1.11457
 C1608 C 0.76089 0.78843 1.11800
 C1609 C 0.77259 0.77679 1.09948
 C1610 C 0.76124 0.77454 1.07739
 H1611 H 0.72911 0.80636 1.12965
 H1612 H 0.76968 0.78985 1.13520
 H1613 H 0.79045 0.76918 1.10232
 H1614 H 0.77084 0.76486 1.06378
 H1615 H 0.67204 0.80845 1.06442
 H1616 H 0.69183 0.78680 1.03223
 C1617 C 0.19891 0.28801 1.09300
 C1618 C 0.19477 0.31260 1.09132
 C1619 C 0.20268 0.32502 1.07106
 C1620 C 0.21379 0.31338 1.05216
 C1621 C 0.21712 0.28891 1.05286
 C1622 C 0.21000 0.27599 1.07356
 C1623 C 0.19311 0.27526 1.11399
 C1624 C 0.19758 0.25113 1.11562
 C1625 C 0.20822 0.23933 1.09660
 C1626 C 0.21453 0.25158 1.07583
 H1627 H 0.18556 0.28379 1.12951
 H1628 H 0.19303 0.24160 1.13183
 H1629 H 0.21190 0.22064 1.09806
 H1630 H 0.22334 0.24176 1.06186
 H1631 H 0.19990 0.34388 1.06984
 H1632 H 0.21946 0.32352 1.03664
 C1633 C 0.21901 0.80438 0.59403
 C1634 C 0.19516 0.81365 0.59142
 C1635 C 0.18300 0.81123 0.56965
 C1636 C 0.19427 0.80043 0.55032
 C1637 C 0.21819 0.79204 0.55211
 C1638 C 0.23080 0.79383 0.57412
 C1639 C 0.23098 0.80450 0.61629
 C1640 C 0.25431 0.79506 0.61872
 C1641 C 0.26605 0.78518 0.59919
 C1642 C 0.25448 0.78449 0.57711
 H1643 H 0.22232 0.81135 0.63211
 H1644 H 0.26325 0.79523 0.63591
 H1645 H 0.28409 0.77772 0.60122
 H1646 H 0.26415 0.77616 0.56266
 H1647 H 0.16463 0.81795 0.56764
 H1648 H 0.18433 0.79882 0.53373
 C1649 C 0.28160 0.70569 0.59066
 C1650 C 0.30582 0.69789 0.58682
 C1651 C 0.31756 0.70295 0.56519
 C1652 C 0.30543 0.71491 0.54705
 C1653 C 0.28114 0.72199 0.54998
 C1654 C 0.26904 0.71770 0.57205
 C1655 C 0.26996 0.70258 0.61296
 C1656 C 0.24632 0.71082 0.61676
 C1657 C 0.23394 0.72241 0.59857
 C1658 C 0.24511 0.72589 0.57644
 H1659 H 0.27911 0.69423 0.62778
 H1660 H 0.23765 0.70839 0.63398
 H1661 H 0.21569 0.72900 0.60171
 H1662 H 0.23495 0.73551 0.56314
 H1663 H 0.33621 0.69733 0.56232
 H1664 H 0.31500 0.71842 0.53043
 C1665 C 0.32073 0.19795 1.05998
 C1666 C 0.30708 0.18977 1.07994
 C1667 C 0.28188 0.19374 1.08084
 C1668 C 0.27031 0.20668 1.06308
 C1669 C 0.28362 0.21638 1.04396
 C1670 C 0.30897 0.21148 1.04188
 C1671 C 0.34564 0.19223 1.05720
 C1672 C 0.35882 0.20001 1.03731
 C1673 C 0.34743 0.21331 1.01970
 C1674 C 0.32274 0.21889 1.02180
 H1675 H 0.35503 0.18125 1.06999
 H1676 H 0.37790 0.19543 1.03538
 H1677 H 0.35769 0.21904 1.00415
 H1678 H 0.31457 0.22854 1.00725
 H1679 H 0.27119 0.18727 1.09583
 H1680 H 0.25087 0.20972 1.06469
 C1681 C 0.78582 0.69366 1.09334
 C1682 C 0.80884 0.68307 1.08934
 C1683 C 0.82021 0.68552 1.06708
 C1684 C 0.80880 0.69757 1.04854
 C1685 C 0.78552 0.70719 1.05165
 C1686 C 0.77384 0.70550 1.07425
 C1687 C 0.77489 0.69356 1.11618
 C1688 C 0.75239 0.70434 1.12000
 C1689 C 0.74045 0.71550 1.10127
 C1690 C 0.75099 0.71614 1.07862
 H1691 H 0.78379 0.68569 1.13141
 H1692 H 0.74429 0.70420 1.13763
 H1693 H 0.72308 0.72400 1.10438
 H1694 H 0.74127 0.72549 1.06482
 H1695 H 0.83799 0.67780 1.06405
 H1696 H 0.81808 0.69913 1.03150
 C1697 C 0.78842 0.19474 0.59170
 C1698 C 0.81265 0.18711 0.58751
 C1699 C 0.82398 0.19216 0.56567
 C1700 C 0.81139 0.20383 0.54762
 C1701 C 0.78703 0.21058 0.55086
 C1702 C 0.77539 0.20642 0.57318
 C1703 C 0.77720 0.19172 0.61421
 C1704 C 0.75350 0.19967 0.61830
 C1705 C 0.74067 0.21094 0.60021
 C1706 C 0.75144 0.21440 0.57789
 H1707 H 0.78673 0.18367 0.62897
 H1708 H 0.74514 0.19728 0.63567
 H1709 H 0.72237 0.21729 0.60356
 H1710 H 0.74096 0.22379 0.56467
 H1711 H 0.84263 0.18667 0.56253
 H1712 H 0.82061 0.20727 0.53081
 C1713 C 0.69097 0.68482 0.43571
 C1714 C 0.68938 0.69529 0.41282
 C1715 C 0.69973 0.71760 0.40873
 C1716 C 0.71225 0.72933 0.42674
 C1717 C 0.71489 0.71899 0.44927
 C1718 C 0.70399 0.69667 0.45410
 C1719 C 0.67924 0.66313 0.44088
 C1720 C 0.68049 0.65322 0.46365
 C1721 C 0.69335 0.66469 0.48162
 C1722 C 0.70506 0.68619 0.47697
 H1723 H 0.66867 0.65389 0.42755
 H1724 H 0.67130 0.63662 0.46742
 H1725 H 0.69411 0.65697 0.49929
 H1726 H 0.71458 0.69461 0.49151
 H1727 H 0.69837 0.72577 0.39130
 H1728 H 0.72031 0.74647 0.42294
 C1729 C 0.67979 0.19374 -0.06702
 C1730 C 0.69426 0.18806 -0.08713
 C1731 C 0.71924 0.19347 -0.08717
 C1732 C 0.72981 0.20548 -0.06821
 C1733 C 0.71569 0.21246 -0.04862
 C1734 C 0.69057 0.20601 -0.04754
 C1735 C 0.65499 0.18686 -0.06559
 C1736 C 0.64099 0.19215 -0.04553
 C1737 C 0.65149 0.20403 -0.02644
 C1738 C 0.67605 0.21078 -0.02727
 H1739 H 0.64631 0.17697 -0.07970
 H1740 H 0.62198 0.18673 -0.04466
 H1741 H 0.64062 0.20778 -0.01078
 H1742 H 0.68355 0.21925 -0.01169
 H1743 H 0.73045 0.18896 -0.10241
 H1744 H 0.74905 0.21011 -0.06923
 C1745 C 0.22333 0.69834 -0.09737
 C1746 C 0.19951 0.68854 -0.09558
 C1747 C 0.18664 0.68996 -0.07406
 C1748 C 0.19714 0.70050 -0.05419
 C1749 C 0.22094 0.70970 -0.05523
 C1750 C 0.23426 0.70889 -0.07698
 C1751 C 0.23611 0.69872 -0.11926
 C1752 C 0.25929 0.70904 -0.12099
 C1753 C 0.27006 0.71924 -0.10108
 C1754 C 0.25775 0.71924 -0.07928
 H1755 H 0.22819 0.69151 -0.13529
 H1756 H 0.26884 0.70931 -0.13792
 H1757 H 0.28795 0.72744 -0.10259
 H1758 H 0.26668 0.72783 -0.06452
 H1759 H 0.16830 0.68272 -0.07269
 H1760 H 0.18664 0.70138 -0.03781
 C1761 C 0.21533 0.19743 0.40604
 C1762 C 0.19090 0.18917 0.40802
 C1763 C 0.17820 0.19185 0.42950
 C1764 C 0.18950 0.20200 0.44919
 C1765 C 0.21393 0.20954 0.44801
 C1766 C 0.22707 0.20750 0.42625
 C1767 C 0.22801 0.19676 0.38410
 C1768 C 0.25187 0.20541 0.38219
 C1769 C 0.26346 0.21503 0.40195
 C1770 C 0.25126 0.21616 0.42377
 H1771 H 0.21952 0.19003 0.36812
 H1772 H 0.26134 0.20484 0.36523
 H1773 H 0.28191 0.22193 0.40031
 H1774 H 0.26085 0.22431 0.43839
 H1775 H 0.15938 0.18593 0.43097
 H1776 H 0.17914 0.20383 0.46556
 C1777 C 0.32609 0.42655 0.69775
 C1778 C 0.31052 0.40850 0.68889
 C1779 C 0.28517 0.41129 0.69038
 C1780 C 0.27509 0.43098 0.70115
 C1781 C 0.28993 0.44839 0.71149
 C1782 C 0.31584 0.44619 0.71001
 C1783 C 0.35162 0.42583 0.69404
 C1784 C 0.36695 0.44302 0.70362
 C1785 C 0.35718 0.46142 0.71673
 C1786 C 0.33196 0.46322 0.71972
 H1787 H 0.35998 0.41235 0.68328
 H1788 H 0.38651 0.44211 0.70077
 H1789 H 0.36920 0.47468 0.72422
 H1790 H 0.32561 0.47821 0.72956
 H1791 H 0.27302 0.39775 0.68361
 H1792 H 0.25534 0.43222 0.70210
 C1793 C 0.27144 0.90554 0.20124
 C1794 C 0.29579 0.90757 0.19271
 C1795 C 0.30858 0.92885 0.19541
 C1796 C 0.29743 0.94832 0.20566
 C1797 C 0.27303 0.94715 0.21321
 C1798 C 0.25980 0.92559 0.21127
 C1799 C 0.25877 0.88376 0.20089
 C1800 C 0.23495 0.88189 0.20967
 C1801 C 0.22339 0.90153 0.21909
 C1802 C 0.23562 0.92317 0.21997
 H1803 H 0.26724 0.86788 0.19439
 H1804 H 0.22548 0.86505 0.20935
 H1805 H 0.20498 0.89992 0.22608
 H1806 H 0.22606 0.93770 0.22804
 H1807 H 0.32731 0.93041 0.18925
 H1808 H 0.30782 0.96458 0.20738
 C1809 C 0.77007 0.40649 0.20467
 C1810 C 0.79459 0.40956 0.19699
 C1811 C 0.80717 0.43040 0.20247
 C1812 C 0.79565 0.44849 0.21472
 C1813 C 0.77116 0.44627 0.22178
 C1814 C 0.75819 0.42501 0.21716
 C1815 C 0.75741 0.38504 0.20098
 C1816 C 0.73346 0.38201 0.20910
 C1817 C 0.72183 0.40007 0.22131
 C1818 C 0.73404 0.42132 0.22550
 H1819 H 0.76597 0.37030 0.19223
 H1820 H 0.72397 0.36546 0.20617
 H1821 H 0.70334 0.39750 0.22783
 H1822 H 0.72449 0.43453 0.23567
 H1823 H 0.82604 0.43270 0.19695
 H1824 H 0.80584 0.46452 0.21843
 C1825 C 0.82491 0.93415 0.69589
 C1826 C 0.81141 0.91332 0.69085
 C1827 C 0.78662 0.91200 0.69700
 C1828 C 0.77525 0.93053 0.70869
 C1829 C 0.78836 0.95095 0.71472
 C1830 C 0.81333 0.95309 0.70804
 C1831 C 0.84945 0.93687 0.68845
 C1832 C 0.86245 0.95755 0.69326
 C1833 C 0.85118 0.97602 0.70516
 C1834 C 0.82685 0.97395 0.71238
 H1835 H 0.85871 0.92332 0.67849
 H1836 H 0.88127 0.95938 0.68747
 H1837 H 0.86126 0.99216 0.70856
 H1838 H 0.81871 0.98897 0.72099
 H1839 H 0.77614 0.89620 0.69313
 H1840 H 0.75617 0.92865 0.71366
 C1841 C 0.67336 0.56389 0.68620
 C1842 C 0.68632 0.58523 0.68203
 C1843 C 0.71092 0.58704 0.68857
 C1844 C 0.72252 0.56846 0.70010
 C1845 C 0.70983 0.54752 0.70539
 C1846 C 0.68521 0.54479 0.69792
 C1847 C 0.64908 0.56092 0.67833
 C1848 C 0.63668 0.53961 0.68199
 C1849 C 0.64827 0.52087 0.69329
 C1850 C 0.67232 0.52331 0.70114
 H1851 H 0.63964 0.57484 0.66894
 H1852 H 0.61807 0.53755 0.67579
 H1853 H 0.63864 0.50428 0.69580
 H1854 H 0.68076 0.50809 0.70927
 H1855 H 0.72098 0.60326 0.68520
 H1856 H 0.74138 0.57069 0.70557
 C1857 C 0.72316 0.09256 0.20142
 C1858 C 0.69880 0.08932 0.19343
 C1859 C 0.68690 0.06774 0.19755
 C1860 C 0.69892 0.04917 0.20874
 C1861 C 0.72328 0.05158 0.21600
 C1862 C 0.73557 0.07350 0.21269
 C1863 C 0.73512 0.11462 0.19926
 C1864 C 0.75894 0.11772 0.20751
 C1865 C 0.77113 0.09911 0.21838
 C1866 C 0.75959 0.07725 0.22115
 H1867 H 0.72611 0.12978 0.19165
 H1868 H 0.76789 0.13474 0.20571
 H1869 H 0.78953 0.10171 0.22497
 H1870 H 0.76956 0.06356 0.23031
 H1871 H 0.66820 0.06522 0.19174
 H1872 H 0.68922 0.03262 0.21147
 C1873 C 0.22700 0.58736 0.20479
 C1874 C 0.20262 0.58375 0.19717
 C1875 C 0.19071 0.56239 0.20229
 C1876 C 0.20279 0.54433 0.21421
 C1877 C 0.22721 0.54706 0.22118
 C1878 C 0.23954 0.56882 0.21671
 C1879 C 0.23880 0.60939 0.20165
 C1880 C 0.26259 0.61301 0.20976
 C1881 C 0.27499 0.59488 0.22119
 C1882 C 0.26367 0.57301 0.22470
 H1883 H 0.22966 0.62415 0.19340
 H1884 H 0.27136 0.63005 0.20736
 H1885 H 0.29338 0.59786 0.22764
 H1886 H 0.27390 0.55977 0.23421
 H1887 H 0.17191 0.55973 0.19686
 H1888 H 0.19306 0.52798 0.21789
 C1889 C 0.21519 0.09039 0.70656
 C1890 C 0.19066 0.08639 0.69960
 C1891 C 0.17911 0.06504 0.70552
 C1892 C 0.19176 0.04728 0.71741
 C1893 C 0.21635 0.05038 0.72366
 C1894 C 0.22819 0.07228 0.71871
 C1895 C 0.22678 0.11237 0.70240
 C1896 C 0.25073 0.11639 0.70985
 C1897 C 0.26345 0.09879 0.72179
 C1898 C 0.25235 0.07699 0.72633
 H1899 H 0.21735 0.12676 0.69378
 H1900 H 0.25936 0.13336 0.70660
 H1901 H 0.28193 0.10212 0.72782
 H1902 H 0.26278 0.06420 0.73627
 H1903 H 0.16023 0.06206 0.70054
 H1904 H 0.18240 0.03080 0.72138
 C1905 C 0.28717 0.59344 0.30373
 C1906 C 0.31090 0.59148 0.31354
 C1907 C 0.32347 0.57016 0.31171
 C1908 C 0.31262 0.55058 0.30107
 C1909 C 0.28874 0.55171 0.29226
 C1910 C 0.27581 0.57331 0.29332
 C1911 C 0.27490 0.61525 0.30319
 C1912 C 0.25168 0.61706 0.29320
 C1913 C 0.24035 0.59733 0.28342
 C1914 C 0.25224 0.57567 0.28338
 H1915 H 0.28327 0.63119 0.30995
 H1916 H 0.24250 0.63391 0.29287
 H1917 H 0.22239 0.59886 0.27553
 H1918 H 0.24293 0.56104 0.27504
 H1919 H 0.34180 0.56869 0.31878
 H1920 H 0.32283 0.53432 0.29993
 C1921 C 0.31585 0.06397 0.82167
 C1922 C 0.30721 0.08725 0.81876
 C1923 C 0.28652 0.09144 0.80480
 C1924 C 0.27483 0.07301 0.79299
 C1925 C 0.28350 0.04994 0.79499
 C1926 C 0.30378 0.04510 0.80980
 C1927 C 0.33590 0.05900 0.83656
 C1928 C 0.34395 0.03588 0.83958
 C1929 C 0.33203 0.01737 0.82811
 C1930 C 0.31204 0.02187 0.81344
 H1931 H 0.34528 0.07283 0.84620
 H1932 H 0.35934 0.03228 0.85108
 H1933 H 0.33816 -0.00056 0.83076
 H1934 H 0.30287 0.00705 0.80530
 H1935 H 0.27979 0.10924 0.80262
 H1936 H 0.25917 0.07684 0.78188
 C1937 C 0.77827 0.58991 0.79266
 C1938 C 0.80217 0.58596 0.80142
 C1939 C 0.81361 0.56443 0.79697
 C1940 C 0.80146 0.54649 0.78483
 C1941 C 0.77745 0.54955 0.77690
 C1942 C 0.76572 0.57152 0.78039
 C1943 C 0.76693 0.61207 0.79502
 C1944 C 0.74360 0.61590 0.78591
 C1945 C 0.73128 0.59793 0.77404
 C1946 C 0.74220 0.57599 0.77113
 H1947 H 0.77610 0.62677 0.80342
 H1948 H 0.73516 0.63300 0.78781
 H1949 H 0.71328 0.60110 0.76676
 H1950 H 0.73218 0.56284 0.76119
 H1951 H 0.83203 0.56145 0.80327
 H1952 H 0.81074 0.52993 0.78192
 C1953 C 0.82896 0.05999 0.30643
 C1954 C 0.81620 0.08077 0.31253
 C1955 C 0.79134 0.08261 0.30700
 C1956 C 0.77925 0.06472 0.29478
 C1957 C 0.79167 0.04444 0.28761
 C1958 C 0.81662 0.04165 0.29385
 C1959 C 0.85351 0.05674 0.31325
 C1960 C 0.86577 0.03605 0.30752
 C1961 C 0.85377 0.01812 0.29526
 C1962 C 0.82940 0.02073 0.28860
 H1963 H 0.86330 0.06988 0.32343
 H1964 H 0.88460 0.03378 0.31289
 H1965 H 0.86331 0.00198 0.29114
 H1966 H 0.82065 0.00602 0.27980
 H1967 H 0.78141 0.09838 0.31170
 H1968 H 0.76017 0.06705 0.29026
 C1969 C 0.66813 0.43305 0.31264
 C1970 C 0.68190 0.41285 0.31883
 C1971 C 0.70701 0.41255 0.31405
 C1972 C 0.71843 0.43134 0.30235
 C1973 C 0.70508 0.45105 0.29498
 C1974 C 0.67978 0.45232 0.30056
 C1975 C 0.64320 0.43480 0.31887
 C1976 C 0.62991 0.45489 0.31300
 C1977 C 0.64122 0.47370 0.30121
 C1978 C 0.66594 0.47260 0.29518
 H1979 H 0.63388 0.42095 0.32872
 H1980 H 0.61079 0.45599 0.31790
 H1981 H 0.63087 0.48936 0.29699
 H1982 H 0.67408 0.48797 0.28677
 H1983 H 0.71773 0.39728 0.31889
 H1984 H 0.73778 0.43013 0.29832
 C1985 C 0.72085 0.90455 0.79962
 C1986 C 0.69743 0.90809 0.80982
 C1987 C 0.68591 0.92989 0.80699
 C1988 C 0.69751 0.94839 0.79494
 C1989 C 0.72106 0.94565 0.78559
 C1990 C 0.73289 0.92357 0.78759
 C1991 C 0.73219 0.88227 0.80034
 C1992 C 0.75512 0.87897 0.78998
 C1993 C 0.76702 0.89761 0.77847
 C1994 C 0.75604 0.91968 0.77712
 H1995 H 0.72333 0.86710 0.80842
 H1996 H 0.76359 0.86179 0.79069
 H1997 H 0.78472 0.89489 0.77029
 H1998 H 0.76571 0.93347 0.76750
 H1999 H 0.66787 0.93260 0.81444
 H2000 H 0.68819 0.96511 0.79321
 C2001 C 0.19411 0.44287 0.81742
 C2002 C 0.18908 0.42055 0.80726
 C2003 C 0.19670 0.41589 0.78393
 C2004 C 0.21000 0.43259 0.77091
 C2005 C 0.21614 0.45441 0.78089
 C2006 C 0.20777 0.45998 0.80414
 C2007 C 0.18512 0.44879 0.84018
 C2008 C 0.18966 0.47104 0.84978
 C2009 C 0.20297 0.48780 0.83683
 C2010 C 0.21190 0.48245 0.81421
 H2011 H 0.17417 0.43651 0.85056
 H2012 H 0.18260 0.47537 0.86725
 H2013 H 0.20620 0.50512 0.84427
 H2014 H 0.22165 0.49620 0.80463
 H2015 H 0.19269 0.39895 0.77597
 H2016 H 0.21599 0.42827 0.75303
 C2017 C 0.20909 0.91279 0.29813
 C2018 C 0.18496 0.91630 0.30656
 C2019 C 0.17320 0.93764 0.30178
 C2020 C 0.18526 0.95581 0.28956
 C2021 C 0.20960 0.95330 0.28221
 C2022 C 0.22173 0.93156 0.28628
 C2023 C 0.22058 0.89068 0.30045
 C2024 C 0.24428 0.88732 0.29200
 C2025 C 0.25688 0.90575 0.28092
 C2026 C 0.24579 0.92762 0.27796
 H2027 H 0.21124 0.87564 0.30827
 H2028 H 0.25283 0.87025 0.29389
 H2029 H 0.27523 0.90301 0.27424
 H2030 H 0.25614 0.94106 0.26862
 H2031 H 0.15460 0.94026 0.30781
 H2032 H 0.17564 0.97210 0.28610
 C2033 C 0.39999 0.27076 0.70824
 C2034 C 0.40190 0.29448 0.70030
 C2035 C 0.42375 0.30700 0.70382
 C2036 C 0.44389 0.29622 0.71421
 C2037 C 0.44286 0.27248 0.72117
 C2038 C 0.42073 0.25956 0.71848
 C2039 C 0.37765 0.25818 0.70703
 C2040 C 0.37596 0.23490 0.71508
 C2041 C 0.39631 0.22383 0.72472
 C2042 C 0.41846 0.23601 0.72654
 H2043 H 0.36118 0.26628 0.70040
 H2044 H 0.35871 0.22549 0.71406
 H2045 H 0.39484 0.20582 0.73113
 H2046 H 0.43361 0.22693 0.73463
 H2047 H 0.42532 0.32522 0.69803
 H2048 H 0.46061 0.30635 0.71637
 C2049 C 0.43041 0.81021 0.17813
 C2050 C 0.40797 0.81227 0.19054
 C2051 C 0.40612 0.80428 0.21413
 C2052 C 0.42579 0.79338 0.22521
 C2053 C 0.44786 0.79022 0.21299
 C2054 C 0.45058 0.79915 0.18948
 C2055 C 0.43346 0.81962 0.15497
 C2056 C 0.45590 0.81807 0.14321
 C2057 C 0.47568 0.80741 0.15436
 C2058 C 0.47314 0.79808 0.17730
 H2059 H 0.41877 0.82862 0.14594
 H2060 H 0.45804 0.82547 0.12549
 H2061 H 0.49314 0.80665 0.14529
 H2062 H 0.48905 0.79057 0.18565
 H2063 H 0.38905 0.80604 0.22378
 H2064 H 0.42359 0.78686 0.24329
 C2065 C 0.90042 0.28554 0.19885
 C2066 C 0.90229 0.30979 0.19286
 C2067 C 0.92361 0.32236 0.19840
 C2068 C 0.94336 0.31113 0.20902
 C2069 C 0.94243 0.28695 0.21421
 C2070 C 0.92073 0.27391 0.20942
 C2071 C 0.87845 0.27282 0.19538
 C2072 C 0.87663 0.24906 0.20177
 C2073 C 0.89650 0.23761 0.21188
 C2074 C 0.91833 0.24983 0.21575
 H2075 H 0.86234 0.28115 0.18821
 H2076 H 0.85964 0.23955 0.19907
 H2077 H 0.89490 0.21923 0.21704
 H2078 H 0.93296 0.24028 0.22422
 H2079 H 0.92501 0.34098 0.19414
 H2080 H 0.95969 0.32134 0.21291
 C2081 C 0.93643 0.81938 0.69648
 C2082 C 0.91399 0.80791 0.69124
 C2083 C 0.91072 0.78416 0.69752
 C2084 C 0.92894 0.77186 0.70944
 C2085 C 0.95087 0.78305 0.71573
 C2086 C 0.95499 0.80692 0.70900
 C2087 C 0.94117 0.84272 0.68878
 C2088 C 0.96348 0.85369 0.69368
 C2089 C 0.98155 0.84161 0.70603
 C2090 C 0.97747 0.81843 0.71358
 H2091 H 0.92796 0.85253 0.67851
 H2092 H 0.96687 0.87160 0.68764
 H2093 H 0.99894 0.85013 0.70955
 H2094 H 0.99226 0.80959 0.72261
 H2095 H 0.89367 0.77521 0.69344
 H2096 H 0.92573 0.75354 0.71417
 C2097 C 0.59192 0.27599 0.30220
 C2098 C 0.58787 0.29931 0.31023
 C2099 C 0.56545 0.31013 0.30566
 C2100 C 0.54683 0.29805 0.29396
 C2101 C 0.54996 0.27467 0.28671
 C2102 C 0.57271 0.26343 0.29059
 C2103 C 0.61498 0.26524 0.30460
 C2104 C 0.61887 0.24243 0.29630
 C2105 C 0.60005 0.23003 0.28526
 C2106 C 0.57721 0.24036 0.28232
 H2107 H 0.63034 0.27446 0.31238
 H2108 H 0.63666 0.23442 0.29823
 H2109 H 0.60325 0.21240 0.27866
 H2110 H 0.56340 0.23024 0.27310
 H2111 H 0.56234 0.32805 0.31146
 H2112 H 0.52968 0.30696 0.29073
 C2113 C 0.56432 0.80447 0.82689
 C2114 C 0.58618 0.81117 0.81490
 C2115 C 0.58850 0.80681 0.79047
 C2116 C 0.57006 0.79531 0.77801
 C2117 C 0.54876 0.78749 0.78959
 C2118 C 0.54548 0.79240 0.81417
 C2119 C 0.56039 0.81028 0.85101
 C2120 C 0.53864 0.80398 0.86250
 C2121 C 0.52031 0.79210 0.85017
 C2122 C 0.52352 0.78648 0.82620
 H2123 H 0.57378 0.82016 0.86107
 H2124 H 0.53587 0.80859 0.88101
 H2125 H 0.50335 0.78752 0.85913
 H2126 H 0.50846 0.77793 0.81720
 H2127 H 0.60501 0.81205 0.78106
 H2128 H 0.57273 0.79205 0.75919
 C2129 C 0.05996 0.32870 0.80637
 C2130 C 0.08249 0.31792 0.81217
 C2131 C 0.08610 0.29415 0.80663
 C2132 C 0.06814 0.28114 0.79500
 C2133 C 0.04605 0.29154 0.78836
 C2134 C 0.04162 0.31545 0.79420
 C2135 C 0.05489 0.35207 0.81320
 C2136 C 0.03249 0.36234 0.80774
 C2137 C 0.01465 0.34949 0.79571
 C2138 C 0.01901 0.32622 0.78910
 H2139 H 0.06789 0.36247 0.82319
 H2140 H 0.02883 0.38029 0.81312
 H2141 H -0.00279 0.35748 0.79174
 H2142 H 0.00438 0.31673 0.78038
 H2143 H 0.10319 0.28572 0.81111
 H2144 H 0.07168 0.26284 0.79078
 C2145 C 0.05980 0.80391 0.32073
 C2146 C 0.08188 0.81087 0.30932
 C2147 C 0.08592 0.80464 0.28553
 C2148 C 0.06898 0.79092 0.27323
 C2149 C 0.04755 0.78283 0.28442
 C2150 C 0.04250 0.78971 0.30823
 C2151 C 0.05417 0.81146 0.34402
 C2152 C 0.03221 0.80485 0.35494
 C2153 C 0.01533 0.79096 0.34280
 C2154 C 0.02026 0.78356 0.31964
 H2155 H 0.06639 0.82289 0.35382
 H2156 H 0.02814 0.81079 0.37281
 H2157 H -0.00182 0.78612 0.35127
 H2158 H 0.00627 0.77342 0.31072
 H2159 H 0.10265 0.81007 0.27661
 H2160 H 0.07293 0.78609 0.25496
 C2161 C 0.59485 0.72020 0.69871
 C2162 C 0.59113 0.69613 0.69286
 C2163 C 0.56965 0.68464 0.70026
 C2164 C 0.55147 0.69677 0.71240
 C2165 C 0.55407 0.72086 0.71730
 C2166 C 0.57603 0.73279 0.71071
 C2167 C 0.61723 0.73181 0.69368
 C2168 C 0.62070 0.75546 0.69953
 C2169 C 0.60220 0.76788 0.71082
 C2170 C 0.58015 0.75671 0.71655
 H2171 H 0.63246 0.72269 0.68572
 H2172 H 0.63795 0.76412 0.69549
 H2173 H 0.60509 0.78620 0.71550
 H2174 H 0.56664 0.76694 0.72587
 H2175 H 0.56677 0.66619 0.69614
 H2176 H 0.53493 0.68738 0.71755
 C2177 C 0.59417 0.21246 0.20259
 C2178 C 0.59092 0.18919 0.19402
 C2179 C 0.56853 0.17758 0.19753
 C2180 C 0.54910 0.18891 0.20867
 C2181 C 0.55145 0.21227 0.21637
 C2182 C 0.57423 0.22422 0.21366
 C2183 C 0.61710 0.22397 0.20112
 C2184 C 0.62026 0.24670 0.21000
 C2185 C 0.60077 0.25830 0.22063
 C2186 C 0.57799 0.24725 0.22253
 H2187 H 0.63292 0.21538 0.19361
 H2188 H 0.63797 0.25529 0.20881
 H2189 H 0.60339 0.27587 0.22771
 H2190 H 0.56364 0.25679 0.23143
 H2191 H 0.56605 0.15968 0.19128
 H2192 H 0.53194 0.17946 0.21101
 C2193 C 0.07010 0.68165 0.18538
 C2194 C 0.09388 0.68289 0.19518
 C2195 C 0.09792 0.69562 0.21612
 C2196 C 0.07889 0.70770 0.22708
 C2197 C 0.05540 0.70748 0.21724
 C2198 C 0.05070 0.69423 0.19636
 C2199 C 0.06509 0.66765 0.16524
 C2200 C 0.04146 0.66618 0.15603
 C2201 C 0.02252 0.67870 0.16656
 C2202 C 0.02703 0.69270 0.18646
 H2203 H 0.07923 0.65741 0.15672
 H2204 H 0.03777 0.65520 0.14071
 H2205 H 0.00422 0.67740 0.15937
 H2206 H 0.01177 0.70201 0.19414
 H2207 H 0.11606 0.69649 0.22376
 H2208 H 0.08263 0.71762 0.24315
 C2209 C 0.09369 0.21734 0.70535
 C2210 C 0.09016 0.19304 0.70048
 C2211 C 0.06863 0.18176 0.70805
 C2212 C 0.05022 0.19429 0.71941
 C2213 C 0.05275 0.21853 0.72347
 C2214 C 0.07478 0.23026 0.71684
 C2215 C 0.11598 0.22888 0.69984
 C2216 C 0.11940 0.25269 0.70509
 C2217 C 0.10091 0.26534 0.71619
 C2218 C 0.07885 0.25429 0.72220
 H2219 H 0.13112 0.21958 0.69193
 H2220 H 0.13660 0.26130 0.70078
 H2221 H 0.10380 0.28375 0.72047
 H2222 H 0.06533 0.26466 0.73143
 H2223 H 0.06594 0.16312 0.70468
 H2224 H 0.03362 0.18506 0.72467
 C2225 C 0.43791 0.70183 0.32225
 C2226 C 0.41561 0.69543 0.31119
 C2227 C 0.41195 0.70098 0.28714
 C2228 C 0.42959 0.71339 0.27416
 C2229 C 0.45144 0.72072 0.28485
 C2230 C 0.45603 0.71459 0.30901
 C2231 C 0.44293 0.69503 0.34595
 C2232 C 0.46519 0.70089 0.35651
 C2233 C 0.48293 0.71328 0.34362
 C2234 C 0.47855 0.71998 0.32008
 H2235 H 0.42997 0.68478 0.35637
 H2236 H 0.46880 0.69555 0.37470
 H2237 H 0.50030 0.71750 0.35182
 H2238 H 0.49319 0.72893 0.31064
 H2239 H 0.39503 0.69595 0.27850
 H2240 H 0.42598 0.71764 0.25566
 C2241 C 0.44115 0.19146 0.82814
 C2242 C 0.42075 0.18182 0.81598
 C2243 C 0.42054 0.18198 0.79104
 C2244 C 0.43917 0.19291 0.77811
 C2245 C 0.45846 0.20447 0.78967
 C2246 C 0.46018 0.20295 0.81490
 C2247 C 0.44340 0.18930 0.85309
 C2248 C 0.46371 0.19857 0.86484
 C2249 C 0.48228 0.20978 0.85198
 C2250 C 0.48073 0.21182 0.82725
 H2251 H 0.42986 0.17997 0.86368
 H2252 H 0.46521 0.19674 0.88399
 H2253 H 0.49818 0.21661 0.86117
 H2254 H 0.49609 0.21977 0.81798
 H2255 H 0.40524 0.17436 0.78149
 H2256 H 0.43787 0.19320 0.75887
 C2257 C 0.93700 0.68599 0.81846
 C2258 C 0.91421 0.68247 0.80705
 C2259 C 0.91088 0.69082 0.78377
 C2260 C 0.92930 0.70343 0.77206
 C2261 C 0.95156 0.70813 0.78336
 C2262 C 0.95586 0.69897 0.80653
 C2263 C 0.94171 0.67622 0.84114
 C2264 C 0.96442 0.67936 0.85195
 C2265 C 0.98286 0.69205 0.84034
 C2266 C 0.97875 0.70173 0.81781
 H2267 H 0.92812 0.66573 0.85051
 H2268 H 0.96781 0.67170 0.86934
 H2269 H 1.00053 0.69421 0.84872
 H2270 H 0.99377 0.71098 0.80923
 H2271 H 0.89359 0.68797 0.77483
 H2272 H 0.92595 0.71009 0.75423
 C2273 C 0.90583 0.21624 0.29505
 C2274 C 0.91109 0.19316 0.30329
 C2275 C 0.93399 0.18338 0.29846
 C2276 C 0.95206 0.19644 0.28664
 C2277 C 0.94784 0.21980 0.27966
 C2278 C 0.92446 0.22985 0.28352
 C2279 C 0.88217 0.22578 0.29729
 C2280 C 0.87714 0.24845 0.28900
 C2281 C 0.89544 0.26196 0.27821
 C2282 C 0.91886 0.25283 0.27542
 H2283 H 0.86720 0.21567 0.30491
 H2284 H 0.85889 0.25550 0.29080
 H2285 H 0.89140 0.27950 0.27165
 H2286 H 0.93224 0.26380 0.26641
 H2287 H 0.93801 0.16561 0.30436
 H2288 H 0.96969 0.18845 0.28341
 C2289 C 0.27340 0.29139 0.59712
 C2290 C 0.29822 0.29832 0.59460
 C2291 C 0.31090 0.29293 0.57368
 C2292 C 0.29925 0.28140 0.55499
 C2293 C 0.27452 0.27494 0.55668
 C2294 C 0.26141 0.27956 0.57803
 C2295 C 0.26054 0.29517 0.61859
 C2296 C 0.23633 0.28766 0.62116
 C2297 C 0.22462 0.27602 0.60260
 C2298 C 0.23698 0.27184 0.58127
 H2299 H 0.26911 0.30355 0.63371
 H2300 H 0.22671 0.29063 0.63775
 H2301 H 0.20593 0.26994 0.60483
 H2302 H 0.22731 0.26214 0.56767
 H2303 H 0.32998 0.29789 0.57181
 H2304 H 0.30956 0.27770 0.53893
 C2305 C 0.27428 0.79233 0.09501
 C2306 C 0.29788 0.80249 0.09221
 C2307 C 0.31059 0.79963 0.07075
 C2308 C 0.30002 0.78758 0.05181
 C2309 C 0.27636 0.77816 0.05376
 C2310 C 0.26335 0.78013 0.07558
 C2311 C 0.26173 0.79320 0.11701
 C2312 C 0.23875 0.78267 0.11969
 C2313 C 0.22801 0.77083 0.10071
 C2314 C 0.24017 0.76940 0.07889
 H2315 H 0.26967 0.80156 0.13246
 H2316 H 0.22936 0.78346 0.13668
 H2317 H 0.21029 0.76245 0.10299
 H2318 H 0.23137 0.75946 0.06491
 H2319 H 0.32879 0.80702 0.06866
 H2320 H 0.31028 0.78583 0.03537
 C2321 C 0.81672 0.31360 0.06298
 C2322 C 0.80311 0.31818 0.08397
 C2323 C 0.77851 0.31130 0.08524
 C2324 C 0.76761 0.29896 0.06668
 C2325 C 0.78105 0.29296 0.04634
 C2326 C 0.80569 0.30071 0.04407
 C2327 C 0.84086 0.32216 0.06014
 C2328 C 0.85406 0.31763 0.03939
 C2329 C 0.84340 0.30485 0.02099
 C2330 C 0.81942 0.29657 0.02315
 H2331 H 0.84956 0.33281 0.07365
 H2332 H 0.87256 0.32430 0.03745
 H2333 H 0.85365 0.30159 0.00482
 H2334 H 0.81170 0.28733 0.00815
 H2335 H 0.76791 0.31484 0.10115
 H2336 H 0.74874 0.29326 0.06861
 C2337 C 0.82214 0.80946 0.56382
 C2338 C 0.80988 0.81274 0.58582
 C2339 C 0.78556 0.80525 0.58834
 C2340 C 0.77366 0.79357 0.56993
 C2341 C 0.78572 0.78912 0.54841
 C2342 C 0.80996 0.79757 0.54490
 C2343 C 0.84597 0.81843 0.55998
 C2344 C 0.85759 0.81568 0.53801
 C2345 C 0.84566 0.80417 0.51946
 C2346 C 0.82206 0.79521 0.52276
 H2347 H 0.85562 0.82802 0.57370
 H2348 H 0.87584 0.82273 0.53527
 H2349 H 0.85466 0.80238 0.50236
 H2350 H 0.81332 0.78685 0.50772
 H2351 H 0.77595 0.80800 0.60499
 H2352 H 0.75503 0.78746 0.57268
 C2353 C 0.28148 0.70767 0.40641
 C2354 C 0.30540 0.69914 0.41043
 C2355 C 0.31676 0.70323 0.43233
 C2356 C 0.30456 0.71495 0.45051
 C2357 C 0.28056 0.72277 0.44736
 C2358 C 0.26883 0.71942 0.42509
 C2359 C 0.27024 0.70555 0.38392
 C2360 C 0.24691 0.71448 0.38000
 C2361 C 0.23444 0.72579 0.39827
 C2362 C 0.24521 0.72830 0.42061
 H2363 H 0.27950 0.69744 0.36905
 H2364 H 0.23854 0.71280 0.36263
 H2365 H 0.21642 0.73288 0.39506
 H2366 H 0.23502 0.73764 0.43406
 H2367 H 0.33518 0.69703 0.43537
 H2368 H 0.31383 0.71772 0.46732
 C2369 C 0.28045 0.21108 0.90337
 C2370 C 0.30449 0.20258 0.90668
 C2371 C 0.31664 0.20702 0.92811
 C2372 C 0.30496 0.21866 0.94667
 C2373 C 0.28070 0.22602 0.94439
 C2374 C 0.26832 0.22272 0.92244
 C2375 C 0.26853 0.20893 0.88121
 C2376 C 0.24501 0.21770 0.87802
 C2377 C 0.23304 0.22888 0.89668
 C2378 C 0.24450 0.23144 0.91868
 H2379 H 0.27741 0.20097 0.86604
 H2380 H 0.23612 0.21602 0.86090
 H2381 H 0.21488 0.23586 0.89403
 H2382 H 0.23469 0.24075 0.93241
 H2383 H 0.33514 0.20084 0.93066
 H2384 H 0.31476 0.22140 0.96318
 C2385 C 0.78215 0.69353 0.90574
 C2386 C 0.80584 0.68395 0.90847
 C2387 C 0.81804 0.68647 0.93020
 C2388 C 0.80697 0.69776 0.94936
 C2389 C 0.78322 0.70660 0.94745
 C2390 C 0.77056 0.70464 0.92548
 C2391 C 0.77015 0.69320 0.88351
 C2392 C 0.74703 0.70304 0.88089
 C2393 C 0.73552 0.71352 0.90021
 C2394 C 0.74709 0.71439 0.92229
 H2395 H 0.77865 0.68587 0.86783
 H2396 H 0.73809 0.70270 0.86371
 H2397 H 0.71765 0.72132 0.89801
 H2398 H 0.73761 0.72322 0.93655
 H2399 H 0.83630 0.67951 0.93230
 H2400 H 0.81699 0.69952 0.96590
 C2401 C 0.78366 0.19233 0.40776
 C2402 C 0.80892 0.18739 0.41002
 C2403 C 0.82148 0.19483 0.43036
 C2404 C 0.80933 0.20633 0.44874
 C2405 C 0.78417 0.21057 0.44746
 C2406 C 0.77108 0.20374 0.42674
 C2407 C 0.77085 0.18704 0.38663
 C2408 C 0.74607 0.19217 0.38447
 C2409 C 0.73368 0.20296 0.40309
 C2410 C 0.74600 0.20887 0.42395
 H2411 H 0.77986 0.17940 0.37138
 H2412 H 0.73650 0.18799 0.36816
 H2413 H 0.71448 0.20709 0.40123
 H2414 H 0.73568 0.21779 0.43756
 H2415 H 0.84086 0.19147 0.43204
 H2416 H 0.81963 0.21170 0.46429
 C2417 C 0.69239 0.31706 0.44092
 C2418 C 0.68771 0.30645 0.41855
 C2419 C 0.69597 0.28355 0.41425
 C2420 C 0.70921 0.27131 0.43136
 C2421 C 0.71483 0.28165 0.45326
 C2422 C 0.70624 0.30462 0.45838
 C2423 C 0.68284 0.33938 0.44668
 C2424 C 0.68732 0.34946 0.46887
 C2425 C 0.70103 0.33743 0.48583
 C2426 C 0.71032 0.31517 0.48078
 H2427 H 0.67148 0.34903 0.43436
 H2428 H 0.67988 0.36660 0.47304
 H2429 H 0.70424 0.34527 0.50310
 H2430 H 0.72034 0.30624 0.49469
 H2431 H 0.69238 0.27521 0.39729
 H2432 H 0.71543 0.25371 0.42729
 C2433 C 0.72217 0.79392 0.90708
 C2434 C 0.69865 0.80336 0.91126
 C2435 C 0.68747 0.80011 0.93351
 C2436 C 0.69946 0.78829 0.95183
 C2437 C 0.72312 0.77959 0.94851
 C2438 C 0.73467 0.78217 0.92592
 C2439 C 0.73312 0.79511 0.88429
 C2440 C 0.75609 0.78538 0.88023
 C2441 C 0.76847 0.77418 0.89866
 C2442 C 0.75794 0.77251 0.92128
 H2443 H 0.72389 0.80307 0.86929
 H2444 H 0.76422 0.78635 0.86263
 H2445 H 0.78620 0.76648 0.89535
 H2446 H 0.76804 0.76315 0.93482
 H2447 H 0.66936 0.80703 0.93671
 H2448 H 0.69029 0.78612 0.96886
 C2449 C 0.21593 0.31048 0.90770
 C2450 C 0.19184 0.31874 0.91145
 C2451 C 0.18022 0.31447 0.93333
 C2452 C 0.19225 0.30273 0.95170
 C2453 C 0.21640 0.29520 0.94881
 C2454 C 0.22848 0.29893 0.92663
 C2455 C 0.22741 0.31252 0.88520
 C2456 C 0.25095 0.30398 0.88156
 C2457 C 0.26341 0.29309 0.90012
 C2458 C 0.25236 0.29051 0.92242
 H2459 H 0.21821 0.32021 0.87005
 H2460 H 0.25948 0.30562 0.86419
 H2461 H 0.28161 0.28631 0.89714
 H2462 H 0.26260 0.28143 0.93603
 H2463 H 0.16166 0.32038 0.93617
 H2464 H 0.18269 0.29961 0.96838
 C2465 C 0.21382 0.80761 0.40660
 C2466 C 0.18953 0.81523 0.41049
 C2467 C 0.17825 0.81093 0.43251
 C2468 C 0.19084 0.79982 0.45091
 C2469 C 0.21517 0.79286 0.44787
 C2470 C 0.22686 0.79650 0.42549
 C2471 C 0.22507 0.80995 0.38402
 C2472 C 0.24880 0.80195 0.38023
 C2473 C 0.26163 0.79126 0.39867
 C2474 C 0.25084 0.78845 0.42106
 H2475 H 0.21556 0.81751 0.36899
 H2476 H 0.25718 0.80383 0.36281
 H2477 H 0.27995 0.78485 0.39554
 H2478 H 0.26135 0.77952 0.43459
 H2479 H 0.15956 0.81640 0.43546
 H2480 H 0.18157 0.79677 0.46776
 C2481 C 0.67487 0.69750 0.56003
 C2482 C 0.68722 0.69039 0.58098
 C2483 C 0.71205 0.69581 0.58363
 C2484 C 0.72454 0.70887 0.56636
 C2485 C 0.71255 0.71704 0.54593
 C2486 C 0.68757 0.71102 0.54233
 C2487 C 0.65035 0.69078 0.55599
 C2488 C 0.63848 0.69737 0.53507
 C2489 C 0.65079 0.71058 0.51778
 C2490 C 0.67509 0.71734 0.52124
 H2491 H 0.64031 0.68001 0.56869
 H2492 H 0.61969 0.69199 0.53216
 H2493 H 0.64154 0.71542 0.50146
 H2494 H 0.68396 0.72707 0.50700
 H2495 H 0.72166 0.69031 0.59953
 H2496 H 0.74366 0.71311 0.56922
 C2497 C 0.71941 0.20202 0.09358
 C2498 C 0.69580 0.19212 0.09024
 C2499 C 0.68370 0.19562 0.06860
 C2500 C 0.69487 0.20807 0.05002
 C2501 C 0.71853 0.21729 0.05253
 C2502 C 0.73096 0.21462 0.07453
 C2503 C 0.73140 0.20043 0.11576
 C2504 C 0.75443 0.21061 0.11898
 C2505 C 0.76578 0.22283 0.10036
 C2506 C 0.75418 0.22501 0.07838
 H2507 H 0.72298 0.19175 0.13094
 H2508 H 0.76341 0.20923 0.13609
 H2509 H 0.78355 0.23091 0.10306
 H2510 H 0.76342 0.23522 0.06470
 H2511 H 0.66549 0.18843 0.06608
 H2512 H 0.68506 0.21028 0.03342
 C2513 C 0.17937 0.68241 0.06465
 C2514 C 0.19322 0.67754 0.08538
 C2515 C 0.21795 0.68400 0.08605
 C2516 C 0.22880 0.69614 0.06712
 C2517 C 0.21521 0.70233 0.04695
 C2518 C 0.19041 0.69500 0.04527
 C2519 C 0.15496 0.67448 0.06250
 C2520 C 0.14152 0.67931 0.04200
 C2521 C 0.15224 0.69165 0.02311
 C2522 C 0.17649 0.69926 0.02455
 H2523 H 0.14617 0.66414 0.07638
 H2524 H 0.12279 0.67318 0.04064
 H2525 H 0.14179 0.69509 0.00712
 H2526 H 0.18425 0.70805 0.00911
 H2527 H 0.22872 0.68029 0.10177
 H2528 H 0.24777 0.70157 0.06864
 C2529 C 0.17045 0.18434 0.56618
 C2530 C 0.18358 0.17832 0.58704
 C2531 C 0.20866 0.18326 0.58822
 C2532 C 0.22058 0.19510 0.56970
 C2533 C 0.20777 0.20244 0.54944
 C2534 C 0.18261 0.19654 0.54720
 C2535 C 0.14566 0.17787 0.56351
 C2536 C 0.13300 0.18357 0.54275
 C2537 C 0.14483 0.19550 0.52422
 C2538 C 0.16942 0.20183 0.52626
 H2539 H 0.13599 0.16795 0.57714
 H2540 H 0.11399 0.17847 0.54093
 H2541 H 0.13498 0.19962 0.50804
 H2542 H 0.17800 0.21040 0.51111
 H2543 H 0.21890 0.17858 0.60401
 H2544 H 0.23983 0.19933 0.57160
   
