data_POSCAR
  _audit_creation_date              2014-09-24
  _audit_creation_method            'ToBaCCo'
  _symmetry_space_group_name_H-M    'P1'
  _symmetry_Int_Tables_number       1
  _symmetry_cell_setting            triclinic
  loop_
  _symmetry_equiv_pos_as_xyz
 x,y,z
_cell_length_a 57.0766
_cell_length_b 57.0894
_cell_length_c 56.8318
_cell_angle_alpha 90.162500
_cell_angle_beta 90.032200
_cell_angle_gamma 90.027000
loop_
  _atom_site_label
  _atom_site_type_symbol
  _atom_site_fract_x
  _atom_site_fract_y
  _atom_site_fract_z
C1 C 0.36315 0.32935 0.34202
 C2 C 0.34630 0.32992 0.35996
 C3 C 0.32884 0.34673 0.35972
 C4 C 0.32799 0.36324 0.34145
 C5 C 0.34460 0.36259 0.32375
 C6 C 0.36227 0.34556 0.32404
 C7 C 0.38147 0.31439 0.33724
 N8 N 0.39173 0.32120 0.31675
 C9 C 0.38003 0.34021 0.30859
 C10 C 0.33901 0.37988 0.30794
 N11 N 0.31947 0.39110 0.31554
 C12 C 0.31255 0.38100 0.33608
 C13 C 0.31442 0.34234 0.37864
 N14 N 0.32276 0.32327 0.39030
 C15 C 0.34222 0.31563 0.37894
 H16 H 0.38640 0.29940 0.34771
 H17 H 0.38395 0.34924 0.29234
 H18 H 0.34830 0.38384 0.29182
 H19 H 0.29722 0.38571 0.34620
 H20 H 0.29872 0.35201 0.38300
 H21 H 0.35238 0.30040 0.38388
 C22 C 0.35875 0.82967 -0.15960
 C23 C 0.34129 0.83025 -0.14225
 C24 C 0.32398 0.84716 -0.14307
 C25 C 0.32390 0.86376 -0.16120
 C26 C 0.34111 0.86323 -0.17829
 C27 C 0.35866 0.84604 -0.17749
 C28 C 0.37721 0.81470 -0.16371
 N29 N 0.38837 0.82158 -0.18375
 C30 C 0.37708 0.84076 -0.19219
 C31 C 0.33617 0.88085 -0.19401
 N32 N 0.31639 0.89209 -0.18693
 C33 C 0.30879 0.88167 -0.16676
 C34 C 0.30890 0.84291 -0.12469
 N35 N 0.31660 0.82389 -0.11270
 C36 C 0.33646 0.81599 -0.12337
 H37 H 0.38169 0.79979 -0.15292
 H38 H 0.38172 0.85003 -0.20813
 H39 H 0.34611 0.88502 -0.20968
 H40 H 0.29332 0.88628 -0.15682
 H41 H 0.29319 0.85271 -0.12056
 H42 H 0.34645 0.80073 -0.11832
 C43 C 0.86033 0.32895 -0.15676
 C44 C 0.84293 0.32905 -0.13934
 C45 C 0.82562 0.34597 -0.13962
 C46 C 0.82547 0.36307 -0.15728
 C47 C 0.84264 0.36300 -0.17442
 C48 C 0.86019 0.34580 -0.17417
 C49 C 0.87867 0.31402 -0.16145
 N50 N 0.88970 0.32130 -0.18132
 C51 C 0.87846 0.34085 -0.18920
 C52 C 0.83760 0.38094 -0.18971
 N53 N 0.81778 0.39192 -0.18236
 C54 C 0.81025 0.38104 -0.16242
 C55 C 0.81056 0.34116 -0.12137
 N56 N 0.81829 0.32178 -0.10998
 C57 C 0.83813 0.31422 -0.12090
 H58 H 0.88340 0.29867 -0.15135
 H59 H 0.88270 0.35069 -0.20485
 H60 H 0.84746 0.38545 -0.20534
 H61 H 0.79474 0.38534 -0.15240
 H62 H 0.79483 0.35079 -0.11693
 H63 H 0.84811 0.29878 -0.11637
 C64 C 0.86065 0.82656 0.34289
 C65 C 0.84296 0.82628 0.36002
 C66 C 0.82600 0.84359 0.36025
 C67 C 0.82650 0.86141 0.34328
 C68 C 0.84399 0.86168 0.32646
 C69 C 0.86118 0.84416 0.32627
 C70 C 0.87883 0.81154 0.33788
 N71 N 0.89040 0.81952 0.31861
 C72 C 0.87967 0.83959 0.31141
 C73 C 0.83963 0.88031 0.31182
 N74 N 0.81988 0.89137 0.31919
 C75 C 0.81174 0.87989 0.33856
 C76 C 0.81069 0.83843 0.37824
 N77 N 0.81799 0.81840 0.38893
 C78 C 0.83766 0.81089 0.37782
 H79 H 0.88311 0.79568 0.34739
 H80 H 0.88443 0.85007 0.29633
 H81 H 0.84987 0.88519 0.29655
 H82 H 0.79610 0.88412 0.34841
 H83 H 0.79520 0.84837 0.38272
 H84 H 0.84727 0.79515 0.38223
 C85 C 0.63865 0.67215 0.34412
 C86 C 0.65625 0.67257 0.36133
 C87 C 0.67406 0.65620 0.36068
 C88 C 0.67448 0.63915 0.34291
 C89 C 0.65711 0.63866 0.32593
 C90 C 0.63907 0.65537 0.32650
 C91 C 0.61984 0.68654 0.33981
 N92 N 0.60886 0.67906 0.31999
 C93 C 0.62049 0.65990 0.31173
 C94 C 0.66254 0.62080 0.31050
 N95 N 0.68279 0.61050 0.31779
 C96 C 0.69017 0.62170 0.33753
 C97 C 0.68926 0.66146 0.37871
 N98 N 0.68114 0.68059 0.39034
 C99 C 0.66089 0.68754 0.37979
 H100 H 0.61476 0.70172 0.35007
 H101 H 0.61612 0.65006 0.29605
 H102 H 0.65269 0.61616 0.29491
 H103 H 0.70605 0.61760 0.34712
 H104 H 0.70536 0.65232 0.38282
 H105 H 0.65055 0.70268 0.38459
 C106 C 0.63634 0.17123 -0.15325
 C107 C 0.65366 0.17142 -0.13570
 C108 C 0.67073 0.15423 -0.13546
 C109 C 0.67084 0.13669 -0.15278
 C110 C 0.65381 0.13652 -0.17004
 C111 C 0.63643 0.15387 -0.17026
 C112 C 0.61811 0.18615 -0.15844
 N113 N 0.60712 0.17831 -0.17817
 C114 C 0.61830 0.15847 -0.18548
 C115 C 0.65883 0.11824 -0.18503
 N116 N 0.67856 0.10732 -0.17739
 C117 C 0.68599 0.11854 -0.15752
 C118 C 0.68562 0.15919 -0.11710
 N119 N 0.67813 0.17899 -0.10621
 C120 C 0.65851 0.18661 -0.11747
 H121 H 0.61341 0.20182 -0.14874
 H122 H 0.61413 0.14815 -0.20089
 H123 H 0.64909 0.11352 -0.20071
 H124 H 0.70144 0.11439 -0.14735
 H125 H 0.70108 0.14934 -0.11223
 H126 H 0.64850 0.20207 -0.11304
 C127 C 0.13416 0.67477 -0.15220
 C128 C 0.15192 0.67563 -0.13513
 C129 C 0.16877 0.65825 -0.13438
 C130 C 0.16814 0.63980 -0.15070
 C131 C 0.15064 0.63894 -0.16749
 C132 C 0.13353 0.65651 -0.16822
 C133 C 0.11622 0.68984 -0.15789
 N134 N 0.10471 0.68111 -0.17705
 C135 C 0.11523 0.66071 -0.18335
 C136 C 0.15510 0.61999 -0.18179
 N137 N 0.17504 0.60930 -0.17411
 C138 C 0.18299 0.62132 -0.15504
 C139 C 0.18438 0.66413 -0.11688
 N140 N 0.17739 0.68470 -0.10696
 C141 C 0.15759 0.69182 -0.11807
 H142 H 0.11239 0.70608 -0.14886
 H143 H 0.11024 0.64993 -0.19825
 H144 H 0.14478 0.61502 -0.19695
 H145 H 0.19885 0.61728 -0.14539
 H146 H 0.19991 0.65432 -0.11229
 H147 H 0.14822 0.70788 -0.11427
 C148 C 0.14200 0.17675 0.34483
 C149 C 0.15949 0.17730 0.36218
 C150 C 0.17644 0.16000 0.36279
 C151 C 0.17614 0.14190 0.34602
 C152 C 0.15887 0.14138 0.32896
 C153 C 0.14168 0.15890 0.32837
 C154 C 0.12386 0.19168 0.33942
 N155 N 0.11253 0.18337 0.32007
 C156 C 0.12338 0.16320 0.31323
 C157 C 0.16337 0.12254 0.31456
 N158 N 0.18299 0.11154 0.32232
 C159 C 0.19092 0.12330 0.34168
 C160 C 0.19156 0.16545 0.38090
 N161 N 0.18415 0.18565 0.39130
 C162 C 0.16459 0.19297 0.37990
 H163 H 0.11943 0.20767 0.34870
 H164 H 0.11884 0.15246 0.29821
 H165 H 0.15331 0.11744 0.29921
 H166 H 0.20642 0.11918 0.35178
 H167 H 0.20698 0.15555 0.38566
 H168 H 0.15494 0.20878 0.38403
 C169 C 0.63751 0.32178 0.65423
 C170 C 0.65422 0.32296 0.63622
 C171 C 0.67055 0.34084 0.63607
 C172 C 0.67046 0.35779 0.65399
 C173 C 0.65405 0.35659 0.67184
 C174 C 0.63743 0.33844 0.67195
 C175 C 0.62008 0.30590 0.65918
 N176 N 0.60937 0.31252 0.67952
 C177 C 0.61993 0.33236 0.68743
 C178 C 0.65880 0.37464 0.68724
 N179 N 0.67763 0.38677 0.67919
 C180 C 0.68489 0.37651 0.65881
 C181 C 0.68508 0.33703 0.61714
 N182 N 0.67806 0.31723 0.60587
 C183 C 0.65909 0.30853 0.61742
 H184 H 0.61597 0.29052 0.64884
 H185 H 0.61535 0.34156 0.70347
 H186 H 0.64948 0.37847 0.70340
 H187 H 0.69984 0.38173 0.64840
 H188 H 0.70005 0.34759 0.61220
 H189 H 0.64961 0.29275 0.61289
 C190 C 0.63779 0.82665 1.15416
 C191 C 0.65553 0.82625 1.13711
 C192 C 0.67254 0.84351 1.13694
 C193 C 0.67205 0.86143 1.15389
 C194 C 0.65451 0.86185 1.17066
 C195 C 0.63728 0.84434 1.17079
 C196 C 0.61966 0.81156 1.15917
 N197 N 0.60813 0.81969 1.17855
 C198 C 0.61884 0.83977 1.18565
 C199 C 0.65896 0.88049 1.18538
 N200 N 0.67877 0.89140 1.17805
 C201 C 0.68690 0.87984 1.15871
 C202 C 0.68799 0.83814 1.11913
 N203 N 0.68071 0.81801 1.10849
 C204 C 0.66092 0.81066 1.11944
 H205 H 0.61571 0.79571 1.14951
 H206 H 0.61385 0.85008 1.20088
 H207 H 0.64879 0.88549 1.20067
 H208 H 0.70262 0.88405 1.14899
 H209 H 0.70359 0.84796 1.11478
 H210 H 0.65134 0.79486 1.11507
 C211 C 0.14021 0.32524 1.15493
 C212 C 0.15760 0.32469 1.13753
 C213 C 0.17463 0.34189 1.13694
 C214 C 0.17450 0.35989 1.15380
 C215 C 0.15731 0.36045 1.17096
 C216 C 0.14004 0.34297 1.17154
 C217 C 0.12214 0.31025 1.16030
 N218 N 0.11095 0.31835 1.17978
 C219 C 0.12182 0.33848 1.18678
 C220 C 0.16214 0.37918 1.18549
 N221 N 0.18186 0.38998 1.17754
 C222 C 0.18949 0.37825 1.15821
 C223 C 0.18973 0.33638 1.11885
 N224 N 0.18220 0.31622 1.10845
 C225 C 0.16260 0.30900 1.11984
 H226 H 0.11770 0.29432 1.15090
 H227 H 0.11734 0.34901 1.20195
 H228 H 0.15230 0.38398 1.20102
 H229 H 0.20514 0.38252 1.14835
 H230 H 0.20527 0.34614 1.11414
 H231 H 0.15289 0.29319 1.11575
 C232 C 0.13607 0.82594 0.65262
 C233 C 0.15313 0.82621 0.63487
 C234 C 0.16940 0.84413 0.63412
 C235 C 0.16894 0.86193 0.65115
 C236 C 0.15217 0.86165 0.66868
 C237 C 0.13556 0.84354 0.66939
 C238 C 0.11869 0.81024 0.65825
 N239 N 0.10760 0.81786 0.67795
 C240 C 0.11786 0.83826 0.68494
 C241 C 0.15670 0.88032 0.68339
 N242 N 0.17593 0.89190 0.67520
 C243 C 0.18338 0.88073 0.65544
 C244 C 0.18431 0.83946 0.61572
 N245 N 0.17761 0.81911 0.60532
 C246 C 0.15846 0.81087 0.61692
 H247 H 0.11461 0.79419 0.64891
 H248 H 0.11334 0.84834 0.70041
 H249 H 0.14689 0.88455 0.69911
 H250 H 0.19863 0.88561 0.64521
 H251 H 0.19930 0.84987 0.61052
 H252 H 0.14911 0.79487 0.61293
 C253 C 0.36065 0.67088 0.65755
 C254 C 0.34357 0.67066 0.63983
 C255 C 0.32610 0.65388 0.63998
 C256 C 0.32544 0.63710 0.65795
 C257 C 0.34226 0.63736 0.67549
 C258 C 0.36000 0.65437 0.67527
 C259 C 0.37897 0.68581 0.66235
 N260 N 0.38951 0.67873 0.68260
 C261 C 0.37796 0.65955 0.69060
 C262 C 0.33673 0.61980 0.69106
 N263 N 0.31693 0.60887 0.68338
 C264 C 0.30999 0.61935 0.66313
 C265 C 0.31135 0.65866 0.62141
 N266 N 0.31953 0.67797 0.61005
 C267 C 0.33919 0.68536 0.62125
 H268 H 0.38367 0.70102 0.65208
 H269 H 0.38207 0.65031 0.70670
 H270 H 0.34641 0.61563 0.70685
 H271 H 0.29455 0.61463 0.65311
 H272 H 0.29553 0.64914 0.61712
 H273 H 0.34928 0.70070 0.61650
 C274 C 0.36181 0.17232 1.15731
 C275 C 0.34450 0.17173 1.13984
 C276 C 0.32757 0.15442 1.14010
 C277 C 0.32771 0.13748 1.15793
 C278 C 0.34478 0.13805 1.17520
 C279 C 0.36202 0.15560 1.17487
 C280 C 0.37977 0.18772 1.16192
 N281 N 0.39095 0.18079 1.18178
 C282 C 0.38018 0.16111 1.18988
 C283 C 0.33999 0.12017 1.19068
 N284 N 0.32032 0.10877 1.18321
 C285 C 0.31282 0.11930 1.16317
 C286 C 0.31250 0.15879 1.12169
 N287 N 0.31994 0.17837 1.11029
 C288 C 0.33946 0.18636 1.12134
 H289 H 0.38418 0.20312 1.15177
 H290 H 0.38466 0.15174 1.20576
 H291 H 0.35000 0.11629 1.20634
 H292 H 0.29734 0.11433 1.15331
 H293 H 0.29699 0.14873 1.11749
 H294 H 0.34906 0.20198 1.11649
 C295 C 0.86214 0.67384 1.15632
 C296 C 0.84469 0.67349 1.13892
 C297 C 0.82806 0.65586 1.13873
 C298 C 0.82861 0.63835 1.15600
 C299 C 0.84581 0.63873 1.17314
 C300 C 0.86270 0.65655 1.17329
 C301 C 0.87988 0.68937 1.16147
 N302 N 0.89122 0.68192 1.18108
 C303 C 0.88077 0.66181 1.18846
 C304 C 0.84140 0.62046 1.18819
 N305 N 0.82197 0.60896 1.18068
 C306 C 0.81399 0.61981 1.16093
 C307 C 0.81278 0.66051 1.12056
 N308 N 0.81979 0.68056 1.10973
 C309 C 0.83924 0.68858 1.12091
 H310 H 0.88401 0.70521 1.15189
 H311 H 0.88539 0.65192 1.20397
 H312 H 0.85130 0.61613 1.20385
 H313 H 0.79841 0.61516 1.15115
 H314 H 0.79745 0.65028 1.11613
 H315 H 0.84853 0.70451 1.11646
 C316 C 0.86229 0.17123 0.65511
 C317 C 0.84484 0.17088 0.63774
 C318 C 0.82746 0.15402 0.63833
 C319 C 0.82732 0.13721 0.65629
 C320 C 0.84453 0.13758 0.67343
 C321 C 0.86213 0.15473 0.67285
 C322 C 0.88063 0.18623 0.65951
 N323 N 0.89164 0.17936 0.67953
 C324 C 0.88039 0.15998 0.68781
 C325 C 0.83943 0.12000 0.68911
 N326 N 0.81963 0.10892 0.68193
 C327 C 0.81205 0.11939 0.66183
 C328 C 0.81230 0.15869 0.62011
 N329 N 0.82004 0.17793 0.60847
 C330 C 0.83999 0.18551 0.61918
 H331 H 0.88535 0.20140 0.64912
 H332 H 0.88462 0.15049 0.70368
 H333 H 0.84922 0.11577 0.70487
 H334 H 0.79638 0.11492 0.65211
 H335 H 0.79646 0.14910 0.61591
 H336 H 0.85000 0.20087 0.61446
 C337 C 0.32486 0.36573 0.66139
 C338 C 0.32638 0.34844 0.64386
 C339 C 0.34416 0.33194 0.64458
 C340 C 0.36076 0.33259 0.66287
 C341 C 0.35920 0.34972 0.68004
 C342 C 0.34118 0.36628 0.67932
 C343 C 0.30884 0.38326 0.66590
 N344 N 0.31520 0.39429 0.68620
 C345 C 0.33492 0.38396 0.69445
 C346 C 0.37681 0.34585 0.69599
 N347 N 0.38914 0.32677 0.68910
 C348 C 0.37947 0.31845 0.66879
 C349 C 0.34058 0.31683 0.62597
 N350 N 0.32118 0.32376 0.61398
 C351 C 0.31237 0.34309 0.62490
 H352 H 0.29343 0.38708 0.65553
 H353 H 0.34381 0.38872 0.71062
 H354 H 0.38022 0.35599 0.71177
 H355 H 0.38525 0.30317 0.65914
 H356 H 0.35109 0.30164 0.62165
 H357 H 0.29661 0.35238 0.62000
 C358 C 0.32835 0.86430 0.15813
 C359 C 0.32824 0.84750 0.14008
 C360 C 0.34532 0.83035 0.13938
 C361 C 0.36273 0.82973 0.15679
 C362 C 0.36285 0.84628 0.17461
 C363 C 0.34551 0.86369 0.17528
 C364 C 0.31333 0.88232 0.16372
 N365 N 0.32100 0.89271 0.18389
 C366 C 0.34064 0.88136 0.19105
 C367 C 0.38103 0.84080 0.18952
 N368 N 0.39197 0.82130 0.18115
 C369 C 0.38084 0.81446 0.16117
 C370 C 0.34023 0.81586 0.12065
 N371 N 0.32044 0.82385 0.10998
 C372 C 0.31303 0.84316 0.12180
 H373 H 0.29775 0.88696 0.15397
 H374 H 0.35044 0.88546 0.20686
 H375 H 0.38542 0.85012 0.20552
 H376 H 0.38535 0.79917 0.15081
 H377 H 0.34993 0.80033 0.11577
 H378 H 0.29739 0.85305 0.11766
 C379 C 0.83049 0.36201 0.15601
 C380 C 0.83027 0.34505 0.13812
 C381 C 0.84713 0.32769 0.13771
 C382 C 0.86450 0.32706 0.15515
 C383 C 0.86474 0.34379 0.17280
 C384 C 0.84758 0.36138 0.17325
 C385 C 0.81564 0.38023 0.16137
 N386 N 0.82331 0.39072 0.18149
 C387 C 0.84282 0.37925 0.18883
 C388 C 0.88290 0.33830 0.18776
 N389 N 0.89369 0.31863 0.17956
 C390 C 0.88248 0.31168 0.15967
 C391 C 0.84203 0.31311 0.11907
 N392 N 0.82242 0.32124 0.10816
 C393 C 0.81519 0.34078 0.11972
 H394 H 0.80014 0.38495 0.15151
 H395 H 0.85260 0.38339 0.20464
 H396 H 0.88737 0.34774 0.20365
 H397 H 0.88689 0.29627 0.14943
 H398 H 0.85178 0.29760 0.11425
 H399 H 0.79976 0.35088 0.11530
 C400 C 0.82656 0.86280 0.65674
 C401 C 0.82606 0.84540 0.63923
 C402 C 0.84294 0.82804 0.63906
 C403 C 0.86053 0.82781 0.65624
 C404 C 0.86108 0.84494 0.67346
 C405 C 0.84395 0.86254 0.67372
 C406 C 0.81177 0.88111 0.66205
 N407 N 0.81981 0.89196 0.68185
 C408 C 0.83945 0.88067 0.68904
 C409 C 0.87934 0.83965 0.68837
 N410 N 0.88985 0.81969 0.68053
 C411 C 0.87839 0.81238 0.66093
 C412 C 0.83756 0.81289 0.62105
 N413 N 0.81789 0.82057 0.61015
 C414 C 0.81065 0.84050 0.62118
 H415 H 0.79608 0.88563 0.65243
 H416 H 0.84947 0.88507 0.70462
 H417 H 0.88403 0.84935 0.70405
 H418 H 0.88251 0.79667 0.65105
 H419 H 0.84703 0.79710 0.61644
 H420 H 0.79505 0.85039 0.61699
 C421 C 0.67216 0.63987 0.65687
 C422 C 0.67254 0.65772 0.63998
 C423 C 0.65532 0.67476 0.63996
 C424 C 0.63749 0.67418 0.65697
 C425 C 0.63713 0.65654 0.67361
 C426 C 0.65457 0.63924 0.67355
 C427 C 0.68715 0.62163 0.66159
 N428 N 0.67911 0.60989 0.68068
 C429 C 0.65913 0.62058 0.68816
 C430 C 0.61848 0.66085 0.68832
 N431 N 0.60750 0.68065 0.68112
 C432 C 0.61903 0.68894 0.66188
 C433 C 0.66060 0.69018 0.62211
 N434 N 0.68061 0.68283 0.61133
 C435 C 0.68798 0.66305 0.62223
 H436 H 0.70303 0.61740 0.65206
 H437 H 0.64888 0.61569 0.70336
 H438 H 0.61348 0.65054 0.70347
 H439 H 0.61476 0.70468 0.65227
 H440 H 0.65078 0.70578 0.61778
 H441 H 0.70367 0.65338 0.61771
 C442 C 0.67351 0.13738 0.15528
 C443 C 0.67384 0.15477 0.13790
 C444 C 0.65703 0.17219 0.13796
 C445 C 0.63968 0.17249 0.15540
 C446 C 0.63931 0.15536 0.17254
 C447 C 0.65638 0.13768 0.17248
 C448 C 0.68829 0.11899 0.16019
 N449 N 0.68052 0.10810 0.17999
 C450 C 0.66104 0.11947 0.18758
 C451 C 0.62124 0.16067 0.18770
 N452 N 0.61067 0.18064 0.18011
 C453 C 0.62189 0.18794 0.16041
 C454 C 0.66222 0.18722 0.11982
 N455 N 0.68181 0.17932 0.10870
 C456 C 0.68901 0.15950 0.11970
 H457 H 0.70382 0.11445 0.15030
 H458 H 0.65123 0.11505 0.20326
 H459 H 0.61672 0.15096 0.20336
 H460 H 0.61765 0.20366 0.15067
 H461 H 0.65264 0.20299 0.11561
 H462 H 0.70445 0.14950 0.11504
 C463 C 0.17538 0.64306 0.15613
 C464 C 0.17536 0.66088 0.13919
 C465 C 0.15807 0.67782 0.13950
 C466 C 0.14058 0.67723 0.15681
 C467 C 0.14061 0.65969 0.17355
 C468 C 0.15812 0.64243 0.17319
 C469 C 0.19050 0.62486 0.16057
 N470 N 0.18288 0.61311 0.17983
 C471 C 0.16304 0.62379 0.18772
 C472 C 0.12226 0.66412 0.18862
 N473 N 0.11110 0.68385 0.18145
 C474 C 0.12224 0.69201 0.16195
 C475 C 0.16291 0.69332 0.12164
 N476 N 0.18276 0.68614 0.11047
 C477 C 0.19045 0.66634 0.12116
 H478 H 0.20617 0.62063 0.15070
 H479 H 0.15311 0.61888 0.20313
 H480 H 0.11760 0.65396 0.20398
 H481 H 0.11788 0.70778 0.15243
 H482 H 0.15290 0.70887 0.11759
 H483 H 0.20613 0.65681 0.11634
 C484 C 0.17188 0.14235 0.65378
 C485 C 0.17270 0.16042 0.63713
 C486 C 0.15606 0.17801 0.63762
 C487 C 0.13835 0.17777 0.65471
 C488 C 0.13752 0.15994 0.67111
 C489 C 0.15443 0.14212 0.67066
 C490 C 0.18636 0.12359 0.65819
 N491 N 0.17810 0.11197 0.67736
 C492 C 0.15860 0.12324 0.68505
 C493 C 0.11912 0.16469 0.68604
 N494 N 0.10876 0.18500 0.67905
 C495 C 0.12048 0.19308 0.65995
 C496 C 0.16172 0.19365 0.62014
 N497 N 0.18133 0.18600 0.60902
 C498 C 0.18820 0.16564 0.61935
 H499 H 0.20204 0.11930 0.64842
 H500 H 0.14845 0.11828 0.70034
 H501 H 0.11417 0.15430 0.70111
 H502 H 0.11648 0.20917 0.65074
 H503 H 0.15246 0.20967 0.61603
 H504 H 0.20356 0.15552 0.61481
 C505 C 0.32814 0.63780 0.34188
 C506 C 0.32802 0.65508 0.35950
 C507 C 0.34509 0.67226 0.35966
 C508 C 0.36253 0.67242 0.34231
 C509 C 0.36269 0.65541 0.32498
 C510 C 0.34535 0.63800 0.32474
 C511 C 0.31307 0.61969 0.33659
 N512 N 0.32076 0.60892 0.31664
 C513 C 0.34046 0.62005 0.30933
 C514 C 0.38088 0.66055 0.30994
 N515 N 0.39174 0.68032 0.31780
 C516 C 0.38056 0.68766 0.33755
 C517 C 0.34004 0.68730 0.37789
 N518 N 0.32038 0.67969 0.38887
 C519 C 0.31284 0.65995 0.37771
 H520 H 0.29739 0.61529 0.34628
 H521 H 0.35025 0.61567 0.29361
 H522 H 0.38529 0.65090 0.29416
 H523 H 0.38499 0.70326 0.34749
 H524 H 0.34973 0.70294 0.38259
 H525 H 0.29721 0.65012 0.38192
 C526 C 0.32747 0.13245 0.84299
 C527 C 0.32749 0.15007 0.86022
 C528 C 0.34523 0.16659 0.86071
 C529 C 0.36320 0.16570 0.84386
 C530 C 0.36316 0.14831 0.82687
 C531 C 0.34521 0.13155 0.82647
 C532 C 0.31195 0.11473 0.83771
 N533 N 0.31991 0.10311 0.81835
 C534 C 0.34025 0.11329 0.81146
 C535 C 0.38189 0.15236 0.81222
 N536 N 0.39334 0.17186 0.81988
 C537 C 0.38205 0.18003 0.83927
 C538 C 0.34016 0.18206 0.87865
 N539 N 0.31976 0.17527 0.88902
 C540 C 0.31195 0.15576 0.87780
 H541 H 0.29601 0.11092 0.84723
 H542 H 0.35046 0.10803 0.79628
 H543 H 0.38642 0.14199 0.79694
 H544 H 0.38689 0.19565 0.84898
 H545 H 0.35038 0.19735 0.88327
 H546 H 0.29586 0.14659 0.88192
 C547 C 0.82530 0.63660 0.84094
 C548 C 0.82531 0.65388 0.85859
 C549 C 0.84249 0.67096 0.85870
 C550 C 0.85985 0.67104 0.84132
 C551 C 0.85990 0.65406 0.82396
 C552 C 0.84247 0.63671 0.82375
 C553 C 0.81024 0.61843 0.83576
 N554 N 0.81790 0.60753 0.81585
 C555 C 0.83757 0.61866 0.80845
 C556 C 0.87815 0.65914 0.80895
 N557 N 0.88912 0.67883 0.81688
 C558 C 0.87797 0.68617 0.83663
 C559 C 0.83769 0.68598 0.87698
 N560 N 0.81805 0.67852 0.88809
 C561 C 0.81029 0.65883 0.87694
 H562 H 0.79465 0.61401 0.84559
 H563 H 0.84738 0.61415 0.79277
 H564 H 0.88255 0.64947 0.79317
 H565 H 0.88250 0.70171 0.84663
 H566 H 0.84754 0.70154 0.88165
 H567 H 0.79463 0.64910 0.88128
 C568 C 0.82937 0.13761 0.34186
 C569 C 0.82924 0.15503 0.35930
 C570 C 0.84622 0.17230 0.35928
 C571 C 0.86361 0.17239 0.34187
 C572 C 0.86372 0.15524 0.32464
 C573 C 0.84647 0.13772 0.32464
 C574 C 0.81441 0.11934 0.33694
 N575 N 0.82203 0.10831 0.31711
 C576 C 0.84160 0.11950 0.30949
 C577 C 0.88184 0.16032 0.30953
 N578 N 0.89277 0.18005 0.31718
 C579 C 0.88168 0.18759 0.33699
 C580 C 0.84110 0.18744 0.37742
 N581 N 0.82148 0.17980 0.38848
 C582 C 0.81407 0.15993 0.37747
 H583 H 0.79884 0.11498 0.34684
 H584 H 0.85133 0.11494 0.29379
 H585 H 0.88652 0.15059 0.29385
 H586 H 0.88586 0.20323 0.34691
 H587 H 0.85069 0.20318 0.38199
 H588 H 0.79851 0.15001 0.38176
 C589 C 0.67532 0.36132 0.34344
 C590 C 0.67533 0.34369 0.36053
 C591 C 0.65777 0.32700 0.36073
 C592 C 0.63994 0.32771 0.34373
 C593 C 0.63992 0.34517 0.32688
 C594 C 0.65773 0.36211 0.32674
 C595 C 0.69079 0.37905 0.33841
 N596 N 0.68306 0.39065 0.31911
 C597 C 0.66279 0.38038 0.31181
 C598 C 0.62124 0.34098 0.31217
 N599 N 0.60996 0.32140 0.31954
 C600 C 0.62128 0.31317 0.33892
 C601 C 0.66284 0.31158 0.37862
 N602 N 0.68306 0.31859 0.38925
 C603 C 0.69078 0.33816 0.37822
 H604 H 0.70682 0.38299 0.34784
 H605 H 0.65270 0.38523 0.29647
 H606 H 0.61646 0.35116 0.29685
 H607 H 0.61670 0.29764 0.34873
 H608 H 0.65275 0.29617 0.38302
 H609 H 0.70674 0.34750 0.38255
 C610 C 0.67319 0.86029 0.84396
 C611 C 0.67324 0.84250 0.86092
 C612 C 0.65546 0.82604 0.86125
 C613 C 0.63738 0.82715 0.84454
 C614 C 0.63735 0.84471 0.82782
 C615 C 0.65536 0.86142 0.82754
 C616 C 0.68874 0.87797 0.83886
 N617 N 0.68080 0.88984 0.81980
 C618 C 0.66034 0.87979 0.81272
 C619 C 0.61849 0.84080 0.81326
 N620 N 0.60706 0.82133 0.82066
 C621 C 0.61852 0.81284 0.83985
 C622 C 0.66055 0.81040 0.87895
 N623 N 0.68101 0.81703 0.88933
 C624 C 0.68885 0.83660 0.87834
 H625 H 0.70492 0.88171 0.84810
 H626 H 0.65000 0.88491 0.79764
 H627 H 0.61373 0.85107 0.79799
 H628 H 0.61407 0.79711 0.84941
 H629 H 0.65030 0.79511 0.88340
 H630 H 0.70498 0.84569 0.88254
 C631 C 0.17148 0.35996 0.84670
 C632 C 0.17159 0.34175 0.86322
 C633 C 0.15436 0.32472 0.86252
 C634 C 0.13677 0.32566 0.84530
 C635 C 0.13669 0.34361 0.82902
 C636 C 0.15414 0.36089 0.82973
 C637 C 0.18659 0.37826 0.84248
 N638 N 0.17885 0.39030 0.82344
 C639 C 0.15896 0.37973 0.81550
 C640 C 0.11838 0.33950 0.81382
 N641 N 0.10730 0.31955 0.82046
 C642 C 0.11847 0.31093 0.83975
 C643 C 0.15941 0.30879 0.87992
 N644 N 0.17923 0.31571 0.89119
 C645 C 0.18682 0.33591 0.88103
 H646 H 0.20236 0.38231 0.85229
 H647 H 0.14895 0.38480 0.80018
 H648 H 0.11369 0.35001 0.79870
 H649 H 0.11421 0.29486 0.84881
 H650 H 0.14960 0.29306 0.88388
 H651 H 0.20247 0.34553 0.88571
 C652 C 0.17449 0.86149 0.34587
 C653 C 0.17458 0.84374 0.36284
 C654 C 0.15727 0.82679 0.36273
 C655 C 0.13963 0.82735 0.34556
 C656 C 0.13955 0.84485 0.32876
 C657 C 0.15710 0.86209 0.32894
 C658 C 0.18973 0.87953 0.34119
 N659 N 0.18206 0.89117 0.32189
 C660 C 0.16206 0.88057 0.31422
 C661 C 0.12118 0.84031 0.31374
 N662 N 0.11009 0.82057 0.32097
 C663 C 0.12130 0.81249 0.34047
 C664 C 0.16240 0.81125 0.38050
 N665 N 0.18243 0.81844 0.39135
 C666 C 0.18995 0.83825 0.38060
 H667 H 0.20554 0.88368 0.35088
 H668 H 0.15209 0.88538 0.29880
 H669 H 0.11649 0.85039 0.29832
 H670 H 0.11705 0.79669 0.35000
 H671 H 0.15254 0.79562 0.38462
 H672 H 0.20576 0.84774 0.38514
 O673 O 0.25306 1.02382 0.22366
 O674 O 0.22166 0.97839 0.25690
 O675 O 0.22103 1.02408 0.25618
 O676 O 0.25423 0.97824 0.22495
 O677 O 0.28151 0.97951 0.25249
 O678 O 0.24836 1.02539 0.28367
 O679 O 0.24886 0.97966 0.28451
 O680 O 0.28039 1.02515 0.25116
 Cu681 Cu 0.23475 1.00101 0.23768
 Cu682 Cu 0.26750 1.00253 0.27074
 C683 C 0.27201 1.03228 0.23173
 C684 C 0.22995 0.97119 0.27632
 C685 C 0.22911 1.03265 0.27517
 C686 C 0.27352 0.97103 0.23344
 O687 O 0.24375 0.52515 0.78640
 O688 O 0.27621 0.48080 0.75271
 O689 O 0.27485 0.52625 0.75302
 O690 O 0.24492 0.47952 0.78595
 O691 O 0.21678 0.47889 0.75927
 O692 O 0.24678 0.52549 0.72627
 O693 O 0.24806 0.47984 0.72605
 O694 O 0.21563 0.52457 0.75970
 Cu695 Cu 0.26274 0.50299 0.77222
 Cu696 Cu 0.22896 0.50214 0.74015
 C697 C 0.22423 0.53252 0.77875
 C698 C 0.26771 0.47272 0.73373
 C699 C 0.26592 0.53382 0.73402
 C700 C 0.22579 0.47118 0.77817
 O701 O 0.74684 -0.02404 0.21905
 O702 O 0.78095 0.02134 0.24987
 O703 O 0.78015 -0.02433 0.25028
 O704 O 0.74698 0.02162 0.21932
 O705 O 0.72081 0.02181 0.24793
 O706 O 0.75412 -0.02378 0.27900
 O707 O 0.75478 0.02189 0.27846
 O708 O 0.72081 -0.02386 0.24777
 Cu709 Cu 0.76635 -0.00138 0.23175
 Cu710 Cu 0.73502 -0.00094 0.26617
 C711 C 0.72809 -0.03179 0.22820
 C712 C 0.77365 0.02945 0.26933
 C713 C 0.77273 -0.03194 0.26988
 C714 C 0.72824 0.02957 0.22841
 O715 O 0.71791 0.52132 0.74458
 O716 O 0.75068 0.47564 0.77651
 O717 O 0.75089 0.52134 0.77615
 O718 O 0.71694 0.47554 0.74560
 O719 O 0.74342 0.47454 0.71730
 O720 O 0.77724 0.52061 0.74774
 O721 O 0.77707 0.47496 0.74812
 O722 O 0.74423 0.52020 0.71613
 Cu723 Cu 0.73144 0.49853 0.76355
 Cu724 Cu 0.76312 0.49750 0.72947
 C725 C 0.72561 0.52861 0.72493
 C726 C 0.76947 0.46750 0.76768
 C727 C 0.76979 0.52887 0.76711
 C728 C 0.72444 0.46712 0.72633
 O729 O 0.25373 0.47753 0.27468
 O730 O 0.22186 0.52385 0.24284
 O731 O 0.22158 0.47801 0.24218
 O732 O 0.25432 0.52323 0.27499
 O733 O 0.28157 0.52311 0.24742
 O734 O 0.24887 0.47810 0.21465
 O735 O 0.24913 0.52375 0.21530
 O736 O 0.28100 0.47757 0.24713
 Cu737 Cu 0.23510 0.50065 0.26142
 Cu738 Cu 0.26785 0.50062 0.22836
 C739 C 0.27281 0.46965 0.26629
 C740 C 0.23016 0.53179 0.22370
 C741 C 0.22975 0.47027 0.22286
 C742 C 0.27353 0.53090 0.26672
 O743 O 0.75308 1.02323 0.72313
 O744 O 0.72071 0.97728 0.75504
 O745 O 0.71975 1.02297 0.75437
 O746 O 0.75333 0.97755 0.72311
 O747 O 0.78000 0.97805 0.75127
 O748 O 0.74649 1.02376 0.78246
 O749 O 0.74736 0.97816 0.78321
 O750 O 0.77982 1.02368 0.75123
 Cu751 Cu 0.73403 1.00020 0.73609
 Cu752 Cu 0.76609 1.00098 0.76986
 C753 C 0.77199 1.03128 0.73180
 C754 C 0.72861 0.96987 0.77457
 C755 C 0.72740 1.03117 0.77367
 C756 C 0.77233 0.96997 0.73190
 O757 O 0.75660 0.52248 0.22154
 O758 O 0.72393 0.47718 0.25387
 O759 O 0.72388 0.52292 0.25338
 O760 O 0.75682 0.47679 0.22216
 O761 O 0.78369 0.47728 0.25013
 O762 O 0.75079 0.52324 0.28132
 O763 O 0.75083 0.47770 0.28182
 O764 O 0.78350 0.52286 0.24949
 Cu765 Cu 0.73760 0.49978 0.23492
 Cu766 Cu 0.76990 0.50032 0.26849
 C767 C 0.77560 0.53044 0.23008
 C768 C 0.73187 0.46969 0.27335
 C769 C 0.73181 0.53098 0.27268
 C770 C 0.77586 0.46915 0.23087
 O771 O 0.24992 -0.02369 0.77251
 O772 O 0.21668 0.02264 0.74242
 O773 O 0.21692 -0.02306 0.74096
 O774 O 0.24997 0.02191 0.77373
 O775 O 0.27651 0.02266 0.74549
 O776 O 0.24349 -0.02213 0.71274
 O777 O 0.24329 0.02353 0.71425
 O778 O 0.27652 -0.02298 0.74433
 Cu779 Cu 0.23069 -0.00063 0.76023
 Cu780 Cu 0.26261 0.00034 0.72636
 C781 C 0.26885 -0.03128 0.76354
 C782 C 0.22437 0.03109 0.72329
 C783 C 0.22467 -0.03032 0.72129
 C784 C 0.26886 0.02998 0.76513
 O785 O 0.28055 0.24306 1.02131
 O786 O 0.24687 0.27390 0.97572
 O787 O 0.24762 0.27457 1.02160
 O788 O 0.27957 0.24212 0.97543
 O789 O 0.25282 0.21419 0.97667
 O790 O 0.22063 0.24685 1.02222
 O791 O 0.22009 0.24598 0.97641
 O792 O 0.25353 0.21539 1.02253
 Cu793 Cu 0.26635 0.26120 0.99841
 Cu794 Cu 0.23409 0.22780 0.99953
 C795 C 0.27273 0.22408 1.02982
 C796 C 0.22778 0.26518 0.96823
 C797 C 0.22867 0.26618 1.02978
 C798 C 0.27159 0.22259 0.96820
 O799 O 0.22243 0.75062 0.52275
 O800 O 0.25486 0.71887 0.47656
 O801 O 0.25470 0.71838 0.52253
 O802 O 0.22273 0.75119 0.47689
 O803 O 0.25007 0.77858 0.47771
 O804 O 0.28218 0.74562 0.52283
 O805 O 0.28218 0.74627 0.47711
 O806 O 0.25001 0.77777 0.52346
 Cu807 Cu 0.23592 0.73199 0.49963
 Cu808 Cu 0.26885 0.76479 0.50032
 C809 C 0.23076 0.76959 0.53102
 C810 C 0.27401 0.72725 0.46890
 C811 C 0.27389 0.72648 0.53048
 C812 C 0.23100 0.77051 0.46954
 O813 O 0.27825 0.75983 -0.02407
 O814 O 0.24813 0.72670 0.02234
 O815 O 0.24614 0.72747 -0.02341
 O816 O 0.27948 0.75976 0.02187
 O817 O 0.25183 0.78679 0.02283
 O818 O 0.21833 0.75432 -0.02190
 O819 O 0.22049 0.75371 0.02387
 O820 O 0.25046 0.78670 -0.02303
 Cu821 Cu 0.26581 0.74076 -0.00096
 Cu822 Cu 0.23251 0.77310 0.00056
 C823 C 0.26945 0.77882 -0.03158
 C824 C 0.22925 0.73456 0.03108
 C825 C 0.22651 0.73542 -0.03033
 C826 C 0.27123 0.77876 0.03012
 O827 O 0.22436 0.25428 0.47808
 O828 O 0.25754 0.28486 0.52461
 O829 O 0.25769 0.28533 0.47861
 O830 O 0.22369 0.25432 0.52389
 O831 O 0.24984 0.22583 0.52404
 O832 O 0.28391 0.25692 0.47873
 O833 O 0.28370 0.25639 0.52471
 O834 O 0.25056 0.22583 0.47815
 Cu835 Cu 0.23823 0.27258 0.50130
 Cu836 Cu 0.26964 0.23840 0.50142
 C837 C 0.23185 0.23486 0.47014
 C838 C 0.27619 0.27576 0.53271
 C839 C 0.27651 0.27633 0.47081
 C840 C 0.23095 0.23484 0.53171
 O841 O 0.75322 0.71828 0.97593
 O842 O 0.72044 0.75000 1.02173
 O843 O 0.72103 0.75054 0.97584
 O844 O 0.75358 0.71865 1.02195
 O845 O 0.78064 0.74631 1.02185
 O846 O 0.74793 0.77835 0.97653
 O847 O 0.74756 0.77760 1.02232
 O848 O 0.78012 0.74609 0.97605
 Cu849 Cu 0.73437 0.73156 0.99885
 Cu850 Cu 0.76677 0.76485 0.99920
 C851 C 0.77219 0.72686 0.96807
 C852 C 0.72840 0.76911 1.02990
 C853 C 0.72902 0.76994 0.96836
 C854 C 0.77268 0.72715 1.02976
 O855 O 0.78089 0.24472 0.52216
 O856 O 0.75004 0.27851 0.47655
 O857 O 0.74956 0.27768 0.52237
 O858 O 0.78225 0.24625 0.47643
 O859 O 0.75457 0.21924 0.47493
 O860 O 0.72176 0.25078 0.52102
 O861 O 0.72239 0.25148 0.47516
 O862 O 0.75319 0.21773 0.52074
 Cu863 Cu 0.76846 0.26450 0.49950
 Cu864 Cu 0.73518 0.23210 0.49783
 C865 C 0.77223 0.22548 0.52927
 C866 C 0.73099 0.27072 0.46804
 C867 C 0.73017 0.26959 0.52960
 C868 C 0.77402 0.22745 0.46781
 O869 O 0.77999 0.25507 -0.02323
 O870 O 0.74972 0.22087 0.02241
 O871 O 0.74908 0.22165 -0.02344
 O872 O 0.78047 0.25452 0.02262
 O873 O 0.75200 0.28068 0.02342
 O874 O 0.72059 0.24780 -0.02265
 O875 O 0.72126 0.24705 0.02318
 O876 O 0.75156 0.28127 -0.02245
 Cu877 Cu 0.76768 0.23540 -0.00048
 Cu878 Cu 0.73349 0.26683 0.00045
 C879 C 0.77090 0.27395 -0.03069
 C880 C 0.73037 0.22816 0.03063
 C881 C 0.72953 0.22915 -0.03094
 C882 C 0.77154 0.27317 0.03093
 O883 O 0.77993 0.75197 0.47723
 O884 O 0.74806 0.72063 0.52376
 O885 O 0.74781 0.71968 0.47801
 O886 O 0.78005 0.75306 0.52297
 O887 O 0.75255 0.78026 0.52278
 O888 O 0.72034 0.74690 0.47748
 O889 O 0.72052 0.74779 0.52348
 O890 O 0.75252 0.77924 0.47676
 Cu891 Cu 0.76671 0.73362 0.50054
 Cu892 Cu 0.73371 0.76629 0.50008
 C893 C 0.77166 0.77087 0.46899
 C894 C 0.72893 0.72885 0.53162
 C895 C 0.72866 0.72762 0.46999
 C896 C 0.77179 0.77226 0.53063
 O897 O 1.02556 0.27885 0.24615
 O898 O 0.97971 0.24635 0.27831
 O899 O 1.02540 0.24797 0.27978
 O900 O 0.97983 0.27837 0.24584
 O901 O 0.98061 0.25031 0.21904
 O902 O 1.02682 0.22012 0.25277
 O903 O 0.98120 0.21828 0.25153
 O904 O 1.02623 0.25093 0.21919
 Cu905 Cu 1.00251 0.26569 0.26522
 Cu906 Cu 1.00383 0.23211 0.23295
 C907 C 1.03370 0.27032 0.22714
 C908 C 0.97264 0.22676 0.27030
 C909 C 1.03401 0.22898 0.27202
 C910 C 0.97234 0.26951 0.22675
 O911 O 0.52031 0.27388 0.74339
 O912 O 0.47512 0.24184 0.77592
 O913 O 0.52081 0.24334 0.77733
 O914 O 0.47497 0.26982 0.73988
 O915 O 0.47825 0.24034 0.71485
 O916 O 0.52343 0.21391 0.75220
 O917 O 0.47781 0.21227 0.75093
 O918 O 0.52371 0.24443 0.71834
 Cu919 Cu 0.49749 0.26016 0.76163
 Cu920 Cu 0.50110 0.22479 0.73158
 C921 C 0.52982 0.26470 0.72546
 C922 C 0.46864 0.22173 0.76902
 C923 C 0.52997 0.22403 0.77100
 C924 C 0.46881 0.25949 0.72098
 O925 O 0.02034 0.25086 0.71836
 O926 O -0.02558 0.28149 0.75195
 O927 O 0.02006 0.28240 0.75150
 O928 O -0.02533 0.24993 0.71889
 O929 O -0.02443 0.22199 0.74567
 O930 O 0.02092 0.25452 0.77833
 O931 O -0.02478 0.25360 0.77877
 O932 O 0.02127 0.22301 0.74522
 Cu933 Cu -0.00271 0.26896 0.73248
 Cu934 Cu -0.00167 0.23547 0.76469
 C935 C 0.02871 0.23178 0.72610
 C936 C -0.03309 0.27272 0.77104
 C937 C 0.02829 0.27397 0.77042
 C938 C -0.03268 0.23049 0.72675
 O939 O 0.52453 0.25481 0.27765
 O940 O 0.47842 0.22229 0.24602
 O941 O 0.52418 0.22211 0.24563
 O942 O 0.47879 0.25528 0.27768
 O943 O 0.47910 0.28218 0.24984
 O944 O 0.52400 0.24889 0.21766
 O945 O 0.47844 0.24920 0.21818
 O946 O 0.52474 0.28152 0.24963
 Cu947 Cu 0.50148 0.23592 0.26456
 Cu948 Cu 0.50157 0.26814 0.23104
 C949 C 0.53258 0.27365 0.26895
 C950 C 0.47051 0.23028 0.22675
 C951 C 0.53183 0.22992 0.22616
 C952 C 0.47118 0.27438 0.26914
 O953 O 1.02198 0.77802 0.74535
 O954 O 0.97623 0.74666 0.77844
 O955 O 1.02186 0.74674 0.77856
 O956 O 0.97631 0.77858 0.74587
 O957 O 0.97600 0.75073 0.71881
 O958 O 1.02160 0.71887 0.75154
 O959 O 0.97592 0.71884 0.75136
 O960 O 1.02156 0.75014 0.71833
 Cu961 Cu 0.99913 0.76530 0.76477
 Cu962 Cu 0.99875 0.73183 0.73231
 C963 C 1.02958 0.76936 0.72619
 C964 C 0.96822 0.72745 0.77048
 C965 C 1.02954 0.72741 0.77059
 C966 C 0.96834 0.77005 0.72680
 O967 O 0.52435 0.72098 0.25241
 O968 O 0.47855 0.75257 0.21970
 O969 O 0.52423 0.75320 0.22009
 O970 O 0.47862 0.72077 0.25241
 O971 O 0.47855 0.74824 0.27985
 O972 O 0.52369 0.78080 0.24740
 O973 O 0.47806 0.78002 0.24715
 O974 O 0.52417 0.74865 0.27964
 Cu975 Cu 0.50147 0.73410 0.23340
 Cu976 Cu 0.50107 0.76719 0.26625
 C977 C 0.53217 0.72951 0.27154
 C978 C 0.47042 0.77161 0.22788
 C979 C 0.53176 0.77253 0.22831
 C980 C 0.47079 0.72905 0.27164
 O981 O -0.02285 0.78093 0.25346
 O982 O 0.02373 0.74917 0.22152
 O983 O -0.02193 0.74948 0.22026
 O984 O 0.02285 0.78213 0.25324
 O985 O 0.02331 0.75463 0.28048
 O986 O -0.02242 0.72228 0.24780
 O987 O 0.02326 0.72167 0.24876
 O988 O -0.02239 0.75375 0.28102
 Cu989 Cu 0.00046 0.76817 0.23438
 Cu990 Cu 0.00043 0.73534 0.26726
 C991 C -0.03055 0.77265 0.27273
 C992 C 0.03141 0.72996 0.22978
 C993 C -0.02995 0.73045 0.22841
 C994 C 0.03087 0.77394 0.27233
 O995 O 0.52056 0.75519 0.78093
 O996 O 0.47582 0.72055 0.74987
 O997 O 0.52149 0.72157 0.74999
 O998 O 0.47484 0.75500 0.77993
 O999 O 0.47507 0.78077 0.75104
 O1000 O 0.52133 0.74726 0.72103
 O1001 O 0.47565 0.74634 0.72098
 O1002 O 0.52076 0.78089 0.75196
 Cu1003 Cu 0.49817 0.73551 0.76809
 Cu1004 Cu 0.49820 0.76639 0.73335
 C1005 C 0.52843 0.77384 0.77169
 C1006 C 0.46802 0.72756 0.73021
 C1007 C 0.52940 0.72878 0.73042
 C1008 C 0.46696 0.77357 0.77050
 C1009 C 0.41082 0.31023 0.30441
 C1010 C 0.42328 0.29248 0.31352
 C1011 C 0.44249 0.28015 0.30108
 C1012 C 0.45278 0.28780 0.28133
 H1013 H 0.41900 0.28587 0.33078
 H1014 H 0.44843 0.26393 0.30891
 H1015 H 0.41474 0.31667 0.28700
 H1016 H 0.44773 0.30425 0.27346
 C1017 C 0.40712 0.81146 0.80535
 C1018 C 0.41802 0.79226 0.81364
 C1019 C 0.43784 0.78015 0.80190
 C1020 C 0.44802 0.78704 0.78179
 H1021 H 0.41220 0.78427 0.82981
 H1022 H 0.44408 0.76439 0.81041
 H1023 H 0.41310 0.81935 0.78918
 H1024 H 0.44237 0.80268 0.77281
 C1025 C -0.09174 0.30983 0.80885
 C1026 C -0.08119 0.31693 0.78894
 C1027 C -0.06162 0.30454 0.77709
 C1028 C -0.05181 0.28448 0.78444
 H1029 H -0.08706 0.33261 0.78016
 H1030 H -0.05531 0.31251 0.76102
 H1031 H -0.08560 0.29421 0.81760
 H1032 H -0.05760 0.27598 0.80035
 C1033 C -0.09099 0.80822 0.30868
 C1034 C -0.07974 0.81611 0.28944
 C1035 C -0.06006 0.80388 0.27760
 C1036 C -0.04933 0.78465 0.28580
 H1037 H -0.08526 0.83216 0.28112
 H1038 H -0.05429 0.81129 0.26106
 H1039 H -0.08547 0.79201 0.31672
 H1040 H -0.05435 0.77695 0.30237
 C1041 C 0.58890 0.69071 0.30992
 C1042 C 0.58007 0.68498 0.28876
 C1043 C 0.56035 0.69726 0.27713
 C1044 C 0.55092 0.71749 0.28459
 H1045 H 0.58757 0.67058 0.27898
 H1046 H 0.55391 0.68938 0.26101
 H1047 H 0.58129 0.70488 0.31996
 H1048 H 0.55726 0.72612 0.30028
 C1049 C 0.58861 0.18946 0.81153
 C1050 C 0.57810 0.18141 0.79192
 C1051 C 0.55864 0.19309 0.77937
 C1052 C 0.54857 0.21346 0.78553
 H1053 H 0.58392 0.16529 0.78387
 H1054 H 0.55260 0.18417 0.76364
 H1055 H 0.58246 0.20549 0.81958
 H1056 H 0.55403 0.22290 0.80110
 C1057 C 1.08636 0.69061 0.81091
 C1058 C 1.07642 0.71117 0.81678
 C1059 C 1.05713 0.72251 0.80357
 C1060 C 1.04805 0.71463 0.78324
 H1061 H 1.08251 0.72076 0.83199
 H1062 H 1.05051 0.73869 0.81102
 H1063 H 1.07988 0.68097 0.79588
 H1064 H 1.05430 0.69871 0.77512
 C1065 C 1.09401 0.19445 0.30975
 C1066 C 1.08307 0.18617 0.29043
 C1067 C 1.06352 0.19806 0.27811
 C1068 C 1.05270 0.21752 0.28567
 H1069 H 1.08876 0.16999 0.28241
 H1070 H 1.05795 0.19013 0.26170
 H1071 H 1.08830 0.21076 0.31752
 H1072 H 1.05755 0.22576 0.30209
 C1073 C 0.59061 0.30087 0.69172
 C1074 C 0.57958 0.28194 0.68297
 C1075 C 0.56051 0.26924 0.69521
 C1076 C 0.54822 0.27803 0.71327
 H1077 H 0.58500 0.27463 0.66630
 H1078 H 0.55627 0.25194 0.68858
 H1079 H 0.58571 0.30779 0.70873
 H1080 H 0.55154 0.29556 0.71968
 C1081 C 0.58962 0.80991 0.19009
 C1082 C 0.57944 0.78971 0.18331
 C1083 C 0.56002 0.77795 0.19597
 C1084 C 0.55024 0.78566 0.21601
 H1085 H 0.58555 0.78065 0.16779
 H1086 H 0.55385 0.76166 0.18833
 H1087 H 0.58325 0.81896 0.20552
 H1088 H 0.55591 0.80177 0.22421
 C1089 C 1.09256 0.30701 0.19001
 C1090 C 1.08166 0.31481 0.20952
 C1091 C 1.06222 0.30241 0.22160
 C1092 C 1.05220 0.28254 0.21393
 H1093 H 1.08723 0.33093 0.21779
 H1094 H 1.05615 0.31016 0.23791
 H1095 H 1.08693 0.29083 0.18191
 H1096 H 1.05763 0.27436 0.19770
 C1097 C 1.08895 0.80521 0.68925
 C1098 C 1.07699 0.81387 0.70766
 C1099 C 1.05805 0.80128 0.72021
 C1100 C 1.04800 0.78137 0.71270
 H1101 H 1.08136 0.83097 0.71456
 H1102 H 1.05206 0.80919 0.73648
 H1103 H 1.08489 0.78801 0.68241
 H1104 H 1.05314 0.77334 0.69628
 C1105 C 0.40865 0.68972 0.69488
 C1106 C 0.42080 0.70771 0.68579
 C1107 C 0.43993 0.72036 0.69806
 C1108 C 0.44973 0.71365 0.71840
 H1109 H 0.41637 0.71427 0.66855
 H1110 H 0.44614 0.73618 0.68961
 H1111 H 0.41287 0.68310 0.71215
 H1112 H 0.44432 0.69772 0.72704
 C1113 C 0.41011 0.19352 0.19217
 C1114 C 0.42223 0.18554 0.21075
 C1115 C 0.44164 0.19838 0.22240
 C1116 C 0.45178 0.21784 0.21398
 H1117 H 0.41763 0.16890 0.21847
 H1118 H 0.44785 0.19111 0.23885
 H1119 H 0.41445 0.21024 0.18447
 H1120 H 0.44641 0.22527 0.19738
 C1121 C -0.08979 0.69448 0.19202
 C1122 C -0.07783 0.68602 0.21051
 C1123 C -0.05871 0.69862 0.22289
 C1124 C -0.04833 0.71816 0.21501
 H1125 H -0.08241 0.66914 0.21770
 H1126 H -0.05293 0.69109 0.23938
 H1127 H -0.08553 0.71148 0.18493
 H1128 H -0.05327 0.72576 0.19836
 C1129 C -0.08985 0.19111 0.68915
 C1130 C -0.07940 0.18461 0.70934
 C1131 C -0.05996 0.19748 0.72091
 C1132 C -0.05121 0.21807 0.71368
 H1133 H -0.08519 0.16909 0.71846
 H1134 H -0.05298 0.18957 0.73674
 H1135 H -0.08365 0.20643 0.67995
 H1136 H -0.05785 0.22663 0.69815
 C1137 C 0.30838 0.40976 0.30271
 C1138 C 0.29011 0.42195 0.31120
 C1139 C 0.27796 0.44102 0.29838
 C1140 C 0.28583 0.45104 0.27855
 H1141 H 0.28306 0.41768 0.32829
 H1142 H 0.26171 0.44718 0.30605
 H1143 H 0.31532 0.41369 0.28549
 H1144 H 0.30225 0.44574 0.27077
 C1145 C 0.30645 -0.08978 0.80105
 C1146 C 0.28672 -0.07898 0.80818
 C1147 C 0.27486 -0.05967 0.79551
 C1148 C 0.28216 -0.05004 0.77528
 H1149 H 0.27813 -0.08438 0.82418
 H1150 H 0.25888 -0.05326 0.80354
 H1151 H 0.31495 -0.08417 0.78505
 H1152 H 0.29801 -0.05589 0.76674
 C1153 C 0.80770 0.41016 0.80592
 C1154 C 0.78781 0.42065 0.81307
 C1155 C 0.77580 0.43993 0.80042
 C1156 C 0.78275 0.44902 0.77983
 H1157 H 0.77924 0.41502 0.82901
 H1158 H 0.76001 0.44660 0.80859
 H1159 H 0.81628 0.41609 0.79009
 H1160 H 0.79833 0.44277 0.77107
 C1161 C 0.81037 -0.08986 0.30787
 C1162 C 0.79046 -0.07934 0.31488
 C1163 C 0.77895 -0.05965 0.30245
 C1164 C 0.78589 -0.05068 0.28178
 H1165 H 0.78152 -0.08528 0.33050
 H1166 H 0.76337 -0.05268 0.31079
 H1167 H 0.81939 -0.08351 0.29245
 H1168 H 0.80117 -0.05729 0.27279
 C1169 C 0.30444 0.58987 0.69427
 C1170 C 0.31052 0.58108 0.71530
 C1171 C 0.29804 0.56191 0.72756
 C1172 C 0.27759 0.55254 0.72063
 H1173 H 0.32559 0.58804 0.72444
 H1174 H 0.30618 0.55562 0.74356
 H1175 H 0.28955 0.58283 0.68488
 H1176 H 0.26876 0.55864 0.70500
 C1177 C 0.30891 1.09047 0.19351
 C1178 C 0.31613 1.08035 0.21361
 C1179 C 0.30371 1.06106 0.22583
 C1180 C 0.28398 1.05072 0.21822
 H1181 H 0.33184 1.08646 0.22227
 H1182 H 0.31137 1.05537 0.24230
 H1183 H 0.29319 1.08421 0.18497
 H1184 H 0.27584 1.05582 0.20187
 C1185 C 0.81167 0.58962 0.19310
 C1186 C 0.79296 0.57782 0.18498
 C1187 C 0.78109 0.55851 0.19766
 C1188 C 0.78877 0.54885 0.21773
 H1189 H 0.78526 0.58265 0.16833
 H1190 H 0.76497 0.55215 0.18987
 H1191 H 0.81946 0.58498 0.20976
 H1192 H 0.80494 0.55447 0.22582
 C1193 C 0.80879 1.09009 0.69473
 C1194 C 0.78996 1.07844 0.68665
 C1195 C 0.77777 1.05938 0.69942
 C1196 C 0.78521 1.04977 0.71960
 H1197 H 0.78247 1.08311 0.66986
 H1198 H 0.76171 1.05302 0.69149
 H1199 H 0.81638 1.08562 0.71153
 H1200 H 0.80131 1.05540 0.72782
 C1201 C 0.69558 0.59171 0.30685
 C1202 C 0.68703 0.57911 0.28879
 C1203 C 0.69987 0.55985 0.27690
 C1204 C 0.71926 0.54963 0.28542
 H1205 H 0.66994 0.58320 0.28173
 H1206 H 0.69263 0.55374 0.26037
 H1207 H 0.71282 0.58799 0.31372
 H1208 H 0.72651 0.55483 0.30220
 C1209 C 0.68872 1.08894 0.81112
 C1210 C 0.70862 1.07862 0.81847
 C1211 C 0.72083 1.05932 0.80598
 C1212 C 0.71383 1.04965 0.78560
 H1213 H 0.71709 1.08451 0.83441
 H1214 H 0.73682 1.05311 0.81412
 H1215 H 0.68028 1.08280 0.79524
 H1216 H 0.69801 1.05533 0.77693
 C1217 C 0.18645 0.59060 0.81629
 C1218 C 0.17883 0.57926 0.79695
 C1219 C 0.19146 0.55989 0.78505
 C1220 C 0.21189 0.55076 0.79223
 H1221 H 0.16269 0.58447 0.78856
 H1222 H 0.18345 0.55322 0.76909
 H1223 H 0.20255 0.58517 0.82464
 H1224 H 0.22038 0.55682 0.80809
 C1225 C 0.19257 1.09257 0.31130
 C1226 C 0.21227 1.08196 0.31873
 C1227 C 0.22386 1.06206 0.30659
 C1228 C 0.21592 1.05147 0.28702
 H1229 H 0.22112 1.08817 0.33435
 H1230 H 0.24021 1.05620 0.31425
 H1231 H 0.18383 1.08619 0.29568
 H1232 H 0.19966 1.05671 0.27889
 C1233 C 0.68807 0.40628 0.69145
 C1234 C 0.70597 0.41867 0.68249
 C1235 C 0.71814 0.43818 0.69469
 C1236 C 0.71091 0.44836 0.71472
 H1237 H 0.71290 0.41414 0.66540
 H1238 H 0.73404 0.44441 0.68639
 H1239 H 0.68118 0.41055 0.70863
 H1240 H 0.69485 0.44295 0.72316
 C1241 C 0.68906 -0.08889 0.19007
 C1242 C 0.70945 -0.07925 0.18339
 C1243 C 0.72138 -0.05969 0.19574
 C1244 C 0.71458 -0.05040 0.21636
 H1245 H 0.71841 -0.08592 0.16805
 H1246 H 0.73715 -0.05316 0.18743
 H1247 H 0.67980 -0.08210 0.20518
 H1248 H 0.69915 -0.05668 0.22534
 C1249 C 0.19410 0.40952 0.18784
 C1250 C 0.18546 0.42194 0.20598
 C1251 C 0.19792 0.44145 0.21786
 C1252 C 0.21740 0.45177 0.20969
 H1253 H 0.16862 0.41736 0.21330
 H1254 H 0.19043 0.44749 0.23430
 H1255 H 0.21105 0.41379 0.18059
 H1256 H 0.22497 0.44658 0.19307
 C1257 C 0.18719 -0.08927 0.68476
 C1258 C 0.18017 -0.07863 0.70471
 C1259 C 0.19276 -0.05906 0.71639
 C1260 C 0.21217 -0.04870 0.70809
 H1261 H 0.16467 -0.08465 0.71376
 H1262 H 0.18563 -0.05327 0.73308
 H1263 H 0.20270 -0.08312 0.67584
 H1264 H 0.21973 -0.05383 0.69147
 C1265 C 0.31275 0.31154 0.41030
 C1266 C 0.29421 0.31999 0.42212
 C1267 C 0.28247 0.30798 0.44199
 C1268 C 0.28990 0.28809 0.45209
 H1269 H 0.28649 0.33642 0.41683
 H1270 H 0.26651 0.31609 0.44833
 H1271 H 0.32063 0.29515 0.41547
 H1272 H 0.30588 0.27965 0.44647
 C1273 C 0.30442 0.81389 -0.09296
 C1274 C 0.31308 0.79591 -0.08051
 C1275 C 0.30086 0.78426 -0.06075
 C1276 C 0.28107 0.79193 -0.05059
 H1277 H 0.32990 0.78857 -0.08516
 H1278 H 0.30892 0.76833 -0.05434
 H1279 H 0.28755 0.82124 -0.08854
 H1280 H 0.27283 0.80802 -0.05616
 C1281 C 0.80612 0.31114 -0.09059
 C1282 C 0.81483 0.29282 -0.07867
 C1283 C 0.80263 0.28055 -0.05927
 C1284 C 0.78253 0.28760 -0.04927
 H1285 H 0.83170 0.28572 -0.08347
 H1286 H 0.81092 0.26466 -0.05305
 H1287 H 0.78924 0.31833 -0.08596
 H1288 H 0.77400 0.30357 -0.05471
 C1289 C 0.80712 0.80602 0.40806
 C1290 C 0.78870 0.81455 0.42004
 C1291 C 0.77664 0.80220 0.43952
 C1292 C 0.78466 0.78281 0.45011
 H1293 H 0.78143 0.83135 0.41527
 H1294 H 0.76029 0.80982 0.44545
 H1295 H 0.81430 0.78910 0.41251
 H1296 H 0.80117 0.77509 0.44501
 C1297 C 0.68997 0.30748 0.58581
 C1298 C 0.68450 0.28644 0.57670
 C1299 C 0.69709 0.27507 0.55694
 C1300 C 0.71775 0.28230 0.54838
 H1301 H 0.67007 0.27657 0.58392
 H1302 H 0.68915 0.25934 0.54982
 H1303 H 0.70407 0.31766 0.57835
 H1304 H 0.72645 0.29754 0.55553
 C1305 C 0.69178 0.80533 1.08962
 C1306 C 0.71039 0.81367 1.07785
 C1307 C 0.72272 0.80101 1.05870
 C1308 C 0.71508 0.78121 1.04848
 H1309 H 0.71760 0.83054 1.08253
 H1310 H 0.73900 0.80874 1.05274
 H1311 H 0.68458 0.78838 1.08521
 H1312 H 0.69868 0.77331 1.05362
 C1313 C 0.19289 0.30337 1.08947
 C1314 C 0.21142 0.31146 1.07739
 C1315 C 0.22341 0.29858 1.05815
 C1316 C 0.21564 0.27861 1.04837
 H1317 H 0.21882 0.32831 1.08187
 H1318 H 0.23957 0.30624 1.05179
 H1319 H 0.18547 0.28647 1.08525
 H1320 H 0.19938 0.27072 1.05396
 C1321 C 0.18984 0.80863 0.58583
 C1322 C 0.18494 0.78705 0.57777
 C1323 C 0.19772 0.77524 0.55841
 C1324 C 0.21835 0.78244 0.54971
 H1325 H 0.17076 0.77717 0.58549
 H1326 H 0.18993 0.75928 0.55165
 H1327 H 0.20367 0.81880 0.57785
 H1328 H 0.22694 0.79787 0.55659
 C1329 C 0.30918 0.69018 0.59054
 C1330 C 0.29051 0.68198 0.57871
 C1331 C 0.27869 0.69452 0.55922
 C1332 C 0.28688 0.71402 0.54897
 H1333 H 0.28278 0.66546 0.58371
 H1334 H 0.26225 0.68715 0.55320
 H1335 H 0.31693 0.70676 0.58581
 H1336 H 0.30343 0.72159 0.55418
 C1337 C 0.30911 0.19013 1.09076
 C1338 C 0.29082 0.18113 1.07893
 C1339 C 0.27854 0.19303 1.05934
 C1340 C 0.28622 0.21243 1.04852
 H1341 H 0.28374 0.16434 1.08402
 H1342 H 0.26222 0.18514 1.05364
 H1343 H 0.31615 0.20702 1.08595
 H1344 H 0.30268 0.22043 1.05336
 C1345 C 0.80868 0.69262 1.09053
 C1346 C 0.79056 0.68357 1.07843
 C1347 C 0.77818 0.69572 1.05902
 C1348 C 0.78599 0.71514 1.04836
 H1349 H 0.78374 0.66656 1.08313
 H1350 H 0.76182 0.68797 1.05327
 H1351 H 0.81537 0.70977 1.08619
 H1352 H 0.80254 0.72292 1.05325
 C1353 C 0.80775 0.18852 0.58911
 C1354 C 0.81632 0.20691 0.57722
 C1355 C 0.80396 0.21922 0.55796
 C1356 C 0.78406 0.21187 0.54776
 H1357 H 0.83317 0.21412 0.58199
 H1358 H 0.81197 0.23534 0.55197
 H1359 H 0.79084 0.18129 0.58458
 H1360 H 0.77587 0.19561 0.55291
 C1361 C 0.69338 0.69157 0.40956
 C1362 C 0.68439 0.70953 0.42190
 C1363 C 0.69682 0.72192 0.44117
 C1364 C 0.71640 0.71414 0.45162
 H1365 H 0.66728 0.71629 0.41746
 H1366 H 0.68917 0.73830 0.44698
 H1367 H 0.71064 0.68499 0.41363
 H1368 H 0.72407 0.69754 0.44672
 C1369 C 0.69009 0.18955 -0.08658
 C1370 C 0.68426 0.21066 -0.07792
 C1371 C 0.69671 0.22264 -0.05842
 C1372 C 0.71748 0.21593 -0.04965
 H1373 H 0.66957 0.22004 -0.08528
 H1374 H 0.68848 0.23834 -0.05159
 H1375 H 0.70450 0.17988 -0.07903
 H1376 H 0.72649 0.20074 -0.05649
 C1377 C 0.18880 0.69791 -0.08864
 C1378 C 0.20774 0.68998 -0.07711
 C1379 C 0.22050 0.70314 -0.05860
 C1380 C 0.21283 0.72291 -0.04839
 H1381 H 0.21498 0.67307 -0.08157
 H1382 H 0.23708 0.69577 -0.05303
 H1383 H 0.18166 0.71495 -0.08452
 H1384 H 0.19611 0.73041 -0.05309
 C1385 C 0.19486 0.19833 0.41043
 C1386 C 0.21356 0.19023 0.42223
 C1387 C 0.22568 0.20279 0.44161
 C1388 C 0.21853 0.22304 0.45129
 H1389 H 0.22102 0.17349 0.41746
 H1390 H 0.24151 0.19462 0.44815
 H1391 H 0.18731 0.21507 0.41504
 H1392 H 0.20268 0.23155 0.44545
 C1393 C 0.30328 0.41277 0.69850
 C1394 C 0.28538 0.42483 0.68918
 C1395 C 0.27271 0.44371 0.70181
 C1396 C 0.28107 0.45476 0.72092
 H1397 H 0.27905 0.42046 0.67179
 H1398 H 0.25584 0.44877 0.69473
 H1399 H 0.30925 0.41666 0.71613
 H1400 H 0.29825 0.45071 0.72779
 C1401 C 0.31032 0.91167 0.19674
 C1402 C 0.29155 0.92335 0.18866
 C1403 C 0.27934 0.94243 0.20143
 C1404 C 0.28694 0.95251 0.22138
 H1405 H 0.28404 0.91862 0.17187
 H1406 H 0.26310 0.94843 0.19364
 H1407 H 0.31786 0.91616 0.21359
 H1408 H 0.30329 0.94731 0.22939
 C1409 C 0.81274 0.40985 0.19416
 C1410 C 0.79392 0.42146 0.18608
 C1411 C 0.78179 0.44068 0.19873
 C1412 C 0.78917 0.45053 0.21887
 H1413 H 0.78632 0.41658 0.16937
 H1414 H 0.76574 0.44694 0.19073
 H1415 H 0.82042 0.41454 0.21089
 H1416 H 0.80527 0.44500 0.22716
 C1417 C 0.80946 0.91124 0.69449
 C1418 C 0.79034 0.92257 0.68678
 C1419 C 0.77838 0.94184 0.69952
 C1420 C 0.78572 0.95145 0.71982
 H1421 H 0.78238 0.91744 0.67031
 H1422 H 0.76239 0.94823 0.69153
 H1423 H 0.81758 0.91626 0.71090
 H1424 H 0.80169 0.94573 0.72820
 C1425 C 0.69112 0.59033 0.69108
 C1426 C 0.68220 0.57792 0.70901
 C1427 C 0.69447 0.55829 0.72078
 C1428 C 0.71329 0.54724 0.71202
 H1429 H 0.66536 0.58262 0.71627
 H1430 H 0.68735 0.55272 0.73752
 H1431 H 0.70820 0.58602 0.68410
 H1432 H 0.72032 0.55190 0.69502
 C1433 C 0.69101 0.08873 0.19225
 C1434 C 0.70979 0.07718 0.18396
 C1435 C 0.72189 0.05779 0.19628
 C1436 C 0.71484 0.04817 0.21659
 H1437 H 0.71735 0.08222 0.16732
 H1438 H 0.73771 0.05132 0.18798
 H1439 H 0.68328 0.08381 0.20885
 H1440 H 0.69904 0.05397 0.22526
 C1441 C 0.19510 0.59351 0.18994
 C1442 C 0.18643 0.58095 0.20789
 C1443 C 0.19875 0.56117 0.21938
 C1444 C 0.21809 0.55074 0.21098
 H1445 H 0.16962 0.58554 0.21531
 H1446 H 0.19120 0.55495 0.23569
 H1447 H 0.21203 0.58923 0.18263
 H1448 H 0.22573 0.55611 0.19447
 C1449 C 0.18820 0.09202 0.68901
 C1450 C 0.20678 0.08040 0.68038
 C1451 C 0.21860 0.06050 0.69216
 C1452 C 0.21111 0.05006 0.71190
 H1453 H 0.21447 0.08584 0.66392
 H1454 H 0.23458 0.05435 0.68393
 H1455 H 0.18037 0.08673 0.70545
 H1456 H 0.19508 0.05549 0.72040
 C1457 C 0.31002 0.58991 0.30393
 C1458 C 0.29127 0.57823 0.31204
 C1459 C 0.27908 0.55916 0.29916
 C1460 C 0.28684 0.54917 0.27924
 H1461 H 0.28378 0.58298 0.32883
 H1462 H 0.26274 0.55317 0.30674
 H1463 H 0.31753 0.58542 0.28708
 H1464 H 0.30328 0.55437 0.27145
 C1465 C 0.30913 0.08385 0.80608
 C1466 C 0.28767 0.07582 0.81144
 C1467 C 0.27548 0.05676 0.79860
 C1468 C 0.28222 0.04821 0.77766
 H1469 H 0.27816 0.08337 0.82602
 H1470 H 0.25960 0.05015 0.80663
 H1471 H 0.31895 0.07601 0.79185
 H1472 H 0.29756 0.05493 0.76885
 C1473 C 0.80725 0.58827 0.80339
 C1474 C 0.78833 0.57686 0.81150
 C1475 C 0.77616 0.55749 0.79906
 C1476 C 0.78333 0.54754 0.77887
 H1477 H 0.78071 0.58200 0.82812
 H1478 H 0.76020 0.55127 0.80723
 H1479 H 0.81500 0.58327 0.78679
 H1480 H 0.79929 0.55308 0.77035
 C1481 C 0.81130 0.08898 0.30487
 C1482 C 0.79274 0.07733 0.31349
 C1483 C 0.78036 0.05799 0.30126
 C1484 C 0.78734 0.04799 0.28105
 H1485 H 0.78554 0.08231 0.33034
 H1486 H 0.76446 0.05182 0.30959
 H1487 H 0.81864 0.08416 0.28803
 H1488 H 0.80329 0.05342 0.27244
 C1489 C 0.69567 0.40962 0.30834
 C1490 C 0.68705 0.42201 0.29026
 C1491 C 0.69984 0.44110 0.27819
 C1492 C 0.71934 0.45137 0.28646
 H1493 H 0.67000 0.41776 0.28318
 H1494 H 0.69250 0.44699 0.26165
 H1495 H 0.71288 0.41349 0.31523
 H1496 H 0.72669 0.44640 0.30323
 C1497 C 0.69326 0.90895 0.80909
 C1498 C 0.68447 0.92143 0.79113
 C1499 C 0.69704 0.94071 0.77913
 C1500 C 0.71628 0.95131 0.78756
 H1501 H 0.66743 0.91710 0.78407
 H1502 H 0.68971 0.94650 0.76256
 H1503 H 0.71051 0.91287 0.81588
 H1504 H 0.72356 0.94644 0.80440
 C1505 C 0.19100 0.40998 0.81341
 C1506 C 0.18220 0.42248 0.79548
 C1507 C 0.19433 0.44220 0.78377
 C1508 C 0.21428 0.45217 0.79130
 H1509 H 0.16530 0.41794 0.78824
 H1510 H 0.18609 0.44874 0.76792
 H1511 H 0.20794 0.41432 0.82070
 H1512 H 0.22271 0.44645 0.80729
 C1513 C 0.19443 0.91051 0.31148
 C1514 C 0.18581 0.92286 0.29338
 C1515 C 0.19832 0.94226 0.28150
 C1516 C 0.21787 0.95262 0.28957
 H1517 H 0.16891 0.91835 0.28611
 H1518 H 0.19071 0.94825 0.26512
 H1519 H 0.21146 0.91472 0.31866
 H1520 H 0.22557 0.94752 0.30615
 C1521 C 0.40848 0.31753 0.70237
 C1522 C 0.42004 0.29809 0.69627
 C1523 C 0.43909 0.28917 0.71128
 C1524 C 0.45037 0.26940 0.70586
 H1525 H 0.41533 0.28850 0.68052
 H1526 H 0.44366 0.29869 0.72717
 H1527 H 0.41360 0.32666 0.71833
 H1528 H 0.44568 0.25990 0.69000
 C1529 C 0.41122 0.80868 0.19145
 C1530 C 0.42260 0.81627 0.21072
 C1531 C 0.44193 0.80359 0.22257
 C1532 C 0.45179 0.78371 0.21473
 H1533 H 0.41746 0.83257 0.21889
 H1534 H 0.44820 0.81128 0.23884
 H1535 H 0.41623 0.79241 0.18314
 H1536 H 0.44621 0.77568 0.19844
 C1537 C 0.91290 0.30601 0.18994
 C1538 C 0.92461 0.31397 0.20884
 C1539 C 0.94393 0.30140 0.22079
 C1540 C 0.95368 0.28131 0.21333
 H1541 H 0.91978 0.33055 0.21662
 H1542 H 0.95033 0.30941 0.23686
 H1543 H 0.91762 0.28947 0.18200
 H1544 H 0.94802 0.27296 0.19723
 C1545 C 0.90891 0.80699 0.69104
 C1546 C 0.92108 0.81520 0.70952
 C1547 C 0.94027 0.80239 0.72144
 C1548 C 0.94986 0.78235 0.71366
 H1549 H 0.91668 0.83205 0.71698
 H1550 H 0.94673 0.81015 0.73761
 H1551 H 0.91307 0.79010 0.68354
 H1552 H 0.94421 0.77436 0.69738
 C1553 C 0.59005 0.31146 0.30758
 C1554 C 0.58047 0.29089 0.31380
 C1555 C 0.56072 0.27936 0.30140
 C1556 C 0.55142 0.28662 0.28100
 H1557 H 0.58736 0.28151 0.32875
 H1558 H 0.55406 0.26350 0.30942
 H1559 H 0.58309 0.32112 0.29285
 H1560 H 0.55787 0.30211 0.27228
 C1561 C 0.58719 0.81141 0.80862
 C1562 C 0.57583 0.79239 0.81651
 C1563 C 0.55620 0.78060 0.80418
 C1564 C 0.54692 0.78742 0.78360
 H1565 H 0.58123 0.78437 0.83282
 H1566 H 0.54947 0.76498 0.81257
 H1567 H 0.58175 0.81975 0.79249
 H1568 H 0.55310 0.80292 0.77471
 C1569 C 0.08794 0.30944 0.80775
 C1570 C 0.07632 0.29046 0.81538
 C1571 C 0.05698 0.27877 0.80250
 C1572 C 0.04678 0.28702 0.78292
 H1573 H 0.08135 0.28237 0.83177
 H1574 H 0.05099 0.26230 0.80976
 H1575 H 0.08311 0.31762 0.79135
 H1576 H 0.05198 0.30357 0.77542
 C1577 C 0.09071 0.81008 0.30861
 C1578 C 0.07913 0.79128 0.31677
 C1579 C 0.05976 0.77921 0.30423
 C1580 C 0.04932 0.78717 0.28468
 H1581 H 0.08424 0.78360 0.33334
 H1582 H 0.05397 0.76277 0.31171
 H1583 H 0.08585 0.81779 0.29198
 H1584 H 0.05434 0.80371 0.27701
 C1585 C 0.58769 0.69073 0.69311
 C1586 C 0.57753 0.71076 0.68615
 C1587 C 0.55772 0.72240 0.69832
 C1588 C 0.54836 0.71555 0.71886
 H1589 H 0.58390 0.71960 0.67065
 H1590 H 0.55095 0.73799 0.68988
 H1591 H 0.58120 0.68158 0.70838
 H1592 H 0.55482 0.70027 0.72795
 C1593 C 0.59173 0.19332 0.19091
 C1594 C 0.57960 0.18503 0.20934
 C1595 C 0.56049 0.19788 0.22142
 C1596 C 0.55016 0.21727 0.21308
 H1597 H 0.58406 0.16817 0.21667
 H1598 H 0.55466 0.19071 0.23805
 H1599 H 0.58762 0.21032 0.18370
 H1600 H 0.55510 0.22449 0.19626
 C1601 C 0.09164 0.69420 0.19378
 C1602 C 0.08007 0.71303 0.18569
 C1603 C 0.06055 0.72492 0.19811
 C1604 C 0.05014 0.71693 0.21766
 H1605 H 0.08525 0.72084 0.16921
 H1606 H 0.05460 0.74125 0.19052
 H1607 H 0.08669 0.68632 0.21030
 H1608 H 0.05534 0.70051 0.22546
 C1609 C 0.08949 0.19719 0.68989
 C1610 C 0.07718 0.18819 0.70786
 C1611 C 0.05778 0.20038 0.72014
 C1612 C 0.04742 0.22009 0.71262
 H1613 H 0.08170 0.17115 0.71470
 H1614 H 0.05174 0.19235 0.73629
 H1615 H 0.08529 0.21436 0.68316
 H1616 H 0.05259 0.22820 0.69629
 C1617 C 0.41087 0.69281 0.30718
 C1618 C 0.42293 0.68442 0.28871
 C1619 C 0.44221 0.69704 0.27671
 C1620 C 0.45234 0.71670 0.28477
 H1621 H 0.41833 0.66758 0.28131
 H1622 H 0.44826 0.68949 0.26030
 H1623 H 0.41519 0.70972 0.31457
 H1624 H 0.44712 0.72440 0.30133
 C1625 C 0.41327 0.18324 0.80942
 C1626 C 0.42251 0.17640 0.78876
 C1627 C 0.44211 0.18841 0.77664
 C1628 C 0.45002 0.20980 0.78232
 H1629 H 0.41555 0.16120 0.77983
 H1630 H 0.44962 0.17939 0.76165
 H1631 H 0.42056 0.19806 0.81875
 H1632 H 0.44239 0.21953 0.79673
 C1633 C 0.90836 0.69126 0.80638
 C1634 C 0.92028 0.68298 0.78778
 C1635 C 0.93964 0.69554 0.77587
 C1636 C 0.94962 0.71539 0.78369
 H1637 H 0.91551 0.66627 0.78022
 H1638 H 0.94588 0.68775 0.75964
 H1639 H 0.91291 0.70800 0.81400
 H1640 H 0.94418 0.72341 0.80002
 C1641 C 0.91199 0.19094 0.30501
 C1642 C 0.92366 0.20948 0.31375
 C1643 C 0.94300 0.22175 0.30148
 C1644 C 0.95414 0.21348 0.28243
 H1645 H 0.91861 0.21680 0.33054
 H1646 H 0.94828 0.23847 0.30883
 H1647 H 0.91669 0.18377 0.28806
 H1648 H 0.94973 0.19657 0.27509
 C1649 C 0.31161 0.31143 0.59401
 C1650 C 0.29351 0.31981 0.58145
 C1651 C 0.28203 0.30759 0.56149
 C1652 C 0.28930 0.28740 0.55182
 H1653 H 0.28596 0.33653 0.58608
 H1654 H 0.26643 0.31592 0.55460
 H1655 H 0.31941 0.29480 0.58945
 H1656 H 0.30496 0.27876 0.55801
 C1657 C 0.30793 0.81363 0.09051
 C1658 C 0.31635 0.79554 0.07794
 C1659 C 0.30362 0.78378 0.05846
 C1660 C 0.28383 0.79180 0.04859
 H1661 H 0.33323 0.78821 0.08230
 H1662 H 0.31114 0.76755 0.05208
 H1663 H 0.29097 0.82095 0.08642
 H1664 H 0.27615 0.80818 0.05415
 C1665 C 0.81014 0.31119 0.08845
 C1666 C 0.81678 0.29104 0.07820
 C1667 C 0.80422 0.27937 0.05857
 C1668 C 0.78358 0.28631 0.04969
 H1669 H 0.83225 0.28209 0.08438
 H1670 H 0.81242 0.26372 0.05158
 H1671 H 0.79487 0.32043 0.08218
 H1672 H 0.77473 0.30164 0.05641
 C1673 C 0.80679 0.80814 0.59115
 C1674 C 0.78878 0.81695 0.57881
 C1675 C 0.77663 0.80428 0.55953
 C1676 C 0.78490 0.78491 0.54899
 H1677 H 0.78192 0.83404 0.58323
 H1678 H 0.76007 0.81154 0.55378
 H1679 H 0.81347 0.79089 0.58711
 H1680 H 0.80169 0.77766 0.55382
 C1681 C 0.30957 0.69195 0.40816
 C1682 C 0.29120 0.68333 0.42009
 C1683 C 0.27913 0.69571 0.43958
 C1684 C 0.28712 0.71519 0.45015
 H1685 H 0.28397 0.66652 0.41522
 H1686 H 0.26277 0.68809 0.44547
 H1687 H 0.31674 0.70887 0.41272
 H1688 H 0.30363 0.72292 0.44512
 C1689 C 0.30722 0.18653 0.90788
 C1690 C 0.31581 0.20494 0.91986
 C1691 C 0.30317 0.21735 0.93898
 C1692 C 0.28384 0.20929 0.94968
 H1693 H 0.33277 0.21198 0.91528
 H1694 H 0.31055 0.23394 0.94458
 H1695 H 0.29007 0.17969 0.91206
 H1696 H 0.27646 0.19249 0.94499
 C1697 C 0.80754 0.69087 0.90748
 C1698 C 0.78916 0.68248 0.91954
 C1699 C 0.77736 0.69500 0.93912
 C1700 C 0.78525 0.71474 0.94930
 H1701 H 0.78173 0.66573 0.91473
 H1702 H 0.76117 0.68729 0.94534
 H1703 H 0.81498 0.70767 0.91204
 H1704 H 0.80155 0.72267 0.94389
 C1705 C 0.81051 0.19210 0.40765
 C1706 C 0.79189 0.18359 0.41926
 C1707 C 0.77952 0.19600 0.43852
 C1708 C 0.78740 0.21542 0.44926
 H1709 H 0.78461 0.16683 0.41426
 H1710 H 0.76302 0.18844 0.44409
 H1711 H 0.81772 0.20898 0.41233
 H1712 H 0.80406 0.22306 0.44456
 C1713 C 0.69554 0.30743 0.40813
 C1714 C 0.68681 0.28917 0.42010
 C1715 C 0.69931 0.27673 0.43920
 C1716 C 0.71906 0.28428 0.44958
 H1717 H 0.66976 0.28229 0.41556
 H1718 H 0.69147 0.26046 0.44501
 H1719 H 0.71270 0.31423 0.41237
 H1720 H 0.72701 0.30073 0.44466
 C1721 C 0.69356 0.80560 0.90802
 C1722 C 0.68475 0.78742 0.92009
 C1723 C 0.69735 0.77498 0.93916
 C1724 C 0.71666 0.78311 0.94991
 H1725 H 0.66764 0.78063 0.91564
 H1726 H 0.68999 0.75840 0.94469
 H1727 H 0.71087 0.81215 0.91204
 H1728 H 0.72397 0.79994 0.94530
 C1729 C 0.19004 0.30268 0.90991
 C1730 C 0.20917 0.31034 0.92136
 C1731 C 0.22147 0.29743 0.94027
 C1732 C 0.21425 0.27718 0.94977
 H1733 H 0.21685 0.32697 0.91666
 H1734 H 0.23753 0.30537 0.94662
 H1735 H 0.18225 0.28606 0.91447
 H1736 H 0.19818 0.26890 0.94414
 C1737 C 0.19499 0.80718 0.41012
 C1738 C 0.18647 0.78864 0.42182
 C1739 C 0.19911 0.77616 0.44081
 C1740 C 0.21873 0.78394 0.45123
 H1741 H 0.16952 0.78160 0.41715
 H1742 H 0.19155 0.75970 0.44646
 H1743 H 0.21204 0.81416 0.41446
 H1744 H 0.22639 0.80055 0.44646
 C1745 C 0.69315 0.69373 0.59232
 C1746 C 0.68470 0.71209 0.58027
 C1747 C 0.69723 0.72404 0.56082
 C1748 C 0.71680 0.71601 0.55049
 H1749 H 0.66784 0.71934 0.58492
 H1750 H 0.68961 0.74030 0.55469
 H1751 H 0.71010 0.68653 0.58797
 H1752 H 0.72456 0.69961 0.55579
 C1753 C 0.69418 0.18997 0.08943
 C1754 C 0.68609 0.20899 0.07817
 C1755 C 0.69842 0.22131 0.05890
 C1756 C 0.71871 0.21445 0.04916
 H1757 H 0.66955 0.21658 0.08336
 H1758 H 0.69011 0.23716 0.05261
 H1759 H 0.71063 0.18216 0.08430
 H1760 H 0.72740 0.19863 0.05478
 C1761 C 0.19485 0.69731 0.09133
 C1762 C 0.18620 0.71605 0.08003
 C1763 C 0.19823 0.72855 0.06066
 C1764 C 0.21777 0.72108 0.04988
 H1765 H 0.16951 0.72326 0.08530
 H1766 H 0.19025 0.74481 0.05502
 H1767 H 0.21161 0.69010 0.08634
 H1768 H 0.22591 0.70472 0.05471
 C1769 C 0.19265 0.19861 0.59030
 C1770 C 0.21129 0.19013 0.57864
 C1771 C 0.22401 0.20267 0.55974
 C1772 C 0.21714 0.22293 0.55002
 H1773 H 0.21825 0.17316 0.58323
 H1774 H 0.24000 0.19447 0.55358
 H1775 H 0.18564 0.21561 0.58594
 H1776 H 0.20110 0.23139 0.55541
   
