data_POSCAR
  _audit_creation_date              2014-09-24
  _audit_creation_method            'ToBaCCo'
  _symmetry_space_group_name_H-M    'P1'
  _symmetry_Int_Tables_number       1
  _symmetry_cell_setting            triclinic
  loop_
  _symmetry_equiv_pos_as_xyz
 x,y,z
_cell_length_a 61.7170
_cell_length_b 61.6806
_cell_length_c 64.9505
_cell_angle_alpha 90.053400
_cell_angle_beta 90.025300
_cell_angle_gamma 89.936800
loop_
  _atom_site_label
  _atom_site_type_symbol
  _atom_site_fract_x
  _atom_site_fract_y
  _atom_site_fract_z
C1 C 0.39707 -0.02922 0.25094
 C2 C 0.40681 -0.01002 0.24391
 C3 C 0.41702 -0.00974 0.22463
 C4 C 0.41776 -0.02850 0.21252
 C5 C 0.40779 -0.04757 0.21945
 C6 C 0.39730 -0.04795 0.23864
 C7 C 0.40686 0.00966 0.25686
 C8 C 0.41715 0.00934 0.27611
 C9 C 0.41804 0.02815 0.28819
 C10 C 0.40813 0.04728 0.28121
 C11 C 0.39759 0.04766 0.26205
 C12 C 0.39721 0.02892 0.24981
 H13 H 0.38907 -0.02943 0.26581
 H14 H 0.42472 0.00500 0.21925
 H15 H 0.42479 -0.00547 0.28146
 H16 H 0.38916 0.02920 0.23497
 H17 H 0.40814 -0.06200 0.20990
 H18 H 0.40854 0.06181 0.29064
 C19 C 0.10252 -0.02889 0.74927
 C20 C 0.09282 -0.00961 0.75626
 C21 C 0.08265 -0.00919 0.77556
 C22 C 0.08191 -0.02790 0.78773
 C23 C 0.09184 -0.04703 0.78082
 C24 C 0.10227 -0.04753 0.76162
 C25 C 0.09279 0.01000 0.74324
 C26 C 0.08259 0.00959 0.72395
 C27 C 0.08176 0.02832 0.71178
 C28 C 0.09167 0.04746 0.71872
 C29 C 0.10213 0.04793 0.73792
 C30 C 0.10244 0.02927 0.75024
 H31 H 0.11050 -0.02926 0.73441
 H32 H 0.07497 0.00559 0.78092
 H33 H 0.07495 -0.00523 0.71863
 H34 H 0.11044 0.02963 0.76510
 H35 H 0.09152 -0.06144 0.79036
 H36 H 0.09133 0.06192 0.70923
 C37 C 0.60381 0.47062 0.24973
 C38 C 0.59412 0.48989 0.25674
 C39 C 0.58384 0.49026 0.27599
 C40 C 0.58298 0.47151 0.28808
 C41 C 0.59291 0.45238 0.28116
 C42 C 0.60345 0.45193 0.26202
 C43 C 0.59414 0.50953 0.24377
 C44 C 0.58387 0.50919 0.22451
 C45 C 0.58305 0.52794 0.21240
 C46 C 0.59301 0.54703 0.21933
 C47 C 0.60355 0.54745 0.23849
 C48 C 0.60386 0.52876 0.25078
 H49 H 0.61185 0.47029 0.23490
 H50 H 0.57616 0.50505 0.28135
 H51 H 0.57616 0.49444 0.21914
 H52 H 0.61191 0.52906 0.26562
 H53 H 0.59249 0.43793 0.29065
 H54 H 0.59263 0.56148 0.20983
 C55 C 0.89743 0.47075 0.75088
 C56 C 0.90709 0.48998 0.74381
 C57 C 0.91723 0.49027 0.72450
 C58 C 0.91799 0.47150 0.71240
 C59 C 0.90809 0.45241 0.71938
 C60 C 0.89769 0.45204 0.73860
 C61 C 0.90716 0.50966 0.75675
 C62 C 0.91743 0.50932 0.77602
 C63 C 0.91834 0.52812 0.78810
 C64 C 0.90846 0.54727 0.78112
 C65 C 0.89794 0.54766 0.76196
 C66 C 0.89754 0.52893 0.74971
 H67 H 0.88949 0.47048 0.76576
 H68 H 0.92489 0.50502 0.71908
 H69 H 0.92505 0.49450 0.78137
 H70 H 0.88950 0.52923 0.73486
 H71 H 0.90842 0.43794 0.70989
 H72 H 0.90888 0.56178 0.79055
 C73 C 0.25909 0.35627 1.02471
 C74 C 0.25917 0.37087 1.00810
 C75 C 0.27691 0.38491 1.00541
 C76 C 0.29443 0.38432 1.01923
 C77 C 0.29414 0.36974 1.03575
 C78 C 0.27655 0.35571 1.03856
 C79 C 0.24098 0.37087 0.99328
 C80 C 0.22324 0.38499 0.99594
 C81 C 0.20577 0.38443 0.98206
 C82 C 0.20610 0.36982 0.96555
 C83 C 0.22367 0.35574 0.96279
 C84 C 0.24108 0.35625 0.97666
 H85 H 0.24546 0.34541 1.02679
 H86 H 0.27713 0.39609 0.99254
 H87 H 0.22301 0.39620 1.00880
 H88 H 0.25469 0.34534 0.97456
 H89 H 0.30766 0.36936 1.04644
 H90 H 0.19265 0.36942 0.95479
 C91 C 0.74080 0.14350 1.02470
 C92 C 0.74063 0.12897 1.00802
 C93 C 0.72284 0.11499 1.00526
 C94 C 0.70536 0.11558 1.01911
 C95 C 0.70573 0.13009 1.03571
 C96 C 0.72337 0.14406 1.03857
 C97 C 0.75880 0.12895 0.99320
 C98 C 0.77656 0.11488 0.99589
 C99 C 0.79405 0.11545 0.98204
 C100 C 0.79371 0.13004 0.96554
 C101 C 0.77612 0.14408 0.96276
 C102 C 0.75869 0.14355 0.97659
 H103 H 0.75448 0.15430 1.02682
 H104 H 0.72256 0.10386 0.99234
 H105 H 0.77681 0.10370 1.00875
 H106 H 0.74507 0.15444 0.97448
 H107 H 0.69224 0.13048 1.04642
 H108 H 0.80718 0.13046 0.95481
 C109 C 0.24060 0.64374 0.52367
 C110 C 0.24050 0.62915 0.50703
 C111 C 0.22276 0.61509 0.50430
 C112 C 0.20527 0.61567 0.51814
 C113 C 0.20559 0.63025 0.53469
 C114 C 0.22317 0.64427 0.53751
 C115 C 0.25871 0.62915 0.49223
 C116 C 0.27644 0.61505 0.49490
 C117 C 0.29398 0.61568 0.48112
 C118 C 0.29371 0.63036 0.46468
 C119 C 0.27614 0.64443 0.46192
 C120 C 0.25866 0.64385 0.47570
 H121 H 0.25420 0.65461 0.52581
 H122 H 0.22254 0.60392 0.49142
 H123 H 0.27663 0.60381 0.50772
 H124 H 0.24507 0.65478 0.47361
 H125 H 0.19213 0.63067 0.54542
 H126 H 0.30721 0.63082 0.45400
 C127 C 0.75990 0.85708 0.52395
 C128 C 0.75999 0.87176 0.50740
 C129 C 0.77768 0.88589 0.50483
 C130 C 0.79516 0.88531 0.51873
 C131 C 0.79483 0.87063 0.53519
 C132 C 0.77729 0.85654 0.53784
 C133 C 0.74186 0.87173 0.49252
 C134 C 0.72409 0.88581 0.49511
 C135 C 0.70662 0.88515 0.48123
 C136 C 0.70700 0.87048 0.46476
 C137 C 0.72461 0.85643 0.46208
 C138 C 0.74201 0.85703 0.47596
 H139 H 0.74633 0.84614 0.52596
 H140 H 0.77786 0.89712 0.49199
 H141 H 0.72381 0.89705 0.50795
 H142 H 0.75563 0.84613 0.47392
 H143 H 0.80824 0.87015 0.54600
 H144 H 0.69356 0.86999 0.45400
 C145 C -0.02911 0.24414 0.32556
 C146 C -0.00868 0.24062 0.33436
 C147 C -0.00488 0.22196 0.34611
 C148 C -0.02158 0.20710 0.34939
 C149 C -0.04186 0.21041 0.34036
 C150 C -0.04561 0.22893 0.32848
 C151 C 0.00770 0.25774 0.33410
 C152 C 0.00403 0.27668 0.34551
 C153 C 0.02074 0.29161 0.34831
 C154 C 0.04090 0.28811 0.33917
 C155 C 0.04453 0.26933 0.32763
 C156 C 0.02803 0.25403 0.32517
 H157 H -0.03226 0.25896 0.31708
 H158 H 0.01062 0.21981 0.35374
 H159 H -0.01134 0.27904 0.35330
 H160 H 0.03115 0.23903 0.31697
 H161 H -0.05497 0.19910 0.34333
 H162 H 0.05404 0.29946 0.34183
 C163 C -0.02863 0.75376 0.17469
 C164 C -0.00824 0.75746 0.16592
 C165 C -0.00457 0.77625 0.15435
 C166 C -0.02135 0.79107 0.15123
 C167 C -0.04158 0.78760 0.16021
 C168 C -0.04523 0.76895 0.17191
 C169 C 0.00826 0.74040 0.16597
 C170 C 0.00471 0.72162 0.15431
 C171 C 0.02158 0.70686 0.15120
 C172 C 0.04176 0.71039 0.16034
 C173 C 0.04523 0.72902 0.17214
 C174 C 0.02859 0.74413 0.17487
 H175 H -0.03169 0.73884 0.18302
 H176 H 0.01087 0.77858 0.14669
 H177 H -0.01071 0.71932 0.14656
 H178 H 0.03161 0.75903 0.18326
 H179 H -0.05473 0.79891 0.15729
 H180 H 0.05504 0.69923 0.15750
 C181 C 0.47123 0.25498 0.67535
 C182 C 0.49163 0.25857 0.66656
 C183 C 0.49539 0.27738 0.65504
 C184 C 0.47869 0.29230 0.65198
 C185 C 0.45845 0.28892 0.66098
 C186 C 0.45474 0.27027 0.67263
 C187 C 0.50800 0.24141 0.66657
 C188 C 0.50430 0.22264 0.65493
 C189 C 0.52103 0.20774 0.65187
 C190 C 0.54123 0.21110 0.66098
 C191 C 0.54488 0.22972 0.67274
 C192 C 0.52837 0.24498 0.67546
 H193 H 0.46804 0.24007 0.68364
 H194 H 0.51083 0.27963 0.64735
 H195 H 0.48890 0.22040 0.64716
 H196 H 0.53151 0.25987 0.68383
 H197 H 0.44532 0.30025 0.65812
 H198 H 0.55438 0.19981 0.65811
 C199 C 0.47125 0.74413 0.82551
 C200 C 0.49163 0.74058 0.83438
 C201 C 0.49534 0.72194 0.84618
 C202 C 0.47859 0.70713 0.84943
 C203 C 0.45836 0.71047 0.84031
 C204 C 0.45473 0.72897 0.82840
 C205 C 0.50803 0.75768 0.83416
 C206 C 0.50441 0.77656 0.84565
 C207 C 0.52115 0.79148 0.84844
 C208 C 0.54127 0.78800 0.83921
 C209 C 0.54483 0.76926 0.82759
 C210 C 0.52831 0.75398 0.82514
 H211 H 0.46812 0.75892 0.81700
 H212 H 0.51080 0.71977 0.85389
 H213 H 0.48908 0.77891 0.85350
 H214 H 0.53139 0.73901 0.81687
 H215 H 0.44516 0.69927 0.84324
 H216 H 0.55443 0.79932 0.84186
 C217 C -0.27999 0.64699 0.99873
 C218 C -0.26073 0.65670 1.00569
 C219 C -0.26031 0.66692 1.02497
 C220 C -0.27898 0.66772 1.03717
 C221 C -0.29811 0.65778 1.03032
 C222 C -0.29863 0.64728 1.01112
 C223 C -0.24115 0.65671 0.99266
 C224 C -0.24158 0.66693 0.97338
 C225 C -0.22285 0.66782 0.96124
 C226 C -0.20368 0.65797 0.96818
 C227 C -0.20318 0.64750 0.98736
 C228 C -0.22184 0.64711 0.99966
 H229 H -0.28031 0.63899 0.98386
 H230 H -0.24553 0.67461 1.03029
 H231 H -0.25642 0.67453 0.96807
 H232 H -0.22146 0.63912 1.01452
 H233 H -0.31247 0.65818 1.03993
 H234 H -0.18921 0.65838 0.95871
 C235 C -0.28000 0.35322 0.50075
 C236 C -0.26075 0.34353 0.49373
 C237 C -0.26043 0.33316 0.47452
 C238 C -0.27921 0.33219 0.46246
 C239 C -0.29833 0.34212 0.46938
 C240 C -0.29874 0.35277 0.48851
 C241 C -0.24107 0.34362 0.50665
 C242 C -0.24130 0.33340 0.52592
 C243 C -0.22250 0.33259 0.53795
 C244 C -0.20344 0.34250 0.53093
 C245 C -0.20313 0.35298 0.51175
 C246 C -0.22187 0.35330 0.49954
 H247 H -0.28023 0.36133 0.51558
 H248 H -0.24566 0.32547 0.46915
 H249 H -0.25603 0.32572 0.53135
 H250 H -0.22164 0.36129 0.48468
 H251 H -0.31278 0.34160 0.45987
 H252 H -0.18894 0.34211 0.54036
 C253 C 0.22090 -0.14815 0.00048
 C254 C 0.24016 -0.15781 -0.00656
 C255 C 0.24051 -0.16806 -0.02584
 C256 C 0.22174 -0.16893 -0.03795
 C257 C 0.20261 -0.15902 -0.03097
 C258 C 0.20220 -0.14851 -0.01179
 C259 C 0.25981 -0.15774 0.00640
 C260 C 0.25949 -0.16784 0.02573
 C261 C 0.27824 -0.16854 0.03787
 C262 C 0.29732 -0.15862 0.03087
 C263 C 0.29771 -0.14827 0.01163
 C264 C 0.27903 -0.14807 -0.00067
 H265 H 0.22059 -0.14012 0.01533
 H266 H 0.25532 -0.17570 -0.03119
 H267 H 0.24470 -0.17547 0.03111
 H268 H 0.27931 -0.14015 -0.01556
 H269 H 0.18811 -0.15940 -0.04042
 H270 H 0.31180 -0.15886 0.04035
 C271 C 0.22094 1.14758 0.49877
 C272 C 0.24016 1.15734 0.50577
 C273 C 0.24049 1.16760 0.52504
 C274 C 0.22176 1.16837 0.53717
 C275 C 0.20270 1.15837 0.53026
 C276 C 0.20228 1.14785 0.51109
 C277 C 0.25977 1.15737 0.49278
 C278 C 0.25936 1.16754 0.47349
 C279 C 0.27809 1.16836 0.46133
 C280 C 0.29724 1.15846 0.46829
 C281 C 0.29771 1.14803 0.48749
 C282 C 0.27905 1.14773 0.49980
 H283 H 0.22064 1.13954 0.48392
 H284 H 0.25523 1.17533 0.53040
 H285 H 0.24453 1.17516 0.46816
 H286 H 0.27940 1.13975 0.51466
 H287 H 0.18827 1.15871 0.53978
 H288 H 0.31170 1.15880 0.45880
 C289 C 0.10613 0.50979 0.22585
 C290 C 0.12086 0.50976 0.24237
 C291 C 0.13506 0.52741 0.24499
 C292 C 0.13447 0.54493 0.23117
 C293 C 0.11976 0.54472 0.21475
 C294 C 0.10561 0.52723 0.21203
 C295 C 0.12082 0.49157 0.25716
 C296 C 0.13495 0.47384 0.25456
 C297 C 0.13426 0.45630 0.26834
 C298 C 0.11951 0.45657 0.28472
 C299 C 0.10542 0.47414 0.28742
 C300 C 0.10605 0.49161 0.27363
 H301 H 0.09515 0.49626 0.22379
 H302 H 0.14634 0.52755 0.25779
 H303 H 0.14625 0.47364 0.24179
 H304 H 0.09510 0.50520 0.27567
 H305 H 0.11934 0.55821 0.20404
 H306 H 0.11901 0.44307 0.29541
 C307 C -0.10629 0.99039 0.22561
 C308 C -0.12094 0.99029 0.24217
 C309 C -0.13500 0.97255 0.24480
 C310 C -0.13438 0.95502 0.23093
 C311 C -0.11974 0.95535 0.21445
 C312 C -0.10569 0.97295 0.21172
 C313 C -0.12096 1.00846 0.25704
 C314 C -0.13509 1.02620 0.25443
 C315 C -0.13453 1.04368 0.26834
 C316 C -0.11988 1.04333 0.28484
 C317 C -0.10580 1.02575 0.28753
 C318 C -0.10632 1.00835 0.27362
 H319 H -0.09541 1.00402 0.22359
 H320 H -0.14620 0.97236 0.25766
 H321 H -0.14630 1.02639 0.24157
 H322 H -0.09539 0.99475 0.27567
 H323 H -0.11927 0.94186 0.20369
 H324 H -0.11943 1.05675 0.29565
 C325 C 0.39368 0.49144 -0.27453
 C326 C 0.37905 0.49140 -0.25795
 C327 C 0.36496 0.47368 -0.25529
 C328 C 0.36552 0.45616 -0.26912
 C329 C 0.38013 0.45642 -0.28562
 C330 C 0.39421 0.47398 -0.28840
 C331 C 0.37906 0.50959 -0.24310
 C332 C 0.36491 0.52731 -0.24568
 C333 C 0.36546 0.54478 -0.23175
 C334 C 0.38010 0.54442 -0.21526
 C335 C 0.39420 0.52685 -0.21259
 C336 C 0.39370 0.50947 -0.22651
 H337 H 0.40458 0.50506 -0.27658
 H338 H 0.35376 0.47349 -0.24244
 H339 H 0.35370 0.52750 -0.25854
 H340 H 0.40463 0.49586 -0.22447
 H341 H 0.38050 0.44289 -0.29633
 H342 H 0.38054 0.55782 -0.20442
 C343 C 0.60552 0.00916 -0.27483
 C344 C 0.62009 0.00922 -0.25819
 C345 C 0.63417 0.02693 -0.25545
 C346 C 0.63366 0.04444 -0.26927
 C347 C 0.61911 0.04418 -0.28583
 C348 C 0.60503 0.02662 -0.28868
 C349 C 0.62004 -0.00898 -0.24338
 C350 C 0.63414 -0.02673 -0.24602
 C351 C 0.63356 -0.04421 -0.23215
 C352 C 0.61895 -0.04385 -0.21567
 C353 C 0.60489 -0.02626 -0.21293
 C354 C 0.60542 -0.00885 -0.22680
 H355 H 0.59463 -0.00446 -0.27695
 H356 H 0.64533 0.02712 -0.24256
 H357 H 0.64536 -0.02698 -0.25886
 H358 H 0.59452 0.00477 -0.22471
 H359 H 0.61878 0.05769 -0.29652
 H360 H 0.61854 -0.05729 -0.20491
 C361 C -0.00495 0.22131 0.92550
 C362 C -0.00863 0.24163 0.91653
 C363 C -0.02742 0.24523 0.90492
 C364 C -0.04225 0.22844 0.90196
 C365 C -0.03878 0.20829 0.91115
 C366 C -0.02014 0.20475 0.92289
 C367 C 0.00843 0.25807 0.91646
 C368 C 0.02718 0.25438 0.90481
 C369 C 0.04198 0.27115 0.90170
 C370 C 0.03854 0.29138 0.91076
 C371 C 0.01995 0.29502 0.92253
 C372 C 0.00478 0.27847 0.92530
 H373 H 0.00996 0.21825 0.93386
 H374 H -0.02974 0.26059 0.89711
 H375 H 0.02947 0.23895 0.89708
 H376 H -0.01009 0.28160 0.93369
 H377 H -0.05003 0.19509 0.90837
 H378 H 0.04977 0.30455 0.90787
 C379 C 0.50504 0.22136 0.07556
 C380 C 0.50883 0.24171 0.08443
 C381 C 0.52771 0.24529 0.09591
 C382 C 0.54250 0.22844 0.09886
 C383 C 0.53892 0.20825 0.08978
 C384 C 0.52019 0.20473 0.07817
 C385 C 0.49182 0.25825 0.08451
 C386 C 0.47304 0.25466 0.09612
 C387 C 0.45825 0.27149 0.09918
 C388 C 0.46174 0.29168 0.09010
 C389 C 0.48036 0.29521 0.07836
 C390 C 0.49551 0.27860 0.07564
 H391 H 0.49008 0.21832 0.06729
 H392 H 0.53012 0.26070 0.10365
 H393 H 0.47070 0.23925 0.10385
 H394 H 0.51039 0.28164 0.06726
 H395 H 0.55015 0.19502 0.09255
 H396 H 0.45050 0.30489 0.09294
 C397 C 0.00406 0.72164 0.57581
 C398 C 0.00785 0.74195 0.58476
 C399 C 0.02674 0.74550 0.59623
 C400 C 0.04157 0.72866 0.59906
 C401 C 0.03800 0.70852 0.58989
 C402 C 0.01926 0.70502 0.57830
 C403 C -0.00918 0.75847 0.58498
 C404 C -0.02779 0.75492 0.59683
 C405 C -0.04253 0.77179 0.60007
 C406 C -0.03912 0.79198 0.59091
 C407 C -0.02065 0.79545 0.57894
 C408 C -0.00557 0.77881 0.57605
 H409 H -0.01091 0.71862 0.56756
 H410 H 0.02915 0.76087 0.60404
 H411 H -0.03001 0.73949 0.60456
 H412 H 0.00921 0.78182 0.56750
 H413 H 0.04926 0.69529 0.59257
 H414 H -0.05027 0.80526 0.59382
 C415 C 0.49581 0.72138 0.42440
 C416 C 0.49223 0.74178 0.41558
 C417 C 0.47347 0.74555 0.40397
 C418 C 0.45857 0.72885 0.40088
 C419 C 0.46194 0.70861 0.40992
 C420 C 0.48055 0.70490 0.42165
 C421 C 0.50934 0.75818 0.41569
 C422 C 0.52822 0.75444 0.40425
 C423 C 0.54310 0.77118 0.40131
 C424 C 0.53962 0.79141 0.41036
 C425 C 0.52090 0.79509 0.42193
 C426 C 0.50565 0.77858 0.42452
 H427 H 0.51067 0.71819 0.43278
 H428 H 0.47121 0.76100 0.39628
 H429 H 0.53055 0.73902 0.39652
 H430 H 0.49069 0.78174 0.43275
 H431 H 0.45062 0.69550 0.40705
 H432 H 0.55091 0.80455 0.40759
 Zr433 Zr 0.01265 -0.03854 1.03318
 O434 O 0.03525 -0.02801 1.05558
 O435 O 0.00545 -0.06977 1.04335
 O436 O -0.00195 -0.03653 1.06267
 O437 O 0.05094 -0.05269 0.99653
 O438 O -0.03256 -0.01651 1.05704
 O439 O 0.04248 -0.05550 1.03068
 O440 O -0.02112 -0.08120 1.02137
 O441 O -0.02072 -0.04076 1.02762
 O442 O 0.00901 -0.05502 1.00523
 O443 O 0.00112 -0.00644 1.03275
 O444 O 0.03015 -0.02027 1.01135
 Zr445 Zr -0.01967 -0.00635 0.97564
 Zr446 Zr -0.03190 -0.00882 1.02555
 Zr447 Zr 0.02471 -0.03615 0.98321
 Zr448 Zr -0.02403 -0.05622 0.99925
 O449 O 0.05422 -0.02173 0.97389
 O450 O -0.05546 -0.06293 1.01077
 O451 O -0.00831 -0.03869 0.97584
 O452 O -0.03681 -0.02480 0.99747
 O453 O -0.01619 0.01026 1.00359
 O454 O 0.01361 -0.00428 0.98143
 C455 C -0.00876 -0.08345 1.03719
 C456 C 0.05487 -0.05897 1.01501
 C457 C -0.01965 -0.02735 1.06864
 O458 O -0.06255 -0.02217 1.03272
 O459 O -0.05647 0.01066 1.01269
 O460 O -0.04853 0.01203 0.97837
 C461 C -0.06029 0.01681 0.99414
 O462 O 0.04091 0.01396 1.03312
 Zr463 Zr 0.01699 0.01111 1.00972
 O464 O -0.01319 0.02550 0.96627
 O465 O -0.03378 0.02029 1.04272
 O466 O 0.00780 0.03756 1.02871
 O467 O 0.04694 0.02033 0.99635
 O468 O 0.01067 0.03782 0.99051
 C469 C -0.00139 0.04025 0.97457
 O470 O -0.04319 -0.01628 0.95385
 O471 O 0.02778 -0.06636 0.96801
 O472 O -0.00629 -0.01014 0.94583
 O473 O 0.02335 -0.03166 0.95117
 O474 O -0.01438 -0.08453 0.98312
 O475 O -0.04459 -0.06102 0.97339
 C476 C 0.01038 -0.02088 0.93956
 H477 H 0.01512 -0.06986 1.00555
 H478 H -0.05238 -0.02560 0.99390
 H479 H 0.02152 0.00382 0.97065
 H480 H 0.00343 0.00071 1.04623
 H481 H -0.05804 -0.07869 1.00909
 H482 H -0.06978 -0.01188 1.04223
 H483 H -0.04815 0.02040 1.04951
 H484 H 0.01744 0.04989 1.02533
 H485 H -0.02453 -0.09627 0.98701
 H486 H 0.04214 -0.06639 0.96118
 H487 H 0.06145 -0.03217 0.96454
 H488 H 0.04888 0.03605 0.99895
 H489 H -0.05229 -0.07501 0.97482
 H490 H -0.04535 -0.00404 0.94416
 H491 H 0.03750 -0.04025 1.06525
 H492 H 0.04639 0.02904 1.03352
 Zr493 Zr 0.51269 0.46215 0.53313
 O494 O 0.53526 0.47285 0.55547
 O495 O 0.50553 0.43097 0.54347
 O496 O 0.49806 0.46430 0.56259
 O497 O 0.55100 0.44781 0.49656
 O498 O 0.46741 0.48424 0.55684
 O499 O 0.54255 0.44520 0.53073
 O500 O 0.47897 0.41937 0.52157
 O501 O 0.47932 0.45984 0.52756
 O502 O 0.50908 0.44548 0.50527
 O503 O 0.50111 0.49423 0.53251
 O504 O 0.53016 0.48030 0.51120
 Zr505 Zr 0.48034 0.49392 0.47539
 Zr506 Zr 0.46809 0.49176 0.52531
 Zr507 Zr 0.52475 0.46423 0.48315
 Zr508 Zr 0.47604 0.44420 0.49929
 O509 O 0.55424 0.47864 0.47376
 O510 O 0.44461 0.43751 0.51083
 O511 O 0.49174 0.46160 0.47578
 O512 O 0.46322 0.47559 0.49732
 O513 O 0.48377 0.51072 0.50324
 O514 O 0.51361 0.49607 0.48118
 C515 C 0.49133 0.41724 0.53740
 C516 C 0.55494 0.44165 0.51507
 C517 C 0.48033 0.47348 0.56851
 O518 O 0.43745 0.47842 0.53254
 O519 O 0.44350 0.51112 0.51233
 O520 O 0.45145 0.51227 0.47801
 C521 C 0.43968 0.51715 0.49374
 O522 O 0.54085 0.51470 0.53278
 Zr523 Zr 0.51695 0.51165 0.50939
 O524 O 0.48678 0.52571 0.46582
 O525 O 0.46617 0.52096 0.54232
 O526 O 0.50771 0.53821 0.52821
 O527 O 0.54690 0.52083 0.49598
 O528 O 0.51061 0.53822 0.49000
 C529 C 0.49856 0.54054 0.47403
 O530 O 0.45683 0.48382 0.45366
 O531 O 0.52787 0.43393 0.46813
 O532 O 0.49373 0.48996 0.44561
 O533 O 0.52340 0.46852 0.45109
 O534 O 0.48574 0.41579 0.48333
 O535 O 0.45550 0.43920 0.47345
 C536 C 0.51043 0.47920 0.43941
 H537 H 0.51521 0.43065 0.50568
 H538 H 0.44764 0.47474 0.49376
 H539 H 0.52152 0.50411 0.47036
 H540 H 0.50339 0.50146 0.54595
 H541 H 0.44206 0.42174 0.50924
 H542 H 0.43021 0.48876 0.54199
 H543 H 0.45179 0.52109 0.54911
 H544 H 0.51732 0.55054 0.52475
 H545 H 0.47560 0.40406 0.48730
 H546 H 0.54223 0.43387 0.46129
 H547 H 0.56149 0.46815 0.46446
 H548 H 0.54881 0.53656 0.49849
 H549 H 0.44782 0.42520 0.47496
 H550 H 0.45466 0.49599 0.44389
 H551 H 0.53752 0.46067 0.56521
 H552 H 0.54630 0.52979 0.53310
 Zr553 Zr 0.48740 1.03824 0.53230
 O554 O 0.46478 1.02753 0.55457
 O555 O 0.49449 1.06943 0.54269
 O556 O 0.50194 1.03614 0.56181
 O557 O 0.44915 1.05246 0.49564
 O558 O 0.53264 1.01625 0.55615
 O559 O 0.45753 1.05513 0.52983
 O560 O 0.52109 1.08105 0.52087
 O561 O 0.52078 1.04059 0.52684
 O562 O 0.49105 1.05487 0.50447
 O563 O 0.49904 1.00618 0.53170
 O564 O 0.47001 1.02003 0.51031
 Zr565 Zr 0.51994 1.00644 0.47465
 Zr566 Zr 0.53207 1.00870 0.52461
 Zr567 Zr 0.47546 1.03606 0.48229
 Zr568 Zr 0.52410 1.05620 0.49859
 O569 O 0.44601 1.02159 0.47281
 O570 O 0.55550 1.06296 0.51021
 O571 O 0.50848 1.03874 0.47502
 O572 O 0.53698 1.02483 0.49664
 O573 O 0.51647 0.98968 0.50248
 O574 O 0.48666 1.00424 0.48034
 C575 C 0.50870 1.08317 0.53667
 C576 C 0.44516 1.05864 0.51414
 C577 C 0.51967 1.02699 0.56778
 O578 O 0.56266 1.02211 0.53194
 O579 O 0.55673 0.98936 0.51170
 O580 O 0.54887 0.98815 0.47735
 C581 C 0.56061 0.98332 0.49312
 O582 O 0.45931 0.98565 0.53184
 Zr583 Zr 0.48328 0.98870 0.50853
 O584 O 0.51360 0.97461 0.46506
 O585 O 0.53400 0.97951 0.54160
 O586 O 0.49250 0.96218 0.52738
 O587 O 0.45339 0.97944 0.49501
 O588 O 0.48973 0.96210 0.48917
 C589 C 0.50183 0.95978 0.47325
 O590 O 0.54347 1.01655 0.45298
 O591 O 0.47232 1.06634 0.46727
 O592 O 0.50660 1.01032 0.44483
 O593 O 0.47689 1.03173 0.45023
 O594 O 0.51438 1.08458 0.48262
 O595 O 0.54468 1.06120 0.47280
 C596 C 0.48990 1.02104 0.43859
 H597 H 0.48489 1.06969 0.50486
 H598 H 0.55256 1.02570 0.49312
 H599 H 0.47880 0.99616 0.46949
 H600 H 0.49673 0.99896 0.54513
 H601 H 0.55802 1.07873 0.50863
 H602 H 0.56990 1.01180 0.54142
 H603 H 0.54836 0.97942 0.54844
 H604 H 0.48291 0.94983 0.52389
 H605 H 0.52449 1.09633 0.48662
 H606 H 0.45798 1.06636 0.46040
 H607 H 0.43876 1.03206 0.46350
 H608 H 0.45150 0.96370 0.49751
 H609 H 0.55232 1.07522 0.47433
 H610 H 0.54569 1.00437 0.44322
 H611 H 0.46248 1.03971 0.56431
 H612 H 0.45388 0.97056 0.53213
 Zr613 Zr -0.01303 0.53854 1.03229
 O614 O -0.03574 0.52798 1.05454
 O615 O -0.00586 0.56975 1.04263
 O616 O 0.00141 0.53652 1.06185
 O617 O -0.05114 0.55274 0.99549
 O618 O 0.03206 0.51652 1.05633
 O619 O -0.04286 0.55548 1.02970
 O620 O 0.02091 0.58116 1.02090
 O621 O 0.02037 0.54077 1.02692
 O622 O -0.00923 0.55509 1.00443
 O623 O -0.00149 0.50645 1.03183
 O624 O -0.03040 0.52032 1.01031
 Zr625 Zr 0.01961 0.50645 0.97484
 Zr626 Zr 0.03157 0.50883 1.02482
 Zr627 Zr -0.02481 0.53625 0.98226
 Zr628 Zr 0.02384 0.55628 0.99864
 O629 O -0.05426 0.52186 0.97269
 O630 O 0.05525 0.56297 1.01028
 O631 O 0.00825 0.53879 0.97508
 O632 O 0.03663 0.52486 0.99683
 O633 O 0.01598 0.48979 1.00271
 O634 O -0.01370 0.50438 0.98044
 C635 C 0.00847 0.58338 1.03665
 C636 C -0.05518 0.55895 1.01397
 C637 C 0.01909 0.52735 1.06789
 O638 O 0.06219 0.52216 1.03220
 O639 O 0.05620 0.48936 1.01205
 O640 O 0.04846 0.48806 0.97768
 C641 C 0.06013 0.48324 0.99350
 O642 O -0.04128 0.48605 1.03191
 Zr643 Zr -0.01724 0.48894 1.00866
 O644 O 0.01317 0.47461 0.96532
 O645 O 0.03334 0.47971 1.04193
 O646 O -0.00816 0.46246 1.02761
 O647 O -0.04711 0.47975 0.99508
 O648 O -0.01082 0.46227 0.98939
 C649 C 0.00133 0.45985 0.97351
 O650 O 0.04325 0.51641 0.95322
 O651 O -0.02780 0.56651 0.96717
 O652 O 0.00638 0.51029 0.94497
 O653 O -0.02326 0.53183 0.95022
 O654 O 0.01425 0.58466 0.98262
 O655 O 0.04448 0.56114 0.97287
 C656 C -0.01025 0.52106 0.93865
 H657 H -0.01535 0.56993 1.00478
 H658 H 0.05222 0.52567 0.99335
 H659 H -0.02156 0.49631 0.96958
 H660 H -0.00387 0.49928 1.04527
 H661 H 0.05783 0.57873 1.00865
 H662 H 0.06936 0.51186 1.04173
 H663 H 0.04768 0.47959 1.04881
 H664 H -0.01778 0.45013 1.02413
 H665 H 0.02438 0.59638 0.98662
 H666 H -0.04211 0.56655 0.96024
 H667 H -0.06144 0.53232 0.96334
 H668 H -0.04907 0.46403 0.99762
 H669 H 0.05214 0.57515 0.97436
 H670 H 0.04546 0.50418 0.94350
 H671 H -0.03804 0.54020 1.06424
 H672 H -0.04677 0.47098 1.03223
 Zr673 Zr -0.01347 0.46227 0.46685
 O674 O -0.03618 0.47297 0.44463
 O675 O -0.00628 0.43109 0.45641
 O676 O 0.00098 0.46441 0.43733
 O677 O -0.05157 0.44796 0.50356
 O678 O 0.03161 0.48437 0.44296
 O679 O -0.04329 0.44535 0.46935
 O680 O 0.02043 0.41951 0.47817
 O681 O 0.01993 0.45998 0.47225
 O682 O -0.00967 0.44560 0.49466
 O683 O -0.00197 0.49435 0.46747
 O684 O -0.03087 0.48042 0.48890
 Zr685 Zr 0.01911 0.49406 0.52448
 Zr686 Zr 0.03110 0.49189 0.47450
 Zr687 Zr -0.02527 0.46435 0.51689
 Zr688 Zr 0.02341 0.44434 0.50048
 O689 O -0.05473 0.47875 0.52648
 O690 O 0.05479 0.43766 0.48879
 O691 O 0.00779 0.46174 0.52409
 O692 O 0.03616 0.47573 0.50244
 O693 O 0.01548 0.51085 0.49668
 O694 O -0.01419 0.49620 0.51886
 C695 C 0.00800 0.41737 0.46239
 C696 C -0.05560 0.44182 0.48505
 C697 C 0.01865 0.47360 0.43134
 O698 O 0.06173 0.47856 0.46709
 O699 O 0.05571 0.51126 0.48738
 O700 O 0.04795 0.51242 0.52175
 C701 C 0.05962 0.51729 0.50597
 O702 O -0.04177 0.51480 0.46742
 Zr703 Zr -0.01773 0.51177 0.49069
 O704 O 0.01263 0.52586 0.53413
 O705 O 0.03285 0.52110 0.45753
 O706 O -0.00866 0.53833 0.47187
 O707 O -0.04763 0.52093 0.50426
 O708 O -0.01137 0.53834 0.51009
 C709 C 0.00077 0.54067 0.52600
 O710 O 0.04276 0.48398 0.54608
 O711 O -0.02825 0.43404 0.53185
 O712 O 0.00590 0.49008 0.55432
 O713 O -0.02373 0.46862 0.54895
 O714 O 0.01385 0.41593 0.51643
 O715 O 0.04409 0.43934 0.52622
 C716 C -0.01072 0.47930 0.56058
 H717 H -0.01577 0.43077 0.49425
 H718 H 0.05176 0.47489 0.50593
 H719 H -0.02206 0.50423 0.52974
 H720 H -0.00434 0.50158 0.45405
 H721 H 0.05739 0.42188 0.49034
 H722 H 0.06889 0.48890 0.45762
 H723 H 0.04719 0.52123 0.45067
 H724 H -0.01830 0.55066 0.47539
 H725 H 0.02399 0.40420 0.51240
 H726 H -0.04257 0.43398 0.53876
 H727 H -0.06191 0.46825 0.53578
 H728 H -0.04961 0.53666 0.50179
 H729 H 0.05178 0.42534 0.52466
 H730 H 0.04496 0.49616 0.55586
 H731 H -0.03846 0.46079 0.43488
 H732 H -0.04726 0.52989 0.46715
 Zr733 Zr 0.48695 -0.03811 -0.03289
 O734 O 0.46425 -0.02746 -0.05514
 O735 O 0.49424 -0.06926 -0.04332
 O736 O 0.50144 -0.03590 -0.06240
 O737 O 0.44882 -0.05253 0.00375
 O738 O 0.53202 -0.01589 -0.05672
 O739 O 0.45718 -0.05512 -0.03044
 O740 O 0.52092 -0.08079 -0.02151
 O741 O 0.52035 -0.04033 -0.02744
 O742 O 0.49074 -0.05477 -0.00508
 O743 O 0.49838 -0.00600 -0.03225
 O744 O 0.46947 -0.02000 -0.01088
 Zr745 Zr 0.51935 -0.00625 0.02479
 Zr746 Zr 0.53144 -0.00838 -0.02517
 Zr747 Zr 0.47505 -0.03605 0.01713
 Zr748 Zr 0.52381 -0.05596 0.00080
 O749 O 0.44553 -0.02172 0.02664
 O750 O 0.55523 -0.06257 -0.01085
 O751 O 0.50810 -0.03859 0.02438
 O752 O 0.53649 -0.02454 0.00277
 O753 O 0.51574 0.01054 -0.00302
 O754 O 0.48605 -0.00418 0.01911
 C755 C 0.50853 -0.08295 -0.03731
 C756 C 0.44485 -0.05868 -0.01476
 C757 C 0.51910 -0.02668 -0.06836
 O758 O 0.56211 -0.02165 -0.03253
 O759 O 0.55599 0.01104 -0.01224
 O760 O 0.54815 0.01217 0.02212
 C761 C 0.55984 0.01707 0.00636
 O762 O 0.45853 0.01436 -0.03236
 Zr763 Zr 0.48254 0.01139 -0.00905
 O764 O 0.51281 0.02553 0.03442
 O765 O 0.53316 0.02083 -0.04213
 O766 O 0.49157 0.03796 -0.02787
 O767 O 0.45260 0.02050 0.00448
 O768 O 0.48884 0.03798 0.01034
 C769 C 0.50095 0.04033 0.02626
 O770 O 0.54298 -0.01630 0.04644
 O771 O 0.47212 -0.06637 0.03210
 O772 O 0.50608 -0.01024 0.05461
 O773 O 0.47650 -0.03176 0.04919
 O774 O 0.51429 -0.08439 0.01673
 O775 O 0.54445 -0.06090 0.02658
 C776 C 0.48946 -0.02104 0.06084
 H777 H 0.48467 -0.06961 -0.00549
 H778 H 0.55208 -0.02535 0.00629
 H779 H 0.47815 0.00384 0.02998
 H780 H 0.49601 0.00123 -0.04567
 H781 H 0.55786 -0.07833 -0.00928
 H782 H 0.56927 -0.01130 -0.04199
 H783 H 0.54751 0.02100 -0.04897
 H784 H 0.48190 0.05027 -0.02437
 H785 H 0.52448 -0.09609 0.01272
 H786 H 0.45779 -0.06645 0.03898
 H787 H 0.43836 -0.03223 0.03594
 H788 H 0.45061 0.03622 0.00200
 H789 H 0.55219 -0.07488 0.02502
 H790 H 0.54513 -0.00412 0.05622
 H791 H 0.46201 -0.03964 -0.06490
 H792 H 0.45299 0.02943 -0.03263
 Zr793 Zr 0.51273 0.53807 -0.03269
 O794 O 0.53531 0.52742 -0.05506
 O795 O 0.50551 0.56928 -0.04295
 O796 O 0.49811 0.53600 -0.06217
 O797 O 0.55106 0.55228 0.00390
 O798 O 0.46750 0.51606 -0.05649
 O799 O 0.54257 0.55498 -0.03026
 O800 O 0.47896 0.58084 -0.02101
 O801 O 0.47936 0.54037 -0.02714
 O802 O 0.50911 0.55466 -0.00480
 O803 O 0.50121 0.50599 -0.03217
 O804 O 0.53026 0.51984 -0.01081
 Zr805 Zr 0.48048 0.50614 0.02494
 Zr806 Zr 0.46819 0.50845 -0.02497
 Zr807 Zr 0.52484 0.53583 0.01728
 Zr808 Zr 0.47607 0.55593 0.00118
 O809 O 0.55436 0.52139 0.02664
 O810 O 0.44463 0.56266 -0.01037
 O811 O 0.49183 0.53845 0.02464
 O812 O 0.46331 0.52454 0.00306
 O813 O 0.48393 0.48942 -0.00295
 O814 O 0.51375 0.50399 0.01915
 C815 C 0.49130 0.58301 -0.03683
 C816 C 0.55497 0.55848 -0.01460
 C817 C 0.48040 0.52684 -0.06812
 O818 O 0.43752 0.52183 -0.03218
 O819 O 0.44365 0.48905 -0.01205
 O820 O 0.45163 0.48779 0.02227
 C821 C 0.43986 0.48296 0.00652
 O822 O 0.54099 0.48551 -0.03249
 Zr823 Zr 0.51711 0.48849 -0.00909
 O824 O 0.48700 0.47432 0.03443
 O825 O 0.46631 0.47930 -0.04206
 O826 O 0.50790 0.46199 -0.02798
 O827 O 0.54708 0.47927 0.00430
 O828 O 0.51083 0.46187 0.01022
 C829 C 0.49880 0.45952 0.02618
 O830 O 0.45697 0.51619 0.04669
 O831 O 0.52793 0.56609 0.03238
 O832 O 0.49389 0.51001 0.05474
 O833 O 0.52352 0.53145 0.04932
 O834 O 0.48573 0.58428 0.01723
 O835 O 0.45554 0.56085 0.02703
 C836 C 0.51057 0.52074 0.06097
 H837 H 0.51522 0.56948 -0.00516
 H838 H 0.44774 0.52538 0.00662
 H839 H 0.52168 0.49592 0.02996
 H840 H 0.50350 0.49880 -0.04562
 H841 H 0.44205 0.57843 -0.00873
 H842 H 0.43030 0.51152 -0.04166
 H843 H 0.45193 0.47919 -0.04885
 H844 H 0.51754 0.44965 -0.02456
 H845 H 0.47557 0.59602 0.01331
 H846 H 0.54228 0.56612 0.03921
 H847 H 0.56160 0.53185 0.03596
 H848 H 0.54902 0.46354 0.00174
 H849 H 0.44783 0.57485 0.02555
 H850 H 0.45483 0.50399 0.05643
 H851 H 0.53754 0.53963 -0.06477
 H852 H 0.54647 0.47042 -0.03285
 Zr853 Zr 0.01268 1.03786 0.46738
 O854 O 0.03525 1.02704 0.44508
 O855 O 0.00557 1.06905 0.45697
 O856 O -0.00191 1.03568 0.43790
 O857 O 0.05103 1.05213 0.50393
 O858 O -0.03259 1.01587 0.44365
 O859 O 0.04256 1.05470 0.46976
 O860 O -0.02094 1.08080 0.47886
 O861 O -0.02068 1.04031 0.47290
 O862 O 0.00910 1.05459 0.49521
 O863 O 0.00106 1.00583 0.46804
 O864 O 0.03013 1.01969 0.48935
 Zr865 Zr -0.01972 1.00632 0.52513
 Zr866 Zr -0.03195 1.00844 0.47520
 Zr867 Zr 0.02475 1.03583 0.51737
 Zr868 Zr -0.02394 1.05601 0.50115
 O869 O 0.05422 1.02133 0.52681
 O870 O -0.05535 1.06280 0.48955
 O871 O -0.00826 1.03859 0.52470
 O872 O -0.03681 1.02467 0.50315
 O873 O -0.01630 0.98946 0.49731
 O874 O 0.01355 1.00403 0.51938
 C875 C -0.00859 1.08286 0.46303
 C876 C 0.05496 1.05824 0.48541
 C877 C -0.01964 1.02654 0.43197
 O878 O -0.06257 1.02189 0.46791
 O879 O -0.05657 0.98918 0.48817
 O880 O -0.04863 0.98805 0.52251
 C881 C -0.06040 0.98319 0.50677
 O882 O 0.04079 0.98522 0.46785
 Zr883 Zr 0.01688 0.98839 0.49120
 O884 O -0.01333 0.97451 0.53475
 O885 O -0.03392 0.97920 0.45824
 O886 O 0.00762 0.96183 0.47241
 O887 O 0.04680 0.97912 0.50467
 O888 O 0.01048 0.96187 0.51061
 C889 C -0.00159 0.95963 0.52656
 O890 O -0.04321 1.01655 0.54683
 O891 O 0.02792 1.06614 0.53235
 O892 O -0.00631 1.01028 0.55492
 O893 O 0.02339 1.03159 0.54944
 O894 O -0.01420 1.08440 0.51709
 O895 O -0.04448 1.06112 0.52696
 C896 C 0.01040 1.02098 0.56112
 H897 H 0.01525 1.06940 0.49478
 H898 H -0.05238 1.02558 0.50670
 H899 H 0.02145 0.99598 0.53022
 H900 H 0.00334 0.99856 0.45462
 H901 H -0.05787 1.07858 0.49112
 H902 H -0.06982 1.01156 0.45847
 H903 H -0.04830 0.97912 0.45143
 H904 H 0.01721 0.94948 0.47589
 H905 H -0.02432 1.09616 0.51311
 H906 H 0.04228 1.06616 0.53919
 H907 H 0.06149 1.03182 0.53608
 H908 H 0.04869 0.96337 0.50219
 H909 H -0.05214 1.07514 0.52542
 H910 H -0.04540 1.00440 0.55661
 H911 H 0.03753 1.03918 0.43531
 H912 H 0.04623 0.97011 0.46756
 Zr913 Zr 0.71282 0.26177 0.21763
 O914 O 0.72360 0.28438 0.19538
 O915 O 0.68164 0.25472 0.20720
 O916 O 0.71491 0.24722 0.18812
 O917 O 0.69861 0.30007 0.25429
 O918 O 0.73475 0.21648 0.19378
 O919 O 0.69598 0.29169 0.22009
 O920 O 0.66998 0.22811 0.22899
 O921 O 0.71042 0.22837 0.22306
 O922 O 0.69614 0.25813 0.24544
 O923 O 0.74485 0.25009 0.21825
 O924 O 0.73101 0.27914 0.23965
 Zr925 Zr 0.74447 0.22915 0.27529
 Zr926 Zr 0.74228 0.21704 0.22532
 Zr927 Zr 0.71492 0.27370 0.26764
 Zr928 Zr 0.69477 0.22505 0.25130
 O929 O 0.72941 0.30313 0.27719
 O930 O 0.68800 0.19365 0.23963
 O931 O 0.71221 0.24066 0.27488
 O932 O 0.72611 0.21213 0.25326
 O933 O 0.76127 0.23262 0.24748
 O934 O 0.74671 0.26245 0.26963
 C935 C 0.66789 0.24052 0.21320
 C936 C 0.69248 0.30407 0.23578
 C937 C 0.72402 0.22946 0.18215
 O938 O 0.72887 0.18644 0.21796
 O939 O 0.76158 0.19236 0.23821
 O940 O 0.76275 0.20020 0.27257
 C941 C 0.76759 0.18846 0.25679
 O942 O 0.76542 0.28981 0.21817
 Zr943 Zr 0.76230 0.26583 0.24146
 O944 O 0.77626 0.23549 0.28493
 O945 O 0.77146 0.21510 0.20832
 O946 O 0.78882 0.25657 0.22264
 O947 O 0.77155 0.29573 0.25501
 O948 O 0.78883 0.25935 0.26085
 C949 C 0.79111 0.24724 0.27678
 O950 O 0.73433 0.20559 0.29692
 O951 O 0.68463 0.27690 0.28261
 O952 O 0.74048 0.24247 0.30512
 O953 O 0.71914 0.27222 0.29970
 O954 O 0.66640 0.23480 0.26725
 O955 O 0.68971 0.20445 0.27706
 C956 C 0.72974 0.25918 0.31136
 H957 H 0.68134 0.26431 0.24503
 H958 H 0.72522 0.19654 0.25677
 H959 H 0.75476 0.27031 0.28051
 H960 H 0.75208 0.25240 0.20483
 H961 H 0.67223 0.19114 0.24120
 H962 H 0.73918 0.17919 0.20848
 H963 H 0.77155 0.20073 0.20148
 H964 H 0.80117 0.26615 0.22615
 H965 H 0.65465 0.22471 0.26323
 H966 H 0.68462 0.29124 0.28949
 H967 H 0.71894 0.31039 0.28649
 H968 H 0.78728 0.29761 0.25254
 H969 H 0.67570 0.19682 0.27550
 H970 H 0.74649 0.20336 0.30669
 H971 H 0.71144 0.28671 0.18563
 H972 H 0.78052 0.29523 0.21791
 Zr973 Zr 0.78826 0.73748 0.71731
 O974 O 0.77791 0.71487 0.69482
 O975 O 0.81950 0.74479 0.70726
 O976 O 0.78636 0.75211 0.68784
 O977 O 0.80233 0.69914 0.75392
 O978 O 0.76624 0.78268 0.69345
 O979 O 0.80527 0.70766 0.71980
 O980 O 0.83075 0.77139 0.72932
 O981 O 0.79037 0.77087 0.72293
 O982 O 0.80461 0.74113 0.74532
 O983 O 0.75615 0.74892 0.71764
 O984 O 0.76996 0.71989 0.73904
 Zr985 Zr 0.75575 0.76965 0.77478
 Zr986 Zr 0.75840 0.78197 0.72491
 Zr987 Zr 0.78570 0.72534 0.76724
 Zr988 Zr 0.80568 0.77419 0.75136
 O989 O 0.77133 0.69577 0.77648
 O990 O 0.81236 0.80568 0.73993
 O991 O 0.78810 0.75837 0.77468
 O992 O 0.77424 0.78688 0.75305
 O993 O 0.73928 0.76616 0.74678
 O994 O 0.75381 0.73636 0.76893
 C995 C 0.83310 0.75905 0.71349
 C996 C 0.80868 0.69525 0.73546
 C997 C 0.77716 0.76981 0.68186
 O998 O 0.77169 0.81268 0.71783
 O999 O 0.73881 0.80648 0.73773
 O1000 O 0.73731 0.79848 0.77203
 C1001 C 0.73257 0.81026 0.75626
 O1002 O 0.73586 0.70907 0.71712
 Zr1003 Zr 0.73856 0.73297 0.74058
 O1004 O 0.72391 0.76304 0.78404
 O1005 O 0.72939 0.78378 0.70763
 O1006 O 0.71217 0.74213 0.72153
 O1007 O 0.72939 0.70295 0.75385
 O1008 O 0.71177 0.73916 0.75973
 C1009 C 0.70924 0.75119 0.77569
 O1010 O 0.76550 0.79319 0.79664
 O1011 O 0.81584 0.72232 0.78252
 O1012 O 0.75946 0.75624 0.80458
 O1013 O 0.78108 0.72665 0.79926
 O1014 O 0.83394 0.76458 0.76757
 O1015 O 0.81030 0.79473 0.77728
 C1016 C 0.77023 0.73958 0.81086
 H1017 H 0.81946 0.73505 0.74504
 H1018 H 0.77498 0.80246 0.75664
 H1019 H 0.74570 0.72840 0.77967
 H1020 H 0.74907 0.74662 0.70414
 H1021 H 0.82809 0.80829 0.74168
 H1022 H 0.76143 0.81989 0.70829
 H1023 H 0.72927 0.79817 0.70086
 H1024 H 0.69986 0.73244 0.72485
 H1025 H 0.84566 0.77477 0.76374
 H1026 H 0.81588 0.70794 0.78933
 H1027 H 0.78175 0.68855 0.78585
 H1028 H 0.71370 0.70096 0.75120
 H1029 H 0.82428 0.80246 0.77592
 H1030 H 0.75322 0.79530 0.80630
 H1031 H 0.79019 0.71267 0.68519
 H1032 H 0.72081 0.70355 0.71665
 Zr1033 Zr 0.21172 0.23770 0.78258
 O1034 O 0.22241 0.21501 0.80482
 O1035 O 0.18056 0.24487 0.79296
 O1036 O 0.21387 0.25220 0.81211
 O1037 O 0.19743 0.19952 0.74584
 O1038 O 0.23379 0.28285 0.80652
 O1039 O 0.19482 0.20786 0.78005
 O1040 O 0.16896 0.27155 0.77117
 O1041 O 0.20941 0.27111 0.77718
 O1042 O 0.19508 0.24145 0.75474
 O1043 O 0.24378 0.24923 0.78202
 O1044 O 0.22988 0.22026 0.76057
 Zr1045 Zr 0.24350 0.27023 0.72501
 Zr1046 Zr 0.24131 0.28230 0.77498
 Zr1047 Zr 0.21383 0.22581 0.73255
 Zr1048 Zr 0.19379 0.27454 0.74892
 O1049 O 0.22824 0.19631 0.72301
 O1050 O 0.18710 0.30595 0.76063
 O1051 O 0.21120 0.25888 0.72534
 O1052 O 0.22516 0.28731 0.74702
 O1053 O 0.26027 0.26664 0.75284
 O1054 O 0.24565 0.23691 0.73064
 C1055 C 0.16683 0.25913 0.78694
 C1056 C 0.19128 0.19552 0.76434
 C1057 C 0.22304 0.26989 0.81812
 O1058 O 0.22796 0.31296 0.78236
 O1059 O 0.26067 0.30692 0.76212
 O1060 O 0.26185 0.29908 0.72776
 C1061 C 0.26671 0.31079 0.74355
 O1062 O 0.26423 0.20941 0.78210
 Zr1063 Zr 0.26120 0.23342 0.75883
 O1064 O 0.27529 0.26376 0.71542
 O1065 O 0.27049 0.28410 0.79200
 O1066 O 0.28774 0.24253 0.77770
 O1067 O 0.27039 0.20350 0.74527
 O1068 O 0.28777 0.23979 0.73949
 C1069 C 0.29009 0.25192 0.72359
 O1070 O 0.23340 0.29385 0.70339
 O1071 O 0.18355 0.22281 0.71751
 O1072 O 0.23958 0.25694 0.69517
 O1073 O 0.21815 0.22729 0.70049
 O1074 O 0.16542 0.26496 0.73291
 O1075 O 0.18881 0.29520 0.72318
 C1076 C 0.22884 0.24029 0.68889
 H1077 H 0.18026 0.23534 0.75512
 H1078 H 0.22432 0.30291 0.74353
 H1079 H 0.25370 0.22902 0.71978
 H1080 H 0.25100 0.24687 0.79545
 H1081 H 0.17133 0.30853 0.75905
 H1082 H 0.23829 0.32014 0.79185
 H1083 H 0.27061 0.29846 0.79886
 H1084 H 0.30006 0.23289 0.77420
 H1085 H 0.15369 0.27510 0.73691
 H1086 H 0.18351 0.20847 0.71060
 H1087 H 0.21776 0.18912 0.71368
 H1088 H 0.28612 0.20154 0.74778
 H1089 H 0.17482 0.30291 0.72473
 H1090 H 0.24557 0.29604 0.69363
 H1091 H 0.21024 0.21273 0.81455
 H1092 H 0.27931 0.20391 0.78240
 Zr1093 Zr 0.28807 0.76352 0.28252
 O1094 O 0.27737 0.78616 0.30483
 O1095 O 0.31927 0.75637 0.29287
 O1096 O 0.28600 0.74896 0.31201
 O1097 O 0.30224 0.80179 0.24591
 O1098 O 0.26613 0.71829 0.30631
 O1099 O 0.30494 0.79338 0.28008
 O1100 O 0.33087 0.72975 0.27098
 O1101 O 0.29044 0.73012 0.27701
 O1102 O 0.30469 0.75984 0.25466
 O1103 O 0.25604 0.75194 0.28193
 O1104 O 0.26985 0.78096 0.26057
 Zr1105 Zr 0.25628 0.73102 0.22486
 Zr1106 Zr 0.25856 0.71888 0.27478
 Zr1107 Zr 0.28587 0.77549 0.23253
 Zr1108 Zr 0.30602 0.72677 0.24873
 O1109 O 0.27138 0.80497 0.22309
 O1110 O 0.31280 0.69535 0.26032
 O1111 O 0.28855 0.74244 0.22521
 O1112 O 0.27468 0.71394 0.24680
 O1113 O 0.23954 0.73453 0.25270
 O1114 O 0.25406 0.76433 0.23058
 C1115 C 0.33301 0.74214 0.28680
 C1116 C 0.30842 0.80576 0.26442
 C1117 C 0.27686 0.73124 0.31796
 O1118 O 0.27197 0.68824 0.28206
 O1119 O 0.23923 0.69426 0.26186
 O1120 O 0.23800 0.70213 0.22752
 C1121 C 0.23317 0.69039 0.24328
 O1122 O 0.23551 0.79174 0.28213
 Zr1123 Zr 0.23855 0.76774 0.25879
 O1124 O 0.22446 0.73743 0.21531
 O1125 O 0.22941 0.71701 0.29181
 O1126 O 0.21207 0.75858 0.27767
 O1127 O 0.22927 0.79765 0.24530
 O1128 O 0.21194 0.76130 0.23947
 C1129 C 0.20962 0.74919 0.22354
 O1130 O 0.26638 0.70745 0.20315
 O1131 O 0.31612 0.77860 0.21750
 O1132 O 0.26017 0.74435 0.19505
 O1133 O 0.28155 0.77404 0.20047
 O1134 O 0.33436 0.73644 0.23274
 O1135 O 0.31101 0.70617 0.22291
 C1136 C 0.27089 0.76103 0.18882
 H1137 H 0.31949 0.76598 0.25505
 H1138 H 0.27555 0.69835 0.24326
 H1139 H 0.24599 0.77221 0.21974
 H1140 H 0.24883 0.75426 0.29537
 H1141 H 0.32856 0.69279 0.25872
 H1142 H 0.26167 0.68102 0.29153
 H1143 H 0.22932 0.70264 0.29862
 H1144 H 0.19972 0.76820 0.27421
 H1145 H 0.34611 0.72631 0.23671
 H1146 H 0.31613 0.79294 0.21064
 H1147 H 0.28183 0.81220 0.21378
 H1148 H 0.21354 0.79957 0.24781
 H1149 H 0.32501 0.69849 0.22443
 H1150 H 0.25420 0.70526 0.19339
 H1151 H 0.28955 0.78844 0.31457
 H1152 H 0.22043 0.79723 0.28242
 Zr1153 Zr 0.21186 0.76233 0.71771
 O1154 O 0.22253 0.78499 0.69547
 O1155 O 0.18069 0.75520 0.70733
 O1156 O 0.21396 0.74783 0.68818
 O1157 O 0.19761 0.80055 0.75443
 O1158 O 0.23389 0.71713 0.69377
 O1159 O 0.19496 0.79220 0.72023
 O1160 O 0.16915 0.72852 0.72911
 O1161 O 0.20957 0.72892 0.72311
 O1162 O 0.19524 0.75861 0.74555
 O1163 O 0.24392 0.75074 0.71827
 O1164 O 0.23004 0.77973 0.73972
 Zr1165 Zr 0.24371 0.72973 0.77527
 Zr1166 Zr 0.24147 0.71767 0.72530
 Zr1167 Zr 0.21402 0.77421 0.76774
 Zr1168 Zr 0.19398 0.72552 0.75137
 O1169 O 0.22843 0.80368 0.77729
 O1170 O 0.18728 0.69411 0.73970
 O1171 O 0.21141 0.74115 0.77495
 O1172 O 0.22536 0.71269 0.75327
 O1173 O 0.26045 0.73329 0.74744
 O1174 O 0.24585 0.76305 0.76965
 C1175 C 0.16699 0.74094 0.71333
 C1176 C 0.19145 0.80456 0.73593
 C1177 C 0.22312 0.73011 0.68217
 O1178 O 0.22813 0.68704 0.71793
 O1179 O 0.26087 0.69304 0.73814
 O1180 O 0.26208 0.70085 0.77251
 C1181 C 0.26694 0.68914 0.75671
 O1182 O 0.26437 0.79052 0.71819
 Zr1183 Zr 0.26137 0.76651 0.74146
 O1184 O 0.27550 0.73614 0.78487
 O1185 O 0.27062 0.71583 0.70826
 O1186 O 0.28788 0.75735 0.72258
 O1187 O 0.27057 0.79641 0.75502
 O1188 O 0.28796 0.76007 0.76079
 C1189 C 0.29030 0.74795 0.77670
 O1190 O 0.23366 0.70613 0.79689
 O1191 O 0.18375 0.77729 0.78277
 O1192 O 0.23979 0.74302 0.80512
 O1193 O 0.21835 0.77273 0.79979
 O1194 O 0.16561 0.73517 0.76737
 O1195 O 0.18904 0.70489 0.77713
 C1196 C 0.22905 0.75970 0.81140
 H1197 H 0.18043 0.76475 0.74517
 H1198 H 0.22452 0.69709 0.75676
 H1199 H 0.25390 0.77092 0.78051
 H1200 H 0.25113 0.75308 0.70483
 H1201 H 0.17152 0.69156 0.74129
 H1202 H 0.23844 0.67984 0.70843
 H1203 H 0.27074 0.70147 0.70140
 H1204 H 0.30021 0.76696 0.72608
 H1205 H 0.15389 0.72504 0.76336
 H1206 H 0.18371 0.79162 0.78967
 H1207 H 0.21796 0.81090 0.78661
 H1208 H 0.28629 0.79834 0.75252
 H1209 H 0.17504 0.69722 0.77560
 H1210 H 0.24584 0.70391 0.80665
 H1211 H 0.21035 0.78730 0.68574
 H1212 H 0.27945 0.79599 0.71790
 Zr1213 Zr 0.28774 0.23733 0.21709
 O1214 O 0.27722 0.21474 0.19467
 O1215 O 0.31895 0.24456 0.20690
 O1216 O 0.28574 0.25197 0.18763
 O1217 O 0.30189 0.19898 0.25367
 O1218 O 0.26572 0.28260 0.19331
 O1219 O 0.30471 0.20748 0.21953
 O1220 O 0.33037 0.27114 0.22890
 O1221 O 0.28996 0.27072 0.22270
 O1222 O 0.30423 0.24095 0.24503
 O1223 O 0.25566 0.24886 0.21756
 O1224 O 0.26950 0.21980 0.23891
 Zr1225 Zr 0.25559 0.26961 0.27470
 Zr1226 Zr 0.25803 0.28190 0.22481
 Zr1227 Zr 0.28538 0.22522 0.26704
 Zr1228 Zr 0.30541 0.27401 0.25105
 O1229 O 0.27096 0.19570 0.27635
 O1230 O 0.31212 0.30548 0.23958
 O1231 O 0.28790 0.25825 0.27445
 O1232 O 0.27401 0.28678 0.25288
 O1233 O 0.23897 0.26616 0.24677
 O1234 O 0.25353 0.23632 0.26887
 C1235 C 0.33261 0.25879 0.21307
 C1236 C 0.30817 0.19507 0.23519
 C1237 C 0.27656 0.26970 0.18168
 O1238 O 0.27137 0.31258 0.21766
 O1239 O 0.23859 0.30648 0.23771
 O1240 O 0.23723 0.29851 0.27202
 C1241 C 0.23246 0.31029 0.25627
 O1242 O 0.23526 0.20906 0.21715
 Zr1243 Zr 0.23813 0.23297 0.24058
 O1244 O 0.22376 0.26310 0.28410
 O1245 O 0.22893 0.28378 0.20767
 O1246 O 0.21168 0.24218 0.22164
 O1247 O 0.22894 0.20298 0.25392
 O1248 O 0.21145 0.23924 0.25984
 C1249 C 0.20901 0.25129 0.27580
 O1250 O 0.26549 0.29314 0.29652
 O1251 O 0.31559 0.22212 0.28219
 O1252 O 0.25943 0.25621 0.30449
 O1253 O 0.28094 0.22657 0.29908
 O1254 O 0.33372 0.26433 0.26715
 O1255 O 0.31022 0.29455 0.27694
 C1256 C 0.27019 0.23953 0.31073
 H1257 H 0.31906 0.23484 0.24469
 H1258 H 0.27482 0.30237 0.25646
 H1259 H 0.24544 0.22839 0.27965
 H1260 H 0.24851 0.24657 0.20409
 H1261 H 0.32786 0.30805 0.24126
 H1262 H 0.26108 0.31981 0.20816
 H1263 H 0.22882 0.29817 0.20089
 H1264 H 0.19936 0.23253 0.22502
 H1265 H 0.34545 0.27449 0.26326
 H1266 H 0.31562 0.20775 0.28901
 H1267 H 0.28140 0.18845 0.28568
 H1268 H 0.21323 0.20103 0.25133
 H1269 H 0.32421 0.30225 0.27552
 H1270 H 0.25326 0.29528 0.30623
 H1271 H 0.28945 0.21251 0.18498
 H1272 H 0.22020 0.20358 0.21676
 Zr1273 Zr 0.71324 0.73728 0.28253
 O1274 O 0.72402 0.71467 0.30480
 O1275 O 0.68210 0.74446 0.29296
 O1276 O 0.71542 0.75187 0.31202
 O1277 O 0.69890 0.69898 0.24593
 O1278 O 0.73531 0.78252 0.30630
 O1279 O 0.69636 0.70742 0.28012
 O1280 O 0.67044 0.77108 0.27115
 O1281 O 0.71090 0.77067 0.27705
 O1282 O 0.69652 0.74094 0.25472
 O1283 O 0.74529 0.74882 0.28186
 O1284 O 0.73135 0.71979 0.26052
 Zr1285 Zr 0.74486 0.76967 0.22480
 Zr1286 Zr 0.74278 0.78187 0.27475
 Zr1287 Zr 0.71523 0.72526 0.23252
 Zr1288 Zr 0.69520 0.77401 0.24883
 O1289 O 0.72964 0.69576 0.22300
 O1290 O 0.68852 0.80545 0.26046
 O1291 O 0.71257 0.75830 0.22525
 O1292 O 0.72656 0.78680 0.24681
 O1293 O 0.76170 0.76617 0.25260
 O1294 O 0.74704 0.73637 0.23050
 C1295 C 0.66835 0.75869 0.28695
 C1296 C 0.69280 0.69503 0.26445
 C1297 C 0.72458 0.76960 0.31795
 O1298 O 0.72944 0.81254 0.28208
 O1299 O 0.76208 0.80647 0.26180
 O1300 O 0.76318 0.79856 0.22745
 C1301 C 0.76806 0.81031 0.24320
 O1302 O 0.76579 0.70903 0.28200
 Zr1303 Zr 0.76267 0.73297 0.25867
 O1304 O 0.77662 0.76317 0.21514
 O1305 O 0.77200 0.78372 0.29170
 O1306 O 0.78925 0.74216 0.27744
 O1307 O 0.77182 0.70300 0.24517
 O1308 O 0.78917 0.73927 0.23923
 C1309 C 0.79145 0.75134 0.22329
 O1310 O 0.73472 0.79324 0.20314
 O1311 O 0.68490 0.72217 0.21759
 O1312 O 0.74080 0.75633 0.19499
 O1313 O 0.71940 0.72667 0.20046
 O1314 O 0.66680 0.76436 0.23290
 O1315 O 0.69014 0.79460 0.22304
 C1316 C 0.73002 0.73966 0.18878
 H1317 H 0.68171 0.73482 0.25515
 H1318 H 0.72569 0.80239 0.24329
 H1319 H 0.75505 0.72846 0.21963
 H1320 H 0.75255 0.74651 0.29528
 H1321 H 0.67275 0.80802 0.25891
 H1322 H 0.73978 0.81976 0.29154
 H1323 H 0.77213 0.79810 0.29853
 H1324 H 0.80157 0.73252 0.27394
 H1325 H 0.65507 0.77450 0.23692
 H1326 H 0.68485 0.70781 0.21072
 H1327 H 0.71914 0.68852 0.21372
 H1328 H 0.78755 0.70105 0.24764
 H1329 H 0.67614 0.80230 0.22461
 H1330 H 0.74687 0.79540 0.19335
 H1331 H 0.71188 0.71240 0.31457
 H1332 H 0.78087 0.70355 0.28227
 Zr1333 Zr 0.78792 0.26248 0.78301
 O1334 O 0.77730 0.28514 0.80534
 O1335 O 0.81907 0.25520 0.79336
 O1336 O 0.78578 0.24792 0.81248
 O1337 O 0.80224 0.30072 0.74643
 O1338 O 0.76580 0.21732 0.80677
 O1339 O 0.80488 0.29229 0.78060
 O1340 O 0.83058 0.22854 0.77147
 O1341 O 0.79015 0.22907 0.77747
 O1342 O 0.80452 0.25876 0.75515
 O1343 O 0.75583 0.25102 0.78241
 O1344 O 0.76977 0.28001 0.76107
 Zr1345 Zr 0.75601 0.23016 0.72532
 Zr1346 Zr 0.75823 0.21796 0.77524
 Zr1347 Zr 0.78577 0.27449 0.73303
 Zr1348 Zr 0.80573 0.22569 0.74920
 O1349 O 0.77141 0.30404 0.72361
 O1350 O 0.81238 0.19423 0.76075
 O1351 O 0.78832 0.24145 0.72569
 O1352 O 0.77433 0.21298 0.74725
 O1353 O 0.73928 0.23371 0.75317
 O1354 O 0.75392 0.26347 0.73108
 C1355 C 0.83276 0.24091 0.78729
 C1356 C 0.80841 0.30466 0.76494
 C1357 C 0.77658 0.23023 0.81842
 O1358 O 0.77152 0.18726 0.78249
 O1359 O 0.73880 0.19342 0.76229
 O1360 O 0.73761 0.20134 0.72795
 C1361 C 0.73273 0.18961 0.74370
 O1362 O 0.73547 0.29089 0.78265
 Zr1363 Zr 0.73841 0.26691 0.75929
 O1364 O 0.72422 0.23670 0.71577
 O1365 O 0.72907 0.21618 0.79227
 O1366 O 0.71189 0.25782 0.77814
 O1367 O 0.72925 0.29688 0.74584
 O1368 O 0.71180 0.26062 0.73994
 C1369 C 0.70943 0.24853 0.72400
 O1370 O 0.76603 0.20658 0.70360
 O1371 O 0.81604 0.27748 0.71800
 O1372 O 0.75992 0.24352 0.69553
 O1373 O 0.78142 0.27311 0.70097
 O1374 O 0.83412 0.23526 0.73324
 O1375 O 0.81064 0.20509 0.72336
 C1376 C 0.77068 0.26017 0.68931
 H1377 H 0.81935 0.26484 0.75555
 H1378 H 0.77514 0.19739 0.74370
 H1379 H 0.74588 0.27139 0.72025
 H1380 H 0.74863 0.25336 0.79585
 H1381 H 0.82813 0.19161 0.75915
 H1382 H 0.76119 0.18007 0.79196
 H1383 H 0.72893 0.20180 0.79907
 H1384 H 0.69958 0.26749 0.77469
 H1385 H 0.84582 0.22508 0.73720
 H1386 H 0.81610 0.29184 0.71115
 H1387 H 0.78190 0.31125 0.71431
 H1388 H 0.71353 0.29886 0.74836
 H1389 H 0.82462 0.19736 0.72487
 H1390 H 0.75385 0.20443 0.69383
 H1391 H 0.78949 0.28737 0.81508
 H1392 H 0.72040 0.29642 0.78297
 C1393 C 0.44729 1.03488 0.37485
 C1394 C 0.45746 1.04489 0.35527
 C1395 C 0.44926 1.02537 0.34279
 C1396 C 0.43897 1.01540 0.36211
 C1397 C 0.46854 1.02254 0.37887
 C1398 C 0.46034 1.00303 0.36639
 C1399 C 0.47889 1.03254 0.35958
 C1400 C 0.47052 1.01302 0.34675
 C1401 C 0.43805 1.02682 0.32291
 C1402 C 0.42863 1.02769 0.30663
 C1403 C 0.47813 1.02130 0.39952
 C1404 C 0.48451 1.02081 0.41708
 H1405 H 0.43781 1.04387 0.38662
 H1406 H 0.45612 1.06212 0.35052
 H1407 H 0.42243 1.00840 0.36299
 H1408 H 0.46167 0.98580 0.37114
 H1409 H 0.49542 1.03954 0.35874
 H1410 H 0.47995 1.00404 0.33495
 C1411 C -0.01958 0.52071 0.85813
 C1412 C -0.03777 0.50543 0.85028
 C1413 C -0.05056 0.52531 0.84274
 C1414 C -0.03256 0.54061 0.85024
 C1415 C -0.03139 0.52249 0.87888
 C1416 C -0.04419 0.54235 0.87131
 C1417 C -0.04940 0.50721 0.87135
 C1418 C -0.06230 0.52709 0.86352
 C1419 C -0.06172 0.52676 0.82284
 C1420 C -0.07110 0.52763 0.80655
 C1421 C -0.02187 0.52126 0.89955
 C1422 C -0.01556 0.52078 0.91713
 H1423 H -0.00192 0.51805 0.85613
 H1424 H -0.03527 0.49024 0.84141
 H1425 H -0.02578 0.55439 0.84136
 H1426 H -0.04671 0.55755 0.88016
 H1427 H -0.05620 0.49343 0.88021
 H1428 H -0.07997 0.52974 0.86557
 C1429 C 0.04302 -0.04254 0.87152
 C1430 C 0.03154 -0.03926 0.85053
 C1431 C 0.05051 -0.02491 0.84356
 C1432 C 0.06210 -0.02822 0.86425
 C1433 C 0.03154 -0.02218 0.87978
 C1434 C 0.05051 -0.00785 0.87277
 C1435 C 0.01989 -0.01886 0.85911
 C1436 C 0.03905 -0.00453 0.85179
 C1437 C 0.06156 -0.02636 0.82359
 C1438 C 0.07085 -0.02729 0.80727
 C1439 C 0.02208 -0.02100 0.90048
 C1440 C 0.01577 -0.02057 0.91806
 H1441 H 0.04453 -0.05819 0.87983
 H1442 H 0.02388 -0.05224 0.84118
 H1443 H 0.07955 -0.03210 0.86620
 H1444 H 0.05820 0.00513 0.88210
 H1445 H 0.00244 -0.01498 0.85721
 H1446 H 0.03756 0.01111 0.84346
 C1447 C 0.55599 0.47228 0.37663
 C1448 C 0.54982 0.45606 0.35942
 C1449 C 0.55113 0.47458 0.34367
 C1450 C 0.55744 0.49078 0.36063
 C1451 C 0.53184 0.47753 0.37973
 C1452 C 0.53315 0.49606 0.36400
 C1453 C 0.52551 0.46131 0.36280
 C1454 C 0.52698 0.47982 0.34670
 C1455 C 0.56235 0.47304 0.32380
 C1456 C 0.57178 0.47209 0.30755
 C1457 C 0.52225 0.47884 0.40037
 C1458 C 0.51586 0.47938 0.41791
 H1459 H 0.56786 0.46921 0.38915
 H1460 H 0.55681 0.43961 0.35738
 H1461 H 0.57072 0.50286 0.35957
 H1462 H 0.52617 0.51251 0.36606
 H1463 H 0.51224 0.44923 0.36388
 H1464 H 0.51516 0.48289 0.33415
 C1465 C 0.55333 0.53435 0.12468
 C1466 C 0.54322 0.54456 0.14422
 C1467 C 0.55124 0.52503 0.15676
 C1468 C 0.56148 0.51485 0.13749
 C1469 C 0.53198 0.52221 0.12067
 C1470 C 0.54001 0.50268 0.13322
 C1471 C 0.52170 0.53241 0.13992
 C1472 C 0.52989 0.51288 0.15282
 C1473 C 0.56244 0.52650 0.17665
 C1474 C 0.57186 0.52741 0.19292
 C1475 C 0.52239 0.52097 0.10002
 C1476 C 0.51601 0.52049 0.08247
 H1477 H 0.56289 0.54318 0.11289
 H1478 H 0.54469 0.56181 0.14891
 H1479 H 0.57796 0.50767 0.13665
 H1480 H 0.53855 0.48543 0.12852
 H1481 H 0.50521 0.53958 0.14072
 H1482 H 0.52037 0.50406 0.16464
 C1483 C 0.05615 1.02603 0.62408
 C1484 C 0.05108 1.04334 0.64065
 C1485 C 0.05082 1.02541 0.65704
 C1486 C 0.05602 1.00811 0.64073
 C1487 C 0.03170 1.02258 0.62088
 C1488 C 0.03143 1.00462 0.63725
 C1489 C 0.02648 1.03989 0.63717
 C1490 C 0.02636 1.02196 0.65390
 C1491 C 0.06193 1.02687 0.67698
 C1492 C 0.07126 1.02777 0.69329
 C1493 C 0.02217 1.02132 0.60019
 C1494 C 0.01582 1.02080 0.58263
 H1495 H 0.06833 1.02767 0.61161
 H1496 H 0.05928 1.05926 0.64221
 H1497 H 0.06832 0.99507 0.64236
 H1498 H 0.02323 0.98870 0.63566
 H1499 H 0.01418 1.05293 0.63552
 H1500 H 0.01423 1.02032 0.66641
 C1501 C -0.04213 0.45676 0.62891
 C1502 C -0.03093 0.46098 0.64989
 C1503 C -0.05064 0.47450 0.65658
 C1504 C -0.06196 0.47025 0.63591
 C1505 C -0.03168 0.47751 0.62039
 C1506 C -0.05139 0.49101 0.62713
 C1507 C -0.02031 0.48178 0.64104
 C1508 C -0.04020 0.49527 0.64809
 C1509 C -0.06169 0.47295 0.67653
 C1510 C -0.07097 0.47202 0.69285
 C1511 C -0.02225 0.47887 0.59969
 C1512 C -0.01600 0.47945 0.58211
 H1513 H -0.04280 0.44091 0.62082
 H1514 H -0.02266 0.44857 0.65945
 H1515 H -0.07918 0.46548 0.63397
 H1516 H -0.05970 0.50342 0.61758
 H1517 H -0.00308 0.48654 0.64293
 H1518 H -0.03955 0.51111 0.65619
 C1519 C 0.46028 -0.00318 0.13321
 C1520 C 0.43890 -0.01546 0.13755
 C1521 C 0.44929 -0.02558 0.15677
 C1522 C 0.47055 -0.01332 0.15276
 C1523 C 0.46835 -0.02268 0.12061
 C1524 C 0.47878 -0.03282 0.13981
 C1525 C 0.44708 -0.03493 0.12468
 C1526 C 0.45735 -0.04508 0.14417
 C1527 C 0.43819 -0.02708 0.17670
 C1528 C 0.42886 -0.02799 0.19300
 C1529 C 0.47782 -0.02139 0.09993
 C1530 C 0.48412 -0.02086 0.08236
 H1531 H 0.46162 0.01406 0.12852
 H1532 H 0.42237 -0.00838 0.13678
 H1533 H 0.48009 -0.00444 0.16456
 H1534 H 0.49531 -0.03990 0.14054
 H1535 H 0.43751 -0.04382 0.11292
 H1536 H 0.45599 -0.06233 0.14886
 C1537 C 0.38352 0.42237 0.01968
 C1538 C 0.36332 0.42790 0.03286
 C1539 C 0.34876 0.42288 0.01422
 C1540 C 0.36868 0.41717 0.00108
 C1541 C 0.38457 0.44614 0.01266
 C1542 C 0.37001 0.44112 -0.00597
 C1543 C 0.36466 0.45186 0.02581
 C1544 C 0.34981 0.44665 0.00720
 C1545 C 0.32894 0.40965 0.01531
 C1546 C 0.31298 0.39839 0.01669
 C1547 C 0.40453 0.45914 0.01139
 C1548 C 0.42079 0.46992 0.00967
 H1549 H 0.39755 0.41249 0.02484
 H1550 H 0.36038 0.42234 0.04887
 H1551 H 0.37016 0.40280 -0.00913
 H1552 H 0.37295 0.44667 -0.02198
 H1553 H 0.36319 0.46624 0.03602
 H1554 H 0.33578 0.45653 0.00204
 C1555 C -0.11692 0.92282 0.52003
 C1556 C -0.13731 0.92849 0.53289
 C1557 C -0.15161 0.92326 0.51412
 C1558 C -0.13150 0.91740 0.50129
 C1559 C -0.11578 0.94650 0.51278
 C1560 C -0.13008 0.94127 0.49402
 C1561 C -0.13587 0.95237 0.52562
 C1562 C -0.15046 0.94695 0.50688
 C1563 C -0.17140 0.91000 0.51510
 C1564 C -0.18733 0.89867 0.51643
 C1565 C -0.09580 0.95947 0.51161
 C1566 C -0.07951 0.97021 0.50993
 H1567 H -0.10297 0.91300 0.52546
 H1568 H -0.14047 0.92311 0.54891
 H1569 H -0.12988 0.90292 0.49125
 H1570 H -0.12692 0.94664 0.47799
 H1571 H -0.13748 0.96686 0.53566
 H1572 H -0.16442 0.95676 0.50144
 C1573 C -0.13301 0.05172 0.97132
 C1574 C -0.15085 0.05199 0.98812
 C1575 C -0.15155 0.07687 0.98685
 C1576 C -0.13400 0.07679 0.97003
 C1577 C -0.11566 0.05364 0.98821
 C1578 C -0.11637 0.07852 0.98695
 C1579 C -0.13321 0.05372 1.00503
 C1580 C -0.13419 0.07879 1.00374
 C1581 C -0.17140 0.09010 0.98587
 C1582 C -0.18739 0.10137 0.98454
 C1583 C -0.09567 0.04065 0.98938
 C1584 C -0.07939 0.02987 0.99104
 H1585 H -0.13234 0.04050 0.95796
 H1586 H -0.16521 0.04119 0.98863
 H1587 H -0.13451 0.08642 0.95561
 H1588 H -0.10201 0.08933 0.98643
 H1589 H -0.13271 0.04410 1.01946
 H1590 H -0.13486 0.09000 1.01710
 C1591 C 0.36700 0.55195 0.47061
 C1592 C 0.34908 0.55222 0.48733
 C1593 C 0.34837 0.57710 0.48605
 C1594 C 0.36600 0.57702 0.46931
 C1595 C 0.38427 0.55389 0.48757
 C1596 C 0.38355 0.57876 0.48629
 C1597 C 0.36664 0.55396 0.50431
 C1598 C 0.36565 0.57903 0.50301
 C1599 C 0.32852 0.59032 0.48499
 C1600 C 0.31254 0.60159 0.48363
 C1601 C 0.40427 0.54092 0.48883
 C1602 C 0.42056 0.53016 0.49056
 H1603 H 0.36774 0.54072 0.45726
 H1604 H 0.33472 0.54141 0.48779
 H1605 H 0.36555 0.58664 0.45487
 H1606 H 0.39791 0.58958 0.48583
 H1607 H 0.36709 0.54435 0.51875
 H1608 H 0.36492 0.59025 0.51636
 C1609 C 0.13440 0.54910 0.52603
 C1610 C 0.14995 0.55297 0.50766
 C1611 C 0.15089 0.57717 0.51328
 C1612 C 0.13564 0.57349 0.53167
 C1613 C 0.11501 0.55400 0.51191
 C1614 C 0.11596 0.57819 0.51753
 C1615 C 0.13027 0.55768 0.49351
 C1616 C 0.13150 0.58206 0.49916
 C1617 C 0.17074 0.59036 0.51428
 C1618 C 0.18672 0.60161 0.51561
 C1619 C 0.09502 0.54105 0.51073
 C1620 C 0.07873 0.53030 0.50907
 H1621 H 0.13541 0.53545 0.53712
 H1622 H 0.16410 0.54271 0.50357
 H1623 H 0.13803 0.58012 0.54741
 H1624 H 0.10182 0.58846 0.52161
 H1625 H 0.12787 0.55106 0.47778
 H1626 H 0.13048 0.59571 0.48807
 C1627 C 0.63084 0.05703 -0.00564
 C1628 C 0.63193 0.08157 -0.00063
 C1629 C 0.65097 0.07712 0.01405
 C1630 C 0.65017 0.05276 0.00907
 C1631 C 0.61513 0.05389 0.01250
 C1632 C 0.63416 0.04943 0.02719
 C1633 C 0.61594 0.07824 0.01748
 C1634 C 0.63526 0.07399 0.03219
 C1635 C 0.67080 0.09033 0.01514
 C1636 C 0.68678 0.10156 0.01654
 C1637 C 0.59517 0.04090 0.01123
 C1638 C 0.57891 0.03012 0.00951
 H1639 H 0.62885 0.04993 -0.02124
 H1640 H 0.63119 0.09488 -0.01210
 H1641 H 0.66441 0.04239 0.00559
 H1642 H 0.63490 0.03612 0.03866
 H1643 H 0.60170 0.08862 0.02097
 H1644 H 0.63726 0.08109 0.04779
 C1645 C 0.62950 0.94008 0.50617
 C1646 C 0.63141 0.91682 0.49734
 C1647 C 0.65211 0.92361 0.48588
 C1648 C 0.65049 0.94669 0.49469
 C1649 C 0.61614 0.94671 0.48719
 C1650 C 0.63683 0.95352 0.47572
 C1651 C 0.61777 0.92363 0.47838
 C1652 C 0.63875 0.93023 0.46689
 C1653 C 0.67200 0.91044 0.48494
 C1654 C 0.68802 0.89921 0.48366
 C1655 C 0.59609 0.95963 0.48834
 C1656 C 0.57976 0.97035 0.49000
 H1657 H 0.62551 0.94424 0.52237
 H1658 H 0.62935 0.90162 0.50627
 H1659 H 0.66411 0.95606 0.50142
 H1660 H 0.63888 0.96871 0.46680
 H1661 H 0.60414 0.91426 0.47165
 H1662 H 0.64275 0.92607 0.45070
 C1663 C 0.12765 0.43795 1.00692
 C1664 C 0.12999 0.41554 0.99636
 C1665 C 0.15141 0.42312 0.98667
 C1666 C 0.14935 0.44534 0.99721
 C1667 C 0.11553 0.44639 0.98784
 C1668 C 0.13694 0.45398 0.97814
 C1669 C 0.11759 0.42416 0.97730
 C1670 C 0.13929 0.43155 0.96758
 C1671 C 0.17125 0.40986 0.98578
 C1672 C 0.18722 0.39856 0.98451
 C1673 C 0.09553 0.45939 0.98891
 C1674 C 0.07924 0.47018 0.99048
 H1675 H 0.12268 0.44067 1.02314
 H1676 H 0.12730 0.39962 1.00389
 H1677 H 0.16258 0.45394 1.00542
 H1678 H 0.13962 0.46990 0.97061
 H1679 H 0.10436 0.41555 0.96909
 H1680 H 0.14426 0.42882 0.95136
 C1681 C 0.00697 0.37167 0.39960
 C1682 C 0.02788 0.36002 0.39247
 C1683 C 0.01539 0.33854 0.39233
 C1684 C -0.00550 0.34992 0.39921
 C1685 C 0.01337 0.36721 0.42207
 C1686 C 0.00086 0.34573 0.42194
 C1687 C 0.03426 0.35583 0.41518
 C1688 C 0.02179 0.33404 0.41478
 C1689 C 0.01673 0.32248 0.37595
 C1690 C 0.01826 0.30877 0.36293
 C1691 C 0.01200 0.38386 0.43789
 C1692 C 0.01045 0.39860 0.44984
 H1693 H 0.00087 0.38738 0.39360
 H1694 H 0.03893 0.36570 0.38012
 H1695 H -0.02178 0.34732 0.39238
 H1696 H -0.01019 0.34007 0.43429
 H1697 H 0.05055 0.35843 0.42201
 H1698 H 0.02790 0.31832 0.42076
 C1699 C 0.50721 -0.12870 -0.10002
 C1700 C 0.52816 -0.14007 -0.10742
 C1701 C 0.51594 -0.16172 -0.10742
 C1702 C 0.49501 -0.15060 -0.10027
 C1703 C 0.51397 -0.13309 -0.07764
 C1704 C 0.50174 -0.15473 -0.07763
 C1705 C 0.53491 -0.14420 -0.08479
 C1706 C 0.52271 -0.16614 -0.08505
 C1707 C 0.51725 -0.17773 -0.12383
 C1708 C 0.51874 -0.19141 -0.13689
 C1709 C 0.51260 -0.11646 -0.06180
 C1710 C 0.51103 -0.10172 -0.04985
 H1711 H 0.50082 -0.11306 -0.10593
 H1712 H 0.53897 -0.13425 -0.11990
 H1713 H 0.47867 -0.15341 -0.10690
 H1714 H 0.49093 -0.16054 -0.06514
 H1715 H 0.55125 -0.14139 -0.07816
 H1716 H 0.52910 -0.18179 -0.07917
 C1717 C -0.02478 -0.15606 1.07520
 C1718 C -0.00492 -0.16629 1.08613
 C1719 C -0.01598 -0.16236 1.10698
 C1720 C -0.03585 -0.15243 1.09633
 C1721 C -0.01406 -0.13374 1.07724
 C1722 C -0.02511 -0.12984 1.09810
 C1723 C 0.00582 -0.14368 1.08790
 C1724 C -0.00527 -0.14004 1.10900
 C1725 C -0.01729 -0.17833 1.12339
 C1726 C -0.01882 -0.19193 1.13649
 C1727 C -0.01275 -0.11709 1.06146
 C1728 C -0.01122 -0.10230 1.04958
 H1729 H -0.03275 -0.16240 1.06111
 H1730 H 0.00341 -0.18150 1.08150
 H1731 H -0.05298 -0.15621 1.10008
 H1732 H -0.03344 -0.11465 1.10277
 H1733 H 0.02295 -0.13990 1.08415
 H1734 H 0.00270 -0.13368 1.12308
 C1735 C 0.47405 0.34552 0.57630
 C1736 C 0.49387 0.33423 0.58631
 C1737 C 0.48414 0.33877 0.60764
 C1738 C 0.46430 0.34976 0.59791
 C1739 C 0.48606 0.36722 0.57776
 C1740 C 0.47633 0.37173 0.59911
 C1741 C 0.50589 0.35623 0.58750
 C1742 C 0.49613 0.36047 0.60909
 C1743 C 0.48281 0.32286 0.62411
 C1744 C 0.48126 0.30929 0.63723
 C1745 C 0.48736 0.38377 0.56188
 C1746 C 0.48888 0.39848 0.54991
 H1747 H 0.46502 0.33962 0.56261
 H1748 H 0.50111 0.31860 0.58133
 H1749 H 0.44720 0.34692 0.60248
 H1750 H 0.46909 0.38735 0.60411
 H1751 H 0.52299 0.35907 0.58294
 H1752 H 0.50516 0.36639 0.62276
 C1753 C 0.53016 1.15187 0.57819
 C1754 C 0.51147 1.16724 0.58461
 C1755 C 0.51574 1.16146 0.60725
 C1756 C 0.53446 1.14638 0.60110
 C1757 C 0.51388 1.13313 0.57721
 C1758 C 0.51816 1.12738 0.59986
 C1759 C 0.49516 1.14820 0.58336
 C1760 C 0.49948 1.14272 0.60626
 C1761 C 0.51702 1.17729 0.62382
 C1762 C 0.51853 1.19081 0.63702
 C1763 C 0.51261 1.11662 0.56125
 C1764 C 0.51111 1.10194 0.54923
 H1765 H 0.54271 1.15541 0.56642
 H1766 H 0.50870 1.18387 0.57862
 H1767 H 0.55057 1.14581 0.60867
 H1768 H 0.52094 1.11077 0.60589
 H1769 H 0.47904 1.14876 0.57579
 H1770 H 0.48693 1.13915 0.61802
 C1771 C 0.02899 0.63095 1.09614
 C1772 C 0.03554 0.65502 1.09361
 C1773 C 0.01635 0.66146 1.10736
 C1774 C 0.00984 0.63766 1.11014
 C1775 C 0.01414 0.63320 1.07729
 C1776 C -0.00505 0.63965 1.09105
 C1777 C 0.02066 0.65700 1.07448
 C1778 C 0.00149 0.66374 1.08852
 C1779 C 0.01776 0.67728 1.12393
 C1780 C 0.01931 0.69082 1.13711
 C1781 C 0.01266 0.61675 1.06129
 C1782 C 0.01102 0.60211 1.04924
 H1783 H 0.04031 0.61728 1.09901
 H1784 H 0.05225 0.66153 1.09496
 H1785 H 0.00542 0.62994 1.12499
 H1786 H -0.02175 0.63315 1.08972
 H1787 H 0.02508 0.66469 1.05963
 H1788 H -0.00983 0.67741 1.08568
 C1789 C 0.46479 0.64277 -0.08549
 C1790 C 0.47534 0.66555 -0.08496
 C1791 C 0.48396 0.66170 -0.10685
 C1792 C 0.47339 0.63922 -0.10763
 C1793 C 0.48594 0.63320 -0.07701
 C1794 C 0.49455 0.62939 -0.09891
 C1795 C 0.49652 0.65567 -0.07621
 C1796 C 0.50510 0.65213 -0.09837
 C1797 C 0.48260 0.67761 -0.12332
 C1798 C 0.48100 0.69116 -0.13647
 C1799 C 0.48729 0.61659 -0.06119
 C1800 C 0.48883 0.60183 -0.04927
 H1801 H 0.44828 0.63875 -0.07993
 H1802 H 0.46742 0.68066 -0.07949
 H1803 H 0.46394 0.63266 -0.12078
 H1804 H 0.50247 0.61428 -0.10441
 H1805 H 0.50598 0.66221 -0.06305
 H1806 H 0.52162 0.65615 -0.10394
 C1807 C -0.02070 1.12780 0.40056
 C1808 C -0.03528 1.14823 0.40068
 C1809 C -0.01593 1.16157 0.39299
 C1810 C -0.00139 1.14140 0.39261
 C1811 C -0.01385 1.13300 0.42276
 C1812 C 0.00550 1.14634 0.41506
 C1813 C -0.02841 1.15316 0.42315
 C1814 C -0.00908 1.16680 0.41518
 C1815 C -0.01737 1.17751 0.37655
 C1816 C -0.01905 1.19109 0.36344
 C1817 C -0.01250 1.11638 0.43858
 C1818 C -0.01099 1.10164 0.45052
 H1819 H -0.02550 1.11155 0.39479
 H1820 H -0.05202 1.14918 0.39449
 H1821 H 0.00966 1.13678 0.37985
 H1822 H 0.02224 1.14537 0.42125
 H1823 H -0.03945 1.15776 0.43591
 H1824 H -0.00429 1.18307 0.42091
 C1825 C 0.78063 0.69527 0.87402
 C1826 C 0.79368 0.70389 0.89265
 C1827 C 0.77423 0.69893 0.90662
 C1828 C 0.76121 0.69018 0.88825
 C1829 C 0.77145 0.71818 0.87054
 C1830 C 0.75200 0.71322 0.88450
 C1831 C 0.78450 0.72696 0.88889
 C1832 C 0.76504 0.72184 0.90321
 C1833 C 0.77568 0.68775 0.92651
 C1834 C 0.77659 0.67837 0.94279
 C1835 C 0.77027 0.72776 0.84989
 C1836 C 0.76986 0.73414 0.83235
 H1837 H 0.78703 0.68442 0.86180
 H1838 H 0.81083 0.69991 0.89618
 H1839 H 0.75168 0.67493 0.88815
 H1840 H 0.73485 0.71719 0.88097
 H1841 H 0.79402 0.74221 0.88896
 H1842 H 0.75865 0.73264 0.91547
 C1843 C 0.27155 0.23033 0.39118
 C1844 C 0.25558 0.21308 0.39963
 C1845 C 0.27497 0.19923 0.40661
 C1846 C 0.29096 0.21630 0.39852
 C1847 C 0.27190 0.21831 0.37046
 C1848 C 0.29127 0.20445 0.37748
 C1849 C 0.25593 0.20124 0.37858
 C1850 C 0.27531 0.18727 0.38586
 C1851 C 0.27655 0.18814 0.42653
 C1852 C 0.27752 0.17883 0.44284
 C1853 C 0.27054 0.22782 0.34979
 C1854 C 0.26998 0.23415 0.33223
 H1855 H 0.26997 0.24814 0.39316
 H1856 H 0.24090 0.21649 0.40896
 H1857 H 0.30541 0.22235 0.40691
 H1858 H 0.30596 0.20101 0.36817
 H1859 H 0.24147 0.19516 0.37021
 H1860 H 0.27689 0.16946 0.38384
 C1861 C 0.71975 0.30404 0.37414
 C1862 C 0.70520 0.29634 0.39209
 C1863 C 0.72417 0.30004 0.40700
 C1864 C 0.73869 0.30787 0.38930
 C1865 C 0.72758 0.28058 0.37104
 C1866 C 0.74656 0.28428 0.38593
 C1867 C 0.71303 0.27272 0.38871
 C1868 C 0.73201 0.27658 0.40397
 C1869 C 0.72243 0.31137 0.42682
 C1870 C 0.72138 0.32089 0.44303
 C1871 C 0.72912 0.27092 0.35043
 C1872 C 0.72982 0.26453 0.33288
 H1873 H 0.71473 0.31527 0.36166
 H1874 H 0.68818 0.30145 0.39479
 H1875 H 0.74919 0.32247 0.38971
 H1876 H 0.76358 0.27918 0.38322
 H1877 H 0.70253 0.25812 0.38828
 H1878 H 0.73702 0.26540 0.41648
 C1879 C 0.21991 0.80438 0.87456
 C1880 C 0.20546 0.79665 0.89258
 C1881 C 0.22461 0.80003 0.90735
 C1882 C 0.23903 0.80789 0.88959
 C1883 C 0.22748 0.78088 0.87119
 C1884 C 0.24664 0.78426 0.88595
 C1885 C 0.21304 0.77299 0.88893
 C1886 C 0.23219 0.77652 0.90405
 C1887 C 0.22314 0.81117 0.92727
 C1888 C 0.22224 0.82053 0.94358
 C1889 C 0.22875 0.77136 0.85050
 C1890 C 0.22926 0.76505 0.83293
 H1891 H 0.21487 0.81577 0.86222
 H1892 H 0.18852 0.80189 0.89547
 H1893 H 0.24968 0.82239 0.89003
 H1894 H 0.26358 0.77903 0.88304
 H1895 H 0.20240 0.75850 0.88846
 H1896 H 0.23722 0.76518 0.91642
 C1897 C 0.29024 0.77713 0.11302
 C1898 C 0.27260 0.77635 0.09600
 C1899 C 0.27540 0.80088 0.09275
 C1900 C 0.29303 0.80181 0.10943
 C1901 C 0.27252 0.78200 0.12900
 C1902 C 0.27531 0.80652 0.12568
 C1903 C 0.25487 0.78107 0.11234
 C1904 C 0.25770 0.80573 0.10874
 C1905 C 0.27687 0.81187 0.07277
 C1906 C 0.27775 0.82109 0.05641
 C1907 C 0.27123 0.77261 0.14971
 C1908 C 0.27070 0.76635 0.16730
 H1909 H 0.30358 0.76523 0.11497
 H1910 H 0.27153 0.76406 0.08355
 H1911 H 0.30872 0.81046 0.10806
 H1912 H 0.27640 0.81887 0.13809
 H1913 H 0.23917 0.77242 0.11373
 H1914 H 0.24435 0.81764 0.10681
 C1915 C 0.75365 0.29448 0.61953
 C1916 C 0.77001 0.31253 0.61393
 C1917 C 0.77484 0.30081 0.59356
 C1918 C 0.75847 0.28288 0.59885
 C1919 C 0.77210 0.28155 0.62964
 C1920 C 0.77693 0.26977 0.60929
 C1921 C 0.78844 0.29948 0.62429
 C1922 C 0.79330 0.28789 0.60365
 C1923 C 0.77624 0.31201 0.57369
 C1924 C 0.77707 0.32142 0.55743
 C1925 C 0.77090 0.27196 0.65027
 C1926 C 0.77043 0.26558 0.66782
 H1927 H 0.73731 0.29705 0.62624
 H1928 H 0.76722 0.33022 0.61567
 H1929 H 0.74614 0.27618 0.58816
 H1930 H 0.77972 0.25208 0.60759
 H1931 H 0.80078 0.30622 0.63496
 H1932 H 0.80964 0.28533 0.59693
 C1933 C 0.24586 0.20629 0.61890
 C1934 C 0.22953 0.18822 0.61321
 C1935 C 0.22463 0.20001 0.59292
 C1936 C 0.24095 0.21797 0.59829
 C1937 C 0.22739 0.21912 0.62910
 C1938 C 0.22248 0.23097 0.60883
 C1939 C 0.21109 0.20116 0.62367
 C1940 C 0.20615 0.21284 0.60310
 C1941 C 0.22319 0.18888 0.57298
 C1942 C 0.22230 0.17952 0.55668
 C1943 C 0.22860 0.22862 0.64979
 C1944 C 0.22907 0.23494 0.66737
 H1945 H 0.26222 0.20374 0.62557
 H1946 H 0.23238 0.17053 0.61485
 H1947 H 0.25323 0.22476 0.58761
 H1948 H 0.21962 0.24866 0.60723
 H1949 H 0.19879 0.19434 0.63432
 H1950 H 0.18978 0.21537 0.59642
 C1951 C 0.71373 0.72681 0.11120
 C1952 C 0.73282 0.72259 0.09617
 C1953 C 0.72451 0.69934 0.09289
 C1954 C 0.70542 0.70341 0.10757
 C1955 C 0.72785 0.71848 0.12902
 C1956 C 0.71955 0.69524 0.12567
 C1957 C 0.74695 0.71441 0.11434
 C1958 C 0.73861 0.69104 0.11073
 C1959 C 0.72278 0.68820 0.07298
 C1960 C 0.72169 0.67885 0.05669
 C1961 C 0.72937 0.72799 0.14969
 C1962 C 0.73007 0.73431 0.16726
 H1963 H 0.70356 0.74166 0.11159
 H1964 H 0.73826 0.73372 0.08379
 H1965 H 0.68833 0.69875 0.10462
 H1966 H 0.71410 0.68406 0.13801
 H1967 H 0.76404 0.71907 0.11731
 H1968 H 0.74878 0.67619 0.11037
 C1969 C 0.17520 0.63249 0.22517
 C1970 C 0.18329 0.61028 0.21703
 C1971 C 0.17320 0.59917 0.23592
 C1972 C 0.16492 0.62110 0.24404
 C1973 C 0.19644 0.63501 0.23729
 C1974 C 0.18635 0.62390 0.25618
 C1975 C 0.20474 0.61310 0.22918
 C1976 C 0.19444 0.60169 0.24805
 C1977 C 0.15994 0.57936 0.23495
 C1978 C 0.14863 0.56342 0.23364
 C1979 C 0.20942 0.65500 0.23848
 C1980 C 0.22017 0.67128 0.24015
 H1981 H 0.16739 0.64532 0.21575
 H1982 H 0.18193 0.60448 0.20090
 H1983 H 0.14843 0.62422 0.25019
 H1984 H 0.18770 0.62969 0.27232
 H1985 H 0.22123 0.60999 0.22303
 H1986 H 0.20224 0.58886 0.25747
 C1987 C 0.69153 0.11931 0.75588
 C1988 C 0.66730 0.11821 0.74973
 C1989 C 0.67239 0.09865 0.73585
 C1990 C 0.69643 0.09947 0.74198
 C1991 C 0.69576 0.13440 0.73747
 C1992 C 0.70086 0.11485 0.72359
 C1993 C 0.67172 0.13358 0.73134
 C1994 C 0.67661 0.11374 0.71743
 C1995 C 0.65909 0.07888 0.73472
 C1996 C 0.64777 0.06295 0.73331
 C1997 C 0.70882 0.15432 0.73878
 C1998 C 0.71965 0.17055 0.74053
 H1999 H 0.69779 0.12179 0.77174
 H2000 H 0.65340 0.11942 0.76051
 H2001 H 0.70649 0.08528 0.74638
 H2002 H 0.71476 0.11365 0.71280
 H2003 H 0.66166 0.14777 0.72694
 H2004 H 0.67036 0.11126 0.70158
 C2005 C 0.81800 0.12424 0.24463
 C2006 C 0.83680 0.11977 0.25986
 C2007 C 0.82750 0.09703 0.26381
 C2008 C 0.80889 0.10122 0.24860
 C2009 C 0.80428 0.13294 0.26260
 C2010 C 0.79496 0.11020 0.26655
 C2011 C 0.82289 0.12875 0.27781
 C2012 C 0.81378 0.10572 0.28179
 C2013 C 0.84077 0.07719 0.26473
 C2014 C 0.85209 0.06123 0.26603
 C2015 C 0.79131 0.15297 0.26150
 C2016 C 0.78058 0.16930 0.25989
 H2017 H 0.81966 0.13206 0.22932
 H2018 H 0.85414 0.12355 0.25707
 H2019 H 0.80324 0.08974 0.23658
 H2020 H 0.77763 0.10644 0.26934
 H2021 H 0.82855 0.14024 0.28983
 H2022 H 0.81214 0.09790 0.29709
 C2023 C 0.32127 0.62759 0.74655
 C2024 C 0.33667 0.62110 0.76435
 C2025 C 0.32731 0.59800 0.76373
 C2026 C 0.31209 0.60422 0.74595
 C2027 C 0.30390 0.63380 0.76249
 C2028 C 0.29452 0.61071 0.76186
 C2029 C 0.31912 0.62758 0.78027
 C2030 C 0.30994 0.60420 0.77967
 C2031 C 0.34066 0.57822 0.76466
 C2032 C 0.35204 0.56230 0.76596
 C2033 C 0.29083 0.65376 0.76138
 C2034 C 0.28001 0.67004 0.75977
 H2035 H 0.32585 0.63741 0.73292
 H2036 H 0.35415 0.62521 0.76535
 H2037 H 0.30930 0.59445 0.73183
 H2038 H 0.27704 0.60660 0.76087
 H2039 H 0.32191 0.63735 0.79438
 H2040 H 0.30537 0.59438 0.79330
 C2041 C 0.32660 0.36840 0.74620
 C2042 C 0.33354 0.38012 0.72618
 C2043 C 0.32686 0.40189 0.73587
 C2044 C 0.32011 0.39044 0.75588
 C2045 C 0.30355 0.36610 0.73746
 C2046 C 0.29687 0.38786 0.74715
 C2047 C 0.31030 0.37753 0.71745
 C2048 C 0.30382 0.39960 0.72712
 C2049 C 0.34013 0.42169 0.73478
 C2050 C 0.35142 0.43763 0.73340
 C2051 C 0.29054 0.34614 0.73873
 C2052 C 0.27975 0.32988 0.74044
 H2053 H 0.33589 0.35537 0.75403
 H2054 H 0.34876 0.37709 0.71755
 H2055 H 0.32423 0.39592 0.77168
 H2056 H 0.28165 0.39089 0.75579
 H2057 H 0.30618 0.37205 0.70165
 H2058 H 0.29454 0.41263 0.71929
 C2059 C 0.82776 0.86809 0.24578
 C2060 C 0.83453 0.88001 0.22581
 C2061 C 0.82782 0.90167 0.23571
 C2062 C 0.82125 0.89003 0.25566
 C2063 C 0.80468 0.86576 0.23715
 C2064 C 0.79797 0.88742 0.24705
 C2065 C 0.81125 0.87740 0.21719
 C2066 C 0.80474 0.89936 0.22707
 C2067 C 0.84103 0.92151 0.23468
 C2068 C 0.85231 0.93747 0.23330
 C2069 C 0.79175 0.84575 0.23836
 C2070 C 0.78104 0.82944 0.24005
 H2071 H 0.83716 0.85504 0.25346
 H2072 H 0.84972 0.87712 0.21707
 H2073 H 0.82544 0.89539 0.27148
 H2074 H 0.78278 0.89031 0.25579
 H2075 H 0.80706 0.87203 0.20137
 H2076 H 0.79535 0.91241 0.21939
 C2077 C 0.69326 0.88166 0.74408
 C2078 C 0.66853 0.88268 0.74805
 C2079 C 0.67227 0.90143 0.76325
 C2080 C 0.69681 0.90069 0.75930
 C2081 C 0.69558 0.86558 0.76204
 C2082 C 0.69934 0.88432 0.77725
 C2083 C 0.67104 0.86633 0.76599
 C2084 C 0.67459 0.88536 0.78122
 C2085 C 0.65899 0.92127 0.76415
 C2086 C 0.64769 0.93724 0.76541
 C2087 C 0.70862 0.84560 0.76094
 C2088 C 0.71945 0.82933 0.75933
 H2089 H 0.70106 0.87995 0.72876
 H2090 H 0.65576 0.88219 0.73601
 H2091 H 0.70731 0.91499 0.75652
 H2092 H 0.71210 0.88481 0.78928
 H2093 H 0.66054 0.85203 0.76877
 H2094 H 0.66678 0.88706 0.79653
 C2095 C 0.20403 0.38753 0.27089
 C2096 C 0.19427 0.39932 0.25196
 C2097 C 0.17275 0.40181 0.26362
 C2098 C 0.18230 0.39031 0.28257
 C2099 C 0.19583 0.36582 0.26226
 C2100 C 0.17431 0.36830 0.27391
 C2101 C 0.18627 0.37732 0.24331
 C2102 C 0.16456 0.38008 0.25499
 C2103 C 0.15958 0.42171 0.26459
 C2104 C 0.14834 0.43772 0.26589
 C2105 C 0.20874 0.34576 0.26108
 C2106 C 0.21946 0.32943 0.25941
 H2107 H 0.22038 0.39042 0.27747
 H2108 H 0.20237 0.41224 0.24291
 H2109 H 0.18057 0.39586 0.29875
 H2110 H 0.16620 0.35538 0.28295
 H2111 H 0.18799 0.37178 0.22712
 H2112 H 0.14821 0.37719 0.24841
 C2113 C 0.10605 0.24428 0.83710
 C2114 C 0.11018 0.25418 0.85866
 C2115 C 0.08833 0.26594 0.85721
 C2116 C 0.08391 0.25606 0.83590
 C2117 C 0.11677 0.26421 0.82730
 C2118 C 0.09493 0.27598 0.82583
 C2119 C 0.12116 0.27408 0.84862
 C2120 C 0.09905 0.28587 0.84741
 C2121 C 0.07245 0.26716 0.87371
 C2122 C 0.05891 0.26865 0.88687
 C2123 C 0.13333 0.26299 0.81142
 C2124 C 0.14805 0.26153 0.79945
 H2125 H 0.10912 0.22719 0.83258
 H2126 H 0.11622 0.24528 0.87235
 H2127 H 0.06838 0.24863 0.83096
 H2128 H 0.08891 0.28488 0.81213
 H2129 H 0.13668 0.28151 0.85359
 H2130 H 0.09599 0.30296 0.85194
 C2131 C 0.60744 0.74406 0.33708
 C2132 C 0.61154 0.75392 0.35866
 C2133 C 0.58978 0.76581 0.35714
 C2134 C 0.58537 0.75598 0.33581
 C2135 C 0.61831 0.76393 0.32733
 C2136 C 0.59655 0.77583 0.32580
 C2137 C 0.62269 0.77375 0.34867
 C2138 C 0.60066 0.78568 0.34740
 C2139 C 0.57381 0.76711 0.37356
 C2140 C 0.56017 0.76864 0.38663
 C2141 C 0.63490 0.76264 0.31147
 C2142 C 0.64960 0.76113 0.29950
 H2143 H 0.61041 0.72695 0.33255
 H2144 H 0.61748 0.74496 0.37236
 H2145 H 0.56982 0.74865 0.33081
 H2146 H 0.59063 0.78479 0.31208
 H2147 H 0.63824 0.78108 0.35370
 H2148 H 0.59769 0.80279 0.35193
 C2149 C 0.60303 0.25431 0.16652
 C2150 C 0.60826 0.24952 0.14364
 C2151 C 0.58923 0.23357 0.14303
 C2152 C 0.58370 0.23832 0.16565
 C2153 C 0.61780 0.23541 0.17283
 C2154 C 0.59878 0.21945 0.17223
 C2155 C 0.62330 0.23065 0.15021
 C2156 C 0.60401 0.21468 0.14934
 C2157 C 0.57324 0.23232 0.12661
 C2158 C 0.55959 0.23085 0.11354
 C2159 C 0.63441 0.23667 0.18869
 C2160 C 0.64913 0.23815 0.20066
 H2161 H 0.60282 0.27057 0.17386
 H2162 H 0.61195 0.26181 0.13168
 H2163 H 0.56719 0.24150 0.17172
 H2164 H 0.59511 0.20716 0.18420
 H2165 H 0.63980 0.22748 0.14410
 H2166 H 0.60423 0.19842 0.14200
 C2167 C 0.10206 0.75452 0.66670
 C2168 C 0.10731 0.74977 0.64382
 C2169 C 0.08833 0.73375 0.64320
 C2170 C 0.08280 0.73846 0.66582
 C2171 C 0.11691 0.73567 0.67299
 C2172 C 0.09794 0.71964 0.67238
 C2173 C 0.12241 0.73096 0.65036
 C2174 C 0.10318 0.71491 0.64949
 C2175 C 0.07234 0.73248 0.62678
 C2176 C 0.05868 0.73103 0.61372
 C2177 C 0.13351 0.73698 0.68884
 C2178 C 0.14823 0.73851 0.70080
 H2179 H 0.10180 0.77077 0.67406
 H2180 H 0.11095 0.76209 0.63187
 H2181 H 0.06627 0.74157 0.67189
 H2182 H 0.09432 0.70732 0.68434
 H2183 H 0.13893 0.72785 0.64425
 H2184 H 0.10346 0.69866 0.64213
 C2185 C 0.90644 0.75526 0.67490
 C2186 C 0.90354 0.74544 0.65311
 C2187 C 0.91202 0.76663 0.64378
 C2188 C 0.91522 0.77650 0.66529
 C2189 C 0.88344 0.76461 0.67354
 C2190 C 0.89192 0.78581 0.66420
 C2191 C 0.88028 0.75476 0.65201
 C2192 C 0.88902 0.77597 0.64244
 C2193 C 0.92795 0.76798 0.62733
 C2194 C 0.94150 0.76950 0.61418
 C2195 C 0.86678 0.76321 0.68931
 C2196 C 0.85198 0.76161 0.70115
 H2197 H 0.91337 0.74680 0.68847
 H2198 H 0.90849 0.72889 0.64827
 H2199 H 0.92983 0.78546 0.67047
 H2200 H 0.88697 0.80235 0.66903
 H2201 H 0.86568 0.74579 0.64679
 H2202 H 0.88206 0.78442 0.62887
 C2203 C 0.37796 0.27180 0.15100
 C2204 C 0.39878 0.28576 0.15152
 C2205 C 0.41158 0.26621 0.14335
 C2206 C 0.39103 0.25229 0.14259
 C2207 C 0.38291 0.26421 0.17303
 C2208 C 0.39571 0.24467 0.16486
 C2209 C 0.40345 0.27815 0.17381
 C2210 C 0.41656 0.25862 0.16537
 C2211 C 0.42759 0.26753 0.12697
 C2212 C 0.44123 0.26904 0.11390
 C2213 C 0.36623 0.26285 0.18879
 C2214 C 0.35145 0.26129 0.20066
 H2215 H 0.36187 0.27725 0.14534
 H2216 H 0.40022 0.30263 0.14575
 H2217 H 0.38614 0.24173 0.12955
 H2218 H 0.39426 0.22779 0.17062
 H2219 H 0.40832 0.28871 0.18686
 H2220 H 0.43266 0.25318 0.17100
 C2221 C 0.40548 0.72587 0.32491
 C2222 C 0.41582 0.74565 0.33587
 C2223 C 0.41190 0.73456 0.35670
 C2224 C 0.40186 0.71476 0.34601
 C2225 C 0.38323 0.73673 0.32700
 C2226 C 0.37934 0.72564 0.34784
 C2227 C 0.39327 0.75653 0.33769
 C2228 C 0.38964 0.74541 0.35877
 C2229 C 0.42791 0.73311 0.37309
 C2230 C 0.44154 0.73147 0.38616
 C2231 C 0.36657 0.73814 0.31121
 C2232 C 0.35181 0.73970 0.29929
 H2233 H 0.41175 0.71788 0.31079
 H2234 H 0.43103 0.75390 0.33124
 H2235 H 0.40558 0.69759 0.34972
 H2236 H 0.36414 0.71740 0.35250
 H2237 H 0.38954 0.77370 0.33399
 H2238 H 0.38336 0.75339 0.37288
 C2239 C 0.90471 0.22389 0.82605
 C2240 C 0.91560 0.24375 0.83639
 C2241 C 0.91127 0.23358 0.85756
 C2242 C 0.90068 0.21370 0.84750
 C2243 C 0.88279 0.23549 0.82767
 C2244 C 0.87849 0.22532 0.84886
 C2245 C 0.89339 0.25537 0.83774
 C2246 C 0.88934 0.24517 0.85916
 C2247 C 0.92718 0.23230 0.87404
 C2248 C 0.94076 0.23084 0.88718
 C2249 C 0.86623 0.23683 0.81179
 C2250 C 0.85152 0.23839 0.79981
 H2251 H 0.91079 0.21520 0.81224
 H2252 H 0.93108 0.25135 0.83155
 H2253 H 0.90385 0.19657 0.85181
 H2254 H 0.86302 0.21773 0.85373
 H2255 H 0.89021 0.27249 0.83344
 H2256 H 0.88325 0.25386 0.87296
 C2257 C 0.56862 1.02361 0.62799
 C2258 C 0.57160 1.04288 0.64295
 C2259 C 0.56644 1.02770 0.66105
 C2260 C 0.56361 1.00843 0.64630
 C2261 C 0.54437 1.02911 0.62633
 C2262 C 0.53918 1.01391 0.64441
 C2263 C 0.54718 1.04842 0.64105
 C2264 C 0.54219 1.03323 0.65949
 C2265 C 0.57966 1.02692 0.67987
 C2266 C 0.59128 1.02654 0.69484
 C2267 C 0.53344 1.02934 0.60622
 C2268 C 0.52610 1.02878 0.58899
 H2269 H 0.57944 1.01967 0.61485
 H2270 H 0.58508 1.05477 0.64249
 H2271 H 0.57050 0.99197 0.64861
 H2272 H 0.52570 1.00202 0.64483
 H2273 H 0.54030 1.06487 0.63870
 H2274 H 0.53144 1.03715 0.67268
 C2275 C 0.03461 0.52186 1.14707
 C2276 C 0.05564 0.50857 1.15065
 C2277 C 0.06595 0.52842 1.16106
 C2278 C 0.04514 0.54174 1.15783
 C2279 C 0.04378 0.52974 1.12640
 C2280 C 0.05410 0.54959 1.13680
 C2281 C 0.06460 0.51646 1.12972
 C2282 C 0.07505 0.53629 1.14036
 C2283 C 0.07924 0.52765 1.17982
 C2284 C 0.09092 0.52723 1.19474
 C2285 C 0.03282 0.52989 1.10632
 C2286 C 0.02549 0.52924 1.08909
 H2287 H 0.01784 0.51597 1.14964
 H2288 H 0.05642 0.49169 1.15650
 H2289 H 0.03726 0.55213 1.16962
 H2290 H 0.05333 0.56648 1.13094
 H2291 H 0.07254 0.50606 1.11798
 H2292 H 0.09181 0.54218 1.13773
 C2293 C -0.05785 -0.00989 1.13446
 C2294 C -0.07667 -0.02530 1.14012
 C2295 C -0.06681 -0.02810 1.16169
 C2296 C -0.04812 -0.01267 1.15629
 C2297 C -0.04458 -0.02953 1.12707
 C2298 C -0.03462 -0.03234 1.14860
 C2299 C -0.06327 -0.04494 1.13251
 C2300 C -0.05355 -0.04777 1.15435
 C2301 C -0.08013 -0.02731 1.18042
 C2302 C -0.09183 -0.02695 1.19533
 C2303 C -0.03354 -0.02977 1.10702
 C2304 C -0.02614 -0.02919 1.08983
 H2305 H -0.05953 0.00571 1.12610
 H2306 H -0.09406 -0.02237 1.13677
 H2307 H -0.04204 0.00064 1.16624
 H2308 H -0.01722 -0.03527 1.15188
 H2309 H -0.06939 -0.05825 1.12258
 H2310 H -0.05192 -0.06336 1.16273
 C2311 C 0.44780 0.45134 0.63897
 C2312 C 0.45551 0.46226 0.65923
 C2313 C 0.43306 0.47284 0.66153
 C2314 C 0.42521 0.46192 0.64159
 C2315 C 0.45533 0.47140 0.62692
 C2316 C 0.43287 0.48195 0.62932
 C2317 C 0.46324 0.48234 0.64683
 C2318 C 0.44058 0.49288 0.64947
 C2319 C 0.41974 0.47364 0.68027
 C2320 C 0.40805 0.47403 0.69518
 C2321 C 0.46638 0.47115 0.60688
 C2322 C 0.47381 0.47170 0.58970
 H2323 H 0.45091 0.43425 0.63448
 H2324 H 0.46470 0.45418 0.67176
 H2325 H 0.40943 0.45356 0.63957
 H2326 H 0.42362 0.49005 0.61683
 H2327 H 0.47902 0.49070 0.64880
 H2328 H 0.43747 0.50998 0.65393
 C2329 C 0.46257 0.51621 -0.14583
 C2330 C 0.43902 0.50784 -0.14818
 C2331 C 0.43359 0.52777 -0.16140
 C2332 C 0.45695 0.53618 -0.15938
 C2333 C 0.45563 0.52907 -0.12664
 C2334 C 0.45021 0.54902 -0.13983
 C2335 C 0.43227 0.52069 -0.12876
 C2336 C 0.42670 0.54061 -0.14218
 C2337 C 0.42040 0.52704 -0.18023
 C2338 C 0.40880 0.52670 -0.19521
 C2339 C 0.46656 0.52925 -0.10654
 C2340 C 0.47391 0.52865 -0.08932
 H2341 H 0.47747 0.50621 -0.14714
 H2342 H 0.43429 0.49089 -0.15176
 H2343 H 0.46698 0.54253 -0.17221
 H2344 H 0.45493 0.56597 -0.13623
 H2345 H 0.42217 0.51432 -0.11598
 H2346 H 0.41180 0.55061 -0.14082
 C2347 C -0.06502 1.04155 0.36903
 C2348 C -0.05589 1.04748 0.34755
 C2349 C -0.06637 1.02688 0.33867
 C2350 C -0.07564 1.02098 0.35989
 C2351 C -0.04435 1.02840 0.37343
 C2352 C -0.05485 1.00783 0.36451
 C2353 C -0.03500 1.03433 0.35225
 C2354 C -0.04571 1.01371 0.34302
 C2355 C -0.07957 1.02604 0.31986
 C2356 C -0.09118 1.02563 0.30489
 C2357 C -0.03343 1.02873 0.39353
 C2358 C -0.02609 1.02824 0.41076
 H2359 H -0.07286 1.05304 0.37988
 H2360 H -0.05646 1.06380 0.34038
 H2361 H -0.09245 1.01546 0.36290
 H2362 H -0.05431 0.99150 0.37167
 H2363 H -0.01817 1.03985 0.34931
 H2364 H -0.03791 1.00222 0.33213
 C2365 C 0.03651 0.48437 0.35368
 C2366 C 0.06004 0.49284 0.35150
 C2367 C 0.06563 0.47295 0.33826
 C2368 C 0.04229 0.46444 0.34010
 C2369 C 0.04339 0.47150 0.37286
 C2370 C 0.04897 0.45159 0.35965
 C2371 C 0.06673 0.47998 0.37092
 C2372 C 0.07246 0.46011 0.35747
 C2373 C 0.07896 0.47377 0.31954
 C2374 C 0.09068 0.47419 0.30467
 C2375 C 0.03240 0.47125 0.39292
 C2376 C 0.02505 0.47182 0.41013
 H2377 H 0.02158 0.49431 0.35231
 H2378 H 0.06473 0.50981 0.34801
 H2379 H 0.03237 0.45807 0.32719
 H2380 H 0.04429 0.43463 0.36317
 H2381 H 0.07673 0.48637 0.38379
 H2382 H 0.08739 0.45017 0.35890
 C2383 C 0.55099 -0.04876 -0.13914
 C2384 C 0.54313 -0.03774 -0.15928
 C2385 C 0.56559 -0.02727 -0.16173
 C2386 C 0.57360 -0.03830 -0.14192
 C2387 C 0.54365 -0.02870 -0.12695
 C2388 C 0.56612 -0.01827 -0.12948
 C2389 C 0.53559 -0.01765 -0.14673
 C2390 C 0.55825 -0.00723 -0.14952
 C2391 C 0.57874 -0.02649 -0.18057
 C2392 C 0.59032 -0.02612 -0.19555
 C2393 C 0.53279 -0.02895 -0.10682
 C2394 C 0.52550 -0.02841 -0.08958
 H2395 H 0.54788 -0.06585 -0.13471
 H2396 H 0.53379 -0.04573 -0.17177
 H2397 H 0.58937 -0.04675 -0.14007
 H2398 H 0.57552 -0.01026 -0.11704
 H2399 H 0.51981 -0.00920 -0.14852
 H2400 H 0.56138 0.00987 -0.15393
 C2401 C 0.61382 0.61821 -0.01711
 C2402 C 0.62485 0.61975 0.00427
 C2403 C 0.64692 0.61551 -0.00591
 C2404 C 0.63624 0.61416 -0.02728
 C2405 C 0.61124 0.59364 -0.01409
 C2406 C 0.63329 0.58935 -0.02429
 C2407 C 0.62200 0.59505 0.00725
 C2408 C 0.64430 0.59094 -0.00288
 C2409 C 0.66673 0.62742 -0.00041
 C2410 C 0.68298 0.63689 0.00479
 C2411 C 0.59115 0.58117 -0.01694
 C2412 C 0.57456 0.57079 -0.01720
 H2413 H 0.60112 0.62933 -0.02304
 H2414 H 0.62152 0.63232 0.01610
 H2415 H 0.64231 0.62217 -0.04144
 H2416 H 0.63658 0.57675 -0.03610
 H2417 H 0.61600 0.58708 0.02146
 H2418 H 0.65698 0.57981 0.00306
 C2419 C 0.13243 1.09124 0.47347
 C2420 C 0.13444 1.11634 0.47325
 C2421 C 0.14690 1.11531 0.49375
 C2422 C 0.14522 1.09045 0.49401
 C2423 C 0.11124 1.09336 0.48572
 C2424 C 0.12377 1.09240 0.50618
 C2425 C 0.11290 1.11822 0.48546
 C2426 C 0.12568 1.11738 0.50597
 C2427 C 0.16669 1.12728 0.49919
 C2428 C 0.18290 1.13682 0.50436
 C2429 C 0.09116 1.08087 0.48295
 C2430 C 0.07457 1.07050 0.48276
 H2431 H 0.13501 1.08039 0.46004
 H2432 H 0.13904 1.12635 0.45975
 H2433 H 0.15867 1.07912 0.49762
 H2434 H 0.11924 1.08242 0.51973
 H2435 H 0.09943 1.12955 0.48187
 H2436 H 0.12306 1.12820 0.51941
 C2437 C 0.12108 -0.09665 0.99269
 C2438 C 0.14369 -0.09181 1.00187
 C2439 C 0.14675 -0.11618 1.00591
 C2440 C 0.12437 -0.12114 0.99668
 C2441 C 0.11111 -0.09426 1.01429
 C2442 C 0.11413 -0.11862 1.01833
 C2443 C 0.13348 -0.08925 1.02353
 C2444 C 0.13687 -0.11385 1.02754
 C2445 C 0.16654 -0.12810 1.00029
 C2446 C 0.18276 -0.13758 0.99502
 C2447 C 0.09104 -0.08176 1.01724
 C2448 C 0.07446 -0.07133 1.01756
 H2449 H 0.11444 -0.08946 0.97835
 H2450 H 0.15599 -0.08088 0.99500
 H2451 H 0.12077 -0.13433 0.98555
 H2452 H 0.10181 -0.12954 1.02519
 H2453 H 0.13705 -0.07604 1.03464
 H2454 H 0.14358 -0.12107 1.04183
 C2455 C 0.62117 0.40408 0.49274
 C2456 C 0.64378 0.40889 0.50191
 C2457 C 0.64685 0.38452 0.50588
 C2458 C 0.62445 0.37958 0.49666
 C2459 C 0.61122 0.40641 0.51435
 C2460 C 0.61424 0.38203 0.51833
 C2461 C 0.63360 0.41139 0.52359
 C2462 C 0.63699 0.38678 0.52753
 C2463 C 0.66663 0.37261 0.50022
 C2464 C 0.68286 0.36314 0.49492
 C2465 C 0.59114 0.41890 0.51734
 C2466 C 0.57455 0.42931 0.51767
 H2467 H 0.61451 0.41131 0.47842
 H2468 H 0.65607 0.41985 0.49505
 H2469 H 0.62084 0.36643 0.48550
 H2470 H 0.60192 0.37110 0.52517
 H2471 H 0.63718 0.42457 0.53473
 H2472 H 0.64371 0.37952 0.54179
 C2473 C -0.11263 0.38287 0.49210
 C2474 C -0.12901 0.38868 0.50928
 C2475 C -0.14769 0.38513 0.49400
 C2476 C -0.13160 0.37913 0.47683
 C2477 C -0.11196 0.40685 0.48570
 C2478 C -0.13060 0.40336 0.47036
 C2479 C -0.12811 0.41278 0.50285
 C2480 C -0.14704 0.40912 0.48760
 C2481 C -0.16750 0.37330 0.49960
 C2482 C -0.18373 0.36388 0.50489
 C2483 C -0.09185 0.41924 0.48278
 C2484 C -0.07523 0.42956 0.48248
 H2485 H -0.09829 0.37215 0.49389
 H2486 H -0.12849 0.38257 0.52535
 H2487 H -0.13323 0.36514 0.46619
 H2488 H -0.13106 0.40950 0.45431
 H2489 H -0.12654 0.42675 0.51353
 H2490 H -0.16138 0.41983 0.48584
 C2491 C 0.38812 -0.11796 -0.00788
 C2492 C 0.37171 -0.11229 0.00931
 C2493 C 0.35305 -0.11588 -0.00599
 C2494 C 0.36918 -0.12174 -0.02317
 C2495 C 0.38867 -0.09395 -0.01421
 C2496 C 0.37005 -0.09748 -0.02957
 C2497 C 0.37248 -0.08816 0.00295
 C2498 C 0.35358 -0.09187 -0.01231
 C2499 C 0.33329 -0.12781 -0.00043
 C2500 C 0.31709 -0.13731 0.00482
 C2501 C 0.40872 -0.08145 -0.01709
 C2502 C 0.42528 -0.07103 -0.01736
 H2503 H 0.40251 -0.12861 -0.00613
 H2504 H 0.37226 -0.11845 0.02535
 H2505 H 0.36762 -0.13570 -0.03386
 H2506 H 0.36956 -0.09128 -0.04560
 H2507 H 0.37398 -0.07422 0.01368
 H2508 H 0.33918 -0.08122 -0.01404
 C2509 C 0.38293 1.10296 0.49216
 C2510 C 0.35964 1.09423 0.49481
 C2511 C 0.35319 1.11572 0.50512
 C2512 C 0.37627 1.12460 0.50242
 C2513 C 0.38884 1.09380 0.51347
 C2514 C 0.38246 1.11530 0.52381
 C2515 C 0.36576 1.08491 0.51616
 C2516 C 0.35901 1.10661 0.52646
 C2517 C 0.33339 1.12763 0.49953
 C2518 C 0.31716 1.13710 0.49427
 C2519 C 0.40893 1.08133 0.51641
 C2520 C 0.42553 1.07095 0.51671
 H2521 H 0.39294 1.10137 0.47804
 H2522 H 0.35013 1.08565 0.48280
 H2523 H 0.38044 1.14102 0.49667
 H2524 H 0.39202 1.12384 0.53581
 H2525 H 0.36160 1.06848 0.52189
 H2526 H 0.34893 1.10824 0.54054
 C2527 C -0.12492 0.59153 0.99329
 C2528 C -0.14593 0.59068 1.00624
 C2529 C -0.14749 0.61552 1.00494
 C2530 C -0.12672 0.61649 0.99195
 C2531 C -0.11166 0.59388 1.01323
 C2532 C -0.11321 0.61872 1.01193
 C2533 C -0.13241 0.59286 1.02627
 C2534 C -0.13430 0.61794 1.02491
 C2535 C -0.16738 0.62729 0.99938
 C2536 C -0.18368 0.63666 0.99414
 C2537 C -0.09149 0.58153 1.01616
 C2538 C -0.07484 0.57122 1.01648
 H2539 H -0.12092 0.58055 0.98028
 H2540 H -0.15956 0.57923 1.00380
 H2541 H -0.12452 0.62627 0.97777
 H2542 H -0.09957 0.63016 1.01435
 H2543 H -0.13456 0.58304 1.04043
 H2544 H -0.13837 0.62895 1.03787
 C2545 C -0.00652 0.62150 0.53693
 C2546 C -0.01293 0.63092 0.55820
 C2547 C 0.00876 0.64305 0.55883
 C2548 C 0.01520 0.63401 0.53770
 C2549 C 0.00446 0.60238 0.54792
 C2550 C 0.02613 0.61455 0.54857
 C2551 C -0.00199 0.61139 0.56907
 C2552 C 0.01973 0.62393 0.56982
 C2553 C 0.01176 0.66549 0.56507
 C2554 C 0.01488 0.68373 0.57071
 C2555 C 0.00261 0.57996 0.54125
 C2556 C 0.00155 0.56176 0.53484
 H2557 H -0.01735 0.62014 0.52334
 H2558 H -0.02893 0.63801 0.56221
 H2559 H 0.02227 0.64360 0.52491
 H2560 H 0.04214 0.60749 0.54457
 H2561 H -0.00905 0.60178 0.58184
 H2562 H 0.03057 0.62527 0.58340
 C2563 C 0.49394 0.12122 0.03711
 C2564 C 0.48767 0.13072 0.05839
 C2565 C 0.50943 0.14272 0.05893
 C2566 C 0.51574 0.13360 0.03779
 C2567 C 0.50485 0.10206 0.04809
 C2568 C 0.52659 0.11410 0.04865
 C2569 C 0.49853 0.11115 0.06924
 C2570 C 0.52033 0.12355 0.06990
 C2571 C 0.51258 0.16515 0.06510
 C2572 C 0.51577 0.18340 0.07068
 C2573 C 0.50286 0.07964 0.04146
 C2574 C 0.50175 0.06144 0.03508
 H2575 H 0.48305 0.11991 0.02356
 H2576 H 0.47173 0.13791 0.06243
 H2577 H 0.52282 0.14313 0.02496
 H2578 H 0.54255 0.10694 0.04461
 H2579 H 0.49146 0.10159 0.08206
 H2580 H 0.53123 0.12485 0.08345
 C2581 C -0.02685 0.11435 0.95284
 C2582 C -0.01562 0.13376 0.96350
 C2583 C -0.00964 0.14275 0.94225
 C2584 C -0.02092 0.12368 0.93148
 C2585 C -0.00521 0.10207 0.95302
 C2586 C 0.00077 0.11104 0.93176
 C2587 C 0.00608 0.12114 0.96380
 C2588 C 0.01202 0.13051 0.94241
 C2589 C -0.01269 0.16519 0.93607
 C2590 C -0.01581 0.18344 0.93046
 C2591 C -0.00328 0.07963 0.95959
 C2592 C -0.00219 0.06140 0.96588
 H2593 H -0.04279 0.10738 0.95717
 H2594 H -0.02236 0.14340 0.97645
 H2595 H -0.03208 0.12507 0.91813
 H2596 H 0.00751 0.10138 0.91882
 H2597 H 0.01722 0.11973 0.97715
 H2598 H 0.02794 0.13752 0.93808
 C2599 C 0.47329 0.61457 0.45177
 C2600 C 0.48459 0.63400 0.46235
 C2601 C 0.49064 0.64284 0.44105
 C2602 C 0.47929 0.62375 0.43037
 C2603 C 0.49488 0.60220 0.45206
 C2604 C 0.50094 0.61102 0.43075
 C2605 C 0.50623 0.62128 0.46275
 C2606 C 0.51225 0.63051 0.44132
 C2607 C 0.48772 0.66527 0.43480
 C2608 C 0.48472 0.68354 0.42917
 C2609 C 0.49672 0.57980 0.45877
 C2610 C 0.49777 0.56162 0.46520
 H2611 H 0.45731 0.60770 0.45612
 H2612 H 0.47787 0.64374 0.47523
 H2613 H 0.46817 0.62511 0.41699
 H2614 H 0.50765 0.60125 0.41788
 H2615 H 0.51734 0.61991 0.47613
 H2616 H 0.52821 0.63741 0.43697
 C2617 C 0.49185 0.87939 0.45987
 C2618 C 0.48962 0.87055 0.43762
 C2619 C 0.51036 0.85725 0.44092
 C2620 C 0.51263 0.86570 0.46303
 C2621 C 0.50587 0.89798 0.45158
 C2622 C 0.52660 0.88464 0.45485
 C2623 C 0.50360 0.88955 0.42946
 C2624 C 0.52438 0.87585 0.43264
 C2625 C 0.51344 0.83476 0.43485
 C2626 C 0.51656 0.81647 0.42934
 C2627 C 0.50389 0.92043 0.45813
 C2628 C 0.50273 0.93866 0.46446
 H2629 H 0.47843 0.88120 0.47112
 H2630 H 0.47447 0.86440 0.43050
 H2631 H 0.51636 0.85559 0.47672
 H2632 H 0.54176 0.89076 0.46197
 H2633 H 0.49988 0.89968 0.41578
 H2634 H 0.53780 0.87405 0.42139
 C2635 C -0.00097 0.38882 0.93086
 C2636 C 0.02073 0.37619 0.93051
 C2637 C 0.00955 0.35720 0.94148
 C2638 C -0.01212 0.36943 0.94171
 C2639 C 0.00518 0.39798 0.95203
 C2640 C -0.00600 0.37900 0.96300
 C2641 C 0.02683 0.38571 0.95178
 C2642 C 0.01570 0.36639 0.96264
 C2643 C 0.01256 0.33470 0.93545
 C2644 C 0.01565 0.31640 0.92996
 C2645 C 0.00328 0.42046 0.95851
 C2646 C 0.00218 0.43870 0.96479
 H2647 H -0.00782 0.39836 0.91792
 H2648 H 0.03177 0.37468 0.91710
 H2649 H -0.02807 0.36238 0.93754
 H2650 H -0.01703 0.38052 0.97642
 H2651 H 0.04280 0.39273 0.95595
 H2652 H 0.02256 0.35687 0.97560
 C2653 C 0.49897 0.38935 0.06990
 C2654 C 0.47777 0.37606 0.06821
 C2655 C 0.49076 0.35718 0.05895
 C2656 C 0.51194 0.37007 0.06076
 C2657 C 0.49511 0.39781 0.04801
 C2658 C 0.50811 0.37894 0.03874
 C2659 C 0.47396 0.38488 0.04622
 C2660 C 0.48690 0.36567 0.03707
 C2661 C 0.48775 0.33476 0.06519
 C2662 C 0.48466 0.31652 0.07082
 C2663 C 0.49699 0.42022 0.04134
 C2664 C 0.49804 0.43841 0.03496
 H2665 H 0.50394 0.39940 0.08328
 H2666 H 0.46524 0.37453 0.08038
 H2667 H 0.52749 0.36362 0.06679
 H2668 H 0.52063 0.38048 0.02656
 H2669 H 0.45838 0.39130 0.04020
 H2670 H 0.48193 0.35563 0.02368
 C2671 C -0.00364 0.87862 0.53374
 C2672 C 0.01052 0.86681 0.54993
 C2673 C -0.01017 0.85739 0.55946
 C2674 C -0.02435 0.86883 0.54338
 C2675 C -0.00562 0.89799 0.54850
 C2676 C -0.02629 0.88853 0.55802
 C2677 C 0.00859 0.88658 0.56458
 C2678 C -0.01215 0.87675 0.57422
 C2679 C -0.01326 0.83498 0.56571
 C2680 C -0.01637 0.81675 0.57135
 C2681 C -0.00361 0.92038 0.54181
 C2682 C -0.00246 0.93855 0.53540
 H2683 H -0.00010 0.87973 0.51702
 H2684 H 0.02556 0.85754 0.54667
 H2685 H -0.03788 0.86122 0.53474
 H2686 H -0.04135 0.89777 0.56128
 H2687 H 0.02211 0.89423 0.57320
 H2688 H -0.01569 0.87562 0.59094
 C2689 C 0.29876 0.29980 0.10991
 C2690 C 0.28560 0.29338 0.09046
 C2691 C 0.27756 0.31692 0.08867
 C2692 C 0.29071 0.32348 0.10778
 C2693 C 0.27888 0.29468 0.12328
 C2694 C 0.27086 0.31822 0.12139
 C2695 C 0.26570 0.28807 0.10419
 C2696 C 0.25770 0.31180 0.10206
 C2697 C 0.27682 0.33023 0.06992
 C2698 C 0.27646 0.34190 0.05499
 C2699 C 0.27906 0.28364 0.14332
 C2700 C 0.27843 0.27622 0.16051
 H2701 H 0.31565 0.29473 0.11332
 H2702 H 0.29164 0.28330 0.07751
 H2703 H 0.30096 0.33820 0.10912
 H2704 H 0.26481 0.32837 0.13429
 H2705 H 0.25545 0.27336 0.10289
 H2706 H 0.24081 0.31687 0.09868
 C2707 C 0.76561 0.81502 0.61986
 C2708 C 0.78527 0.82627 0.60973
 C2709 C 0.77830 0.81691 0.58882
 C2710 C 0.75863 0.80580 0.59871
 C2711 C 0.77961 0.79472 0.62345
 C2712 C 0.77262 0.78529 0.60257
 C2713 C 0.79928 0.80584 0.61356
 C2714 C 0.79233 0.79662 0.59233
 C2715 C 0.77756 0.83020 0.57007
 C2716 C 0.77718 0.84187 0.55515
 C2717 C 0.77975 0.78371 0.64350
 C2718 C 0.77909 0.77631 0.66069
 H2719 H 0.75461 0.82252 0.63137
 H2720 H 0.79042 0.84325 0.61255
 H2721 H 0.74189 0.80592 0.59246
 H2722 H 0.76747 0.76829 0.59982
 H2723 H 0.81602 0.80572 0.61982
 H2724 H 0.80332 0.78918 0.58078
 C2725 C 0.20204 0.70411 0.60817
 C2726 C 0.21826 0.70813 0.59031
 C2727 C 0.22217 0.68356 0.58878
 C2728 C 0.20597 0.67937 0.60630
 C2729 C 0.22088 0.70553 0.62358
 C2730 C 0.22477 0.68095 0.62195
 C2731 C 0.23710 0.70975 0.60609
 C2732 C 0.24098 0.68500 0.60423
 C2733 C 0.22291 0.67039 0.56993
 C2734 C 0.22328 0.65882 0.55492
 C2735 C 0.22070 0.71641 0.64371
 C2736 C 0.22131 0.72371 0.66096
 H2737 H 0.18602 0.71209 0.60998
 H2738 H 0.21561 0.71918 0.57706
 H2739 H 0.19318 0.66672 0.60624
 H2740 H 0.22743 0.66983 0.63515
 H2741 H 0.24989 0.72239 0.60618
 H2742 H 0.25700 0.67701 0.60246
 C2743 C 0.70266 0.20323 0.10832
 C2744 C 0.71877 0.20720 0.09036
 C2745 C 0.72269 0.18262 0.08888
 C2746 C 0.70660 0.17848 0.10650
 C2747 C 0.72160 0.20471 0.12362
 C2748 C 0.72551 0.18013 0.12205
 C2749 C 0.73771 0.20888 0.10602
 C2750 C 0.74159 0.18413 0.10421
 C2751 C 0.72330 0.16940 0.07006
 C2752 C 0.72356 0.15779 0.05508
 C2753 C 0.72152 0.21566 0.14372
 C2754 C 0.72218 0.22301 0.16095
 H2755 H 0.68665 0.21120 0.11020
 H2756 H 0.71603 0.21821 0.07709
 H2757 H 0.69383 0.16583 0.10656
 H2758 H 0.72825 0.16906 0.13526
 H2759 H 0.75049 0.22154 0.10600
 H2760 H 0.75761 0.17615 0.10238
 C2761 C 0.76852 0.21396 0.89700
 C2762 C 0.75721 0.19174 0.89996
 C2763 C 0.77723 0.18348 0.91164
 C2764 C 0.78858 0.20550 0.90903
 C2765 C 0.77867 0.20552 0.87692
 C2766 C 0.79870 0.19726 0.88859
 C2767 C 0.76736 0.18350 0.87963
 C2768 C 0.78736 0.17510 0.89153
 C2769 C 0.77643 0.17027 0.93044
 C2770 C 0.77602 0.15867 0.94540
 C2771 C 0.77892 0.21645 0.85683
 C2772 C 0.77836 0.22378 0.83962
 H2773 H 0.76081 0.23009 0.89906
 H2774 H 0.74013 0.18933 0.90478
 H2775 H 0.79729 0.21442 0.92135
 H2776 H 0.81578 0.19967 0.88375
 H2777 H 0.75863 0.17452 0.86735
 H2778 H 0.79507 0.15899 0.88941
 C2779 C 0.27830 0.68149 0.37774
 C2780 C 0.29562 0.68233 0.39493
 C2781 C 0.27741 0.68413 0.41100
 C2782 C 0.26010 0.68315 0.39402
 C2783 C 0.27891 0.70638 0.37640
 C2784 C 0.26069 0.70820 0.39245
 C2785 C 0.29626 0.70740 0.39334
 C2786 C 0.27803 0.70902 0.40976
 C2787 C 0.27656 0.67082 0.42973
 C2788 C 0.27611 0.65912 0.44463
 C2789 C 0.27920 0.71740 0.35635
 C2790 C 0.27865 0.72479 0.33915
 H2791 H 0.27844 0.67023 0.36439
 H2792 H 0.30996 0.67153 0.39610
 H2793 H 0.24523 0.67307 0.39443
 H2794 H 0.24635 0.71900 0.39126
 H2795 H 0.31114 0.71749 0.39288
 H2796 H 0.27788 0.72021 0.42315
 C2797 C 0.72679 0.81901 0.37791
 C2798 C 0.70781 0.82116 0.39331
 C2799 C 0.72369 0.81675 0.41106
 C2800 C 0.74267 0.81475 0.39588
 C2801 C 0.72241 0.79452 0.37642
 C2802 C 0.73830 0.79008 0.39415
 C2803 C 0.70339 0.79650 0.39157
 C2804 C 0.71929 0.79226 0.40967
 C2805 C 0.72442 0.83006 0.42983
 C2806 C 0.72476 0.84175 0.44475
 C2807 C 0.72222 0.78350 0.35635
 C2808 C 0.72281 0.77609 0.33915
 H2809 H 0.72985 0.82996 0.36467
 H2810 H 0.69530 0.83410 0.39311
 H2811 H 0.75883 0.82238 0.39779
 H2812 H 0.75082 0.77714 0.39431
 H2813 H 0.68724 0.78887 0.38961
 H2814 H 0.71624 0.78138 0.42296
 C2815 C 0.22529 0.31896 0.87837
 C2816 C 0.20645 0.32085 0.89396
 C2817 C 0.22254 0.31641 0.91154
 C2818 C 0.24137 0.31466 0.89617
 C2819 C 0.22106 0.29444 0.87674
 C2820 C 0.23717 0.28998 0.89429
 C2821 C 0.20219 0.29617 0.89208
 C2822 C 0.21830 0.29189 0.91000
 C2823 C 0.22336 0.32958 0.93039
 C2824 C 0.22377 0.34116 0.94539
 C2825 C 0.22077 0.28357 0.85660
 C2826 C 0.22130 0.27628 0.83935
 H2827 H 0.22814 0.33003 0.86519
 H2828 H 0.19384 0.33370 0.89396
 H2829 H 0.25750 0.32239 0.89799
 H2830 H 0.24978 0.27713 0.89425
 H2831 H 0.18607 0.28844 0.89021
 H2832 H 0.21546 0.28089 0.92324
 C2833 C 0.86705 0.36514 0.77123
 C2834 C 0.87223 0.37374 0.74937
 C2835 C 0.86541 0.39661 0.75622
 C2836 C 0.86041 0.38837 0.77805
 C2837 C 0.84356 0.36094 0.76445
 C2838 C 0.83670 0.38379 0.77130
 C2839 C 0.84862 0.36927 0.74265
 C2840 C 0.84193 0.39235 0.74945
 C2841 C 0.87730 0.41641 0.75066
 C2842 C 0.88676 0.43263 0.74541
 C2843 C 0.83111 0.34085 0.76731
 C2844 C 0.82073 0.32426 0.76757
 H2845 H 0.87725 0.35378 0.78027
 H2846 H 0.88693 0.36976 0.74026
 H2847 H 0.86540 0.39645 0.79257
 H2848 H 0.82199 0.38775 0.78039
 H2849 H 0.84367 0.36126 0.72808
 H2850 H 0.83170 0.40368 0.74039
 C2851 C 0.36703 0.86623 0.27075
 C2852 C 0.37225 0.87485 0.24890
 C2853 C 0.36545 0.89771 0.25577
 C2854 C 0.36041 0.88945 0.27759
 C2855 C 0.34354 0.86206 0.26394
 C2856 C 0.33671 0.88492 0.27082
 C2857 C 0.34863 0.87042 0.24216
 C2858 C 0.34197 0.89350 0.24898
 C2859 C 0.37738 0.91750 0.25026
 C2860 C 0.38688 0.93371 0.24503
 C2861 C 0.33107 0.84198 0.26678
 C2862 C 0.32070 0.82538 0.26703
 H2863 H 0.37721 0.85484 0.27978
 H2864 H 0.38694 0.87087 0.23980
 H2865 H 0.36540 0.89750 0.29213
 H2866 H 0.32199 0.88888 0.27990
 H2867 H 0.34368 0.86244 0.22757
 H2868 H 0.33176 0.90485 0.23993
 C2869 C 0.16682 0.88333 0.74017
 C2870 C 0.14972 0.89376 0.72574
 C2871 C 0.13461 0.89684 0.74434
 C2872 C 0.15154 0.88670 0.75878
 C2873 C 0.15645 0.86103 0.73637
 C2874 C 0.14131 0.86420 0.75494
 C2875 C 0.13952 0.87109 0.72187
 C2876 C 0.12421 0.87455 0.74055
 C2877 C 0.12271 0.91672 0.74976
 C2878 C 0.11324 0.93300 0.75491
 C2879 C 0.16886 0.84087 0.73359
 C2880 C 0.17919 0.82423 0.73335
 H2881 H 0.18447 0.88679 0.73996
 H2882 H 0.15306 0.90614 0.71377
 H2883 H 0.15640 0.89325 0.77403
 H2884 H 0.13793 0.85186 0.76695
 H2885 H 0.13470 0.86450 0.70664
 H2886 H 0.10656 0.87111 0.74079
 C2887 C 0.65995 0.38190 0.22439
 C2888 C 0.63488 0.38416 0.22386
 C2889 C 0.63572 0.39633 0.24453
 C2890 C 0.66054 0.39440 0.24511
 C2891 C 0.65750 0.36055 0.23633
 C2892 C 0.65827 0.37279 0.25697
 C2893 C 0.63267 0.36246 0.23575
 C2894 C 0.63332 0.37495 0.25644
 C2895 C 0.62384 0.41619 0.25005
 C2896 C 0.61439 0.43246 0.25526
 C2897 C 0.66991 0.34040 0.23346
 C2898 C 0.68024 0.32375 0.23319
 H2899 H 0.67099 0.38457 0.21115
 H2900 H 0.62510 0.38905 0.21028
 H2901 H 0.67192 0.40770 0.24905
 H2902 H 0.66801 0.36797 0.27059
 H2903 H 0.62131 0.34914 0.23183
 H2904 H 0.62230 0.37224 0.26969
 C2905 C 0.66093 0.61704 0.27538
 C2906 C 0.63592 0.61459 0.27687
 C2907 C 0.63592 0.60294 0.25592
 C2908 C 0.66068 0.60506 0.25438
 C2909 C 0.65776 0.63867 0.26403
 C2910 C 0.65769 0.62694 0.24312
 C2911 C 0.63299 0.63657 0.26557
 C2912 C 0.63280 0.62459 0.24460
 C2913 C 0.62401 0.58311 0.25043
 C2914 C 0.61452 0.56687 0.24524
 C2915 C 0.67020 0.65878 0.26685
 C2916 C 0.68054 0.67540 0.26708
 H2917 H 0.67259 0.61412 0.28810
 H2918 H 0.62682 0.60930 0.29071
 H2919 H 0.67198 0.59195 0.24969
 H2920 H 0.66676 0.63216 0.22922
 H2921 H 0.62171 0.64971 0.27024
 H2922 H 0.62117 0.62754 0.23187
 C2923 C 0.15936 0.11751 0.77499
 C2924 C 0.13435 0.11505 0.77642
 C2925 C 0.13439 0.10346 0.75544
 C2926 C 0.15916 0.10560 0.75396
 C2927 C 0.15621 0.13917 0.76369
 C2928 C 0.15618 0.12750 0.74274
 C2929 C 0.13144 0.13707 0.76517
 C2930 C 0.13130 0.12514 0.74417
 C2931 C 0.12251 0.08363 0.74990
 C2932 C 0.11306 0.06738 0.74468
 C2933 C 0.16864 0.15928 0.76659
 C2934 C 0.17900 0.17589 0.76689
 H2935 H 0.17099 0.11457 0.78772
 H2936 H 0.12522 0.10972 0.79023
 H2937 H 0.17047 0.09249 0.74925
 H2938 H 0.16528 0.13276 0.72888
 H2939 H 0.12015 0.15019 0.76986
 H2940 H 0.11969 0.12813 0.73142
 C2941 C 0.36422 0.13174 0.22475
 C2942 C 0.37460 0.12618 0.24586
 C2943 C 0.36531 0.10313 0.24431
 C2944 C 0.35512 0.10831 0.22325
 C2945 C 0.34341 0.13878 0.23590
 C2946 C 0.33411 0.11572 0.23436
 C2947 C 0.35363 0.13350 0.25692
 C2948 C 0.34450 0.11024 0.25542
 C2949 C 0.37721 0.08333 0.24994
 C2950 C 0.38667 0.06710 0.25523
 C2951 C 0.33093 0.15887 0.23293
 C2952 C 0.32052 0.17546 0.23261
 H2953 H 0.37220 0.14076 0.21207
 H2954 H 0.39135 0.13033 0.25068
 H2955 H 0.35586 0.09772 0.20945
 H2956 H 0.31735 0.11158 0.22955
 H2957 H 0.35293 0.14403 0.27078
 H2958 H 0.33648 0.10127 0.26812
 C2959 C 0.86600 0.63315 0.72665
 C2960 C 0.87417 0.62629 0.74827
 C2961 C 0.86574 0.60322 0.74434
 C2962 C 0.85776 0.60971 0.72277
 C2963 C 0.84390 0.63894 0.73608
 C2964 C 0.83545 0.61587 0.73215
 C2965 C 0.85193 0.63235 0.75761
 C2966 C 0.84365 0.60907 0.75374
 C2967 C 0.87761 0.58338 0.74990
 C2968 C 0.88705 0.56712 0.75515
 C2969 C 0.83145 0.65905 0.73318
 C2970 C 0.82105 0.67565 0.73289
 H2971 H 0.87507 0.64323 0.71543
 H2972 H 0.89019 0.63042 0.75498
 H2973 H 0.86029 0.60016 0.70847
 H2974 H 0.81942 0.61175 0.72546
 H2975 H 0.84944 0.64183 0.77196
 H2976 H 0.83455 0.59903 0.76497
 C2977 C 0.86075 0.76569 0.18147
 C2978 C 0.87821 0.77798 0.19397
 C2979 C 0.89383 0.75891 0.19066
 C2980 C 0.87673 0.74664 0.17803
 C2981 C 0.85313 0.75482 0.20142
 C2982 C 0.86872 0.73572 0.19812
 C2983 C 0.87025 0.76709 0.21401
 C2984 C 0.88622 0.74805 0.21061
 C2985 C 0.91628 0.76182 0.18452
 C2986 C 0.93454 0.76489 0.17895
 C2987 C 0.83070 0.75307 0.20804
 C2988 C 0.81252 0.75209 0.21443
 H2989 H 0.84998 0.77288 0.16960
 H2990 H 0.88244 0.79537 0.19222
 H2991 H 0.87977 0.73826 0.16318
 H2992 H 0.86445 0.71834 0.19988
 H2993 H 0.86726 0.77549 0.22887
 H2994 H 0.89699 0.74087 0.22248
 C2995 C 0.37087 0.24481 0.71321
 C2996 C 0.38049 0.23829 0.69205
 C2997 C 0.39258 0.26001 0.69145
 C2998 C 0.38334 0.26656 0.71248
 C2999 C 0.35185 0.25570 0.70200
 C3000 C 0.36397 0.27740 0.70138
 C3001 C 0.36106 0.24914 0.68096
 C3002 C 0.37355 0.27089 0.68025
 C3003 C 0.41506 0.26299 0.68544
 C3004 C 0.43336 0.26603 0.67999
 C3005 C 0.32940 0.25382 0.70850
 C3006 C 0.31119 0.25274 0.71481
 H3007 H 0.36942 0.23405 0.72682
 H3008 H 0.38765 0.22228 0.68818
 H3009 H 0.39280 0.27373 0.72533
 H3010 H 0.35685 0.29343 0.70525
 H3011 H 0.35157 0.24198 0.66813
 H3012 H 0.37500 0.28167 0.66664
 C3013 C 0.37130 0.74640 0.78368
 C3014 C 0.38303 0.76023 0.80018
 C3015 C 0.39267 0.73937 0.80920
 C3016 C 0.38131 0.72550 0.79282
 C3017 C 0.35202 0.74391 0.79843
 C3018 C 0.36170 0.72306 0.80745
 C3019 C 0.36334 0.75779 0.81481
 C3020 C 0.37340 0.73688 0.82395
 C3021 C 0.41511 0.73629 0.81534
 C3022 C 0.43338 0.73320 0.82090
 C3023 C 0.32960 0.74591 0.79183
 C3024 C 0.31140 0.74707 0.78548
 H3025 H 0.37008 0.75035 0.76705
 H3026 H 0.39214 0.77543 0.79724
 H3027 H 0.38901 0.71224 0.78386
 H3028 H 0.35261 0.70785 0.81038
 H3029 H 0.35561 0.77105 0.82376
 H3030 H 0.37462 0.73292 0.84058
 C3031 C 0.87212 0.24599 0.28402
 C3032 C 0.88370 0.25978 0.30064
 C3033 C 0.89344 0.23891 0.30956
 C3034 C 0.88222 0.22510 0.29306
 C3035 C 0.85279 0.24328 0.29867
 C3036 C 0.86256 0.22243 0.30760
 C3037 C 0.86397 0.25712 0.31519
 C3038 C 0.87412 0.23620 0.32423
 C3039 C 0.91588 0.23592 0.31578
 C3040 C 0.93414 0.23287 0.32140
 C3041 C 0.83038 0.24522 0.29201
 C3042 C 0.81220 0.24635 0.28562
 H3043 H 0.87096 0.25005 0.26741
 H3044 H 0.89273 0.27505 0.29784
 H3045 H 0.89004 0.21194 0.28403
 H3046 H 0.85356 0.20714 0.31040
 H3047 H 0.85613 0.27026 0.32420
 H3048 H 0.87529 0.23213 0.34084
 C3049 C 0.13560 0.23981 0.31267
 C3050 C 0.12575 0.26004 0.32330
 C3051 C 0.10655 0.25903 0.30828
 C3052 C 0.11599 0.23883 0.29777
 C3053 C 0.14723 0.25484 0.29746
 C3054 C 0.12802 0.25382 0.28245
 C3055 C 0.13775 0.27501 0.30797
 C3056 C 0.11821 0.27403 0.29308
 C3057 C 0.08410 0.26197 0.31447
 C3058 C 0.06584 0.26502 0.32008
 C3059 C 0.16967 0.25304 0.29086
 C3060 C 0.18788 0.25203 0.28453
 H3061 H 0.14309 0.22576 0.32064
 H3062 H 0.12446 0.26264 0.34017
 H3063 H 0.10670 0.22405 0.29364
 H3064 H 0.12929 0.25123 0.26558
 H3065 H 0.14701 0.28981 0.31210
 H3066 H 0.11075 0.28809 0.28509
 C3067 C 0.63563 0.73931 0.81202
 C3068 C 0.62593 0.75932 0.82314
 C3069 C 0.60676 0.75890 0.80807
 C3070 C 0.61604 0.73893 0.79707
 C3071 C 0.64742 0.75466 0.79722
 C3072 C 0.62823 0.75423 0.78216
 C3073 C 0.63810 0.77461 0.80822
 C3074 C 0.61858 0.77422 0.79327
 C3075 C 0.58433 0.76187 0.81430
 C3076 C 0.56611 0.76495 0.81996
 C3077 C 0.66985 0.75285 0.79063
 C3078 C 0.68808 0.75187 0.78434
 H3079 H 0.64299 0.72498 0.81964
 H3080 H 0.62463 0.76146 0.84007
 H3081 H 0.60663 0.72435 0.79255
 H3082 H 0.62952 0.75210 0.76523
 H3083 H 0.64748 0.78921 0.81274
 H3084 H 0.61126 0.78856 0.78564
 C3085 C 0.63779 0.22354 0.69412
 C3086 C 0.61819 0.22682 0.70863
 C3087 C 0.60697 0.24013 0.69177
 C3088 C 0.62622 0.23682 0.67713
 C3089 C 0.64766 0.24464 0.70241
 C3090 C 0.63648 0.25797 0.68554
 C3091 C 0.62840 0.24795 0.71704
 C3092 C 0.61681 0.26124 0.70006
 C3093 C 0.58451 0.23707 0.68570
 C3094 C 0.56623 0.23398 0.68019
 C3095 C 0.67010 0.24660 0.70893
 C3096 C 0.68832 0.24772 0.71524
 H3097 H 0.64673 0.20812 0.69173
 H3098 H 0.61036 0.21403 0.71805
 H3099 H 0.62497 0.23219 0.66066
 H3100 H 0.64434 0.27076 0.67613
 H3101 H 0.62964 0.25257 0.73352
 H3102 H 0.60784 0.27665 0.70245
 C3103 C 0.13810 0.72356 0.19396
 C3104 C 0.11844 0.72700 0.20836
 C3105 C 0.10722 0.73997 0.19126
 C3106 C 0.12654 0.73649 0.17674
 C3107 C 0.14786 0.74484 0.20195
 C3108 C 0.13667 0.75783 0.18484
 C3109 C 0.12853 0.74831 0.21647
 C3110 C 0.11694 0.76126 0.19925
 C3111 C 0.08479 0.73670 0.18516
 C3112 C 0.06655 0.73345 0.17961
 C3113 C 0.17028 0.74700 0.20850
 C3114 C 0.18849 0.74825 0.21480
 H3115 H 0.14712 0.70814 0.19183
 H3116 H 0.11064 0.71433 0.21795
 H3117 H 0.12537 0.73157 0.16033
 H3118 H 0.14451 0.77049 0.17527
 H3119 H 0.12969 0.75322 0.23288
 H3120 H 0.10790 0.77667 0.20137
   
