data_POSCAR
  _audit_creation_date              2014-09-24
  _audit_creation_method            'ToBaCCo'
  _symmetry_space_group_name_H-M    'P1'
  _symmetry_Int_Tables_number       1
  _symmetry_cell_setting            triclinic
  loop_
  _symmetry_equiv_pos_as_xyz
 x,y,z
_cell_length_a 75.5726
_cell_length_b 76.3917
_cell_length_c 75.6919
_cell_angle_alpha 90.112800
_cell_angle_beta 89.975200
_cell_angle_gamma 89.910800
loop_
  _atom_site_label
  _atom_site_type_symbol
  _atom_site_fract_x
  _atom_site_fract_y
  _atom_site_fract_z
C1 C 0.30463 0.44274 0.92286
 N2 N 0.31909 0.44911 0.93136
 C3 C 0.32583 0.44087 0.94577
 N4 N 0.31786 0.42603 0.95163
 C5 C 0.30338 0.41946 0.94332
 N6 N 0.29687 0.42787 0.92890
 C7 C 0.44490 0.83178 0.44202
 N8 N 0.43052 0.82503 0.45037
 C9 C 0.42229 0.81051 0.44405
 N10 N 0.42856 0.80273 0.42917
 C11 C 0.44292 0.80925 0.42064
 N12 N 0.45100 0.82377 0.42714
 C13 C 0.94501 0.92211 0.80853
 N14 N 0.95211 0.92958 0.82313
 C15 C 0.94456 0.94381 0.83084
 N16 N 0.92956 0.95064 0.82366
 C17 C 0.92224 0.94331 0.80896
 N18 N 0.93004 0.92902 0.80153
 C19 C 0.44431 -0.08454 0.30969
 N20 N 0.45172 -0.07690 0.32419
 C21 C 0.44465 -0.06216 0.33133
 N22 N 0.43001 -0.05508 0.32389
 C23 C 0.42238 -0.06241 0.30947
 N24 N 0.42958 -0.07717 0.30239
 C25 C 0.80674 0.30525 0.32623
 N26 N 0.82199 0.29801 0.32014
 C27 C 0.83025 0.30462 0.30564
 N28 N 0.82311 0.31874 0.29725
 C29 C 0.80783 0.32608 0.30324
 N30 N 0.79983 0.31924 0.31770
 C31 C -0.19382 0.83455 0.80937
 N32 N -0.17919 0.82669 0.80243
 C33 C -0.17262 0.81173 0.80970
 N34 N -0.18083 0.80468 0.82400
 C35 C -0.19544 0.81231 0.83109
 N36 N -0.20177 0.82721 0.82366
 C37 C 0.94326 0.33155 0.44367
 N38 N 0.92841 0.32404 0.45047
 C39 C 0.92191 0.30897 0.44349
 N40 N 0.93038 0.30149 0.42960
 C41 C 0.94516 0.30876 0.42262
 N42 N 0.95155 0.32384 0.42969
 C43 C 0.44069 0.44134 0.82877
 N44 N 0.44818 0.42685 0.82132
 C45 C 0.44140 0.41987 0.80621
 N46 N 0.42706 0.42749 0.79863
 C47 C 0.41946 0.44191 0.80582
 N48 N 0.42633 0.44873 0.82088
 C49 C 0.80404 0.92039 0.94335
 N50 N 0.81871 0.92692 0.95141
 C51 C 0.82727 0.94113 0.94480
 N52 N 0.82094 0.94880 0.92989
 C53 C 0.80632 0.94248 0.92163
 N54 N 0.79797 0.92828 0.92843
 C55 C 0.30912 0.83178 0.30981
 N56 N 0.32373 0.82434 0.30253
 C57 C 0.33105 0.80966 0.30959
 N58 N 0.32358 0.80237 0.32419
 C59 C 0.30891 0.80964 0.33162
 N60 N 0.30185 0.82430 0.32435
 C61 C 0.80920 0.42084 0.43990
 N62 N 0.82390 0.42808 0.44714
 C63 C 0.83183 0.44214 0.43969
 N64 N 0.82492 0.44901 0.42468
 C65 C 0.81019 0.44198 0.41717
 N66 N 0.80238 0.42784 0.42484
 C67 C 0.94190 0.82979 -0.05517
 N68 N 0.92703 0.82274 -0.04808
 C69 C 0.91912 0.80860 -0.05539
 N70 N 0.92625 0.80136 -0.07013
 C71 C 0.94117 0.80808 -0.07757
 N72 N 0.94894 0.82237 -0.07000
 C73 C 0.30554 0.33104 0.80747
 N74 N 0.29802 0.32252 0.82124
 C75 C 0.30554 0.30793 0.82817
 N76 N 0.32093 0.30183 0.82115
 C77 C 0.32868 0.31020 0.80731
 N78 N 0.32090 0.32482 0.80057
 C79 C 0.17086 0.56212 0.55755
 N80 N 0.17709 0.55423 0.57237
 C81 C 0.19089 0.56117 0.58149
 N82 N 0.19847 0.57620 0.57564
 C83 C 0.19246 0.58423 0.56079
 N84 N 0.17862 0.57713 0.55185
 C85 C 0.57773 0.68837 0.05726
 N86 N 0.57028 0.69541 0.07202
 C87 C 0.55551 0.68814 0.07922
 N88 N 0.54828 0.67371 0.07153
 C89 C 0.55559 0.66659 0.05679
 N90 N 0.57029 0.67400 0.04981
 C91 C 0.69374 0.19363 0.66972
 N92 N 0.67886 0.20059 0.67689
 C93 C 0.67167 0.19373 0.69183
 N94 N 0.67956 0.17968 0.69960
 C95 C 0.69452 0.17260 0.69255
 N96 N 0.70143 0.17966 0.67763
 C97 C 1.08339 0.05740 0.19134
 N98 N 1.07495 0.05094 0.17687
 C99 C 1.06013 0.05877 0.17042
 N100 N 1.05375 0.07331 0.17870
 C101 C 1.06198 0.07993 0.19320
 N102 N 1.07677 0.07191 0.19940
 C103 C 0.05920 0.16454 1.06196
 N104 N 0.05251 0.17173 1.07697
 C105 C 0.06008 0.18610 1.08447
 N106 N 0.07461 0.19330 1.07669
 C107 C 0.08149 0.18623 1.06167
 N108 N 0.07370 0.17191 1.05448
 C109 C 0.16792 0.69189 0.69268
 N110 N 0.17536 0.67710 0.69938
 C111 C 0.19018 0.67017 0.69185
 N112 N 0.19747 0.67816 0.67754
 C113 C 0.19016 0.69293 0.67078
 N114 N 0.17543 0.69963 0.67843
 C115 C 1.19659 0.16786 0.18970
 N116 N 1.20251 0.17594 0.17483
 C117 C 1.19413 0.19029 0.16828
 N118 N 1.17963 0.19656 0.17685
 C119 C 1.17351 0.18873 0.19172
 N120 N 1.18204 0.17438 0.19805
 C121 C 0.67494 1.05978 0.55752
 N122 N 0.68315 1.05334 0.57208
 C123 C 0.69733 1.06166 0.57918
 N124 N 0.70327 1.07666 0.57159
 C125 C 0.69520 1.08334 0.55701
 N126 N 0.68102 1.07478 0.55010
 C127 C 0.55903 0.55775 0.16904
 N128 N 0.55162 0.57174 0.17736
 C129 C 0.55880 0.57830 0.19240
 N130 N 0.57362 0.57076 0.19906
 C131 C 0.58124 0.55676 0.19097
 N132 N 0.57387 0.55030 0.17592
 C133 C 0.66980 0.68695 0.19133
 N134 N 0.67671 0.69493 0.17680
 C135 C 0.69108 0.68802 0.16848
 N136 N 0.69840 0.67306 0.17479
 C137 C 0.69170 0.66495 0.18921
 N138 N 0.67737 0.67196 0.19742
 C139 C 0.16728 0.05847 1.06044
 N140 N 0.17583 0.05096 1.07425
 C141 C 0.19108 0.05775 1.08080
 N142 N 0.19785 0.07248 1.07328
 C143 C 0.18950 0.08023 1.05940
 N144 N 0.17425 0.07312 1.05309
 C145 C 0.57891 0.19385 0.55691
 N146 N 0.57053 0.20041 0.57137
 C147 C 0.55586 0.19250 0.57796
 N148 N 0.54962 0.17782 0.56996
 C149 C 0.55783 0.17108 0.55549
 N150 N 0.57249 0.17917 0.54907
 C151 C 0.07901 0.56102 0.69183
 N152 N 0.07130 0.57573 0.69847
 C153 C 0.05687 0.58284 0.69041
 N154 N 0.05027 0.57511 0.67561
 C155 C 0.05785 0.56044 0.66888
 N156 N 0.07219 0.55354 0.67707
 C157 C 0.66664 0.56104 0.05612
 N158 N 0.67439 0.57591 0.05004
 C159 C 0.68910 0.58247 0.05798
 N160 N 0.69601 0.57400 0.07219
 C161 C 0.68842 0.55913 0.07843
 N162 N 0.67374 0.55277 0.07032
 C163 C 0.05977 0.69088 0.58268
 N164 N 0.07479 0.69782 0.57565
 C165 C 0.08217 0.69067 0.56086
 N166 N 0.07437 0.67654 0.55320
 C167 C 0.05939 0.66952 0.56003
 N168 N 0.05223 0.67676 0.57477
 C169 C 0.55790 1.05863 0.67057
 N170 N 0.57288 1.05219 0.67820
 C171 C 0.57971 1.05985 0.69297
 N172 N 0.57143 1.07405 0.70004
 C173 C 0.55650 1.08059 0.69263
 N174 N 0.54988 1.07283 0.67793
 C175 C 0.44231 0.32765 0.94492
 N176 N 0.45021 0.32144 0.93003
 C177 C 0.44369 0.30723 0.92143
 N178 N 0.42904 0.29918 0.92785
 C179 C 0.42094 0.30514 0.94272
 N180 N 0.42764 0.31940 0.95116
 C181 C 0.94404 0.44099 0.32833
 N182 N 0.92973 0.44819 0.32026
 C183 C 0.92294 0.44124 0.30525
 N184 N 0.93060 0.42675 0.29822
 C185 C 0.94496 0.41928 0.30600
 N186 N 0.95164 0.42647 0.32108
 C187 C 0.31392 0.93974 0.41683
 N188 N 0.30638 0.92572 0.42496
 C189 C 0.31367 0.91875 0.43974
 N190 N 0.32870 0.92589 0.44633
 C191 C 0.33652 0.93988 0.43849
 N192 N 0.32901 0.94678 0.42369
 O193 O 0.29558 0.50000 0.77352
 O194 O 0.29044 0.53004 0.77055
 O195 O 0.24976 0.48015 0.79919
 O196 O 0.22041 0.48045 0.79500
 O197 O 0.27007 0.45464 0.75306
 O198 O 0.26761 0.46023 0.72218
 O199 O 0.20213 0.52575 0.75156
 O200 O 0.20783 0.52275 0.78164
 O201 O 0.24703 0.54693 0.72825
 O202 O 0.27855 0.54019 0.72830
 O203 O 0.22360 0.50262 0.70640
 O204 O 0.22414 0.47151 0.71265
 O205 O 0.20101 0.50376 0.73126
 O206 O 0.20724 0.47124 0.73316
 O207 O 0.24537 0.52304 0.70513
 O208 O 0.27826 0.52029 0.71083
 O209 O 0.22566 0.54770 0.74936
 O210 O 0.23247 0.54280 0.78136
 O211 O 0.29483 0.47927 0.75184
 O212 O 0.28713 0.47968 0.72079
 O213 O 0.24896 0.45522 0.77446
 O214 O 0.21706 0.46313 0.77283
 O215 O 0.27147 0.50071 0.79827
 O216 O 0.26802 0.53216 0.79075
 Zr217 Zr 0.27010 0.51111 0.77252
 O218 O 0.25460 0.52788 0.75676
 Zr219 Zr 0.23857 0.48083 0.77376
 O220 O 0.22149 0.49665 0.75865
 Zr221 Zr 0.26881 0.47981 0.74191
 O222 O 0.25285 0.49504 0.72509
 Zr223 Zr 0.22775 0.52324 0.76197
 O224 O 0.24324 0.50753 0.77912
 Zr225 Zr 0.25784 0.52164 0.72995
 O226 O 0.27514 0.50634 0.74553
 Zr227 Zr 0.22607 0.49169 0.73175
 O228 O 0.24195 0.47448 0.74691
 O229 O 0.26523 0.48461 0.76865
 O230 O 0.23103 0.51824 0.73511
 C231 C 0.30279 0.48783 0.76415
 C232 C 0.26252 0.48880 0.80627
 C233 C 0.26116 0.44744 0.76555
 C234 C 0.19414 0.51682 0.73957
 C235 C 0.23439 0.55460 0.73658
 C236 C 0.23216 0.51479 0.69842
 H237 H 0.25775 0.54020 0.75931
 H238 H 0.25523 0.49182 0.71266
 H239 H 0.27286 0.47713 0.77611
 H240 H 0.20909 0.49435 0.76208
 H241 H 0.21371 0.51927 0.79278
 H242 H 0.21151 0.48961 0.79256
 H243 H 0.27545 0.51061 0.70260
 H244 H 0.29332 0.49108 0.72117
 H245 H 0.22251 0.55126 0.78091
 H246 H 0.27765 0.53109 0.79959
 H247 H 0.23530 0.47139 0.70583
 H248 H 0.25566 0.45500 0.72298
 H249 H 0.29524 0.52922 0.75841
 H250 H 0.27837 0.54720 0.73930
 H251 H 0.21869 0.45582 0.76214
 H252 H 0.19920 0.47381 0.74315
 O253 O 0.25485 0.04526 0.22361
 O254 O 0.28502 0.03880 0.22651
 O255 O 0.23306 -0.00075 0.19994
 O256 O 0.23180 -0.02947 0.20571
 O257 O 0.20770 0.02253 0.24512
 O258 O 0.21370 0.02186 0.27617
 O259 O 0.27676 -0.04700 0.25004
 O260 O 0.27378 -0.04284 0.21962
 O261 O 0.30037 -0.00241 0.27071
 O262 O 0.29456 0.02925 0.26905
 O263 O 0.25458 -0.02232 0.29408
 O264 O 0.22300 -0.02075 0.28761
 O265 O 0.25477 -0.04604 0.27057
 O266 O 0.22225 -0.03882 0.26833
 O267 O 0.27663 -0.00215 0.29400
 O268 O 0.27491 0.03016 0.28710
 O269 O 0.29998 -0.02471 0.25080
 O270 O 0.29523 -0.01944 0.21865
 O271 O 0.23323 0.04630 0.24458
 O272 O 0.23406 0.04068 0.27606
 O273 O 0.20762 0.00076 0.22458
 O274 O 0.21424 -0.03082 0.22792
 O275 O 0.25391 0.02069 0.19999
 O276 O 0.28567 0.01559 0.20724
 Zr277 Zr 0.26482 0.01962 0.22560
 O278 O 0.28120 0.00440 0.24207
 Zr279 Zr 0.23305 -0.01041 0.22595
 O280 O 0.24827 -0.02709 0.24199
 Zr281 Zr 0.23324 0.02122 0.25619
 O282 O 0.24813 0.00577 0.27383
 Zr283 Zr 0.27532 -0.02218 0.23824
 O284 O 0.26013 -0.00710 0.22032
 Zr285 Zr 0.27521 0.00924 0.26870
 O286 O 0.26033 0.02616 0.25230
 Zr287 Zr 0.24356 -0.02087 0.26862
 O288 O 0.22681 -0.00535 0.25259
 O289 O 0.23788 0.01603 0.22971
 O290 O 0.27057 -0.01731 0.26490
 C291 C 0.24247 0.05324 0.23212
 C292 C 0.24176 0.01162 0.19240
 C293 C 0.20013 0.01339 0.23300
 C294 C 0.26758 -0.05383 0.26256
 C295 C 0.30747 -0.01571 0.26303
 C296 C 0.26759 -0.01432 0.30144
 H297 H 0.29375 0.00684 0.23931
 H298 H 0.24506 0.00890 0.28613
 H299 H 0.23054 0.02346 0.22190
 H300 H 0.24540 -0.03942 0.23923
 H301 H 0.27060 -0.03743 0.20816
 H302 H 0.24058 -0.03860 0.20870
 H303 H 0.26492 0.02826 0.29531
 H304 H 0.24596 0.04604 0.27543
 H305 H 0.30323 -0.02971 0.21950
 H306 H 0.28497 0.02478 0.19802
 H307 H 0.22376 -0.00961 0.29425
 H308 H 0.20789 0.01025 0.27601
 H309 H 0.28444 0.04427 0.23836
 H310 H 0.30200 0.02781 0.25839
 H311 H 0.20709 -0.02846 0.23863
 H312 H 0.22440 -0.04730 0.25867
 O313 O 0.54639 0.72308 0.25072
 O314 O 0.54053 0.72610 0.28083
 O315 O 0.50008 0.69982 0.22903
 O316 O 0.47081 0.70532 0.22909
 O317 O 0.52281 0.74456 0.20408
 O318 O 0.52198 0.77531 0.21023
 O319 O 0.45352 0.74938 0.27415
 O320 O 0.45752 0.71935 0.27073
 O321 O 0.49823 0.77031 0.29685
 O322 O 0.53047 0.76779 0.29116
 O323 O 0.47778 0.79302 0.25201
 O324 O 0.47926 0.78666 0.22016
 O325 O 0.45402 0.76972 0.25223
 O326 O 0.46072 0.76779 0.21974
 O327 O 0.49955 0.79310 0.27268
 O328 O 0.53163 0.78562 0.27167
 O329 O 0.47668 0.74960 0.29699
 O330 O 0.48163 0.71782 0.29155
 O331 O 0.54711 0.74391 0.22922
 O332 O 0.54139 0.77514 0.23028
 O333 O 0.50074 0.72436 0.20413
 O334 O 0.46907 0.72743 0.21111
 O335 O 0.52108 0.69968 0.25056
 O336 O 0.51724 0.70718 0.28220
 Zr337 Zr 0.52066 0.72517 0.26113
 O338 O 0.50544 0.74139 0.27774
 Zr339 Zr 0.48991 0.72551 0.22970
 O340 O 0.47320 0.74141 0.24519
 Zr341 Zr 0.52175 0.75547 0.22965
 O342 O 0.50632 0.77290 0.24484
 Zr343 Zr 0.47855 0.73758 0.27211
 O344 O 0.49365 0.71990 0.25668
 Zr345 Zr 0.51024 0.76775 0.27182
 O346 O 0.52716 0.75159 0.25661
 Zr347 Zr 0.47930 0.76785 0.24066
 O348 O 0.49479 0.75195 0.22362
 O349 O 0.51668 0.72922 0.23427
 O350 O 0.48333 0.76405 0.26754
 C351 C 0.55427 0.73153 0.23830
 C352 C 0.51221 0.69222 0.23817
 C353 C 0.51343 0.73265 0.19655
 C354 C 0.44642 0.76181 0.26516
 C355 C 0.48533 0.76215 0.30424
 C356 C 0.48679 0.80046 0.26430
 H357 H 0.50806 0.73862 0.29023
 H358 H 0.50947 0.78507 0.24177
 H359 H 0.52409 0.72146 0.22683
 H360 H 0.46070 0.73873 0.24250
 H361 H 0.46283 0.70802 0.26717
 H362 H 0.46120 0.70882 0.23724
 H363 H 0.53036 0.79313 0.26112
 H364 H 0.54730 0.77420 0.24191
 H365 H 0.47146 0.71863 0.29979
 H366 H 0.52648 0.69797 0.28131
 H367 H 0.49030 0.79353 0.22116
 H368 H 0.51012 0.77522 0.20469
 H369 H 0.54570 0.73798 0.28044
 H370 H 0.52865 0.75752 0.29888
 H371 H 0.47109 0.73829 0.20429
 H372 H 0.45239 0.75803 0.22178
 O373 O -0.04915 0.75249 0.77437
 O374 O -0.04417 0.72256 0.77168
 O375 O -0.00267 0.77270 0.79886
 O376 O 0.02661 0.77175 0.79397
 O377 O -0.02368 0.79795 0.75306
 O378 O -0.02267 0.79187 0.72226
 O379 O 0.04361 0.72657 0.75016
 O380 O 0.03864 0.72962 0.78030
 O381 O -0.00182 0.70538 0.72783
 O382 O -0.03347 0.71211 0.72899
 O383 O 0.02127 0.74911 0.70548
 O384 O 0.02051 0.78055 0.71157
 O385 O 0.04427 0.74839 0.72973
 O386 O 0.03812 0.78089 0.73150
 O387 O -0.00105 0.72925 0.70473
 O388 O -0.03369 0.73189 0.71148
 O389 O 0.02003 0.70468 0.74842
 O390 O 0.01399 0.70961 0.78058
 O391 O -0.04882 0.77389 0.75344
 O392 O -0.04243 0.77235 0.72191
 O393 O -0.00207 0.79728 0.77393
 O394 O 0.02955 0.78916 0.77171
 O395 O -0.02428 0.75201 0.79862
 O396 O -0.02117 0.72041 0.79100
 Zr397 Zr -0.02369 0.74143 0.77286
 O398 O -0.00873 0.72452 0.75667
 Zr399 Zr 0.00797 0.77158 0.77316
 O400 O 0.02453 0.75567 0.75755
 Zr401 Zr -0.02324 0.77259 0.74223
 O402 O -0.00779 0.75721 0.72494
 Zr403 Zr 0.01825 0.72914 0.76113
 O404 O 0.00333 0.74495 0.77871
 Zr405 Zr -0.01270 0.73065 0.72996
 O406 O -0.02951 0.74607 0.74604
 Zr407 Zr 0.01921 0.76047 0.73076
 O408 O 0.00381 0.77778 0.74640
 O409 O -0.01885 0.76790 0.76885
 O410 O 0.01424 0.73398 0.73436
 C411 C -0.05649 0.76505 0.76574
 C412 C -0.01519 0.76404 0.80631
 C413 C -0.01430 0.80515 0.76522
 C414 C 0.05133 0.73542 0.73796
 C415 C 0.01106 0.69775 0.73580
 C416 C 0.01224 0.73710 0.69773
 H417 H -0.01182 0.71222 0.75931
 H418 H -0.01051 0.76036 0.71258
 H419 H -0.02618 0.77552 0.77651
 H420 H 0.03703 0.75796 0.76063
 H421 H 0.03304 0.73314 0.79160
 H422 H 0.03562 0.76280 0.79106
 H423 H -0.03133 0.74178 0.70340
 H424 H -0.04882 0.76109 0.72292
 H425 H 0.02391 0.70113 0.77986
 H426 H -0.03040 0.72167 0.80025
 H427 H 0.00950 0.78007 0.70452
 H428 H -0.01053 0.79671 0.72226
 H429 H -0.04904 0.72299 0.75955
 H430 H -0.03277 0.70493 0.73983
 H431 H 0.02783 0.79628 0.76092
 H432 H 0.04639 0.77843 0.74133
 O433 O -0.00240 -0.02366 -0.04377
 O434 O 0.02769 -0.02114 -0.03775
 O435 O -0.02298 -0.04872 0.00277
 O436 O -0.02393 -0.04339 0.03191
 O437 O -0.04948 -0.00378 -0.01921
 O438 O -0.04387 0.02709 -0.01761
 O439 O 0.02133 0.00082 0.04931
 O440 O 0.01815 -0.02926 0.04495
 O441 O 0.04329 0.02261 0.00494
 O442 O 0.03731 0.02054 -0.02727
 O443 O -0.00172 0.04444 0.02624
 O444 O -0.03365 0.03772 0.02483
 O445 O -0.00095 0.02088 0.04946
 O446 O -0.03348 0.01860 0.04319
 O447 O 0.01878 0.04509 0.00429
 O448 O 0.01754 0.03820 -0.02789
 O449 O 0.04397 0.00134 0.02588
 O450 O 0.03877 -0.03034 0.02062
 O451 O -0.02447 -0.00331 -0.04374
 O452 O -0.02407 0.02765 -0.03723
 O453 O -0.04887 -0.02459 0.00220
 O454 O -0.04179 -0.02159 0.03397
 O455 O -0.00272 -0.04795 -0.01946
 O456 O 0.02899 -0.04062 -0.01492
 Zr457 Zr 0.00788 -0.02251 -0.01800
 O458 O 0.02445 -0.00643 -0.00265
 Zr459 Zr -0.02327 -0.02306 0.01302
 O460 O -0.00782 -0.00730 0.02986
 Zr461 Zr -0.02407 0.00751 -0.01811
 O462 O -0.00891 0.02480 -0.00257
 Zr463 Zr 0.01913 -0.01075 0.02419
 O464 O 0.00378 -0.02832 0.00893
 Zr465 Zr 0.01814 0.01996 -0.00687
 O466 O 0.00293 0.00399 -0.02389
 Zr467 Zr -0.01279 0.01920 0.02434
 O468 O -0.02980 0.00340 0.00877
 O469 O -0.01903 -0.01880 -0.01369
 O470 O 0.01415 0.01573 0.01995
 C471 C -0.01499 -0.01514 -0.05134
 C472 C -0.01441 -0.05586 -0.01008
 C473 C -0.05671 -0.01612 -0.01021
 C474 C 0.01227 0.01308 0.05671
 C475 C 0.05097 0.01416 0.01746
 C476 C 0.01044 0.05213 0.01726
 H477 H 0.03697 -0.00904 -0.00545
 H478 H -0.01217 0.03700 -0.00545
 H479 H -0.02638 -0.02648 -0.02125
 H480 H -0.01035 -0.01024 0.04233
 H481 H 0.01471 -0.04056 0.03953
 H482 H -0.01521 -0.04036 0.04114
 H483 H 0.00697 0.04569 -0.02628
 H484 H -0.01240 0.02715 -0.04317
 H485 H 0.04710 -0.02966 0.03072
 H486 H 0.02817 -0.04960 -0.02437
 H487 H -0.03270 0.04495 0.01405
 H488 H -0.04936 0.02656 -0.00575
 H489 H 0.02732 -0.00912 -0.04258
 H490 H 0.04540 0.01050 -0.02553
 H491 H -0.04892 -0.01088 0.03204
 H492 H -0.03128 0.00860 0.05118
 O493 O 0.04858 0.52512 0.49698
 O494 O 0.04228 0.52253 0.46701
 O495 O 0.00201 0.54916 0.51862
 O496 O -0.02687 0.54363 0.52040
 O497 O 0.02482 0.50367 0.54398
 O498 O 0.02448 0.47322 0.53773
 O499 O -0.04473 0.50013 0.47447
 O500 O -0.04036 0.53006 0.47758
 O501 O -0.00032 0.47832 0.45153
 O502 O 0.03152 0.47984 0.45689
 O503 O -0.02074 0.45624 0.49736
 O504 O -0.01971 0.46270 0.52847
 O505 O -0.04438 0.47992 0.49652
 O506 O -0.03722 0.48251 0.52929
 O507 O -0.00009 0.45568 0.47557
 O508 O 0.03280 0.46260 0.47719
 O509 O -0.02161 0.49936 0.45141
 O510 O -0.01630 0.53114 0.45672
 O511 O 0.04923 0.50447 0.51863
 O512 O 0.04317 0.47315 0.51728
 O513 O 0.00374 0.52494 0.54402
 O514 O -0.02854 0.52146 0.53736
 O515 O 0.02394 0.54891 0.49804
 O516 O 0.01893 0.54161 0.46612
 Zr517 Zr 0.02269 0.52348 0.48700
 O518 O 0.00726 0.50724 0.47057
 Zr519 Zr -0.00777 0.52347 0.51870
 O520 O -0.02481 0.50798 0.50326
 Zr521 Zr 0.02377 0.49309 0.51836
 O522 O 0.00783 0.47586 0.50358
 Zr523 Zr -0.01955 0.51152 0.47627
 O524 O -0.00424 0.52906 0.49166
 Zr525 Zr 0.01160 0.48074 0.47654
 O526 O 0.02889 0.49690 0.49135
 Zr527 Zr -0.01904 0.48154 0.50802
 O528 O -0.00305 0.49703 0.52483
 O529 O 0.01893 0.51943 0.51388
 O530 O -0.01520 0.48502 0.48105
 C531 C 0.05645 0.51671 0.50942
 C532 C 0.01464 0.55654 0.51007
 C533 C 0.01608 0.51605 0.55153
 C534 C -0.05195 0.48788 0.48358
 C535 C -0.01311 0.48665 0.44416
 C536 C -0.01253 0.44859 0.48467
 H537 H 0.00987 0.50990 0.45805
 H538 H 0.01077 0.46365 0.50673
 H539 H 0.02648 0.52709 0.52124
 H540 H -0.03725 0.51093 0.50602
 H541 H -0.03493 0.54133 0.48111
 H542 H -0.03565 0.54133 0.51102
 H543 H 0.03062 0.45437 0.48703
 H544 H 0.04909 0.47422 0.50566
 H545 H -0.02647 0.53039 0.44848
 H546 H 0.02814 0.55082 0.46701
 H547 H -0.00830 0.45634 0.52825
 H548 H 0.01267 0.47318 0.54340
 H549 H 0.04720 0.51051 0.46711
 H550 H 0.03049 0.49061 0.44974
 H551 H -0.02588 0.51119 0.54486
 H552 H -0.04599 0.49179 0.52672
 O553 O 0.55196 0.02214 0.50107
 O554 O 0.54697 0.01911 0.47075
 O555 O 0.50546 0.04609 0.52147
 O556 O 0.47623 0.04105 0.52131
 O557 O 0.52721 0.00070 0.54668
 O558 O 0.52554 -0.02996 0.54051
 O559 O 0.45931 -0.00216 0.47481
 O560 O 0.46376 0.02773 0.47869
 O561 O 0.50418 -0.02400 0.45329
 O562 O 0.53620 -0.02229 0.45972
 O563 O 0.48210 -0.04645 0.49747
 O564 O 0.48256 -0.04050 0.52913
 O565 O 0.45874 -0.02254 0.49669
 O566 O 0.46478 -0.02086 0.52954
 O567 O 0.50423 -0.04687 0.47717
 O568 O 0.53657 -0.04015 0.47932
 O569 O 0.48317 -0.00270 0.45271
 O570 O 0.48852 0.02898 0.45862
 O571 O 0.55191 0.00056 0.52180
 O572 O 0.54524 -0.03047 0.52084
 O573 O 0.50540 0.02124 0.54640
 O574 O 0.47367 0.01883 0.53861
 O575 O 0.52701 0.04590 0.50048
 O576 O 0.52408 0.03858 0.46879
 Zr577 Zr 0.52654 0.02045 0.48987
 O578 O 0.51144 0.00469 0.47276
 Zr579 Zr 0.49503 0.02054 0.52059
 O580 O 0.47837 0.00522 0.50449
 Zr581 Zr 0.52622 -0.01014 0.52108
 O582 O 0.51078 -0.02708 0.50543
 Zr583 Zr 0.48449 0.00909 0.47774
 O584 O 0.49953 0.02628 0.49373
 Zr585 Zr 0.51553 -0.02183 0.47861
 O586 O 0.53239 -0.00616 0.49431
 Zr587 Zr 0.48377 -0.02138 0.50897
 O588 O 0.49920 -0.00605 0.52653
 O589 O 0.52182 0.01629 0.51660
 O590 O 0.48859 -0.01750 0.48224
 C591 C 0.55946 0.01308 0.51329
 C592 C 0.51787 0.05353 0.51258
 C593 C 0.51787 0.01271 0.55412
 C594 C 0.45168 -0.01443 0.48356
 C595 C 0.49169 -0.01546 0.44563
 C596 C 0.49116 -0.05399 0.48524
 H597 H 0.51445 0.00747 0.46037
 H598 H 0.51357 -0.03934 0.50848
 H599 H 0.52921 0.02386 0.52422
 H600 H 0.46586 0.00819 0.50688
 H601 H 0.46916 0.03892 0.48252
 H602 H 0.46713 0.03825 0.51238
 H603 H 0.53456 -0.04802 0.48949
 H604 H 0.55147 -0.02970 0.50936
 H605 H 0.47862 0.02843 0.45005
 H606 H 0.53351 0.04753 0.46993
 H607 H 0.49383 -0.04709 0.52891
 H608 H 0.51359 -0.02952 0.54584
 H609 H 0.55196 0.00714 0.47131
 H610 H 0.53498 -0.01176 0.45224
 H611 H 0.47549 0.00803 0.54558
 H612 H 0.45650 -0.01110 0.52716
 O613 O 0.47558 0.45065 0.00166
 O614 O 0.47901 0.45727 0.03144
 O615 O 0.44943 0.49495 -0.02037
 O616 O 0.45357 0.52388 -0.02174
 O617 O 0.49525 0.47367 -0.04615
 O618 O 0.52627 0.47577 -0.04079
 O619 O 0.49818 0.54405 0.02231
 O620 O 0.46802 0.53871 0.01985
 O621 O 0.52199 0.50125 0.04541
 O622 O 0.52149 0.46945 0.04026
 O623 O 0.54285 0.52161 -0.00107
 O624 O 0.53575 0.51951 -0.03222
 O625 O 0.51818 0.54403 -0.00018
 O626 O 0.51526 0.53637 -0.03275
 O627 O 0.54444 0.50151 0.02092
 O628 O 0.53890 0.46886 0.01996
 O629 O 0.50011 0.52168 0.04560
 O630 O 0.46814 0.51523 0.04112
 O631 O 0.49615 0.45025 -0.02034
 O632 O 0.52754 0.45739 -0.02009
 O633 O 0.47385 0.49463 -0.04608
 O634 O 0.47542 0.52638 -0.03967
 O635 O 0.45075 0.47453 0.00142
 O636 O 0.45897 0.47963 0.03284
 Zr637 Zr 0.47674 0.47640 0.01135
 O638 O 0.49287 0.49253 0.02714
 Zr639 Zr 0.47490 0.50598 -0.02077
 O640 O 0.49035 0.52363 -0.00604
 Zr641 Zr 0.50668 0.47584 -0.02086
 O642 O 0.52387 0.49241 -0.00664
 Zr643 Zr 0.48747 0.51877 0.02109
 O644 O 0.46999 0.50273 0.00643
 Zr645 Zr 0.51962 0.48900 0.02057
 O646 O 0.50367 0.47111 0.00633
 Zr647 Zr 0.51718 0.51873 -0.01129
 O648 O 0.50164 0.50215 -0.02749
 O649 O 0.48002 0.47981 -0.01570
 O650 O 0.51429 0.51526 0.01578
 C651 C 0.48417 0.44290 -0.01078
 C652 C 0.44251 0.48280 -0.01088
 C653 C 0.48273 0.48234 -0.05362
 C654 C 0.51016 0.55143 0.01286
 C655 C 0.51328 0.51377 0.05275
 C656 C 0.55101 0.51400 0.01166
 H657 H 0.49053 0.49007 0.03975
 H658 H 0.53625 0.48988 -0.01001
 H659 H 0.47238 0.47198 -0.02278
 H660 H 0.48691 0.53579 -0.00891
 H661 H 0.45674 0.53289 0.01676
 H662 H 0.45624 0.53325 -0.01313
 H663 H 0.54674 0.47098 0.00972
 H664 H 0.52713 0.45190 -0.00826
 H665 H 0.46866 0.52549 0.04916
 H666 H 0.45001 0.47016 0.03238
 H667 H 0.54273 0.50856 -0.03177
 H668 H 0.52557 0.48733 -0.04664
 H669 H 0.49127 0.45273 0.03091
 H670 H 0.51088 0.47042 0.04786
 H671 H 0.48610 0.52453 -0.04702
 H672 H 0.50558 0.54472 -0.03014
 O673 O 0.77194 0.29931 0.49794
 O674 O 0.77021 0.29345 0.52813
 O675 O 0.79625 0.25313 0.47642
 O676 O 0.79075 0.22437 0.47537
 O677 O 0.74935 0.27484 0.45182
 O678 O 0.71859 0.27407 0.45907
 O679 O 0.74823 0.20698 0.52213
 O680 O 0.77839 0.21148 0.51792
 O681 O 0.72686 0.25101 0.54544
 O682 O 0.72859 0.28291 0.53958
 O683 O 0.70300 0.23024 0.50123
 O684 O 0.70853 0.23164 0.46916
 O685 O 0.72705 0.20702 0.50076
 O686 O 0.72780 0.21353 0.46836
 O687 O 0.70309 0.25176 0.52197
 O688 O 0.70993 0.28361 0.52060
 O689 O 0.74828 0.23011 0.54501
 O690 O 0.78007 0.23542 0.53863
 O691 O 0.75059 0.29940 0.47668
 O692 O 0.71921 0.29335 0.47893
 O693 O 0.77104 0.25419 0.45160
 O694 O 0.76799 0.22262 0.45843
 O695 O 0.79629 0.27499 0.49686
 O696 O 0.78994 0.27077 0.52876
 Zr697 Zr 0.77094 0.27382 0.50834
 O698 O 0.75537 0.25854 0.52544
 Zr699 Zr 0.77030 0.24320 0.47705
 O700 O 0.75503 0.22649 0.49300
 Zr701 Zr 0.73936 0.27415 0.47777
 O702 O 0.72251 0.25869 0.49349
 Zr703 Zr 0.75958 0.23197 0.51978
 O704 O 0.77668 0.24714 0.50384
 Zr705 Zr 0.72845 0.26279 0.52030
 O706 O 0.74397 0.27973 0.50459
 Zr707 Zr 0.72806 0.23205 0.48920
 O708 O 0.74330 0.24754 0.47168
 O709 O 0.76615 0.26965 0.48162
 O710 O 0.73261 0.23621 0.51597
 C711 C 0.76303 0.30681 0.48558
 C712 C 0.80384 0.26570 0.48483
 C713 C 0.76179 0.26620 0.44412
 C714 C 0.73561 0.19967 0.51344
 C715 C 0.73566 0.23848 0.55262
 C716 C 0.69565 0.23903 0.51375
 H717 H 0.75849 0.26125 0.53784
 H718 H 0.71007 0.26158 0.49076
 H719 H 0.77365 0.27707 0.47398
 H720 H 0.75793 0.21416 0.49025
 H721 H 0.78961 0.21690 0.51401
 H722 H 0.78804 0.21519 0.48415
 H723 H 0.70209 0.28219 0.51024
 H724 H 0.72042 0.29926 0.49053
 H725 H 0.77972 0.22537 0.54690
 H726 H 0.79898 0.28010 0.52760
 H727 H 0.70118 0.24228 0.47052
 H728 H 0.71859 0.26228 0.45361
 H729 H 0.75808 0.29834 0.52813
 H730 H 0.73919 0.28128 0.54705
 H731 H 0.75698 0.22475 0.45169
 H732 H 0.73812 0.20570 0.46991
 O733 O 0.79339 0.75444 -0.02352
 O734 O 0.78878 0.72434 -0.02149
 O735 O 0.74593 0.77396 -0.04725
 O736 O 0.71678 0.77353 -0.04173
 O737 O 0.76757 0.79900 -0.00129
 O738 O 0.76629 0.79270 0.02955
 O739 O 0.70112 0.72718 0.00035
 O740 O 0.70614 0.73039 -0.02962
 O741 O 0.74706 0.70582 0.02232
 O742 O 0.77858 0.71280 0.02090
 O743 O 0.72385 0.74900 0.04599
 O744 O 0.72352 0.78032 0.04038
 O745 O 0.70048 0.74763 0.02226
 O746 O 0.70559 0.78046 0.02049
 O747 O 0.74645 0.72936 0.04590
 O748 O 0.77892 0.73236 0.03868
 O749 O 0.72504 0.70526 0.00191
 O750 O 0.73094 0.71072 -0.03024
 O751 O 0.79291 0.77476 -0.00145
 O752 O 0.78621 0.77361 0.02986
 O753 O 0.74585 0.79851 -0.02205
 O754 O 0.71414 0.79013 -0.01907
 O755 O 0.76870 0.75446 -0.04746
 O756 O 0.76563 0.72264 -0.04098
 Zr757 Zr 0.76811 0.74308 -0.02212
 O758 O 0.75357 0.72559 -0.00628
 Zr759 Zr 0.73589 0.77277 -0.02136
 O760 O 0.71973 0.75625 -0.00607
 Zr761 Zr 0.76722 0.77357 0.00935
 O762 O 0.75222 0.75758 0.02632
 Zr763 Zr 0.72649 0.72992 -0.01042
 O764 O 0.74098 0.74635 -0.02767
 Zr765 Zr 0.75762 0.73122 0.02055
 O766 O 0.77401 0.74726 0.00479
 Zr767 Zr 0.72510 0.76054 0.02081
 O768 O 0.74006 0.77846 0.00553
 O769 O 0.76280 0.76937 -0.01734
 O770 O 0.73058 0.73422 0.01645
 C771 C 0.80067 0.76649 -0.01412
 C772 C 0.75895 0.76614 -0.05489
 C773 C 0.75822 0.80629 -0.01342
 C774 C 0.69349 0.73509 0.01329
 C775 C 0.73417 0.69822 0.01435
 C776 C 0.73328 0.73706 0.05334
 H777 H 0.75683 0.71339 -0.00924
 H778 H 0.75503 0.76054 0.03872
 H779 H 0.77006 0.77714 -0.02486
 H780 H 0.70717 0.75840 -0.00901
 H781 H 0.71167 0.73432 -0.04080
 H782 H 0.70838 0.76391 -0.03938
 H783 H 0.77645 0.74195 0.04714
 H784 H 0.79276 0.76242 0.02891
 H785 H 0.72121 0.70205 -0.02955
 H786 H 0.77494 0.72412 -0.05011
 H787 H 0.73491 0.78042 0.04681
 H788 H 0.75421 0.79772 0.02929
 H789 H 0.79375 0.72462 -0.00940
 H790 H 0.77787 0.70581 0.00991
 H791 H 0.71607 0.79714 -0.00823
 H792 H 0.69716 0.77777 0.01087
 O793 O 1.00387 0.27284 0.29969
 O794 O 1.03417 0.27014 0.29376
 O795 O 0.98259 0.29528 0.25256
 O796 O 0.98130 0.28893 0.22373
 O797 O 0.95757 0.25007 0.27613
 O798 O 0.96400 0.21970 0.27606
 O799 O 1.02772 0.24574 0.20716
 O800 O 1.02437 0.27582 0.21115
 O801 O 1.05078 0.22566 0.25272
 O802 O 1.04494 0.22778 0.28428
 O803 O 1.00612 0.20216 0.23172
 O804 O 0.97420 0.20798 0.23313
 O805 O 1.00590 0.22525 0.20783
 O806 O 0.97339 0.22686 0.21465
 O807 O 1.02704 0.20250 0.25325
 O808 O 1.02503 0.21032 0.28577
 O809 O 1.05061 0.24527 0.23020
 O810 O 1.04528 0.27730 0.23513
 O811 O 0.98322 0.25115 0.30067
 O812 O 0.98403 0.21997 0.29492
 O813 O 0.95739 0.27071 0.25453
 O814 O 0.96438 0.26663 0.22253
 O815 O 1.00307 0.29581 0.27455
 O816 O 1.03496 0.28892 0.27011
 Zr817 Zr 1.01431 0.27054 0.27402
 O818 O 1.03120 0.25423 0.25910
 Zr819 Zr 0.98292 0.26931 0.24331
 O820 O 0.99877 0.25353 0.22682
 Zr821 Zr 0.98332 0.23966 0.27534
 O822 O 0.99865 0.22226 0.26010
 Zr823 Zr 1.02572 0.25760 0.23215
 O824 O 1.00990 0.27530 0.24694
 Zr825 Zr 1.02553 0.22783 0.26412
 O826 O 1.01020 0.24408 0.28079
 Zr827 Zr 0.99443 0.22712 0.23310
 O828 O 0.97715 0.24286 0.24843
 O829 O 0.98749 0.26597 0.27009
 O830 O 1.02131 0.23119 0.23719
 C831 C 0.99194 0.26385 0.30771
 C832 C 0.99105 0.30308 0.26502
 C833 C 0.94989 0.26208 0.26705
 C834 C 1.01873 0.23325 0.20014
 C835 C 1.05803 0.23318 0.23940
 C836 C 1.01870 0.19498 0.24055
 H837 H 1.04368 0.25713 0.26174
 H838 H 0.99572 0.21007 0.26332
 H839 H 0.97996 0.27369 0.27745
 H840 H 0.99605 0.25612 0.21431
 H841 H 1.02077 0.28714 0.21644
 H842 H 0.99075 0.28640 0.21506
 H843 H 1.01542 0.20179 0.28370
 H844 H 0.99568 0.22093 0.30082
 H845 H 1.05359 0.27630 0.22503
 H846 H 1.03402 0.29815 0.27931
 H847 H 0.97526 0.20120 0.24419
 H848 H 0.95877 0.21918 0.26409
 H849 H 1.03373 0.25842 0.29931
 H850 H 1.05185 0.23871 0.28318
 H851 H 0.95718 0.25614 0.22519
 H852 H 0.97529 0.23661 0.20629
 O853 O 0.75237 1.05075 0.72941
 O854 O 0.78246 1.04443 0.73210
 O855 O 0.73051 1.00601 0.70358
 O856 O 0.72968 0.97692 0.70808
 O857 O 0.70525 1.02676 0.75013
 O858 O 0.71154 1.02502 0.78100
 O859 O 0.77477 0.95754 0.75165
 O860 O 0.77133 0.96272 0.72156
 O861 O 0.79795 1.00066 0.77463
 O862 O 0.79256 1.03266 0.77356
 O863 O 0.75271 0.98007 0.79674
 O864 O 0.72071 0.98223 0.79024
 O865 O 0.75264 0.95743 0.77206
 O866 O 0.72035 0.96445 0.77067
 O867 O 0.77373 1.00126 0.79771
 O868 O 0.77305 1.03324 0.79165
 O869 O 0.79788 0.98026 0.75274
 O870 O 0.79238 0.98638 0.72091
 O871 O 0.73060 1.05078 0.75025
 O872 O 0.73175 1.04392 0.78149
 O873 O 0.70524 1.00656 0.72803
 O874 O 0.71154 0.97488 0.73034
 O875 O 0.75203 1.02677 0.70455
 O876 O 0.78359 1.02223 0.71193
 Zr877 Zr 0.76249 1.02510 0.73023
 O878 O 0.77891 1.00914 0.74585
 Zr879 Zr 0.73061 0.99512 0.72915
 O880 O 0.74590 0.97774 0.74444
 Zr881 Zr 0.73091 1.02526 0.76085
 O882 O 0.74592 1.00911 0.77771
 Zr883 Zr 0.77294 0.98279 0.74082
 O884 O 0.75770 0.99867 0.72369
 Zr885 Zr 0.77299 1.01287 0.77265
 O886 O 0.75797 1.03046 0.75716
 Zr887 Zr 0.74141 0.98268 0.77139
 O888 O 0.72455 0.99886 0.75606
 O889 O 0.73552 1.02135 0.73413
 O890 O 0.76840 0.98647 0.76773
 C891 C 0.73989 1.05828 0.73818
 C892 C 0.73976 1.01828 0.69651
 C893 C 0.69772 1.01855 0.73733
 C894 C 0.76557 0.95010 0.76379
 C895 C 0.80524 0.98823 0.76575
 C896 C 0.76512 0.98853 0.80462
 H897 H 0.79144 1.01169 0.74316
 H898 H 0.74285 1.01176 0.79012
 H899 H 0.72821 1.02909 0.72661
 H900 H 0.74306 0.96553 0.74118
 H901 H 0.76771 0.96843 0.71040
 H902 H 0.73770 0.96718 0.71121
 H903 H 0.76239 1.03186 0.79911
 H904 H 0.74345 1.04968 0.78075
 H905 H 0.80056 0.97622 0.72128
 H906 H 0.78287 1.03180 0.70310
 H907 H 0.72208 0.99260 0.79795
 H908 H 0.70592 1.01333 0.78054
 H909 H 0.78204 1.04911 0.74430
 H910 H 0.80028 1.03120 0.76311
 H911 H 0.70465 0.97674 0.74130
 H912 H 0.72199 0.95698 0.76011
 O913 O 0.79954 0.49546 0.26646
 O914 O 0.79364 0.52509 0.26433
 O915 O 0.75416 0.47364 0.29171
 O916 O 0.72482 0.47333 0.28728
 O917 O 0.77540 0.44927 0.24527
 O918 O 0.77339 0.45544 0.21454
 O919 O 0.70565 0.51826 0.24483
 O920 O 0.71140 0.51555 0.27460
 O921 O 0.75023 0.54141 0.22182
 O922 O 0.78210 0.53521 0.22199
 O923 O 0.72835 0.49662 0.19885
 O924 O 0.72941 0.46546 0.20502
 O925 O 0.70541 0.49762 0.22310
 O926 O 0.71205 0.46494 0.22532
 O927 O 0.74910 0.51808 0.19834
 O928 O 0.78198 0.51585 0.20385
 O929 O 0.72857 0.54120 0.24264
 O930 O 0.73539 0.53614 0.27462
 O931 O 0.79960 0.47419 0.24530
 O932 O 0.79241 0.47571 0.21388
 O933 O 0.75393 0.44906 0.26634
 O934 O 0.72202 0.45628 0.26487
 O935 O 0.77514 0.49495 0.29122
 O936 O 0.77092 0.52645 0.28402
 Zr937 Zr 0.77376 0.50561 0.26562
 O938 O 0.75803 0.52218 0.24996
 Zr939 Zr 0.74310 0.47446 0.26618
 O940 O 0.72575 0.49003 0.25114
 Zr941 Zr 0.77374 0.47465 0.23466
 O942 O 0.75744 0.48968 0.21788
 Zr943 Zr 0.73134 0.51668 0.25498
 O944 O 0.74703 0.50116 0.27202
 Zr945 Zr 0.76164 0.51635 0.22310
 O946 O 0.77923 0.50133 0.23865
 Zr947 Zr 0.73063 0.48563 0.22418
 O948 O 0.74692 0.46865 0.23925
 O949 O 0.76970 0.47902 0.26141
 O950 O 0.73491 0.51222 0.22806
 C951 C 0.80717 0.48326 0.25753
 C952 C 0.76651 0.48269 0.29902
 C953 C 0.76635 0.44166 0.25740
 C954 C 0.69809 0.50997 0.23215
 C955 C 0.73728 0.54858 0.23012
 C956 C 0.73636 0.50941 0.19130
 H957 H 0.76083 0.53453 0.25271
 H958 H 0.75998 0.48669 0.20543
 H959 H 0.77742 0.47160 0.26886
 H960 H 0.71338 0.48738 0.25443
 H961 H 0.71731 0.51196 0.28570
 H962 H 0.71569 0.48229 0.28489
 H963 H 0.77955 0.50605 0.19565
 H964 H 0.79837 0.48721 0.21483
 H965 H 0.72527 0.54441 0.27414
 H966 H 0.78032 0.52542 0.29311
 H967 H 0.74056 0.46577 0.19820
 H968 H 0.76154 0.44996 0.21497
 H969 H 0.79831 0.52494 0.25211
 H970 H 0.78131 0.54246 0.23280
 H971 H 0.72366 0.44944 0.25387
 H972 H 0.70357 0.46760 0.23492
 O973 O 0.49905 0.20356 0.72781
 O974 O 0.46909 0.20993 0.73061
 O975 O 0.52128 0.24797 0.70209
 O976 O 0.52217 0.27701 0.70634
 O977 O 0.54631 0.22704 0.74826
 O978 O 0.54025 0.22931 0.77923
 O979 O 0.47768 0.29702 0.74947
 O980 O 0.48031 0.29126 0.71961
 O981 O 0.45379 0.25412 0.77315
 O982 O 0.45915 0.22213 0.77244
 O983 O 0.49989 0.27428 0.79524
 O984 O 0.53127 0.27270 0.78838
 O985 O 0.49878 0.29694 0.77093
 O986 O 0.53157 0.29001 0.76831
 O987 O 0.47794 0.25404 0.79618
 O988 O 0.47880 0.22175 0.79047
 O989 O 0.45409 0.27459 0.75142
 O990 O 0.45910 0.26785 0.71961
 O991 O 0.52073 0.20342 0.74871
 O992 O 0.51974 0.21059 0.77999
 O993 O 0.54649 0.24795 0.72693
 O994 O 0.53993 0.27954 0.72850
 O995 O 0.49955 0.22743 0.70300
 O996 O 0.46791 0.23216 0.71055
 Zr997 Zr 0.48909 0.22923 0.72873
 O998 O 0.47278 0.24531 0.74443
 Zr999 Zr 0.52106 0.25910 0.72756
 O1000 O 0.50587 0.27663 0.74276
 Zr1001 Zr 0.52074 0.22904 0.75924
 O1002 O 0.50590 0.24547 0.77611
 Zr1003 Zr 0.47884 0.27157 0.73921
 O1004 O 0.49398 0.25557 0.72209
 Zr1005 Zr 0.47876 0.24186 0.77126
 O1006 O 0.49361 0.22406 0.75569
 Zr1007 Zr 0.51048 0.27185 0.76968
 O1008 O 0.52721 0.25542 0.75442
 O1009 O 0.51609 0.23289 0.73254
 O1010 O 0.48346 0.26816 0.76612
 C1011 C 0.51143 0.19595 0.73659
 C1012 C 0.51195 0.23576 0.69499
 C1013 C 0.55395 0.23571 0.73587
 C1014 C 0.48632 0.30437 0.76208
 C1015 C 0.44662 0.26667 0.76438
 C1016 C 0.48712 0.26642 0.80311
 H1017 H 0.46022 0.24280 0.74182
 H1018 H 0.50903 0.24292 0.78851
 H1019 H 0.52338 0.22510 0.72503
 H1020 H 0.50874 0.28881 0.73942
 H1021 H 0.48377 0.28533 0.70849
 H1022 H 0.51375 0.28655 0.70911
 H1023 H 0.48930 0.22344 0.79808
 H1024 H 0.50795 0.20499 0.77934
 H1025 H 0.45098 0.27805 0.72000
 H1026 H 0.46864 0.22264 0.70164
 H1027 H 0.53073 0.26179 0.79537
 H1028 H 0.54624 0.24080 0.77841
 H1029 H 0.46938 0.20546 0.74287
 H1030 H 0.45151 0.22337 0.76191
 H1031 H 0.54678 0.27797 0.73953
 H1032 H 0.52902 0.29827 0.75858
 O1033 O 0.29887 0.75498 0.48070
 O1034 O 0.29391 0.72487 0.48345
 O1035 O 0.25197 0.77398 0.45541
 O1036 O 0.22285 0.77506 0.46061
 O1037 O 0.27300 0.80016 0.50173
 O1038 O 0.27130 0.79427 0.53261
 O1039 O 0.20577 0.72911 0.50324
 O1040 O 0.21131 0.73195 0.47321
 O1041 O 0.25097 0.70762 0.52623
 O1042 O 0.28261 0.71442 0.52559
 O1043 O 0.22813 0.75209 0.54879
 O1044 O 0.22781 0.78307 0.54224
 O1045 O 0.20498 0.74996 0.52474
 O1046 O 0.21038 0.78281 0.52199
 O1047 O 0.24951 0.73117 0.54934
 O1048 O 0.28232 0.73420 0.54337
 O1049 O 0.22939 0.70699 0.50537
 O1050 O 0.23592 0.71199 0.47326
 O1051 O 0.29814 0.77582 0.50226
 O1052 O 0.29090 0.77488 0.53349
 O1053 O 0.25251 0.79942 0.47975
 O1054 O 0.22030 0.79184 0.48295
 O1055 O 0.27473 0.75449 0.45621
 O1056 O 0.27127 0.72294 0.46340
 Zr1057 Zr 0.27347 0.74380 0.48183
 O1058 O 0.25825 0.72684 0.49762
 Zr1059 Zr 0.24169 0.77399 0.48121
 O1060 O 0.22489 0.75798 0.49639
 Zr1061 Zr 0.27228 0.77489 0.51266
 O1062 O 0.25662 0.75947 0.52955
 Zr1063 Zr 0.23134 0.73148 0.49276
 O1064 O 0.24650 0.74736 0.47558
 Zr1065 Zr 0.26174 0.73290 0.52444
 O1066 O 0.27877 0.74840 0.50879
 Zr1067 Zr 0.22971 0.76275 0.52329
 O1068 O 0.24532 0.78015 0.50807
 O1069 O 0.26843 0.77024 0.48593
 O1070 O 0.23487 0.73626 0.51961
 C1071 C 0.30605 0.76728 0.48986
 C1072 C 0.26506 0.76588 0.44824
 C1073 C 0.26453 0.80724 0.48886
 C1074 C 0.19803 0.73725 0.51598
 C1075 C 0.23819 0.70003 0.51808
 C1076 C 0.23665 0.73968 0.55642
 H1077 H 0.26141 0.71454 0.49495
 H1078 H 0.25914 0.76264 0.54195
 H1079 H 0.27593 0.77772 0.47835
 H1080 H 0.21242 0.76022 0.49315
 H1081 H 0.21708 0.73566 0.46208
 H1082 H 0.21453 0.76530 0.46262
 H1083 H 0.27955 0.74385 0.55165
 H1084 H 0.29721 0.76353 0.53286
 H1085 H 0.22607 0.70345 0.47387
 H1086 H 0.28085 0.72408 0.45451
 H1087 H 0.23910 0.78333 0.54885
 H1088 H 0.25937 0.79961 0.53195
 H1089 H 0.29880 0.72559 0.49556
 H1090 H 0.28211 0.70726 0.51470
 H1091 H 0.22245 0.79925 0.49347
 H1092 H 0.20202 0.77982 0.51241
 O1093 O 0.24884 0.26902 0.95019
 O1094 O 0.21876 0.26685 0.95615
 O1095 O 0.27047 0.29436 0.99574
 O1096 O 0.27106 0.28974 1.02508
 O1097 O 0.29557 0.24804 0.97488
 O1098 O 0.28915 0.21763 0.97642
 O1099 O 0.22578 0.24763 1.04402
 O1100 O 0.22870 0.27726 1.03828
 O1101 O 0.20248 0.22474 0.99973
 O1102 O 0.20835 0.22538 0.96772
 O1103 O 0.24729 0.20218 1.02138
 O1104 O 0.27927 0.20836 1.01978
 O1105 O 0.24681 0.22628 1.04417
 O1106 O 0.27952 0.22800 1.03769
 O1107 O 0.22644 0.20151 0.99979
 O1108 O 0.22784 0.20752 0.96736
 O1109 O 0.20269 0.24546 1.02131
 O1110 O 0.20768 0.27718 1.01443
 O1111 O 0.27052 0.24825 0.95034
 O1112 O 0.26895 0.21719 0.95729
 O1113 O 0.29556 0.26980 0.99541
 O1114 O 0.28873 0.26757 1.02737
 O1115 O 0.24923 0.29368 0.97447
 O1116 O 0.21750 0.28660 0.97871
 Zr1117 Zr 0.23851 0.26832 0.97594
 O1118 O 0.22177 0.25288 0.99171
 Zr1119 Zr 0.27003 0.26898 1.00660
 O1120 O 0.25436 0.25396 1.02390
 Zr1121 Zr 0.26985 0.23768 0.97609
 O1122 O 0.25459 0.22105 0.99220
 Zr1123 Zr 0.22741 0.25777 1.01839
 O1124 O 0.24302 0.27466 1.00268
 Zr1125 Zr 0.22764 0.22631 0.98797
 O1126 O 0.24290 0.24162 0.97048
 Zr1127 Zr 0.25873 0.22722 1.01897
 O1128 O 0.27591 0.24227 1.00285
 O1129 O 0.26540 0.26419 0.98005
 O1130 O 0.23186 0.23110 1.01469
 C1131 C 0.26131 0.26024 0.94269
 C1132 C 0.26143 0.30151 0.98327
 C1133 C 0.30313 0.26058 0.98333
 C1134 C 0.23426 0.23508 1.05152
 C1135 C 0.19529 0.23292 1.01274
 C1136 C 0.23484 0.19455 1.01275
 H1137 H 0.20927 0.25559 0.98898
 H1138 H 0.25760 0.20873 0.98955
 H1139 H 0.27286 0.27160 0.97235
 H1140 H 0.25706 0.25719 1.03626
 H1141 H 0.23230 0.28823 1.03234
 H1142 H 0.26237 0.28703 1.03443
 H1143 H 0.23821 0.19982 0.96915
 H1144 H 0.25740 0.21818 0.95120
 H1145 H 0.19940 0.27671 1.02459
 H1146 H 0.21845 0.29547 0.96919
 H1147 H 0.27813 0.20087 1.00917
 H1148 H 0.29449 0.21784 0.98836
 H1149 H 0.21901 0.25474 0.95147
 H1150 H 0.20085 0.23594 0.96883
 H1151 H 0.29558 0.25665 1.02557
 H1152 H 0.27740 0.23810 1.04561
 C1153 C 0.28256 0.37874 0.78845
 C1154 C 0.27510 0.37019 0.80310
 C1155 C 0.28243 0.35453 0.80904
 C1156 C 0.29731 0.34731 0.80063
 C1157 C 0.30436 0.35618 0.78602
 N1158 N 0.29696 0.37145 0.78044
 C1159 C 0.27592 0.39589 0.78201
 N1160 N 0.28640 0.40544 0.77101
 C1161 C 0.28174 0.42161 0.76513
 C1162 C 0.26573 0.42926 0.77055
 C1163 C 0.25449 0.41950 0.78149
 C1164 C 0.25942 0.40282 0.78710
 H1165 H 0.27659 0.34827 0.82046
 H1166 H 0.31583 0.35113 0.77912
 H1167 H 0.29081 0.42863 0.75665
 H1168 H 0.24189 0.42478 0.78579
 H1169 H 0.26405 0.37559 0.81034
 H1170 H 0.25029 0.39562 0.79530
 C1171 C 0.28811 -0.12146 0.28904
 C1172 C 0.28033 -0.12909 0.30401
 C1173 C 0.28713 -0.14469 0.31071
 C1174 C 0.30185 -0.15278 0.30274
 C1175 C 0.30923 -0.14469 0.28775
 N1176 N 0.30232 -0.12948 0.28146
 C1177 C 0.28189 -0.10454 0.28171
 N1178 N 0.29294 -0.09529 0.27100
 C1179 C 0.28851 -0.07936 0.26431
 C1180 C 0.27214 -0.07171 0.26850
 C1181 C 0.26036 -0.08120 0.27913
 C1182 C 0.26509 -0.09761 0.28561
 H1183 H 0.28095 -0.15020 0.32235
 H1184 H 0.32058 -0.15029 0.28107
 H1185 H 0.29799 -0.07252 0.25612
 H1186 H 0.24747 -0.07594 0.28248
 H1187 H 0.26942 -0.12300 0.31091
 H1188 H 0.25556 -0.10467 0.29349
 C1189 C 0.78624 0.88182 0.78854
 C1190 C 0.77811 0.87412 0.80327
 C1191 C 0.78460 0.85842 0.80996
 C1192 C 0.79942 0.85023 0.80225
 C1193 C 0.80727 0.85844 0.78756
 N1194 N 0.80062 0.87379 0.78125
 C1195 C 0.78008 0.89882 0.78130
 N1196 N 0.79147 0.90876 0.77161
 C1197 C 0.78699 0.92486 0.76534
 C1198 C 0.77022 0.93199 0.76899
 C1199 C 0.75812 0.92175 0.77846
 C1200 C 0.76289 0.90518 0.78445
 H1201 H 0.77806 0.85289 0.82139
 H1202 H 0.81873 0.85278 0.78113
 H1203 H 0.79671 0.93229 0.75802
 H1204 H 0.74493 0.92658 0.78130
 H1205 H 0.76710 0.88025 0.81000
 H1206 H 0.75311 0.89755 0.79144
 C1207 C 0.46555 0.86858 0.28915
 C1208 C 0.47333 0.87646 0.30402
 C1209 C 0.46643 0.89207 0.31063
 C1210 C 0.45160 0.89995 0.30269
 C1211 C 0.44419 0.89160 0.28784
 N1212 N 0.45120 0.87636 0.28162
 C1213 C 0.47195 0.85161 0.28198
 N1214 N 0.46087 0.84182 0.27179
 C1215 C 0.46548 0.82576 0.26545
 C1216 C 0.48208 0.81854 0.26955
 C1217 C 0.49389 0.82863 0.27957
 C1218 C 0.48898 0.84516 0.28565
 H1219 H 0.47265 0.89776 0.32218
 H1220 H 0.43275 0.89703 0.28120
 H1221 H 0.45598 0.81845 0.25771
 H1222 H 0.50695 0.82372 0.28280
 H1223 H 0.48433 0.87054 0.31090
 H1224 H 0.49854 0.85267 0.29308
 C1225 C -0.03306 0.87459 0.78796
 C1226 C -0.02524 0.88267 0.80271
 C1227 C -0.03216 0.89836 0.80910
 C1228 C -0.04694 0.90606 0.80101
 C1229 C -0.05426 0.89770 0.78618
 N1230 N -0.04730 0.88236 0.78021
 C1231 C -0.02708 0.85729 0.78132
 N1232 N -0.03831 0.84778 0.77102
 C1233 C -0.03430 0.83140 0.76522
 C1234 C -0.01822 0.82351 0.77003
 C1235 C -0.00622 0.83325 0.78017
 C1236 C -0.01050 0.85015 0.78569
 H1237 H -0.02612 0.90423 0.82064
 H1238 H -0.06567 0.90314 0.77952
 H1239 H -0.04391 0.82439 0.75733
 H1240 H 0.00646 0.82779 0.78393
 H1241 H -0.01431 0.87682 0.80974
 H1242 H -0.00084 0.85736 0.79328
 C1243 C -0.03694 -0.12437 -0.03235
 C1244 C -0.05183 -0.13239 -0.02484
 C1245 C -0.05853 -0.14766 -0.03225
 C1246 C -0.05067 -0.15515 -0.04736
 C1247 C -0.03568 -0.14678 -0.05442
 N1248 N -0.02939 -0.13179 -0.04693
 C1249 C -0.03002 -0.10747 -0.02553
 N1250 N -0.02021 -0.09717 -0.03643
 C1251 C -0.01448 -0.08099 -0.03155
 C1252 C -0.01889 -0.07413 -0.01487
 C1253 C -0.02845 -0.08474 -0.00320
 C1254 C -0.03385 -0.10143 -0.00837
 H1255 H -0.07015 -0.15337 -0.02619
 H1256 H -0.02909 -0.15193 -0.06603
 H1257 H -0.00703 -0.07330 -0.04095
 H1258 H -0.03188 -0.08011 0.00990
 H1259 H -0.05874 -0.12675 -0.01370
 H1260 H -0.04099 -0.10934 0.00106
 C1261 C -0.03753 0.38023 0.46431
 C1262 C -0.05308 0.37284 0.47124
 C1263 C -0.05919 0.35689 0.46467
 C1264 C -0.05002 0.34826 0.45108
 C1265 C -0.03458 0.35611 0.44445
 N1266 N -0.02887 0.37166 0.45109
 C1267 C -0.03068 0.39741 0.47043
 N1268 N -0.01949 0.40653 0.45974
 C1269 C -0.01312 0.42261 0.46415
 C1270 C -0.01813 0.43054 0.48014
 C1271 C -0.02928 0.42118 0.49155
 C1272 C -0.03545 0.40464 0.48684
 H1273 H -0.07126 0.35147 0.47009
 H1274 H -0.02709 0.34998 0.43392
 H1275 H -0.00451 0.42932 0.45497
 H1276 H -0.03330 0.42665 0.50414
 H1277 H -0.06081 0.37938 0.48131
 H1278 H -0.04376 0.39769 0.49608
 C1279 C 0.46824 -0.12168 0.46075
 C1280 C 0.47501 -0.12982 0.44551
 C1281 C 0.46747 -0.14537 0.43946
 C1282 C 0.45303 -0.15289 0.44839
 C1283 C 0.44674 -0.14432 0.46364
 N1284 N 0.45432 -0.12918 0.46925
 C1285 C 0.47513 -0.10474 0.46744
 N1286 N 0.46488 -0.09517 0.47870
 C1287 C 0.46988 -0.07923 0.48496
 C1288 C 0.48607 -0.07189 0.47974
 C1289 C 0.49705 -0.08170 0.46849
 C1290 C 0.49173 -0.09811 0.46243
 H1291 H 0.47283 -0.15129 0.42759
 H1292 H 0.43567 -0.14948 0.47107
 H1293 H 0.46100 -0.07217 0.49365
 H1294 H 0.50977 -0.07668 0.46428
 H1295 H 0.48567 -0.12416 0.43793
 H1296 H 0.50065 -0.10540 0.45401
 C1297 C 0.46120 0.37396 -0.03133
 C1298 C 0.44634 0.36548 -0.02418
 C1299 C 0.44029 0.34994 -0.03180
 C1300 C 0.44883 0.34278 -0.04667
 C1301 C 0.46383 0.35156 -0.05320
 N1302 N 0.46942 0.36668 -0.04556
 C1303 C 0.46768 0.39111 -0.02474
 N1304 N 0.47909 0.40034 -0.03507
 C1305 C 0.48504 0.41653 -0.03061
 C1306 C 0.47928 0.42457 -0.01493
 C1307 C 0.46794 0.41512 -0.00379
 C1308 C 0.46222 0.39840 -0.00855
 H1309 H 0.42866 0.34380 -0.02620
 H1310 H 0.47102 0.34665 -0.06455
 H1311 H 0.49382 0.42328 -0.03960
 H1312 H 0.46332 0.42071 0.00854
 H1313 H 0.43901 0.37086 -0.01319
 H1314 H 0.45361 0.39148 0.00042
 C1315 C 0.78734 0.37460 0.46324
 C1316 C 0.80238 0.38248 0.47067
 C1317 C 0.80921 0.39767 0.46320
 C1318 C 0.80131 0.40510 0.44819
 C1319 C 0.78626 0.39688 0.44115
 N1320 N 0.77982 0.38202 0.44869
 C1321 C 0.78013 0.35786 0.47010
 N1322 N 0.76965 0.34797 0.45939
 C1323 C 0.76345 0.33199 0.46429
 C1324 C 0.76802 0.32491 0.48079
 C1325 C 0.77830 0.33511 0.49227
 C1326 C 0.78419 0.35160 0.48709
 H1327 H 0.82093 0.40339 0.46906
 H1328 H 0.77974 0.40210 0.42957
 H1329 H 0.75548 0.32460 0.45504
 H1330 H 0.78189 0.33030 0.50524
 H1331 H 0.80928 0.37684 0.48179
 H1332 H 0.79187 0.35919 0.49639
 C1333 C 0.77987 0.87455 -0.03725
 C1334 C 0.77306 0.88272 -0.05243
 C1335 C 0.78086 0.89806 -0.05866
 C1336 C 0.79557 0.90536 -0.04999
 C1337 C 0.80181 0.89686 -0.03472
 N1338 N 0.79399 0.88192 -0.02894
 C1339 C 0.77298 0.85762 -0.03052
 N1340 N 0.78305 0.84846 -0.01882
 C1341 C 0.77830 0.83244 -0.01265
 C1342 C 0.76260 0.82450 -0.01850
 C1343 C 0.75172 0.83391 -0.03014
 C1344 C 0.75676 0.85046 -0.03606
 H1345 H 0.77548 0.90396 -0.07051
 H1346 H 0.81305 0.90188 -0.02745
 H1347 H 0.78709 0.82573 -0.00363
 H1348 H 0.73938 0.82841 -0.03483
 H1349 H 0.76220 0.87723 -0.05986
 H1350 H 0.74796 0.85736 -0.04489
 C1351 C 0.78297 0.28728 0.37425
 C1352 C 0.77568 0.30168 0.36528
 C1353 C 0.78322 0.30723 0.34946
 C1354 C 0.79812 0.29866 0.34249
 C1355 C 0.80491 0.28422 0.35172
 N1356 N 0.79733 0.27905 0.36715
 C1357 C 0.77631 0.28137 0.39170
 N1358 N 0.78667 0.27045 0.40145
 C1359 C 0.78207 0.26503 0.41790
 C1360 C 0.76625 0.27086 0.42568
 C1361 C 0.75513 0.28177 0.41574
 C1362 C 0.76000 0.28692 0.39875
 H1363 H 0.77755 0.31850 0.34290
 H1364 H 0.81637 0.27719 0.34686
 H1365 H 0.79105 0.25656 0.42504
 H1366 H 0.74268 0.28639 0.42111
 H1367 H 0.76463 0.30904 0.37048
 H1368 H 0.75098 0.29513 0.39143
 C1369 C 0.78093 0.79156 -0.12302
 C1370 C 0.77391 0.80676 -0.13078
 C1371 C 0.78156 0.81345 -0.14611
 C1372 C 0.79634 0.80522 -0.15382
 C1373 C 0.80285 0.78995 -0.14570
 N1374 N 0.79517 0.78371 -0.13073
 C1375 C 0.77407 0.78436 -0.10615
 N1376 N 0.78453 0.77319 -0.09680
 C1377 C 0.77972 0.76670 -0.08079
 C1378 C 0.76353 0.77160 -0.07310
 C1379 C 0.75228 0.78267 -0.08273
 C1380 C 0.75741 0.78895 -0.09926
 H1381 H 0.77599 0.82529 -0.15169
 H1382 H 0.81417 0.78303 -0.15103
 H1383 H 0.78881 0.75815 -0.07390
 H1384 H 0.73958 0.78663 -0.07743
 H1385 H 0.76299 0.81384 -0.12494
 H1386 H 0.74833 0.79729 -0.10638
 C1387 C 0.28604 0.46689 0.87524
 C1388 C 0.30122 0.47343 0.88371
 C1389 C 0.30705 0.46578 0.89939
 C1390 C 0.29796 0.45151 0.90670
 C1391 C 0.28277 0.44545 0.89794
 N1392 N 0.27736 0.45312 0.88267
 C1393 C 0.27962 0.47374 0.85802
 N1394 N 0.26750 0.46415 0.84886
 C1395 C 0.26144 0.46896 0.83267
 C1396 C 0.26781 0.48421 0.82454
 C1397 C 0.27997 0.49455 0.83389
 C1398 C 0.28579 0.48947 0.85061
 H1399 H 0.31890 0.47085 0.90558
 H1400 H 0.27531 0.43450 0.90307
 H1401 H 0.25202 0.46058 0.82601
 H1402 H 0.28509 0.50653 0.82824
 H1403 H 0.30894 0.48399 0.87824
 H1404 H 0.29500 0.49788 0.85745
 C1405 C 0.29100 -0.03990 0.36921
 C1406 C 0.28380 -0.05490 0.37717
 C1407 C 0.29118 -0.06135 0.39274
 C1408 C 0.30586 -0.05310 0.40046
 C1409 C 0.31276 -0.03821 0.39206
 N1410 N 0.30530 -0.03213 0.37688
 C1411 C 0.28401 -0.03276 0.35232
 N1412 N 0.29444 -0.02189 0.34258
 C1413 C 0.28929 -0.01539 0.32665
 C1414 C 0.27277 -0.01993 0.31947
 C1415 C 0.26162 -0.03072 0.32949
 C1416 C 0.26708 -0.03701 0.34591
 H1417 H 0.28548 -0.07298 0.39858
 H1418 H 0.32410 -0.03144 0.39747
 H1419 H 0.29833 -0.00708 0.31942
 H1420 H 0.24867 -0.03439 0.32462
 H1421 H 0.27288 -0.06198 0.37137
 H1422 H 0.25801 -0.04504 0.35335
 C1423 C -0.03433 -0.03660 -0.12158
 C1424 C -0.02614 -0.05078 -0.13012
 C1425 C -0.03293 -0.05695 -0.14603
 C1426 C -0.04807 -0.04926 -0.15357
 C1427 C -0.05578 -0.03495 -0.14469
 N1428 N -0.04888 -0.02918 -0.12912
 C1429 C -0.02832 -0.03025 -0.10406
 N1430 N -0.03976 -0.02079 -0.09392
 C1431 C -0.03562 -0.01536 -0.07731
 C1432 C -0.01918 -0.01970 -0.06985
 C1433 C -0.00700 -0.02899 -0.08023
 C1434 C -0.01141 -0.03412 -0.09735
 H1435 H -0.02642 -0.06805 -0.15216
 H1436 H -0.06743 -0.02850 -0.14988
 H1437 H -0.04539 -0.00813 -0.06979
 H1438 H 0.00596 -0.03233 -0.07512
 H1439 H -0.01495 -0.05756 -0.12446
 H1440 H -0.00157 -0.04099 -0.10507
 C1441 C -0.03724 0.46293 0.37597
 C1442 C -0.05212 0.47011 0.36757
 C1443 C -0.05809 0.46296 0.35175
 C1444 C -0.04954 0.44840 0.34414
 C1445 C -0.03474 0.44149 0.35305
 N1446 N -0.02911 0.44880 0.36848
 C1447 C -0.03059 0.46984 0.39309
 N1448 N -0.01996 0.45953 0.40323
 C1449 C -0.01388 0.46472 0.41933
 C1450 C -0.01866 0.48114 0.42623
 C1451 C -0.02927 0.49213 0.41585
 C1452 C -0.03509 0.48664 0.39928
 H1453 H -0.06965 0.46879 0.34567
 H1454 H -0.02767 0.43028 0.34785
 H1455 H -0.00567 0.45584 0.42687
 H1456 H -0.03305 0.50502 0.42051
 H1457 H -0.05949 0.48088 0.37322
 H1458 H -0.04291 0.49564 0.39152
 C1459 C 0.46636 -0.03913 0.37812
 C1460 C 0.45103 -0.03202 0.37046
 C1461 C 0.44418 -0.03942 0.35512
 C1462 C 0.45235 -0.05404 0.34736
 C1463 C 0.46761 -0.06084 0.35544
 N1464 N 0.47408 -0.05336 0.37044
 C1465 C 0.47376 -0.03213 0.39483
 N1466 N 0.48410 -0.04269 0.40501
 C1467 C 0.49054 -0.03748 0.42095
 C1468 C 0.48638 -0.02081 0.42763
 C1469 C 0.47622 -0.00954 0.41711
 C1470 C 0.47006 -0.01504 0.40069
 H1471 H 0.43228 -0.03380 0.34952
 H1472 H 0.47431 -0.07214 0.34996
 H1473 H 0.49840 -0.04656 0.42862
 H1474 H 0.47295 0.00355 0.42160
 H1475 H 0.44399 -0.02117 0.37639
 H1476 H 0.46251 -0.00593 0.39281
 C1477 C 0.45973 0.46180 -0.12311
 C1478 C 0.44504 0.46953 -0.13136
 C1479 C 0.43896 0.46291 -0.14739
 C1480 C 0.44725 0.44838 -0.15533
 C1481 C 0.46193 0.44100 -0.14661
 N1482 N 0.46763 0.44775 -0.13096
 C1483 C 0.46632 0.46795 -0.10571
 N1484 N 0.47640 0.45697 -0.09571
 C1485 C 0.48224 0.46140 -0.07930
 C1486 C 0.47774 0.47769 -0.07192
 C1487 C 0.46781 0.48939 -0.08218
 C1488 C 0.46225 0.48468 -0.09907
 H1489 H 0.42753 0.46909 -0.15335
 H1490 H 0.46881 0.42979 -0.15207
 H1491 H 0.48996 0.45201 -0.07187
 H1492 H 0.46432 0.50222 -0.07715
 H1493 H 0.43786 0.48027 -0.12543
 H1494 H 0.45491 0.49417 -0.10670
 C1495 C 0.46107 0.78603 0.37234
 C1496 C 0.44562 0.77972 0.38048
 C1497 C 0.43988 0.78712 0.39633
 C1498 C 0.44931 0.80094 0.40411
 C1499 C 0.46463 0.80692 0.39554
 N1500 N 0.47000 0.79947 0.38011
 C1501 C 0.46758 0.77904 0.35522
 N1502 N 0.47914 0.78882 0.34558
 C1503 C 0.48533 0.78358 0.32953
 C1504 C 0.47973 0.76764 0.32217
 C1505 C 0.46814 0.75717 0.33205
 C1506 C 0.46217 0.76272 0.34856
 H1507 H 0.42787 0.78218 0.40232
 H1508 H 0.47232 0.81758 0.40101
 H1509 H 0.49429 0.79206 0.32240
 H1510 H 0.46365 0.74466 0.32704
 H1511 H 0.43768 0.76951 0.37461
 H1512 H 0.45353 0.75415 0.35592
 C1513 C -0.03883 0.78590 0.87533
 C1514 C -0.05405 0.77890 0.88326
 C1515 C -0.06045 0.78610 0.89892
 C1516 C -0.05195 0.80049 0.90686
 C1517 C -0.03672 0.80711 0.89850
 N1518 N -0.03072 0.79982 0.88318
 C1519 C -0.03193 0.77920 0.85820
 N1520 N -0.02106 0.78959 0.84842
 C1521 C -0.01500 0.78479 0.83218
 C1522 C -0.02010 0.76872 0.82469
 C1523 C -0.03082 0.75757 0.83476
 C1524 C -0.03659 0.76264 0.85151
 H1525 H -0.07229 0.78047 0.90461
 H1526 H -0.02963 0.81817 0.90397
 H1527 H -0.00668 0.79378 0.82492
 H1528 H -0.03486 0.74494 0.82965
 H1529 H -0.06139 0.76829 0.87732
 H1530 H -0.04461 0.75359 0.85897
 C1531 C 0.37862 0.78839 0.28738
 C1532 C 0.37123 0.80375 0.28031
 C1533 C 0.35563 0.81048 0.28742
 C1534 C 0.34734 0.80214 0.30169
 C1535 C 0.35515 0.78685 0.30844
 N1536 N 0.37038 0.78051 0.30126
 C1537 C 0.39553 0.78100 0.28074
 N1538 N 0.40499 0.77007 0.29137
 C1539 C 0.42096 0.76335 0.28652
 C1540 C 0.42844 0.76776 0.27014
 C1541 C 0.41870 0.77862 0.25879
 C1542 C 0.40225 0.78512 0.26394
 H1543 H 0.35025 0.82240 0.28186
 H1544 H 0.34926 0.78000 0.31947
 H1545 H 0.42798 0.75498 0.29567
 H1546 H 0.42382 0.78215 0.24591
 H1547 H 0.37755 0.81088 0.26974
 H1548 H 0.39499 0.79319 0.25474
 C1549 C -0.12504 0.78823 0.78974
 C1550 C -0.13338 0.78121 0.80473
 C1551 C -0.14898 0.78873 0.81101
 C1552 C -0.15636 0.80337 0.80258
 C1553 C -0.14764 0.81004 0.78765
 N1554 N -0.13242 0.80246 0.78176
 C1555 C -0.10799 0.78124 0.78291
 N1556 N -0.09798 0.79151 0.77213
 C1557 C -0.08185 0.78642 0.76600
 C1558 C -0.07471 0.77014 0.77090
 C1559 C -0.08500 0.75914 0.78157
 C1560 C -0.10163 0.76453 0.78746
 H1561 H -0.15508 0.78319 0.82267
 H1562 H -0.15279 0.82133 0.78074
 H1563 H -0.07441 0.79532 0.75774
 H1564 H -0.08015 0.74636 0.78547
 H1565 H -0.12782 0.77034 0.81197
 H1566 H -0.10927 0.75559 0.79543
 C1567 C 0.87349 0.28663 0.46235
 C1568 C 0.88223 0.27912 0.44780
 C1569 C 0.89812 0.28625 0.44193
 C1570 C 0.90540 0.30098 0.45031
 C1571 C 0.89632 0.30810 0.46483
 N1572 N 0.88081 0.30089 0.47034
 C1573 C 0.85608 0.28016 0.46868
 N1574 N 0.84619 0.29074 0.47932
 C1575 C 0.82978 0.28620 0.48505
 C1576 C 0.82223 0.27020 0.47987
 C1577 C 0.83234 0.25889 0.46930
 C1578 C 0.84927 0.26371 0.46382
 H1579 H 0.90453 0.28036 0.43057
 H1580 H 0.90140 0.31947 0.47170
 H1581 H 0.82250 0.29532 0.49326
 H1582 H 0.82716 0.24631 0.46520
 H1583 H 0.87680 0.26818 0.44057
 H1584 H 0.85676 0.25453 0.45593
 C1585 C 0.87035 0.78955 -0.03404
 C1586 C 0.87852 0.80428 -0.02648
 C1587 C 0.89454 0.81024 -0.03327
 C1588 C 0.90250 0.80174 -0.04769
 C1589 C 0.89396 0.78704 -0.05486
 N1590 N 0.87832 0.78146 -0.04800
 C1591 C 0.85289 0.78310 -0.02792
 N1592 N 0.84325 0.77267 -0.03890
 C1593 C 0.82682 0.76682 -0.03462
 C1594 C 0.81902 0.77166 -0.01849
 C1595 C 0.82888 0.78203 -0.00678
 C1596 C 0.84581 0.78764 -0.01135
 H1597 H 0.90051 0.82173 -0.02738
 H1598 H 0.89957 0.78009 -0.06601
 H1599 H 0.81973 0.75878 -0.04402
 H1600 H 0.82351 0.78585 0.00593
 H1601 H 0.87251 0.81157 -0.01580
 H1602 H 0.85313 0.79535 -0.00188
 C1603 C -0.12562 -0.04025 -0.03194
 C1604 C -0.13430 -0.05481 -0.02461
 C1605 C -0.15004 -0.06079 -0.03211
 C1606 C -0.15725 -0.05251 -0.04706
 C1607 C -0.14820 -0.03790 -0.05387
 N1608 N -0.13289 -0.03234 -0.04631
 C1609 C -0.10838 -0.03366 -0.02522
 N1610 N -0.09902 -0.02231 -0.03546
 C1611 C -0.08284 -0.01612 -0.03074
 C1612 C -0.07495 -0.02152 -0.01486
 C1613 C -0.08452 -0.03286 -0.00387
 C1614 C -0.10122 -0.03885 -0.00890
 H1615 H -0.15636 -0.07214 -0.02632
 H1616 H -0.15310 -0.03095 -0.06532
 H1617 H -0.07598 -0.00736 -0.03963
 H1618 H -0.07907 -0.03721 0.00860
 H1619 H -0.12895 -0.06191 -0.01351
 H1620 H -0.10823 -0.04739 0.00002
 C1621 C -0.12029 0.46256 0.46184
 C1622 C -0.12821 0.44767 0.46928
 C1623 C -0.14392 0.44123 0.46220
 C1624 C -0.15180 0.44940 0.44759
 C1625 C -0.14348 0.46424 0.44049
 N1626 N -0.12814 0.47030 0.44765
 C1627 C -0.10321 0.46960 0.46838
 N1628 N -0.09356 0.48020 0.45760
 C1629 C -0.07745 0.48660 0.46233
 C1630 C -0.07002 0.48221 0.47874
 C1631 C -0.07993 0.47169 0.49023
 C1632 C -0.09652 0.46551 0.48520
 H1633 H -0.14971 0.42964 0.46804
 H1634 H -0.14903 0.47095 0.42920
 H1635 H -0.07030 0.49472 0.45306
 H1636 H -0.07485 0.46819 0.50313
 H1637 H -0.12224 0.44064 0.48013
 H1638 H -0.10391 0.45770 0.49452
 C1639 C 0.38383 -0.03977 0.45990
 C1640 C 0.37577 -0.05442 0.46762
 C1641 C 0.36009 -0.06097 0.46060
 C1642 C 0.35228 -0.05322 0.44565
 C1643 C 0.36090 -0.03867 0.43816
 N1644 N 0.37621 -0.03246 0.44534
 C1645 C 0.40075 -0.03254 0.46678
 N1646 N 0.41107 -0.02258 0.45598
 C1647 C 0.42707 -0.01619 0.46116
 C1648 C 0.43369 -0.01995 0.47809
 C1649 C 0.42307 -0.02976 0.48958
 C1650 C 0.40661 -0.03589 0.48408
 H1651 H 0.35426 -0.07231 0.46688
 H1652 H 0.35557 -0.03222 0.42661
 H1653 H 0.43481 -0.00862 0.45189
 H1654 H 0.42748 -0.03273 0.50285
 H1655 H 0.38158 -0.06117 0.47873
 H1656 H 0.39866 -0.04311 0.49343
 C1657 C 0.37294 0.45921 -0.03086
 C1658 C 0.36468 0.44417 -0.02410
 C1659 C 0.34888 0.43830 -0.03159
 C1660 C 0.34122 0.44721 -0.04593
 C1661 C 0.34979 0.46237 -0.05207
 N1662 N 0.36517 0.46779 -0.04458
 C1663 C 0.39033 0.46562 -0.02441
 N1664 N 0.39909 0.47767 -0.03434
 C1665 C 0.41541 0.48373 -0.03001
 C1666 C 0.42410 0.47746 -0.01490
 C1667 C 0.41517 0.46536 -0.00418
 C1668 C 0.39830 0.45951 -0.00880
 H1669 H 0.34292 0.42653 -0.02630
 H1670 H 0.34450 0.46983 -0.06301
 H1671 H 0.42172 0.49311 -0.03865
 H1672 H 0.42127 0.46030 0.00770
 H1673 H 0.37041 0.43659 -0.01352
 H1674 H 0.39179 0.45032 -0.00015
 C1675 C 0.37206 0.46332 0.78362
 C1676 C 0.37985 0.44841 0.77596
 C1677 C 0.39548 0.44168 0.78299
 C1678 C 0.40339 0.44960 0.79773
 C1679 C 0.39529 0.46456 0.80493
 N1680 N 0.38002 0.47087 0.79786
 C1681 C 0.35487 0.47045 0.77746
 N1682 N 0.34546 0.48102 0.78854
 C1683 C 0.32915 0.48730 0.78433
 C1684 C 0.32123 0.48272 0.76821
 C1685 C 0.33092 0.47231 0.75635
 C1686 C 0.34774 0.46630 0.76083
 H1687 H 0.40114 0.43003 0.77705
 H1688 H 0.40090 0.47111 0.81631
 H1689 H 0.32219 0.49535 0.79385
 H1690 H 0.32544 0.46870 0.74364
 H1691 H 0.37380 0.44154 0.76504
 H1692 H 0.35491 0.45850 0.75128
 C1693 C 0.37495 -0.03962 0.28874
 C1694 C 0.38274 -0.03268 0.30406
 C1695 C 0.39825 -0.04003 0.31058
 C1696 C 0.40609 -0.05445 0.30209
 C1697 C 0.39786 -0.06112 0.28688
 N1698 N 0.38269 -0.05368 0.28072
 C1699 C 0.35811 -0.03260 0.28161
 N1700 N 0.34808 -0.04297 0.27093
 C1701 C 0.33214 -0.03773 0.26448
 C1702 C 0.32530 -0.02118 0.26892
 C1703 C 0.33560 -0.01012 0.27953
 C1704 C 0.35201 -0.01568 0.28574
 H1705 H 0.40395 -0.03451 0.32247
 H1706 H 0.40338 -0.07226 0.27994
 H1707 H 0.32468 -0.04667 0.25627
 H1708 H 0.33098 0.00286 0.28305
 H1709 H 0.37680 -0.02200 0.31133
 H1710 H 0.35975 -0.00668 0.29360
 C1711 C 0.12594 0.53924 0.71472
 C1712 C 0.11820 0.53130 0.69988
 C1713 C 0.10281 0.53829 0.69270
 C1714 C 0.09504 0.55333 0.70005
 C1715 C 0.10318 0.56095 0.71487
 N1716 N 0.11826 0.55387 0.72167
 C1717 C 0.14277 0.53264 0.72229
 N1718 N 0.15336 0.54381 0.73152
 C1719 C 0.16950 0.53891 0.73781
 C1720 C 0.17595 0.52194 0.73460
 C1721 C 0.16498 0.51007 0.72568
 C1722 C 0.14838 0.51528 0.71969
 H1723 H 0.09717 0.53200 0.68118
 H1724 H 0.09771 0.57261 0.72093
 H1725 H 0.17750 0.54845 0.74473
 H1726 H 0.16928 0.49676 0.72322
 H1727 H 0.12413 0.52010 0.69343
 H1728 H 0.14017 0.50573 0.71308
 C1729 C 0.13090 0.03480 0.20960
 C1730 C 0.12233 0.02765 0.19477
 C1731 C 0.10646 0.03493 0.18890
 C1732 C 0.09902 0.04949 0.19758
 C1733 C 0.10799 0.05616 0.21244
 N1734 N 0.12344 0.04882 0.21788
 C1735 C 0.14823 0.02826 0.21604
 N1736 N 0.15790 0.03866 0.22703
 C1737 C 0.17420 0.03402 0.23303
 C1738 C 0.18184 0.01807 0.22780
 C1739 C 0.17194 0.00693 0.21685
 C1740 C 0.15515 0.01188 0.21106
 H1741 H 0.10023 0.02928 0.17734
 H1742 H 0.10291 0.06732 0.21968
 H1743 H 0.18131 0.04300 0.24150
 H1744 H 0.17719 -0.00561 0.21267
 H1745 H 0.12791 0.01687 0.18736
 H1746 H 0.14782 0.00286 0.20286
 C1747 C 0.62273 0.70691 0.21575
 C1748 C 0.63050 0.69142 0.22209
 C1749 C 0.64599 0.68513 0.21432
 C1750 C 0.65379 0.69407 0.20013
 C1751 C 0.64570 0.70955 0.19425
 N1752 N 0.63058 0.71542 0.20203
 C1753 C 0.60571 0.71375 0.22275
 N1754 N 0.59646 0.72545 0.21281
 C1755 C 0.58037 0.73174 0.21777
 C1756 C 0.57248 0.72607 0.23356
 C1757 C 0.58199 0.71441 0.24428
 C1758 C 0.59860 0.70834 0.23902
 H1759 H 0.65164 0.67306 0.21925
 H1760 H 0.65121 0.71690 0.18336
 H1761 H 0.57358 0.74077 0.20910
 H1762 H 0.57653 0.70986 0.25668
 H1763 H 0.62456 0.68382 0.23255
 H1764 H 0.60563 0.69955 0.24771
 C1765 C 0.11992 0.71323 0.71374
 C1766 C 0.12787 0.72090 0.69890
 C1767 C 0.14359 0.71404 0.69230
 C1768 C 0.15148 0.69939 0.70023
 C1769 C 0.14309 0.69199 0.71500
 N1770 N 0.12771 0.69896 0.72125
 C1771 C 0.10285 0.71975 0.72083
 N1772 N 0.09244 0.70875 0.73042
 C1773 C 0.07621 0.71358 0.73651
 C1774 C 0.06947 0.73031 0.73277
 C1775 C 0.08019 0.74202 0.72338
 C1776 C 0.09689 0.73689 0.71757
 H1777 H 0.14939 0.72012 0.68076
 H1778 H 0.14865 0.68063 0.72150
 H1779 H 0.06840 0.70418 0.74380
 H1780 H 0.07567 0.75517 0.72050
 H1781 H 0.12189 0.73178 0.69201
 H1782 H 0.10493 0.74634 0.71065
 C1783 C 0.62705 0.21683 0.53817
 C1784 C 0.61887 0.22353 0.55345
 C1785 C 0.60303 0.21624 0.55936
 C1786 C 0.59531 0.20218 0.55026
 C1787 C 0.60386 0.19589 0.53503
 N1788 N 0.61928 0.20321 0.52952
 C1789 C 0.64428 0.22348 0.53159
 N1790 N 0.65377 0.21337 0.52014
 C1791 C 0.66992 0.21821 0.51393
 C1792 C 0.67757 0.23406 0.51937
 C1793 C 0.66786 0.24487 0.53084
 C1794 C 0.65122 0.23973 0.53686
 H1795 H 0.59703 0.22144 0.57126
 H1796 H 0.59842 0.18505 0.52758
 H1797 H 0.67690 0.20946 0.50506
 H1798 H 0.67311 0.25733 0.53522
 H1799 H 0.62472 0.23393 0.56116
 H1800 H 0.64401 0.24854 0.54543
 C1801 C 0.62559 0.70910 0.03546
 C1802 C 0.61810 0.69385 0.02829
 C1803 C 0.60242 0.68732 0.03528
 C1804 C 0.59413 0.69574 0.04956
 C1805 C 0.60206 0.71091 0.05645
 N1806 N 0.61739 0.71707 0.04936
 C1807 C 0.64257 0.71627 0.02887
 N1808 N 0.65211 0.72709 0.03954
 C1809 C 0.66813 0.73362 0.03472
 C1810 C 0.67557 0.72913 0.01831
 C1811 C 0.66578 0.71836 0.00693
 C1812 C 0.64927 0.71205 0.01206
 H1813 H 0.59696 0.67547 0.02962
 H1814 H 0.59619 0.71780 0.06750
 H1815 H 0.67520 0.74195 0.04389
 H1816 H 0.67086 0.71478 -0.00596
 H1817 H 0.62438 0.68663 0.01771
 H1818 H 0.64195 0.70407 0.00281
 C1819 C 0.11933 0.03721 0.04177
 C1820 C 0.12791 0.02958 0.05631
 C1821 C 0.14384 0.03652 0.06232
 C1822 C 0.15133 0.05128 0.05414
 C1823 C 0.14221 0.05864 0.03973
 N1824 N 0.12670 0.05155 0.03405
 C1825 C 0.10217 0.03052 0.03501
 N1826 N 0.09188 0.04115 0.02484
 C1827 C 0.07575 0.03613 0.01867
 C1828 C 0.06898 0.01954 0.02288
 C1829 C 0.07954 0.00823 0.03296
 C1830 C 0.09612 0.01356 0.03888
 H1831 H 0.15011 0.03037 0.07358
 H1832 H 0.14730 0.07004 0.03296
 H1833 H 0.06806 0.04525 0.01087
 H1834 H 0.07500 -0.00479 0.03628
 H1835 H 0.12235 0.01861 0.06336
 H1836 H 0.10401 0.00433 0.04629
 C1837 C 0.12467 0.54173 0.53198
 C1838 C 0.13233 0.55735 0.52584
 C1839 C 0.14761 0.56379 0.53391
 C1840 C 0.15528 0.55485 0.54817
 C1841 C 0.14736 0.53919 0.55376
 N1842 N 0.13246 0.53321 0.54573
 C1843 C 0.10778 0.53474 0.52487
 N1844 N 0.09881 0.52267 0.53459
 C1845 C 0.08281 0.51623 0.52961
 C1846 C 0.07469 0.52214 0.51404
 C1847 C 0.08393 0.53417 0.50351
 C1848 C 0.10046 0.54039 0.50877
 H1849 H 0.15316 0.57597 0.52920
 H1850 H 0.15279 0.53182 0.56469
 H1851 H 0.07625 0.50691 0.53813
 H1852 H 0.07830 0.53895 0.49127
 H1853 H 0.12646 0.56493 0.51534
 H1854 H 0.10724 0.54952 0.50026
 C1855 C 0.62806 0.03539 0.53743
 C1856 C 0.63630 0.02862 0.55261
 C1857 C 0.65176 0.03635 0.55892
 C1858 C 0.65905 0.05092 0.55033
 C1859 C 0.65051 0.05721 0.53513
 N1860 N 0.63544 0.04946 0.52924
 C1861 C 0.61102 0.02848 0.53063
 N1862 N 0.60143 0.03860 0.51933
 C1863 C 0.58529 0.03371 0.51313
 C1864 C 0.57771 0.01782 0.51852
 C1865 C 0.58757 0.00694 0.52974
 C1866 C 0.60422 0.01212 0.53570
 H1867 H 0.65779 0.03111 0.57077
 H1868 H 0.65563 0.06840 0.52805
 H1869 H 0.57821 0.04251 0.50444
 H1870 H 0.58237 -0.00555 0.53404
 H1871 H 0.63076 0.01784 0.55996
 H1872 H 0.61151 0.00331 0.54415
 C1873 C 0.61883 0.54126 0.03309
 C1874 C 0.62610 0.55702 0.02682
 C1875 C 0.64182 0.56334 0.03412
 C1876 C 0.65032 0.55415 0.04774
 C1877 C 0.64266 0.53845 0.05358
 N1878 N 0.62735 0.53256 0.04627
 C1879 C 0.60178 0.53411 0.02652
 N1880 N 0.59341 0.52172 0.03636
 C1881 C 0.57752 0.51479 0.03168
 C1882 C 0.56895 0.52042 0.01624
 C1883 C 0.57750 0.53290 0.00567
 C1884 C 0.59390 0.53969 0.01067
 H1885 H 0.64715 0.57558 0.02928
 H1886 H 0.64869 0.53089 0.06405
 H1887 H 0.57147 0.50518 0.04026
 H1888 H 0.57149 0.53753 -0.00644
 H1889 H 0.61965 0.56472 0.01675
 H1890 H 0.60019 0.54909 0.00209
 C1891 C 0.03615 0.03923 0.12410
 C1892 C 0.02914 0.05420 0.13240
 C1893 C 0.03690 0.06053 0.14786
 C1894 C 0.05181 0.05217 0.15515
 C1895 C 0.05835 0.03719 0.14643
 N1896 N 0.05052 0.03129 0.13139
 C1897 C 0.02900 0.03218 0.10725
 N1898 N 0.03914 0.02078 0.09775
 C1899 C 0.03392 0.01412 0.08191
 C1900 C 0.01759 0.01903 0.07459
 C1901 C 0.00672 0.03043 0.08433
 C1902 C 0.01228 0.03692 0.10065
 H1903 H 0.03133 0.07216 0.15391
 H1904 H 0.06977 0.03020 0.15139
 H1905 H 0.04274 0.00535 0.07490
 H1906 H -0.00607 0.03444 0.07932
 H1907 H 0.01808 0.06134 0.12694
 H1908 H 0.00345 0.04545 0.10786
 C1909 C 0.03895 0.53771 0.62071
 C1910 C 0.05402 0.53074 0.62900
 C1911 C 0.05995 0.53799 0.64482
 C1912 C 0.05109 0.55230 0.65244
 C1913 C 0.03607 0.55888 0.64378
 N1914 N 0.03052 0.55158 0.62834
 C1915 C 0.03250 0.53110 0.60344
 N1916 N 0.02162 0.54149 0.59364
 C1917 C 0.01577 0.53676 0.57734
 C1918 C 0.02109 0.52078 0.56982
 C1919 C 0.03189 0.50965 0.57986
 C1920 C 0.03748 0.51466 0.59667
 H1921 H 0.07169 0.53254 0.65090
 H1922 H 0.02883 0.56992 0.64913
 H1923 H 0.00738 0.54573 0.57010
 H1924 H 0.03608 0.49707 0.57471
 H1925 H 0.06158 0.52016 0.62325
 H1926 H 0.04555 0.50563 0.60413
 C1927 C 0.53756 0.03710 0.62340
 C1928 C 0.52917 0.05154 0.63131
 C1929 C 0.53577 0.05842 0.64702
 C1930 C 0.55092 0.05119 0.65501
 C1931 C 0.55892 0.03671 0.64667
 N1932 N 0.55219 0.03022 0.63130
 C1933 C 0.53150 0.02983 0.60621
 N1934 N 0.54300 0.02017 0.59630
 C1935 C 0.53875 0.01397 0.57997
 C1936 C 0.52213 0.01769 0.57255
 C1937 C 0.50989 0.02710 0.58276
 C1938 C 0.51441 0.03300 0.59959
 H1939 H 0.52906 0.06964 0.65268
 H1940 H 0.57062 0.03062 0.65219
 H1941 H 0.54858 0.00668 0.57259
 H1942 H 0.49680 0.02999 0.57769
 H1943 H 0.51793 0.05794 0.62531
 H1944 H 0.50453 0.03998 0.60716
 C1945 C 0.53689 0.53897 0.12052
 C1946 C 0.53002 0.55416 0.12848
 C1947 C 0.53713 0.56010 0.14436
 C1948 C 0.55122 0.55114 0.15236
 C1949 C 0.55785 0.53611 0.14392
 N1950 N 0.55064 0.53051 0.12844
 C1951 C 0.53006 0.53224 0.10344
 N1952 N 0.54040 0.52125 0.09368
 C1953 C 0.53525 0.51490 0.07768
 C1954 C 0.51881 0.51972 0.07053
 C1955 C 0.50780 0.53074 0.08052
 C1956 C 0.51327 0.53689 0.09697
 H1957 H 0.53170 0.57189 0.15023
 H1958 H 0.56875 0.52882 0.14956
 H1959 H 0.54416 0.50639 0.07046
 H1960 H 0.49489 0.53460 0.07567
 H1961 H 0.51958 0.56174 0.12244
 H1962 H 0.50427 0.54503 0.10446
 C1963 C 0.20825 0.53779 0.62992
 C1964 C 0.19587 0.52900 0.61926
 C1965 C 0.19033 0.53655 0.60342
 C1966 C 0.19717 0.55274 0.59798
 C1967 C 0.20988 0.56086 0.60876
 N1968 N 0.21495 0.55332 0.62420
 C1969 C 0.21428 0.53085 0.64721
 N1970 N 0.22913 0.53775 0.65465
 C1971 C 0.23525 0.53264 0.67072
 C1972 C 0.22618 0.51986 0.68048
 C1973 C 0.21085 0.51253 0.67308
 C1974 C 0.20483 0.51800 0.65655
 H1975 H 0.18067 0.52968 0.59545
 H1976 H 0.21561 0.57330 0.60508
 H1977 H 0.24709 0.53873 0.67589
 H1978 H 0.20328 0.50279 0.68019
 H1979 H 0.19054 0.51639 0.62287
 H1980 H 0.19267 0.51247 0.65155
 C1981 C 0.21524 0.03426 0.12505
 C1982 C 0.19975 0.02703 0.11788
 C1983 C 0.19198 0.03469 0.10313
 C1984 C 0.19937 0.04972 0.09536
 C1985 C 0.21496 0.05650 0.10290
 N1986 N 0.22229 0.04879 0.11737
 C1987 C 0.22337 0.02724 0.14143
 N1988 N 0.23392 0.03789 0.15129
 C1989 C 0.24072 0.03287 0.16714
 C1990 C 0.23666 0.01633 0.17413
 C1991 C 0.22643 0.00488 0.16387
 C1992 C 0.21994 0.01018 0.14749
 H1993 H 0.17994 0.02888 0.09804
 H1994 H 0.22124 0.06804 0.09750
 H1995 H 0.24864 0.04210 0.17457
 H1996 H 0.22322 -0.00810 0.16861
 H1997 H 0.19323 0.01592 0.12381
 H1998 H 0.21223 0.00098 0.13986
 C1999 C 0.71471 0.21364 0.62124
 C2000 C 0.72226 0.19868 0.62897
 C2001 C 0.71557 0.19236 0.64486
 C2002 C 0.70122 0.20072 0.65311
 C2003 C 0.69396 0.21558 0.64494
 N2004 N 0.70075 0.22154 0.62943
 C2005 C 0.72096 0.22061 0.60406
 N2006 N 0.70998 0.23109 0.59446
 C2007 C 0.71452 0.23740 0.57828
 C2008 C 0.73092 0.23300 0.57074
 C2009 C 0.74260 0.22262 0.58061
 C2010 C 0.73778 0.21656 0.59726
 H2011 H 0.72149 0.18074 0.65052
 H2012 H 0.68285 0.22242 0.65078
 H2013 H 0.70513 0.24543 0.57115
 H2014 H 0.75552 0.21914 0.57546
 H2015 H 0.73291 0.19152 0.62271
 H2016 H 0.74726 0.20887 0.60461
 C2017 C 0.71218 0.71083 0.12133
 C2018 C 0.71993 0.69570 0.12844
 C2019 C 0.71317 0.68852 0.14390
 C2020 C 0.69855 0.69618 0.15237
 C2021 C 0.69111 0.71130 0.14485
 N2022 N 0.69796 0.71808 0.12969
 C2023 C 0.71850 0.71849 0.10449
 N2024 N 0.70721 0.72842 0.09468
 C2025 C 0.71179 0.73501 0.07862
 C2026 C 0.72856 0.73145 0.07143
 C2027 C 0.74058 0.72174 0.08157
 C2028 C 0.73570 0.71541 0.09811
 H2029 H 0.71929 0.67676 0.14904
 H2030 H 0.67977 0.71761 0.15086
 H2031 H 0.70213 0.74252 0.07128
 H2032 H 0.75377 0.71896 0.07670
 H2033 H 0.73079 0.68904 0.12198
 H2034 H 0.74538 0.70820 0.10569
 C2035 C 0.53384 0.70851 0.12738
 C2036 C 0.52630 0.69360 0.11951
 C2037 C 0.53319 0.68718 0.10370
 C2038 C 0.54770 0.69539 0.09566
 C2039 C 0.55486 0.71027 0.10391
 N2040 N 0.54790 0.71630 0.11935
 C2041 C 0.52758 0.71544 0.14462
 N2042 N 0.53862 0.72578 0.15430
 C2043 C 0.53420 0.73194 0.17059
 C2044 C 0.51786 0.72753 0.17820
 C2045 C 0.50607 0.71734 0.16824
 C2046 C 0.51078 0.71142 0.15146
 H2047 H 0.52731 0.67557 0.09795
 H2048 H 0.56607 0.71702 0.09824
 H2049 H 0.54368 0.73983 0.17777
 H2050 H 0.49320 0.71384 0.17345
 H2051 H 0.51554 0.68654 0.12562
 H2052 H 0.50127 0.70382 0.14406
 C2053 C 0.03666 0.71158 0.63017
 C2054 C 0.02955 0.69651 0.62225
 C2055 C 0.03702 0.68997 0.60675
 C2056 C 0.05171 0.69819 0.59904
 C2057 C 0.05855 0.71315 0.60742
 N2058 N 0.05100 0.71933 0.62256
 C2059 C 0.02946 0.71880 0.64698
 N2060 N 0.03987 0.72941 0.65706
 C2061 C 0.03449 0.73587 0.67296
 C2062 C 0.01774 0.73153 0.67975
 C2063 C 0.00663 0.72102 0.66937
 C2064 C 0.01233 0.71479 0.65299
 H2065 H 0.03135 0.67828 0.60095
 H2066 H 0.06991 0.71989 0.60202
 H2067 H 0.04350 0.74397 0.68048
 H2068 H -0.00649 0.71754 0.67393
 H2069 H 0.01863 0.68944 0.62805
 H2070 H 0.00328 0.70699 0.64524
 C2071 C 0.53686 0.62429 0.21639
 C2072 C 0.55214 0.61657 0.22359
 C2073 C 0.55907 0.60141 0.21596
 C2074 C 0.55099 0.59391 0.20108
 C2075 C 0.53568 0.60194 0.19436
 N2076 N 0.52918 0.61674 0.20200
 C2077 C 0.52952 0.64101 0.22320
 N2078 N 0.51876 0.65064 0.21251
 C2079 C 0.51239 0.66662 0.21729
 C2080 C 0.51707 0.67398 0.23364
 C2081 C 0.52759 0.66402 0.24513
 C2082 C 0.53369 0.64754 0.24007
 H2083 H 0.57098 0.59579 0.22154
 H2084 H 0.52899 0.59664 0.18290
 H2085 H 0.50425 0.67380 0.20804
 H2086 H 0.53131 0.66906 0.25799
 H2087 H 0.55911 0.62232 0.23461
 H2088 H 0.54163 0.64017 0.24931
 C2089 C 0.03388 0.63042 0.70990
 C2090 C 0.02744 0.62283 0.69425
 C2091 C 0.03478 0.60723 0.68808
 C2092 C 0.04868 0.59914 0.69728
 C2093 C 0.05478 0.60714 0.71284
 N2094 N 0.04738 0.62235 0.71862
 C2095 C 0.02705 0.64732 0.71682
 N2096 N 0.03709 0.65641 0.72862
 C2097 C 0.03210 0.67225 0.73517
 C2098 C 0.01613 0.67999 0.72974
 C2099 C 0.00538 0.67069 0.71789
 C2100 C 0.01069 0.65436 0.71153
 H2101 H 0.02973 0.60168 0.67592
 H2102 H 0.06549 0.60141 0.72037
 H2103 H 0.04080 0.67891 0.74432
 H2104 H -0.00715 0.67603 0.71350
 H2105 H 0.01717 0.62896 0.68648
 H2106 H 0.00192 0.64744 0.70268
 C2107 C 0.03660 0.11912 0.03985
 C2108 C 0.05151 0.12674 0.03191
 C2109 C 0.05882 0.14186 0.03912
 C2110 C 0.05153 0.14950 0.05440
 C2111 C 0.03660 0.14142 0.06197
 N2112 N 0.02971 0.12665 0.05465
 C2113 C 0.02878 0.10261 0.03311
 N2114 N 0.01903 0.09249 0.04427
 C2115 C 0.01235 0.07669 0.03932
 C2116 C 0.01566 0.07009 0.02231
 C2117 C 0.02511 0.08059 0.01043
 C2118 C 0.03153 0.09686 0.01568
 H2119 H 0.07039 0.14737 0.03277
 H2120 H 0.03045 0.14669 0.07375
 H2121 H 0.00506 0.06904 0.04889
 H2122 H 0.02771 0.07615 -0.00293
 H2123 H 0.05789 0.12093 0.02054
 H2124 H 0.03856 0.10469 0.00612
 C2125 C 0.03642 0.62372 0.53665
 C2126 C 0.02880 0.63109 0.55190
 C2127 C 0.03614 0.64612 0.55934
 C2128 C 0.05118 0.65387 0.55181
 C2129 C 0.05840 0.64613 0.53656
 N2130 N 0.05101 0.63144 0.52955
 C2131 C 0.02971 0.60724 0.52869
 N2132 N 0.04071 0.59758 0.51822
 C2133 C 0.03592 0.58179 0.51137
 C2134 C 0.01924 0.57468 0.51523
 C2135 C 0.00746 0.58472 0.52540
 C2136 C 0.01255 0.60100 0.53199
 H2137 H 0.03018 0.65150 0.57118
 H2138 H 0.07001 0.65160 0.53030
 H2139 H 0.04542 0.57453 0.50353
 H2140 H -0.00565 0.57989 0.52849
 H2141 H 0.01761 0.62516 0.55844
 H2142 H 0.00307 0.60844 0.53965
 C2143 C 0.53974 0.12283 0.53299
 C2144 C 0.55502 0.13091 0.52623
 C2145 C 0.56070 0.14679 0.53333
 C2146 C 0.55136 0.15467 0.54727
 C2147 C 0.53612 0.14625 0.55359
 N2148 N 0.53085 0.13076 0.54646
 C2149 C 0.53354 0.10551 0.52665
 N2150 N 0.52238 0.09609 0.53709
 C2151 C 0.51671 0.07977 0.53265
 C2152 C 0.52253 0.07186 0.51693
 C2153 C 0.53362 0.08152 0.50573
 C2154 C 0.53902 0.09833 0.51043
 H2155 H 0.57261 0.15270 0.52811
 H2156 H 0.52849 0.15181 0.56434
 H2157 H 0.50810 0.07284 0.54166
 H2158 H 0.53822 0.07606 0.49333
 H2159 H 0.56292 0.12493 0.51595
 H2160 H 0.54735 0.10547 0.50137
 C2161 C 0.53478 0.61948 0.03423
 C2162 C 0.54991 0.62727 0.02687
 C2163 C 0.55645 0.64275 0.03407
 C2164 C 0.54814 0.65053 0.04869
 C2165 C 0.53303 0.64239 0.05565
 N2166 N 0.52689 0.62727 0.04841
 C2167 C 0.52776 0.60255 0.02770
 N2168 N 0.51723 0.59291 0.03856
 C2169 C 0.51097 0.57687 0.03392
 C2170 C 0.51549 0.56949 0.01751
 C2171 C 0.52590 0.57940 0.00590
 C2172 C 0.53191 0.59594 0.01085
 H2173 H 0.56824 0.64843 0.02832
 H2174 H 0.52620 0.64789 0.06695
 H2175 H 0.50292 0.56972 0.04327
 H2176 H 0.52948 0.57435 -0.00699
 H2177 H 0.55705 0.62134 0.01603
 H2178 H 0.53968 0.60332 0.00148
 C2179 C 0.71246 0.13116 0.53526
 C2180 C 0.69782 0.12249 0.52788
 C2181 C 0.69229 0.10655 0.53491
 C2182 C 0.70109 0.09915 0.54948
 C2183 C 0.71568 0.10827 0.55646
 N2184 N 0.72084 0.12377 0.54932
 C2185 C 0.71868 0.14843 0.52876
 N2186 N 0.72963 0.15810 0.53922
 C2187 C 0.73554 0.17424 0.53450
 C2188 C 0.73027 0.18169 0.51839
 C2189 C 0.71930 0.17182 0.50724
 C2190 C 0.71362 0.15521 0.51226
 H2191 H 0.68090 0.10023 0.52904
 H2192 H 0.72297 0.10324 0.56766
 H2193 H 0.74401 0.18136 0.54352
 H2194 H 0.71510 0.17692 0.49457
 H2195 H 0.69032 0.12798 0.51709
 H2196 H 0.70547 0.14790 0.50315
 C2197 C 0.71187 0.63050 0.03956
 C2198 C 0.71866 0.62243 0.05481
 C2199 C 0.71139 0.60669 0.06067
 C2200 C 0.69725 0.59893 0.05154
 C2201 C 0.69083 0.60741 0.03639
 N2202 N 0.69815 0.62273 0.03092
 C2203 C 0.71858 0.64754 0.03290
 N2204 N 0.70854 0.65662 0.02109
 C2205 C 0.71341 0.67252 0.01467
 C2206 C 0.72925 0.68037 0.02024
 C2207 C 0.74000 0.67110 0.03212
 C2208 C 0.73482 0.65471 0.03837
 H2209 H 0.71670 0.60074 0.07251
 H2210 H 0.67993 0.60197 0.02892
 H2211 H 0.70469 0.67914 0.00551
 H2212 H 0.75243 0.67653 0.03666
 H2213 H 0.72916 0.62824 0.06251
 H2214 H 0.74358 0.64787 0.04727
 C2215 C 0.21230 0.62226 0.71129
 C2216 C 0.21925 0.62998 0.69594
 C2217 C 0.21219 0.64569 0.68981
 C2218 C 0.19806 0.65375 0.69872
 C2219 C 0.19142 0.64560 0.71395
 N2220 N 0.19857 0.63029 0.71972
 C2221 C 0.21890 0.60528 0.71815
 N2222 N 0.20850 0.59602 0.72948
 C2223 C 0.21332 0.58009 0.73590
 C2224 C 0.22943 0.57243 0.73076
 C2225 C 0.24053 0.58191 0.71942
 C2226 C 0.23542 0.59833 0.71323
 H2227 H 0.21764 0.65135 0.67789
 H2228 H 0.18051 0.65130 0.72124
 H2229 H 0.20436 0.57327 0.74466
 H2230 H 0.25320 0.57665 0.71532
 H2231 H 0.22971 0.62390 0.68837
 H2232 H 0.24447 0.60538 0.70480
 C2233 C 0.22068 0.12150 0.20807
 C2234 C 0.22735 0.12982 0.19292
 C2235 C 0.21959 0.14534 0.18702
 C2236 C 0.20504 0.15267 0.19601
 C2237 C 0.19895 0.14402 0.21124
 N2238 N 0.20673 0.12892 0.21669
 C2239 C 0.22755 0.10445 0.21457
 N2240 N 0.21783 0.09560 0.22678
 C2241 C 0.22260 0.07959 0.23297
 C2242 C 0.23797 0.07133 0.22666
 C2243 C 0.24846 0.08036 0.21439
 C2244 C 0.24340 0.09691 0.20841
 H2245 H 0.22485 0.15136 0.17519
 H2246 H 0.18785 0.14905 0.21875
 H2247 H 0.21409 0.07318 0.24246
 H2248 H 0.26053 0.07459 0.20928
 H2249 H 0.23810 0.12437 0.18528
 H2250 H 0.25191 0.10350 0.19910
 C2251 C 0.71817 1.12647 0.71441
 C2252 C 0.72560 1.13434 0.69938
 C2253 C 0.71805 1.14952 0.69255
 C2254 C 0.70299 1.15695 0.70046
 C2255 C 0.69601 1.14878 0.71553
 N2256 N 0.70360 1.13392 0.72195
 C2257 C 0.72496 1.10967 0.72154
 N2258 N 0.71415 1.09986 0.73197
 C2259 C 0.71891 1.08380 0.73806
 C2260 C 0.73534 1.07652 0.73340
 C2261 C 0.74694 1.08663 0.72319
 C2262 C 0.74191 1.10322 0.71740
 H2263 H 0.72387 1.15523 0.68083
 H2264 H 0.68440 1.15401 0.72206
 H2265 H 0.70957 1.07650 0.74599
 H2266 H 0.75987 1.08165 0.71953
 H2267 H 0.73674 1.12869 0.69249
 H2268 H 0.75126 1.11072 0.70973
 C2269 C 0.71415 0.61656 0.20683
 C2270 C 0.72060 0.62455 0.19142
 C2271 C 0.71342 0.64041 0.18587
 C2272 C 0.69966 0.64835 0.19544
 C2273 C 0.69349 0.63992 0.21071
 N2274 N 0.70075 0.62445 0.21590
 C2275 C 0.72094 0.59945 0.21309
 N2276 N 0.71079 0.58981 0.22430
 C2277 C 0.71584 0.57376 0.23021
 C2278 C 0.73197 0.56642 0.22468
 C2279 C 0.74282 0.57629 0.21343
 C2280 C 0.73745 0.59279 0.20774
 H2281 H 0.71850 0.64629 0.17389
 H2282 H 0.68287 0.64551 0.21848
 H2283 H 0.70708 0.56664 0.23893
 H2284 H 0.75549 0.57127 0.20903
 H2285 H 0.73076 0.61856 0.18337
 H2286 H 0.74631 0.60017 0.19938
 C2287 C 0.53272 0.12738 0.71309
 C2288 C 0.52560 0.11933 0.69797
 C2289 C 0.53315 0.10392 0.69154
 C2290 C 0.54787 0.09647 0.69997
 C2291 C 0.55450 0.10481 0.71513
 N2292 N 0.54694 0.11985 0.72114
 C2293 C 0.52601 0.14437 0.71994
 N2294 N 0.53659 0.15392 0.73087
 C2295 C 0.53193 0.17005 0.73693
 C2296 C 0.51583 0.17766 0.73176
 C2297 C 0.50446 0.16784 0.72097
 C2298 C 0.50940 0.15119 0.71517
 H2299 H 0.52763 0.09806 0.67973
 H2300 H 0.56583 0.09956 0.72208
 H2301 H 0.54110 0.17711 0.74529
 H2302 H 0.49179 0.17308 0.71685
 H2303 H 0.51471 0.12501 0.69072
 H2304 H 0.50023 0.14393 0.70704
 C2305 C 1.04317 0.12725 0.21731
 C2306 C 1.05874 0.11930 0.22357
 C2307 C 1.06468 0.10376 0.21589
 C2308 C 1.05532 0.09608 0.20186
 C2309 C 1.03982 0.10440 0.19601
 N2310 N 1.03428 0.11955 0.20371
 C2311 C 1.03655 0.14420 0.22435
 N2312 N 1.02467 0.15345 0.21457
 C2313 C 1.01841 0.16937 0.21968
 C2314 C 1.02429 0.17706 0.23549
 C2315 C 1.03621 0.16759 0.24601
 C2316 C 1.04225 0.15116 0.24059
 H2317 H 1.07679 0.09793 0.22077
 H2318 H 1.03216 0.09900 0.18522
 H2319 H 1.00920 0.17616 0.21115
 H2320 H 1.04094 0.17289 0.25842
 H2321 H 1.06663 0.12510 0.23393
 H2322 H 1.05121 0.14415 0.24916
 C2323 C 0.21526 0.63251 0.54316
 C2324 C 0.22112 0.62490 0.55903
 C2325 C 0.21384 0.60909 0.56466
 C2326 C 0.20060 0.60082 0.55468
 C2327 C 0.19507 0.60887 0.53895
 N2328 N 0.20238 0.62426 0.53372
 C2329 C 0.22207 0.64955 0.53665
 N2330 N 0.21252 0.65837 0.52426
 C2331 C 0.21756 0.67423 0.51786
 C2332 C 0.23307 0.68226 0.52405
 C2333 C 0.24331 0.67326 0.53657
 C2334 C 0.23795 0.65693 0.54280
 H2335 H 0.21842 0.60348 0.57696
 H2336 H 0.18488 0.60302 0.53083
 H2337 H 0.20924 0.68065 0.50820
 H2338 H 0.25547 0.67884 0.54160
 H2339 H 0.23088 0.63114 0.56733
 H2340 H 0.24633 0.65026 0.55219
 C2341 C 0.20971 0.12751 1.03668
 C2342 C 0.19392 0.12020 1.03024
 C2343 C 0.18750 0.10474 1.03754
 C2344 C 0.19660 0.09648 1.05139
 C2345 C 0.21227 0.10425 1.05755
 N2346 N 0.21830 0.11937 1.05020
 C2347 C 0.21683 0.14420 1.02966
 N2348 N 0.22783 0.15400 1.03996
 C2349 C 0.23422 0.16980 1.03468
 C2350 C 0.22940 0.17673 1.01818
 C2351 C 0.21852 0.16660 1.00717
 C2352 C 0.21235 0.15036 1.01276
 H2353 H 0.17526 0.09939 1.03244
 H2354 H 0.21969 0.09842 1.06826
 H2355 H 0.24264 0.17713 1.04358
 H2356 H 0.21469 0.17127 0.99422
 H2357 H 0.18626 0.12647 1.02000
 H2358 H 0.20423 0.14279 1.00382
 C2359 C 0.21113 0.71665 0.62408
 C2360 C 0.19568 0.72341 0.63187
 C2361 C 0.18909 0.71583 0.64722
 C2362 C 0.19765 0.70140 0.65487
 C2363 C 0.21307 0.69503 0.64672
 N2364 N 0.21927 0.70266 0.63172
 C2365 C 0.21828 0.72362 0.60726
 N2366 N 0.22953 0.71343 0.59764
 C2367 C 0.23601 0.71848 0.58169
 C2368 C 0.23098 0.73462 0.57439
 C2369 C 0.21979 0.74555 0.58428
 C2370 C 0.21357 0.74020 0.60073
 H2371 H 0.17706 0.72113 0.65291
 H2372 H 0.22010 0.68391 0.65212
 H2373 H 0.24466 0.70965 0.57454
 H2374 H 0.21579 0.75822 0.57927
 H2375 H 0.18834 0.73408 0.62604
 H2376 H 0.20521 0.74908 0.60810
 C2377 C 0.21132 0.21311 1.12060
 C2378 C 0.19644 0.21996 1.12937
 C2379 C 0.19094 0.21260 1.14529
 C2380 C 0.20003 0.19824 1.15258
 C2381 C 0.21492 0.19186 1.14341
 N2382 N 0.22001 0.19929 1.12793
 C2383 C 0.21745 0.21978 1.10324
 N2384 N 0.22892 0.20978 1.09365
 C2385 C 0.23479 0.21456 1.07739
 C2386 C 0.22895 0.23025 1.06970
 C2387 C 0.21742 0.24095 1.07947
 C2388 C 0.21176 0.23587 1.09623
 H2389 H 0.17933 0.21804 1.15168
 H2390 H 0.22246 0.18086 1.14838
 H2391 H 0.24370 0.20589 1.07037
 H2392 H 0.21273 0.25327 1.07416
 H2393 H 0.18872 0.23058 1.12396
 H2394 H 0.20312 0.24459 1.10346
 C2395 C 0.70914 0.53408 0.12469
 C2396 C 0.69352 0.52778 0.11686
 C2397 C 0.68694 0.53578 0.10167
 C2398 C 0.69571 0.55018 0.09422
 C2399 C 0.71128 0.55608 0.10241
 N2400 N 0.71744 0.54805 0.11721
 C2401 C 0.71647 0.52666 0.14128
 N2402 N 0.72863 0.53619 0.15045
 C2403 C 0.73555 0.53073 0.16608
 C2404 C 0.73011 0.51481 0.17357
 C2405 C 0.71792 0.50456 0.16416
 C2406 C 0.71119 0.51034 0.14802
 H2407 H 0.67481 0.53084 0.09594
 H2408 H 0.71850 0.56714 0.09717
 H2409 H 0.74494 0.53908 0.17283
 H2410 H 0.71348 0.49210 0.16931
 H2411 H 0.68606 0.51711 0.12250
 H2412 H 0.70202 0.50197 0.14106
 C2413 C 0.71994 1.04242 0.62727
 C2414 C 0.72641 1.05800 0.61980
 C2415 C 0.71930 1.06410 0.60395
 C2416 C 0.70568 1.05484 0.59550
 C2417 C 0.69970 1.03926 0.60331
 N2418 N 0.70680 1.03361 0.61877
 C2419 C 0.72617 1.03574 0.64457
 N2420 N 0.71581 1.02413 0.65347
 C2421 C 0.72011 1.01793 0.66974
 C2422 C 0.73563 1.02359 0.67816
 C2423 C 0.74677 1.03516 0.66903
 C2424 C 0.74218 1.04116 0.65226
 H2425 H 0.72425 1.07625 0.59851
 H2426 H 0.68923 1.03167 0.59730
 H2427 H 0.71114 1.00897 0.67623
 H2428 H 0.75900 1.03971 0.67489
 H2429 H 0.73642 1.06580 0.62626
 H2430 H 0.75116 1.04988 0.64553
 C2431 C 0.53246 0.21170 0.62579
 C2432 C 0.52586 0.19634 0.61792
 C2433 C 0.53324 0.19029 0.60214
 C2434 C 0.54726 0.19935 0.59417
 C2435 C 0.55336 0.21471 0.60235
 N2436 N 0.54598 0.22033 0.61773
 C2437 C 0.52600 0.21831 0.64308
 N2438 N 0.53618 0.23002 0.65206
 C2439 C 0.53172 0.23619 0.66832
 C2440 C 0.51622 0.23038 0.67667
 C2441 C 0.50526 0.21868 0.66747
 C2442 C 0.51000 0.21272 0.65068
 H2443 H 0.52817 0.17831 0.59640
 H2444 H 0.56413 0.22216 0.59671
 H2445 H 0.54056 0.24526 0.67486
 H2446 H 0.49305 0.21401 0.67327
 H2447 H 0.51553 0.18867 0.62398
 H2448 H 0.50114 0.20389 0.64392
 C2449 C 1.03968 0.20681 0.13197
 C2450 C 1.03187 0.19194 0.12434
 C2451 C 1.03850 0.18525 0.10854
 C2452 C 1.05311 0.19311 0.10022
 C2453 C 1.06061 0.20794 0.10837
 N2454 N 1.05384 0.21425 0.12379
 C2455 C 1.03344 0.21418 0.14903
 N2456 N 1.04455 0.22457 0.15858
 C2457 C 1.04002 0.23125 0.17465
 C2458 C 1.02348 0.22735 0.18212
 C2459 C 1.01167 0.21706 0.17230
 C2460 C 1.01649 0.21061 0.15576
 H2461 H 1.03224 0.17372 0.10303
 H2462 H 1.07190 0.21451 0.10261
 H2463 H 1.04952 0.23918 0.18174
 H2464 H 0.99865 0.21396 0.17740
 H2465 H 1.02103 0.18513 0.13059
 H2466 H 1.00692 0.20302 0.14844
 C2467 C 0.62321 0.21481 0.71223
 C2468 C 0.63081 0.22198 0.69693
 C2469 C 0.64669 0.21525 0.69050
 C2470 C 0.65508 0.20124 0.69909
 C2471 C 0.64705 0.19438 0.71432
 N2472 N 0.63152 0.20118 0.72036
 C2473 C 0.60598 0.22110 0.71920
 N2474 N 0.59606 0.21024 0.72946
 C2475 C 0.57972 0.21479 0.73550
 C2476 C 0.57233 0.23106 0.73100
 C2477 C 0.58257 0.24266 0.72094
 C2478 C 0.59938 0.23783 0.71517
 H2479 H 0.65224 0.22088 0.67861
 H2480 H 0.65299 0.18353 0.72134
 H2481 H 0.57231 0.20548 0.74332
 H2482 H 0.57755 0.25548 0.71743
 H2483 H 0.62444 0.23234 0.68960
 H2484 H 0.60701 0.24719 0.70767
 C2485 C 1.12592 0.20768 0.21593
 C2486 C 1.13408 0.19246 0.22250
 C2487 C 1.14975 0.18645 0.21482
 C2488 C 1.15731 0.19540 0.20052
 C2489 C 1.14879 0.21057 0.19440
 N2490 N 1.13354 0.21617 0.20209
 C2491 C 1.10886 0.21442 0.22293
 N2492 N 1.09946 0.22596 0.21293
 C2493 C 1.08349 0.23243 0.21805
 C2494 C 1.07593 0.22720 0.23414
 C2495 C 1.08555 0.21560 0.24485
 C2496 C 1.10200 0.20929 0.23939
 H2497 H 1.15576 0.17460 0.21990
 H2498 H 1.15409 0.21792 0.18341
 H2499 H 1.07659 0.24136 0.20935
 H2500 H 1.08035 0.21135 0.25747
 H2501 H 1.12834 0.18491 0.23310
 H2502 H 1.10914 0.20061 0.24810
 C2503 C 0.13033 0.71093 0.53895
 C2504 C 0.12285 0.69553 0.53206
 C2505 C 0.10713 0.68911 0.53914
 C2506 C 0.09877 0.69778 0.55323
 C2507 C 0.10673 0.71304 0.55989
 N2508 N 0.12208 0.71910 0.55271
 C2509 C 0.14727 0.71813 0.53214
 N2510 N 0.15661 0.72950 0.54241
 C2511 C 0.17253 0.73616 0.53737
 C2512 C 0.18011 0.73125 0.52113
 C2513 C 0.17052 0.71990 0.51015
 C2514 C 0.15411 0.71346 0.51549
 H2515 H 0.10167 0.67718 0.53366
 H2516 H 0.10082 0.72013 0.57079
 H2517 H 0.17943 0.74491 0.54626
 H2518 H 0.17570 0.71594 0.49741
 H2519 H 0.12914 0.68814 0.52161
 H2520 H 0.14698 0.70502 0.50652
 C2521 C 0.12832 0.20709 1.03779
 C2522 C 0.12058 0.19179 1.03099
 C2523 C 0.10525 0.18520 1.03868
 C2524 C 0.09757 0.19361 1.05331
 C2525 C 0.10574 0.20881 1.05982
 N2526 N 0.12071 0.21503 1.05205
 C2527 C 0.14497 0.21433 1.03043
 N2528 N 0.15495 0.22519 1.04065
 C2529 C 0.17074 0.23172 1.03512
 C2530 C 0.17749 0.22716 1.01844
 C2531 C 0.16721 0.21639 1.00750
 C2532 C 0.15093 0.21010 1.01335
 H2533 H 0.09959 0.17333 1.03328
 H2534 H 0.10033 0.21569 1.07111
 H2535 H 0.17821 0.24005 1.04397
 H2536 H 0.17175 0.21277 0.99442
 H2537 H 0.12642 0.18459 1.02015
 H2538 H 0.14322 0.20209 1.00445
 C2539 C 0.62938 0.53531 0.21160
 C2540 C 0.62170 0.55010 0.21959
 C2541 C 0.60593 0.55686 0.21298
 C2542 C 0.59773 0.54914 0.19828
 C2543 C 0.60585 0.53443 0.19058
 N2544 N 0.62126 0.52802 0.19730
 C2545 C 0.64648 0.52797 0.21777
 N2546 N 0.65631 0.51799 0.20649
 C2547 C 0.67252 0.51156 0.21094
 C2548 C 0.67985 0.51534 0.22756
 C2549 C 0.66971 0.52513 0.23956
 C2550 C 0.65303 0.53129 0.23483
 H2551 H 0.60033 0.56835 0.21927
 H2552 H 0.60005 0.52808 0.17918
 H2553 H 0.67986 0.50400 0.20129
 H2554 H 0.67470 0.52809 0.25264
 H2555 H 0.62792 0.55680 0.23053
 H2556 H 0.64548 0.53853 0.24453
 C2557 C 0.62838 1.04156 0.71553
 C2558 C 0.61996 1.05644 0.72258
 C2559 C 0.60401 1.06217 0.71538
 C2560 C 0.59635 1.05331 0.70103
 C2561 C 0.60515 1.03851 0.69434
 N2562 N 0.62072 1.03315 0.70161
 C2563 C 0.64576 1.03524 0.72216
 N2564 N 0.65548 1.02427 0.71177
 C2565 C 0.67180 1.01841 0.71651
 C2566 C 0.67943 1.02376 0.73256
 C2567 C 0.66949 1.03472 0.74368
 C2568 C 0.65267 1.04036 0.73863
 H2569 H 0.59784 1.07375 0.72091
 H2570 H 0.59979 1.03127 0.68327
 H2571 H 0.67894 1.00992 0.70753
 H2572 H 0.67472 1.03899 0.75629
 H2573 H 0.62570 1.06398 0.73321
 H2574 H 0.64530 1.04855 0.74767
 C2575 C 0.87603 0.46306 0.28239
 C2576 C 0.88345 0.47075 0.29755
 C2577 C 0.89888 0.46379 0.30477
 C2578 C 0.90697 0.44909 0.29709
 C2579 C 0.89920 0.44181 0.28190
 N2580 N 0.88410 0.44881 0.27512
 C2581 C 0.85908 0.46932 0.27481
 N2582 N 0.84925 0.45814 0.26479
 C2583 C 0.83301 0.46254 0.25840
 C2584 C 0.82563 0.47897 0.26234
 C2585 C 0.83582 0.49092 0.27205
 C2586 C 0.85255 0.48624 0.27814
 H2587 H 0.90426 0.46979 0.31657
 H2588 H 0.90495 0.43044 0.27556
 H2589 H 0.82563 0.45295 0.25088
 H2590 H 0.83078 0.50385 0.27512
 H2591 H 0.87724 0.48166 0.30423
 H2592 H 0.86012 0.49583 0.28543
 C2593 C 0.87360 0.96298 0.78774
 C2594 C 0.88131 0.94780 0.78057
 C2595 C 0.89725 0.94159 0.78735
 C2596 C 0.90556 0.95027 0.80143
 C2597 C 0.89739 0.96534 0.80834
 N2598 N 0.88184 0.97119 0.80145
 C2599 C 0.85643 0.96989 0.78129
 N2600 N 0.84677 0.98064 0.79198
 C2601 C 0.83064 0.98701 0.78721
 C2602 C 0.82323 0.98243 0.77083
 C2603 C 0.83314 0.97172 0.75945
 C2604 C 0.84973 0.96557 0.76453
 H2605 H 0.90289 0.92980 0.78170
 H2606 H 0.90328 0.97242 0.81924
 H2607 H 0.82349 0.99529 0.79638
 H2608 H 0.82810 0.96807 0.74657
 H2609 H 0.87502 0.94040 0.77014
 H2610 H 0.85714 0.95766 0.75526
 C2611 C 0.37816 0.29195 0.78650
 C2612 C 0.37064 0.30751 0.78004
 C2613 C 0.35446 0.31332 0.78670
 C2614 C 0.34571 0.30383 0.79993
 C2615 C 0.35373 0.28843 0.80617
 N2616 N 0.36951 0.28299 0.79943
 C2617 C 0.39548 0.28528 0.78009
 N2618 N 0.40474 0.27383 0.79034
 C2619 C 0.42088 0.26745 0.78553
 C2620 C 0.42869 0.27269 0.76955
 C2621 C 0.41920 0.28419 0.75864
 C2622 C 0.40263 0.29039 0.76376
 H2623 H 0.34894 0.32538 0.78160
 H2624 H 0.34752 0.28072 0.81642
 H2625 H 0.42768 0.25856 0.79434
 H2626 H 0.42456 0.28840 0.74608
 H2627 H 0.37724 0.31545 0.77026
 H2628 H 0.39555 0.29893 0.75485
 C2629 C 0.87978 0.28298 0.28857
 C2630 C 0.87147 0.27641 0.30379
 C2631 C 0.85524 0.28331 0.30914
 C2632 C 0.84721 0.29687 0.29955
 C2633 C 0.85592 0.30310 0.28443
 N2634 N 0.87176 0.29615 0.27945
 C2635 C 0.89738 0.27662 0.28260
 N2636 N 0.90703 0.28677 0.27139
 C2637 C 0.92354 0.28222 0.26586
 C2638 C 0.93143 0.26665 0.27182
 C2639 C 0.92155 0.25577 0.28300
 C2640 C 0.90455 0.26059 0.28828
 H2641 H 0.84915 0.27817 0.32100
 H2642 H 0.85028 0.31357 0.27663
 H2643 H 0.93063 0.29099 0.25716
 H2644 H 0.92697 0.24350 0.28771
 H2645 H 0.87750 0.26641 0.31188
 H2646 H 0.89724 0.25173 0.29665
 C2647 C 0.37491 0.79128 0.46824
 C2648 C 0.38293 0.80655 0.47483
 C2649 C 0.39856 0.81262 0.46718
 C2650 C 0.40622 0.80367 0.45288
 C2651 C 0.39789 0.78839 0.44679
 N2652 N 0.38267 0.78274 0.45444
 C2653 C 0.35775 0.78465 0.47500
 N2654 N 0.34857 0.77299 0.46493
 C2655 C 0.33240 0.76682 0.46965
 C2656 C 0.32434 0.77258 0.48534
 C2657 C 0.33375 0.78421 0.49620
 C2658 C 0.35045 0.79017 0.49117
 H2659 H 0.40442 0.82454 0.47226
 H2660 H 0.40330 0.78102 0.43581
 H2661 H 0.32568 0.75782 0.46088
 H2662 H 0.32816 0.78884 0.50853
 H2663 H 0.37711 0.81414 0.48539
 H2664 H 0.35739 0.79895 0.49996
 C2665 C 0.37265 0.28187 0.96074
 C2666 C 0.38091 0.27546 0.94538
 C2667 C 0.39680 0.28282 0.93972
 C2668 C 0.40453 0.29666 0.94917
 C2669 C 0.39595 0.30261 0.96452
 N2670 N 0.38045 0.29524 0.96976
 C2671 C 0.35526 0.27530 0.96695
 N2672 N 0.34576 0.28532 0.97845
 C2673 C 0.32940 0.28068 0.98425
 C2674 C 0.32150 0.26513 0.97828
 C2675 C 0.33123 0.25436 0.96678
 C2676 C 0.34809 0.25929 0.96120
 H2677 H 0.40284 0.27786 0.92773
 H2678 H 0.40138 0.31326 0.97224
 H2679 H 0.32244 0.28939 0.99318
 H2680 H 0.32578 0.24213 0.96200
 H2681 H 0.37505 0.26526 0.93741
 H2682 H 0.35528 0.25056 0.95254
 C2683 C 0.79051 0.46275 0.36838
 C2684 C 0.80586 0.46981 0.37605
 C2685 C 0.81206 0.46318 0.39203
 C2686 C 0.80320 0.44939 0.40046
 C2687 C 0.78792 0.44265 0.39237
 N2688 N 0.78211 0.44935 0.37676
 C2689 C 0.78370 0.46886 0.35105
 N2690 N 0.77276 0.45821 0.34161
 C2691 C 0.76663 0.46254 0.32529
 C2692 C 0.77171 0.47838 0.31738
 C2693 C 0.78255 0.48978 0.32708
 C2694 C 0.78842 0.48517 0.34389
 H2695 H 0.82400 0.46873 0.39761
 H2696 H 0.78067 0.43198 0.39834
 H2697 H 0.75822 0.45337 0.31833
 H2698 H 0.78657 0.50226 0.32165
 H2699 H 0.81342 0.48000 0.36968
 H2700 H 0.79652 0.49441 0.35108
 C2701 C 0.78822 0.96526 0.87320
 C2702 C 0.80360 0.97172 0.88137
 C2703 C 0.80932 0.96446 0.89725
 C2704 C 0.79994 0.95065 0.90505
 C2705 C 0.78467 0.94452 0.89646
 N2706 N 0.77933 0.95182 0.88097
 C2707 C 0.78181 0.97210 0.85601
 N2708 N 0.77083 0.96199 0.84602
 C2709 C 0.76490 0.96709 0.82984
 C2710 C 0.77020 0.98322 0.82273
 C2711 C 0.78113 0.99403 0.83302
 C2712 C 0.78682 0.98862 0.84964
 H2713 H 0.82127 0.96951 0.90327
 H2714 H 0.77703 0.93385 0.90193
 H2715 H 0.75644 0.95835 0.82241
 H2716 H 0.78533 1.00671 0.82821
 H2717 H 0.81149 0.98193 0.87546
 H2718 H 0.79496 0.99743 0.85730
 C2719 C 0.28645 0.78889 0.37914
 C2720 C 0.27885 0.80367 0.37113
 C2721 C 0.28603 0.81018 0.35553
 C2722 C 0.30089 0.80218 0.34782
 C2723 C 0.30809 0.78740 0.35619
 N2724 N 0.30086 0.78129 0.37145
 C2725 C 0.27990 0.78203 0.39625
 N2726 N 0.29098 0.77220 0.40640
 C2727 C 0.28632 0.76632 0.42270
 C2728 C 0.26969 0.77055 0.42984
 C2729 C 0.25785 0.78015 0.41937
 C2730 C 0.26281 0.78576 0.40258
 H2731 H 0.28007 0.82169 0.34969
 H2732 H 0.31958 0.78083 0.35076
 H2733 H 0.29585 0.75887 0.43028
 H2734 H 0.24478 0.78347 0.42421
 H2735 H 0.26783 0.81059 0.37699
 H2736 H 0.25328 0.79293 0.39478
 C2737 C 0.28251 0.28447 0.87407
 C2738 C 0.27428 0.29893 0.86608
 C2739 C 0.28162 0.30624 0.85094
 C2740 C 0.29727 0.29940 0.84368
 C2741 C 0.30503 0.28484 0.85193
 N2742 N 0.29763 0.27793 0.86676
 C2743 C 0.27594 0.27698 0.89091
 N2744 N 0.28727 0.26746 0.90109
 C2745 C 0.28265 0.26127 0.91729
 C2746 C 0.26584 0.26492 0.92430
 C2747 C 0.25374 0.27412 0.91378
 C2748 C 0.25864 0.27999 0.89706
 H2749 H 0.27518 0.31753 0.84516
 H2750 H 0.31712 0.27913 0.84682
 H2751 H 0.29237 0.25413 0.92493
 H2752 H 0.24052 0.27695 0.91854
 H2753 H 0.26265 0.30505 0.87164
 H2754 H 0.24891 0.28686 0.88924
 C2755 C 0.46628 0.29007 0.87244
 C2756 C 0.47296 0.30512 0.88081
 C2757 C 0.46584 0.31051 0.89694
 C2758 C 0.45197 0.30110 0.90477
 C2759 C 0.44575 0.28608 0.89606
 N2760 N 0.45290 0.28109 0.88036
 C2761 C 0.47262 0.28398 0.85490
 N2762 N 0.46259 0.27218 0.84587
 C2763 C 0.46708 0.26618 0.82956
 C2764 C 0.48251 0.27219 0.82123
 C2765 C 0.49323 0.28415 0.83038
 C2766 C 0.48843 0.28998 0.84720
 H2767 H 0.47099 0.32226 0.90309
 H2768 H 0.43508 0.27839 0.90157
 H2769 H 0.45840 0.25694 0.82305
 H2770 H 0.50535 0.28902 0.82456
 H2771 H 0.48322 0.31303 0.87492
 H2772 H 0.49716 0.29895 0.85396
 C2773 C 0.96827 0.28585 0.37637
 C2774 C 0.95380 0.27773 0.38462
 C2775 C 0.94661 0.28504 0.39987
 C2776 C 0.95359 0.30054 0.40698
 C2777 C 0.96815 0.30821 0.39846
 N2778 N 0.97494 0.30084 0.38352
 C2779 C 0.97562 0.27921 0.35947
 N2780 N 0.98471 0.29040 0.34883
 C2781 C 0.99073 0.28561 0.33258
 C2782 C 0.98733 0.26874 0.32603
 C2783 C 0.97857 0.25682 0.33701
 C2784 C 0.97289 0.26190 0.35376
 H2785 H 0.93531 0.27868 0.40586
 H2786 H 0.97395 0.32018 0.40344
 H2787 H 0.99754 0.29519 0.32456
 H2788 H 0.97599 0.24356 0.33261
 H2789 H 0.94757 0.26621 0.37917
 H2790 H 0.96638 0.25231 0.36197
 C2791 C 0.46235 0.37258 0.78395
 C2792 C 0.44748 0.38061 0.77631
 C2793 C 0.44093 0.39613 0.78343
 C2794 C 0.44895 0.40373 0.79830
 C2795 C 0.46378 0.39533 0.80559
 N2796 N 0.46996 0.38016 0.79838
 C2797 C 0.46934 0.35563 0.77735
 N2798 N 0.47948 0.34563 0.78828
 C2799 C 0.48557 0.32953 0.78352
 C2800 C 0.48124 0.32246 0.76693
 C2801 C 0.47128 0.33274 0.75526
 C2802 C 0.46548 0.34933 0.76031
 H2803 H 0.42936 0.40198 0.77741
 H2804 H 0.47035 0.40068 0.81709
 H2805 H 0.49329 0.32206 0.79291
 H2806 H 0.46789 0.32794 0.74222
 H2807 H 0.44052 0.37486 0.76528
 H2808 H 0.45809 0.35700 0.75087
 C2809 C 0.96656 0.37184 0.28459
 C2810 C 0.95176 0.37969 0.27661
 C2811 C 0.94499 0.39526 0.28344
 C2812 C 0.95272 0.40311 0.29833
 C2813 C 0.96752 0.39491 0.30592
 N2814 N 0.97390 0.37969 0.29901
 C2815 C 0.97376 0.35478 0.27845
 N2816 N 0.98405 0.34525 0.28966
 C2817 C 0.99031 0.32907 0.28542
 C2818 C 0.98601 0.32139 0.26911
 C2819 C 0.97590 0.33118 0.25713
 C2820 C 0.96992 0.34787 0.26164
 H2821 H 0.93346 0.40096 0.27719
 H2822 H 0.97391 0.40045 0.31744
 H2823 H 0.99813 0.32202 0.29505
 H2824 H 0.97250 0.32589 0.24429
 H2825 H 0.94501 0.37375 0.26554
 H2826 H 0.96238 0.35512 0.25198
 C2827 C 0.29087 0.87359 0.46443
 C2828 C 0.30641 0.88103 0.47134
 C2829 C 0.31365 0.89583 0.46340
 C2830 C 0.30564 0.90329 0.44847
 C2831 C 0.29014 0.89548 0.44194
 N2832 N 0.28332 0.88102 0.44991
 C2833 C 0.28308 0.85734 0.47183
 N2834 N 0.27220 0.84749 0.46148
 C2835 C 0.26542 0.83191 0.46691
 C2836 C 0.26979 0.82518 0.48361
 C2837 C 0.28043 0.83542 0.49475
 C2838 C 0.28695 0.85150 0.48901
 H2839 H 0.32570 0.90125 0.46885
 H2840 H 0.28351 0.90073 0.43043
 H2841 H 0.25720 0.82450 0.45789
 H2842 H 0.28393 0.83089 0.50784
 H2843 H 0.31331 0.87533 0.48242
 H2844 H 0.29497 0.85911 0.49800
 C2845 C 0.28135 0.37076 0.96068
 C2846 C 0.27462 0.37889 0.94543
 C2847 C 0.28156 0.39491 0.93995
 C2848 C 0.29529 0.40288 0.94948
 C2849 C 0.30159 0.39439 0.96468
 N2850 N 0.29462 0.37879 0.96975
 C2851 C 0.27519 0.35334 0.96680
 N2852 N 0.28547 0.34426 0.97839
 C2853 C 0.28116 0.32798 0.98421
 C2854 C 0.26570 0.31975 0.97817
 C2855 C 0.25468 0.32903 0.96655
 C2856 C 0.25927 0.34580 0.96095
 H2857 H 0.27637 0.40087 0.92806
 H2858 H 0.31217 0.40000 0.97247
 H2859 H 0.29005 0.32136 0.99321
 H2860 H 0.24250 0.32331 0.96171
 H2861 H 0.26448 0.37288 0.93741
 H2862 H 0.25033 0.35263 0.95221
 C2863 C 0.78647 0.37282 0.28044
 C2864 C 0.77772 0.36463 0.29454
 C2865 C 0.78452 0.34924 0.30158
 C2866 C 0.80017 0.34190 0.29485
 C2867 C 0.80851 0.35037 0.28066
 N2868 N 0.80161 0.36546 0.27399
 C2869 C 0.78033 0.38984 0.27326
 N2870 N 0.79204 0.40018 0.26442
 C2871 C 0.78770 0.41646 0.25858
 C2872 C 0.77080 0.42338 0.26191
 C2873 C 0.75836 0.41275 0.27043
 C2874 C 0.76297 0.39596 0.27591
 H2875 H 0.77764 0.34331 0.31259
 H2876 H 0.82063 0.34522 0.27507
 H2877 H 0.79766 0.42422 0.25195
 H2878 H 0.74506 0.41745 0.27293
 H2879 H 0.76606 0.37021 0.30062
 H2880 H 0.75295 0.38804 0.28218
   
