data_POSCAR
  _audit_creation_date              2014-09-24
  _audit_creation_method            'ToBaCCo'
  _symmetry_space_group_name_H-M    'P1'
  _symmetry_Int_Tables_number       1
  _symmetry_cell_setting            triclinic
  loop_
  _symmetry_equiv_pos_as_xyz
 x,y,z
_cell_length_a 67.7971
_cell_length_b 70.0169
_cell_length_c 71.0438
_cell_angle_alpha 89.821000
_cell_angle_beta 88.436200
_cell_angle_gamma 88.808200
loop_
  _atom_site_label
  _atom_site_type_symbol
  _atom_site_fract_x
  _atom_site_fract_y
  _atom_site_fract_z
C1 C 0.73254 0.65702 0.97783
 H2 H 0.74687 0.65770 0.97081
 C3 C 0.71650 0.66733 0.97069
 H4 H 0.71863 0.67589 0.95811
 C5 C 0.71213 0.64397 1.00202
 H6 H 0.71033 0.63450 1.01393
 C7 C 0.69574 0.65404 0.99539
 H8 H 0.68159 0.65249 1.00260
 N9 N 0.73005 0.64549 0.99311
 C10 C 0.78817 0.63315 1.01543
 H11 H 0.78758 0.61772 1.01525
 C12 C 0.80453 0.64201 1.02263
 H13 H 0.81662 0.63324 1.02769
 C14 C 0.77305 0.66316 1.00882
 H15 H 0.76058 0.67128 1.00365
 C16 C 0.78918 0.67267 1.01599
 H17 H 0.78895 0.68813 1.01635
 Zn18 Zn 0.75141 0.62952 1.00034
 N19 N 0.77291 0.64373 1.00865
 C20 C 0.77794 0.61631 0.97166
 N21 N 0.75937 0.61466 0.97910
 C22 C 0.74607 0.60314 0.97107
 C23 C 0.75151 0.59217 0.95528
 C24 C 0.78396 0.60572 0.95587
 C25 C 0.73975 0.62272 1.03747
 C26 C 0.73421 0.61233 1.05346
 C27 C 0.73683 0.58350 1.03495
 C28 C 0.74254 0.59451 1.01937
 N29 N 0.74358 0.61378 1.02082
 H30 H 0.78810 0.62605 0.97776
 H31 H 0.73124 0.60241 0.97701
 H32 H 0.74084 0.58277 0.94933
 H33 H 0.79873 0.60751 0.95006
 H34 H 0.74082 0.63810 1.03825
 H35 H 0.73036 0.62051 1.06594
 H36 H 0.73701 0.56820 1.03305
 H37 H 0.74635 0.58755 1.00620
 C38 C 0.80514 0.66204 1.02316
 C39 C 0.69771 0.66564 0.97931
 C40 C 0.73240 0.59221 1.05261
 C41 C 0.77075 0.59330 0.94754
 C42 C 0.73351 0.36304 0.51866
 H43 H 0.74744 0.36421 0.52560
 C44 C 0.71838 0.35235 0.52697
 H45 H 0.72081 0.34537 0.54035
 C46 C 0.71308 0.37172 0.49338
 H47 H 0.71080 0.37959 0.48052
 C48 C 0.69764 0.36114 0.50111
 H49 H 0.68388 0.36066 0.49376
 N50 N 0.73062 0.37247 0.50216
 C51 C 0.78712 0.38363 0.47392
 H52 H 0.78454 0.39852 0.47048
 C53 C 0.80449 0.37440 0.46770
 H54 H 0.81506 0.38227 0.45921
 C55 C 0.77606 0.35530 0.48876
 H56 H 0.76492 0.34793 0.49695
 C57 C 0.79335 0.34552 0.48292
 H58 H 0.79541 0.33070 0.48694
 Zn59 Zn 0.75080 0.38845 0.49245
 N60 N 0.77343 0.37410 0.48441
 C61 C 0.77672 0.40705 0.51661
 N62 N 0.75755 0.40538 0.51184
 C63 C 0.74280 0.41498 0.52140
 C64 C 0.74711 0.42680 0.53650
 C65 C 0.78170 0.41887 0.53144
 C66 C 0.73789 0.39207 0.45564
 C67 C 0.73085 0.40126 0.43966
 C68 C 0.73283 0.43144 0.45584
 C69 C 0.73965 0.42163 0.47163
 N70 N 0.74174 0.40226 0.47133
 H71 H 0.78821 0.39905 0.50912
 H72 H 0.72765 0.41323 0.51743
 H73 H 0.73522 0.43429 0.54405
 H74 H 0.79702 0.41981 0.53521
 H75 H 0.74007 0.37672 0.45568
 H76 H 0.72767 0.39290 0.42735
 H77 H 0.73088 0.44682 0.45638
 H78 H 0.74316 0.42949 0.48412
 C79 C 0.80793 0.35512 0.47234
 C80 C 0.70006 0.35145 0.51826
 C81 C 0.72810 0.42118 0.43969
 C82 C 0.76679 0.42883 0.54166
 C83 C 0.22784 -0.14351 0.02445
 H84 H 0.24160 -0.14293 0.03177
 C85 C 0.21199 -0.15354 0.03234
 H86 H 0.21371 -0.16053 0.04582
 C87 C 0.20859 -0.13402 -0.00140
 H88 H 0.20701 -0.12603 -0.01429
 C89 C 0.19252 -0.14406 0.00581
 H90 H 0.17907 -0.14407 -0.00205
 N91 N 0.22585 -0.13392 0.00791
 C92 C 0.28447 -0.12431 -0.01680
 H93 H 0.28343 -0.10895 -0.01844
 C94 C 0.30141 -0.13421 -0.02310
 H95 H 0.31335 -0.12638 -0.02971
 C96 C 0.26978 -0.15314 -0.00669
 H97 H 0.25732 -0.16042 -0.00041
 C98 C 0.28643 -0.16368 -0.01299
 H99 H 0.28679 -0.17905 -0.01130
 Zn100 Zn 0.24694 -0.11864 -0.00108
 N101 N 0.26920 -0.13379 -0.00857
 C102 C 0.27220 -0.10225 0.02525
 N103 N 0.25353 -0.10202 0.01869
 C104 C 0.23897 -0.09107 0.02702
 C105 C 0.24295 -0.07981 0.04266
 C106 C 0.27686 -0.09108 0.04065
 C107 C 0.23552 -0.11558 -0.03803
 C108 C 0.22867 -0.10706 -0.05439
 C109 C 0.23084 -0.07628 -0.03946
 C110 C 0.23734 -0.08554 -0.02320
 N111 N 0.23910 -0.10488 -0.02267
 H112 H 0.28346 -0.11143 0.01887
 H113 H 0.22417 -0.09138 0.02173
 H114 H 0.23119 -0.07128 0.04923
 H115 H 0.29172 -0.09176 0.04587
 H116 H 0.23771 -0.13092 -0.03742
 H117 H 0.22660 -0.11637 -0.06625
 H118 H 0.22872 -0.06096 -0.03871
 H119 H 0.24063 -0.07726 -0.01090
 C120 C 0.30257 -0.15416 -0.02122
 C121 C 0.19392 -0.15377 0.02307
 C122 C 0.22571 -0.08700 -0.05546
 C123 C 0.26212 -0.07979 0.04966
 C124 C 0.23743 0.14165 0.47660
 H125 H 0.24775 0.13522 0.46653
 C126 C 0.22042 0.15081 0.47019
 H127 H 0.21785 0.15129 0.45522
 C128 C 0.22835 0.14914 0.50819
 H129 H 0.23135 0.14835 0.52299
 C130 C 0.21114 0.15851 0.50237
 H131 H 0.20100 0.16465 0.51283
 N132 N 0.24086 0.14051 0.49536
 C133 C 0.29902 0.13194 0.51897
 H134 H 0.29904 0.11657 0.52058
 C135 C 0.31498 0.14231 0.52499
 H136 H 0.32718 0.13480 0.53144
 C137 C 0.28273 0.16032 0.50893
 H138 H 0.27011 0.16719 0.50259
 C139 C 0.29842 0.17131 0.51484
 H140 H 0.29783 0.18665 0.51288
 Zn141 Zn 0.26283 0.12538 0.50316
 N142 N 0.28342 0.14100 0.51098
 C143 C 0.29040 0.11253 0.47502
 N144 N 0.27190 0.11009 0.48242
 C145 C 0.25926 0.09786 0.47442
 C146 C 0.26510 0.08739 0.45843
 C147 C 0.29680 0.10244 0.45901
 C148 C 0.25218 0.11880 0.54085
 C149 C 0.24629 0.10850 0.55681
 C150 C 0.24792 0.07968 0.53821
 C151 C 0.25380 0.09056 0.52259
 N152 N 0.25535 0.10984 0.52405
 H153 H 0.30007 0.12268 0.48119
 H154 H 0.24445 0.09650 0.48027
 H155 H 0.25484 0.07765 0.45238
 H156 H 0.31138 0.10506 0.45309
 H157 H 0.25430 0.13401 0.54191
 H158 H 0.24330 0.11605 0.56988
 H159 H 0.24668 0.06437 0.53675
 H160 H 0.25707 0.08350 0.50938
 C161 C 0.31489 0.16226 0.52286
 C162 C 0.20679 0.15902 0.48317
 C163 C 0.24388 0.08868 0.55557
 C164 C 0.28409 0.08969 0.45043
 C165 C 0.15980 0.47162 0.23964
 H166 H 0.16118 0.46350 0.25254
 C167 C 0.16970 0.46541 0.22319
 H168 H 0.17863 0.45242 0.22354
 C169 C 0.14543 0.49773 0.22331
 H170 H 0.13558 0.51004 0.22323
 C171 C 0.15508 0.49208 0.20659
 H172 H 0.15287 0.50045 0.19395
 N173 N 0.14785 0.48745 0.23939
 C174 C 0.13892 0.50528 0.29778
 H175 H 0.12295 0.50536 0.29841
 C176 C 0.14932 0.51080 0.31344
 H177 H 0.14122 0.51528 0.32607
 C178 C 0.16873 0.50001 0.28018
 H179 H 0.17617 0.49600 0.26709
 C180 C 0.17976 0.50562 0.29551
 H181 H 0.19570 0.50566 0.29419
 Zn182 Zn 0.13261 0.49365 0.26134
 N183 N 0.14868 0.49989 0.28164
 C184 C 0.12097 0.46236 0.28384
 N185 N 0.11740 0.47203 0.26761
 C186 C 0.10415 0.46564 0.25516
 C187 C 0.09353 0.44911 0.25906
 C188 C 0.11090 0.44569 0.28816
 C189 C 0.12637 0.53202 0.25378
 C190 C 0.11609 0.54890 0.24972
 C191 C 0.08559 0.53174 0.25256
 C192 C 0.09650 0.51514 0.25666
 N193 N 0.11655 0.51552 0.25679
 H194 H 0.13197 0.46728 0.29329
 H195 H 0.10200 0.47328 0.24209
 H196 H 0.08311 0.44411 0.24899
 H197 H 0.11395 0.43816 0.30114
 H198 H 0.14231 0.53194 0.25417
 H199 H 0.12427 0.56173 0.24676
 H200 H 0.06965 0.53120 0.25231
 H201 H 0.08892 0.50201 0.25960
 C202 C 0.17000 0.51107 0.31242
 C203 C 0.16715 0.47554 0.20629
 C204 C 0.09543 0.54887 0.24886
 C205 C 0.09702 0.43886 0.27568
 C206 C -0.14671 0.01721 0.22739
 H207 H -0.15021 0.02422 0.24065
 C208 C -0.15589 0.02339 0.21099
 H209 H -0.16619 0.03536 0.21210
 C210 C -0.12775 -0.00581 0.21015
 H211 H -0.11654 -0.01700 0.20975
 C212 C -0.13630 0.00004 0.19341
 H213 H -0.13196 -0.00757 0.18069
 N214 N -0.13298 0.00280 0.22670
 C215 C -0.12710 -0.01826 0.28426
 H216 H -0.11115 -0.01871 0.28456
 C217 C -0.13815 -0.02430 0.29990
 H218 H -0.13057 -0.02955 0.31216
 C219 C -0.15621 -0.01138 0.26758
 H220 H -0.16316 -0.00653 0.25488
 C221 C -0.16789 -0.01741 0.28294
 H222 H -0.18381 -0.01686 0.28202
 Zn223 Zn -0.11911 -0.00394 0.24863
 N224 N -0.13620 -0.01167 0.26864
 C225 C -0.10745 0.02509 0.27342
 N226 N -0.10476 0.01762 0.25587
 C227 C -0.09241 0.02584 0.24293
 C228 C -0.08191 0.04206 0.24758
 C229 C -0.09710 0.04110 0.27872
 C230 C -0.11090 -0.04164 0.23932
 C231 C -0.09965 -0.05805 0.23523
 C232 C -0.07013 -0.04010 0.23993
 C233 C -0.08200 -0.02396 0.24395
 N234 N -0.10199 -0.02500 0.24336
 H235 H -0.11777 0.01879 0.28334
 H236 H -0.09078 0.01979 0.22896
 H237 H -0.07202 0.04838 0.23720
 H238 H -0.09948 0.04689 0.29274
 H239 H -0.12684 -0.04205 0.23909
 H240 H -0.10709 -0.07100 0.23158
 H241 H -0.05424 -0.03908 0.24049
 H242 H -0.07523 -0.01067 0.24755
 C243 C -0.15883 -0.02381 0.29944
 C244 C -0.15052 0.01505 0.19344
 C245 C -0.07897 -0.05743 0.23546
 C246 C -0.08410 0.04976 0.26575
 C247 C 0.34566 0.51349 0.73437
 H248 H 0.34391 0.51989 0.74817
 C249 C 0.33541 0.52116 0.71920
 H250 H 0.32575 0.53351 0.72141
 C251 C 0.36110 0.49014 0.71454
 H252 H 0.37140 0.47829 0.71265
 C253 C 0.35128 0.49743 0.69899
 H254 H 0.35385 0.49083 0.68536
 N255 N 0.35816 0.49821 0.73181
 C256 C 0.36597 0.47236 0.78717
 H257 H 0.38191 0.47114 0.78689
 C258 C 0.35516 0.46600 0.80285
 H259 H 0.36288 0.45971 0.81457
 C260 C 0.33661 0.48179 0.77201
 H261 H 0.32945 0.48787 0.75992
 C262 C 0.32517 0.47547 0.78739
 H263 H 0.30926 0.47698 0.78711
 Zn264 Zn 0.37310 0.48928 0.75232
 N265 N 0.35664 0.48045 0.77234
 C266 C 0.38640 0.51589 0.77884
 N267 N 0.38831 0.50991 0.76067
 C268 C 0.40025 0.51910 0.74804
 C269 C 0.41115 0.53475 0.75364
 C270 C 0.39712 0.53132 0.78505
 C271 C 0.38006 0.45196 0.74036
 C272 C 0.39083 0.43586 0.73424
 C273 C 0.42079 0.45361 0.73708
 C274 C 0.40942 0.46938 0.74328
 N275 N 0.38941 0.46835 0.74452
 H276 H 0.37637 0.50892 0.78855
 H277 H 0.40123 0.51430 0.73358
 H278 H 0.42071 0.54183 0.74347
 H279 H 0.39524 0.53594 0.79954
 H280 H 0.36414 0.45152 0.74160
 H281 H 0.38305 0.42309 0.73059
 H282 H 0.43669 0.45466 0.73607
 H283 H 0.41660 0.48241 0.74698
 C284 C 0.33449 0.46769 0.80318
 C285 C 0.33833 0.51321 0.70119
 C286 C 0.41146 0.43660 0.73239
 C287 C 0.40972 0.54095 0.77242
 C288 C 0.66467 0.96884 0.73430
 H289 H 0.66581 0.96040 0.74702
 C290 C 0.67507 0.96318 0.71793
 H291 H 0.68412 0.95026 0.71816
 C292 C 0.65045 0.99527 0.71831
 H293 H 0.64051 1.00751 0.71835
 C294 C 0.66062 0.99017 0.70168
 H295 H 0.65868 0.99887 0.68922
 N296 N 0.65253 0.98455 0.73416
 C297 C 0.64234 1.00069 0.79285
 H298 H 0.62639 1.00022 0.79337
 C299 C 0.65243 1.00598 0.80878
 H300 H 0.64371 1.01000 0.82116
 C301 C 0.67232 0.99718 0.77525
 H302 H 0.67995 0.99379 0.76209
 C303 C 0.68305 1.00270 0.79079
 H304 H 0.69896 1.00280 0.78928
 Zn305 Zn 0.63672 0.98999 0.75594
 N306 N 0.65234 0.99623 0.77660
 C307 C 0.62636 0.95774 0.77753
 N308 N 0.62212 0.96777 0.76165
 C309 C 0.60900 0.96117 0.74917
 C310 C 0.59923 0.94405 0.75268
 C311 C 0.61720 0.94048 0.78142
 C312 C 0.63001 1.02845 0.74973
 C313 C 0.61976 1.04535 0.74571
 C314 C 0.58954 1.02766 0.74563
 C315 C 0.60039 1.01105 0.74989
 N316 N 0.62033 1.01169 0.75143
 H317 H 0.63731 0.96278 0.78697
 H318 H 0.60638 0.96903 0.73632
 H319 H 0.58894 0.93887 0.74259
 H320 H 0.62087 0.93265 0.79406
 H321 H 0.64585 1.02857 0.75115
 H322 H 0.62785 1.05843 0.74389
 H323 H 0.57372 1.02693 0.74413
 H324 H 0.59288 0.99770 0.75171
 C325 C 0.67320 1.00721 0.80806
 C326 C 0.67288 0.97375 0.70123
 C327 C 0.59929 1.04506 0.74337
 C328 C 0.60351 0.93342 0.76890
 C329 C 0.01382 0.24409 -0.16347
 H330 H 0.01923 0.25842 -0.16529
 C331 C 0.02290 0.22893 -0.17336
 H332 H 0.03504 0.23183 -0.18309
 C333 C -0.00837 0.22295 -0.14828
 H334 H -0.02017 0.22056 -0.13808
 C335 C 0.00035 0.20739 -0.15776
 H336 H -0.00492 0.19321 -0.15466
 N337 N -0.00151 0.24086 -0.15122
 C338 C -0.03005 0.29666 -0.14201
 H339 H -0.03048 0.29669 -0.12678
 C340 C -0.03759 0.31231 -0.15186
 H341 H -0.04394 0.32434 -0.14412
 C342 C -0.02151 0.28072 -0.17056
 H343 H -0.01536 0.26831 -0.17777
 C344 C -0.02913 0.29602 -0.18100
 H345 H -0.02854 0.29538 -0.19624
 Zn346 Zn -0.01164 0.26140 -0.13636
 N347 N -0.02183 0.28146 -0.15142
 C348 C 0.01573 0.28848 -0.12448
 N349 N 0.00951 0.27028 -0.12209
 C350 C 0.01935 0.25771 -0.11090
 C351 C 0.03624 0.26329 -0.10166
 C352 C 0.03244 0.29466 -0.11549
 C353 C -0.04916 0.24807 -0.13010
 C354 C -0.06566 0.24134 -0.12029
 C355 C -0.04829 0.24486 -0.09134
 C356 C -0.03211 0.25167 -0.10182
 N357 N -0.03277 0.25288 -0.12086
 H358 H 0.00813 0.29816 -0.13380
 H359 H 0.01436 0.24317 -0.10957
 H360 H 0.04418 0.25295 -0.09322
 H361 H 0.03709 0.30924 -0.11761
 H362 H -0.04923 0.24914 -0.14530
 H363 H -0.07765 0.23672 -0.12875
 H364 H -0.04712 0.24484 -0.07621
 H365 H -0.01907 0.25603 -0.09469
 C366 C -0.03706 0.31216 -0.17161
 C367 C 0.01634 0.21022 -0.17039
 C368 C -0.06570 0.23939 -0.10041
 C369 C 0.04313 0.28194 -0.10412
 C370 C 0.47540 0.23792 0.15277
 H371 H 0.46848 0.25192 0.15365
 C372 C 0.46781 0.22302 0.16366
 H373 H 0.45519 0.22589 0.17296
 C374 C 0.50053 0.21745 0.14004
 H375 H 0.51341 0.21528 0.13100
 C376 C 0.49322 0.20205 0.15043
 H377 H 0.50033 0.18817 0.14869
 N378 N 0.49118 0.23482 0.14086
 C379 C 0.50751 0.29350 0.12964
 H380 H 0.50448 0.29440 0.11479
 C381 C 0.51330 0.30969 0.13927
 H382 H 0.51491 0.32300 0.13165
 C383 C 0.50978 0.27474 0.15737
 H384 H 0.50855 0.26102 0.16428
 C385 C 0.51565 0.29059 0.16755
 H386 H 0.51865 0.28898 0.18237
 Zn387 Zn 0.49891 0.25506 0.12447
 N388 N 0.50600 0.27646 0.13874
 C389 C 0.46256 0.27316 0.11875
 N390 N 0.47695 0.26245 0.10989
 C391 C 0.47541 0.25734 0.09153
 C392 C 0.45859 0.26251 0.08158
 C393 C 0.44562 0.27875 0.10932
 C394 C 0.53789 0.25709 0.10975
 C395 C 0.55481 0.25097 0.09971
 C396 C 0.53655 0.22461 0.08773
 C397 C 0.51987 0.23139 0.09783
 N398 N 0.52089 0.24718 0.10885
 H399 H 0.46432 0.27757 0.13315
 H400 H 0.48705 0.24910 0.08457
 H401 H 0.45744 0.25786 0.06714
 H402 H 0.43453 0.28748 0.11664
 H403 H 0.53855 0.26957 0.11856
 H404 H 0.56812 0.25915 0.10068
 H405 H 0.53559 0.21153 0.07976
 H406 H 0.50630 0.22356 0.09747
 C407 C 0.51761 0.30833 0.15846
 C408 C 0.47635 0.20460 0.16217
 C409 C 0.55444 0.23429 0.08881
 C410 C 0.44332 0.27324 0.09053
 C411 C 0.97814 0.74120 0.66215
 H412 H 0.97134 0.75514 0.66450
 C413 C 0.97130 0.72540 0.67226
 H414 H 0.95948 0.72741 0.68265
 C415 C 1.00157 0.72170 0.64547
 H416 H 1.01296 0.72018 0.63462
 C417 C 0.99509 0.70551 0.65510
 H418 H 1.00163 0.69174 0.65144
 N419 N 0.99301 0.73910 0.64906
 C420 C 1.01479 0.79654 0.63896
 H421 H 1.01426 0.79669 0.62376
 C422 C 1.02164 0.81237 0.64845
 H423 H 1.02652 0.82465 0.64041
 C424 C 1.00961 0.78000 0.66778
 H425 H 1.00514 0.76726 0.67522
 C426 C 1.01652 0.79552 0.67785
 H427 H 1.01702 0.79470 0.69306
 Zn428 Zn 1.00007 0.76034 0.63398
 N429 N 1.00870 0.78089 0.64869
 C430 C 0.96887 0.78543 0.62394
 N431 N 0.97737 0.76794 0.62063
 C432 C 0.96894 0.75518 0.60908
 C433 C 0.95138 0.75992 0.60012
 C434 C 0.95130 0.79070 0.61539
 C435 C 1.03876 0.74955 0.62633
 C436 C 1.05553 0.74384 0.61589
 C437 C 1.03661 0.74624 0.58761
 C438 C 1.02016 0.75210 0.59863
 N439 N 1.02149 0.75333 0.61766
 H440 H 0.97540 0.79519 0.63358
 H441 H 0.97570 0.74117 0.60708
 H442 H 0.94471 0.74950 0.59117
 H443 H 0.94481 0.80470 0.61819
 H444 H 1.03939 0.75074 0.64148
 H445 H 1.06901 0.74046 0.62315
 H446 H 1.03536 0.74514 0.57249
 H447 H 1.00639 0.75550 0.59197
 C448 C 1.02253 0.81202 0.66815
 C449 C 0.97961 0.70716 0.66859
 C450 C 1.05456 0.74197 0.59629
 C451 C 0.94225 0.77784 0.60339
 C452 C 0.51817 0.73914 0.34603
 H453 H 0.52432 0.75324 0.34478
 C454 C 0.52655 0.72398 0.33564
 H455 H 0.53892 0.72666 0.32611
 C456 C 0.49470 0.71859 0.36018
 H457 H 0.48264 0.71639 0.37013
 C458 C 0.50270 0.70303 0.35018
 H459 H 0.49662 0.68903 0.35263
 N460 N 0.50243 0.73625 0.35789
 C461 C 0.47381 0.79188 0.36710
 H462 H 0.47199 0.79113 0.38226
 C463 C 0.46648 0.80770 0.35739
 H464 H 0.45853 0.81850 0.36554
 C465 C 0.48521 0.77753 0.33865
 H466 H 0.49243 0.76569 0.33139
 C467 C 0.47819 0.79316 0.32831
 H468 H 0.48100 0.79302 0.31327
 Zn469 Zn 0.49260 0.75691 0.37278
 N470 N 0.48320 0.77733 0.35772
 C471 C 0.51991 0.78345 0.38585
 N472 N 0.51360 0.76520 0.38751
 C473 C 0.52313 0.75223 0.39850
 C474 C 0.53982 0.75741 0.40826
 C475 C 0.53646 0.78924 0.39537
 C476 C 0.45468 0.74388 0.37876
 C477 C 0.43790 0.73797 0.38872
 C478 C 0.45481 0.74305 0.41774
 C479 C 0.47136 0.74883 0.40717
 N480 N 0.47103 0.74895 0.38804
 H481 H 0.51241 0.79349 0.37680
 H482 H 0.51801 0.73771 0.39930
 H483 H 0.54752 0.74677 0.41654
 H484 H 0.54120 0.80385 0.39385
 H485 H 0.45480 0.74429 0.36353
 H486 H 0.42526 0.73353 0.38098
 H487 H 0.45525 0.74315 0.43296
 H488 H 0.48438 0.75330 0.41426
 C489 C 0.46873 0.80884 0.33757
 C490 C 0.51888 0.70557 0.33772
 C491 C 0.43779 0.73749 0.40849
 C492 C 0.54683 0.77610 0.40655
 C493 C 0.39228 -0.01208 0.26676
 H494 H 0.39335 0.00213 0.27252
 C495 C 0.40215 -0.02741 0.27521
 H496 H 0.41117 -0.02473 0.28722
 C497 C 0.37894 -0.03272 0.24424
 H498 H 0.36945 -0.03482 0.23250
 C499 C 0.38842 -0.04848 0.25236
 H500 H 0.38605 -0.06256 0.24669
 N501 N 0.38105 -0.01494 0.25151
 C502 C 0.37433 0.04069 0.22466
 H503 H 0.35860 0.04039 0.22255
 C504 C 0.38507 0.05642 0.21861
 H505 H 0.37746 0.06801 0.21153
 C506 C 0.40323 0.02560 0.23612
 H507 H 0.41025 0.01352 0.24288
 C508 C 0.41454 0.04118 0.23045
 H509 H 0.43016 0.04102 0.23323
 Zn510 Zn 0.36657 0.00621 0.24203
 N511 N 0.38342 0.02584 0.23350
 C512 C 0.35418 0.03307 0.26943
 N513 N 0.35035 0.01560 0.26221
 C514 C 0.33696 0.00395 0.27072
 C515 C 0.32709 0.00963 0.28740
 C516 C 0.34483 0.03919 0.28611
 C517 C 0.36272 -0.00688 0.20575
 C518 C 0.35353 -0.01175 0.18919
 C519 C 0.32195 -0.00461 0.20443
 C520 C 0.33180 0.00014 0.22079
 N521 N 0.35184 -0.00114 0.22113
 H522 H 0.36518 0.04196 0.26279
 H523 H 0.33454 -0.01006 0.26494
 H524 H 0.31695 -0.00002 0.29437
 H525 H 0.34844 0.05294 0.29190
 H526 H 0.37865 -0.00758 0.20638
 H527 H 0.36253 -0.01653 0.17722
 H528 H 0.30602 -0.00325 0.20427
 H529 H 0.32346 0.00512 0.23306
 C530 C 0.40541 0.05701 0.22178
 C531 C 0.40013 -0.04598 0.26815
 C532 C 0.33288 -0.01052 0.18830
 C533 C 0.33140 0.02727 0.29550
 C534 C 0.10012 1.02842 0.77192
 H535 H 0.09832 1.01481 0.77894
 C536 C 0.08894 1.04435 0.77797
 H537 H 0.07854 1.04292 0.78970
 C538 C 0.11652 1.04701 0.74863
 H539 H 0.12751 1.04811 0.73741
 C540 C 0.10576 1.06329 0.75428
 H541 H 0.10834 1.07669 0.74706
 N542 N 0.11350 1.02998 0.75741
 C543 C 0.12360 0.97278 0.73437
 H544 H 0.13957 0.97244 0.73389
 C545 C 0.11331 0.95718 0.72788
 H546 H 0.12147 0.94491 0.72228
 C547 C 0.09365 0.98942 0.74190
 H548 H 0.08604 1.00206 0.74725
 C549 C 0.08274 0.97416 0.73542
 H550 H 0.06677 0.97510 0.73610
 Zn551 Zn 0.12931 1.00836 0.75049
 N552 N 0.11371 0.98832 0.74156
 C553 C 0.14181 0.98178 0.77805
 N554 N 0.14302 1.00020 0.77209
 C555 C 0.15299 1.01329 0.78202
 C556 C 0.16214 1.00804 0.79873
 C557 C 0.15096 0.97587 0.79445
 C558 C 0.13882 1.01877 0.71377
 C559 C 0.15063 1.02387 0.69828
 C560 C 0.17928 1.02064 0.71765
 C561 C 0.16687 1.01554 0.73282
 N562 N 0.14702 1.01493 0.73065
 H563 H 0.13358 0.97160 0.77025
 H564 H 0.15347 1.02793 0.77714
 H565 H 0.16953 1.01881 0.80668
 H566 H 0.15004 0.96102 0.79863
 H567 H 0.12299 1.01806 0.71245
 H568 H 0.14371 1.02732 0.68511
 H569 H 0.19505 1.02108 0.71957
 H570 H 0.17309 1.01215 0.74630
 C571 C 0.09260 0.95768 0.72850
 C572 C 0.09181 1.06211 0.76917
 C573 C 0.17115 1.02493 0.70010
 C574 C 0.16108 0.98909 0.80524
 C575 C 0.59131 0.52462 0.26629
 H576 H 0.58927 0.51076 0.27273
 C577 C 0.58077 0.54055 0.27331
 H578 H 0.57062 0.53885 0.28520
 C579 C 0.60782 0.54386 0.24359
 H580 H 0.61864 0.54519 0.23225
 C581 C 0.59771 0.56014 0.25022
 H582 H 0.60061 0.57381 0.24365
 N583 N 0.60452 0.52654 0.25169
 C584 C 0.61444 0.47053 0.22615
 H585 H 0.63040 0.47040 0.22551
 C586 C 0.60427 0.45509 0.21919
 H587 H 0.61254 0.44318 0.21300
 C588 C 0.58436 0.48644 0.23480
 H589 H 0.57669 0.49872 0.24086
 C590 C 0.57357 0.47128 0.22792
 H591 H 0.55761 0.47192 0.22898
 Zn592 Zn 0.62009 0.50508 0.24397
 N593 N 0.60444 0.48560 0.23413
 C594 C 0.63104 0.47729 0.27086
 N595 N 0.63338 0.49575 0.26537
 C596 C 0.64388 0.50802 0.27578
 C597 C 0.65246 0.50186 0.29249
 C598 C 0.63944 0.47052 0.28733
 C599 C 0.62998 0.51618 0.20760
 C600 C 0.64184 0.52194 0.19239
 C601 C 0.67018 0.51965 0.21226
 C602 C 0.65775 0.51372 0.22710
 N603 N 0.63801 0.51236 0.22456
 H604 H 0.62234 0.46779 0.26270
 H605 H 0.64519 0.52274 0.27131
 H606 H 0.66032 0.51196 0.30084
 H607 H 0.63749 0.45572 0.29127
 H608 H 0.61424 0.51493 0.20599
 H609 H 0.63509 0.52530 0.17911
 H610 H 0.68584 0.52083 0.21447
 H611 H 0.66385 0.51038 0.24064
 C612 C 0.58357 0.45522 0.22025
 C613 C 0.58412 0.55864 0.26538
 C614 C 0.66220 0.52387 0.19465
 C615 C 0.65009 0.48290 0.29856
 C616 C 0.88360 0.49202 0.76421
 H617 H 0.88266 0.50520 0.77212
 C618 C 0.89444 0.47644 0.77110
 H619 H 0.90169 0.47780 0.78440
 C620 C 0.87417 0.47400 0.73790
 H621 H 0.86593 0.47290 0.72518
 C622 C 0.88499 0.45815 0.74415
 H623 H 0.88530 0.44523 0.73582
 N624 N 0.87370 0.49054 0.74791
 C625 C 0.86303 0.54724 0.72469
 H626 H 0.84746 0.54595 0.72214
 C627 C 0.87266 0.56397 0.71969
 H628 H 0.86439 0.57533 0.71292
 C629 C 0.89260 0.53372 0.73641
 H630 H 0.90025 0.52191 0.74304
 C631 C 0.90281 0.55032 0.73177
 H632 H 0.91825 0.55117 0.73508
 Zn633 Zn 0.85761 0.51159 0.74061
 N634 N 0.87298 0.53265 0.73311
 C635 C 0.84438 0.53615 0.76967
 N636 N 0.84166 0.51872 0.76185
 C637 C 0.82929 0.50590 0.77009
 C638 C 0.81912 0.51044 0.78695
 C639 C 0.83477 0.54113 0.78657
 C640 C 0.85231 0.50147 0.70338
 C641 C 0.84229 0.49643 0.68732
 C642 C 0.81156 0.49939 0.70520
 C643 C 0.82221 0.50435 0.72098
 N644 N 0.84225 0.50499 0.71985
 H645 H 0.85457 0.54601 0.76320
 H646 H 0.82774 0.49197 0.76383
 H647 H 0.80963 0.50000 0.79361
 H648 H 0.83740 0.55493 0.79278
 H649 H 0.86823 0.50236 0.70281
 H650 H 0.85070 0.49313 0.67453
 H651 H 0.79562 0.49898 0.70633
 H652 H 0.81445 0.50770 0.73407
 C653 C 0.89274 0.56585 0.72351
 C654 C 0.89515 0.45914 0.76109
 C655 C 0.82163 0.49526 0.68809
 C656 C 0.82217 0.52812 0.79552
 C657 C 0.24975 0.40676 -0.01793
 H658 H 0.24556 0.41424 -0.00511
 C659 C 0.25670 0.41703 -0.03358
 H660 H 0.25783 0.43240 -0.03267
 C661 C 0.25297 0.37775 -0.03495
 H662 H 0.25147 0.36240 -0.03530
 C663 C 0.25984 0.38743 -0.05091
 H664 H 0.26387 0.37938 -0.06347
 N665 N 0.24823 0.38745 -0.01885
 C666 C 0.21087 0.38777 0.02820
 H667 H 0.20043 0.37906 0.02112
 C668 C 0.20466 0.39825 0.04402
 H669 H 0.18942 0.39747 0.04891
 C670 C 0.24358 0.39845 0.03115
 H671 H 0.25879 0.39821 0.02613
 C672 C 0.23801 0.40909 0.04711
 H673 H 0.24897 0.41728 0.05416
 Zn674 Zn 0.23881 0.37256 0.00161
 N675 N 0.23003 0.38810 0.02204
 C676 C 0.25566 0.34465 0.02517
 N677 N 0.25941 0.35650 0.01036
 C678 C 0.27796 0.35815 0.00287
 C679 C 0.29366 0.34770 0.01033
 C680 C 0.27091 0.33377 0.03297
 C681 C 0.20325 0.36861 -0.01602
 C682 C 0.18737 0.35948 -0.02384
 C683 C 0.20132 0.32918 -0.01387
 C684 C 0.21708 0.33892 -0.00633
 N685 N 0.21766 0.35831 -0.00743
 H686 H 0.24083 0.34389 0.03112
 H687 H 0.28079 0.36806 -0.00852
 H688 H 0.30839 0.34980 0.00453
 H689 H 0.26756 0.32434 0.04467
 H690 H 0.20420 0.38400 -0.01686
 H691 H 0.17598 0.36796 -0.03051
 H692 H 0.20111 0.31374 -0.01307
 H693 H 0.22889 0.33095 0.00016
 C694 C 0.21831 0.40902 0.05376
 C695 C 0.26185 0.40732 -0.05035
 C696 C 0.18629 0.33950 -0.02287
 C697 C 0.29030 0.33537 0.02568
 C698 C 0.77552 0.08827 1.02080
 H699 H 0.78288 0.08580 1.00730
 C700 C 0.78205 0.07864 1.03680
 H701 H 0.79422 0.06846 1.03535
 C702 C 0.75071 0.10462 1.03895
 H703 H 0.73880 0.11508 1.03983
 C704 C 0.75689 0.09548 1.05531
 H705 H 0.74961 0.09915 1.06860
 N706 N 0.76002 0.10087 1.02212
 C707 C 0.73873 0.10681 0.96491
 H708 H 0.73809 0.12224 0.96404
 C709 C 0.73315 0.09590 0.94964
 H710 H 0.72810 0.10303 0.93705
 C711 C 0.74565 0.07884 0.98262
 H712 H 0.75032 0.07226 0.99557
 C713 C 0.73996 0.06735 0.96772
 H714 H 0.74058 0.05195 0.96923
 Zn715 Zn 0.75255 0.11469 1.00042
 N716 N 0.74520 0.09820 0.98084
 C717 C 0.78219 0.12739 0.97470
 N718 N 0.77431 0.12956 0.99240
 C719 C 0.78205 0.14201 1.00473
 C720 C 0.79781 0.15349 0.99914
 C721 C 0.79781 0.13864 0.96850
 C722 C 0.71310 0.12121 1.01018
 C723 C 0.69584 0.13156 1.01476
 C724 C 0.71400 0.16073 1.01103
 C725 C 0.73090 0.14981 1.00631
 N726 N 0.73020 0.13040 1.00627
 H727 H 0.77644 0.11694 0.96530
 H728 H 0.77578 0.14319 1.01886
 H729 H 0.80350 0.16366 1.00897
 H730 H 0.80380 0.13676 0.95433
 H731 H 0.71295 0.10577 1.00990
 H732 H 0.68245 0.12398 1.01819
 H733 H 0.71478 0.17616 1.01116
 H734 H 0.74452 0.15687 1.00278
 C735 C 0.73382 0.07590 0.95090
 C736 C 0.77280 0.08229 1.05442
 C737 C 0.69621 0.15157 1.01538
 C738 C 0.80566 0.15206 0.98070
 C739 C 0.27406 0.59205 0.52430
 H740 H 0.28073 0.59054 0.51036
 C741 C 0.28215 0.58221 0.53947
 H742 H 0.29482 0.57281 0.53695
 C743 C 0.24952 0.60632 0.54438
 H744 H 0.23712 0.61611 0.54632
 C745 C 0.25723 0.59689 0.55997
 H746 H 0.25061 0.59961 0.57376
 N747 N 0.25799 0.60376 0.52697
 C748 C 0.23346 0.61092 0.47114
 H749 H 0.23206 0.62633 0.47083
 C750 C 0.22776 0.60027 0.45573
 H751 H 0.22181 0.60759 0.44362
 C752 C 0.24259 0.58269 0.48751
 H753 H 0.24822 0.57589 0.49999
 C754 C 0.23689 0.57145 0.47244
 H755 H 0.23848 0.55606 0.47335
 Zn756 Zn 0.24902 0.61813 0.50616
 N757 N 0.24111 0.60207 0.48645
 C758 C 0.27712 0.63257 0.47963
 N759 N 0.27020 0.63351 0.49776
 C760 C 0.27878 0.64486 0.51058
 C761 C 0.29477 0.65613 0.50523
 C762 C 0.29289 0.64374 0.47364
 C763 C 0.21008 0.62433 0.51858
 C764 C 0.19299 0.63472 0.52368
 C765 C 0.21057 0.66387 0.51762
 C766 C 0.22734 0.65290 0.51259
 N767 N 0.22684 0.63350 0.51334
 H768 H 0.27059 0.62305 0.46977
 H769 H 0.27318 0.64512 0.52498
 H770 H 0.30136 0.66520 0.51554
 H771 H 0.29825 0.64275 0.45917
 H772 H 0.21006 0.60888 0.51886
 H773 H 0.17991 0.62714 0.52816
 H774 H 0.21119 0.67929 0.51683
 H775 H 0.24066 0.65991 0.50797
 C776 C 0.22960 0.58028 0.45619
 C777 C 0.27386 0.58471 0.55768
 C778 C 0.19310 0.65477 0.52328
 C779 C 0.30190 0.65572 0.48650
 C780 C 0.76006 0.90905 0.47742
 H781 H 0.75612 0.91611 0.49053
 C782 C 0.76682 0.91980 0.46202
 H783 H 0.76805 0.93512 0.46344
 C784 C 0.76262 0.88065 0.45938
 H785 H 0.76084 0.86536 0.45849
 C786 C 0.76933 0.89082 0.44365
 H787 H 0.77301 0.88319 0.43076
 N788 N 0.75827 0.88981 0.47587
 C789 C 0.72043 0.88984 0.52231
 H790 H 0.70991 0.88166 0.51473
 C791 C 0.71409 0.90010 0.53823
 H792 H 0.69871 0.89967 0.54269
 C793 C 0.75335 0.89944 0.52634
 H794 H 0.76867 0.89889 0.52169
 C795 C 0.74765 0.90986 0.54242
 H796 H 0.75865 0.91754 0.54995
 Zn797 Zn 0.74841 0.87454 0.49589
 N798 N 0.73975 0.88974 0.51663
 C799 C 0.76457 0.84671 0.51984
 N800 N 0.76846 0.85764 0.50438
 C801 C 0.78677 0.85771 0.49605
 C802 C 0.80207 0.84655 0.50332
 C803 C 0.77949 0.83539 0.52764
 C804 C 0.71328 0.87191 0.47730
 C805 C 0.69733 0.86337 0.46900
 C806 C 0.70963 0.83263 0.47956
 C807 C 0.72552 0.84178 0.48757
 N808 N 0.72697 0.86110 0.48635
 H809 H 0.74996 0.84714 0.52636
 H810 H 0.78974 0.86684 0.48408
 H811 H 0.81666 0.84725 0.49681
 H812 H 0.77618 0.82690 0.54006
 H813 H 0.71490 0.88723 0.47645
 H814 H 0.68655 0.87225 0.46192
 H815 H 0.70873 0.81723 0.48044
 H816 H 0.73673 0.83343 0.49456
 C817 C 0.72778 0.91023 0.54856
 C818 C 0.77152 0.91067 0.44484
 C819 C 0.69540 0.84348 0.46999
 C820 C 0.79859 0.83537 0.51947
 C821 C -0.01365 0.26563 0.39967
 H822 H 0.00102 0.27101 0.40147
 C823 C -0.02971 0.27381 0.40971
 H824 H -0.02717 0.28527 0.41949
 C825 C -0.03471 0.24422 0.38462
 H826 H -0.03673 0.23304 0.37447
 C827 C -0.05115 0.25204 0.39425
 H828 H -0.06561 0.24670 0.39132
 N829 N -0.01638 0.25097 0.38756
 C830 C 0.04041 0.22148 0.37985
 H831 H 0.04034 0.22044 0.36466
 C832 C 0.05590 0.21324 0.38970
 H833 H 0.06784 0.20604 0.38196
 C834 C 0.02493 0.23238 0.40826
 H835 H 0.01267 0.23960 0.41542
 C836 C 0.04028 0.22442 0.41872
 H837 H 0.03974 0.22562 0.43392
 Zn838 Zn 0.00551 0.24084 0.37346
 N839 N 0.02541 0.23092 0.38915
 C840 C 0.03470 0.26637 0.36102
 N841 N 0.01596 0.26065 0.35825
 C842 C 0.00437 0.26949 0.34539
 C843 C 0.01173 0.28450 0.33440
 C844 C 0.04260 0.28128 0.35041
 C845 C -0.00888 0.20465 0.36859
 C846 C -0.01415 0.18815 0.35925
 C847 C -0.00577 0.20346 0.32966
 C848 C -0.00068 0.21977 0.33961
 N849 N -0.00241 0.22006 0.35873
 H850 H 0.04350 0.25963 0.37170
 H851 H -0.01060 0.26487 0.34368
 H852 H 0.00239 0.29123 0.32407
 H853 H 0.05743 0.28579 0.35314
 H854 H -0.00988 0.20522 0.38381
 H855 H -0.01956 0.17617 0.36742
 H856 H -0.00403 0.20332 0.31446
 H857 H 0.00497 0.23200 0.33207
 C858 C 0.05598 0.21465 0.40939
 C859 C -0.04880 0.26703 0.40703
 C860 C -0.01250 0.18732 0.33953
 C861 C 0.03114 0.29053 0.33683
 C862 C 1.02341 0.76535 0.11190
 H863 H 1.00973 0.77353 0.11315
 C864 C 1.03960 0.77292 0.10206
 H865 H 1.03818 0.78702 0.09590
 C866 C 1.04214 0.73764 0.11967
 H867 H 1.04327 0.72410 0.12688
 C868 C 1.05857 0.74452 0.10975
 H869 H 1.07196 0.73583 0.10910
 N870 N 1.02502 0.74811 0.12064
 C871 C 0.96746 0.72340 0.13155
 H872 H 0.96840 0.72160 0.14663
 C873 C 0.95127 0.71652 0.12224
 H874 H 0.93965 0.70964 0.13034
 C875 C 0.98155 0.73472 0.10283
 H876 H 0.99353 0.74165 0.09536
 C877 C 0.96552 0.72803 0.09290
 H878 H 0.96534 0.72979 0.07776
 Zn879 Zn 1.00361 0.74008 0.13620
 N880 N 0.98214 0.73234 0.12182
 C881 C 0.97648 0.76673 0.15280
 N882 N 0.99571 0.76081 0.15191
 C883 C 1.00972 0.77004 0.16156
 C884 C 1.00452 0.78583 0.17277
 C885 C 0.97062 0.78226 0.16399
 C886 C 1.01447 0.70191 0.14169
 C887 C 1.01951 0.68540 0.15164
 C888 C 1.01768 0.70373 0.18043
 C889 C 1.01262 0.71991 0.16991
 N890 N 1.01130 0.71875 0.15087
 H891 H 0.96562 0.75957 0.14471
 H892 H 1.02495 0.76518 0.16042
 H893 H 1.01580 0.79304 0.18039
 H894 H 0.95527 0.78687 0.16439
 H895 H 1.01304 0.70135 0.12658
 H896 H 1.02231 0.67222 0.14400
 H897 H 1.01853 0.70486 0.19558
 H898 H 1.00963 0.73333 0.17698
 C899 C 0.95018 0.71866 0.10264
 C900 C 1.05761 0.76257 0.10107
 C901 C 1.02118 0.68617 0.17128
 C902 C 0.98472 0.79204 0.17412
 C903 C 0.53518 0.25202 0.59846
 H904 H 0.52170 0.24966 0.59115
 C905 C 0.55159 0.25906 0.58857
 H906 H 0.55058 0.26202 0.57366
 C907 C 0.55302 0.25091 0.62668
 H908 H 0.55336 0.24784 0.64161
 C909 C 0.56980 0.25782 0.61733
 H910 H 0.58297 0.26021 0.62520
 N911 N 0.53607 0.24845 0.61726
 C912 C 0.48806 0.21427 0.61441
 H913 H 0.49550 0.20360 0.62276
 C914 C 0.47285 0.20876 0.60293
 H915 H 0.46885 0.19387 0.60258
 C916 C 0.48352 0.24662 0.60532
 H917 H 0.48772 0.26138 0.60646
 C918 C 0.46801 0.24173 0.59377
 H919 H 0.46043 0.25277 0.58588
 Zn920 Zn 0.51375 0.24006 0.63138
 N921 N 0.49329 0.23290 0.61524
 C922 C 0.48605 0.25807 0.65605
 N923 N 0.50382 0.26014 0.64700
 C924 C 0.51377 0.27676 0.64801
 C925 C 0.50588 0.29213 0.65836
 C926 C 0.47751 0.27317 0.66645
 C927 C 0.53160 0.20432 0.63649
 C928 C 0.53704 0.18760 0.64590
 C929 C 0.52325 0.20110 0.67475
 C930 C 0.51791 0.21756 0.66473
 N931 N 0.52183 0.21870 0.64587
 H932 H 0.47829 0.24480 0.65478
 H933 H 0.52774 0.27828 0.64056
 H934 H 0.51418 0.30514 0.65906
 H935 H 0.46309 0.27140 0.67305
 H936 H 0.53477 0.20572 0.62155
 H937 H 0.54462 0.17623 0.63813
 H938 H 0.51961 0.20020 0.68965
 H939 H 0.51037 0.22926 0.67196
 C940 C 0.46263 0.22254 0.59240
 C941 C 0.56913 0.26223 0.59807
 C942 C 0.53265 0.18574 0.66523
 C943 C 0.48737 0.29058 0.66757
 C944 C 0.47547 0.75411 0.89731
 H945 H 0.48896 0.75116 0.90456
 C946 C 0.45886 0.76078 0.90757
 H947 H 0.45985 0.76295 0.92260
 C948 C 0.45741 0.75413 0.86925
 H949 H 0.45676 0.75105 0.85440
 C950 C 0.44044 0.76070 0.87897
 H951 H 0.42702 0.76318 0.87133
 N952 N 0.47458 0.75123 0.87841
 C953 C 0.52351 0.71465 0.87896
 H954 H 0.51678 0.70497 0.86937
 C955 C 0.53892 0.70799 0.89000
 H956 H 0.54384 0.69323 0.88872
 C957 C 0.52599 0.74573 0.89164
 H958 H 0.52103 0.76052 0.89200
 C959 C 0.54155 0.73968 0.90287
 H960 H 0.54825 0.74982 0.91209
 Zn961 Zn 0.49678 0.74191 0.86395
 N962 N 0.51728 0.73323 0.87996
 C963 C 0.52585 0.76618 0.84828
 N964 N 0.50648 0.76156 0.84774
 C965 C 0.49399 0.77106 0.83612
 C966 C 0.50065 0.78632 0.82509
 C967 C 0.53310 0.78138 0.83761
 C968 C 0.47785 0.70751 0.85901
 C969 C 0.47153 0.69141 0.84959
 C970 C 0.48632 0.70372 0.82081
 C971 C 0.49241 0.71963 0.83083
 N972 N 0.48822 0.72111 0.84961
 H973 H 0.53578 0.75823 0.85713
 H974 H 0.47878 0.76695 0.83547
 H975 H 0.49043 0.79370 0.81600
 H976 H 0.54839 0.78518 0.83891
 H977 H 0.47465 0.70913 0.87393
 H978 H 0.46322 0.68079 0.85735
 H979 H 0.49011 0.70253 0.80595
 H980 H 0.50073 0.73062 0.82368
 C981 C 0.54820 0.72057 0.90212
 C982 C 0.44105 0.76422 0.89838
 C983 C 0.47590 0.68925 0.83027
 C984 C 0.52041 0.79187 0.82596
 C985 C 0.45740 -0.17590 0.30809
 C986 C 0.45022 -0.15990 0.29839
 C987 C 0.44701 -0.14251 0.30764
 C988 C 0.45139 -0.14114 0.32674
 C989 C 0.45868 -0.15701 0.33648
 C990 C 0.46169 -0.17488 0.32746
 N991 N 0.43914 -0.12650 0.29746
 N992 N 0.43412 -0.11097 0.30570
 C993 C 0.42614 -0.09480 0.29590
 C994 C 0.41897 -0.07915 0.30636
 C995 C 0.41063 -0.06328 0.29738
 C996 C 0.40951 -0.06269 0.27763
 C997 C 0.41700 -0.07838 0.26713
 C998 C 0.42519 -0.09433 0.27617
 H999 H 0.45869 -0.18915 0.30037
 H1000 H 0.44679 -0.16117 0.28365
 H1001 H 0.44934 -0.12773 0.33417
 H1002 H 0.46254 -0.15480 0.35095
 H1003 H 0.41957 -0.07938 0.32158
 H1004 H 0.40470 -0.05166 0.30595
 H1005 H 0.41665 -0.07830 0.25190
 H1006 H 0.43077 -0.10624 0.26778
 C1007 C 0.94263 0.32628 0.80261
 C1008 C 0.93458 0.34211 0.79327
 C1009 C 0.93913 0.36066 0.79874
 C1010 C 0.95200 0.36324 0.81365
 C1011 C 0.95988 0.34745 0.82313
 C1012 C 0.95518 0.32882 0.81778
 N1013 N 0.92998 0.37659 0.78946
 N1014 N 0.93493 0.39372 0.79250
 C1015 C 0.92525 0.40973 0.78387
 C1016 C 0.93291 0.42795 0.78609
 C1017 C 0.92338 0.44397 0.77844
 C1018 C 0.90581 0.44205 0.76859
 C1019 C 0.89822 0.42365 0.76633
 C1020 C 0.90788 0.40764 0.77381
 H1021 H 0.93866 0.31207 0.79831
 H1022 H 0.92462 0.33993 0.78184
 H1023 H 0.95571 0.37744 0.81818
 H1024 H 0.96966 0.34979 0.83466
 H1025 H 0.94630 0.42974 0.79381
 H1026 H 0.92983 0.45784 0.78022
 H1027 H 0.88453 0.42163 0.75917
 H1028 H 0.90155 0.39371 0.77207
 C1029 C 0.04734 1.19327 0.81793
 C1030 C 0.05717 1.17722 0.81032
 C1031 C 0.04663 1.16118 0.80518
 C1032 C 0.02596 1.16151 0.80729
 C1033 C 0.01608 1.17762 0.81477
 C1034 C 0.02667 1.19361 0.82041
 N1035 N 0.05731 1.14467 0.79826
 N1036 N 0.04896 1.12892 0.79512
 C1037 C 0.05986 1.11244 0.78840
 C1038 C 0.05013 1.09514 0.78657
 C1039 C 0.06047 1.07873 0.78037
 C1040 C 0.08074 1.07944 0.77576
 C1041 C 0.09044 1.09687 0.77753
 C1042 C 0.08013 1.11321 0.78383
 H1043 H 0.05601 1.20516 0.82239
 H1044 H 0.07311 1.17711 0.80878
 H1045 H 0.01748 1.14933 0.80326
 H1046 H 0.00014 1.17751 0.81617
 H1047 H 0.03452 1.09436 0.79003
 H1048 H 0.05258 1.06554 0.77898
 H1049 H 0.10610 1.09780 0.77432
 H1050 H 0.08801 1.12641 0.78517
 C1051 C 0.54869 0.68751 0.32482
 C1052 C 0.55739 0.67153 0.31597
 C1053 C 0.54574 0.65665 0.30981
 C1054 C 0.52514 0.65808 0.31225
 C1055 C 0.51639 0.67413 0.32097
 C1056 C 0.52808 0.68897 0.32754
 N1057 N 0.55524 0.64019 0.30143
 N1058 N 0.54583 0.62532 0.29722
 C1059 C 0.55556 0.60890 0.28896
 C1060 C 0.54479 0.59234 0.28622
 C1061 C 0.55401 0.57596 0.27856
 C1062 C 0.57416 0.57598 0.27334
 C1063 C 0.58488 0.59269 0.27597
 C1064 C 0.57570 0.60899 0.28375
 H1065 H 0.55817 0.69849 0.32995
 H1066 H 0.57329 0.67056 0.31419
 H1067 H 0.51581 0.64682 0.30746
 H1068 H 0.50047 0.67493 0.32253
 H1069 H 0.52926 0.59210 0.29016
 H1070 H 0.54536 0.56333 0.27654
 H1071 H 0.60048 0.59306 0.27232
 H1072 H 0.58436 0.62160 0.28574
 C1073 C 0.54030 0.32314 0.18132
 C1074 C 0.54791 0.33913 0.19007
 C1075 C 0.54020 0.35740 0.18639
 C1076 C 0.52443 0.35953 0.17408
 C1077 C 0.51680 0.34354 0.16530
 C1078 C 0.52480 0.32518 0.16867
 N1079 N 0.54918 0.37352 0.19474
 N1080 N 0.54324 0.39062 0.19186
 C1081 C 0.55292 0.40658 0.19982
 C1082 C 0.54577 0.42510 0.19619
 C1083 C 0.55550 0.44097 0.20305
 C1084 C 0.57264 0.43851 0.21358
 C1085 C 0.57956 0.41988 0.21745
 C1086 C 0.56981 0.40407 0.21065
 H1087 H 0.54696 0.30925 0.18403
 H1088 H 0.56011 0.33733 0.19948
 H1089 H 0.51819 0.37353 0.17105
 H1090 H 0.50469 0.34555 0.15582
 H1091 H 0.53280 0.42722 0.18782
 H1092 H 0.54991 0.45515 0.19973
 H1093 H 0.59253 0.41754 0.22578
 H1094 H 0.57561 0.38991 0.21370
 C1095 C 0.04343 0.82613 0.69300
 C1096 C 0.05150 0.84192 0.70174
 C1097 C 0.04628 0.86049 0.69613
 C1098 C 0.03257 0.86313 0.68182
 C1099 C 0.02459 0.84737 0.67300
 C1100 C 0.03009 0.82869 0.67835
 N1101 N 0.05569 0.87633 0.70459
 N1102 N 0.05123 0.89356 0.70048
 C1103 C 0.06119 0.90939 0.70835
 C1104 C 0.05491 0.92798 0.70389
 C1105 C 0.06488 0.94373 0.71066
 C1106 C 0.08146 0.94108 0.72192
 C1107 C 0.08759 0.92238 0.72656
 C1108 C 0.07753 0.90667 0.71989
 H1109 H 0.04809 0.81192 0.69729
 H1110 H 0.06210 0.83970 0.71271
 H1111 H 0.02828 0.87734 0.67724
 H1112 H 0.01415 0.84977 0.66192
 H1113 H 0.04239 0.93026 0.69495
 H1114 H 0.05994 0.95795 0.70672
 H1115 H 0.10015 0.91992 0.73541
 H1116 H 0.08269 0.89243 0.72354
 C1117 C 0.98388 0.67417 0.68235
 C1118 C 0.97597 0.65732 0.68967
 C1119 C 0.95561 0.65585 0.69286
 C1120 C 0.94319 0.67159 0.68891
 C1121 C 0.95104 0.68836 0.68142
 C1122 C 0.97147 0.68982 0.67787
 N1123 N 0.94780 0.63806 0.69932
 N1124 N 0.92966 0.63650 0.70406
 C1125 C 0.92126 0.61872 0.70972
 C1126 C 0.90179 0.61876 0.71668
 C1127 C 0.89270 0.60166 0.72148
 C1128 C 0.90288 0.58405 0.71915
 C1129 C 0.92259 0.58407 0.71238
 C1130 C 0.93173 0.60127 0.70774
 H1131 H 0.99970 0.67488 0.68009
 H1132 H 0.98571 0.64532 0.69270
 H1133 H 0.92737 0.67077 0.69112
 H1134 H 0.94099 0.69995 0.67784
 H1135 H 0.89360 0.63213 0.71831
 H1136 H 0.87768 0.60224 0.72705
 H1137 H 0.93078 0.57079 0.71023
 H1138 H 0.94679 0.60089 0.70225
 C1139 C 0.44643 0.18727 0.17419
 C1140 C 0.43755 0.17130 0.18229
 C1141 C 0.44902 0.15562 0.18795
 C1142 C 0.46966 0.15626 0.18600
 C1143 C 0.47862 0.17238 0.17817
 C1144 C 0.46709 0.18801 0.17189
 N1145 N 0.43922 0.13914 0.19519
 N1146 N 0.44801 0.12310 0.19751
 C1147 C 0.43761 0.10683 0.20451
 C1148 C 0.44665 0.08870 0.20338
 C1149 C 0.43634 0.07247 0.20910
 C1150 C 0.41681 0.07417 0.21625
 C1151 C 0.40804 0.09251 0.21789
 C1152 C 0.41827 0.10864 0.21197
 H1153 H 0.43699 0.19876 0.16921
 H1154 H 0.42162 0.17093 0.18369
 H1155 H 0.47882 0.14434 0.19048
 H1156 H 0.49456 0.17256 0.17699
 H1157 H 0.46155 0.08711 0.19763
 H1158 H 0.44349 0.05859 0.20749
 H1159 H 0.39325 0.09444 0.22378
 H1160 H 0.41102 0.12253 0.21321
 C1161 C 0.30562 0.45083 -0.18199
 C1162 C 0.29522 0.44421 -0.16607
 C1163 C 0.30174 0.44816 -0.14799
 C1164 C 0.31873 0.45904 -0.14596
 C1165 C 0.32920 0.46555 -0.16185
 C1166 C 0.32285 0.46138 -0.18003
 N1167 N 0.29136 0.44037 -0.13199
 N1168 N 0.29612 0.44405 -0.11520
 C1169 C 0.28637 0.43564 -0.09917
 C1170 C 0.29210 0.44075 -0.08112
 C1171 C 0.28377 0.43193 -0.06519
 C1172 C 0.26963 0.41771 -0.06711
 C1173 C 0.26359 0.41291 -0.08525
 C1174 C 0.27186 0.42181 -0.10114
 H1175 H 0.30048 0.44728 -0.19582
 H1176 H 0.28219 0.43578 -0.16782
 H1177 H 0.32408 0.46228 -0.13214
 H1178 H 0.34227 0.47386 -0.15991
 H1179 H 0.30332 0.45135 -0.07942
 H1180 H 0.28885 0.43579 -0.05142
 H1181 H 0.25254 0.40218 -0.08713
 H1182 H 0.26716 0.41763 -0.11495
 C1183 C 0.81294 0.95805 0.31389
 C1184 C 0.80272 0.95090 0.32969
 C1185 C 0.80860 0.95540 0.34786
 C1186 C 0.82460 0.96755 0.35009
 C1187 C 0.83485 0.97464 0.33433
 C1188 C 0.82931 0.96975 0.31606
 N1189 N 0.79875 0.94679 0.36374
 N1190 N 0.80354 0.95024 0.38057
 C1191 C 0.79440 0.94104 0.39649
 C1192 C 0.80047 0.94561 0.41457
 C1193 C 0.79276 0.93605 0.43034
 C1194 C 0.77885 0.92165 0.42825
 C1195 C 0.77246 0.91737 0.41009
 C1196 C 0.78015 0.92697 0.39434
 H1197 H 0.80843 0.95391 0.30000
 H1198 H 0.79045 0.94151 0.32778
 H1199 H 0.82941 0.97130 0.36398
 H1200 H 0.84722 0.98387 0.33644
 H1201 H 0.81150 0.95637 0.41639
 H1202 H 0.79810 0.93954 0.44411
 H1203 H 0.76155 0.90654 0.40806
 H1204 H 0.77519 0.92320 0.38051
 C1205 C 0.85205 0.02002 1.15907
 C1206 C 0.84432 0.02705 1.14234
 C1207 C 0.82564 0.03576 1.14224
 C1208 C 0.81467 0.03754 1.15920
 C1209 C 0.82246 0.03080 1.17607
 C1210 C 0.84133 0.02181 1.17637
 N1211 N 0.81845 0.04307 1.12482
 N1212 N 0.80070 0.04885 1.12295
 C1213 C 0.79397 0.05662 1.10552
 C1214 C 0.77378 0.06012 1.10336
 C1215 C 0.76683 0.06808 1.08666
 C1216 C 0.78005 0.07296 1.07186
 C1217 C 0.80035 0.06933 1.07411
 C1218 C 0.80724 0.06117 1.09072
 H1219 H 0.86688 0.01404 1.15836
 H1220 H 0.85302 0.02580 1.12937
 H1221 H 0.80013 0.04425 1.15945
 H1222 H 0.81326 0.03210 1.18869
 H1223 H 0.76340 0.05663 1.11464
 H1224 H 0.75109 0.07035 1.08534
 H1225 H 0.81101 0.07322 1.06322
 H1226 H 0.82295 0.05874 1.09211
 C1227 C 0.30847 0.52728 0.68569
 C1228 C 0.29930 0.53517 0.66996
 C1229 C 0.31001 0.53775 0.65304
 C1230 C 0.33005 0.53222 0.65197
 C1231 C 0.33917 0.52420 0.66760
 C1232 C 0.32849 0.52166 0.68464
 N1233 N 0.30030 0.54602 0.63721
 N1234 N 0.30975 0.55022 0.62208
 C1235 C 0.30036 0.55844 0.60608
 C1236 C 0.31213 0.56464 0.59089
 C1237 C 0.30356 0.57306 0.57516
 C1238 C 0.28292 0.57526 0.57424
 C1239 C 0.27111 0.56876 0.58946
 C1240 C 0.27974 0.56049 0.60527
 H1241 H 0.29985 0.52535 0.69859
 H1242 H 0.28384 0.53935 0.67097
 H1243 H 0.33867 0.53406 0.63906
 H1244 H 0.35468 0.52023 0.66645
 H1245 H 0.32804 0.56318 0.59137
 H1246 H 0.31315 0.57820 0.56390
 H1247 H 0.25518 0.56994 0.58912
 H1248 H 0.27032 0.55566 0.61680
 C1249 C 0.19659 0.53060 0.32629
 C1250 C 0.20577 0.53824 0.34188
 C1251 C 0.19976 0.53304 0.36016
 C1252 C 0.18476 0.51965 0.36271
 C1253 C 0.17551 0.51208 0.34714
 C1254 C 0.18111 0.51771 0.32878
 N1255 N 0.20826 0.54235 0.37583
 N1256 N 0.20371 0.53804 0.39280
 C1257 C 0.21138 0.54808 0.40845
 C1258 C 0.20652 0.54200 0.42675
 C1259 C 0.21276 0.55220 0.44232
 C1260 C 0.22384 0.56881 0.43979
 C1261 C 0.22898 0.57470 0.42139
 C1262 C 0.22286 0.56442 0.40586
 H1263 H 0.20108 0.53533 0.31232
 H1264 H 0.21726 0.54860 0.33975
 H1265 H 0.17987 0.51537 0.37670
 H1266 H 0.16378 0.50200 0.34947
 H1267 H 0.19760 0.52949 0.42893
 H1268 H 0.20845 0.54743 0.45633
 H1269 H 0.23772 0.58730 0.41904
 H1270 H 0.22679 0.56943 0.39185
 C1271 C 0.70185 0.02258 0.82202
 C1272 C 0.71123 0.02979 0.83771
 C1273 C 0.70293 0.02761 0.85579
 C1274 C 0.68526 0.01773 0.85811
 C1275 C 0.67570 0.01071 0.84248
 C1276 C 0.68360 0.01327 0.82403
 N1277 N 0.71210 0.03642 0.87138
 N1278 N 0.70609 0.03378 0.88831
 C1279 C 0.71439 0.04351 0.90383
 C1280 C 0.70829 0.03867 0.92219
 C1281 C 0.71502 0.04883 0.93758
 C1282 C 0.72780 0.06418 0.93479
 C1283 C 0.73420 0.06879 0.91637
 C1284 C 0.72762 0.05850 0.90102
 H1285 H 0.70848 0.02545 0.80832
 H1286 H 0.72482 0.03750 0.83573
 H1287 H 0.67860 0.01572 0.87198
 H1288 H 0.66230 0.00291 0.84510
 H1289 H 0.69801 0.02721 0.92453
 H1290 H 0.70975 0.04509 0.95161
 H1291 H 0.74420 0.08044 0.91386
 H1292 H 0.73251 0.06255 0.88696
 C1293 C 0.70155 0.95898 0.68279
 C1294 C 0.71008 0.95218 0.66587
 C1295 C 0.69969 0.95344 0.64914
 C1296 C 0.68065 0.96178 0.64948
 C1297 C 0.67211 0.96853 0.66634
 C1298 C 0.68241 0.96716 0.68324
 N1299 N 0.70842 0.94566 0.63215
 N1300 N 0.69954 0.94652 0.61660
 C1301 C 0.70758 0.93833 0.59954
 C1302 C 0.69649 0.93964 0.58326
 C1303 C 0.70325 0.93088 0.56660
 C1304 C 0.72130 0.92062 0.56593
 C1305 C 0.73267 0.91972 0.58220
 C1306 C 0.72586 0.92848 0.59889
 H1307 H 0.70995 0.95788 0.69551
 H1308 H 0.72476 0.94579 0.66581
 H1309 H 0.67223 0.96283 0.63677
 H1310 H 0.65722 0.97442 0.66622
 H1311 H 0.68241 0.94724 0.58358
 H1312 H 0.69429 0.93205 0.55424
 H1313 H 0.74654 0.91176 0.58217
 H1314 H 0.73468 0.92725 0.61133
 C1315 C 0.19523 0.46018 0.18750
 C1316 C 0.20327 0.45298 0.17054
 C1317 C 0.19238 0.45384 0.15409
 C1318 C 0.17334 0.46216 0.15474
 C1319 C 0.16530 0.46933 0.17165
 C1320 C 0.17611 0.46839 0.18826
 N1321 N 0.20066 0.44575 0.13705
 N1322 N 0.19128 0.44614 0.12177
 C1323 C 0.19893 0.43769 0.10468
 C1324 C 0.18728 0.43833 0.08874
 C1325 C 0.19373 0.42936 0.07209
 C1326 C 0.21205 0.41957 0.07109
 C1327 C 0.22395 0.41932 0.08701
 C1328 C 0.21744 0.42828 0.10370
 H1329 H 0.20401 0.45940 0.20000
 H1330 H 0.21796 0.44661 0.17023
 H1331 H 0.16455 0.46291 0.14225
 H1332 H 0.15040 0.47523 0.17179
 H1333 H 0.17302 0.44559 0.08932
 H1334 H 0.18436 0.43002 0.06000
 H1335 H 0.23803 0.41173 0.08674
 H1336 H 0.22670 0.42757 0.11586
 C1337 C -0.15547 0.35509 0.46571
 C1338 C -0.13800 0.34609 0.45925
 C1339 C -0.13796 0.32707 0.45335
 C1340 C -0.15568 0.31699 0.45408
 C1341 C -0.17323 0.32602 0.46040
 C1342 C -0.17336 0.34523 0.46618
 N1343 N -0.11991 0.31858 0.44613
 N1344 N -0.11833 0.30094 0.44197
 C1345 C -0.10043 0.29270 0.43412
 C1346 C -0.09915 0.27295 0.43138
 C1347 C -0.08223 0.26455 0.42300
 C1348 C -0.06630 0.27584 0.41700
 C1349 C -0.06754 0.29568 0.42002
 C1350 C -0.08442 0.30404 0.42854
 H1351 H -0.15493 0.36976 0.47039
 H1352 H -0.12442 0.35399 0.45880
 H1353 H -0.15604 0.30229 0.44947
 H1354 H -0.18676 0.31808 0.46035
 H1355 H -0.11136 0.26405 0.43566
 H1356 H -0.08165 0.24920 0.42119
 H1357 H -0.05571 0.30485 0.41534
 H1358 H -0.08511 0.31938 0.43040
 C1359 C 0.33931 0.84223 0.97516
 C1360 C 0.35616 0.83295 0.96763
 C1361 C 0.35451 0.81660 0.95659
 C1362 C 0.33572 0.80922 0.95357
 C1363 C 0.31883 0.81842 0.96123
 C1364 C 0.32045 0.83519 0.97186
 N1365 N 0.37205 0.80824 0.94812
 N1366 N 0.37164 0.79424 0.93676
 C1367 C 0.38926 0.78638 0.92796
 C1368 C 0.38767 0.77179 0.91471
 C1369 C 0.40449 0.76444 0.90522
 C1370 C 0.42325 0.77153 0.90891
 C1371 C 0.42483 0.78596 0.92248
 C1372 C 0.40799 0.79336 0.93189
 H1373 H 0.34102 0.85498 0.98349
 H1374 H 0.37055 0.83874 0.97010
 H1375 H 0.33408 0.79656 0.94509
 H1376 H 0.30448 0.81276 0.95835
 H1377 H 0.37333 0.76627 0.91157
 H1378 H 0.40283 0.75315 0.89504
 H1379 H 0.43905 0.79185 0.92549
 H1380 H 0.40961 0.80467 0.94206
 C1381 C 1.15731 0.84428 0.02923
 C1382 C 1.14083 0.83520 0.03697
 C1383 C 1.14305 0.81840 0.04742
 C1384 C 1.16206 0.81058 0.04994
 C1385 C 1.17859 0.81952 0.04198
 C1386 C 1.17643 0.83652 0.03152
 N1387 N 1.12578 0.80968 0.05534
 N1388 N 1.12671 0.79610 0.06725
 C1389 C 1.10933 0.78749 0.07508
 C1390 C 1.11107 0.77535 0.09062
 C1391 C 1.09434 0.76723 0.09901
 C1392 C 1.07548 0.77085 0.09176
 C1393 C 1.07387 0.78278 0.07587
 C1394 C 1.09060 0.79111 0.06767
 H1395 H 1.15503 0.85755 0.02167
 H1396 H 1.12626 0.84141 0.03502
 H1397 H 1.16412 0.79751 0.05789
 H1398 H 1.19302 0.81298 0.04382
 H1399 H 1.12541 0.77250 0.09650
 H1400 H 1.09619 0.75847 0.11143
 H1401 H 1.05969 0.78563 0.06968
 H1402 H 1.08891 0.80032 0.05552
 C1403 C 0.66395 0.34860 0.52629
 C1404 C 0.64813 0.33893 0.53457
 C1405 C 0.65127 0.32166 0.54404
 C1406 C 0.67055 0.31404 0.54515
 C1407 C 0.68644 0.32367 0.53678
 C1408 C 0.68331 0.34107 0.52721
 N1409 N 0.63461 0.31231 0.55243
 N1410 N 0.63619 0.29712 0.56221
 C1411 C 0.61923 0.28815 0.57052
 C1412 C 0.62192 0.27257 0.58264
 C1413 C 0.60566 0.26397 0.59146
 C1414 C 0.58639 0.27074 0.58814
 C1415 C 0.58372 0.28617 0.57569
 C1416 C 0.59998 0.29483 0.56700
 H1417 H 0.66103 0.36213 0.51939
 H1418 H 0.63335 0.34498 0.53372
 H1419 H 0.67333 0.30066 0.55237
 H1420 H 0.70112 0.31739 0.53757
 H1421 H 0.63666 0.26724 0.58543
 H1422 H 0.60815 0.25199 0.60083
 H1423 H 0.56908 0.29184 0.57303
 H1424 H 0.59749 0.30684 0.55767
 C1425 C 0.32907 0.19071 0.53885
 C1426 C 0.34519 0.20034 0.54589
 C1427 C 0.36438 0.19285 0.54328
 C1428 C 0.36735 0.17586 0.53302
 C1429 C 0.35129 0.16625 0.52600
 C1430 C 0.33194 0.17337 0.52911
 N1431 N 0.38047 0.20210 0.55195
 N1432 N 0.39796 0.19513 0.55080
 C1433 C 0.41426 0.20336 0.56001
 C1434 C 0.43251 0.19370 0.55906
 C1435 C 0.44837 0.20025 0.56918
 C1436 C 0.44627 0.21671 0.58038
 C1437 C 0.42814 0.22684 0.58077
 C1438 C 0.41218 0.22017 0.57072
 H1439 H 0.31433 0.19649 0.54158
 H1440 H 0.34269 0.21340 0.55381
 H1441 H 0.38203 0.16980 0.53069
 H1442 H 0.35402 0.15312 0.51825
 H1443 H 0.43429 0.18076 0.55083
 H1444 H 0.46225 0.19230 0.56844
 H1445 H 0.42609 0.23950 0.58938
 H1446 H 0.39818 0.22788 0.57166
 C1447 C 0.83020 0.68816 0.02337
 C1448 C 0.84686 0.69645 0.03094
 C1449 C 0.85584 0.68829 0.04665
 C1450 C 0.84768 0.67193 0.05500
 C1451 C 0.83105 0.66371 0.04754
 C1452 C 0.82225 0.67155 0.03149
 N1453 N 0.87321 0.69665 0.05389
 N1454 N 0.88261 0.68857 0.06710
 C1455 C 0.89990 0.69626 0.07507
 C1456 C 0.90914 0.68585 0.08927
 C1457 C 0.92565 0.69299 0.09793
 C1458 C 0.93324 0.71080 0.09258
 C1459 C 0.92417 0.72110 0.07802
 C1460 C 0.90758 0.71390 0.06932
 H1461 H 0.82385 0.69447 0.01094
 H1462 H 0.85296 0.70909 0.02439
 H1463 H 0.85415 0.66544 0.06729
 H1464 H 0.82504 0.65119 0.05440
 H1465 H 0.90342 0.67219 0.09373
 H1466 H 0.93251 0.68453 0.10884
 H1467 H 0.92960 0.73492 0.07368
 H1468 H 0.90064 0.72219 0.05834
 C1469 C 0.68098 0.69344 0.96322
 C1470 C 0.66445 0.70180 0.95484
 C1471 C 0.64678 0.69186 0.95403
 C1472 C 0.64575 0.67347 0.96192
 C1473 C 0.66222 0.66513 0.97030
 C1474 C 0.68007 0.67497 0.97100
 N1475 N 0.63029 0.70045 0.94474
 N1476 N 0.61407 0.69179 0.94334
 C1477 C 0.59751 0.69978 0.93374
 C1478 C 0.58058 0.68885 0.93232
 C1479 C 0.56445 0.69573 0.92233
 C1480 C 0.56496 0.71375 0.91357
 C1481 C 0.58184 0.72490 0.91535
 C1482 C 0.59802 0.71796 0.92532
 H1483 H 0.69445 0.70146 0.96368
 H1484 H 0.66544 0.71598 0.94881
 H1485 H 0.63231 0.66543 0.96141
 H1486 H 0.66111 0.65075 0.97584
 H1487 H 0.58000 0.67485 0.93881
 H1488 H 0.55156 0.68692 0.92143
 H1489 H 0.58273 0.73875 0.90860
 H1490 H 0.61097 0.72666 0.92621
 C1491 C 0.17988 0.18437 0.48427
 C1492 C 0.16197 0.19196 0.47792
 C1493 C 0.15164 0.18251 0.46405
 C1494 C 0.15941 0.16528 0.45660
 C1495 C 0.17729 0.15775 0.46285
 C1496 C 0.18779 0.16724 0.47669
 N1497 N 0.13359 0.19078 0.45739
 N1498 N 0.12363 0.18235 0.44509
 C1499 C 0.10590 0.19027 0.43751
 C1500 C 0.09657 0.18004 0.42356
 C1501 C 0.08004 0.18775 0.41481
 C1502 C 0.07249 0.20591 0.41991
 C1503 C 0.08147 0.21593 0.43439
 C1504 C 0.09813 0.20820 0.44311
 H1505 H 0.18770 0.19204 0.49487
 H1506 H 0.15619 0.20529 0.48373
 H1507 H 0.15174 0.15765 0.44589
 H1508 H 0.18282 0.14436 0.45698
 H1509 H 0.10239 0.16618 0.41920
 H1510 H 0.07325 0.17959 0.40390
 H1511 H 0.07603 0.23000 0.43851
 H1512 H 0.10512 0.21636 0.45389
 C1513 C 0.59265 0.08033 0.74612
 C1514 C 0.58405 0.09728 0.73947
 C1515 C 0.57138 0.09699 0.72427
 C1516 C 0.56669 0.07937 0.71625
 C1517 C 0.57513 0.06238 0.72300
 C1518 C 0.58853 0.06274 0.73774
 N1519 N 0.56439 0.11476 0.71663
 N1520 N 0.55478 0.11556 0.70150
 C1521 C 0.54843 0.13329 0.69330
 C1522 C 0.53952 0.13297 0.67579
 C1523 C 0.53422 0.15000 0.66678
 C1524 C 0.53765 0.16771 0.67522
 C1525 C 0.54617 0.16802 0.69304
 C1526 C 0.55161 0.15094 0.70199
 H1527 H 0.60277 0.08099 0.75762
 H1528 H 0.58775 0.11074 0.74581
 H1529 H 0.55688 0.07877 0.70451
 H1530 H 0.57183 0.04905 0.71619
 H1531 H 0.53697 0.11946 0.66896
 H1532 H 0.52742 0.14932 0.65319
 H1533 H 0.54909 0.18146 0.69981
 H1534 H 0.55850 0.15155 0.71553
 C1535 C 1.08998 0.58441 0.25005
 C1536 C 1.08090 0.60113 0.24347
 C1537 C 1.06619 0.60026 0.23009
 C1538 C 1.06012 0.58235 0.22381
 C1539 C 1.06916 0.56560 0.23042
 C1540 C 1.08445 0.56647 0.24335
 N1541 N 1.05853 0.61772 0.22235
 N1542 N 1.04577 0.61793 0.20954
 C1543 C 1.03885 0.63532 0.20110
 C1544 C 1.02514 0.63438 0.18680
 C1545 C 1.01911 0.65092 0.17734
 C1546 C 1.02674 0.66877 0.18205
 C1547 C 1.04016 0.66974 0.19675
 C1548 C 1.04620 0.65316 0.20618
 H1549 H 1.10153 0.58551 0.26021
 H1550 H 1.08567 0.61485 0.24845
 H1551 H 1.04879 0.58131 0.21344
 H1552 H 1.06472 0.55201 0.22486
 H1553 H 1.01937 0.62072 0.18277
 H1554 H 1.00852 0.64975 0.16629
 H1555 H 1.04644 0.68323 0.20057
 H1556 H 1.05688 0.65425 0.21716
 C1557 C 0.95028 0.92655 0.21915
 C1558 C 0.96055 0.91000 0.21319
 C1559 C 0.95383 0.89196 0.21853
 C1560 C 0.93715 0.89063 0.23060
 C1561 C 0.92694 0.90712 0.23662
 C1562 C 0.93312 0.92525 0.23063
 N1563 N 0.96334 0.87525 0.21061
 N1564 N 0.95641 0.85870 0.21338
 C1565 C 0.96492 0.84186 0.20483
 C1566 C 0.95486 0.82470 0.20681
 C1567 C 0.96159 0.80837 0.19721
 C1568 C 0.97867 0.80890 0.18558
 C1569 C 0.98922 0.82594 0.18419
 C1570 C 0.98234 0.84236 0.19367
 H1571 H 0.95533 0.94028 0.21418
 H1572 H 0.97336 0.91122 0.20386
 H1573 H 0.93174 0.87686 0.23507
 H1574 H 0.91402 0.90566 0.24577
 H1575 H 0.94144 0.82416 0.21539
 H1576 H 0.95331 0.79536 0.19867
 H1577 H 1.00236 0.82674 0.17522
 H1578 H 0.99036 0.85548 0.19194
 C1579 C 0.43834 0.42227 0.71161
 C1580 C 0.44845 0.40642 0.70391
 C1581 C 0.44361 0.38792 0.70963
 C1582 C 0.42863 0.38541 0.72343
 C1583 C 0.41841 0.40125 0.73106
 C1584 C 0.42305 0.41985 0.72512
 N1585 N 0.45363 0.37200 0.70075
 N1586 N 0.45073 0.35480 0.70581
 C1587 C 0.46037 0.33899 0.69635
 C1588 C 0.45798 0.32053 0.70354
 C1589 C 0.46686 0.30479 0.69435
 C1590 C 0.47819 0.30726 0.67766
 C1591 C 0.48050 0.32587 0.67049
 C1592 C 0.47175 0.34157 0.67976
 H1593 H 0.44208 0.43640 0.70660
 H1594 H 0.45992 0.40853 0.69324
 H1595 H 0.42462 0.37124 0.72809
 H1596 H 0.40684 0.39897 0.74159
 H1597 H 0.44923 0.31835 0.71632
 H1598 H 0.46497 0.29071 0.70040
 H1599 H 0.48876 0.32830 0.65748
 H1600 H 0.47367 0.35568 0.67380
 C1601 C 0.43004 0.55690 0.79646
 C1602 C 0.43942 0.57292 0.80330
 C1603 C 0.43982 0.58987 0.79285
 C1604 C 0.43120 0.59049 0.77508
 C1605 C 0.42189 0.57439 0.76814
 C1606 C 0.42094 0.55754 0.77892
 N1607 N 0.44832 0.60633 0.80105
 N1608 N 0.44836 0.62264 0.79308
 C1609 C 0.45633 0.63897 0.80207
 C1610 C 0.45534 0.65679 0.79310
 C1611 C 0.46199 0.67314 0.80206
 C1612 C 0.46971 0.67189 0.82022
 C1613 C 0.47108 0.65389 0.82898
 C1614 C 0.46445 0.63761 0.82003
 H1615 H 0.42977 0.54404 0.80495
 H1616 H 0.44606 0.57226 0.81699
 H1617 H 0.43134 0.60346 0.76675
 H1618 H 0.41488 0.57532 0.75465
 H1619 H 0.44907 0.65805 0.77929
 H1620 H 0.46061 0.68681 0.79501
 H1621 H 0.47728 0.65240 0.84281
 H1622 H 0.46548 0.62400 0.82725
 C1623 C -0.07237 0.08302 0.25950
 C1624 C -0.06322 0.09960 0.26546
 C1625 C -0.05451 0.10018 0.28309
 C1626 C -0.05477 0.08382 0.29463
 C1627 C -0.06407 0.06736 0.28878
 C1628 C -0.07315 0.06685 0.27126
 N1629 N -0.04638 0.11768 0.28943
 N1630 N -0.03718 0.11844 0.30478
 C1631 C -0.02984 0.13581 0.31218
 C1632 C -0.01905 0.13493 0.32864
 C1633 C -0.01296 0.15162 0.33721
 C1634 C -0.01771 0.16961 0.32951
 C1635 C -0.02808 0.17046 0.31263
 C1636 C -0.03412 0.15368 0.30401
 H1637 H -0.07939 0.08303 0.24599
 H1638 H -0.06318 0.11211 0.25647
 H1639 H -0.04817 0.08389 0.30833
 H1640 H -0.06428 0.05502 0.29802
 H1641 H -0.01564 0.12123 0.33503
 H1642 H -0.00465 0.15045 0.34998
 H1643 H -0.03210 0.18410 0.30643
 H1644 H -0.04254 0.15470 0.29131
 C1645 C 0.06613 0.41977 0.27834
 C1646 C 0.05640 0.40300 0.28345
 C1647 C 0.06708 0.38706 0.28989
 C1648 C 0.08771 0.38799 0.29097
 C1649 C 0.09739 0.40476 0.28611
 C1650 C 0.08669 0.42086 0.27991
 N1651 N 0.05673 0.37045 0.29612
 N1652 N 0.06596 0.35508 0.30032
 C1653 C 0.05633 0.33857 0.30774
 C1654 C 0.06767 0.32202 0.31083
 C1655 C 0.05931 0.30619 0.31967
 C1656 C 0.03939 0.30669 0.32576
 C1657 C 0.02782 0.32313 0.32206
 C1658 C 0.03622 0.33897 0.31311
 H1659 H 0.05756 0.43204 0.27369
 H1660 H 0.04049 0.40251 0.28263
 H1661 H 0.09633 0.37589 0.29595
 H1662 H 0.11328 0.40519 0.28724
 H1663 H 0.08317 0.32155 0.30671
 H1664 H 0.06852 0.29363 0.32197
 H1665 H 0.01249 0.32404 0.32673
 H1666 H 0.02719 0.35167 0.31094
 C1667 C 0.60608 0.89890 0.77765
 C1668 C 0.59746 0.88151 0.78225
 C1669 C 0.57697 0.87970 0.78220
 C1670 C 0.56509 0.89539 0.77683
 C1671 C 0.57375 0.91278 0.77192
 C1672 C 0.59430 0.91476 0.77264
 N1673 N 0.56870 0.86204 0.78842
 N1674 N 0.55029 0.86001 0.79155
 C1675 C 0.54256 0.84235 0.79849
 C1676 C 0.52295 0.84186 0.80508
 C1677 C 0.51555 0.82532 0.81356
 C1678 C 0.52765 0.80888 0.81542
 C1679 C 0.54711 0.80920 0.80802
 C1680 C 0.55453 0.82579 0.79973
 H1681 H 0.62197 0.90002 0.77810
 H1682 H 0.60675 0.86951 0.78633
 H1683 H 0.54920 0.89429 0.77664
 H1684 H 0.56438 0.92483 0.76815
 H1685 H 0.51358 0.85453 0.80424
 H1686 H 0.50058 0.82569 0.81927
 H1687 H 0.55670 0.79669 0.80880
 H1688 H 0.56970 0.82573 0.79455
 C1689 C 0.71834 0.56334 0.06626
 C1690 C 0.71134 0.55322 0.08198
 C1691 C 0.71241 0.56087 0.10000
 C1692 C 0.72089 0.57875 0.10227
 C1693 C 0.72774 0.58904 0.08663
 C1694 C 0.72643 0.58177 0.06807
 N1695 N 0.70389 0.55068 0.11563
 N1696 N 0.70545 0.55627 0.13254
 C1697 C 0.69591 0.54673 0.14804
 C1698 C 0.69893 0.55314 0.16636
 C1699 C 0.68852 0.54523 0.18165
 C1700 C 0.67475 0.53087 0.17878
 C1701 C 0.67217 0.52407 0.16043
 C1702 C 0.68269 0.53189 0.14519
 H1703 H 0.71603 0.55692 0.05272
 H1704 H 0.70463 0.53948 0.08003
 H1705 H 0.72205 0.58491 0.11615
 H1706 H 0.73474 0.60239 0.08953
 H1707 H 0.70903 0.56462 0.16873
 H1708 H 0.69067 0.55085 0.19561
 H1709 H 0.66180 0.51287 0.15786
 H1710 H 0.68009 0.52668 0.13116
 C1711 C 0.22285 1.06317 0.57009
 C1712 C 0.21511 1.05361 0.58584
 C1713 C 0.22103 1.05829 0.60393
 C1714 C 0.23525 1.07238 0.60611
 C1715 C 0.24302 1.08194 0.59037
 C1716 C 0.23671 1.07762 0.57219
 N1717 N 0.21168 1.04922 0.61981
 N1718 N 0.21573 1.05329 0.63670
 C1719 C 0.20557 1.04480 0.65246
 C1720 C 0.20997 1.05062 0.67068
 C1721 C 0.19919 1.04376 0.68626
 C1722 C 0.18377 1.03094 0.68383
 C1723 C 0.17985 1.02464 0.66555
 C1724 C 0.19062 1.03150 0.65001
 H1725 H 0.21750 1.05966 0.55633
 H1726 H 0.20410 1.04284 0.58399
 H1727 H 0.24011 1.07620 0.61996
 H1728 H 0.25391 1.09278 0.59243
 H1729 H 0.22142 1.06090 0.67275
 H1730 H 0.20245 1.04902 0.70013
 H1731 H 0.16829 1.01452 0.66325
 H1732 H 0.18700 1.02669 0.63608
 C1733 C 0.20653 0.91093 0.91625
 C1734 C 0.19832 0.91948 0.90047
 C1735 C 0.20148 0.93865 0.89637
 C1736 C 0.21280 0.94946 0.90844
 C1737 C 0.22076 0.94108 0.92457
 C1738 C 0.21799 0.92147 0.92885
 N1739 N 0.19262 0.94669 0.88002
 N1740 N 0.19739 0.96270 0.87292
 C1741 C 0.18774 0.96998 0.85661
 C1742 C 0.19657 0.98434 0.84576
 C1743 C 0.18791 0.99075 0.82914
 C1744 C 0.17006 0.98305 0.82328
 C1745 C 0.16090 0.96917 0.83469
 C1746 C 0.16971 0.96259 0.85106
 H1747 H 0.20267 0.89625 0.91890
 H1748 H 0.18934 0.91109 0.89136
 H1749 H 0.21542 0.96438 0.90548
 H1750 H 0.22987 0.95000 0.93298
 H1751 H 0.21047 0.99018 0.84990
 H1752 H 0.19547 1.00134 0.82067
 H1753 H 0.14686 0.96334 0.83100
 H1754 H 0.16240 0.95172 0.85938
 C1755 C 0.72837 0.44788 0.41597
 C1756 C 0.72077 0.45684 0.40000
 C1757 C 0.70452 0.44930 0.39106
 C1758 C 0.69594 0.43259 0.39827
 C1759 C 0.70363 0.42353 0.41406
 C1760 C 0.71994 0.43105 0.42305
 N1761 N 0.69715 0.45854 0.37457
 N1762 N 0.68118 0.45334 0.36730
 C1763 C 0.67354 0.46171 0.35053
 C1764 C 0.65502 0.45612 0.34472
 C1765 C 0.64730 0.46327 0.32805
 C1766 C 0.65812 0.47605 0.31670
 C1767 C 0.67666 0.48189 0.32273
 C1768 C 0.68432 0.47479 0.33954
 H1769 H 0.74103 0.45388 0.42258
 H1770 H 0.72756 0.46966 0.39456
 H1771 H 0.68339 0.42643 0.39161
 H1772 H 0.69672 0.41071 0.41935
 H1773 H 0.64656 0.44610 0.35312
 H1774 H 0.63280 0.45880 0.32409
 H1775 H 0.68543 0.49158 0.31424
 H1776 H 0.69874 0.47924 0.34374
 C1777 C 0.78810 0.45282 0.55683
 C1778 C 0.79390 0.46284 0.57266
 C1779 C 0.78375 0.46075 0.58992
 C1780 C 0.76718 0.44903 0.59107
 C1781 C 0.76123 0.43914 0.57519
 C1782 C 0.77187 0.44067 0.55800
 N1783 N 0.79126 0.46987 0.60617
 N1784 N 0.78421 0.46701 0.62271
 C1785 C 0.79255 0.47556 0.63889
 C1786 C 0.78579 0.47011 0.65686
 C1787 C 0.79486 0.47689 0.67291
 C1788 C 0.81085 0.48932 0.67121
 C1789 C 0.81709 0.49532 0.65314
 C1790 C 0.80809 0.48847 0.63713
 H1791 H 0.79642 0.45441 0.54371
 H1792 H 0.80667 0.47185 0.57160
 H1793 H 0.75910 0.44721 0.60429
 H1794 H 0.74877 0.42976 0.57650
 H1795 H 0.77386 0.46013 0.65840
 H1796 H 0.78981 0.47184 0.68660
 H1797 H 0.82909 0.50519 0.65135
 H1798 H 0.81350 0.49302 0.62339
 C1799 C 0.25424 -0.06926 0.08282
 C1800 C 0.25964 -0.06035 0.09947
 C1801 C 0.27746 -0.05067 0.10024
 C1802 C 0.28965 -0.04956 0.08395
 C1803 C 0.28435 -0.05857 0.06738
 C1804 C 0.26674 -0.06875 0.06671
 N1805 N 0.28343 -0.04304 0.11785
 N1806 N 0.29915 -0.03354 0.11906
 C1807 C 0.30619 -0.02667 0.13656
 C1808 C 0.32323 -0.01578 0.13628
 C1809 C 0.33155 -0.01010 0.15306
 C1810 C 0.32302 -0.01535 0.17055
 C1811 C 0.30553 -0.02583 0.17081
 C1812 C 0.29717 -0.03148 0.15395
 H1813 H 0.24068 -0.07715 0.08275
 H1814 H 0.25015 -0.06137 0.11192
 H1815 H 0.30350 -0.04216 0.08415
 H1816 H 0.29415 -0.05778 0.05511
 H1817 H 0.33028 -0.01196 0.12297
 H1818 H 0.34480 -0.00171 0.15235
 H1819 H 0.29869 -0.03021 0.18404
 H1820 H 0.28401 -0.03998 0.15451
 C1821 C 0.31012 0.07302 0.43028
 C1822 C 0.31647 0.06460 0.41332
 C1823 C 0.30331 0.06222 0.39873
 C1824 C 0.28350 0.06809 0.40139
 C1825 C 0.27714 0.07668 0.41832
 C1826 C 0.29044 0.07945 0.43290
 N1827 N 0.31075 0.05477 0.38113
 N1828 N 0.29966 0.05063 0.36762
 C1829 C 0.30780 0.04414 0.34987
 C1830 C 0.29525 0.03717 0.33624
 C1831 C 0.30286 0.03135 0.31859
 C1832 C 0.32312 0.03278 0.31426
 C1833 C 0.33566 0.03966 0.32799
 C1834 C 0.32812 0.04520 0.34565
 H1835 H 0.32068 0.07460 0.44130
 H1836 H 0.33177 0.06010 0.41143
 H1837 H 0.27309 0.06652 0.39024
 H1838 H 0.26196 0.08169 0.41974
 H1839 H 0.27955 0.03633 0.33929
 H1840 H 0.29290 0.02613 0.30821
 H1841 H 0.35138 0.04066 0.32508
 H1842 H 0.33814 0.05058 0.35588
 C1843 C 0.79644 0.57440 0.92910
 C1844 C 0.80300 0.56505 0.91271
 C1845 C 0.79035 0.56282 0.89771
 C1846 C 0.77076 0.56968 0.89940
 C1847 C 0.76419 0.57920 0.91578
 C1848 C 0.77707 0.58194 0.93070
 N1849 N 0.79825 0.55476 0.88056
 N1850 N 0.78768 0.55063 0.86667
 C1851 C 0.79653 0.54383 0.84933
 C1852 C 0.78457 0.53683 0.83524
 C1853 C 0.79288 0.53114 0.81782
 C1854 C 0.81325 0.53278 0.81421
 C1855 C 0.82523 0.53953 0.82845
 C1856 C 0.81699 0.54491 0.84587
 H1857 H 0.80662 0.57589 0.94045
 H1858 H 0.81812 0.55979 0.91156
 H1859 H 0.76077 0.56822 0.88789
 H1860 H 0.74926 0.58499 0.91647
 H1861 H 0.76878 0.53598 0.83770
 H1862 H 0.78339 0.52602 0.80700
 H1863 H 0.84100 0.54074 0.82603
 H1864 H 0.82657 0.55032 0.85647
 C1865 C 0.09098 0.74158 0.58923
 C1866 C 0.10774 0.73370 0.58011
 C1867 C 0.10599 0.71908 0.56694
 C1868 C 0.08712 0.71285 0.56241
 C1869 C 0.07030 0.72081 0.57144
 C1870 C 0.07211 0.73499 0.58522
 N1871 N 0.12359 0.71017 0.55921
 N1872 N 0.12321 0.69590 0.54819
 C1873 C 0.14091 0.68654 0.54121
 C1874 C 0.13941 0.67042 0.52979
 C1875 C 0.15635 0.66025 0.52372
 C1876 C 0.17516 0.66608 0.52897
 C1877 C 0.17664 0.68252 0.54012
 C1878 C 0.15967 0.69265 0.54622
 H1879 H 0.09279 0.75265 0.59961
 H1880 H 0.12220 0.73865 0.58368
 H1881 H 0.08539 0.70156 0.55225
 H1882 H 0.05596 0.71536 0.56819
 H1883 H 0.12504 0.66558 0.52582
 H1884 H 0.15475 0.64781 0.51492
 H1885 H 0.19088 0.68725 0.54456
 H1886 H 0.16123 0.70504 0.55509
 C1887 C 0.59108 0.22807 1.08827
 C1888 C 0.60829 0.22029 1.07992
 C1889 C 0.60764 0.21063 1.06278
 C1890 C 0.58954 0.20916 1.05377
 C1891 C 0.57230 0.21713 1.06201
 C1892 C 0.57282 0.22656 1.07946
 N1893 N 0.62546 0.20204 1.05518
 N1894 N 0.62572 0.19104 1.04095
 C1895 C 0.64366 0.18222 1.03386
 C1896 C 0.64267 0.16794 1.02020
 C1897 C 0.65979 0.15816 1.01393
 C1898 C 0.67823 0.16271 1.02109
 C1899 C 0.67927 0.17746 1.03437
 C1900 C 0.66212 0.18708 1.04078
 H1901 H 0.59204 0.23485 1.10187
 H1902 H 0.62214 0.22141 1.08704
 H1903 H 0.58871 0.20183 1.04043
 H1904 H 0.55858 0.21594 1.05470
 H1905 H 0.62854 0.16410 1.01473
 H1906 H 0.65862 0.14697 1.00356
 H1907 H 0.69327 0.18115 1.04022
 H1908 H 0.66327 0.19811 1.05131
 C1909 C 0.89937 0.23185 0.90135
 C1910 C 0.88343 0.22341 0.91070
 C1911 C 0.88560 0.21515 0.92839
 C1912 C 0.90387 0.21594 0.93706
 C1913 C 0.91996 0.22442 0.92779
 C1914 C 0.91832 0.23222 0.90938
 N1915 N 0.86919 0.20538 0.93670
 N1916 N 0.86961 0.19740 0.95281
 C1917 C 0.85306 0.18700 0.96008
 C1918 C 0.85376 0.17894 0.97813
 C1919 C 0.83819 0.16788 0.98509
 C1920 C 0.82177 0.16457 0.97396
 C1921 C 0.82098 0.17297 0.95601
 C1922 C 0.83643 0.18409 0.94914
 H1923 H 0.89625 0.23861 0.88805
 H1924 H 0.86927 0.22317 0.90401
 H1925 H 0.90589 0.20953 0.95078
 H1926 H 0.93385 0.22352 0.93486
 H1927 H 0.86651 0.18102 0.98669
 H1928 H 0.83922 0.16148 0.99893
 H1929 H 0.80838 0.17090 0.94724
 H1930 H 0.83548 0.19016 0.93515
 C1931 C 0.40103 0.73570 0.41301
 C1932 C 0.38435 0.72832 0.42212
 C1933 C 0.38627 0.71622 0.43767
 C1934 C 0.40516 0.71190 0.44438
 C1935 C 0.42191 0.71920 0.43521
 C1936 C 0.42005 0.73094 0.41922
 N1937 N 0.36892 0.70769 0.44561
 N1938 N 0.36916 0.69732 0.46034
 C1939 C 0.35177 0.68806 0.46731
 C1940 C 0.35232 0.67820 0.48447
 C1941 C 0.33592 0.66807 0.49102
 C1942 C 0.31881 0.66747 0.48032
 C1943 C 0.31819 0.67763 0.46327
 C1944 C 0.33448 0.68790 0.45684
 H1945 H 0.39905 0.74500 0.40097
 H1946 H 0.36986 0.73178 0.41686
 H1947 H 0.40700 0.70248 0.45635
 H1948 H 0.43634 0.71511 0.44023
 H1949 H 0.36558 0.67814 0.49263
 H1950 H 0.33682 0.66022 0.50414
 H1951 H 0.30511 0.67755 0.45485
 H1952 H 0.33368 0.69538 0.44351
 C1953 C 0.56949 0.77555 0.43408
 C1954 C 0.58670 0.78132 0.44271
 C1955 C 0.59990 0.79334 0.43321
 C1956 C 0.59582 0.79934 0.41480
 C1957 C 0.57870 0.79359 0.40617
 C1958 C 0.56523 0.78177 0.41576
 N1959 N 0.61706 0.79965 0.44256
 N1960 N 0.62886 0.81131 0.43467
 C1961 C 0.64592 0.81834 0.44358
 C1962 C 0.65705 0.83217 0.43417
 C1963 C 0.67327 0.84012 0.44265
 C1964 C 0.67873 0.83425 0.46075
 C1965 C 0.66784 0.81999 0.47004
 C1966 C 0.65147 0.81214 0.46156
 H1967 H 0.55934 0.76654 0.44187
 H1968 H 0.58964 0.77662 0.45691
 H1969 H 0.60583 0.80855 0.40707
 H1970 H 0.57607 0.79830 0.39191
 H1971 H 0.65295 0.83700 0.42029
 H1972 H 0.68157 0.85087 0.43506
 H1973 H 0.67168 0.81530 0.48404
 H1974 H 0.64307 0.80143 0.46909
 C1975 C 0.07483 0.29969 -0.10582
 C1976 C 0.09205 0.30598 -0.09776
 C1977 C 0.09664 0.30069 -0.07939
 C1978 C 0.08385 0.28874 -0.06912
 C1979 C 0.06652 0.28244 -0.07717
 C1980 C 0.06173 0.28802 -0.09557
 N1981 N 0.11402 0.30821 -0.07146
 N1982 N 0.11989 0.30372 -0.05514
 C1983 C 0.13705 0.31216 -0.04758
 C1984 C 0.14362 0.30622 -0.02995
 C1985 C 0.15988 0.31481 -0.02199
 C1986 C 0.16968 0.32963 -0.03153
 C1987 C 0.16322 0.33535 -0.04934
 C1988 C 0.14710 0.32670 -0.05732
 H1989 H 0.07182 0.30391 -0.12015
 H1990 H 0.10184 0.31513 -0.10582
 H1991 H 0.08709 0.28453 -0.05484
 H1992 H 0.05667 0.27358 -0.06887
 H1993 H 0.13599 0.29507 -0.02229
 H1994 H 0.16449 0.31022 -0.00819
 H1995 H 0.17066 0.34654 -0.05713
 H1996 H 0.14236 0.33155 -0.07099
 C1997 C 0.42599 0.28391 0.06129
 C1998 C 0.40888 0.28970 0.05209
 C1999 C 0.39068 0.29057 0.06184
 C2000 C 0.38965 0.28512 0.08088
 C2001 C 0.40668 0.27919 0.09005
 C2002 C 0.42511 0.27874 0.08045
 N2003 N 0.37362 0.29754 0.05232
 N2004 N 0.35726 0.30083 0.06104
 C2005 C 0.34023 0.30823 0.05177
 C2006 C 0.32383 0.31428 0.06270
 C2007 C 0.30745 0.32275 0.05424
 C2008 C 0.30711 0.32511 0.03457
 C2009 C 0.32339 0.31840 0.02358
 C2010 C 0.33985 0.31013 0.03210
 H2011 H 0.43995 0.28394 0.05352
 H2012 H 0.40987 0.29391 0.03742
 H2013 H 0.37571 0.28552 0.08870
 H2014 H 0.40538 0.27491 0.10468
 H2015 H 0.32398 0.31292 0.07788
 H2016 H 0.29536 0.32799 0.06319
 H2017 H 0.32348 0.31963 0.00838
 H2018 H 0.35230 0.30538 0.02333
 C2019 C 0.90826 0.79253 0.60548
 C2020 C 0.89056 0.79812 0.59729
 C2021 C 0.88745 0.79445 0.57828
 C2022 C 0.90215 0.78468 0.56754
 C2023 C 0.91986 0.77896 0.57576
 C2024 C 0.92319 0.78305 0.59477
 N2025 N 0.86955 0.80141 0.57020
 N2026 N 0.86602 0.79964 0.55280
 C2027 C 0.84831 0.80734 0.54490
 C2028 C 0.84600 0.80644 0.52541
 C2029 C 0.82959 0.81510 0.51714
 C2030 C 0.81513 0.82475 0.52829
 C2031 C 0.81719 0.82511 0.54793
 C2032 C 0.83364 0.81653 0.55616
 H2033 H 0.91027 0.79560 0.62023
 H2034 H 0.87933 0.80560 0.60571
 H2035 H 0.90006 0.78170 0.55280
 H2036 H 0.93114 0.77178 0.56715
 H2037 H 0.85717 0.79936 0.51658
 H2038 H 0.82829 0.81441 0.50200
 H2039 H 0.80643 0.83262 0.55687
 H2040 H 0.83507 0.81744 0.57127
   
