data_POSCAR
  _audit_creation_date              2014-09-24
  _audit_creation_method            'ToBaCCo'
  _symmetry_space_group_name_H-M    'P1'
  _symmetry_Int_Tables_number       1
  _symmetry_cell_setting            triclinic
  loop_
  _symmetry_equiv_pos_as_xyz
 x,y,z
_cell_length_a 81.5819
_cell_length_b 81.0792
_cell_length_c 82.0226
_cell_angle_alpha 90.046900
_cell_angle_beta 89.945100
_cell_angle_gamma 89.908800
loop_
  _atom_site_label
  _atom_site_type_symbol
  _atom_site_fract_x
  _atom_site_fract_y
  _atom_site_fract_z
C1 C 0.35618 0.33201 0.34449
 C2 C 0.34405 0.33216 0.35660
 C3 C 0.33212 0.34435 0.35661
 C4 C 0.33219 0.35655 0.34450
 C5 C 0.34419 0.35640 0.33252
 C6 C 0.35625 0.34406 0.33252
 C7 C 0.36892 0.32136 0.34115
 N8 N 0.37661 0.32674 0.32752
 C9 C 0.36903 0.34055 0.32209
 C10 C 0.34091 0.36928 0.32208
 N11 N 0.32730 0.37713 0.32751
 C12 C 0.32181 0.36952 0.34115
 C13 C 0.32165 0.34110 0.36939
 N14 N 0.32701 0.32731 0.37702
 C15 C 0.34063 0.32169 0.36937
 H16 H 0.37221 0.31040 0.34794
 H17 H 0.37242 0.34735 0.31124
 H18 H 0.34772 0.37254 0.31122
 H19 H 0.31095 0.37301 0.34793
 H20 H 0.31081 0.34806 0.37273
 H21 H 0.34736 0.31067 0.37270
 C22 C 0.35808 0.83387 -0.15427
 C23 C 0.34590 0.83382 -0.14220
 C24 C 0.33385 0.84589 -0.14218
 C25 C 0.33384 0.85816 -0.15422
 C26 C 0.34588 0.85820 -0.16616
 C27 C 0.35807 0.84599 -0.16618
 C28 C 0.37085 0.82328 -0.15770
 N29 N 0.37846 0.82877 -0.17133
 C30 C 0.37082 0.84258 -0.17668
 C31 C 0.34243 0.87101 -0.17663
 N32 N 0.32866 0.87863 -0.17125
 C33 C 0.32324 0.87094 -0.15762
 C34 C 0.32329 0.84240 -0.12954
 N35 N 0.32872 0.82859 -0.12200
 C36 C 0.34247 0.82318 -0.12957
 H37 H 0.37413 0.81224 -0.15102
 H38 H 0.37408 0.84941 -0.18756
 H39 H 0.34919 0.87431 -0.18752
 H40 H 0.31225 0.87418 -0.15092
 H41 H 0.31233 0.84918 -0.12625
 H42 H 0.34926 0.81218 -0.12632
 C43 C 0.85600 0.33192 -0.15632
 C44 C 0.84385 0.33196 -0.14422
 C45 C 0.83178 0.34401 -0.14428
 C46 C 0.83171 0.35615 -0.15645
 C47 C 0.84372 0.35610 -0.16841
 C48 C 0.85594 0.34392 -0.16835
 C49 C 0.86887 0.32140 -0.15960
 N50 N 0.87649 0.32682 -0.17325
 C51 C 0.86876 0.34052 -0.17876
 C52 C 0.84031 0.36890 -0.17891
 N53 N 0.82659 0.37660 -0.17351
 C54 C 0.82117 0.36898 -0.15985
 C55 C 0.82133 0.34069 -0.13150
 N56 N 0.82685 0.32701 -0.12380
 C57 C 0.84055 0.32152 -0.13140
 H58 H 0.87226 0.31050 -0.15275
 H59 H 0.87206 0.34731 -0.18964
 H60 H 0.84711 0.37221 -0.18977
 H61 H 0.81026 0.37234 -0.15308
 H62 H 0.81041 0.34753 -0.12820
 H63 H 0.84742 0.31061 -0.12800
 C64 C 0.85828 0.83439 0.34620
 C65 C 0.84615 0.83435 0.35832
 C66 C 0.83410 0.84642 0.35839
 C67 C 0.83404 0.85868 0.34634
 C68 C 0.84603 0.85871 0.33435
 C69 C 0.85822 0.84650 0.33428
 C70 C 0.87101 0.82377 0.34270
 N71 N 0.87856 0.82925 0.32902
 C72 C 0.87090 0.84307 0.32371
 C73 C 0.84252 0.87150 0.32387
 N74 N 0.82877 0.87912 0.32930
 C75 C 0.82342 0.87145 0.34296
 C76 C 0.82358 0.84292 0.37106
 N77 N 0.82903 0.82910 0.37857
 C78 C 0.84276 0.82370 0.37095
 H79 H 0.87431 0.81273 0.34936
 H80 H 0.87411 0.84988 0.31281
 H81 H 0.84922 0.87478 0.31294
 H82 H 0.81244 0.87468 0.34970
 H83 H 0.81263 0.84969 0.37438
 H84 H 0.84955 0.81269 0.37416
 C85 C 0.64388 0.66906 0.34443
 C86 C 0.65605 0.66906 0.35649
 C87 C 0.66800 0.65689 0.35654
 C88 C 0.66792 0.64458 0.34452
 C89 C 0.65589 0.64458 0.33260
 C90 C 0.64380 0.65689 0.33256
 C91 C 0.63110 0.67964 0.34108
 N92 N 0.62338 0.67410 0.32754
 C93 C 0.63097 0.66026 0.32218
 C94 C 0.65914 0.63158 0.32228
 N95 N 0.67277 0.62380 0.32772
 C96 C 0.67830 0.63157 0.34125
 C97 C 0.67848 0.66025 0.36927
 N98 N 0.67310 0.67408 0.37684
 C99 C 0.65946 0.67963 0.36920
 H100 H 0.62780 0.69065 0.34780
 H101 H 0.62756 0.65334 0.31141
 H102 H 0.65228 0.62816 0.31149
 H103 H 0.68917 0.62815 0.34802
 H104 H 0.68931 0.65332 0.37264
 H105 H 0.65269 0.69064 0.37250
 C106 C 0.64325 0.16818 -0.15564
 C107 C 0.65545 0.16831 -0.14360
 C108 C 0.66760 0.15634 -0.14366
 C109 C 0.66770 0.14411 -0.15575
 C110 C 0.65565 0.14398 -0.16765
 C111 C 0.64336 0.15609 -0.16759
 C112 C 0.63029 0.17857 -0.15890
 N113 N 0.62265 0.17298 -0.17247
 C114 C 0.63046 0.15930 -0.17794
 C115 C 0.65910 0.13111 -0.17808
 N116 N 0.67288 0.12354 -0.17270
 C117 C 0.67830 0.13131 -0.15912
 C118 C 0.67805 0.15981 -0.13094
 N119 N 0.67246 0.17351 -0.12328
 C120 C 0.65871 0.17886 -0.13085
 H121 H 0.62683 0.18949 -0.15210
 H122 H 0.62716 0.15239 -0.18876
 H123 H 0.65227 0.12767 -0.18888
 H124 H 0.68925 0.12805 -0.15238
 H125 H 0.68902 0.15306 -0.12765
 H126 H 0.65177 0.18974 -0.12747
 C127 C 0.14208 0.66736 -0.15411
 C128 C 0.15431 0.66747 -0.14210
 C129 C 0.16632 0.65536 -0.14206
 C130 C 0.16625 0.64300 -0.15403
 C131 C 0.15416 0.64289 -0.16590
 C132 C 0.14201 0.65513 -0.16594
 C133 C 0.12931 0.67793 -0.15751
 N134 N 0.12161 0.67233 -0.17104
 C135 C 0.12920 0.65847 -0.17636
 C136 C 0.15750 0.62992 -0.17626
 N137 N 0.17123 0.62228 -0.17086
 C138 C 0.17675 0.63010 -0.15735
 C139 C 0.17689 0.65888 -0.12945
 N140 N 0.17150 0.67275 -0.12195
 C141 C 0.15777 0.67816 -0.12952
 H142 H 0.12607 0.68902 -0.15087
 H143 H 0.12585 0.65154 -0.18715
 H144 H 0.15065 0.62649 -0.18704
 H145 H 0.18771 0.62684 -0.15064
 H146 H 0.18781 0.65206 -0.12615
 H147 H 0.15100 0.68918 -0.12627
 C148 C 0.14258 0.16758 0.34565
 C149 C 0.15476 0.16757 0.35769
 C150 C 0.16671 0.15540 0.35772
 C151 C 0.16661 0.14309 0.34570
 C152 C 0.15456 0.14309 0.33379
 C153 C 0.14247 0.15540 0.33377
 C154 C 0.12985 0.17822 0.34227
 N155 N 0.12215 0.17271 0.32870
 C156 C 0.12969 0.15883 0.32335
 C157 C 0.15784 0.13014 0.32341
 N158 N 0.17152 0.12240 0.32881
 C159 C 0.17704 0.13014 0.34237
 C160 C 0.17725 0.15880 0.37038
 N161 N 0.17191 0.17267 0.37793
 C162 C 0.15823 0.17818 0.37034
 H163 H 0.12664 0.18929 0.34896
 H164 H 0.12632 0.15195 0.31253
 H165 H 0.15100 0.12678 0.31260
 H166 H 0.18796 0.12677 0.34911
 H167 H 0.18812 0.15191 0.37370
 H168 H 0.15150 0.18922 0.37362
 C169 C 0.64304 0.33190 0.65421
 C170 C 0.65532 0.33182 0.64224
 C171 C 0.66745 0.34377 0.64241
 C172 C 0.66744 0.35595 0.65456
 C173 C 0.65530 0.35603 0.66639
 C174 C 0.64303 0.34394 0.66622
 C175 C 0.63010 0.32150 0.65738
 N176 N 0.62235 0.32702 0.67094
 C177 C 0.63008 0.34068 0.67649
 C178 C 0.65866 0.36885 0.67689
 N179 N 0.67247 0.37643 0.67164
 C180 C 0.67799 0.36871 0.65805
 C181 C 0.67801 0.34033 0.62974
 N182 N 0.67251 0.32667 0.62200
 C183 C 0.65870 0.32131 0.62947
 H184 H 0.62672 0.31060 0.65054
 H185 H 0.62668 0.34752 0.68732
 H186 H 0.65177 0.37225 0.68768
 H187 H 0.68898 0.37199 0.65140
 H188 H 0.68899 0.34708 0.62654
 H189 H 0.65182 0.31044 0.62602
 C190 C 0.64335 0.83112 1.15570
 C191 C 0.65549 0.83102 1.14358
 C192 C 0.66753 0.84305 1.14351
 C193 C 0.66758 0.85533 1.15556
 C194 C 0.65559 0.85544 1.16754
 C195 C 0.64340 0.84326 1.16761
 C196 C 0.63050 0.82067 1.15908
 N197 N 0.62287 0.82627 1.17268
 C198 C 0.63058 0.84001 1.17805
 C199 C 0.65897 0.86838 1.17788
 N200 N 0.67266 0.87601 1.17239
 C201 C 0.67807 0.86821 1.15881
 C202 C 0.67794 0.83961 1.13072
 N203 N 0.67243 0.82586 1.12314
 C204 C 0.65877 0.82045 1.13083
 H205 H 0.62711 0.80970 1.15233
 H206 H 0.62727 0.84695 1.18886
 H207 H 0.65218 0.87184 1.18870
 H208 H 0.68896 0.87151 1.15199
 H209 H 0.68883 0.84642 1.12732
 H210 H 0.65191 0.80952 1.12753
 C211 C 0.14245 0.33266 1.15448
 C212 C 0.15462 0.33250 1.14239
 C213 C 0.16667 0.34453 1.14230
 C214 C 0.16670 0.35686 1.15430
 C215 C 0.15467 0.35702 1.16624
 C216 C 0.14248 0.34485 1.16634
 C217 C 0.12961 0.32221 1.15789
 N218 N 0.12196 0.32786 1.17146
 C219 C 0.12966 0.34163 1.17679
 C220 C 0.15806 0.36998 1.17656
 N221 N 0.17177 0.37757 1.17109
 C222 C 0.17721 0.36972 1.15754
 C223 C 0.17714 0.34100 1.12959
 N224 N 0.17167 0.32719 1.12207
 C225 C 0.15797 0.32184 1.12973
 H226 H 0.12624 0.31120 1.15120
 H227 H 0.12634 0.34859 1.18758
 H228 H 0.15125 0.37348 1.18737
 H229 H 0.18812 0.37298 1.15075
 H230 H 0.18806 0.34777 1.12622
 H231 H 0.15113 0.31088 1.12648
 C232 C 0.14350 0.83276 0.65555
 C233 C 0.15567 0.83267 0.64347
 C234 C 0.16771 0.84471 0.64345
 C235 C 0.16772 0.85698 0.65551
 C236 C 0.15568 0.85707 0.66745
 C237 C 0.14350 0.84489 0.66747
 C238 C 0.13066 0.82230 0.65890
 N239 N 0.12297 0.82786 0.67247
 C240 C 0.13065 0.84161 0.67787
 C241 C 0.15904 0.86999 0.67783
 N242 N 0.17275 0.87762 0.67238
 C243 C 0.17822 0.86984 0.65880
 C244 C 0.17817 0.84127 0.63070
 N245 N 0.17269 0.82751 0.62310
 C246 C 0.15900 0.82210 0.63074
 H247 H 0.12729 0.81133 0.65215
 H248 H 0.12729 0.84851 0.68868
 H249 H 0.15221 0.87343 0.68864
 H250 H 0.18913 0.87313 0.65202
 H251 H 0.18907 0.84808 0.62734
 H252 H 0.15216 0.81117 0.62742
 C253 C 0.35680 0.66755 0.65472
 C254 C 0.34461 0.66763 0.64268
 C255 C 0.33251 0.65564 0.64274
 C256 C 0.33246 0.64345 0.65485
 C257 C 0.34451 0.64338 0.66675
 C258 C 0.35674 0.65550 0.66669
 C259 C 0.36969 0.67799 0.65800
 N260 N 0.37734 0.67247 0.67160
 C261 C 0.36959 0.65879 0.67706
 C262 C 0.34109 0.63056 0.67721
 N263 N 0.32735 0.62295 0.67187
 C264 C 0.32191 0.63066 0.65827
 C265 C 0.32203 0.65909 0.63004
 N266 N 0.32754 0.67279 0.62239
 C267 C 0.34128 0.67817 0.62994
 H268 H 0.37310 0.68890 0.65121
 H269 H 0.37291 0.65194 0.68790
 H270 H 0.34790 0.62718 0.68804
 H271 H 0.31097 0.62736 0.65155
 H272 H 0.31107 0.65233 0.62677
 H273 H 0.34815 0.68906 0.62657
 C274 C 0.35597 0.16730 1.15610
 C275 C 0.34386 0.16740 1.14398
 C276 C 0.33181 0.15537 1.14390
 C277 C 0.33174 0.14309 1.15593
 C278 C 0.34372 0.14299 1.16791
 C279 C 0.35590 0.15517 1.16799
 C280 C 0.36881 0.17776 1.15950
 N281 N 0.37641 0.17220 1.17310
 C282 C 0.36869 0.15845 1.17844
 C283 C 0.34030 0.13007 1.17826
 N284 N 0.32661 0.12245 1.17276
 C285 C 0.32122 0.13024 1.15918
 C286 C 0.32141 0.15882 1.13114
 N287 N 0.32692 0.17258 1.12358
 C288 C 0.34058 0.17798 1.13126
 H289 H 0.37221 0.18873 1.15278
 H290 H 0.37199 0.15155 1.18925
 H291 H 0.34706 0.12664 1.18910
 H292 H 0.31033 0.12697 1.15236
 H293 H 0.31052 0.15201 1.12774
 H294 H 0.34744 0.18891 1.12798
 C295 C 0.85740 0.66655 1.15397
 C296 C 0.84524 0.66660 1.14190
 C297 C 0.83324 0.65452 1.14187
 C298 C 0.83326 0.64225 1.15391
 C299 C 0.84528 0.64220 1.16584
 C300 C 0.85742 0.65442 1.16587
 C301 C 0.87016 0.67710 1.15737
 N302 N 0.87782 0.67159 1.17096
 C303 C 0.87020 0.65779 1.17631
 C304 C 0.84188 0.62933 1.17625
 N305 N 0.82818 0.62168 1.17085
 C306 C 0.82275 0.62942 1.15726
 C307 C 0.82273 0.65798 1.12920
 N308 N 0.82814 0.67178 1.12164
 C309 C 0.84184 0.67721 1.12925
 H310 H 0.87347 0.68810 1.15066
 H311 H 0.87354 0.65093 1.18713
 H312 H 0.84865 0.62596 1.18710
 H313 H 0.81180 0.62615 1.15054
 H314 H 0.81182 0.65117 1.12588
 H315 H 0.84861 0.68819 1.12597
 C316 C 0.85622 0.16869 0.65598
 C317 C 0.84413 0.16860 0.64384
 C318 C 0.83211 0.15655 0.64390
 C319 C 0.83203 0.14444 0.65610
 C320 C 0.84397 0.14453 0.66809
 C321 C 0.85614 0.15672 0.66804
 C322 C 0.86905 0.17921 0.65927
 N323 N 0.87662 0.17382 0.67296
 C324 C 0.86890 0.16014 0.67848
 C325 C 0.84056 0.13174 0.67859
 N326 N 0.82691 0.12401 0.67318
 C327 C 0.82154 0.13160 0.65949
 C328 C 0.82173 0.15981 0.63107
 N329 N 0.82723 0.17347 0.62334
 C330 C 0.84087 0.17900 0.63097
 H331 H 0.87245 0.19009 0.65241
 H332 H 0.87217 0.15337 0.68938
 H333 H 0.84731 0.12845 0.68948
 H334 H 0.81069 0.12818 0.65269
 H335 H 0.81085 0.15294 0.62775
 H336 H 0.84772 0.18990 0.62756
 C337 C 0.33061 0.35499 0.65738
 C338 C 0.33072 0.34288 0.64516
 C339 C 0.34271 0.33075 0.64516
 C340 C 0.35472 0.33058 0.65737
 C341 C 0.35460 0.34254 0.66945
 C342 C 0.34248 0.35482 0.66946
 C343 C 0.32019 0.36795 0.66069
 N344 N 0.32553 0.37554 0.67439
 C345 C 0.33909 0.36768 0.67991
 C346 C 0.36736 0.33908 0.67989
 N347 N 0.37510 0.32539 0.67436
 C348 C 0.36755 0.32004 0.66066
 C349 C 0.33953 0.32042 0.63221
 N350 N 0.32599 0.32606 0.62448
 C351 C 0.32045 0.33973 0.63222
 H352 H 0.30943 0.37148 0.65379
 H353 H 0.34582 0.37097 0.69081
 H354 H 0.37067 0.34587 0.69078
 H355 H 0.37102 0.30920 0.65374
 H356 H 0.34638 0.30949 0.62881
 H357 H 0.30964 0.34669 0.62882
 C358 C 0.33236 0.85729 0.15489
 C359 C 0.33245 0.84510 0.14276
 C360 C 0.34449 0.83302 0.14276
 C361 C 0.35658 0.83299 0.15489
 C362 C 0.35649 0.84504 0.16689
 C363 C 0.34432 0.85726 0.16688
 C364 C 0.32182 0.87013 0.15827
 N365 N 0.32716 0.87778 0.17194
 C366 C 0.34085 0.87008 0.17736
 C367 C 0.36923 0.84161 0.17736
 N368 N 0.37694 0.82786 0.17194
 C369 C 0.36937 0.82243 0.15827
 C370 C 0.34119 0.82249 0.12999
 N371 N 0.32752 0.82798 0.12235
 C372 C 0.32203 0.84173 0.12999
 H373 H 0.31092 0.87347 0.15150
 H374 H 0.34756 0.87338 0.18827
 H375 H 0.37249 0.84842 0.18825
 H376 H 0.37276 0.81147 0.15149
 H377 H 0.34802 0.81153 0.12667
 H378 H 0.31112 0.84857 0.12666
 C379 C 0.83252 0.35568 0.15552
 C380 C 0.83254 0.34347 0.14340
 C381 C 0.84449 0.33130 0.14344
 C382 C 0.85657 0.33120 0.15560
 C383 C 0.85655 0.34327 0.16757
 C384 C 0.84446 0.35558 0.16753
 C385 C 0.82209 0.36862 0.15884
 N386 N 0.82748 0.37627 0.17249
 C387 C 0.84109 0.36846 0.17796
 C388 C 0.86929 0.33981 0.17803
 N389 N 0.87693 0.32601 0.17261
 C390 C 0.86932 0.32060 0.15896
 C391 C 0.84117 0.32082 0.13065
 N392 N 0.82757 0.32640 0.12296
 C393 C 0.82215 0.34019 0.13059
 H394 H 0.81124 0.37205 0.15203
 H395 H 0.84782 0.37175 0.18886
 H396 H 0.87262 0.34664 0.18888
 H397 H 0.87269 0.30965 0.15216
 H398 H 0.84795 0.30982 0.12732
 H399 H 0.81131 0.34712 0.12722
 C400 C 0.83281 0.85637 0.65575
 C401 C 0.83290 0.84420 0.64360
 C402 C 0.84505 0.83223 0.64346
 C403 C 0.85726 0.83230 0.65549
 C404 C 0.85717 0.84433 0.66750
 C405 C 0.84487 0.85643 0.66763
 C406 C 0.82221 0.86914 0.65921
 N407 N 0.82763 0.87684 0.67283
 C408 C 0.84142 0.86924 0.67813
 C409 C 0.87007 0.84105 0.67782
 N410 N 0.87787 0.82740 0.67229
 C411 C 0.87022 0.82189 0.65870
 C412 C 0.84177 0.82174 0.63067
 N413 N 0.82801 0.82712 0.62315
 C414 C 0.82243 0.84079 0.63088
 H415 H 0.81125 0.87243 0.65252
 H416 H 0.84824 0.87263 0.68895
 H417 H 0.87338 0.84789 0.68867
 H418 H 0.87368 0.81101 0.65185
 H419 H 0.84870 0.81087 0.62723
 H420 H 0.81145 0.84755 0.62764
 C421 C 0.66851 0.64512 0.65605
 C422 C 0.66852 0.65731 0.64394
 C423 C 0.65656 0.66947 0.64396
 C424 C 0.64444 0.66958 0.65609
 C425 C 0.64442 0.65752 0.66806
 C426 C 0.65653 0.64522 0.66804
 C427 C 0.67890 0.63214 0.65935
 N428 N 0.67344 0.62449 0.67298
 C429 C 0.65983 0.63232 0.67844
 C430 C 0.63160 0.66095 0.67846
 N431 N 0.62395 0.67471 0.67302
 C432 C 0.63163 0.68014 0.65941
 C433 C 0.65989 0.67990 0.63114
 N434 N 0.67351 0.67430 0.62346
 C435 C 0.67894 0.66055 0.63111
 H436 H 0.68975 0.62867 0.65254
 H437 H 0.65302 0.62900 0.68929
 H438 H 0.62820 0.65410 0.68928
 H439 H 0.62826 0.69106 0.65259
 H440 H 0.65310 0.69087 0.62779
 H441 H 0.68977 0.65360 0.62774
 C442 C 0.66801 0.14335 0.15478
 C443 C 0.66798 0.15568 0.14280
 C444 C 0.65597 0.16778 0.14293
 C445 C 0.64383 0.16769 0.15505
 C446 C 0.64385 0.15551 0.16689
 C447 C 0.65601 0.14327 0.16675
 C448 C 0.67848 0.13042 0.15798
 N449 N 0.67305 0.12260 0.17152
 C450 C 0.65938 0.13028 0.17704
 C451 C 0.63105 0.15880 0.17736
 N452 N 0.62337 0.17262 0.17208
 C453 C 0.63101 0.17821 0.15851
 C454 C 0.65928 0.17840 0.13026
 N455 N 0.67294 0.17295 0.12255
 C456 C 0.67841 0.15913 0.13005
 H457 H 0.68937 0.12709 0.15115
 H458 H 0.65259 0.12683 0.18785
 H459 H 0.62773 0.15187 0.18814
 H460 H 0.62764 0.18922 0.15185
 H461 H 0.65246 0.18938 0.12703
 H462 H 0.68929 0.15228 0.12661
 C463 C 0.16808 0.64531 0.15572
 C464 C 0.16807 0.65764 0.14374
 C465 C 0.15611 0.66980 0.14393
 C466 C 0.14403 0.66978 0.15610
 C467 C 0.14404 0.65759 0.16794
 C468 C 0.15614 0.64528 0.16774
 C469 C 0.17847 0.63229 0.15883
 N470 N 0.17303 0.62447 0.17237
 C471 C 0.15944 0.63224 0.17797
 C472 C 0.13125 0.66089 0.17841
 N473 N 0.12358 0.67471 0.17314
 C474 C 0.13122 0.68030 0.15957
 C475 C 0.15939 0.68036 0.13120
 N476 N 0.17297 0.67483 0.12341
 C477 C 0.17842 0.66100 0.13090
 H478 H 0.18928 0.62888 0.15193
 H479 H 0.15265 0.62878 0.18879
 H480 H 0.12788 0.65392 0.18915
 H481 H 0.12783 0.69130 0.15288
 H482 H 0.15258 0.69136 0.12797
 H483 H 0.18922 0.65407 0.12740
 C484 C 0.16810 0.14405 0.65583
 C485 C 0.16808 0.15632 0.64379
 C486 C 0.15605 0.16841 0.64385
 C487 C 0.14390 0.16837 0.65595
 C488 C 0.14392 0.15624 0.66785
 C489 C 0.15609 0.14401 0.66779
 C490 C 0.17857 0.13113 0.65907
 N491 N 0.17312 0.12335 0.67263
 C492 C 0.15944 0.13106 0.67811
 C493 C 0.13108 0.15956 0.67826
 N494 N 0.12338 0.17333 0.67290
 C495 C 0.13105 0.17887 0.65932
 C496 C 0.15936 0.17895 0.63111
 N497 N 0.17303 0.17347 0.62343
 C498 C 0.17851 0.15970 0.63102
 H499 H 0.18945 0.12776 0.65226
 H500 H 0.15262 0.12762 0.68892
 H501 H 0.12773 0.15266 0.68906
 H502 H 0.12766 0.18983 0.65258
 H503 H 0.15251 0.18990 0.62781
 H504 H 0.18939 0.15284 0.62762
 C505 C 0.33238 0.64368 0.34440
 C506 C 0.33237 0.65587 0.35653
 C507 C 0.34434 0.66797 0.35654
 C508 C 0.35647 0.66803 0.34442
 C509 C 0.35648 0.65598 0.33242
 C510 C 0.34436 0.64373 0.33241
 C511 C 0.32191 0.63081 0.34101
 N512 N 0.32734 0.62318 0.32734
 C513 C 0.34099 0.63091 0.32193
 C514 C 0.36923 0.65943 0.32196
 N515 N 0.37686 0.67319 0.32740
 C516 C 0.36922 0.67861 0.34106
 C517 C 0.34096 0.67848 0.36932
 N518 N 0.32731 0.67296 0.37695
 C519 C 0.32190 0.65920 0.36930
 H520 H 0.31102 0.62744 0.34778
 H521 H 0.34776 0.62762 0.31103
 H522 H 0.37256 0.65263 0.31108
 H523 H 0.37254 0.68956 0.34785
 H524 H 0.34773 0.68945 0.37265
 H525 H 0.31102 0.65234 0.37262
 C526 C 0.33381 0.14229 0.84554
 C527 C 0.33375 0.15450 0.85766
 C528 C 0.34560 0.16672 0.85758
 C529 C 0.35764 0.16689 0.84538
 C530 C 0.35770 0.15483 0.83340
 C531 C 0.34571 0.14246 0.83348
 C532 C 0.32341 0.12936 0.84221
 N533 N 0.32880 0.12178 0.82849
 C534 C 0.34237 0.12962 0.82300
 C535 C 0.37034 0.15841 0.82285
 N536 N 0.37786 0.17226 0.82822
 C537 C 0.37026 0.17761 0.84193
 C538 C 0.34217 0.17724 0.87033
 N539 N 0.32860 0.17161 0.87804
 C540 C 0.32330 0.15778 0.87046
 H541 H 0.31256 0.12592 0.84901
 H542 H 0.34906 0.12642 0.81204
 H543 H 0.37368 0.15162 0.81196
 H544 H 0.37351 0.18860 0.84869
 H545 H 0.34882 0.18831 0.87359
 H546 H 0.31249 0.15083 0.87383
 C547 C 0.83308 0.64279 0.84464
 C548 C 0.83315 0.65498 0.85678
 C549 C 0.84529 0.66692 0.85687
 C550 C 0.85750 0.66681 0.84483
 C551 C 0.85742 0.65477 0.83283
 C552 C 0.84514 0.64269 0.83273
 C553 C 0.82246 0.63007 0.84118
 N554 N 0.82787 0.62236 0.82754
 C555 C 0.84167 0.62991 0.82222
 C556 C 0.87026 0.65807 0.82243
 N557 N 0.87802 0.67174 0.82790
 C558 C 0.87038 0.67725 0.84153
 C559 C 0.84195 0.67748 0.86961
 N560 N 0.82816 0.67215 0.87714
 C561 C 0.82263 0.65846 0.86946
 H562 H 0.81149 0.62683 0.84788
 H563 H 0.84847 0.62652 0.81138
 H564 H 0.87354 0.65126 0.81154
 H565 H 0.87377 0.68818 0.84832
 H566 H 0.84883 0.68836 0.87300
 H567 H 0.81164 0.65175 0.87271
 C568 C 0.83379 0.14271 0.34441
 C569 C 0.83379 0.15498 0.35647
 C570 C 0.84576 0.16710 0.35637
 C571 C 0.85786 0.16709 0.34422
 C572 C 0.85785 0.15496 0.33230
 C573 C 0.84575 0.14270 0.33240
 C574 C 0.82331 0.12984 0.34112
 N575 N 0.82870 0.12212 0.32748
 C576 C 0.84235 0.12982 0.32200
 C577 C 0.87058 0.15835 0.32180
 N578 N 0.87820 0.17216 0.32713
 C579 C 0.87059 0.17766 0.34077
 C580 C 0.84239 0.17769 0.36908
 N581 N 0.82875 0.17222 0.37677
 C582 C 0.82334 0.15840 0.36923
 H583 H 0.81242 0.12652 0.34791
 H584 H 0.84908 0.12648 0.31109
 H585 H 0.87390 0.15148 0.31095
 H586 H 0.87392 0.18866 0.34749
 H587 H 0.84915 0.18870 0.37233
 H588 H 0.81248 0.15155 0.37262
 C589 C 0.66746 0.35603 0.34457
 C590 C 0.66752 0.34369 0.35654
 C591 C 0.65560 0.33154 0.35640
 C592 C 0.64347 0.33158 0.34430
 C593 C 0.64341 0.34378 0.33247
 C594 C 0.65547 0.35608 0.33261
 C595 C 0.67784 0.36902 0.34139
 N596 N 0.67236 0.37683 0.32786
 C597 C 0.65876 0.36909 0.32234
 C598 C 0.63064 0.34044 0.32202
 N599 N 0.62306 0.32659 0.32729
 C600 C 0.63073 0.32102 0.34084
 C601 C 0.65900 0.32092 0.36906
 N602 N 0.67261 0.32642 0.37675
 C603 C 0.67797 0.34027 0.36927
 H604 H 0.68869 0.37238 0.34821
 H605 H 0.65195 0.37254 0.31153
 H606 H 0.62726 0.34738 0.31125
 H607 H 0.62744 0.30998 0.34751
 H608 H 0.65226 0.30989 0.37228
 H609 H 0.68880 0.34716 0.37268
 C610 C 0.66740 0.85607 0.84473
 C611 C 0.66724 0.84380 0.85677
 C612 C 0.65515 0.83181 0.85665
 C613 C 0.64307 0.83196 0.84450
 C614 C 0.64323 0.84408 0.83260
 C615 C 0.65547 0.85621 0.83272
 C616 C 0.67798 0.86888 0.84149
 N617 N 0.67267 0.87667 0.82789
 C618 C 0.65898 0.86910 0.82237
 C619 C 0.63047 0.84086 0.82211
 N620 N 0.62267 0.82715 0.82742
 C621 C 0.63021 0.82155 0.84104
 C622 C 0.65837 0.82121 0.86937
 N623 N 0.67203 0.82655 0.87708
 C624 C 0.67761 0.84030 0.86954
 H625 H 0.68886 0.87213 0.84833
 H626 H 0.65226 0.87256 0.81152
 H627 H 0.62724 0.84778 0.81129
 H628 H 0.62673 0.81060 0.84775
 H629 H 0.65147 0.81029 0.87262
 H630 H 0.68853 0.84704 0.87295
 C631 C 0.16890 0.35446 0.84339
 C632 C 0.16884 0.34222 0.85546
 C633 C 0.15677 0.33020 0.85545
 C634 C 0.14463 0.33028 0.84335
 C635 C 0.14470 0.34238 0.83143
 C636 C 0.15690 0.35453 0.83144
 C637 C 0.17936 0.36736 0.84013
 N638 N 0.17392 0.37515 0.82658
 C639 C 0.16025 0.36748 0.82111
 C640 C 0.13183 0.33914 0.82106
 N641 N 0.12406 0.32546 0.82649
 C642 C 0.13172 0.31989 0.84005
 C643 C 0.16001 0.31971 0.86824
 N644 N 0.17367 0.32515 0.87591
 C645 C 0.17921 0.33884 0.86827
 H646 H 0.19021 0.37072 0.84696
 H647 H 0.15341 0.37095 0.81034
 H648 H 0.12848 0.34606 0.81027
 H649 H 0.12827 0.30898 0.84684
 H650 H 0.15311 0.30883 0.87160
 H651 H 0.19009 0.34567 0.87166
 C652 C 0.16700 0.85610 0.34460
 C653 C 0.16701 0.84378 0.35659
 C654 C 0.15504 0.83167 0.35647
 C655 C 0.14292 0.83173 0.34436
 C656 C 0.14291 0.84391 0.33252
 C657 C 0.15501 0.85616 0.33264
 C658 C 0.17740 0.86906 0.34141
 N659 N 0.17195 0.87688 0.32788
 C660 C 0.15832 0.86917 0.32236
 C661 C 0.13011 0.84061 0.32208
 N662 N 0.12246 0.82681 0.32739
 C663 C 0.13012 0.82123 0.34095
 C664 C 0.15838 0.82108 0.36917
 N665 N 0.17200 0.82656 0.37688
 C666 C 0.17742 0.84037 0.36935
 H667 H 0.18825 0.87241 0.34824
 H668 H 0.15152 0.87263 0.31156
 H669 H 0.12674 0.84756 0.31132
 H670 H 0.12677 0.81023 0.34764
 H671 H 0.15158 0.81010 0.37243
 H672 H 0.18826 0.84724 0.37278
 O673 O 0.22826 0.98439 0.25238
 O674 O 0.25045 1.01657 0.22970
 O675 O 0.25054 0.98441 0.22971
 O676 O 0.22816 1.01654 0.25242
 O677 O 0.24755 1.01658 0.27125
 O678 O 0.26993 0.98444 0.24854
 O679 O 0.26984 1.01660 0.24853
 O680 O 0.24764 0.98442 0.27121
 Cu681 Cu 0.23740 1.00048 0.23915
 Cu682 Cu 0.26070 1.00052 0.26179
 C683 C 0.23423 0.97894 0.26559
 C684 C 0.26387 1.02204 0.23531
 C685 C 0.26398 0.97895 0.23533
 C686 C 0.23410 1.02200 0.26565
 O687 O 0.27015 0.48470 0.74881
 O688 O 0.24771 0.51680 0.77150
 O689 O 0.24786 0.48463 0.77135
 O690 O 0.27009 0.51687 0.74882
 O691 O 0.25077 0.51687 0.72993
 O692 O 0.22852 0.48463 0.75247
 O693 O 0.22838 0.51681 0.75261
 O694 O 0.25081 0.48470 0.72992
 Cu695 Cu 0.26090 0.50079 0.76203
 Cu696 Cu 0.23767 0.50079 0.73932
 C697 C 0.26419 0.47918 0.73562
 C698 C 0.23426 0.52223 0.76588
 C699 C 0.23452 0.47909 0.76564
 C700 C 0.26418 0.52232 0.73558
 O701 O 0.74884 -0.01686 0.22908
 O702 O 0.77120 0.01544 0.25143
 O703 O 0.77113 -0.01669 0.25174
 O704 O 0.74890 0.01530 0.22880
 O705 O 0.72952 0.01556 0.24767
 O706 O 0.75175 -0.01643 0.27061
 O707 O 0.75182 0.01570 0.27030
 O708 O 0.72946 -0.01661 0.24795
 Cu709 Cu 0.76197 -0.00073 0.23835
 Cu710 Cu 0.73868 -0.00042 0.26103
 C711 C 0.73541 -0.02222 0.23477
 C712 C 0.76526 0.02106 0.26461
 C713 C 0.76518 -0.02198 0.26503
 C714 C 0.73549 0.02088 0.23440
 O715 O 0.72905 0.51589 0.74783
 O716 O 0.75133 0.48352 0.77019
 O717 O 0.75146 0.51568 0.77031
 O718 O 0.72893 0.48370 0.74770
 O719 O 0.74818 0.48365 0.72870
 O720 O 0.77072 0.51563 0.75131
 O721 O 0.77059 0.48347 0.75119
 O722 O 0.74831 0.51584 0.72883
 Cu723 Cu 0.73824 0.49970 0.76092
 Cu724 Cu 0.76139 0.49964 0.73809
 C725 C 0.73497 0.52140 0.73461
 C726 C 0.76468 0.47798 0.76442
 C727 C 0.76485 0.52111 0.76458
 C728 C 0.73480 0.47821 0.73444
 O729 O 0.24835 0.48411 0.22840
 O730 O 0.27071 0.51620 0.25105
 O731 O 0.27070 0.48405 0.25102
 O732 O 0.24838 0.51626 0.22848
 O733 O 0.22904 0.51629 0.24739
 O734 O 0.25137 0.48407 0.26994
 O735 O 0.25137 0.51623 0.26996
 O736 O 0.22902 0.48414 0.24732
 Cu737 Cu 0.26149 0.50014 0.23783
 Cu738 Cu 0.23825 0.50017 0.26057
 C739 C 0.23493 0.47868 0.23406
 C740 C 0.26477 0.52169 0.26428
 C741 C 0.26479 0.47860 0.26427
 C742 C 0.23498 0.52177 0.23417
 O743 O 0.74841 1.01643 0.77135
 O744 O 0.77087 0.98422 0.74884
 O745 O 0.77078 1.01639 0.74881
 O746 O 0.74852 0.98425 0.77143
 O747 O 0.72922 0.98417 0.75251
 O748 O 0.75149 1.01632 0.72988
 O749 O 0.75157 0.98415 0.72992
 O750 O 0.72911 1.01635 0.75243
 Cu751 Cu 0.76159 1.00033 0.76202
 Cu752 Cu 0.73840 1.00024 0.73927
 C753 C 0.73502 1.02189 0.76564
 C754 C 0.76497 0.97870 0.73562
 C755 C 0.76484 1.02185 0.73558
 C756 C 0.73515 0.97873 0.76574
 O757 O 0.77067 0.48378 0.24827
 O758 O 0.74840 0.51618 0.27070
 O759 O 0.74834 0.48402 0.27090
 O760 O 0.77070 0.51593 0.24800
 O761 O 0.75134 0.51582 0.22915
 O762 O 0.72898 0.48392 0.25204
 O763 O 0.72903 0.51608 0.25184
 O764 O 0.75131 0.48367 0.22941
 Cu765 Cu 0.76148 0.49999 0.26137
 Cu766 Cu 0.73821 0.49987 0.23871
 C767 C 0.76472 0.47821 0.23509
 C768 C 0.73498 0.52163 0.26503
 C769 C 0.73492 0.47854 0.26530
 C770 C 0.76477 0.52129 0.23473
 O771 O 0.27124 0.01558 0.75181
 O772 O 0.24877 -0.01649 0.72926
 O773 O 0.24887 0.01568 0.72926
 O774 O 0.27114 -0.01655 0.75184
 O775 O 0.25183 -0.01644 0.77078
 O776 O 0.22955 0.01579 0.74820
 O777 O 0.22945 -0.01638 0.74820
 O778 O 0.25193 0.01570 0.77075
 Cu779 Cu 0.26195 -0.00046 0.73863
 Cu780 Cu 0.23874 -0.00032 0.76139
 C781 C 0.26535 0.02109 0.76506
 C782 C 0.23535 -0.02188 0.73495
 C783 C 0.23549 0.02122 0.73496
 C784 C 0.26523 -0.02195 0.76511
 O785 O 0.27071 0.24784 1.01616
 O786 O 0.24817 0.26998 0.98404
 O787 O 0.24790 0.27022 1.01585
 O788 O 0.27097 0.24760 0.98436
 O789 O 0.25205 0.22808 0.98435
 O790 O 0.22899 0.25071 1.01585
 O791 O 0.22926 0.25046 0.98403
 O792 O 0.25180 0.22833 1.01616
 Cu793 Cu 0.26135 0.26088 1.00011
 Cu794 Cu 0.23861 0.23742 1.00010
 C795 C 0.26501 0.23440 1.02165
 C796 C 0.23497 0.26390 0.97854
 C797 C 0.23460 0.26423 1.02124
 C798 C 0.26535 0.23407 0.97897
 O799 O 0.24769 0.77095 0.48397
 O800 O 0.27058 0.74863 0.51574
 O801 O 0.27047 0.74855 0.48393
 O802 O 0.24781 0.77106 0.51579
 O803 O 0.22887 0.75157 0.51592
 O804 O 0.25153 0.72906 0.48405
 O805 O 0.25163 0.72914 0.51586
 O806 O 0.22875 0.75146 0.48410
 Cu807 Cu 0.26105 0.76177 0.49985
 Cu808 Cu 0.23828 0.73834 0.50000
 C809 C 0.23441 0.76491 0.47860
 C810 C 0.26492 0.73517 0.52123
 C811 C 0.26478 0.73506 0.47855
 C812 C 0.23457 0.76506 0.52131
 O813 O 0.22910 0.74939 -0.01623
 O814 O 0.25188 0.77185 0.01549
 O815 O 0.25191 0.77174 -0.01631
 O816 O 0.22910 0.74954 0.01558
 O817 O 0.24802 0.72998 0.01563
 O818 O 0.27083 0.75217 -0.01626
 O819 O 0.27081 0.75228 0.01554
 O820 O 0.24802 0.72982 -0.01618
 Cu821 Cu 0.23858 0.76260 -0.00038
 Cu822 Cu 0.26133 0.73909 -0.00032
 C823 C 0.23476 0.73586 -0.02162
 C824 C 0.26514 0.76580 0.02094
 C825 C 0.26518 0.76567 -0.02171
 C826 C 0.23477 0.73607 0.02107
 O827 O 0.27062 0.25194 0.48414
 O828 O 0.24804 0.22943 0.51598
 O829 O 0.24800 0.22942 0.48418
 O830 O 0.27065 0.25190 0.51597
 O831 O 0.25158 0.27132 0.51604
 O832 O 0.22893 0.24884 0.48424
 O833 O 0.22897 0.24885 0.51604
 O834 O 0.25155 0.27136 0.48421
 Cu835 Cu 0.26126 0.23871 0.50005
 Cu836 Cu 0.23833 0.26206 0.50013
 C837 C 0.26484 0.26539 0.47873
 C838 C 0.23475 0.23540 0.52146
 C839 C 0.23469 0.23538 0.47878
 C840 C 0.26487 0.26533 0.52147
 O841 O 0.74770 0.77027 0.98380
 O842 O 0.77065 0.74792 1.01550
 O843 O 0.77063 0.74800 0.98370
 O844 O 0.74774 0.77020 1.01562
 O845 O 0.72892 0.75059 1.01560
 O846 O 0.75181 0.72840 0.98367
 O847 O 0.75182 0.72831 1.01547
 O848 O 0.72888 0.75067 0.98378
 Cu849 Cu 0.76108 0.76108 0.99966
 Cu850 Cu 0.73845 0.73751 0.99962
 C851 C 0.73447 0.76419 0.97837
 C852 C 0.76506 0.73439 1.02090
 C853 C 0.76503 0.73450 0.97824
 C854 C 0.73453 0.76409 1.02108
 O855 O 0.75259 0.22844 0.48348
 O856 O 0.72963 0.25088 0.51520
 O857 O 0.72974 0.25080 0.48339
 O858 O 0.75242 0.22850 0.51530
 O859 O 0.77133 0.24802 0.51535
 O860 O 0.74865 0.27033 0.48343
 O861 O 0.74854 0.27040 0.51523
 O862 O 0.77149 0.24797 0.48352
 Cu863 Cu 0.73919 0.23768 0.49933
 Cu864 Cu 0.76191 0.26115 0.49938
 C865 C 0.76586 0.23447 0.47808
 C866 C 0.73527 0.26438 0.52064
 C867 C 0.73541 0.26428 0.47796
 C868 C 0.76564 0.23456 0.52080
 O869 O 0.75195 0.27122 0.01563
 O870 O 0.72906 0.24897 -0.01616
 O871 O 0.72920 0.24885 0.01565
 O872 O 0.75181 0.27133 -0.01619
 O873 O 0.77077 0.25180 -0.01637
 O874 O 0.74816 0.22933 0.01547
 O875 O 0.74802 0.22944 -0.01634
 O876 O 0.77091 0.25169 0.01545
 Cu877 Cu 0.73859 0.26207 -0.00025
 Cu878 Cu 0.76138 0.23859 -0.00047
 C879 C 0.76523 0.26515 0.02098
 C880 C 0.73473 0.23550 -0.02169
 C881 C 0.73492 0.23535 0.02100
 C882 C 0.76505 0.26530 -0.02173
 O883 O 0.77151 0.75210 0.48407
 O884 O 0.74873 0.72958 0.51577
 O885 O 0.74875 0.72971 0.48394
 O886 O 0.77148 0.75193 0.51587
 O887 O 0.75252 0.77146 0.51598
 O888 O 0.72979 0.74924 0.48405
 O889 O 0.72977 0.74911 0.51587
 O890 O 0.75255 0.77163 0.48418
 Cu891 Cu 0.76203 0.73885 0.49989
 Cu892 Cu 0.73924 0.76233 0.50002
 C893 C 0.76583 0.76562 0.47872
 C894 C 0.73547 0.73562 0.52126
 C895 C 0.73549 0.73578 0.47854
 C896 C 0.76578 0.76539 0.52138
 O897 O 0.98498 0.24838 0.27046
 O898 O 1.01675 0.27110 0.24785
 O899 O 0.98478 0.27068 0.24779
 O900 O 1.01694 0.24875 0.27062
 O901 O 1.01730 0.22918 0.25182
 O902 O 0.98512 0.25112 0.22899
 O903 O 1.01710 0.25154 0.22905
 O904 O 0.98533 0.22882 0.25165
 Cu905 Cu 1.00085 0.26171 0.26108
 Cu906 Cu 1.00127 0.23819 0.23848
 C907 C 0.97971 0.23482 0.26480
 C908 C 1.02230 0.26514 0.23465
 C909 C 0.97944 0.26454 0.23460
 C910 C 1.02256 0.23528 0.26506
 O911 O 0.48459 0.24827 0.77081
 O912 O 0.51624 0.27057 0.74764
 O913 O 0.48426 0.27043 0.74804
 O914 O 0.51655 0.24830 0.77051
 O915 O 0.51645 0.22865 0.75181
 O916 O 0.48415 0.25077 0.72932
 O917 O 0.51614 0.25091 0.72893
 O918 O 0.48449 0.22861 0.75210
 Cu919 Cu 0.50045 0.26138 0.76113
 Cu920 Cu 0.50033 0.23775 0.73865
 C921 C 0.47911 0.23474 0.76529
 C922 C 0.52155 0.26449 0.73439
 C923 C 0.47865 0.26426 0.73497
 C924 C 0.52196 0.23475 0.76495
 O925 O -0.01656 0.27106 0.75187
 O926 O 0.01538 0.24859 0.72915
 O927 O -0.01660 0.24872 0.72916
 O928 O 0.01544 0.27094 0.75183
 O929 O 0.01539 0.25140 0.77063
 O930 O -0.01665 0.22919 0.74796
 O931 O 0.01533 0.22906 0.74796
 O932 O -0.01661 0.25153 0.77068
 Cu933 Cu -0.00059 0.26180 0.73860
 Cu934 Cu -0.00065 0.23832 0.76121
 C935 C -0.02205 0.26504 0.76505
 C936 C 0.02083 0.23509 0.73478
 C937 C -0.02210 0.23525 0.73479
 C938 C 0.02091 0.26486 0.76499
 O939 O 0.51582 0.24779 0.22925
 O940 O 0.48383 0.27017 0.25198
 O941 O 0.51581 0.27025 0.25184
 O942 O 0.48384 0.24770 0.22939
 O943 O 0.48399 0.22826 0.24829
 O944 O 0.51596 0.25081 0.27074
 O945 O 0.48398 0.25073 0.27088
 O946 O 0.51597 0.22834 0.24815
 Cu947 Cu 0.49981 0.26094 0.23871
 Cu948 Cu 0.49999 0.23757 0.26142
 C949 C 0.52137 0.23434 0.23491
 C950 C 0.47844 0.26417 0.26522
 C951 C 0.52135 0.26429 0.26503
 C952 C 0.47844 0.23423 0.23511
 O953 O 0.98470 0.75137 0.72947
 O954 O 1.01660 0.72900 0.75229
 O955 O 0.98464 0.72890 0.75208
 O956 O 1.01665 0.75145 0.72967
 O957 O 1.01644 0.77093 0.74856
 O958 O 0.98441 0.74836 0.77098
 O959 O 1.01638 0.74847 0.77119
 O960 O 0.98448 0.77083 0.74837
 Cu961 Cu 1.00067 0.73821 0.73897
 Cu962 Cu 1.00040 0.76161 0.76168
 C963 C 0.97917 0.76485 0.73510
 C964 C 1.02192 0.73500 0.76556
 C965 C 0.97908 0.73485 0.76528
 C966 C 1.02198 0.76497 0.73535
 O967 O 0.51582 0.77151 0.24789
 O968 O 0.48380 0.74923 0.27058
 O969 O 0.51578 0.74927 0.27065
 O970 O 0.48383 0.77153 0.24784
 O971 O 0.48391 0.75192 0.22908
 O972 O 0.51588 0.72966 0.25189
 O973 O 0.48390 0.72963 0.25182
 O974 O 0.51590 0.75190 0.22913
 Cu975 Cu 0.49980 0.76237 0.26113
 Cu976 Cu 0.49990 0.73880 0.23858
 C977 C 0.52133 0.76541 0.23473
 C978 C 0.47839 0.73572 0.26498
 C979 C 0.52130 0.73576 0.26507
 C980 C 0.47842 0.76544 0.23466
 O981 O 0.01496 0.74905 0.22931
 O982 O -0.01718 0.77142 0.25185
 O983 O 0.01479 0.77140 0.25194
 O984 O -0.01701 0.74892 0.22916
 O985 O -0.01703 0.72943 0.24801
 O986 O 0.01476 0.75191 0.27079
 O987 O -0.01721 0.75194 0.27071
 O988 O 0.01494 0.72956 0.24816
 Cu989 Cu -0.00114 0.76216 0.23866
 Cu990 Cu -0.00117 0.73874 0.26132
 C991 C 0.02048 0.73561 0.23500
 C992 C -0.02263 0.76545 0.26507
 C993 C 0.02023 0.76538 0.26514
 C994 C -0.02240 0.73539 0.23475
 O995 O 0.51526 0.75210 0.77065
 O996 O 0.48348 0.72949 0.74800
 O997 O 0.51546 0.72970 0.74804
 O998 O 0.48330 0.75197 0.77068
 O999 O 0.48319 0.77144 0.75181
 O1000 O 0.51534 0.74918 0.72918
 O1001 O 0.48336 0.74896 0.72913
 O1002 O 0.51515 0.77158 0.75178
 Cu1003 Cu 0.49936 0.73885 0.76125
 Cu1004 Cu 0.49922 0.76225 0.73857
 C1005 C 0.52065 0.76559 0.76498
 C1006 C 0.47803 0.73542 0.73476
 C1007 C 0.52092 0.73575 0.73486
 C1008 C 0.47780 0.76545 0.76505
 C1009 C 0.44108 0.28778 0.28900
 C1010 C 0.42483 0.28545 0.28341
 C1011 C 0.41160 0.29350 0.29144
 C1012 C 0.41469 0.30383 0.30501
 C1013 C 0.43094 0.30616 0.31061
 C1014 C 0.44418 0.29811 0.30258
 C1015 C 0.46031 0.30062 0.30839
 C1016 C 0.46329 0.31080 0.32176
 C1017 C 0.45036 0.31867 0.32961
 C1018 C 0.43434 0.31642 0.32416
 C1019 C 0.39546 0.29098 0.28561
 C1020 C 0.39249 0.28081 0.27223
 C1021 C 0.40542 0.27295 0.26438
 C1022 C 0.42143 0.27519 0.26985
 C1023 C 0.40116 0.31208 0.31317
 C1024 C 0.38984 0.31888 0.31985
 C1025 C 0.45457 0.27955 0.28077
 C1026 C 0.46559 0.27261 0.27377
 H1027 H 0.47078 0.29477 0.30268
 H1028 H 0.47571 0.31259 0.32604
 H1029 H 0.45274 0.32656 0.33999
 H1030 H 0.42468 0.32280 0.33067
 H1031 H 0.38499 0.29682 0.29131
 H1032 H 0.38007 0.27903 0.26794
 H1033 H 0.40305 0.26509 0.25397
 H1034 H 0.43108 0.26880 0.26333
 C1035 C 0.44112 0.78968 0.78931
 C1036 C 0.42566 0.79151 0.78168
 C1037 C 0.41271 0.79976 0.78996
 C1038 C 0.41529 0.80613 0.80584
 C1039 C 0.43076 0.80435 0.81345
 C1040 C 0.44372 0.79610 0.80516
 C1041 C 0.45908 0.79447 0.81302
 C1042 C 0.46157 0.80080 0.82862
 C1043 C 0.44890 0.80885 0.83673
 C1044 C 0.43365 0.81064 0.82929
 C1045 C 0.39737 0.80143 0.78208
 C1046 C 0.39488 0.79512 0.76647
 C1047 C 0.40754 0.78705 0.75838
 C1048 C 0.42278 0.78523 0.76583
 C1049 C 0.40200 0.81445 0.81431
 C1050 C 0.39084 0.82130 0.82120
 C1051 C 0.45430 0.78115 0.78086
 C1052 C 0.46511 0.77401 0.77372
 H1053 H 0.46930 0.78831 0.80720
 H1054 H 0.47339 0.79945 0.83445
 H1055 H 0.45089 0.81374 0.84885
 H1056 H 0.42417 0.81699 0.83608
 H1057 H 0.38714 0.80761 0.78788
 H1058 H 0.38307 0.79651 0.76063
 H1059 H 0.40555 0.78217 0.74625
 H1060 H 0.43223 0.77886 0.75904
 C1061 C -0.05948 0.28858 0.78879
 C1062 C -0.07581 0.28497 0.78417
 C1063 C -0.08909 0.29297 0.79217
 C1064 C -0.08597 0.30453 0.80474
 C1065 C -0.06964 0.30812 0.80936
 C1066 C -0.05635 0.30012 0.80137
 C1067 C -0.04014 0.30390 0.80620
 C1068 C -0.03713 0.31527 0.81858
 C1069 C -0.05011 0.32310 0.82640
 C1070 C -0.06620 0.31962 0.82190
 C1071 C -0.10531 0.28917 0.78734
 C1072 C -0.10832 0.27780 0.77495
 C1073 C -0.09534 0.26998 0.76713
 C1074 C -0.07925 0.27347 0.77164
 C1075 C -0.09955 0.31273 0.81286
 C1076 C -0.11093 0.31947 0.81951
 C1077 C -0.04595 0.28040 0.78057
 C1078 C -0.03490 0.27348 0.77358
 H1079 H -0.02964 0.29813 0.80047
 H1080 H -0.02465 0.31802 0.82213
 H1081 H -0.04770 0.33192 0.83602
 H1082 H -0.07589 0.32602 0.82834
 H1083 H -0.11582 0.29492 0.79306
 H1084 H -0.12080 0.27504 0.77141
 H1085 H -0.09774 0.26117 0.75750
 H1086 H -0.06957 0.26706 0.76519
 C1087 C -0.05913 0.78990 0.28938
 C1088 C -0.07470 0.79153 0.28194
 C1089 C -0.08758 0.79984 0.29027
 C1090 C -0.08481 0.80648 0.30600
 C1091 C -0.06922 0.80490 0.31342
 C1092 C -0.05634 0.79660 0.30509
 C1093 C -0.04086 0.79518 0.31275
 C1094 C -0.03819 0.80178 0.32821
 C1095 C -0.05078 0.80989 0.33636
 C1096 C -0.06615 0.81147 0.32912
 C1097 C -0.10304 0.80131 0.28258
 C1098 C -0.10571 0.79475 0.26710
 C1099 C -0.09312 0.78661 0.25896
 C1100 C -0.07777 0.78498 0.26623
 C1101 C -0.09803 0.81486 0.31454
 C1102 C -0.10913 0.82174 0.32149
 C1103 C -0.04603 0.78129 0.28089
 C1104 C -0.03527 0.77408 0.27373
 H1105 H -0.03068 0.78898 0.30689
 H1106 H -0.02627 0.80059 0.33389
 H1107 H -0.04864 0.81499 0.34837
 H1108 H -0.07556 0.81789 0.33594
 H1109 H -0.11322 0.80753 0.28841
 H1110 H -0.11761 0.79598 0.26140
 H1111 H -0.09525 0.78153 0.24694
 H1112 H -0.06838 0.77855 0.25940
 C1113 C 0.55869 0.71252 0.28904
 C1114 C 0.57493 0.71809 0.28647
 C1115 C 0.58820 0.71016 0.29453
 C1116 C 0.58515 0.69671 0.30510
 C1117 C 0.56890 0.69117 0.30770
 C1118 C 0.55563 0.69910 0.29965
 C1119 C 0.53950 0.69336 0.30244
 C1120 C 0.53655 0.68015 0.31290
 C1121 C 0.54952 0.67239 0.32077
 C1122 C 0.56553 0.67779 0.31825
 C1123 C 0.60433 0.71595 0.29177
 C1124 C 0.60726 0.72921 0.28137
 C1125 C 0.59429 0.73697 0.27350
 C1126 C 0.57829 0.73152 0.27597
 C1127 C 0.59873 0.68855 0.31323
 C1128 C 0.61009 0.68184 0.31989
 C1129 C 0.54518 0.72057 0.28070
 C1130 C 0.53415 0.72741 0.27365
 H1131 H 0.52901 0.69900 0.29660
 H1132 H 0.52413 0.67592 0.31490
 H1133 H 0.54716 0.66214 0.32888
 H1134 H 0.57521 0.67136 0.32465
 H1135 H 0.61482 0.71033 0.29761
 H1136 H 0.61967 0.73349 0.27941
 H1137 H 0.59664 0.74728 0.26547
 H1138 H 0.56862 0.73796 0.26957
 C1139 C 0.55856 0.21067 0.78937
 C1140 C 0.56542 0.19608 0.78275
 C1141 C 0.57856 0.18805 0.79090
 C1142 C 0.58477 0.19466 0.80564
 C1143 C 0.57778 0.20914 0.81236
 C1144 C 0.56464 0.21718 0.80421
 C1145 C 0.55789 0.23167 0.81115
 C1146 C 0.56395 0.23804 0.82572
 C1147 C 0.57680 0.23019 0.83370
 C1148 C 0.58369 0.21590 0.82715
 C1149 C 0.58525 0.17350 0.78402
 C1150 C 0.57912 0.16707 0.76949
 C1151 C 0.56628 0.17492 0.76152
 C1152 C 0.55946 0.18926 0.76801
 C1153 C 0.59848 0.18670 0.81373
 C1154 C 0.60996 0.18014 0.82034
 C1155 C 0.54544 0.21913 0.78080
 C1156 C 0.53466 0.22622 0.77360
 H1157 H 0.54787 0.23821 0.80541
 H1158 H 0.55863 0.24913 0.83086
 H1159 H 0.58146 0.23519 0.84502
 H1160 H 0.59365 0.21023 0.83381
 H1161 H 0.59525 0.16694 0.78977
 H1162 H 0.58438 0.15593 0.76440
 H1163 H 0.56156 0.16987 0.75024
 H1164 H 0.54947 0.19491 0.76136
 C1165 C 1.05869 0.71121 0.78999
 C1166 C 1.07492 0.71722 0.78858
 C1167 C 1.08793 0.70908 0.79684
 C1168 C 1.08464 0.69497 0.80645
 C1169 C 1.06841 0.68898 0.80790
 C1170 C 1.05539 0.69713 0.79965
 C1171 C 1.03927 0.69092 0.80128
 C1172 C 1.03609 0.67705 0.81080
 C1173 C 1.04882 0.66908 0.81886
 C1174 C 1.06481 0.67492 0.81747
 C1175 C 1.10404 0.71533 0.79524
 C1176 C 1.10722 0.72922 0.78575
 C1177 C 1.09450 0.73717 0.77768
 C1178 C 1.07852 0.73130 0.77903
 C1179 C 1.09798 0.68660 0.81476
 C1180 C 1.10919 0.67976 0.82156
 C1181 C 1.04544 0.71949 0.78145
 C1182 C 1.03460 0.72649 0.77425
 H1183 H 1.02897 0.69670 0.79525
 H1184 H 1.02369 0.67247 0.81192
 H1185 H 1.04628 0.65832 0.82623
 H1186 H 1.07430 0.66831 0.82397
 H1187 H 1.11435 0.70958 0.80129
 H1188 H 1.11962 0.73383 0.78467
 H1189 H 1.09703 0.74795 0.77032
 H1190 H 1.06904 0.73792 0.77251
 C1191 C 1.05926 0.21170 0.28980
 C1192 C 1.05653 0.19613 0.29711
 C1193 C 1.06953 0.18798 0.30540
 C1194 C 1.08517 0.19547 0.30634
 C1195 C 1.08787 0.21110 0.29913
 C1196 C 1.07488 0.21923 0.29084
 C1197 C 1.07788 0.23484 0.28370
 C1198 C 1.09327 0.24219 0.28474
 C1199 C 1.10597 0.23424 0.29285
 C1200 C 1.10337 0.21887 0.29998
 C1201 C 1.06651 0.17241 0.31258
 C1202 C 1.05109 0.16510 0.31162
 C1203 C 1.03839 0.17307 0.30353
 C1204 C 1.04100 0.18841 0.29633
 C1205 C 1.09853 0.18707 0.31459
 C1206 C 1.10974 0.18019 0.32135
 C1207 C 1.04608 0.21994 0.28113
 C1208 C 1.03526 0.22688 0.27384
 H1209 H 1.06840 0.24152 0.27727
 H1210 H 1.09535 0.25413 0.27922
 H1211 H 1.11790 0.24001 0.29363
 H1212 H 1.11363 0.21318 0.30617
 H1213 H 1.07601 0.16574 0.31901
 H1214 H 1.04900 0.15319 0.31719
 H1215 H 1.02643 0.16734 0.30282
 H1216 H 1.03074 0.19412 0.29018
 C1217 C 0.55771 0.28858 0.70938
 C1218 C 0.56665 0.28015 0.69712
 C1219 C 0.57972 0.28823 0.68892
 C1220 C 0.58378 0.30469 0.69302
 C1221 C 0.57470 0.31319 0.70512
 C1222 C 0.56163 0.30511 0.71332
 C1223 C 0.55276 0.31385 0.72541
 C1224 C 0.55670 0.33011 0.72929
 C1225 C 0.56949 0.33800 0.72127
 C1226 C 0.57843 0.32970 0.70932
 C1227 C 0.58851 0.27953 0.67675
 C1228 C 0.58450 0.26331 0.67279
 C1229 C 0.57172 0.25541 0.68081
 C1230 C 0.56286 0.26367 0.69285
 C1231 C 0.59747 0.31276 0.68500
 C1232 C 0.60893 0.31939 0.67845
 C1233 C 0.54471 0.28014 0.71813
 C1234 C 0.53406 0.27304 0.72550
 H1235 H 0.54270 0.30824 0.73197
 H1236 H 0.54979 0.33661 0.73856
 H1237 H 0.57250 0.35063 0.72433
 H1238 H 0.58826 0.33637 0.70342
 H1239 H 0.59854 0.28515 0.67015
 H1240 H 0.59135 0.25685 0.66345
 H1241 H 0.56865 0.24282 0.67769
 H1242 H 0.55301 0.25701 0.69873
 C1243 C 0.55880 0.78862 0.21088
 C1244 C 0.55577 0.80203 0.20026
 C1245 C 0.56906 0.80991 0.19221
 C1246 C 0.58530 0.80433 0.19483
 C1247 C 0.58832 0.79088 0.20543
 C1248 C 0.57503 0.78301 0.21347
 C1249 C 0.57837 0.76958 0.22400
 C1250 C 0.59436 0.76409 0.22650
 C1251 C 0.60735 0.77180 0.21864
 C1252 C 0.60444 0.78505 0.20821
 C1253 C 0.56572 0.82330 0.18165
 C1254 C 0.54972 0.82875 0.17911
 C1255 C 0.53672 0.82104 0.18697
 C1256 C 0.53964 0.80783 0.19744
 C1257 C 0.59890 0.81240 0.18667
 C1258 C 0.61028 0.81904 0.17997
 C1259 C 0.54526 0.78059 0.21918
 C1260 C 0.53421 0.77376 0.22620
 H1261 H 0.56868 0.76318 0.23040
 H1262 H 0.59668 0.75378 0.23455
 H1263 H 0.61976 0.76749 0.22062
 H1264 H 0.61496 0.79064 0.20237
 H1265 H 0.57542 0.82969 0.17525
 H1266 H 0.54739 0.83900 0.17099
 H1267 H 0.52431 0.82531 0.18496
 H1268 H 0.52914 0.80223 0.20329
 C1269 C 1.05853 0.28973 0.21023
 C1270 C 1.06763 0.30212 0.21835
 C1271 C 1.08064 0.31027 0.21012
 C1272 C 1.08448 0.30599 0.19381
 C1273 C 1.07527 0.29372 0.18564
 C1274 C 1.06226 0.28557 0.19387
 C1275 C 1.05326 0.27333 0.18545
 C1276 C 1.05701 0.26925 0.16937
 C1277 C 1.06973 0.27721 0.16132
 C1278 C 1.07881 0.28931 0.16930
 C1279 C 1.08958 0.32259 0.21850
 C1280 C 1.08578 0.32673 0.23456
 C1281 C 1.07307 0.31875 0.24261
 C1282 C 1.06406 0.30658 0.23466
 C1283 C 1.09804 0.31402 0.18556
 C1284 C 1.10940 0.32063 0.17880
 C1285 C 1.04553 0.28110 0.21879
 C1286 C 1.03485 0.27386 0.22598
 H1287 H 1.04324 0.26679 0.19119
 H1288 H 1.04999 0.25986 0.16311
 H1289 H 1.07260 0.27400 0.14883
 H1290 H 1.08859 0.29517 0.16253
 H1291 H 1.09957 0.32915 0.21276
 H1292 H 1.09274 0.33618 0.24079
 H1293 H 1.07017 0.32201 0.25509
 H1294 H 1.05427 0.30073 0.24144
 C1295 C 1.05857 0.78909 0.71101
 C1296 C 1.06151 0.80605 0.71393
 C1297 C 1.07461 0.81417 0.70580
 C1298 C 1.08468 0.80530 0.69479
 C1299 C 1.08164 0.78838 0.69175
 C1300 C 1.06856 0.78025 0.69988
 C1301 C 1.06580 0.76333 0.69668
 C1302 C 1.07568 0.75467 0.68574
 C1303 C 1.08847 0.76262 0.67779
 C1304 C 1.09148 0.77928 0.68070
 C1305 C 1.07733 0.83111 0.70897
 C1306 C 1.06741 0.83978 0.71984
 C1307 C 1.05460 0.83184 0.72779
 C1308 C 1.05163 0.81517 0.72492
 C1309 C 1.09828 0.81349 0.68675
 C1310 C 1.10966 0.82018 0.68012
 C1311 C 1.04544 0.78069 0.71958
 C1312 C 1.03466 0.77358 0.72676
 H1313 H 1.05600 0.75660 0.70256
 H1314 H 1.07340 0.74173 0.68343
 H1315 H 1.09612 0.75585 0.66930
 H1316 H 1.10157 0.78491 0.67421
 H1317 H 1.08714 0.83783 0.70307
 H1318 H 1.06966 0.85273 0.72212
 H1319 H 1.04693 0.83863 0.73622
 H1320 H 1.04152 0.80954 0.73138
 C1321 C 0.44169 0.71092 0.71045
 C1322 C 0.43854 0.71437 0.69382
 C1323 C 0.42548 0.70625 0.68565
 C1324 C 0.41565 0.69472 0.69415
 C1325 C 0.41891 0.69114 0.71073
 C1326 C 0.43197 0.69926 0.71890
 C1327 C 0.43496 0.69551 0.73549
 C1328 C 0.42533 0.68406 0.74376
 C1329 C 0.41257 0.67611 0.73577
 C1330 C 0.40934 0.67956 0.71945
 C1331 C 0.42253 0.70994 0.66904
 C1332 C 0.43222 0.72132 0.66074
 C1333 C 0.44499 0.72925 0.66873
 C1334 C 0.44817 0.72587 0.68508
 C1335 C 0.40205 0.68672 0.68593
 C1336 C 0.39066 0.68011 0.67924
 C1337 C 0.45475 0.71953 0.71893
 C1338 C 0.46546 0.72675 0.72609
 H1339 H 0.44475 0.70136 0.74223
 H1340 H 0.42779 0.68134 0.75645
 H1341 H 0.40513 0.66723 0.74225
 H1342 H 0.39928 0.67305 0.71376
 H1343 H 0.41274 0.70407 0.66230
 H1344 H 0.42980 0.72399 0.64804
 H1345 H 0.45248 0.73808 0.66223
 H1346 H 0.45825 0.73235 0.69076
 C1347 C 0.44105 0.21055 0.21162
 C1348 C 0.44413 0.20005 0.19816
 C1349 C 0.43087 0.19207 0.19017
 C1350 C 0.41461 0.19463 0.19570
 C1351 C 0.41154 0.20511 0.20918
 C1352 C 0.42480 0.21309 0.21717
 C1353 C 0.42142 0.22352 0.23063
 C1354 C 0.40540 0.22597 0.23604
 C1355 C 0.39244 0.21817 0.22823
 C1356 C 0.39540 0.20785 0.21495
 C1357 C 0.43425 0.18164 0.17673
 C1358 C 0.45027 0.17916 0.17134
 C1359 C 0.46324 0.18696 0.17915
 C1360 C 0.46027 0.19731 0.19241
 C1361 C 0.40104 0.18652 0.18752
 C1362 C 0.38969 0.17986 0.18082
 C1363 C 0.45456 0.21878 0.21977
 C1364 C 0.46559 0.22574 0.22668
 H1365 H 0.43108 0.22986 0.23711
 H1366 H 0.40304 0.23395 0.24637
 H1367 H 0.38002 0.22012 0.23248
 H1368 H 0.38491 0.20206 0.20928
 H1369 H 0.42458 0.17529 0.17026
 H1370 H 0.45264 0.17114 0.16104
 H1371 H 0.47566 0.18500 0.17492
 H1372 H 0.47075 0.20310 0.19809
 C1373 C -0.05845 0.71088 0.21001
 C1374 C -0.06332 0.69494 0.21509
 C1375 C -0.07624 0.68668 0.20684
 C1376 C -0.08422 0.69440 0.19355
 C1377 C -0.07924 0.71028 0.18836
 C1378 C -0.06632 0.71854 0.19661
 C1379 C -0.06159 0.73442 0.19123
 C1380 C -0.06939 0.74192 0.17807
 C1381 C -0.08202 0.73384 0.17000
 C1382 C -0.08694 0.71820 0.17503
 C1383 C -0.08093 0.67076 0.21218
 C1384 C -0.07306 0.66323 0.22528
 C1385 C -0.06043 0.67130 0.23335
 C1386 C -0.05556 0.68698 0.22837
 C1387 C -0.09770 0.68614 0.18539
 C1388 C -0.10898 0.67937 0.17868
 C1389 C -0.04553 0.71950 0.21869
 C1390 C -0.03490 0.72672 0.22598
 H1391 H -0.05182 0.74120 0.19711
 H1392 H -0.06561 0.75407 0.17411
 H1393 H -0.08804 0.73972 0.15978
 H1394 H -0.09682 0.71241 0.16836
 H1395 H -0.09069 0.66398 0.20629
 H1396 H -0.07680 0.65105 0.22920
 H1397 H -0.05436 0.66539 0.24352
 H1398 H -0.04567 0.69276 0.23502
 C1399 C -0.05950 0.21183 0.71106
 C1400 C -0.07554 0.21298 0.71759
 C1401 C -0.08879 0.20503 0.70957
 C1402 C -0.08594 0.19599 0.69506
 C1403 C -0.06990 0.19486 0.68852
 C1404 C -0.05664 0.20280 0.69655
 C1405 C -0.04072 0.20149 0.68980
 C1406 C -0.03797 0.19260 0.67551
 C1407 C -0.05093 0.18484 0.66765
 C1408 C -0.06674 0.18591 0.67403
 C1409 C -0.10471 0.20634 0.71634
 C1410 C -0.10746 0.21524 0.73063
 C1411 C -0.09450 0.22301 0.73847
 C1412 C -0.07870 0.22194 0.73209
 C1413 C -0.09949 0.18787 0.68688
 C1414 C -0.11084 0.18116 0.68021
 C1415 C -0.04600 0.21999 0.71927
 C1416 C -0.03496 0.22688 0.72626
 H1417 H -0.03025 0.20731 0.69547
 H1418 H -0.02572 0.19172 0.67050
 H1419 H -0.04874 0.17795 0.65655
 H1420 H -0.07643 0.17966 0.66748
 H1421 H -0.11519 0.20051 0.71069
 H1422 H -0.11971 0.21610 0.73564
 H1423 H -0.09670 0.22989 0.74958
 H1424 H -0.06903 0.22821 0.73864
 C1425 C 0.28904 0.44181 0.28843
 C1426 C 0.28783 0.44039 0.30559
 C1427 C 0.29590 0.42723 0.31378
 C1428 C 0.30514 0.41558 0.30475
 C1429 C 0.30649 0.41710 0.28760
 C1430 C 0.29841 0.43025 0.27942
 C1431 C 0.29991 0.43148 0.26226
 C1432 C 0.30912 0.42005 0.25345
 C1433 C 0.31702 0.40720 0.26144
 C1434 C 0.31576 0.40568 0.27832
 C1435 C 0.29446 0.42604 0.33093
 C1436 C 0.28533 0.43752 0.33976
 C1437 C 0.27745 0.45039 0.33176
 C1438 C 0.27864 0.45186 0.31488
 C1439 C 0.31311 0.40194 0.31304
 C1440 C 0.31969 0.39050 0.31979
 C1441 C 0.28050 0.45502 0.28001
 C1442 C 0.27335 0.46586 0.27289
 H1443 H 0.29400 0.44126 0.25549
 H1444 H 0.31013 0.42118 0.24033
 H1445 H 0.32417 0.39836 0.25454
 H1446 H 0.32215 0.39548 0.28399
 H1447 H 0.30038 0.41625 0.33770
 H1448 H 0.28437 0.43643 0.35288
 H1449 H 0.27037 0.45928 0.33868
 H1450 H 0.27229 0.46209 0.30921
 C1451 C 0.28929 -0.05872 0.78948
 C1452 C 0.28544 -0.07536 0.78589
 C1453 C 0.29370 -0.08831 0.79419
 C1454 C 0.30577 -0.08456 0.80602
 C1455 C 0.30961 -0.06792 0.80962
 C1456 C 0.30135 -0.05496 0.80132
 C1457 C 0.30539 -0.03843 0.80511
 C1458 C 0.31727 -0.03480 0.81677
 C1459 C 0.32535 -0.04747 0.82488
 C1460 C 0.32161 -0.06386 0.82140
 C1461 C 0.28964 -0.10484 0.79040
 C1462 C 0.27777 -0.10848 0.77874
 C1463 C 0.26969 -0.09581 0.77063
 C1464 C 0.27343 -0.07942 0.77411
 C1465 C 0.31422 -0.09783 0.81444
 C1466 C 0.32114 -0.10899 0.82131
 C1467 C 0.28086 -0.04551 0.78095
 C1468 C 0.27377 -0.03467 0.77377
 H1469 H 0.29944 -0.02815 0.79912
 H1470 H 0.32022 -0.02208 0.81952
 H1471 H 0.33457 -0.04458 0.83393
 H1472 H 0.32823 -0.07329 0.82803
 H1473 H 0.29558 -0.11513 0.79638
 H1474 H 0.27482 -0.12119 0.77599
 H1475 H 0.26048 -0.09869 0.76158
 H1476 H 0.26681 -0.07000 0.76747
 C1477 C 0.78827 0.44048 0.78813
 C1478 C 0.78441 0.42398 0.78397
 C1479 C 0.79243 0.41073 0.79204
 C1480 C 0.80428 0.41406 0.80422
 C1481 C 0.80814 0.43055 0.80837
 C1482 C 0.80011 0.44381 0.80031
 C1483 C 0.80417 0.46019 0.80466
 C1484 C 0.81584 0.46340 0.81664
 C1485 C 0.82369 0.45044 0.82453
 C1486 C 0.81993 0.43418 0.82050
 C1487 C 0.78836 0.39435 0.78768
 C1488 C 0.77671 0.39114 0.77567
 C1489 C 0.76888 0.40410 0.76778
 C1490 C 0.77262 0.42035 0.77183
 C1491 C 0.81248 0.40050 0.81242
 C1492 C 0.81923 0.38915 0.81916
 C1493 C 0.78005 0.45399 0.77987
 C1494 C 0.77311 0.46505 0.77289
 H1495 H 0.79840 0.47068 0.79887
 H1496 H 0.81881 0.47601 0.81982
 H1497 H 0.83274 0.45300 0.83383
 H1498 H 0.82636 0.42452 0.82697
 H1499 H 0.79412 0.38385 0.79347
 H1500 H 0.77375 0.37854 0.77248
 H1501 H 0.75985 0.40155 0.75845
 H1502 H 0.76618 0.43000 0.76535
 C1503 C 0.78921 -0.05852 0.28976
 C1504 C 0.78533 -0.07519 0.28634
 C1505 C 0.79361 -0.08808 0.29473
 C1506 C 0.80572 -0.08423 0.30648
 C1507 C 0.80957 -0.06756 0.30993
 C1508 C 0.80129 -0.05467 0.30155
 C1509 C 0.80535 -0.03811 0.30519
 C1510 C 0.81726 -0.03438 0.31679
 C1511 C 0.82536 -0.04698 0.32498
 C1512 C 0.82161 -0.06341 0.32164
 C1513 C 0.78952 -0.10464 0.29108
 C1514 C 0.77761 -0.10837 0.27950
 C1515 C 0.76952 -0.09577 0.27130
 C1516 C 0.77328 -0.07935 0.27463
 C1517 C 0.81422 -0.09743 0.31495
 C1518 C 0.82119 -0.10855 0.32184
 C1519 C 0.78079 -0.04539 0.28112
 C1520 C 0.77371 -0.03462 0.27383
 H1521 H 0.79938 -0.02788 0.29914
 H1522 H 0.82022 -0.02164 0.31942
 H1523 H 0.83460 -0.04403 0.33397
 H1524 H 0.82824 -0.07278 0.32833
 H1525 H 0.79548 -0.11488 0.29713
 H1526 H 0.77464 -0.12110 0.27686
 H1527 H 0.76027 -0.09872 0.26231
 H1528 H 0.76664 -0.06999 0.26794
 C1529 C 0.28853 0.55884 0.71119
 C1530 C 0.29967 0.56903 0.71976
 C1531 C 0.30784 0.58206 0.71151
 C1532 C 0.30481 0.58484 0.69474
 C1533 C 0.29378 0.57456 0.68613
 C1534 C 0.28562 0.56152 0.69438
 C1535 C 0.27463 0.55143 0.68553
 C1536 C 0.27178 0.55414 0.66900
 C1537 C 0.27975 0.56689 0.66093
 C1538 C 0.29064 0.57702 0.66934
 C1539 C 0.31890 0.59210 0.72035
 C1540 C 0.32180 0.58935 0.73686
 C1541 C 0.31382 0.57661 0.74493
 C1542 C 0.30287 0.56653 0.73654
 C1543 C 0.31290 0.59837 0.68641
 C1544 C 0.31959 0.60970 0.67963
 C1545 C 0.27994 0.54575 0.71972
 C1546 C 0.27276 0.53499 0.72690
 H1547 H 0.26814 0.54135 0.69126
 H1548 H 0.26334 0.54630 0.66241
 H1549 H 0.27749 0.56894 0.64809
 H1550 H 0.29655 0.58678 0.66254
 H1551 H 0.32542 0.60216 0.71461
 H1552 H 0.33030 0.59714 0.74343
 H1553 H 0.31612 0.57452 0.75776
 H1554 H 0.29697 0.55677 0.74335
 C1555 C 0.28774 1.05877 0.21076
 C1556 C 0.27858 1.07206 0.20421
 C1557 C 0.28676 1.08516 0.19608
 C1558 C 0.30405 1.08491 0.19455
 C1559 C 0.31320 1.07156 0.20097
 C1560 C 0.30502 1.05845 0.20909
 C1561 C 0.31443 1.04524 0.21541
 C1562 C 0.33143 1.04500 0.21377
 C1563 C 0.33942 1.05783 0.20584
 C1564 C 0.33047 1.07099 0.19949
 C1565 C 0.27733 1.09831 0.18967
 C1566 C 0.26033 1.09852 0.19124
 C1567 C 0.25234 1.08571 0.19919
 C1568 C 0.26129 1.07260 0.20563
 C1569 C 0.31240 1.09848 0.18654
 C1570 C 0.31921 1.10986 0.17995
 C1571 C 0.27940 1.04558 0.21937
 C1572 C 0.27237 1.03475 0.22661
 H1573 H 0.30876 1.03498 0.22167
 H1574 H 0.33844 1.03480 0.21867
 H1575 H 0.35263 1.05758 0.20460
 H1576 H 0.33724 1.08068 0.19342
 H1577 H 0.28299 1.10856 0.18337
 H1578 H 0.25331 1.10867 0.18625
 H1579 H 0.23912 1.08593 0.20038
 H1580 H 0.25451 1.06292 0.21169
 C1581 C 0.78866 0.55789 0.21001
 C1582 C 0.78051 0.57308 0.20731
 C1583 C 0.78871 0.58608 0.19905
 C1584 C 0.80502 0.58383 0.19355
 C1585 C 0.81313 0.56860 0.19614
 C1586 C 0.80492 0.55559 0.20439
 C1587 C 0.81328 0.54048 0.20685
 C1588 C 0.82930 0.53829 0.20133
 C1589 C 0.83733 0.55102 0.19328
 C1590 C 0.82940 0.56603 0.19068
 C1591 C 0.78032 0.60116 0.19652
 C1592 C 0.76428 0.60332 0.20198
 C1593 C 0.75626 0.59062 0.21006
 C1594 C 0.76422 0.57564 0.21273
 C1595 C 0.81346 0.59723 0.18533
 C1596 C 0.82032 0.60848 0.17860
 C1597 C 0.78034 0.54472 0.21867
 C1598 C 0.77330 0.53393 0.22596
 H1599 H 0.80754 0.53022 0.21305
 H1600 H 0.83551 0.52666 0.20331
 H1601 H 0.84977 0.54926 0.18901
 H1602 H 0.83615 0.57555 0.18435
 H1603 H 0.78603 0.61141 0.19029
 H1604 H 0.75804 0.61493 0.19993
 H1605 H 0.74380 0.59236 0.21428
 H1606 H 0.75746 0.56613 0.21906
 C1607 C 0.78838 1.05932 0.71186
 C1608 C 0.78592 1.07571 0.71733
 C1609 C 0.79391 1.08898 0.70929
 C1610 C 0.80432 1.08578 0.69582
 C1611 C 0.80679 1.06939 0.69036
 C1612 C 0.79880 1.05612 0.69840
 C1613 C 0.80146 1.03984 0.69273
 C1614 C 0.81174 1.03675 0.67949
 C1615 C 0.81955 1.04973 0.67162
 C1616 C 0.81715 1.06588 0.67694
 C1617 C 0.79126 1.10525 0.71499
 C1618 C 0.78102 1.10833 0.72826
 C1619 C 0.77321 1.09535 0.73613
 C1620 C 0.77557 1.07921 0.73078
 C1621 C 0.81247 1.09936 0.68762
 C1622 C 0.81918 1.11072 0.68090
 C1623 C 0.78017 1.04580 0.72008
 C1624 C 0.77325 1.03474 0.72706
 H1625 H 0.79566 1.02934 0.69846
 H1626 H 0.81364 1.02423 0.67532
 H1627 H 0.82752 1.04727 0.66134
 H1628 H 0.82350 1.07556 0.67043
 H1629 H 0.79706 1.11576 0.70927
 H1630 H 0.77914 1.12085 0.73246
 H1631 H 0.76530 1.09781 0.74645
 H1632 H 0.76922 1.06954 0.73730
 C1633 C 0.71097 0.55855 0.28934
 C1634 C 0.69545 0.56405 0.28383
 C1635 C 0.68741 0.57729 0.29195
 C1636 C 0.69494 0.58495 0.30553
 C1637 C 0.71038 0.57934 0.31114
 C1638 C 0.71841 0.56610 0.30303
 C1639 C 0.73386 0.56073 0.30884
 C1640 C 0.74116 0.56823 0.32229
 C1641 C 0.73330 0.58118 0.33022
 C1642 C 0.71809 0.58672 0.32477
 C1643 C 0.67193 0.58260 0.28618
 C1644 C 0.66459 0.57504 0.27279
 C1645 C 0.67245 0.56209 0.26486
 C1646 C 0.68770 0.55661 0.27026
 C1647 C 0.68693 0.59875 0.31356
 C1648 C 0.68035 0.61030 0.32014
 C1649 C 0.71937 0.54531 0.28080
 C1650 C 0.72645 0.53443 0.27364
 H1651 H 0.74045 0.55070 0.30309
 H1652 H 0.75297 0.56397 0.32658
 H1653 H 0.73902 0.58696 0.34066
 H1654 H 0.71245 0.59682 0.33135
 H1655 H 0.66533 0.59262 0.29196
 H1656 H 0.65275 0.57926 0.26855
 H1657 H 0.66669 0.55626 0.25446
 H1658 H 0.69332 0.54649 0.26370
 C1659 C 0.71129 1.05944 0.78922
 C1660 C 0.71380 1.07582 0.78379
 C1661 C 0.70576 1.08912 0.79179
 C1662 C 0.69524 1.08596 0.80517
 C1663 C 0.69271 1.06958 0.81059
 C1664 C 0.70076 1.05628 0.80258
 C1665 C 0.69803 1.04001 0.80820
 C1666 C 0.68765 1.03697 0.82136
 C1667 C 0.67979 1.04997 0.82919
 C1668 C 0.68224 1.06612 0.82392
 C1669 C 0.70846 1.10539 0.78614
 C1670 C 0.71881 1.10842 0.77296
 C1671 C 0.72666 1.09542 0.76512
 C1672 C 0.72425 1.07928 0.77043
 C1673 C 0.68703 1.09957 0.81333
 C1674 C 0.68026 1.11095 0.82002
 C1675 C 0.71956 1.04589 0.78104
 C1676 C 0.72654 1.03481 0.77411
 H1677 H 0.70387 1.02949 0.80250
 H1678 H 0.68570 1.02444 0.82549
 H1679 H 0.67174 1.04754 0.83940
 H1680 H 0.67585 1.07582 0.83040
 H1681 H 0.70262 1.11591 0.79183
 H1682 H 0.72073 1.12094 0.76879
 H1683 H 0.73466 1.09784 0.75487
 H1684 H 0.73065 1.06959 0.76394
 C1685 C 0.20994 0.55863 0.79066
 C1686 C 0.19325 0.56196 0.78723
 C1687 C 0.18504 0.57502 0.79548
 C1688 C 0.19357 0.58465 0.80710
 C1689 C 0.21020 0.58119 0.81067
 C1690 C 0.21841 0.56815 0.80242
 C1691 C 0.23506 0.56496 0.80615
 C1692 C 0.24335 0.57439 0.81771
 C1693 C 0.23532 0.58714 0.82577
 C1694 C 0.21894 0.59056 0.82234
 C1695 C 0.16838 0.57815 0.79181
 C1696 C 0.16005 0.56866 0.78033
 C1697 C 0.16807 0.55589 0.77228
 C1698 C 0.18448 0.55253 0.77564
 C1699 C 0.18532 0.59826 0.81522
 C1700 C 0.17857 0.60967 0.82188
 C1701 C 0.21846 0.54558 0.78194
 C1702 C 0.22563 0.53485 0.77464
 H1703 H 0.24183 0.55516 0.80021
 H1704 H 0.25608 0.57178 0.82042
 H1705 H 0.24182 0.59442 0.83474
 H1706 H 0.21322 0.60060 0.82895
 H1707 H 0.16161 0.58794 0.79777
 H1708 H 0.14730 0.57122 0.77768
 H1709 H 0.16155 0.54855 0.76338
 H1710 H 0.19019 0.54246 0.76906
 C1711 C 0.20982 1.05851 0.29031
 C1712 C 0.21719 1.06599 0.30408
 C1713 C 0.20904 1.07908 0.31231
 C1714 C 0.19357 1.08462 0.30673
 C1715 C 0.18611 1.07703 0.29307
 C1716 C 0.19426 1.06393 0.28484
 C1717 C 0.18659 1.05657 0.27119
 C1718 C 0.17129 1.06197 0.26583
 C1719 C 0.16333 1.07478 0.27388
 C1720 C 0.17059 1.08227 0.28734
 C1721 C 0.21667 1.08639 0.32602
 C1722 C 0.23192 1.08091 0.33144
 C1723 C 0.23989 1.06811 0.32339
 C1724 C 0.23267 1.06069 0.30986
 C1725 C 0.18544 1.09829 0.31487
 C1726 C 0.17878 1.10974 0.32154
 C1727 C 0.21834 1.04543 0.28165
 C1728 C 0.22550 1.03467 0.27438
 H1729 H 0.19230 1.04656 0.26453
 H1730 H 0.16560 1.05619 0.25537
 H1731 H 0.15145 1.07893 0.26966
 H1732 H 0.16390 1.09217 0.29321
 H1733 H 0.21095 1.09637 0.33269
 H1734 H 0.23758 1.08664 0.34195
 H1735 H 0.25173 1.06390 0.32765
 H1736 H 0.23935 1.05077 0.30402
 C1737 C 0.71103 0.44091 0.71067
 C1738 C 0.71227 0.42468 0.71692
 C1739 C 0.70425 0.41146 0.70882
 C1740 C 0.69504 0.41454 0.69452
 C1741 C 0.69378 0.43078 0.68828
 C1742 C 0.70179 0.44400 0.69639
 C1743 C 0.70035 0.46012 0.68993
 C1744 C 0.69126 0.46310 0.67586
 C1745 C 0.68343 0.45017 0.66793
 C1746 C 0.68463 0.43417 0.67402
 C1747 C 0.70568 0.39534 0.71530
 C1748 C 0.71476 0.39237 0.72938
 C1749 C 0.72260 0.40530 0.73731
 C1750 C 0.72142 0.42129 0.73120
 C1751 C 0.68690 0.40100 0.68623
 C1752 C 0.68020 0.38967 0.67944
 C1753 C 0.71931 0.45438 0.71892
 C1754 C 0.72630 0.46538 0.72592
 H1755 H 0.70623 0.47058 0.69567
 H1756 H 0.69029 0.47550 0.67109
 H1757 H 0.67638 0.45254 0.65701
 H1758 H 0.67832 0.42452 0.66742
 H1759 H 0.69981 0.38488 0.70958
 H1760 H 0.71571 0.37997 0.73418
 H1761 H 0.72961 0.40294 0.74825
 H1762 H 0.72774 0.43093 0.73780
 C1763 C 0.71143 -0.05913 0.21057
 C1764 C 0.69451 -0.06188 0.21332
 C1765 C 0.68641 -0.07507 0.20526
 C1766 C 0.69526 -0.08543 0.19448
 C1767 C 0.71214 -0.08259 0.19160
 C1768 C 0.72025 -0.06940 0.19967
 C1769 C 0.73714 -0.06684 0.19664
 C1770 C 0.74577 -0.07701 0.18594
 C1771 C 0.73784 -0.08989 0.17804
 C1772 C 0.72122 -0.09271 0.18079
 C1773 C 0.66951 -0.07761 0.20824
 C1774 C 0.66085 -0.06739 0.21889
 C1775 C 0.66878 -0.05449 0.22677
 C1776 C 0.68541 -0.05171 0.22407
 C1777 C 0.68708 -0.09913 0.18650
 C1778 C 0.68037 -0.11059 0.17995
 C1779 C 0.71981 -0.04589 0.21908
 C1780 C 0.72687 -0.03501 0.22621
 H1781 H 0.74385 -0.05697 0.20249
 H1782 H 0.75868 -0.07487 0.18376
 H1783 H 0.74460 -0.09775 0.16973
 H1784 H 0.71560 -0.10289 0.17436
 H1785 H 0.66280 -0.08748 0.20239
 H1786 H 0.64793 -0.06950 0.22102
 H1787 H 0.66200 -0.04659 0.23502
 H1788 H 0.69103 -0.04151 0.23048
 C1789 C 0.21072 0.44218 0.20950
 C1790 C 0.19428 0.43834 0.21355
 C1791 C 0.18611 0.42524 0.20541
 C1792 C 0.19442 0.41605 0.19325
 C1793 C 0.21080 0.42001 0.18906
 C1794 C 0.21897 0.43311 0.19721
 C1795 C 0.23535 0.43680 0.19284
 C1796 C 0.24342 0.42781 0.18077
 C1797 C 0.23544 0.41500 0.17280
 C1798 C 0.21931 0.41109 0.17685
 C1799 C 0.16971 0.42160 0.20971
 C1800 C 0.16160 0.43066 0.22172
 C1801 C 0.16958 0.44347 0.22967
 C1802 C 0.18574 0.44733 0.22569
 C1803 C 0.18623 0.40239 0.18523
 C1804 C 0.17951 0.39095 0.17865
 C1805 C 0.21921 0.45527 0.21812
 C1806 C 0.22635 0.46603 0.22536
 H1807 H 0.24208 0.44665 0.19868
 H1808 H 0.25595 0.43080 0.17759
 H1809 H 0.24176 0.40806 0.16343
 H1810 H 0.21361 0.40104 0.17029
 H1811 H 0.16297 0.41176 0.20385
 H1812 H 0.14905 0.42771 0.22485
 H1813 H 0.16323 0.45047 0.23899
 H1814 H 0.19142 0.45741 0.23221
 C1815 C 0.21124 -0.05853 0.71050
 C1816 C 0.22000 -0.06869 0.69945
 C1817 C 0.21186 -0.08180 0.69130
 C1818 C 0.19500 -0.08469 0.69425
 C1819 C 0.18620 -0.07445 0.70518
 C1820 C 0.19434 -0.06132 0.71333
 C1821 C 0.18530 -0.05127 0.72422
 C1822 C 0.16868 -0.05410 0.72700
 C1823 C 0.16073 -0.06693 0.71904
 C1824 C 0.16932 -0.07703 0.70825
 C1825 C 0.22088 -0.09181 0.68034
 C1826 C 0.23748 -0.08894 0.67751
 C1827 C 0.24544 -0.07613 0.68548
 C1828 C 0.23687 -0.06608 0.69634
 C1829 C 0.18679 -0.09833 0.68621
 C1830 C 0.18006 -0.10975 0.67960
 C1831 C 0.21966 -0.04538 0.71910
 C1832 C 0.22676 -0.03458 0.72630
 H1833 H 0.19095 -0.04113 0.73069
 H1834 H 0.16195 -0.04629 0.73537
 H1835 H 0.14782 -0.06908 0.72124
 H1836 H 0.16259 -0.08685 0.70234
 H1837 H 0.21523 -0.10192 0.67384
 H1838 H 0.24420 -0.09671 0.66909
 H1839 H 0.25834 -0.07395 0.68324
 H1840 H 0.24360 -0.05625 0.70223
 C1841 C 0.28853 0.28892 0.44147
 C1842 C 0.28684 0.28262 0.42544
 C1843 C 0.29483 0.29060 0.41222
 C1844 C 0.30445 0.30484 0.41510
 C1845 C 0.30614 0.31112 0.43112
 C1846 C 0.29816 0.30313 0.44435
 C1847 C 0.30003 0.30964 0.46025
 C1848 C 0.30951 0.32364 0.46302
 C1849 C 0.31732 0.33145 0.45009
 C1850 C 0.31569 0.32532 0.43430
 C1851 C 0.29296 0.28408 0.39632
 C1852 C 0.28349 0.27006 0.39356
 C1853 C 0.27569 0.26225 0.40648
 C1854 C 0.27729 0.26841 0.42226
 C1855 C 0.31258 0.31298 0.40157
 C1856 C 0.31928 0.31965 0.39025
 C1857 C 0.28030 0.28077 0.45493
 C1858 C 0.27333 0.27385 0.46593
 H1859 H 0.29419 0.30399 0.47070
 H1860 H 0.31081 0.32845 0.47527
 H1861 H 0.32467 0.34232 0.45231
 H1862 H 0.32200 0.33182 0.42464
 H1863 H 0.29879 0.28971 0.38586
 H1864 H 0.28221 0.26523 0.38131
 H1865 H 0.26837 0.25136 0.40428
 H1866 H 0.27098 0.26190 0.43191
 C1867 C 0.28944 0.78931 -0.05854
 C1868 C 0.28711 0.78388 -0.07479
 C1869 C 0.29531 0.79200 -0.08780
 C1870 C 0.30579 0.80550 -0.08449
 C1871 C 0.30814 0.81090 -0.06824
 C1872 C 0.29995 0.80278 -0.05523
 C1873 C 0.30249 0.80841 -0.03909
 C1874 C 0.31284 0.82167 -0.03589
 C1875 C 0.32085 0.82962 -0.04861
 C1876 C 0.31857 0.82435 -0.06463
 C1877 C 0.29278 0.78634 -0.10394
 C1878 C 0.28246 0.77304 -0.10713
 C1879 C 0.27446 0.76510 -0.09441
 C1880 C 0.27670 0.77041 -0.07841
 C1881 C 0.31408 0.81383 -0.09781
 C1882 C 0.32089 0.82069 -0.10896
 C1883 C 0.28098 0.78105 -0.04529
 C1884 C 0.27384 0.77409 -0.03442
 H1885 H 0.29653 0.80262 -0.02879
 H1886 H 0.31465 0.82581 -0.02347
 H1887 H 0.32887 0.83992 -0.04606
 H1888 H 0.32507 0.83092 -0.07411
 H1889 H 0.29874 0.79211 -0.11425
 H1890 H 0.28068 0.76888 -0.11954
 H1891 H 0.26647 0.75477 -0.09695
 H1892 H 0.27019 0.76383 -0.06893
 C1893 C 0.78866 0.28871 -0.05911
 C1894 C 0.78634 0.28280 -0.07520
 C1895 C 0.79429 0.29075 -0.08847
 C1896 C 0.80450 0.30455 -0.08558
 C1897 C 0.80684 0.31043 -0.06949
 C1898 C 0.79890 0.30249 -0.05622
 C1899 C 0.80141 0.30859 -0.04024
 C1900 C 0.81150 0.32216 -0.03745
 C1901 C 0.81926 0.32993 -0.05043
 C1902 C 0.81701 0.32419 -0.06629
 C1903 C 0.79178 0.28462 -0.10444
 C1904 C 0.78172 0.27103 -0.10722
 C1905 C 0.77397 0.26326 -0.09425
 C1906 C 0.77619 0.26903 -0.07840
 C1907 C 0.81257 0.31267 -0.09916
 C1908 C 0.81921 0.31934 -0.11052
 C1909 C 0.78047 0.28061 -0.04560
 C1910 C 0.77353 0.27372 -0.03457
 H1911 H 0.79563 0.30295 -0.02976
 H1912 H 0.81329 0.32666 -0.02516
 H1913 H 0.82708 0.34046 -0.04820
 H1914 H 0.82331 0.33064 -0.07598
 H1915 H 0.79755 0.29024 -0.11494
 H1916 H 0.77995 0.26650 -0.11952
 H1917 H 0.76619 0.25268 -0.09647
 H1918 H 0.76988 0.26256 -0.06872
 C1919 C 0.78997 0.78953 0.44198
 C1920 C 0.78776 0.78405 0.42573
 C1921 C 0.79590 0.79224 0.41274
 C1922 C 0.80620 0.80588 0.41606
 C1923 C 0.80844 0.81134 0.43231
 C1924 C 0.80030 0.80314 0.44531
 C1925 C 0.80272 0.80882 0.46145
 C1926 C 0.81289 0.82222 0.46466
 C1927 C 0.82085 0.83024 0.45195
 C1928 C 0.81869 0.82492 0.43593
 C1929 C 0.79349 0.78653 0.39660
 C1930 C 0.78334 0.77310 0.39340
 C1931 C 0.77539 0.76509 0.40610
 C1932 C 0.77751 0.77044 0.42211
 C1933 C 0.81446 0.81427 0.40275
 C1934 C 0.82124 0.82116 0.39161
 C1935 C 0.78156 0.78119 0.45522
 C1936 C 0.77446 0.77416 0.46606
 H1937 H 0.79679 0.80298 0.47174
 H1938 H 0.81461 0.82640 0.47708
 H1939 H 0.82874 0.84065 0.45450
 H1940 H 0.82514 0.83155 0.42646
 H1941 H 0.79941 0.79236 0.38630
 H1942 H 0.78165 0.76890 0.38098
 H1943 H 0.76754 0.75465 0.40356
 H1944 H 0.77106 0.76380 0.43157
 C1945 C 0.71132 0.28797 0.55778
 C1946 C 0.71605 0.28453 0.57404
 C1947 C 0.70797 0.29255 0.58721
 C1948 C 0.69522 0.30397 0.58405
 C1949 C 0.69049 0.30742 0.56780
 C1950 C 0.69857 0.29939 0.55462
 C1951 C 0.69364 0.30304 0.53848
 C1952 C 0.68110 0.31431 0.53543
 C1953 C 0.67320 0.32215 0.54831
 C1954 C 0.67779 0.31880 0.56433
 C1955 C 0.71292 0.28890 0.60335
 C1956 C 0.72550 0.27767 0.60639
 C1957 C 0.73341 0.26985 0.59351
 C1958 C 0.72878 0.27317 0.57750
 C1959 C 0.68700 0.31217 0.59753
 C1960 C 0.68026 0.31891 0.60881
 C1961 C 0.71960 0.27976 0.54436
 C1962 C 0.72665 0.27282 0.53340
 H1963 H 0.69942 0.29725 0.52806
 H1964 H 0.67748 0.31696 0.52301
 H1965 H 0.66346 0.33089 0.54588
 H1966 H 0.67128 0.32521 0.57394
 H1967 H 0.70715 0.29468 0.61378
 H1968 H 0.72914 0.27504 0.61881
 H1969 H 0.74320 0.26116 0.59594
 H1970 H 0.73530 0.26676 0.56790
 C1971 C 0.71062 0.78732 1.05847
 C1972 C 0.71327 0.78169 1.07459
 C1973 C 0.70529 0.78964 1.08786
 C1974 C 0.69470 0.80318 1.08493
 C1975 C 0.69202 0.80877 1.06880
 C1976 C 0.70000 0.80082 1.05553
 C1977 C 0.69714 0.80663 1.03951
 C1978 C 0.68668 0.81993 1.03668
 C1979 C 0.67888 0.82771 1.04966
 C1980 C 0.68147 0.82225 1.06556
 C1981 C 0.70813 0.78379 1.10387
 C1982 C 0.71856 0.77046 1.10669
 C1983 C 0.72635 0.76268 1.09372
 C1984 C 0.72380 0.76818 1.07783
 C1985 C 0.68665 0.81136 1.09851
 C1986 C 0.68004 0.81809 1.10987
 C1987 C 0.71890 0.77925 1.04496
 C1988 C 0.72594 0.77242 1.03392
 H1989 H 0.70292 0.80097 1.02903
 H1990 H 0.68462 0.82421 1.02436
 H1991 H 0.67077 0.83804 1.04740
 H1992 H 0.67512 0.82870 1.07524
 H1993 H 0.70235 0.78943 1.11437
 H1994 H 0.72059 0.76615 1.11901
 H1995 H 0.73441 0.75232 1.09597
 H1996 H 0.73015 0.76172 1.06815
 C1997 C 0.21043 0.28795 1.05815
 C1998 C 0.21313 0.28267 1.07439
 C1999 C 0.20502 0.29078 1.08749
 C2000 C 0.19427 0.30412 1.08429
 C2001 C 0.19155 0.30937 1.06805
 C2002 C 0.19965 0.30126 1.05494
 C2003 C 0.19674 0.30673 1.03882
 C2004 C 0.18613 0.31984 1.03573
 C2005 C 0.17821 0.32777 1.04854
 C2006 C 0.18084 0.32265 1.06454
 C2007 C 0.20792 0.28528 1.10361
 C2008 C 0.21851 0.27215 1.10670
 C2009 C 0.22642 0.26421 1.09389
 C2010 C 0.22382 0.26937 1.07789
 C2011 C 0.18609 0.31245 1.09771
 C2012 C 0.17938 0.31930 1.10894
 C2013 C 0.21881 0.27972 1.04481
 C2014 C 0.22593 0.27274 1.03391
 H2015 H 0.20262 0.30094 1.02845
 H2016 H 0.18404 0.32386 1.02332
 H2017 H 0.16997 0.33795 1.04607
 H2018 H 0.17439 0.32920 1.07410
 H2019 H 0.20205 0.29105 1.11399
 H2020 H 0.22058 0.26810 1.11910
 H2021 H 0.23461 0.25400 1.09634
 H2022 H 0.23026 0.26280 1.06835
 C2023 C 0.21089 0.78866 0.55861
 C2024 C 0.21369 0.78324 0.57478
 C2025 C 0.20575 0.79130 0.58802
 C2026 C 0.19505 0.80473 0.58500
 C2027 C 0.19224 0.81013 0.56883
 C2028 C 0.20018 0.80207 0.55559
 C2029 C 0.19718 0.80769 0.53954
 C2030 C 0.18663 0.82089 0.53663
 C2031 C 0.17886 0.82877 0.54957
 C2032 C 0.18159 0.82351 0.56551
 C2033 C 0.20874 0.78565 0.60407
 C2034 C 0.21927 0.77243 0.60697
 C2035 C 0.22703 0.76455 0.59404
 C2036 C 0.22433 0.76984 0.57810
 C2037 C 0.18698 0.81296 0.59854
 C2038 C 0.18034 0.81973 0.60987
 C2039 C 0.21910 0.78047 0.54513
 C2040 C 0.22607 0.77352 0.53413
 H2041 H 0.20294 0.80195 0.52908
 H2042 H 0.18447 0.82503 0.52427
 H2043 H 0.17068 0.83903 0.54725
 H2044 H 0.17526 0.83003 0.57517
 H2045 H 0.20299 0.79138 0.61454
 H2046 H 0.22141 0.76827 0.61933
 H2047 H 0.23517 0.75426 0.59635
 H2048 H 0.23065 0.76331 0.56846
 C2049 C 0.28894 0.71167 0.55830
 C2050 C 0.28662 0.71739 0.57446
 C2051 C 0.29467 0.70934 0.58760
 C2052 C 0.30500 0.69563 0.58451
 C2053 C 0.30735 0.68995 0.56834
 C2054 C 0.29930 0.69800 0.55519
 C2055 C 0.30183 0.69209 0.53914
 C2056 C 0.31203 0.67862 0.53616
 C2057 C 0.31990 0.67075 0.54901
 C2058 C 0.31763 0.67629 0.56494
 C2059 C 0.29216 0.71527 0.60365
 C2060 C 0.28200 0.72878 0.60663
 C2061 C 0.27413 0.73665 0.59378
 C2062 C 0.27636 0.73107 0.57786
 C2063 C 0.31315 0.68737 0.59796
 C2064 C 0.31984 0.68059 0.60922
 C2065 C 0.28060 0.71985 0.54491
 C2066 C 0.27353 0.72676 0.53397
 H2067 H 0.29597 0.69781 0.52875
 H2068 H 0.31384 0.67427 0.52380
 H2069 H 0.32781 0.66029 0.54662
 H2070 H 0.32402 0.66977 0.57453
 H2071 H 0.29801 0.70957 0.61405
 H2072 H 0.28022 0.73316 0.61898
 H2073 H 0.26627 0.74715 0.59615
 H2074 H 0.26997 0.73761 0.56828
 C2075 C 0.28873 0.21113 1.05905
 C2076 C 0.29915 0.19746 1.05609
 C2077 C 0.30712 0.18950 1.06934
 C2078 C 0.30464 0.19526 1.08546
 C2079 C 0.29426 0.20896 1.08841
 C2080 C 0.28628 0.21692 1.07516
 C2081 C 0.27596 0.23059 1.07842
 C2082 C 0.27360 0.23625 1.09429
 C2083 C 0.28139 0.22847 1.10724
 C2084 C 0.29161 0.21497 1.10441
 C2085 C 0.31746 0.17586 1.06608
 C2086 C 0.31986 0.17024 1.05019
 C2087 C 0.31207 0.17802 1.03725
 C2088 C 0.30181 0.19148 1.04009
 C2089 C 0.31270 0.18709 1.09901
 C2090 C 0.31931 0.18035 1.11034
 C2091 C 0.28049 0.21922 1.04556
 C2092 C 0.27351 0.22606 1.03452
 H2093 H 0.26962 0.23706 1.06876
 H2094 H 0.26569 0.24674 1.09656
 H2095 H 0.27951 0.23291 1.11955
 H2096 H 0.29740 0.20934 1.11488
 H2097 H 0.32380 0.16940 1.07575
 H2098 H 0.32782 0.15979 1.04792
 H2099 H 0.31397 0.17361 1.02493
 H2100 H 0.29602 0.19713 1.02962
 C2101 C 0.78921 0.71081 1.05783
 C2102 C 0.79986 0.69739 1.05461
 C2103 C 0.80798 0.68932 1.06770
 C2104 C 0.80541 0.69472 1.08393
 C2105 C 0.79478 0.70817 1.08714
 C2106 C 0.78666 0.71624 1.07406
 C2107 C 0.77610 0.72966 1.07757
 C2108 C 0.77365 0.73496 1.09356
 C2109 C 0.78159 0.72707 1.10635
 C2110 C 0.79204 0.71382 1.10326
 C2111 C 0.81856 0.67593 1.06418
 C2112 C 0.82106 0.67067 1.04819
 C2113 C 0.81312 0.67856 1.03540
 C2114 C 0.80262 0.69178 1.03850
 C2115 C 0.81363 0.68643 1.09733
 C2116 C 0.82038 0.67963 1.10854
 C2117 C 0.78082 0.71902 1.04450
 C2118 C 0.77371 0.72596 1.03361
 H2119 H 0.76965 0.73621 1.06804
 H2120 H 0.76557 0.74527 1.09602
 H2121 H 0.77964 0.73123 1.11875
 H2122 H 0.79793 0.70808 1.11362
 H2123 H 0.82502 0.66939 1.07373
 H2124 H 0.82920 0.66041 1.04572
 H2125 H 0.81510 0.67443 1.02299
 H2126 H 0.79673 0.69753 1.02814
 C2127 C 0.78909 0.21124 0.55834
 C2128 C 0.78244 0.21265 0.57423
 C2129 C 0.79037 0.20481 0.58757
 C2130 C 0.80490 0.19561 0.58493
 C2131 C 0.81154 0.19418 0.56903
 C2132 C 0.80360 0.20202 0.55569
 C2133 C 0.81045 0.20042 0.53991
 C2134 C 0.82474 0.19133 0.53737
 C2135 C 0.83251 0.18367 0.55041
 C2136 C 0.82603 0.18504 0.56609
 C2137 C 0.78348 0.20639 0.60335
 C2138 C 0.76917 0.21544 0.60587
 C2139 C 0.76140 0.22309 0.59284
 C2140 C 0.76791 0.22177 0.57718
 C2141 C 0.81300 0.18763 0.59858
 C2142 C 0.81963 0.18106 0.61000
 C2143 C 0.78100 0.21934 0.54476
 C2144 C 0.77410 0.22620 0.53368
 H2145 H 0.80485 0.20615 0.52938
 H2146 H 0.82982 0.19023 0.52522
 H2147 H 0.84361 0.17663 0.54838
 H2148 H 0.83251 0.17886 0.57584
 H2149 H 0.78906 0.20065 0.61388
 H2150 H 0.76406 0.21650 0.61802
 H2151 H 0.75027 0.23007 0.59486
 H2152 H 0.76142 0.22796 0.56743
 C2153 C 0.71164 0.71248 0.44124
 C2154 C 0.70068 0.69932 0.44429
 C2155 C 0.69265 0.69137 0.43107
 C2156 C 0.69563 0.69664 0.41489
 C2157 C 0.70657 0.70983 0.41184
 C2158 C 0.71460 0.71777 0.42506
 C2159 C 0.72548 0.73093 0.42171
 C2160 C 0.72835 0.73610 0.40576
 C2161 C 0.72051 0.72833 0.39284
 C2162 C 0.70974 0.71534 0.39577
 C2163 C 0.68176 0.67823 0.43443
 C2164 C 0.67887 0.67309 0.45038
 C2165 C 0.68672 0.68086 0.46331
 C2166 C 0.69751 0.69383 0.46037
 C2167 C 0.68749 0.68850 0.40136
 C2168 C 0.68080 0.68180 0.39005
 C2169 C 0.71992 0.72057 0.45471
 C2170 C 0.72694 0.72743 0.46572
 H2171 H 0.73188 0.73737 0.43134
 H2172 H 0.73668 0.74620 0.40342
 H2173 H 0.72277 0.73238 0.38047
 H2174 H 0.70393 0.70969 0.38531
 H2175 H 0.67536 0.67180 0.42478
 H2176 H 0.67050 0.66302 0.45273
 H2177 H 0.68443 0.67683 0.47568
 H2178 H 0.70332 0.69949 0.47082
 C2179 C 0.71078 0.21218 -0.05890
 C2180 C 0.70006 0.19882 -0.05585
 C2181 C 0.69205 0.19083 -0.06906
 C2182 C 0.69481 0.19626 -0.08524
 C2183 C 0.70550 0.20967 -0.08828
 C2184 C 0.71350 0.21765 -0.07507
 C2185 C 0.72413 0.23102 -0.07842
 C2186 C 0.72676 0.23636 -0.09435
 C2187 C 0.71894 0.22855 -0.10726
 C2188 C 0.70842 0.21535 -0.10434
 C2189 C 0.68140 0.17749 -0.06571
 C2190 C 0.67874 0.17219 -0.04977
 C2191 C 0.68657 0.18000 -0.03686
 C2192 C 0.69712 0.19317 -0.03979
 C2193 C 0.68672 0.18806 -0.09876
 C2194 C 0.68009 0.18130 -0.11007
 C2195 C 0.71908 0.22028 -0.04546
 C2196 C 0.72613 0.22714 -0.03447
 H2197 H 0.73051 0.23750 -0.06879
 H2198 H 0.73490 0.24662 -0.09669
 H2199 H 0.72103 0.23274 -0.11962
 H2200 H 0.70261 0.20968 -0.11479
 H2201 H 0.67503 0.17103 -0.07535
 H2202 H 0.67055 0.16197 -0.04743
 H2203 H 0.68446 0.17584 -0.02450
 H2204 H 0.70293 0.19885 -0.02935
 C2205 C 0.21064 0.71207 -0.05845
 C2206 C 0.19952 0.69913 -0.05509
 C2207 C 0.19136 0.69099 -0.06812
 C2208 C 0.19439 0.69585 -0.08443
 C2209 C 0.20550 0.70881 -0.08778
 C2210 C 0.21365 0.71695 -0.07475
 C2211 C 0.22470 0.72988 -0.07841
 C2212 C 0.22761 0.73464 -0.09447
 C2213 C 0.21965 0.72668 -0.10721
 C2214 C 0.20871 0.71391 -0.10397
 C2215 C 0.18030 0.67807 -0.06446
 C2216 C 0.17738 0.67333 -0.04839
 C2217 C 0.18534 0.68130 -0.03566
 C2218 C 0.19630 0.69405 -0.03889
 C2219 C 0.18611 0.68751 -0.09776
 C2220 C 0.17932 0.68066 -0.10891
 C2221 C 0.21904 0.72036 -0.04517
 C2222 C 0.22614 0.72736 -0.03430
 H2223 H 0.23120 0.73646 -0.06893
 H2224 H 0.23608 0.74457 -0.09704
 H2225 H 0.22196 0.73042 -0.11967
 H2226 H 0.20282 0.70810 -0.11430
 H2227 H 0.17381 0.67151 -0.07396
 H2228 H 0.16888 0.66343 -0.04582
 H2229 H 0.18303 0.67757 -0.02320
 H2230 H 0.20220 0.69987 -0.02858
 C2231 C 0.21081 0.21164 0.44178
 C2232 C 0.21417 0.21634 0.42549
 C2233 C 0.20610 0.20825 0.41239
 C2234 C 0.19470 0.19551 0.41566
 C2235 C 0.19133 0.19082 0.43195
 C2236 C 0.19941 0.19891 0.44505
 C2237 C 0.19585 0.19401 0.46123
 C2238 C 0.18462 0.18147 0.46437
 C2239 C 0.17672 0.17356 0.45157
 C2240 C 0.17999 0.17813 0.43551
 C2241 C 0.20967 0.21316 0.39622
 C2242 C 0.22088 0.22572 0.39307
 C2243 C 0.22876 0.23363 0.40588
 C2244 C 0.22551 0.22905 0.42193
 C2245 C 0.18647 0.18725 0.40225
 C2246 C 0.17971 0.18047 0.39104
 C2247 C 0.21911 0.21990 0.45513
 C2248 C 0.22613 0.22689 0.46605
 H2249 H 0.20168 0.19980 0.47159
 H2250 H 0.18204 0.17788 0.47682
 H2251 H 0.16801 0.16383 0.45408
 H2252 H 0.17354 0.17161 0.42596
 H2253 H 0.20384 0.20738 0.38584
 H2254 H 0.22345 0.22932 0.38063
 H2255 H 0.23744 0.24340 0.40337
 H2256 H 0.23196 0.23558 0.43147
 C2257 C 0.28745 0.44121 0.71221
 C2258 C 0.28314 0.42483 0.71638
 C2259 C 0.29104 0.41135 0.70854
 C2260 C 0.30320 0.41431 0.69657
 C2261 C 0.30749 0.43069 0.69238
 C2262 C 0.29959 0.44418 0.70023
 C2263 C 0.30409 0.46044 0.69585
 C2264 C 0.31604 0.46329 0.68404
 C2265 C 0.32377 0.45011 0.67637
 C2266 C 0.31959 0.43397 0.68044
 C2267 C 0.28652 0.39509 0.71292
 C2268 C 0.27453 0.39224 0.72469
 C2269 C 0.26679 0.40542 0.73234
 C2270 C 0.27100 0.42155 0.72830
 C2271 C 0.31126 0.40052 0.68857
 C2272 C 0.31789 0.38899 0.68199
 C2273 C 0.27939 0.45496 0.72029
 C2274 C 0.27255 0.46616 0.72717
 H2275 H 0.29842 0.47109 0.70148
 H2276 H 0.31933 0.47581 0.68083
 H2277 H 0.33305 0.45239 0.66721
 H2278 H 0.32594 0.42412 0.67414
 H2279 H 0.29218 0.38443 0.70731
 H2280 H 0.27122 0.37972 0.72788
 H2281 H 0.25746 0.40314 0.74145
 H2282 H 0.26464 0.43139 0.73460
 C2283 C 0.28782 0.94184 0.21115
 C2284 C 0.30076 0.94532 0.20017
 C2285 C 0.30892 0.93220 0.19198
 C2286 C 0.30409 0.91569 0.19482
 C2287 C 0.29113 0.91221 0.20578
 C2288 C 0.28297 0.92533 0.21397
 C2289 C 0.27005 0.92154 0.22488
 C2290 C 0.26533 0.90526 0.22762
 C2291 C 0.27331 0.89244 0.21961
 C2292 C 0.28606 0.89580 0.20881
 C2293 C 0.32184 0.93599 0.18108
 C2294 C 0.32655 0.95226 0.17834
 C2295 C 0.31857 0.96509 0.18634
 C2296 C 0.30581 0.96173 0.19715
 C2297 C 0.31245 0.90225 0.18652
 C2298 C 0.31929 0.89098 0.17973
 C2299 C 0.27950 0.95521 0.21958
 C2300 C 0.27248 0.96615 0.22671
 H2301 H 0.26347 0.93108 0.23139
 H2302 H 0.25543 0.90259 0.23600
 H2303 H 0.26960 0.87982 0.22179
 H2304 H 0.29189 0.88540 0.20287
 H2305 H 0.32841 0.92643 0.17457
 H2306 H 0.33645 0.95494 0.16996
 H2307 H 0.32228 0.97771 0.18417
 H2308 H 0.29998 0.97212 0.20308
 C2309 C 0.78848 0.44082 0.21124
 C2310 C 0.78349 0.42436 0.21411
 C2311 C 0.79161 0.41114 0.20603
 C2312 C 0.80466 0.41447 0.19514
 C2313 C 0.80964 0.43094 0.19226
 C2314 C 0.80152 0.44416 0.20034
 C2315 C 0.80672 0.46051 0.19728
 C2316 C 0.81958 0.46372 0.18655
 C2317 C 0.82751 0.45080 0.17865
 C2318 C 0.82265 0.43457 0.18143
 C2319 C 0.78640 0.39479 0.20911
 C2320 C 0.77356 0.39157 0.21985
 C2321 C 0.76563 0.40449 0.22774
 C2322 C 0.77048 0.42071 0.22496
 C2323 C 0.81295 0.40094 0.18693
 C2324 C 0.81971 0.38958 0.18021
 C2325 C 0.78019 0.45429 0.21955
 C2326 C 0.77319 0.46531 0.22657
 H2327 H 0.80092 0.47097 0.20314
 H2328 H 0.82340 0.47631 0.18435
 H2329 H 0.83749 0.45336 0.17033
 H2330 H 0.82920 0.42494 0.17500
 H2331 H 0.79219 0.38432 0.20326
 H2332 H 0.76974 0.37899 0.22205
 H2333 H 0.75566 0.40193 0.23608
 H2334 H 0.76392 0.43034 0.23139
 C2335 C 0.78869 0.94131 0.71177
 C2336 C 0.78469 0.92480 0.71572
 C2337 C 0.79276 0.91158 0.70762
 C2338 C 0.80479 0.91494 0.69561
 C2339 C 0.80876 0.93146 0.69165
 C2340 C 0.80069 0.94468 0.69975
 C2341 C 0.80487 0.96108 0.69558
 C2342 C 0.81668 0.96433 0.68374
 C2343 C 0.82458 0.95140 0.67582
 C2344 C 0.82072 0.93513 0.67968
 C2345 C 0.78856 0.89518 0.71178
 C2346 C 0.77670 0.89193 0.72359
 C2347 C 0.76879 0.90486 0.73149
 C2348 C 0.77269 0.92112 0.72766
 C2349 C 0.81304 0.90141 0.68737
 C2350 C 0.81982 0.89009 0.68061
 C2351 C 0.78043 0.95479 0.72008
 C2352 C 0.77345 0.96582 0.72711
 H2353 H 0.79905 0.97155 0.70141
 H2354 H 0.81973 0.97695 0.68070
 H2355 H 0.83375 0.95399 0.66663
 H2356 H 0.82719 0.92549 0.67318
 H2357 H 0.79436 0.88470 0.70597
 H2358 H 0.77363 0.87931 0.72661
 H2359 H 0.75957 0.90227 0.74063
 H2360 H 0.76620 0.93075 0.73416
 C2361 C 0.71151 0.55918 0.71123
 C2362 C 0.70228 0.55634 0.69689
 C2363 C 0.69436 0.56974 0.68894
 C2364 C 0.69572 0.58589 0.69539
 C2365 C 0.70492 0.58871 0.70975
 C2366 C 0.71284 0.57532 0.71769
 C2367 C 0.72198 0.57846 0.73203
 C2368 C 0.72324 0.59436 0.73835
 C2369 C 0.71550 0.60746 0.73058
 C2370 C 0.70643 0.60474 0.71644
 C2371 C 0.68522 0.56660 0.67462
 C2372 C 0.68392 0.55068 0.66833
 C2373 C 0.69166 0.53759 0.67610
 C2374 C 0.70075 0.54031 0.69022
 C2375 C 0.68768 0.59960 0.68726
 C2376 C 0.68106 0.61107 0.68062
 C2377 C 0.71967 0.54554 0.71933
 C2378 C 0.72658 0.53439 0.72621
 H2379 H 0.72822 0.56868 0.73852
 H2380 H 0.73024 0.59653 0.74934
 H2381 H 0.71652 0.61979 0.73554
 H2382 H 0.70063 0.61533 0.71085
 H2383 H 0.67898 0.57639 0.66814
 H2384 H 0.67688 0.54850 0.65736
 H2385 H 0.69061 0.52525 0.67117
 H2386 H 0.70655 0.52973 0.69583
 C2387 C 0.71170 0.05765 0.20976
 C2388 C 0.72082 0.06863 0.19987
 C2389 C 0.71275 0.08182 0.19174
 C2390 C 0.69562 0.08396 0.19356
 C2391 C 0.68648 0.07290 0.20333
 C2392 C 0.69454 0.05970 0.21145
 C2393 C 0.68515 0.04882 0.22117
 C2394 C 0.66827 0.05092 0.22283
 C2395 C 0.66039 0.06382 0.21489
 C2396 C 0.66933 0.07473 0.20524
 C2397 C 0.72214 0.09265 0.18194
 C2398 C 0.73900 0.09051 0.18023
 C2399 C 0.74689 0.07762 0.18819
 C2400 C 0.73797 0.06677 0.19791
 C2401 C 0.68746 0.09768 0.18558
 C2402 C 0.68076 0.10917 0.17904
 C2403 C 0.72002 0.04444 0.21839
 C2404 C 0.72703 0.03360 0.22565
 H2405 H 0.69073 0.03859 0.22758
 H2406 H 0.66128 0.04248 0.23031
 H2407 H 0.64728 0.06540 0.21622
 H2408 H 0.66264 0.08457 0.19930
 H2409 H 0.71655 0.10285 0.17550
 H2410 H 0.74598 0.09891 0.17269
 H2411 H 0.75999 0.07602 0.18682
 H2412 H 0.74465 0.05693 0.20384
 C2413 C 0.21127 0.55889 0.20998
 C2414 C 0.19418 0.56120 0.21193
 C2415 C 0.18618 0.57453 0.20396
 C2416 C 0.19534 0.58547 0.19407
 C2417 C 0.21241 0.58306 0.19197
 C2418 C 0.22040 0.56974 0.19996
 C2419 C 0.23748 0.56762 0.19772
 C2420 C 0.24641 0.57835 0.18788
 C2421 C 0.23860 0.59137 0.18007
 C2422 C 0.22180 0.59376 0.18205
 C2423 C 0.16909 0.57662 0.20614
 C2424 C 0.16015 0.56584 0.21592
 C2425 C 0.16796 0.55280 0.22371
 C2426 C 0.18477 0.55045 0.22179
 C2427 C 0.18726 0.59932 0.18622
 C2428 C 0.18064 0.61092 0.17979
 C2429 C 0.21953 0.54554 0.21846
 C2430 C 0.22651 0.53460 0.22559
 H2431 H 0.24411 0.55766 0.20353
 H2432 H 0.25947 0.57655 0.18630
 H2433 H 0.24559 0.59967 0.17243
 H2434 H 0.21627 0.60406 0.17571
 H2435 H 0.16247 0.58657 0.20033
 H2436 H 0.14708 0.56761 0.21746
 H2437 H 0.16095 0.54446 0.23129
 H2438 H 0.19030 0.54012 0.22809
 C2439 C 0.21169 0.05823 0.71068
 C2440 C 0.19458 0.06047 0.71263
 C2441 C 0.18652 0.07372 0.70459
 C2442 C 0.19562 0.08466 0.69464
 C2443 C 0.21271 0.08233 0.69257
 C2444 C 0.22076 0.06909 0.70062
 C2445 C 0.23786 0.06705 0.69841
 C2446 C 0.24674 0.07778 0.68852
 C2447 C 0.23886 0.09073 0.68065
 C2448 C 0.22205 0.09304 0.68260
 C2449 C 0.16942 0.07574 0.70677
 C2450 C 0.16053 0.06497 0.71660
 C2451 C 0.16840 0.05201 0.72446
 C2452 C 0.18523 0.04972 0.72254
 C2453 C 0.18747 0.09841 0.68670
 C2454 C 0.18079 0.10991 0.68017
 C2455 C 0.22000 0.04494 0.71920
 C2456 C 0.22701 0.03403 0.72635
 H2457 H 0.24454 0.05716 0.70426
 H2458 H 0.25981 0.07604 0.68696
 H2459 H 0.24582 0.09903 0.67298
 H2460 H 0.21647 0.10328 0.67622
 H2461 H 0.16275 0.08564 0.70091
 H2462 H 0.14746 0.06669 0.71813
 H2463 H 0.16144 0.04367 0.73208
 H2464 H 0.19080 0.03946 0.72889
 C2465 C 0.28849 0.55890 0.28827
 C2466 C 0.30008 0.55546 0.30065
 C2467 C 0.30815 0.56862 0.30879
 C2468 C 0.30459 0.58516 0.30450
 C2469 C 0.29299 0.58860 0.29211
 C2470 C 0.28492 0.57544 0.28398
 C2471 C 0.27338 0.57919 0.27164
 C2472 C 0.26992 0.59548 0.26746
 C2473 C 0.27781 0.60835 0.27541
 C2474 C 0.28922 0.60503 0.28761
 C2475 C 0.31969 0.56487 0.32112
 C2476 C 0.32315 0.54858 0.32530
 C2477 C 0.31526 0.53571 0.31734
 C2478 C 0.30384 0.53903 0.30515
 C2479 C 0.31282 0.59863 0.31279
 C2480 C 0.31957 0.60994 0.31956
 C2481 C 0.28022 0.54548 0.27992
 C2482 C 0.27324 0.53451 0.27286
 H2483 H 0.26692 0.56961 0.26509
 H2484 H 0.26106 0.59813 0.25799
 H2485 H 0.27508 0.62099 0.27212
 H2486 H 0.29504 0.61546 0.29344
 H2487 H 0.32615 0.57447 0.32765
 H2488 H 0.33202 0.54593 0.33476
 H2489 H 0.31799 0.52307 0.32063
 H2490 H 0.29801 0.52861 0.29931
 C2491 C 0.28945 0.05798 0.78915
 C2492 C 0.30134 0.05434 0.80120
 C2493 C 0.30956 0.06738 0.80940
 C2494 C 0.30584 0.08398 0.80550
 C2495 C 0.29396 0.08762 0.79344
 C2496 C 0.28575 0.07458 0.78524
 C2497 C 0.27392 0.07853 0.77323
 C2498 C 0.27032 0.09488 0.76942
 C2499 C 0.27835 0.10762 0.77744
 C2500 C 0.29005 0.10411 0.78931
 C2501 C 0.32139 0.06344 0.82139
 C2502 C 0.32500 0.04708 0.82518
 C2503 C 0.31697 0.03433 0.81716
 C2504 C 0.30526 0.03784 0.80530
 C2505 C 0.31420 0.09734 0.81386
 C2506 C 0.32101 0.10858 0.82068
 C2507 C 0.28103 0.04469 0.78075
 C2508 C 0.27393 0.03382 0.77366
 H2509 H 0.26734 0.06905 0.76666
 H2510 H 0.26125 0.09767 0.76021
 H2511 H 0.27551 0.12031 0.77444
 H2512 H 0.29596 0.11446 0.79520
 H2513 H 0.32797 0.07293 0.82795
 H2514 H 0.33409 0.04428 0.83438
 H2515 H 0.31982 0.02164 0.82015
 H2516 H 0.29933 0.02751 0.79940
 C2517 C 0.78871 0.55826 0.78849
 C2518 C 0.80051 0.55478 0.80066
 C2519 C 0.80864 0.56793 0.80878
 C2520 C 0.80491 0.58448 0.80469
 C2521 C 0.79310 0.58796 0.79251
 C2522 C 0.78498 0.57481 0.78438
 C2523 C 0.77324 0.57860 0.77224
 C2524 C 0.76963 0.59490 0.76824
 C2525 C 0.77755 0.60775 0.77619
 C2526 C 0.78917 0.60440 0.78819
 C2527 C 0.82039 0.56414 0.82090
 C2528 C 0.82401 0.54783 0.82489
 C2529 C 0.81607 0.53498 0.81694
 C2530 C 0.80444 0.53834 0.80496
 C2531 C 0.81320 0.59793 0.81296
 C2532 C 0.82002 0.60919 0.81974
 C2533 C 0.78040 0.54487 0.78016
 C2534 C 0.77337 0.53391 0.77313
 H2535 H 0.76673 0.56904 0.76571
 H2536 H 0.76063 0.59758 0.75891
 H2537 H 0.77470 0.62040 0.77304
 H2538 H 0.79501 0.61482 0.79403
 H2539 H 0.82689 0.57371 0.82742
 H2540 H 0.83303 0.54515 0.83419
 H2541 H 0.81893 0.52233 0.82008
 H2542 H 0.79859 0.52793 0.79912
 C2543 C 0.78929 0.05812 0.28850
 C2544 C 0.80111 0.05456 0.30062
 C2545 C 0.80933 0.06765 0.30875
 C2546 C 0.80566 0.08422 0.30471
 C2547 C 0.79383 0.08779 0.29258
 C2548 C 0.78562 0.07470 0.28445
 C2549 C 0.77385 0.07858 0.27237
 C2550 C 0.77029 0.09490 0.26843
 C2551 C 0.77831 0.10770 0.27637
 C2552 C 0.78996 0.10426 0.28832
 C2553 C 0.82111 0.06377 0.32082
 C2554 C 0.82467 0.04744 0.32475
 C2555 C 0.81664 0.03464 0.31680
 C2556 C 0.80499 0.03809 0.30487
 C2557 C 0.81403 0.09763 0.31299
 C2558 C 0.82086 0.10890 0.31974
 C2559 C 0.78088 0.04479 0.28017
 C2560 C 0.77380 0.03386 0.27313
 H2561 H 0.76728 0.06906 0.26585
 H2562 H 0.76125 0.09764 0.25916
 H2563 H 0.77551 0.12036 0.27327
 H2564 H 0.79587 0.11464 0.29415
 H2565 H 0.82767 0.07330 0.32734
 H2566 H 0.83371 0.04470 0.33401
 H2567 H 0.81945 0.02197 0.31990
 H2568 H 0.79906 0.02772 0.29903
 C2569 C 0.71090 0.44189 0.28982
 C2570 C 0.69429 0.43840 0.28624
 C2571 C 0.68620 0.42520 0.29431
 C2572 C 0.69477 0.41557 0.30591
 C2573 C 0.71133 0.41918 0.30963
 C2574 C 0.71942 0.43237 0.30156
 C2575 C 0.73599 0.43570 0.30544
 C2576 C 0.74433 0.42627 0.31696
 C2577 C 0.73642 0.41337 0.32485
 C2578 C 0.72011 0.40981 0.32128
 C2579 C 0.66961 0.42191 0.29048
 C2580 C 0.66124 0.43140 0.27902
 C2581 C 0.66914 0.44431 0.27114
 C2582 C 0.68548 0.44783 0.27466
 C2583 C 0.68665 0.40182 0.31384
 C2584 C 0.68000 0.39030 0.32035
 C2585 C 0.71932 0.45506 0.28125
 C2586 C 0.72639 0.46587 0.27402
 H2587 H 0.74267 0.44562 0.29964
 H2588 H 0.75700 0.42899 0.31978
 H2589 H 0.74296 0.40609 0.33380
 H2590 H 0.71449 0.39966 0.32775
 H2591 H 0.66293 0.41201 0.29630
 H2592 H 0.64855 0.42872 0.27625
 H2593 H 0.66259 0.45165 0.26225
 H2594 H 0.69110 0.45800 0.26822
 C2595 C 0.71169 0.94135 0.78968
 C2596 C 0.69748 0.94443 0.79912
 C2597 C 0.68942 0.93117 0.80714
 C2598 C 0.69564 0.91492 0.80566
 C2599 C 0.70990 0.91186 0.79628
 C2600 C 0.71796 0.92511 0.78827
 C2601 C 0.73220 0.92174 0.77895
 C2602 C 0.73832 0.90574 0.77761
 C2603 C 0.73044 0.89278 0.78544
 C2604 C 0.71639 0.89573 0.79468
 C2605 C 0.67522 0.93455 0.81649
 C2606 C 0.66915 0.95057 0.81790
 C2607 C 0.67704 0.96353 0.81008
 C2608 C 0.69104 0.96057 0.80078
 C2609 C 0.68734 0.90134 0.81371
 C2610 C 0.68052 0.88997 0.82031
 C2611 C 0.71985 0.95483 0.78134
 C2612 C 0.72675 0.96586 0.77429
 H2613 H 0.73877 0.93140 0.77263
 H2614 H 0.74924 0.90339 0.77048
 H2615 H 0.73524 0.88037 0.78435
 H2616 H 0.71071 0.88525 0.80054
 H2617 H 0.66866 0.92488 0.82281
 H2618 H 0.65828 0.95294 0.82511
 H2619 H 0.67228 0.97595 0.81122
 H2620 H 0.69675 0.97105 0.79492
 C2621 C 0.21160 0.44103 0.78904
 C2622 C 0.19673 0.44349 0.79763
 C2623 C 0.18895 0.42996 0.80546
 C2624 C 0.19610 0.41405 0.80466
 C2625 C 0.21099 0.41160 0.79611
 C2626 C 0.21877 0.42512 0.78828
 C2627 C 0.23365 0.42236 0.77979
 C2628 C 0.24065 0.40669 0.77909
 C2629 C 0.23305 0.39347 0.78674
 C2630 C 0.21839 0.39582 0.79517
 C2631 C 0.17409 0.43273 0.81395
 C2632 C 0.16711 0.44841 0.81469
 C2633 C 0.17472 0.46164 0.80704
 C2634 C 0.18936 0.45928 0.79858
 C2635 C 0.18811 0.40020 0.81257
 C2636 C 0.18152 0.38864 0.81908
 C2637 C 0.21951 0.45479 0.78092
 C2638 C 0.22625 0.46603 0.77404
 H2639 H 0.24003 0.43225 0.77364
 H2640 H 0.25206 0.40481 0.77259
 H2641 H 0.23854 0.38132 0.78616
 H2642 H 0.21294 0.38514 0.80093
 H2643 H 0.16771 0.42283 0.82011
 H2644 H 0.15573 0.45031 0.82124
 H2645 H 0.16924 0.47380 0.80765
 H2646 H 0.19482 0.46995 0.79282
 C2647 C 0.21037 0.94207 0.28995
 C2648 C 0.21895 0.93248 0.30158
 C2649 C 0.21089 0.91925 0.30963
 C2650 C 0.19431 0.91567 0.30598
 C2651 C 0.18568 0.92537 0.29448
 C2652 C 0.19373 0.93861 0.28644
 C2653 C 0.18486 0.94810 0.27495
 C2654 C 0.16851 0.94461 0.27151
 C2655 C 0.16064 0.93166 0.27936
 C2656 C 0.16907 0.92211 0.29072
 C2657 C 0.21974 0.90981 0.32118
 C2658 C 0.23607 0.91335 0.32468
 C2659 C 0.24394 0.92629 0.31681
 C2660 C 0.23554 0.93579 0.30539
 C2661 C 0.18622 0.90189 0.31390
 C2662 C 0.17958 0.89036 0.32039
 C2663 C 0.21873 0.95531 0.28142
 C2664 C 0.22576 0.96618 0.27424
 H2665 H 0.19045 0.95831 0.26854
 H2666 H 0.16191 0.95200 0.26269
 H2667 H 0.14793 0.92900 0.27664
 H2668 H 0.16241 0.91218 0.29652
 H2669 H 0.21414 0.89963 0.32763
 H2670 H 0.24265 0.90601 0.33355
 H2671 H 0.25663 0.92899 0.31958
 H2672 H 0.24219 0.94573 0.29960
 C2673 C 0.44063 0.28736 0.71185
 C2674 C 0.44301 0.29584 0.69695
 C2675 C 0.42953 0.30369 0.68917
 C2676 C 0.41375 0.30303 0.69634
 C2677 C 0.41136 0.29453 0.71123
 C2678 C 0.42484 0.28667 0.71901
 C2679 C 0.42214 0.27825 0.73388
 C2680 C 0.40659 0.27762 0.74089
 C2681 C 0.39341 0.28530 0.73329
 C2682 C 0.39570 0.29367 0.71863
 C2683 C 0.43222 0.31208 0.67428
 C2684 C 0.44777 0.31268 0.66726
 C2685 C 0.46095 0.30500 0.67487
 C2686 C 0.45867 0.29667 0.68955
 C2687 C 0.39997 0.31106 0.68842
 C2688 C 0.38849 0.31771 0.68189
 C2689 C 0.45436 0.27932 0.71981
 C2690 C 0.46559 0.27252 0.72661
 H2691 H 0.43199 0.27207 0.74026
 H2692 H 0.40475 0.27116 0.75228
 H2693 H 0.38135 0.28478 0.73877
 H2694 H 0.38507 0.29945 0.71318
 H2695 H 0.42235 0.31823 0.66790
 H2696 H 0.44960 0.31914 0.65586
 H2697 H 0.47300 0.30550 0.66937
 H2698 H 0.46929 0.29089 0.69501
 C2699 C 0.44119 0.78903 0.21076
 C2700 C 0.42488 0.78653 0.21615
 C2701 C 0.41171 0.79457 0.20806
 C2702 C 0.41491 0.80507 0.19464
 C2703 C 0.43122 0.80757 0.18926
 C2704 C 0.44440 0.79953 0.19735
 C2705 C 0.46059 0.80224 0.19177
 C2706 C 0.46368 0.81259 0.17857
 C2707 C 0.45080 0.82044 0.17065
 C2708 C 0.43472 0.81801 0.17589
 C2709 C 0.39551 0.79188 0.21367
 C2710 C 0.39243 0.78156 0.22690
 C2711 C 0.40531 0.77372 0.23481
 C2712 C 0.42138 0.77611 0.22955
 C2713 C 0.40142 0.81329 0.18641
 C2714 C 0.39014 0.82005 0.17968
 C2715 C 0.45462 0.78079 0.21904
 C2716 C 0.46561 0.77385 0.22607
 H2717 H 0.47102 0.79640 0.19753
 H2718 H 0.47615 0.81452 0.17446
 H2719 H 0.45326 0.82847 0.16040
 H2720 H 0.42511 0.82439 0.16934
 H2721 H 0.38508 0.79771 0.20792
 H2722 H 0.37997 0.77966 0.23103
 H2723 H 0.40286 0.76574 0.24510
 H2724 H 0.43098 0.76973 0.23610
 C2725 C 0.94177 0.28763 0.21089
 C2726 C 0.92560 0.28544 0.21677
 C2727 C 0.91227 0.29335 0.20881
 C2728 C 0.91519 0.30341 0.19500
 C2729 C 0.93137 0.30558 0.18911
 C2730 C 0.94470 0.29767 0.19708
 C2731 C 0.96075 0.30003 0.19097
 C2732 C 0.96357 0.30992 0.17737
 C2733 C 0.95054 0.31765 0.16957
 C2734 C 0.93460 0.31555 0.17532
 C2735 C 0.89621 0.29097 0.21492
 C2736 C 0.89340 0.28108 0.22852
 C2737 C 0.90643 0.27335 0.23632
 C2738 C 0.92236 0.27545 0.23056
 C2739 C 0.90157 0.31153 0.18691
 C2740 C 0.89020 0.31825 0.18026
 C2741 C 0.95537 0.27957 0.21908
 C2742 C 0.96648 0.27277 0.22606
 H2743 H 0.97129 0.29427 0.19662
 H2744 H 0.97593 0.31159 0.17285
 H2745 H 0.95278 0.32533 0.15901
 H2746 H 0.92486 0.32182 0.16885
 H2747 H 0.88567 0.29672 0.20927
 H2748 H 0.88104 0.27941 0.23303
 H2749 H 0.90418 0.26571 0.24689
 H2750 H 0.93209 0.26917 0.23704
 C2751 C 0.94266 0.78907 0.71068
 C2752 C 0.93718 0.78318 0.69538
 C2753 C 0.92404 0.79127 0.68726
 C2754 C 0.91646 0.80519 0.69450
 C2755 C 0.92207 0.81119 0.70972
 C2756 C 0.93520 0.80311 0.71784
 C2757 C 0.94055 0.80930 0.73307
 C2758 C 0.93315 0.82309 0.74008
 C2759 C 0.92030 0.83100 0.73214
 C2760 C 0.91477 0.82517 0.71714
 C2761 C 0.91874 0.78513 0.67199
 C2762 C 0.92621 0.77140 0.66494
 C2763 C 0.93906 0.76349 0.67287
 C2764 C 0.94453 0.76926 0.68792
 C2765 C 0.90276 0.81319 0.68643
 C2766 C 0.89128 0.81978 0.67984
 C2767 C 0.95577 0.78055 0.71920
 C2768 C 0.96653 0.77341 0.72639
 H2769 H 0.95051 0.80359 0.73971
 H2770 H 0.93740 0.82767 0.75173
 H2771 H 0.91459 0.84170 0.73763
 H2772 H 0.90475 0.83174 0.71143
 H2773 H 0.90880 0.79086 0.66534
 H2774 H 0.92201 0.76687 0.65325
 H2775 H 0.94482 0.75283 0.66734
 H2776 H 0.95457 0.76271 0.69361
 C2777 C 0.55864 0.28803 0.28860
 C2778 C 0.57485 0.28603 0.28272
 C2779 C 0.58807 0.29404 0.29075
 C2780 C 0.58499 0.30401 0.30461
 C2781 C 0.56878 0.30603 0.31047
 C2782 C 0.55556 0.29802 0.30244
 C2783 C 0.53946 0.30022 0.30852
 C2784 C 0.53650 0.31006 0.32215
 C2785 C 0.54942 0.31789 0.33000
 C2786 C 0.56540 0.31595 0.32429
 C2787 C 0.60416 0.29185 0.28465
 C2788 C 0.60712 0.28204 0.27100
 C2789 C 0.59420 0.27421 0.26314
 C2790 C 0.57823 0.27613 0.26889
 C2791 C 0.59852 0.31216 0.31282
 C2792 C 0.60983 0.31886 0.31955
 C2793 C 0.54518 0.27977 0.28041
 C2794 C 0.53418 0.27279 0.27348
 H2795 H 0.52901 0.29438 0.30282
 H2796 H 0.52411 0.31162 0.32664
 H2797 H 0.54705 0.32552 0.34059
 H2798 H 0.57504 0.32229 0.33081
 H2799 H 0.61462 0.29769 0.29033
 H2800 H 0.61951 0.28051 0.26649
 H2801 H 0.59656 0.26663 0.25253
 H2802 H 0.56860 0.26978 0.26236
 C2803 C 0.55794 0.78930 0.78860
 C2804 C 0.57342 0.79034 0.78085
 C2805 C 0.58669 0.79825 0.78889
 C2806 C 0.58440 0.80505 0.80464
 C2807 C 0.56891 0.80403 0.81237
 C2808 C 0.55563 0.79614 0.80432
 C2809 C 0.54026 0.79526 0.81230
 C2810 C 0.53807 0.80199 0.82779
 C2811 C 0.55105 0.80970 0.83566
 C2812 C 0.56632 0.81075 0.82810
 C2813 C 0.60205 0.79914 0.78089
 C2814 C 0.60425 0.79240 0.76541
 C2815 C 0.59128 0.78465 0.75756
 C2816 C 0.57602 0.78360 0.76512
 C2817 C 0.59800 0.81302 0.81289
 C2818 C 0.60938 0.81957 0.81965
 C2819 C 0.54446 0.78106 0.78042
 C2820 C 0.53345 0.77409 0.77347
 H2821 H 0.52980 0.78939 0.80666
 H2822 H 0.52623 0.80121 0.83371
 H2823 H 0.54928 0.81490 0.84770
 H2824 H 0.57604 0.81686 0.83472
 H2825 H 0.61251 0.80505 0.78650
 H2826 H 0.61608 0.79319 0.75948
 H2827 H 0.59305 0.77942 0.74553
 H2828 H 0.56631 0.77746 0.75851
 C2829 C 0.05867 0.28795 0.78844
 C2830 C 0.07478 0.28577 0.78234
 C2831 C 0.08820 0.29354 0.79026
 C2832 C 0.08544 0.30345 0.80423
 C2833 C 0.06933 0.30564 0.81031
 C2834 C 0.05590 0.29787 0.80239
 C2835 C 0.03991 0.30024 0.80869
 C2836 C 0.03726 0.31000 0.82243
 C2837 C 0.05038 0.31760 0.83018
 C2838 C 0.06626 0.31548 0.82425
 C2839 C 0.10418 0.29118 0.78393
 C2840 C 0.10683 0.28144 0.77017
 C2841 C 0.09371 0.27385 0.76242
 C2842 C 0.07785 0.27593 0.76839
 C2843 C 0.09917 0.31138 0.81230
 C2844 C 0.11065 0.31791 0.81890
 C2845 C 0.04500 0.27995 0.78035
 C2846 C 0.03385 0.27316 0.77345
 H2847 H 0.02932 0.29458 0.80308
 H2848 H 0.02495 0.31169 0.82709
 H2849 H 0.04825 0.32517 0.84085
 H2850 H 0.07607 0.32164 0.83069
 H2851 H 0.11479 0.29683 0.78953
 H2852 H 0.11914 0.27978 0.76549
 H2853 H 0.09583 0.26632 0.75172
 H2854 H 0.06805 0.26977 0.76193
 C2855 C 0.05767 0.78878 0.28881
 C2856 C 0.07378 0.78711 0.28258
 C2857 C 0.08708 0.79499 0.29060
 C2858 C 0.08419 0.80450 0.30481
 C2859 C 0.06807 0.80618 0.31103
 C2860 C 0.05478 0.79830 0.30301
 C2861 C 0.03878 0.80015 0.30946
 C2862 C 0.03599 0.80953 0.32344
 C2863 C 0.04899 0.81723 0.33128
 C2864 C 0.06488 0.81562 0.32521
 C2865 C 0.10308 0.79313 0.28413
 C2866 C 0.10585 0.78377 0.27014
 C2867 C 0.09286 0.77607 0.26229
 C2868 C 0.07698 0.77766 0.26839
 C2869 C 0.09779 0.81254 0.31299
 C2870 C 0.10917 0.81916 0.31969
 C2871 C 0.04413 0.78066 0.28062
 C2872 C 0.03308 0.77378 0.27366
 H2873 H 0.02827 0.79439 0.30378
 H2874 H 0.02368 0.81082 0.32821
 H2875 H 0.04677 0.82450 0.34214
 H2876 H 0.07459 0.82185 0.33174
 H2877 H 0.11359 0.79889 0.28980
 H2878 H 0.11816 0.78249 0.26536
 H2879 H 0.09507 0.76884 0.25141
 H2880 H 0.06728 0.77143 0.26185
 C2881 C 0.55862 0.71269 0.71107
 C2882 C 0.55708 0.69624 0.70548
 C2883 C 0.57048 0.68842 0.69751
 C2884 C 0.58535 0.69710 0.69516
 C2885 C 0.58688 0.71356 0.70072
 C2886 C 0.57349 0.72137 0.70872
 C2887 C 0.57534 0.73782 0.71423
 C2888 C 0.58999 0.74631 0.71190
 C2889 C 0.60307 0.73868 0.70406
 C2890 C 0.60160 0.72250 0.69850
 C2891 C 0.56866 0.67195 0.69206
 C2892 C 0.55401 0.66345 0.69443
 C2893 C 0.54091 0.67111 0.70222
 C2894 C 0.54235 0.68731 0.70771
 C2895 C 0.59910 0.68906 0.68716
 C2896 C 0.61057 0.68241 0.68059
 C2897 C 0.54501 0.72065 0.71937
 C2898 C 0.53388 0.72743 0.72637
 H2899 H 0.56551 0.74429 0.72039
 H2900 H 0.59119 0.75888 0.71621
 H2901 H 0.61442 0.74533 0.70226
 H2902 H 0.61213 0.71710 0.69247
 H2903 H 0.57850 0.66547 0.68594
 H2904 H 0.55283 0.65086 0.69019
 H2905 H 0.52956 0.66445 0.70403
 H2906 H 0.53182 0.69273 0.71370
 C2907 C 0.55876 0.21087 0.21104
 C2908 C 0.55563 0.20007 0.19784
 C2909 C 0.56889 0.19214 0.18973
 C2910 C 0.58519 0.19506 0.19488
 C2911 C 0.58832 0.20586 0.20809
 C2912 C 0.57506 0.21379 0.21620
 C2913 C 0.57850 0.22453 0.22938
 C2914 C 0.59456 0.22734 0.23441
 C2915 C 0.60752 0.21960 0.22648
 C2916 C 0.60451 0.20897 0.21346
 C2917 C 0.56546 0.18139 0.17657
 C2918 C 0.54939 0.17856 0.17156
 C2919 C 0.53643 0.18631 0.17949
 C2920 C 0.53944 0.19696 0.19249
 C2921 C 0.59875 0.18696 0.18662
 C2922 C 0.61010 0.18030 0.17985
 C2923 C 0.54525 0.21902 0.21933
 C2924 C 0.53422 0.22592 0.22635
 H2925 H 0.56884 0.23085 0.23594
 H2926 H 0.59696 0.23557 0.24453
 H2927 H 0.61998 0.22183 0.23043
 H2928 H 0.61500 0.20324 0.20768
 H2929 H 0.57513 0.17508 0.17002
 H2930 H 0.54698 0.17030 0.16146
 H2931 H 0.52396 0.18407 0.17555
 H2932 H 0.52896 0.20270 0.19827
 C2933 C 0.05831 0.71242 0.21155
 C2934 C 0.05543 0.70164 0.19828
 C2935 C 0.06884 0.69384 0.19030
 C2936 C 0.08506 0.69688 0.19565
 C2937 C 0.08795 0.70766 0.20892
 C2938 C 0.07453 0.71546 0.21690
 C2939 C 0.07772 0.72618 0.23015
 C2940 C 0.09370 0.72911 0.23538
 C2941 C 0.10681 0.72150 0.22758
 C2942 C 0.10405 0.71089 0.21449
 C2943 C 0.06566 0.68311 0.17706
 C2944 C 0.04967 0.68016 0.17185
 C2945 C 0.03656 0.68778 0.17965
 C2946 C 0.03933 0.69841 0.19272
 C2947 C 0.09878 0.68891 0.18752
 C2948 C 0.11023 0.68233 0.18083
 C2949 C 0.04464 0.72045 0.21969
 C2950 C 0.03347 0.72726 0.22659
 H2951 H 0.06793 0.73240 0.23662
 H2952 H 0.09592 0.73731 0.24556
 H2953 H 0.11921 0.72382 0.23168
 H2954 H 0.11465 0.70526 0.20882
 H2955 H 0.07545 0.67689 0.17060
 H2956 H 0.04745 0.67192 0.16171
 H2957 H 0.02416 0.68545 0.17556
 H2958 H 0.02873 0.70405 0.19840
 C2959 C 0.05839 0.21160 0.71121
 C2960 C 0.05544 0.20120 0.69765
 C2961 C 0.06878 0.19326 0.68969
 C2962 C 0.08499 0.19576 0.69534
 C2963 C 0.08793 0.20616 0.70890
 C2964 C 0.07460 0.21410 0.71686
 C2965 C 0.07785 0.22444 0.73040
 C2966 C 0.09382 0.22684 0.73592
 C2967 C 0.10686 0.21909 0.72813
 C2968 C 0.10402 0.20885 0.71477
 C2969 C 0.06553 0.18292 0.67617
 C2970 C 0.04955 0.18049 0.67067
 C2971 C 0.03651 0.18826 0.67845
 C2972 C 0.03935 0.19851 0.69180
 C2973 C 0.09863 0.18766 0.68721
 C2974 C 0.11005 0.18101 0.68056
 C2975 C 0.04480 0.21976 0.71935
 C2976 C 0.03372 0.22667 0.72629
 H2977 H 0.06812 0.23075 0.73686
 H2978 H 0.09608 0.23475 0.74631
 H2979 H 0.11924 0.22100 0.73246
 H2980 H 0.11457 0.20309 0.70912
 H2981 H 0.07527 0.17661 0.66971
 H2982 H 0.04729 0.17255 0.66030
 H2983 H 0.02413 0.18634 0.67413
 H2984 H 0.02881 0.20428 0.69745
 C2985 C 0.44113 0.71208 0.28876
 C2986 C 0.44431 0.70164 0.30221
 C2987 C 0.43112 0.69358 0.31026
 C2988 C 0.41484 0.69601 0.30479
 C2989 C 0.41166 0.70645 0.29132
 C2990 C 0.42485 0.71451 0.28328
 C2991 C 0.42137 0.72487 0.26983
 C2992 C 0.40533 0.72720 0.26447
 C2993 C 0.39244 0.71934 0.27234
 C2994 C 0.39549 0.70907 0.28562
 C2995 C 0.43460 0.68320 0.32369
 C2996 C 0.45065 0.68083 0.32901
 C2997 C 0.46355 0.68870 0.32114
 C2998 C 0.46049 0.69900 0.30789
 C2999 C 0.40135 0.68778 0.31299
 C3000 C 0.39006 0.68101 0.31969
 C3001 C 0.45457 0.72034 0.28052
 C3002 C 0.46557 0.72729 0.27352
 H3003 H 0.43098 0.73127 0.26330
 H3004 H 0.40290 0.73513 0.25414
 H3005 H 0.38000 0.72119 0.26814
 H3006 H 0.38505 0.70323 0.29134
 H3007 H 0.42498 0.67681 0.33021
 H3008 H 0.45310 0.67285 0.33930
 H3009 H 0.47599 0.68682 0.32531
 H3010 H 0.47092 0.70485 0.30216
 C3011 C 0.44194 0.21133 0.78943
 C3012 C 0.42554 0.21519 0.78522
 C3013 C 0.41237 0.20715 0.79331
 C3014 C 0.41567 0.19530 0.80555
 C3015 C 0.43207 0.19148 0.80979
 C3016 C 0.44524 0.19952 0.80170
 C3017 C 0.46152 0.19550 0.80614
 C3018 C 0.46471 0.18386 0.81823
 C3019 C 0.45183 0.17600 0.82613
 C3020 C 0.43568 0.17971 0.82201
 C3021 C 0.39608 0.21121 0.78889
 C3022 C 0.39290 0.22285 0.77681
 C3023 C 0.40577 0.23070 0.76889
 C3024 C 0.42193 0.22697 0.77300
 C3025 C 0.40221 0.18702 0.81374
 C3026 C 0.39097 0.18017 0.82046
 C3027 C 0.45536 0.21949 0.78107
 C3028 C 0.46633 0.22637 0.77397
 H3029 H 0.47194 0.20129 0.80033
 H3030 H 0.47724 0.18093 0.82147
 H3031 H 0.45437 0.16697 0.83552
 H3032 H 0.42608 0.17327 0.82851
 H3033 H 0.38565 0.20543 0.79470
 H3034 H 0.38037 0.22580 0.77357
 H3035 H 0.40324 0.23972 0.75950
 H3036 H 0.43152 0.23342 0.76650
 C3037 C 0.94214 0.71062 0.78899
 C3038 C 0.94471 0.70351 0.80454
 C3039 C 0.93161 0.69537 0.81264
 C3040 C 0.91602 0.69437 0.80512
 C3041 C 0.91348 0.70141 0.78953
 C3042 C 0.92657 0.70956 0.78144
 C3043 C 0.92372 0.71652 0.76587
 C3044 C 0.90838 0.71546 0.75851
 C3045 C 0.89557 0.70748 0.76641
 C3046 C 0.89802 0.70051 0.78174
 C3047 C 0.93446 0.68838 0.82819
 C3048 C 0.94982 0.68941 0.83553
 C3049 C 0.96264 0.69736 0.82761
 C3050 C 0.96018 0.70436 0.81229
 C3051 C 0.90256 0.68618 0.81342
 C3052 C 0.89126 0.67947 0.82018
 C3053 C 0.95545 0.71911 0.78076
 C3054 C 0.96634 0.72625 0.77378
 H3055 H 0.93329 0.72285 0.75923
 H3056 H 0.90642 0.72085 0.74660
 H3057 H 0.88368 0.70669 0.76064
 H3058 H 0.88768 0.69443 0.78739
 H3059 H 0.92488 0.68207 0.83482
 H3060 H 0.95179 0.68400 0.84743
 H3061 H 0.97455 0.69812 0.83336
 H3062 H 0.97052 0.71041 0.80661
 C3063 C 0.94250 0.21095 0.28840
 C3064 C 0.94568 0.20035 0.30174
 C3065 C 0.93248 0.19228 0.30977
 C3066 C 0.91619 0.19486 0.30440
 C3067 C 0.91301 0.20544 0.29104
 C3068 C 0.92620 0.21350 0.28301
 C3069 C 0.92272 0.22401 0.26967
 C3070 C 0.90667 0.22646 0.26440
 C3071 C 0.89377 0.21859 0.27225
 C3072 C 0.89683 0.20819 0.28542
 C3073 C 0.93597 0.18175 0.32309
 C3074 C 0.95203 0.17926 0.32831
 C3075 C 0.96493 0.18714 0.32046
 C3076 C 0.96186 0.19758 0.30732
 C3077 C 0.90269 0.18667 0.31262
 C3078 C 0.89140 0.17993 0.31936
 C3079 C 0.95594 0.21925 0.28022
 C3080 C 0.96692 0.22628 0.27328
 H3081 H 0.93233 0.23042 0.26316
 H3082 H 0.90423 0.23451 0.25416
 H3083 H 0.88132 0.22054 0.26812
 H3084 H 0.88639 0.20233 0.29113
 H3085 H 0.92635 0.17535 0.32958
 H3086 H 0.95448 0.17116 0.33852
 H3087 H 0.97738 0.18515 0.32457
 H3088 H 0.97230 0.20343 0.30160
 C3089 C 0.28836 0.28844 0.55910
 C3090 C 0.29812 0.30261 0.55649
 C3091 C 0.30597 0.31042 0.56989
 C3092 C 0.30401 0.30400 0.58583
 C3093 C 0.29428 0.28979 0.58843
 C3094 C 0.28643 0.28199 0.57503
 C3095 C 0.27676 0.26780 0.57794
 C3096 C 0.27491 0.26149 0.59363
 C3097 C 0.28258 0.26913 0.60673
 C3098 C 0.29216 0.28312 0.60424
 C3099 C 0.31566 0.32458 0.56698
 C3100 C 0.31754 0.33085 0.55128
 C3101 C 0.30987 0.32322 0.53817
 C3102 C 0.30025 0.30926 0.54068
 C3103 C 0.31196 0.31199 0.59955
 C3104 C 0.31848 0.31853 0.61104
 C3105 C 0.28023 0.28049 0.54546
 C3106 C 0.27332 0.27369 0.53435
 H3107 H 0.27054 0.26142 0.56815
 H3108 H 0.26751 0.25061 0.59563
 H3109 H 0.28111 0.26419 0.61890
 H3110 H 0.29788 0.28861 0.61482
 H3111 H 0.32187 0.33095 0.57679
 H3112 H 0.32500 0.34170 0.54927
 H3113 H 0.31137 0.32813 0.52600
 H3114 H 0.29453 0.30374 0.53010
 C3115 C 0.28903 0.78930 0.05808
 C3116 C 0.29916 0.80313 0.05506
 C3117 C 0.30719 0.81115 0.06824
 C3118 C 0.30505 0.80527 0.08436
 C3119 C 0.29495 0.79141 0.08737
 C3120 C 0.28692 0.78340 0.07419
 C3121 C 0.27690 0.76955 0.07751
 C3122 C 0.27488 0.76378 0.09338
 C3123 C 0.28272 0.77162 0.10626
 C3124 C 0.29265 0.78528 0.10337
 C3125 C 0.31723 0.82496 0.06493
 C3126 C 0.31930 0.83069 0.04904
 C3127 C 0.31146 0.82285 0.03616
 C3128 C 0.30148 0.80922 0.03906
 C3129 C 0.31318 0.81348 0.09785
 C3130 C 0.31985 0.82022 0.10914
 C3131 C 0.28073 0.78115 0.04466
 C3132 C 0.27370 0.77424 0.03370
 H3133 H 0.27053 0.76304 0.06790
 H3134 H 0.26720 0.75316 0.09569
 H3135 H 0.28110 0.76709 0.11857
 H3136 H 0.29849 0.79095 0.11379
 H3137 H 0.32359 0.83147 0.07455
 H3138 H 0.32703 0.84127 0.04672
 H3139 H 0.31310 0.82734 0.02384
 H3140 H 0.29564 0.80354 0.02864
 C3141 C 0.78916 0.28831 0.05831
 C3142 C 0.79927 0.30218 0.05544
 C3143 C 0.80730 0.31006 0.06870
 C3144 C 0.80516 0.30402 0.08475
 C3145 C 0.79507 0.29012 0.08762
 C3146 C 0.78705 0.28224 0.07436
 C3147 C 0.77702 0.26836 0.07754
 C3148 C 0.77500 0.26243 0.09335
 C3149 C 0.78284 0.27014 0.10631
 C3150 C 0.79276 0.28383 0.10356
 C3151 C 0.81734 0.32392 0.06553
 C3152 C 0.81940 0.32981 0.04970
 C3153 C 0.81156 0.32210 0.03674
 C3154 C 0.80159 0.30844 0.03950
 C3155 C 0.81327 0.31210 0.09833
 C3156 C 0.81992 0.31875 0.10969
 C3157 C 0.78086 0.28030 0.04481
 C3158 C 0.77382 0.27349 0.03380
 H3159 H 0.77066 0.26194 0.06786
 H3160 H 0.76733 0.25178 0.09555
 H3161 H 0.78122 0.26548 0.11857
 H3162 H 0.79860 0.28939 0.11404
 H3163 H 0.82369 0.33033 0.07521
 H3164 H 0.82713 0.34042 0.04749
 H3165 H 0.81320 0.32673 0.02447
 H3166 H 0.79575 0.30286 0.02902
 C3167 C 0.78964 0.78867 0.55867
 C3168 C 0.79971 0.80256 0.55574
 C3169 C 0.80772 0.81051 0.56897
 C3170 C 0.80561 0.80452 0.58505
 C3171 C 0.79558 0.79059 0.58797
 C3172 C 0.78757 0.78264 0.57475
 C3173 C 0.77760 0.76874 0.57797
 C3174 C 0.77561 0.76285 0.59381
 C3175 C 0.78343 0.77063 0.60674
 C3176 C 0.79331 0.78435 0.60393
 C3177 C 0.81771 0.82439 0.56574
 C3178 C 0.81974 0.83023 0.54989
 C3179 C 0.81192 0.82246 0.53696
 C3180 C 0.80200 0.80877 0.53978
 C3181 C 0.81371 0.81268 0.59859
 C3182 C 0.82036 0.81939 0.60991
 C3183 C 0.78136 0.78059 0.54521
 C3184 C 0.77433 0.77374 0.53420
 H3185 H 0.77125 0.76226 0.56833
 H3186 H 0.76798 0.75218 0.59605
 H3187 H 0.78185 0.76601 0.61901
 H3188 H 0.79914 0.78997 0.61439
 H3189 H 0.82406 0.83085 0.57540
 H3190 H 0.82744 0.84086 0.54764
 H3191 H 0.81354 0.82704 0.52467
 H3192 H 0.79617 0.80313 0.52933
 C3193 C 0.28862 0.71151 0.44131
 C3194 C 0.29894 0.69780 0.44432
 C3195 C 0.30700 0.68980 0.43111
 C3196 C 0.30468 0.69557 0.41499
 C3197 C 0.29437 0.70931 0.41199
 C3198 C 0.28632 0.71730 0.42519
 C3199 C 0.27608 0.73102 0.42189
 C3200 C 0.27388 0.73668 0.40601
 C3201 C 0.28174 0.72886 0.39310
 C3202 C 0.29188 0.71533 0.39598
 C3203 C 0.31725 0.67611 0.43442
 C3204 C 0.31949 0.67048 0.45031
 C3205 C 0.31162 0.67830 0.46322
 C3206 C 0.30144 0.69181 0.46033
 C3207 C 0.31286 0.68739 0.40147
 C3208 C 0.31958 0.68068 0.39017
 C3209 C 0.28032 0.71967 0.45476
 C3210 C 0.27331 0.72659 0.46575
 H3211 H 0.26969 0.73752 0.43152
 H3212 H 0.26604 0.74720 0.40371
 H3213 H 0.27999 0.73330 0.38078
 H3214 H 0.29774 0.70966 0.38554
 H3215 H 0.32364 0.66962 0.42478
 H3216 H 0.32738 0.65999 0.45262
 H3217 H 0.31340 0.67388 0.47554
 H3218 H 0.29558 0.69749 0.47077
 C3219 C 0.28955 0.21040 0.94205
 C3220 C 0.28754 0.21627 0.92591
 C3221 C 0.29568 0.20821 0.91280
 C3222 C 0.30578 0.19434 0.91589
 C3223 C 0.30781 0.18850 0.93203
 C3224 C 0.29967 0.19656 0.94515
 C3225 C 0.30188 0.19050 0.96118
 C3226 C 0.31186 0.17686 0.96417
 C3227 C 0.31981 0.16898 0.95134
 C3228 C 0.31786 0.17468 0.93543
 C3229 C 0.29348 0.21430 0.89677
 C3230 C 0.28354 0.22796 0.89379
 C3231 C 0.27559 0.23584 0.90662
 C3232 C 0.27751 0.23011 0.92251
 C3233 C 0.31404 0.18610 0.90247
 C3234 C 0.32081 0.17936 0.89121
 C3235 C 0.28115 0.21860 0.95540
 C3236 C 0.27403 0.22557 0.96630
 H3237 H 0.29595 0.19622 0.97155
 H3238 H 0.31342 0.17239 0.97650
 H3239 H 0.32754 0.15839 0.95373
 H3240 H 0.32430 0.16814 0.92586
 H3241 H 0.29941 0.20860 0.88639
 H3242 H 0.28201 0.23246 0.88147
 H3243 H 0.26791 0.24647 0.90424
 H3244 H 0.27107 0.23666 0.93207
 C3245 C 0.78923 0.71106 0.94116
 C3246 C 0.79952 0.69735 0.94427
 C3247 C 0.80767 0.68931 0.93114
 C3248 C 0.80546 0.69504 0.91498
 C3249 C 0.79520 0.70879 0.91188
 C3250 C 0.78706 0.71682 0.92501
 C3251 C 0.77686 0.73054 0.92160
 C3252 C 0.77479 0.73617 0.90569
 C3253 C 0.78274 0.72832 0.89286
 C3254 C 0.79284 0.71478 0.89585
 C3255 C 0.81788 0.67562 0.93455
 C3256 C 0.82001 0.67003 0.95047
 C3257 C 0.81205 0.67789 0.96331
 C3258 C 0.80191 0.69139 0.96031
 C3259 C 0.81368 0.68678 0.90154
 C3260 C 0.82042 0.67999 0.89029
 C3261 C 0.78081 0.71922 0.95453
 C3262 C 0.77368 0.72611 0.96547
 H3263 H 0.77041 0.73707 0.93117
 H3264 H 0.76697 0.74670 0.90332
 H3265 H 0.78108 0.73274 0.88052
 H3266 H 0.79877 0.70909 0.88546
 H3267 H 0.82434 0.66910 0.92497
 H3268 H 0.82787 0.65954 0.95286
 H3269 H 0.81374 0.67350 0.97565
 H3270 H 0.79598 0.69710 0.97069
 C3271 C 0.79002 0.21100 0.44099
 C3272 C 0.79951 0.19667 0.44390
 C3273 C 0.80760 0.18866 0.43073
 C3274 C 0.80618 0.19503 0.41473
 C3275 C 0.79675 0.20941 0.41182
 C3276 C 0.78864 0.21742 0.42499
 C3277 C 0.77927 0.23177 0.42178
 C3278 C 0.77797 0.23804 0.40602
 C3279 C 0.78589 0.23021 0.39315
 C3280 C 0.79518 0.21606 0.39594
 C3281 C 0.81700 0.17433 0.43395
 C3282 C 0.81836 0.16811 0.44972
 C3283 C 0.81045 0.17595 0.46260
 C3284 C 0.80111 0.19007 0.45979
 C3285 C 0.81435 0.18680 0.40124
 C3286 C 0.82105 0.18003 0.38996
 C3287 C 0.78162 0.21914 0.45439
 C3288 C 0.77451 0.22604 0.46533
 H3289 H 0.77288 0.23831 0.43138
 H3290 H 0.77079 0.24905 0.40379
 H3291 H 0.78484 0.23513 0.38093
 H3292 H 0.80112 0.21041 0.38553
 H3293 H 0.82338 0.16780 0.42433
 H3294 H 0.82560 0.15714 0.45196
 H3295 H 0.81155 0.17107 0.47483
 H3296 H 0.79519 0.19574 0.47020
 C3297 C 0.71146 0.28774 0.44083
 C3298 C 0.69953 0.30003 0.44404
 C3299 C 0.69142 0.30802 0.43090
 C3300 C 0.69528 0.30367 0.41461
 C3301 C 0.70719 0.29136 0.41140
 C3302 C 0.71530 0.28337 0.42454
 C3303 C 0.72716 0.27110 0.42102
 C3304 C 0.73089 0.26684 0.40498
 C3305 C 0.72297 0.27466 0.39213
 C3306 C 0.71125 0.28679 0.39523
 C3307 C 0.67954 0.32026 0.43442
 C3308 C 0.67578 0.32449 0.45047
 C3309 C 0.68371 0.31668 0.46332
 C3310 C 0.69546 0.30458 0.46022
 C3311 C 0.68706 0.31187 0.40116
 C3312 C 0.68034 0.31862 0.38991
 C3313 C 0.71979 0.27959 0.45422
 C3314 C 0.72685 0.27269 0.46518
 H3315 H 0.73366 0.26466 0.43060
 H3316 H 0.73997 0.25741 0.40251
 H3317 H 0.72592 0.27131 0.37969
 H3318 H 0.70542 0.29251 0.38482
 H3319 H 0.67304 0.32668 0.42483
 H3320 H 0.66667 0.33389 0.45294
 H3321 H 0.68075 0.32001 0.47576
 H3322 H 0.70130 0.29884 0.47062
 C3323 C 0.71043 0.78764 0.94128
 C3324 C 0.69932 0.80068 0.94443
 C3325 C 0.69127 0.80871 0.93127
 C3326 C 0.69438 0.80363 0.91503
 C3327 C 0.70546 0.79054 0.91189
 C3328 C 0.71351 0.78252 0.92505
 C3329 C 0.72454 0.76947 0.92159
 C3330 C 0.72751 0.76448 0.90560
 C3331 C 0.71965 0.77232 0.89273
 C3332 C 0.70874 0.78521 0.89577
 C3333 C 0.68022 0.82173 0.93473
 C3334 C 0.67721 0.82668 0.95073
 C3335 C 0.68508 0.81884 0.96359
 C3336 C 0.69603 0.80598 0.96056
 C3337 C 0.68626 0.81189 0.90156
 C3338 C 0.67963 0.81870 0.89028
 C3339 C 0.71877 0.77949 0.95468
 C3340 C 0.72584 0.77259 0.96563
 H3341 H 0.73096 0.76297 0.93118
 H3342 H 0.73596 0.75445 0.90319
 H3343 H 0.72201 0.76840 0.88033
 H3344 H 0.70293 0.79092 0.88535
 H3345 H 0.67380 0.82821 0.92512
 H3346 H 0.66872 0.83667 0.95315
 H3347 H 0.68270 0.82273 0.97600
 H3348 H 0.70185 0.80025 0.97096
 C3349 C 0.21146 0.28701 0.94092
 C3350 C 0.21454 0.28156 0.92479
 C3351 C 0.20667 0.28944 0.91145
 C3352 C 0.19574 0.30273 0.91431
 C3353 C 0.19263 0.30816 0.93043
 C3354 C 0.20051 0.30027 0.94378
 C3355 C 0.19721 0.30591 0.95979
 C3356 C 0.18643 0.31898 0.96254
 C3357 C 0.17873 0.32669 0.94949
 C3358 C 0.18175 0.32140 0.93360
 C3359 C 0.20996 0.28378 0.89545
 C3360 C 0.22070 0.27069 0.89270
 C3361 C 0.22840 0.26297 0.90575
 C3362 C 0.22541 0.26830 0.92163
 C3363 C 0.18776 0.31082 0.90065
 C3364 C 0.18121 0.31747 0.88924
 C3365 C 0.21960 0.27900 0.95451
 C3366 C 0.22652 0.27220 0.96561
 H3367 H 0.20291 0.30030 0.97033
 H3368 H 0.18405 0.32313 0.97486
 H3369 H 0.17037 0.33683 0.95170
 H3370 H 0.17546 0.32778 0.92385
 H3371 H 0.20427 0.28938 0.88490
 H3372 H 0.22307 0.26651 0.88038
 H3373 H 0.23671 0.25279 0.90355
 H3374 H 0.23170 0.26190 0.93137
 C3375 C 0.21046 0.78816 0.44134
 C3376 C 0.19967 0.80152 0.44436
 C3377 C 0.19163 0.80944 0.43113
 C3378 C 0.19442 0.80395 0.41497
 C3379 C 0.20518 0.79056 0.41196
 C3380 C 0.21322 0.78264 0.42518
 C3381 C 0.22392 0.76928 0.42186
 C3382 C 0.22659 0.76389 0.40595
 C3383 C 0.21873 0.77164 0.39302
 C3384 C 0.20814 0.78483 0.39591
 C3385 C 0.18091 0.82278 0.43445
 C3386 C 0.17821 0.82813 0.45038
 C3387 C 0.18608 0.82038 0.46331
 C3388 C 0.19670 0.80722 0.46041
 C3389 C 0.18630 0.81210 0.40143
 C3390 C 0.17964 0.81881 0.39010
 C3391 C 0.21877 0.78011 0.45481
 C3392 C 0.22582 0.77327 0.46581
 H3393 H 0.23032 0.76285 0.43151
 H3394 H 0.23478 0.75364 0.40363
 H3395 H 0.22085 0.76741 0.38067
 H3396 H 0.20231 0.79045 0.38545
 H3397 H 0.17451 0.82919 0.42479
 H3398 H 0.16997 0.83835 0.45270
 H3399 H 0.18394 0.82459 0.47566
 H3400 H 0.20253 0.80159 0.47086
 C3401 C 0.71178 0.71230 0.55865
 C3402 C 0.71473 0.71774 0.57479
 C3403 C 0.70676 0.70986 0.58808
 C3404 C 0.69589 0.69658 0.58516
 C3405 C 0.69293 0.69115 0.56901
 C3406 C 0.70090 0.69904 0.55572
 C3407 C 0.69776 0.69340 0.53969
 C3408 C 0.68704 0.68034 0.53687
 C3409 C 0.67925 0.67263 0.54986
 C3410 C 0.68212 0.67792 0.56578
 C3411 C 0.70990 0.71552 0.60411
 C3412 C 0.72060 0.72860 0.60693
 C3413 C 0.72837 0.73632 0.59393
 C3414 C 0.72553 0.73100 0.57803
 C3415 C 0.68780 0.68852 0.59876
 C3416 C 0.68115 0.68191 0.61015
 C3417 C 0.71998 0.72035 0.54511
 C3418 C 0.72695 0.72721 0.53407
 H3419 H 0.70353 0.69901 0.52919
 H3420 H 0.68477 0.67619 0.52453
 H3421 H 0.67094 0.66249 0.54761
 H3422 H 0.67577 0.67153 0.57548
 H3423 H 0.70414 0.70992 0.61462
 H3424 H 0.72285 0.73278 0.61926
 H3425 H 0.73664 0.74649 0.59618
 H3426 H 0.73188 0.73740 0.56833
 C3427 C 0.71121 0.21178 0.05823
 C3428 C 0.71415 0.21704 0.07443
 C3429 C 0.70618 0.20900 0.08763
 C3430 C 0.69531 0.19576 0.08455
 C3431 C 0.69235 0.19052 0.06834
 C3432 C 0.70033 0.19856 0.05514
 C3433 C 0.69718 0.19311 0.03905
 C3434 C 0.68647 0.18009 0.03607
 C3435 C 0.67867 0.17222 0.04898
 C3436 C 0.68154 0.17733 0.06495
 C3437 C 0.70931 0.21448 0.10372
 C3438 C 0.72001 0.22752 0.10669
 C3439 C 0.72779 0.23539 0.09379
 C3440 C 0.72495 0.23026 0.07782
 C3441 C 0.68722 0.18752 0.09805
 C3442 C 0.68058 0.18076 0.10935
 C3443 C 0.71944 0.21996 0.04478
 C3444 C 0.72641 0.22690 0.03379
 H3445 H 0.70296 0.19884 0.02861
 H3446 H 0.68420 0.17607 0.02369
 H3447 H 0.67036 0.16211 0.04660
 H3448 H 0.67518 0.17083 0.07458
 H3449 H 0.70355 0.20876 0.11417
 H3450 H 0.72225 0.23156 0.11907
 H3451 H 0.73606 0.24554 0.09615
 H3452 H 0.73130 0.23677 0.06820
 C3453 C 0.21101 0.71298 0.05855
 C3454 C 0.20011 0.69973 0.05564
 C3455 C 0.19216 0.69186 0.06895
 C3456 C 0.19515 0.69728 0.08509
 C3457 C 0.20602 0.71056 0.08799
 C3458 C 0.21397 0.71844 0.07469
 C3459 C 0.22478 0.73169 0.07790
 C3460 C 0.22764 0.73702 0.09380
 C3461 C 0.21988 0.72932 0.10680
 C3462 C 0.20919 0.71623 0.10401
 C3463 C 0.18132 0.67863 0.06573
 C3464 C 0.17842 0.67334 0.04982
 C3465 C 0.18620 0.68104 0.03681
 C3466 C 0.19693 0.69409 0.03961
 C3467 C 0.18712 0.68918 0.09871
 C3468 C 0.18053 0.68252 0.11010
 C3469 C 0.21924 0.72098 0.04500
 C3470 C 0.22623 0.72777 0.03394
 H3471 H 0.23112 0.73809 0.06819
 H3472 H 0.23592 0.74720 0.09603
 H3473 H 0.22215 0.73350 0.11913
 H3474 H 0.20343 0.71064 0.11453
 H3475 H 0.17498 0.67225 0.07545
 H3476 H 0.17010 0.66321 0.04758
 H3477 H 0.18390 0.67689 0.02448
 H3478 H 0.20268 0.69970 0.02910
 C3479 C 0.21116 0.21194 0.55882
 C3480 C 0.21414 0.21728 0.57500
 C3481 C 0.20621 0.20930 0.58825
 C3482 C 0.19533 0.19605 0.58526
 C3483 C 0.19232 0.19074 0.56909
 C3484 C 0.20026 0.19871 0.55583
 C3485 C 0.19706 0.19319 0.53977
 C3486 C 0.18633 0.18016 0.53689
 C3487 C 0.17857 0.17236 0.54985
 C3488 C 0.18149 0.17754 0.56579
 C3489 C 0.20940 0.21485 0.60431
 C3490 C 0.22010 0.22791 0.60719
 C3491 C 0.22784 0.23572 0.59422
 C3492 C 0.22496 0.23051 0.57829
 C3493 C 0.18727 0.18789 0.59883
 C3494 C 0.18065 0.18119 0.61018
 C3495 C 0.21934 0.22007 0.54532
 C3496 C 0.22628 0.22697 0.53429
 H3497 H 0.20281 0.19887 0.52929
 H3498 H 0.18402 0.17609 0.52453
 H3499 H 0.17024 0.16224 0.54755
 H3500 H 0.17516 0.17109 0.57547
 H3501 H 0.20366 0.20919 0.61480
 H3502 H 0.22238 0.23201 0.61954
 H3503 H 0.23611 0.24588 0.59652
 H3504 H 0.23129 0.23697 0.56862
   
