data_POSCAR
  _audit_creation_date              2014-09-24
  _audit_creation_method            'ToBaCCo'
  _symmetry_space_group_name_H-M    'P1'
  _symmetry_Int_Tables_number       1
  _symmetry_cell_setting            triclinic
  loop_
  _symmetry_equiv_pos_as_xyz
 x,y,z
_cell_length_a 101.6301
_cell_length_b 101.5049
_cell_length_c 102.2503
_cell_angle_alpha 89.966600
_cell_angle_beta 89.941700
_cell_angle_gamma 89.944800
loop_
  _atom_site_label
  _atom_site_type_symbol
  _atom_site_fract_x
  _atom_site_fract_y
  _atom_site_fract_z
N1 N 0.36090 0.32457 0.33449
 N2 N 0.36053 0.33351 0.32521
 C3 C 0.37078 0.33162 0.31708
 C4 C 0.37800 0.32088 0.32145
 C5 C 0.37137 0.31667 0.33256
 H6 H 0.37284 0.33768 0.30863
 H7 H 0.37397 0.30853 0.33886
 Cu8 Cu 0.34685 0.34696 0.32472
 Cu9 Cu 0.34799 0.32401 0.34853
 Cu10 Cu 0.32413 0.34837 0.34875
 N11 N 0.33362 0.36085 0.32535
 N12 N 0.32481 0.36133 0.33474
 C13 C 0.31700 0.37187 0.33290
 C14 C 0.32110 0.37845 0.32173
 C15 C 0.33171 0.37112 0.31721
 H16 H 0.30897 0.37454 0.33930
 H17 H 0.33762 0.37308 0.30864
 N18 N 0.32506 0.33438 0.36208
 N19 N 0.33412 0.32507 0.36196
 C20 C 0.33224 0.31710 0.37232
 C21 C 0.32148 0.32159 0.37937
 C22 C 0.31719 0.33258 0.37253
 H23 H 0.33831 0.30866 0.37456
 H24 H 0.30898 0.33887 0.37498
 H25 H 0.33284 0.33320 0.33849
 H26 H 0.34399 0.34405 0.34822
 N27 N 0.36137 0.82528 -0.16567
 N28 N 0.36092 0.83420 -0.17496
 C29 C 0.37115 0.83233 -0.18315
 C30 C 0.37846 0.82161 -0.17879
 C31 C 0.37185 0.81742 -0.16762
 H32 H 0.37308 0.83839 -0.19162
 H33 H 0.37442 0.80930 -0.16129
 Cu34 Cu 0.34714 0.84753 -0.17545
 Cu35 Cu 0.34842 0.82457 -0.15164
 Cu36 Cu 0.32425 0.84863 -0.15160
 N37 N 0.33376 0.86126 -0.17487
 N38 N 0.32486 0.86164 -0.16556
 C39 C 0.31697 0.87211 -0.16746
 C40 C 0.32112 0.87878 -0.17860
 C41 C 0.33185 0.87152 -0.18301
 H42 H 0.30885 0.87463 -0.16111
 H43 H 0.33790 0.87351 -0.19146
 N44 N 0.32525 0.83464 -0.13828
 N45 N 0.33446 0.82548 -0.13826
 C46 C 0.33257 0.81750 -0.12789
 C47 C 0.32162 0.82182 -0.12100
 C48 C 0.31726 0.83272 -0.12794
 H49 H 0.33875 0.80916 -0.12555
 H50 H 0.30889 0.83886 -0.12564
 H51 H 0.33328 0.83350 -0.16178
 H52 H 0.34421 0.84450 -0.15197
 N53 N 0.86098 0.32508 -0.16548
 N54 N 0.86061 0.33400 -0.17477
 C55 C 0.87085 0.33208 -0.18293
 C56 C 0.87805 0.32134 -0.17853
 C57 C 0.87143 0.31717 -0.16741
 H58 H 0.87290 0.33810 -0.19140
 H59 H 0.87401 0.30903 -0.16110
 Cu60 Cu 0.84692 0.34740 -0.17527
 Cu61 Cu 0.84806 0.32449 -0.15144
 Cu62 Cu 0.82400 0.34869 -0.15150
 N63 N 0.83355 0.36113 -0.17488
 N64 N 0.82464 0.36158 -0.16559
 C65 C 0.81674 0.37203 -0.16760
 C66 C 0.82089 0.37859 -0.17881
 C67 C 0.83164 0.37130 -0.18313
 H68 H 0.80860 0.37460 -0.16129
 H69 H 0.83769 0.37321 -0.19160
 N70 N 0.82499 0.33479 -0.13807
 N71 N 0.83414 0.32556 -0.13806
 C72 C 0.83224 0.31763 -0.12767
 C73 C 0.82136 0.32205 -0.12075
 C74 C 0.81704 0.33296 -0.12769
 H75 H 0.83836 0.30925 -0.12534
 H76 H 0.80872 0.33916 -0.12536
 H77 H 0.83297 0.33348 -0.16160
 H78 H 0.84393 0.34443 -0.15179
 N79 N 0.86157 0.82535 0.33481
 N80 N 0.86167 0.83471 0.32594
 C81 C 0.87193 0.83276 0.31783
 C82 C 0.87867 0.82157 0.32183
 C83 C 0.87174 0.81715 0.33266
 H84 H 0.87434 0.83908 0.30966
 H85 H 0.87391 0.80863 0.33862
 Cu86 Cu 0.84845 0.84861 0.32598
 Cu87 Cu 0.84847 0.82459 0.34868
 Cu88 Cu 0.82451 0.84888 0.34873
 N89 N 0.83467 0.86194 0.32592
 N90 N 0.82537 0.86198 0.33484
 C91 C 0.81722 0.87218 0.33265
 C92 C 0.82159 0.87902 0.32170
 C93 C 0.83274 0.87214 0.31771
 H94 H 0.80875 0.87438 0.33865
 H95 H 0.83903 0.87434 0.30948
 N96 N 0.82531 0.83478 0.36195
 N97 N 0.83442 0.82551 0.36191
 C98 C 0.83243 0.81747 0.37220
 C99 C 0.82154 0.82185 0.37911
 C100 C 0.81729 0.83286 0.37227
 H101 H 0.83853 0.80906 0.37448
 H102 H 0.80902 0.83910 0.37465
 H103 H 0.83386 0.83415 0.33828
 H104 H 0.84438 0.84453 0.34914
 N105 N 0.63831 0.67517 0.33497
 N106 N 0.63839 0.66589 0.32603
 C107 C 0.62821 0.66784 0.31781
 C108 C 0.62134 0.67895 0.32183
 C109 C 0.62810 0.68332 0.33277
 H110 H 0.62598 0.66160 0.30956
 H111 H 0.62578 0.69176 0.33878
 Cu112 Cu 0.65171 0.65209 0.32611
 Cu113 Cu 0.65131 0.67594 0.34893
 Cu114 Cu 0.67549 0.65184 0.34896
 N115 N 0.66549 0.63876 0.32612
 N116 N 0.67477 0.63876 0.33505
 C117 C 0.68292 0.62853 0.33291
 C118 C 0.67856 0.62168 0.32202
 C119 C 0.66745 0.62851 0.31798
 H120 H 0.69136 0.62627 0.33892
 H121 H 0.66122 0.62621 0.30974
 N122 N 0.67453 0.66589 0.36221
 N123 N 0.66531 0.67504 0.36223
 C124 C 0.66718 0.68304 0.37256
 C125 C 0.67813 0.67874 0.37944
 C126 C 0.68251 0.66783 0.37254
 H127 H 0.66097 0.69134 0.37491
 H128 H 0.69088 0.66171 0.37485
 H129 H 0.66610 0.66659 0.33858
 H130 H 0.65561 0.65604 0.34931
 N131 N 0.63879 0.17501 -0.16529
 N132 N 0.63872 0.16564 -0.17413
 C133 C 0.62847 0.16755 -0.18225
 C134 C 0.62170 0.17874 -0.17829
 C135 C 0.62861 0.18320 -0.16747
 H136 H 0.62609 0.16121 -0.19039
 H137 H 0.62638 0.19170 -0.16151
 Cu138 Cu 0.65192 0.15173 -0.17401
 Cu139 Cu 0.65183 0.17573 -0.15135
 Cu140 Cu 0.67561 0.15124 -0.15110
 N141 N 0.66556 0.13825 -0.17396
 N142 N 0.67477 0.13813 -0.16497
 C143 C 0.68286 0.12786 -0.16710
 C144 C 0.67854 0.12107 -0.17809
 C145 C 0.66748 0.12804 -0.18215
 H146 H 0.69125 0.12559 -0.16104
 H147 H 0.66126 0.12591 -0.19044
 N148 N 0.67482 0.16535 -0.13791
 N149 N 0.66582 0.17472 -0.13804
 C150 C 0.66781 0.18275 -0.12775
 C151 C 0.67859 0.17825 -0.12075
 C152 C 0.68277 0.16719 -0.12754
 H153 H 0.66178 0.19122 -0.12551
 H154 H 0.69096 0.16087 -0.12510
 H155 H 0.66650 0.16608 -0.16159
 H156 H 0.65578 0.15578 -0.15083
 N157 N 0.13859 0.67538 -0.16521
 N158 N 0.13860 0.66610 -0.17415
 C159 C 0.12833 0.66801 -0.18225
 C160 C 0.12146 0.67910 -0.17816
 C161 C 0.12833 0.68349 -0.16730
 H162 H 0.12599 0.66174 -0.19045
 H163 H 0.12606 0.69193 -0.16127
 Cu164 Cu 0.15194 0.65231 -0.17413
 Cu165 Cu 0.15166 0.67612 -0.15131
 Cu166 Cu 0.17573 0.65188 -0.15131
 N167 N 0.16564 0.63890 -0.17416
 N168 N 0.17491 0.63882 -0.16522
 C169 C 0.18299 0.62853 -0.16737
 C170 C 0.17857 0.62173 -0.17827
 C171 C 0.16752 0.62866 -0.18231
 H172 H 0.19143 0.62621 -0.16137
 H173 H 0.16125 0.62639 -0.19053
 N174 N 0.17486 0.66594 -0.13806
 N175 N 0.16571 0.67517 -0.13805
 C176 C 0.16761 0.68312 -0.12769
 C177 C 0.17850 0.67871 -0.12078
 C178 C 0.18282 0.66779 -0.12771
 H179 H 0.16145 0.69145 -0.12532
 H180 H 0.19112 0.66157 -0.12537
 H181 H 0.16642 0.66669 -0.16163
 H182 H 0.15585 0.65619 -0.15092
 N183 N 0.13866 0.17508 0.33488
 N184 N 0.13869 0.16582 0.32591
 C185 C 0.12848 0.16779 0.31775
 C186 C 0.12164 0.17891 0.32181
 C187 C 0.12845 0.18325 0.33273
 H188 H 0.12620 0.16156 0.30950
 H189 H 0.12616 0.19168 0.33877
 Cu190 Cu 0.15200 0.15200 0.32594
 Cu191 Cu 0.15167 0.17577 0.34882
 Cu192 Cu 0.17574 0.15156 0.34885
 N193 N 0.16575 0.13863 0.32591
 N194 N 0.17499 0.13854 0.33489
 C195 C 0.18310 0.12829 0.33273
 C196 C 0.17876 0.12151 0.32179
 C197 C 0.16770 0.12841 0.31772
 H198 H 0.19150 0.12595 0.33877
 H199 H 0.16150 0.12618 0.30945
 N200 N 0.17481 0.16559 0.36215
 N201 N 0.16565 0.17480 0.36212
 C202 C 0.16755 0.18280 0.37245
 C203 C 0.17844 0.17843 0.37938
 C204 C 0.18277 0.16748 0.37250
 H205 H 0.16140 0.19116 0.37477
 H206 H 0.19109 0.16130 0.37485
 H207 H 0.16648 0.16634 0.33848
 H208 H 0.15590 0.15582 0.34916
 N209 N 0.63891 0.32444 0.66563
 N210 N 0.63933 0.33337 0.67491
 C211 C 0.62908 0.33150 0.68307
 C212 C 0.62184 0.32080 0.67869
 C213 C 0.62844 0.31659 0.66757
 H214 H 0.62706 0.33751 0.69156
 H215 H 0.62581 0.30849 0.66126
 Cu216 Cu 0.65308 0.34670 0.67536
 Cu217 Cu 0.65179 0.32377 0.65157
 Cu218 Cu 0.67585 0.34788 0.65138
 N219 N 0.66642 0.36043 0.67474
 N220 N 0.67528 0.36084 0.66539
 C221 C 0.68316 0.37131 0.66727
 C222 C 0.67904 0.37790 0.67843
 C223 C 0.66837 0.37066 0.68289
 H224 H 0.69122 0.37394 0.66090
 H225 H 0.66244 0.37266 0.69143
 N226 N 0.67480 0.33392 0.63805
 N227 N 0.66565 0.32473 0.63815
 C228 C 0.66745 0.31675 0.62778
 C229 C 0.67827 0.32112 0.62075
 C230 C 0.68267 0.33204 0.62761
 H231 H 0.66128 0.30841 0.62552
 H232 H 0.69098 0.33820 0.62520
 H233 H 0.66697 0.33276 0.66163
 H234 H 0.65593 0.34374 0.65186
 N235 N 0.63875 0.82491 1.16550
 N236 N 0.63917 0.83378 1.17483
 C237 C 0.62894 0.83187 1.18300
 C238 C 0.62170 0.82119 1.17856
 C239 C 0.62828 0.81704 1.16741
 H240 H 0.62693 0.83782 1.19152
 H241 H 0.62564 0.80898 1.16105
 Cu242 Cu 0.65287 0.84715 1.17531
 Cu243 Cu 0.65161 0.82434 1.15143
 Cu244 Cu 0.67557 0.84854 1.15127
 N245 N 0.66616 0.86093 1.17472
 N246 N 0.67496 0.86142 1.16532
 C247 C 0.68281 0.87191 1.16721
 C248 C 0.67873 0.87843 1.17842
 C249 C 0.66811 0.87113 1.18291
 H250 H 0.69084 0.87460 1.16082
 H251 H 0.66222 0.87306 1.19150
 N252 N 0.67455 0.83462 1.13789
 N253 N 0.66544 0.82539 1.13798
 C254 C 0.66732 0.81741 1.12763
 C255 C 0.67816 0.82180 1.12064
 C256 C 0.68247 0.83276 1.12749
 H257 H 0.66120 0.80902 1.12537
 H258 H 0.69078 0.83894 1.12512
 H259 H 0.66682 0.83337 1.16149
 H260 H 0.65570 0.84433 1.15181
 N261 N 0.13882 0.32475 1.16572
 N262 N 0.13875 0.33414 1.17455
 C263 C 0.12846 0.33228 1.18266
 C264 C 0.12168 0.32112 1.17869
 C265 C 0.12861 0.31662 1.16789
 H266 H 0.12606 0.33865 1.19078
 H267 H 0.12641 0.30810 1.16196
 Cu268 Cu 0.15201 0.34796 1.17442
 Cu269 Cu 0.15190 0.32391 1.15184
 Cu270 Cu 0.17599 0.34804 1.15167
 N271 N 0.16582 0.36122 1.17439
 N272 N 0.17516 0.36118 1.16551
 C273 C 0.18327 0.37142 1.16764
 C274 C 0.17879 0.37833 1.17847
 C275 C 0.16768 0.37151 1.18249
 H276 H 0.19177 0.37366 1.16168
 H277 H 0.16134 0.37388 1.19063
 N278 N 0.17509 0.33390 1.13851
 N279 N 0.16593 0.32471 1.13856
 C280 C 0.16780 0.31672 1.12822
 C281 C 0.17867 0.32108 1.12125
 C282 C 0.18303 0.33200 1.12813
 H283 H 0.16160 0.30841 1.12589
 H284 H 0.19132 0.33819 1.12573
 H285 H 0.16663 0.33344 1.16218
 H286 H 0.15617 0.34386 1.15129
 N287 N 0.13866 0.82482 0.66521
 N288 N 0.13869 0.83412 0.67413
 C289 C 0.12845 0.83223 0.68229
 C290 C 0.12159 0.82113 0.67826
 C291 C 0.12843 0.81671 0.66737
 H292 H 0.12614 0.83851 0.69050
 H293 H 0.12617 0.80824 0.66139
 Cu294 Cu 0.15201 0.84786 0.67407
 Cu295 Cu 0.15173 0.82400 0.65130
 Cu296 Cu 0.17589 0.84808 0.65127
 N297 N 0.16578 0.86116 0.67408
 N298 N 0.17509 0.86116 0.66516
 C299 C 0.18322 0.87138 0.66731
 C300 C 0.17879 0.87823 0.67819
 C301 C 0.16768 0.87140 0.68222
 H302 H 0.19169 0.87363 0.66133
 H303 H 0.16139 0.87373 0.69042
 N304 N 0.17499 0.83401 0.63803
 N305 N 0.16579 0.82485 0.63804
 C306 C 0.16767 0.81686 0.62770
 C307 C 0.17860 0.82117 0.62079
 C308 C 0.18297 0.83207 0.62769
 H309 H 0.16147 0.80857 0.62536
 H310 H 0.19131 0.83822 0.62534
 H311 H 0.16648 0.83337 0.66164
 H312 H 0.15600 0.84391 0.65088
 N313 N 0.36107 0.67556 0.66569
 N314 N 0.36067 0.66656 0.67491
 C315 C 0.37089 0.66840 0.68308
 C316 C 0.37812 0.67915 0.67876
 C317 C 0.37153 0.68342 0.66767
 H318 H 0.37291 0.66233 0.69153
 H319 H 0.37414 0.69158 0.66140
 Cu320 Cu 0.34692 0.65322 0.67526
 Cu321 Cu 0.34821 0.67632 0.65163
 Cu322 Cu 0.32405 0.65227 0.65150
 N323 N 0.33350 0.63956 0.67473
 N324 N 0.32458 0.63925 0.66546
 C325 C 0.31666 0.62880 0.66736
 C326 C 0.32084 0.62212 0.67845
 C327 C 0.33157 0.62929 0.68285
 H328 H 0.30854 0.62623 0.66105
 H329 H 0.33756 0.62721 0.69132
 N330 N 0.32513 0.66626 0.63820
 N331 N 0.33432 0.67542 0.63823
 C332 C 0.33253 0.68336 0.62782
 C333 C 0.32168 0.67900 0.62086
 C334 C 0.31726 0.66813 0.62779
 H335 H 0.33873 0.69167 0.62548
 H336 H 0.30895 0.66196 0.62542
 H337 H 0.33308 0.66737 0.66173
 H338 H 0.34402 0.65644 0.65181
 N339 N 0.36124 0.17552 1.16593
 N340 N 0.36083 0.16657 1.17521
 C341 C 0.37106 0.16844 1.18336
 C342 C 0.37830 0.17916 1.17898
 C343 C 0.37170 0.18339 1.16787
 H344 H 0.37309 0.16240 1.19182
 H345 H 0.37435 0.19150 1.16155
 Cu346 Cu 0.34719 0.15314 1.17561
 Cu347 Cu 0.34839 0.17612 1.15187
 Cu348 Cu 0.32442 0.15190 1.15169
 N349 N 0.33393 0.13933 1.17502
 N350 N 0.32506 0.13892 1.16569
 C351 C 0.31724 0.12840 1.16757
 C352 C 0.32140 0.12178 1.17870
 C353 C 0.33205 0.12905 1.18315
 H354 H 0.30918 0.12575 1.16121
 H355 H 0.33799 0.12704 1.19167
 N356 N 0.32544 0.16589 1.13836
 N357 N 0.33456 0.17512 1.13843
 C358 C 0.33275 0.18307 1.12804
 C359 C 0.32194 0.17866 1.12103
 C360 C 0.31758 0.16774 1.12792
 H361 H 0.33889 0.19143 1.12575
 H362 H 0.30930 0.16153 1.12552
 H363 H 0.33319 0.16702 1.16193
 H364 H 0.34427 0.15612 1.15213
 N365 N 0.86138 0.67540 1.16537
 N366 N 0.86119 0.66630 1.17450
 C367 C 0.87143 0.66821 1.18261
 C368 C 0.87845 0.67912 1.17835
 C369 C 0.87171 0.68342 1.16736
 H370 H 0.87363 0.66205 1.19092
 H371 H 0.87415 0.69170 1.16116
 Cu372 Cu 0.84778 0.65264 1.17465
 Cu373 Cu 0.84843 0.67604 1.15137
 Cu374 Cu 0.82443 0.65178 1.15143
 N375 N 0.83425 0.63910 1.17459
 N376 N 0.82517 0.63883 1.16547
 C377 C 0.81721 0.62845 1.16753
 C378 C 0.82153 0.62176 1.17856
 C379 C 0.83239 0.62886 1.18276
 H380 H 0.80895 0.62595 1.16137
 H381 H 0.83854 0.62673 1.19110
 N382 N 0.82536 0.66575 1.13807
 N383 N 0.83449 0.67498 1.13805
 C384 C 0.83258 0.68293 1.12768
 C385 C 0.82172 0.67851 1.12077
 C386 C 0.81741 0.66759 1.12769
 H387 H 0.83870 0.69130 1.12534
 H388 H 0.80913 0.66138 1.12536
 H389 H 0.83352 0.66684 1.16160
 H390 H 0.84431 0.65613 1.15130
 N391 N 0.86126 0.17496 0.66552
 N392 N 0.86115 0.16567 0.67447
 C393 C 0.87140 0.16748 0.68261
 C394 C 0.87835 0.17851 0.67855
 C395 C 0.87156 0.18299 0.66766
 H396 H 0.87365 0.16118 0.69082
 H397 H 0.87390 0.19143 0.66166
 Cu398 Cu 0.84771 0.15203 0.67448
 Cu399 Cu 0.84821 0.17583 0.65161
 Cu400 Cu 0.82415 0.15164 0.65143
 N401 N 0.83414 0.13853 0.67425
 N402 N 0.82495 0.13845 0.66523
 C403 C 0.81695 0.12810 0.66724
 C404 C 0.82134 0.12124 0.67814
 C405 C 0.83229 0.12820 0.68232
 H406 H 0.80859 0.12576 0.66116
 H407 H 0.83850 0.12593 0.69058
 N408 N 0.82503 0.16581 0.63829
 N409 N 0.83418 0.17501 0.63835
 C410 C 0.83228 0.18306 0.62805
 C411 C 0.82140 0.17873 0.62111
 C412 C 0.81707 0.16776 0.62795
 H413 H 0.83844 0.19141 0.62574
 H414 H 0.80879 0.16156 0.62555
 H415 H 0.83336 0.16646 0.66181
 H416 H 0.84403 0.15591 0.65123
 N417 N 0.32490 0.36134 0.66534
 N418 N 0.33432 0.36139 0.67412
 C419 C 0.33245 0.37163 0.68229
 C420 C 0.32125 0.37841 0.67841
 C421 C 0.31674 0.37154 0.66760
 H422 H 0.33883 0.37401 0.69039
 H423 H 0.30816 0.37373 0.66176
 Cu424 Cu 0.34816 0.34813 0.67401
 Cu425 Cu 0.32406 0.34828 0.65145
 Cu426 Cu 0.34821 0.32416 0.65126
 N427 N 0.36137 0.33425 0.67400
 N428 N 0.36132 0.32490 0.66512
 C429 C 0.37146 0.31667 0.66733
 C430 C 0.37831 0.32105 0.67821
 C431 C 0.37156 0.33225 0.68218
 H432 H 0.37363 0.30812 0.66142
 H433 H 0.37391 0.33854 0.69036
 N434 N 0.33412 0.32509 0.63808
 N435 N 0.32490 0.33425 0.63818
 C436 C 0.31687 0.33238 0.62788
 C437 C 0.32122 0.32151 0.62090
 C438 C 0.33219 0.31716 0.62771
 H439 H 0.30853 0.33856 0.62561
 H440 H 0.33838 0.30886 0.62528
 H441 H 0.33360 0.33357 0.66178
 H442 H 0.34394 0.34406 0.65086
 N443 N 0.32494 0.86126 0.16521
 N444 N 0.33374 0.86065 0.17458
 C445 C 0.33178 0.87070 0.18293
 C446 C 0.32112 0.87803 0.17861
 C447 C 0.31703 0.87169 0.16731
 H448 H 0.33765 0.87249 0.19153
 H449 H 0.30897 0.87448 0.16099
 Cu450 Cu 0.34704 0.84692 0.17500
 Cu451 Cu 0.32456 0.84862 0.15090
 Cu452 Cu 0.34864 0.82443 0.15086
 N453 N 0.36066 0.83353 0.17458
 N454 N 0.36126 0.82474 0.16518
 C455 C 0.37168 0.81681 0.16726
 C456 C 0.37801 0.82088 0.17857
 C457 C 0.37069 0.83153 0.18292
 H458 H 0.37448 0.80877 0.16091
 H459 H 0.37248 0.83739 0.19154
 N460 N 0.33499 0.82577 0.13721
 N461 N 0.32582 0.83497 0.13724
 C462 C 0.31794 0.83321 0.12681
 C463 C 0.32232 0.82236 0.11981
 C464 C 0.33318 0.81792 0.12675
 H465 H 0.30957 0.83936 0.12454
 H466 H 0.33929 0.80952 0.12444
 H467 H 0.33336 0.83326 0.16088
 H468 H 0.34449 0.84439 0.15142
 N469 N 0.82512 0.36170 0.16496
 N470 N 0.83441 0.36164 0.17387
 C471 C 0.83251 0.37184 0.18207
 C472 C 0.82141 0.37872 0.17808
 C473 C 0.81700 0.37194 0.16716
 H474 H 0.83876 0.37408 0.19031
 H475 H 0.80856 0.37426 0.16118
 Cu476 Cu 0.84816 0.34830 0.17381
 Cu477 Cu 0.82433 0.34866 0.15103
 Cu478 Cu 0.84847 0.32450 0.15095
 N479 N 0.86147 0.33452 0.17381
 N480 N 0.86153 0.32525 0.16485
 C481 C 0.87175 0.31709 0.16703
 C482 C 0.87852 0.32146 0.17797
 C483 C 0.87166 0.33256 0.18200
 H484 H 0.87404 0.30864 0.16103
 H485 H 0.87390 0.33880 0.19026
 N486 N 0.83442 0.32544 0.13771
 N487 N 0.82523 0.33462 0.13775
 C488 C 0.81721 0.33270 0.12745
 C489 C 0.82153 0.32177 0.12054
 C490 C 0.83249 0.31744 0.12739
 H491 H 0.80886 0.33886 0.12516
 H492 H 0.83865 0.30910 0.12504
 H493 H 0.83371 0.33386 0.16134
 H494 H 0.84420 0.34441 0.15061
 N495 N 0.82466 0.86177 0.66529
 N496 N 0.83353 0.86136 0.67460
 C497 C 0.83158 0.87157 0.68278
 C498 C 0.82087 0.87881 0.67837
 C499 C 0.81675 0.87223 0.66722
 H500 H 0.83753 0.87358 0.69129
 H501 H 0.80865 0.87485 0.66089
 Cu502 Cu 0.84689 0.84763 0.67509
 Cu503 Cu 0.82409 0.84886 0.65125
 Cu504 Cu 0.84820 0.82474 0.65126
 N505 N 0.86061 0.83424 0.67465
 N506 N 0.86107 0.82534 0.66535
 C507 C 0.87152 0.81744 0.66733
 C508 C 0.87804 0.82159 0.67851
 C509 C 0.87078 0.83231 0.68287
 H510 H 0.87416 0.80932 0.66103
 H511 H 0.87274 0.83830 0.69137
 N512 N 0.83432 0.82578 0.63784
 N513 N 0.82513 0.83496 0.63786
 C514 C 0.81718 0.83310 0.62750
 C515 C 0.82153 0.82220 0.62057
 C516 C 0.83244 0.81783 0.62747
 H517 H 0.80883 0.83926 0.62520
 H518 H 0.83858 0.80947 0.62514
 H519 H 0.83305 0.83367 0.66140
 H520 H 0.84403 0.84467 0.65161
 N521 N 0.67498 0.63880 0.66535
 N522 N 0.66623 0.63936 0.67479
 C523 C 0.66819 0.62917 0.68301
 C524 C 0.67877 0.62180 0.67850
 C525 C 0.68281 0.62827 0.66724
 H526 H 0.66235 0.62729 0.69164
 H527 H 0.69081 0.62554 0.66083
 Cu528 Cu 0.65298 0.65322 0.67545
 Cu529 Cu 0.67557 0.65175 0.65133
 Cu530 Cu 0.65173 0.67611 0.65156
 N531 N 0.63927 0.66663 0.67497
 N532 N 0.63887 0.67553 0.66565
 C533 C 0.62839 0.68341 0.66756
 C534 C 0.62178 0.67925 0.67868
 C535 C 0.62902 0.66855 0.68312
 H536 H 0.62576 0.69149 0.66120
 H537 H 0.62699 0.66256 0.69162
 N538 N 0.66556 0.67503 0.63810
 N539 N 0.67460 0.66571 0.63797
 C540 C 0.68253 0.66755 0.62757
 C541 C 0.67829 0.67858 0.62076
 C542 C 0.66749 0.68305 0.62778
 H543 H 0.69078 0.66130 0.62516
 H544 H 0.66144 0.69151 0.62555
 H545 H 0.66687 0.66702 0.66157
 H546 H 0.65567 0.65614 0.65193
 N547 N 0.67492 0.13820 0.16518
 N548 N 0.66554 0.13816 0.17401
 C549 C 0.66749 0.12799 0.18225
 C550 C 0.67873 0.12126 0.17839
 C551 C 0.68316 0.12809 0.16749
 H552 H 0.66117 0.12567 0.19043
 H553 H 0.69169 0.12587 0.16157
 Cu554 Cu 0.65156 0.15127 0.17393
 Cu555 Cu 0.67561 0.15112 0.15114
 Cu556 Cu 0.65176 0.17544 0.15130
 N557 N 0.63869 0.16547 0.17412
 N558 N 0.63887 0.17493 0.16536
 C559 C 0.62883 0.18326 0.16769
 C560 C 0.62191 0.17879 0.17852
 C561 C 0.62851 0.16746 0.18232
 H562 H 0.62668 0.19184 0.16181
 H563 H 0.62608 0.16106 0.19041
 N564 N 0.66557 0.17432 0.13784
 N565 N 0.67465 0.16504 0.13775
 C566 C 0.68258 0.16689 0.12735
 C567 C 0.67829 0.17789 0.12051
 C568 C 0.66746 0.18232 0.12750
 H569 H 0.69089 0.16069 0.12498
 H570 H 0.66139 0.19076 0.12528
 H571 H 0.66634 0.16571 0.16180
 H572 H 0.65581 0.15545 0.15081
 N573 N 0.17449 0.63839 0.16481
 N574 N 0.16516 0.63834 0.17371
 C575 C 0.16711 0.62811 0.18187
 C576 C 0.17828 0.62133 0.17788
 C577 C 0.18268 0.62821 0.16699
 H578 H 0.16085 0.62578 0.19009
 H579 H 0.19120 0.62602 0.16105
 Cu580 Cu 0.15134 0.65164 0.17370
 Cu581 Cu 0.17533 0.65157 0.15100
 Cu582 Cu 0.15117 0.67568 0.15105
 N583 N 0.13804 0.66545 0.17377
 N584 N 0.13805 0.67480 0.16489
 C585 C 0.12786 0.68297 0.16711
 C586 C 0.12104 0.67855 0.17801
 C587 C 0.12783 0.66738 0.18197
 H588 H 0.12564 0.69150 0.16118
 H589 H 0.12554 0.66109 0.19018
 N590 N 0.16528 0.67490 0.13785
 N591 N 0.17448 0.66573 0.13784
 C592 C 0.18254 0.66775 0.12757
 C593 C 0.17822 0.67873 0.12074
 C594 C 0.16725 0.68299 0.12760
 H595 H 0.19091 0.66162 0.12524
 H596 H 0.16106 0.69133 0.12528
 H597 H 0.16587 0.66622 0.16144
 H598 H 0.15545 0.65578 0.15056
 N599 N 0.17481 0.13832 0.66536
 N600 N 0.16597 0.13880 0.67473
 C601 C 0.16793 0.12861 0.68295
 C602 C 0.17861 0.12133 0.67851
 C603 C 0.18269 0.12785 0.66730
 H604 H 0.16202 0.12668 0.69152
 H605 H 0.19079 0.12522 0.66097
 Cu606 Cu 0.15272 0.15267 0.67527
 Cu607 Cu 0.17549 0.15128 0.65135
 Cu608 Cu 0.15174 0.17574 0.65159
 N609 N 0.13912 0.16619 0.67488
 N610 N 0.13884 0.17519 0.66565
 C611 C 0.12845 0.18317 0.66761
 C612 C 0.12176 0.17896 0.67868
 C613 C 0.12887 0.16813 0.68302
 H614 H 0.12594 0.19136 0.66134
 H615 H 0.12673 0.16205 0.69143
 N616 N 0.16559 0.17462 0.63815
 N617 N 0.17460 0.16526 0.63802
 C618 C 0.18251 0.16706 0.62760
 C619 C 0.17831 0.17810 0.62079
 C620 C 0.16754 0.18262 0.62782
 H621 H 0.19072 0.16076 0.62517
 H622 H 0.16153 0.19111 0.62561
 H623 H 0.16678 0.16649 0.66162
 H624 H 0.15562 0.15574 0.65180
 N625 N 0.32511 0.63836 0.33452
 N626 N 0.33399 0.63879 0.32519
 C627 C 0.33210 0.62856 0.31703
 C628 C 0.32142 0.62130 0.32145
 C629 C 0.31726 0.62788 0.33260
 H630 H 0.33807 0.62658 0.30851
 H631 H 0.30916 0.62526 0.33893
 Cu632 Cu 0.34728 0.65256 0.32467
 Cu633 Cu 0.32442 0.65131 0.34852
 Cu634 Cu 0.34832 0.67560 0.34837
 N635 N 0.36093 0.66597 0.32512
 N636 N 0.36125 0.67496 0.33435
 C637 C 0.37166 0.68289 0.33238
 C638 C 0.37831 0.67867 0.32130
 C639 C 0.37117 0.66788 0.31697
 H640 H 0.37420 0.69107 0.33864
 H641 H 0.37326 0.66182 0.30854
 N642 N 0.33441 0.67457 0.36175
 N643 N 0.32534 0.66529 0.36185
 C644 C 0.31741 0.66714 0.37225
 C645 C 0.32167 0.67813 0.37908
 C646 C 0.33249 0.68257 0.37207
 H647 H 0.30917 0.66089 0.37466
 H648 H 0.33854 0.69100 0.37431
 H649 H 0.33325 0.66649 0.33827
 H650 H 0.34432 0.65563 0.34813
 N651 N 0.32481 0.13831 0.83445
 N652 N 0.33383 0.13857 0.82525
 C653 C 0.33204 0.12823 0.81722
 C654 C 0.32128 0.12106 0.82159
 C655 C 0.31696 0.12782 0.83257
 H656 H 0.33813 0.12610 0.80882
 H657 H 0.30877 0.12528 0.83883
 Cu658 Cu 0.34718 0.15229 0.82472
 Cu659 Cu 0.32404 0.15141 0.84831
 Cu660 Cu 0.34808 0.17557 0.84814
 N661 N 0.36082 0.16571 0.82504
 N662 N 0.36110 0.17479 0.83418
 C663 C 0.37153 0.18269 0.83216
 C664 C 0.37823 0.17835 0.82115
 C665 C 0.37109 0.16753 0.81690
 H666 H 0.37405 0.19093 0.83835
 H667 H 0.37320 0.16138 0.80853
 N668 N 0.33408 0.17470 0.86147
 N669 N 0.32493 0.16549 0.86151
 C670 C 0.31697 0.16737 0.87187
 C671 C 0.32127 0.17829 0.87877
 C672 C 0.33216 0.18268 0.87183
 H673 H 0.30869 0.16115 0.87424
 H674 H 0.33829 0.19104 0.87416
 H675 H 0.33303 0.16639 0.83802
 H676 H 0.34392 0.15559 0.84812
 N677 N 0.82481 0.63847 0.83468
 N678 N 0.83420 0.63838 0.82584
 C679 C 0.83229 0.62813 0.81770
 C680 C 0.82111 0.62139 0.82164
 C681 C 0.81663 0.62830 0.83248
 H682 H 0.83865 0.62573 0.80957
 H683 H 0.80808 0.62613 0.83837
 Cu684 Cu 0.84804 0.65161 0.82587
 Cu685 Cu 0.82404 0.65161 0.84854
 Cu686 Cu 0.84829 0.67560 0.84858
 N687 N 0.86138 0.66535 0.82582
 N688 N 0.86139 0.67470 0.83469
 C689 C 0.87160 0.68283 0.83245
 C690 C 0.87842 0.67836 0.82157
 C691 C 0.87159 0.66723 0.81762
 H692 H 0.87383 0.69138 0.83834
 H693 H 0.87390 0.66090 0.80945
 N694 N 0.83418 0.67480 0.86182
 N695 N 0.82494 0.66569 0.86177
 C696 C 0.81694 0.66763 0.87210
 C697 C 0.82134 0.67849 0.87905
 C698 C 0.83230 0.68277 0.87218
 H699 H 0.80859 0.66149 0.87443
 H700 H 0.83853 0.69104 0.87457
 H701 H 0.83363 0.66629 0.83816
 H702 H 0.84398 0.65574 0.84903
 N703 N 0.82533 0.13785 0.33485
 N704 N 0.83468 0.13783 0.32597
 C705 C 0.83283 0.12756 0.31785
 C706 C 0.82171 0.12072 0.32184
 C707 C 0.81723 0.12760 0.33269
 H708 H 0.83914 0.12523 0.30967
 H709 H 0.80872 0.12537 0.33863
 Cu710 Cu 0.84842 0.15117 0.32594
 Cu711 Cu 0.82443 0.15102 0.34866
 Cu712 Cu 0.84844 0.17523 0.34856
 N713 N 0.86159 0.16507 0.32582
 N714 N 0.86153 0.17444 0.33467
 C715 C 0.87165 0.18266 0.33241
 C716 C 0.87849 0.17825 0.32151
 C717 C 0.87177 0.16704 0.31760
 H718 H 0.87381 0.19122 0.33829
 H719 H 0.87412 0.16073 0.30942
 N720 N 0.83437 0.17437 0.36181
 N721 N 0.82522 0.16517 0.36184
 C722 C 0.81716 0.16716 0.37212
 C723 C 0.82142 0.17816 0.37894
 C724 C 0.83238 0.18245 0.37206
 H725 H 0.80884 0.16099 0.37447
 H726 H 0.83849 0.19083 0.37433
 H727 H 0.83381 0.16570 0.33818
 H728 H 0.84429 0.15531 0.34908
 N729 N 0.67517 0.36102 0.33462
 N730 N 0.66632 0.36059 0.32528
 C731 C 0.66825 0.37083 0.31712
 C732 C 0.67891 0.37810 0.32157
 C733 C 0.68302 0.37151 0.33272
 H734 H 0.66232 0.37284 0.30859
 H735 H 0.69105 0.37416 0.33910
 Cu736 Cu 0.65300 0.34680 0.32475
 Cu737 Cu 0.67577 0.34814 0.34870
 Cu738 Cu 0.65165 0.32409 0.34877
 N739 N 0.63925 0.33346 0.32535
 N740 N 0.63877 0.32464 0.33473
 C741 C 0.62828 0.31679 0.33285
 C742 C 0.62175 0.32090 0.32165
 C743 C 0.62905 0.33153 0.31718
 H744 H 0.62558 0.30876 0.33924
 H745 H 0.62711 0.33744 0.30861
 N746 N 0.66551 0.32513 0.36216
 N747 N 0.67472 0.33427 0.36213
 C748 C 0.68263 0.33241 0.37253
 C749 C 0.67820 0.32156 0.37950
 C750 C 0.66732 0.31722 0.37258
 H751 H 0.69099 0.33854 0.37483
 H752 H 0.66111 0.30892 0.37495
 H753 H 0.66690 0.33300 0.33860
 H754 H 0.65589 0.34409 0.34827
 N755 N 0.67500 0.86145 0.83491
 N756 N 0.66576 0.86143 0.82595
 C757 C 0.66766 0.87170 0.81783
 C758 C 0.67870 0.87858 0.82193
 C759 C 0.68309 0.87172 0.83282
 H760 H 0.66142 0.87401 0.80960
 H761 H 0.69149 0.87402 0.83886
 Cu762 Cu 0.65203 0.84808 0.82591
 Cu763 Cu 0.67573 0.84835 0.84880
 Cu764 Cu 0.65162 0.82420 0.84868
 N765 N 0.63866 0.83437 0.82582
 N766 N 0.63860 0.82505 0.83473
 C767 C 0.62835 0.81697 0.83259
 C768 C 0.62151 0.82144 0.82171
 C769 C 0.62840 0.83252 0.81768
 H770 H 0.62604 0.80853 0.83859
 H771 H 0.62612 0.83882 0.80947
 N772 N 0.66563 0.82506 0.86198
 N773 N 0.67479 0.83425 0.86202
 C774 C 0.68273 0.83234 0.87238
 C775 C 0.67838 0.82141 0.87927
 C776 C 0.66751 0.81705 0.87233
 H777 H 0.69103 0.83853 0.87475
 H778 H 0.66134 0.80872 0.87466
 H779 H 0.66642 0.83359 0.83843
 H780 H 0.65584 0.84411 0.84912
 N781 N 0.17522 0.36093 0.83446
 N782 N 0.16629 0.36058 0.82519
 C783 C 0.16815 0.37088 0.81709
 C784 C 0.17885 0.37812 0.82149
 C785 C 0.18307 0.37144 0.83256
 H786 H 0.16215 0.37294 0.80863
 H787 H 0.19119 0.37403 0.83886
 Cu788 Cu 0.15295 0.34682 0.82464
 Cu789 Cu 0.17589 0.34787 0.84839
 Cu790 Cu 0.15196 0.32361 0.84818
 N791 N 0.13926 0.33339 0.82502
 N792 N 0.13900 0.32433 0.83419
 C793 C 0.12855 0.31645 0.83229
 C794 C 0.12180 0.32076 0.82131
 C795 C 0.12894 0.33157 0.81697
 H796 H 0.12603 0.30826 0.83855
 H797 H 0.12677 0.33770 0.80860
 N798 N 0.16587 0.32453 0.86156
 N799 N 0.17494 0.33382 0.86165
 C800 C 0.18280 0.33201 0.87209
 C801 C 0.17851 0.32105 0.87897
 C802 C 0.16774 0.31657 0.87194
 H803 H 0.19100 0.33830 0.87452
 H804 H 0.16164 0.30817 0.87424
 H805 H 0.16704 0.33282 0.83810
 H806 H 0.15601 0.34360 0.84808
 N807 N 0.17456 0.86119 0.33478
 N808 N 0.16514 0.86135 0.32600
 C809 C 0.16703 0.87164 0.31790
 C810 C 0.17825 0.87833 0.32180
 C811 C 0.18275 0.87135 0.33257
 H812 H 0.16065 0.87409 0.30981
 H813 H 0.19132 0.87347 0.33844
 Cu814 Cu 0.15127 0.84814 0.32610
 Cu815 Cu 0.17539 0.84807 0.34862
 Cu816 Cu 0.15104 0.82420 0.34885
 N817 N 0.13793 0.83441 0.32612
 N818 N 0.13791 0.82509 0.33504
 C819 C 0.12767 0.81699 0.33290
 C820 C 0.12084 0.82144 0.32202
 C821 C 0.12770 0.83253 0.31798
 H822 H 0.12542 0.80851 0.33887
 H823 H 0.12541 0.83881 0.30976
 N824 N 0.16517 0.82496 0.36199
 N825 N 0.17449 0.83399 0.36185
 C826 C 0.18253 0.83200 0.37211
 C827 C 0.17808 0.82120 0.37912
 C828 C 0.16704 0.81699 0.37236
 H829 H 0.19097 0.83806 0.37433
 H830 H 0.16073 0.80880 0.37483
 H831 H 0.16576 0.83348 0.33832
 H832 H 0.15549 0.84409 0.34923
 C833 C 0.24493 1.04118 0.25461
 C834 C 0.25482 1.04122 0.24549
 C835 C 0.25766 1.02816 0.24273
 N836 N 0.24986 1.02017 0.24994
 C837 C 0.24208 1.02808 0.25723
 C838 C 0.26711 1.02396 0.23344
 C839 C 0.26985 1.01062 0.23038
 C840 C 0.27760 1.00665 0.21992
 C841 C 0.27766 0.99312 0.21994
 C842 C 0.26993 0.98912 0.23041
 N843 N 0.26539 0.99986 0.23686
 C844 C 0.26728 0.97577 0.23349
 C845 C 0.25780 0.97148 0.24272
 C846 C 0.25498 0.95838 0.24537
 C847 C 0.24502 0.95834 0.25440
 C848 C 0.24212 0.97141 0.25710
 N849 N 0.24993 0.97940 0.24992
 C850 C 0.23265 0.97561 0.26637
 C851 C 0.22992 0.98895 0.26947
 C852 C 0.22222 0.99290 0.27996
 C853 C 0.22224 1.00643 0.28002
 C854 C 0.22995 1.01045 0.26955
 N855 N 0.23440 0.99972 0.26302
 C856 C 0.23268 1.02380 0.26654
 H857 H 0.24043 1.04984 0.25887
 H858 H 0.25935 1.04992 0.24135
 H859 H 0.23941 0.99975 0.25420
 H860 H 0.28254 1.01285 0.21284
 H861 H 0.28264 0.98694 0.21288
 H862 H 0.25955 0.94972 0.24119
 H863 H 0.24049 0.94964 0.25854
 H864 H 0.21732 1.01259 0.28714
 H865 H 0.26037 0.99983 0.24567
 H866 H 0.21728 0.98669 0.28704
 C867 C 0.25516 0.54155 0.74564
 C868 C 0.24511 0.54157 0.75458
 C869 C 0.24202 0.52849 0.75702
 N870 N 0.24985 0.52053 0.74982
 C871 C 0.25788 0.52847 0.74283
 C872 C 0.23236 0.52426 0.76607
 C873 C 0.22942 0.51092 0.76899
 C874 C 0.22128 0.50696 0.77916
 C875 C 0.22124 0.49343 0.77916
 C876 C 0.22934 0.48941 0.76898
 N877 N 0.23408 0.50016 0.76267
 C878 C 0.23215 0.47605 0.76601
 C879 C 0.24170 0.47181 0.75684
 C880 C 0.24441 0.45873 0.75400
 C881 C 0.25447 0.45871 0.74507
 C882 C 0.25758 0.47179 0.74265
 N883 N 0.24975 0.47974 0.74986
 C884 C 0.26728 0.47602 0.73364
 C885 C 0.27022 0.48936 0.73072
 C886 C 0.27841 0.49332 0.72059
 C887 C 0.27843 0.50685 0.72058
 C888 C 0.27028 0.51086 0.73072
 N889 N 0.26551 0.50012 0.73700
 C890 C 0.26745 0.52422 0.73368
 H891 H 0.25989 0.55022 0.74167
 H892 H 0.24066 0.55025 0.75885
 H893 H 0.26008 0.50012 0.74556
 H894 H 0.21606 0.51316 0.78603
 H895 H 0.21599 0.48726 0.78603
 H896 H 0.23966 0.45005 0.75795
 H897 H 0.25891 0.45004 0.74078
 H898 H 0.28373 0.51302 0.71374
 H899 H 0.23945 0.50015 0.75407
 H900 H 0.28368 0.48712 0.71376
 C901 C 0.75951 -0.04075 0.25014
 C902 C 0.74998 -0.04073 0.24065
 C903 C 0.74458 -0.02818 0.24055
 N904 N 0.75046 -0.02056 0.24966
 C905 C 0.75961 -0.02822 0.25551
 C906 C 0.73379 -0.02426 0.23277
 C907 C 0.72962 -0.01103 0.23155
 C908 C 0.71771 -0.00708 0.22623
 C909 C 0.71770 0.00647 0.22621
 C910 C 0.72961 0.01042 0.23153
 N911 N 0.73684 -0.00030 0.23469
 C912 C 0.73376 0.02365 0.23272
 C913 C 0.74456 0.02756 0.24049
 C914 C 0.74996 0.04009 0.24059
 C915 C 0.75952 0.04007 0.25003
 C916 C 0.75965 0.02753 0.25540
 N917 N 0.75047 0.01990 0.24958
 C918 C 0.76752 0.02361 0.26610
 C919 C 0.76876 0.01038 0.27025
 C920 C 0.77412 0.00644 0.28209
 C921 C 0.77409 -0.00711 0.28213
 C922 C 0.76871 -0.01108 0.27031
 N923 N 0.76557 -0.00036 0.26310
 C924 C 0.76744 -0.02432 0.26624
 H925 H 0.76559 -0.04907 0.25283
 H926 H 0.74729 -0.04903 0.23459
 H927 H 0.76274 -0.00037 0.25333
 H928 H 0.70986 -0.01330 0.22266
 H929 H 0.70983 0.01271 0.22265
 H930 H 0.74724 0.04841 0.23454
 H931 H 0.76563 0.04838 0.25270
 H932 H 0.77765 -0.01333 0.28997
 H933 H 0.74667 -0.00031 0.23749
 H934 H 0.77772 0.01267 0.28988
 C935 C 0.74498 0.45841 0.74528
 C936 C 0.75411 0.45840 0.75513
 C937 C 0.75699 0.47148 0.75779
 N938 N 0.74984 0.47944 0.74993
 C939 C 0.74248 0.47150 0.74227
 C940 C 0.76639 0.47570 0.76709
 C941 C 0.76951 0.48904 0.76977
 C942 C 0.78002 0.49300 0.77747
 C943 C 0.78002 0.50653 0.77749
 C944 C 0.76952 0.51054 0.76979
 N945 N 0.76302 0.49980 0.76532
 C946 C 0.76645 0.52389 0.76709
 C947 C 0.75719 0.52815 0.75766
 C948 C 0.75460 0.54123 0.75473
 C949 C 0.74549 0.54125 0.74488
 C950 C 0.74270 0.52817 0.74212
 N951 N 0.74990 0.52021 0.74993
 C952 C 0.73336 0.52395 0.73276
 C953 C 0.73029 0.51061 0.73001
 C954 C 0.71987 0.50665 0.72219
 C955 C 0.71986 0.49312 0.72218
 C956 C 0.73026 0.48911 0.73002
 N957 N 0.73672 0.49984 0.73455
 C958 C 0.73327 0.47576 0.73279
 H959 H 0.74063 0.44975 0.74091
 H960 H 0.75818 0.44972 0.75975
 H961 H 0.74550 0.49982 0.73967
 H962 H 0.78711 0.48680 0.78241
 H963 H 0.78711 0.51271 0.78245
 H964 H 0.75889 0.54990 0.75917
 H965 H 0.74137 0.54994 0.74031
 H966 H 0.71282 0.48694 0.71715
 H967 H 0.75416 0.49982 0.76033
 H968 H 0.71284 0.51285 0.71717
 C969 C 0.24966 0.45963 0.24078
 C970 C 0.25900 0.45959 0.25044
 C971 C 0.25908 0.47214 0.25576
 N972 N 0.25004 0.47981 0.24973
 C973 C 0.24427 0.47218 0.24055
 C974 C 0.26683 0.47605 0.26655
 C975 C 0.26815 0.48930 0.27059
 C976 C 0.27353 0.49327 0.28240
 C977 C 0.27366 0.50682 0.28231
 C978 C 0.26836 0.51075 0.27043
 N979 N 0.26511 0.50001 0.26332
 C980 C 0.26726 0.52397 0.26622
 C981 C 0.25961 0.52790 0.25537
 C982 C 0.25962 0.54044 0.25000
 C983 C 0.25026 0.54047 0.24036
 C984 C 0.24483 0.52795 0.24016
 N985 N 0.25054 0.52029 0.24936
 C986 C 0.23413 0.52410 0.23224
 C987 C 0.22990 0.51089 0.23097
 C988 C 0.21803 0.50704 0.22551
 C989 C 0.21785 0.49349 0.22566
 C990 C 0.22964 0.48941 0.23117
 N991 N 0.23696 0.50008 0.23430
 C992 C 0.23359 0.47611 0.23259
 H993 H 0.24709 0.45132 0.23467
 H994 H 0.26502 0.45126 0.25326
 H995 H 0.24674 0.49998 0.23727
 H996 H 0.27706 0.48705 0.29026
 H997 H 0.27729 0.51307 0.29008
 H998 H 0.26567 0.54874 0.25280
 H999 H 0.24767 0.54880 0.23426
 H1000 H 0.20993 0.48735 0.22209
 H1001 H 0.26234 0.49996 0.25354
 H1002 H 0.21029 0.51334 0.22178
 C1003 C 0.75927 1.04065 0.75003
 C1004 C 0.74982 1.04067 0.75960
 C1005 C 0.74442 1.02813 0.75978
 N1006 N 0.75023 1.02048 0.75064
 C1007 C 0.75934 1.02810 0.74468
 C1008 C 0.73367 1.02425 0.76766
 C1009 C 0.72946 1.01104 0.76890
 C1010 C 0.71756 1.00716 0.77431
 C1011 C 0.71743 0.99361 0.77418
 C1012 C 0.72927 0.98957 0.76874
 N1013 N 0.73658 1.00026 0.76562
 C1014 C 0.73329 0.97629 0.76739
 C1015 C 0.74402 0.97237 0.75948
 C1016 C 0.74945 0.95983 0.75931
 C1017 C 0.75885 0.95981 0.74969
 C1018 C 0.75892 0.97236 0.74435
 N1019 N 0.74983 0.98001 0.75032
 C1020 C 0.76672 0.97629 0.73360
 C1021 C 0.76803 0.98953 0.72954
 C1022 C 0.77349 0.99351 0.71774
 C1023 C 0.77360 1.00705 0.71783
 C1024 C 0.76822 1.01097 0.72968
 N1025 N 0.76493 1.00023 0.73679
 C1026 C 0.76710 1.02418 0.73390
 H1027 H 0.76534 1.04895 0.74726
 H1028 H 0.74715 1.04900 0.76566
 H1029 H 0.76210 1.00017 0.74655
 H1030 H 0.70978 1.01344 0.77799
 H1031 H 0.70951 0.98745 0.77773
 H1032 H 0.74686 0.95152 0.76543
 H1033 H 0.76490 0.95149 0.74691
 H1034 H 0.77729 1.01330 0.71008
 H1035 H 0.74638 1.00018 0.76272
 H1036 H 0.77708 0.98729 0.70991
 C1037 C 0.74516 0.45872 0.25481
 C1038 C 0.75505 0.45872 0.24571
 C1039 C 0.75786 0.47180 0.24298
 N1040 N 0.75005 0.47976 0.25020
 C1041 C 0.74228 0.47181 0.25747
 C1042 C 0.76726 0.47603 0.23366
 C1043 C 0.76996 0.48937 0.23054
 C1044 C 0.77767 0.49333 0.22005
 C1045 C 0.77766 0.50685 0.22002
 C1046 C 0.76995 0.51086 0.23049
 N1047 N 0.76548 0.50013 0.23699
 C1048 C 0.76724 0.52421 0.23353
 C1049 C 0.75781 0.52847 0.24281
 C1050 C 0.75495 0.54156 0.24547
 C1051 C 0.74508 0.54157 0.25460
 C1052 C 0.74227 0.52848 0.25734
 N1053 N 0.75005 0.52052 0.25010
 C1054 C 0.73289 0.52426 0.26669
 C1055 C 0.73017 0.51091 0.26978
 C1056 C 0.72247 0.50695 0.28027
 C1057 C 0.72244 0.49342 0.28028
 C1058 C 0.73014 0.48941 0.26980
 N1059 N 0.73462 0.50015 0.26330
 C1060 C 0.73285 0.47605 0.26676
 H1061 H 0.74067 0.45004 0.25904
 H1062 H 0.75960 0.45004 0.24154
 H1063 H 0.73962 0.50014 0.25448
 H1064 H 0.78262 0.48712 0.21298
 H1065 H 0.78260 0.51303 0.21291
 H1066 H 0.75944 0.55023 0.24123
 H1067 H 0.74056 0.55025 0.25879
 H1068 H 0.71750 0.48725 0.28738
 H1069 H 0.76047 0.50014 0.24582
 H1070 H 0.71755 0.51315 0.28736
 C1071 C 0.24988 -0.04073 0.74063
 C1072 C 0.25931 -0.04076 0.75021
 C1073 C 0.25937 -0.02824 0.75558
 N1074 N 0.25025 -0.02058 0.74967
 C1075 C 0.24444 -0.02820 0.74051
 C1076 C 0.26719 -0.02434 0.76631
 C1077 C 0.26847 -0.01113 0.77045
 C1078 C 0.27394 -0.00721 0.78224
 C1079 C 0.27402 0.00634 0.78224
 C1080 C 0.26861 0.01032 0.77043
 N1081 N 0.26533 -0.00038 0.76328
 C1082 C 0.26744 0.02357 0.76630
 C1083 C 0.25966 0.02753 0.75555
 C1084 C 0.25957 0.04009 0.75024
 C1085 C 0.25014 0.04012 0.74067
 C1086 C 0.24477 0.02758 0.74044
 N1087 N 0.25059 0.01990 0.74957
 C1088 C 0.23404 0.02371 0.73256
 C1089 C 0.22985 0.01049 0.73127
 C1090 C 0.21795 0.00663 0.72587
 C1091 C 0.21782 -0.00692 0.72594
 C1092 C 0.22967 -0.01098 0.73133
 N1093 N 0.23697 -0.00030 0.73449
 C1094 C 0.23369 -0.02427 0.73264
 H1095 H 0.24730 -0.04902 0.73450
 H1096 H 0.26538 -0.04909 0.75294
 H1097 H 0.24677 -0.00037 0.73737
 H1098 H 0.27756 -0.01347 0.79003
 H1099 H 0.27771 0.01254 0.79002
 H1100 H 0.26560 0.04841 0.75304
 H1101 H 0.24747 0.04847 0.73464
 H1102 H 0.20991 -0.01307 0.72239
 H1103 H 0.26247 -0.00038 0.75353
 H1104 H 0.21016 0.01292 0.72224
 C1105 C 0.24601 0.25524 1.04119
 C1106 C 0.25512 0.24529 1.04118
 C1107 C 0.25773 0.24234 1.02819
 N1108 N 0.25044 0.25015 1.02031
 C1109 C 0.24325 0.25804 1.02820
 C1110 C 0.26692 0.23275 1.02396
 C1111 C 0.26978 0.22978 1.01071
 C1112 C 0.27997 0.22160 1.00672
 C1113 C 0.27986 0.22150 0.99329
 C1114 C 0.26961 0.22962 0.98936
 N1115 N 0.26336 0.23442 1.00006
 C1116 C 0.26655 0.23241 0.97612
 C1117 C 0.25738 0.24202 0.97191
 C1118 C 0.25471 0.24492 0.95893
 C1119 C 0.24568 0.25495 0.95894
 C1120 C 0.24305 0.25787 0.97193
 N1121 N 0.25023 0.24995 0.97981
 C1122 C 0.23387 0.26747 0.97615
 C1123 C 0.23090 0.27033 0.98940
 C1124 C 0.22062 0.27839 0.99337
 C1125 C 0.22063 0.27840 1.00680
 C1126 C 0.23093 0.27036 1.01075
 N1127 N 0.23730 0.26568 1.00007
 C1128 C 0.23394 0.26753 1.02399
 H1129 H 0.24187 0.25984 1.04981
 H1130 H 0.25936 0.24077 1.04980
 H1131 H 0.24599 0.26037 1.00005
 H1132 H 0.28692 0.21639 1.01284
 H1133 H 0.28671 0.21618 0.98713
 H1134 H 0.25887 0.24033 0.95031
 H1135 H 0.24150 0.25952 0.95033
 H1136 H 0.21369 0.28361 1.01294
 H1137 H 0.25473 0.23983 1.00009
 H1138 H 0.21366 0.28358 0.98724
 C1139 C 0.24948 0.75903 0.53993
 C1140 C 0.25920 0.74966 0.53991
 C1141 C 0.25947 0.74431 0.52743
 N1142 N 0.25026 0.75013 0.51984
 C1143 C 0.24417 0.75916 0.52745
 C1144 C 0.26752 0.73364 0.52353
 C1145 C 0.26890 0.72963 0.51035
 C1146 C 0.27445 0.71781 0.50635
 C1147 C 0.27451 0.71791 0.49290
 C1148 C 0.26898 0.72978 0.48904
 N1149 N 0.26567 0.73691 0.49973
 C1150 C 0.26764 0.73394 0.47591
 C1151 C 0.25966 0.74465 0.47204
 C1152 C 0.25938 0.74998 0.45956
 C1153 C 0.24972 0.75942 0.45958
 C1154 C 0.24441 0.75953 0.47207
 N1155 N 0.25047 0.75048 0.47966
 C1156 C 0.23355 0.76728 0.47598
 C1157 C 0.22936 0.76846 0.48912
 C1158 C 0.21744 0.77384 0.49303
 C1159 C 0.21738 0.77374 0.50648
 C1160 C 0.22925 0.76829 0.51041
 N1161 N 0.23653 0.76518 0.49977
 C1162 C 0.23334 0.76696 0.52355
 H1163 H 0.24662 0.76502 0.54820
 H1164 H 0.26531 0.74703 0.54817
 H1165 H 0.24635 0.76234 0.49979
 H1166 H 0.27810 0.70992 0.51248
 H1167 H 0.27824 0.71013 0.48669
 H1168 H 0.26544 0.74729 0.45127
 H1169 H 0.24687 0.76543 0.45131
 H1170 H 0.20950 0.77733 0.51266
 H1171 H 0.26268 0.74670 0.49978
 H1172 H 0.20962 0.77752 0.48684
 C1173 C 0.25977 0.75021 -0.04019
 C1174 C 0.25027 0.74063 -0.04022
 C1175 C 0.24485 0.74045 -0.02778
 N1176 N 0.25070 0.74960 -0.02016
 C1177 C 0.25984 0.75557 -0.02773
 C1178 C 0.23405 0.73257 -0.02394
 C1179 C 0.22983 0.73131 -0.01083
 C1180 C 0.21789 0.72594 -0.00697
 C1181 C 0.21779 0.72594 0.00648
 C1182 C 0.22967 0.73131 0.01047
 N1183 N 0.23698 0.73447 -0.00013
 C1184 C 0.23369 0.73258 0.02364
 C1185 C 0.24446 0.74041 0.02757
 C1186 C 0.24977 0.74053 0.04005
 C1187 C 0.25931 0.75007 0.04009
 C1188 C 0.25951 0.75546 0.02763
 N1189 N 0.25041 0.74956 0.02000
 C1190 C 0.26738 0.76625 0.02378
 C1191 C 0.26869 0.77043 0.01065
 C1192 C 0.27405 0.78237 0.00678
 C1193 C 0.27414 0.78240 -0.00667
 C1194 C 0.26882 0.77049 -0.01065
 N1195 N 0.26560 0.76321 -0.00003
 C1196 C 0.26762 0.76640 -0.02381
 H1197 H 0.26586 0.75298 -0.04843
 H1198 H 0.24759 0.73456 -0.04850
 H1199 H 0.26280 0.75337 -0.00005
 H1200 H 0.21007 0.72236 -0.01320
 H1201 H 0.20988 0.72236 0.01261
 H1202 H 0.24700 0.73444 0.04829
 H1203 H 0.26534 0.75278 0.04838
 H1204 H 0.27774 0.79030 -0.01282
 H1205 H 0.24680 0.73730 -0.00008
 H1206 H 0.27757 0.79023 0.01300
 C1207 C 0.25015 0.24037 0.46001
 C1208 C 0.25970 0.24990 0.46003
 C1209 C 0.25978 0.25529 0.47248
 N1210 N 0.25060 0.24940 0.48005
 C1211 C 0.24472 0.24025 0.47245
 C1212 C 0.26760 0.26609 0.47638
 C1213 C 0.26875 0.27029 0.48950
 C1214 C 0.27409 0.28223 0.49339
 C1215 C 0.27397 0.28230 0.50684
 C1216 C 0.26857 0.27040 0.51079
 N1217 N 0.26549 0.26311 0.50016
 C1218 C 0.26723 0.26632 0.52394
 C1219 C 0.25938 0.25553 0.52783
 C1220 C 0.25919 0.25017 0.54030
 C1221 C 0.24969 0.24059 0.54028
 C1222 C 0.24438 0.24041 0.52780
 N1223 N 0.25029 0.24957 0.52021
 C1224 C 0.23365 0.23251 0.52389
 C1225 C 0.22959 0.23123 0.51073
 C1226 C 0.21770 0.22585 0.50677
 C1227 C 0.21777 0.22583 0.49332
 C1228 C 0.22970 0.23119 0.48943
 N1229 N 0.23687 0.23438 0.50010
 C1230 C 0.23389 0.23243 0.47630
 H1231 H 0.24746 0.23429 0.45175
 H1232 H 0.26581 0.25262 0.45179
 H1233 H 0.24669 0.23721 0.50014
 H1234 H 0.27772 0.29007 0.48719
 H1235 H 0.27751 0.29020 0.51301
 H1236 H 0.26521 0.25293 0.54858
 H1237 H 0.24695 0.23452 0.54855
 H1238 H 0.20994 0.22223 0.48711
 H1239 H 0.26267 0.25327 0.50020
 H1240 H 0.20981 0.22228 0.51293
 C1241 C 0.74997 0.75962 1.04019
 C1242 C 0.75950 0.75006 1.04021
 C1243 C 0.75962 0.74463 1.02778
 N1244 N 0.75047 0.75053 1.02018
 C1245 C 0.74458 0.75972 1.02775
 C1246 C 0.76744 0.73379 1.02392
 C1247 C 0.76868 0.72960 1.01079
 C1248 C 0.77403 0.71765 1.00691
 C1249 C 0.77403 0.71760 0.99346
 C1250 C 0.76867 0.72952 0.98950
 N1251 N 0.76551 0.73681 1.00012
 C1252 C 0.76740 0.73361 0.97634
 C1253 C 0.75954 0.74440 0.97243
 C1254 C 0.75939 0.74973 0.95995
 C1255 C 0.74986 0.75930 0.95993
 C1256 C 0.74450 0.75950 0.97240
 N1257 N 0.75041 0.75036 0.98002
 C1258 C 0.73374 0.76741 0.97628
 C1259 C 0.72962 0.76872 0.98942
 C1260 C 0.71773 0.77416 0.99335
 C1261 C 0.71774 0.77420 1.00680
 C1262 C 0.72964 0.76879 1.01072
 N1263 N 0.73685 0.76556 1.00007
 C1264 C 0.73377 0.76756 1.02386
 H1265 H 0.74725 0.76573 1.04844
 H1266 H 0.76558 0.74734 1.04847
 H1267 H 0.74667 0.76269 1.00006
 H1268 H 0.77760 0.70979 1.01313
 H1269 H 0.77760 0.70970 0.98731
 H1270 H 0.76545 0.74697 0.95169
 H1271 H 0.74713 0.76536 0.95165
 H1272 H 0.70989 0.77784 1.01299
 H1273 H 0.76270 0.74665 1.00008
 H1274 H 0.70987 0.77776 0.98717
 C1275 C 0.75922 0.24979 0.45971
 C1276 C 0.74953 0.25920 0.45974
 C1277 C 0.74426 0.25933 0.47224
 N1278 N 0.75038 0.25031 0.47984
 C1279 C 0.75956 0.24449 0.47220
 C1280 C 0.73340 0.26707 0.47618
 C1281 C 0.72923 0.26822 0.48931
 C1282 C 0.71728 0.27351 0.49324
 C1283 C 0.71725 0.27345 0.50669
 C1284 C 0.72919 0.26812 0.51060
 N1285 N 0.73646 0.26504 0.49995
 C1286 C 0.73333 0.26689 0.52372
 C1287 C 0.74423 0.25920 0.52761
 C1288 C 0.74960 0.25917 0.54006
 C1289 C 0.75938 0.24985 0.54004
 C1290 C 0.75962 0.24444 0.52759
 N1291 N 0.75034 0.25016 0.52001
 C1292 C 0.76768 0.23377 0.52371
 C1293 C 0.76907 0.22971 0.51054
 C1294 C 0.77469 0.21791 0.50658
 C1295 C 0.77470 0.21795 0.49313
 C1296 C 0.76905 0.22975 0.48923
 N1297 N 0.76575 0.23691 0.49990
 C1298 C 0.76761 0.23383 0.47607
 H1299 H 0.76526 0.24710 0.45140
 H1300 H 0.74663 0.26518 0.45146
 H1301 H 0.76267 0.24667 0.49991
 H1302 H 0.70941 0.27710 0.48707
 H1303 H 0.70937 0.27700 0.51288
 H1304 H 0.74674 0.26519 0.54832
 H1305 H 0.76554 0.24730 0.54829
 H1306 H 0.77845 0.21016 0.48694
 H1307 H 0.74631 0.26230 0.49995
 H1308 H 0.77842 0.21008 0.51273
 C1309 C 0.75007 0.24049 -0.04014
 C1310 C 0.75957 0.25006 -0.04014
 C1311 C 0.75965 0.25547 -0.02770
 N1312 N 0.75050 0.24954 -0.02011
 C1313 C 0.74465 0.24036 -0.02770
 C1314 C 0.76743 0.26631 -0.02382
 C1315 C 0.76866 0.27045 -0.01069
 C1316 C 0.77400 0.28238 -0.00677
 C1317 C 0.77398 0.28238 0.00668
 C1318 C 0.76863 0.27046 0.01061
 N1319 N 0.76549 0.26321 -0.00003
 C1320 C 0.76736 0.26632 0.02375
 C1321 C 0.75952 0.25551 0.02763
 C1322 C 0.75940 0.25010 0.04008
 C1323 C 0.74986 0.24056 0.04008
 C1324 C 0.74448 0.24046 0.02763
 N1325 N 0.75038 0.24962 0.02004
 C1326 C 0.73368 0.23263 0.02376
 C1327 C 0.72960 0.23133 0.01061
 C1328 C 0.71772 0.22592 0.00667
 C1329 C 0.71777 0.22588 -0.00678
 C1330 C 0.72968 0.23126 -0.01070
 N1331 N 0.73686 0.23447 -0.00004
 C1332 C 0.73386 0.23249 -0.02383
 H1333 H 0.74739 0.23439 -0.04840
 H1334 H 0.76567 0.25280 -0.04839
 H1335 H 0.74668 0.23731 -0.00002
 H1336 H 0.77758 0.29026 -0.01296
 H1337 H 0.77754 0.29027 0.01286
 H1338 H 0.76548 0.25280 0.04833
 H1339 H 0.74715 0.23446 0.04833
 H1340 H 0.70994 0.22226 -0.01298
 H1341 H 0.76268 0.25337 -0.00002
 H1342 H 0.70984 0.22235 0.01285
 C1343 C 0.75941 0.75046 0.45983
 C1344 C 0.74988 0.74092 0.45983
 C1345 C 0.74450 0.74077 0.47229
 N1346 N 0.75040 0.74991 0.47989
 C1347 C 0.75955 0.75583 0.47229
 C1348 C 0.73370 0.73292 0.47618
 C1349 C 0.72955 0.73167 0.48932
 C1350 C 0.71764 0.72630 0.49325
 C1351 C 0.71762 0.72631 0.50670
 C1352 C 0.72951 0.73170 0.51063
 N1353 N 0.73675 0.73487 0.49998
 C1354 C 0.73363 0.73295 0.52377
 C1355 C 0.74441 0.74080 0.52765
 C1356 C 0.74981 0.74091 0.54009
 C1357 C 0.75934 0.75045 0.54009
 C1358 C 0.75947 0.75586 0.52764
 N1359 N 0.75031 0.74997 0.52006
 C1360 C 0.76732 0.76666 0.52376
 C1361 C 0.76860 0.77079 0.51061
 C1362 C 0.77398 0.78270 0.50667
 C1363 C 0.77399 0.78269 0.49322
 C1364 C 0.76862 0.77077 0.48931
 N1365 N 0.76544 0.76354 0.49997
 C1366 C 0.76738 0.76663 0.47617
 H1367 H 0.76548 0.75320 0.45157
 H1368 H 0.74716 0.73485 0.45157
 H1369 H 0.76261 0.75371 0.49998
 H1370 H 0.70980 0.72269 0.48706
 H1371 H 0.70974 0.72273 0.51288
 H1372 H 0.74710 0.73480 0.54834
 H1373 H 0.76544 0.75314 0.54833
 H1374 H 0.77758 0.79056 0.48703
 H1375 H 0.74657 0.73770 0.49998
 H1376 H 0.77755 0.79058 0.51285
 C1377 C 0.95855 0.24588 0.25530
 C1378 C 0.95854 0.25496 0.24539
 C1379 C 0.97160 0.25741 0.24232
 N1380 N 0.97955 0.25004 0.24999
 C1381 C 0.97161 0.24296 0.25793
 C1382 C 0.97584 0.26652 0.23270
 C1383 C 0.98917 0.26933 0.22972
 C1384 C 0.99319 0.27947 0.22153
 C1385 C 1.00670 0.27938 0.22148
 C1386 C 1.01065 0.26920 0.22964
 N1387 N 0.99990 0.26296 0.23442
 C1388 C 1.02397 0.26623 0.23253
 C1389 C 1.02820 0.25714 0.24216
 C1390 C 1.04127 0.25468 0.24522
 C1391 C 1.04127 0.24570 0.25522
 C1392 C 1.02820 0.24286 0.25793
 N1393 N 1.02026 0.24988 0.24994
 C1394 C 1.02397 0.23357 0.26736
 C1395 C 1.01064 0.23042 0.26997
 C1396 C 1.00665 0.21984 0.27759
 C1397 C 0.99314 0.21982 0.27754
 C1398 C 0.98917 0.23040 0.26990
 N1399 N 0.99991 0.23695 0.26551
 C1400 C 0.97584 0.23353 0.26723
 H1401 H 0.94988 0.24184 0.25997
 H1402 H 0.94987 0.25927 0.24100
 H1403 H 0.99991 0.24588 0.26061
 H1404 H 0.98703 0.28640 0.21631
 H1405 H 1.01290 0.28623 0.21620
 H1406 H 1.04994 0.25894 0.24076
 H1407 H 1.04993 0.24166 0.25989
 H1408 H 0.98696 0.21267 0.28242
 H1409 H 0.99988 0.25441 0.23991
 H1410 H 1.01284 0.21271 0.28252
 C1411 C 0.54133 0.25470 0.74546
 C1412 C 0.54132 0.24569 0.75544
 C1413 C 0.52826 0.24285 0.75814
 N1414 N 0.52032 0.24989 0.75016
 C1415 C 0.52826 0.25717 0.74240
 C1416 C 0.52402 0.23353 0.76754
 C1417 C 0.51070 0.23036 0.77015
 C1418 C 0.50673 0.21980 0.77780
 C1419 C 0.49322 0.21972 0.77770
 C1420 C 0.48923 0.23025 0.77001
 N1421 N 0.49996 0.23683 0.76563
 C1422 C 0.47591 0.23331 0.76727
 C1423 C 0.47167 0.24270 0.75794
 C1424 C 0.45860 0.24553 0.75523
 C1425 C 0.45859 0.25464 0.74535
 C1426 C 0.47166 0.25719 0.74236
 N1427 N 0.47960 0.24986 0.75007
 C1428 C 0.47589 0.26635 0.73279
 C1429 C 0.48922 0.26925 0.72988
 C1430 C 0.49322 0.27942 0.72173
 C1431 C 0.50674 0.27939 0.72171
 C1432 C 0.51071 0.26920 0.72986
 N1433 N 0.49996 0.26292 0.73460
 C1434 C 0.52403 0.26626 0.73277
 H1435 H 0.55000 0.25897 0.74101
 H1436 H 0.54998 0.24165 0.76010
 H1437 H 0.49996 0.25434 0.74006
 H1438 H 0.51292 0.21271 0.78278
 H1439 H 0.48705 0.21256 0.78260
 H1440 H 0.44993 0.24141 0.75982
 H1441 H 0.44991 0.25890 0.74090
 H1442 H 0.51293 0.28627 0.71646
 H1443 H 0.49994 0.24573 0.76068
 H1444 H 0.48706 0.28634 0.71650
 C1445 C 0.04117 0.24508 0.74539
 C1446 C 0.04116 0.25409 0.75536
 C1447 C 0.02809 0.25688 0.75813
 N1448 N 0.02016 0.24980 0.75021
 C1449 C 0.02810 0.24256 0.74241
 C1450 C 0.02386 0.26615 0.76759
 C1451 C 0.01053 0.26930 0.77025
 C1452 C 0.00656 0.27973 0.77808
 C1453 C -0.00695 0.27983 0.77799
 C1454 C -0.01095 0.26946 0.77011
 N1455 N -0.00022 0.26294 0.76562
 C1456 C -0.02428 0.26651 0.76728
 C1457 C -0.02851 0.25724 0.75784
 C1458 C -0.04158 0.25458 0.75499
 C1459 C -0.04158 0.24546 0.74512
 C1460 C -0.02851 0.24274 0.74228
 N1461 N -0.02057 0.24998 0.75006
 C1462 C -0.02427 0.23344 0.73285
 C1463 C -0.01093 0.23045 0.73002
 C1464 C -0.00693 0.22013 0.72206
 C1465 C 0.00658 0.22014 0.72204
 C1466 C 0.01054 0.23046 0.73000
 N1467 N -0.00020 0.23685 0.73463
 C1468 C 0.02387 0.23343 0.73283
 H1469 H 0.04984 0.24083 0.74091
 H1470 H 0.04982 0.25817 0.75998
 H1471 H -0.00020 0.24555 0.73988
 H1472 H 0.01275 0.28671 0.78318
 H1473 H -0.01313 0.28691 0.78300
 H1474 H -0.05025 0.25878 0.75950
 H1475 H -0.05024 0.24129 0.74060
 H1476 H 0.01277 0.21316 0.71691
 H1477 H -0.00024 0.25416 0.76048
 H1478 H -0.01310 0.21315 0.71695
 C1479 C 0.54150 0.25505 0.25441
 C1480 C 0.54152 0.24512 0.24534
 C1481 C 0.52846 0.24216 0.24276
 N1482 N 0.52051 0.24995 0.25001
 C1483 C 0.52842 0.25784 0.25716
 C1484 C 0.52424 0.23259 0.23361
 C1485 C 0.51091 0.22966 0.23074
 C1486 C 0.50693 0.22149 0.22062
 C1487 C 0.49342 0.22146 0.22067
 C1488 C 0.48944 0.22962 0.23081
 N1489 N 0.50018 0.23436 0.23707
 C1490 C 0.47612 0.23250 0.23377
 C1491 C 0.47185 0.24211 0.24287
 C1492 C 0.45878 0.24511 0.24538
 C1493 C 0.45875 0.25511 0.25438
 C1494 C 0.47181 0.25790 0.25714
 N1495 N 0.47977 0.24994 0.25008
 C1496 C 0.47602 0.26741 0.26634
 C1497 C 0.48934 0.27017 0.26938
 C1498 C 0.49331 0.27814 0.27967
 C1499 C 0.50682 0.27810 0.27969
 C1500 C 0.51083 0.27013 0.26941
 N1501 N 0.50010 0.26554 0.26303
 C1502 C 0.52416 0.26732 0.26641
 H1503 H 0.55016 0.25964 0.25853
 H1504 H 0.55020 0.24063 0.24111
 H1505 H 0.50012 0.26033 0.25433
 H1506 H 0.51311 0.21625 0.21374
 H1507 H 0.48724 0.21617 0.21385
 H1508 H 0.45012 0.24063 0.24113
 H1509 H 0.45007 0.25974 0.25845
 H1510 H 0.51299 0.28324 0.28663
 H1511 H 0.50017 0.23978 0.24563
 H1512 H 0.48711 0.28330 0.28658
 C1513 C 0.95843 0.74605 0.75514
 C1514 C 0.95846 0.75522 0.74532
 C1515 C 0.97153 0.75772 0.74232
 N1516 N 0.97944 0.75029 0.74996
 C1517 C 0.97149 0.74313 0.75781
 C1518 C 0.97579 0.76692 0.73279
 C1519 C 0.98914 0.76975 0.72986
 C1520 C 0.99318 0.77989 0.72168
 C1521 C 1.00669 0.77979 0.72165
 C1522 C 1.01063 0.76962 0.72983
 N1523 N 0.99986 0.76339 0.73459
 C1524 C 1.02394 0.76664 0.73276
 C1525 C 1.02814 0.75757 0.74242
 C1526 C 1.04119 0.75516 0.74558
 C1527 C 1.04115 0.74615 0.75555
 C1528 C 1.02808 0.74323 0.75815
 N1529 N 1.02018 0.75024 0.75012
 C1530 C 1.02382 0.73388 0.76750
 C1531 C 1.01049 0.73065 0.77000
 C1532 C 1.00649 0.72002 0.77755
 C1533 C 0.99298 0.71995 0.77742
 C1534 C 0.98902 0.73055 0.76980
 N1535 N 0.99976 0.73715 0.76550
 C1536 C 0.97569 0.73367 0.76710
 H1537 H 0.94975 0.74195 0.75974
 H1538 H 0.94980 0.75956 0.74092
 H1539 H 0.99976 0.74611 0.76064
 H1540 H 0.98704 0.78681 0.71643
 H1541 H 1.01291 0.78664 0.71639
 H1542 H 1.04988 0.75949 0.74121
 H1543 H 1.04980 0.74214 0.76028
 H1544 H 0.98679 0.71277 0.78225
 H1545 H 0.99983 0.75485 0.74010
 H1546 H 1.01267 0.71290 0.78250
 C1547 C 0.45850 0.74511 0.25410
 C1548 C 0.45855 0.75511 0.24511
 C1549 C 0.47164 0.75796 0.24249
 N1550 N 0.47954 0.75008 0.24969
 C1551 C 0.47156 0.74223 0.25683
 C1552 C 0.47592 0.76746 0.23329
 C1553 C 0.48926 0.77010 0.23023
 C1554 C 0.49328 0.77779 0.21974
 C1555 C 0.50679 0.77769 0.21972
 C1556 C 0.51072 0.76995 0.23021
 N1557 N 0.49996 0.76556 0.23670
 C1558 C 0.52402 0.76719 0.23329
 C1559 C 0.52822 0.75779 0.24263
 C1560 C 0.54127 0.75497 0.24541
 C1561 C 0.54122 0.74513 0.25458
 C1562 C 0.52814 0.74228 0.25720
 N1563 N 0.52024 0.75003 0.24986
 C1564 C 0.52385 0.73289 0.26651
 C1565 C 0.51051 0.73014 0.26946
 C1566 C 0.50646 0.72242 0.27992
 C1567 C 0.49295 0.72236 0.27979
 C1568 C 0.48904 0.73006 0.26927
 N1569 N 0.49982 0.73456 0.26288
 C1570 C 0.47574 0.73275 0.26610
 H1571 H 0.44981 0.74056 0.25822
 H1572 H 0.44991 0.75968 0.24092
 H1573 H 0.49988 0.73956 0.25405
 H1574 H 0.48713 0.78277 0.21265
 H1575 H 0.51300 0.78258 0.21262
 H1576 H 0.54996 0.75948 0.24124
 H1577 H 0.54987 0.74066 0.25887
 H1578 H 0.48672 0.71741 0.28683
 H1579 H 0.49992 0.76057 0.24554
 H1580 H 0.51259 0.71752 0.28708
 C1581 C -0.04048 0.74994 0.24085
 C1582 C -0.04050 0.75928 0.25052
 C1583 C -0.02797 0.75931 0.25585
 N1584 N -0.02032 0.75025 0.24983
 C1585 C -0.02795 0.74451 0.24063
 C1586 C -0.02405 0.76705 0.26664
 C1587 C -0.01083 0.76834 0.27070
 C1588 C -0.00687 0.77369 0.28253
 C1589 C 0.00666 0.77381 0.28243
 C1590 C 0.01059 0.76855 0.27053
 N1591 N -0.00014 0.76532 0.26341
 C1592 C 0.02378 0.76745 0.26631
 C1593 C 0.02770 0.75980 0.25545
 C1594 C 0.04023 0.75978 0.25008
 C1595 C 0.04024 0.75040 0.24045
 C1596 C 0.02772 0.74500 0.24025
 N1597 N 0.02008 0.75074 0.24944
 C1598 C 0.02386 0.73426 0.23236
 C1599 C 0.01067 0.73004 0.23112
 C1600 C 0.00682 0.71813 0.22571
 C1601 C -0.00671 0.71797 0.22584
 C1602 C -0.01076 0.72981 0.23129
 N1603 N -0.00010 0.73714 0.23442
 C1604 C -0.02403 0.73381 0.23267
 H1605 H -0.04877 0.74739 0.23472
 H1606 H -0.04881 0.76532 0.25334
 H1607 H -0.00019 0.74695 0.23733
 H1608 H -0.01308 0.77720 0.29040
 H1609 H 0.01290 0.77743 0.29021
 H1610 H 0.04853 0.76581 0.25290
 H1611 H 0.04856 0.74777 0.23437
 H1612 H -0.01285 0.71004 0.22230
 H1613 H -0.00019 0.76258 0.25362
 H1614 H 0.01311 0.71036 0.22202
 C1615 C 0.45844 0.74529 0.74579
 C1616 C 0.45844 0.75447 0.75561
 C1617 C 0.47149 0.75745 0.75816
 N1618 N 0.47943 0.75033 0.75024
 C1619 C 0.47150 0.74286 0.74267
 C1620 C 0.47572 0.76695 0.76738
 C1621 C 0.48905 0.77009 0.77001
 C1622 C 0.49303 0.78067 0.77761
 C1623 C 0.50655 0.78062 0.77765
 C1624 C 0.51053 0.77001 0.77006
 N1625 N 0.49979 0.76350 0.76564
 C1626 C 0.52386 0.76678 0.76751
 C1627 C 0.52811 0.75734 0.75822
 C1628 C 0.54117 0.75431 0.75569
 C1629 C 0.54119 0.74523 0.74578
 C1630 C 0.52814 0.74292 0.74258
 N1631 N 0.52019 0.75035 0.75020
 C1632 C 0.52392 0.73389 0.73290
 C1633 C 0.51059 0.73103 0.72991
 C1634 C 0.50662 0.72104 0.72155
 C1635 C 0.49311 0.72098 0.72161
 C1636 C 0.48909 0.73095 0.73000
 N1637 N 0.49983 0.73718 0.73482
 C1638 C 0.47575 0.73373 0.73306
 H1639 H 0.44977 0.74092 0.74147
 H1640 H 0.44977 0.75853 0.76027
 H1641 H 0.49981 0.74556 0.74055
 H1642 H 0.48685 0.78782 0.78251
 H1643 H 0.51273 0.78772 0.78258
 H1644 H 0.54982 0.75827 0.76043
 H1645 H 0.54986 0.74081 0.74147
 H1646 H 0.48695 0.71419 0.71624
 H1647 H 0.49979 0.75455 0.76079
 H1648 H 0.51282 0.71431 0.71612
 C1649 C 0.41294 0.30420 0.30420
 C1650 C 0.40711 0.31538 0.29868
 C1651 C 0.39582 0.32085 0.30432
 C1652 C 0.39014 0.31519 0.31557
 C1653 C 0.39618 0.30399 0.32109
 C1654 C 0.40747 0.29855 0.31543
 C1655 C 0.42435 0.29837 0.29816
 C1656 C 0.43379 0.29335 0.29301
 C1657 C 0.44489 0.28719 0.28674
 C1658 C 0.45085 0.29317 0.27590
 C1659 C 0.46122 0.28687 0.26943
 C1660 C 0.46567 0.27453 0.27375
 C1661 C 0.45982 0.26865 0.28473
 C1662 C 0.44946 0.27497 0.29120
 H1663 H 0.41125 0.31984 0.28997
 H1664 H 0.39156 0.32947 0.29977
 H1665 H 0.39219 0.29932 0.32973
 H1666 H 0.41190 0.28987 0.31978
 H1667 H 0.44736 0.30260 0.27234
 H1668 H 0.46563 0.29146 0.26092
 H1669 H 0.46314 0.25910 0.28812
 H1670 H 0.44490 0.27024 0.29955
 C1671 C 0.41277 0.80508 0.80417
 C1672 C 0.40680 0.81609 0.79848
 C1673 C 0.39552 0.82160 0.80411
 C1674 C 0.38996 0.81618 0.81558
 C1675 C 0.39619 0.80511 0.82124
 C1676 C 0.40747 0.79964 0.81557
 C1677 C 0.42417 0.79919 0.79817
 C1678 C 0.43360 0.79408 0.79309
 C1679 C 0.44469 0.78778 0.78693
 C1680 C 0.44854 0.79153 0.77430
 C1681 C 0.45886 0.78494 0.76804
 C1682 C 0.46539 0.77454 0.77435
 C1683 C 0.46167 0.77097 0.78708
 C1684 C 0.45134 0.77756 0.79334
 H1685 H 0.41082 0.82038 0.78963
 H1686 H 0.39122 0.83008 0.79934
 H1687 H 0.39244 0.80053 0.83002
 H1688 H 0.41200 0.79110 0.82005
 H1689 H 0.44345 0.79940 0.76924
 H1690 H 0.46163 0.78777 0.75820
 H1691 H 0.46661 0.76293 0.79204
 H1692 H 0.44842 0.77456 0.80308
 C1693 C -0.08705 0.30452 0.80432
 C1694 C -0.09249 0.29898 0.81562
 C1695 C -0.10378 0.30447 0.82123
 C1696 C -0.10984 0.31560 0.81559
 C1697 C -0.10422 0.32112 0.80425
 C1698 C -0.09292 0.31560 0.79866
 C1699 C -0.07565 0.29862 0.79837
 C1700 C -0.06622 0.29353 0.79329
 C1701 C -0.05516 0.28727 0.78706
 C1702 C -0.04839 0.27712 0.79346
 C1703 C -0.03812 0.27054 0.78711
 C1704 C -0.03458 0.27405 0.77432
 C1705 C -0.04121 0.28440 0.76803
 C1706 C -0.05148 0.29097 0.77438
 H1707 H -0.08805 0.29037 0.82007
 H1708 H -0.10774 0.29990 0.82993
 H1709 H -0.10851 0.32966 0.79959
 H1710 H -0.08881 0.31995 0.78988
 H1711 H -0.05118 0.27416 0.80326
 H1712 H -0.03308 0.26255 0.79206
 H1713 H -0.03858 0.28720 0.75815
 H1714 H -0.05667 0.29880 0.76934
 C1715 C -0.08666 0.80432 0.30468
 C1716 C -0.09240 0.81547 0.29900
 C1717 C -0.10364 0.82111 0.30458
 C1718 C -0.10931 0.81567 0.31593
 C1719 C -0.10339 0.80448 0.32158
 C1720 C -0.09216 0.79886 0.31598
 C1721 C -0.07532 0.79829 0.29875
 C1722 C -0.06595 0.79307 0.29371
 C1723 C -0.05497 0.78664 0.28752
 C1724 C -0.04579 0.79400 0.28038
 C1725 C -0.03552 0.78765 0.27380
 C1726 C -0.03442 0.77387 0.27428
 C1727 C -0.04349 0.76655 0.28165
 C1728 C -0.05372 0.77292 0.28825
 H1729 H -0.08824 0.81976 0.29022
 H1730 H -0.10785 0.82969 0.29991
 H1731 H -0.10737 0.79998 0.33030
 H1732 H -0.08781 0.79020 0.32044
 H1733 H -0.04668 0.80462 0.27974
 H1734 H -0.02859 0.79340 0.26814
 H1735 H -0.04272 0.75592 0.28213
 H1736 H -0.06077 0.76713 0.29376
 C1737 C 0.58667 0.69597 0.30447
 C1738 C 0.59248 0.70190 0.31536
 C1739 C 0.60372 0.69637 0.32102
 C1740 C 0.60935 0.68480 0.31584
 C1741 C 0.60338 0.67892 0.30487
 C1742 C 0.59213 0.68447 0.29924
 C1743 C 0.57527 0.70186 0.29851
 C1744 C 0.56583 0.70691 0.29342
 C1745 C 0.55475 0.71312 0.28720
 C1746 C 0.55085 0.72580 0.29099
 C1747 C 0.54056 0.73214 0.28445
 C1748 C 0.53412 0.72583 0.27407
 C1749 C 0.53785 0.71303 0.27047
 C1750 C 0.54815 0.70670 0.27701
 H1751 H 0.58835 0.71084 0.31947
 H1752 H 0.60796 0.70125 0.32940
 H1753 H 0.60734 0.67003 0.30058
 H1754 H 0.58773 0.67982 0.29078
 H1755 H 0.55591 0.73085 0.29884
 H1756 H 0.53777 0.74203 0.28730
 H1757 H 0.53296 0.70809 0.26246
 H1758 H 0.55110 0.69691 0.27399
 C1759 C 0.58688 0.19569 0.80455
 C1760 C 0.59239 0.18424 0.79925
 C1761 C 0.60367 0.17870 0.80482
 C1762 C 0.60965 0.18456 0.81580
 C1763 C 0.60397 0.19606 0.82107
 C1764 C 0.59269 0.20157 0.81548
 C1765 C 0.57546 0.20158 0.79863
 C1766 C 0.56602 0.20666 0.79358
 C1767 C 0.55495 0.21291 0.78738
 C1768 C 0.55093 0.20884 0.77493
 C1769 C 0.54065 0.21538 0.76857
 C1770 C 0.53433 0.22605 0.77463
 C1771 C 0.53820 0.22996 0.78721
 C1772 C 0.54849 0.22341 0.79356
 H1773 H 0.58799 0.17962 0.79076
 H1774 H 0.60767 0.16987 0.80045
 H1775 H 0.60820 0.20090 0.82948
 H1776 H 0.58853 0.21046 0.81965
 H1777 H 0.55586 0.20075 0.77006
 H1778 H 0.53775 0.21230 0.75885
 H1779 H 0.53341 0.23820 0.79197
 H1780 H 0.55154 0.22666 0.80318
 C1781 C 1.08662 0.69614 0.80480
 C1782 C 1.09242 0.68503 0.79912
 C1783 C 1.10371 0.67945 0.80466
 C1784 C 1.10938 0.68492 0.81599
 C1785 C 1.10338 0.69607 0.82165
 C1786 C 1.09210 0.70162 0.81609
 C1787 C 1.07522 0.70210 0.79889
 C1788 C 1.06580 0.70721 0.79381
 C1789 C 1.05474 0.71344 0.78754
 C1790 C 1.05082 0.70934 0.77507
 C1791 C 1.04054 0.71581 0.76865
 C1792 C 1.03411 0.72644 0.77467
 C1793 C 1.03789 0.73038 0.78726
 C1794 C 1.04819 0.72391 0.79367
 H1795 H 1.08827 0.68072 0.79036
 H1796 H 1.10797 0.67091 0.79997
 H1797 H 1.10735 0.70059 0.83036
 H1798 H 1.08770 0.71024 0.82056
 H1799 H 1.05584 0.70128 0.77023
 H1800 H 1.03773 0.71271 0.75891
 H1801 H 1.03303 0.73861 0.79198
 H1802 H 1.05117 0.72718 0.80331
 C1803 C 1.08691 0.19601 0.30459
 C1804 C 1.09243 0.18459 0.29925
 C1805 C 1.10369 0.17901 0.30484
 C1806 C 1.10962 0.18478 0.31588
 C1807 C 1.10393 0.19627 0.32118
 C1808 C 1.09268 0.20182 0.31557
 C1809 C 1.07550 0.20192 0.29865
 C1810 C 1.06606 0.20698 0.29357
 C1811 C 1.05497 0.21316 0.28732
 C1812 C 1.05103 0.20906 0.27485
 C1813 C 1.04072 0.21552 0.26846
 C1814 C 1.03429 0.22614 0.27450
 C1815 C 1.03809 0.23007 0.28709
 C1816 C 1.04841 0.22361 0.29348
 H1817 H 1.08807 0.18002 0.29072
 H1818 H 1.10770 0.17019 0.30044
 H1819 H 1.10814 0.20106 0.32964
 H1820 H 1.08851 0.21069 0.31977
 H1821 H 1.05605 0.20102 0.27000
 H1822 H 1.03789 0.21242 0.25873
 H1823 H 1.03322 0.23828 0.29183
 H1824 H 1.05141 0.22689 0.30310
 C1825 C 0.58691 0.30405 0.69578
 C1826 C 0.59236 0.31554 0.70103
 C1827 C 0.60367 0.32103 0.69546
 C1828 C 0.60972 0.31509 0.68455
 C1829 C 0.60409 0.30356 0.67933
 C1830 C 0.59278 0.29810 0.68492
 C1831 C 0.57549 0.29817 0.70171
 C1832 C 0.56606 0.29308 0.70676
 C1833 C 0.55498 0.28681 0.71294
 C1834 C 0.55061 0.29119 0.72518
 C1835 C 0.54032 0.28467 0.73153
 C1836 C 0.53435 0.27370 0.72567
 C1837 C 0.53859 0.26947 0.71331
 C1838 C 0.54889 0.27601 0.70696
 H1839 H 0.58790 0.32021 0.70947
 H1840 H 0.60763 0.32991 0.69976
 H1841 H 0.60840 0.29864 0.67100
 H1842 H 0.58867 0.28917 0.68080
 H1843 H 0.55527 0.29952 0.72989
 H1844 H 0.53714 0.28799 0.74108
 H1845 H 0.53408 0.26099 0.70871
 H1846 H 0.55222 0.27252 0.69751
 C1847 C 0.58675 0.80443 0.19556
 C1848 C 0.59275 0.79837 0.18482
 C1849 C 0.60406 0.80383 0.17926
 C1850 C 0.60957 0.81547 0.18438
 C1851 C 0.60339 0.82152 0.19516
 C1852 C 0.59207 0.81602 0.20070
 C1853 C 0.57534 0.79854 0.20149
 C1854 C 0.56592 0.79344 0.20655
 C1855 C 0.55488 0.78716 0.21275
 C1856 C 0.55107 0.77448 0.20889
 C1857 C 0.54082 0.76806 0.21541
 C1858 C 0.53435 0.77427 0.22585
 C1859 C 0.53800 0.78706 0.22952
 C1860 C 0.54825 0.79347 0.22300
 H1861 H 0.58873 0.78936 0.18079
 H1862 H 0.60849 0.79883 0.17104
 H1863 H 0.60723 0.83049 0.19936
 H1864 H 0.58750 0.82078 0.20903
 H1865 H 0.55613 0.76951 0.20097
 H1866 H 0.53807 0.75818 0.21248
 H1867 H 0.53306 0.79194 0.23756
 H1868 H 0.55114 0.80327 0.22607
 C1869 C 1.08681 0.30418 0.19570
 C1870 C 1.09228 0.29873 0.18437
 C1871 C 1.10357 0.30426 0.17883
 C1872 C 1.10960 0.31533 0.18455
 C1873 C 1.10397 0.32076 0.19594
 C1874 C 1.09266 0.31521 0.20146
 C1875 C 1.07539 0.29824 0.20155
 C1876 C 1.06595 0.29311 0.20655
 C1877 C 1.05488 0.28682 0.21269
 C1878 C 1.04881 0.27600 0.20672
 C1879 C 1.03853 0.26944 0.21307
 C1880 C 1.03428 0.27367 0.22543
 C1881 C 1.04021 0.28465 0.23128
 C1882 C 1.05048 0.29120 0.22493
 H1883 H 1.08784 0.29017 0.17985
 H1884 H 1.10751 0.29978 0.17008
 H1885 H 1.10827 0.32924 0.20067
 H1886 H 1.08852 0.31947 0.21026
 H1887 H 1.05215 0.27251 0.19727
 H1888 H 1.03403 0.26095 0.20848
 H1889 H 1.03702 0.28798 0.24083
 H1890 H 1.05513 0.29954 0.22964
 C1891 C 1.08689 0.80414 0.69556
 C1892 C 1.09275 0.81520 0.70124
 C1893 C 1.10400 0.82076 0.69562
 C1894 C 1.10957 0.81531 0.68421
 C1895 C 1.10353 0.80420 0.67857
 C1896 C 1.09229 0.79867 0.68422
 C1897 C 1.07550 0.79823 0.70152
 C1898 C 1.06608 0.79315 0.70660
 C1899 C 1.05500 0.78694 0.71283
 C1900 C 1.05057 0.79147 0.72500
 C1901 C 1.04025 0.78503 0.73138
 C1902 C 1.03429 0.77401 0.72562
 C1903 C 1.03858 0.76963 0.71333
 C1904 C 1.04892 0.77607 0.70695
 H1905 H 1.08867 0.81949 0.71006
 H1906 H 1.10831 0.82927 0.70030
 H1907 H 1.10742 0.79971 0.66981
 H1908 H 1.08784 0.79008 0.67975
 H1909 H 1.05523 0.79985 0.72963
 H1910 H 1.03704 0.78847 0.74088
 H1911 H 1.03408 0.76110 0.70882
 H1912 H 1.05229 0.77247 0.69756
 C1913 C 0.41300 0.69586 0.69595
 C1914 C 0.40727 0.70174 0.68497
 C1915 C 0.39598 0.69629 0.67936
 C1916 C 0.39023 0.68484 0.68465
 C1917 C 0.39615 0.67897 0.69566
 C1918 C 0.40744 0.68445 0.70126
 C1919 C 0.42440 0.70173 0.70192
 C1920 C 0.43382 0.70679 0.70702
 C1921 C 0.44487 0.71304 0.71325
 C1922 C 0.45161 0.72324 0.70689
 C1923 C 0.46187 0.72980 0.71325
 C1924 C 0.46544 0.72621 0.72602
 C1925 C 0.45886 0.71580 0.73225
 C1926 C 0.44859 0.70926 0.72590
 H1927 H 0.41147 0.71061 0.68079
 H1928 H 0.39179 0.70115 0.67093
 H1929 H 0.39210 0.67015 0.70002
 H1930 H 0.41179 0.67982 0.70977
 H1931 H 0.44881 0.72624 0.69712
 H1932 H 0.46688 0.73781 0.70834
 H1933 H 0.46152 0.71294 0.74211
 H1934 H 0.44343 0.70140 0.73091
 C1935 C 0.41332 0.19565 0.19602
 C1936 C 0.40775 0.18423 0.20131
 C1937 C 0.39641 0.17882 0.19575
 C1938 C 0.39045 0.18479 0.18481
 C1939 C 0.39620 0.19624 0.17954
 C1940 C 0.40754 0.20162 0.18512
 C1941 C 0.42475 0.20143 0.20197
 C1942 C 0.43419 0.20643 0.20706
 C1943 C 0.44526 0.21259 0.21329
 C1944 C 0.45100 0.20677 0.22433
 C1945 C 0.46127 0.21313 0.23085
 C1946 C 0.46583 0.22537 0.22637
 C1947 C 0.46024 0.23107 0.21518
 C1948 C 0.44998 0.22469 0.20866
 H1949 H 0.41214 0.17954 0.20977
 H1950 H 0.39237 0.16999 0.20009
 H1951 H 0.39196 0.20117 0.17118
 H1952 H 0.41175 0.21049 0.18098
 H1953 H 0.44741 0.19743 0.22800
 H1954 H 0.46551 0.20867 0.23949
 H1955 H 0.46368 0.24052 0.21166
 H1956 H 0.44559 0.22929 0.20015
 C1957 C -0.08658 0.69581 0.19530
 C1958 C -0.09237 0.68466 0.20090
 C1959 C -0.10370 0.67920 0.19539
 C1960 C -0.10944 0.68484 0.18417
 C1961 C -0.10347 0.69604 0.17859
 C1962 C -0.09214 0.70147 0.18413
 C1963 C -0.07518 0.70166 0.20126
 C1964 C -0.06580 0.70668 0.20646
 C1965 C -0.05489 0.71285 0.21297
 C1966 C -0.05470 0.71350 0.22664
 C1967 C -0.04449 0.72003 0.23305
 C1968 C -0.03443 0.72615 0.22583
 C1969 C -0.03453 0.72527 0.21212
 C1970 C -0.04471 0.71862 0.20572
 H1971 H -0.08817 0.68023 0.20960
 H1972 H -0.10793 0.67061 0.20001
 H1973 H -0.10753 0.70071 0.16999
 H1974 H -0.08777 0.71015 0.17974
 H1975 H -0.06255 0.70910 0.23234
 H1976 H -0.04454 0.72055 0.24363
 H1977 H -0.02684 0.72991 0.20640
 H1978 H -0.04474 0.71814 0.19513
 C1979 C -0.08692 0.19530 0.69593
 C1980 C -0.09215 0.20072 0.68449
 C1981 C -0.10339 0.19524 0.67880
 C1982 C -0.10960 0.18424 0.68451
 C1983 C -0.10418 0.17883 0.69600
 C1984 C -0.09294 0.18433 0.70166
 C1985 C -0.07556 0.20118 0.70195
 C1986 C -0.06617 0.20628 0.70706
 C1987 C -0.05514 0.21258 0.71326
 C1988 C -0.04844 0.22275 0.70682
 C1989 C -0.03818 0.22937 0.71311
 C1990 C -0.03457 0.22587 0.72588
 C1991 C -0.04113 0.21550 0.73221
 C1992 C -0.05139 0.20889 0.72592
 H1993 H -0.08758 0.20922 0.67998
 H1994 H -0.10716 0.19969 0.66997
 H1995 H -0.10862 0.17041 0.70073
 H1996 H -0.08898 0.18008 0.71055
 H1997 H -0.05128 0.22569 0.69704
 H1998 H -0.03320 0.23736 0.70813
 H1999 H -0.03844 0.21272 0.74208
 H2000 H -0.05652 0.20106 0.73100
 C2001 C 0.30406 0.41332 0.30466
 C2002 C 0.31544 0.40780 0.29924
 C2003 C 0.32105 0.39652 0.30481
 C2004 C 0.31533 0.39058 0.31589
 C2005 C 0.30392 0.39630 0.32130
 C2006 C 0.29834 0.40757 0.31571
 C2007 C 0.29802 0.42468 0.29871
 C2008 C 0.29278 0.43406 0.29367
 C2009 C 0.28636 0.44506 0.28747
 C2010 C 0.29372 0.45424 0.28031
 C2011 C 0.28739 0.46452 0.27372
 C2012 C 0.27363 0.46566 0.27420
 C2013 C 0.26631 0.45660 0.28160
 C2014 C 0.27265 0.44635 0.28821
 H2015 H 0.31995 0.41216 0.29067
 H2016 H 0.32984 0.39250 0.30038
 H2017 H 0.29917 0.39209 0.32978
 H2018 H 0.28951 0.41174 0.31997
 H2019 H 0.30432 0.45333 0.27968
 H2020 H 0.29316 0.47144 0.26805
 H2021 H 0.25569 0.45740 0.28210
 H2022 H 0.26686 0.43933 0.29374
 C2023 C 0.30457 -0.08689 0.80444
 C2024 C 0.31552 -0.09289 0.79870
 C2025 C 0.32104 -0.10417 0.80431
 C2026 C 0.31567 -0.10971 0.81581
 C2027 C 0.30465 -0.10346 0.82152
 C2028 C 0.29917 -0.09218 0.81587
 C2029 C 0.29863 -0.07555 0.79841
 C2030 C 0.29344 -0.06620 0.79327
 C2031 C 0.28698 -0.05528 0.78701
 C2032 C 0.29428 -0.04607 0.77982
 C2033 C 0.28785 -0.03581 0.77327
 C2034 C 0.27410 -0.03475 0.77384
 C2035 C 0.26685 -0.04388 0.78122
 C2036 C 0.27328 -0.05410 0.78777
 H2037 H 0.31976 -0.08889 0.78981
 H2038 H 0.32946 -0.10849 0.79948
 H2039 H 0.30011 -0.10721 0.83032
 H2040 H 0.29066 -0.08762 0.82038
 H2041 H 0.30488 -0.04692 0.77913
 H2042 H 0.29355 -0.02885 0.76758
 H2043 H 0.25623 -0.04315 0.78175
 H2044 H 0.26755 -0.06117 0.79330
 C2045 C 0.80438 0.41281 0.80398
 C2046 C 0.81530 0.40674 0.79825
 C2047 C 0.82080 0.39548 0.80394
 C2048 C 0.81544 0.39004 0.81549
 C2049 C 0.80443 0.39635 0.82116
 C2050 C 0.79898 0.40761 0.81544
 C2051 C 0.79853 0.42421 0.79796
 C2052 C 0.79346 0.43364 0.79286
 C2053 C 0.78720 0.44472 0.78668
 C2054 C 0.79079 0.44838 0.77395
 C2055 C 0.78420 0.45868 0.76767
 C2056 C 0.77396 0.46537 0.77406
 C2057 C 0.77056 0.46186 0.78689
 C2058 C 0.77716 0.45156 0.79318
 H2059 H 0.81954 0.41067 0.78934
 H2060 H 0.82921 0.39111 0.79914
 H2061 H 0.79990 0.39268 0.83000
 H2062 H 0.79049 0.41222 0.81994
 H2063 H 0.79853 0.44315 0.76883
 H2064 H 0.78690 0.46131 0.75775
 H2065 H 0.76266 0.46695 0.79192
 H2066 H 0.77429 0.44879 0.80301
 C2067 C 0.80462 -0.08703 0.30440
 C2068 C 0.81593 -0.09266 0.29898
 C2069 C 0.82158 -0.10384 0.30468
 C2070 C 0.81598 -0.10962 0.31596
 C2071 C 0.80459 -0.10375 0.32132
 C2072 C 0.79899 -0.09258 0.31558
 C2073 C 0.79863 -0.07571 0.29836
 C2074 C 0.79342 -0.06636 0.29326
 C2075 C 0.78698 -0.05539 0.28704
 C2076 C 0.79438 -0.04578 0.28051
 C2077 C 0.78804 -0.03548 0.27396
 C2078 C 0.77424 -0.03475 0.27386
 C2079 C 0.76689 -0.04426 0.28065
 C2080 C 0.77324 -0.05454 0.28719
 H2081 H 0.82036 -0.08846 0.29028
 H2082 H 0.83030 -0.10787 0.30013
 H2083 H 0.79985 -0.10770 0.32993
 H2084 H 0.79020 -0.08831 0.31984
 H2085 H 0.80502 -0.04635 0.28034
 H2086 H 0.79384 -0.02822 0.26875
 H2087 H 0.75624 -0.04381 0.28070
 H2088 H 0.76742 -0.06192 0.29222
 C2089 C 0.30420 0.58715 0.69564
 C2090 C 0.29810 0.59308 0.68488
 C2091 C 0.30352 0.60441 0.67924
 C2092 C 0.31513 0.60999 0.68431
 C2093 C 0.32120 0.60387 0.69511
 C2094 C 0.31576 0.59256 0.70072
 C2095 C 0.29842 0.57572 0.70166
 C2096 C 0.29344 0.56627 0.70680
 C2097 C 0.28726 0.55518 0.71307
 C2098 C 0.27456 0.55139 0.70935
 C2099 C 0.26822 0.54110 0.71588
 C2100 C 0.27453 0.53453 0.72620
 C2101 C 0.28735 0.53817 0.72975
 C2102 C 0.29370 0.54848 0.72321
 H2103 H 0.28911 0.58900 0.68089
 H2104 H 0.29850 0.60878 0.67099
 H2105 H 0.33015 0.60776 0.69928
 H2106 H 0.32055 0.58806 0.70907
 H2107 H 0.26949 0.55652 0.70155
 H2108 H 0.25832 0.53838 0.71307
 H2109 H 0.29232 0.53319 0.73771
 H2110 H 0.30351 0.55135 0.72618
 C2111 C 0.30460 1.08684 0.19586
 C2112 C 0.31622 1.09216 0.20094
 C2113 C 0.32173 1.10346 0.19533
 C2114 C 0.31568 1.10964 0.18456
 C2115 C 0.30403 1.10414 0.17950
 C2116 C 0.29855 1.09284 0.18512
 C2117 C 0.29871 1.07541 0.20182
 C2118 C 0.29359 1.06597 0.20687
 C2119 C 0.28726 1.05489 0.21303
 C2120 C 0.29354 1.04813 0.22321
 C2121 C 0.28708 1.03786 0.22968
 C2122 C 0.27426 1.03430 0.22603
 C2123 C 0.26809 1.04090 0.21565
 C2124 C 0.27457 1.05116 0.20918
 H2125 H 0.32099 1.08761 0.20927
 H2126 H 0.33072 1.10730 0.19949
 H2127 H 0.29903 1.10856 0.17128
 H2128 H 0.28953 1.08884 0.18113
 H2129 H 0.30335 1.05093 0.22628
 H2130 H 0.29194 1.03283 0.23768
 H2131 H 0.25821 1.03823 0.21272
 H2132 H 0.26962 1.05632 0.20131
 C2133 C 0.80476 0.58688 0.19581
 C2134 C 0.79905 0.59250 0.18469
 C2135 C 0.80452 0.60378 0.17906
 C2136 C 0.81581 0.60966 0.18449
 C2137 C 0.82152 0.60387 0.19565
 C2138 C 0.81602 0.59257 0.20126
 C2139 C 0.79886 0.57548 0.20178
 C2140 C 0.79373 0.56607 0.20685
 C2141 C 0.78739 0.55503 0.21303
 C2142 C 0.77470 0.55130 0.20918
 C2143 C 0.76822 0.54107 0.21568
 C2144 C 0.77440 0.53450 0.22609
 C2145 C 0.78720 0.53808 0.22975
 C2146 C 0.79367 0.54832 0.22325
 H2147 H 0.79030 0.58819 0.18041
 H2148 H 0.79979 0.60787 0.17051
 H2149 H 0.83020 0.60802 0.20013
 H2150 H 0.82051 0.58831 0.20990
 H2151 H 0.76975 0.55644 0.20130
 H2152 H 0.75834 0.53839 0.21277
 H2153 H 0.79205 0.53309 0.23777
 H2154 H 0.80347 0.55114 0.22631
 C2155 C 0.80446 1.08642 0.69534
 C2156 C 0.81567 1.09212 0.70085
 C2157 C 0.82121 1.10339 0.69523
 C2158 C 0.81558 1.10914 0.68401
 C2159 C 0.80433 1.10324 0.67852
 C2160 C 0.79882 1.09197 0.68416
 C2161 C 0.79849 1.07512 0.70140
 C2162 C 0.79330 1.06581 0.70659
 C2163 C 0.78683 1.05496 0.71294
 C2164 C 0.79417 1.04549 0.71974
 C2165 C 0.78777 1.03530 0.72639
 C2166 C 0.77398 1.03456 0.72631
 C2167 C 0.76668 1.04395 0.71931
 C2168 C 0.77309 1.05411 0.71266
 H2169 H 0.82009 1.08791 0.70954
 H2170 H 0.82984 1.10756 0.69978
 H2171 H 0.79968 1.10730 0.66991
 H2172 H 0.79010 1.08766 0.67984
 H2173 H 0.80481 1.04608 0.72003
 H2174 H 0.79351 1.02813 0.73177
 H2175 H 0.75604 1.04348 0.71915
 H2176 H 0.76732 1.06140 0.70745
 C2177 C 0.69573 0.58700 0.30472
 C2178 C 0.68419 0.59238 0.29952
 C2179 C 0.67858 0.60362 0.30514
 C2180 C 0.68445 0.60966 0.31607
 C2181 C 0.69604 0.60410 0.32124
 C2182 C 0.70162 0.59287 0.31560
 C2183 C 0.70168 0.57563 0.29873
 C2184 C 0.70680 0.56623 0.29362
 C2185 C 0.71306 0.55519 0.28734
 C2186 C 0.70670 0.54859 0.27711
 C2187 C 0.71306 0.53831 0.27056
 C2188 C 0.72584 0.53459 0.27418
 C2189 C 0.73210 0.54105 0.28459
 C2190 C 0.72573 0.55132 0.29114
 H2191 H 0.67956 0.58793 0.29107
 H2192 H 0.66967 0.60752 0.30086
 H2193 H 0.70090 0.60840 0.32961
 H2194 H 0.71058 0.58881 0.31969
 H2195 H 0.69691 0.55153 0.27409
 H2196 H 0.70815 0.53342 0.26253
 H2197 H 0.74198 0.53826 0.28745
 H2198 H 0.73074 0.55636 0.29902
 C2199 C 0.69543 1.08705 0.80468
 C2200 C 0.70105 1.09257 0.81586
 C2201 C 0.69548 1.10377 0.82158
 C2202 C 0.68412 1.10969 0.81620
 C2203 C 0.67855 1.10393 0.80492
 C2204 C 0.68417 1.09274 0.79923
 C2205 C 0.70140 1.07571 0.79863
 C2206 C 0.70652 1.06635 0.79346
 C2207 C 0.71279 1.05537 0.78709
 C2208 C 0.71962 1.04593 0.79444
 C2209 C 0.72622 1.03562 0.78815
 C2210 C 0.72607 1.03471 0.77445
 C2211 C 0.71903 1.04408 0.76714
 C2212 C 0.71244 1.05436 0.77344
 H2213 H 0.70981 1.08827 0.82014
 H2214 H 0.70020 1.10770 0.83020
 H2215 H 0.66987 1.10800 0.80034
 H2216 H 0.67976 1.08855 0.79053
 H2217 H 0.71998 1.04664 0.80501
 H2218 H 0.73164 1.02849 0.79390
 H2219 H 0.71882 1.04350 0.75657
 H2220 H 0.70720 1.06162 0.76766
 C2221 C 0.19548 0.58700 0.80430
 C2222 C 0.18448 0.59299 0.79863
 C2223 C 0.17895 0.60423 0.80430
 C2224 C 0.18436 0.60969 0.81576
 C2225 C 0.19540 0.60351 0.82142
 C2226 C 0.20091 0.59227 0.81572
 C2227 C 0.20137 0.57564 0.79825
 C2228 C 0.20640 0.56625 0.79305
 C2229 C 0.21257 0.55521 0.78669
 C2230 C 0.20676 0.54957 0.77562
 C2231 C 0.21308 0.53928 0.76904
 C2232 C 0.22526 0.53459 0.77351
 C2233 C 0.23097 0.54013 0.78471
 C2234 C 0.22464 0.55041 0.79128
 H2235 H 0.18022 0.58901 0.78976
 H2236 H 0.17050 0.60864 0.79961
 H2237 H 0.19986 0.60732 0.83023
 H2238 H 0.20945 0.58772 0.82019
 H2239 H 0.19745 0.55324 0.77196
 H2240 H 0.20862 0.53511 0.76037
 H2241 H 0.24040 0.53661 0.78821
 H2242 H 0.22923 0.55473 0.79982
 C2243 C 0.19581 1.08676 0.30450
 C2244 C 0.20171 1.09260 0.31539
 C2245 C 0.19617 1.10386 0.32102
 C2246 C 0.18461 1.10948 0.31583
 C2247 C 0.17875 1.10347 0.30488
 C2248 C 0.18432 1.09220 0.29926
 C2249 C 0.20171 1.07533 0.29855
 C2250 C 0.20676 1.06587 0.29348
 C2251 C 0.21295 1.05477 0.28725
 C2252 C 0.22561 1.05084 0.29104
 C2253 C 0.23193 1.04053 0.28449
 C2254 C 0.22564 1.03410 0.27409
 C2255 C 0.21286 1.03785 0.27050
 C2256 C 0.20654 1.04817 0.27705
 H2257 H 0.21064 1.08849 0.31950
 H2258 H 0.20102 1.10813 0.32941
 H2259 H 0.16987 1.10741 0.30058
 H2260 H 0.17968 1.08777 0.29080
 H2261 H 0.23066 1.05588 0.29890
 H2262 H 0.24180 1.03772 0.28734
 H2263 H 0.20791 1.03297 0.26248
 H2264 H 0.19677 1.05114 0.27404
 C2265 C 0.69589 0.41274 0.69561
 C2266 C 0.70186 0.40686 0.68476
 C2267 C 0.69637 0.39559 0.67913
 C2268 C 0.68480 0.38999 0.68430
 C2269 C 0.67884 0.39606 0.69520
 C2270 C 0.68436 0.40733 0.70080
 C2271 C 0.70174 0.42416 0.70159
 C2272 C 0.70676 0.43361 0.70668
 C2273 C 0.71295 0.44471 0.71288
 C2274 C 0.72396 0.45064 0.70711
 C2275 C 0.73040 0.46098 0.71347
 C2276 C 0.72587 0.46544 0.72565
 C2277 C 0.71471 0.45964 0.73131
 C2278 C 0.70827 0.44931 0.72494
 H2279 H 0.71082 0.41095 0.68068
 H2280 H 0.70130 0.39125 0.67081
 H2281 H 0.66992 0.39215 0.69945
 H2282 H 0.67966 0.41179 0.70922
 H2283 H 0.72768 0.44714 0.69781
 H2284 H 0.73904 0.46535 0.70904
 H2285 H 0.71115 0.46299 0.74073
 H2286 H 0.69977 0.44478 0.72950
 C2287 C 0.69551 -0.08672 0.19558
 C2288 C 0.68408 -0.09222 0.20087
 C2289 C 0.67858 -0.10351 0.19528
 C2290 C 0.68446 -0.10948 0.18430
 C2291 C 0.69595 -0.10379 0.17903
 C2292 C 0.70142 -0.09250 0.18465
 C2293 C 0.70141 -0.07537 0.20161
 C2294 C 0.70649 -0.06602 0.20681
 C2295 C 0.71275 -0.05510 0.21323
 C2296 C 0.71259 -0.05431 0.22690
 C2297 C 0.71924 -0.04413 0.23324
 C2298 C 0.72615 -0.03465 0.22597
 C2299 C 0.72609 -0.03533 0.21226
 C2300 C 0.71942 -0.04553 0.20591
 H2301 H 0.67945 -0.08784 0.20937
 H2302 H 0.66974 -0.10750 0.19962
 H2303 H 0.70083 -0.10806 0.17065
 H2304 H 0.71031 -0.08835 0.18051
 H2305 H 0.70747 -0.06167 0.23265
 H2306 H 0.71918 -0.04371 0.24383
 H2307 H 0.73139 -0.02809 0.20652
 H2308 H 0.71962 -0.04607 0.19533
 C2309 C 0.19544 0.41329 0.19562
 C2310 C 0.20095 0.40793 0.18427
 C2311 C 0.19554 0.39659 0.17867
 C2312 C 0.18452 0.39043 0.18437
 C2313 C 0.17905 0.39595 0.19578
 C2314 C 0.18448 0.40728 0.20135
 C2315 C 0.20124 0.42474 0.20160
 C2316 C 0.20624 0.43416 0.20677
 C2317 C 0.21242 0.44515 0.21319
 C2318 C 0.21819 0.45527 0.20584
 C2319 C 0.22491 0.46548 0.21214
 C2320 C 0.22585 0.46569 0.22585
 C2321 C 0.21972 0.45569 0.23316
 C2322 C 0.21311 0.44545 0.22685
 H2323 H 0.20947 0.41247 0.17978
 H2324 H 0.20006 0.39272 0.16990
 H2325 H 0.17062 0.39154 0.20051
 H2326 H 0.18016 0.41131 0.21018
 H2327 H 0.21767 0.45515 0.19526
 H2328 H 0.22955 0.47312 0.20635
 H2329 H 0.22028 0.45573 0.24374
 H2330 H 0.20871 0.43765 0.23263
 C2331 C 0.19565 -0.08698 0.69544
 C2332 C 0.18464 -0.09292 0.70115
 C2333 C 0.17914 -0.10420 0.69555
 C2334 C 0.18459 -0.10974 0.68413
 C2335 C 0.19566 -0.10364 0.67846
 C2336 C 0.20114 -0.09236 0.68409
 C2337 C 0.20150 -0.07558 0.70142
 C2338 C 0.20653 -0.06619 0.70662
 C2339 C 0.21270 -0.05523 0.71308
 C2340 C 0.21342 -0.05503 0.72675
 C2341 C 0.21996 -0.04477 0.73311
 C2342 C 0.22599 -0.03468 0.72585
 C2343 C 0.22503 -0.03480 0.71214
 C2344 C 0.21838 -0.04502 0.70579
 H2345 H 0.18035 -0.08888 0.70998
 H2346 H 0.17068 -0.10857 0.70027
 H2347 H 0.20017 -0.10752 0.66970
 H2348 H 0.20970 -0.08787 0.67961
 H2349 H 0.20908 -0.06289 0.73248
 H2350 H 0.22054 -0.04481 0.74369
 H2351 H 0.22961 -0.02709 0.70639
 H2352 H 0.21785 -0.04508 0.69521
 C2353 C 0.30487 0.30480 0.41438
 C2354 C 0.29907 0.31589 0.40864
 C2355 C 0.30449 0.32140 0.39732
 C2356 C 0.31582 0.31589 0.39155
 C2357 C 0.32163 0.30479 0.39750
 C2358 C 0.31618 0.29930 0.40882
 C2359 C 0.29894 0.29880 0.42569
 C2360 C 0.29377 0.29362 0.43498
 C2361 C 0.28732 0.28726 0.44580
 C2362 C 0.27357 0.28755 0.44668
 C2363 C 0.26717 0.28084 0.45677
 C2364 C 0.27447 0.27375 0.46606
 C2365 C 0.28827 0.27367 0.46529
 C2366 C 0.29466 0.28039 0.45517
 H2367 H 0.29028 0.32020 0.41285
 H2368 H 0.29970 0.32991 0.39311
 H2369 H 0.33034 0.30025 0.39345
 H2370 H 0.32073 0.29069 0.41316
 H2371 H 0.26780 0.29283 0.43948
 H2372 H 0.25653 0.28101 0.45727
 H2373 H 0.29402 0.26823 0.47239
 H2374 H 0.30530 0.28008 0.45456
 C2375 C 0.30461 0.80500 -0.08616
 C2376 C 0.31597 0.79948 -0.09162
 C2377 C 0.32155 0.80496 -0.10289
 C2378 C 0.31583 0.81607 -0.10890
 C2379 C 0.30444 0.82159 -0.10323
 C2380 C 0.29889 0.81609 -0.09197
 C2381 C 0.29860 0.79908 -0.07482
 C2382 C 0.29342 0.79399 -0.06548
 C2383 C 0.28703 0.78770 -0.05455
 C2384 C 0.29447 0.78097 -0.04515
 C2385 C 0.28818 0.77424 -0.03496
 C2386 C 0.27439 0.77417 -0.03413
 C2387 C 0.26699 0.78116 -0.04343
 C2388 C 0.27329 0.78789 -0.05359
 H2389 H 0.32047 0.79088 -0.08722
 H2390 H 0.33030 0.80041 -0.10687
 H2391 H 0.29971 0.83011 -0.10748
 H2392 H 0.29007 0.82043 -0.08785
 H2393 H 0.30511 0.78076 -0.04580
 H2394 H 0.29402 0.76889 -0.02787
 H2395 H 0.25635 0.78123 -0.04289
 H2396 H 0.26743 0.79306 -0.06080
 C2397 C 0.80439 0.30522 -0.08592
 C2398 C 0.81576 0.29972 -0.09137
 C2399 C 0.82133 0.30523 -0.10263
 C2400 C 0.81559 0.31633 -0.10863
 C2401 C 0.80420 0.32184 -0.10296
 C2402 C 0.79865 0.31631 -0.09171
 C2403 C 0.79837 0.29924 -0.07464
 C2404 C 0.79319 0.29407 -0.06535
 C2405 C 0.78681 0.28769 -0.05450
 C2406 C 0.79426 0.28097 -0.04509
 C2407 C 0.78797 0.27419 -0.03495
 C2408 C 0.77418 0.27405 -0.03417
 C2409 C 0.76677 0.28100 -0.04348
 C2410 C 0.77306 0.28778 -0.05360
 H2411 H 0.82026 0.29111 -0.08699
 H2412 H 0.83009 0.30069 -0.10659
 H2413 H 0.79946 0.33036 -0.10721
 H2414 H 0.78982 0.32063 -0.08759
 H2415 H 0.80490 0.28083 -0.04571
 H2416 H 0.79382 0.26887 -0.02783
 H2417 H 0.75612 0.28102 -0.04297
 H2418 H 0.76720 0.29294 -0.06082
 C2419 C 0.80456 0.80490 0.41385
 C2420 C 0.79873 0.81591 0.40801
 C2421 C 0.80427 0.82146 0.39677
 C2422 C 0.81574 0.81606 0.39117
 C2423 C 0.82155 0.80501 0.39720
 C2424 C 0.81599 0.79948 0.40844
 C2425 C 0.79859 0.79895 0.42517
 C2426 C 0.79341 0.79386 0.43450
 C2427 C 0.78698 0.78763 0.44540
 C2428 C 0.77324 0.78788 0.44630
 C2429 C 0.76688 0.78126 0.45648
 C2430 C 0.77421 0.77429 0.46584
 C2431 C 0.78800 0.77428 0.46506
 C2432 C 0.79436 0.78091 0.45486
 H2433 H 0.78985 0.82015 0.41209
 H2434 H 0.79946 0.82992 0.39248
 H2435 H 0.83038 0.80056 0.39328
 H2436 H 0.82057 0.79093 0.41287
 H2437 H 0.76744 0.79305 0.43904
 H2438 H 0.75623 0.78140 0.45698
 H2439 H 0.79379 0.76894 0.47221
 H2440 H 0.80500 0.78064 0.45424
 C2441 C 0.69487 0.30412 0.58586
 C2442 C 0.70042 0.31547 0.59128
 C2443 C 0.69499 0.32105 0.60256
 C2444 C 0.68391 0.31534 0.60861
 C2445 C 0.67835 0.30398 0.60296
 C2446 C 0.68381 0.29842 0.59169
 C2447 C 0.70077 0.29808 0.57455
 C2448 C 0.70585 0.29286 0.56524
 C2449 C 0.71213 0.28644 0.55436
 C2450 C 0.71926 0.29382 0.54520
 C2451 C 0.72596 0.28748 0.53505
 C2452 C 0.72562 0.27369 0.53403
 C2453 C 0.71826 0.26635 0.54307
 C2454 C 0.71154 0.27271 0.55320
 H2455 H 0.70901 0.31994 0.58685
 H2456 H 0.69956 0.32979 0.60651
 H2457 H 0.66984 0.29927 0.60724
 H2458 H 0.67945 0.28961 0.58758
 H2459 H 0.71980 0.30445 0.54603
 H2460 H 0.73161 0.29325 0.52813
 H2461 H 0.71787 0.25571 0.54236
 H2462 H 0.70605 0.26690 0.56022
 C2463 C 0.69506 0.80477 1.08590
 C2464 C 0.70058 0.81610 1.09138
 C2465 C 0.69506 0.82169 1.10262
 C2466 C 0.68391 0.81601 1.10856
 C2467 C 0.67839 0.80465 1.10286
 C2468 C 0.68393 0.79909 1.09163
 C2469 C 0.70104 0.79874 1.07463
 C2470 C 0.70619 0.79353 1.06535
 C2471 C 0.71253 0.78710 1.05451
 C2472 C 0.71916 0.79452 1.04501
 C2473 C 0.72590 0.78817 1.03487
 C2474 C 0.72607 0.77436 1.03419
 C2475 C 0.71921 0.76698 1.04360
 C2476 C 0.71249 0.77333 1.05372
 H2477 H 0.70922 0.82056 1.08704
 H2478 H 0.69962 0.83041 1.10662
 H2479 H 0.66983 0.79995 1.10706
 H2480 H 0.67960 0.79028 1.08748
 H2481 H 0.71926 0.80517 1.04555
 H2482 H 0.73115 0.79399 1.02769
 H2483 H 0.71923 0.75632 1.04318
 H2484 H 0.70740 0.76750 1.06102
 C2485 C 0.19537 0.30438 1.08626
 C2486 C 0.20087 0.31570 1.09179
 C2487 C 0.19540 0.32117 1.10309
 C2488 C 0.18433 0.31538 1.10908
 C2489 C 0.17881 0.30405 1.10334
 C2490 C 0.18430 0.29860 1.09203
 C2491 C 0.20133 0.29848 1.07492
 C2492 C 0.20650 0.29343 1.06557
 C2493 C 0.21290 0.28724 1.05462
 C2494 C 0.22320 0.29367 1.04813
 C2495 C 0.22990 0.28735 1.03796
 C2496 C 0.22635 0.27454 1.03424
 C2497 C 0.21586 0.26821 1.04060
 C2498 C 0.20917 0.27454 1.05076
 H2499 H 0.20945 0.32024 1.08741
 H2500 H 0.19995 0.32990 1.10711
 H2501 H 0.17030 0.29929 1.10757
 H2502 H 0.17998 0.28981 1.08784
 H2503 H 0.22618 0.30348 1.05106
 H2504 H 0.23799 0.29232 1.03313
 H2505 H 0.21304 0.25832 1.03781
 H2506 H 0.20123 0.26947 1.05573
 C2507 C 0.19530 0.80429 0.58589
 C2508 C 0.20083 0.81562 0.59136
 C2509 C 0.19538 0.82116 0.60265
 C2510 C 0.18429 0.81542 0.60866
 C2511 C 0.17876 0.80407 0.60298
 C2512 C 0.18423 0.79856 0.59169
 C2513 C 0.20118 0.79830 0.57455
 C2514 C 0.20622 0.79309 0.56521
 C2515 C 0.21240 0.78664 0.55429
 C2516 C 0.21946 0.79399 0.54505
 C2517 C 0.22605 0.78761 0.53484
 C2518 C 0.22567 0.77382 0.53385
 C2519 C 0.21837 0.76652 0.54298
 C2520 C 0.21177 0.77291 0.55316
 H2521 H 0.20942 0.82013 0.58696
 H2522 H 0.19993 0.82990 0.60664
 H2523 H 0.17025 0.79933 0.60723
 H2524 H 0.17989 0.78976 0.58755
 H2525 H 0.22003 0.80462 0.54585
 H2526 H 0.23166 0.79335 0.52787
 H2527 H 0.21795 0.75588 0.54230
 H2528 H 0.20633 0.76714 0.56025
 C2529 C 0.30505 0.69553 0.58576
 C2530 C 0.29942 0.68436 0.59147
 C2531 C 0.30486 0.67894 0.60281
 C2532 C 0.31603 0.68465 0.60866
 C2533 C 0.32166 0.69586 0.60276
 C2534 C 0.31619 0.70125 0.59141
 C2535 C 0.29909 0.70137 0.57438
 C2536 C 0.29387 0.70637 0.56503
 C2537 C 0.28733 0.71254 0.55415
 C2538 C 0.27357 0.71293 0.55379
 C2539 C 0.26713 0.71955 0.54366
 C2540 C 0.27441 0.72596 0.53385
 C2541 C 0.28821 0.72530 0.53411
 C2542 C 0.29465 0.71860 0.54421
 H2543 H 0.29076 0.67987 0.58721
 H2544 H 0.30021 0.67033 0.60697
 H2545 H 0.33024 0.70056 0.60689
 H2546 H 0.32060 0.70995 0.58709
 H2547 H 0.26781 0.70828 0.56143
 H2548 H 0.25648 0.71989 0.54357
 H2549 H 0.29397 0.73015 0.52660
 H2550 H 0.30530 0.71831 0.54439
 C2551 C 0.30529 0.19549 1.08608
 C2552 C 0.29980 0.18413 1.09156
 C2553 C 0.30525 0.17860 1.10285
 C2554 C 0.31630 0.18438 1.10886
 C2555 C 0.32181 0.19575 1.10316
 C2556 C 0.31634 0.20125 1.09187
 C2557 C 0.29936 0.20146 1.07476
 C2558 C 0.29423 0.20658 1.06543
 C2559 C 0.28788 0.21285 1.05451
 C2560 C 0.27760 0.20646 1.04797
 C2561 C 0.27093 0.21286 1.03783
 C2562 C 0.27449 0.22569 1.03419
 C2563 C 0.28496 0.23197 1.04059
 C2564 C 0.29162 0.22558 1.05072
 H2565 H 0.29123 0.17960 1.08717
 H2566 H 0.30071 0.16986 1.10685
 H2567 H 0.33030 0.20051 1.10741
 H2568 H 0.32066 0.21007 1.08772
 H2569 H 0.27461 0.19664 1.05084
 H2570 H 0.26286 0.20792 1.03297
 H2571 H 0.28780 0.24188 1.03785
 H2572 H 0.29954 0.23061 1.05573
 C2573 C 0.80477 0.69535 1.08599
 C2574 C 0.79903 0.68428 1.09179
 C2575 C 0.80458 0.67875 1.10303
 C2576 C 0.81597 0.68423 1.10866
 C2577 C 0.82172 0.69532 1.10265
 C2578 C 0.81615 0.70083 1.09141
 C2579 C 0.79875 0.70133 1.07473
 C2580 C 0.79353 0.70646 1.06546
 C2581 C 0.78707 0.71275 1.05462
 C2582 C 0.77332 0.71262 1.05384
 C2583 C 0.76694 0.71927 1.04370
 C2584 C 0.77427 0.72615 1.03426
 C2585 C 0.78806 0.72606 1.03494
 C2586 C 0.79444 0.71940 1.04510
 H2587 H 0.79020 0.67999 1.08769
 H2588 H 0.79983 0.67025 1.10729
 H2589 H 0.83048 0.69984 1.10660
 H2590 H 0.82065 0.70943 1.08701
 H2591 H 0.76753 0.70752 1.06116
 H2592 H 0.75629 0.71923 1.04329
 H2593 H 0.79384 0.73134 1.02774
 H2594 H 0.80508 0.71958 1.04564
 C2595 C 0.80474 0.19552 0.58615
 C2596 C 0.79906 0.18435 0.59183
 C2597 C 0.80449 0.17886 0.60314
 C2598 C 0.81570 0.18448 0.60899
 C2599 C 0.82137 0.19569 0.60313
 C2600 C 0.81592 0.20116 0.59181
 C2601 C 0.79886 0.20142 0.57477
 C2602 C 0.79372 0.20649 0.56541
 C2603 C 0.78728 0.21272 0.55451
 C2604 C 0.77352 0.21320 0.55410
 C2605 C 0.76716 0.21979 0.54391
 C2606 C 0.77451 0.22610 0.53409
 C2607 C 0.78831 0.22539 0.53441
 C2608 C 0.79467 0.21870 0.54458
 H2609 H 0.79037 0.17993 0.58756
 H2610 H 0.79980 0.17026 0.60728
 H2611 H 0.82998 0.20034 0.60726
 H2612 H 0.82037 0.20985 0.58753
 H2613 H 0.76771 0.20863 0.56175
 H2614 H 0.75651 0.22019 0.54378
 H2615 H 0.79412 0.23018 0.52691
 H2616 H 0.80532 0.21836 0.54481
 C2617 C 0.69503 0.69575 0.41416
 C2618 C 0.70051 0.68437 0.40870
 C2619 C 0.69498 0.67879 0.39748
 C2620 C 0.68388 0.68454 0.39151
 C2621 C 0.67841 0.69595 0.39717
 C2622 C 0.68396 0.70151 0.40839
 C2623 C 0.70102 0.70176 0.42543
 C2624 C 0.70617 0.70695 0.43470
 C2625 C 0.71252 0.71337 0.44554
 C2626 C 0.71923 0.70595 0.45498
 C2627 C 0.72595 0.71230 0.46511
 C2628 C 0.72603 0.72611 0.46585
 C2629 C 0.71910 0.73348 0.45649
 C2630 C 0.71238 0.72714 0.44638
 H2631 H 0.70911 0.67985 0.41306
 H2632 H 0.69950 0.67002 0.39351
 H2633 H 0.66990 0.70071 0.39294
 H2634 H 0.67966 0.71035 0.41251
 H2635 H 0.71941 0.69530 0.45440
 H2636 H 0.73127 0.70648 0.47225
 H2637 H 0.71904 0.74414 0.45695
 H2638 H 0.70723 0.73297 0.43913
 C2639 C 0.69561 0.19515 -0.08603
 C2640 C 0.70113 0.18384 -0.09160
 C2641 C 0.69557 0.17829 -0.10281
 C2642 C 0.68439 0.18399 -0.10867
 C2643 C 0.67886 0.19532 -0.10290
 C2644 C 0.68444 0.20085 -0.09168
 C2645 C 0.70160 0.20115 -0.07476
 C2646 C 0.70672 0.20636 -0.06547
 C2647 C 0.71297 0.21283 -0.05460
 C2648 C 0.71964 0.20545 -0.04510
 C2649 C 0.72623 0.21183 -0.03491
 C2650 C 0.72624 0.22564 -0.03418
 C2651 C 0.71933 0.23297 -0.04358
 C2652 C 0.71274 0.22659 -0.05375
 H2653 H 0.70980 0.17936 -0.08732
 H2654 H 0.70014 0.16958 -0.10688
 H2655 H 0.67026 0.20002 -0.10701
 H2656 H 0.68010 0.20963 -0.08747
 H2657 H 0.71988 0.19480 -0.04568
 H2658 H 0.73153 0.20604 -0.02773
 H2659 H 0.71921 0.24363 -0.04313
 H2660 H 0.70761 0.23240 -0.06104
 C2661 C 0.19535 0.69541 -0.08591
 C2662 C 0.20084 0.68407 -0.09145
 C2663 C 0.19532 0.67858 -0.10272
 C2664 C 0.18422 0.68438 -0.10865
 C2665 C 0.17872 0.69573 -0.10288
 C2666 C 0.18426 0.70119 -0.09161
 C2667 C 0.20136 0.70136 -0.07464
 C2668 C 0.20653 0.70655 -0.06537
 C2669 C 0.21290 0.71299 -0.05456
 C2670 C 0.21954 0.70558 -0.04507
 C2671 C 0.22627 0.71194 -0.03496
 C2672 C 0.22643 0.72576 -0.03430
 C2673 C 0.21956 0.73312 -0.04371
 C2674 C 0.21284 0.72676 -0.05380
 H2675 H 0.20945 0.67953 -0.08713
 H2676 H 0.19986 0.66986 -0.10677
 H2677 H 0.17020 0.70051 -0.10706
 H2678 H 0.17995 0.70999 -0.08741
 H2679 H 0.21965 0.69492 -0.04558
 H2680 H 0.23152 0.70613 -0.02776
 H2681 H 0.21955 0.74378 -0.04329
 H2682 H 0.20774 0.73258 -0.06109
 C2683 C 0.19532 0.19544 0.41411
 C2684 C 0.20084 0.18409 0.40862
 C2685 C 0.19532 0.17851 0.39739
 C2686 C 0.18419 0.18422 0.39145
 C2687 C 0.17867 0.19560 0.39715
 C2688 C 0.18421 0.20115 0.40838
 C2689 C 0.20129 0.20144 0.42539
 C2690 C 0.20642 0.20662 0.43468
 C2691 C 0.21274 0.21302 0.44555
 C2692 C 0.21933 0.20556 0.45504
 C2693 C 0.22604 0.21186 0.46521
 C2694 C 0.22622 0.22567 0.46593
 C2695 C 0.21938 0.23308 0.45654
 C2696 C 0.21269 0.22678 0.44639
 H2697 H 0.20947 0.17960 0.41296
 H2698 H 0.19988 0.16976 0.39339
 H2699 H 0.17013 0.20032 0.39296
 H2700 H 0.17988 0.20997 0.41253
 H2701 H 0.21944 0.19490 0.45447
 H2702 H 0.23127 0.20601 0.47238
 H2703 H 0.21940 0.24375 0.45699
 H2704 H 0.20763 0.23265 0.43910
 C2705 C 0.30432 0.41305 0.69596
 C2706 C 0.29920 0.40810 0.68426
 C2707 C 0.30471 0.39687 0.67853
 C2708 C 0.31544 0.39040 0.68445
 C2709 C 0.32052 0.39551 0.69621
 C2710 C 0.31499 0.40674 0.70191
 C2711 C 0.29846 0.42444 0.70197
 C2712 C 0.29342 0.43388 0.70709
 C2713 C 0.28723 0.44497 0.71333
 C2714 C 0.27526 0.44983 0.70856
 C2715 C 0.26888 0.46016 0.71501
 C2716 C 0.27445 0.46569 0.72629
 C2717 C 0.28655 0.46096 0.73092
 C2718 C 0.29292 0.45062 0.72447
 H2719 H 0.29092 0.41290 0.67958
 H2720 H 0.30054 0.39334 0.66947
 H2721 H 0.32871 0.39084 0.70111
 H2722 H 0.31900 0.41047 0.71099
 H2723 H 0.27077 0.44551 0.69996
 H2724 H 0.25953 0.46372 0.71137
 H2725 H 0.29092 0.46514 0.73965
 H2726 H 0.30216 0.44692 0.72825
 C2727 C 0.30477 0.91287 0.19623
 C2728 C 0.29848 0.90696 0.18560
 C2729 C 0.30378 0.89566 0.17986
 C2730 C 0.31548 0.89006 0.18469
 C2731 C 0.32174 0.89611 0.19542
 C2732 C 0.31640 0.90742 0.20115
 C2733 C 0.29909 0.92436 0.20223
 C2734 C 0.29405 0.93385 0.20724
 C2735 C 0.28769 0.94495 0.21327
 C2736 C 0.27493 0.94848 0.20946
 C2737 C 0.26837 0.95873 0.21585
 C2738 C 0.27453 0.96549 0.22612
 C2739 C 0.28743 0.96214 0.22971
 C2740 C 0.29398 0.95188 0.22331
 H2741 H 0.28943 0.91108 0.18177
 H2742 H 0.29861 0.89130 0.17170
 H2743 H 0.33078 0.89219 0.19941
 H2744 H 0.32135 0.91189 0.20941
 H2745 H 0.26999 0.94319 0.20169
 H2746 H 0.25843 0.96126 0.21297
 H2747 H 0.29228 0.96731 0.23761
 H2748 H 0.30385 0.94923 0.22632
 C2749 C 0.80442 0.41333 0.19564
 C2750 C 0.81595 0.40789 0.20078
 C2751 C 0.82151 0.39667 0.19506
 C2752 C 0.81558 0.39071 0.18411
 C2753 C 0.80399 0.39633 0.17902
 C2754 C 0.79846 0.40754 0.18475
 C2755 C 0.79852 0.42469 0.20169
 C2756 C 0.79344 0.43408 0.20683
 C2757 C 0.78717 0.44512 0.21308
 C2758 C 0.79355 0.45179 0.22324
 C2759 C 0.78717 0.46208 0.22977
 C2760 C 0.77435 0.46571 0.22619
 C2761 C 0.76807 0.45917 0.21585
 C2762 C 0.77447 0.44890 0.20932
 H2763 H 0.82063 0.41228 0.20923
 H2764 H 0.83042 0.39272 0.19930
 H2765 H 0.79909 0.39209 0.17064
 H2766 H 0.78950 0.41166 0.18071
 H2767 H 0.80337 0.44893 0.22623
 H2768 H 0.79209 0.46705 0.23775
 H2769 H 0.75818 0.46190 0.21300
 H2770 H 0.76944 0.44379 0.20149
 C2771 C 0.80396 0.91364 0.69554
 C2772 C 0.81528 0.90803 0.70096
 C2773 C 0.82083 0.89675 0.69536
 C2774 C 0.81510 0.89090 0.68425
 C2775 C 0.80373 0.89670 0.67886
 C2776 C 0.79822 0.90798 0.68448
 C2777 C 0.79801 0.92501 0.70151
 C2778 C 0.79282 0.93439 0.70659
 C2779 C 0.78639 0.94536 0.71278
 C2780 C 0.79372 0.95453 0.71997
 C2781 C 0.78734 0.96480 0.72653
 C2782 C 0.77358 0.96592 0.72600
 C2783 C 0.76631 0.95686 0.71858
 C2784 C 0.77269 0.94663 0.71200
 H2785 H 0.81978 0.91232 0.70956
 H2786 H 0.82957 0.89266 0.69981
 H2787 H 0.79898 0.89255 0.67036
 H2788 H 0.78942 0.91222 0.68023
 H2789 H 0.80432 0.95362 0.72065
 H2790 H 0.79306 0.97172 0.73223
 H2791 H 0.75569 0.95764 0.71805
 H2792 H 0.76694 0.93960 0.70646
 C2793 C 0.69556 0.58697 0.69587
 C2794 C 0.70143 0.59266 0.68486
 C2795 C 0.69596 0.60393 0.67917
 C2796 C 0.68451 0.60971 0.68444
 C2797 C 0.67867 0.60385 0.69550
 C2798 C 0.68416 0.59257 0.70116
 C2799 C 0.70138 0.57555 0.70188
 C2800 C 0.70641 0.56610 0.70698
 C2801 C 0.71264 0.55499 0.71317
 C2802 C 0.72273 0.54819 0.70670
 C2803 C 0.72929 0.53786 0.71298
 C2804 C 0.72581 0.53429 0.72578
 C2805 C 0.71552 0.54094 0.73213
 C2806 C 0.70897 0.55127 0.72585
 H2807 H 0.71028 0.58842 0.68070
 H2808 H 0.70081 0.60811 0.67072
 H2809 H 0.66985 0.60790 0.69984
 H2810 H 0.67955 0.58826 0.70970
 H2811 H 0.72566 0.55101 0.69691
 H2812 H 0.73723 0.53281 0.70799
 H2813 H 0.71276 0.53827 0.74202
 H2814 H 0.70119 0.55647 0.73094
 C2815 C 0.69569 0.08647 0.19564
 C2816 C 0.70163 0.09234 0.18477
 C2817 C 0.69613 0.10363 0.17917
 C2818 C 0.68458 0.10926 0.18438
 C2819 C 0.67869 0.10324 0.19535
 C2820 C 0.68423 0.09194 0.20093
 C2821 C 0.70156 0.07502 0.20157
 C2822 C 0.70662 0.06559 0.20669
 C2823 C 0.71283 0.05460 0.21309
 C2824 C 0.71946 0.04498 0.20579
 C2825 C 0.72607 0.03473 0.21216
 C2826 C 0.72613 0.03406 0.22588
 C2827 C 0.71924 0.04358 0.23312
 C2828 C 0.71264 0.05380 0.22676
 H2829 H 0.71055 0.08823 0.18065
 H2830 H 0.70101 0.10791 0.17080
 H2831 H 0.66983 0.10722 0.19968
 H2832 H 0.67958 0.08751 0.20939
 H2833 H 0.71968 0.04552 0.19521
 H2834 H 0.73135 0.02746 0.20644
 H2835 H 0.71916 0.04317 0.24371
 H2836 H 0.70755 0.06120 0.23249
 C2837 C 0.19561 0.58683 0.19537
 C2838 C 0.20121 0.59240 0.18417
 C2839 C 0.19558 0.60357 0.17846
 C2840 C 0.18422 0.60938 0.18389
 C2841 C 0.17865 0.60365 0.19516
 C2842 C 0.18431 0.59247 0.20084
 C2843 C 0.20163 0.57552 0.20141
 C2844 C 0.20680 0.56618 0.20658
 C2845 C 0.21315 0.55523 0.21292
 C2846 C 0.21997 0.54581 0.20553
 C2847 C 0.22662 0.53551 0.21178
 C2848 C 0.22653 0.53459 0.22548
 C2849 C 0.21952 0.54395 0.23283
 C2850 C 0.21287 0.55422 0.22657
 H2851 H 0.20999 0.58814 0.17987
 H2852 H 0.20020 0.60762 0.16983
 H2853 H 0.16995 0.60777 0.19968
 H2854 H 0.17991 0.58826 0.20955
 H2855 H 0.22027 0.54652 0.19496
 H2856 H 0.23202 0.52839 0.20599
 H2857 H 0.21935 0.54336 0.24340
 H2858 H 0.20765 0.56146 0.23238
 C2859 C 0.19570 0.08664 0.69588
 C2860 C 0.20116 0.09204 0.68452
 C2861 C 0.19559 0.10326 0.67885
 C2862 C 0.18445 0.10930 0.68447
 C2863 C 0.17901 0.10373 0.69589
 C2864 C 0.18462 0.09250 0.70154
 C2865 C 0.20166 0.07527 0.70187
 C2866 C 0.20679 0.06588 0.70700
 C2867 C 0.21308 0.05488 0.71330
 C2868 C 0.21988 0.04546 0.70589
 C2869 C 0.22651 0.03513 0.71213
 C2870 C 0.22641 0.03419 0.72583
 C2871 C 0.21939 0.04352 0.73319
 C2872 C 0.21277 0.05382 0.72695
 H2873 H 0.20978 0.08761 0.68008
 H2874 H 0.20011 0.10719 0.67011
 H2875 H 0.17047 0.10801 0.70053
 H2876 H 0.18033 0.08842 0.71036
 H2877 H 0.22020 0.04620 0.69533
 H2878 H 0.23191 0.02802 0.70633
 H2879 H 0.21921 0.04290 0.74376
 H2880 H 0.20755 0.06105 0.73278
 C2881 C 0.30458 0.58650 0.30424
 C2882 C 0.31582 0.59219 0.29874
 C2883 C 0.32136 0.60345 0.30436
 C2884 C 0.31569 0.60921 0.31557
 C2885 C 0.30442 0.60332 0.32105
 C2886 C 0.29891 0.59207 0.31541
 C2887 C 0.29861 0.57516 0.29826
 C2888 C 0.29341 0.56581 0.29318
 C2889 C 0.28694 0.55487 0.28700
 C2890 C 0.29429 0.54536 0.28027
 C2891 C 0.28790 0.53511 0.27371
 C2892 C 0.27411 0.53434 0.27382
 C2893 C 0.26680 0.54375 0.28080
 C2894 C 0.27320 0.55397 0.28735
 H2895 H 0.32027 0.58797 0.29007
 H2896 H 0.33003 0.60761 0.29984
 H2897 H 0.29973 0.60739 0.32963
 H2898 H 0.29017 0.58776 0.31973
 H2899 H 0.30493 0.54598 0.27993
 H2900 H 0.29366 0.52793 0.26836
 H2901 H 0.25616 0.54325 0.28099
 H2902 H 0.26742 0.56127 0.29254
 C2903 C 0.30472 0.08603 0.80455
 C2904 C 0.31625 0.09146 0.79938
 C2905 C 0.32169 0.10278 0.80496
 C2906 C 0.31565 0.10888 0.81579
 C2907 C 0.30410 0.10324 0.82096
 C2908 C 0.29869 0.09192 0.81536
 C2909 C 0.29884 0.07466 0.79853
 C2910 C 0.29368 0.06531 0.79340
 C2911 C 0.28721 0.05439 0.78715
 C2912 C 0.29454 0.04494 0.78031
 C2913 C 0.28812 0.03472 0.77373
 C2914 C 0.27433 0.03393 0.77390
 C2915 C 0.26705 0.04329 0.78097
 C2916 C 0.27347 0.05348 0.78756
 H2917 H 0.32099 0.08699 0.79099
 H2918 H 0.33059 0.10673 0.80070
 H2919 H 0.29911 0.10759 0.82924
 H2920 H 0.28972 0.08782 0.81942
 H2921 H 0.30517 0.04557 0.77993
 H2922 H 0.29386 0.02757 0.76830
 H2923 H 0.25641 0.04278 0.78122
 H2924 H 0.26771 0.06074 0.79282
 C2925 C 0.80410 0.58674 0.80423
 C2926 C 0.81485 0.59293 0.79830
 C2927 C 0.82041 0.60416 0.80395
 C2928 C 0.81527 0.60940 0.81565
 C2929 C 0.80446 0.60304 0.82155
 C2930 C 0.79894 0.59181 0.81587
 C2931 C 0.79820 0.57536 0.79826
 C2932 C 0.79313 0.56593 0.79317
 C2933 C 0.78690 0.55485 0.78697
 C2934 C 0.79140 0.55041 0.77479
 C2935 C 0.78491 0.54011 0.76843
 C2936 C 0.77388 0.53419 0.77421
 C2937 C 0.76953 0.53849 0.78651
 C2938 C 0.77602 0.54881 0.79286
 H2939 H 0.81891 0.58911 0.78926
 H2940 H 0.82865 0.60874 0.79906
 H2941 H 0.80023 0.60667 0.83055
 H2942 H 0.79059 0.58711 0.82054
 H2943 H 0.79979 0.55503 0.77014
 H2944 H 0.78833 0.53688 0.75892
 H2945 H 0.76099 0.53402 0.79104
 H2946 H 0.77243 0.55219 0.80226
 C2947 C 0.80476 0.08605 0.30444
 C2948 C 0.81590 0.09186 0.29886
 C2949 C 0.82146 0.10308 0.30453
 C2950 C 0.81592 0.10869 0.31588
 C2951 C 0.80474 0.10269 0.32143
 C2952 C 0.79921 0.09147 0.31574
 C2953 C 0.79879 0.07474 0.29839
 C2954 C 0.79360 0.06542 0.29324
 C2955 C 0.78716 0.05451 0.28697
 C2956 C 0.79453 0.04498 0.28027
 C2957 C 0.78816 0.03475 0.27366
 C2958 C 0.77436 0.03401 0.27368
 C2959 C 0.76704 0.04344 0.28061
 C2960 C 0.77341 0.05365 0.28721
 H2961 H 0.82025 0.08776 0.29008
 H2962 H 0.83003 0.10735 0.29992
 H2963 H 0.80017 0.10662 0.33014
 H2964 H 0.79055 0.08707 0.32012
 H2965 H 0.80517 0.04557 0.28002
 H2966 H 0.79393 0.02755 0.26835
 H2967 H 0.75639 0.04297 0.28074
 H2968 H 0.76762 0.06096 0.29235
 C2969 C 0.69582 0.41306 0.30457
 C2970 C 0.68421 0.40778 0.29944
 C2971 C 0.67866 0.39645 0.30497
 C2972 C 0.68467 0.39022 0.31574
 C2973 C 0.69633 0.39568 0.32084
 C2974 C 0.70184 0.40699 0.31529
 C2975 C 0.70173 0.42451 0.29867
 C2976 C 0.70681 0.43397 0.29363
 C2977 C 0.71304 0.44508 0.28743
 C2978 C 0.70664 0.45176 0.27726
 C2979 C 0.71299 0.46206 0.27072
 C2980 C 0.72579 0.46574 0.27429
 C2981 C 0.73208 0.45921 0.28465
 C2982 C 0.72573 0.44891 0.29119
 H2983 H 0.67947 0.41238 0.29112
 H2984 H 0.66968 0.39264 0.30078
 H2985 H 0.70132 0.39121 0.32905
 H2986 H 0.71086 0.41096 0.31932
 H2987 H 0.69684 0.44887 0.27427
 H2988 H 0.70804 0.46701 0.26273
 H2989 H 0.74197 0.46195 0.28749
 H2990 H 0.73078 0.44381 0.29902
 C2991 C 0.69543 0.91350 0.80474
 C2992 C 0.68404 0.90794 0.79945
 C2993 C 0.67858 0.89662 0.80504
 C2994 C 0.68446 0.89067 0.81603
 C2995 C 0.69592 0.89640 0.82129
 C2996 C 0.70135 0.90772 0.81567
 C2997 C 0.70123 0.92492 0.79871
 C2998 C 0.70619 0.93433 0.79348
 C2999 C 0.71231 0.94531 0.78698
 C3000 C 0.71297 0.94556 0.77331
 C3001 C 0.71950 0.95582 0.76694
 C3002 C 0.72559 0.96586 0.77418
 C3003 C 0.72468 0.96571 0.78790
 C3004 C 0.71804 0.95548 0.79427
 H3005 H 0.67940 0.91230 0.79095
 H3006 H 0.66979 0.89259 0.80067
 H3007 H 0.70078 0.89217 0.82970
 H3008 H 0.71021 0.91192 0.81981
 H3009 H 0.70859 0.93773 0.76759
 H3010 H 0.72005 0.95582 0.75635
 H3011 H 0.72930 0.97339 0.79364
 H3012 H 0.71754 0.95540 0.80485
 C3013 C 0.19543 0.41314 0.80427
 C3014 C 0.18391 0.40766 0.79915
 C3015 C 0.17849 0.39634 0.80477
 C3016 C 0.18452 0.39028 0.81563
 C3017 C 0.19607 0.39595 0.82075
 C3018 C 0.20147 0.40728 0.81510
 C3019 C 0.20122 0.42457 0.79822
 C3020 C 0.20621 0.43401 0.79304
 C3021 C 0.21239 0.44509 0.78673
 C3022 C 0.20597 0.45171 0.77653
 C3023 C 0.21230 0.46201 0.76995
 C3024 C 0.22509 0.46573 0.77352
 C3025 C 0.23139 0.45924 0.78389
 C3026 C 0.22507 0.44896 0.79046
 H3027 H 0.17916 0.41211 0.79075
 H3028 H 0.16959 0.39238 0.80055
 H3029 H 0.20104 0.39163 0.82905
 H3030 H 0.21041 0.41142 0.81913
 H3031 H 0.19618 0.44879 0.77354
 H3032 H 0.20734 0.46693 0.76194
 H3033 H 0.24127 0.46202 0.78673
 H3034 H 0.23013 0.44390 0.79832
 C3035 C 0.19544 0.91292 0.30441
 C3036 C 0.20092 0.90746 0.31572
 C3037 C 0.19532 0.89626 0.32140
 C3038 C 0.18414 0.89032 0.31583
 C3039 C 0.17868 0.89594 0.30446
 C3040 C 0.18430 0.90715 0.29881
 C3041 C 0.20141 0.92426 0.29841
 C3042 C 0.20653 0.93365 0.29328
 C3043 C 0.21279 0.94467 0.28700
 C3044 C 0.22547 0.94849 0.29077
 C3045 C 0.23185 0.95875 0.28422
 C3046 C 0.22559 0.96526 0.27384
 C3047 C 0.21279 0.96159 0.27024
 C3048 C 0.20642 0.95132 0.27679
 H3049 H 0.20957 0.91184 0.32013
 H3050 H 0.19983 0.89232 0.33014
 H3051 H 0.17011 0.89171 0.29984
 H3052 H 0.18000 0.91127 0.29002
 H3053 H 0.23049 0.94340 0.29864
 H3054 H 0.24173 0.96150 0.28708
 H3055 H 0.20787 0.96653 0.26223
 H3056 H 0.19662 0.94843 0.27378
 C3057 C 0.41282 0.30382 0.69567
 C3058 C 0.40654 0.31446 0.70171
 C3059 C 0.39533 0.32008 0.69605
 C3060 C 0.39023 0.31511 0.68424
 C3061 C 0.39666 0.30439 0.67825
 C3062 C 0.40786 0.29879 0.68394
 C3063 C 0.42423 0.29792 0.70161
 C3064 C 0.43369 0.29289 0.70669
 C3065 C 0.44481 0.28675 0.71292
 C3066 C 0.44857 0.29065 0.72551
 C3067 C 0.45892 0.28423 0.73187
 C3068 C 0.46556 0.27382 0.72569
 C3069 C 0.46196 0.27011 0.71297
 C3070 C 0.45161 0.27655 0.70661
 H3071 H 0.41026 0.31840 0.71083
 H3072 H 0.39069 0.32825 0.70102
 H3073 H 0.39313 0.30029 0.66916
 H3074 H 0.41263 0.29053 0.67919
 H3075 H 0.44338 0.29852 0.73047
 H3076 H 0.46160 0.28717 0.74169
 H3077 H 0.46700 0.26208 0.70811
 H3078 H 0.44878 0.27344 0.69688
 C3079 C 0.41291 0.80462 0.19607
 C3080 C 0.40696 0.79825 0.18550
 C3081 C 0.39562 0.80352 0.17980
 C3082 C 0.39005 0.81525 0.18462
 C3083 C 0.39614 0.82157 0.19529
 C3084 C 0.40747 0.81627 0.20097
 C3085 C 0.42443 0.79899 0.20201
 C3086 C 0.43395 0.79400 0.20699
 C3087 C 0.44509 0.78772 0.21300
 C3088 C 0.44870 0.77496 0.20920
 C3089 C 0.45897 0.76846 0.21560
 C3090 C 0.46567 0.77468 0.22587
 C3091 C 0.46227 0.78758 0.22943
 C3092 C 0.45199 0.79408 0.22303
 H3093 H 0.41107 0.78918 0.18168
 H3094 H 0.39123 0.79831 0.17169
 H3095 H 0.39224 0.83063 0.19927
 H3096 H 0.41198 0.82127 0.20918
 H3097 H 0.44343 0.76997 0.20145
 H3098 H 0.46154 0.75851 0.21274
 H3099 H 0.46741 0.79248 0.23732
 H3100 H 0.44929 0.80395 0.22602
 C3101 C 0.91309 0.30439 0.19548
 C3102 C 0.90754 0.29868 0.18434
 C3103 C 0.89633 0.30422 0.17863
 C3104 C 0.89049 0.31559 0.18400
 C3105 C 0.89620 0.32127 0.19520
 C3106 C 0.90741 0.31570 0.20089
 C3107 C 0.92446 0.29850 0.20150
 C3108 C 0.93387 0.29343 0.20662
 C3109 C 0.94493 0.28719 0.21287
 C3110 C 0.95165 0.27696 0.20654
 C3111 C 0.96193 0.27041 0.21290
 C3112 C 0.96553 0.27404 0.22563
 C3113 C 0.95896 0.28447 0.23184
 C3114 C 0.94868 0.29101 0.22548
 H3115 H 0.91184 0.28989 0.18009
 H3116 H 0.89230 0.29953 0.17004
 H3117 H 0.89206 0.32999 0.19966
 H3118 H 0.91161 0.32018 0.20955
 H3119 H 0.94882 0.27392 0.19679
 H3120 H 0.96692 0.26236 0.20801
 H3121 H 0.96164 0.28736 0.24168
 H3122 H 0.94353 0.29889 0.23047
 C3123 C 0.91285 0.80479 0.69584
 C3124 C 0.90745 0.79922 0.68456
 C3125 C 0.89618 0.80469 0.67890
 C3126 C 0.89011 0.81584 0.68446
 C3127 C 0.89568 0.82139 0.69580
 C3128 C 0.90695 0.81589 0.70144
 C3129 C 0.92428 0.79895 0.70182
 C3130 C 0.93373 0.79390 0.70690
 C3131 C 0.94484 0.78767 0.71308
 C3132 C 0.95154 0.77744 0.70672
 C3133 C 0.96184 0.77088 0.71303
 C3134 C 0.96550 0.77449 0.72575
 C3135 C 0.95896 0.78493 0.73200
 C3136 C 0.94865 0.79148 0.72568
 H3137 H 0.91192 0.79059 0.68016
 H3138 H 0.89226 0.80009 0.67021
 H3139 H 0.89137 0.82995 0.70041
 H3140 H 0.91103 0.82028 0.71021
 H3141 H 0.94866 0.77441 0.69698
 H3142 H 0.96680 0.76283 0.70812
 H3143 H 0.96168 0.78780 0.74183
 H3144 H 0.94353 0.79936 0.73070
 C3145 C 0.58693 0.30418 0.30440
 C3146 C 0.59230 0.31578 0.29933
 C3147 C 0.60357 0.32126 0.30496
 C3148 C 0.60966 0.31519 0.31577
 C3149 C 0.60409 0.30355 0.32084
 C3150 C 0.59282 0.29809 0.31518
 C3151 C 0.57555 0.29834 0.29838
 C3152 C 0.56613 0.29331 0.29324
 C3153 C 0.55508 0.28711 0.28698
 C3154 C 0.54862 0.29342 0.27663
 C3155 C 0.53832 0.28709 0.27011
 C3156 C 0.53447 0.27438 0.27388
 C3157 C 0.54080 0.26817 0.28440
 C3158 C 0.55108 0.27451 0.29092
 H3159 H 0.58783 0.32057 0.29096
 H3160 H 0.60745 0.33024 0.30080
 H3161 H 0.60845 0.29853 0.32910
 H3162 H 0.58876 0.28908 0.31917
 H3163 H 0.55166 0.30315 0.27348
 H3164 H 0.53353 0.29196 0.26198
 H3165 H 0.53792 0.25834 0.28738
 H3166 H 0.55603 0.26952 0.29889
 C3167 C 0.58673 0.80453 0.80452
 C3168 C 0.59220 0.81600 0.79925
 C3169 C 0.60347 0.82154 0.80483
 C3170 C 0.60946 0.81566 0.81580
 C3171 C 0.60380 0.80414 0.82106
 C3172 C 0.59253 0.79864 0.81545
 C3173 C 0.57534 0.79862 0.79857
 C3174 C 0.56592 0.79353 0.79350
 C3175 C 0.55486 0.78729 0.78729
 C3176 C 0.55088 0.79133 0.77480
 C3177 C 0.54058 0.78483 0.76846
 C3178 C 0.53418 0.77424 0.77458
 C3179 C 0.53802 0.77036 0.78717
 C3180 C 0.54834 0.77685 0.79350
 H3181 H 0.58779 0.82064 0.79077
 H3182 H 0.60744 0.83039 0.80049
 H3183 H 0.60804 0.79928 0.82946
 H3184 H 0.58840 0.78973 0.81961
 H3185 H 0.55587 0.79936 0.76990
 H3186 H 0.53772 0.78789 0.75872
 H3187 H 0.53319 0.76216 0.79196
 H3188 H 0.55137 0.77362 0.80314
 C3189 C 0.08668 0.30402 0.80459
 C3190 C 0.09205 0.31555 0.79932
 C3191 C 0.10342 0.32105 0.80476
 C3192 C 0.10961 0.31507 0.81557
 C3193 C 0.10403 0.30351 0.82083
 C3194 C 0.09268 0.29804 0.81537
 C3195 C 0.07523 0.29810 0.79874
 C3196 C 0.06580 0.29298 0.79373
 C3197 C 0.05474 0.28670 0.78752
 C3198 C 0.05060 0.29092 0.77515
 C3199 C 0.04035 0.28439 0.76876
 C3200 C 0.03417 0.27358 0.77471
 C3201 C 0.03817 0.26951 0.78720
 C3202 C 0.04844 0.27604 0.79358
 H3203 H 0.08749 0.32025 0.79095
 H3204 H 0.10731 0.32995 0.80044
 H3205 H 0.10844 0.29856 0.82909
 H3206 H 0.08863 0.28909 0.81951
 H3207 H 0.05542 0.29913 0.77036
 H3208 H 0.03736 0.28760 0.75911
 H3209 H 0.03349 0.26115 0.79187
 H3210 H 0.05158 0.27267 0.80313
 C3211 C 0.08622 0.80443 0.30469
 C3212 C 0.09204 0.81555 0.29906
 C3213 C 0.10326 0.82112 0.30469
 C3214 C 0.10884 0.81562 0.31607
 C3215 C 0.10283 0.80446 0.32167
 C3216 C 0.09162 0.79892 0.31601
 C3217 C 0.07491 0.79846 0.29868
 C3218 C 0.06558 0.79329 0.29356
 C3219 C 0.05465 0.78690 0.28730
 C3220 C 0.04527 0.79434 0.28051
 C3221 C 0.03503 0.78802 0.27387
 C3222 C 0.03416 0.77423 0.27396
 C3223 C 0.04345 0.76683 0.28099
 C3224 C 0.05365 0.77314 0.28762
 H3225 H 0.08796 0.81987 0.29026
 H3226 H 0.10754 0.82967 0.30005
 H3227 H 0.10674 0.79992 0.33040
 H3228 H 0.08720 0.79028 0.32043
 H3229 H 0.04597 0.80498 0.28019
 H3230 H 0.02794 0.79385 0.26848
 H3231 H 0.04287 0.75617 0.28116
 H3232 H 0.06086 0.76730 0.29285
 C3233 C 0.58680 0.69612 0.69566
 C3234 C 0.59220 0.68459 0.70090
 C3235 C 0.60352 0.67906 0.69537
 C3236 C 0.60963 0.68500 0.68449
 C3237 C 0.60403 0.69655 0.67925
 C3238 C 0.59271 0.70205 0.68480
 C3239 C 0.57539 0.70205 0.70159
 C3240 C 0.56596 0.70716 0.70667
 C3241 C 0.55490 0.71343 0.71291
 C3242 C 0.55050 0.70894 0.72511
 C3243 C 0.54020 0.71543 0.73151
 C3244 C 0.53425 0.72648 0.72575
 C3245 C 0.53853 0.73083 0.71343
 C3246 C 0.54883 0.72433 0.70704
 H3247 H 0.58771 0.67991 0.70932
 H3248 H 0.60744 0.67015 0.69967
 H3249 H 0.60838 0.70146 0.67093
 H3250 H 0.58863 0.71099 0.68067
 H3251 H 0.55515 0.70054 0.72975
 H3252 H 0.53701 0.71201 0.74102
 H3253 H 0.53403 0.73937 0.70892
 H3254 H 0.55218 0.72791 0.69763
 C3255 C 0.58706 0.19563 0.19569
 C3256 C 0.59232 0.18396 0.20073
 C3257 C 0.60364 0.17847 0.19516
 C3258 C 0.60988 0.18461 0.18446
 C3259 C 0.60445 0.19635 0.17947
 C3260 C 0.59314 0.20181 0.18505
 C3261 C 0.57560 0.20146 0.20160
 C3262 C 0.56613 0.20650 0.20665
 C3263 C 0.55505 0.21270 0.21287
 C3264 C 0.54860 0.20640 0.22324
 C3265 C 0.53836 0.21278 0.22984
 C3266 C 0.53454 0.22552 0.22611
 C3267 C 0.54082 0.23170 0.21553
 C3268 C 0.55106 0.22531 0.20895
 H3269 H 0.58771 0.17912 0.20898
 H3270 H 0.60744 0.16944 0.19930
 H3271 H 0.60890 0.20141 0.17129
 H3272 H 0.58916 0.21088 0.18111
 H3273 H 0.55162 0.19666 0.22636
 H3274 H 0.53357 0.20792 0.23798
 H3275 H 0.53794 0.24153 0.21256
 H3276 H 0.55599 0.23027 0.20094
 C3277 C 0.08656 0.69578 0.19557
 C3278 C 0.09224 0.68450 0.20103
 C3279 C 0.10341 0.67887 0.19533
 C3280 C 0.10910 0.68446 0.18405
 C3281 C 0.10326 0.69581 0.17864
 C3282 C 0.09209 0.70142 0.18436
 C3283 C 0.07525 0.70176 0.20162
 C3284 C 0.06590 0.70691 0.20677
 C3285 C 0.05494 0.71323 0.21309
 C3286 C 0.05386 0.71289 0.22674
 C3287 C 0.04360 0.71955 0.23298
 C3288 C 0.03432 0.72663 0.22562
 C3289 C 0.03529 0.72678 0.21193
 C3290 C 0.04558 0.72011 0.20569
 H3291 H 0.08806 0.68008 0.20975
 H3292 H 0.10756 0.67017 0.19983
 H3293 H 0.10727 0.70045 0.17000
 H3294 H 0.08779 0.71019 0.18008
 H3295 H 0.06105 0.70761 0.23255
 H3296 H 0.04296 0.71935 0.24355
 H3297 H 0.02823 0.73223 0.20614
 H3298 H 0.04635 0.72046 0.19513
 C3299 C 0.08679 0.19582 0.69564
 C3300 C 0.09251 0.18461 0.70122
 C3301 C 0.10384 0.17910 0.69570
 C3302 C 0.10964 0.18473 0.68450
 C3303 C 0.10373 0.19598 0.67895
 C3304 C 0.09240 0.20147 0.68449
 C3305 C 0.07535 0.20170 0.70154
 C3306 C 0.06589 0.20677 0.70661
 C3307 C 0.05481 0.21297 0.71284
 C3308 C 0.05059 0.20863 0.72515
 C3309 C 0.04031 0.21512 0.73156
 C3310 C 0.03418 0.22601 0.72569
 C3311 C 0.03825 0.23019 0.71325
 C3312 C 0.04854 0.22369 0.70685
 H3313 H 0.08825 0.18017 0.70988
 H3314 H 0.10801 0.17045 0.70028
 H3315 H 0.10782 0.20065 0.67036
 H3316 H 0.08807 0.21017 0.68011
 H3317 H 0.05539 0.20037 0.72987
 H3318 H 0.03726 0.21183 0.74117
 H3319 H 0.03360 0.23860 0.70864
 H3320 H 0.05175 0.22715 0.69734
 C3321 C 0.41306 0.69556 0.30401
 C3322 C 0.40739 0.68429 0.29856
 C3323 C 0.39615 0.67875 0.30420
 C3324 C 0.39038 0.68443 0.31539
 C3325 C 0.39624 0.69575 0.32082
 C3326 C 0.40748 0.70126 0.31516
 C3327 C 0.42442 0.70146 0.29800
 C3328 C 0.43381 0.70655 0.29287
 C3329 C 0.44483 0.71283 0.28661
 C3330 C 0.45150 0.70645 0.27642
 C3331 C 0.46177 0.71285 0.26990
 C3332 C 0.46540 0.72566 0.27352
 C3333 C 0.45885 0.73193 0.28388
 C3334 C 0.44859 0.72553 0.29040
 H3335 H 0.41162 0.67982 0.28990
 H3336 H 0.39201 0.67005 0.29971
 H3337 H 0.39216 0.70045 0.32939
 H3338 H 0.41177 0.71002 0.31944
 H3339 H 0.44864 0.69663 0.27341
 H3340 H 0.46674 0.70792 0.26190
 H3341 H 0.46157 0.74183 0.28675
 H3342 H 0.44348 0.73055 0.29825
 C3343 C 0.41312 0.19502 0.80390
 C3344 C 0.40753 0.18365 0.79857
 C3345 C 0.39623 0.17818 0.80419
 C3346 C 0.39034 0.18403 0.81523
 C3347 C 0.39613 0.19544 0.82054
 C3348 C 0.40742 0.20088 0.81490
 C3349 C 0.42453 0.20088 0.79793
 C3350 C 0.43396 0.20598 0.79288
 C3351 C 0.44502 0.21231 0.78675
 C3352 C 0.44881 0.20869 0.77408
 C3353 C 0.45908 0.21535 0.76783
 C3354 C 0.46560 0.22568 0.77421
 C3355 C 0.46195 0.22913 0.78699
 C3356 C 0.45168 0.22247 0.79323
 H3357 H 0.41185 0.17905 0.79002
 H3358 H 0.39215 0.16940 0.79980
 H3359 H 0.39195 0.20028 0.82899
 H3360 H 0.41166 0.20971 0.81909
 H3361 H 0.44371 0.20087 0.76897
 H3362 H 0.46181 0.21262 0.75795
 H3363 H 0.46690 0.23711 0.79199
 H3364 H 0.44879 0.22537 0.80302
 C3365 C 0.91292 0.69544 0.80393
 C3366 C 0.90802 0.70046 0.81571
 C3367 C 0.89685 0.69489 0.82146
 C3368 C 0.89037 0.68420 0.81550
 C3369 C 0.89544 0.67920 0.80367
 C3370 C 0.90662 0.68480 0.79794
 C3371 C 0.92425 0.70140 0.79790
 C3372 C 0.93364 0.70654 0.79281
 C3373 C 0.94469 0.71286 0.78663
 C3374 C 0.95143 0.72297 0.79310
 C3375 C 0.96174 0.72956 0.78684
 C3376 C 0.96536 0.72609 0.77405
 C3377 C 0.95875 0.71580 0.76768
 C3378 C 0.94845 0.70922 0.77395
 H3379 H 0.91281 0.70871 0.82043
 H3380 H 0.89336 0.69900 0.83057
 H3381 H 0.89076 0.67105 0.79873
 H3382 H 0.91031 0.68086 0.78879
 H3383 H 0.94858 0.72588 0.80289
 H3384 H 0.96675 0.73751 0.79184
 H3385 H 0.96145 0.71305 0.75780
 H3386 H 0.94329 0.70142 0.76886
 C3387 C 0.91293 0.19549 0.30393
 C3388 C 0.90688 0.18461 0.29810
 C3389 C 0.89571 0.17898 0.30381
 C3390 C 0.89040 0.18418 0.31545
 C3391 C 0.89661 0.19513 0.32122
 C3392 C 0.90778 0.20073 0.31549
 C3393 C 0.92429 0.20142 0.29794
 C3394 C 0.93371 0.20652 0.29288
 C3395 C 0.94480 0.21279 0.28673
 C3396 C 0.94855 0.20915 0.27405
 C3397 C 0.95888 0.21571 0.26780
 C3398 C 0.96552 0.22596 0.27420
 C3399 C 0.96192 0.22942 0.28699
 C3400 C 0.95157 0.22286 0.29323
 H3401 H 0.91077 0.18050 0.28911
 H3402 H 0.89124 0.17063 0.29901
 H3403 H 0.89292 0.19942 0.33017
 H3404 H 0.91237 0.20917 0.32007
 H3405 H 0.94336 0.20140 0.26893
 H3406 H 0.96156 0.21298 0.25791
 H3407 H 0.96694 0.23735 0.29200
 H3408 H 0.94873 0.22577 0.30302
 C3409 C 0.30429 0.30490 0.58603
 C3410 C 0.31562 0.29933 0.59147
 C3411 C 0.32118 0.30476 0.60275
 C3412 C 0.31546 0.31586 0.60878
 C3413 C 0.30411 0.32143 0.60311
 C3414 C 0.29858 0.31598 0.59184
 C3415 C 0.29829 0.29899 0.57473
 C3416 C 0.29310 0.29388 0.56543
 C3417 C 0.28669 0.28757 0.55458
 C3418 C 0.29411 0.28088 0.54513
 C3419 C 0.28780 0.27414 0.53499
 C3420 C 0.27400 0.27403 0.53427
 C3421 C 0.26662 0.28097 0.54362
 C3422 C 0.27294 0.28769 0.55374
 H3423 H 0.32011 0.29072 0.58707
 H3424 H 0.32990 0.30016 0.60672
 H3425 H 0.29939 0.32996 0.60738
 H3426 H 0.28978 0.32036 0.58772
 H3427 H 0.30476 0.28071 0.54570
 H3428 H 0.29362 0.26884 0.52785
 H3429 H 0.25597 0.28100 0.54316
 H3430 H 0.26711 0.29282 0.56100
 C3431 C 0.30510 0.80530 0.08525
 C3432 C 0.31653 0.79986 0.09063
 C3433 C 0.32220 0.80546 0.10177
 C3434 C 0.31650 0.81660 0.10774
 C3435 C 0.30508 0.82207 0.10213
 C3436 C 0.29943 0.81644 0.09098
 C3437 C 0.29895 0.79917 0.07414
 C3438 C 0.29364 0.79388 0.06501
 C3439 C 0.28712 0.78739 0.05432
 C3440 C 0.29444 0.78056 0.04489
 C3441 C 0.28803 0.77383 0.03482
 C3442 C 0.27424 0.77385 0.03413
 C3443 C 0.26694 0.78085 0.04350
 C3444 C 0.27336 0.78758 0.05356
 H3445 H 0.32099 0.79121 0.08627
 H3446 H 0.33099 0.80095 0.10569
 H3447 H 0.30036 0.83062 0.10634
 H3448 H 0.29056 0.82072 0.08691
 H3449 H 0.30508 0.78031 0.04541
 H3450 H 0.29378 0.76843 0.02767
 H3451 H 0.25629 0.78096 0.04309
 H3452 H 0.26760 0.79280 0.06081
 C3453 C 0.80448 0.30478 0.08590
 C3454 C 0.81586 0.29930 0.09134
 C3455 C 0.82145 0.30485 0.10255
 C3456 C 0.81572 0.31598 0.10850
 C3457 C 0.80432 0.32146 0.10286
 C3458 C 0.79875 0.31589 0.09165
 C3459 C 0.79848 0.29881 0.07463
 C3460 C 0.79329 0.29368 0.06534
 C3461 C 0.78687 0.28740 0.05448
 C3462 C 0.79428 0.28080 0.04495
 C3463 C 0.78794 0.27413 0.03478
 C3464 C 0.77415 0.27400 0.03409
 C3465 C 0.76678 0.28085 0.04352
 C3466 C 0.77312 0.28750 0.05367
 H3467 H 0.82036 0.29067 0.08698
 H3468 H 0.83021 0.30032 0.10651
 H3469 H 0.79958 0.33000 0.10707
 H3470 H 0.78992 0.32019 0.08754
 H3471 H 0.80492 0.28065 0.04550
 H3472 H 0.79375 0.26889 0.02758
 H3473 H 0.75613 0.28087 0.04309
 H3474 H 0.76730 0.29257 0.06099
 C3475 C 0.80446 0.80528 0.58587
 C3476 C 0.81583 0.79978 0.59131
 C3477 C 0.82143 0.80531 0.60252
 C3478 C 0.81572 0.81644 0.60850
 C3479 C 0.80433 0.82194 0.60285
 C3480 C 0.79875 0.81639 0.59164
 C3481 C 0.79843 0.79930 0.57460
 C3482 C 0.79323 0.79416 0.56532
 C3483 C 0.78682 0.78784 0.55446
 C3484 C 0.79423 0.78118 0.54498
 C3485 C 0.78791 0.77448 0.53482
 C3486 C 0.77411 0.77435 0.53410
 C3487 C 0.76674 0.78125 0.54349
 C3488 C 0.77307 0.78794 0.55363
 H3489 H 0.82032 0.79115 0.58694
 H3490 H 0.83019 0.80077 0.60648
 H3491 H 0.79960 0.83048 0.60707
 H3492 H 0.78992 0.82071 0.58753
 H3493 H 0.80488 0.78103 0.54554
 H3494 H 0.79373 0.76920 0.52765
 H3495 H 0.75609 0.78128 0.54304
 H3496 H 0.76723 0.79306 0.56091
 C3497 C 0.30472 0.69514 0.41381
 C3498 C 0.29894 0.68409 0.40804
 C3499 C 0.30448 0.67850 0.39682
 C3500 C 0.31591 0.68391 0.39116
 C3501 C 0.32171 0.69497 0.39715
 C3502 C 0.31614 0.70054 0.40837
 C3503 C 0.29872 0.70119 0.42506
 C3504 C 0.29354 0.70639 0.43433
 C3505 C 0.28714 0.71278 0.44517
 C3506 C 0.27341 0.71241 0.44622
 C3507 C 0.26709 0.71913 0.45636
 C3508 C 0.27445 0.72629 0.46554
 C3509 C 0.28823 0.72645 0.46459
 C3510 C 0.29455 0.71973 0.45443
 H3511 H 0.29007 0.67985 0.41216
 H3512 H 0.29969 0.67001 0.39258
 H3513 H 0.33051 0.69942 0.39320
 H3514 H 0.32070 0.70911 0.41275
 H3515 H 0.26759 0.70708 0.43911
 H3516 H 0.25645 0.71890 0.45699
 H3517 H 0.29403 0.73195 0.47159
 H3518 H 0.30518 0.72009 0.45369
 C3519 C 0.30432 0.19489 0.91372
 C3520 C 0.29865 0.18380 0.90791
 C3521 C 0.30418 0.17837 0.89661
 C3522 C 0.31551 0.18396 0.89091
 C3523 C 0.32120 0.19506 0.89693
 C3524 C 0.31563 0.20047 0.90823
 C3525 C 0.29833 0.20076 0.92507
 C3526 C 0.29320 0.20584 0.93444
 C3527 C 0.28695 0.21214 0.94541
 C3528 C 0.27602 0.20630 0.95143
 C3529 C 0.26953 0.21279 0.96164
 C3530 C 0.27391 0.22517 0.96586
 C3531 C 0.28500 0.23090 0.95997
 C3532 C 0.29148 0.22440 0.94978
 H3533 H 0.28987 0.17941 0.91206
 H3534 H 0.29948 0.16984 0.89237
 H3535 H 0.32991 0.19965 0.89294
 H3536 H 0.32010 0.20907 0.91264
 H3537 H 0.27240 0.19684 0.94810
 H3538 H 0.26096 0.20829 0.96610
 H3539 H 0.28846 0.24046 0.96315
 H3540 H 0.29991 0.22902 0.94518
 C3541 C 0.80456 0.69520 0.91404
 C3542 C 0.79881 0.68414 0.90825
 C3543 C 0.80428 0.67867 0.89694
 C3544 C 0.81562 0.68420 0.89120
 C3545 C 0.82138 0.69528 0.89720
 C3546 C 0.81588 0.70073 0.90851
 C3547 C 0.79861 0.70111 0.92540
 C3548 C 0.79343 0.70618 0.93474
 C3549 C 0.78700 0.71244 0.94565
 C3550 C 0.77326 0.71221 0.94657
 C3551 C 0.76690 0.71889 0.95671
 C3552 C 0.77423 0.72589 0.96603
 C3553 C 0.78802 0.72587 0.96525
 C3554 C 0.79438 0.71918 0.95508
 H3555 H 0.79002 0.67980 0.91242
 H3556 H 0.79953 0.67017 0.89271
 H3557 H 0.83010 0.69984 0.89317
 H3558 H 0.82040 0.70932 0.91290
 H3559 H 0.76745 0.70702 0.93934
 H3560 H 0.75625 0.71878 0.95722
 H3561 H 0.79381 0.73123 0.97236
 H3562 H 0.80502 0.71943 0.95445
 C3563 C 0.80437 0.19534 0.41356
 C3564 C 0.81579 0.20072 0.40811
 C3565 C 0.82137 0.19512 0.39691
 C3566 C 0.81559 0.18403 0.39095
 C3567 C 0.80413 0.17866 0.39659
 C3568 C 0.79858 0.18428 0.40780
 C3569 C 0.79842 0.20134 0.42487
 C3570 C 0.79330 0.20648 0.43421
 C3571 C 0.78696 0.21278 0.44514
 C3572 C 0.79442 0.21964 0.45443
 C3573 C 0.78815 0.22629 0.46467
 C3574 C 0.77437 0.22616 0.46568
 C3575 C 0.76697 0.21907 0.45648
 C3576 C 0.77324 0.21243 0.44626
 H3577 H 0.82034 0.20930 0.41247
 H3578 H 0.83017 0.19956 0.39295
 H3579 H 0.79935 0.17016 0.39237
 H3580 H 0.78971 0.18005 0.41191
 H3581 H 0.80504 0.21999 0.45364
 H3582 H 0.79399 0.23174 0.47168
 H3583 H 0.75633 0.21886 0.45714
 H3584 H 0.76737 0.20717 0.43913
 C3585 C 0.69486 0.30464 0.41438
 C3586 C 0.68379 0.29894 0.40860
 C3587 C 0.67832 0.30447 0.39733
 C3588 C 0.68387 0.31583 0.39164
 C3589 C 0.69496 0.32155 0.39762
 C3590 C 0.70041 0.31598 0.40890
 C3591 C 0.70077 0.29860 0.42565
 C3592 C 0.70586 0.29334 0.43493
 C3593 C 0.71215 0.28684 0.44574
 C3594 C 0.71186 0.27307 0.44660
 C3595 C 0.71859 0.26664 0.45665
 C3596 C 0.72570 0.27394 0.46592
 C3597 C 0.72574 0.28775 0.46519
 C3598 C 0.71900 0.29417 0.45512
 H3599 H 0.67944 0.29013 0.41274
 H3600 H 0.66981 0.29974 0.39310
 H3601 H 0.69953 0.33028 0.39362
 H3602 H 0.70902 0.32046 0.41328
 H3603 H 0.70658 0.26731 0.43940
 H3604 H 0.71843 0.25598 0.45714
 H3605 H 0.73117 0.29350 0.47228
 H3606 H 0.71929 0.30482 0.45453
 C3607 C 0.69515 0.80467 0.91420
 C3608 C 0.70062 0.81601 0.90867
 C3609 C 0.69514 0.82150 0.89738
 C3610 C 0.68408 0.81570 0.89141
 C3611 C 0.67859 0.80434 0.89715
 C3612 C 0.68410 0.79888 0.90845
 C3613 C 0.70113 0.79871 0.92551
 C3614 C 0.70629 0.79354 0.93480
 C3615 C 0.71262 0.78709 0.94563
 C3616 C 0.71933 0.79447 0.95508
 C3617 C 0.72603 0.78808 0.96522
 C3618 C 0.72608 0.77426 0.96595
 C3619 C 0.71914 0.76694 0.95658
 C3620 C 0.71246 0.77332 0.94647
 H3621 H 0.70920 0.82056 0.91303
 H3622 H 0.69967 0.83024 0.89336
 H3623 H 0.67010 0.79956 0.89293
 H3624 H 0.67980 0.79006 0.91263
 H3625 H 0.71954 0.80512 0.95451
 H3626 H 0.73134 0.79386 0.97238
 H3627 H 0.71906 0.75627 0.95704
 H3628 H 0.70732 0.76752 0.93920
 C3629 C 0.19532 0.30457 0.91402
 C3630 C 0.18403 0.29896 0.90855
 C3631 C 0.17849 0.30434 0.89722
 C3632 C 0.18420 0.31543 0.89117
 C3633 C 0.19548 0.32106 0.89688
 C3634 C 0.20098 0.31566 0.90820
 C3635 C 0.20134 0.29871 0.92536
 C3636 C 0.20657 0.29368 0.93469
 C3637 C 0.21299 0.28745 0.94561
 C3638 C 0.20868 0.27511 0.95000
 C3639 C 0.21534 0.26870 0.96013
 C3640 C 0.22637 0.27459 0.96592
 C3641 C 0.23053 0.28704 0.96167
 C3642 C 0.22387 0.29345 0.95153
 H3643 H 0.17956 0.29035 0.91298
 H3644 H 0.16980 0.29973 0.89323
 H3645 H 0.20019 0.32958 0.89261
 H3646 H 0.20974 0.32007 0.91234
 H3647 H 0.20029 0.27038 0.94547
 H3648 H 0.21204 0.25908 0.96332
 H3649 H 0.23905 0.29166 0.96607
 H3650 H 0.22732 0.30297 0.94819
 C3651 C 0.19488 0.80438 0.41396
 C3652 C 0.18385 0.79859 0.40820
 C3653 C 0.17833 0.80408 0.39693
 C3654 C 0.18380 0.81547 0.39123
 C3655 C 0.19486 0.82126 0.39720
 C3656 C 0.20035 0.81574 0.40847
 C3657 C 0.20085 0.79841 0.42525
 C3658 C 0.20599 0.79323 0.43454
 C3659 C 0.21232 0.78683 0.44539
 C3660 C 0.21199 0.77307 0.44639
 C3661 C 0.21871 0.76673 0.45650
 C3662 C 0.22585 0.77410 0.46568
 C3663 C 0.22595 0.78790 0.46480
 C3664 C 0.21922 0.79424 0.45467
 H3665 H 0.17956 0.78976 0.41236
 H3666 H 0.16985 0.79929 0.39269
 H3667 H 0.19936 0.83003 0.39321
 H3668 H 0.20893 0.82029 0.41284
 H3669 H 0.20668 0.76726 0.43925
 H3670 H 0.21852 0.75608 0.45708
 H3671 H 0.23142 0.79370 0.47182
 H3672 H 0.21956 0.80488 0.45396
 C3673 C 0.69529 0.69550 0.58598
 C3674 C 0.70075 0.68414 0.59149
 C3675 C 0.69520 0.67859 0.60273
 C3676 C 0.68408 0.68436 0.60867
 C3677 C 0.67862 0.69575 0.60296
 C3678 C 0.68420 0.70127 0.59172
 C3679 C 0.70129 0.70148 0.57468
 C3680 C 0.70642 0.70668 0.56537
 C3681 C 0.71269 0.71317 0.55451
 C3682 C 0.71929 0.70582 0.54493
 C3683 C 0.72590 0.71225 0.53475
 C3684 C 0.72599 0.72607 0.53411
 C3685 C 0.71915 0.73336 0.54360
 C3686 C 0.71255 0.72694 0.55375
 H3687 H 0.70937 0.67961 0.58715
 H3688 H 0.69972 0.66984 0.60675
 H3689 H 0.67009 0.70051 0.60716
 H3690 H 0.67991 0.71010 0.58755
 H3691 H 0.71947 0.69517 0.54543
 H3692 H 0.73114 0.70648 0.52751
 H3693 H 0.71910 0.74403 0.54322
 H3694 H 0.70749 0.73272 0.56111
 C3695 C 0.69538 0.19526 0.08601
 C3696 C 0.68420 0.20087 0.09172
 C3697 C 0.67858 0.19517 0.10285
 C3698 C 0.68410 0.18376 0.10848
 C3699 C 0.69528 0.17813 0.10255
 C3700 C 0.70088 0.18385 0.09141
 C3701 C 0.70136 0.20139 0.07479
 C3702 C 0.70646 0.20667 0.06551
 C3703 C 0.71270 0.21312 0.05461
 C3704 C 0.71250 0.22688 0.05371
 C3705 C 0.71910 0.23322 0.04350
 C3706 C 0.72599 0.22584 0.03411
 C3707 C 0.72596 0.21203 0.03490
 C3708 C 0.71935 0.20570 0.04513
 H3709 H 0.67986 0.20970 0.08762
 H3710 H 0.66998 0.19982 0.10702
 H3711 H 0.69982 0.16935 0.10649
 H3712 H 0.70954 0.17943 0.08706
 H3713 H 0.70739 0.23272 0.06099
 H3714 H 0.71902 0.24388 0.04300
 H3715 H 0.73124 0.20621 0.02774
 H3716 H 0.71957 0.19505 0.04574
 C3717 C 0.19510 0.69576 0.08598
 C3718 C 0.20059 0.68438 0.09143
 C3719 C 0.19510 0.67882 0.10269
 C3720 C 0.18401 0.68457 0.10869
 C3721 C 0.17854 0.69600 0.10305
 C3722 C 0.18406 0.70154 0.09179
 C3723 C 0.20101 0.70171 0.07463
 C3724 C 0.20611 0.70685 0.06528
 C3725 C 0.21239 0.71320 0.05436
 C3726 C 0.21908 0.70573 0.04494
 C3727 C 0.22580 0.71202 0.03475
 C3728 C 0.22591 0.72582 0.03395
 C3729 C 0.21897 0.73325 0.04326
 C3730 C 0.21226 0.72696 0.05343
 H3731 H 0.20917 0.67985 0.08703
 H3732 H 0.19962 0.67004 0.10665
 H3733 H 0.17005 0.70077 0.10731
 H3734 H 0.17975 0.71039 0.08767
 H3735 H 0.21926 0.69508 0.04559
 H3736 H 0.23113 0.70616 0.02765
 H3737 H 0.21894 0.74391 0.04275
 H3738 H 0.20712 0.73283 0.06066
 C3739 C 0.19528 0.19500 0.58600
 C3740 C 0.18415 0.20072 0.59170
 C3741 C 0.17858 0.19520 0.60294
 C3742 C 0.18409 0.18385 0.60869
 C3743 C 0.19524 0.17811 0.60278
 C3744 C 0.20079 0.18366 0.59153
 C3745 C 0.20127 0.20100 0.57471
 C3746 C 0.20639 0.20622 0.56542
 C3747 C 0.21265 0.21273 0.55456
 C3748 C 0.21246 0.22650 0.55379
 C3749 C 0.21908 0.23292 0.54364
 C3750 C 0.22598 0.22563 0.53420
 C3751 C 0.22592 0.21181 0.53486
 C3752 C 0.21929 0.20538 0.54502
 H3753 H 0.17982 0.20952 0.58751
 H3754 H 0.17001 0.19992 0.60710
 H3755 H 0.19979 0.16939 0.60682
 H3756 H 0.20943 0.17917 0.58722
 H3757 H 0.20736 0.23227 0.56112
 H3758 H 0.21900 0.24359 0.54324
 H3759 H 0.23121 0.20605 0.52764
 H3760 H 0.21950 0.19473 0.54553
   
