data_POSCAR
  _audit_creation_date              2014-09-24
  _audit_creation_method            'ToBaCCo'
  _symmetry_space_group_name_H-M    'P1'
  _symmetry_Int_Tables_number       1
  _symmetry_cell_setting            triclinic
  loop_
  _symmetry_equiv_pos_as_xyz
 x,y,z
_cell_length_a 76.3473
_cell_length_b 74.6276
_cell_length_c 75.8912
_cell_angle_alpha 89.977000
_cell_angle_beta 89.891700
_cell_angle_gamma 89.388500
loop_
  _atom_site_label
  _atom_site_type_symbol
  _atom_site_fract_x
  _atom_site_fract_y
  _atom_site_fract_z
N1 N 0.37305 0.32348 0.33959
 N2 N 0.37347 0.33638 0.32779
 C3 C 0.38571 0.33237 0.31561
 C4 C 0.39348 0.31614 0.32001
 C5 C 0.38516 0.31092 0.33539
 H6 H 0.38841 0.34042 0.30410
 H7 H 0.38709 0.29845 0.34240
 Cu8 Cu 0.35733 0.35671 0.32829
 Cu9 Cu 0.35555 0.32296 0.35832
 Cu10 Cu 0.32471 0.35713 0.35806
 N11 N 0.33846 0.37448 0.32745
 N12 N 0.32585 0.37447 0.33923
 C13 C 0.31361 0.38669 0.33476
 C14 C 0.31877 0.39490 0.31934
 C15 C 0.33471 0.38693 0.31508
 H16 H 0.30142 0.38885 0.34175
 H17 H 0.34234 0.38916 0.30327
 N18 N 0.32531 0.33843 0.37608
 N19 N 0.33670 0.32501 0.37611
 C20 C 0.33163 0.31286 0.38825
 C21 C 0.31624 0.31897 0.39598
 C22 C 0.31279 0.33524 0.38807
 H23 H 0.33771 0.29986 0.39018
 H24 H 0.30120 0.34346 0.39000
 H25 H 0.33737 0.33680 0.34364
 H26 H 0.35128 0.34996 0.35915
 N27 N 0.37604 0.82402 -0.16023
 N28 N 0.37435 0.83653 -0.17229
 C29 C 0.38637 0.83369 -0.18503
 C30 C 0.39633 0.81866 -0.18059
 C31 C 0.38941 0.81306 -0.16461
 H32 H 0.38751 0.84181 -0.19676
 H33 H 0.39285 0.80106 -0.15738
 Cu34 Cu 0.35616 0.85492 -0.17074
 Cu35 Cu 0.35901 0.82083 -0.14153
 Cu36 Cu 0.32385 0.85037 -0.14070
 N37 N 0.33576 0.87074 -0.17031
 N38 N 0.32291 0.86850 -0.15903
 C39 C 0.30991 0.88021 -0.16271
 C40 C 0.31490 0.89057 -0.17703
 C41 C 0.33152 0.88417 -0.18138
 H42 H 0.29773 0.88100 -0.15546
 H43 H 0.33957 0.88825 -0.19236
 N44 N 0.32710 0.83119 -0.12320
 N45 N 0.34033 0.81969 -0.12374
 C46 C 0.33784 0.80696 -0.11143
 C47 C 0.32243 0.81081 -0.10258
 C48 C 0.31602 0.82630 -0.11029
 H49 H 0.34625 0.79539 -0.10943
 H50 H 0.30361 0.83279 -0.10745
 H51 H 0.33868 0.83252 -0.15561
 H52 H 0.35073 0.84727 -0.13991
 N53 N 0.87568 0.32518 -0.17081
 N54 N 0.87513 0.33910 -0.18142
 C55 C 0.88635 0.33639 -0.19489
 C56 C 0.89460 0.32000 -0.19239
 C57 C 0.88757 0.31328 -0.17695
 H58 H 0.88821 0.34553 -0.20579
 H59 H 0.89030 0.30031 -0.17114
 Cu60 Cu 0.85945 0.35913 -0.17694
 Cu61 Cu 0.85936 0.32261 -0.15118
 Cu62 Cu 0.82573 0.35412 -0.14880
 N63 N 0.83928 0.37497 -0.17751
 N64 N 0.82589 0.37286 -0.16685
 C65 C 0.81340 0.38507 -0.17092
 C66 C 0.81927 0.39541 -0.18499
 C67 C 0.83586 0.38850 -0.18870
 H68 H 0.80096 0.38613 -0.16418
 H69 H 0.84469 0.39247 -0.19910
 N70 N 0.82827 0.33420 -0.13176
 N71 N 0.84125 0.32240 -0.13262
 C72 C 0.83899 0.30994 -0.12004
 C73 C 0.82384 0.31398 -0.11078
 C74 C 0.81744 0.32955 -0.11848
 H75 H 0.84745 0.29840 -0.11813
 H76 H 0.80530 0.33641 -0.11525
 H77 H 0.84014 0.33678 -0.16465
 H78 H 0.85234 0.34925 -0.14722
 N79 N 0.87162 0.82924 0.33085
 N80 N 0.86849 0.84250 0.31985
 C81 C 0.88014 0.84157 0.30651
 C82 C 0.89126 0.82708 0.30942
 C83 C 0.88548 0.81965 0.32505
 H84 H 0.88005 0.85032 0.29517
 H85 H 0.89032 0.80746 0.33113
 Cu86 Cu 0.84848 0.85846 0.32336
 Cu87 Cu 0.85624 0.82396 0.35064
 Cu88 Cu 0.82037 0.85231 0.35687
 N89 N 0.82848 0.87443 0.32689
 N90 N 0.81730 0.87168 0.33978
 C91 C 0.80384 0.88336 0.33828
 C92 C 0.80664 0.89415 0.32361
 C93 C 0.82256 0.88808 0.31685
 H94 H 0.79273 0.88374 0.34711
 H95 H 0.82887 0.89243 0.30489
 N96 N 0.82586 0.83193 0.37264
 N97 N 0.83921 0.82087 0.36992
 C98 C 0.83836 0.80729 0.38156
 C99 C 0.82392 0.81001 0.39226
 C100 C 0.81633 0.82578 0.38629
 H101 H 0.84726 0.79593 0.38193
 H102 H 0.80416 0.83167 0.39088
 H103 H 0.83365 0.83513 0.34012
 H104 H 0.84715 0.84982 0.35441
 N105 N 0.62770 0.68128 0.33781
 N106 N 0.62688 0.66789 0.32662
 C107 C 0.61408 0.67136 0.31482
 C108 C 0.60666 0.68793 0.31879
 C109 C 0.61562 0.69374 0.33350
 H110 H 0.61103 0.66295 0.30367
 H111 H 0.61380 0.70635 0.34029
 Cu112 Cu 0.64376 0.64812 0.32770
 Cu113 Cu 0.64510 0.68237 0.35635
 Cu114 Cu 0.67688 0.64905 0.35734
 N115 N 0.66346 0.63136 0.32664
 N116 N 0.67598 0.63135 0.33851
 C117 C 0.68823 0.61904 0.33402
 C118 C 0.68322 0.61104 0.31839
 C119 C 0.66741 0.61920 0.31413
 H120 H 0.70044 0.61693 0.34096
 H121 H 0.65963 0.61686 0.30248
 N122 N 0.67552 0.66847 0.37497
 N123 N 0.66360 0.68137 0.37423
 C124 C 0.66727 0.69382 0.38644
 C125 C 0.68223 0.68858 0.39532
 C126 C 0.68706 0.67235 0.38782
 H127 H 0.66002 0.70620 0.38828
 H128 H 0.69881 0.66467 0.39066
 H129 H 0.66411 0.66802 0.34233
 H130 H 0.65055 0.65507 0.35837
 N131 N 0.62757 0.17415 -0.16178
 N132 N 0.62764 0.16120 -0.17352
 C133 C 0.61569 0.16503 -0.18606
 C134 C 0.60797 0.18143 -0.18206
 C135 C 0.61586 0.18679 -0.16657
 H136 H 0.61328 0.15684 -0.19755
 H137 H 0.61335 0.19903 -0.15933
 Cu138 Cu 0.64389 0.14086 -0.17175
 Cu139 Cu 0.64285 0.17351 -0.14143
 Cu140 Cu 0.67719 0.14549 -0.14084
 N141 N 0.66466 0.12477 -0.17072
 N142 N 0.67708 0.12650 -0.15879
 C143 C 0.68984 0.11443 -0.16198
 C144 C 0.68555 0.10459 -0.17683
 C145 C 0.66934 0.11155 -0.18195
 H146 H 0.70172 0.11347 -0.15435
 H147 H 0.66176 0.10781 -0.19335
 N148 N 0.67493 0.16519 -0.12420
 N149 N 0.66173 0.17660 -0.12470
 C150 C 0.66464 0.18992 -0.11315
 C151 C 0.68049 0.18653 -0.10483
 C152 C 0.68658 0.17067 -0.11215
 H153 H 0.65612 0.20144 -0.11134
 H154 H 0.69909 0.16422 -0.10968
 H155 H 0.66239 0.15713 -0.16093
 H156 H 0.65103 0.14181 -0.14541
 N157 N 0.12749 0.67299 -0.15726
 N158 N 0.12819 0.66214 -0.17091
 C159 C 0.11545 0.66672 -0.18233
 C160 C 0.10631 0.68127 -0.17551
 C161 C 0.11427 0.68482 -0.15952
 H162 H 0.11380 0.66086 -0.19524
 H163 H 0.11124 0.69570 -0.15057
 Cu164 Cu 0.14753 0.64523 -0.17370
 Cu165 Cu 0.14481 0.67214 -0.13830
 Cu166 Cu 0.18364 0.65105 -0.15032
 N167 N 0.16677 0.62796 -0.17520
 N168 N 0.18083 0.63049 -0.16560
 C169 C 0.19313 0.61835 -0.16995
 C170 C 0.18665 0.60755 -0.18320
 C171 C 0.16974 0.61400 -0.18614
 H172 H 0.20610 0.61808 -0.16430
 H173 H 0.16073 0.60963 -0.19620
 N174 N 0.18151 0.66688 -0.12985
 N175 N 0.16674 0.67464 -0.12482
 C176 C 0.16985 0.68454 -0.11032
 C177 C 0.18747 0.68279 -0.10599
 C178 C 0.19434 0.67145 -0.11874
 H179 H 0.16007 0.69265 -0.10367
 H180 H 0.20777 0.66699 -0.12012
 H181 H 0.16292 0.66832 -0.15732
 H182 H 0.15827 0.64808 -0.14369
 N183 N 0.12539 0.17753 0.34271
 N184 N 0.12628 0.16726 0.32864
 C185 C 0.11408 0.17280 0.31697
 C186 C 0.10517 0.18735 0.32412
 C187 C 0.11264 0.18988 0.34051
 H188 H 0.11266 0.16756 0.30377
 H189 H 0.10961 0.20043 0.34983
 Cu190 Cu 0.14529 0.14980 0.32595
 Cu191 Cu 0.14187 0.17544 0.36228
 Cu192 Cu 0.18045 0.15343 0.35126
 N193 N 0.16412 0.13190 0.32468
 N194 N 0.17774 0.13362 0.33508
 C195 C 0.19005 0.12151 0.33070
 C196 C 0.18406 0.11162 0.31662
 C197 C 0.16741 0.11845 0.31318
 H198 H 0.20282 0.12068 0.33681
 H199 H 0.15900 0.11486 0.30232
 N200 N 0.17795 0.16853 0.37220
 N201 N 0.16325 0.17670 0.37679
 C202 C 0.16606 0.18604 0.39173
 C203 C 0.18336 0.18338 0.39681
 C204 C 0.19041 0.17223 0.38404
 H205 H 0.15632 0.19436 0.39820
 H206 H 0.20380 0.16747 0.38310
 H207 H 0.16064 0.17166 0.34397
 H208 H 0.15467 0.15112 0.35658
 N209 N 0.62236 0.32146 0.66618
 N210 N 0.62428 0.33318 0.67892
 C211 C 0.61216 0.33029 0.69144
 C212 C 0.60211 0.31590 0.68640
 C213 C 0.60883 0.31071 0.67018
 H214 H 0.61127 0.33748 0.70377
 H215 H 0.60506 0.29912 0.66257
 Cu216 Cu 0.64405 0.34911 0.67954
 Cu217 Cu 0.63930 0.31956 0.64694
 Cu218 Cu 0.67308 0.35068 0.64631
 N219 N 0.66135 0.36774 0.67817
 N220 N 0.67321 0.36824 0.66561
 C221 C 0.68501 0.38100 0.66963
 C222 C 0.68019 0.38867 0.68562
 C223 C 0.66501 0.38008 0.69040
 H224 H 0.69681 0.38360 0.66220
 H225 H 0.65770 0.38205 0.70246
 N226 N 0.67041 0.33175 0.62814
 N227 N 0.65770 0.31987 0.62864
 C228 C 0.66053 0.30752 0.61602
 C229 C 0.67567 0.31178 0.60703
 C230 C 0.68155 0.32730 0.61497
 H231 H 0.65261 0.29579 0.61398
 H232 H 0.69371 0.33404 0.61218
 H233 H 0.66095 0.33009 0.65948
 H234 H 0.64641 0.34633 0.64771
 N235 N 0.62930 0.81805 1.15811
 N236 N 0.62701 0.82882 1.17164
 C237 C 0.61404 0.82243 1.18187
 C238 C 0.60798 0.80682 1.17428
 C239 C 0.61800 0.80442 1.15929
 H240 H 0.60978 0.82823 1.19424
 H241 H 0.61734 0.79339 1.15010
 Cu242 Cu 0.64241 0.84906 1.17507
 Cu243 Cu 0.64763 0.82154 1.14066
 Cu244 Cu 0.67678 0.85614 1.14840
 N245 N 0.65958 0.86720 1.18055
 N246 N 0.67254 0.87054 1.16963
 C247 C 0.68228 0.88385 1.17634
 C248 C 0.67518 0.88889 1.19242
 C249 C 0.66088 0.87790 1.19476
 H250 H 0.69405 0.88899 1.17035
 H251 H 0.65209 0.87778 1.20597
 N252 N 0.67855 0.83986 1.12780
 N253 N 0.66706 0.82715 1.12465
 C254 C 0.67227 0.81767 1.11049
 C255 C 0.68792 0.82449 1.10446
 C256 C 0.69153 0.83857 1.11577
 H257 H 0.66589 0.80577 1.10570
 H258 H 0.70314 0.84674 1.11570
 H259 H 0.66491 0.83357 1.15792
 H260 H 0.65126 0.84889 1.14408
 N261 N 0.12856 0.32910 1.16866
 N262 N 0.12908 0.34288 1.17942
 C263 C 0.11747 0.34055 1.19255
 C264 C 0.10899 0.32453 1.18975
 C265 C 0.11629 0.31763 1.17442
 H266 H 0.11556 0.34965 1.20348
 H267 H 0.11354 0.30479 1.16848
 Cu268 Cu 0.14543 0.36210 1.17558
 Cu269 Cu 0.14534 0.32632 1.14928
 Cu270 Cu 0.17769 0.35878 1.14585
 N271 N 0.16509 0.37820 1.17608
 N272 N 0.17748 0.37728 1.16406
 C273 C 0.19002 0.38917 1.16806
 C274 C 0.18529 0.39781 1.18353
 C275 C 0.16937 0.39050 1.18822
 H276 H 0.20222 0.39055 1.16094
 H277 H 0.16174 0.39343 1.19991
 N278 N 0.17556 0.33867 1.12911
 N279 N 0.16360 0.32611 1.13069
 C280 C 0.16682 0.31327 1.11861
 C281 C 0.18146 0.31797 1.10893
 C282 C 0.18656 0.33423 1.11588
 H283 H 0.15940 0.30109 1.11734
 H284 H 0.19810 0.34168 1.11230
 H285 H 0.16493 0.34043 1.16163
 H286 H 0.15131 0.35285 1.14527
 N287 N 0.12559 0.82548 0.66934
 N288 N 0.12837 0.83698 0.68209
 C289 C 0.11689 0.83406 0.69520
 C290 C 0.10638 0.81992 0.69049
 C291 C 0.11215 0.81487 0.67390
 H292 H 0.11666 0.84115 0.70761
 H293 H 0.10780 0.80346 0.66635
 Cu294 Cu 0.14779 0.85344 0.68161
 Cu295 Cu 0.14151 0.82332 0.64940
 Cu296 Cu 0.17565 0.85360 0.64704
 N297 N 0.16620 0.87091 0.67940
 N298 N 0.17720 0.87112 0.66606
 C299 C 0.18962 0.88346 0.66924
 C300 C 0.18619 0.89119 0.68551
 C301 C 0.17114 0.88305 0.69138
 H302 H 0.20095 0.88570 0.66097
 H303 H 0.16471 0.88526 0.70390
 N304 N 0.17183 0.83477 0.62917
 N305 N 0.15896 0.82315 0.63029
 C306 C 0.16114 0.81058 0.61774
 C307 C 0.17603 0.81447 0.60816
 C308 C 0.18241 0.82999 0.61567
 H309 H 0.15300 0.79893 0.61621
 H310 H 0.19460 0.83645 0.61240
 H311 H 0.16359 0.83370 0.66134
 H312 H 0.14896 0.85007 0.64971
 N313 N 0.37097 0.67547 0.66749
 N314 N 0.36996 0.66208 0.67870
 C315 C 0.38147 0.66489 0.69192
 C316 C 0.38987 0.68100 0.68877
 C317 C 0.38294 0.68716 0.67311
 H318 H 0.38286 0.65650 0.70347
 H319 H 0.38587 0.69968 0.66664
 Cu320 Cu 0.35229 0.64349 0.67560
 Cu321 Cu 0.35528 0.67853 0.64773
 Cu322 Cu 0.32325 0.64690 0.64199
 N323 N 0.33319 0.62642 0.67266
 N324 N 0.32226 0.62779 0.65934
 C325 C 0.30962 0.61555 0.66112
 C326 C 0.31255 0.60594 0.67644
 C327 C 0.32776 0.61311 0.68339
 H328 H 0.29861 0.61429 0.65230
 H329 H 0.33376 0.60964 0.69585
 N330 N 0.32628 0.66735 0.62588
 N331 N 0.33833 0.67960 0.62839
 C332 C 0.33569 0.69314 0.61696
 C333 C 0.32130 0.68925 0.60672
 C334 C 0.31573 0.67271 0.61262
 H335 H 0.34314 0.70537 0.61666
 H336 H 0.30405 0.66583 0.60847
 H337 H 0.33442 0.66499 0.65904
 H338 H 0.34954 0.65171 0.64453
 N339 N 0.37333 0.17284 1.16967
 N340 N 0.37131 0.15888 1.18000
 C341 C 0.38260 0.16000 1.19356
 C342 C 0.39233 0.17543 1.19154
 C343 C 0.38618 0.18316 1.17614
 H344 H 0.38332 0.15053 1.20434
 H345 H 0.39012 0.19581 1.17056
 Cu346 Cu 0.35367 0.14082 1.17543
 Cu347 Cu 0.35816 0.17734 1.14949
 Cu348 Cu 0.32394 0.14815 1.14320
 N349 N 0.33285 0.12614 1.17299
 N350 N 0.32135 0.12910 1.16044
 C351 C 0.30792 0.11774 1.16238
 C352 C 0.31104 0.10711 1.17702
 C353 C 0.32708 0.11278 1.18338
 H354 H 0.29653 0.11760 1.15397
 H355 H 0.33361 0.10822 1.19522
 N356 N 0.32865 0.16830 1.12716
 N357 N 0.34146 0.17971 1.12980
 C358 C 0.33996 0.19319 1.11805
 C359 C 0.32552 0.19010 1.10747
 C360 C 0.31878 0.17411 1.11356
 H361 H 0.34832 0.20478 1.11770
 H362 H 0.30683 0.16785 1.10923
 H363 H 0.33697 0.16438 1.16089
 H364 H 0.35073 0.15112 1.14503
 N365 N 0.86957 0.68362 1.15722
 N366 N 0.87328 0.67105 1.16879
 C367 C 0.88619 0.67680 1.17940
 C368 C 0.89063 0.69399 1.17425
 C369 C 0.87981 0.69784 1.16014
 H370 H 0.89130 0.66942 1.19057
 H371 H 0.87921 0.71022 1.15274
 Cu372 Cu 0.85948 0.64934 1.16997
 Cu373 Cu 0.85125 0.68100 1.13971
 Cu374 Cu 0.82567 0.64297 1.14242
 N375 N 0.84114 0.63226 1.17525
 N376 N 0.82812 0.62949 1.16431
 C377 C 0.81745 0.61704 1.17119
 C378 C 0.82401 0.61193 1.18747
 C379 C 0.83905 0.62191 1.18960
 H380 H 0.80546 0.61257 1.16512
 H381 H 0.84778 0.62177 1.20081
 N382 N 0.82214 0.66169 1.12434
 N383 N 0.83218 0.67593 1.12315
 C384 C 0.82628 0.68645 1.11001
 C385 C 0.81170 0.67864 1.10269
 C386 C 0.80936 0.66296 1.11215
 H387 H 0.83157 0.69937 1.10662
 H388 H 0.79890 0.65344 1.11057
 H389 H 0.83559 0.66472 1.15513
 H390 H 0.85064 0.65352 1.13908
 N391 N 0.87253 0.17750 0.65911
 N392 N 0.87308 0.16547 0.67179
 C393 C 0.88616 0.16963 0.68299
 C394 C 0.89409 0.18514 0.67703
 C395 C 0.88511 0.18963 0.66181
 H396 H 0.88907 0.16254 0.69509
 H397 H 0.88721 0.20123 0.65356
 Cu398 Cu 0.85534 0.14681 0.67305
 Cu399 Cu 0.85458 0.17789 0.64081
 Cu400 Cu 0.82399 0.14408 0.64239
 N401 N 0.83763 0.12810 0.67419
 N402 N 0.82587 0.12699 0.66161
 C403 C 0.81400 0.11463 0.66597
 C404 C 0.81827 0.10763 0.68224
 C405 C 0.83350 0.11635 0.68709
 H406 H 0.80234 0.11184 0.65843
 H407 H 0.84013 0.11529 0.69964
 N408 N 0.82394 0.16270 0.62409
 N409 N 0.83537 0.17583 0.62351
 C410 C 0.83032 0.18764 0.61096
 C411 C 0.81487 0.18172 0.60351
 C412 C 0.81134 0.16584 0.61210
 H413 H 0.83664 0.20027 0.60835
 H414 H 0.79985 0.15770 0.61039
 H415 H 0.83553 0.16534 0.65544
 H416 H 0.85021 0.15090 0.64162
 N417 N 0.32617 0.37208 0.66362
 N418 N 0.33702 0.37046 0.67697
 C419 C 0.33225 0.38205 0.68969
 C420 C 0.31758 0.39148 0.68413
 C421 C 0.31414 0.38487 0.66744
 H422 H 0.33846 0.38291 0.70244
 H423 H 0.30297 0.38815 0.65927
 Cu424 Cu 0.35517 0.35209 0.67737
 Cu425 Cu 0.32648 0.35513 0.64404
 Cu426 Cu 0.35862 0.32165 0.64508
 N427 N 0.37331 0.33369 0.67772
 N428 N 0.37494 0.32196 0.66489
 C429 C 0.38753 0.30994 0.66921
 C430 C 0.39404 0.31429 0.68570
 C431 C 0.38472 0.32951 0.69060
 H432 H 0.39088 0.29822 0.66148
 H433 H 0.38559 0.33654 0.70300
 N434 N 0.34094 0.32370 0.62619
 N435 N 0.32893 0.33657 0.62561
 C436 C 0.31779 0.33318 0.61230
 C437 C 0.32289 0.31734 0.60423
 C438 C 0.33769 0.31181 0.61331
 H439 H 0.30601 0.34085 0.60958
 H440 H 0.34499 0.29950 0.61128
 H441 H 0.33737 0.33372 0.65768
 H442 H 0.35258 0.34849 0.64545
 N443 N 0.32053 0.87187 0.16089
 N444 N 0.33230 0.87369 0.17335
 C445 C 0.32655 0.88615 0.18492
 C446 C 0.31022 0.89216 0.17945
 C447 C 0.30686 0.88284 0.16417
 H448 H 0.33318 0.88971 0.19698
 H449 H 0.29501 0.88349 0.15640
 Cu450 Cu 0.35283 0.85805 0.17460
 Cu451 Cu 0.32256 0.85397 0.14261
 Cu452 Cu 0.35692 0.82373 0.14550
 N453 N 0.37120 0.83988 0.17661
 N454 N 0.37313 0.82697 0.16496
 C455 C 0.38643 0.81615 0.16995
 C456 C 0.39303 0.82244 0.18571
 C457 C 0.38303 0.83750 0.18958
 H458 H 0.39030 0.80396 0.16322
 H459 H 0.38398 0.84580 0.20121
 N460 N 0.33910 0.82283 0.12675
 N461 N 0.32648 0.83494 0.12531
 C462 C 0.31568 0.83022 0.11219
 C463 C 0.32156 0.81421 0.10513
 C464 C 0.33648 0.80989 0.11467
 H465 H 0.30355 0.83706 0.10901
 H466 H 0.34432 0.79780 0.11347
 H467 H 0.33624 0.83569 0.15852
 H468 H 0.34967 0.85009 0.14359
 N469 N 0.82531 0.37528 0.16453
 N470 N 0.83783 0.37442 0.17637
 C471 C 0.83424 0.38643 0.18926
 C472 C 0.81854 0.39505 0.18525
 C473 C 0.81341 0.38767 0.16942
 H474 H 0.84183 0.38797 0.20117
 H475 H 0.80143 0.39055 0.16235
 Cu476 Cu 0.85642 0.35621 0.17468
 Cu477 Cu 0.82361 0.35875 0.14496
 Cu478 Cu 0.85413 0.32454 0.14272
 N479 N 0.87284 0.33594 0.17353
 N480 N 0.87160 0.32361 0.16123
 C481 C 0.88331 0.31044 0.16440
 C482 C 0.89251 0.31469 0.17946
 C483 C 0.88560 0.33103 0.18489
 H484 H 0.88471 0.29839 0.15661
 H485 H 0.88895 0.33825 0.19674
 N486 N 0.83546 0.32769 0.12513
 N487 N 0.82380 0.34081 0.12607
 C488 C 0.81160 0.33838 0.11356
 C489 C 0.81573 0.32297 0.10427
 C490 C 0.83103 0.31659 0.11189
 H491 H 0.80007 0.34672 0.11188
 H492 H 0.83766 0.30410 0.10885
 H493 H 0.83592 0.33780 0.15820
 H494 H 0.84992 0.35182 0.14346
 N495 N 0.82765 0.87119 0.66518
 N496 N 0.83989 0.87128 0.67737
 C497 C 0.83578 0.88362 0.68957
 C498 C 0.82015 0.89178 0.68496
 C499 C 0.81537 0.88370 0.66926
 H500 H 0.84318 0.88599 0.70144
 H501 H 0.80333 0.88591 0.66205
 Cu502 Cu 0.85888 0.85388 0.67756
 Cu503 Cu 0.82781 0.85329 0.64625
 Cu504 Cu 0.86226 0.82238 0.64660
 N505 N 0.87783 0.83637 0.67794
 N506 N 0.87923 0.82407 0.66562
 C507 C 0.89218 0.81249 0.66994
 C508 C 0.89915 0.81772 0.68594
 C509 C 0.88977 0.83300 0.69052
 H510 H 0.89534 0.80039 0.66271
 H511 H 0.89092 0.84056 0.70257
 N512 N 0.84388 0.82261 0.62852
 N513 N 0.83060 0.83410 0.62836
 C514 C 0.81917 0.82904 0.61579
 C515 C 0.82552 0.81354 0.60788
 C516 C 0.84124 0.81001 0.61621
 H517 H 0.80656 0.83534 0.61347
 H518 H 0.84967 0.79848 0.61411
 H519 H 0.84115 0.83393 0.66008
 H520 H 0.85442 0.84938 0.64620
 N521 N 0.67008 0.62690 0.66310
 N522 N 0.65610 0.62726 0.67325
 C523 C 0.65809 0.61526 0.68633
 C524 C 0.67408 0.60668 0.68418
 C525 C 0.68132 0.61430 0.66922
 H526 H 0.64882 0.61332 0.69693
 H527 H 0.69424 0.61168 0.66389
 Cu528 Cu 0.63711 0.64415 0.66937
 Cu529 Cu 0.67373 0.64467 0.64442
 Cu530 Cu 0.64240 0.67870 0.64207
 N531 N 0.62105 0.66443 0.66976
 N532 N 0.62329 0.67800 0.65900
 C533 C 0.61157 0.69098 0.66290
 C534 C 0.60140 0.68525 0.67687
 C535 C 0.60776 0.66827 0.68087
 H536 H 0.61094 0.70390 0.65647
 H537 H 0.60376 0.65986 0.69173
 N538 N 0.66261 0.67715 0.62610
 N539 N 0.67465 0.66433 0.62679
 C540 C 0.68747 0.66822 0.61514
 C541 C 0.68326 0.68430 0.60693
 C542 C 0.66739 0.68942 0.61414
 H543 H 0.69950 0.66060 0.61357
 H544 H 0.66020 0.70165 0.61137
 H545 H 0.65946 0.66385 0.65783
 H546 H 0.64794 0.65142 0.63998
 N547 N 0.67655 0.13258 0.15916
 N548 N 0.66352 0.13044 0.17029
 C549 C 0.66773 0.11722 0.18170
 C550 C 0.68437 0.11090 0.17757
 C551 C 0.68952 0.12096 0.16318
 H552 H 0.65974 0.11323 0.19278
 H553 H 0.70201 0.12026 0.15647
 Cu554 Cu 0.64314 0.14638 0.17000
 Cu555 Cu 0.67661 0.15127 0.14123
 Cu556 Cu 0.64369 0.18314 0.14433
 N557 N 0.62639 0.16598 0.17343
 N558 N 0.62676 0.18019 0.16320
 C559 C 0.61481 0.19219 0.16885
 C560 C 0.60645 0.18531 0.18351
 C561 C 0.61408 0.16853 0.18601
 H562 H 0.61274 0.20524 0.16299
 H563 H 0.61151 0.15929 0.19667
 N564 N 0.66195 0.18383 0.12607
 N565 N 0.67429 0.17142 0.12451
 C566 C 0.68530 0.17617 0.11145
 C567 C 0.67973 0.19249 0.10468
 C568 C 0.66490 0.19691 0.11425
 H569 H 0.69714 0.16895 0.10788
 H570 H 0.65719 0.20908 0.11307
 H571 H 0.66276 0.16841 0.15744
 H572 H 0.65002 0.15637 0.14012
 N573 N 0.17662 0.62813 0.15925
 N574 N 0.16590 0.62606 0.17264
 C575 C 0.17245 0.61328 0.18341
 C576 C 0.18820 0.60719 0.17643
 C577 C 0.19036 0.61688 0.16107
 H578 H 0.16682 0.60953 0.19595
 H579 H 0.20150 0.61636 0.15227
 Cu580 Cu 0.14555 0.64168 0.17585
 Cu581 Cu 0.17345 0.64683 0.14175
 Cu582 Cu 0.13843 0.67594 0.14752
 N583 N 0.12647 0.65885 0.17918
 N584 N 0.12331 0.67166 0.16769
 C585 C 0.10978 0.68177 0.17344
 C586 C 0.10431 0.67511 0.18950
 C587 C 0.11523 0.66060 0.19281
 H588 H 0.10498 0.69378 0.16699
 H589 H 0.11527 0.65226 0.20446
 N590 N 0.15522 0.67808 0.12793
 N591 N 0.16826 0.66662 0.12545
 C592 C 0.17832 0.67246 0.11209
 C593 C 0.17147 0.68852 0.10602
 C594 C 0.15678 0.69166 0.11634
 H595 H 0.19058 0.66634 0.10807
 H596 H 0.14841 0.70343 0.11604
 H597 H 0.16056 0.66443 0.15861
 H598 H 0.14660 0.64970 0.14464
 N599 N 0.18247 0.12657 0.66307
 N600 N 0.16791 0.12059 0.67004
 C601 C 0.17131 0.10494 0.67830
 C602 C 0.18899 0.10093 0.67618
 C603 C 0.19560 0.11501 0.66647
 H604 H 0.16180 0.09738 0.68571
 H605 H 0.20913 0.11722 0.66293
 Cu606 Cu 0.14656 0.13496 0.66880
 Cu607 Cu 0.18396 0.14988 0.65207
 Cu608 Cu 0.14453 0.17019 0.64103
 N609 N 0.12865 0.15347 0.67109
 N610 N 0.12738 0.16700 0.66003
 C611 C 0.11453 0.17820 0.66559
 C612 C 0.10767 0.17141 0.68112
 C613 C 0.11691 0.15568 0.68413
 H614 H 0.11143 0.19101 0.65962
 H615 H 0.11579 0.14693 0.69543
 N616 N 0.16694 0.17648 0.62964
 N617 N 0.18190 0.16911 0.63467
 C618 C 0.19508 0.17629 0.62547
 C619 C 0.18824 0.18892 0.61406
 C620 C 0.17028 0.18867 0.61695
 H621 H 0.20867 0.17230 0.62676
 H622 H 0.16046 0.19703 0.61066
 H623 H 0.16086 0.16264 0.66007
 H624 H 0.15961 0.14629 0.64155
 N625 N 0.32542 0.63058 0.33782
 N626 N 0.33773 0.62990 0.32569
 C627 C 0.33370 0.61717 0.31383
 C628 C 0.31798 0.60952 0.31872
 C629 C 0.31316 0.61834 0.33406
 H630 H 0.34104 0.61443 0.30193
 H631 H 0.30131 0.61646 0.34163
 Cu632 Cu 0.35650 0.64734 0.32525
 Cu633 Cu 0.32511 0.64842 0.35664
 Cu634 Cu 0.35899 0.67878 0.35675
 N635 N 0.37512 0.66500 0.32523
 N636 N 0.37603 0.67702 0.33783
 C637 C 0.38851 0.68891 0.33384
 C638 C 0.39581 0.68425 0.31781
 C639 C 0.38709 0.66890 0.31274
 H640 H 0.39131 0.70072 0.34154
 H641 H 0.38842 0.66202 0.30028
 N642 N 0.34052 0.67867 0.37473
 N643 N 0.32731 0.66742 0.37462
 C644 C 0.31579 0.67236 0.38729
 C645 C 0.32203 0.68755 0.39557
 C646 C 0.33777 0.69103 0.38733
 H647 H 0.30324 0.66617 0.38951
 H648 H 0.34615 0.70234 0.38974
 H649 H 0.33840 0.66780 0.34274
 H650 H 0.35167 0.65209 0.35668
 N651 N 0.32256 0.12480 0.84198
 N652 N 0.33575 0.12232 0.83110
 C653 C 0.33152 0.10966 0.81924
 C654 C 0.31470 0.10390 0.82290
 C655 C 0.30950 0.11378 0.83749
 H656 H 0.33967 0.10576 0.80818
 H657 H 0.29686 0.11355 0.84393
 Cu658 Cu 0.35621 0.13737 0.83251
 Cu659 Cu 0.32226 0.14390 0.85948
 Cu660 Cu 0.35620 0.17445 0.85778
 N661 N 0.37348 0.15583 0.82924
 N662 N 0.37379 0.17023 0.83921
 C663 C 0.38638 0.18122 0.83315
 C664 C 0.39415 0.17331 0.81850
 C665 C 0.38561 0.15720 0.81649
 H666 H 0.38889 0.19448 0.83825
 H667 H 0.38758 0.14747 0.80609
 N668 N 0.33691 0.17597 0.87534
 N669 N 0.32424 0.16407 0.87596
 C670 C 0.31235 0.16922 0.88803
 C671 C 0.31755 0.18524 0.89534
 C672 C 0.33331 0.18909 0.88711
 H673 H 0.30034 0.16222 0.89082
 H674 H 0.34095 0.20109 0.88877
 H675 H 0.33748 0.16095 0.84409
 H676 H 0.34909 0.14839 0.86193
 N677 N 0.82111 0.62757 0.83356
 N678 N 0.83259 0.62799 0.82064
 C679 C 0.82804 0.61621 0.80817
 C680 C 0.81282 0.60796 0.81335
 C681 C 0.80879 0.61533 0.82966
 H682 H 0.83480 0.61435 0.79577
 H683 H 0.79713 0.61296 0.83741
 Cu684 Cu 0.85091 0.64555 0.81954
 Cu685 Cu 0.82200 0.64498 0.85287
 Cu686 Cu 0.85746 0.67402 0.85283
 N687 N 0.87212 0.65928 0.82122
 N688 N 0.87457 0.67097 0.83386
 C689 C 0.88918 0.68032 0.83027
 C690 C 0.89623 0.67408 0.81448
 C691 C 0.88504 0.66058 0.80932
 H692 H 0.89374 0.69145 0.83806
 H693 H 0.88562 0.65286 0.79731
 N694 N 0.83875 0.67479 0.87081
 N695 N 0.82537 0.66370 0.87102
 C696 C 0.81405 0.66897 0.88372
 C697 C 0.82053 0.68419 0.89174
 C698 C 0.83624 0.68738 0.88327
 H699 H 0.80139 0.66306 0.88605
 H700 H 0.84480 0.69861 0.88544
 H701 H 0.83524 0.66511 0.84003
 H702 H 0.84893 0.64778 0.85140
 N703 N 0.82121 0.13039 0.33309
 N704 N 0.83327 0.13001 0.32071
 C705 C 0.82866 0.11815 0.30826
 C706 C 0.81284 0.11063 0.31304
 C707 C 0.80853 0.11866 0.32897
 H708 H 0.83603 0.11564 0.29636
 H709 H 0.79657 0.11688 0.33641
 Cu710 Cu 0.85335 0.14564 0.32197
 Cu711 Cu 0.82178 0.14805 0.35229
 Cu712 Cu 0.85621 0.17868 0.35106
 N713 N 0.87131 0.16368 0.31952
 N714 N 0.87285 0.17625 0.33150
 C715 C 0.88575 0.18743 0.32674
 C716 C 0.89263 0.18162 0.31080
 C717 C 0.88314 0.16646 0.30664
 H718 H 0.88915 0.19954 0.33373
 H719 H 0.88429 0.15840 0.29490
 N720 N 0.83786 0.17881 0.36955
 N721 N 0.82489 0.16720 0.37020
 C722 C 0.81384 0.17205 0.38330
 C723 C 0.82002 0.18753 0.39108
 C724 C 0.83529 0.19132 0.38207
 H725 H 0.80152 0.16564 0.38615
 H726 H 0.84347 0.20288 0.38398
 H727 H 0.83526 0.16725 0.33804
 H728 H 0.84825 0.15257 0.35308
 N729 N 0.67400 0.37622 0.32920
 N730 N 0.66375 0.37294 0.31573
 C731 C 0.66669 0.38513 0.30303
 C732 C 0.67947 0.39672 0.30885
 C733 C 0.68374 0.39071 0.32558
 H734 H 0.66055 0.38510 0.29020
 H735 H 0.69414 0.39562 0.33387
 Cu736 Cu 0.64903 0.35194 0.31504
 Cu737 Cu 0.67614 0.35959 0.34880
 Cu738 Cu 0.64637 0.32489 0.35067
 N739 N 0.63040 0.33471 0.31778
 N740 N 0.62913 0.32416 0.33159
 C741 C 0.61572 0.31279 0.32905
 C742 C 0.60833 0.31640 0.31270
 C743 C 0.61796 0.33047 0.30606
 H744 H 0.61225 0.30205 0.33792
 H745 H 0.61635 0.33682 0.29336
 N746 N 0.66507 0.32817 0.36847
 N747 N 0.67640 0.34138 0.36752
 C748 C 0.68896 0.33879 0.37969
 C749 C 0.68541 0.32327 0.38887
 C750 C 0.67007 0.31692 0.38152
 H751 H 0.70042 0.34702 0.38113
 H752 H 0.66386 0.30432 0.38452
 H753 H 0.66667 0.33636 0.33704
 H754 H 0.64997 0.35189 0.34701
 N755 N 0.67329 0.87174 0.83121
 N756 N 0.66076 0.87171 0.81932
 C757 C 0.66457 0.88367 0.80665
 C758 C 0.68013 0.89194 0.81095
 C759 C 0.68527 0.88409 0.82669
 H760 H 0.65674 0.88609 0.79501
 H761 H 0.69735 0.88637 0.83372
 Cu762 Cu 0.64220 0.85412 0.82024
 Cu763 Cu 0.67400 0.85443 0.85065
 Cu764 Cu 0.64074 0.82291 0.85159
 N765 N 0.62412 0.83593 0.82006
 N766 N 0.62356 0.82388 0.83267
 C767 C 0.61099 0.81195 0.82901
 C768 C 0.60343 0.81653 0.81306
 C769 C 0.61220 0.83178 0.80767
 H770 H 0.60845 0.80009 0.83672
 H771 H 0.61021 0.83908 0.79551
 N772 N 0.65933 0.82399 0.86946
 N773 N 0.67218 0.83569 0.86912
 C774 C 0.68371 0.83147 0.88199
 C775 C 0.67785 0.81630 0.89066
 C776 C 0.66230 0.81212 0.88245
 H777 H 0.69602 0.83814 0.88416
 H778 H 0.65416 0.80070 0.88522
 H779 H 0.66133 0.83411 0.83722
 H780 H 0.64790 0.84935 0.85133
 N781 N 0.16892 0.37352 0.83181
 N782 N 0.15614 0.37018 0.82074
 C783 C 0.15739 0.38140 0.80687
 C784 C 0.17167 0.39245 0.80946
 C785 C 0.17861 0.38704 0.82547
 H786 H 0.14893 0.38115 0.79547
 H787 H 0.19063 0.39164 0.83139
 Cu788 Cu 0.14024 0.35044 0.82532
 Cu789 Cu 0.17380 0.35832 0.85221
 Cu790 Cu 0.14671 0.32160 0.85839
 N791 N 0.12517 0.32971 0.82818
 N792 N 0.12807 0.31827 0.84107
 C793 C 0.11719 0.30430 0.83932
 C794 C 0.10673 0.30722 0.82470
 C795 C 0.11212 0.32354 0.81798
 H796 H 0.11726 0.29256 0.84770
 H797 H 0.10756 0.32988 0.80600
 N798 N 0.16628 0.32743 0.87442
 N799 N 0.17660 0.34131 0.87197
 C800 C 0.18961 0.34068 0.88392
 C801 C 0.18742 0.32570 0.89442
 C802 C 0.17241 0.31771 0.88810
 H803 H 0.20030 0.35004 0.88452
 H804 H 0.16701 0.30512 0.89244
 H805 H 0.16328 0.33522 0.84186
 H806 H 0.14871 0.34898 0.85627
 N807 N 0.16998 0.87395 0.33572
 N808 N 0.15681 0.87352 0.32458
 C809 C 0.15956 0.88548 0.31163
 C810 C 0.17523 0.89403 0.31485
 C811 C 0.18145 0.88642 0.33031
 H812 H 0.15099 0.88749 0.30045
 H813 H 0.19387 0.88905 0.33659
 Cu814 Cu 0.13780 0.85667 0.32728
 Cu815 Cu 0.17213 0.85693 0.35527
 Cu816 Cu 0.14049 0.82399 0.35727
 N817 N 0.12223 0.83627 0.32639
 N818 N 0.12336 0.82365 0.33842
 C819 C 0.11229 0.81043 0.33436
 C820 C 0.10372 0.81490 0.31892
 C821 C 0.11027 0.83150 0.31425
 H822 H 0.11101 0.79817 0.34182
 H823 H 0.10727 0.83908 0.30246
 N824 N 0.15925 0.82619 0.37476
 N825 N 0.17167 0.83833 0.37391
 C826 C 0.18396 0.83436 0.38615
 C827 C 0.17902 0.81891 0.39490
 C828 C 0.16322 0.81430 0.38746
 H829 H 0.19624 0.84129 0.38760
 H830 H 0.15575 0.80244 0.39035
 H831 H 0.15895 0.83729 0.34197
 H832 H 0.14613 0.85128 0.35790
 C833 C 0.24339 1.04825 0.24394
 C834 C 0.25687 1.03862 0.23573
 C835 C 0.25819 1.02007 0.23840
 C836 C 0.24527 1.01069 0.24809
 C837 C 0.23162 1.02088 0.25601
 C838 C 0.23114 1.03961 0.25458
 C839 C 0.24605 0.99054 0.24977
 C840 C 0.23628 0.98129 0.26277
 C841 C 0.23607 0.96247 0.26321
 C842 C 0.24653 0.95268 0.25147
 C843 C 0.25703 0.96145 0.23918
 C844 C 0.25635 0.98016 0.23800
 H845 H 0.24284 1.06272 0.24260
 H846 H 0.26939 1.01325 0.23276
 H847 H 0.22148 1.01460 0.26370
 H848 H 0.22856 0.98840 0.27248
 H849 H 0.24680 0.93817 0.25218
 H850 H 0.26369 0.98624 0.22746
 C851 C 0.24399 0.54616 0.74137
 C852 C 0.25669 0.53623 0.73226
 C853 C 0.25619 0.51744 0.73282
 C854 C 0.24217 0.50847 0.74126
 C855 C 0.22922 0.51898 0.74983
 C856 C 0.23056 0.53765 0.75054
 C857 C 0.24105 0.48835 0.74124
 C858 C 0.23140 0.47910 0.75431
 C859 C 0.22985 0.46036 0.75384
 C860 C 0.23924 0.45062 0.74116
 C861 C 0.24961 0.45936 0.72869
 C862 C 0.24978 0.47811 0.72821
 H863 H 0.24475 0.56067 0.74160
 H864 H 0.26674 0.51009 0.72652
 H865 H 0.21822 0.51289 0.75639
 H866 H 0.22496 0.48622 0.76493
 H867 H 0.23887 0.43609 0.74127
 H868 H 0.25720 0.48448 0.71786
 C869 C 0.73907 -0.04643 0.25733
 C870 C 0.75159 -0.03691 0.26677
 C871 C 0.75172 -0.01814 0.26595
 C872 C 0.73871 -0.00852 0.25648
 C873 C 0.72620 -0.01859 0.24701
 C874 C 0.72670 -0.03742 0.24695
 C875 C 0.73850 0.01175 0.25611
 C876 C 0.72909 0.02128 0.24295
 C877 C 0.72901 0.04006 0.24240
 C878 C 0.73902 0.04958 0.25450
 C879 C 0.74879 0.04067 0.26742
 C880 C 0.74798 0.02191 0.26864
 H881 H 0.73952 -0.06096 0.25741
 H882 H 0.76215 -0.01138 0.27274
 H883 H 0.71585 -0.01215 0.23963
 H884 H 0.72210 0.01444 0.23267
 H885 H 0.73908 0.06410 0.25400
 H886 H 0.75506 0.01552 0.27925
 C887 C 0.74652 0.45074 0.75194
 C888 C 0.75445 0.46052 0.76527
 C889 C 0.75318 0.47922 0.76530
 C890 C 0.74471 0.48857 0.75138
 C891 C 0.73723 0.47822 0.73768
 C892 C 0.73757 0.45942 0.73829
 C893 C 0.74351 0.50881 0.75135
 C894 C 0.73190 0.51813 0.73993
 C895 C 0.73089 0.53691 0.73990
 C896 C 0.74102 0.54664 0.75174
 C897 C 0.75261 0.53792 0.76317
 C898 C 0.75402 0.51918 0.76277
 H899 H 0.74741 0.43622 0.75218
 H900 H 0.75880 0.48607 0.77640
 H901 H 0.73080 0.48441 0.72657
 H902 H 0.72325 0.51116 0.73113
 H903 H 0.74009 0.56115 0.75184
 H904 H 0.76379 0.51309 0.77114
 C905 C 0.26294 0.45459 0.24134
 C906 C 0.27353 0.46386 0.25315
 C907 C 0.27350 0.48263 0.25296
 C908 C 0.26349 0.49240 0.24049
 C909 C 0.25383 0.48256 0.22792
 C910 C 0.25302 0.46383 0.22877
 C911 C 0.26243 0.51257 0.24113
 C912 C 0.24839 0.52194 0.23302
 C913 C 0.24736 0.54067 0.23349
 C914 C 0.25950 0.55024 0.24335
 C915 C 0.27303 0.54136 0.25227
 C916 C 0.27497 0.52273 0.25045
 H917 H 0.26256 0.44007 0.24178
 H918 H 0.28088 0.48929 0.26310
 H919 H 0.24644 0.48919 0.21766
 H920 H 0.23809 0.51498 0.22623
 H921 H 0.25829 0.56471 0.24426
 H922 H 0.28610 0.51642 0.25675
 C923 C 0.75200 1.04881 0.75235
 C924 C 0.76533 1.03976 0.74318
 C925 C 0.76563 1.02092 0.74309
 C926 C 0.75195 1.01106 0.75102
 C927 C 0.73824 1.02068 0.75940
 C928 C 0.73856 1.03937 0.76050
 C929 C 0.75174 0.99094 0.75042
 C930 C 0.74264 0.98100 0.76339
 C931 C 0.74151 0.96229 0.76223
 C932 C 0.75072 0.95328 0.74897
 C933 C 0.76047 0.96264 0.73646
 C934 C 0.76043 0.98143 0.73678
 H935 H 0.75200 1.06333 0.75306
 H936 H 0.77642 1.01417 0.73655
 H937 H 0.72723 1.01385 0.76521
 H938 H 0.73617 0.98762 0.77432
 H939 H 0.75038 0.93876 0.74847
 H940 H 0.76736 0.98841 0.72646
 C941 C 0.75966 0.55268 0.25802
 C942 C 0.76949 0.54307 0.24558
 C943 C 0.76938 0.52426 0.24591
 C944 C 0.76055 0.51489 0.25943
 C945 C 0.75144 0.52507 0.27234
 C946 C 0.75031 0.54381 0.27118
 C947 C 0.76015 0.49471 0.25961
 C948 C 0.74639 0.48563 0.26822
 C949 C 0.74545 0.46691 0.26796
 C950 C 0.75789 0.45702 0.25847
 C951 C 0.77151 0.46553 0.24951
 C952 C 0.77297 0.48427 0.25062
 H953 H 0.75908 0.56719 0.25732
 H954 H 0.77619 0.51717 0.23550
 H955 H 0.74474 0.51866 0.28315
 H956 H 0.73591 0.49288 0.27473
 H957 H 0.75705 0.44253 0.25814
 H958 H 0.78390 0.49051 0.24408
 C959 C 0.26181 -0.05033 0.74481
 C960 C 0.27119 -0.04067 0.75728
 C961 C 0.27031 -0.02195 0.75731
 C962 C 0.26059 -0.01256 0.74435
 C963 C 0.25194 -0.02267 0.73127
 C964 C 0.25198 -0.04145 0.73189
 C965 C 0.25875 0.00750 0.74506
 C966 C 0.24439 0.01632 0.73698
 C967 C 0.24253 0.03495 0.73789
 C968 C 0.25422 0.04495 0.74785
 C969 C 0.26830 0.03658 0.75641
 C970 C 0.27094 0.01805 0.75436
 H971 H 0.26221 -0.06486 0.74515
 H972 H 0.27686 -0.01502 0.76786
 H973 H 0.24466 -0.01620 0.72083
 H974 H 0.23446 0.00900 0.72998
 H975 H 0.25247 0.05937 0.74871
 H976 H 0.28238 0.01203 0.76037
 C977 C 0.25615 0.25740 1.04895
 C978 C 0.24614 0.27046 1.04027
 C979 C 0.24726 0.27193 1.02186
 C980 C 0.25701 0.25929 1.01178
 C981 C 0.26631 0.24569 1.02096
 C982 C 0.26656 0.24527 1.03945
 C983 C 0.25729 0.26020 0.99191
 C984 C 0.27067 0.25154 0.98196
 C985 C 0.27027 0.25156 0.96345
 C986 C 0.25739 0.26161 0.95474
 C987 C 0.24432 0.27072 0.96414
 C988 C 0.24391 0.26945 0.98257
 H989 H 0.25581 0.25664 1.06321
 H990 H 0.24025 0.28286 1.01563
 H991 H 0.27354 0.23538 1.01401
 H992 H 0.28123 0.24432 0.98832
 H993 H 0.25725 0.26193 0.94045
 H994 H 0.23302 0.27571 0.98936
 C995 C 0.24864 0.75318 0.54768
 C996 C 0.23713 0.76440 0.53842
 C997 C 0.23751 0.76452 0.51993
 C998 C 0.24980 0.75393 0.51043
 C999 C 0.26150 0.74300 0.52025
 C1000 C 0.26071 0.74233 0.53869
 C1001 C 0.25045 0.75424 0.49054
 C1002 C 0.25928 0.74053 0.48098
 C1003 C 0.26060 0.74123 0.46258
 C1004 C 0.25183 0.75477 0.45336
 C1005 C 0.24222 0.76795 0.46228
 C1006 C 0.24218 0.76816 0.48077
 H1007 H 0.24822 0.75291 0.56196
 H1008 H 0.22784 0.77270 0.51329
 H1009 H 0.27164 0.73514 0.51392
 H1010 H 0.26540 0.72927 0.48752
 H1011 H 0.25230 0.75491 0.43908
 H1012 H 0.23535 0.77907 0.48718
 C1013 C 0.24575 0.75514 -0.04402
 C1014 C 0.25785 0.76507 -0.03447
 C1015 C 0.25692 0.76533 -0.01604
 C1016 C 0.24334 0.75645 -0.00691
 C1017 C 0.23065 0.74738 -0.01704
 C1018 C 0.23222 0.74621 -0.03540
 C1019 C 0.24285 0.75616 0.01294
 C1020 C 0.23329 0.74300 0.02220
 C1021 C 0.23293 0.74272 0.04068
 C1022 C 0.24331 0.75464 0.05015
 C1023 C 0.25337 0.76736 0.04135
 C1024 C 0.25244 0.76866 0.02295
 H1025 H 0.24665 0.75461 -0.05828
 H1026 H 0.26723 0.77217 -0.00915
 H1027 H 0.21967 0.74081 -0.01092
 H1028 H 0.22601 0.73285 0.01533
 H1029 H 0.24362 0.75395 0.06442
 H1030 H 0.25964 0.77929 0.01671
 C1031 C 0.24557 0.25336 0.45516
 C1032 C 0.25882 0.26277 0.46366
 C1033 C 0.25840 0.26445 0.48207
 C1034 C 0.24398 0.25811 0.49198
 C1035 C 0.23029 0.24951 0.48282
 C1036 C 0.23149 0.24650 0.46465
 C1037 C 0.24346 0.26005 0.51171
 C1038 C 0.23330 0.24835 0.52217
 C1039 C 0.23323 0.24965 0.54063
 C1040 C 0.24391 0.26228 0.54878
 C1041 C 0.25443 0.27363 0.53884
 C1042 C 0.25371 0.27302 0.52041
 H1043 H 0.24617 0.25138 0.44101
 H1044 H 0.26931 0.27089 0.48838
 H1045 H 0.21878 0.24478 0.48960
 H1046 H 0.22589 0.23770 0.51623
 H1047 H 0.24418 0.26330 0.56303
 H1048 H 0.26156 0.28245 0.51314
 C1049 C 0.74928 0.75179 1.04356
 C1050 C 0.73726 0.76259 1.03448
 C1051 C 0.73691 0.76213 1.01598
 C1052 C 0.74946 0.75198 1.00632
 C1053 C 0.76196 0.74186 1.01597
 C1054 C 0.76143 0.74121 1.03442
 C1055 C 0.74959 0.75196 0.98643
 C1056 C 0.75819 0.73810 0.97687
 C1057 C 0.75909 0.73853 0.95842
 C1058 C 0.75003 0.75191 0.94922
 C1059 C 0.74067 0.76524 0.95822
 C1060 C 0.74110 0.76573 0.97669
 H1061 H 0.74924 0.75169 1.05785
 H1062 H 0.72690 0.76993 1.00940
 H1063 H 0.77216 0.73425 1.00942
 H1064 H 0.76444 0.72694 0.98348
 H1065 H 0.75014 0.75185 0.93493
 H1066 H 0.73449 0.77676 0.98317
 C1067 C 0.74918 0.25337 0.54483
 C1068 C 0.73671 0.26357 0.53577
 C1069 C 0.73634 0.26312 0.51729
 C1070 C 0.74891 0.25305 0.50754
 C1071 C 0.76198 0.24363 0.51721
 C1072 C 0.76179 0.24333 0.53571
 C1073 C 0.74837 0.25233 0.48757
 C1074 C 0.75836 0.23946 0.47801
 C1075 C 0.75871 0.23951 0.45952
 C1076 C 0.74823 0.25173 0.45027
 C1077 C 0.73744 0.26390 0.45923
 C1078 C 0.73784 0.26448 0.47771
 H1079 H 0.74934 0.25358 0.55912
 H1080 H 0.72587 0.27044 0.51094
 H1081 H 0.77233 0.23623 0.51071
 H1082 H 0.76612 0.22932 0.48458
 H1083 H 0.74810 0.25139 0.43598
 H1084 H 0.73003 0.27476 0.48399
 C1085 C 0.75472 0.25055 -0.04968
 C1086 C 0.76458 0.26321 -0.04061
 C1087 C 0.76448 0.26327 -0.02210
 C1088 C 0.75562 0.24979 -0.01248
 C1089 C 0.74654 0.23662 -0.02216
 C1090 C 0.74543 0.23748 -0.04056
 C1091 C 0.75549 0.24964 0.00740
 C1092 C 0.74252 0.24016 0.01689
 C1093 C 0.74212 0.24027 0.03536
 C1094 C 0.75412 0.25064 0.04459
 C1095 C 0.76701 0.26023 0.03565
 C1096 C 0.76804 0.25924 0.01721
 H1097 H 0.75433 0.25084 -0.06396
 H1098 H 0.77148 0.27382 -0.01553
 H1099 H 0.73996 0.22572 -0.01566
 H1100 H 0.73231 0.23294 0.01024
 H1101 H 0.75370 0.25094 0.05887
 H1102 H 0.77853 0.26629 0.01077
 C1103 C 0.75828 0.74513 0.45492
 C1104 C 0.77002 0.75594 0.46401
 C1105 C 0.77027 0.75561 0.48249
 C1106 C 0.75831 0.74505 0.49220
 C1107 C 0.74637 0.73448 0.48254
 C1108 C 0.74652 0.73432 0.46406
 C1109 C 0.75809 0.74531 0.51212
 C1110 C 0.74933 0.73190 0.52192
 C1111 C 0.74843 0.73268 0.54037
 C1112 C 0.75757 0.74596 0.54934
 C1113 C 0.76679 0.75903 0.54015
 C1114 C 0.76646 0.75913 0.52168
 H1115 H 0.75811 0.74531 0.44063
 H1116 H 0.78007 0.76356 0.48895
 H1117 H 0.73643 0.72670 0.48904
 H1118 H 0.74282 0.72092 0.51554
 H1119 H 0.75735 0.74623 0.56363
 H1120 H 0.77296 0.77002 0.51510
 C1121 C 1.04818 0.25364 0.25218
 C1122 C 1.03901 0.24114 0.26218
 C1123 C 1.02066 0.24085 0.26147
 C1124 C 1.01107 0.25375 0.25158
 C1125 C 1.02084 0.26606 0.24136
 C1126 C 1.03922 0.26573 0.24133
 C1127 C 0.99120 0.25418 0.25178
 C1128 C 0.98156 0.26477 0.23957
 C1129 C 0.96320 0.26488 0.23950
 C1130 C 0.95416 0.25382 0.25112
 C1131 C 0.96314 0.24322 0.26334
 C1132 C 0.98150 0.24392 0.26411
 H1133 H 1.06238 0.25349 0.25233
 H1134 H 1.01423 0.23045 0.26882
 H1135 H 1.01461 0.27623 0.23340
 H1136 H 0.98788 0.27280 0.22969
 H1137 H 0.93995 0.25377 0.25094
 H1138 H 0.98784 0.23618 0.27429
 C1139 C 0.54515 0.23852 0.74370
 C1140 C 0.53694 0.22557 0.75404
 C1141 C 0.51862 0.22422 0.75374
 C1142 C 0.50828 0.23655 0.74396
 C1143 C 0.51703 0.24967 0.73387
 C1144 C 0.53532 0.25041 0.73344
 C1145 C 0.48860 0.23635 0.74479
 C1146 C 0.47844 0.24487 0.73157
 C1147 C 0.46023 0.24652 0.73323
 C1148 C 0.45175 0.23787 0.74711
 C1149 C 0.46133 0.22858 0.75993
 C1150 C 0.47968 0.22840 0.75914
 H1151 H 0.55932 0.23926 0.74356
 H1152 H 0.51266 0.21378 0.76149
 H1153 H 0.50990 0.25989 0.72670
 H1154 H 0.48449 0.25080 0.72013
 H1155 H 0.43759 0.23853 0.74805
 H1156 H 0.48672 0.22197 0.76978
 C1157 C -0.04443 0.24681 0.74679
 C1158 C -0.03546 0.25889 0.75739
 C1159 C -0.01713 0.25819 0.75799
 C1160 C -0.00751 0.24463 0.74905
 C1161 C -0.01711 0.23196 0.73911
 C1162 C -0.03541 0.23344 0.73749
 C1163 C 0.01226 0.24380 0.75013
 C1164 C 0.02209 0.23432 0.73732
 C1165 C 0.04158 0.23297 0.73909
 C1166 C 0.05062 0.24339 0.75443
 C1167 C 0.03967 0.25303 0.76571
 C1168 C 0.02127 0.25269 0.76399
 H1169 H -0.05862 0.24740 0.74625
 H1170 H -0.01068 0.26854 0.76538
 H1171 H -0.01063 0.22096 0.73243
 H1172 H 0.01592 0.22774 0.72635
 H1173 H 0.04786 0.23710 0.74573
 H1174 H 0.01401 0.25959 0.77418
 C1175 C 0.45247 0.23931 0.26090
 C1176 C 0.46115 0.24866 0.27414
 C1177 C 0.47943 0.24714 0.27554
 C1178 C 0.48943 0.23758 0.26280
 C1179 C 0.48019 0.22882 0.24912
 C1180 C 0.46181 0.22913 0.24856
 C1181 C 0.50926 0.23731 0.26337
 C1182 C 0.51920 0.22477 0.25332
 C1183 C 0.53754 0.22580 0.25239
 C1184 C 0.54623 0.23848 0.26256
 C1185 C 0.53695 0.25061 0.27311
 C1186 C 0.51858 0.25020 0.27332
 H1187 H 0.43830 0.24014 0.26007
 H1188 H 0.48558 0.25386 0.28645
 H1189 H 0.48694 0.22167 0.23874
 H1190 H 0.51298 0.21444 0.24569
 H1191 H 0.56041 0.23905 0.26211
 H1192 H 0.51189 0.26053 0.28073
 C1193 C 1.04898 0.74332 0.74939
 C1194 C 1.04025 0.73019 0.75904
 C1195 C 1.02199 0.72895 0.75795
 C1196 C 1.01211 0.74161 0.74817
 C1197 C 1.02127 0.75478 0.73859
 C1198 C 1.03959 0.75535 0.73880
 C1199 C 0.99246 0.74149 0.74843
 C1200 C 0.98264 0.75004 0.73498
 C1201 C 0.96436 0.75127 0.73602
 C1202 C 0.95557 0.74260 0.74968
 C1203 C 0.96490 0.73338 0.76268
 C1204 C 0.98322 0.73334 0.76243
 H1205 H 1.06316 0.74387 0.74983
 H1206 H 1.01571 0.71823 0.76505
 H1207 H 1.01442 0.76505 0.73123
 H1208 H 0.98897 0.75621 0.72382
 H1209 H 0.94137 0.74302 0.75021
 H1210 H 0.98998 0.72684 0.77321
 C1211 C 0.54640 0.74152 0.24053
 C1212 C 0.53725 0.73097 0.25255
 C1213 C 0.51887 0.73102 0.25231
 C1214 C 0.50938 0.74139 0.23983
 C1215 C 0.51912 0.75154 0.22755
 C1216 C 0.53743 0.75198 0.22820
 C1217 C 0.48961 0.74235 0.24012
 C1218 C 0.48042 0.75632 0.23134
 C1219 C 0.46210 0.75760 0.23197
 C1220 C 0.45273 0.74548 0.24223
 C1221 C 0.46139 0.73165 0.25122
 C1222 C 0.47963 0.72973 0.24965
 H1223 H 0.56059 0.74188 0.24102
 H1224 H 0.51232 0.72340 0.26239
 H1225 H 0.51282 0.75926 0.21730
 H1226 H 0.48715 0.76669 0.22422
 H1227 H 0.43857 0.74654 0.24293
 H1228 H 0.48574 0.71851 0.25627
 C1229 C -0.04869 0.75789 0.24376
 C1230 C -0.03956 0.76756 0.25649
 C1231 C -0.02128 0.76576 0.25757
 C1232 C -0.01179 0.75521 0.24526
 C1233 C -0.02142 0.74590 0.23233
 C1234 C -0.03976 0.74667 0.23196
 C1235 C 0.00789 0.75362 0.24606
 C1236 C 0.01687 0.73934 0.23760
 C1237 C 0.03518 0.73790 0.23809
 C1238 C 0.04471 0.75015 0.24801
 C1239 C 0.03623 0.76425 0.25681
 C1240 C 0.01800 0.76630 0.25532
 H1241 H -0.06289 0.75848 0.24356
 H1242 H -0.01474 0.77265 0.26814
 H1243 H -0.01497 0.73801 0.22228
 H1244 H 0.00993 0.72898 0.23068
 H1245 H 0.05888 0.74907 0.24843
 H1246 H 0.01196 0.77777 0.26162
 C1247 C 0.45110 0.73835 0.76395
 C1248 C 0.46102 0.75020 0.77387
 C1249 C 0.47929 0.74904 0.77347
 C1250 C 0.48803 0.73549 0.76370
 C1251 C 0.47758 0.72296 0.75450
 C1252 C 0.45923 0.72480 0.75405
 C1253 C 0.50776 0.73531 0.76221
 C1254 C 0.51630 0.72620 0.74823
 C1255 C 0.53447 0.72733 0.74585
 C1256 C 0.54427 0.73818 0.75703
 C1257 C 0.53630 0.74742 0.77094
 C1258 C 0.51828 0.74531 0.77397
 H1259 H 0.43693 0.73958 0.76410
 H1260 H 0.48635 0.75923 0.78050
 H1261 H 0.48342 0.71202 0.74721
 H1262 H 0.50905 0.71869 0.73859
 H1263 H 0.55829 0.73925 0.75508
 H1264 H 0.51268 0.75199 0.78529
 C1265 C 0.40692 0.30809 0.29103
 C1266 C 0.40624 0.30567 0.30938
 C1267 C 0.41744 0.29292 0.31731
 C1268 C 0.42900 0.28254 0.30695
 C1269 C 0.42911 0.28479 0.28846
 C1270 C 0.41817 0.29769 0.28066
 C1271 C 0.43996 0.27390 0.27799
 C1272 C 0.45089 0.26085 0.28569
 C1273 C 0.45125 0.25908 0.30410
 C1274 C 0.44029 0.26980 0.31467
 H1275 H 0.41716 0.29108 0.33147
 H1276 H 0.41817 0.29962 0.26651
 H1277 H 0.43981 0.27544 0.26378
 H1278 H 0.44049 0.26797 0.32883
 H1279 H 0.39837 0.31770 0.28456
 H1280 H 0.45960 0.24907 0.31024
 C1281 C 0.41145 0.81371 0.79123
 C1282 C 0.40922 0.80976 0.80926
 C1283 C 0.41961 0.79603 0.81678
 C1284 C 0.43112 0.78578 0.80639
 C1285 C 0.43225 0.78907 0.78809
 C1286 C 0.42267 0.80331 0.78072
 C1287 C 0.44259 0.77775 0.77747
 C1288 C 0.45203 0.76349 0.78506
 C1289 C 0.45158 0.76090 0.80334
 C1290 C 0.44112 0.77192 0.81395
 H1291 H 0.41876 0.79311 0.83073
 H1292 H 0.42357 0.80619 0.76675
 H1293 H 0.44298 0.77970 0.76331
 H1294 H 0.44052 0.76931 0.82798
 H1295 H 0.40392 0.82424 0.78490
 H1296 H 0.45877 0.74986 0.80928
 C1297 C -0.09480 0.31224 0.77737
 C1298 C -0.09285 0.31091 0.79572
 C1299 C -0.07911 0.30047 0.80269
 C1300 C -0.06750 0.29129 0.79143
 C1301 C -0.06999 0.29211 0.77298
 C1302 C -0.08358 0.30277 0.76609
 C1303 C -0.05908 0.28201 0.76179
 C1304 C -0.04550 0.27136 0.76880
 C1305 C -0.04259 0.27131 0.78706
 C1306 C -0.05357 0.28109 0.79831
 H1307 H -0.07744 0.29956 0.81684
 H1308 H -0.08561 0.30366 0.75198
 H1309 H -0.06129 0.28215 0.74768
 H1310 H -0.05134 0.28046 0.81239
 H1311 H -0.10538 0.32017 0.77177
 H1312 H -0.03224 0.26308 0.79266
 C1313 C -0.09649 0.82234 0.27908
 C1314 C -0.09539 0.81938 0.29734
 C1315 C -0.08208 0.80803 0.30391
 C1316 C -0.07066 0.79898 0.29237
 C1317 C -0.07248 0.80140 0.27399
 C1318 C -0.08517 0.81338 0.26750
 C1319 C -0.06185 0.79150 0.26239
 C1320 C -0.04942 0.77918 0.26889
 C1321 C -0.04728 0.77726 0.28716
 C1322 C -0.05783 0.78709 0.29883
 H1323 H -0.08086 0.80594 0.31799
 H1324 H -0.08664 0.81545 0.25344
 H1325 H -0.06345 0.79311 0.24828
 H1326 H -0.05623 0.78507 0.31288
 H1327 H -0.10659 0.83098 0.27363
 H1328 H -0.03785 0.76771 0.29237
 C1329 C 0.59407 0.71718 0.30872
 C1330 C 0.59367 0.69835 0.30843
 C1331 C 0.58112 0.68974 0.29795
 C1332 C 0.56932 0.69986 0.28766
 C1333 C 0.57033 0.71878 0.28764
 C1334 C 0.58258 0.72729 0.29838
 C1335 C 0.55934 0.72888 0.27660
 C1336 C 0.54719 0.72037 0.26566
 C1337 C 0.54567 0.70167 0.26628
 C1338 C 0.55671 0.69146 0.27715
 H1339 H 0.58056 0.67524 0.29779
 H1340 H 0.58344 0.74178 0.29861
 H1341 H 0.56044 0.74336 0.27622
 H1342 H 0.55560 0.67700 0.27709
 H1343 H 0.60365 0.72417 0.31657
 H1344 H 0.53638 0.69495 0.25785
 C1345 C 0.59482 0.21061 0.80865
 C1346 C 0.59506 0.19182 0.80749
 C1347 C 0.58304 0.18325 0.79635
 C1348 C 0.57093 0.19342 0.78646
 C1349 C 0.57121 0.21233 0.78748
 C1350 C 0.58310 0.22077 0.79866
 C1351 C 0.55976 0.22258 0.77714
 C1352 C 0.54780 0.21429 0.76584
 C1353 C 0.54703 0.19551 0.76533
 C1354 C 0.55862 0.18513 0.77549
 H1355 H 0.58300 0.16875 0.79550
 H1356 H 0.58340 0.23525 0.79962
 H1357 H 0.56023 0.23709 0.77771
 H1358 H 0.55808 0.17065 0.77462
 H1359 H 0.60398 0.21755 0.81702
 H1360 H 0.53784 0.18893 0.75669
 C1361 C 1.09190 0.71090 0.81860
 C1362 C 1.09317 0.69243 0.81517
 C1363 C 1.08260 0.68491 0.80200
 C1364 C 1.07133 0.69582 0.79197
 C1365 C 1.07074 0.71450 0.79507
 C1366 C 1.08084 0.72185 0.80859
 C1367 C 1.06034 0.72556 0.78436
 C1368 C 1.05032 0.71820 0.77076
 C1369 C 1.05037 0.69960 0.76816
 C1370 C 1.06090 0.68846 0.77864
 H1371 H 1.08331 0.67064 0.79941
 H1372 H 1.08044 0.73613 0.81119
 H1373 H 1.06011 0.73994 0.78648
 H1374 H 1.06107 0.67416 0.77616
 H1375 H 1.09997 0.71704 0.82859
 H1376 H 1.04264 0.69378 0.75771
 C1377 C 1.09237 0.21782 0.31891
 C1378 C 1.09260 0.19940 0.31506
 C1379 C 1.08130 0.19277 0.30205
 C1380 C 1.07006 0.20447 0.29281
 C1381 C 1.07044 0.22306 0.29639
 C1382 C 1.08147 0.22956 0.30959
 C1383 C 1.05998 0.23488 0.28652
 C1384 C 1.04888 0.22838 0.27334
 C1385 C 1.04802 0.20987 0.27028
 C1386 C 1.05863 0.19798 0.27988
 H1387 H 1.08128 0.17855 0.29911
 H1388 H 1.08184 0.24375 0.31256
 H1389 H 1.06056 0.24919 0.28895
 H1390 H 1.05804 0.18377 0.27705
 H1391 H 1.10104 0.22328 0.32877
 H1392 H 1.03954 0.20470 0.26010
 C1393 C 0.59123 0.30660 0.71600
 C1394 C 0.58949 0.30616 0.69756
 C1395 C 0.57621 0.29581 0.69000
 C1396 C 0.56503 0.28569 0.70074
 C1397 C 0.56742 0.28571 0.71922
 C1398 C 0.58036 0.29639 0.72672
 C1399 C 0.55716 0.27467 0.72989
 C1400 C 0.54441 0.26367 0.72238
 C1401 C 0.54143 0.26437 0.70415
 C1402 C 0.55175 0.27523 0.69337
 H1403 H 0.57467 0.29552 0.67580
 H1404 H 0.58229 0.29661 0.74087
 H1405 H 0.55932 0.27428 0.74401
 H1406 H 0.54960 0.27516 0.67926
 H1407 H 0.60142 0.31434 0.72219
 H1408 H 0.53160 0.25596 0.69819
 C1409 C 0.59725 0.77578 0.17906
 C1410 C 0.59507 0.79431 0.18162
 C1411 C 0.58086 0.80072 0.19163
 C1412 C 0.56919 0.78869 0.19946
 C1413 C 0.57202 0.77002 0.19755
 C1414 C 0.58592 0.76371 0.18710
 C1415 C 0.56117 0.75800 0.20646
 C1416 C 0.54732 0.76440 0.21695
 C1417 C 0.54405 0.78290 0.21810
 C1418 C 0.55498 0.79499 0.20951
 H1419 H 0.57895 0.81503 0.19337
 H1420 H 0.58820 0.74946 0.18538
 H1421 H 0.56367 0.74369 0.20556
 H1422 H 0.55255 0.80924 0.21103
 H1423 H 0.60811 0.77057 0.17135
 H1424 H 0.53345 0.78799 0.22625
 C1425 C 1.09796 0.31778 0.21995
 C1426 C 1.09633 0.31580 0.20163
 C1427 C 1.08285 0.30518 0.19481
 C1428 C 1.07124 0.29641 0.20624
 C1429 C 1.07345 0.29794 0.22468
 C1430 C 1.08672 0.30879 0.23139
 C1431 C 1.06256 0.28833 0.23611
 C1432 C 1.04929 0.27744 0.22939
 C1433 C 1.04666 0.27658 0.21110
 C1434 C 1.05762 0.28591 0.19959
 H1435 H 1.08140 0.30380 0.18067
 H1436 H 1.08852 0.31019 0.24548
 H1437 H 1.06455 0.28908 0.25024
 H1438 H 1.05563 0.28469 0.18551
 H1439 H 1.10828 0.32586 0.22548
 H1440 H 1.03654 0.26814 0.20571
 C1441 C 1.09646 0.81040 0.72037
 C1442 C 1.09403 0.81032 0.70201
 C1443 C 1.08031 0.80036 0.69477
 C1444 C 1.06938 0.79023 0.70573
 C1445 C 1.07241 0.78987 0.72411
 C1446 C 1.08579 0.80020 0.73132
 C1447 C 1.06227 0.77885 0.73494
 C1448 C 1.04904 0.76828 0.72766
 C1449 C 1.04558 0.76931 0.70952
 C1450 C 1.05573 0.78014 0.69860
 H1451 H 1.07823 0.80038 0.68064
 H1452 H 1.08822 0.80015 0.74538
 H1453 H 1.06482 0.77825 0.74898
 H1454 H 1.05312 0.78038 0.68457
 H1455 H 1.10701 0.81785 0.72628
 H1456 H 1.03540 0.76122 0.70371
 C1457 C 0.40096 0.70999 0.70010
 C1458 C 0.40173 0.69116 0.70039
 C1459 C 0.41401 0.68249 0.71137
 C1460 C 0.42564 0.69264 0.72165
 C1461 C 0.42454 0.71156 0.72122
 C1462 C 0.41217 0.72008 0.71046
 C1463 C 0.43578 0.72177 0.73160
 C1464 C 0.44831 0.71348 0.74247
 C1465 C 0.44979 0.69470 0.74250
 C1466 C 0.43845 0.68434 0.73225
 H1467 H 0.41474 0.66798 0.71161
 H1468 H 0.41118 0.73457 0.71001
 H1469 H 0.43477 0.73628 0.73125
 H1470 H 0.43963 0.66986 0.73267
 H1471 H 0.39150 0.71702 0.69196
 H1472 H 0.45941 0.68806 0.75076
 C1473 C 0.40366 0.17910 0.22216
 C1474 C 0.40510 0.18299 0.20411
 C1475 C 0.41859 0.19430 0.19826
 C1476 C 0.43019 0.20199 0.21042
 C1477 C 0.42807 0.19853 0.22861
 C1478 C 0.41494 0.18692 0.23431
 C1479 C 0.43893 0.20697 0.24087
 C1480 C 0.45199 0.21879 0.23526
 C1481 C 0.45456 0.22161 0.21716
 C1482 C 0.44367 0.21335 0.20481
 H1483 H 0.41992 0.19722 0.18433
 H1484 H 0.41326 0.18406 0.24820
 H1485 H 0.43700 0.20466 0.25484
 H1486 H 0.44559 0.21606 0.19092
 H1487 H 0.39335 0.17055 0.22703
 H1488 H 0.46458 0.23069 0.21263
 C1489 C -0.10007 0.72489 0.18241
 C1490 C -0.09705 0.70629 0.18296
 C1491 C -0.08244 0.69956 0.19217
 C1492 C -0.07116 0.71127 0.20098
 C1493 C -0.07467 0.72992 0.20080
 C1494 C -0.08904 0.73660 0.19132
 C1495 C -0.06400 0.74154 0.21043
 C1496 C -0.04976 0.73479 0.22014
 C1497 C -0.04594 0.71633 0.21969
 C1498 C -0.05658 0.70465 0.21023
 H1499 H -0.07987 0.68525 0.19247
 H1500 H -0.09188 0.75085 0.19098
 H1501 H -0.06692 0.75579 0.21062
 H1502 H -0.05362 0.69042 0.21044
 H1503 H -0.11128 0.73041 0.17550
 H1504 H -0.03510 0.71085 0.22723
 C1505 C -0.09190 0.21460 0.68291
 C1506 C -0.09247 0.19604 0.68602
 C1507 C -0.08053 0.18829 0.69802
 C1508 C -0.06836 0.19905 0.70694
 C1509 C -0.06838 0.21776 0.70399
 C1510 C -0.08004 0.22534 0.69183
 C1511 C -0.05704 0.22870 0.71355
 C1512 C -0.04553 0.22129 0.72603
 C1513 C -0.04497 0.20264 0.72842
 C1514 C -0.05636 0.19158 0.71899
 H1515 H -0.08074 0.17398 0.70043
 H1516 H -0.08017 0.23966 0.68941
 H1517 H -0.05742 0.24309 0.71158
 H1518 H -0.05603 0.17727 0.72137
 H1519 H -0.10099 0.22101 0.67392
 H1520 H -0.03620 0.19672 0.73805
 C1521 C 0.28973 0.40586 0.30879
 C1522 C 0.30807 0.40729 0.30856
 C1523 C 0.31592 0.42039 0.29795
 C1524 C 0.30550 0.43192 0.28761
 C1525 C 0.28708 0.42997 0.28761
 C1526 C 0.27934 0.41702 0.29834
 C1527 C 0.27669 0.44079 0.27667
 C1528 C 0.28440 0.45373 0.26584
 C1529 C 0.30260 0.45616 0.26640
 C1530 C 0.31311 0.44525 0.27714
 H1531 H 0.33005 0.42166 0.29784
 H1532 H 0.26525 0.41542 0.29856
 H1533 H 0.26261 0.43904 0.27638
 H1534 H 0.32717 0.44708 0.27707
 H1535 H 0.28339 0.39578 0.31675
 H1536 H 0.30872 0.46610 0.25808
 C1537 C 0.28687 -0.09406 0.81742
 C1538 C 0.30495 -0.09623 0.81406
 C1539 C 0.31277 -0.08527 0.80117
 C1540 C 0.30269 -0.07301 0.79140
 C1541 C 0.28442 -0.07181 0.79421
 C1542 C 0.27670 -0.08214 0.80747
 C1543 C 0.27415 -0.06063 0.78343
 C1544 C 0.28204 -0.05042 0.77015
 C1545 C 0.30027 -0.05093 0.76803
 C1546 C 0.31054 -0.06223 0.77853
 H1547 H 0.32670 -0.08616 0.79862
 H1548 H 0.26274 -0.08120 0.80996
 H1549 H 0.26003 -0.06017 0.78502
 H1550 H 0.32456 -0.06283 0.77631
 H1551 H 0.28027 -0.10204 0.82724
 H1552 H 0.30644 -0.04311 0.75777
 C1553 C 0.81849 0.41840 0.79192
 C1554 C 0.81027 0.40923 0.80590
 C1555 C 0.79279 0.41394 0.81018
 C1556 C 0.78359 0.42685 0.80024
 C1557 C 0.79200 0.43545 0.78601
 C1558 C 0.80948 0.43134 0.78216
 C1559 C 0.78260 0.44752 0.77539
 C1560 C 0.76479 0.45082 0.77859
 C1561 C 0.75653 0.44263 0.79295
 C1562 C 0.76591 0.43085 0.80384
 H1563 H 0.78605 0.40729 0.82086
 H1564 H 0.81611 0.43787 0.77132
 H1565 H 0.78885 0.45364 0.76408
 H1566 H 0.75918 0.42438 0.81466
 H1567 H 0.83191 0.41562 0.78823
 H1568 H 0.74269 0.44492 0.79532
 C1569 C 0.77798 -0.09065 0.32274
 C1570 C 0.79527 -0.09271 0.31639
 C1571 C 0.80074 -0.08163 0.30236
 C1572 C 0.78902 -0.06947 0.29439
 C1573 C 0.77149 -0.06843 0.30029
 C1574 C 0.76621 -0.07881 0.31467
 C1575 C 0.75944 -0.05728 0.29152
 C1576 C 0.76478 -0.04690 0.27712
 C1577 C 0.78236 -0.04738 0.27173
 C1578 C 0.79441 -0.05864 0.28028
 H1579 H 0.81406 -0.08240 0.29748
 H1580 H 0.75285 -0.07801 0.31949
 H1581 H 0.74583 -0.05688 0.29566
 H1582 H 0.80783 -0.05915 0.27562
 H1583 H 0.77315 -0.09864 0.33354
 H1584 H 0.78660 -0.03949 0.26056
 C1585 C 0.28252 0.59362 0.68034
 C1586 C 0.30044 0.59292 0.68464
 C1587 C 0.30638 0.58007 0.69692
 C1588 C 0.29449 0.56821 0.70490
 C1589 C 0.27648 0.56948 0.70070
 C1590 C 0.27068 0.58208 0.68832
 C1591 C 0.26443 0.55844 0.70924
 C1592 C 0.27002 0.54597 0.72193
 C1593 C 0.28797 0.54418 0.72559
 C1594 C 0.30014 0.55528 0.71718
 H1595 H 0.32017 0.57931 0.70025
 H1596 H 0.25692 0.58318 0.68496
 H1597 H 0.25058 0.55978 0.70632
 H1598 H 0.31389 0.55400 0.72051
 H1599 H 0.27746 0.60344 0.67112
 H1600 H 0.29249 0.53467 0.73541
 C1601 C 0.28101 1.09451 0.18113
 C1602 C 0.29899 1.09398 0.18514
 C1603 C 0.30525 1.08116 0.19727
 C1604 C 0.29359 1.06965 0.20593
 C1605 C 0.27547 1.07091 0.20230
 C1606 C 0.26937 1.08313 0.18967
 C1607 C 0.26367 1.06020 0.21163
 C1608 C 0.26967 1.04829 0.22467
 C1609 C 0.28773 1.04662 0.22779
 C1610 C 0.29961 1.05724 0.21850
 H1611 H 0.31912 1.08036 0.20023
 H1612 H 0.25553 1.08413 0.18667
 H1613 H 0.24973 1.06143 0.20907
 H1614 H 0.31345 1.05604 0.22144
 H1615 H 0.27574 1.10420 0.17188
 H1616 H 0.29257 1.03757 0.23787
 C1617 C 0.81908 0.60182 0.21846
 C1618 C 0.81603 0.59953 0.20035
 C1619 C 0.80506 0.58561 0.19474
 C1620 C 0.79702 0.57431 0.20712
 C1621 C 0.79977 0.57718 0.22530
 C1622 C 0.81097 0.59081 0.23082
 C1623 C 0.79105 0.56660 0.23771
 C1624 C 0.77971 0.55300 0.23225
 C1625 C 0.77757 0.54969 0.21418
 C1626 C 0.78610 0.56033 0.20168
 H1627 H 0.80279 0.58356 0.18080
 H1628 H 0.81330 0.59309 0.24472
 H1629 H 0.79291 0.56904 0.25167
 H1630 H 0.78396 0.55779 0.18780
 H1631 H 0.82739 0.61246 0.22315
 H1632 H 0.76886 0.53926 0.20976
 C1633 C 0.78846 1.09884 0.69173
 C1634 C 0.80668 1.09638 0.69315
 C1635 C 0.81334 1.08304 0.70449
 C1636 C 0.80178 1.07198 0.71398
 C1637 C 0.78350 1.07471 0.71232
 C1638 C 0.77700 1.08818 0.70126
 C1639 C 0.77189 1.06395 0.72174
 C1640 C 0.77812 1.05032 0.73289
 C1641 C 0.79626 1.04734 0.73429
 C1642 C 0.80803 1.05816 0.72498
 H1643 H 0.82738 1.08102 0.70558
 H1644 H 0.76302 1.09045 0.69991
 H1645 H 0.75789 1.06614 0.72036
 H1646 H 0.82197 1.05576 0.72642
 H1647 H 0.78299 1.10919 0.68332
 H1648 H 0.80131 1.03691 0.74288
 C1649 C 0.69152 0.59833 0.28904
 C1650 C 0.69365 0.59842 0.30743
 C1651 C 0.70620 0.58689 0.31512
 C1652 C 0.71670 0.57564 0.30451
 C1653 C 0.71473 0.57611 0.28600
 C1654 C 0.70201 0.58734 0.27842
 C1655 C 0.72567 0.56550 0.27533
 C1656 C 0.73847 0.55424 0.28285
 C1657 C 0.74002 0.55337 0.30125
 C1658 C 0.72928 0.56409 0.31202
 H1659 H 0.70779 0.58668 0.32930
 H1660 H 0.70030 0.58780 0.26426
 H1661 H 0.72428 0.56602 0.26111
 H1662 H 0.73092 0.56349 0.32618
 H1663 H 0.68209 0.60716 0.28276
 H1664 H 0.74982 0.54475 0.30725
 C1665 C 0.71272 1.08688 0.82148
 C1666 C 0.69609 1.09155 0.81462
 C1667 C 0.69066 1.08330 0.79882
 C1668 C 0.70191 1.07142 0.78973
 C1669 C 0.71874 1.06759 0.79656
 C1670 C 0.72387 1.07513 0.81253
 C1671 C 0.73037 1.05659 0.78713
 C1672 C 0.72543 1.04928 0.77094
 C1673 C 0.70856 1.05261 0.76434
 C1674 C 0.69684 1.06363 0.77369
 H1675 H 0.67792 1.08630 0.79327
 H1676 H 0.73668 1.07217 0.81801
 H1677 H 0.74345 1.05401 0.79215
 H1678 H 0.68399 1.06636 0.76821
 H1679 H 0.71751 1.09242 0.83367
 H1680 H 0.70469 1.04711 0.75175
 C1681 C 0.21504 0.59279 0.80857
 C1682 C 0.19674 0.59401 0.80654
 C1683 C 0.18849 0.58273 0.79426
 C1684 C 0.19849 0.57080 0.78388
 C1685 C 0.21690 0.57025 0.78582
 C1686 C 0.22499 0.58108 0.79832
 C1687 C 0.22705 0.55912 0.77504
 C1688 C 0.21917 0.54837 0.76226
 C1689 C 0.20086 0.54836 0.76068
 C1690 C 0.19056 0.55961 0.77138
 H1691 H 0.17441 0.58332 0.79263
 H1692 H 0.23909 0.58070 0.79999
 H1693 H 0.24119 0.55890 0.77644
 H1694 H 0.17647 0.55973 0.76973
 H1695 H 0.22194 0.60118 0.81777
 H1696 H 0.19462 0.54003 0.75090
 C1697 C 0.21306 1.10058 0.30600
 C1698 C 0.19472 1.09896 0.30597
 C1699 C 0.18699 1.08540 0.29579
 C1700 C 0.19757 1.07353 0.28589
 C1701 C 0.21596 1.07557 0.28602
 C1702 C 0.22355 1.08905 0.29611
 C1703 C 0.22659 1.06421 0.27595
 C1704 C 0.21928 1.05065 0.26565
 C1705 C 0.20106 1.04822 0.26584
 C1706 C 0.19024 1.05967 0.27584
 H1707 H 0.17287 1.08398 0.29576
 H1708 H 0.23763 1.09074 0.29630
 H1709 H 0.24068 1.06593 0.27607
 H1710 H 0.17619 1.05779 0.27561
 H1711 H 0.21943 1.11100 0.31344
 H1712 H 0.19522 1.03778 0.25795
 C1713 C 0.68880 0.39869 0.71554
 C1714 C 0.69023 0.40076 0.69717
 C1715 C 0.70092 0.41437 0.69034
 C1716 C 0.70979 0.42597 0.70186
 C1717 C 0.70811 0.42360 0.72028
 C1718 C 0.69764 0.40996 0.72695
 C1719 C 0.71698 0.43482 0.73185
 C1720 C 0.72770 0.44851 0.72548
 C1721 C 0.72912 0.45118 0.70721
 C1722 C 0.72027 0.43993 0.69545
 H1723 H 0.70204 0.41611 0.67620
 H1724 H 0.69631 0.40797 0.74104
 H1725 H 0.71558 0.43288 0.74595
 H1726 H 0.72172 0.44206 0.68141
 H1727 H 0.68096 0.38815 0.72121
 H1728 H 0.73738 0.46167 0.70205
 C1729 C 0.68081 -0.10090 0.22321
 C1730 C 0.68222 -0.09791 0.20500
 C1731 C 0.69079 -0.08253 0.19889
 C1732 C 0.69833 -0.07051 0.21086
 C1733 C 0.69765 -0.07416 0.22913
 C1734 C 0.68861 -0.08923 0.23518
 C1735 C 0.70635 -0.06291 0.24101
 C1736 C 0.71544 -0.04784 0.23489
 C1737 C 0.71528 -0.04383 0.21681
 C1738 C 0.70689 -0.05511 0.20487
 H1739 H 0.69166 -0.07998 0.18485
 H1740 H 0.68778 -0.09214 0.24914
 H1741 H 0.70640 -0.06606 0.25495
 H1742 H 0.70740 -0.05200 0.19093
 H1743 H 0.67422 -0.11264 0.22819
 H1744 H 0.72231 -0.03235 0.21182
 C1745 C 0.19426 0.41037 0.21254
 C1746 C 0.19601 0.41018 0.19411
 C1747 C 0.20834 0.42143 0.18603
 C1748 C 0.21893 0.43261 0.19632
 C1749 C 0.21733 0.43225 0.21489
 C1750 C 0.20487 0.42124 0.22283
 C1751 C 0.22835 0.44273 0.22526
 C1752 C 0.24091 0.45376 0.21740
 C1753 C 0.24207 0.45462 0.19897
 C1754 C 0.23122 0.44403 0.18847
 H1755 H 0.20965 0.42149 0.17181
 H1756 H 0.20347 0.42088 0.23704
 H1757 H 0.22726 0.44228 0.23950
 H1758 H 0.23254 0.44462 0.17427
 H1759 H 0.18501 0.40173 0.21910
 H1760 H 0.25167 0.46314 0.19274
 C1761 C 0.19712 -0.09847 0.71457
 C1762 C 0.19748 -0.09699 0.69610
 C1763 C 0.20862 -0.08443 0.68816
 C1764 C 0.21915 -0.07336 0.69868
 C1765 C 0.21869 -0.07521 0.71722
 C1766 C 0.20765 -0.08775 0.72501
 C1767 C 0.22935 -0.06460 0.72778
 C1768 C 0.24054 -0.05198 0.72021
 C1769 C 0.24069 -0.04974 0.70183
 C1770 C 0.23014 -0.06045 0.69111
 H1771 H 0.20892 -0.08315 0.67394
 H1772 H 0.20721 -0.08934 0.73920
 H1773 H 0.22891 -0.06610 0.74199
 H1774 H 0.23064 -0.05871 0.67694
 H1775 H 0.18893 -0.10822 0.72106
 H1776 H 0.24920 -0.03996 0.69580
 C1777 C 0.28579 0.31074 0.40373
 C1778 C 0.30382 0.30891 0.40702
 C1779 C 0.30961 0.29780 0.42085
 C1780 C 0.29734 0.28903 0.43162
 C1781 C 0.27925 0.29103 0.42806
 C1782 C 0.27363 0.30179 0.41405
 C1783 C 0.26697 0.28235 0.43861
 C1784 C 0.27233 0.27178 0.45293
 C1785 C 0.29028 0.27003 0.45669
 C1786 C 0.30273 0.27847 0.44601
 H1787 H 0.32351 0.29639 0.42346
 H1788 H 0.25981 0.30339 0.41115
 H1789 H 0.25311 0.28400 0.43582
 H1790 H 0.31651 0.27682 0.44903
 H1791 H 0.28103 0.31898 0.39297
 H1792 H 0.29465 0.26191 0.46771
 C1793 C 0.31395 0.78077 -0.09104
 C1794 C 0.31328 0.79953 -0.08962
 C1795 C 0.30293 0.80752 -0.07643
 C1796 C 0.29293 0.79692 -0.06505
 C1797 C 0.29300 0.77808 -0.06713
 C1798 C 0.30377 0.77012 -0.07997
 C1799 C 0.28194 0.76760 -0.05666
 C1800 C 0.27105 0.77570 -0.04396
 C1801 C 0.27173 0.79430 -0.04137
 C1802 C 0.28250 0.80486 -0.05192
 H1803 H 0.30253 0.82199 -0.07518
 H1804 H 0.30406 0.75571 -0.08167
 H1805 H 0.28149 0.75321 -0.05859
 H1806 H 0.28239 0.81925 -0.05007
 H1807 H 0.32180 0.77437 -0.10119
 H1808 H 0.26335 0.80072 -0.03167
 C1809 C 0.81842 0.28403 -0.09732
 C1810 C 0.81514 0.30260 -0.09743
 C1811 C 0.80310 0.30993 -0.08525
 C1812 C 0.79424 0.29873 -0.07333
 C1813 C 0.79735 0.28003 -0.07382
 C1814 C 0.80957 0.27286 -0.08569
 C1815 C 0.78793 0.26870 -0.06267
 C1816 C 0.77550 0.27572 -0.05085
 C1817 C 0.77288 0.29433 -0.04988
 C1818 C 0.78214 0.30578 -0.06112
 H1819 H 0.80058 0.32425 -0.08510
 H1820 H 0.81212 0.25855 -0.08617
 H1821 H 0.79003 0.25431 -0.06336
 H1822 H 0.77963 0.32008 -0.06046
 H1823 H 0.82746 0.27797 -0.10663
 H1824 H 0.76327 0.29993 -0.04086
 C1825 C 0.81881 0.77896 0.40327
 C1826 C 0.81673 0.79755 0.40549
 C1827 C 0.80712 0.80412 0.41996
 C1828 C 0.79921 0.79222 0.43182
 C1829 C 0.80071 0.77353 0.42899
 C1830 C 0.81080 0.76705 0.41487
 C1831 C 0.79171 0.76167 0.44001
 C1832 C 0.78139 0.76822 0.45397
 C1833 C 0.78065 0.78673 0.45723
 C1834 C 0.78945 0.79866 0.44620
 H1835 H 0.80567 0.81845 0.42188
 H1836 H 0.81222 0.75277 0.41261
 H1837 H 0.79238 0.74737 0.43753
 H1838 H 0.78830 0.81292 0.44867
 H1839 H 0.82608 0.77361 0.39216
 H1840 H 0.77266 0.79200 0.46788
 C1841 C 0.68406 0.28170 0.59518
 C1842 C 0.68497 0.30046 0.59393
 C1843 C 0.69511 0.30816 0.58048
 C1844 C 0.70439 0.29719 0.56852
 C1845 C 0.70385 0.27834 0.57035
 C1846 C 0.69351 0.27075 0.58360
 C1847 C 0.71395 0.26739 0.55916
 C1848 C 0.72437 0.27498 0.54593
 C1849 C 0.72425 0.29365 0.54364
 C1850 C 0.71442 0.30470 0.55492
 H1851 H 0.69574 0.32262 0.57932
 H1852 H 0.69289 0.25633 0.58513
 H1853 H 0.71401 0.25296 0.56094
 H1854 H 0.71493 0.31910 0.55322
 H1855 H 0.67642 0.27546 0.60548
 H1856 H 0.73235 0.29970 0.53358
 C1857 C 0.71772 0.81786 1.09207
 C1858 C 0.69945 0.81623 1.09092
 C1859 C 0.69229 0.80549 1.07755
 C1860 C 0.70325 0.79579 1.06603
 C1861 C 0.72162 0.79685 1.06792
 C1862 C 0.72872 0.80821 1.08070
 C1863 C 0.73258 0.78622 1.05728
 C1864 C 0.72548 0.77467 1.04460
 C1865 C 0.70726 0.77420 1.04230
 C1866 C 0.69620 0.78464 1.05298
 H1867 H 0.67821 0.80440 1.07631
 H1868 H 0.74278 0.80931 1.08217
 H1869 H 0.74666 0.78668 1.05903
 H1870 H 0.68215 0.78372 1.05129
 H1871 H 0.72358 0.82603 1.10221
 H1872 H 0.70157 0.76531 1.03264
 C1873 C 0.18935 0.28813 1.09596
 C1874 C 0.19109 0.30686 1.09585
 C1875 C 0.20270 0.31476 1.08375
 C1876 C 0.21276 0.30403 1.07224
 C1877 C 0.21137 0.28518 1.07304
 C1878 C 0.19944 0.27740 1.08473
 C1879 C 0.22213 0.27440 1.06234
 C1880 C 0.23415 0.28215 1.05062
 C1881 C 0.23492 0.30089 1.04931
 C1882 C 0.22440 0.31177 1.06014
 H1883 H 0.20400 0.32920 1.08335
 H1884 H 0.19808 0.26297 1.08538
 H1885 H 0.22127 0.25993 1.06319
 H1886 H 0.22551 0.32620 1.05920
 H1887 H 0.18059 0.28167 1.10515
 H1888 H 0.24402 0.30710 1.04027
 C1889 C 0.18322 0.78413 0.59612
 C1890 C 0.18487 0.80284 0.59503
 C1891 C 0.19557 0.81021 0.58184
 C1892 C 0.20481 0.79899 0.57013
 C1893 C 0.20358 0.78017 0.57186
 C1894 C 0.19257 0.77290 0.58472
 C1895 C 0.21372 0.76892 0.56101
 C1896 C 0.22494 0.77620 0.54829
 C1897 C 0.22549 0.79486 0.54604
 C1898 C 0.21557 0.80619 0.55694
 H1899 H 0.19677 0.82464 0.58079
 H1900 H 0.19140 0.75851 0.58615
 H1901 H 0.21316 0.75450 0.56264
 H1902 H 0.21657 0.82057 0.55529
 H1903 H 0.17518 0.77811 0.60623
 H1904 H 0.23412 0.80067 0.53629
 C1905 C 0.31283 0.72014 0.59711
 C1906 C 0.31208 0.70152 0.59447
 C1907 C 0.30196 0.69477 0.58057
 C1908 C 0.29249 0.70650 0.56958
 C1909 C 0.29287 0.72517 0.57277
 C1910 C 0.30322 0.73185 0.58644
 C1911 C 0.28270 0.73684 0.56243
 C1912 C 0.27237 0.73014 0.54871
 C1913 C 0.27256 0.71168 0.54515
 C1914 C 0.28245 0.69992 0.55558
 H1915 H 0.30145 0.68044 0.57834
 H1916 H 0.30373 0.74612 0.58900
 H1917 H 0.28269 0.75111 0.56509
 H1918 H 0.28209 0.68568 0.55285
 H1919 H 0.32041 0.72567 0.60780
 H1920 H 0.26461 0.70632 0.53462
 C1921 C 0.31990 0.22113 1.09606
 C1922 C 0.31726 0.20257 1.09463
 C1923 C 0.30596 0.19613 1.08148
 C1924 C 0.29708 0.20811 1.07021
 C1925 C 0.29932 0.22676 1.07229
 C1926 C 0.31093 0.23311 1.08508
 C1927 C 0.28965 0.23876 1.06181
 C1928 C 0.27785 0.23240 1.04915
 C1929 C 0.27628 0.21387 1.04656
 C1930 C 0.28574 0.20180 1.05710
 H1931 H 0.30393 0.18185 1.08013
 H1932 H 0.31286 0.24737 1.08681
 H1933 H 0.29110 0.25309 1.06362
 H1934 H 0.28399 0.18755 1.05520
 H1935 H 0.32841 0.22648 1.10612
 H1936 H 0.26732 0.20876 1.03679
 C1937 C 0.78197 0.68405 1.08977
 C1938 C 0.80012 0.68687 1.08930
 C1939 C 0.80707 0.69878 1.07681
 C1940 C 0.79597 0.70844 1.06548
 C1941 C 0.77765 0.70626 1.06675
 C1942 C 0.77080 0.69378 1.07866
 C1943 C 0.76649 0.71686 1.05633
 C1944 C 0.77340 0.72933 1.04440
 C1945 C 0.79162 0.73087 1.04264
 C1946 C 0.80284 0.72058 1.05321
 H1947 H 0.82110 0.70078 1.07614
 H1948 H 0.75679 0.69181 1.07963
 H1949 H 0.75241 0.71558 1.05760
 H1950 H 0.81687 0.72231 1.05197
 H1951 H 0.77633 0.67490 1.09924
 H1952 H 0.79712 0.74043 1.03348
 C1953 C 0.78479 0.18922 0.59285
 C1954 C 0.80299 0.19151 0.59137
 C1955 C 0.80953 0.20332 0.57853
 C1956 C 0.79796 0.21269 0.56731
 C1957 C 0.77969 0.21050 0.56927
 C1958 C 0.77326 0.19868 0.58200
 C1959 C 0.76808 0.22030 0.55864
 C1960 C 0.77439 0.23218 0.54583
 C1961 C 0.79254 0.23389 0.54348
 C1962 C 0.80426 0.22430 0.55422
 H1963 H 0.82354 0.20508 0.57721
 H1964 H 0.75929 0.19684 0.58364
 H1965 H 0.75406 0.21881 0.56037
 H1966 H 0.81821 0.22609 0.55241
 H1967 H 0.77937 0.18040 0.60273
 H1968 H 0.79762 0.24303 0.53368
 C1969 C 0.69187 0.71825 0.40660
 C1970 C 0.69236 0.69946 0.40790
 C1971 C 0.70290 0.69130 0.42085
 C1972 C 0.71294 0.70184 0.43232
 C1973 C 0.71272 0.72070 0.43045
 C1974 C 0.70205 0.72876 0.41768
 C1975 C 0.72339 0.73121 0.44119
 C1976 C 0.73412 0.72321 0.45402
 C1977 C 0.73376 0.70455 0.45636
 C1978 C 0.72333 0.69391 0.44549
 H1979 H 0.70324 0.67682 0.42202
 H1980 H 0.70170 0.74319 0.41614
 H1981 H 0.72355 0.74564 0.43947
 H1982 H 0.72357 0.67950 0.44725
 H1983 H 0.68398 0.72486 0.39665
 H1984 H 0.74201 0.69820 0.46619
 C1985 C 0.68724 0.21691 -0.09290
 C1986 C 0.69008 0.19829 -0.09259
 C1987 C 0.70281 0.19104 -0.08116
 C1988 C 0.71290 0.20231 -0.07050
 C1989 C 0.71037 0.22107 -0.07147
 C1990 C 0.69738 0.22822 -0.08251
 C1991 C 0.72102 0.23239 -0.06154
 C1992 C 0.73397 0.22524 -0.05039
 C1993 C 0.73601 0.20659 -0.04896
 C1994 C 0.72563 0.19518 -0.05906
 H1995 H 0.70495 0.17668 -0.08063
 H1996 H 0.69521 0.24257 -0.08329
 H1997 H 0.71929 0.24681 -0.06245
 H1998 H 0.72766 0.18083 -0.05803
 H1999 H 0.67759 0.22283 -0.10162
 H2000 H 0.74591 0.20091 -0.04034
 C2001 C 0.21515 0.68736 -0.08901
 C2002 C 0.19739 0.69181 -0.09175
 C2003 C 0.18959 0.70531 -0.08129
 C2004 C 0.19961 0.71471 -0.06888
 C2005 C 0.21760 0.71052 -0.06693
 C2006 C 0.22514 0.69665 -0.07679
 C2007 C 0.22792 0.72056 -0.05547
 C2008 C 0.22056 0.73474 -0.04581
 C2009 C 0.20256 0.73847 -0.04714
 C2010 C 0.19213 0.72854 -0.05867
 H2011 H 0.17592 0.70887 -0.08306
 H2012 H 0.23887 0.69315 -0.07526
 H2013 H 0.24182 0.71763 -0.05433
 H2014 H 0.17835 0.73190 -0.05988
 H2015 H 0.22159 0.67684 -0.09643
 H2016 H 0.19675 0.74942 -0.03974
 C2017 C 0.20966 0.18491 0.41627
 C2018 C 0.19302 0.19165 0.41161
 C2019 C 0.18636 0.20687 0.42043
 C2020 C 0.19667 0.21585 0.43289
 C2021 C 0.21376 0.20943 0.43660
 C2022 C 0.21994 0.19373 0.42860
 C2023 C 0.22467 0.21917 0.44775
 C2024 C 0.21878 0.23524 0.45534
 C2025 C 0.20154 0.24117 0.45242
 C2026 C 0.19052 0.23152 0.44122
 H2027 H 0.17354 0.21219 0.41710
 H2028 H 0.23290 0.18848 0.43155
 H2029 H 0.23802 0.21464 0.45004
 H2030 H 0.17741 0.23658 0.43867
 H2031 H 0.21500 0.17294 0.41017
 H2032 H 0.19688 0.25360 0.45820
 C2033 C 0.30727 0.40328 0.71321
 C2034 C 0.30664 0.40398 0.69471
 C2035 C 0.29512 0.41623 0.68650
 C2036 C 0.28421 0.42746 0.69669
 C2037 C 0.28470 0.42620 0.71527
 C2038 C 0.29638 0.41424 0.72339
 C2039 C 0.27336 0.43676 0.72547
 C2040 C 0.26160 0.44876 0.71744
 C2041 C 0.26164 0.45062 0.69904
 C2042 C 0.27278 0.43990 0.68870
 H2043 H 0.29461 0.41704 0.67226
 H2044 H 0.29698 0.41326 0.73762
 H2045 H 0.27366 0.43570 0.73973
 H2046 H 0.27240 0.44127 0.67449
 H2047 H 0.31586 0.39391 0.71993
 H2048 H 0.25282 0.46007 0.69269
 C2049 C 0.27988 0.90098 0.18830
 C2050 C 0.29798 0.90408 0.18900
 C2051 C 0.30428 0.91842 0.19903
 C2052 C 0.29259 0.92954 0.20834
 C2053 C 0.27442 0.92598 0.20796
 C2054 C 0.26820 0.91175 0.19782
 C2055 C 0.26281 0.93661 0.21786
 C2056 C 0.26907 0.95098 0.22786
 C2057 C 0.28703 0.95483 0.22770
 C2058 C 0.29874 0.94411 0.21812
 H2059 H 0.31823 0.92097 0.19946
 H2060 H 0.25433 0.90887 0.19732
 H2061 H 0.24892 0.93373 0.21785
 H2062 H 0.31258 0.94712 0.21846
 H2063 H 0.27476 0.88991 0.18074
 H2064 H 0.29204 0.96586 0.23540
 C2065 C 0.78952 0.40695 0.19497
 C2066 C 0.80788 0.40740 0.19631
 C2067 C 0.81562 0.41968 0.20796
 C2068 C 0.80505 0.43155 0.21792
 C2069 C 0.78662 0.43076 0.21642
 C2070 C 0.77902 0.41844 0.20495
 C2071 C 0.77597 0.44218 0.22651
 C2072 C 0.78333 0.45458 0.23817
 C2073 C 0.80165 0.45575 0.23931
 C2074 C 0.81244 0.44425 0.22932
 H2075 H 0.82976 0.42018 0.20903
 H2076 H 0.76491 0.41767 0.20369
 H2077 H 0.76184 0.44137 0.22535
 H2078 H 0.82653 0.44518 0.23061
 H2079 H 0.78317 0.39748 0.18635
 H2080 H 0.80758 0.46521 0.24825
 C2081 C 0.81142 0.90243 0.71467
 C2082 C 0.80990 0.90412 0.69630
 C2083 C 0.79903 0.91769 0.68925
 C2084 C 0.79002 0.92960 0.70059
 C2085 C 0.79170 0.92752 0.71904
 C2086 C 0.80241 0.91396 0.72591
 C2087 C 0.78246 0.93883 0.73044
 C2088 C 0.77138 0.95232 0.72386
 C2089 C 0.77014 0.95489 0.70557
 C2090 C 0.77935 0.94354 0.69398
 H2091 H 0.79783 0.91914 0.67509
 H2092 H 0.80379 0.91222 0.74003
 H2093 H 0.78365 0.93697 0.74457
 H2094 H 0.77795 0.94550 0.67990
 H2095 H 0.81945 0.89195 0.72047
 H2096 H 0.76164 0.96528 0.70029
 C2097 C 0.67921 0.59566 0.71475
 C2098 C 0.68246 0.59399 0.69660
 C2099 C 0.69390 0.58043 0.69056
 C2100 C 0.70210 0.56873 0.70259
 C2101 C 0.69917 0.57099 0.72088
 C2102 C 0.68762 0.58439 0.72679
 C2103 C 0.70812 0.56007 0.73298
 C2104 C 0.71978 0.54670 0.72710
 C2105 C 0.72203 0.54394 0.70893
 C2106 C 0.71335 0.55495 0.69675
 H2107 H 0.69632 0.57895 0.67655
 H2108 H 0.68519 0.58626 0.74075
 H2109 H 0.70630 0.56217 0.74701
 H2110 H 0.71568 0.55289 0.68281
 H2111 H 0.67050 0.60604 0.71972
 H2112 H 0.73108 0.53373 0.70420
 C2113 C 0.71349 0.09967 0.18801
 C2114 C 0.69519 0.09790 0.18762
 C2115 C 0.68736 0.08401 0.19728
 C2116 C 0.69770 0.07223 0.20743
 C2117 C 0.71603 0.07459 0.20818
 C2118 C 0.72381 0.08820 0.19827
 C2119 C 0.72626 0.06358 0.21914
 C2120 C 0.71847 0.05007 0.22926
 C2121 C 0.70037 0.04725 0.22788
 C2122 C 0.69003 0.05831 0.21711
 H2123 H 0.67327 0.08240 0.19690
 H2124 H 0.73785 0.09013 0.19863
 H2125 H 0.74026 0.06572 0.22009
 H2126 H 0.67602 0.05620 0.21663
 H2127 H 0.71984 0.11029 0.18078
 H2128 H 0.69415 0.03696 0.23569
 C2129 C 0.21912 0.59726 0.18134
 C2130 C 0.20118 0.59509 0.18483
 C2131 C 0.19588 0.58178 0.19677
 C2132 C 0.20841 0.57096 0.20534
 C2133 C 0.22643 0.57368 0.20206
 C2134 C 0.23163 0.58670 0.18992
 C2135 C 0.23899 0.56352 0.21117
 C2136 C 0.23384 0.55050 0.22340
 C2137 C 0.21596 0.54738 0.22620
 C2138 C 0.20330 0.55761 0.21730
 H2139 H 0.18207 0.57987 0.19940
 H2140 H 0.24538 0.58888 0.18721
 H2141 H 0.25281 0.56576 0.20884
 H2142 H 0.18956 0.55523 0.21989
 H2143 H 0.22359 0.60751 0.17235
 H2144 H 0.21183 0.53736 0.23562
 C2145 C 0.21566 0.08139 0.67675
 C2146 C 0.19944 0.08628 0.68422
 C2147 C 0.19409 0.07815 0.70003
 C2148 C 0.20533 0.06612 0.70884
 C2149 C 0.22193 0.06194 0.70151
 C2150 C 0.22678 0.06929 0.68528
 C2151 C 0.23369 0.05101 0.71084
 C2152 C 0.22913 0.04432 0.72744
 C2153 C 0.21250 0.04798 0.73449
 C2154 C 0.20061 0.05878 0.72520
 H2155 H 0.18164 0.08186 0.70595
 H2156 H 0.23939 0.06607 0.67942
 H2157 H 0.24665 0.04824 0.70555
 H2158 H 0.18794 0.06178 0.73101
 H2159 H 0.21994 0.08719 0.66442
 H2160 H 0.20895 0.04287 0.74735
 C2161 C 0.28920 0.59602 0.31079
 C2162 C 0.30747 0.59656 0.30852
 C2163 C 0.31545 0.58513 0.29604
 C2164 C 0.30527 0.57354 0.28576
 C2165 C 0.28687 0.57357 0.28788
 C2166 C 0.27901 0.58468 0.30055
 C2167 C 0.27658 0.56271 0.27711
 C2168 C 0.28436 0.55168 0.26425
 C2169 C 0.30267 0.55114 0.26262
 C2170 C 0.31307 0.56209 0.27324
 H2171 H 0.32954 0.58528 0.29426
 H2172 H 0.26492 0.58478 0.30237
 H2173 H 0.26245 0.56292 0.27859
 H2174 H 0.32715 0.56178 0.27151
 H2175 H 0.28267 0.60473 0.32016
 H2176 H 0.30887 0.54264 0.25282
 C2177 C 0.28543 0.09241 0.81368
 C2178 C 0.30380 0.09166 0.81227
 C2179 C 0.31156 0.07951 0.80030
 C2180 C 0.30109 0.06849 0.78974
 C2181 C 0.28265 0.06975 0.79105
 C2182 C 0.27497 0.08160 0.80316
 C2183 C 0.27214 0.05923 0.78017
 C2184 C 0.27975 0.04726 0.76802
 C2185 C 0.29808 0.04569 0.76708
 C2186 C 0.30868 0.05630 0.77780
 H2187 H 0.32569 0.07861 0.79921
 H2188 H 0.26084 0.08262 0.80439
 H2189 H 0.25800 0.06028 0.78119
 H2190 H 0.32279 0.05504 0.77668
 H2191 H 0.27902 0.10165 0.82265
 H2192 H 0.30418 0.03652 0.75781
 C2193 C 0.80146 0.59967 0.78386
 C2194 C 0.80201 0.59638 0.80209
 C2195 C 0.79268 0.58190 0.80912
 C2196 C 0.78313 0.57061 0.79790
 C2197 C 0.78262 0.57421 0.77959
 C2198 C 0.79180 0.58875 0.77273
 C2199 C 0.77289 0.56328 0.76839
 C2200 C 0.76365 0.54864 0.77511
 C2201 C 0.76453 0.54480 0.79322
 C2202 C 0.77414 0.55575 0.80455
 H2203 H 0.79318 0.57923 0.82315
 H2204 H 0.79154 0.59167 0.75874
 H2205 H 0.77247 0.56614 0.75439
 H2206 H 0.77447 0.55266 0.81850
 H2207 H 0.80837 0.61088 0.77818
 H2208 H 0.75743 0.53357 0.79863
 C2209 C 0.80345 0.09860 0.28394
 C2210 C 0.80221 0.09817 0.30241
 C2211 C 0.79085 0.08584 0.31045
 C2212 C 0.78093 0.07404 0.30009
 C2213 C 0.78215 0.07489 0.28152
 C2214 C 0.79344 0.08718 0.27360
 C2215 C 0.77193 0.06359 0.27111
 C2216 C 0.76045 0.05131 0.27889
 C2217 C 0.75965 0.05006 0.29733
 C2218 C 0.76975 0.06142 0.30787
 H2219 H 0.78989 0.08532 0.32468
 H2220 H 0.79447 0.08799 0.25938
 H2221 H 0.77275 0.06445 0.25686
 H2222 H 0.76868 0.06045 0.32207
 H2223 H 0.81189 0.10809 0.27739
 H2224 H 0.75083 0.04068 0.30355
 C2225 C 0.69011 0.40853 0.27998
 C2226 C 0.68890 0.41027 0.29838
 C2227 C 0.69773 0.42431 0.30678
 C2228 C 0.70825 0.43601 0.29701
 C2229 C 0.71006 0.43353 0.27862
 C2230 C 0.70065 0.42001 0.27019
 C2231 C 0.72170 0.44421 0.26907
 C2232 C 0.73150 0.45742 0.27761
 C2233 C 0.72894 0.46047 0.29569
 C2234 C 0.71744 0.44979 0.30535
 H2235 H 0.69669 0.42591 0.32094
 H2236 H 0.70179 0.41803 0.25609
 H2237 H 0.72351 0.44196 0.25506
 H2238 H 0.71608 0.45200 0.31940
 H2239 H 0.68350 0.39781 0.27318
 H2240 H 0.73641 0.47060 0.30248
 C2241 C 0.68769 0.90447 0.78147
 C2242 C 0.69007 0.90461 0.79982
 C2243 C 0.70202 0.91670 0.80726
 C2244 C 0.71123 0.92871 0.79644
 C2245 C 0.70873 0.92827 0.77800
 C2246 C 0.69694 0.91614 0.77066
 C2247 C 0.71827 0.93973 0.76710
 C2248 C 0.73033 0.95177 0.77428
 C2249 C 0.73235 0.95266 0.79264
 C2250 C 0.72292 0.94114 0.80365
 H2251 H 0.70397 0.91690 0.82140
 H2252 H 0.69493 0.91560 0.75654
 H2253 H 0.71651 0.93917 0.75293
 H2254 H 0.72493 0.94178 0.81777
 H2255 H 0.67885 0.89510 0.77535
 H2256 H 0.74162 0.96184 0.79839
 C2257 C 0.17685 0.40336 0.77861
 C2258 C 0.17955 0.40525 0.79683
 C2259 C 0.19070 0.41883 0.80288
 C2260 C 0.19951 0.42994 0.79090
 C2261 C 0.19720 0.42742 0.77260
 C2262 C 0.18562 0.41432 0.76660
 C2263 C 0.20686 0.43774 0.76063
 C2264 C 0.21872 0.45065 0.76666
 C2265 C 0.22042 0.45354 0.78486
 C2266 C 0.21092 0.44323 0.79689
 H2267 H 0.19272 0.42060 0.81689
 H2268 H 0.18361 0.41231 0.75261
 H2269 H 0.20536 0.43557 0.74659
 H2270 H 0.21276 0.44539 0.81088
 H2271 H 0.16842 0.39299 0.77356
 H2272 H 0.22953 0.46336 0.78979
 C2273 C 0.18143 0.90628 0.28489
 C2274 C 0.18428 0.90686 0.30317
 C2275 C 0.19613 0.91936 0.31003
 C2276 C 0.20525 0.93093 0.29870
 C2277 C 0.20267 0.92974 0.28030
 C2278 C 0.19061 0.91753 0.27355
 C2279 C 0.21245 0.94051 0.26889
 C2280 C 0.22466 0.95266 0.27557
 C2281 C 0.22669 0.95435 0.29386
 C2282 C 0.21711 0.94349 0.30537
 H2283 H 0.19825 0.92007 0.32413
 H2284 H 0.18843 0.91652 0.25948
 H2285 H 0.21080 0.93926 0.25475
 H2286 H 0.21918 0.94471 0.31944
 H2287 H 0.17247 0.89673 0.27924
 H2288 H 0.23613 0.96362 0.29919
 C2289 C 0.40651 0.30594 0.71510
 C2290 C 0.40653 0.30381 0.69668
 C2291 C 0.41812 0.29121 0.68902
 C2292 C 0.42924 0.28067 0.69966
 C2293 C 0.42863 0.28266 0.71816
 C2294 C 0.41745 0.29550 0.72572
 C2295 C 0.43898 0.27158 0.72888
 C2296 C 0.45005 0.25848 0.72143
 C2297 C 0.45130 0.25712 0.70301
 C2298 C 0.44089 0.26808 0.69219
 H2299 H 0.41843 0.28952 0.67484
 H2300 H 0.41702 0.29732 0.73988
 H2301 H 0.43840 0.27304 0.74309
 H2302 H 0.44182 0.26661 0.67802
 H2303 H 0.39769 0.31537 0.72147
 H2304 H 0.45999 0.24727 0.69703
 C2305 C 0.40454 0.81401 0.21543
 C2306 C 0.40617 0.81342 0.19700
 C2307 C 0.41980 0.80325 0.18939
 C2308 C 0.43130 0.79325 0.20003
 C2309 C 0.42898 0.79319 0.21852
 C2310 C 0.41578 0.80388 0.22611
 C2311 C 0.43955 0.78202 0.22904
 C2312 C 0.45254 0.77109 0.22131
 C2313 C 0.45536 0.77196 0.20305
 C2314 C 0.44477 0.78288 0.19247
 H2315 H 0.42128 0.80293 0.17518
 H2316 H 0.41390 0.80410 0.24026
 H2317 H 0.43745 0.78150 0.24317
 H2318 H 0.44683 0.78288 0.17834
 H2319 H 0.39411 0.82173 0.22158
 H2320 H 0.46529 0.76357 0.19689
 C2321 C 0.90387 0.28438 0.18769
 C2322 C 0.90533 0.30310 0.18873
 C2323 C 0.91887 0.31054 0.19882
 C2324 C 0.93074 0.29933 0.20788
 C2325 C 0.92873 0.28053 0.20715
 C2326 C 0.91538 0.27320 0.19690
 C2327 C 0.93986 0.26934 0.21697
 C2328 C 0.95313 0.27662 0.22742
 C2329 C 0.95561 0.29524 0.22750
 C2330 C 0.94443 0.30654 0.21787
 H2331 H 0.92019 0.32496 0.19954
 H2332 H 0.91373 0.25881 0.19616
 H2333 H 0.93800 0.25495 0.21679
 H2334 H 0.94628 0.32090 0.21850
 H2335 H 0.89350 0.27832 0.18011
 H2336 H 0.96575 0.30106 0.23557
 C2337 C 0.91147 0.81034 0.71554
 C2338 C 0.91154 0.80754 0.69722
 C2339 C 0.92294 0.79449 0.69001
 C2340 C 0.93383 0.78416 0.70107
 C2341 C 0.93315 0.78686 0.71949
 C2342 C 0.92213 0.80009 0.72655
 C2343 C 0.94331 0.77611 0.73065
 C2344 C 0.95435 0.76274 0.72374
 C2345 C 0.95551 0.76043 0.70542
 C2346 C 0.94522 0.77101 0.69413
 H2347 H 0.92328 0.79230 0.67591
 H2348 H 0.92154 0.80235 0.74065
 H2349 H 0.94263 0.77810 0.74480
 H2350 H 0.94604 0.76880 0.68004
 H2351 H 0.90277 0.82011 0.72155
 H2352 H 0.96407 0.75020 0.69991
 C2353 C 0.59524 0.30580 0.28452
 C2354 C 0.59491 0.30608 0.30305
 C2355 C 0.58201 0.29625 0.31202
 C2356 C 0.56976 0.28609 0.30252
 C2357 C 0.57067 0.28558 0.28391
 C2358 C 0.58331 0.29562 0.27506
 C2359 C 0.55928 0.27464 0.27441
 C2360 C 0.54687 0.26413 0.28317
 C2361 C 0.54540 0.26529 0.30158
 C2362 C 0.55681 0.27615 0.31121
 H2363 H 0.58152 0.29649 0.32629
 H2364 H 0.58415 0.29539 0.26081
 H2365 H 0.56038 0.27387 0.26018
 H2366 H 0.55579 0.27645 0.32545
 H2367 H 0.60508 0.31306 0.27724
 H2368 H 0.53594 0.25721 0.30855
 C2369 C 0.59022 0.80713 0.78441
 C2370 C 0.59076 0.80579 0.80287
 C2371 C 0.57973 0.79350 0.81142
 C2372 C 0.56845 0.78259 0.80163
 C2373 C 0.56838 0.78379 0.78305
 C2374 C 0.57917 0.79621 0.77459
 C2375 C 0.55768 0.77240 0.77322
 C2376 C 0.54686 0.75989 0.78167
 C2377 C 0.54657 0.75918 0.80015
 C2378 C 0.55735 0.77038 0.81006
 H2379 H 0.57992 0.79242 0.82565
 H2380 H 0.57924 0.79735 0.76036
 H2381 H 0.55777 0.77323 0.75895
 H2382 H 0.55714 0.76938 0.82430
 H2383 H 0.59868 0.81629 0.77746
 H2384 H 0.53831 0.74966 0.80689
 C2385 C 0.09728 0.27601 0.81781
 C2386 C 0.09428 0.29458 0.81661
 C2387 C 0.07975 0.30097 0.80703
 C2388 C 0.06860 0.28896 0.79839
 C2389 C 0.07225 0.27035 0.79903
 C2390 C 0.08644 0.26401 0.80900
 C2391 C 0.06206 0.25847 0.78914
 C2392 C 0.04815 0.26490 0.77873
 C2393 C 0.04398 0.28328 0.77899
 C2394 C 0.05416 0.29523 0.78868
 H2395 H 0.07722 0.31527 0.80621
 H2396 H 0.08935 0.24978 0.80971
 H2397 H 0.06533 0.24429 0.78902
 H2398 H 0.05107 0.30943 0.78814
 H2399 H 0.10841 0.27075 0.82505
 H2400 H 0.03344 0.28853 0.77090
 C2401 C 0.09265 0.78464 0.31098
 C2402 C 0.09170 0.80334 0.30885
 C2403 C 0.07940 0.81072 0.29704
 C2404 C 0.06818 0.79950 0.28750
 C2405 C 0.06950 0.78071 0.28965
 C2406 C 0.08169 0.77344 0.30145
 C2407 C 0.05877 0.76942 0.27981
 C2408 C 0.04664 0.77656 0.26778
 C2409 C 0.04498 0.79524 0.26603
 C2410 C 0.05572 0.80664 0.27577
 H2411 H 0.07847 0.82513 0.29539
 H2412 H 0.08285 0.75906 0.30322
 H2413 H 0.05989 0.75502 0.28144
 H2414 H 0.05442 0.82100 0.27400
 H2415 H 0.10213 0.77854 0.31976
 H2416 H 0.03568 0.80097 0.25680
 C2417 C 0.58944 0.71466 0.68741
 C2418 C 0.58838 0.69588 0.68696
 C2419 C 0.57538 0.68730 0.69692
 C2420 C 0.56405 0.69730 0.70777
 C2421 C 0.56587 0.71611 0.70881
 C2422 C 0.57834 0.72469 0.69831
 C2423 C 0.55559 0.72595 0.72075
 C2424 C 0.54345 0.71727 0.73163
 C2425 C 0.54100 0.69874 0.72983
 C2426 C 0.55128 0.68880 0.71803
 H2427 H 0.57427 0.67284 0.69644
 H2428 H 0.57978 0.73911 0.69883
 H2429 H 0.55734 0.74030 0.72195
 H2430 H 0.54957 0.67443 0.71726
 H2431 H 0.59932 0.72161 0.67988
 H2432 H 0.53165 0.69185 0.73810
 C2433 C 0.59340 0.21381 0.19489
 C2434 C 0.59371 0.19497 0.19494
 C2435 C 0.58203 0.18573 0.20603
 C2436 C 0.57027 0.19530 0.21695
 C2437 C 0.57044 0.21424 0.21689
 C2438 C 0.58193 0.22333 0.20575
 C2439 C 0.55933 0.22388 0.22816
 C2440 C 0.54788 0.21501 0.23961
 C2441 C 0.54723 0.19621 0.23927
 C2442 C 0.55842 0.18640 0.22807
 H2443 H 0.58204 0.17121 0.20609
 H2444 H 0.58219 0.23785 0.20557
 H2445 H 0.55973 0.23841 0.22821
 H2446 H 0.55798 0.17190 0.22825
 H2447 H 0.60231 0.22134 0.18671
 H2448 H 0.53847 0.18914 0.24802
 C2449 C 0.09368 0.68308 0.21974
 C2450 C 0.09123 0.68340 0.20140
 C2451 C 0.07684 0.69279 0.19435
 C2452 C 0.06547 0.70249 0.20539
 C2453 C 0.06859 0.70292 0.22374
 C2454 C 0.08249 0.69284 0.23083
 C2455 C 0.05814 0.71392 0.23457
 C2456 C 0.04456 0.72438 0.22728
 C2457 C 0.04101 0.72313 0.20918
 C2458 C 0.05140 0.71229 0.19830
 H2459 H 0.07472 0.69285 0.18023
 H2460 H 0.08499 0.69290 0.24488
 H2461 H 0.06085 0.71476 0.24857
 H2462 H 0.04876 0.71201 0.18428
 H2463 H 0.10471 0.67593 0.22544
 H2464 H 0.03068 0.73119 0.20331
 C2465 C 0.09869 0.17868 0.71182
 C2466 C 0.09577 0.18056 0.69365
 C2467 C 0.08187 0.19151 0.68772
 C2468 C 0.07109 0.20061 0.69992
 C2469 C 0.07461 0.19903 0.71814
 C2470 C 0.08831 0.18793 0.72396
 C2471 C 0.06466 0.20890 0.73029
 C2472 C 0.05097 0.22009 0.72463
 C2473 C 0.04699 0.22114 0.70661
 C2474 C 0.05705 0.21151 0.69430
 H2475 H 0.07946 0.19290 0.67371
 H2476 H 0.09111 0.18654 0.73789
 H2477 H 0.06769 0.20816 0.74422
 H2478 H 0.05409 0.21286 0.68040
 H2479 H 0.10941 0.17046 0.71669
 H2480 H 0.03664 0.22998 0.70201
 C2481 C 0.40803 0.71390 0.30943
 C2482 C 0.40790 0.69521 0.30718
 C2483 C 0.41901 0.68727 0.29455
 C2484 C 0.43009 0.69794 0.28422
 C2485 C 0.42977 0.71676 0.28640
 C2486 C 0.41882 0.72458 0.29910
 C2487 C 0.44025 0.72753 0.27572
 C2488 C 0.45123 0.71983 0.26292
 C2489 C 0.45198 0.70112 0.26112
 C2490 C 0.44139 0.69023 0.27164
 H2491 H 0.41909 0.67285 0.29282
 H2492 H 0.41847 0.73898 0.30094
 H2493 H 0.43985 0.74198 0.27729
 H2494 H 0.44192 0.67583 0.26985
 H2495 H 0.39945 0.72040 0.31887
 H2496 H 0.46041 0.69499 0.25129
 C2497 C 0.40617 0.17635 0.78810
 C2498 C 0.40674 0.18131 0.80595
 C2499 C 0.41901 0.19411 0.81144
 C2500 C 0.43042 0.20198 0.79911
 C2501 C 0.42925 0.19716 0.78114
 C2502 C 0.41724 0.18424 0.77581
 C2503 C 0.43984 0.20557 0.76863
 C2504 C 0.45177 0.21871 0.77374
 C2505 C 0.45349 0.22301 0.79166
 C2506 C 0.44281 0.21475 0.80428
 H2507 H 0.41967 0.19791 0.82520
 H2508 H 0.41625 0.18041 0.76208
 H2509 H 0.43863 0.20214 0.75480
 H2510 H 0.44404 0.21854 0.81800
 H2511 H 0.39678 0.16669 0.78343
 H2512 H 0.46266 0.23315 0.79578
 C2513 C 0.91354 0.67564 0.78645
 C2514 C 0.91059 0.68185 0.80375
 C2515 C 0.92072 0.69614 0.81010
 C2516 C 0.93290 0.70462 0.79903
 C2517 C 0.93499 0.69865 0.78147
 C2518 C 0.92555 0.68397 0.77545
 C2519 C 0.94607 0.70779 0.76997
 C2520 C 0.95519 0.72284 0.77573
 C2521 C 0.95375 0.72839 0.79333
 C2522 C 0.94263 0.71933 0.80495
 H2523 H 0.91886 0.70101 0.82342
 H2524 H 0.92713 0.67918 0.76205
 H2525 H 0.94727 0.70355 0.75634
 H2526 H 0.94131 0.72407 0.81838
 H2527 H 0.90625 0.66463 0.78102
 H2528 H 0.96075 0.74006 0.79787
 C2529 C 0.90530 0.18897 0.28129
 C2530 C 0.90578 0.19079 0.29971
 C2531 C 0.91855 0.20182 0.30736
 C2532 C 0.93048 0.21115 0.29671
 C2533 C 0.92944 0.20961 0.27818
 C2534 C 0.91694 0.19838 0.27063
 C2535 C 0.94064 0.21965 0.26747
 C2536 C 0.95296 0.23123 0.27496
 C2537 C 0.95447 0.23215 0.29337
 C2538 C 0.94325 0.22224 0.30418
 H2539 H 0.91914 0.20319 0.32156
 H2540 H 0.91603 0.19707 0.25643
 H2541 H 0.93957 0.21877 0.25325
 H2542 H 0.94435 0.22351 0.31835
 H2543 H 0.89555 0.18071 0.27502
 H2544 H 0.96389 0.24104 0.29934
 C2545 C 0.31474 0.28826 0.59030
 C2546 C 0.31284 0.30700 0.59111
 C2547 C 0.30051 0.31558 0.58012
 C2548 C 0.28982 0.30550 0.56889
 C2549 C 0.29151 0.28663 0.56869
 C2550 C 0.30415 0.27817 0.57923
 C2551 C 0.28021 0.27645 0.55833
 C2552 C 0.26725 0.28484 0.54807
 C2553 C 0.26595 0.30358 0.54779
 C2554 C 0.27714 0.31388 0.55820
 H2555 H 0.29905 0.33003 0.58047
 H2556 H 0.30559 0.26371 0.57921
 H2557 H 0.28119 0.26194 0.55852
 H2558 H 0.27563 0.32833 0.55820
 H2559 H 0.32398 0.28124 0.59868
 H2560 H 0.25588 0.31017 0.54002
 C2561 C 0.31318 0.78413 0.09341
 C2562 C 0.31177 0.80289 0.09265
 C2563 C 0.29974 0.81083 0.08091
 C2564 C 0.28869 0.80020 0.07067
 C2565 C 0.28966 0.78134 0.07214
 C2566 C 0.30217 0.77343 0.08328
 C2567 C 0.27798 0.77074 0.06258
 C2568 C 0.26553 0.77873 0.05137
 C2569 C 0.26499 0.79744 0.04958
 C2570 C 0.27641 0.80812 0.05925
 H2571 H 0.29875 0.82530 0.07999
 H2572 H 0.30318 0.75898 0.08445
 H2573 H 0.27859 0.75626 0.06378
 H2574 H 0.27556 0.82256 0.05791
 H2575 H 0.32229 0.77769 0.10238
 H2576 H 0.25552 0.80378 0.04092
 C2577 C 0.78636 0.31653 0.09149
 C2578 C 0.80459 0.31373 0.09126
 C2579 C 0.81192 0.30153 0.07910
 C2580 C 0.80108 0.29197 0.06756
 C2581 C 0.78272 0.29451 0.06840
 C2582 C 0.77552 0.30695 0.08022
 C2583 C 0.77180 0.28432 0.05763
 C2584 C 0.77892 0.27174 0.04583
 C2585 C 0.79718 0.26972 0.04452
 C2586 C 0.80820 0.27971 0.05540
 H2587 H 0.82598 0.29942 0.07868
 H2588 H 0.76148 0.30910 0.08094
 H2589 H 0.75770 0.28600 0.05854
 H2590 H 0.82224 0.27768 0.05447
 H2591 H 0.78034 0.32571 0.10077
 H2592 H 0.80285 0.26003 0.03549
 C2593 C 0.81977 0.78290 0.59629
 C2594 C 0.81634 0.80144 0.59558
 C2595 C 0.80402 0.80808 0.58337
 C2596 C 0.79530 0.79627 0.57197
 C2597 C 0.79870 0.77764 0.57315
 C2598 C 0.81098 0.77113 0.58526
 C2599 C 0.78959 0.76574 0.56237
 C2600 C 0.77720 0.77210 0.55021
 C2601 C 0.77426 0.79063 0.54858
 C2602 C 0.78316 0.80264 0.55949
 H2603 H 0.80134 0.82235 0.58267
 H2604 H 0.81371 0.75689 0.58631
 H2605 H 0.79200 0.75144 0.56353
 H2606 H 0.78042 0.81687 0.55830
 H2607 H 0.82898 0.77736 0.60570
 H2608 H 0.76471 0.79573 0.53925
 C2609 C 0.31601 0.71794 0.40795
 C2610 C 0.31270 0.69944 0.40814
 C2611 C 0.30017 0.69267 0.41996
 C2612 C 0.29093 0.70434 0.43130
 C2613 C 0.29413 0.72296 0.43056
 C2614 C 0.30677 0.72958 0.41898
 C2615 C 0.28442 0.73474 0.44116
 C2616 C 0.27158 0.72827 0.45268
 C2617 C 0.26883 0.70974 0.45391
 C2618 C 0.27839 0.69784 0.44321
 H2619 H 0.29764 0.67842 0.42033
 H2620 H 0.30937 0.74381 0.41829
 H2621 H 0.28668 0.74904 0.44035
 H2622 H 0.27582 0.68362 0.44407
 H2623 H 0.32541 0.72358 0.39888
 H2624 H 0.25893 0.70456 0.46273
 C2625 C 0.28849 0.19581 0.90625
 C2626 C 0.30685 0.19669 0.90722
 C2627 C 0.31455 0.20829 0.91955
 C2628 C 0.30392 0.21870 0.93092
 C2629 C 0.28549 0.21768 0.92959
 C2630 C 0.27794 0.20621 0.91726
 C2631 C 0.27481 0.22824 0.94051
 C2632 C 0.28214 0.23989 0.95291
 C2633 C 0.30044 0.24058 0.95458
 C2634 C 0.31127 0.23012 0.94359
 H2635 H 0.32870 0.20896 0.92048
 H2636 H 0.26383 0.20530 0.91609
 H2637 H 0.26068 0.22746 0.93932
 H2638 H 0.32536 0.23106 0.94489
 H2639 H 0.28220 0.18722 0.89673
 H2640 H 0.30633 0.24955 0.96403
 C2641 C 0.81478 0.71471 0.90408
 C2642 C 0.81130 0.69625 0.90427
 C2643 C 0.79858 0.68965 0.91599
 C2644 C 0.78932 0.70141 0.92721
 C2645 C 0.79265 0.72000 0.92645
 C2646 C 0.80548 0.72647 0.91498
 C2647 C 0.78290 0.73188 0.93696
 C2648 C 0.76997 0.72551 0.94846
 C2649 C 0.76712 0.70701 0.94969
 C2650 C 0.77665 0.69503 0.93905
 H2651 H 0.79589 0.67542 0.91635
 H2652 H 0.80821 0.74068 0.91428
 H2653 H 0.78524 0.74617 0.93612
 H2654 H 0.77398 0.68083 0.93992
 H2655 H 0.82434 0.72022 0.89510
 H2656 H 0.75717 0.70190 0.95849
 C2657 C 0.81320 0.21791 0.40312
 C2658 C 0.81085 0.19927 0.40391
 C2659 C 0.79926 0.19217 0.41649
 C2660 C 0.78994 0.20363 0.42795
 C2661 C 0.79205 0.22239 0.42657
 C2662 C 0.80383 0.22935 0.41426
 C2663 C 0.78210 0.23392 0.43726
 C2664 C 0.77017 0.22704 0.44954
 C2665 C 0.76859 0.20841 0.45139
 C2666 C 0.77833 0.19677 0.44059
 H2667 H 0.79747 0.17780 0.41731
 H2668 H 0.80562 0.24369 0.41308
 H2669 H 0.78344 0.24832 0.43591
 H2670 H 0.77659 0.18245 0.44194
 H2671 H 0.82190 0.22376 0.39347
 H2672 H 0.75940 0.20292 0.46079
 C2673 C 0.71550 0.31540 0.39926
 C2674 C 0.69727 0.31400 0.40140
 C2675 C 0.69063 0.30361 0.41530
 C2676 C 0.70213 0.29468 0.42691
 C2677 C 0.72044 0.29580 0.42427
 C2678 C 0.72697 0.30629 0.41050
 C2679 C 0.73193 0.28618 0.43524
 C2680 C 0.72542 0.27562 0.44903
 C2681 C 0.70728 0.27512 0.45206
 C2682 C 0.69571 0.28449 0.44102
 H2683 H 0.67659 0.30260 0.41712
 H2684 H 0.74095 0.30736 0.40834
 H2685 H 0.74594 0.28665 0.43292
 H2686 H 0.68174 0.28354 0.44336
 H2687 H 0.72094 0.32319 0.38857
 H2688 H 0.70205 0.26692 0.46256
 C2689 C 0.68469 0.78632 0.90353
 C2690 C 0.68749 0.80491 0.90344
 C2691 C 0.69989 0.81219 0.91505
 C2692 C 0.70951 0.80092 0.92645
 C2693 C 0.70684 0.78221 0.92595
 C2694 C 0.69431 0.77508 0.91460
 C2695 C 0.71691 0.77083 0.93662
 C2696 C 0.72954 0.77780 0.94803
 C2697 C 0.73179 0.79641 0.94901
 C2698 C 0.72190 0.80791 0.93820
 H2699 H 0.70204 0.82652 0.91520
 H2700 H 0.69209 0.76077 0.91411
 H2701 H 0.71506 0.75645 0.93596
 H2702 H 0.72409 0.82222 0.93887
 H2703 H 0.67539 0.78028 0.89463
 H2704 H 0.74151 0.80197 0.95775
 C2705 C 0.21769 0.32269 0.90667
 C2706 C 0.19984 0.31833 0.90760
 C2707 C 0.19417 0.30627 0.92064
 C2708 C 0.20625 0.29841 0.93237
 C2709 C 0.22423 0.30244 0.93080
 C2710 C 0.22978 0.31472 0.91807
 C2711 C 0.23646 0.29379 0.94170
 C2712 C 0.23101 0.28124 0.95430
 C2713 C 0.21306 0.27790 0.95639
 C2714 C 0.20076 0.28634 0.94541
 H2715 H 0.18044 0.30288 0.92156
 H2716 H 0.24352 0.31795 0.91673
 H2717 H 0.25030 0.29654 0.94018
 H2718 H 0.18702 0.28318 0.94689
 H2719 H 0.22247 0.33182 0.89673
 H2720 H 0.20863 0.26825 0.96604
 C2721 C 0.18801 0.78877 0.40579
 C2722 C 0.18965 0.80748 0.40679
 C2723 C 0.20142 0.81488 0.41898
 C2724 C 0.21125 0.80360 0.43021
 C2725 C 0.20950 0.78480 0.42884
 C2726 C 0.19789 0.77755 0.41662
 C2727 C 0.21949 0.77347 0.43961
 C2728 C 0.23120 0.78051 0.45194
 C2729 C 0.23261 0.79916 0.45368
 C2730 C 0.22278 0.81065 0.44279
 H2731 H 0.20273 0.82930 0.41986
 H2732 H 0.19647 0.76317 0.41539
 H2733 H 0.21820 0.75906 0.43838
 H2734 H 0.22428 0.82501 0.44412
 H2735 H 0.17930 0.78269 0.39633
 H2736 H 0.24161 0.80479 0.46314
 C2737 C 0.69248 0.71408 0.59568
 C2738 C 0.69419 0.69531 0.59510
 C2739 C 0.70624 0.68744 0.58328
 C2740 C 0.71635 0.69830 0.57208
 C2741 C 0.71453 0.71715 0.57303
 C2742 C 0.70254 0.72488 0.58478
 C2743 C 0.72483 0.72808 0.56235
 C2744 C 0.73701 0.72057 0.55056
 C2745 C 0.73850 0.70185 0.54921
 C2746 C 0.72828 0.69077 0.55996
 H2747 H 0.70758 0.67298 0.58267
 H2748 H 0.70100 0.73931 0.58561
 H2749 H 0.72348 0.74253 0.56326
 H2750 H 0.72981 0.67636 0.55892
 H2751 H 0.68355 0.72054 0.60483
 H2752 H 0.74786 0.69585 0.54018
 C2753 C 0.68843 0.22268 0.09375
 C2754 C 0.68903 0.20395 0.09192
 C2755 C 0.69907 0.19628 0.07828
 C2756 C 0.70870 0.20721 0.06680
 C2757 C 0.70858 0.22600 0.06925
 C2758 C 0.69822 0.23361 0.08260
 C2759 C 0.71910 0.23683 0.05856
 C2760 C 0.72952 0.22916 0.04523
 C2761 C 0.72896 0.21060 0.04234
 C2762 C 0.71872 0.19967 0.05311
 H2763 H 0.69943 0.18185 0.07665
 H2764 H 0.69788 0.24798 0.08459
 H2765 H 0.71943 0.25118 0.06076
 H2766 H 0.71887 0.18532 0.05095
 H2767 H 0.68085 0.22889 0.10420
 H2768 H 0.73700 0.20448 0.03217
 C2769 C 0.17769 0.71960 0.09548
 C2770 C 0.18005 0.70100 0.09364
 C2771 C 0.19162 0.69440 0.08069
 C2772 C 0.20118 0.70623 0.07010
 C2773 C 0.19927 0.72491 0.07262
 C2774 C 0.18729 0.73147 0.08512
 C2775 C 0.20960 0.73671 0.06281
 C2776 C 0.22158 0.73012 0.05028
 C2777 C 0.22291 0.71159 0.04732
 C2778 C 0.21287 0.69971 0.05726
 H2779 H 0.19338 0.68007 0.07901
 H2780 H 0.18557 0.74576 0.08711
 H2781 H 0.20840 0.75105 0.06494
 H2782 H 0.21438 0.68543 0.05506
 H2783 H 0.16892 0.72504 0.10540
 H2784 H 0.23206 0.70632 0.03766
 C2785 C 0.21615 0.20366 0.60581
 C2786 C 0.19852 0.20017 0.60190
 C2787 C 0.19122 0.20698 0.58623
 C2788 C 0.20157 0.21696 0.57451
 C2789 C 0.21931 0.22020 0.57864
 C2790 C 0.22645 0.21354 0.59430
 C2791 C 0.22965 0.23026 0.56717
 C2792 C 0.22252 0.23754 0.55166
 C2793 C 0.20498 0.23401 0.54742
 C2794 C 0.19459 0.22377 0.55874
 H2795 H 0.17768 0.20425 0.58304
 H2796 H 0.23999 0.21601 0.59769
 H2797 H 0.24326 0.23257 0.57041
 H2798 H 0.18104 0.22141 0.55530
 H2799 H 0.22204 0.19886 0.61791
 H2800 H 0.19919 0.23960 0.53559
   
