data_POSCAR
  _audit_creation_date              2014-09-24
  _audit_creation_method            'ToBaCCo'
  _symmetry_space_group_name_H-M    'P1'
  _symmetry_Int_Tables_number       1
  _symmetry_cell_setting            triclinic
  loop_
  _symmetry_equiv_pos_as_xyz
 x,y,z
_cell_length_a 42.9102
_cell_length_b 45.7472
_cell_length_c 45.8880
_cell_angle_alpha 90.058600
_cell_angle_beta 89.931700
_cell_angle_gamma 89.949800
loop_
  _atom_site_label
  _atom_site_type_symbol
  _atom_site_fract_x
  _atom_site_fract_y
  _atom_site_fract_z
Zr1 Zr 0.25226 0.25028 0.29759
 O2 O 0.27689 0.26944 0.33273
 O3 O 0.21934 0.22455 0.31917
 O4 O 0.22304 0.27724 0.32243
 O5 O 0.30576 0.19541 0.28565
 O6 O 0.20252 0.30880 0.28908
 O7 O 0.27788 0.21906 0.32089
 O8 O 0.18952 0.20636 0.28223
 O9 O 0.21265 0.25664 0.27187
 O10 O 0.24944 0.21393 0.27016
 O11 O 0.25964 0.29022 0.27618
 O12 O 0.29512 0.24905 0.27519
 Zr13 Zr 0.25969 0.25918 0.19666
 Zr14 Zr 0.22112 0.29517 0.24869
 Zr15 Zr 0.29054 0.21396 0.24608
 Zr16 Zr 0.21120 0.22115 0.24344
 O17 O 0.33982 0.21217 0.24679
 O18 O 0.16365 0.23358 0.24128
 O19 O 0.25210 0.21889 0.21817
 O20 O 0.21725 0.25986 0.21979
 O21 O 0.26242 0.29566 0.22414
 O22 O 0.29872 0.25246 0.22309
 C23 C 0.19632 0.20958 0.30942
 C24 C 0.29791 0.20000 0.31239
 C25 C 0.20580 0.29898 0.31523
 O26 O 0.17198 0.29686 0.24521
 O27 O 0.20802 0.31621 0.20988
 O28 O 0.23558 0.29272 0.17427
 C29 C 0.21594 0.31216 0.18313
 O30 O 0.32007 0.29993 0.29221
 Zr31 Zr 0.30050 0.28792 0.25138
 O32 O 0.29370 0.28494 0.17566
 O33 O 0.23033 0.34029 0.25381
 O34 O 0.29799 0.33415 0.25390
 O35 O 0.34853 0.27700 0.25261
 O36 O 0.32147 0.30438 0.21339
 C37 C 0.31581 0.30081 0.18615
 O38 O 0.23415 0.24312 0.16057
 O39 O 0.28133 0.16858 0.24376
 O40 O 0.28486 0.22814 0.17175
 O41 O 0.30555 0.19736 0.20579
 O42 O 0.21158 0.17481 0.24202
 O43 O 0.19394 0.20627 0.20264
 C44 C 0.30104 0.20563 0.17934
 H45 H 0.24714 0.19524 0.28080
 H46 H 0.19935 0.26228 0.20642
 H47 H 0.31837 0.25060 0.21191
 H48 H 0.26122 0.30659 0.29023
 H49 H 0.15101 0.21583 0.24490
 H50 H 0.16581 0.31760 0.24770
 H51 H 0.20990 0.35039 0.25333
 H52 H 0.31925 0.34187 0.25045
 H53 H 0.18997 0.16810 0.24568
 H54 H 0.30173 0.15850 0.24506
 H55 H 0.34568 0.19127 0.24526
 H56 H 0.36055 0.29530 0.24995
 H57 H 0.17463 0.19486 0.20579
 H58 H 0.24420 0.25085 0.14268
 H59 H 0.26771 0.26178 0.35105
 H60 H 0.33576 0.31551 0.28922
 Zr61 Zr 0.74387 0.74529 0.31005
 O62 O 0.71878 0.72217 0.34241
 O63 O 0.77381 0.77131 0.33498
 O64 O 0.77390 0.71824 0.33400
 O65 O 0.68788 0.79864 0.30048
 O66 O 0.79832 0.69086 0.29919
 O67 O 0.71592 0.77368 0.33465
 O68 O 0.80370 0.79387 0.30057
 O69 O 0.78498 0.74331 0.28558
 O70 O 0.74514 0.78361 0.28538
 O71 O 0.74036 0.70672 0.28538
 O72 O 0.70188 0.74554 0.28615
 Zr73 Zr 0.74167 0.74379 0.20878
 Zr74 Zr 0.78042 0.70619 0.25925
 Zr75 Zr 0.70496 0.78300 0.25995
 Zr76 Zr 0.78500 0.78084 0.25992
 O77 O 0.65572 0.78096 0.25958
 O78 O 0.83340 0.77155 0.25878
 O79 O 0.74502 0.78268 0.23347
 O80 O 0.78308 0.74373 0.23326
 O81 O 0.74037 0.70527 0.23325
 O82 O 0.70085 0.74587 0.23367
 C83 C 0.79603 0.78837 0.32719
 C84 C 0.69557 0.79279 0.32707
 C85 C 0.79312 0.69831 0.32585
 O86 O 0.82965 0.70777 0.25715
 O87 O 0.79578 0.68831 0.21940
 O88 O 0.76853 0.71338 0.18479
 C89 C 0.78840 0.69383 0.19277
 O90 O 0.67896 0.69353 0.29814
 Zr91 Zr 0.70050 0.70834 0.25913
 O92 O 0.71194 0.71693 0.18421
 O93 O 0.77431 0.66035 0.26109
 O94 O 0.70575 0.66226 0.26050
 O95 O 0.65177 0.71575 0.25674
 O96 O 0.68521 0.69138 0.21881
 C97 C 0.69228 0.69730 0.19218
 O98 O 0.76778 0.76459 0.17555
 O99 O 0.71046 0.82896 0.26069
 O100 O 0.71511 0.77457 0.18515
 O101 O 0.69017 0.80136 0.22020
 O102 O 0.78186 0.82706 0.26207
 O103 O 0.80251 0.79982 0.22095
 C104 C 0.69679 0.79532 0.19346
 H105 H 0.74582 0.80163 0.29731
 H106 H 0.80163 0.74332 0.22041
 H107 H 0.68181 0.74692 0.22155
 H108 H 0.73933 0.68933 0.29816
 H109 H 0.84452 0.78973 0.26422
 H110 H 0.83716 0.68731 0.25828
 H111 H 0.79542 0.65156 0.26052
 H112 H 0.68533 0.65351 0.25546
 H113 H 0.80292 0.83457 0.26678
 H114 H 0.68926 0.83749 0.26187
 H115 H 0.64816 0.80143 0.25918
 H116 H 0.64176 0.69680 0.25207
 H117 H 0.82122 0.81163 0.22548
 H118 H 0.75951 0.75762 0.15659
 H119 H 0.72661 0.72882 0.36164
 H120 H 0.66377 0.67794 0.29347
 Zr121 Zr 0.76775 0.23711 -0.29461
 O122 O 0.74992 0.25304 -0.33460
 O123 O 0.80342 0.20898 -0.30890
 O124 O 0.80071 0.26220 -0.31748
 O125 O 0.70911 0.18623 -0.28557
 O126 O 0.81671 0.29614 -0.28425
 O127 O 0.74366 0.20489 -0.31849
 O128 O 0.82645 0.19399 -0.26671
 O129 O 0.80312 0.24519 -0.26432
 O130 O 0.76510 0.20328 -0.26419
 O131 O 0.75818 0.27889 -0.27751
 O132 O 0.72199 0.23890 -0.27777
 Zr133 Zr 0.74554 0.25510 -0.19648
 Zr134 Zr 0.79233 0.28580 -0.24571
 Zr135 Zr 0.72085 0.20633 -0.24567
 Zr136 Zr 0.79905 0.21227 -0.23313
 O137 O 0.67186 0.20535 -0.25096
 O138 O 0.84618 0.22367 -0.22518
 O139 O 0.75484 0.21295 -0.21343
 O140 O 0.79092 0.25303 -0.21388
 O141 O 0.74793 0.28917 -0.22683
 O142 O 0.71052 0.24683 -0.22705
 C143 C 0.82437 0.19480 -0.29464
 C144 C 0.72065 0.18831 -0.31144
 C145 C 0.81686 0.28458 -0.30987
 O146 O 0.84051 0.28683 -0.23600
 O147 O 0.79978 0.31039 -0.20752
 O148 O 0.76881 0.28867 -0.17337
 C149 C 0.78919 0.30774 -0.18139
 O150 O 0.70064 0.28823 -0.30184
 Zr151 Zr 0.71403 0.27971 -0.25808
 O152 O 0.71065 0.28426 -0.18225
 O153 O 0.78525 0.33045 -0.25571
 O154 O 0.71833 0.32541 -0.26465
 O155 O 0.66632 0.26930 -0.26418
 O156 O 0.68866 0.30042 -0.22454
 C157 C 0.69079 0.29969 -0.19662
 O158 O 0.76410 0.24078 -0.15618
 O159 O 0.72827 0.16092 -0.24024
 O160 O 0.71475 0.22770 -0.17307
 O161 O 0.70121 0.19251 -0.20604
 O162 O 0.79664 0.16622 -0.22831
 O163 O 0.80910 0.20076 -0.18927
 C164 C 0.70082 0.20382 -0.18035
 H165 H 0.76825 0.18377 -0.27309
 H166 H 0.80685 0.25622 -0.19862
 H167 H 0.68943 0.24648 -0.21830
 H168 H 0.75903 0.29401 -0.29290
 H169 H 0.85851 0.20534 -0.22500
 H170 H 0.84757 0.30720 -0.23914
 H171 H 0.80561 0.34034 -0.25314
 H172 H 0.69705 0.33382 -0.26451
 H173 H 0.81831 0.15869 -0.22816
 H174 H 0.70778 0.15131 -0.24292
 H175 H 0.66530 0.18472 -0.24863
 H176 H 0.65448 0.28791 -0.26433
 H177 H 0.82786 0.18816 -0.18873
 H178 H 0.75194 0.25043 -0.14045
 H179 H 0.76169 0.24336 -0.35056
 H180 H 0.68474 0.30392 -0.30214
 Zr181 Zr 0.23646 0.76450 -0.30359
 O182 O 0.25731 0.74604 -0.34123
 O183 O 0.20577 0.79549 -0.32187
 O184 O 0.20413 0.74115 -0.32931
 O185 O 0.29811 0.81117 -0.28977
 O186 O 0.18061 0.71080 -0.29666
 O187 O 0.26583 0.79413 -0.32536
 O188 O 0.18048 0.81393 -0.28219
 O189 O 0.19718 0.76115 -0.27675
 O190 O 0.23965 0.79872 -0.27354
 O191 O 0.23944 0.72270 -0.28463
 O192 O 0.27976 0.75868 -0.28233
 Zr193 Zr 0.24544 0.74765 -0.20323
 Zr194 Zr 0.20125 0.72049 -0.25637
 Zr195 Zr 0.28112 0.79197 -0.25092
 Zr196 Zr 0.20169 0.79430 -0.24576
 O197 O 0.33016 0.78738 -0.25270
 O198 O 0.15290 0.78789 -0.24208
 O199 O 0.24320 0.78986 -0.22195
 O200 O 0.20277 0.75368 -0.22498
 O201 O 0.24252 0.71324 -0.23317
 O202 O 0.28455 0.75132 -0.23033
 C203 C 0.18523 0.81222 -0.30984
 C204 C 0.28888 0.80979 -0.31653
 C205 C 0.18493 0.72062 -0.32260
 O206 O 0.15238 0.72485 -0.25192
 O207 O 0.18636 0.69852 -0.21887
 O208 O 0.21703 0.71587 -0.18217
 C209 C 0.19497 0.69934 -0.19208
 O210 O 0.29884 0.70746 -0.30272
 Zr211 Zr 0.28079 0.71799 -0.26085
 O212 O 0.27437 0.71559 -0.18497
 O213 O 0.20410 0.67497 -0.26421
 O214 O 0.27209 0.67297 -0.26830
 O215 O 0.32993 0.72301 -0.26088
 O216 O 0.29786 0.69453 -0.22439
 C217 C 0.29253 0.69664 -0.19681
 O218 O 0.22364 0.76505 -0.16561
 O219 O 0.27871 0.83792 -0.24601
 O220 O 0.27670 0.77258 -0.17752
 O221 O 0.29837 0.80458 -0.20995
 O222 O 0.20876 0.84001 -0.24170
 O223 O 0.18833 0.80838 -0.20339
 C224 C 0.29449 0.79438 -0.18405
 H225 H 0.23960 0.81822 -0.28287
 H226 H 0.18499 0.75249 -0.21126
 H227 H 0.30440 0.74964 -0.21950
 H228 H 0.23866 0.70718 -0.29966
 H229 H 0.14279 0.80731 -0.24366
 H230 H 0.14330 0.70520 -0.25516
 H231 H 0.18252 0.66730 -0.26358
 H232 H 0.29208 0.66241 -0.26578
 H233 H 0.18817 0.84960 -0.24388
 H234 H 0.30039 0.84533 -0.24699
 H235 H 0.33902 0.80717 -0.24982
 H236 H 0.33920 0.70324 -0.25919
 H237 H 0.17102 0.82262 -0.20493
 H238 H 0.23262 0.75474 -0.14855
 H239 H 0.24844 0.75619 -0.35844
 H240 H 0.31334 0.69070 -0.30107
 Zr241 Zr 1.25347 1.25525 0.80410
 O242 O 1.23071 1.24299 0.84320
 O243 O 1.29008 1.28136 0.82000
 O244 O 1.28163 1.22818 0.83067
 O245 O 1.19987 1.30971 0.78799
 O246 O 1.30051 1.19401 0.79898
 O247 O 1.22995 1.29050 0.82426
 O248 O 1.31846 1.29174 0.77921
 O249 O 1.29074 1.24384 0.77693
 O250 O 1.25606 1.28774 0.77216
 O251 O 1.24257 1.21347 0.78777
 O252 O 1.20942 1.25550 0.78353
 Zr253 Zr 1.23941 1.23444 0.70499
 Zr254 Zr 1.27891 1.20329 0.75908
 Zr255 Zr 1.21352 1.28663 0.75018
 Zr256 Zr 1.29199 1.27544 0.74424
 O257 O 1.16441 1.29069 0.75191
 O258 O 1.33871 1.26107 0.73921
 O259 O 1.24984 1.27667 0.72106
 O260 O 1.28297 1.23447 0.72595
 O261 O 1.23643 1.20169 0.73673
 O262 O 1.20227 1.24603 0.73231
 C263 C 1.31377 1.29254 0.80685
 C264 C 1.20916 1.30842 0.81467
 C265 C 1.29840 1.20563 0.82442
 O266 O 1.32744 1.19868 0.75210
 O267 O 1.28687 1.17597 0.72316
 O268 O 1.26257 1.19856 0.68512
 C269 C 1.27990 1.17828 0.69608
 O270 O 1.18210 1.20913 0.80742
 Zr271 Zr 1.20051 1.21441 0.76473
 O272 O 1.20385 1.20726 0.68899
 O273 O 1.26809 1.15992 0.77146
 O274 O 1.20102 1.16903 0.77411
 O275 O 1.15310 1.22756 0.76566
 O276 O 1.17792 1.19288 0.72999
 C277 C 1.18230 1.19289 0.70225
 O278 O 1.26271 1.24587 0.66591
 O279 O 1.22473 1.33111 0.74317
 O280 O 1.21305 1.26247 0.67804
 O281 O 1.19804 1.29939 0.70853
 O282 O 1.29378 1.32146 0.73886
 O283 O 1.30586 1.28509 0.70082
 C284 C 1.19959 1.28710 0.68328
 H285 H 1.25994 1.30736 0.78053
 H286 H 1.29998 1.22959 0.71219
 H287 H 1.18214 1.24716 0.72185
 H288 H 1.24102 1.19897 0.80371
 H289 H 1.35222 1.27863 0.73916
 H290 H 1.33283 1.17810 0.75659
 H291 H 1.28780 1.14864 0.77058
 H292 H 1.17932 1.16182 0.77249
 H293 H 1.31597 1.32732 0.74007
 H294 H 1.20480 1.34207 0.74354
 H295 H 1.15947 1.31148 0.74798
 H296 H 1.14020 1.20960 0.76543
 H297 H 1.32513 1.29697 0.70112
 H298 H 1.25156 1.23620 0.64959
 H299 H 1.24190 1.25258 0.85953
 H300 H 1.16498 1.19463 0.80699
 Zr301 Zr 0.74742 0.74671 0.79394
 O302 O 0.76878 0.76912 0.82900
 O303 O 0.71902 0.71655 0.81580
 O304 O 0.71397 0.77045 0.81823
 O305 O 0.80875 0.69880 0.78208
 O306 O 0.68951 0.79853 0.78414
 O307 O 0.77768 0.71894 0.81722
 O308 O 0.69229 0.69444 0.77891
 O309 O 0.70725 0.74783 0.76817
 O310 O 0.74976 0.71010 0.76673
 O311 O 0.74941 0.78684 0.77167
 O312 O 0.79001 0.75053 0.77107
 Zr313 Zr 0.75302 0.75461 0.69281
 Zr314 Zr 0.71039 0.78674 0.74434
 Zr315 Zr 0.79045 0.71468 0.74248
 Zr316 Zr 0.71069 0.71210 0.74013
 O317 O 0.83951 0.71932 0.74228
 O318 O 0.66179 0.71874 0.73895
 O319 O 0.75147 0.71417 0.71484
 O320 O 0.71094 0.75087 0.71598
 O321 O 0.75102 0.79165 0.71953
 O322 O 0.79304 0.75339 0.71874
 C323 C 0.69888 0.69825 0.80601
 C324 C 0.80026 0.70240 0.80880
 C325 C 0.69372 0.78975 0.81048
 O326 O 0.66150 0.78263 0.73998
 O327 O 0.69611 0.80662 0.70528
 O328 O 0.72531 0.78484 0.66980
 C329 C 0.70446 0.80308 0.67856
 O330 O 0.80884 0.80398 0.78665
 Zr331 Zr 0.79008 0.78930 0.74637
 O332 O 0.78215 0.78380 0.67071
 O333 O 0.71326 0.83259 0.74983
 O334 O 0.78125 0.83483 0.74912
 O335 O 0.83924 0.78446 0.74628
 O336 O 0.80683 0.80836 0.70732
 C337 C 0.80118 0.80323 0.68020
 O338 O 0.72914 0.73417 0.65795
 O339 O 0.78819 0.66847 0.74159
 O340 O 0.78264 0.72760 0.66792
 O341 O 0.80617 0.69876 0.70201
 O342 O 0.71738 0.66619 0.73859
 O343 O 0.69501 0.69513 0.69958
 C344 C 0.80081 0.70656 0.67551
 H345 H 0.75033 0.69134 0.77745
 H346 H 0.69282 0.75113 0.70264
 H347 H 0.81258 0.75390 0.70725
 H348 H 0.74874 0.80345 0.78552
 H349 H 0.65176 0.69959 0.74267
 H350 H 0.65263 0.80256 0.74185
 H351 H 0.69172 0.84029 0.74844
 H352 H 0.80110 0.84506 0.74493
 H353 H 0.69687 0.65687 0.74210
 H354 H 0.80995 0.66121 0.74214
 H355 H 0.84833 0.69937 0.74056
 H356 H 0.84837 0.80401 0.74260
 H357 H 0.67710 0.68192 0.70295
 H358 H 0.73740 0.74257 0.63956
 H359 H 0.76065 0.76036 0.84726
 H360 H 0.82267 0.82093 0.78313
 Zr361 Zr 1.26036 0.74107 0.20591
 O362 O 1.23571 0.75980 0.17061
 O363 O 1.29454 0.71650 0.18435
 O364 O 1.28941 0.76929 0.18165
 O365 O 1.20662 0.68586 0.21778
 O366 O 1.30983 0.80023 0.21570
 O367 O 1.23492 0.70915 0.18259
 O368 O 1.32261 0.69617 0.22139
 O369 O 1.29983 0.74722 0.23195
 O370 O 1.26304 0.70456 0.23316
 O371 O 1.25278 0.78079 0.22797
 O372 O 1.21747 0.73973 0.22853
 Zr373 Zr 1.25296 0.74879 0.30677
 Zr374 Zr 1.29130 0.78561 0.25559
 Zr375 Zr 1.22187 0.70432 0.25734
 Zr376 Zr 1.30126 0.71140 0.26000
 O377 O 1.17259 0.70286 0.25670
 O378 O 1.34885 0.72370 0.26182
 O379 O 1.26037 0.70865 0.28517
 O380 O 1.29545 0.75000 0.28397
 O381 O 1.25011 0.78560 0.27994
 O382 O 1.21365 0.74270 0.28066
 C383 C 1.31682 0.70059 0.19422
 C384 C 1.21473 0.69009 0.19107
 C385 C 1.30653 0.79110 0.18933
 O386 O 1.34038 0.78726 0.25956
 O387 O 1.30276 0.80679 0.29502
 O388 O 1.27596 0.78185 0.33004
 C389 C 1.29449 0.80220 0.32165
 O390 O 1.19114 0.78916 0.21222
 Zr391 Zr 1.21193 0.77842 0.25284
 O392 O 1.22052 0.77508 0.32865
 O393 O 1.28205 0.83077 0.25069
 O394 O 1.21396 0.82452 0.24848
 O395 O 1.16374 0.76823 0.25403
 O396 O 1.19392 0.79695 0.29158
 C397 C 1.20008 0.79302 0.31879
 O398 O 1.27911 0.73098 0.34164
 O399 O 1.23077 0.65885 0.25901
 O400 O 1.22637 0.71948 0.33168
 O401 O 1.20731 0.68750 0.29791
 O402 O 1.30080 0.66506 0.26134
 O403 O 1.31866 0.69651 0.30072
 C404 C 1.21089 0.69662 0.32429
 H405 H 1.26544 0.68595 0.22236
 H406 H 1.31326 0.75243 0.29745
 H407 H 1.19411 0.74126 0.29206
 H408 H 1.25106 0.79726 0.21408
 H409 H 1.36145 0.70587 0.25830
 H410 H 1.34638 0.80811 0.25805
 H411 H 1.30236 0.84097 0.25207
 H412 H 1.19279 0.83226 0.25240
 H413 H 1.32245 0.65824 0.25801
 H414 H 1.21026 0.64894 0.25836
 H415 H 1.16664 0.68202 0.25854
 H416 H 1.15230 0.78678 0.25733
 H417 H 1.33805 0.68520 0.29752
 H418 H 1.26985 0.73842 0.36004
 H419 H 1.24532 0.75222 0.15244
 H420 H 1.17478 0.80414 0.21528
 Zr421 Zr 0.73677 1.26235 0.19819
 O422 O 0.75592 1.24673 0.15855
 O423 O 0.70164 1.29016 0.18218
 O424 O 0.70563 1.23530 0.17455
 O425 O 0.79233 1.31665 0.21013
 O426 O 0.69011 1.20102 0.20764
 O427 O 0.76300 1.29403 0.17525
 O428 O 0.67477 1.30302 0.22316
 O429 O 0.70029 1.25330 0.22714
 O430 O 0.73671 1.29651 0.22855
 O431 O 0.74701 1.22110 0.21613
 O432 O 0.78163 1.26250 0.21716
 Zr433 Zr 0.75481 1.24593 0.29714
 Zr434 Zr 0.71169 1.21328 0.24676
 Zr435 Zr 0.78006 1.29533 0.24923
 Zr436 Zr 0.70151 1.28664 0.25815
 O437 O 0.82909 1.29813 0.24498
 O438 O 0.65460 1.27358 0.26469
 O439 O 0.74467 1.28771 0.27988
 O440 O 0.71022 1.24635 0.27822
 O441 O 0.75526 1.21160 0.26705
 O442 O 0.79100 1.25516 0.26807
 C443 C 0.67893 1.30300 0.19539
 C444 C 0.78372 1.31269 0.18351
 C445 C 0.69052 1.21206 0.18189
 O446 O 0.66308 1.21088 0.25413
 O447 O 0.70320 1.18924 0.28522
 O448 O 0.73362 1.21110 0.31963
 C449 C 0.71375 1.19177 0.31139
 O450 O 0.80609 1.21484 0.19379
 Zr451 Zr 0.79020 1.22203 0.23711
 O452 O 0.79007 1.21828 0.31307
 O453 O 0.72105 1.16871 0.23806
 O454 O 0.78821 1.17631 0.22967
 O455 O 0.83796 1.23342 0.23364
 O456 O 0.81376 1.20153 0.27175
 C457 C 0.81048 1.20268 0.29958
 O458 O 0.73281 1.26023 0.33599
 O459 O 0.77017 1.34025 0.25528
 O460 O 0.78364 1.27333 0.32193
 O461 O 0.79837 1.30892 0.28989
 O462 O 0.70152 1.33283 0.26212
 O463 O 0.68894 1.29859 0.30137
 C464 C 0.79781 1.29717 0.31547
 H465 H 0.73333 1.31584 0.21939
 H466 H 0.69384 1.24269 0.29298
 H467 H 0.81167 1.25606 0.27759
 H468 H 0.74757 1.20580 0.20087
 H469 H 0.64149 1.29141 0.26398
 H470 H 0.65705 1.19013 0.25152
 H471 H 0.70106 1.15810 0.24022
 H472 H 0.80983 1.16873 0.23054
 H473 H 0.67954 1.33944 0.26123
 H474 H 0.79032 1.35070 0.25379
 H475 H 0.83476 1.31888 0.24820
 H476 H 0.85015 1.21501 0.23376
 H477 H 0.66971 1.31055 0.30097
 H478 H 0.74411 1.25128 0.35261
 H479 H 0.74442 1.25635 0.14241
 H480 H 0.82255 1.19965 0.19385
 N481 N 0.56091 1.02143 -0.02879
 N482 N 0.58396 1.02569 -0.04742
 N483 N 0.54016 1.04351 0.03194
 N484 N 0.54945 1.06422 0.04993
 N485 N 0.55940 1.02116 0.03260
 N486 N 0.58222 1.02612 0.05132
 N487 N 0.54171 1.04378 -0.02894
 N488 N 0.55135 1.06399 -0.04735
 C489 C 0.57749 1.05222 -0.05898
 C490 C 0.57541 1.05293 0.06218
 N491 N 0.44921 1.03269 0.03005
 N492 N 0.42774 1.04157 0.04876
 N493 N 0.47505 1.05037 -0.03054
 N494 N 0.47156 1.07188 -0.04938
 N495 N 0.45061 1.03308 -0.03081
 N496 N 0.42954 1.04282 -0.04943
 N497 N 0.47356 1.05004 0.03086
 N498 N 0.46965 1.07077 0.05052
 Mn499 Mn 0.50758 1.04706 0.00081
 C500 C 0.44110 1.06512 0.06158
 C501 C 0.44325 1.06675 -0.06113
 N502 N 0.55209 0.95805 0.03178
 N503 N 0.57213 0.94987 0.05204
 N504 N 0.53007 0.94042 -0.02990
 N505 N 0.53465 0.92030 -0.05022
 N506 N 0.55342 0.95899 -0.02944
 N507 N 0.57407 0.95247 -0.04971
 N508 N 0.52792 0.94044 0.03137
 N509 N 0.53061 0.92014 0.05163
 Mn510 Mn 0.55672 0.98983 0.00159
 C511 C 0.55820 0.92636 0.06439
 C512 C 0.56210 0.92837 -0.06248
 N513 N 0.44359 0.96994 -0.03166
 N514 N 0.42098 0.96575 -0.05070
 N515 N 0.46110 0.94707 0.02964
 N516 N 0.45194 0.92729 0.04872
 N517 N 0.44214 0.96965 0.02977
 N518 N 0.41976 0.96591 0.04922
 N519 N 0.46252 0.94730 -0.03125
 N520 N 0.45290 0.92698 -0.04965
 Mn521 Mn 0.44611 1.00131 -0.00066
 Mn522 Mn 0.49541 0.94355 -0.00008
 Cl523 Cl 0.50144 0.99542 0.00039
 C524 C 0.42725 0.93902 -0.06192
 C525 C 0.42633 0.93947 0.06095
 N526 N 0.96731 0.52629 0.45047
 N527 N 0.94490 0.53036 0.43136
 N528 N 1.03313 0.54822 0.46776
 N529 N 1.05544 0.56719 0.46166
 N530 N 1.03258 0.52722 0.44828
 N531 N 1.05439 0.53113 0.42849
 N532 N 0.96759 0.54732 0.46991
 N533 N 0.94535 0.56655 0.46438
 C534 C 0.93126 0.55533 0.44041
 C535 C 1.06852 0.55597 0.43715
 N536 N 1.03664 0.52861 0.55054
 N537 N 1.05717 0.53547 0.57076
 N538 N 0.96999 0.54795 0.53278
 N539 N 0.94823 0.56737 0.53921
 N540 N 0.97124 0.52751 0.55281
 N541 N 0.95035 0.53233 0.57332
 N542 N 1.03529 0.54914 0.53058
 N543 N 1.05480 0.57057 0.53682
 Mn544 Mn 1.00148 0.54853 0.50024
 C545 C 1.06862 0.56142 0.56170
 C546 C 0.93603 0.55706 0.56443
 N547 N 1.03358 0.46494 0.44888
 N548 N 1.05549 0.46144 0.42914
 N549 N 0.96921 0.44314 0.47050
 N550 N 0.94744 0.42337 0.46492
 N551 N 0.96833 0.46409 0.45099
 N552 N 0.94593 0.45957 0.43202
 N553 N 1.03477 0.44415 0.46853
 N554 N 1.05756 0.42563 0.46247
 Mn555 Mn 1.00045 0.49562 0.44948
 C556 C 1.07030 0.43702 0.43790
 C557 C 0.93298 0.43431 0.44094
 N558 N 0.97238 0.46475 0.55338
 N559 N 0.95281 0.45918 0.57478
 N560 N 1.03716 0.44446 0.53164
 N561 N 1.05833 0.42439 0.53792
 N562 N 1.03777 0.46563 0.55102
 N563 N 1.05941 0.46068 0.57076
 N564 N 0.97185 0.44370 0.53387
 N565 N 0.95204 0.42303 0.54175
 Mn566 Mn 1.00454 0.49662 0.55215
 Mn567 Mn 1.00323 0.44343 0.50112
 Cl568 Cl 1.00243 0.49602 0.50082
 C569 C 0.94008 0.43334 0.56712
 C570 C 1.07225 0.43513 0.56219
 N571 N 1.06131 0.53160 -0.02722
 N572 N 1.08659 0.53727 -0.04271
 N573 N 1.03880 0.55325 0.03353
 N574 N 1.04528 0.57210 0.05438
 N575 N 1.05859 0.53132 0.03379
 N576 N 1.07960 0.53508 0.05456
 N577 N 1.04216 0.55406 -0.02773
 N578 N 1.05389 0.57534 -0.04382
 C579 C 1.08134 0.56436 -0.05343
 C580 C 1.07066 0.56051 0.06734
 N581 N 0.94815 0.54356 0.02992
 N582 N 0.92672 0.55173 0.04896
 N583 N 0.97531 0.56123 -0.03038
 N584 N 0.97302 0.58179 -0.05044
 N585 N 0.95092 0.54392 -0.03111
 N586 N 0.93114 0.55251 -0.05142
 N587 N 0.97242 0.56094 0.03112
 N588 N 0.96837 0.58118 0.05134
 Mn589 Mn 1.00717 0.55755 0.00161
 C590 C 0.93983 0.57508 0.06234
 C591 C 0.94545 0.57596 -0.06347
 N592 N 1.05053 0.46825 0.03287
 N593 N 1.07155 0.45886 0.05163
 N594 N 1.02850 0.45097 -0.02914
 N595 N 1.03254 0.43056 -0.04917
 N596 N 1.05287 0.46839 -0.02808
 N597 N 1.07426 0.45993 -0.04709
 N598 N 1.02633 0.45062 0.03233
 N599 N 1.03024 0.42897 0.05105
 Mn600 Mn 1.05603 0.49982 0.00282
 C601 C 1.05841 0.43460 0.06309
 C602 C 1.06108 0.43648 -0.06028
 N603 N 0.94294 0.48119 -0.03188
 N604 N 0.92092 0.47769 -0.05166
 N605 N 0.95891 0.45799 0.03003
 N606 N 0.94870 0.43841 0.04896
 N607 N 0.94039 0.48090 0.02961
 N608 N 0.91753 0.47776 0.04866
 N609 N 0.96121 0.45813 -0.03098
 N610 N 0.95164 0.43811 -0.04976
 Mn611 Mn 0.94538 0.51238 -0.00089
 Mn612 Mn 0.99376 0.45417 0.00058
 Cl613 Cl 1.00061 0.50595 0.00098
 C614 C 0.92677 0.45086 -0.06278
 C615 C 0.92307 0.45126 0.06064
 N616 N 0.55200 1.04127 0.53196
 N617 N 0.57425 1.05996 0.53911
 N618 N 0.53042 0.98279 0.55807
 N619 N 0.53455 0.96437 0.57982
 N620 N 0.55317 0.98041 0.53900
 N621 N 0.57342 0.96034 0.54732
 N622 N 0.52836 1.04361 0.55016
 N623 N 0.53389 1.06399 0.56979
 C624 C 0.56226 1.07433 0.56243
 C625 C 0.56133 0.95049 0.57275
 N626 N 0.44270 0.97658 0.53482
 N627 N 0.42204 0.95663 0.54288
 N628 N 0.46054 1.04114 0.54750
 N629 N 0.45102 1.06213 0.56528
 N630 N 0.44040 1.03753 0.52625
 N631 N 0.41716 1.05626 0.52860
 N632 N 0.46358 0.98038 0.55539
 N633 N 0.45791 0.96317 0.57776
 Mn634 Mn 0.49575 1.01212 0.55299
 C635 C 0.43218 0.94832 0.56967
 C636 C 0.42419 1.07163 0.55283
 N637 N 0.55695 0.97238 0.47627
 N638 N 0.57757 0.95086 0.47383
 N639 N 0.53414 1.03060 0.44872
 N640 N 0.54056 1.04716 0.42605
 N641 N 0.55551 1.03357 0.46897
 N642 N 0.57725 1.05223 0.46039
 N643 N 0.53540 0.96977 0.45619
 N644 N 0.54012 0.94648 0.44006
 Mn645 Mn 0.55483 1.00690 0.50410
 C646 C 0.56632 0.93486 0.45114
 C647 C 0.56721 1.06076 0.43367
 N648 N 0.44412 1.02965 0.46436
 N649 N 0.42320 1.04880 0.45529
 N650 N 0.46952 0.96750 0.45334
 N651 N 0.46550 0.94600 0.43466
 N652 N 0.44631 0.96873 0.47195
 N653 N 0.42550 0.94824 0.46604
 N654 N 0.46752 1.02824 0.44598
 N655 N 0.46329 1.04616 0.42395
 Mn656 Mn 0.44303 1.00302 0.49936
 Mn657 Mn 0.50167 0.99910 0.45096
 Cl658 Cl 0.49884 1.00537 0.50192
 C659 C 0.43577 1.05897 0.43013
 C660 C 0.43826 0.93398 0.44299
 N661 N 1.05448 1.03979 0.51616
 N662 N 1.07459 1.06128 0.51990
 N663 N 1.04285 0.97685 0.53800
 N664 N 1.05243 0.95630 0.55604
 N665 N 1.06151 0.97865 0.51536
 N666 N 1.08436 0.95937 0.51744
 N667 N 1.03557 1.03785 0.53862
 N668 N 1.04252 1.05784 0.55833
 C669 C 1.06663 1.07251 0.54613
 C670 C 1.07827 0.94552 0.54289
 N671 N 0.95295 0.96674 0.52806
 N672 N 0.93427 0.94575 0.53727
 N673 N 0.96880 1.03066 0.54619
 N674 N 0.96365 1.05207 0.56498
 N675 N 0.94491 1.02761 0.52858
 N676 N 0.92308 1.04698 0.53460
 N677 N 0.97679 0.96969 0.54578
 N678 N 0.97503 0.95072 0.56734
 Mn679 Mn 1.00604 1.00386 0.54246
 C680 C 0.94869 0.93569 0.56151
 C681 C 0.93503 1.06201 0.55731
 N682 N 1.05316 0.97878 0.45276
 N683 N 1.07463 0.95953 0.44495
 N684 N 1.02171 1.03814 0.43683
 N685 N 1.02256 1.05844 0.41649
 N686 N 1.04615 1.04001 0.45392
 N687 N 1.06427 1.06181 0.44568
 N688 N 1.02910 0.97739 0.43520
 N689 N 1.03338 0.95731 0.41503
 Mn690 Mn 1.05422 1.00927 0.48452
 C691 C 1.06169 0.94626 0.42144
 C692 C 1.04898 1.07325 0.42252
 N693 N 0.93665 1.02773 0.46674
 N694 N 0.91385 1.04710 0.46536
 N695 N 0.96383 0.96991 0.44298
 N696 N 0.96043 0.94852 0.42410
 N697 N 0.94489 0.96663 0.46522
 N698 N 0.92762 0.94291 0.46180
 N699 N 0.95572 1.03077 0.44460
 N700 N 0.94644 1.05217 0.42746
 Mn701 Mn 0.94450 0.99700 0.49720
 Mn702 Mn 0.99251 1.00416 0.43970
 Cl703 Cl 0.99935 1.00357 0.49103
 C704 C 0.92035 1.06218 0.44075
 C705 C 0.93792 0.93185 0.43605
 N706 N 0.55275 0.47599 0.02544
 N707 N 0.57524 0.46950 0.04391
 N708 N 0.53491 0.45484 -0.03659
 N709 N 0.54442 0.43354 -0.05395
 N710 N 0.55596 0.47570 -0.03541
 N711 N 0.58026 0.46901 -0.05176
 N712 N 0.53187 0.45495 0.02466
 N713 N 0.53972 0.43371 0.04279
 C714 C 0.56655 0.44341 0.05498
 C715 C 0.57250 0.44299 -0.06361
 N716 N 0.44518 0.47314 -0.04046
 N717 N 0.42259 0.46509 -0.05813
 N718 N 0.46417 0.45314 0.02151
 N719 N 0.45550 0.43112 0.03828
 N720 N 0.44202 0.47299 0.02032
 N721 N 0.41787 0.46497 0.03620
 N722 N 0.46714 0.45305 -0.03951
 N723 N 0.45978 0.43080 -0.05658
 Mn724 Mn 0.49955 0.45376 -0.00749
 C725 C 0.43224 0.43900 -0.06844
 C726 C 0.42681 0.43915 0.04765
 N727 N 0.55358 0.53875 -0.03587
 N728 N 0.57385 0.54324 -0.05706
 N729 N 0.52780 0.55846 0.02425
 N730 N 0.53065 0.57783 0.04537
 N731 N 0.55051 0.53925 0.02522
 N732 N 0.56983 0.54536 0.04679
 N733 N 0.53096 0.55802 -0.03703
 N734 N 0.53481 0.57586 -0.05926
 Mn735 Mn 0.55347 0.50747 -0.00512
 C736 C 0.56164 0.56642 -0.07142
 C737 C 0.55689 0.56937 0.05923
 N738 N 0.44052 0.53578 0.02067
 N739 N 0.42051 0.53880 0.04234
 N740 N 0.46462 0.55653 -0.04008
 N741 N 0.46037 0.57560 -0.06124
 N742 N 0.44311 0.53620 -0.04073
 N743 N 0.42322 0.54116 -0.06217
 N744 N 0.46126 0.55680 0.02109
 N745 N 0.45589 0.57489 0.04289
 Mn746 Mn 0.44248 0.50457 -0.01006
 Mn747 Mn 0.49618 0.55772 -0.00794
 Cl748 Cl 0.49793 0.50574 -0.00765
 C749 C 0.43042 0.56337 0.05590
 C750 C 0.43455 0.56573 -0.07487
 C751 C 0.31556 1.18786 0.15622
 C752 C 0.34020 1.16903 0.16269
 C753 C 0.35415 1.14887 0.14146
 N754 N 0.38234 1.13679 0.14725
 N755 N 0.39511 1.11766 0.12892
 C756 C 0.37996 1.10956 0.10425
 N757 N 0.35159 1.12141 0.09855
 N758 N 0.33892 1.14081 0.11678
 C759 C 0.39408 1.08847 0.08391
 C760 C 0.42615 1.08379 0.08347
 H761 H 0.35016 1.16926 0.18438
 H762 H 0.37944 1.07805 0.06774
 H763 H 0.30709 1.18973 0.13407
 H764 H 0.44110 1.09651 0.09763
 C765 C 0.81672 0.69034 0.65217
 C766 C 0.83173 0.66396 0.65792
 C767 C 0.84842 0.64713 0.63562
 N768 N 0.86000 0.62049 0.64258
 N769 N 0.87610 0.60508 0.62313
 C770 C 0.88131 0.61574 0.59596
 N771 N 0.86966 0.64240 0.58891
 N772 N 0.85342 0.65783 0.60839
 C773 C 0.90060 0.59937 0.57504
 C774 C 0.91245 0.57195 0.58210
 H775 H 0.83112 0.65498 0.67975
 H776 H 0.90688 0.60961 0.55459
 H777 H 0.81596 0.69882 0.63015
 H778 H 0.90580 0.56163 0.60240
 C779 C 0.68258 0.81351 0.17058
 C780 C 0.65641 0.83081 0.17601
 C781 C 0.64281 0.85015 0.15379
 N782 N 0.61303 0.85970 0.15678
 N783 N 0.60049 0.87755 0.13708
 C784 C 0.61742 0.88683 0.11384
 N785 N 0.64733 0.87756 0.11103
 N786 N 0.65977 0.85944 0.13057
 C787 C 0.60383 0.90658 0.09195
 C788 C 0.57175 0.90852 0.08776
 H789 H 0.64492 0.82956 0.19701
 H790 H 0.61941 0.91829 0.07750
 H791 H 0.69253 0.81286 0.14888
 H792 H 0.55626 0.89470 0.10030
 C793 C 1.18453 0.30210 0.65860
 C794 C 1.17369 0.33073 0.66120
 C795 C 1.15711 0.34625 0.63784
 N796 N 1.14926 0.37467 0.64183
 N797 N 1.13319 0.38906 0.62163
 C798 C 1.12425 0.37560 0.59662
 N799 N 1.13221 0.34714 0.59252
 N800 N 1.14841 0.33272 0.61275
 C801 C 1.10485 0.39112 0.57507
 C802 C 1.09596 0.42007 0.57965
 H803 H 1.17733 0.34248 0.68143
 H804 H 1.09599 0.37922 0.55643
 H805 H 1.18215 0.29056 0.63810
 H806 H 1.10489 0.43179 0.59838
 C807 C 0.68280 1.18843 -0.15777
 C808 C 0.67411 1.15926 -0.16140
 C809 C 0.65461 1.14342 -0.14036
 N810 N 0.65206 1.11392 -0.14234
 N811 N 0.63377 1.09918 -0.12406
 C812 C 0.61711 1.11346 -0.10329
 N813 N 0.61953 1.14299 -0.10140
 N814 N 0.63802 1.15772 -0.11954
 C815 C 0.59630 1.09759 -0.08337
 C816 C 0.59789 1.06737 -0.07976
 H817 H 0.68219 1.14730 -0.18036
 H818 H 0.58004 1.11020 -0.07036
 H819 H 0.67679 1.19995 -0.13790
 H820 H 0.61554 1.05480 -0.09109
 C821 C 1.19558 0.68040 0.34785
 C822 C 1.18115 0.65365 0.34291
 C823 C 1.16309 0.63859 0.36549
 N824 N 1.15123 0.61178 0.35980
 N825 N 1.13354 0.59826 0.37939
 C826 C 1.12694 0.61105 0.40541
 N827 N 1.13893 0.63786 0.41120
 N828 N 1.15675 0.65139 0.39159
 C829 C 1.10583 0.59680 0.42626
 C830 C 1.09349 0.56939 0.42013
 H831 H 1.18255 0.64357 0.32157
 H832 H 1.09866 0.60851 0.44567
 H833 H 1.19529 0.68994 0.36947
 H834 H 1.10101 0.55772 0.40082
 C835 C 0.31220 0.80859 -0.16038
 C836 C 0.32482 0.83649 -0.16420
 C837 C 0.34488 0.85117 -0.14271
 N838 N 0.35095 0.88012 -0.14575
 N839 N 0.37005 0.89379 -0.12739
 C840 C 0.38413 0.87894 -0.10544
 N841 N 0.37821 0.84992 -0.10246
 N842 N 0.35886 0.83627 -0.12071
 C843 C 0.40578 0.89379 -0.08537
 C844 C 0.40684 0.92419 -0.08298
 H845 H 0.31964 0.84844 -0.18399
 H846 H 0.42022 0.88051 -0.07126
 H847 H 0.31511 0.79726 -0.13985
 H848 H 0.39068 0.93746 -0.09535
 C849 C 0.81501 0.31124 0.33935
 C850 C 0.82823 0.33886 0.33682
 C851 C 0.84601 0.35230 0.36072
 N852 N 0.85506 0.38056 0.35852
 N853 N 0.87172 0.39296 0.37961
 C854 C 0.88007 0.37762 0.40372
 N855 N 0.87104 0.34929 0.40595
 N856 N 0.85422 0.33688 0.38487
 C857 C 0.89994 0.39108 0.42626
 C858 C 0.90801 0.42044 0.42419
 H859 H 0.82523 0.35120 0.31688
 H860 H 0.90983 0.37756 0.44327
 H861 H 0.81699 0.29950 0.35976
 H862 H 0.89781 0.43362 0.40708
 C863 C 1.20080 0.33073 0.16103
 C864 C 1.17152 0.34305 0.16631
 C865 C 1.15475 0.36115 0.14496
 N866 N 1.12373 0.36593 0.14837
 N867 N 1.10815 0.38281 0.12974
 C868 C 1.12312 0.39580 0.10713
 N869 N 1.15420 0.39117 0.10381
 N870 N 1.16973 0.37405 0.12229
 C871 C 1.10648 0.41525 0.08687
 C872 C 1.07410 0.41517 0.08400
 H873 H 1.15968 0.33826 0.18662
 H874 H 1.12029 0.42933 0.07295
 H875 H 1.21168 0.33314 0.13986
 H876 H 1.06022 0.39950 0.09599
 C877 C 0.68909 0.82121 0.65636
 C878 C 0.66360 0.83876 0.66340
 C879 C 0.64795 0.85772 0.64221
 N880 N 0.62195 0.87246 0.65036
 N881 N 0.60760 0.89025 0.63179
 C882 C 0.61875 0.89403 0.60435
 N883 N 0.64479 0.87929 0.59615
 N884 N 0.65913 0.86139 0.61474
 C885 C 0.60342 0.91429 0.58405
 C886 C 0.57585 0.92850 0.59153
 H887 H 0.65449 0.83862 0.68543
 H888 H 0.61426 0.91844 0.56313
 H889 H 0.69769 0.82048 0.63417
 H890 H 0.56464 0.92388 0.61217
 C891 C 1.17868 0.68199 -0.17412
 C892 C 1.18434 0.67771 -0.14448
 C893 C 1.16202 0.66008 -0.12740
 N894 N 1.17187 0.64141 -0.10631
 N895 N 1.15150 0.62452 -0.09214
 C896 C 1.12052 0.62594 -0.09833
 N897 N 1.11071 0.64500 -0.11898
 N898 N 1.13106 0.66153 -0.13339
 C899 C 1.09740 0.60794 -0.08277
 C900 C 1.10476 0.58129 -0.06981
 H901 H 1.20528 0.68604 -0.13426
 H902 H 1.07341 0.61534 -0.08269
 H903 H 1.15923 0.67007 -0.18351
 H904 H 1.12816 0.57260 -0.07167
 C905 C 0.70171 1.17186 0.33401
 C906 C 0.67569 1.15427 0.32925
 C907 C 0.66036 1.13753 0.35261
 N908 N 0.63285 1.12411 0.34707
 N909 N 0.61801 1.10949 0.36795
 C910 C 0.63007 1.10766 0.39524
 N911 N 0.65774 1.12092 0.40080
 N912 N 0.67258 1.13568 0.37989
 C913 C 0.61359 1.09124 0.41829
 C914 C 0.58392 1.07995 0.41333
 H915 H 0.66488 1.15405 0.30792
 H916 H 0.62503 1.08757 0.43900
 H917 H 0.71204 1.17279 0.35552
 H918 H 0.57257 1.08416 0.39268
 C919 C 0.80369 0.67659 0.16963
 C920 C 0.83189 0.66209 0.17435
 C921 C 0.84752 0.64459 0.15165
 N922 N 0.87820 0.63788 0.15440
 N923 N 0.89264 0.62171 0.13431
 C924 C 0.87683 0.61134 0.11086
 N925 N 0.84607 0.61781 0.10824
 N926 N 0.83170 0.63425 0.12818
 C927 C 0.89235 0.59300 0.08873
 C928 C 0.92463 0.59267 0.08518
 H929 H 0.84357 0.66449 0.19514
 H930 H 0.87789 0.58052 0.07391
 H931 H 0.79325 0.67628 0.14815
 H932 H 0.93903 0.60699 0.09828
 C933 C 0.29457 1.15644 0.67701
 C934 C 0.30307 1.16213 0.64826
 C935 C 0.32792 1.14487 0.63403
 N936 N 0.33371 1.14776 0.60509
 N937 N 0.35704 1.13304 0.59258
 C938 C 0.37572 1.11524 0.60865
 N939 N 0.37008 1.11259 0.63759
 N940 N 0.34665 1.12708 0.65001
 C941 C 0.40128 1.09835 0.59529
 C942 C 0.40277 1.09332 0.56543
 H943 H 0.29362 1.18098 0.63705
 H944 H 0.41753 1.08726 0.60956
 H945 H 0.30415 1.13728 0.68762
 H946 H 0.38509 1.10253 0.55133
 C947 C 0.80264 0.32675 -0.15863
 C948 C 0.82141 0.35073 -0.16546
 C949 C 0.84076 0.36588 -0.14363
 N950 N 0.85266 0.39270 -0.14965
 N951 N 0.87175 0.40594 -0.13092
 C952 C 0.88007 0.39265 -0.10563
 N953 N 0.86833 0.36575 -0.09969
 N954 N 0.84895 0.35265 -0.11827
 C955 C 0.90193 0.40664 -0.08511
 C956 C 0.90673 0.43678 -0.08469
 H957 H 0.82282 0.35816 -0.18783
 H958 H 0.91308 0.39313 -0.06879
 H959 H 0.79924 0.32072 -0.13602
 H960 H 0.89321 0.45069 -0.09899
 C961 C 0.30720 0.82118 0.34451
 C962 C 0.33298 0.83887 0.33958
 C963 C 0.34782 0.85562 0.36303
 N964 N 0.37651 0.86708 0.35863
 N965 N 0.39065 0.88200 0.37968
 C966 C 0.37663 0.88611 0.40593
 N967 N 0.34775 0.87488 0.41029
 N968 N 0.33365 0.85975 0.38924
 C969 C 0.39204 0.90348 0.42872
 C970 C 0.42319 0.91122 0.42566
 H971 H 0.34389 0.83910 0.31828
 H972 H 0.37853 0.91148 0.44702
 H973 H 0.29734 0.81970 0.36621
 H974 H 0.43660 0.90238 0.40767
 C975 C 1.17731 1.19470 0.33142
 C976 C 1.15056 1.17895 0.32465
 C977 C 1.13390 1.16217 0.34706
 N978 N 1.10680 1.14849 0.34044
 N979 N 1.09220 1.13233 0.36035
 C980 C 1.10421 1.12922 0.38756
 N981 N 1.13125 1.14296 0.39419
 N982 N 1.14579 1.15919 0.37433
 C983 C 1.08943 1.11003 0.40914
 C984 C 1.06111 1.09639 0.40364
 H985 H 1.14199 1.17843 0.30245
 H986 H 1.10183 1.10545 0.42917
 H987 H 1.18510 1.19585 0.35384
 H988 H 1.04822 1.10151 0.38403
 C989 C 0.68339 0.67942 -0.17263
 C990 C 0.65931 0.66070 -0.18056
 C991 C 0.64643 0.63938 -0.16009
 N992 N 0.61779 0.62791 -0.16487
 N993 N 0.60565 0.60881 -0.14619
 C994 C 0.62195 0.60017 -0.12235
 N995 N 0.65089 0.61117 -0.11791
 N996 N 0.66289 0.63052 -0.13643
 C997 C 0.60790 0.58082 -0.10064
 C998 C 0.57585 0.58067 -0.09656
 H999 H 0.64934 0.66188 -0.20221
 H1000 H 0.62291 0.56957 -0.08533
 H1001 H 0.69181 0.67958 -0.15037
 H1002 H 0.56112 0.59438 -0.10999
 C1003 C 0.84763 1.17778 0.68901
 C1004 C 0.84646 1.17454 0.65885
 C1005 C 0.86839 1.15555 0.64303
 N1006 N 0.86334 1.14942 0.61452
 N1007 N 0.88218 1.13127 0.60018
 C1008 C 0.90689 1.11866 0.61376
 N1009 N 0.91222 1.12512 0.64218
 N1010 N 0.89328 1.14319 0.65657
 C1011 C 0.92681 1.09738 0.59847
 C1012 C 0.91797 1.08575 0.57171
 H1013 H 0.82805 1.18506 0.64658
 H1014 H 0.94754 1.08931 0.60926
 H1015 H 0.86563 1.16664 0.70128
 H1016 H 0.89651 1.09294 0.56159
 C1017 C 0.33695 0.68652 0.17262
 C1018 C 0.35278 0.66067 0.17857
 C1019 C 0.37146 0.64626 0.15602
 N1020 N 0.37520 0.61682 0.15631
 N1021 N 0.39105 0.60351 0.13513
 C1022 C 0.40400 0.61926 0.11317
 N1023 N 0.40079 0.64873 0.11323
 N1024 N 0.38463 0.66200 0.13418
 C1025 C 0.42086 0.60503 0.08932
 C1026 C 0.41503 0.57623 0.08134
 H1027 H 0.34946 0.64973 0.19928
 H1028 H 0.43642 0.61827 0.07623
 H1029 H 0.33768 0.69565 0.15085
 H1030 H 0.39760 0.56353 0.09280
 C1031 C 1.16731 0.82942 0.67353
 C1032 C 1.16977 0.83178 0.64321
 C1033 C 1.14911 0.85173 0.62693
 N1034 N 1.15517 0.85858 0.59868
 N1035 N 1.13692 0.87728 0.58430
 C1036 C 1.11185 0.88966 0.59764
 N1037 N 1.10565 0.88254 0.62571
 N1038 N 1.12392 0.86400 0.64007
 C1039 C 1.09163 0.91090 0.58280
 C1040 C 1.09812 0.92248 0.55539
 H1041 H 1.18754 0.81979 0.63139
 H1042 H 1.07137 0.91864 0.59463
 H1043 H 1.15004 0.84281 0.68453
 H1044 H 1.11852 0.91538 0.54340
 C1045 C 0.65588 0.31911 0.17793
 C1046 C 0.66286 0.33042 0.15052
 C1047 C 0.64037 0.34835 0.13416
 N1048 N 0.65071 0.36725 0.11356
 N1049 N 0.63072 0.38393 0.09885
 C1050 C 0.59959 0.38215 0.10398
 N1051 N 0.58919 0.36294 0.12430
 N1052 N 0.60923 0.34648 0.13926
 C1053 C 0.57739 0.40029 0.08746
 C1054 C 0.58687 0.42613 0.07412
 H1055 H 0.68615 0.32785 0.14173
 H1056 H 0.55326 0.39350 0.08614
 H1057 H 0.63354 0.32404 0.18782
 H1058 H 0.61043 0.43393 0.07742
 C1059 C 0.81312 0.80315 0.35065
 C1060 C 0.84024 0.81886 0.34527
 C1061 C 0.85573 0.83631 0.36785
 N1062 N 0.88342 0.84908 0.36177
 N1063 N 0.89712 0.86632 0.38125
 C1064 C 0.88365 0.87158 0.40755
 N1065 N 0.85598 0.85866 0.41375
 N1066 N 0.84228 0.84126 0.39425
 C1067 C 0.89780 0.89250 0.42805
 C1068 C 0.92571 0.90616 0.42093
 H1069 H 0.85025 0.81889 0.32358
 H1070 H 0.88517 0.89882 0.44751
 H1071 H 0.80391 0.80193 0.37261
 H1072 H 0.93807 0.89963 0.40138
 C1073 C 0.33767 0.30745 -0.17587
 C1074 C 0.33159 0.31927 -0.14855
 C1075 C 0.35503 0.33718 -0.13365
 N1076 N 0.34587 0.35831 -0.11478
 N1077 N 0.36680 0.37584 -0.10244
 C1078 C 0.39767 0.37273 -0.10834
 N1079 N 0.40691 0.35117 -0.12671
 N1080 N 0.38593 0.33384 -0.13932
 C1081 C 0.42067 0.39239 -0.09508
 C1082 C 0.41185 0.42004 -0.08561
 H1083 H 0.30836 0.31789 -0.13937
 H1084 H 0.44463 0.38522 -0.09299
 H1085 H 0.36008 0.31133 -0.18606
 H1086 H 0.38836 0.42771 -0.08970
 C1087 C 1.19524 0.32889 -0.16405
 C1088 C 1.16669 0.34272 -0.16904
 C1089 C 1.15178 0.36224 -0.14748
 N1090 N 1.12100 0.36871 -0.14990
 N1091 N 1.10707 0.38626 -0.13066
 C1092 C 1.12348 0.39830 -0.10837
 N1093 N 1.15434 0.39208 -0.10611
 N1094 N 1.16821 0.37430 -0.12521
 C1095 C 1.10837 0.41783 -0.08691
 C1096 C 1.07612 0.41843 -0.08293
 H1097 H 1.15400 0.33797 -0.18888
 H1098 H 1.12309 0.43083 -0.07279
 H1099 H 1.20684 0.33186 -0.14330
 H1100 H 1.06153 0.40374 -0.09541
 C1101 C 0.68157 0.80975 0.35097
 C1102 C 0.65751 0.82965 0.34684
 C1103 C 0.64581 0.84799 0.37083
 N1104 N 0.61751 0.86084 0.36848
 N1105 N 0.60669 0.87779 0.38978
 C1106 C 0.62379 0.88281 0.41420
 N1107 N 0.65236 0.87027 0.41644
 N1108 N 0.66309 0.85301 0.39520
 C1109 C 0.61180 0.90255 0.43709
 C1110 C 0.58011 0.90875 0.43790
 H1111 H 0.64652 0.83147 0.32568
 H1112 H 0.62784 0.91375 0.45147
 H1113 H 0.69108 0.80682 0.37264
 H1114 H 0.56473 0.89650 0.42372
 C1115 C 0.81660 0.68562 -0.16851
 C1116 C 0.84475 0.67127 -0.17376
 C1117 C 0.85921 0.65203 -0.15191
 N1118 N 0.88976 0.64467 -0.15427
 N1119 N 0.90293 0.62679 -0.13493
 C1120 C 0.88590 0.61531 -0.11275
 N1121 N 0.85529 0.62244 -0.11057
 N1122 N 0.84220 0.64056 -0.12972
 C1123 C 0.89996 0.59534 -0.09134
 C1124 C 0.93198 0.59432 -0.08650
 H1125 H 0.85665 0.67433 -0.19436
 H1126 H 0.88456 0.58247 -0.07773
 H1127 H 0.80599 0.68429 -0.14712
 H1128 H 0.94730 0.60897 -0.09827
 C1129 C 0.31226 1.18205 0.33514
 C1130 C 0.33624 1.16255 0.32905
 C1131 C 0.35049 1.14451 0.35177
 N1132 N 0.37638 1.12879 0.34551
 N1133 N 0.38972 1.11231 0.36584
 C1134 C 0.37760 1.11085 0.39316
 N1135 N 0.35153 1.12641 0.39941
 N1136 N 0.33824 1.14303 0.37907
 C1137 C 0.39224 1.09241 0.41545
 C1138 C 0.42106 1.07962 0.41020
 H1139 H 0.34533 1.16079 0.30708
 H1140 H 0.38025 1.08869 0.43590
 H1141 H 0.30392 1.18451 0.35730
 H1142 H 0.43334 1.08423 0.39009
 C1143 C 1.20050 0.67123 0.16862
 C1144 C 1.17495 0.65342 0.17490
 C1145 C 1.16086 0.63343 0.15350
 N1146 N 1.13197 0.62253 0.15853
 N1147 N 1.11871 0.60433 0.13958
 C1148 C 1.13401 0.59600 0.11501
 N1149 N 1.16313 0.60657 0.11015
 N1150 N 1.17629 0.62503 0.12899
 C1151 C 1.11894 0.57672 0.09345
 C1152 C 1.08660 0.57499 0.09166
 H1153 H 1.16415 0.65469 0.19622
 H1154 H 1.13318 0.56619 0.07700
 H1155 H 1.21015 0.67147 0.14680
 H1156 H 1.07247 0.58824 0.10612
 C1157 C 0.70630 1.17093 0.66507
 C1158 C 0.67684 1.15849 0.66835
 C1159 C 0.66019 1.14373 0.64448
 N1160 N 0.62984 1.13642 0.64817
 N1161 N 0.61412 1.12311 0.62699
 C1162 C 0.62814 1.11651 0.60125
 N1163 N 0.65859 1.12373 0.59755
 N1164 N 0.67431 1.13721 0.61874
 C1165 C 0.61102 1.10064 0.57827
 C1166 C 0.57924 1.09500 0.58107
 H1167 H 0.66463 1.16092 0.68890
 H1168 H 0.62381 1.09205 0.55978
 H1169 H 0.71801 1.16979 0.64417
 H1170 H 0.56657 1.10405 0.59941
 C1171 C 0.79945 0.32987 0.16056
 C1172 C 0.81799 0.35417 0.16685
 C1173 C 0.83781 0.36847 0.14475
 N1174 N 0.84865 0.39596 0.14943
 N1175 N 0.86775 0.40867 0.13031
 C1176 C 0.87712 0.39420 0.10595
 N1177 N 0.86647 0.36662 0.10138
 N1178 N 0.84708 0.35404 0.12033
 C1179 C 0.89898 0.40764 0.08500
 C1180 C 0.90254 0.43785 0.08266
 H1181 H 0.81828 0.36289 0.18881
 H1182 H 0.91124 0.39348 0.06990
 H1183 H 0.79721 0.32262 0.13818
 H1184 H 0.88801 0.45216 0.09570
 C1185 C 0.30365 0.82572 0.66312
 C1186 C 0.32929 0.84364 0.66905
 C1187 C 0.34466 0.86135 0.64633
 N1188 N 0.37088 0.87648 0.65294
 N1189 N 0.38499 0.89283 0.63288
 C1190 C 0.37344 0.89478 0.60538
 N1191 N 0.34714 0.87970 0.59875
 N1192 N 0.33305 0.86325 0.61882
 C1193 C 0.38876 0.91339 0.58327
 C1194 C 0.41674 0.92755 0.58939
 H1195 H 0.33869 0.84475 0.69093
 H1196 H 0.37773 0.91634 0.56226
 H1197 H 0.29524 0.82459 0.64086
 H1198 H 0.42775 0.92409 0.61033
 C1199 C 0.31594 1.19134 -0.15199
 C1200 C 0.34146 1.17355 -0.15850
 C1201 C 0.35626 1.15391 -0.13734
 N1202 N 0.38455 1.14222 -0.14358
 N1203 N 0.39759 1.12277 -0.12580
 C1204 C 0.38259 1.11393 -0.10129
 N1205 N 0.35417 1.12549 -0.09509
 N1206 N 0.34125 1.14519 -0.11276
 C1207 C 0.39664 1.09201 -0.08186
 C1208 C 0.42857 1.08657 -0.08212
 H1209 H 0.35062 1.17334 -0.18052
 H1210 H 0.38198 1.08129 -0.06588
 H1211 H 0.30827 1.19403 -0.12965
 H1212 H 0.44366 1.09948 -0.09597
 C1213 C 0.81026 0.68312 0.34894
 C1214 C 0.82669 0.65751 0.34344
 C1215 C 0.84387 0.64202 0.36627
 N1216 N 0.85554 0.61511 0.36061
 N1217 N 0.87175 0.60085 0.38077
 C1218 C 0.87698 0.61298 0.40735
 N1219 N 0.86535 0.63997 0.41304
 N1220 N 0.84896 0.65421 0.39288
 C1221 C 0.89635 0.59777 0.42894
 C1222 C 0.90662 0.56945 0.42360
 H1223 H 0.82646 0.64805 0.32178
 H1224 H 0.90410 0.60945 0.44816
 H1225 H 0.80914 0.69181 0.37090
 H1226 H 0.89825 0.55777 0.40462
 C1227 C 0.67285 1.19640 0.15921
 C1228 C 0.66566 1.16681 0.16274
 C1229 C 0.64770 1.14961 0.14156
 N1230 N 0.64677 1.12006 0.14415
 N1231 N 0.62981 1.10396 0.12591
 C1232 C 0.61292 1.11688 0.10451
 N1233 N 0.61376 1.14645 0.10195
 N1234 N 0.63091 1.16255 0.12008
 C1235 C 0.59320 1.09955 0.08481
 C1236 C 0.59553 1.06920 0.08240
 H1237 H 0.67414 1.15535 0.18180
 H1238 H 0.57680 1.11123 0.07117
 H1239 H 0.66674 1.20764 0.13925
 H1240 H 0.61326 1.05742 0.09438
 C1241 C 1.16756 0.70635 0.65365
 C1242 C 1.15208 0.68004 0.65874
 C1243 C 1.13818 0.66190 0.63585
 N1244 N 1.12869 0.63453 0.64272
 N1245 N 1.11606 0.61729 0.62264
 C1246 C 1.11237 0.62674 0.59484
 N1247 N 1.12177 0.65423 0.58789
 N1248 N 1.13461 0.67150 0.60803
 C1249 C 1.09706 0.60798 0.57308
 C1250 C 1.08968 0.57906 0.57960
 H1251 H 1.15173 0.67104 0.68058
 H1252 H 1.09001 0.61741 0.55247
 H1253 H 1.16914 0.71508 0.63176
 H1254 H 1.09748 0.56955 0.59994
 C1255 C 0.67378 0.80267 -0.16665
 C1256 C 0.65627 0.82784 -0.17198
 C1257 C 0.63584 0.84159 -0.15014
 N1258 N 0.62624 0.86954 -0.15422
 N1259 N 0.60767 0.88257 -0.13491
 C1260 C 0.59760 0.86800 -0.11092
 N1261 N 0.60683 0.83987 -0.10699
 N1262 N 0.62571 0.82690 -0.12621
 C1263 C 0.57779 0.88270 -0.08909
 C1264 C 0.57801 0.91302 -0.08633
 H1265 H 0.65845 0.83876 -0.19283
 H1266 H 0.56511 0.86957 -0.07343
 H1267 H 0.67343 0.79273 -0.14524
 H1268 H 0.59341 0.92579 -0.10001
 C1269 C 1.18876 0.31330 0.33893
 C1270 C 1.17415 0.34012 0.33521
 C1271 C 1.15730 0.35448 0.35903
 N1272 N 1.14679 0.38213 0.35541
 N1273 N 1.13091 0.39535 0.37654
 C1274 C 1.12490 0.38144 0.40207
 N1275 N 1.13544 0.35374 0.40574
 N1276 N 1.15147 0.34052 0.38460
 C1277 C 1.10568 0.39550 0.42458
 C1278 C 1.09525 0.42395 0.42064
 H1279 H 1.17555 0.35125 0.31442
 H1280 H 1.09784 0.38282 0.44311
 H1281 H 1.18855 0.30284 0.36010
 H1282 H 1.10338 0.43649 0.40212
 C1283 C 0.32365 0.80660 0.16622
 C1284 C 0.33495 0.83490 0.17037
 C1285 C 0.35322 0.85043 0.14810
 N1286 N 0.35724 0.87979 0.15018
 N1287 N 0.37435 0.89411 0.13059
 C1288 C 0.38835 0.87952 0.10836
 N1289 N 0.38451 0.85013 0.10640
 N1290 N 0.36716 0.83585 0.12582
 C1291 C 0.40802 0.89481 0.08698
 C1292 C 0.40679 0.92500 0.08296
 H1293 H 0.32970 0.84639 0.19044
 H1294 H 0.42307 0.88173 0.07318
 H1295 H 0.32667 0.79591 0.14533
 H1296 H 0.39009 0.93803 0.09501
 C1297 C 0.83618 0.29823 0.66747
 C1298 C 0.84938 0.32572 0.67148
 C1299 C 0.86543 0.34149 0.64803
 N1300 N 0.87421 0.36957 0.65245
 N1301 N 0.88839 0.38453 0.63143
 C1302 C 0.89434 0.37199 0.60517
 N1303 N 0.88565 0.34381 0.60074
 N1304 N 0.87134 0.32884 0.62178
 C1305 C 0.91092 0.38829 0.58230
 C1306 C 0.91888 0.41747 0.58644
 H1307 H 0.84649 0.33689 0.69214
 H1308 H 0.91821 0.37692 0.56272
 H1309 H 0.83818 0.28739 0.64655
 H1310 H 0.91135 0.42874 0.60599
 C1311 C 1.16052 1.17530 0.68484
 C1312 C 1.16234 1.17332 0.65457
 C1313 C 1.14022 1.15556 0.63766
 N1314 N 1.14419 1.15226 0.60851
 N1315 N 1.12466 1.13574 0.59308
 C1316 C 1.10035 1.12203 0.60625
 N1317 N 1.09624 1.12554 0.63535
 N1318 N 1.11580 1.14199 0.65077
 C1319 C 1.07938 1.10264 0.58989
 C1320 C 1.08461 1.09547 0.56080
 H1321 H 1.18066 1.18470 0.64296
 H1322 H 1.06044 1.09230 0.60162
 H1323 H 1.14236 1.16358 0.69635
 H1324 H 1.10379 1.10536 0.54904
 C1325 C 0.67744 0.67999 0.16904
 C1326 C 0.65179 0.66215 0.17447
 C1327 C 0.63894 0.64258 0.15212
 N1328 N 0.60937 0.63245 0.15475
 N1329 N 0.59751 0.61449 0.13478
 C1330 C 0.61497 0.60564 0.11168
 N1331 N 0.64470 0.61542 0.10928
 N1332 N 0.65645 0.63366 0.12908
 C1333 C 0.60189 0.58635 0.08919
 C1334 C 0.56999 0.58546 0.08396
 H1335 H 0.64046 0.66281 0.19557
 H1336 H 0.61769 0.57477 0.07481
 H1337 H 0.68719 0.68103 0.14727
 H1338 H 0.55448 0.59940 0.09640
 C1339 C 1.18316 0.81061 0.34041
 C1340 C 1.15954 0.82984 0.33243
 C1341 C 1.14503 0.85002 0.35329
 N1342 N 1.12007 0.86607 0.34493
 N1343 N 1.10709 0.88512 0.36320
 C1344 C 1.11867 0.88899 0.39046
 N1345 N 1.14376 0.87302 0.39883
 N1346 N 1.15669 0.85382 0.38057
 C1347 C 1.10455 0.91042 0.41043
 C1348 C 1.07640 0.92372 0.40346
 H1349 H 1.15170 0.83058 0.31000
 H1350 H 1.11623 0.91568 0.43067
 H1351 H 1.19019 0.80910 0.36303
 H1352 H 1.06424 0.91742 0.38376
 C1353 C 0.66805 0.31744 -0.18045
 C1354 C 0.67334 0.32750 -0.15226
 C1355 C 0.65036 0.34609 -0.13726
 N1356 N 0.65962 0.36458 -0.11584
 N1357 N 0.63904 0.38190 -0.10254
 C1358 C 0.60841 0.38114 -0.10997
 N1359 N 0.59908 0.36232 -0.13107
 N1360 N 0.61971 0.34525 -0.14462
 C1361 C 0.58546 0.39985 -0.09510
 C1362 C 0.59435 0.42544 -0.08098
 H1363 H 0.69548 0.32324 -0.14176
 H1364 H 0.56110 0.39368 -0.09573
 H1365 H 0.64714 0.32424 -0.19181
 H1366 H 0.61832 0.43274 -0.08228
 C1367 C 0.83218 1.18477 0.31659
 C1368 C 0.82858 1.17950 0.34630
 C1369 C 0.84989 1.15969 0.36177
 N1370 N 0.84302 1.15031 0.38908
 N1371 N 0.86168 1.13138 0.40264
 C1372 C 0.88791 1.12130 0.38937
 N1373 N 0.89493 1.13098 0.36226
 N1374 N 0.87626 1.14977 0.34870
 C1375 C 0.90823 1.09958 0.40320
 C1376 C 0.90080 1.08587 0.42935
 H1377 H 0.80905 1.18886 0.35803
 H1378 H 0.92915 1.09318 0.39158
 H1379 H 0.85103 1.17424 0.30484
 H1380 H 0.87986 1.09183 0.44114
 C1381 C 0.30762 0.67572 -0.17697
 C1382 C 0.33300 0.65849 -0.18508
 C1383 C 0.34709 0.63748 -0.16464
 N1384 N 0.37717 0.62899 -0.16810
 N1385 N 0.39034 0.61058 -0.14926
 C1386 C 0.37375 0.59965 -0.12650
 N1387 N 0.34350 0.60771 -0.12336
 N1388 N 0.33045 0.62639 -0.14200
 C1389 C 0.38833 0.58025 -0.10483
 C1390 C 0.42025 0.58112 -0.09955
 H1391 H 0.34368 0.66145 -0.20627
 H1392 H 0.37341 0.56743 -0.09071
 H1393 H 0.29878 0.67430 -0.15488
 H1394 H 0.43472 0.59616 -0.11175
 C1395 C 0.81759 0.82039 0.65797
 C1396 C 0.84332 0.83775 0.66433
 C1397 C 0.85991 0.85392 0.64140
 N1398 N 0.88721 0.86748 0.64755
 N1399 N 0.90235 0.88230 0.62696
 C1400 C 0.89072 0.88412 0.59949
 N1401 N 0.86339 0.87062 0.59338
 N1402 N 0.84831 0.85571 0.61392
 C1403 C 0.90645 0.90147 0.57693
 C1404 C 0.93538 0.91428 0.58173
 H1405 H 0.85206 0.83890 0.68644
 H1406 H 0.89440 0.90523 0.55654
 H1407 H 0.80984 0.81829 0.63560
 H1408 H 0.94785 0.90999 0.60179
 C1409 C 0.33741 0.31544 0.16622
 C1410 C 0.32967 0.32347 0.13795
 C1411 C 0.35189 0.34043 0.12045
 N1412 N 0.34150 0.35994 0.10047
 N1413 N 0.36155 0.37690 0.08614
 C1414 C 0.39270 0.37476 0.09111
 N1415 N 0.40311 0.35476 0.11056
 N1416 N 0.38305 0.33804 0.12512
 C1417 C 0.41495 0.39388 0.07605
 C1418 C 0.40559 0.42045 0.06429
 H1419 H 0.30631 0.31980 0.12980
 H1420 H 0.43923 0.38746 0.07512
 H1421 H 0.35975 0.32208 0.17502
 H1422 H 0.38170 0.42768 0.06690
   
