data_POSCAR
  _audit_creation_date              2014-09-24
  _audit_creation_method            'ToBaCCo'
  _symmetry_space_group_name_H-M    'P1'
  _symmetry_Int_Tables_number       1
  _symmetry_cell_setting            triclinic
  loop_
  _symmetry_equiv_pos_as_xyz
 x,y,z
_cell_length_a 68.3408
_cell_length_b 68.2088
_cell_length_c 67.0074
_cell_angle_alpha 89.903400
_cell_angle_beta 89.909900
_cell_angle_gamma 90.040200
loop_
  _atom_site_label
  _atom_site_type_symbol
  _atom_site_fract_x
  _atom_site_fract_y
  _atom_site_fract_z
C1 C 0.36197 0.33658 0.33460
 N2 N 0.35316 0.35220 0.32576
 C3 C 0.33638 0.35982 0.33339
 N4 N 0.32833 0.35155 0.34993
 C5 C 0.33700 0.33601 0.35902
 N6 N 0.35385 0.32863 0.35129
 C7 C 0.36125 0.83591 -0.16539
 N8 N 0.35226 0.85132 -0.17445
 C9 C 0.33519 0.85872 -0.16723
 N10 N 0.32704 0.85035 -0.15077
 C11 C 0.33588 0.83511 -0.14137
 N12 N 0.35300 0.82802 -0.14872
 C13 C 0.86235 0.33886 -0.16646
 N14 N 0.85448 0.33139 -0.14944
 C15 C 0.83851 0.33978 -0.14096
 N16 N 0.83039 0.35581 -0.14967
 C17 C 0.83801 0.36349 -0.16674
 N18 N 0.85400 0.35486 -0.17506
 C19 C 0.86049 0.83773 0.33327
 N20 N 0.85314 0.85476 0.32581
 C21 C 0.83756 0.86366 0.33457
 N22 N 0.82935 0.85545 0.35108
 C23 C 0.83643 0.83840 0.35868
 N24 N 0.85189 0.82961 0.34963
 C25 C 0.63978 0.66676 0.33250
 N26 N 0.64716 0.64961 0.32546
 C27 C 0.66264 0.64089 0.33455
 N28 N 0.67072 0.64946 0.35088
 C29 C 0.66359 0.66668 0.35802
 N30 N 0.64817 0.67526 0.34870
 C31 C 0.64112 0.16412 -0.16343
 N32 N 0.64849 0.14689 -0.17034
 C33 C 0.66518 0.13915 -0.16260
 N34 N 0.67432 0.14873 -0.14746
 C35 C 0.66706 0.16582 -0.14019
 N36 N 0.65059 0.17350 -0.14837
 C37 C 0.14027 0.66342 -0.16697
 N38 N 0.14781 0.64650 -0.17441
 C39 C 0.16425 0.63842 -0.16644
 N40 N 0.17292 0.64740 -0.15065
 C41 C 0.16548 0.66421 -0.14293
 N42 N 0.14925 0.67222 -0.15127
 C43 C 0.13948 0.16463 0.33678
 N44 N 0.14833 0.14912 0.32776
 C45 C 0.16542 0.14168 0.33487
 N46 N 0.17376 0.15013 0.35113
 C47 C 0.16508 0.16550 0.36045
 N48 N 0.14792 0.17260 0.35325
 C49 C 0.63921 0.33479 0.66755
 N50 N 0.64658 0.35193 0.67460
 C51 C 0.66207 0.36069 0.66549
 N52 N 0.67017 0.35216 0.64913
 C53 C 0.66305 0.33495 0.64199
 N54 N 0.64762 0.32633 0.65133
 C55 C 0.63954 0.83670 1.16467
 N56 N 0.64890 0.82739 1.14948
 C57 C 0.66611 0.83429 1.14217
 N58 N 0.67415 0.85062 1.15034
 C59 C 0.66500 0.86028 1.16544
 N60 N 0.64764 0.85325 1.17241
 C61 C 0.13885 0.33489 1.16584
 N62 N 0.14770 0.32616 1.14997
 C63 C 0.16368 0.33436 1.14121
 N64 N 0.17107 0.35128 1.14870
 C65 C 0.16258 0.36015 1.16463
 N66 N 0.14639 0.35196 1.17302
 C67 C 0.13924 0.83525 0.66430
 N68 N 0.14752 0.82702 0.64786
 C69 C 0.16287 0.83575 0.63849
 N70 N 0.17013 0.85281 0.64585
 C71 C 0.16234 0.86110 0.66250
 N72 N 0.14685 0.85223 0.67155
 C73 C 0.36017 0.66578 0.66317
 N74 N 0.35160 0.64998 0.67195
 C75 C 0.33493 0.64213 0.66438
 N76 N 0.32672 0.65037 0.64792
 C77 C 0.33517 0.66609 0.63888
 N78 N 0.35193 0.67369 0.64657
 C79 C 0.36180 0.16503 1.16361
 N80 N 0.35343 0.17294 1.14704
 C81 C 0.33643 0.16559 1.13966
 N82 N 0.32787 0.15007 1.14891
 C83 C 0.33615 0.14169 1.16526
 N84 N 0.35307 0.14935 1.17253
 C85 C 0.86116 0.66073 1.16709
 N86 N 0.85327 0.66835 1.15019
 C87 C 0.83730 0.66002 1.14168
 N88 N 0.82920 0.64388 1.15026
 C89 C 0.83684 0.63604 1.16722
 N90 N 0.85284 0.64462 1.17556
 C91 C 0.85883 0.16199 0.66963
 N92 N 0.85034 0.17011 0.65327
 C93 C 0.83488 0.16137 0.64422
 N94 N 0.82773 0.14433 0.65181
 C95 C 0.83574 0.13610 0.66841
 N96 N 0.85135 0.14502 0.67715
 C97 C 0.33830 0.36028 0.66683
 N98 N 0.35428 0.35190 0.67541
 C99 C 0.36173 0.33486 0.66813
 N100 N 0.35310 0.32628 0.65211
 C101 C 0.33730 0.33460 0.64324
 N102 N 0.32995 0.35155 0.65074
 C103 C 0.33416 0.86155 0.16491
 N104 N 0.32540 0.85259 0.14917
 C105 C 0.33342 0.83634 0.14080
 N106 N 0.35021 0.82890 0.14852
 C107 C 0.35907 0.83758 0.16434
 N108 N 0.35102 0.85397 0.17240
 C109 C 0.83661 0.36099 0.16797
 N110 N 0.82890 0.35283 0.15126
 C111 C 0.83729 0.33682 0.14278
 N112 N 0.85356 0.32896 0.15121
 C113 C 0.86148 0.33696 0.16791
 N114 N 0.85290 0.35296 0.17624
 C115 C 0.83424 0.85918 0.66771
 N116 N 0.82567 0.85057 0.65168
 C117 C 0.83391 0.83469 0.64284
 N118 N 0.85079 0.82723 0.65037
 C119 C 0.85950 0.83558 0.66648
 N120 N 0.85120 0.85163 0.67502
 C121 C 0.66357 0.64080 0.66398
 N122 N 0.67166 0.64927 0.64756
 C123 C 0.66300 0.66489 0.63863
 N124 N 0.64613 0.67218 0.64639
 C125 C 0.63797 0.66403 0.66296
 N126 N 0.64676 0.64832 0.67165
 C127 C 0.66358 0.14010 0.16233
 N128 N 0.67257 0.14903 0.14666
 C129 C 0.66476 0.16534 0.13819
 N130 N 0.64792 0.17289 0.14573
 C131 C 0.63881 0.16421 0.16148
 N132 N 0.64668 0.14776 0.16965
 C133 C 0.16209 0.63851 0.16448
 N134 N 0.17002 0.64665 0.14780
 C135 C 0.16270 0.66358 0.14014
 N136 N 0.14726 0.67232 0.14930
 C137 C 0.13902 0.66422 0.16584
 N138 N 0.14658 0.64736 0.17340
 C139 C 0.16357 0.13833 0.66444
 N140 N 0.14717 0.14632 0.67253
 C141 C 0.13903 0.16269 0.66447
 N142 N 0.14752 0.17111 0.64822
 C143 C 0.16394 0.16331 0.64000
 N144 N 0.17187 0.14693 0.64821
 C145 C 0.33546 0.64046 0.33152
 N146 N 0.35231 0.64807 0.32392
 C147 C 0.36039 0.66448 0.33196
 N148 N 0.35155 0.67313 0.34784
 C149 C 0.33479 0.66566 0.35565
 N150 N 0.32676 0.64940 0.34732
 C151 C 0.33519 0.13668 0.83503
 N152 N 0.32630 0.14569 0.85070
 C153 C 0.33437 0.16186 0.85918
 N154 N 0.35133 0.16916 0.85165
 C155 C 0.36033 0.16045 0.83592
 N156 N 0.35223 0.14413 0.82773
 C157 C 0.83651 0.63863 0.83401
 N158 N 0.85329 0.64634 0.82641
 C159 C 0.86146 0.66259 0.83466
 N160 N 0.85278 0.67100 0.85077
 C161 C 0.83607 0.66340 0.85859
 N162 N 0.82795 0.64730 0.85003
 C163 C 0.83483 0.14018 0.33467
 N164 N 0.85174 0.14785 0.32735
 C165 C 0.86061 0.16318 0.33662
 N166 N 0.85242 0.17077 0.35341
 C167 C 0.83545 0.16332 0.36083
 N168 N 0.82672 0.14809 0.35132
 C169 C 0.66322 0.35893 0.33818
 N170 N 0.64711 0.35072 0.32975
 C171 C 0.63962 0.33364 0.33696
 N172 N 0.64839 0.32482 0.35280
 C173 C 0.66435 0.33299 0.36153
 N174 N 0.67172 0.34999 0.35408
 C175 C 0.66207 0.85910 0.83925
 N176 N 0.67060 0.85019 0.85516
 C177 C 0.66318 0.83326 0.86273
 N178 N 0.64714 0.82512 0.85411
 C179 C 0.63834 0.83392 0.83828
 N180 N 0.64588 0.85093 0.83095
 C181 C 0.16386 0.36049 0.83275
 N182 N 0.14832 0.35170 0.82382
 C183 C 0.14060 0.33491 0.83140
 N184 N 0.14869 0.32681 0.84799
 C185 C 0.16414 0.33547 0.85716
 N186 N 0.17163 0.35234 0.84948
 C187 C 0.16177 0.86376 0.33390
 N188 N 0.14557 0.85545 0.32577
 C189 C 0.13762 0.83899 0.33389
 N190 N 0.14611 0.83082 0.35023
 C191 C 0.16233 0.83894 0.35850
 N192 N 0.17009 0.85540 0.35023
 O193 O 0.24715 1.02127 0.27520
 O194 O 0.27502 0.98332 0.24835
 O195 O 0.27516 1.02175 0.24896
 O196 O 0.24725 0.98310 0.27468
 O197 O 0.22489 0.98407 0.25098
 O198 O 0.25381 1.02146 0.22428
 O199 O 0.25286 0.98339 0.22444
 O200 O 0.22587 1.02240 0.25048
 Cu201 Cu 0.26336 1.00232 0.26420
 Cu202 Cu 0.23714 1.00284 0.23514
 C203 C 0.23190 1.02852 0.26727
 C204 C 0.26856 0.97669 0.23191
 C205 C 0.26926 1.02822 0.23224
 C206 C 0.23128 0.97699 0.26727
 O207 O 0.22659 0.48119 0.75045
 O208 O 0.25425 0.51959 0.72399
 O209 O 0.25492 0.48148 0.72423
 O210 O 0.22629 0.51943 0.75018
 O211 O 0.24752 0.51903 0.77497
 O212 O 0.27682 0.48205 0.74838
 O213 O 0.27557 0.52049 0.74867
 O214 O 0.24873 0.48096 0.77438
 Cu215 Cu 0.23833 0.50034 0.73478
 Cu216 Cu 0.26438 0.50069 0.76400
 C217 C 0.23299 0.47439 0.76686
 C218 C 0.26949 0.52682 0.73194
 C219 C 0.27076 0.47527 0.73186
 C220 C 0.23200 0.52568 0.76705
 O221 O 0.75181 -0.01796 0.27425
 O222 O 0.72373 0.01979 0.24739
 O223 O 0.72428 -0.01861 0.24774
 O224 O 0.75150 0.02019 0.27388
 O225 O 0.77325 0.02081 0.24952
 O226 O 0.74649 -0.01857 0.22379
 O227 O 0.74557 0.01949 0.22310
 O228 O 0.77424 -0.01742 0.25054
 Cu229 Cu 0.73558 0.00086 0.26320
 Cu230 Cu 0.76212 0.00105 0.23434
 C231 C 0.76785 -0.02412 0.26702
 C232 C 0.72986 0.02613 0.23066
 C233 C 0.73082 -0.02533 0.23136
 C234 C 0.76694 0.02725 0.26610
 O235 O 0.74725 0.48124 0.72237
 O236 O 0.77473 0.51972 0.74872
 O237 O 0.77507 0.48155 0.74890
 O238 O 0.74694 0.51952 0.72232
 O239 O 0.72555 0.52020 0.74701
 O240 O 0.75222 0.48043 0.77218
 O241 O 0.75331 0.51862 0.77338
 O242 O 0.72449 0.48204 0.74575
 Cu243 Cu 0.76320 0.50051 0.73314
 Cu244 Cu 0.73668 0.50030 0.76200
 C245 C 0.73110 0.47515 0.72948
 C246 C 0.76877 0.52568 0.76563
 C247 C 0.76828 0.47430 0.76496
 C248 C 0.73163 0.52661 0.73030
 O249 O 0.25311 0.48047 0.27377
 O250 O 0.22495 0.51840 0.24722
 O251 O 0.22501 0.48021 0.24773
 O252 O 0.25301 0.51864 0.27357
 O253 O 0.27500 0.51840 0.24943
 O254 O 0.24639 0.48072 0.22303
 O255 O 0.24715 0.51882 0.22327
 O256 O 0.27456 0.47995 0.24914
 Cu257 Cu 0.23685 0.49946 0.26302
 Cu258 Cu 0.26300 0.49943 0.23381
 C259 C 0.26852 0.47353 0.26586
 C260 C 0.23131 0.52520 0.23077
 C261 C 0.23087 0.47394 0.23091
 C262 C 0.26875 0.52515 0.26591
 O263 O 0.72343 0.97941 0.75507
 O264 O 0.75115 1.01772 0.72856
 O265 O 0.75125 0.97951 0.72847
 O266 O 0.72374 1.01777 0.75519
 O267 O 0.74602 1.01773 0.77899
 O268 O 0.77298 0.97876 0.75277
 O269 O 0.77374 1.01702 0.75205
 O270 O 0.74522 0.97969 0.77932
 Cu271 Cu 0.73516 0.99858 0.73943
 Cu272 Cu 0.76173 0.99830 0.76817
 C273 C 0.72953 0.97304 0.77176
 C274 C 0.76718 1.02391 0.73575
 C275 C 0.76673 0.97247 0.73613
 C276 C 0.73027 1.02440 0.77159
 O277 O 0.74645 0.51894 0.27847
 O278 O 0.77336 0.47966 0.25271
 O279 O 0.77411 0.51786 0.25175
 O280 O 0.74560 0.48071 0.27929
 O281 O 0.72415 0.47975 0.25473
 O282 O 0.75117 0.51879 0.22861
 O283 O 0.75192 0.48054 0.22815
 O284 O 0.72359 0.51794 0.25528
 Cu285 Cu 0.76210 0.49930 0.26796
 Cu286 Cu 0.73549 0.49924 0.23929
 C287 C 0.73036 0.52508 0.27136
 C288 C 0.76733 0.47348 0.23594
 C289 C 0.76731 0.52492 0.23563
 C290 C 0.73016 0.47366 0.27156
 O291 O 0.22535 0.01728 0.74648
 O292 O 0.25242 -0.02165 0.77267
 O293 O 0.25280 0.01652 0.77339
 O294 O 0.22490 -0.02075 0.74568
 O295 O 0.24746 -0.02066 0.72206
 O296 O 0.27519 0.01681 0.74963
 O297 O 0.27471 -0.02158 0.74880
 O298 O 0.24787 0.01764 0.72284
 Cu299 Cu 0.23664 -0.00219 0.76196
 Cu300 Cu 0.26357 -0.00191 0.73347
 C301 C 0.23204 0.02418 0.73022
 C302 C 0.26810 -0.02838 0.76513
 C303 C 0.26868 0.02317 0.76617
 C304 C 0.23146 -0.02713 0.72918
 O305 O 0.22443 0.25215 1.01867
 O306 O 0.25098 0.22526 0.97957
 O307 O 0.25179 0.22556 1.01837
 O308 O 0.22431 0.25257 0.97979
 O309 O 0.24718 0.27540 0.97950
 O310 O 0.27449 0.24857 1.01805
 O311 O 0.27370 0.24825 0.97908
 O312 O 0.24730 0.27500 1.01854
 Cu313 Cu 0.23558 0.23660 0.99913
 Cu314 Cu 0.26294 0.26411 0.99875
 C315 C 0.23139 0.26807 1.02543
 C316 C 0.26682 0.23218 0.97256
 C317 C 0.26781 0.23254 1.02488
 C318 C 0.23116 0.26856 0.97295
 O319 O 0.24699 0.77653 0.47841
 O320 O 0.27471 0.74933 0.51650
 O321 O 0.27417 0.74984 0.47740
 O322 O 0.24751 0.77575 0.51721
 O323 O 0.22466 0.75289 0.51670
 O324 O 0.25201 0.72631 0.47787
 O325 O 0.25206 0.72627 0.51668
 O326 O 0.22487 0.75296 0.47776
 Cu327 Cu 0.26314 0.76516 0.49736
 Cu328 Cu 0.23614 0.73728 0.49727
 C329 C 0.23126 0.76934 0.47146
 C330 C 0.26802 0.73326 0.52328
 C331 C 0.26765 0.73364 0.47082
 C332 C 0.23149 0.76877 0.52372
 O333 O 0.27508 0.75124 -0.01944
 O334 O 0.24750 0.72395 0.01879
 O335 O 0.24826 0.72439 -0.02024
 O336 O 0.27407 0.75108 0.01956
 O337 O 0.25125 0.77394 0.01907
 O338 O 0.22525 0.74707 -0.02043
 O339 O 0.22454 0.74666 0.01841
 O340 O 0.25223 0.77406 -0.01975
 Cu341 Cu 0.26352 0.73538 -0.00029
 Cu342 Cu 0.23602 0.76271 -0.00071
 C343 C 0.26833 0.76726 -0.02622
 C344 C 0.23136 0.73067 0.02522
 C345 C 0.23238 0.73122 -0.02721
 C346 C 0.26704 0.76705 0.02617
 O347 O 0.24900 0.22590 0.52028
 O348 O 0.27646 0.25252 0.48145
 O349 O 0.27646 0.25248 0.52047
 O350 O 0.24907 0.22608 0.48158
 O351 O 0.22698 0.24965 0.48125
 O352 O 0.25375 0.27545 0.52094
 O353 O 0.25442 0.27613 0.48201
 O354 O 0.22650 0.24909 0.52023
 Cu355 Cu 0.26503 0.23694 0.50095
 Cu356 Cu 0.23817 0.26492 0.50108
 C357 C 0.23304 0.23292 0.52688
 C358 C 0.27011 0.26885 0.47503
 C359 C 0.26966 0.26835 0.52755
 C360 C 0.23339 0.23341 0.47467
 O361 O 0.74915 0.77202 0.98235
 O362 O 0.77667 0.74516 1.02086
 O363 O 0.77629 0.74563 0.98183
 O364 O 0.74963 0.77200 1.02123
 O365 O 0.72744 0.74851 1.02202
 O366 O 0.75357 0.72263 0.98180
 O367 O 0.75441 0.72170 1.02053
 O368 O 0.72624 0.74922 0.98304
 Cu369 Cu 0.76521 0.76101 1.00159
 Cu370 Cu 0.73812 0.73322 1.00186
 C371 C 0.73300 0.76519 0.97607
 C372 C 0.77027 0.72880 1.02724
 C373 C 0.76940 0.72974 0.97493
 C374 C 0.73407 0.76469 1.02850
 O375 O 0.75224 0.22245 0.48367
 O376 O 0.72488 0.24995 0.52191
 O377 O 0.72522 0.24938 0.48314
 O378 O 0.75134 0.22258 0.52262
 O379 O 0.77471 0.24491 0.52221
 O380 O 0.74811 0.27221 0.48330
 O381 O 0.74820 0.27233 0.52234
 O382 O 0.77493 0.24548 0.48338
 Cu383 Cu 0.73613 0.23379 0.50283
 Cu384 Cu 0.76378 0.26103 0.50286
 C385 C 0.76816 0.22940 0.47681
 C386 C 0.73196 0.26579 0.52877
 C387 C 0.73220 0.26534 0.47642
 C388 C 0.76750 0.22913 0.52917
 O389 O 0.77816 0.25538 -0.01950
 O390 O 0.75074 0.22790 0.01877
 O391 O 0.75146 0.22851 -0.02018
 O392 O 0.77783 0.25491 0.01939
 O393 O 0.75486 0.27762 0.01967
 O394 O 0.72851 0.25125 -0.02000
 O395 O 0.72804 0.25089 0.01894
 O396 O 0.75549 0.27839 -0.01920
 Cu397 Cu 0.76683 0.23937 -0.00034
 Cu398 Cu 0.73943 0.26682 -0.00019
 C399 C 0.77147 0.27155 -0.02595
 C400 C 0.73476 0.23476 0.02550
 C401 C 0.73554 0.23542 -0.02695
 C402 C 0.77082 0.27073 0.02636
 O403 O 0.77465 0.75508 0.48022
 O404 O 0.74654 0.72700 0.51753
 O405 O 0.74778 0.72811 0.47870
 O406 O 0.77376 0.75351 0.51913
 O407 O 0.75170 0.77710 0.51860
 O408 O 0.72453 0.75051 0.47958
 O409 O 0.72444 0.75055 0.51847
 O410 O 0.75142 0.77752 0.47962
 Cu411 Cu 0.76297 0.73864 0.49887
 Cu412 Cu 0.73576 0.76625 0.49907
 C413 C 0.76768 0.77097 0.47331
 C414 C 0.73080 0.73412 0.52459
 C415 C 0.73164 0.73485 0.47232
 C416 C 0.76722 0.76966 0.52579
 O417 O 1.01995 0.27511 0.25143
 O418 O 0.98126 0.24826 0.27842
 O419 O 1.01955 0.24811 0.27856
 O420 O 0.98176 0.27563 0.25124
 O421 O 0.98110 0.25256 0.22820
 O422 O 1.01955 0.22548 0.25505
 O423 O 0.98163 0.22529 0.25528
 O424 O 1.01933 0.25279 0.22764
 Cu425 Cu 1.00061 0.26405 0.26727
 Cu426 Cu 1.00042 0.23680 0.23915
 C427 C 1.02627 0.26852 0.23492
 C428 C 0.97488 0.23214 0.27150
 C429 C 1.02611 0.23218 0.27141
 C430 C 0.97482 0.26871 0.23515
 O431 O 0.51954 0.27242 0.75238
 O432 O 0.48153 0.24371 0.77831
 O433 O 0.51945 0.24422 0.77849
 O434 O 0.48117 0.27228 0.75250
 O435 O 0.48150 0.25079 0.72793
 O436 O 0.51996 0.22282 0.75383
 O437 O 0.48162 0.22224 0.75373
 O438 O 0.51947 0.25098 0.72776
 Cu439 Cu 0.50038 0.26037 0.76784
 Cu440 Cu 0.50064 0.23452 0.73838
 C441 C 0.52610 0.26653 0.73567
 C442 C 0.47506 0.22808 0.77044
 C443 C 0.52634 0.22880 0.77056
 C444 C 0.47472 0.26630 0.73581
 O445 O -0.01919 0.27397 0.74973
 O446 O 0.01806 0.24480 0.72354
 O447 O -0.01989 0.24499 0.72458
 O448 O 0.01917 0.27330 0.74917
 O449 O 0.01916 0.25215 0.77412
 O450 O -0.01995 0.22404 0.74972
 O451 O 0.01844 0.22364 0.74849
 O452 O -0.01877 0.25298 0.77482
 Cu453 Cu -0.00049 0.26142 0.73428
 Cu454 Cu -0.00026 0.23603 0.76425
 C455 C -0.02543 0.26844 0.76669
 C456 C 0.02471 0.22930 0.73156
 C457 C -0.02669 0.22976 0.73305
 C458 C 0.02592 0.26747 0.76582
 O459 O 0.48225 0.27531 0.25132
 O460 O 0.51908 0.24732 0.22306
 O461 O 0.48095 0.24852 0.22380
 O462 O 0.52038 0.27425 0.25048
 O463 O 0.51927 0.25197 0.27436
 O464 O 0.48168 0.22486 0.24629
 O465 O 0.51975 0.22504 0.24696
 O466 O 0.48108 0.25173 0.27387
 Cu467 Cu 0.50069 0.26366 0.23484
 Cu468 Cu 0.50040 0.23611 0.26272
 C469 C 0.47514 0.26816 0.26729
 C470 C 0.52592 0.23153 0.23032
 C471 C 0.47471 0.23219 0.23038
 C472 C 0.52649 0.26758 0.26705
 O473 O 0.98123 0.75310 0.72400
 O474 O 1.01940 0.72472 0.74989
 O475 O 0.98108 0.72474 0.75007
 O476 O 1.01922 0.75298 0.72383
 O477 O 1.01964 0.77441 0.74848
 O478 O 0.98138 0.74629 0.77459
 O479 O 1.01927 0.74620 0.77447
 O480 O 0.98121 0.77465 0.74852
 Cu481 Cu 1.00020 0.73669 0.73452
 Cu482 Cu 1.00036 0.76261 0.76392
 C483 C 0.97464 0.76869 0.73187
 C484 C 1.02593 0.73065 0.76658
 C485 C 0.97469 0.73070 0.76682
 C486 C 1.02609 0.76841 0.73177
 O487 O 0.48042 0.75521 0.22270
 O488 O 0.51924 0.72755 0.24835
 O489 O 0.48086 0.72672 0.24859
 O490 O 0.51830 0.75582 0.22230
 O491 O 0.51839 0.77721 0.24699
 O492 O 0.48080 0.74820 0.27318
 O493 O 0.51877 0.74898 0.27298
 O494 O 0.48007 0.77669 0.24728
 Cu495 Cu 0.49971 0.73911 0.23307
 Cu496 Cu 0.49946 0.76496 0.26254
 C497 C 0.47361 0.77069 0.23060
 C498 C 0.52573 0.73361 0.26501
 C499 C 0.47436 0.73253 0.26534
 C500 C 0.52481 0.77143 0.23019
 O501 O -0.01953 0.72518 0.24990
 O502 O 0.01796 0.75449 0.27554
 O503 O -0.01995 0.75395 0.27530
 O504 O 0.01883 0.72602 0.24984
 O505 O 0.01841 0.74729 0.22499
 O506 O -0.02049 0.77502 0.25028
 O507 O 0.01786 0.77576 0.25069
 O508 O -0.01952 0.74629 0.22491
 Cu509 Cu -0.00064 0.73773 0.26510
 Cu510 Cu -0.00096 0.76326 0.23526
 C511 C -0.02601 0.73076 0.23307
 C512 C 0.02439 0.77008 0.26749
 C513 C -0.02692 0.76920 0.26707
 C514 C 0.02534 0.73196 0.23310
 O515 O 0.48125 0.77595 0.75192
 O516 O 0.51863 0.74852 0.72381
 O517 O 0.48036 0.74936 0.72401
 O518 O 0.51933 0.77503 0.75145
 O519 O 0.51840 0.75220 0.77480
 O520 O 0.48052 0.72575 0.74656
 O521 O 0.51844 0.72548 0.74697
 O522 O 0.48016 0.75225 0.77435
 Cu523 Cu 0.49990 0.76454 0.73548
 Cu524 Cu 0.49936 0.73662 0.76300
 C525 C 0.47418 0.76869 0.76785
 C526 C 0.52505 0.73238 0.73067
 C527 C 0.47385 0.73311 0.73053
 C528 C 0.52552 0.76802 0.76784
 C529 C 0.41246 0.30942 0.30770
 C530 C 0.40109 0.32298 0.29694
 C531 C 0.38501 0.33213 0.30583
 C532 C 0.37973 0.32777 0.32563
 C533 C 0.39120 0.31441 0.33649
 C534 C 0.40743 0.30544 0.32767
 C535 C 0.42910 0.29909 0.29792
 C536 C 0.43311 0.27933 0.30239
 C537 C 0.44828 0.26941 0.29271
 C538 C 0.45966 0.27893 0.27815
 C539 C 0.45582 0.29870 0.27378
 C540 C 0.44080 0.30870 0.28363
 H541 H 0.37640 0.34224 0.29699
 H542 H 0.38762 0.31087 0.35183
 H543 H 0.45080 0.25414 0.29631
 H544 H 0.46445 0.30648 0.26275
 H545 H 0.41606 0.29538 0.33654
 H546 H 0.42421 0.27134 0.31302
 H547 H 0.40427 0.32618 0.28145
 H548 H 0.43841 0.32400 0.28008
 C549 C 0.41150 0.80961 0.80863
 C550 C 0.40180 0.82513 0.79898
 C551 C 0.38563 0.83420 0.80780
 C552 C 0.37840 0.82774 0.82639
 C553 C 0.38837 0.81244 0.83622
 C554 C 0.40476 0.80365 0.82754
 C555 C 0.42813 0.79930 0.79875
 C556 C 0.43087 0.77901 0.80146
 C557 C 0.44606 0.76919 0.79174
 C558 C 0.45867 0.77931 0.77877
 C559 C 0.45607 0.79955 0.77605
 C560 C 0.44109 0.80947 0.78606
 H561 H 0.37847 0.84588 0.79965
 H562 H 0.38353 0.80714 0.85065
 H563 H 0.44762 0.75354 0.79399
 H564 H 0.46571 0.80776 0.76627
 H565 H 0.41212 0.79210 0.83569
 H566 H 0.42099 0.77056 0.81073
 H567 H 0.40631 0.82997 0.78429
 H568 H 0.43975 0.82514 0.78389
 C569 C -0.08815 0.31055 0.80600
 C570 C -0.09329 0.32985 0.80071
 C571 C -0.10935 0.33906 0.80963
 C572 C -0.12049 0.32928 0.82421
 C573 C -0.11523 0.31011 0.82968
 C574 C -0.09935 0.30082 0.82060
 C575 C -0.07145 0.30043 0.79611
 C576 C -0.05968 0.28717 0.80682
 C577 C -0.04464 0.27691 0.79732
 C578 C -0.04081 0.27988 0.77694
 C579 C -0.05220 0.29347 0.76631
 C580 C -0.06742 0.30354 0.77575
 H581 H -0.11294 0.35390 0.80520
 H582 H -0.12361 0.30209 0.84074
 H583 H -0.03599 0.26666 0.80594
 H584 H -0.04967 0.29597 0.75055
 H585 H -0.09612 0.28583 0.82476
 H586 H -0.06206 0.28470 0.82261
 H587 H -0.08481 0.33792 0.78979
 H588 H -0.07634 0.31338 0.76694
 C589 C -0.09102 0.80986 0.30563
 C590 C -0.09738 0.82840 0.29912
 C591 C -0.11344 0.83754 0.30810
 C592 C -0.12340 0.82853 0.32411
 C593 C -0.11686 0.81005 0.33073
 C594 C -0.10103 0.80080 0.32150
 C595 C -0.07417 0.79991 0.29581
 C596 C -0.06141 0.78795 0.30693
 C597 C -0.04604 0.77803 0.29760
 C598 C -0.04284 0.78011 0.27701
 C599 C -0.05526 0.79235 0.26593
 C600 C -0.07085 0.80201 0.27518
 H601 H -0.11783 0.85180 0.30258
 H602 H -0.12411 0.80247 0.34288
 H603 H -0.03657 0.76882 0.30654
 H604 H -0.05323 0.79409 0.24999
 H605 H -0.09687 0.78635 0.32667
 H606 H -0.06319 0.78631 0.32290
 H607 H -0.08984 0.83602 0.28720
 H608 H -0.08054 0.81077 0.26605
 C609 C 0.59042 0.69420 0.30386
 C610 C 0.59524 0.67458 0.29972
 C611 C 0.61133 0.66570 0.30889
 C612 C 0.62286 0.67618 0.32257
 C613 C 0.61803 0.69577 0.32675
 C614 C 0.60209 0.70470 0.31742
 C615 C 0.57338 0.70376 0.29404
 C616 C 0.56184 0.71739 0.30450
 C617 C 0.54629 0.72693 0.29512
 C618 C 0.54173 0.72290 0.27511
 C619 C 0.55294 0.70899 0.26473
 C620 C 0.56865 0.69960 0.27406
 H621 H 0.61458 0.65054 0.30545
 H622 H 0.62671 0.70432 0.33707
 H623 H 0.53781 0.73746 0.30357
 H624 H 0.54985 0.70567 0.24925
 H625 H 0.59908 0.71994 0.32066
 H626 H 0.56477 0.72066 0.32002
 H627 H 0.58642 0.66596 0.28959
 H628 H 0.57737 0.68941 0.26545
 C629 C 0.59078 0.18947 0.80990
 C630 C 0.59715 0.17067 0.80429
 C631 C 0.61368 0.16227 0.81309
 C632 C 0.62420 0.17234 0.82798
 C633 C 0.61754 0.19102 0.83384
 C634 C 0.60119 0.19950 0.82481
 C635 C 0.57363 0.19879 0.79999
 C636 C 0.56106 0.21125 0.81074
 C637 C 0.54561 0.22083 0.80122
 C638 C 0.54214 0.21795 0.78078
 C639 C 0.55431 0.20511 0.77010
 C640 C 0.56996 0.19575 0.77956
 H641 H 0.61812 0.14781 0.80821
 H642 H 0.62516 0.19938 0.84515
 H643 H 0.53634 0.23050 0.80987
 H644 H 0.55206 0.20272 0.75430
 H645 H 0.59699 0.21415 0.82927
 H646 H 0.56312 0.21361 0.82657
 H647 H 0.58929 0.16233 0.79314
 H648 H 0.57948 0.18655 0.77069
 C649 C 1.08989 0.69033 0.80570
 C650 C 1.09476 0.67073 0.80148
 C651 C 1.11107 0.66195 0.81037
 C652 C 1.12278 0.67251 0.82382
 C653 C 1.11780 0.69202 0.82820
 C654 C 1.10164 0.70084 0.81918
 C655 C 1.07286 0.69993 0.79590
 C656 C 1.06144 0.71369 0.80633
 C657 C 1.04609 0.72349 0.79686
 C658 C 1.04162 0.71960 0.77680
 C659 C 1.05266 0.70550 0.76648
 C660 C 1.06817 0.69585 0.77589
 H661 H 1.11444 0.64685 0.80677
 H662 H 1.12660 0.70064 0.83836
 H663 H 1.03773 0.73414 0.80526
 H664 H 1.04962 0.70227 0.75098
 H665 H 1.09859 0.71607 0.82249
 H666 H 1.06434 0.71690 0.82186
 H667 H 1.08588 0.66209 0.79143
 H668 H 1.07680 0.68557 0.76731
 C669 C 1.08907 0.19100 0.31133
 C670 C 1.09591 0.19685 0.33019
 C671 C 1.11237 0.18804 0.33868
 C672 C 1.12229 0.17281 0.32873
 C673 C 1.11495 0.16642 0.31021
 C674 C 1.09873 0.17553 0.30155
 C675 C 1.07238 0.20137 0.30163
 C676 C 1.05944 0.19132 0.28890
 C677 C 1.04440 0.20131 0.27908
 C678 C 1.04169 0.22148 0.28209
 C679 C 1.05427 0.23149 0.29510
 C680 C 1.06955 0.22160 0.30459
 H681 H 1.11729 0.19327 0.35308
 H682 H 1.12208 0.15479 0.30197
 H683 H 1.03477 0.19321 0.26926
 H684 H 1.05262 0.24709 0.29753
 H685 H 1.09416 0.17078 0.28688
 H686 H 1.06084 0.17569 0.28655
 H687 H 1.08858 0.20832 0.33846
 H688 H 1.07942 0.22999 0.31388
 C689 C 0.59002 0.30700 0.69638
 C690 C 0.59475 0.32665 0.70054
 C691 C 0.61078 0.33565 0.69129
 C692 C 0.62234 0.32527 0.67753
 C693 C 0.61760 0.30566 0.67334
 C694 C 0.60172 0.29661 0.68273
 C695 C 0.57308 0.29728 0.70629
 C696 C 0.56164 0.28355 0.69586
 C697 C 0.54627 0.27375 0.70536
 C698 C 0.54180 0.27761 0.72543
 C699 C 0.55287 0.29167 0.73576
 C700 C 0.56841 0.30132 0.72632
 H701 H 0.61396 0.35082 0.69475
 H702 H 0.62630 0.29718 0.66296
 H703 H 0.53788 0.26313 0.69695
 H704 H 0.54984 0.29486 0.75128
 H705 H 0.59879 0.28134 0.67948
 H706 H 0.56452 0.28038 0.68031
 H707 H 0.58591 0.33518 0.71073
 H708 H 0.57706 0.31159 0.73489
 C709 C 0.58830 0.81205 0.19040
 C710 C 0.59512 0.83054 0.19653
 C711 C 0.61187 0.83880 0.18793
 C712 C 0.62214 0.82891 0.17272
 C713 C 0.61489 0.81068 0.16617
 C714 C 0.59836 0.80231 0.17501
 C715 C 0.57122 0.80261 0.20039
 C716 C 0.55843 0.79041 0.18960
 C717 C 0.54325 0.78045 0.19925
 C718 C 0.54024 0.78274 0.21984
 C719 C 0.55254 0.79540 0.23056
 C720 C 0.56795 0.80510 0.22098
 H721 H 0.61674 0.85295 0.19331
 H722 H 0.62228 0.80248 0.15457
 H723 H 0.53384 0.77094 0.19058
 H724 H 0.55063 0.79732 0.24649
 H725 H 0.59381 0.78791 0.17010
 H726 H 0.56016 0.78848 0.17367
 H727 H 0.58753 0.83868 0.20803
 H728 H 0.57764 0.81407 0.22988
 C729 C 1.08977 0.30818 0.19388
 C730 C 1.09980 0.29863 0.17835
 C731 C 1.11573 0.30756 0.16888
 C732 C 1.12237 0.32619 0.17492
 C733 C 1.11226 0.33577 0.19044
 C734 C 1.09611 0.32696 0.19964
 C735 C 1.07305 0.29843 0.20425
 C736 C 1.06982 0.30140 0.22478
 C737 C 1.05440 0.29198 0.23462
 C738 C 1.04204 0.27909 0.22426
 C739 C 1.04516 0.27609 0.20379
 C740 C 1.06037 0.28579 0.19385
 H741 H 1.12306 0.29956 0.15709
 H742 H 1.11667 0.35019 0.19547
 H743 H 1.05245 0.29442 0.25046
 H744 H 1.03574 0.26635 0.19540
 H745 H 1.08852 0.33499 0.21122
 H746 H 1.07946 0.31066 0.23343
 H747 H 1.09565 0.28402 0.17372
 H748 H 1.06208 0.28344 0.17798
 C749 C 1.09052 0.80817 0.69254
 C750 C 1.09722 0.82664 0.69884
 C751 C 1.11338 0.83549 0.68970
 C752 C 1.12311 0.82626 0.67371
 C753 C 1.11626 0.80783 0.66732
 C754 C 1.10033 0.79886 0.67671
 C755 C 1.07351 0.79854 0.70250
 C756 C 1.06057 0.78664 0.69156
 C757 C 1.04510 0.77697 0.70105
 C758 C 1.04196 0.77926 0.72162
 C759 C 1.05453 0.79149 0.73251
 C760 C 1.07023 0.80089 0.72311
 H761 H 1.11801 0.84972 0.69505
 H762 H 1.12333 0.80008 0.65520
 H763 H 1.03552 0.76775 0.69225
 H764 H 1.05256 0.79337 0.74844
 H765 H 1.09591 0.78444 0.67171
 H766 H 1.06230 0.78483 0.67562
 H767 H 1.08985 0.83445 0.71072
 H768 H 1.08004 0.80962 0.73213
 C769 C 0.41060 0.69304 0.68998
 C770 C 0.40545 0.69726 0.67011
 C771 C 0.38919 0.68830 0.66132
 C772 C 0.37784 0.67475 0.67213
 C773 C 0.38319 0.67026 0.69185
 C774 C 0.39928 0.67937 0.70070
 C775 C 0.42742 0.70311 0.69969
 C776 C 0.43911 0.69318 0.71370
 C777 C 0.45425 0.70289 0.72359
 C778 C 0.45824 0.72270 0.71953
 C779 C 0.44692 0.73255 0.70520
 C780 C 0.43160 0.72290 0.69548
 H781 H 0.38554 0.69198 0.64605
 H782 H 0.37466 0.66002 0.70065
 H783 H 0.46286 0.69486 0.73442
 H784 H 0.44959 0.74785 0.70184
 H785 H 0.40253 0.67603 0.71613
 H786 H 0.43662 0.67784 0.71701
 H787 H 0.41402 0.70743 0.66128
 H788 H 0.42274 0.73112 0.68504
 C789 C 0.41178 0.19166 0.18969
 C790 C 0.40222 0.17594 0.19921
 C791 C 0.38613 0.16681 0.19036
 C792 C 0.37882 0.17339 0.17188
 C793 C 0.38859 0.18894 0.16221
 C794 C 0.40492 0.19781 0.17092
 C795 C 0.42843 0.20192 0.19958
 C796 C 0.43116 0.22224 0.19707
 C797 C 0.44641 0.23197 0.20677
 C798 C 0.45908 0.22172 0.21952
 C799 C 0.45648 0.20145 0.22204
 C800 C 0.44146 0.19162 0.21203
 H801 H 0.37911 0.15494 0.19841
 H802 H 0.38367 0.19435 0.14787
 H803 H 0.44799 0.24765 0.20469
 H804 H 0.46617 0.19314 0.23163
 H805 H 0.41216 0.20952 0.16287
 H806 H 0.42124 0.23078 0.18798
 H807 H 0.40680 0.17097 0.21382
 H808 H 0.44015 0.17593 0.21402
 C809 C -0.08916 0.68881 0.19445
 C810 C -0.10044 0.69867 0.18005
 C811 C -0.11639 0.68945 0.17105
 C812 C -0.12165 0.67024 0.17641
 C813 C -0.11046 0.66036 0.19084
 C814 C -0.09433 0.66950 0.19967
 C815 C -0.07232 0.69883 0.20416
 C816 C -0.06810 0.69564 0.22445
 C817 C -0.05277 0.70567 0.23373
 C818 C -0.04147 0.71930 0.22300
 C819 C -0.04547 0.72231 0.20268
 C820 C -0.06061 0.71210 0.19333
 H821 H -0.12481 0.69755 0.16013
 H822 H -0.11406 0.64548 0.19518
 H823 H -0.05011 0.70313 0.24945
 H824 H -0.03687 0.73259 0.19397
 H825 H -0.08580 0.66134 0.21045
 H826 H -0.07697 0.68578 0.23334
 H827 H -0.09720 0.71368 0.17595
 H828 H -0.06312 0.71461 0.17759
 C829 C -0.09197 0.18940 0.69637
 C830 C -0.10212 0.19854 0.68068
 C831 C -0.11822 0.18946 0.67182
 C832 C -0.12491 0.17108 0.67862
 C833 C -0.11487 0.16204 0.69451
 C834 C -0.09854 0.17100 0.70313
 C835 C -0.07474 0.19915 0.70568
 C836 C -0.07100 0.19714 0.72624
 C837 C -0.05512 0.20673 0.73503
 C838 C -0.04282 0.21879 0.72355
 C839 C -0.04640 0.22072 0.70303
 C840 C -0.06205 0.21087 0.69416
 H841 H -0.12554 0.19709 0.65977
 H842 H -0.11940 0.14785 0.70017
 H843 H -0.05279 0.20511 0.75093
 H844 H -0.03702 0.22979 0.69379
 H845 H -0.09092 0.16334 0.71495
 H846 H -0.08060 0.18855 0.73568
 H847 H -0.09783 0.21290 0.67536
 H848 H -0.06413 0.21241 0.67822
 C849 C 0.30851 0.40925 0.30508
 C850 C 0.32804 0.40443 0.30061
 C851 C 0.33706 0.38834 0.30970
 C852 C 0.32683 0.37681 0.32366
 C853 C 0.30737 0.38168 0.32824
 C854 C 0.29828 0.39762 0.31898
 C855 C 0.29875 0.42619 0.29519
 C856 C 0.28513 0.43774 0.30566
 C857 C 0.27544 0.45319 0.29618
 C858 C 0.27931 0.45763 0.27608
 C859 C 0.29319 0.44638 0.26570
 C860 C 0.30271 0.43077 0.27511
 H861 H 0.35212 0.38507 0.30596
 H862 H 0.29902 0.37301 0.33880
 H863 H 0.26494 0.46170 0.30463
 H864 H 0.29638 0.44936 0.25015
 H865 H 0.28312 0.40063 0.32251
 H866 H 0.28200 0.43492 0.32124
 H867 H 0.33648 0.41323 0.29025
 H868 H 0.31286 0.42203 0.26647
 C869 C 0.30759 -0.09292 0.80444
 C870 C 0.32619 -0.09931 0.79822
 C871 C 0.33521 -0.11535 0.80739
 C872 C 0.32604 -0.12526 0.82333
 C873 C 0.30749 -0.11871 0.82965
 C874 C 0.29834 -0.10292 0.82021
 C875 C 0.29781 -0.07602 0.79443
 C876 C 0.28557 -0.06329 0.80529
 C877 C 0.27592 -0.04783 0.79578
 C878 C 0.27859 -0.04447 0.77528
 C879 C 0.29106 -0.05688 0.76447
 C880 C 0.30041 -0.07258 0.77388
 H881 H 0.34953 -0.11974 0.80210
 H882 H 0.29978 -0.12594 0.84173
 H883 H 0.26651 -0.03836 0.80451
 H884 H 0.29323 -0.05474 0.74859
 H885 H 0.28385 -0.09875 0.82516
 H886 H 0.28352 -0.06515 0.82119
 H887 H 0.33398 -0.09177 0.78640
 H888 H 0.30937 -0.08224 0.76491
 C889 C 0.80998 0.41169 0.80510
 C890 C 0.82574 0.40208 0.79578
 C891 C 0.83529 0.38650 0.80522
 C892 C 0.82908 0.37979 0.82410
 C893 C 0.81343 0.38958 0.83348
 C894 C 0.80418 0.40539 0.82421
 C895 C 0.79938 0.42793 0.79485
 C896 C 0.77913 0.43046 0.79771
 C897 C 0.76913 0.44567 0.78820
 C898 C 0.77903 0.45849 0.77527
 C899 C 0.79920 0.45594 0.77219
 C900 C 0.80930 0.44095 0.78202
 H901 H 0.84722 0.37941 0.79739
 H902 H 0.80829 0.38516 0.84811
 H903 H 0.75353 0.44717 0.79067
 H904 H 0.80721 0.46573 0.76240
 H905 H 0.79247 0.41272 0.83213
 H906 H 0.77085 0.42050 0.80706
 H907 H 0.83046 0.40627 0.78095
 H908 H 0.82493 0.43973 0.77970
 C909 C 0.81048 -0.08586 0.30752
 C910 C 0.82378 -0.09745 0.29669
 C911 C 0.83300 -0.11348 0.30566
 C912 C 0.82895 -0.11847 0.32559
 C913 C 0.81595 -0.10672 0.33656
 C914 C 0.80693 -0.09053 0.32767
 C915 C 0.79985 -0.06946 0.29764
 C916 C 0.78024 -0.06545 0.30258
 C917 C 0.76999 -0.05052 0.29286
 C918 C 0.77901 -0.03940 0.27778
 C919 C 0.79861 -0.04326 0.27287
 C920 C 0.80896 -0.05803 0.28277
 H921 H 0.84285 -0.12232 0.29675
 H922 H 0.81267 -0.11007 0.35201
 H923 H 0.75485 -0.04799 0.29688
 H924 H 0.80599 -0.03481 0.26141
 H925 H 0.79712 -0.08170 0.33661
 H926 H 0.77259 -0.07416 0.31364
 H927 H 0.82666 -0.09454 0.28108
 H928 H 0.82413 -0.06044 0.27882
 C929 C 0.30807 0.59206 0.69269
 C930 C 0.32750 0.59730 0.69709
 C931 C 0.33617 0.61359 0.68798
 C932 C 0.32571 0.62491 0.67407
 C933 C 0.30635 0.61961 0.66956
 C934 C 0.29760 0.60347 0.67884
 C935 C 0.29869 0.57489 0.70260
 C936 C 0.28537 0.56301 0.69216
 C937 C 0.27604 0.54731 0.70163
 C938 C 0.27999 0.54295 0.72172
 C939 C 0.29359 0.55452 0.73209
 C940 C 0.30276 0.57038 0.72268
 H941 H 0.35117 0.61718 0.69167
 H942 H 0.29783 0.62811 0.65903
 H943 H 0.26574 0.53857 0.69320
 H944 H 0.29683 0.55160 0.74763
 H945 H 0.28250 0.60012 0.67536
 H946 H 0.28218 0.56578 0.67658
 H947 H 0.33612 0.58868 0.70741
 H948 H 0.31269 0.57936 0.73129
 C949 C 0.30930 1.09261 0.19316
 C950 C 0.32773 1.09932 0.19950
 C951 C 0.33652 1.11558 0.19045
 C952 C 0.32727 1.12542 0.17455
 C953 C 0.30889 1.11854 0.16811
 C954 C 0.29998 1.10251 0.17740
 C955 C 0.29968 1.07555 0.20306
 C956 C 0.28777 1.06264 0.19208
 C957 C 0.27802 1.04718 0.20153
 C958 C 0.28023 1.04403 0.22210
 C959 C 0.29250 1.05654 0.23303
 C960 C 0.30198 1.07222 0.22366
 H961 H 0.35072 1.12023 0.19583
 H962 H 0.30112 1.12569 0.15605
 H963 H 0.26878 1.03764 0.19270
 H964 H 0.29433 1.05454 0.24896
 H965 H 0.28559 1.09810 0.17238
 H966 H 0.28600 1.06441 0.17613
 H967 H 0.33554 1.09187 0.21133
 H968 H 0.31071 1.08200 0.23271
 C969 C 0.80898 0.58746 0.19507
 C970 C 0.82474 0.59706 0.20439
 C971 C 0.83423 0.61276 0.19504
 C972 C 0.82797 0.61961 0.17626
 C973 C 0.81232 0.60984 0.16687
 C974 C 0.80312 0.59391 0.17605
 C975 C 0.79843 0.57112 0.20527
 C976 C 0.77817 0.56853 0.20250
 C977 C 0.76818 0.55333 0.21210
 C978 C 0.77810 0.54058 0.22505
 C979 C 0.79827 0.54313 0.22798
 C980 C 0.80837 0.55811 0.21806
 H981 H 0.84615 0.61982 0.20287
 H982 H 0.80713 0.61439 0.15231
 H983 H 0.75258 0.55184 0.20974
 H984 H 0.80630 0.53340 0.23778
 H985 H 0.79142 0.58661 0.16813
 H986 H 0.76987 0.57848 0.19319
 H987 H 0.82950 0.59277 0.21916
 H988 H 0.82400 0.55935 0.22030
 C989 C 0.80910 1.08623 0.69507
 C990 C 0.82468 1.09594 0.70456
 C991 C 0.83390 1.11196 0.69550
 C992 C 0.82750 1.11905 0.67685
 C993 C 0.81218 1.10905 0.66718
 C994 C 0.80327 1.09278 0.67607
 C995 C 0.79855 1.06982 0.70518
 C996 C 0.77832 1.06720 0.70228
 C997 C 0.76827 1.05209 0.71196
 C998 C 0.77809 1.03946 0.72512
 C999 C 0.79824 1.04203 0.72816
 C1000 C 0.80841 1.05692 0.71816
 H1001 H 0.84561 1.11916 0.70353
 H1002 H 0.80695 1.11374 0.65270
 H1003 H 0.75268 1.05058 0.70950
 H1004 H 0.80619 1.03238 0.73812
 H1005 H 0.79173 1.08538 0.66800
 H1006 H 0.77007 1.07706 0.69284
 H1007 H 0.82945 1.09156 0.71930
 H1008 H 0.82401 1.05819 0.72051
 C1009 C 0.68921 0.58916 0.30954
 C1010 C 0.69291 0.59460 0.32942
 C1011 C 0.68411 0.61124 0.33763
 C1012 C 0.67120 0.62270 0.32624
 C1013 C 0.66707 0.61700 0.30655
 C1014 C 0.67605 0.60051 0.29826
 C1015 C 0.69945 0.57212 0.30038
 C1016 C 0.69000 0.56025 0.28620
 C1017 C 0.69997 0.54489 0.27688
 C1018 C 0.71955 0.54087 0.28172
 C1019 C 0.72890 0.55241 0.29619
 C1020 C 0.71902 0.56793 0.30532
 H1021 H 0.68746 0.61514 0.35291
 H1022 H 0.65729 0.62559 0.29732
 H1023 H 0.69233 0.53613 0.26590
 H1024 H 0.74403 0.54976 0.30013
 H1025 H 0.67308 0.59700 0.28281
 H1026 H 0.67484 0.56278 0.28230
 H1027 H 0.70263 0.58600 0.33869
 H1028 H 0.72691 0.57694 0.31588
 C1029 C 0.69058 1.08831 0.81164
 C1030 C 0.70029 1.09864 0.82684
 C1031 C 0.69170 1.11504 0.83571
 C1032 C 0.67326 1.12187 0.82937
 C1033 C 0.66341 1.11130 0.81438
 C1034 C 0.67188 1.09469 0.80577
 C1035 C 0.70016 1.07135 0.80157
 C1036 C 0.69719 1.06787 0.78110
 C1037 C 0.70665 1.05237 0.77148
 C1038 C 0.71958 1.04020 0.78201
 C1039 C 0.72253 1.04353 0.80245
 C1040 C 0.71280 1.05881 0.81217
 H1041 H 0.69987 1.12267 0.84716
 H1042 H 0.64911 1.11583 0.80918
 H1043 H 0.70423 1.05024 0.75566
 H1044 H 0.73229 1.03424 0.81097
 H1045 H 0.66372 1.08686 0.79448
 H1046 H 0.68792 1.07740 0.77231
 H1047 H 0.71483 1.09442 0.83156
 H1048 H 0.71515 1.06072 0.82801
 C1049 C 0.19039 0.58831 0.80712
 C1050 C 0.19957 0.59814 0.82298
 C1051 C 0.19073 0.61431 0.83202
 C1052 C 0.17257 0.62141 0.82520
 C1053 C 0.16326 0.61139 0.80947
 C1054 C 0.17198 0.59499 0.80068
 C1055 C 0.20029 0.57156 0.79701
 C1056 C 0.19819 0.56865 0.77632
 C1057 C 0.20813 0.55345 0.76669
 C1058 C 0.22066 0.54103 0.77743
 C1059 C 0.22265 0.54374 0.79809
 C1060 C 0.21244 0.55870 0.80780
 H1061 H 0.19850 0.62152 0.84402
 H1062 H 0.14919 0.61616 0.80386
 H1063 H 0.20644 0.55178 0.75071
 H1064 H 0.23206 0.53424 0.80677
 H1065 H 0.16425 0.58755 0.78882
 H1066 H 0.18929 0.57842 0.76742
 H1067 H 0.21390 0.59371 0.82815
 H1068 H 0.21409 0.56015 0.82379
 C1069 C 0.19250 1.09297 0.30671
 C1070 C 0.20186 1.10290 0.32241
 C1071 C 0.19289 1.11882 0.33178
 C1072 C 0.17440 1.12554 0.32550
 C1073 C 0.16511 1.11566 0.30967
 C1074 C 0.17396 1.09952 0.30054
 C1075 C 0.20215 1.07602 0.29671
 C1076 C 0.19967 1.07277 0.27613
 C1077 C 0.20900 1.05709 0.26669
 C1078 C 0.22129 1.04449 0.27751
 C1079 C 0.22377 1.04763 0.29804
 C1080 C 0.21417 1.06310 0.30758
 H1081 H 0.20068 1.12600 0.34379
 H1082 H 0.15082 1.12018 0.30441
 H1083 H 0.20697 1.05513 0.25079
 H1084 H 0.23304 1.03803 0.30678
 H1085 H 0.16612 1.09205 0.28878
 H1086 H 0.19086 1.08258 0.26717
 H1087 H 0.21632 1.09859 0.32731
 H1088 H 0.21611 1.06484 0.32350
 C1089 C 0.68900 0.41211 0.69070
 C1090 C 0.67578 0.40077 0.70197
 C1091 C 0.66664 0.38440 0.69361
 C1092 C 0.67068 0.37883 0.67385
 C1093 C 0.68362 0.39031 0.66246
 C1094 C 0.69257 0.40683 0.67074
 C1095 C 0.69947 0.42895 0.69995
 C1096 C 0.71907 0.43297 0.69494
 C1097 C 0.72919 0.44825 0.70421
 C1098 C 0.72005 0.45969 0.71891
 C1099 C 0.70042 0.45586 0.72380
 C1100 C 0.69021 0.44076 0.71434
 H1101 H 0.65685 0.37579 0.70284
 H1102 H 0.68689 0.38651 0.64712
 H1103 H 0.74436 0.45076 0.70023
 H1104 H 0.69293 0.46456 0.73495
 H1105 H 0.70233 0.41544 0.66147
 H1106 H 0.72681 0.42400 0.68421
 H1107 H 0.67291 0.40416 0.71747
 H1108 H 0.67504 0.43835 0.71830
 C1109 C 0.69136 -0.08980 0.19205
 C1110 C 0.70121 -0.10050 0.17720
 C1111 C 0.69240 -0.11670 0.16818
 C1112 C 0.67357 -0.12294 0.17401
 C1113 C 0.66368 -0.11214 0.18882
 C1114 C 0.67240 -0.09573 0.19759
 C1115 C 0.70099 -0.07280 0.20197
 C1116 C 0.69770 -0.06892 0.22233
 C1117 C 0.70710 -0.05328 0.23176
 C1118 C 0.72024 -0.04133 0.22115
 C1119 C 0.72351 -0.04509 0.20083
 C1120 C 0.71386 -0.06053 0.19130
 H1121 H 0.70063 -0.12456 0.15693
 H1122 H 0.64911 -0.11623 0.19367
 H1123 H 0.70443 -0.05082 0.24749
 H1124 H 0.73344 -0.03600 0.19224
 H1125 H 0.66417 -0.08764 0.20866
 H1126 H 0.68821 -0.07824 0.23115
 H1127 H 0.71596 -0.09664 0.17278
 H1128 H 0.71646 -0.06276 0.17553
 C1129 C 0.18949 0.41100 0.19112
 C1130 C 0.19962 0.39961 0.17701
 C1131 C 0.19070 0.38341 0.16813
 C1132 C 0.17150 0.37801 0.17330
 C1133 C 0.16126 0.38946 0.18725
 C1134 C 0.17012 0.40583 0.19598
 C1135 C 0.19937 0.42782 0.20107
 C1136 C 0.19583 0.43195 0.22133
 C1137 C 0.20578 0.44716 0.23091
 C1138 C 0.21968 0.45845 0.22053
 C1139 C 0.22307 0.45452 0.20026
 C1140 C 0.21294 0.43948 0.19061
 H1141 H 0.19907 0.37483 0.15755
 H1142 H 0.14640 0.38577 0.19145
 H1143 H 0.20292 0.44978 0.24658
 H1144 H 0.23356 0.46311 0.19182
 H1145 H 0.16175 0.41446 0.20651
 H1146 H 0.18574 0.42310 0.22996
 H1147 H 0.21466 0.40287 0.17316
 H1148 H 0.21576 0.43702 0.17491
 C1149 C 0.18934 -0.08902 0.68847
 C1150 C 0.17384 -0.09867 0.69823
 C1151 C 0.16452 -0.11470 0.68940
 C1152 C 0.17072 -0.12185 0.67071
 C1153 C 0.18599 -0.11192 0.66079
 C1154 C 0.19502 -0.09564 0.66946
 C1155 C 0.19996 -0.07257 0.69835
 C1156 C 0.22018 -0.06993 0.69528
 C1157 C 0.23029 -0.05491 0.70497
 C1158 C 0.22053 -0.04241 0.71828
 C1159 C 0.20036 -0.04492 0.72138
 C1160 C 0.19015 -0.05969 0.71137
 H1161 H 0.15286 -0.12184 0.69763
 H1162 H 0.19108 -0.11668 0.64627
 H1163 H 0.24588 -0.05341 0.70246
 H1164 H 0.19245 -0.03534 0.73143
 H1165 H 0.20651 -0.08830 0.66120
 H1166 H 0.22838 -0.07976 0.68576
 H1167 H 0.16922 -0.09426 0.71300
 H1168 H 0.17454 -0.06094 0.71382
 C1169 C 0.30999 0.30877 0.41025
 C1170 C 0.32967 0.30493 0.40545
 C1171 C 0.33847 0.31380 0.38888
 C1172 C 0.32787 0.32690 0.37684
 C1173 C 0.30830 0.33098 0.38178
 C1174 C 0.29944 0.32195 0.39820
 C1175 C 0.30034 0.29880 0.42744
 C1176 C 0.28623 0.30861 0.43900
 C1177 C 0.27653 0.29895 0.45456
 C1178 C 0.28089 0.27932 0.45908
 C1179 C 0.29529 0.26962 0.44785
 C1180 C 0.30482 0.27920 0.43214
 H1181 H 0.35362 0.31047 0.38558
 H1182 H 0.29967 0.34088 0.37273
 H1183 H 0.26562 0.30688 0.46306
 H1184 H 0.29887 0.25444 0.45088
 H1185 H 0.28417 0.32499 0.40118
 H1186 H 0.28268 0.32381 0.43609
 H1187 H 0.33835 0.29515 0.41458
 H1188 H 0.31535 0.27105 0.42338
 C1189 C 0.30853 0.80773 -0.09043
 C1190 C 0.32839 0.80433 -0.09476
 C1191 C 0.33730 0.81326 -0.11124
 C1192 C 0.32663 0.82596 -0.12364
 C1193 C 0.30688 0.82962 -0.11914
 C1194 C 0.29791 0.82053 -0.10281
 C1195 C 0.29878 0.79764 -0.07337
 C1196 C 0.28415 0.80717 -0.06221
 C1197 C 0.27437 0.79737 -0.04680
 C1198 C 0.27916 0.77790 -0.04202
 C1199 C 0.29404 0.76849 -0.05285
 C1200 C 0.30366 0.77820 -0.06841
 H1201 H 0.35259 0.81026 -0.11421
 H1202 H 0.29819 0.83922 -0.12847
 H1203 H 0.26307 0.80506 -0.03861
 H1204 H 0.29796 0.75344 -0.04960
 H1205 H 0.28252 0.82322 -0.10019
 H1206 H 0.28027 0.82225 -0.06533
 H1207 H 0.33713 0.79485 -0.08536
 H1208 H 0.31459 0.77027 -0.07687
 C1209 C 0.81163 0.31283 -0.08959
 C1210 C 0.83122 0.30876 -0.09456
 C1211 C 0.84001 0.31765 -0.11111
 C1212 C 0.82952 0.33104 -0.12291
 C1213 C 0.81012 0.33552 -0.11766
 C1214 C 0.80124 0.32643 -0.10129
 C1215 C 0.80187 0.30252 -0.07268
 C1216 C 0.78777 0.31212 -0.06090
 C1217 C 0.77797 0.30211 -0.04565
 C1218 C 0.78223 0.28236 -0.04164
 C1219 C 0.79659 0.27285 -0.05309
 C1220 C 0.80620 0.28277 -0.06851
 H1221 H 0.85505 0.31403 -0.11465
 H1222 H 0.80159 0.34567 -0.12654
 H1223 H 0.76708 0.30986 -0.03696
 H1224 H 0.80008 0.25758 -0.05045
 H1225 H 0.78605 0.32969 -0.09816
 H1226 H 0.78433 0.32741 -0.06341
 H1227 H 0.83980 0.29869 -0.08567
 H1228 H 0.81668 0.27477 -0.07747
 C1229 C 0.80855 0.81110 0.40935
 C1230 C 0.82164 0.80050 0.39727
 C1231 C 0.83087 0.80945 0.38102
 C1232 C 0.82708 0.82917 0.37630
 C1233 C 0.81408 0.83982 0.38838
 C1234 C 0.80501 0.83093 0.40478
 C1235 C 0.79834 0.80136 0.42633
 C1236 C 0.77880 0.80604 0.43090
 C1237 C 0.76899 0.79643 0.44640
 C1238 C 0.77840 0.78176 0.45755
 C1239 C 0.79797 0.77719 0.45316
 C1240 C 0.80786 0.78696 0.43781
 H1241 H 0.84070 0.80078 0.37193
 H1242 H 0.81098 0.85508 0.38524
 H1243 H 0.75386 0.80019 0.44934
 H1244 H 0.80566 0.76606 0.46160
 H1245 H 0.79530 0.83964 0.41395
 H1246 H 0.77088 0.81679 0.42219
 H1247 H 0.82445 0.78513 0.40008
 H1248 H 0.82301 0.78324 0.43498
 C1249 C 0.69107 0.30662 0.59211
 C1250 C 0.69460 0.32654 0.59619
 C1251 C 0.68544 0.33576 0.61230
 C1252 C 0.67238 0.32536 0.62459
 C1253 C 0.66859 0.30555 0.62034
 C1254 C 0.67790 0.29627 0.60437
 C1255 C 0.70136 0.29656 0.57542
 C1256 C 0.69185 0.28199 0.56418
 C1257 C 0.70175 0.27205 0.54900
 C1258 C 0.72132 0.27660 0.54453
 C1259 C 0.73075 0.29137 0.55549
 C1260 C 0.72093 0.30116 0.57083
 H1261 H 0.68855 0.35109 0.61507
 H1262 H 0.65871 0.29706 0.62960
 H1263 H 0.69404 0.26084 0.54070
 H1264 H 0.74587 0.29513 0.55249
 H1265 H 0.67509 0.28084 0.60192
 H1266 H 0.67669 0.27831 0.56704
 H1267 H 0.70436 0.33506 0.58685
 H1268 H 0.72883 0.31203 0.57937
 C1269 C 0.69477 0.80474 1.09340
 C1270 C 0.67501 0.80094 1.09788
 C1271 C 0.66577 0.81041 1.11379
 C1272 C 0.67600 0.82409 1.12547
 C1273 C 0.69571 0.82799 1.12096
 C1274 C 0.70501 0.81834 1.10520
 C1275 C 0.70465 0.79453 1.07654
 C1276 C 0.71869 0.80432 1.06482
 C1277 C 0.72820 0.79465 1.04921
 C1278 C 0.72373 0.77503 1.04479
 C1279 C 0.70955 0.76528 1.05630
 C1280 C 0.70020 0.77488 1.07207
 H1281 H 0.65052 0.80720 1.11675
 H1282 H 0.70404 0.83834 1.12977
 H1283 H 0.73898 0.80259 1.04050
 H1284 H 0.70590 0.75011 1.05336
 H1285 H 0.72033 0.82137 1.10245
 H1286 H 0.72222 0.81956 1.06756
 H1287 H 0.66655 0.79083 1.08892
 H1288 H 0.68973 0.76676 1.08097
 C1289 C 0.19163 0.30681 1.09084
 C1290 C 0.19527 0.32660 1.09538
 C1291 C 0.18623 0.33549 1.11173
 C1292 C 0.17313 0.32489 1.12382
 C1293 C 0.16926 0.30520 1.11917
 C1294 C 0.17850 0.29622 1.10295
 C1295 C 0.20166 0.29721 1.07370
 C1296 C 0.19197 0.28299 1.06218
 C1297 C 0.20158 0.27363 1.04643
 C1298 C 0.22102 0.27843 1.04167
 C1299 C 0.23064 0.29284 1.05294
 C1300 C 0.22112 0.30203 1.06884
 H1301 H 0.18938 0.35075 1.11479
 H1302 H 0.15934 0.29659 1.12827
 H1303 H 0.19374 0.26266 1.03793
 H1304 H 0.24569 0.29673 1.04973
 H1305 H 0.17559 0.28087 1.10014
 H1306 H 0.17688 0.27917 1.06522
 H1307 H 0.20498 0.33533 1.08618
 H1308 H 0.22919 0.31264 1.07758
 C1309 C 0.19054 0.80821 0.58795
 C1310 C 0.17754 0.79762 0.60019
 C1311 C 0.16830 0.80665 0.61637
 C1312 C 0.17201 0.82643 0.62084
 C1313 C 0.18486 0.83708 0.60853
 C1314 C 0.19392 0.82811 0.59222
 C1315 C 0.20083 0.79842 0.57109
 C1316 C 0.22030 0.80333 0.56641
 C1317 C 0.23014 0.79389 0.55087
 C1318 C 0.22082 0.77915 0.53977
 C1319 C 0.20136 0.77424 0.54435
 C1320 C 0.19144 0.78384 0.55976
 H1321 H 0.15858 0.79799 0.62563
 H1322 H 0.18789 0.85239 0.61146
 H1323 H 0.24518 0.79790 0.54779
 H1324 H 0.19375 0.76303 0.53596
 H1325 H 0.20353 0.83683 0.58289
 H1326 H 0.22814 0.81420 0.57503
 H1327 H 0.17482 0.78220 0.59759
 H1328 H 0.17636 0.77992 0.56269
 C1329 C 0.30789 0.69327 0.58789
 C1330 C 0.32763 0.69703 0.59243
 C1331 C 0.33651 0.68817 0.60893
 C1332 C 0.32593 0.67516 0.62114
 C1333 C 0.30631 0.67113 0.61643
 C1334 C 0.29736 0.68017 0.60009
 C1335 C 0.29817 0.70327 0.57078
 C1336 C 0.28384 0.69355 0.55943
 C1337 C 0.27415 0.70323 0.54393
 C1338 C 0.27873 0.72277 0.53922
 C1339 C 0.29332 0.73239 0.55025
 C1340 C 0.30284 0.72280 0.56592
 H1341 H 0.35170 0.69145 0.61205
 H1342 H 0.29770 0.66129 0.62562
 H1343 H 0.26308 0.69538 0.53558
 H1344 H 0.29707 0.74751 0.54708
 H1345 H 0.28205 0.67719 0.59730
 H1346 H 0.28013 0.67840 0.56247
 H1347 H 0.33631 0.70673 0.58318
 H1348 H 0.31352 0.73089 0.57452
 C1349 C 0.30850 0.19272 1.08903
 C1350 C 0.32832 0.19645 1.09326
 C1351 C 0.33742 0.18764 1.10965
 C1352 C 0.32699 0.17469 1.12206
 C1353 C 0.30728 0.17072 1.11767
 C1354 C 0.29812 0.17971 1.10144
 C1355 C 0.29854 0.20267 1.07205
 C1356 C 0.28403 0.19292 1.06096
 C1357 C 0.27410 0.20256 1.04558
 C1358 C 0.27864 0.22209 1.04076
 C1359 C 0.29338 0.23173 1.05155
 C1360 C 0.30313 0.22218 1.06708
 H1361 H 0.35267 0.19088 1.11253
 H1362 H 0.29877 0.16094 1.12702
 H1363 H 0.26292 0.19470 1.03742
 H1364 H 0.29711 0.24684 1.04828
 H1365 H 0.28276 0.17676 1.09891
 H1366 H 0.28036 0.17778 1.06409
 H1367 H 0.33688 0.20611 1.08383
 H1368 H 0.31395 0.23028 1.07549
 C1369 C 0.81052 0.68747 1.09062
 C1370 C 0.83004 0.69166 1.09574
 C1371 C 0.83879 0.68261 1.11218
 C1372 C 0.82833 0.66895 1.12374
 C1373 C 0.80900 0.66438 1.11838
 C1374 C 0.80016 0.67362 1.10210
 C1375 C 0.80083 0.69784 1.07375
 C1376 C 0.78697 0.68815 1.06178
 C1377 C 0.77717 0.69817 1.04659
 C1378 C 0.78119 0.71803 1.04281
 C1379 C 0.79535 0.72762 1.05440
 C1380 C 0.80497 0.71768 1.06978
 H1381 H 0.85378 0.68631 1.11582
 H1382 H 0.80049 0.65403 1.12707
 H1383 H 0.76645 0.69034 1.03777
 H1384 H 0.79866 0.74296 1.05192
 H1385 H 0.78502 0.67026 1.09886
 H1386 H 0.78369 0.67279 1.06412
 H1387 H 0.83860 0.70194 1.08702
 H1388 H 0.81528 0.72573 1.07887
 C1389 C 0.80732 0.18891 0.59361
 C1390 C 0.80356 0.16912 0.59818
 C1391 C 0.81252 0.16014 0.61456
 C1392 C 0.82562 0.17067 0.62663
 C1393 C 0.82958 0.19036 0.62191
 C1394 C 0.82047 0.19940 0.60569
 C1395 C 0.79732 0.19873 0.57658
 C1396 C 0.80710 0.21302 0.56512
 C1397 C 0.79746 0.22283 0.54968
 C1398 C 0.77788 0.21841 0.54517
 C1399 C 0.76820 0.20389 0.55633
 C1400 C 0.77777 0.19424 0.57192
 H1401 H 0.80926 0.14490 0.61771
 H1402 H 0.83948 0.19896 0.63099
 H1403 H 0.80536 0.23383 0.54123
 H1404 H 0.75307 0.20025 0.55328
 H1405 H 0.82344 0.21475 0.60289
 H1406 H 0.82227 0.21658 0.56801
 H1407 H 0.79378 0.16049 0.58901
 H1408 H 0.76966 0.18358 0.58062
 C1409 C 0.69133 0.69493 0.40805
 C1410 C 0.69487 0.67503 0.40392
 C1411 C 0.68583 0.66584 0.38775
 C1412 C 0.67284 0.67626 0.37544
 C1413 C 0.66904 0.69606 0.37974
 C1414 C 0.67824 0.70531 0.39578
 C1415 C 0.70150 0.70493 0.42484
 C1416 C 0.69193 0.71942 0.43615
 C1417 C 0.70169 0.72914 0.45156
 C1418 C 0.72118 0.72445 0.45617
 C1419 C 0.73069 0.70982 0.44506
 C1420 C 0.72101 0.70026 0.42952
 H1421 H 0.68895 0.65052 0.38495
 H1422 H 0.65922 0.70455 0.37047
 H1423 H 0.69393 0.74025 0.45995
 H1424 H 0.74575 0.70598 0.44816
 H1425 H 0.67541 0.72072 0.39827
 H1426 H 0.67681 0.72316 0.43321
 H1427 H 0.70456 0.66648 0.41327
 H1428 H 0.72897 0.68946 0.42092
 C1429 C 0.69590 0.19532 -0.09155
 C1430 C 0.69985 0.17549 -0.09570
 C1431 C 0.69062 0.16599 -0.11158
 C1432 C 0.67701 0.17599 -0.12353
 C1433 C 0.67292 0.19574 -0.11933
 C1434 C 0.68234 0.20532 -0.10362
 C1435 C 0.70597 0.20552 -0.07482
 C1436 C 0.69617 0.21978 -0.06342
 C1437 C 0.70575 0.22952 -0.04789
 C1438 C 0.72527 0.22503 -0.04323
 C1439 C 0.73503 0.21067 -0.05446
 C1440 C 0.72555 0.20112 -0.07014
 H1441 H 0.69397 0.15071 -0.11430
 H1442 H 0.66261 0.20390 -0.12835
 H1443 H 0.69781 0.24044 -0.03941
 H1444 H 0.75014 0.20702 -0.05134
 H1445 H 0.67919 0.22068 -0.10112
 H1446 H 0.68100 0.22331 -0.06633
 H1447 H 0.70991 0.16719 -0.08653
 H1448 H 0.73370 0.19052 -0.07880
 C1449 C 0.19345 0.69208 -0.09281
 C1450 C 0.19738 0.67236 -0.09746
 C1451 C 0.18840 0.66337 -0.11378
 C1452 C 0.17506 0.67379 -0.12570
 C1453 C 0.17098 0.69342 -0.12099
 C1454 C 0.18016 0.70250 -0.10482
 C1455 C 0.20329 0.70179 -0.07564
 C1456 C 0.19335 0.71583 -0.06408
 C1457 C 0.20276 0.72531 -0.04831
 C1458 C 0.22225 0.72080 -0.04354
 C1459 C 0.23212 0.70656 -0.05483
 C1460 C 0.22280 0.69726 -0.07077
 H1461 H 0.19173 0.64816 -0.11690
 H1462 H 0.16089 0.70190 -0.12997
 H1463 H 0.19473 0.73613 -0.03978
 H1464 H 0.24720 0.70290 -0.05162
 H1465 H 0.17705 0.71779 -0.10196
 H1466 H 0.17821 0.71941 -0.06712
 H1467 H 0.20725 0.66376 -0.08835
 H1468 H 0.23104 0.68680 -0.07953
 C1469 C 0.19302 0.19335 0.41060
 C1470 C 0.20340 0.18017 0.39843
 C1471 C 0.19425 0.17093 0.38237
 C1472 C 0.17454 0.17480 0.37792
 C1473 C 0.16411 0.18791 0.39009
 C1474 C 0.17321 0.19700 0.40630
 C1475 C 0.20293 0.20345 0.42747
 C1476 C 0.19846 0.22305 0.43212
 C1477 C 0.20813 0.23269 0.44764
 C1478 C 0.22265 0.22302 0.45872
 C1479 C 0.22705 0.20341 0.45421
 C1480 C 0.21723 0.19370 0.43885
 H1481 H 0.20276 0.16102 0.37320
 H1482 H 0.14886 0.19110 0.38716
 H1483 H 0.20450 0.24784 0.45069
 H1484 H 0.23805 0.19551 0.46260
 H1485 H 0.16466 0.20678 0.41555
 H1486 H 0.18777 0.23113 0.42349
 H1487 H 0.21876 0.17727 0.40105
 H1488 H 0.22078 0.17851 0.43596
 C1489 C 0.31184 0.41166 0.69281
 C1490 C 0.30157 0.40009 0.67898
 C1491 C 0.31032 0.38369 0.67029
 C1492 C 0.32950 0.37825 0.67540
 C1493 C 0.33987 0.38983 0.68911
 C1494 C 0.33119 0.40641 0.69762
 C1495 C 0.30215 0.42874 0.70252
 C1496 C 0.30589 0.43329 0.72263
 C1497 C 0.29605 0.44871 0.73201
 C1498 C 0.28204 0.45976 0.72159
 C1499 C 0.27849 0.45545 0.70144
 C1500 C 0.28853 0.44023 0.69197
 H1501 H 0.30184 0.37500 0.65991
 H1502 H 0.35473 0.38611 0.69325
 H1503 H 0.29901 0.45161 0.74760
 H1504 H 0.26792 0.46386 0.69296
 H1505 H 0.33967 0.41515 0.70794
 H1506 H 0.31602 0.42461 0.73133
 H1507 H 0.28653 0.40338 0.67519
 H1508 H 0.28557 0.43746 0.67636
 C1509 C 0.30767 0.91219 0.19227
 C1510 C 0.32732 0.90739 0.19614
 C1511 C 0.33593 0.89099 0.18725
 C1512 C 0.32517 0.87912 0.17410
 C1513 C 0.30563 0.88406 0.17001
 C1514 C 0.29695 0.90031 0.17907
 C1515 C 0.29825 0.92929 0.20218
 C1516 C 0.28427 0.94067 0.19203
 C1517 C 0.27478 0.95616 0.20162
 C1518 C 0.27921 0.96082 0.22152
 C1519 C 0.29349 0.94978 0.23156
 C1520 C 0.30282 0.93413 0.22204
 H1521 H 0.35107 0.88768 0.19059
 H1522 H 0.29688 0.87514 0.16008
 H1523 H 0.26396 0.96451 0.19343
 H1524 H 0.29713 0.95294 0.24695
 H1525 H 0.28170 0.90332 0.17602
 H1526 H 0.28067 0.93764 0.17661
 H1527 H 0.33612 0.91638 0.20594
 H1528 H 0.31327 0.92553 0.23044
 C1529 C 0.80830 0.41035 0.19588
 C1530 C 0.79842 0.39898 0.18158
 C1531 C 0.80771 0.38316 0.17235
 C1532 C 0.82703 0.37815 0.17735
 C1533 C 0.83695 0.38950 0.19160
 C1534 C 0.82774 0.40548 0.20066
 C1535 C 0.79822 0.42698 0.20598
 C1536 C 0.80183 0.43110 0.22621
 C1537 C 0.79203 0.44639 0.23583
 C1538 C 0.77821 0.45778 0.22553
 C1539 C 0.77464 0.45377 0.20530
 C1540 C 0.78463 0.43864 0.19561
 H1541 H 0.79959 0.37463 0.16155
 H1542 H 0.85191 0.38611 0.19566
 H1543 H 0.79499 0.44903 0.25147
 H1544 H 0.76419 0.46241 0.19693
 H1545 H 0.83594 0.41411 0.21131
 H1546 H 0.81191 0.42223 0.23479
 H1547 H 0.78334 0.40203 0.17778
 H1548 H 0.78175 0.43618 0.17993
 C1549 C 0.80673 0.90875 0.69605
 C1550 C 0.82639 0.90409 0.70010
 C1551 C 0.83534 0.88801 0.69094
 C1552 C 0.82491 0.87634 0.67735
 C1553 C 0.80534 0.88110 0.67315
 C1554 C 0.79634 0.89702 0.68246
 C1555 C 0.79698 0.92557 0.70614
 C1556 C 0.78303 0.93698 0.69597
 C1557 C 0.77329 0.95226 0.70567
 C1558 C 0.77743 0.95665 0.72569
 C1559 C 0.79163 0.94553 0.73577
 C1560 C 0.80121 0.93011 0.72614
 H1561 H 0.85048 0.88482 0.69438
 H1562 H 0.79683 0.87231 0.66288
 H1563 H 0.76254 0.96068 0.69745
 H1564 H 0.79506 0.94849 0.75125
 H1565 H 0.78108 0.89990 0.67927
 H1566 H 0.77967 0.93418 0.68045
 H1567 H 0.83495 0.91298 0.71022
 H1568 H 0.81162 0.92146 0.73455
 C1569 C 0.69160 0.59117 0.69168
 C1570 C 0.70178 0.60299 0.67793
 C1571 C 0.69264 0.61899 0.66888
 C1572 C 0.67315 0.62374 0.67351
 C1573 C 0.66296 0.61201 0.68731
 C1574 C 0.67204 0.59585 0.69620
 C1575 C 0.70143 0.57420 0.70140
 C1576 C 0.69750 0.56946 0.72145
 C1577 C 0.70706 0.55381 0.73071
 C1578 C 0.72094 0.54265 0.72022
 C1579 C 0.72481 0.54726 0.70017
 C1580 C 0.71508 0.56277 0.69083
 H1581 H 0.70096 0.62782 0.65843
 H1582 H 0.64788 0.61518 0.69109
 H1583 H 0.70387 0.55070 0.74624
 H1584 H 0.73532 0.53883 0.69165
 H1585 H 0.66364 0.58690 0.70646
 H1586 H 0.68735 0.57812 0.73017
 H1587 H 0.71696 0.60008 0.67438
 H1588 H 0.71820 0.56574 0.67527
 C1589 C 0.68994 0.08960 0.19018
 C1590 C 0.67032 0.09452 0.19413
 C1591 C 0.66172 0.11086 0.18507
 C1592 C 0.67248 0.12255 0.17168
 C1593 C 0.69199 0.11750 0.16753
 C1594 C 0.70064 0.10131 0.17674
 C1595 C 0.69939 0.07262 0.20028
 C1596 C 0.71331 0.06113 0.19017
 C1597 C 0.72302 0.04590 0.19996
 C1598 C 0.71886 0.04161 0.22004
 C1599 C 0.70457 0.05269 0.23002
 C1600 C 0.69502 0.06809 0.22029
 H1601 H 0.64661 0.11427 0.18848
 H1602 H 0.70075 0.12629 0.15742
 H1603 H 0.73382 0.03749 0.19182
 H1604 H 0.70114 0.04980 0.24553
 H1605 H 0.71588 0.09824 0.17363
 H1606 H 0.71675 0.06391 0.17464
 H1607 H 0.66154 0.08566 0.20414
 H1608 H 0.68461 0.07679 0.22864
 C1609 C 0.18931 0.58796 0.19124
 C1610 C 0.19273 0.59266 0.17107
 C1611 C 0.18372 0.60891 0.16231
 C1612 C 0.17085 0.62070 0.17341
 C1613 C 0.16699 0.61571 0.19338
 C1614 C 0.17620 0.59962 0.20223
 C1615 C 0.19981 0.57137 0.20095
 C1616 C 0.19064 0.55995 0.21577
 C1617 C 0.20084 0.54493 0.22544
 C1618 C 0.22035 0.54082 0.22033
 C1619 C 0.22942 0.55198 0.20531
 C1620 C 0.21933 0.56715 0.19583
 H1621 H 0.18685 0.61226 0.14682
 H1622 H 0.15726 0.62457 0.20239
 H1623 H 0.19341 0.53647 0.23686
 H1624 H 0.24450 0.54925 0.20115
 H1625 H 0.17344 0.59668 0.21786
 H1626 H 0.17554 0.56253 0.21985
 H1627 H 0.20240 0.58378 0.16202
 H1628 H 0.22701 0.57585 0.18479
 C1629 C 0.19120 0.08810 0.69137
 C1630 C 0.17761 0.09939 0.70218
 C1631 C 0.16835 0.11545 0.69332
 C1632 C 0.17266 0.12079 0.67354
 C1633 C 0.18610 0.10946 0.66266
 C1634 C 0.19515 0.09323 0.67142
 C1635 C 0.20149 0.07133 0.70098
 C1636 C 0.22113 0.06719 0.69626
 C1637 C 0.23093 0.05169 0.70551
 C1638 C 0.22142 0.04012 0.71992
 C1639 C 0.20181 0.04417 0.72465
 C1640 C 0.19191 0.05950 0.71519
 H1641 H 0.15816 0.12398 0.70214
 H1642 H 0.18959 0.11307 0.64732
 H1643 H 0.24610 0.04902 0.70169
 H1644 H 0.19406 0.03539 0.73559
 H1645 H 0.20519 0.08465 0.66249
 H1646 H 0.22912 0.07619 0.68570
 H1647 H 0.17443 0.09612 0.71766
 H1648 H 0.17670 0.06199 0.71893
 C1649 C 0.30867 0.58970 0.30464
 C1650 C 0.32828 0.59452 0.30047
 C1651 C 0.33700 0.61098 0.30917
 C1652 C 0.32639 0.62288 0.32241
 C1653 C 0.30687 0.61796 0.32675
 C1654 C 0.29809 0.60166 0.31789
 C1655 C 0.29912 0.57252 0.29498
 C1656 C 0.28517 0.56127 0.30539
 C1657 C 0.27547 0.54577 0.29602
 C1658 C 0.27967 0.54097 0.27610
 C1659 C 0.29395 0.55185 0.26581
 C1660 C 0.30349 0.56751 0.27510
 H1661 H 0.35212 0.61428 0.30563
 H1662 H 0.29821 0.62691 0.33676
 H1663 H 0.26466 0.53755 0.30440
 H1664 H 0.29742 0.54858 0.25040
 H1665 H 0.28286 0.59868 0.32116
 H1666 H 0.28172 0.56441 0.32083
 H1667 H 0.33699 0.58548 0.29060
 H1668 H 0.31391 0.57600 0.26651
 C1669 C 0.30837 0.08650 0.80712
 C1670 C 0.32813 0.09110 0.80346
 C1671 C 0.33686 0.10734 0.81255
 C1672 C 0.32611 0.11924 0.82569
 C1673 C 0.30646 0.11449 0.82959
 C1674 C 0.29767 0.09840 0.82033
 C1675 C 0.29881 0.06966 0.79690
 C1676 C 0.28450 0.05837 0.80676
 C1677 C 0.27486 0.04316 0.79685
 C1678 C 0.27947 0.03870 0.77693
 C1679 C 0.29407 0.04964 0.76720
 C1680 C 0.30355 0.06501 0.77703
 H1681 H 0.35208 0.11050 0.80935
 H1682 H 0.29770 0.12344 0.83951
 H1683 H 0.26378 0.03489 0.80480
 H1684 H 0.29785 0.04665 0.75180
 H1685 H 0.28234 0.09556 0.82323
 H1686 H 0.28074 0.06126 0.82217
 H1687 H 0.33692 0.08208 0.79366
 H1688 H 0.31425 0.07355 0.76885
 C1689 C 0.80926 0.58872 0.80612
 C1690 C 0.82885 0.59355 0.80187
 C1691 C 0.83773 0.60971 0.81094
 C1692 C 0.82730 0.62129 0.82463
 C1693 C 0.80782 0.61631 0.82909
 C1694 C 0.79888 0.60030 0.81987
 C1695 C 0.79952 0.57195 0.79598
 C1696 C 0.78569 0.56036 0.80618
 C1697 C 0.77584 0.54523 0.79638
 C1698 C 0.77974 0.54118 0.77622
 C1699 C 0.79387 0.55243 0.76613
 C1700 C 0.80356 0.56771 0.77586
 H1701 H 0.85281 0.61307 0.80730
 H1702 H 0.79931 0.62501 0.83945
 H1703 H 0.76515 0.53670 0.80460
 H1704 H 0.79711 0.54974 0.75055
 H1705 H 0.78368 0.59728 0.82322
 H1706 H 0.78249 0.56294 0.82178
 H1707 H 0.83739 0.58477 0.79162
 H1708 H 0.81387 0.57651 0.76744
 C1709 C 0.80670 0.09145 0.30554
 C1710 C 0.82632 0.09615 0.30127
 C1711 C 0.83542 0.11205 0.31058
 C1712 C 0.82519 0.12349 0.32455
 C1713 C 0.80561 0.11877 0.32887
 C1714 C 0.79645 0.10304 0.31939
 C1715 C 0.79690 0.07463 0.29555
 C1716 C 0.78315 0.06308 0.30591
 C1717 C 0.77349 0.04767 0.29638
 C1718 C 0.77752 0.04326 0.27633
 C1719 C 0.79149 0.05453 0.26603
 C1720 C 0.80099 0.07011 0.27549
 H1721 H 0.85056 0.11522 0.30704
 H1722 H 0.79725 0.12740 0.33942
 H1723 H 0.76291 0.03914 0.30475
 H1724 H 0.79481 0.05157 0.25052
 H1725 H 0.78122 0.10013 0.32274
 H1726 H 0.77992 0.06586 0.32147
 H1727 H 0.83477 0.08738 0.29094
 H1728 H 0.81124 0.07885 0.26694
 C1729 C 0.68969 0.41019 0.31181
 C1730 C 0.67029 0.40499 0.30716
 C1731 C 0.66160 0.38848 0.31586
 C1732 C 0.67201 0.37693 0.32959
 C1733 C 0.69122 0.38238 0.33459
 C1734 C 0.69999 0.39872 0.32573
 C1735 C 0.69939 0.42711 0.30177
 C1736 C 0.71300 0.43881 0.31207
 C1737 C 0.72289 0.45400 0.30232
 C1738 C 0.71923 0.45803 0.28211
 C1739 C 0.70531 0.44668 0.27191
 C1740 C 0.69560 0.43133 0.28159
 H1741 H 0.64672 0.38477 0.31182
 H1742 H 0.69972 0.37372 0.34500
 H1743 H 0.73341 0.46262 0.31062
 H1744 H 0.70226 0.44935 0.25628
 H1745 H 0.71504 0.40203 0.32941
 H1746 H 0.71601 0.43625 0.32772
 H1747 H 0.66179 0.41368 0.29680
 H1748 H 0.68549 0.42245 0.27307
 C1749 C 0.68872 0.91003 0.81238
 C1750 C 0.66926 0.90493 0.80789
 C1751 C 0.66051 0.88853 0.81676
 C1752 C 0.67093 0.87699 0.83049
 C1753 C 0.69021 0.88233 0.83532
 C1754 C 0.69903 0.89855 0.82629
 C1755 C 0.69846 0.92686 0.80222
 C1756 C 0.71221 0.93847 0.81242
 C1757 C 0.72219 0.95355 0.80257
 C1758 C 0.71845 0.95757 0.78237
 C1759 C 0.70436 0.94634 0.77228
 C1760 C 0.69457 0.93109 0.78205
 H1761 H 0.64557 0.88490 0.81283
 H1762 H 0.69871 0.87367 0.84572
 H1763 H 0.73283 0.96208 0.81079
 H1764 H 0.70125 0.94902 0.75667
 H1765 H 0.71413 0.90177 0.82985
 H1766 H 0.71530 0.93593 0.82805
 H1767 H 0.66075 0.91362 0.79753
 H1768 H 0.68433 0.92228 0.77362
 C1769 C 0.19134 0.41104 0.80607
 C1770 C 0.17826 0.39939 0.79505
 C1771 C 0.16899 0.38328 0.80386
 C1772 C 0.17277 0.37826 0.82383
 C1773 C 0.18565 0.39000 0.83494
 C1774 C 0.19472 0.40627 0.82621
 C1775 C 0.20179 0.42774 0.79643
 C1776 C 0.22127 0.43210 0.80156
 C1777 C 0.23128 0.44742 0.79216
 C1778 C 0.22215 0.45859 0.77721
 C1779 C 0.20268 0.45434 0.77210
 C1780 C 0.19257 0.43918 0.78169
 H1781 H 0.15926 0.37445 0.79483
 H1782 H 0.18873 0.38662 0.85042
 H1783 H 0.24632 0.45026 0.79632
 H1784 H 0.19521 0.46281 0.76076
 H1785 H 0.20437 0.41513 0.83529
 H1786 H 0.22898 0.42340 0.81254
 H1787 H 0.17554 0.40237 0.77943
 H1788 H 0.17749 0.43651 0.77761
 C1789 C 0.18922 0.91399 0.30660
 C1790 C 0.19292 0.90917 0.32666
 C1791 C 0.18390 0.89298 0.33555
 C1792 C 0.17071 0.88137 0.32469
 C1793 C 0.16655 0.88645 0.30482
 C1794 C 0.17579 0.90249 0.29583
 C1795 C 0.19975 0.93055 0.29681
 C1796 C 0.19050 0.94220 0.28225
 C1797 C 0.20069 0.95732 0.27266
 C1798 C 0.22026 0.96130 0.27760
 C1799 C 0.22942 0.94987 0.29231
 C1800 C 0.21935 0.93460 0.30169
 H1801 H 0.18724 0.88958 0.35096
 H1802 H 0.15653 0.87772 0.29602
 H1803 H 0.19321 0.96598 0.26147
 H1804 H 0.24456 0.95245 0.29631
 H1805 H 0.17279 0.90554 0.28028
 H1806 H 0.17534 0.93973 0.27834
 H1807 H 0.20281 0.91793 0.33557
 H1808 H 0.22710 0.92572 0.31248
 C1809 C 0.41115 0.30706 0.69639
 C1810 C 0.40651 0.32673 0.70057
 C1811 C 0.39047 0.33578 0.69145
 C1812 C 0.37881 0.32543 0.67779
 C1813 C 0.38352 0.30583 0.67350
 C1814 C 0.39940 0.29673 0.68276
 C1815 C 0.42798 0.29721 0.70632
 C1816 C 0.43931 0.28333 0.69596
 C1817 C 0.45455 0.27341 0.70550
 C1818 C 0.45901 0.27731 0.72556
 C1819 C 0.44802 0.29149 0.73582
 C1820 C 0.43261 0.30125 0.72635
 H1821 H 0.38731 0.35094 0.69498
 H1822 H 0.37475 0.29736 0.66319
 H1823 H 0.46288 0.26270 0.69713
 H1824 H 0.45103 0.29473 0.75133
 H1825 H 0.40225 0.28147 0.67948
 H1826 H 0.43646 0.28013 0.68041
 H1827 H 0.41540 0.33523 0.71075
 H1828 H 0.42404 0.31162 0.73489
 C1829 C 0.40990 0.81106 0.19115
 C1830 C 0.39845 0.80067 0.17731
 C1831 C 0.38223 0.80943 0.16835
 C1832 C 0.37686 0.82873 0.17318
 C1833 C 0.38833 0.83921 0.18692
 C1834 C 0.40472 0.83051 0.19572
 C1835 C 0.42685 0.80143 0.20105
 C1836 C 0.43118 0.80520 0.22121
 C1837 C 0.44660 0.79551 0.23071
 C1838 C 0.45789 0.78165 0.22035
 C1839 C 0.45376 0.77804 0.20016
 C1840 C 0.43852 0.78790 0.19059
 H1841 H 0.37363 0.80088 0.15796
 H1842 H 0.38466 0.85415 0.19085
 H1843 H 0.44938 0.79852 0.24631
 H1844 H 0.46235 0.76759 0.19172
 H1845 H 0.41338 0.83906 0.20605
 H1846 H 0.42235 0.81528 0.22982
 H1847 H 0.40173 0.78556 0.17370
 H1848 H 0.43590 0.78493 0.17496
 C1849 C 0.91148 0.30956 0.19542
 C1850 C 0.90674 0.30572 0.17538
 C1851 C 0.89060 0.31470 0.16644
 C1852 C 0.87894 0.32795 0.17722
 C1853 C 0.88390 0.33214 0.19711
 C1854 C 0.89989 0.32296 0.20613
 C1855 C 0.92815 0.29930 0.20521
 C1856 C 0.93968 0.30888 0.21960
 C1857 C 0.95489 0.29899 0.22925
 C1858 C 0.95910 0.27938 0.22456
 C1859 C 0.94783 0.26988 0.20997
 C1860 C 0.93247 0.27967 0.20050
 H1861 H 0.88729 0.31131 0.15102
 H1862 H 0.87513 0.34218 0.20587
 H1863 H 0.96341 0.30674 0.24034
 H1864 H 0.95062 0.25471 0.20615
 H1865 H 0.90287 0.32604 0.22168
 H1866 H 0.93703 0.32408 0.22335
 H1867 H 0.91555 0.29582 0.16652
 H1868 H 0.92372 0.27168 0.18980
 C1869 C 0.91071 0.80918 0.69275
 C1870 C 0.89931 0.79887 0.67880
 C1871 C 0.88297 0.80759 0.67000
 C1872 C 0.87743 0.82678 0.67511
 C1873 C 0.88885 0.83718 0.68894
 C1874 C 0.90536 0.82853 0.69757
 C1875 C 0.92778 0.79957 0.70253
 C1876 C 0.93221 0.80329 0.72268
 C1877 C 0.94770 0.79361 0.73209
 C1878 C 0.95897 0.77979 0.72164
 C1879 C 0.95477 0.77625 0.70146
 C1880 C 0.93945 0.78611 0.69198
 H1881 H 0.87440 0.79910 0.65954
 H1882 H 0.88507 0.85204 0.69308
 H1883 H 0.95052 0.79656 0.74770
 H1884 H 0.96333 0.76582 0.69296
 H1885 H 0.91398 0.83705 0.70796
 H1886 H 0.92338 0.81330 0.73139
 H1887 H 0.90270 0.78383 0.67500
 H1888 H 0.93678 0.78318 0.67635
 C1889 C 0.59002 0.30658 0.30833
 C1890 C 0.59465 0.32637 0.30468
 C1891 C 0.61070 0.33517 0.31399
 C1892 C 0.62239 0.32446 0.32735
 C1893 C 0.61762 0.30477 0.33124
 C1894 C 0.60172 0.29591 0.32176
 C1895 C 0.57332 0.29699 0.29794
 C1896 C 0.56186 0.28275 0.30773
 C1897 C 0.54662 0.27327 0.29774
 C1898 C 0.54230 0.27796 0.27780
 C1899 C 0.55350 0.29240 0.26810
 C1900 C 0.56888 0.30173 0.27801
 H1901 H 0.61387 0.35041 0.31079
 H1902 H 0.62641 0.29605 0.34134
 H1903 H 0.53815 0.26231 0.30567
 H1904 H 0.55062 0.29624 0.25270
 H1905 H 0.59884 0.28057 0.32468
 H1906 H 0.56459 0.27899 0.32317
 H1907 H 0.58578 0.33514 0.29471
 H1908 H 0.57757 0.31235 0.26988
 C1909 C 0.58874 0.80687 0.80971
 C1910 C 0.59322 0.82672 0.80624
 C1911 C 0.60926 0.83552 0.81555
 C1912 C 0.62107 0.82476 0.82876
 C1913 C 0.61641 0.80502 0.83252
 C1914 C 0.60052 0.79616 0.82302
 C1915 C 0.57213 0.79726 0.79919
 C1916 C 0.56078 0.78280 0.80876
 C1917 C 0.54561 0.77334 0.79863
 C1918 C 0.54128 0.77828 0.77876
 C1919 C 0.55240 0.79291 0.76927
 C1920 C 0.56770 0.80220 0.77931
 H1921 H 0.61234 0.85081 0.81248
 H1922 H 0.62529 0.79627 0.84250
 H1923 H 0.53721 0.76222 0.80639
 H1924 H 0.54951 0.79694 0.75391
 H1925 H 0.59775 0.78076 0.82580
 H1926 H 0.56352 0.77886 0.82416
 H1927 H 0.58427 0.83553 0.79639
 H1928 H 0.57633 0.81298 0.77133
 C1929 C 0.09103 0.30730 0.80337
 C1930 C 0.09608 0.32677 0.79870
 C1931 C 0.11226 0.33569 0.80766
 C1932 C 0.12363 0.32542 0.82165
 C1933 C 0.11860 0.30598 0.82633
 C1934 C 0.10257 0.29699 0.81722
 C1935 C 0.07385 0.29770 0.79386
 C1936 C 0.06221 0.28444 0.80474
 C1937 C 0.04655 0.27480 0.79567
 C1938 C 0.04198 0.27837 0.77556
 C1939 C 0.05327 0.29196 0.76477
 C1940 C 0.06910 0.30145 0.77379
 H1941 H 0.11568 0.35074 0.80382
 H1942 H 0.12716 0.29758 0.83690
 H1943 H 0.03800 0.26453 0.80443
 H1944 H 0.05016 0.29492 0.74921
 H1945 H 0.09940 0.28185 0.82086
 H1946 H 0.06513 0.28152 0.82034
 H1947 H 0.08736 0.33525 0.78833
 H1948 H 0.07789 0.31136 0.76487
 C1949 C 0.08758 0.81150 0.30658
 C1950 C 0.09266 0.83094 0.30177
 C1951 C 0.10887 0.83989 0.31065
 C1952 C 0.12024 0.82970 0.32470
 C1953 C 0.11504 0.81037 0.32969
 C1954 C 0.09900 0.80135 0.32066
 C1955 C 0.07070 0.80167 0.29676
 C1956 C 0.05905 0.78822 0.30740
 C1957 C 0.04388 0.77816 0.29794
 C1958 C 0.03981 0.78149 0.27768
 C1959 C 0.05105 0.79532 0.26714
 C1960 C 0.06640 0.80522 0.27655
 H1961 H 0.11240 0.85486 0.30659
 H1962 H 0.12359 0.80204 0.34033
 H1963 H 0.03534 0.76773 0.30650
 H1964 H 0.04832 0.79811 0.25148
 H1965 H 0.09580 0.78625 0.32444
 H1966 H 0.06163 0.78544 0.32309
 H1967 H 0.08403 0.83931 0.29125
 H1968 H 0.07522 0.81525 0.26780
 C1969 C 0.58756 0.69112 0.69004
 C1970 C 0.59243 0.69500 0.67000
 C1971 C 0.60863 0.68603 0.66113
 C1972 C 0.62022 0.67278 0.67199
 C1973 C 0.61509 0.66850 0.69184
 C1974 C 0.59904 0.67766 0.70079
 C1975 C 0.57095 0.70146 0.69987
 C1976 C 0.55943 0.69191 0.71434
 C1977 C 0.54447 0.70192 0.72426
 C1978 C 0.54048 0.72163 0.71975
 C1979 C 0.55166 0.73108 0.70499
 C1980 C 0.56680 0.72116 0.69526
 H1981 H 0.61210 0.68950 0.64574
 H1982 H 0.62380 0.65847 0.70067
 H1983 H 0.53597 0.69419 0.73544
 H1984 H 0.54902 0.74631 0.70129
 H1985 H 0.59599 0.67455 0.71633
 H1986 H 0.56192 0.67665 0.71801
 H1987 H 0.58371 0.70497 0.66113
 H1988 H 0.57556 0.72911 0.68447
 C1989 C 0.58833 0.19111 0.18865
 C1990 C 0.59997 0.20156 0.17495
 C1991 C 0.61604 0.19267 0.16578
 C1992 C 0.62103 0.17317 0.17026
 C1993 C 0.60928 0.16261 0.18373
 C1994 C 0.59306 0.17143 0.19273
 C1995 C 0.57175 0.20091 0.19906
 C1996 C 0.56753 0.19656 0.21915
 C1997 C 0.55244 0.20626 0.22917
 C1998 C 0.54135 0.22071 0.21943
 C1999 C 0.54540 0.22498 0.19933
 C2000 C 0.56034 0.21511 0.18923
 H2001 H 0.62486 0.20127 0.15557
 H2002 H 0.61264 0.14750 0.18737
 H2003 H 0.54975 0.20274 0.24470
 H2004 H 0.53698 0.23593 0.19138
 H2005 H 0.58421 0.16281 0.20289
 H2006 H 0.57621 0.18600 0.22733
 H2007 H 0.59702 0.21682 0.17168
 H2008 H 0.56290 0.21858 0.17367
 C2009 C 0.08978 0.69209 0.19430
 C2010 C 0.10133 0.70236 0.18037
 C2011 C 0.11722 0.69328 0.17107
 C2012 C 0.12211 0.67379 0.17565
 C2013 C 0.11068 0.66354 0.18966
 C2014 C 0.09465 0.67255 0.19880
 C2015 C 0.07283 0.70180 0.20413
 C2016 C 0.06827 0.69793 0.22425
 C2017 C 0.05261 0.70743 0.23356
 C2018 C 0.04130 0.72116 0.22305
 C2019 C 0.04571 0.72491 0.20292
 C2020 C 0.06120 0.71526 0.19354
 H2021 H 0.12582 0.70165 0.16047
 H2022 H 0.11398 0.64845 0.19341
 H2023 H 0.04964 0.70434 0.24914
 H2024 H 0.03714 0.73529 0.19437
 H2025 H 0.08591 0.66409 0.20920
 H2026 H 0.07707 0.68789 0.23295
 H2027 H 0.09828 0.71754 0.17684
 H2028 H 0.06400 0.71829 0.17793
 C2029 C 0.08837 0.18903 0.69189
 C2030 C 0.09382 0.16970 0.69662
 C2031 C 0.11021 0.16111 0.68769
 C2032 C 0.12141 0.17158 0.67365
 C2033 C 0.11582 0.19080 0.66871
 C2034 C 0.09959 0.19945 0.67779
 C2035 C 0.07132 0.19849 0.70183
 C2036 C 0.05939 0.21173 0.69130
 C2037 C 0.04410 0.22149 0.70090
 C2038 C 0.04018 0.21807 0.72119
 C2039 C 0.05167 0.20441 0.73161
 C2040 C 0.06715 0.19481 0.72207
 H2041 H 0.11404 0.14622 0.69172
 H2042 H 0.12422 0.19934 0.65807
 H2043 H 0.03536 0.23179 0.69242
 H2044 H 0.04907 0.20157 0.74730
 H2045 H 0.09609 0.21449 0.67406
 H2046 H 0.06188 0.21459 0.67561
 H2047 H 0.08536 0.16112 0.70715
 H2048 H 0.07617 0.18493 0.73073
 C2049 C 0.41122 0.69119 0.30505
 C2050 C 0.40603 0.67176 0.30040
 C2051 C 0.38963 0.66299 0.30922
 C2052 C 0.37816 0.67338 0.32305
 C2053 C 0.38353 0.69267 0.32794
 C2054 C 0.39976 0.70149 0.31897
 C2055 C 0.42816 0.70093 0.29513
 C2056 C 0.43975 0.71452 0.30558
 C2057 C 0.45486 0.72461 0.29595
 C2058 C 0.45895 0.72116 0.27572
 C2059 C 0.44780 0.70717 0.26538
 C2060 C 0.43250 0.69725 0.27494
 H2061 H 0.38596 0.64805 0.30523
 H2062 H 0.37494 0.70117 0.33839
 H2063 H 0.46334 0.73515 0.30437
 H2064 H 0.45055 0.70427 0.24974
 H2065 H 0.40303 0.71659 0.32263
 H2066 H 0.43714 0.71742 0.32123
 H2067 H 0.41468 0.66326 0.29000
 H2068 H 0.42374 0.68712 0.26633
 C2069 C 0.41160 0.18689 0.80968
 C2070 C 0.40007 0.19723 0.82350
 C2071 C 0.38371 0.18847 0.83228
 C2072 C 0.37828 0.16923 0.82728
 C2073 C 0.38984 0.15879 0.81358
 C2074 C 0.40637 0.16748 0.80495
 C2075 C 0.42863 0.19658 0.79989
 C2076 C 0.43305 0.19294 0.77972
 C2077 C 0.44842 0.20284 0.77027
 C2078 C 0.45955 0.21677 0.78070
 C2079 C 0.45538 0.22019 0.80092
 C2080 C 0.44019 0.21011 0.81044
 H2081 H 0.37505 0.19701 0.84265
 H2082 H 0.38613 0.14388 0.80951
 H2083 H 0.45124 0.19997 0.75464
 H2084 H 0.46385 0.23069 0.80941
 H2085 H 0.41508 0.15897 0.79462
 H2086 H 0.42430 0.18285 0.77103
 H2087 H 0.40337 0.21231 0.82722
 H2088 H 0.43751 0.21298 0.82609
 C2089 C 0.91183 0.68962 0.80725
 C2090 C 0.90671 0.67016 0.80266
 C2091 C 0.89048 0.66130 0.81168
 C2092 C 0.87913 0.67160 0.82566
 C2093 C 0.88446 0.69091 0.83054
 C2094 C 0.90051 0.69984 0.82136
 C2095 C 0.92858 0.69944 0.79708
 C2096 C 0.94028 0.71305 0.80738
 C2097 C 0.95531 0.72308 0.79757
 C2098 C 0.95921 0.71955 0.77731
 C2099 C 0.94789 0.70562 0.76710
 C2100 C 0.93267 0.69576 0.77684
 H2101 H 0.88684 0.64635 0.80770
 H2102 H 0.87593 0.69933 0.84112
 H2103 H 0.96393 0.73359 0.80589
 H2104 H 0.95048 0.70267 0.75144
 H2105 H 0.90375 0.71495 0.82501
 H2106 H 0.93785 0.71596 0.82306
 H2107 H 0.91528 0.66173 0.79213
 H2108 H 0.92379 0.68563 0.76834
 C2109 C 0.91153 0.19069 0.31079
 C2110 C 0.90634 0.19424 0.33079
 C2111 C 0.88996 0.18514 0.33925
 C2112 C 0.87850 0.17211 0.32800
 C2113 C 0.88392 0.16821 0.30817
 C2114 C 0.90015 0.17747 0.29963
 C2115 C 0.92840 0.20107 0.30141
 C2116 C 0.94011 0.19163 0.28706
 C2117 C 0.95528 0.20168 0.27749
 C2118 C 0.95930 0.22133 0.28222
 C2119 C 0.94796 0.23066 0.29689
 C2120 C 0.93261 0.22068 0.30629
 H2121 H 0.88627 0.18834 0.35463
 H2122 H 0.87533 0.15837 0.29902
 H2123 H 0.96390 0.19403 0.26639
 H2124 H 0.95063 0.24583 0.30076
 H2125 H 0.90345 0.17463 0.28410
 H2126 H 0.93758 0.17643 0.28322
 H2127 H 0.91496 0.20402 0.33995
 H2128 H 0.92373 0.22854 0.31701
 C2129 C 0.30968 0.30704 0.59276
 C2130 C 0.30612 0.32687 0.59720
 C2131 C 0.31506 0.33579 0.61358
 C2132 C 0.32799 0.32518 0.62577
 C2133 C 0.33182 0.30545 0.62119
 C2134 C 0.32268 0.29646 0.60495
 C2135 C 0.29962 0.29737 0.57570
 C2136 C 0.30920 0.28299 0.56425
 C2137 C 0.29952 0.27360 0.54857
 C2138 C 0.28013 0.27853 0.54382
 C2139 C 0.27062 0.29306 0.55506
 C2140 C 0.28020 0.30227 0.57088
 H2141 H 0.31196 0.35107 0.61658
 H2142 H 0.34162 0.29683 0.63037
 H2143 H 0.30726 0.26254 0.54009
 H2144 H 0.25561 0.29706 0.55188
 H2145 H 0.32553 0.28108 0.60222
 H2146 H 0.32425 0.27908 0.56729
 H2147 H 0.29652 0.33560 0.58793
 H2148 H 0.27221 0.31297 0.57958
 C2149 C 0.30564 0.80767 0.09105
 C2150 C 0.29520 0.82110 0.10290
 C2151 C 0.30425 0.83058 0.11890
 C2152 C 0.32389 0.82667 0.12360
 C2153 C 0.33435 0.81327 0.11178
 C2154 C 0.32538 0.80399 0.09563
 C2155 C 0.29595 0.79738 0.07415
 C2156 C 0.30067 0.77779 0.06967
 C2157 C 0.29149 0.76806 0.05391
 C2158 C 0.27719 0.77758 0.04242
 C2159 C 0.27244 0.79713 0.04684
 C2160 C 0.28180 0.80696 0.06244
 H2161 H 0.29576 0.84072 0.12781
 H2162 H 0.34957 0.81008 0.11488
 H2163 H 0.29534 0.75294 0.05097
 H2164 H 0.26157 0.80490 0.03815
 H2165 H 0.33400 0.79406 0.08662
 H2166 H 0.31120 0.76981 0.07857
 H2167 H 0.27989 0.82405 0.10005
 H2168 H 0.27805 0.82213 0.06519
 C2169 C 0.81051 0.30983 0.09152
 C2170 C 0.80625 0.32938 0.09658
 C2171 C 0.81500 0.33817 0.11315
 C2172 C 0.82845 0.32771 0.12490
 C2173 C 0.83304 0.30833 0.11963
 C2174 C 0.82409 0.29945 0.10323
 C2175 C 0.80054 0.30018 0.07439
 C2176 C 0.81041 0.28631 0.06256
 C2177 C 0.80080 0.27678 0.04693
 C2178 C 0.78117 0.28109 0.04259
 C2179 C 0.77137 0.29516 0.05415
 C2180 C 0.78089 0.30449 0.06995
 H2181 H 0.81129 0.35320 0.11670
 H2182 H 0.84324 0.29983 0.12847
 H2183 H 0.80877 0.26610 0.03817
 H2184 H 0.75618 0.29868 0.05127
 H2185 H 0.82749 0.28428 0.10004
 H2186 H 0.82564 0.28288 0.06528
 H2187 H 0.79620 0.33798 0.08769
 H2188 H 0.77267 0.31478 0.07894
 C2189 C 0.80631 0.80782 0.59192
 C2190 C 0.79591 0.82095 0.60413
 C2191 C 0.80490 0.82977 0.62054
 C2192 C 0.82446 0.82549 0.62530
 C2193 C 0.83488 0.81236 0.61315
 C2194 C 0.82596 0.80372 0.59660
 C2195 C 0.79663 0.79824 0.57458
 C2196 C 0.80104 0.77872 0.56953
 C2197 C 0.79173 0.76959 0.55349
 C2198 C 0.77760 0.77966 0.54225
 C2199 C 0.77320 0.79917 0.54719
 C2200 C 0.78269 0.80839 0.56309
 H2201 H 0.79642 0.83972 0.62968
 H2202 H 0.85003 0.80889 0.61631
 H2203 H 0.79532 0.75448 0.55016
 H2204 H 0.76247 0.80735 0.53872
 H2205 H 0.83454 0.79397 0.58734
 H2206 H 0.81141 0.77031 0.57823
 H2207 H 0.78067 0.82418 0.60124
 H2208 H 0.77918 0.82354 0.56629
 C2209 C 0.30700 0.69398 0.40569
 C2210 C 0.32663 0.69801 0.40086
 C2211 C 0.33562 0.68887 0.38461
 C2212 C 0.32527 0.67529 0.37292
 C2213 C 0.30571 0.67109 0.37783
 C2214 C 0.29665 0.68041 0.39394
 C2215 C 0.29729 0.70402 0.42277
 C2216 C 0.28339 0.69410 0.43457
 C2217 C 0.27386 0.70368 0.45023
 C2218 C 0.27818 0.72334 0.45463
 C2219 C 0.29229 0.73319 0.44311
 C2220 C 0.30165 0.72368 0.42729
 H2221 H 0.35076 0.69230 0.38132
 H2222 H 0.29728 0.66081 0.36903
 H2223 H 0.26316 0.69566 0.45894
 H2224 H 0.29581 0.74840 0.44605
 H2225 H 0.28142 0.67721 0.39695
 H2226 H 0.27994 0.67885 0.43181
 H2227 H 0.33518 0.70808 0.40978
 H2228 H 0.31200 0.73190 0.41834
 C2229 C 0.30613 0.19098 0.90844
 C2230 C 0.29577 0.17749 0.89660
 C2231 C 0.30497 0.16785 0.88077
 C2232 C 0.32469 0.17165 0.87625
 C2233 C 0.33508 0.18508 0.88808
 C2234 C 0.32595 0.19453 0.90405
 C2235 C 0.29628 0.20143 0.92516
 C2236 C 0.30100 0.22106 0.92950
 C2237 C 0.29164 0.23094 0.94508
 C2238 C 0.27718 0.22152 0.95651
 C2239 C 0.27245 0.20193 0.95223
 C2240 C 0.28197 0.19197 0.93682
 H2241 H 0.29653 0.15768 0.87185
 H2242 H 0.35035 0.18819 0.88511
 H2243 H 0.29548 0.24609 0.94792
 H2244 H 0.26146 0.19424 0.96089
 H2245 H 0.33451 0.20450 0.91307
 H2246 H 0.31167 0.22894 0.92063
 H2247 H 0.28041 0.17463 0.89931
 H2248 H 0.27822 0.17677 0.93417
 C2249 C 0.80847 0.69082 0.90921
 C2250 C 0.79802 0.67761 0.89713
 C2251 C 0.80703 0.66858 0.88083
 C2252 C 0.82663 0.67272 0.87606
 C2253 C 0.83709 0.68592 0.88808
 C2254 C 0.82816 0.69476 0.90453
 C2255 C 0.79878 0.70062 0.92643
 C2256 C 0.80334 0.72015 0.93132
 C2257 C 0.79403 0.72947 0.94727
 C2258 C 0.77976 0.71958 0.95855
 C2259 C 0.77521 0.70007 0.95376
 C2260 C 0.78470 0.69065 0.93797
 H2261 H 0.79852 0.65859 0.87178
 H2262 H 0.85227 0.68928 0.88490
 H2263 H 0.79772 0.74457 0.95050
 H2264 H 0.76437 0.69203 0.96229
 H2265 H 0.83677 0.70455 0.91370
 H2266 H 0.81382 0.72841 0.92257
 H2267 H 0.78275 0.67449 0.90003
 H2268 H 0.78109 0.67550 0.93490
 C2269 C 0.80812 0.18963 0.41221
 C2270 C 0.79755 0.17691 0.39973
 C2271 C 0.80652 0.16814 0.38327
 C2272 C 0.82622 0.17205 0.37873
 C2273 C 0.83687 0.18463 0.39126
 C2274 C 0.82796 0.19322 0.40787
 C2275 C 0.79834 0.19951 0.42932
 C2276 C 0.80314 0.21895 0.43430
 C2277 C 0.79357 0.22849 0.44994
 C2278 C 0.77880 0.21891 0.46083
 C2279 C 0.77405 0.19946 0.45600
 C2280 C 0.78379 0.18983 0.44049
 H2281 H 0.79786 0.15863 0.37384
 H2282 H 0.85213 0.18779 0.38827
 H2283 H 0.79746 0.24354 0.45321
 H2284 H 0.76282 0.19166 0.46423
 H2285 H 0.83666 0.20263 0.41736
 H2286 H 0.81399 0.22701 0.42582
 H2287 H 0.78218 0.17407 0.40238
 H2288 H 0.77996 0.17475 0.43732
 C2289 C 0.69240 0.30489 0.41154
 C2290 C 0.67924 0.29445 0.39941
 C2291 C 0.66997 0.30361 0.38332
 C2292 C 0.67383 0.32336 0.37882
 C2293 C 0.68696 0.33382 0.39091
 C2294 C 0.69604 0.32474 0.40714
 C2295 C 0.70245 0.29508 0.42853
 C2296 C 0.72193 0.29981 0.43334
 C2297 C 0.73146 0.29040 0.44910
 C2298 C 0.72184 0.27586 0.46028
 C2299 C 0.70238 0.27115 0.45557
 C2300 C 0.69275 0.28073 0.43997
 H2301 H 0.66004 0.29510 0.37420
 H2302 H 0.69011 0.34911 0.38796
 H2303 H 0.74652 0.29423 0.45227
 H2304 H 0.69453 0.26010 0.46402
 H2305 H 0.70578 0.33335 0.41636
 H2306 H 0.72998 0.31051 0.42466
 H2307 H 0.67634 0.27907 0.40210
 H2308 H 0.67765 0.27697 0.43698
 C2309 C 0.69161 0.80506 0.91244
 C2310 C 0.67828 0.79467 0.90046
 C2311 C 0.66886 0.80387 0.88449
 C2312 C 0.67272 0.82362 0.87997
 C2313 C 0.68596 0.83405 0.89197
 C2314 C 0.69519 0.82493 0.90808
 C2315 C 0.70201 0.79516 0.92916
 C2316 C 0.72158 0.79990 0.93353
 C2317 C 0.73149 0.79040 0.94898
 C2318 C 0.72217 0.77576 0.96028
 C2319 C 0.70262 0.77102 0.95601
 C2320 C 0.69261 0.78069 0.94071
 H2321 H 0.65883 0.79539 0.87546
 H2322 H 0.68910 0.84935 0.88900
 H2323 H 0.74661 0.79426 0.95179
 H2324 H 0.69501 0.75987 0.96456
 H2325 H 0.70504 0.83351 0.91720
 H2326 H 0.72942 0.81067 0.92473
 H2327 H 0.67541 0.77928 0.90314
 H2328 H 0.67746 0.77690 0.93802
 C2329 C 0.19100 0.30828 0.90837
 C2330 C 0.17810 0.29766 0.89613
 C2331 C 0.16915 0.30659 0.87973
 C2332 C 0.17307 0.32628 0.87500
 C2333 C 0.18584 0.33697 0.88728
 C2334 C 0.19460 0.32811 0.90384
 C2335 C 0.20101 0.29856 0.92546
 C2336 C 0.22045 0.30339 0.93029
 C2337 C 0.23007 0.29389 0.94592
 C2338 C 0.22059 0.27916 0.95698
 C2339 C 0.20114 0.27438 0.95231
 C2340 C 0.19142 0.28406 0.93681
 H2341 H 0.15949 0.29789 0.87049
 H2342 H 0.18902 0.35223 0.88416
 H2343 H 0.24512 0.29779 0.94907
 H2344 H 0.19340 0.26319 0.96066
 H2345 H 0.20414 0.33686 0.91314
 H2346 H 0.22843 0.31420 0.92168
 H2347 H 0.17523 0.28229 0.89891
 H2348 H 0.17634 0.28021 0.93378
 C2349 C 0.19048 0.81060 0.40832
 C2350 C 0.20050 0.82470 0.39684
 C2351 C 0.19125 0.83415 0.38093
 C2352 C 0.17183 0.82955 0.37591
 C2353 C 0.16174 0.81557 0.38741
 C2354 C 0.17091 0.80630 0.40350
 C2355 C 0.20052 0.80018 0.42495
 C2356 C 0.19655 0.78029 0.42887
 C2357 C 0.20629 0.77038 0.44418
 C2358 C 0.22043 0.78003 0.45576
 C2359 C 0.22437 0.79990 0.45196
 C2360 C 0.21444 0.80990 0.43683
 H2361 H 0.19948 0.84475 0.37227
 H2362 H 0.14671 0.81182 0.38404
 H2363 H 0.20305 0.75502 0.44667
 H2364 H 0.23507 0.80778 0.46075
 H2365 H 0.16259 0.79583 0.41222
 H2366 H 0.18621 0.77222 0.41984
 H2367 H 0.21567 0.82815 0.39985
 H2368 H 0.21761 0.82529 0.43452
 C2369 C 0.69039 0.69291 0.58811
 C2370 C 0.67066 0.69665 0.59276
 C2371 C 0.66172 0.68751 0.60910
 C2372 C 0.67224 0.67425 0.62102
 C2373 C 0.69185 0.67025 0.61619
 C2374 C 0.70084 0.67955 0.60001
 C2375 C 0.70019 0.70322 0.57124
 C2376 C 0.71442 0.69364 0.55961
 C2377 C 0.72427 0.70362 0.54438
 C2378 C 0.71996 0.72334 0.54025
 C2379 C 0.70547 0.73282 0.55156
 C2380 C 0.69578 0.72292 0.56695
 H2381 H 0.64654 0.69078 0.61233
 H2382 H 0.70042 0.66022 0.62516
 H2383 H 0.73525 0.69587 0.53580
 H2384 H 0.70191 0.74806 0.54882
 H2385 H 0.71614 0.67658 0.59713
 H2386 H 0.71793 0.67838 0.56223
 H2387 H 0.66205 0.70658 0.58372
 H2388 H 0.68517 0.73088 0.57579
 C2389 C 0.69383 0.19384 0.08892
 C2390 C 0.67402 0.19769 0.09311
 C2391 C 0.66460 0.18848 0.10910
 C2392 C 0.67469 0.17498 0.12114
 C2393 C 0.69439 0.17089 0.11682
 C2394 C 0.70388 0.18029 0.10099
 C2395 C 0.70404 0.20414 0.07229
 C2396 C 0.71847 0.19454 0.06093
 C2397 C 0.72842 0.20444 0.04569
 C2398 C 0.72399 0.22408 0.04129
 C2399 C 0.70940 0.23361 0.05242
 C2400 C 0.69964 0.22381 0.06781
 H2401 H 0.64936 0.19181 0.11192
 H2402 H 0.70261 0.16066 0.12591
 H2403 H 0.73951 0.19668 0.03727
 H2404 H 0.70578 0.24880 0.04950
 H2405 H 0.71922 0.17721 0.09847
 H2406 H 0.72201 0.17932 0.06369
 H2407 H 0.66569 0.20773 0.08392
 H2408 H 0.68891 0.23180 0.07646
 C2409 C 0.19030 0.69076 0.08923
 C2410 C 0.19378 0.67092 0.09378
 C2411 C 0.18475 0.66207 0.11022
 C2412 C 0.17185 0.67277 0.12238
 C2413 C 0.16807 0.69248 0.11764
 C2414 C 0.17727 0.70140 0.10135
 C2415 C 0.20055 0.70048 0.07225
 C2416 C 0.19112 0.71497 0.06082
 C2417 C 0.20106 0.72468 0.04546
 C2418 C 0.22059 0.71996 0.04100
 C2419 C 0.22991 0.70521 0.05213
 C2420 C 0.22006 0.69567 0.06764
 H2421 H 0.18784 0.64680 0.11336
 H2422 H 0.15832 0.70118 0.12679
 H2423 H 0.19344 0.73588 0.03704
 H2424 H 0.24500 0.70134 0.04914
 H2425 H 0.17450 0.71678 0.09855
 H2426 H 0.17601 0.71880 0.06368
 H2427 H 0.20342 0.66217 0.08457
 H2428 H 0.22792 0.68485 0.07632
 C2429 C 0.19209 0.19189 0.59022
 C2430 C 0.17246 0.19601 0.59498
 C2431 C 0.16329 0.18672 0.61110
 C2432 C 0.17346 0.17288 0.62267
 C2433 C 0.19296 0.16852 0.61775
 C2434 C 0.20220 0.17800 0.60182
 C2435 C 0.20212 0.20225 0.57349
 C2436 C 0.21619 0.19254 0.56177
 C2437 C 0.22617 0.20248 0.54660
 C2438 C 0.22212 0.22228 0.54259
 C2439 C 0.20780 0.23191 0.55399
 C2440 C 0.19801 0.22205 0.56935
 H2441 H 0.14819 0.19028 0.61441
 H2442 H 0.20126 0.15806 0.62647
 H2443 H 0.23701 0.19462 0.53794
 H2444 H 0.20447 0.24721 0.55133
 H2445 H 0.21743 0.17472 0.59889
 H2446 H 0.21946 0.17720 0.56423
 H2447 H 0.16409 0.20634 0.58618
 H2448 H 0.18754 0.23012 0.57826
   
