data_POSCAR
  _audit_creation_date              2014-09-24
  _audit_creation_method            'ToBaCCo'
  _symmetry_space_group_name_H-M    'P1'
  _symmetry_Int_Tables_number       1
  _symmetry_cell_setting            triclinic
  loop_
  _symmetry_equiv_pos_as_xyz
 x,y,z
_cell_length_a 45.9255
_cell_length_b 45.1782
_cell_length_c 45.1056
_cell_angle_alpha 88.227700
_cell_angle_beta 91.021000
_cell_angle_gamma 86.490100
loop_
  _atom_site_label
  _atom_site_type_symbol
  _atom_site_fract_x
  _atom_site_fract_y
  _atom_site_fract_z
C1 C 0.71662 0.64223 0.97383
 H2 H 0.72416 0.62659 0.95759
 C3 C 0.68863 0.65603 0.97075
 H4 H 0.67515 0.65090 0.95192
 C5 C 0.72440 0.66629 1.01895
 H6 H 0.73833 0.66966 1.03799
 C7 C 0.69662 0.68062 1.01672
 H8 H 0.68981 0.69549 1.03395
 N9 N 0.73383 0.64751 0.99770
 C10 C 0.82843 0.63795 1.00998
 H11 H 0.83139 0.61399 1.01073
 C12 C 0.85235 0.65502 1.01412
 H13 H 0.87377 0.64407 1.01801
 C14 C 0.79671 0.68124 1.00441
 H15 H 0.77496 0.69133 1.00074
 C16 C 0.82014 0.69921 1.00802
 H17 H 0.81606 0.72307 1.00761
 Zn18 Zn 0.76998 0.62583 1.00463
 N19 N 0.80115 0.65119 1.00636
 C20 C 0.78241 0.61227 0.94656
 N21 N 0.77781 0.59963 0.97365
 C22 C 0.78050 0.56972 0.97835
 C23 C 0.78821 0.55121 0.95508
 C24 C 0.79004 0.59467 0.92274
 C25 C 0.78694 0.60735 1.06379
 C26 C 0.78260 0.59451 1.09178
 C27 C 0.73681 0.57782 1.07366
 C28 C 0.74243 0.59035 1.04583
 N29 N 0.76697 0.60509 1.04148
 H30 H 0.78038 0.63617 0.94359
 H31 H 0.77720 0.56022 1.00023
 H32 H 0.79081 0.52754 0.95951
 H33 H 0.79340 0.60539 0.90141
 H34 H 0.80593 0.61982 1.06034
 H35 H 0.79871 0.59748 1.10900
 H36 H 0.71690 0.56650 1.07621
 H37 H 0.72672 0.58915 1.02781
 C38 C 0.84824 0.68604 1.01373
 C39 C 0.67812 0.67528 0.99257
 C40 C 0.75692 0.57995 1.09739
 C41 C 0.79329 0.56368 0.92683
 C42 C 0.72295 0.35158 0.57031
 H43 H 0.74310 0.35933 0.57910
 C44 C 0.70398 0.33763 0.58917
 H45 H 0.70978 0.33482 0.61248
 C46 C 0.69069 0.34706 0.52934
 H47 H 0.68546 0.35110 0.50608
 C48 C 0.67096 0.33308 0.54748
 H49 H 0.65093 0.32598 0.53778
 N50 N 0.71634 0.35552 0.54092
 C51 C 0.79756 0.35974 0.49347
 H52 H 0.79189 0.37892 0.47911
 C53 C 0.82450 0.34414 0.49076
 H54 H 0.83951 0.35154 0.47426
 C55 C 0.78498 0.32726 0.53282
 H56 H 0.76949 0.32054 0.54902
 C57 C 0.81187 0.31126 0.53114
 H58 H 0.81666 0.29228 0.54604
 Zn59 Zn 0.74343 0.37517 0.51755
 N60 N 0.77859 0.35135 0.51450
 C61 C 0.77933 0.41610 0.54342
 N62 N 0.75127 0.41032 0.53694
 C63 C 0.72852 0.42690 0.54801
 C64 C 0.73360 0.44925 0.56788
 C65 C 0.78538 0.43839 0.56286
 C66 C 0.72533 0.35922 0.46169
 C67 C 0.71676 0.36312 0.43197
 C68 C 0.71449 0.41618 0.43797
 C69 C 0.72315 0.41124 0.46768
 N70 N 0.72848 0.38308 0.47879
 H71 H 0.79714 0.40259 0.53463
 H72 H 0.70641 0.42155 0.54281
 H73 H 0.71507 0.46098 0.57756
 H74 H 0.80794 0.44197 0.56807
 H75 H 0.73001 0.33709 0.47112
 H76 H 0.71435 0.34370 0.41893
 H77 H 0.71096 0.43875 0.42935
 H78 H 0.72621 0.42986 0.48165
 C79 C 0.83207 0.31982 0.51004
 C80 C 0.67771 0.32791 0.57776
 C81 C 0.71158 0.39190 0.41961
 C82 C 0.76239 0.45458 0.57632
 C83 C 0.22041 -0.17244 0.03380
 H84 H 0.24254 -0.18010 0.02920
 C85 C 0.20231 -0.19154 0.04840
 H86 H 0.21121 -0.21341 0.05539
 C87 C 0.18211 -0.13488 0.02983
 H88 H 0.17438 -0.11283 0.02211
 C89 C 0.16317 -0.15334 0.04434
 H90 H 0.14082 -0.14528 0.04755
 N91 N 0.21012 -0.14470 0.02481
 C92 C 0.28825 -0.14494 0.02373
 H93 H 0.27943 -0.13897 0.04497
 C94 C 0.31648 -0.15804 0.02227
 H95 H 0.32906 -0.16239 0.04261
 C96 C 0.28238 -0.14619 -0.02849
 H97 H 0.26943 -0.14084 -0.04833
 C98 C 0.31046 -0.15947 -0.03096
 H99 H 0.31860 -0.16426 -0.05277
 Zn100 Zn 0.23435 -0.11997 0.00293
 N101 N 0.27175 -0.13944 -0.00139
 C102 C 0.25911 -0.06611 0.01044
 N103 N 0.24079 -0.08499 0.02327
 C104 C 0.23137 -0.08121 0.05140
 C105 C 0.24132 -0.05820 0.06816
 C106 C 0.26939 -0.04272 0.02626
 C107 C 0.21118 -0.13584 -0.05094
 C108 C 0.20090 -0.13238 -0.08017
 C109 C 0.19950 -0.07925 -0.07520
 C110 C 0.21024 -0.08381 -0.04606
 N111 N 0.21663 -0.11180 -0.03490
 H112 H 0.26692 -0.07016 -0.01165
 H113 H 0.21740 -0.09692 0.06146
 H114 H 0.23437 -0.05609 0.09084
 H115 H 0.28501 -0.02893 0.01592
 H116 H 0.21579 -0.15786 -0.04124
 H117 H 0.19725 -0.15224 -0.09207
 H118 H 0.19555 -0.05668 -0.08364
 H119 H 0.21404 -0.06495 -0.03267
 C120 C 0.32797 -0.16541 -0.00537
 C121 C 0.17314 -0.18227 0.05353
 C122 C 0.19555 -0.10375 -0.09319
 C123 C 0.26112 -0.03901 0.05581
 C124 C 0.22646 0.13889 0.47299
 H125 H 0.23338 0.12708 0.45367
 C126 C 0.19883 0.15354 0.47281
 H127 H 0.18505 0.15297 0.45315
 C128 C 0.23498 0.15214 0.52269
 H129 H 0.24912 0.15105 0.54218
 C130 C 0.20733 0.16674 0.52359
 H131 H 0.20049 0.17723 0.54377
 N132 N 0.24395 0.13848 0.49769
 C133 C 0.33839 0.12850 0.51210
 H134 H 0.34236 0.10467 0.51171
 C135 C 0.36114 0.14633 0.51928
 H136 H 0.38267 0.13615 0.52444
 C137 C 0.30544 0.17083 0.50618
 H138 H 0.28369 0.18030 0.50110
 C139 C 0.32775 0.18952 0.51234
 H140 H 0.32287 0.21327 0.51238
 Zn141 Zn 0.28003 0.11573 0.49996
 N142 N 0.31095 0.14087 0.50678
 C143 C 0.28876 0.11613 0.43988
 N144 N 0.28634 0.09705 0.46347
 C145 C 0.28658 0.06720 0.45999
 C146 C 0.28774 0.05569 0.43146
 C147 C 0.28913 0.10572 0.41117
 C148 C 0.29356 0.09009 0.55715
 C149 C 0.28588 0.07650 0.58382
 C150 C 0.24366 0.05867 0.55909
 C151 C 0.25232 0.07239 0.53272
 N152 N 0.27633 0.08861 0.53247
 H153 H 0.28874 0.13972 0.44335
 H154 H 0.28488 0.05245 0.47914
 H155 H 0.28691 0.03204 0.42863
 H156 H 0.28962 0.12135 0.39250
 H157 H 0.31211 0.10359 0.55698
 H158 H 0.29947 0.07895 0.60331
 H159 H 0.22340 0.04765 0.55918
 H160 H 0.23860 0.07209 0.51299
 C161 C 0.35581 0.17721 0.51963
 C162 C 0.18881 0.16733 0.49847
 C163 C 0.25987 0.06180 0.58541
 C164 C 0.28809 0.07529 0.40675
 C165 C 0.12789 0.45130 0.21839
 H166 H 0.11745 0.43269 0.22825
 C167 C 0.14115 0.44854 0.19087
 H168 H 0.14039 0.42773 0.17975
 C169 C 0.14123 0.50099 0.22101
 H170 H 0.14122 0.52133 0.23305
 C171 C 0.15482 0.49918 0.19366
 H172 H 0.16536 0.51834 0.18519
 N173 N 0.12827 0.47723 0.23284
 C174 C 0.13334 0.48886 0.32830
 H175 H 0.11066 0.48911 0.33443
 C176 C 0.15470 0.49376 0.34969
 H177 H 0.14830 0.49787 0.37225
 C178 C 0.16920 0.48324 0.29146
 H179 H 0.17486 0.47920 0.26876
 C180 C 0.19131 0.48755 0.31224
 H181 H 0.21368 0.48730 0.30506
 Zn182 Zn 0.11085 0.48181 0.27018
 N183 N 0.14076 0.48477 0.29957
 C184 C 0.06442 0.44367 0.26326
 N185 N 0.08887 0.44851 0.27943
 C186 C 0.09857 0.42925 0.30174
 C187 C 0.08336 0.40426 0.30879
 C188 C 0.04856 0.41883 0.26951
 C189 C 0.08839 0.53879 0.28817
 C190 C 0.07254 0.56604 0.28446
 C191 C 0.05327 0.54971 0.23805
 C192 C 0.06917 0.52254 0.24286
 N193 N 0.08645 0.51756 0.26757
 H194 H 0.05723 0.45898 0.24539
 H195 H 0.11843 0.43293 0.31388
 H196 H 0.09180 0.38918 0.32643
 H197 H 0.02903 0.41566 0.25654
 H198 H 0.10284 0.53522 0.30715
 H199 H 0.07507 0.58277 0.30083
 H200 H 0.04006 0.55340 0.21800
 H201 H 0.06863 0.50585 0.22623
 C202 C 0.18406 0.49360 0.34159
 C203 C 0.15491 0.47269 0.17811
 C204 C 0.05501 0.57194 0.25895
 C205 C 0.05798 0.39873 0.29259
 C206 C -0.15891 0.04522 0.21998
 H207 H -0.17747 0.04421 0.23432
 C208 C -0.16240 0.05825 0.19141
 H209 H -0.18382 0.06747 0.18457
 C210 C -0.10889 0.03342 0.21166
 H211 H -0.08820 0.02311 0.21959
 C212 C -0.11125 0.04632 0.18326
 H213 H -0.09181 0.04551 0.17018
 N214 N -0.13244 0.03302 0.22934
 C215 C -0.16908 -0.01538 0.29897
 H216 H -0.15988 -0.03598 0.29067
 C217 C -0.18954 -0.01624 0.32141
 H218 H -0.19589 -0.03762 0.32959
 C219 C -0.16966 0.03700 0.30052
 H220 H -0.16100 0.05758 0.29290
 C221 C -0.18997 0.03713 0.32327
 H222 H -0.19728 0.05804 0.33256
 Zn223 Zn -0.12561 0.01135 0.26547
 N224 N -0.15914 0.01092 0.28936
 C225 C -0.08925 0.01558 0.31519
 N226 N -0.09694 0.02885 0.28852
 C227 C -0.08809 0.05618 0.28080
 C228 C -0.07186 0.07180 0.30084
 C229 C -0.07299 0.03038 0.33586
 C230 C -0.13378 -0.04107 0.23823
 C231 C -0.12799 -0.06982 0.22883
 C232 C -0.08035 -0.07029 0.25252
 C233 C -0.08728 -0.04148 0.26198
 N234 N -0.11383 -0.02771 0.25497
 H235 H -0.09704 -0.00593 0.32097
 H236 H -0.09513 0.06674 0.25986
 H237 H -0.06641 0.09409 0.29470
 H238 H -0.06778 0.01957 0.35718
 H239 H -0.15441 -0.02930 0.23239
 H240 H -0.14430 -0.07994 0.21555
 H241 H -0.05927 -0.08120 0.25832
 H242 H -0.07146 -0.03013 0.27469
 C243 C -0.19952 0.01015 0.33460
 C244 C -0.13839 0.05869 0.17226
 C245 C -0.10109 -0.08487 0.23607
 C246 C -0.06495 0.05933 0.32921
 C247 C 0.35234 0.54111 0.71887
 H248 H 0.36167 0.55844 0.73127
 C249 C 0.34360 0.54661 0.68925
 H250 H 0.34637 0.56820 0.67899
 C251 C 0.33837 0.49155 0.71678
 H252 H 0.33672 0.47005 0.72764
 C253 C 0.32978 0.49594 0.68709
 H254 H 0.32113 0.47777 0.67536
 N255 N 0.34990 0.51381 0.73184
 C256 C 0.34180 0.49690 0.82699
 H257 H 0.36433 0.49717 0.83434
 C258 C 0.32034 0.49075 0.84740
 H259 H 0.32662 0.48672 0.87047
 C260 C 0.30660 0.50133 0.78783
 H261 H 0.30140 0.50501 0.76451
 C262 C 0.28441 0.49529 0.80752
 H263 H 0.26238 0.49422 0.79890
 Zn264 Zn 0.36547 0.50446 0.77030
 N265 N 0.33478 0.50124 0.79770
 C266 C 0.38173 0.55420 0.80237
 N267 N 0.39029 0.53450 0.78153
 C268 C 0.41588 0.53685 0.76721
 C269 C 0.43392 0.55971 0.77353
 C270 C 0.39916 0.57739 0.80943
 C271 C 0.38237 0.44485 0.78849
 C272 C 0.39387 0.41603 0.78422
 C273 C 0.41469 0.43309 0.73853
 C274 C 0.40296 0.46169 0.74380
 N275 N 0.38668 0.46699 0.76821
 H276 H 0.36098 0.55250 0.81300
 H277 H 0.42218 0.52121 0.75052
 H278 H 0.45419 0.56092 0.76184
 H279 H 0.39158 0.59313 0.82563
 H280 H 0.36914 0.44906 0.80757
 H281 H 0.38974 0.39894 0.80065
 H282 H 0.42644 0.42933 0.71829
 H283 H 0.40542 0.47930 0.72743
 C284 C 0.29128 0.48918 0.83764
 C285 C 0.33278 0.52361 0.67286
 C286 C 0.40956 0.40960 0.75853
 C287 C 0.42553 0.58055 0.79470
 C288 C 0.66813 0.93599 0.73960
 H289 H 0.66429 0.92389 0.76009
 C290 C 0.68181 0.92148 0.71633
 H291 H 0.68830 0.89817 0.71937
 C292 C 0.66243 0.98068 0.71064
 H293 H 0.65439 1.00364 0.70841
 C294 C 0.67607 0.96702 0.68674
 H295 H 0.67874 0.97988 0.66644
 N296 N 0.65877 0.96504 0.73642
 C297 C 0.65337 1.00822 0.82032
 H298 H 0.63204 1.01952 0.81712
 C299 C 0.67136 1.01575 0.84375
 H300 H 0.66309 1.03260 0.85845
 C301 C 0.68923 0.97251 0.80467
 H302 H 0.69637 0.95612 0.78901
 C303 C 0.70767 0.97870 0.82841
 H304 H 0.72883 0.96686 0.83025
 Zn305 Zn 0.63774 0.98181 0.76801
 N306 N 0.66270 0.98737 0.80101
 C307 C 0.60726 0.94532 0.80722
 N308 N 0.60901 0.95557 0.77870
 C309 C 0.59143 0.94599 0.75689
 C310 C 0.57090 0.92533 0.76343
 C311 C 0.58713 0.92452 0.81472
 C312 C 0.63814 1.04229 0.75458
 C313 C 0.62653 1.07131 0.74980
 C314 C 0.57837 1.05269 0.74674
 C315 C 0.59085 1.02404 0.75235
 N316 N 0.62025 1.01943 0.75629
 H317 H 0.62167 0.95302 0.82414
 H318 H 0.59370 0.95413 0.73429
 H319 H 0.55755 0.91764 0.74559
 H320 H 0.58606 0.91668 0.83757
 H321 H 0.66142 1.03801 0.75799
 H322 H 0.64102 1.08933 0.74914
 H323 H 0.55491 1.05617 0.74415
 H324 H 0.57695 1.00568 0.75422
 C325 C 0.69916 1.00112 0.84810
 C326 C 0.68583 0.93694 0.68934
 C327 C 0.59629 1.07672 0.74611
 C328 C 0.56869 0.91419 0.79265
 C329 C 0.02609 0.20108 -0.15835
 H330 H 0.03771 0.20344 -0.13760
 C331 C 0.03216 0.17603 -0.17513
 H332 H 0.04855 0.15940 -0.16697
 C333 C -0.01015 0.21941 -0.19340
 H334 H -0.02671 0.23644 -0.20024
 C335 C -0.00476 0.19478 -0.21087
 H336 H -0.01713 0.19344 -0.23135
 N337 N 0.00518 0.22208 -0.16769
 C338 C -0.03467 0.30410 -0.17484
 H339 H -0.05381 0.29453 -0.16609
 C340 C -0.03784 0.33103 -0.19094
 H341 H -0.05936 0.34202 -0.19358
 C342 C 0.01626 0.30131 -0.18224
 H343 H 0.03727 0.28955 -0.17935
 C344 C 0.01412 0.32832 -0.19835
 H345 H 0.03366 0.33692 -0.20744
 Zn346 Zn -0.00428 0.25537 -0.14462
 N347 N -0.00778 0.29025 -0.16987
 C348 C 0.05350 0.26167 -0.12259
 N349 N 0.02526 0.25907 -0.11471
 C350 C 0.01772 0.25932 -0.08566
 C351 C 0.03839 0.26419 -0.06358
 C352 C 0.07488 0.26674 -0.10121
 C353 C -0.05441 0.22490 -0.12801
 C354 C -0.08046 0.22121 -0.11311
 C355 C -0.07792 0.27059 -0.09467
 C356 C -0.05204 0.27328 -0.10992
 N357 N -0.04061 0.25054 -0.12593
 H358 H 0.05960 0.25964 -0.14545
 H359 H -0.00441 0.25609 -0.07937
 H360 H 0.03141 0.26536 -0.04085
 H361 H 0.09709 0.26918 -0.10809
 H362 H -0.04499 0.20704 -0.14084
 H363 H -0.09044 0.20030 -0.11506
 H364 H -0.08586 0.28934 -0.08224
 H365 H -0.04070 0.29353 -0.10870
 C366 C -0.01313 0.34388 -0.20229
 C367 C 0.01652 0.17251 -0.20174
 C368 C -0.09255 0.24407 -0.09560
 C369 C 0.06731 0.26858 -0.07129
 C370 C 0.47535 0.23682 0.16205
 H371 H 0.46902 0.26014 0.16376
 C372 C 0.46639 0.21647 0.18356
 H373 H 0.45354 0.22430 0.20196
 C374 C 0.49778 0.19780 0.13497
 H375 H 0.50946 0.19039 0.11573
 C376 C 0.48869 0.17679 0.15547
 H377 H 0.49385 0.15345 0.15199
 N378 N 0.49089 0.22721 0.13837
 C379 C 0.53513 0.30093 0.09854
 H380 H 0.53390 0.29376 0.07599
 C381 C 0.55229 0.32426 0.10513
 H382 H 0.56321 0.33533 0.08727
 C383 C 0.52361 0.29417 0.14916
 H384 H 0.51318 0.28190 0.16642
 C385 C 0.54044 0.31779 0.15675
 H386 H 0.54259 0.32353 0.17978
 Zn387 Zn 0.50111 0.25345 0.10691
 N388 N 0.52114 0.28634 0.12033
 C389 C 0.46993 0.28401 0.05942
 N390 N 0.46694 0.26740 0.08475
 C391 C 0.44005 0.26056 0.09411
 C392 C 0.41496 0.27049 0.07779
 C393 C 0.44553 0.29385 0.04217
 C394 C 0.55463 0.22525 0.09424
 C395 C 0.57676 0.21282 0.07691
 C396 C 0.54292 0.21498 0.03515
 C397 C 0.52129 0.22703 0.05342
 N398 N 0.52771 0.23260 0.08219
 H399 H 0.49131 0.28911 0.05206
 H400 H 0.43794 0.24722 0.11414
 H401 H 0.39377 0.26467 0.08544
 H402 H 0.44850 0.30686 0.02201
 H403 H 0.55913 0.22996 0.11719
 H404 H 0.59830 0.20814 0.08671
 H405 H 0.53765 0.21132 0.01212
 H406 H 0.49963 0.23251 0.04438
 C407 C 0.55533 0.33281 0.13454
 C408 C 0.47267 0.18604 0.18000
 C409 C 0.57121 0.20825 0.04676
 C410 C 0.41763 0.28708 0.05129
 C411 C 0.96428 0.74508 0.62965
 H412 H 0.96196 0.76903 0.63023
 C413 C 0.94991 0.72798 0.65024
 H414 H 0.93709 0.73932 0.66676
 C415 C 0.98430 0.70193 0.60716
 H416 H 0.99757 0.69202 0.59008
 C417 C 0.96999 0.68386 0.62727
 H418 H 0.97243 0.66004 0.62533
 N419 N 0.98088 0.73196 0.60854
 C420 C 1.02731 0.77942 0.62935
 H421 H 1.03029 0.75601 0.63497
 C422 C 1.03702 0.79985 0.64917
 H423 H 1.04813 0.79181 0.66948
 C424 C 1.00797 0.81819 0.59683
 H425 H 0.99599 0.82531 0.57682
 C426 C 1.01776 0.83950 0.61595
 H427 H 1.01327 0.86284 0.61040
 Zn428 Zn 0.99763 0.75821 0.58118
 N429 N 1.01283 0.78873 0.60387
 C430 C 0.97318 0.79399 0.53214
 N431 N 0.96767 0.77385 0.55412
 C432 C 0.94040 0.76417 0.55754
 C433 C 0.91731 0.77541 0.53924
 C434 C 0.95067 0.80557 0.51300
 C435 C 1.05203 0.72619 0.57671
 C436 C 1.07684 0.71496 0.56234
 C437 C 1.05261 0.72775 0.51536
 C438 C 1.02818 0.73847 0.53061
 N439 N 1.02864 0.73846 0.56077
 H440 H 0.99505 0.80118 0.52953
 H441 H 0.93632 0.74778 0.57462
 H442 H 0.89579 0.76753 0.54263
 H443 H 0.95535 0.82198 0.49603
 H444 H 1.05181 0.72579 0.60064
 H445 H 1.09561 0.70636 0.57548
 H446 H 1.05199 0.72864 0.49135
 H447 H 1.00919 0.74748 0.51821
 C448 C 1.03198 0.83028 0.64275
 C449 C 0.95217 0.69690 0.64901
 C450 C 1.07763 0.71652 0.53126
 C451 C 0.92223 0.79655 0.51678
 C452 C 0.53638 0.70167 0.33669
 H453 H 0.55235 0.71077 0.35115
 C454 C 0.54263 0.67422 0.32392
 H455 H 0.56351 0.66249 0.32871
 C456 C 0.48932 0.70526 0.31402
 H457 H 0.46842 0.71741 0.31058
 C458 C 0.49458 0.67794 0.30094
 H459 H 0.47771 0.66961 0.28701
 N460 N 0.51004 0.71655 0.33153
 C461 C 0.48649 0.81165 0.33263
 H462 H 0.48610 0.81484 0.35630
 C463 C 0.47888 0.83545 0.31294
 H464 H 0.47297 0.85671 0.32217
 C465 C 0.49449 0.77952 0.29279
 H466 H 0.50062 0.75770 0.28499
 C467 C 0.48717 0.80267 0.27228
 H468 H 0.48802 0.79762 0.24908
 Zn469 Zn 0.49888 0.75215 0.35049
 N470 N 0.49303 0.78412 0.32234
 C471 C 0.55343 0.77134 0.36759
 N472 N 0.52765 0.76256 0.37813
 C473 C 0.52138 0.76411 0.40739
 C474 C 0.54107 0.77571 0.42719
 C475 C 0.57374 0.78318 0.38663
 C476 C 0.43885 0.76331 0.36227
 C477 C 0.41170 0.75642 0.37290
 C478 C 0.43464 0.71307 0.39832
 C479 C 0.46151 0.72095 0.38734
 N480 N 0.46308 0.74551 0.36934
 H481 H 0.55767 0.77023 0.34412
 H482 H 0.50068 0.75730 0.41528
 H483 H 0.53534 0.77702 0.45028
 H484 H 0.59357 0.79110 0.37752
 H485 H 0.44023 0.78241 0.34755
 H486 H 0.39292 0.77103 0.36670
 H487 H 0.43382 0.69289 0.41173
 H488 H 0.48100 0.70685 0.39224
 C489 C 0.47814 0.83109 0.28211
 C490 C 0.52142 0.66186 0.30603
 C491 C 0.40913 0.73060 0.39058
 C492 C 0.56733 0.78619 0.41677
 C493 C 0.41147 -0.02894 0.25744
 H494 H 0.41132 -0.01295 0.27476
 C495 C 0.42816 -0.05584 0.26142
 H496 H 0.44092 -0.05968 0.28171
 C497 C 0.39465 -0.04334 0.21055
 H498 H 0.38103 -0.03914 0.19101
 C499 C 0.41163 -0.06994 0.21313
 H500 H 0.41016 -0.08526 0.19532
 N501 N 0.39486 -0.02325 0.23238
 C502 C 0.38873 0.06587 0.19993
 H503 H 0.37238 0.06239 0.18321
 C504 C 0.40441 0.09122 0.19755
 H505 H 0.40046 0.10628 0.17856
 C506 C 0.41194 0.05230 0.24606
 H507 H 0.41440 0.03736 0.26520
 C508 C 0.42759 0.07796 0.24493
 H509 H 0.44242 0.08231 0.26298
 Zn510 Zn 0.37050 0.01252 0.22665
 N511 N 0.39322 0.04647 0.22351
 C512 C 0.32843 0.04481 0.25646
 N513 N 0.34552 0.01921 0.25902
 C514 C 0.34583 0.00171 0.28418
 C515 C 0.32925 0.01055 0.30851
 C516 C 0.31120 0.05414 0.27990
 C517 C 0.36142 0.01095 0.16469
 C518 C 0.34575 0.00924 0.13812
 C519 C 0.30225 0.00247 0.16623
 C520 C 0.31862 0.00526 0.19236
 N521 N 0.34767 0.00960 0.19115
 H522 H 0.32883 0.05842 0.23633
 H523 H 0.35938 -0.01869 0.28574
 H524 H 0.33017 -0.00315 0.32868
 H525 H 0.29851 0.07509 0.27754
 H526 H 0.38468 0.01346 0.16426
 H527 H 0.35708 0.01050 0.11731
 H528 H 0.27921 -0.00121 0.16741
 H529 H 0.30820 0.00353 0.21360
 C530 C 0.42410 0.09750 0.22021
 C531 C 0.42857 -0.07690 0.23897
 C532 C 0.31585 0.00487 0.13875
 C533 C 0.31184 0.03721 0.30653
 C534 C 0.06806 1.03075 0.73155
 H535 H 0.05968 1.01343 0.71846
 C536 C 0.04946 1.05498 0.73862
 H537 H 0.02689 1.05539 0.73132
 C538 C 0.10754 1.05104 0.75661
 H539 H 0.13039 1.04964 0.76310
 C540 C 0.08969 1.07575 0.76414
 H541 H 0.09911 1.09308 0.77648
 N542 N 0.09657 1.02915 0.74047
 C543 C 0.09931 0.95899 0.68302
 H544 H 0.11295 0.97019 0.66756
 C545 C 0.08453 0.93446 0.67401
 H546 H 0.08719 0.92685 0.65165
 C547 C 0.08029 0.95435 0.73131
 H548 H 0.07921 0.96193 0.75381
 C549 C 0.06518 0.92997 0.72328
 H550 H 0.05205 0.91939 0.73971
 Zn551 Zn 0.12106 0.99615 0.72844
 N552 N 0.09752 0.96784 0.71153
 C553 C 0.15315 0.94884 0.75579
 N554 N 0.14017 0.97580 0.76161
 C555 C 0.13879 0.98542 0.78988
 C556 C 0.15075 0.96758 0.81354
 C557 C 0.16483 0.93012 0.77868
 C558 C 0.15284 1.03864 0.69756
 C559 C 0.17536 1.04889 0.68049
 C560 C 0.18942 0.99831 0.66880
 C561 C 0.16714 0.98888 0.68697
 N562 N 0.14952 1.00901 0.70122
 H563 H 0.15337 0.94122 0.73335
 H564 H 0.12768 1.00646 0.79440
 H565 H 0.14869 0.97572 0.83574
 H566 H 0.17483 0.90892 0.77275
 H567 H 0.13851 1.05449 0.70839
 H568 H 0.17826 1.07248 0.67858
 H569 H 0.20357 0.98212 0.65793
 H570 H 0.16413 0.96546 0.68979
 C571 C 0.06794 0.91908 0.69461
 C572 C 0.06022 1.07809 0.75492
 C573 C 0.19403 1.02860 0.66611
 C574 C 0.16344 0.93904 0.80829
 C575 C 0.58028 0.52114 0.24219
 H576 H 0.57360 0.50372 0.22816
 C577 C 0.55983 0.54347 0.25031
 H578 H 0.53759 0.54278 0.24226
 C579 C 0.61772 0.54369 0.26839
 H580 H 0.64046 0.54369 0.27508
 C581 C 0.59803 0.56638 0.27710
 H582 H 0.60591 0.58349 0.29086
 N583 N 0.60856 0.52156 0.25146
 C584 C 0.63300 0.46122 0.18695
 H585 H 0.64963 0.47520 0.17917
 C586 C 0.62426 0.43881 0.16894
 H587 H 0.63371 0.43704 0.14726
 C588 C 0.60151 0.44625 0.22481
 H589 H 0.59325 0.44897 0.24694
 C590 C 0.59228 0.42322 0.20752
 H591 H 0.57678 0.40844 0.21655
 Zn592 Zn 0.63727 0.49275 0.23973
 N593 N 0.62163 0.46464 0.21434
 C594 C 0.67343 0.44828 0.26707
 N595 N 0.65383 0.47101 0.27291
 C596 C 0.64548 0.47646 0.30110
 C597 C 0.65725 0.45874 0.32484
 C598 C 0.68563 0.42999 0.29007
 C599 C 0.65741 0.52933 0.19473
 C600 C 0.67785 0.54202 0.17661
 C601 C 0.71582 0.52374 0.21141
 C602 C 0.69463 0.51077 0.22850
 N603 N 0.66618 0.51303 0.21944
 H604 H 0.67941 0.44427 0.24438
 H605 H 0.62935 0.49419 0.30522
 H606 H 0.65005 0.46317 0.34707
 H607 H 0.70140 0.41225 0.28480
 H608 H 0.63452 0.53133 0.18841
 H609 H 0.66997 0.55423 0.15678
 H610 H 0.73831 0.52053 0.21886
 H611 H 0.70108 0.49835 0.24865
 C612 C 0.60405 0.41902 0.17928
 C613 C 0.56858 0.56653 0.26807
 C614 C 0.70775 0.53890 0.18444
 C615 C 0.67745 0.43500 0.31941
 C616 C 0.93083 0.49432 0.75856
 H617 H 0.93349 0.51597 0.76746
 C618 C 0.95161 0.47108 0.76519
 H619 H 0.97032 0.47509 0.77911
 C620 C 0.90208 0.46233 0.73140
 H621 H 0.88229 0.45880 0.71904
 C622 C 0.92200 0.43833 0.73805
 H623 H 0.91765 0.41660 0.73020
 N624 N 0.90674 0.48963 0.74178
 C625 C 0.87133 0.58006 0.72248
 H626 H 0.84903 0.57675 0.72848
 C627 C 0.87898 0.60795 0.71254
 H628 H 0.86228 0.62592 0.71086
 C629 C 0.91966 0.56001 0.71631
 H630 H 0.93525 0.54109 0.71725
 C631 C 0.92823 0.58762 0.70589
 H632 H 0.95061 0.58985 0.69948
 Zn633 Zn 0.87711 0.52051 0.73747
 N634 N 0.89164 0.55691 0.72468
 C635 C 0.86178 0.54895 0.79088
 N636 N 0.85956 0.52414 0.77491
 C637 C 0.84575 0.50050 0.78587
 C638 C 0.83275 0.50154 0.81360
 C639 C 0.84919 0.55092 0.81875
 C640 C 0.85935 0.50512 0.68104
 C641 C 0.84000 0.49951 0.65803
 C642 C 0.79995 0.50845 0.69129
 C643 C 0.82015 0.51350 0.71384
 N644 N 0.84923 0.51149 0.70839
 H645 H 0.87368 0.56713 0.78228
 H646 H 0.84471 0.48084 0.77288
 H647 H 0.82144 0.48261 0.82143
 H648 H 0.85154 0.57084 0.83103
 H649 H 0.88256 0.50441 0.67718
 H650 H 0.84851 0.49435 0.63644
 H651 H 0.77691 0.50981 0.69607
 H652 H 0.81253 0.51949 0.73550
 C653 C 0.90776 0.61205 0.70420
 C654 C 0.94701 0.44257 0.75532
 C655 C 0.80988 0.50117 0.66302
 C656 C 0.83430 0.52705 0.83047
 C657 C 0.25594 0.41498 -0.03161
 H658 H 0.27215 0.41112 -0.01400
 C659 C 0.26153 0.43353 -0.05587
 H660 H 0.28212 0.44394 -0.05659
 C661 C 0.20932 0.40618 -0.05163
 H662 H 0.18896 0.39552 -0.04975
 C663 C 0.21396 0.42471 -0.07628
 H664 H 0.19719 0.42766 -0.09345
 N665 N 0.23034 0.40149 -0.03009
 C666 C 0.21263 0.38692 0.06375
 H667 H 0.21650 0.36317 0.06707
 C668 C 0.20399 0.40429 0.08753
 H669 H 0.20170 0.39367 0.10912
 C670 C 0.21068 0.42937 0.03148
 H671 H 0.21282 0.43910 0.00951
 C672 C 0.20206 0.44753 0.05459
 H673 H 0.19760 0.47099 0.04983
 Zn674 Zn 0.22544 0.37596 0.00324
 N675 N 0.21566 0.39960 0.03630
 C676 C 0.27684 0.35474 0.03618
 N677 N 0.26164 0.35371 0.01007
 C678 C 0.27314 0.33890 -0.01321
 C679 C 0.30100 0.32478 -0.01097
 C680 C 0.30475 0.34067 0.03947
 C681 C 0.17252 0.34839 0.01421
 C682 C 0.14973 0.33024 0.00829
 C683 C 0.17286 0.31678 -0.03741
 C684 C 0.19551 0.33480 -0.03035
 N685 N 0.19500 0.35025 -0.00489
 H686 H 0.26793 0.36731 0.05420
 H687 H 0.26121 0.33904 -0.03404
 H688 H 0.30974 0.31347 -0.02997
 H689 H 0.31675 0.34245 0.06014
 H690 H 0.17183 0.36124 0.03394
 H691 H 0.13192 0.32947 0.02363
 H692 H 0.17351 0.30492 -0.05790
 H693 H 0.21305 0.33709 -0.04570
 C694 C 0.19844 0.43505 0.08307
 C695 C 0.24049 0.43845 -0.07874
 C696 C 0.14965 0.31431 -0.01788
 C697 C 0.31736 0.32590 0.01549
 C698 C 0.81255 0.10839 1.02243
 H699 H 0.82048 0.10932 1.00000
 C700 C 0.83144 0.09863 1.04564
 H701 H 0.85351 0.09164 1.04005
 C702 C 0.77380 0.11649 1.05563
 H703 H 0.75156 0.12427 1.05957
 C704 C 0.79190 0.10638 1.07965
 H705 H 0.78287 0.10646 1.10162
 N706 N 0.78431 0.11692 1.02762
 C707 C 0.73801 0.10657 0.94417
 H708 H 0.72761 0.12865 0.94161
 C709 C 0.73129 0.08487 0.92429
 H710 H 0.71596 0.09110 0.90640
 C711 C 0.77073 0.07258 0.97083
 H712 H 0.78561 0.06769 0.98939
 C713 C 0.76528 0.05034 0.95092
 H714 H 0.77619 0.02865 0.95486
 Zn715 Zn 0.76279 0.13114 0.99329
 N716 N 0.75725 0.10010 0.96699
 C717 C 0.79928 0.15464 0.94924
 N718 N 0.78545 0.15990 0.97511
 C719 C 0.78967 0.18474 0.99040
 C720 C 0.80831 0.20568 0.97973
 C721 C 0.81872 0.17466 0.93808
 C722 C 0.70638 0.13255 1.01810
 C723 C 0.67776 0.14397 1.02210
 C724 C 0.68789 0.18650 0.99106
 C725 C 0.71647 0.17473 0.98836
 N726 N 0.72521 0.14822 1.00184
 H727 H 0.79596 0.13445 0.93772
 H728 H 0.77886 0.18801 1.01127
 H729 H 0.81140 0.22475 0.99303
 H730 H 0.82952 0.16962 0.91757
 H731 H 0.71337 0.11090 1.02745
 H732 H 0.66294 0.13129 1.03503
 H733 H 0.68123 0.20746 0.97992
 H734 H 0.73129 0.18630 0.97451
 C735 C 0.74503 0.05615 0.92729
 C736 C 0.82139 0.09738 1.07496
 C737 C 0.66822 0.17107 1.00809
 C738 C 0.82373 0.20067 0.95343
 C739 C 0.30230 0.57626 0.51786
 H740 H 0.30910 0.57082 0.49581
 C741 C 0.31384 0.55935 0.54213
 H742 H 0.32965 0.54114 0.53844
 C743 C 0.27337 0.60647 0.54937
 H744 H 0.25741 0.62473 0.55203
 C745 C 0.28466 0.59029 0.57439
 H746 H 0.27702 0.59607 0.59615
 N747 N 0.28183 0.59877 0.52173
 C748 C 0.22503 0.57912 0.45889
 H749 H 0.20836 0.58926 0.47242
 C750 C 0.21740 0.55797 0.43870
 H751 H 0.19495 0.55205 0.43740
 C752 C 0.27418 0.57466 0.44389
 H753 H 0.29619 0.58176 0.44551
 C754 C 0.26750 0.55349 0.42333
 H755 H 0.28462 0.54466 0.40939
 Zn756 Zn 0.26375 0.61710 0.48719
 N757 N 0.25305 0.58706 0.46118
 C758 C 0.28191 0.65026 0.43878
 N759 N 0.29013 0.64057 0.46668
 C760 C 0.31596 0.64760 0.47902
 C761 C 0.33429 0.66588 0.46333
 C762 C 0.29934 0.66871 0.42251
 C763 C 0.20849 0.62959 0.51331
 C764 C 0.18194 0.64581 0.51704
 C765 C 0.20042 0.68629 0.48831
 C766 C 0.22665 0.66950 0.48547
 N767 N 0.22988 0.64124 0.49689
 H768 H 0.26143 0.64400 0.42937
 H769 H 0.32211 0.63945 0.50119
 H770 H 0.35451 0.67181 0.47363
 H771 H 0.29219 0.67621 0.40040
 H772 H 0.21163 0.60723 0.52259
 H773 H 0.16474 0.63576 0.52913
 H774 H 0.19808 0.70842 0.47831
 H775 H 0.24404 0.67891 0.47329
 C776 C 0.23871 0.54502 0.42038
 C777 C 0.30457 0.56589 0.57077
 C778 C 0.17741 0.67417 0.50358
 C779 C 0.32575 0.67705 0.43487
 C780 C 0.75577 0.94521 0.47123
 H781 H 0.76706 0.94188 0.49243
 C782 C 0.76293 0.96834 0.45194
 H783 H 0.77958 0.98289 0.45858
 C784 C 0.72223 0.92868 0.43574
 H785 H 0.70707 0.91260 0.42917
 C786 C 0.72935 0.95098 0.41547
 H787 H 0.71929 0.95218 0.39352
 N788 N 0.73581 0.92592 0.46283
 C789 C 0.71842 0.87502 0.54375
 H790 H 0.71925 0.85342 0.53398
 C791 C 0.71419 0.87738 0.57408
 H792 H 0.71142 0.85748 0.58745
 C793 C 0.72105 0.92710 0.53788
 H794 H 0.72367 0.94638 0.52364
 C795 C 0.71635 0.93053 0.56822
 H796 H 0.71574 0.95250 0.57723
 Zn797 Zn 0.73144 0.89125 0.48652
 N798 N 0.72279 0.89949 0.52650
 C799 C 0.78294 0.86280 0.51141
 N800 N 0.76754 0.86839 0.48560
 C801 C 0.77910 0.86083 0.45909
 C802 C 0.80735 0.84734 0.45794
 C803 C 0.81088 0.84902 0.51132
 C804 C 0.67324 0.88488 0.47688
 C805 C 0.64766 0.87102 0.47082
 C806 C 0.67667 0.82889 0.45334
 C807 C 0.70193 0.84341 0.46035
 N808 N 0.69966 0.87082 0.47212
 H809 H 0.77421 0.87000 0.53219
 H810 H 0.76673 0.86612 0.43878
 H811 H 0.81639 0.84182 0.43667
 H812 H 0.82282 0.84556 0.53217
 H813 H 0.67213 0.90662 0.48636
 H814 H 0.62686 0.88245 0.47530
 H815 H 0.67860 0.80684 0.44454
 H816 H 0.72320 0.83252 0.45708
 C817 C 0.71363 0.90532 0.58674
 C818 C 0.75020 0.97085 0.42341
 C819 C 0.64918 0.84254 0.45930
 C820 C 0.82363 0.84145 0.48436
 C821 C -0.02181 0.25709 0.46989
 H822 H -0.00044 0.25210 0.47980
 C823 C -0.04458 0.26781 0.48751
 H824 H -0.04043 0.27085 0.51087
 C825 C -0.05305 0.26005 0.42738
 H826 H -0.05618 0.25658 0.40394
 C827 C -0.07631 0.27112 0.44408
 H828 H -0.09737 0.27603 0.43329
 N829 N -0.02663 0.25270 0.44054
 C830 C 0.06326 0.23451 0.42852
 H831 H 0.06432 0.24815 0.40852
 C832 C 0.08890 0.22586 0.44443
 H833 H 0.10952 0.23330 0.43678
 C834 C 0.03547 0.20707 0.46220
 H835 H 0.01458 0.19930 0.46856
 C836 C 0.06045 0.19848 0.47913
 H837 H 0.05867 0.18402 0.49852
 Zn838 Zn 0.00230 0.23550 0.41593
 N839 N 0.03718 0.22528 0.43780
 C840 C 0.01912 0.28989 0.39479
 N841 N 0.00879 0.26410 0.38553
 C842 C 0.00249 0.26017 0.35638
 C843 C 0.00745 0.28247 0.33516
 C844 C 0.02450 0.31262 0.37439
 C845 C -0.03280 0.18701 0.41581
 C846 C -0.04143 0.15918 0.40809
 C847 C -0.00516 0.15791 0.36995
 C848 C 0.00336 0.18553 0.37896
 N849 N -0.01084 0.19969 0.40121
 H850 H 0.02331 0.29269 0.41819
 H851 H -0.00660 0.23994 0.34952
 H852 H 0.00273 0.27867 0.31205
 H853 H 0.03273 0.33289 0.38243
 H854 H -0.04311 0.19802 0.43416
 H855 H -0.05887 0.14942 0.42009
 H856 H 0.00623 0.14685 0.35218
 H857 H 0.02153 0.19549 0.36846
 C858 C 0.08756 0.20785 0.47020
 C859 C -0.07233 0.27460 0.47466
 C860 C -0.02756 0.14435 0.38493
 C861 C 0.01879 0.30906 0.34407
 C862 C 1.04567 0.78612 0.13053
 H863 H 1.03452 0.80232 0.14408
 C864 C 1.07235 0.79248 0.11797
 H865 H 1.08169 0.81336 0.12241
 C866 C 1.04708 0.73963 0.10762
 H867 H 1.03661 0.71962 0.10254
 C868 C 1.07375 0.74491 0.09495
 H869 H 1.08365 0.72852 0.08062
 N870 N 1.03390 0.75970 0.12568
 C871 C 0.95866 0.71269 0.11324
 H872 H 0.96094 0.69870 0.13312
 C873 C 0.93835 0.70651 0.09125
 H874 H 0.92532 0.68759 0.09457
 C875 C 0.97153 0.75547 0.08595
 H876 H 0.98421 0.77484 0.08443
 C877 C 0.95145 0.75015 0.06345
 H878 H 0.94927 0.76533 0.04441
 Zn879 Zn 0.99810 0.74875 0.14210
 N880 N 0.97436 0.73712 0.11043
 C881 C 0.94914 0.78646 0.15255
 N882 N 0.97761 0.78086 0.16089
 C883 C 0.98975 0.79611 0.18310
 C884 C 0.97298 0.81794 0.19776
 C885 C 0.93164 0.80756 0.16683
 C886 C 1.01805 0.69037 0.16066
 C887 C 1.02392 0.66642 0.18059
 C888 C 1.00222 0.69561 0.21924
 C889 C 0.99682 0.71907 0.19855
 N890 N 1.00511 0.71628 0.16990
 H891 H 0.93952 0.77395 0.13533
 H892 H 1.01218 0.79079 0.19001
 H893 H 0.98270 0.82961 0.21567
 H894 H 0.90901 0.81138 0.15983
 H895 H 1.02366 0.68803 0.13773
 H896 H 1.03464 0.64636 0.17251
 H897 H 0.99528 0.69859 0.24177
 H898 H 0.98593 0.73947 0.20550
 C899 C 0.93405 0.72576 0.06623
 C900 C 1.08691 0.77144 0.10032
 C901 C 1.01628 0.66887 0.21047
 C902 C 0.94339 0.82338 0.18992
 C903 C 0.53833 0.28681 0.62049
 H904 H 0.51860 0.29993 0.61412
 C905 C 0.56553 0.29682 0.61264
 H906 H 0.56650 0.31752 0.60005
 C907 C 0.56135 0.24478 0.64585
 H908 H 0.56005 0.22451 0.65883
 C909 C 0.58875 0.25403 0.63873
 H910 H 0.60789 0.24044 0.64611
 N911 N 0.53671 0.26131 0.63716
 C912 C 0.45522 0.21759 0.62631
 H913 H 0.45410 0.20814 0.64854
 C914 C 0.43544 0.20971 0.60450
 H915 H 0.41907 0.19439 0.61029
 C916 C 0.47748 0.24949 0.59204
 H917 H 0.49388 0.26493 0.58719
 C918 C 0.45777 0.24261 0.56967
 H919 H 0.45935 0.25281 0.54777
 Zn920 Zn 0.50064 0.24796 0.65130
 N921 N 0.47569 0.23722 0.61984
 C922 C 0.45547 0.27024 0.68638
 N923 N 0.48093 0.27740 0.67390
 C924 C 0.49241 0.30392 0.67891
 C925 C 0.47802 0.32447 0.69699
 C926 C 0.44056 0.28996 0.70482
 C927 C 0.51470 0.18722 0.66547
 C928 C 0.52853 0.16418 0.68284
 C929 C 0.53123 0.19768 0.72341
 C930 C 0.51718 0.21998 0.70539
 N931 N 0.50991 0.21462 0.67680
 H932 H 0.44696 0.24891 0.68241
 H933 H 0.51301 0.30900 0.66946
 H934 H 0.48766 0.34529 0.70102
 H935 H 0.42030 0.28374 0.71439
 H936 H 0.50960 0.18379 0.64237
 H937 H 0.53359 0.14299 0.67297
 H938 H 0.53782 0.20272 0.74576
 H939 H 0.51380 0.24212 0.71365
 C940 C 0.43635 0.22258 0.57586
 C941 C 0.59115 0.28055 0.62236
 C942 C 0.53795 0.16969 0.71183
 C943 C 0.45189 0.31743 0.71044
 C944 C 0.47178 0.78339 0.94104
 H945 H 0.49371 0.79086 0.94158
 C946 C 0.45063 0.79631 0.95916
 H947 H 0.45646 0.81384 0.97355
 C948 C 0.43750 0.75213 0.92065
 H949 H 0.43243 0.73523 0.90528
 C950 C 0.41546 0.76490 0.93806
 H951 H 0.39359 0.75735 0.93628
 N952 N 0.46509 0.76139 0.92266
 C953 C 0.55270 0.72181 0.90904
 H954 H 0.55332 0.72223 0.88506
 C955 C 0.57770 0.71259 0.92576
 H956 H 0.59745 0.70611 0.91428
 C957 C 0.52617 0.73045 0.95278
 H958 H 0.50595 0.73697 0.96330
 C959 C 0.55058 0.72128 0.97034
 H960 H 0.54855 0.72093 0.99419
 Zn961 Zn 0.49575 0.74667 0.89870
 N962 N 0.52788 0.73141 0.92270
 C963 C 0.53351 0.78983 0.87672
 N964 N 0.50641 0.77939 0.87494
 C965 C 0.48532 0.79291 0.85680
 C966 C 0.49138 0.81735 0.83877
 C967 C 0.54052 0.81422 0.85909
 C968 C 0.47330 0.69127 0.88698
 C969 C 0.46564 0.66783 0.86945
 C970 C 0.48097 0.69524 0.82626
 C971 C 0.48806 0.71820 0.84452
 N972 N 0.48402 0.71594 0.87428
 H973 H 0.54975 0.77946 0.89193
 H974 H 0.46374 0.78455 0.85631
 H975 H 0.47414 0.82771 0.82466
 H976 H 0.56238 0.82176 0.86060
 H977 H 0.47084 0.68976 0.91078
 H978 H 0.45731 0.64831 0.87997
 H979 H 0.48421 0.69773 0.80264
 H980 H 0.49731 0.73759 0.83487
 C981 C 0.57704 0.71280 0.95690
 C982 C 0.42206 0.78712 0.95776
 C983 C 0.46967 0.66959 0.83866
 C984 C 0.51937 0.82822 0.83962
 N985 N 0.45003 -0.12336 0.22020
 N986 N 0.46438 -0.14912 0.23227
 C987 C 0.46743 -0.14604 0.26184
 C988 C 0.45577 -0.11784 0.26884
 C989 C 0.44461 -0.10454 0.24238
 H990 H 0.45375 -0.10880 0.29064
 H991 H 0.44514 -0.12003 0.19763
 H992 H 0.47027 -0.16746 0.21972
 N993 N 0.99570 0.41863 0.77108
 N994 N 1.00619 0.39256 0.78198
 C995 C 0.98439 0.37386 0.78314
 C996 C 0.95901 0.38873 0.77198
 C997 C 0.96706 0.41707 0.76479
 H998 H 0.93731 0.38071 0.77081
 H999 H 1.00793 0.43726 0.76867
 H1000 H 1.02763 0.38834 0.78976
 N1001 N 0.01518 1.11221 0.74784
 N1002 N 0.00385 1.13690 0.75905
 C1003 C 0.02205 1.14572 0.78038
 C1004 C 0.04610 1.12552 0.78274
 C1005 C 0.04093 1.10454 0.76172
 H1006 H 0.06473 1.12601 0.79766
 H1007 H 0.00532 1.10124 0.73068
 H1008 H -0.01626 1.14708 0.75219
 N1009 N 0.51804 0.58980 0.27453
 N1010 N 0.50577 0.61474 0.28435
 C1011 C 0.52684 0.63218 0.29327
 C1012 C 0.55377 0.61750 0.28893
 C1013 C 0.54730 0.59065 0.27690
 H1014 H 0.57504 0.62552 0.29345
 H1015 H 0.50623 0.57245 0.26691
 H1016 H 0.48324 0.61920 0.28541
 N1017 N 0.61138 0.38466 0.13712
 N1018 N 0.59863 0.36223 0.12553
 C1019 C 0.57511 0.35635 0.14160
 C1020 C 0.57289 0.37594 0.16468
 C1021 C 0.59624 0.39384 0.16088
 H1022 H 0.55622 0.37737 0.18131
 H1023 H 0.63045 0.39290 0.12887
 H1024 H 0.60643 0.35091 0.10716
 N1025 N 0.04984 0.86948 0.70791
 N1026 N 0.04085 0.84616 0.69435
 C1027 C 0.04031 0.85187 0.66485
 C1028 C 0.04934 0.88027 0.65938
 C1029 C 0.05532 0.89069 0.68739
 H1030 H 0.05187 0.89138 0.63807
 H1031 H 0.05296 0.87019 0.73085
 H1032 H 0.03520 0.82672 0.70534
 N1033 N 0.90169 0.66735 0.70078
 N1034 N 0.91324 0.68951 0.68642
 C1035 C 0.93520 0.67859 0.66963
 C1036 C 0.93769 0.64789 0.67380
 C1037 C 0.91590 0.64169 0.69359
 H1038 H 0.95255 0.63213 0.66331
 H1039 H 0.88426 0.67005 0.71519
 H1040 H 0.90535 0.71156 0.68779
 N1041 N 0.44585 0.14245 0.24052
 N1042 N 0.45806 0.16623 0.22982
 C1043 C 0.46088 0.16373 0.20030
 C1044 C 0.44980 0.13744 0.19183
 C1045 C 0.44032 0.12467 0.21790
 H1046 H 0.44801 0.12923 0.16963
 H1047 H 0.44053 0.13907 0.26273
 H1048 H 0.46417 0.18382 0.24257
 N1049 N 0.22638 0.46987 -0.12435
 N1050 N 0.23971 0.48337 -0.14622
 C1051 C 0.26881 0.47949 -0.14157
 C1052 C 0.27408 0.46289 -0.11546
 C1053 C 0.24667 0.45707 -0.10526
 H1054 H 0.29499 0.45475 -0.10605
 H1055 H 0.20375 0.46957 -0.12277
 H1056 H 0.22882 0.49489 -0.16396
 N1057 N 0.77067 1.01866 0.40712
 N1058 N 0.78365 1.02914 0.38342
 C1059 C 0.78285 1.00913 0.36185
 C1060 C 0.76800 0.98516 0.37227
 C1061 C 0.76097 0.99192 0.40110
 H1062 H 0.76505 0.96445 0.36153
 H1063 H 0.76972 1.02912 0.42744
 H1064 H 0.79462 1.04872 0.38299
 N1065 N 0.86955 0.08246 1.09629
 N1066 N 0.88090 0.07188 1.12366
 C1067 C 0.85864 0.07020 1.14271
 C1068 C 0.83281 0.08023 1.12776
 C1069 C 0.84042 0.08736 1.09867
 H1070 H 0.81105 0.08097 1.13651
 H1071 H 0.88248 0.08633 1.07796
 H1072 H 0.90307 0.06658 1.12753
 N1073 N 0.32192 0.51711 0.59437
 N1074 N 0.32874 0.50592 0.62115
 C1075 C 0.32603 0.52777 0.64078
 C1076 C 0.31694 0.55408 0.62575
 C1077 C 0.31456 0.54632 0.59631
 H1078 H 0.31264 0.57573 0.63492
 H1079 H 0.32187 0.50463 0.57526
 H1080 H 0.33557 0.48374 0.62563
 N1081 N 0.24969 0.50632 0.38255
 N1082 N 0.23530 0.49280 0.36183
 C1083 C 0.20674 0.50139 0.36314
 C1084 C 0.20282 0.52113 0.38579
 C1085 C 0.23063 0.52398 0.39743
 H1086 H 0.18277 0.53326 0.39150
 H1087 H 0.27224 0.50355 0.38597
 H1088 H 0.24509 0.47822 0.34692
 N1089 N 0.75470 0.00830 0.90401
 N1090 N 0.74208 -0.00699 0.88113
 C1091 C 0.71801 0.00919 0.87114
 C1092 C 0.71521 0.03508 0.88705
 C1093 C 0.73857 0.03397 0.90722
 H1094 H 0.69838 0.05274 0.88407
 H1095 H 0.77408 0.00106 0.91511
 H1096 H 0.75001 -0.02776 0.87430
 N1097 N 0.72084 0.88633 0.63904
 N1098 N 0.71385 0.89464 0.66593
 C1099 C 0.69911 0.92142 0.66388
 C1100 C 0.69706 0.93066 0.63417
 C1101 C 0.71087 0.90762 0.61919
 H1102 H 0.68593 0.95058 0.62458
 H1103 H 0.73240 0.86639 0.63457
 H1104 H 0.71930 0.88191 0.68515
 N1105 N 0.18941 0.48372 0.10774
 N1106 N 0.17793 0.49357 0.13248
 C1107 C 0.16925 0.47035 0.14890
 C1108 C 0.17565 0.44454 0.13371
 C1109 C 0.18836 0.45396 0.10767
 H1110 H 0.17136 0.42208 0.14043
 H1111 H 0.19789 0.49743 0.09142
 H1112 H 0.17587 0.51598 0.13747
 N1113 N -0.09956 0.27768 0.52221
 N1114 N -0.12488 0.28910 0.53138
 C1115 C -0.13903 0.30371 0.50836
 C1116 C -0.12197 0.30136 0.48343
 C1117 C -0.09712 0.28462 0.49311
 H1118 H -0.12702 0.31039 0.46131
 H1119 H -0.08460 0.26489 0.53569
 H1120 H -0.13202 0.28708 0.55316
 N1121 N 0.40446 0.81312 1.00283
 N1122 N 0.37977 0.82541 1.01258
 C1123 C 0.35832 0.82183 0.99243
 C1124 C 0.36998 0.80623 0.96892
 C1125 C 0.39931 0.80126 0.97634
 H1126 H 0.35895 0.80016 0.94881
 H1127 H 0.42447 0.81312 1.01420
 H1128 H 0.37809 0.83685 1.03230
 N1129 N 1.13536 0.75501 0.08018
 N1130 N 1.15794 0.76707 0.06809
 C1131 C 1.15316 0.79685 0.06722
 C1132 C 1.12620 0.80396 0.07958
 C1133 C 1.11559 0.77675 0.08739
 H1134 H 1.11545 0.82572 0.08192
 H1135 H 1.13375 0.73219 0.08335
 H1136 H 1.17584 0.75475 0.05991
 N1137 N 0.64403 0.28457 0.63416
 N1138 N 0.66663 0.29707 0.62263
 C1139 C 0.65794 0.31198 0.59734
 C1140 C 0.62831 0.30888 0.59271
 C1141 C 0.62036 0.29124 0.61656
 H1142 H 0.61455 0.31783 0.57445
 H1143 H 0.64502 0.27187 0.65393
 H1144 H 0.68770 0.29472 0.63182
 N1145 N 0.40383 0.23565 0.53167
 N1146 N 0.38238 0.22390 0.51709
 C1147 C 0.37904 0.19646 0.52856
 C1148 C 0.39915 0.19053 0.55155
 C1149 C 0.41434 0.21607 0.55299
 H1150 H 0.40147 0.17091 0.56597
 H1151 H 0.41022 0.25719 0.52775
 H1152 H 0.37004 0.23475 0.49988
 N1153 N 0.89753 0.74325 0.02644
 N1154 N 0.87477 0.73291 0.01273
 C1155 C 0.87272 0.70431 0.02133
 C1156 C 0.89522 0.69610 0.04131
 C1157 C 0.91036 0.72150 0.04427
 H1158 H 0.89886 0.67507 0.05331
 H1159 H 0.90307 0.76528 0.02453
 H1160 H 0.86060 0.74559 -0.00169
 N1161 N 0.60705 0.71099 1.00411
 N1162 N 0.63353 0.70146 1.01335
 C1163 C 0.64789 0.68900 0.99059
 C1164 C 0.62949 0.69073 0.96576
 C1165 C 0.60374 0.70482 0.97521
 H1166 H 0.63420 0.68287 0.94386
 H1167 H 0.59187 0.72187 1.01758
 H1168 H 0.64119 0.70331 1.03509
 N1169 N 0.11577 0.19244 0.51667
 N1170 N 0.14255 0.18221 0.52415
 C1171 C 0.15867 0.18077 0.49947
 C1172 C 0.14141 0.19097 0.47531
 C1173 C 0.11437 0.19800 0.48714
 H1174 H 0.14729 0.19197 0.45219
 H1175 H 0.09877 0.19519 0.53160
 H1176 H 0.14914 0.17524 0.54565
 N1177 N 0.57835 0.15494 0.74804
 N1178 N 0.59420 0.13067 0.75641
 C1179 C 0.58358 0.10741 0.74277
 C1180 C 0.55989 0.11728 0.72491
 C1181 C 0.55739 0.14768 0.72872
 H1182 H 0.54707 0.10431 0.71039
 H1183 H 0.58277 0.17620 0.75461
 H1184 H 0.61208 0.13023 0.77108
 N1185 N 1.02265 0.64627 0.26207
 N1186 N 1.03275 0.62085 0.27476
 C1187 C 1.04018 0.60169 0.25347
 C1188 C 1.03439 0.61556 0.22600
 C1189 C 1.02350 0.64401 0.23231
 H1190 H 1.03886 0.60648 0.20454
 H1191 H 1.01627 0.66496 0.27394
 H1192 H 1.03481 0.61705 0.29767
 N1193 N 0.89540 0.84154 0.20941
 N1194 N 0.88375 0.86553 0.22157
 C1195 C 0.90478 0.88451 0.22613
 C1196 C 0.93124 0.87173 0.21685
 C1197 C 0.92415 0.84462 0.20592
 H1198 H 0.95208 0.88164 0.21603
 H1199 H 0.88359 0.82359 0.20329
 H1200 H 0.86161 0.86884 0.22620
 N1201 N 0.41843 0.33029 0.75194
 N1202 N 0.40767 0.35434 0.76478
 C1203 C 0.41870 0.37842 0.75178
 C1204 C 0.43754 0.36900 0.72972
 C1205 C 0.43661 0.33835 0.73044
 H1206 H 0.44954 0.38247 0.71457
 H1207 H 0.41318 0.30879 0.75795
 H1208 H 0.39231 0.35393 0.78153
 N1209 N 0.47473 0.63963 0.79302
 N1210 N 0.46338 0.61624 0.78165
 C1211 C 0.44368 0.60590 0.80057
 C1212 C 0.44265 0.62361 0.82522
 C1213 C 0.46263 0.64481 0.81952
 H1214 H 0.42901 0.62166 0.84440
 H1215 H 0.49065 0.65158 0.78266
 H1216 H 0.46877 0.60811 0.76091
 N1217 N -0.04563 0.09446 0.39657
 N1218 N -0.05502 0.07190 0.38197
 C1219 C -0.05222 0.07735 0.35259
 C1220 C -0.03997 0.10456 0.34852
 C1221 C -0.03645 0.11473 0.37694
 H1222 H -0.03597 0.11634 0.32790
 H1223 H -0.04629 0.09614 0.41959
 H1224 H -0.06462 0.05400 0.39219
 N1225 N 0.01278 0.33618 0.29456
 N1226 N 0.02289 0.35979 0.28116
 C1227 C 0.04167 0.37212 0.29976
 C1228 C 0.04340 0.35556 0.32620
 C1229 C 0.02477 0.33295 0.32208
 H1230 H 0.05649 0.35936 0.34571
 H1231 H -0.00232 0.32285 0.28490
 H1232 H 0.01718 0.36687 0.25947
 N1233 N 0.51113 0.86362 0.79579
 N1234 N 0.52407 0.88611 0.78345
 C1235 C 0.54792 0.89133 0.79989
 C1236 C 0.55016 0.87120 0.82375
 C1237 C 0.52647 0.85389 0.82035
 H1238 H 0.56699 0.86915 0.84088
 H1239 H 0.49245 0.85490 0.78694
 H1240 H 0.51645 0.89757 0.76412
 N1241 N 0.75716 0.55288 0.17309
 N1242 N 0.77098 0.56478 0.14856
 C1243 C 0.75117 0.56855 0.12606
 C1244 C 0.72447 0.55961 0.13600
 C1245 C 0.72892 0.55007 0.16549
 H1246 H 0.70429 0.55996 0.12332
 H1247 H 0.76747 0.54828 0.19365
 H1248 H 0.79313 0.56864 0.14829
 N1249 N 0.23749 1.05820 0.66122
 N1250 N 0.25513 1.06653 0.64020
 C1251 C 0.24813 1.05338 0.61476
 C1252 C 0.22511 1.03540 0.62023
 C1253 C 0.21903 1.03933 0.64989
 H1254 H 0.21307 1.02297 0.60455
 H1255 H 0.23749 1.06618 0.68271
 H1256 H 0.27040 1.08244 0.64308
 N1257 N 0.18041 0.89025 0.82900
 N1258 N 0.18865 0.87807 0.85684
 C1259 C 0.18729 0.90003 0.87651
 C1260 C 0.17778 0.92647 0.86151
 C1261 C 0.17367 0.91952 0.83183
 H1262 H 0.17445 0.94808 0.87093
 H1263 H 0.17882 0.87768 0.81010
 H1264 H 0.19588 0.85590 0.86044
 N1265 N 0.70101 0.38736 0.34068
 N1266 N 0.70973 0.37602 0.36690
 C1267 C 0.70409 0.39638 0.38762
 C1268 C 0.69112 0.42185 0.37380
 C1269 C 0.68958 0.41523 0.34400
 H1270 H 0.68399 0.44236 0.38394
 H1271 H 0.70272 0.37583 0.32102
 H1272 H 0.71984 0.35481 0.37015
 N1273 N 0.76104 0.50501 0.63680
 N1274 N 0.74863 0.49314 0.61370
 C1275 C 0.76857 0.47480 0.60071
 C1276 C 0.79485 0.47542 0.61625
 C1277 C 0.78915 0.49461 0.63901
 H1278 H 0.81494 0.46232 0.61284
 H1279 H 0.75022 0.51983 0.65080
 H1280 H 0.72675 0.49741 0.60747
 N1281 N 0.30446 0.01706 0.08536
 N1282 N 0.28979 0.00571 0.06345
 C1283 C 0.27531 -0.01724 0.07431
 C1284 C 0.28060 -0.02009 0.10472
 C1285 C 0.29949 0.00181 0.11070
 H1286 H 0.27422 -0.03751 0.11981
 H1287 H 0.31840 0.03433 0.08271
 H1288 H 0.29066 0.01311 0.04135
 N1289 N 0.27168 0.06745 0.32990
 N1290 N 0.26559 0.07750 0.35637
 C1291 C 0.28516 0.06498 0.37627
 C1292 C 0.30457 0.04585 0.36188
 C1293 C 0.29549 0.04845 0.33227
 H1294 H 0.32419 0.03430 0.37106
 H1295 H 0.26024 0.07447 0.31047
 H1296 H 0.24899 0.09362 0.36046
 N1297 N 0.81131 0.50557 0.87597
 N1298 N 0.80056 0.51516 0.90118
 C1299 C 0.80265 0.54477 0.90194
 C1300 C 0.81536 0.55430 0.87596
 C1301 C 0.82059 0.52883 0.86002
 H1302 H 0.82029 0.57667 0.86961
 H1303 H 0.81248 0.48332 0.87027
 H1304 H 0.79183 0.50141 0.91731
 N1305 N 0.13818 0.70958 0.48212
 N1306 N 0.11182 0.72013 0.48902
 C1307 C 0.10478 0.70821 0.51551
 C1308 C 0.12779 0.68901 0.52583
 C1309 C 0.14857 0.69060 0.50398
 H1310 H 0.12938 0.67605 0.54643
 H1311 H 0.14862 0.71522 0.46254
 H1312 H 0.09933 0.73582 0.47597
 N1313 N 0.62236 0.19756 0.98825
 N1314 N 0.59662 0.20677 0.99826
 C1315 C 0.59520 0.19851 1.02716
 C1316 C 0.62114 0.18294 1.03576
 C1317 C 0.63777 0.18300 1.01046
 H1318 H 0.62758 0.17399 1.05759
 H1319 H 0.62927 0.20159 0.96665
 H1320 H 0.58094 0.21962 0.98571
 N1321 N 0.84726 0.24781 0.95424
 N1322 N 0.87066 0.26015 0.94023
 C1323 C 0.88204 0.24030 0.92113
 C1324 C 0.86558 0.21531 0.92228
 C1325 C 0.84427 0.22061 0.94344
 H1326 H 0.86942 0.19516 0.91030
 H1327 H 0.83456 0.25879 0.96992
 H1328 H 0.87789 0.28085 0.94530
 N1329 N 0.33292 0.71753 0.39721
 N1330 N 0.35460 0.73171 0.38585
 C1331 C 0.37987 0.72133 0.39922
 C1332 C 0.37373 0.69952 0.42026
 C1333 C 0.34370 0.69771 0.41813
 H1334 H 0.38893 0.68625 0.43453
 H1335 H 0.31111 0.72156 0.39054
 H1336 H 0.35182 0.74760 0.36858
 N1337 N 0.59867 0.83059 0.47238
 N1338 N 0.57739 0.81555 0.46154
 C1339 C 0.58658 0.80218 0.43675
 C1340 C 0.61534 0.80889 0.43190
 C1341 C 0.62203 0.82713 0.45492
 H1342 H 0.62906 0.80259 0.41360
 H1343 H 0.59692 0.84330 0.49129
 H1344 H 0.55659 0.81569 0.47052
 N1345 N 0.10770 0.28381 -0.00495
 N1346 N 0.08615 0.27166 -0.01895
 C1347 C 0.08903 0.27612 -0.04844
 C1348 C 0.11385 0.29150 -0.05332
 C1349 C 0.12488 0.29621 -0.02517
 H1350 H 0.12167 0.29991 -0.07424
 H1351 H 0.11029 0.28373 0.01810
 H1352 H 0.06971 0.26081 -0.00819
 N1353 N 0.36542 0.31037 -0.00628
 N1354 N 0.39177 0.30062 0.00312
 C1355 C 0.39168 0.29696 0.03288
 C1356 C 0.36396 0.30479 0.04286
 C1357 C 0.34793 0.31333 0.01729
 H1358 H 0.35674 0.30493 0.06556
 H1359 H 0.35999 0.31571 -0.02846
 H1360 H 0.40942 0.29659 -0.01078
 N1361 N 0.87304 0.83277 0.46202
 N1362 N 0.89919 0.82149 0.47074
 C1363 C 0.89743 0.80985 0.49849
 C1364 C 0.86894 0.81396 0.50775
 C1365 C 0.85415 0.82878 0.48414
 H1366 H 0.86046 0.80804 0.52921
 H1367 H 0.86865 0.84400 0.44170
 H1368 H 0.91785 0.82211 0.45790
   
