data_POSCAR
  _audit_creation_date              2014-09-24
  _audit_creation_method            'ToBaCCo'
  _symmetry_space_group_name_H-M    'P1'
  _symmetry_Int_Tables_number       1
  _symmetry_cell_setting            triclinic
  loop_
  _symmetry_equiv_pos_as_xyz
 x,y,z
_cell_length_a 36.4193
_cell_length_b 36.4274
_cell_length_c 36.5086
_cell_angle_alpha 90.045800
_cell_angle_beta 90.096200
_cell_angle_gamma 89.943300
loop_
  _atom_site_label
  _atom_site_type_symbol
  _atom_site_fract_x
  _atom_site_fract_y
  _atom_site_fract_z
C1 C 0.27134 1.09361 -0.00257
 C2 C 0.27132 1.07276 0.02975
 C3 C 0.26286 1.03530 0.02755
 C4 C 0.25290 1.01840 -0.00590
 C5 C 0.25074 1.04083 -0.03743
 C6 C 0.26180 1.07788 -0.03650
 C7 C 0.24723 0.97738 -0.00794
 C8 C 0.24844 0.95811 -0.04166
 C9 C 0.24542 0.91971 -0.04276
 C10 C 0.24477 0.89981 -0.00988
 C11 C 0.24430 0.91815 0.02382
 C12 C 0.24269 0.95651 0.02436
 H13 H 0.27684 1.12284 -0.00108
 H14 H 0.26622 1.01952 0.05230
 H15 H 0.24220 1.02948 -0.06336
 H16 H 0.25159 0.97222 -0.06743
 H17 H 0.24441 0.87006 -0.01059
 H18 H 0.23896 0.96937 0.05072
 C19 C 0.74567 0.59576 0.49616
 C20 C 0.74451 0.57743 0.52971
 C21 C 0.74647 0.53907 0.53052
 C22 C 0.75158 0.51847 0.49809
 C23 C 0.75491 0.53805 0.46479
 C24 C 0.75029 0.57620 0.46357
 C25 C 0.75350 0.47716 0.49890
 C26 C 0.74988 0.45642 0.46641
 C27 C 0.75312 0.41814 0.46659
 C28 C 0.75644 0.39953 0.50003
 C29 C 0.75885 0.41930 0.53293
 C30 C 0.75839 0.45775 0.53208
 H31 H 0.74342 0.62544 0.49549
 H32 H 0.74416 0.52614 0.55694
 H33 H 0.76124 0.52440 0.43933
 H34 H 0.74446 0.46928 0.44035
 H35 H 0.75753 0.36980 0.50044
 H36 H 0.76174 0.47173 0.55789
 C37 C 0.75089 0.99992 1.09699
 C38 C 0.75607 0.96693 1.07798
 C39 C 0.75506 0.96681 1.03956
 C40 C 0.74946 0.99959 1.01964
 C41 C 0.74309 1.03220 1.03975
 C42 C 0.74357 1.03257 1.07813
 C43 C 0.75030 1.00013 0.97837
 C44 C 0.75324 1.03370 0.95930
 C45 C 0.75124 1.03509 0.92115
 C46 C 0.75106 1.00246 0.90098
 C47 C 0.75079 0.96850 0.91894
 C48 C 0.74844 0.96750 0.95733
 H49 H 0.75193 1.00004 1.12670
 H50 H 0.76056 0.94112 1.02588
 H51 H 0.73565 1.05746 1.02623
 H52 H 0.75690 1.05950 0.97335
 H53 H 0.75121 1.00349 0.87131
 H54 H 0.74538 0.94095 0.97000
 C55 C 0.24085 0.49392 0.58960
 C56 C 0.23881 0.46098 0.57007
 C57 C 0.24135 0.46141 0.53176
 C58 C 0.24761 0.49455 0.51240
 C59 C 0.25035 0.52729 0.53313
 C60 C 0.24596 0.52705 0.57119
 C61 C 0.25113 0.49500 0.47120
 C62 C 0.24867 0.52815 0.45115
 C63 C 0.25303 0.52883 0.41299
 C64 C 0.25606 0.49553 0.39380
 C65 C 0.25673 0.46204 0.41278
 C66 C 0.25648 0.46221 0.45118
 H67 H 0.23876 0.49375 0.61922
 H68 H 0.23787 0.43554 0.51781
 H69 H 0.25648 0.55334 0.52053
 H70 H 0.24318 0.55401 0.46447
 H71 H 0.25754 0.49565 0.36416
 H72 H 0.25988 0.43611 0.46469
 C73 C 1.10024 0.24946 0.00163
 C74 C 1.08261 0.24310 0.03515
 C75 C 1.04406 0.24636 0.03678
 C76 C 1.02304 0.25533 0.00531
 C77 C 1.04215 0.26239 -0.02759
 C78 C 1.08024 0.25847 -0.02972
 C79 C 0.98161 0.25462 0.00588
 C80 C 0.96135 0.25120 -0.02710
 C81 C 0.92300 0.24735 -0.02719
 C82 C 0.90446 0.24668 0.00649
 C83 C 0.92371 0.24956 0.03953
 C84 C 0.96182 0.25483 0.03918
 H85 H 1.12992 0.24786 -0.00020
 H86 H 1.03083 0.23947 0.06229
 H87 H 1.02801 0.27037 -0.05231
 H88 H 0.97499 0.24878 -0.05318
 H89 H 0.87481 0.24401 0.00717
 H90 H 0.97549 0.25826 0.06522
 C91 C 0.59262 0.75683 0.49679
 C92 C 0.57367 0.76152 0.52971
 C93 C 0.53524 0.76295 0.52962
 C94 C 0.51520 0.75782 0.49689
 C95 C 0.53505 0.75213 0.46413
 C96 C 0.57342 0.75239 0.46394
 C97 C 0.47404 0.75715 0.49698
 C98 C 0.45417 0.76278 0.46428
 C99 C 0.41612 0.75830 0.46316
 C100 C 0.39677 0.75264 0.49571
 C101 C 0.41564 0.74747 0.52891
 C102 C 0.45413 0.74910 0.52921
 H103 H 0.62239 0.75613 0.49679
 H104 H 0.52153 0.76775 0.55540
 H105 H 0.52133 0.74633 0.43853
 H106 H 0.46780 0.76970 0.43897
 H107 H 0.36709 0.75060 0.49489
 H108 H 0.46806 0.74279 0.55457
 C109 C -0.00432 0.76172 -0.09987
 C110 C 0.02876 0.76514 -0.08093
 C111 C 0.02836 0.77121 -0.04323
 C112 C -0.00444 0.76830 -0.02282
 C113 C -0.03771 0.76419 -0.04260
 C114 C -0.03794 0.76151 -0.08114
 C115 C -0.00323 0.76712 0.01849
 C116 C -0.03540 0.76967 0.04005
 C117 C -0.03438 0.76448 0.07833
 C118 C -0.00005 0.76103 0.09565
 C119 C 0.03214 0.75892 0.07504
 C120 C 0.03036 0.76111 0.03696
 H121 H -0.00373 0.75765 -0.12930
 H122 H 0.05445 0.77694 -0.03049
 H123 H -0.06377 0.76352 -0.02868
 H124 H -0.06167 0.77563 0.02772
 H125 H 0.00168 0.75783 0.12513
 H126 H 0.05585 0.75730 0.02253
 C127 C 0.50145 0.25259 0.40878
 C128 C 0.53454 0.25670 0.42771
 C129 C 0.53477 0.25594 0.46600
 C130 C 0.50235 0.24879 0.48598
 C131 C 0.46957 0.24297 0.46597
 C132 C 0.46872 0.24691 0.42783
 C133 C 0.50258 0.24805 0.52715
 C134 C 0.46968 0.25154 0.54723
 C135 C 0.46947 0.24958 0.58553
 C136 C 0.50294 0.24790 0.60461
 C137 C 0.53618 0.24555 0.58533
 C138 C 0.53569 0.24442 0.54699
 H139 H 0.50114 0.25409 0.37911
 H140 H 0.56054 0.26157 0.47948
 H141 H 0.44419 0.23578 0.47938
 H142 H 0.44363 0.25583 0.53375
 H143 H 0.50310 0.24792 0.63429
 H144 H 0.56167 0.24084 0.53330
 C145 C 1.10265 -0.00439 0.24612
 C146 C 1.08616 0.03004 0.25215
 C147 C 1.04752 0.03220 0.25334
 C148 C 1.02536 0.00056 0.24910
 C149 C 1.04294 -0.03316 0.24181
 C150 C 1.08117 -0.03586 0.24102
 C151 C 0.98440 0.00238 0.25394
 C152 C 0.96403 -0.02917 0.26412
 C153 C 0.92577 -0.02766 0.26993
 C154 C 0.90842 0.00670 0.26655
 C155 C 0.92735 0.03757 0.25425
 C156 C 0.96518 0.03554 0.24815
 H157 H 1.13230 -0.00673 0.24465
 H158 H 1.03514 0.05839 0.25985
 H159 H 1.02738 -0.05779 0.23631
 H160 H 0.97750 -0.05541 0.26606
 H161 H 0.87939 0.00959 0.27245
 H162 H 0.97901 0.05967 0.23786
 C163 C 0.60141 0.50539 0.73957
 C164 C 0.58135 0.53815 0.73696
 C165 C 0.54292 0.53710 0.73849
 C166 C 0.52395 0.50379 0.74420
 C167 C 0.54505 0.47137 0.74777
 C168 C 0.58331 0.47195 0.74478
 C169 C 0.48282 0.50281 0.74821
 C170 C 0.46365 0.46922 0.74551
 C171 C 0.42590 0.46757 0.75160
 C172 C 0.40639 0.49939 0.75979
 C173 C 0.42379 0.53358 0.75959
 C174 C 0.46195 0.53513 0.75430
 H175 H 0.63115 0.50604 0.73858
 H176 H 0.52862 0.56286 0.73586
 H177 H 0.53256 0.44534 0.75431
 H178 H 0.47718 0.44410 0.73748
 H179 H 0.37697 0.49769 0.76400
 H180 H 0.47450 0.56187 0.75447
 C181 C 1.00263 1.10050 0.75977
 C182 C 0.96890 1.08179 0.75843
 C183 C 0.96904 1.04389 0.75155
 C184 C 1.00193 1.02431 0.74501
 C185 C 1.03516 1.04432 0.74520
 C186 C 1.03570 1.08179 0.75379
 C187 C 1.00134 0.98321 0.74000
 C188 C 1.03349 0.96168 0.74413
 C189 C 1.03244 0.92307 0.74154
 C190 C 0.99852 0.90592 0.73530
 C191 C 0.96650 0.92651 0.73128
 C192 C 0.96809 0.96473 0.73243
 H193 H 1.00327 1.12984 0.76476
 H194 H 0.94306 1.02991 0.75365
 H195 H 1.06113 1.03137 0.73925
 H196 H 1.05977 0.97441 0.74877
 H197 H 0.99667 0.87620 0.73471
 H198 H 0.94285 0.97931 0.72711
 C199 C 0.50487 0.60172 0.24986
 C200 C 0.47165 0.58273 0.24568
 C201 C 0.47161 0.54434 0.24534
 C202 C 0.50418 0.52417 0.25096
 C203 C 0.53713 0.54394 0.25650
 C204 C 0.53788 0.58238 0.25414
 C205 C 0.50389 0.48294 0.24961
 C206 C 0.53637 0.46312 0.24218
 C207 C 0.53640 0.42473 0.24105
 C208 C 0.50350 0.40555 0.24586
 C209 C 0.47070 0.42449 0.25222
 C210 C 0.47108 0.46285 0.25494
 H211 H 0.50510 0.63146 0.24887
 H212 H 0.44587 0.53075 0.23964
 H213 H 0.56276 0.53000 0.26196
 H214 H 0.56194 0.47700 0.23657
 H215 H 0.50342 0.37580 0.24478
 H216 H 0.44562 0.47639 0.26185
 O217 O 0.26813 0.14777 0.19200
 O218 O 0.31112 0.14192 0.24517
 O219 O 0.17005 0.18741 0.24557
 O220 O 0.15384 0.23647 0.27855
 O221 O 0.21474 0.23821 0.14717
 O222 O 0.26351 0.28514 0.13999
 O223 O 0.26016 0.29597 0.33702
 O224 O 0.21685 0.24660 0.34572
 O225 O 0.35529 0.24467 0.29789
 O226 O 0.37001 0.20504 0.24506
 O227 O 0.31121 0.33904 0.24567
 O228 O 0.25812 0.34529 0.19893
 O229 O 0.26030 0.33873 0.29160
 O230 O 0.22111 0.34924 0.24099
 O231 O 0.35587 0.29579 0.25157
 O232 O 0.37080 0.24515 0.20746
 O233 O 0.30987 0.24578 0.34057
 O234 O 0.26391 0.20417 0.35009
 O235 O 0.27287 0.19270 0.14904
 O236 O 0.30390 0.24570 0.13673
 O237 O 0.16919 0.23564 0.18964
 O238 O 0.15731 0.28052 0.23763
 O239 O 0.21647 0.14565 0.24774
 O240 O 0.26816 0.13214 0.27883
 Zr241 Zr 0.26470 0.17686 0.24221
 O242 O 0.29563 0.20986 0.27814
 Zr243 Zr 0.19730 0.23831 0.24014
 O244 O 0.22651 0.27486 0.27454
 Zr245 Zr 0.26359 0.24129 0.17796
 O246 O 0.29658 0.27639 0.21002
 Zr247 Zr 0.26166 0.24499 0.30894
 O248 O 0.23008 0.20791 0.27701
 Zr249 Zr 0.32828 0.24549 0.24699
 O250 O 0.29960 0.21030 0.21088
 Zr251 Zr 0.26204 0.30806 0.24328
 O252 O 0.22870 0.27523 0.20861
 O253 O 0.23012 0.20526 0.20709
 O254 O 0.29603 0.27964 0.27946
 C255 C 0.27314 0.15896 0.15893
 C256 C 0.18230 0.15443 0.24917
 C257 C 0.18076 0.23580 0.15639
 C258 C 0.25995 0.32941 0.32540
 C259 C 0.34380 0.24531 0.33113
 C260 C 0.34485 0.32922 0.25039
 H261 H 0.31036 0.19374 0.29426
 H262 H 0.31204 0.29183 0.19403
 H263 H 0.21578 0.18797 0.19179
 H264 H 0.20918 0.28985 0.28904
 H265 H 0.19992 0.22669 0.33829
 H266 H 0.16013 0.25325 0.29892
 H267 H 0.36831 0.26748 0.19225
 H268 H 0.32761 0.24048 0.14892
 H269 H 0.24767 0.18400 0.34190
 H270 H 0.27187 0.14271 0.30350
 H271 H 0.28163 0.34460 0.18539
 H272 H 0.24180 0.30054 0.14558
 H273 H 0.32744 0.14852 0.22453
 H274 H 0.36476 0.18681 0.26442
 H275 H 0.16505 0.29774 0.21815
 H276 H 0.19951 0.33990 0.25441
 O277 O 0.75676 0.85312 0.20651
 O278 O 0.70629 0.85798 0.25565
 O279 O 0.84673 0.81037 0.26278
 O280 O 0.86052 0.75856 0.29615
 O281 O 0.80635 0.75921 0.16158
 O282 O 0.75381 0.71852 0.14979
 O283 O 0.75218 0.70427 0.34870
 O284 O 0.79262 0.75303 0.36079
 O285 O 0.65706 0.75434 0.30462
 O286 O 0.64922 0.79995 0.25099
 O287 O 0.70173 0.66260 0.25314
 O288 O 0.75503 0.65109 0.21349
 O289 O 0.75202 0.66118 0.30361
 O290 O 0.79447 0.65221 0.25074
 O291 O 0.65778 0.70700 0.25461
 O292 O 0.64521 0.75664 0.21526
 O293 O 0.70078 0.74957 0.34896
 O294 O 0.74450 0.79516 0.36169
 O295 O 0.75566 0.81035 0.16104
 O296 O 0.71490 0.76081 0.14860
 O297 O 0.84895 0.76015 0.20713
 O298 O 0.85759 0.71657 0.25642
 O299 O 0.80040 0.85183 0.26777
 O300 O 0.74856 0.86813 0.29164
 Zr301 Zr 0.75262 0.82281 0.25571
 O302 O 0.71866 0.79047 0.28924
 Zr303 Zr 0.81853 0.75966 0.25611
 O304 O 0.78665 0.72379 0.28829
 Zr305 Zr 0.75577 0.76034 0.18979
 O306 O 0.72073 0.72530 0.21966
 Zr307 Zr 0.75050 0.75440 0.32080
 O308 O 0.78485 0.79062 0.29162
 Zr309 Zr 0.68729 0.75619 0.25527
 O310 O 0.71869 0.79144 0.22134
 Zr311 Zr 0.75211 0.69185 0.25465
 O312 O 0.78762 0.72445 0.22190
 O313 O 0.78864 0.79409 0.22213
 O314 O 0.71697 0.72077 0.28906
 C315 C 0.75714 0.84362 0.17253
 C316 C 0.83455 0.84327 0.26786
 C317 C 0.83976 0.75912 0.17311
 C318 C 0.75211 0.67089 0.33744
 C319 C 0.66728 0.75040 0.33811
 C320 C 0.66799 0.67335 0.25383
 H321 H 0.70327 0.80635 0.30495
 H322 H 0.70584 0.71049 0.20249
 H323 H 0.80543 0.81027 0.20834
 H324 H 0.80312 0.70846 0.30346
 H325 H 0.80967 0.77337 0.35504
 H326 H 0.85063 0.74597 0.31796
 H327 H 0.65467 0.74350 0.19353
 H328 H 0.69531 0.77759 0.15721
 H329 H 0.76151 0.81527 0.35516
 H330 H 0.74219 0.85811 0.31596
 H331 H 0.73849 0.65875 0.19344
 H332 H 0.77017 0.69881 0.15879
 H333 H 0.69382 0.85484 0.23173
 H334 H 0.64980 0.81384 0.27428
 H335 H 0.84999 0.69887 0.23728
 H336 H 0.81187 0.65666 0.27110
 O337 O 0.75167 0.15837 0.80257
 O338 O 0.71534 0.14721 0.75112
 O339 O 0.84986 0.20425 0.75966
 O340 O 0.86338 0.25399 0.72078
 O341 O 0.79947 0.25189 0.85218
 O342 O 0.75037 0.29239 0.86179
 O343 O 0.75415 0.30241 0.65827
 O344 O 0.79315 0.25621 0.64571
 O345 O 0.66002 0.25721 0.70228
 O346 O 0.64506 0.21886 0.75146
 O347 O 0.70661 0.35079 0.75210
 O348 O 0.75405 0.36441 0.78891
 O349 O 0.75752 0.34783 0.70091
 O350 O 0.79947 0.35635 0.75862
 O351 O 0.66099 0.30824 0.75038
 O352 O 0.64930 0.25421 0.79393
 O353 O 0.70427 0.25143 0.65878
 O354 O 0.76282 0.20980 0.65235
 O355 O 0.74714 0.20149 0.84756
 O356 O 0.70705 0.25640 0.85596
 O357 O 0.84635 0.25374 0.81106
 O358 O 0.85810 0.29690 0.75894
 O359 O 0.80642 0.15942 0.75663
 O360 O 0.75630 0.15068 0.71065
 Zr361 Zr 0.75577 0.18866 0.75451
 O362 O 0.72121 0.22020 0.72063
 Zr363 Zr 0.81986 0.25323 0.75899
 O364 O 0.79002 0.28602 0.72170
 Zr365 Zr 0.75209 0.25250 0.81973
 O366 O 0.72110 0.28859 0.78703
 Zr367 Zr 0.75450 0.25418 0.68878
 O368 O 0.78974 0.22090 0.72117
 Zr369 Zr 0.68881 0.25701 0.75154
 O370 O 0.71836 0.22042 0.78577
 Zr371 Zr 0.75484 0.31979 0.75198
 O372 O 0.78633 0.28856 0.78980
 O373 O 0.78755 0.21889 0.79068
 O374 O 0.72024 0.29019 0.71721
 C375 C 0.74841 0.16798 0.83611
 C376 C 0.84000 0.17048 0.75923
 C377 C 0.83369 0.25184 0.84404
 C378 C 0.75628 0.33619 0.66754
 C379 C 0.67043 0.25368 0.66906
 C380 C 0.67271 0.34156 0.75167
 H381 H 0.70613 0.20336 0.70561
 H382 H 0.70628 0.30448 0.80323
 H383 H 0.80202 0.20286 0.80705
 H384 H 0.80733 0.30033 0.70655
 H385 H 0.81706 0.26236 0.65698
 H386 H 0.85583 0.23779 0.70033
 H387 H 0.65102 0.27704 0.80853
 H388 H 0.68910 0.23764 0.84806
 H389 H 0.74134 0.19342 0.65454
 H390 H 0.77858 0.15580 0.69600
 H391 H 0.74900 0.35383 0.81331
 H392 H 0.76807 0.31179 0.85489
 H393 H 0.69394 0.15630 0.76514
 H394 H 0.65350 0.19697 0.73782
 H395 H 0.85188 0.31295 0.77994
 H396 H 0.81613 0.35281 0.73759
 O397 O 0.24246 0.83923 0.79384
 O398 O 0.28739 0.84370 0.74142
 O399 O 0.14742 0.79465 0.74166
 O400 O 0.13396 0.74610 0.70516
 O401 O 0.19014 0.74583 0.83894
 O402 O 0.24362 0.70273 0.84837
 O403 O 0.23936 0.68753 0.65211
 O404 O 0.19559 0.73854 0.64246
 O405 O 0.33461 0.73605 0.69025
 O406 O 0.34282 0.78737 0.73521
 O407 O 0.29257 0.64926 0.74965
 O408 O 0.23729 0.64027 0.79011
 O409 O 0.24550 0.64590 0.69814
 O410 O 0.20323 0.63470 0.74723
 O411 O 0.33747 0.69260 0.74678
 O412 O 0.34816 0.74436 0.78250
 O413 O 0.28891 0.73769 0.64780
 O414 O 0.24266 0.77616 0.63437
 O415 O 0.24216 0.79556 0.83845
 O416 O 0.27974 0.74895 0.85232
 O417 O 0.14632 0.74625 0.79442
 O418 O 0.13681 0.70147 0.74712
 O419 O 0.19147 0.83913 0.74277
 O420 O 0.23960 0.84815 0.70128
 Zr421 Zr 0.24083 0.80882 0.74397
 O422 O 0.27338 0.77557 0.70940
 Zr423 Zr 0.17581 0.74454 0.74546
 O424 O 0.20643 0.70820 0.71276
 Zr425 Zr 0.24044 0.74590 0.80978
 O426 O 0.27508 0.71158 0.77898
 Zr427 Zr 0.24086 0.73895 0.67887
 O428 O 0.20787 0.77582 0.70926
 Zr429 Zr 0.30713 0.74173 0.74150
 O430 O 0.27637 0.77697 0.77661
 Zr431 Zr 0.24242 0.67756 0.74598
 O432 O 0.20743 0.70985 0.77925
 O433 O 0.20677 0.77916 0.77839
 O434 O 0.27607 0.70583 0.70958
 C435 C 0.24228 0.82904 0.82770
 C436 C 0.15781 0.82841 0.74189
 C437 C 0.15647 0.74661 0.82803
 C438 C 0.24326 0.65458 0.66420
 C439 C 0.32282 0.73553 0.65684
 C440 C 0.32642 0.65919 0.75016
 H441 H 0.28834 0.79134 0.69320
 H442 H 0.29058 0.69762 0.79634
 H443 H 0.19129 0.79549 0.79348
 H444 H 0.18982 0.69238 0.69828
 H445 H 0.17995 0.75989 0.64881
 H446 H 0.14025 0.72797 0.68598
 H447 H 0.34170 0.76518 0.79872
 H448 H 0.30339 0.74100 0.84169
 H449 H 0.25136 0.79991 0.64412
 H450 H 0.22190 0.83910 0.68276
 H451 H 0.25859 0.64398 0.80657
 H452 H 0.22327 0.68571 0.84264
 H453 H 0.28002 0.86861 0.74961
 H454 H 0.36751 0.77799 0.72860
 H455 H 0.14574 0.68349 0.76541
 H456 H 0.18277 0.64169 0.73083
 O457 O 0.24231 0.34779 0.69884
 O458 O 0.20884 0.36263 0.75256
 O459 O 0.34395 0.30835 0.75248
 O460 O 0.35637 0.26341 0.79336
 O461 O 0.30220 0.25154 0.65929
 O462 O 0.25044 0.21032 0.65005
 O463 O 0.25226 0.20971 0.85030
 O464 O 0.29272 0.26241 0.85675
 O465 O 0.15518 0.25781 0.80513
 O466 O 0.14513 0.29697 0.74697
 O467 O 0.19899 0.16098 0.75840
 O468 O 0.25199 0.14825 0.71774
 O469 O 0.24954 0.16341 0.80850
 O470 O 0.29054 0.14990 0.75670
 O471 O 0.15489 0.20524 0.75767
 O472 O 0.14104 0.25227 0.71601
 O473 O 0.20000 0.25655 0.84859
 O474 O 0.24391 0.29868 0.85997
 O475 O 0.24793 0.30260 0.65609
 O476 O 0.20980 0.25022 0.64742
 O477 O 0.34527 0.25566 0.70437
 O478 O 0.35408 0.21524 0.75585
 O479 O 0.29886 0.35125 0.74636
 O480 O 0.24999 0.36371 0.78934
 Zr481 Zr 0.24968 0.32151 0.74949
 O482 O 0.21614 0.29146 0.78533
 Zr483 Zr 0.31509 0.25831 0.75279
 O484 O 0.28415 0.22477 0.78801
 Zr485 Zr 0.25127 0.25427 0.68779
 O486 O 0.21688 0.22144 0.72081
 Zr487 Zr 0.24883 0.25787 0.81895
 O488 O 0.28270 0.29208 0.78664
 Zr489 Zr 0.18408 0.25459 0.75494
 O490 O 0.21486 0.28749 0.71840
 Zr491 Zr 0.24895 0.19053 0.75746
 O492 O 0.28373 0.22072 0.72180
 O493 O 0.28433 0.29026 0.71679
 O494 O 0.21447 0.22175 0.79073
 C495 C 0.24281 0.33620 0.66563
 C496 C 0.33269 0.34154 0.74847
 C497 C 0.33578 0.25269 0.67073
 C498 C 0.25216 0.17560 0.84144
 C499 C 0.16634 0.25760 0.83858
 C500 C 0.16534 0.17169 0.75845
 H501 H 0.20092 0.30864 0.79980
 H502 H 0.20176 0.20553 0.70488
 H503 H 0.29925 0.30536 0.69994
 H504 H 0.30111 0.21062 0.80370
 H505 H 0.30813 0.28335 0.84883
 H506 H 0.34880 0.24854 0.81469
 H507 H 0.14965 0.23697 0.69535
 H508 H 0.18958 0.26652 0.65548
 H509 H 0.23953 0.32220 0.84730
 H510 H 0.27036 0.35824 0.80650
 H511 H 0.23165 0.15191 0.70012
 H512 H 0.26559 0.19064 0.66101
 H513 H 0.18714 0.35285 0.73957
 H514 H 0.14648 0.31351 0.76840
 H515 H 0.34625 0.19623 0.73810
 H516 H 0.30911 0.15670 0.77530
 O517 O 0.74932 0.65989 0.69082
 O518 O 0.79506 0.65348 0.74176
 O519 O 0.65591 0.70460 0.74186
 O520 O 0.64438 0.75209 0.78134
 O521 O 0.69974 0.75577 0.64657
 O522 O 0.75125 0.79584 0.63583
 O523 O 0.75387 0.80859 0.83485
 O524 O 0.70915 0.76063 0.84487
 O525 O 0.84571 0.75662 0.79145
 O526 O 0.85102 0.70843 0.73694
 O527 O 0.80420 0.84889 0.73890
 O528 O 0.75000 0.85973 0.69782
 O529 O 0.75448 0.85140 0.78957
 O530 O 0.71391 0.86353 0.73867
 O531 O 0.84699 0.80334 0.73696
 O532 O 0.86132 0.75350 0.70529
 O533 O 0.80240 0.75743 0.83617
 O534 O 0.75246 0.71888 0.84936
 O535 O 0.74962 0.70395 0.64663
 O536 O 0.79052 0.75407 0.63471
 O537 O 0.65564 0.75826 0.69067
 O538 O 0.64617 0.79780 0.74146
 O539 O 0.70037 0.66046 0.74198
 O540 O 0.74818 0.65012 0.78284
 Zr541 Zr 0.74951 0.68985 0.74049
 O542 O 0.78375 0.72134 0.77486
 Zr543 Zr 0.68527 0.75483 0.74029
 O544 O 0.71757 0.78973 0.77360
 Zr545 Zr 0.74935 0.75362 0.67552
 O546 O 0.78457 0.78703 0.70611
 Zr547 Zr 0.75267 0.75810 0.80663
 O548 O 0.71776 0.72290 0.77597
 Zr549 Zr 0.81646 0.75498 0.74181
 O550 O 0.78485 0.72088 0.70710
 Zr551 Zr 0.75345 0.82091 0.74082
 O552 O 0.71755 0.78972 0.70734
 O553 O 0.71529 0.72040 0.70649
 O554 O 0.78768 0.79107 0.77572
 C555 C 0.74940 0.67038 0.65718
 C556 C 0.66673 0.67087 0.74228
 C557 C 0.66627 0.75818 0.65710
 C558 C 0.75440 0.84194 0.82338
 C559 C 0.83590 0.75695 0.82522
 C560 C 0.83741 0.83721 0.73620
 H561 H 0.79874 0.70477 0.79026
 H562 H 0.79987 0.80103 0.68874
 H563 H 0.69914 0.70504 0.69097
 H564 H 0.70141 0.80546 0.78867
 H565 H 0.69150 0.74107 0.83814
 H566 H 0.65129 0.76948 0.80101
 H567 H 0.85096 0.75767 0.68061
 H568 H 0.80862 0.73495 0.64148
 H569 H 0.76187 0.69569 0.83900
 H570 H 0.73011 0.65867 0.80122
 H571 H 0.77042 0.85482 0.68065
 H572 H 0.73328 0.81473 0.64354
 H573 H 0.78677 0.62877 0.73386
 H574 H 0.85407 0.69763 0.76162
 H575 H 0.65706 0.81840 0.72765
 H576 H 0.69540 0.85872 0.75788
 O577 O 0.25196 0.65174 0.29175
 O578 O 0.21544 0.63887 0.24129
 O579 O 0.34711 0.70184 0.24067
 O580 O 0.36212 0.75175 0.21154
 O581 O 0.29667 0.75101 0.33939
 O582 O 0.24510 0.78525 0.35031
 O583 O 0.24761 0.79518 0.14590
 O584 O 0.29078 0.74989 0.13634
 O585 O 0.15542 0.74770 0.19190
 O586 O 0.14210 0.70819 0.24084
 O587 O 0.19863 0.84165 0.23581
 O588 O 0.24440 0.85785 0.27637
 O589 O 0.24983 0.84076 0.18845
 O590 O 0.29080 0.85161 0.24686
 O591 O 0.15459 0.79762 0.23945
 O592 O 0.14666 0.74304 0.28450
 O593 O 0.19913 0.74671 0.14742
 O594 O 0.25307 0.70341 0.13868
 O595 O 0.24932 0.69503 0.33665
 O596 O 0.20370 0.74644 0.34401
 O597 O 0.34266 0.75102 0.29731
 O598 O 0.35011 0.79600 0.24435
 O599 O 0.30572 0.65510 0.24259
 O600 O 0.25437 0.64387 0.19957
 Zr601 Zr 0.25410 0.68205 0.24325
 O602 O 0.21795 0.71216 0.20962
 Zr603 Zr 0.31553 0.74934 0.24584
 O604 O 0.28411 0.78073 0.20876
 Zr605 Zr 0.24911 0.74589 0.30796
 O606 O 0.21610 0.78083 0.27560
 Zr607 Zr 0.24941 0.74719 0.17680
 O608 O 0.28601 0.71548 0.20894
 Zr609 Zr 0.18465 0.74767 0.24092
 O610 O 0.21605 0.71238 0.27484
 Zr611 Zr 0.24806 0.81303 0.23971
 O612 O 0.28115 0.78321 0.27720
 O613 O 0.28586 0.71355 0.27866
 O614 O 0.21442 0.78165 0.20600
 C615 C 0.25025 0.66141 0.32544
 C616 C 0.33865 0.66775 0.24023
 C617 C 0.33058 0.75227 0.33044
 C618 C 0.24855 0.82906 0.15508
 C619 C 0.16554 0.74774 0.15838
 C620 C 0.16512 0.83120 0.23626
 H621 H 0.20289 0.69508 0.19490
 H622 H 0.20058 0.79628 0.29160
 H623 H 0.30195 0.69834 0.29442
 H624 H 0.30067 0.79552 0.19321
 H625 H 0.31175 0.73529 0.14562
 H626 H 0.35281 0.75523 0.18633
 H627 H 0.14678 0.76647 0.29822
 H628 H 0.18870 0.72453 0.33823
 H629 H 0.23253 0.68636 0.14328
 H630 H 0.27444 0.65123 0.18286
 H631 H 0.23366 0.84837 0.29933
 H632 H 0.25741 0.80763 0.34111
 H633 H 0.19367 0.64753 0.25503
 H634 H 0.15137 0.68638 0.22763
 H635 H 0.34540 0.81028 0.26696
 H636 H 0.30742 0.84916 0.22565
 O637 O 0.74888 0.34095 0.30145
 O638 O 0.78862 0.35065 0.24830
 O639 O 0.65269 0.29806 0.24124
 O640 O 0.63577 0.24689 0.21346
 O641 O 0.69388 0.24926 0.34487
 O642 O 0.74384 0.20395 0.35400
 O643 O 0.74285 0.19268 0.15649
 O644 O 0.70222 0.24505 0.14683
 O645 O 0.84047 0.24330 0.19892
 O646 O 0.84881 0.28824 0.24723
 O647 O 0.79555 0.15132 0.24678
 O648 O 0.74314 0.14389 0.29534
 O649 O 0.74025 0.15015 0.20198
 O650 O 0.70765 0.13697 0.25377
 O651 O 0.84083 0.19432 0.24694
 O652 O 0.85004 0.23844 0.29172
 O653 O 0.79579 0.24055 0.15532
 O654 O 0.75019 0.28160 0.14115
 O655 O 0.74695 0.29638 0.34510
 O656 O 0.78414 0.24373 0.35731
 O657 O 0.65054 0.25329 0.30011
 O658 O 0.64112 0.20534 0.25187
 O659 O 0.69647 0.34208 0.24787
 O660 O 0.74829 0.35221 0.20973
 Zr661 Zr 0.74582 0.31168 0.25106
 O662 O 0.77875 0.27879 0.21672
 Zr663 Zr 0.68003 0.24852 0.25099
 O664 O 0.71054 0.21281 0.21777
 Zr665 Zr 0.74393 0.24742 0.31562
 O666 O 0.77840 0.21294 0.28452
 Zr667 Zr 0.74630 0.24332 0.18462
 O668 O 0.71300 0.27977 0.21530
 Zr669 Zr 0.81124 0.24377 0.24875
 O670 O 0.78075 0.27901 0.28381
 Zr671 Zr 0.74563 0.18051 0.25035
 O672 O 0.71065 0.21248 0.28407
 O673 O 0.71091 0.28243 0.28480
 O674 O 0.78027 0.20908 0.21520
 C675 C 0.74887 0.32999 0.33509
 C676 C 0.66326 0.33162 0.24197
 C677 C 0.66050 0.25280 0.33383
 C678 C 0.73958 0.15949 0.16811
 C679 C 0.82951 0.24171 0.16551
 C680 C 0.82949 0.16097 0.24551
 H681 H 0.79434 0.29493 0.20152
 H682 H 0.79381 0.19792 0.30107
 H683 H 0.69589 0.29964 0.29943
 H684 H 0.69308 0.19784 0.20336
 H685 H 0.68665 0.26632 0.15362
 H686 H 0.64553 0.23734 0.19008
 H687 H 0.84712 0.26023 0.30763
 H688 H 0.80385 0.26120 0.35086
 H689 H 0.76028 0.30456 0.15143
 H690 H 0.73129 0.34425 0.19008
 H691 H 0.76779 0.14263 0.30670
 H692 H 0.72304 0.18770 0.34752
 H693 H 0.80884 0.34082 0.26348
 H694 H 0.87387 0.27804 0.24400
 H695 H 0.64454 0.19189 0.27519
 H696 H 0.68313 0.14825 0.25104
 C697 C 0.25290 0.10380 0.12477
 C698 C 0.25252 0.08273 0.09284
 C699 C 0.27755 0.08956 0.06422
 C700 C 0.30656 0.11491 0.07059
 C701 C 0.30706 0.13603 0.10322
 C702 C 0.27874 0.13178 0.12943
 C703 C 0.33664 0.16017 0.10912
 N704 N 0.36396 0.16264 0.08409
 N705 N 0.36397 0.14223 0.05385
 C706 C 0.33651 0.11822 0.04649
 H707 H 0.23131 0.09990 0.14478
 H708 H 0.23039 0.06317 0.08927
 H709 H 0.33897 0.17615 0.13396
 H710 H 0.33906 0.10095 0.02265
 C711 C 0.77565 0.64477 0.60101
 C712 C 0.77391 0.62308 0.56979
 C713 C 0.74459 0.59887 0.56415
 C714 C 0.71671 0.59599 0.59105
 C715 C 0.71879 0.61779 0.62326
 C716 C 0.74841 0.64263 0.62789
 C717 C 0.69023 0.61500 0.64896
 N718 N 0.66179 0.59180 0.64280
 N719 N 0.65967 0.57163 0.61245
 C720 C 0.68597 0.57312 0.58627
 H721 H 0.79820 0.66395 0.60394
 H722 H 0.79551 0.62551 0.54956
 H723 H 0.69003 0.63111 0.67374
 H724 H 0.68229 0.55675 0.56184
 C725 C 0.73482 0.87605 0.11719
 C726 C 0.73516 0.90595 0.09334
 C727 C 0.76103 0.93422 0.09767
 C728 C 0.78981 0.92986 0.12354
 C729 C 0.79037 0.89856 0.14650
 C730 C 0.76113 0.87299 0.14502
 C731 C 0.82104 0.89312 0.16924
 N732 N 0.84875 0.91796 0.16954
 N733 N 0.84788 0.94784 0.14862
 C734 C 0.81943 0.95466 0.12564
 H735 H 0.71298 0.85600 0.11489
 H736 H 0.71334 0.90838 0.07325
 H737 H 0.82367 0.86900 0.18621
 H738 H 0.82087 0.97871 0.10837
 C739 C 0.26604 0.37064 0.61212
 C740 C 0.26509 0.40122 0.58914
 C741 C 0.23552 0.42591 0.59029
 C742 C 0.20509 0.41812 0.61307
 C743 C 0.20600 0.38699 0.63629
 C744 C 0.23745 0.36406 0.63684
 C745 C 0.17510 0.37966 0.65813
 N746 N 0.14561 0.40238 0.65699
 N747 N 0.14488 0.43180 0.63537
 C748 C 0.17353 0.44041 0.61332
 H749 H 0.29020 0.35326 0.61215
 H750 H 0.28851 0.40674 0.57173
 H751 H 0.17382 0.35566 0.67548
 H752 H 0.17116 0.46426 0.59585
 C753 C 0.77830 0.11243 0.85906
 C754 C 0.77872 0.07981 0.87867
 C755 C 0.74994 0.07101 0.90232
 C756 C 0.72045 0.09618 0.90694
 C757 C 0.72020 0.12967 0.88704
 C758 C 0.74919 0.13745 0.86254
 C759 C 0.69004 0.15339 0.89119
 N760 N 0.66219 0.14423 0.91401
 N761 N 0.66228 0.11279 0.93258
 C762 C 0.69027 0.08838 0.92968
 H763 H 0.80065 0.11790 0.84025
 H764 H 0.80149 0.06100 0.87498
 H765 H 0.68817 0.17893 0.87641
 H766 H 0.68831 0.06300 0.94482
 C767 C 0.22404 0.60288 0.34667
 C768 C 0.22536 0.57040 0.36675
 C769 C 0.25276 0.56453 0.39305
 C770 C 0.27920 0.59257 0.39945
 C771 C 0.27769 0.62588 0.37906
 C772 C 0.24991 0.63086 0.35224
 C773 C 0.30517 0.65233 0.38514
 N774 N 0.33198 0.64599 0.41015
 N775 N 0.33348 0.61485 0.42915
 C776 C 0.30823 0.58790 0.42452
 H777 H 0.20299 0.60590 0.32587
 H778 H 0.20494 0.54943 0.36146
 H779 H 0.30585 0.67787 0.37018
 H780 H 0.31151 0.56292 0.44013
 C781 C 0.27023 0.87897 0.86500
 C782 C 0.27129 0.90027 0.89693
 C783 C 0.24183 0.90008 0.92170
 C784 C 0.20973 0.87999 0.91285
 C785 C 0.20879 0.85818 0.88070
 C786 C 0.23971 0.85695 0.85709
 C787 C 0.17661 0.83822 0.87313
 N788 N 0.14742 0.84038 0.89602
 N789 N 0.14818 0.86115 0.92600
 C790 C 0.17823 0.88108 0.93515
 H791 H 0.29412 0.87820 0.84738
 H792 H 0.29586 0.91583 0.90313
 H793 H 0.17408 0.82158 0.84886
 H794 H 0.17699 0.89788 0.95954
 C795 C 0.72208 0.35355 0.39219
 C796 C 0.72367 0.37358 0.42463
 C797 C 0.75270 0.39775 0.43140
 C798 C 0.78051 0.40216 0.40451
 C799 C 0.77883 0.38174 0.37134
 C800 C 0.74944 0.35699 0.36537
 C801 C 0.80759 0.38570 0.34604
 N802 N 0.83580 0.40886 0.35330
 N803 N 0.83742 0.42799 0.38434
 C804 C 0.81093 0.42530 0.41024
 H805 H 0.69963 0.33441 0.38832
 H806 H 0.70217 0.36999 0.44480
 H807 H 0.80812 0.37051 0.32072
 H808 H 0.81424 0.44090 0.43521
 C809 C 0.12136 0.25357 0.12840
 C810 C 0.09675 0.25465 0.09913
 C811 C 0.10370 0.23493 0.06672
 C812 C 0.13375 0.20978 0.06624
 C813 C 0.15855 0.20847 0.09626
 C814 C 0.15330 0.23222 0.12664
 C815 C 0.18704 0.18228 0.09545
 N816 N 0.19040 0.15917 0.06655
 N817 N 0.16690 0.16000 0.03864
 C818 C 0.13854 0.18411 0.03767
 H819 H 0.11633 0.27108 0.15188
 H820 H 0.07380 0.27353 0.10080
 H821 H 0.20594 0.17899 0.11797
 H822 H 0.11941 0.18217 0.01510
 C823 C 0.63605 0.72904 0.60476
 C824 C 0.61418 0.73011 0.57359
 C825 C 0.59433 0.76180 0.56454
 C826 C 0.59584 0.79279 0.58797
 C827 C 0.61810 0.79162 0.61988
 C828 C 0.63854 0.75953 0.62793
 C829 C 0.62028 0.82325 0.64183
 N830 N 0.60108 0.85377 0.63252
 N831 N 0.58018 0.85488 0.60257
 C832 C 0.57706 0.82555 0.57988
 H833 H 0.65189 0.70447 0.61043
 H834 H 0.61323 0.70619 0.55594
 H835 H 0.63726 0.82411 0.66607
 H836 H 0.56024 0.82830 0.55562
 C837 C 0.10170 0.77987 0.84825
 C838 C 0.07092 0.78460 0.87009
 C839 C 0.06392 0.76080 0.89924
 C840 C 0.08910 0.73193 0.90702
 C841 C 0.12089 0.72748 0.88495
 C842 C 0.12681 0.75145 0.85504
 C843 C 0.14466 0.69803 0.89256
 N844 N 0.13714 0.67477 0.92052
 N845 N 0.10723 0.67869 0.94105
 C846 C 0.08285 0.70620 0.93511
 H847 H 0.10581 0.79847 0.82544
 H848 H 0.05195 0.80664 0.86372
 H849 H 0.16885 0.69292 0.87639
 H850 H 0.05868 0.70719 0.95215
 C851 C 0.62657 0.23185 0.38846
 C852 C 0.59584 0.23284 0.41110
 C853 C 0.56923 0.26042 0.40710
 C854 C 0.57506 0.28912 0.38168
 C855 C 0.60629 0.28815 0.35866
 C856 C 0.63135 0.25835 0.36119
 C857 C 0.61158 0.31742 0.33408
 N858 N 0.58691 0.34528 0.33254
 N859 N 0.55747 0.34607 0.35408
 C860 C 0.55077 0.31906 0.37868
 H861 H 0.64568 0.20916 0.39092
 H862 H 0.59184 0.21088 0.43069
 H863 H 0.63536 0.31883 0.31658
 H864 H 0.52684 0.32154 0.39600
 C865 C 0.90058 0.78198 0.15443
 C866 C 0.93126 0.78314 0.13192
 C867 C 0.93302 0.76261 0.09938
 C868 C 0.90278 0.73932 0.09025
 C869 C 0.87138 0.73805 0.11358
 C870 C 0.87031 0.75980 0.14599
 C871 C 0.84311 0.71327 0.10468
 N872 N 0.84586 0.69145 0.07477
 N873 N 0.87537 0.69202 0.05343
 C874 C 0.90402 0.71464 0.06039
 H875 H 0.90056 0.79881 0.17893
 H876 H 0.95362 0.80115 0.13973
 H877 H 0.81926 0.71004 0.12152
 H878 H 0.92779 0.71192 0.04305
 C879 C 0.39289 0.28030 0.64779
 C880 C 0.42590 0.27897 0.62862
 C881 C 0.43385 0.24955 0.60531
 C882 C 0.40756 0.22103 0.60094
 C883 C 0.37381 0.22248 0.62045
 C884 C 0.36662 0.25230 0.64434
 C885 C 0.34913 0.19310 0.61651
 N886 N 0.35753 0.16450 0.59427
 N887 N 0.38913 0.16307 0.57604
 C888 C 0.41447 0.19017 0.57876
 H889 H 0.38814 0.30309 0.66631
 H890 H 0.44554 0.30101 0.63217
 H891 H 0.32338 0.19241 0.63099
 H892 H 0.43994 0.18698 0.56395
 C893 C 0.88904 0.27072 0.87951
 C894 C 0.91092 0.26933 0.91095
 C895 C 0.90353 0.24418 0.93935
 C896 C 0.87605 0.21707 0.93351
 C897 C 0.85406 0.21839 0.90144
 C898 C 0.85949 0.24665 0.87512
 C899 C 0.82833 0.19011 0.89583
 N900 N 0.82488 0.16262 0.92053
 N901 N 0.84589 0.16102 0.95028
 C902 C 0.87160 0.18691 0.95735
 H903 H 0.89418 0.29185 0.85930
 H904 H 0.93223 0.28983 0.91414
 H905 H 0.81209 0.18865 0.87131
 H906 H 0.88911 0.18285 0.98085
 C907 C 0.35192 0.78335 0.38629
 C908 C 0.37177 0.78445 0.41888
 C909 C 0.39693 0.75674 0.42741
 C910 C 0.40243 0.72737 0.40232
 C911 C 0.38239 0.72643 0.36894
 C912 C 0.35678 0.75464 0.36113
 C913 C 0.38745 0.69626 0.34535
 N914 N 0.41121 0.66913 0.35460
 N915 N 0.42995 0.66993 0.38593
 C916 C 0.42628 0.69794 0.41014
 H917 H 0.33188 0.80472 0.38098
 H918 H 0.36709 0.80683 0.43788
 H919 H 0.37259 0.69370 0.31986
 H920 H 0.44169 0.69659 0.43541
 C921 C 0.12362 0.12306 0.23323
 C922 C 0.09998 0.09287 0.23433
 C923 C 0.10802 0.06200 0.25613
 C924 C 0.13848 0.06395 0.28058
 C925 C 0.16165 0.09538 0.28040
 C926 C 0.15544 0.12412 0.25484
 C927 C 0.18939 0.09782 0.30718
 N928 N 0.19434 0.07026 0.33158
 N929 N 0.17294 0.04069 0.33159
 C930 C 0.14503 0.03677 0.30733
 H931 H 0.11776 0.14510 0.21418
 H932 H 0.07661 0.09261 0.21591
 H933 H 0.20617 0.12203 0.31003
 H934 H 0.12752 0.01303 0.31013
 C935 C 0.64303 0.61416 0.76920
 C936 C 0.62381 0.58134 0.76696
 C937 C 0.60067 0.57397 0.73719
 C938 C 0.59610 0.60096 0.70951
 C939 C 0.61539 0.63478 0.71208
 C940 C 0.63950 0.64099 0.74200
 C941 C 0.61124 0.66041 0.68356
 N942 N 0.58917 0.65262 0.65463
 N943 N 0.57131 0.62085 0.65210
 C944 C 0.57416 0.59471 0.67838
 H945 H 0.66179 0.61824 0.79192
 H946 H 0.62738 0.56123 0.78854
 H947 H 0.62547 0.68638 0.68371
 H948 H 0.55973 0.56912 0.67433
 C949 C 0.87490 0.11595 0.73753
 C950 C 0.90678 0.09459 0.73736
 C951 C 0.93518 0.10057 0.76303
 C952 C 0.92886 0.12573 0.79213
 C953 C 0.89613 0.14685 0.79257
 C954 C 0.86997 0.14332 0.76389
 C955 C 0.88991 0.17020 0.82257
 N956 N 0.91474 0.17236 0.85015
 N957 N 0.94524 0.15226 0.85005
 C958 C 0.95295 0.12878 0.82230
 H959 H 0.85496 0.11245 0.71575
 H960 H 0.91036 0.07508 0.71522
 H961 H 0.86490 0.18570 0.82491
 H962 H 0.97719 0.11192 0.82480
 C963 C 0.37680 0.61836 0.26669
 C964 C 0.40976 0.59892 0.26855
 C965 C 0.43653 0.60277 0.24122
 C966 C 0.42904 0.62504 0.21034
 C967 C 0.39552 0.64475 0.20842
 C968 C 0.36975 0.64206 0.23737
 C969 C 0.38869 0.66638 0.17722
 N970 N 0.41393 0.66809 0.15001
 N971 N 0.44540 0.64954 0.15181
 C972 C 0.45378 0.62800 0.18093
 H973 H 0.35750 0.61631 0.28917
 H974 H 0.41495 0.58160 0.29212
 H975 H 0.36329 0.68142 0.17391
 H976 H 0.47949 0.61314 0.18059
 C977 C 0.10029 0.85181 0.71605
 C978 C 0.06930 0.87392 0.71666
 C979 C 0.06476 0.90151 0.74328
 C980 C 0.09261 0.90597 0.77050
 C981 C 0.12474 0.88365 0.76930
 C982 C 0.12828 0.85623 0.74185
 C983 C 0.15126 0.88814 0.79704
 N984 N 0.14560 0.91250 0.82451
 N985 N 0.11496 0.93227 0.82653
 C986 C 0.08816 0.92950 0.80089
 H987 H 0.10233 0.83071 0.69519
 H988 H 0.04894 0.86980 0.69536
 H989 H 0.17615 0.87218 0.79772
 H990 H 0.06324 0.94489 0.80537
 C991 C 0.62986 0.38666 0.26321
 C992 C 0.59859 0.40874 0.26328
 C993 C 0.57130 0.40440 0.23647
 C994 C 0.57705 0.37937 0.20735
 C995 C 0.60884 0.35692 0.20728
 C996 C 0.63451 0.35957 0.23642
 C997 C 0.61406 0.33272 0.17767
 N998 N 0.58884 0.33104 0.15036
 N999 N 0.55890 0.35205 0.15053
 C1000 C 0.55219 0.37621 0.17799
 H1001 H 0.64933 0.38913 0.28556
 H1002 H 0.59474 0.42805 0.28553
 H1003 H 0.63829 0.31569 0.17557
 H1004 H 0.52780 0.39308 0.17630
 C1005 C 0.84845 0.90785 0.25584
 C1006 C 0.86993 0.93901 0.25621
 C1007 C 0.90409 0.94000 0.27423
 C1008 C 0.91513 0.90791 0.29405
 C1009 C 0.89359 0.87508 0.29198
 C1010 C 0.86022 0.87495 0.27175
 C1011 C 0.90504 0.84442 0.31235
 N1012 N 0.93525 0.84653 0.33395
 N1013 N 0.95442 0.87743 0.33716
 C1014 C 0.94508 0.90823 0.31854
 H1015 H 0.82233 0.90948 0.24176
 H1016 H 0.85996 0.96199 0.24023
 H1017 H 0.88974 0.81920 0.31245
 H1018 H 0.96037 0.93296 0.32425
 C1019 C 0.38637 0.37497 0.77263
 C1020 C 0.40896 0.40579 0.77350
 C1021 C 0.40574 0.43297 0.74661
 C1022 C 0.38133 0.42794 0.71684
 C1023 C 0.35856 0.39657 0.71581
 C1024 C 0.36013 0.37081 0.74489
 C1025 C 0.33512 0.39193 0.68543
 N1026 N 0.33425 0.41755 0.65852
 N1027 N 0.35537 0.44733 0.65976
 C1028 C 0.37892 0.45338 0.68791
 H1029 H 0.38804 0.35526 0.79479
 H1030 H 0.42782 0.40934 0.79620
 H1031 H 0.31798 0.36795 0.68245
 H1032 H 0.39583 0.47776 0.68717
 C1033 C 0.13841 0.22750 0.89141
 C1034 C 0.11831 0.22807 0.92365
 C1035 C 0.09918 0.25966 0.93444
 C1036 C 0.09954 0.29107 0.91151
 C1037 C 0.11959 0.29018 0.87819
 C1038 C 0.13934 0.25813 0.86841
 C1039 C 0.12060 0.32210 0.85664
 N1040 N 0.10252 0.35271 0.86772
 N1041 N 0.08390 0.35364 0.89906
 C1042 C 0.08199 0.32400 0.92144
 H1043 H 0.15442 0.20327 0.88496
 H1044 H 0.11839 0.20383 0.94084
 H1045 H 0.13579 0.32312 0.83131
 H1046 H 0.06720 0.32672 0.94693
 C1047 C 0.61407 0.77517 0.37209
 C1048 C 0.59167 0.77581 0.40303
 C1049 C 0.59379 0.74780 0.42928
 C1050 C 0.61684 0.71719 0.42290
 C1051 C 0.63940 0.71644 0.39138
 C1052 C 0.63904 0.74646 0.36669
 C1053 C 0.66149 0.68537 0.38542
 N1054 N 0.66125 0.65732 0.40982
 N1055 N 0.64027 0.65815 0.43963
 C1056 C 0.61799 0.68705 0.44697
 H1057 H 0.61336 0.79820 0.35334
 H1058 H 0.57382 0.79921 0.40746
 H1059 H 0.67832 0.68287 0.36124
 H1060 H 0.60106 0.68597 0.47126
 C1061 C 0.89448 0.78262 0.84614
 C1062 C 0.92540 0.78330 0.86832
 C1063 C 0.92905 0.75960 0.89849
 C1064 C 0.90026 0.73410 0.90583
 C1065 C 0.86857 0.73341 0.88283
 C1066 C 0.86588 0.75794 0.85268
 C1067 C 0.84171 0.70653 0.88949
 N1068 N 0.84612 0.68215 0.91715
 N1069 N 0.87597 0.68223 0.93816
 C1070 C 0.90333 0.70688 0.93315
 H1071 H 0.89305 0.80150 0.82323
 H1072 H 0.94660 0.80320 0.86204
 H1073 H 0.81769 0.70391 0.87257
 H1074 H 0.92757 0.70394 0.94990
 C1075 C 0.40030 0.21867 0.35635
 C1076 C 0.43041 0.21886 0.37969
 C1077 C 0.43368 0.24532 0.40728
 C1078 C 0.40519 0.27153 0.41219
 C1079 C 0.37404 0.27095 0.38869
 C1080 C 0.37218 0.24466 0.36001
 C1081 C 0.34702 0.29823 0.39340
 N1082 N 0.35099 0.32406 0.41984
 N1083 N 0.38028 0.32477 0.44166
 C1084 C 0.40758 0.29964 0.43860
 H1085 H 0.39931 0.19842 0.33460
 H1086 H 0.45199 0.19878 0.37550
 H1087 H 0.32315 0.29994 0.37601
 H1088 H 0.43100 0.30236 0.45654
 C1089 C 0.11282 0.78181 0.13479
 C1090 C 0.07972 0.78390 0.11597
 C1091 C 0.06816 0.75506 0.09345
 C1092 C 0.09103 0.72379 0.08905
 C1093 C 0.12496 0.72178 0.10818
 C1094 C 0.13551 0.75089 0.13160
 C1095 C 0.14641 0.68995 0.10434
 N1096 N 0.13472 0.66218 0.08250
 N1097 N 0.10286 0.66395 0.06464
 C1098 C 0.08053 0.69365 0.06731
 H1099 H 0.12024 0.80404 0.15310
 H1100 H 0.06266 0.80804 0.11945
 H1101 H 0.17225 0.68685 0.11851
 H1102 H 0.05466 0.69316 0.05278
 C1103 C 0.61525 0.28118 0.64161
 C1104 C 0.58174 0.27844 0.62337
 C1105 C 0.57197 0.24622 0.60487
 C1106 C 0.59701 0.21636 0.60420
 C1107 C 0.63120 0.21916 0.62288
 C1108 C 0.64023 0.25186 0.64196
 C1109 C 0.65451 0.18840 0.62306
 N1110 N 0.64448 0.15729 0.60526
 N1111 N 0.61254 0.15471 0.58766
 C1112 C 0.58841 0.18306 0.58666
 H1113 H 0.62127 0.30607 0.65672
 H1114 H 0.56310 0.30163 0.62390
 H1115 H 0.68047 0.18870 0.63724
 H1116 H 0.56257 0.17909 0.57259
 C1117 C 0.87471 0.27422 0.12701
 C1118 C 0.89751 0.27621 0.09637
 C1119 C 0.90362 0.24520 0.07449
 C1120 C 0.88813 0.21107 0.08489
 C1121 C 0.86466 0.20919 0.11572
 C1122 C 0.85737 0.24122 0.13636
 C1123 C 0.84924 0.17509 0.12500
 N1124 N 0.85726 0.14487 0.10481
 N1125 N 0.87965 0.14652 0.07606
 C1126 C 0.89540 0.17852 0.06545
 H1127 H 0.86931 0.29893 0.14264
 H1128 H 0.90931 0.30243 0.08884
 H1129 H 0.83113 0.17223 0.14823
 H1130 H 0.91386 0.17812 0.04230
 C1131 C 0.37908 0.75786 0.62542
 C1132 C 0.40114 0.76125 0.59429
 C1133 C 0.39504 0.73934 0.56318
 C1134 C 0.36784 0.71165 0.56467
 C1135 C 0.34416 0.70952 0.59540
 C1136 C 0.34954 0.73323 0.62604
 C1137 C 0.31601 0.68324 0.59445
 N1138 N 0.31288 0.65976 0.56579
 N1139 N 0.33614 0.66071 0.53778
 C1140 C 0.36364 0.68565 0.53635
 H1141 H 0.38372 0.77623 0.64831
 H1142 H 0.42219 0.78223 0.59393
 H1143 H 0.29693 0.68054 0.61649
 H1144 H 0.38222 0.68452 0.51332
 C1145 C 0.22957 0.12278 0.87769
 C1146 C 0.23220 0.09846 0.90712
 C1147 C 0.26249 0.09941 0.93116
 C1148 C 0.29228 0.12329 0.92267
 C1149 C 0.28911 0.14860 0.89333
 C1150 C 0.25705 0.14879 0.87131
 C1151 C 0.31902 0.17195 0.88597
 N1152 N 0.35035 0.16909 0.90581
 N1153 N 0.35404 0.14413 0.93213
 C1154 C 0.32639 0.12088 0.94082
 H1155 H 0.20523 0.12220 0.86059
 H1156 H 0.20922 0.08034 0.91231
 H1157 H 0.31828 0.19182 0.86409
 H1158 H 0.33183 0.09979 0.96079
 C1159 C 0.77860 0.64657 0.39423
 C1160 C 0.77814 0.62390 0.42475
 C1161 C 0.75165 0.59636 0.42837
 C1162 C 0.72578 0.59072 0.39977
 C1163 C 0.72663 0.61354 0.36820
 C1164 C 0.75287 0.64226 0.36602
 C1165 C 0.69969 0.60809 0.34102
 N1166 N 0.67392 0.58162 0.34525
 N1167 N 0.67297 0.56045 0.37492
 C1168 C 0.69778 0.56423 0.40238
 H1169 H 0.79881 0.66836 0.39302
 H1170 H 0.79809 0.62856 0.44632
 H1171 H 0.69826 0.62490 0.31680
 H1172 H 0.69493 0.54679 0.42609
 C1173 C 0.75739 0.12793 0.11057
 C1174 C 0.75842 0.09658 0.08865
 C1175 C 0.73737 0.06545 0.09751
 C1176 C 0.71124 0.06804 0.12629
 C1177 C 0.70931 0.10051 0.14759
 C1178 C 0.73451 0.12949 0.14126
 C1179 C 0.68115 0.10354 0.17376
 N1180 N 0.65738 0.07545 0.17899
 N1181 N 0.65940 0.04476 0.15932
 C1182 C 0.68518 0.04022 0.13297
 H1183 H 0.77597 0.15031 0.10460
 H1184 H 0.77795 0.09569 0.06629
 H1185 H 0.67684 0.12853 0.18903
 H1186 H 0.68417 0.01540 0.11679
 C1187 C 0.21483 0.61349 0.61831
 C1188 C 0.21546 0.58238 0.59600
 C1189 C 0.24761 0.56155 0.59229
 C1190 C 0.28010 0.57297 0.61010
 C1191 C 0.27946 0.60446 0.63284
 C1192 C 0.24627 0.62432 0.63755
 C1193 C 0.31244 0.61546 0.64959
 N1194 N 0.34372 0.59605 0.64389
 N1195 N 0.34418 0.56620 0.62283
 C1196 C 0.31343 0.55390 0.60585
 H1197 H 0.18932 0.62846 0.62161
 H1198 H 0.19046 0.57389 0.58231
 H1199 H 0.31375 0.63960 0.66682
 H1200 H 0.31540 0.52963 0.58886
 C1201 C 0.72555 0.89777 0.84802
 C1202 C 0.72458 0.92822 0.87103
 C1203 C 0.75220 0.93410 0.89712
 C1204 C 0.78140 0.90834 0.90013
 C1205 C 0.78215 0.87704 0.87684
 C1206 C 0.75397 0.87196 0.85053
 C1207 C 0.81207 0.85274 0.87963
 N1208 N 0.83918 0.85930 0.90426
 N1209 N 0.83860 0.88867 0.92598
 C1210 C 0.81085 0.91348 0.92462
 H1211 H 0.70398 0.89443 0.82781
 H1212 H 0.70225 0.94769 0.86814
 H1213 H 0.81446 0.82888 0.86224
 H1214 H 0.81244 0.93715 0.94238
 C1215 C 0.28794 0.38610 0.34950
 C1216 C 0.28672 0.41868 0.36956
 C1217 C 0.25703 0.42648 0.39263
 C1218 C 0.22811 0.40044 0.39575
 C1219 C 0.22959 0.36708 0.37552
 C1220 C 0.25966 0.36010 0.35197
 C1221 C 0.19993 0.34254 0.37833
 N1222 N 0.17097 0.35079 0.40011
 N1223 N 0.16943 0.38208 0.41890
 C1224 C 0.19680 0.40723 0.41730
 H1225 H 0.31090 0.38144 0.33119
 H1226 H 0.30899 0.43817 0.36678
 H1227 H 0.19928 0.31704 0.36326
 H1228 H 0.19341 0.43247 0.43248
 C1229 C 0.21941 0.85085 0.09817
 C1230 C 0.21865 0.87156 0.06614
 C1231 C 0.24610 0.89736 0.05882
 C1232 C 0.27497 0.90238 0.08465
 C1233 C 0.27542 0.88154 0.11759
 C1234 C 0.24734 0.85552 0.12431
 C1235 C 0.30510 0.88624 0.14180
 N1236 N 0.33221 0.91037 0.13376
 N1237 N 0.33193 0.92976 0.10288
 C1238 C 0.30449 0.92641 0.07798
 H1239 H 0.19807 0.83059 0.10247
 H1240 H 0.19654 0.86722 0.04672
 H1241 H 0.30736 0.87068 0.16675
 H1242 H 0.30653 0.94212 0.05301
 C1243 C 0.72759 0.36049 0.61166
 C1244 C 0.72895 0.37895 0.57832
 C1245 C 0.75965 0.39991 0.56870
 C1246 C 0.78944 0.40268 0.59367
 C1247 C 0.78799 0.38387 0.62777
 C1248 C 0.75679 0.36244 0.63666
 C1249 C 0.81862 0.38598 0.65112
 N1250 N 0.84839 0.40593 0.64116
 N1251 N 0.84976 0.42355 0.60925
 C1252 C 0.82144 0.42246 0.58511
 H1253 H 0.70384 0.34361 0.61762
 H1254 H 0.70586 0.37669 0.55970
 H1255 H 0.81930 0.37185 0.67704
 H1256 H 0.82448 0.43664 0.55930
 C1257 C 0.12374 0.12882 0.72653
 C1258 C 0.09178 0.10772 0.72528
 C1259 C 0.07114 0.10151 0.75705
 C1260 C 0.08415 0.11509 0.79109
 C1261 C 0.11655 0.13659 0.79228
 C1262 C 0.13596 0.14402 0.75960
 C1263 C 0.12847 0.15017 0.82632
 N1264 N 0.10929 0.14224 0.85712
 N1265 N 0.07907 0.12170 0.85610
 C1266 C 0.06589 0.10780 0.82420
 H1267 H 0.13818 0.13464 0.70127
 H1268 H 0.08234 0.09727 0.69912
 H1269 H 0.15308 0.16661 0.82869
 H1270 H 0.04157 0.09087 0.82510
 C1271 C 0.61236 0.64834 0.28299
 C1272 C 0.58060 0.62699 0.28291
 C1273 C 0.57345 0.60237 0.25431
 C1274 C 0.59934 0.59885 0.22544
 C1275 C 0.63176 0.62060 0.22559
 C1276 C 0.63808 0.64581 0.25451
 C1277 C 0.65587 0.61757 0.19572
 N1278 N 0.64829 0.59404 0.16795
 N1279 N 0.61798 0.57366 0.16778
 C1280 C 0.59317 0.57541 0.19536
 H1281 H 0.61652 0.66775 0.30514
 H1282 H 0.56107 0.63017 0.30504
 H1283 H 0.68041 0.63391 0.19392
 H1284 H 0.56873 0.55878 0.19316
 C1285 C 0.11481 0.86859 0.26239
 C1286 C 0.09550 0.90169 0.26396
 C1287 C 0.09879 0.92783 0.23592
 C1288 C 0.11961 0.91924 0.20440
 C1289 C 0.13890 0.88550 0.20266
 C1290 C 0.13767 0.86077 0.23261
 C1291 C 0.15906 0.87758 0.17081
 N1292 N 0.15994 0.90206 0.14286
 N1293 N 0.14197 0.93386 0.14460
 C1294 C 0.12180 0.94328 0.17436
 H1295 H 0.11373 0.85008 0.28558
 H1296 H 0.07926 0.90776 0.28806
 H1297 H 0.17352 0.85185 0.16769
 H1298 H 0.10740 0.96926 0.17409
 C1299 C 0.62309 0.37865 0.72347
 C1300 C 0.60243 0.41090 0.72137
 C1301 C 0.60443 0.43746 0.74915
 C1302 C 0.62599 0.43044 0.78066
 C1303 C 0.64667 0.39754 0.78295
 C1304 C 0.64605 0.37206 0.75354
 C1305 C 0.66711 0.39100 0.81503
 N1306 N 0.66711 0.41605 0.84253
 N1307 N 0.64791 0.44708 0.84022
 C1308 C 0.62729 0.45510 0.81032
 H1309 H 0.62240 0.35951 0.70076
 H1310 H 0.58558 0.41572 0.69737
 H1311 H 0.68248 0.36592 0.81882
 H1312 H 0.61185 0.48047 0.81023
 C1313 C 0.88707 0.13177 0.26689
 C1314 C 0.91117 0.10204 0.26884
 C1315 C 0.90617 0.07134 0.24631
 C1316 C 0.87806 0.07172 0.21941
 C1317 C 0.85349 0.10183 0.21748
 C1318 C 0.85722 0.13143 0.24256
 C1319 C 0.82621 0.10139 0.19011
 N1320 N 0.82361 0.07253 0.16677
 N1321 N 0.84655 0.04414 0.16878
 C1322 C 0.87371 0.04276 0.19418
 H1323 H 0.89060 0.15434 0.28592
 H1324 H 0.93265 0.10214 0.28941
 H1325 H 0.80741 0.12394 0.18650
 H1326 H 0.89194 0.01932 0.19407
 C1327 C 0.34697 0.59726 0.73401
 C1328 C 0.37060 0.56760 0.73554
 C1329 C 0.40073 0.56733 0.75943
 C1330 C 0.40692 0.59834 0.78224
 C1331 C 0.38354 0.62962 0.77928
 C1332 C 0.35365 0.62918 0.75418
 C1333 C 0.38959 0.65918 0.80330
 N1334 N 0.41726 0.65770 0.82813
 N1335 N 0.43896 0.62841 0.83103
 C1336 C 0.43453 0.59860 0.80924
 H1337 H 0.32286 0.59498 0.71696
 H1338 H 0.36485 0.54428 0.71799
 H1339 H 0.37207 0.68298 0.80343
 H1340 H 0.45208 0.57516 0.81392
 C1341 C 0.87437 0.88936 0.75860
 C1342 C 0.90594 0.91092 0.75733
 C1343 C 0.93082 0.90756 0.72823
 C1344 C 0.92250 0.88401 0.69857
 C1345 C 0.89035 0.86230 0.69972
 C1346 C 0.86700 0.86404 0.73074
 C1347 C 0.88249 0.83962 0.66950
 N1348 N 0.90570 0.83858 0.64051
 N1349 N 0.93612 0.85881 0.63960
 C1350 C 0.94528 0.88154 0.66758
 H1351 H 0.85666 0.89105 0.78237
 H1352 H 0.91197 0.92901 0.78013
 H1353 H 0.85783 0.82327 0.66832
 H1354 H 0.96999 0.89779 0.66511
 C1355 C 0.37882 0.38363 0.22746
 C1356 C 0.40969 0.40640 0.22780
 C1357 C 0.43593 0.40375 0.25587
 C1358 C 0.42963 0.37959 0.28549
 C1359 C 0.39809 0.35684 0.28538
 C1360 C 0.37338 0.35774 0.25527
 C1361 C 0.39212 0.33400 0.31576
 N1362 N 0.41664 0.33341 0.34376
 N1363 N 0.44657 0.35434 0.34359
 C1364 C 0.45386 0.37749 0.31549
 H1365 H 0.36016 0.38484 0.20435
 H1366 H 0.41407 0.42499 0.20508
 H1367 H 0.36780 0.31725 0.31781
 H1368 H 0.47825 0.39433 0.31709
   
