data_POSCAR
  _audit_creation_date              2014-09-24
  _audit_creation_method            'ToBaCCo'
  _symmetry_space_group_name_H-M    'P1'
  _symmetry_Int_Tables_number       1
  _symmetry_cell_setting            triclinic
  loop_
  _symmetry_equiv_pos_as_xyz
 x,y,z
_cell_length_a 68.8130
_cell_length_b 73.9292
_cell_length_c 75.5942
_cell_angle_alpha 90.022000
_cell_angle_beta 90.065500
_cell_angle_gamma 90.150200
loop_
  _atom_site_label
  _atom_site_type_symbol
  _atom_site_fract_x
  _atom_site_fract_y
  _atom_site_fract_z
O1 O 0.36815 0.34097 -0.01632
 O2 O 0.34339 0.36663 0.01889
 O3 O 0.36884 0.34065 0.01828
 O4 O 0.34271 0.36698 -0.01568
 O5 O 0.31899 0.34680 -0.01541
 O6 O 0.34526 0.32030 0.01813
 O7 O 0.31980 0.34631 0.01907
 O8 O 0.34446 0.32073 -0.01596
 Cu9 Cu 0.35815 0.35585 0.00127
 Cu10 Cu 0.32970 0.33157 0.00147
 C11 C 0.36054 0.32641 -0.02202
 C12 C 0.32740 0.36076 0.02500
 C13 C 0.36154 0.32592 0.02387
 C14 C 0.32638 0.36136 -0.02134
 O15 O 0.65934 0.63398 0.01482
 O16 O 0.63392 0.65981 -0.01985
 O17 O 0.65896 0.63351 -0.01976
 O18 O 0.63427 0.66030 0.01468
 O19 O 0.65832 0.68013 0.01415
 O20 O 0.68320 0.65315 -0.01987
 O21 O 0.65810 0.67952 -0.02032
 O22 O 0.68346 0.65375 0.01424
 Cu23 Cu 0.64419 0.64491 -0.00247
 Cu24 Cu 0.67314 0.66867 -0.00299
 C25 C 0.67579 0.63943 0.02033
 C26 C 0.64174 0.67405 -0.02600
 C27 C 0.67537 0.63870 -0.02559
 C28 C 0.64210 0.67479 0.02025
 O29 O 0.66238 0.36258 0.98220
 O30 O 0.63743 0.33668 1.01712
 O31 O 0.66266 0.36298 1.01670
 O32 O 0.63699 0.33643 0.98262
 O33 O 0.66078 0.31642 0.98267
 O34 O 0.68652 0.34307 1.01666
 O35 O 0.66126 0.31671 1.01701
 O36 O 0.68623 0.34263 0.98227
 Cu37 Cu 0.64747 0.35167 0.99966
 Cu38 Cu 0.67610 0.32771 0.99965
 C39 C 0.67858 0.35700 0.97632
 C40 C 0.64509 0.32226 1.02296
 C41 C 0.67899 0.35757 1.02248
 C42 C 0.64448 0.32188 0.97688
 O43 O 0.33774 0.63787 0.98268
 O44 O 0.36286 0.66247 1.01832
 O45 O 0.33731 0.63605 1.01711
 O46 O 0.36293 0.66414 0.98423
 O47 O 0.33849 0.68347 0.98435
 O48 O 0.31403 0.65648 1.01872
 O49 O 0.33919 0.68260 1.01887
 O50 O 0.31321 0.65701 0.98434
 Cu51 Cu 0.35258 0.64809 1.00053
 Cu52 Cu 0.32382 0.67189 1.00162
 C53 C 0.32112 0.64314 0.97758
 C54 C 0.35545 0.67687 1.02446
 C55 C 0.32136 0.64155 1.02363
 C56 C 0.35503 0.67856 0.97867
 O57 O 0.01649 0.34077 0.36694
 O58 O -0.02070 0.36704 0.34323
 O59 O -0.02147 0.34230 0.36793
 O60 O 0.01697 0.36533 0.34236
 O61 O 0.01452 0.34438 0.32162
 O62 O -0.02282 0.32078 0.34769
 O63 O -0.02317 0.34530 0.32328
 O64 O 0.01475 0.31950 0.34645
 Cu65 Cu -0.00201 0.35598 0.35720
 Cu66 Cu -0.00427 0.33035 0.33270
 C67 C 0.02191 0.32565 0.36073
 C68 C -0.02828 0.36061 0.32924
 C69 C -0.02863 0.32755 0.36218
 C70 C 0.02203 0.35890 0.32749
 O71 O 0.01861 0.65358 0.62913
 O72 O -0.01854 0.62873 0.65458
 O73 O -0.01914 0.65339 0.63007
 O74 O 0.01946 0.62873 0.65402
 O75 O 0.01952 0.64992 0.67463
 O76 O -0.01806 0.67490 0.65033
 O77 O -0.01817 0.65029 0.67483
 O78 O 0.01974 0.67450 0.65000
 Cu79 Cu 0.00013 0.63893 0.63991
 Cu80 Cu 0.00085 0.66453 0.66448
 C81 C 0.02541 0.66831 0.63522
 C82 C -0.02479 0.63541 0.66897
 C83 C -0.02512 0.66842 0.63614
 C84 C 0.02587 0.63508 0.66854
 O85 O 0.98219 0.65441 0.37108
 O86 O 1.01881 0.63058 0.34420
 O87 O 1.01991 0.65505 0.36889
 O88 O 0.98118 0.62936 0.34631
 O89 O 0.97858 0.65103 0.32633
 O90 O 1.01789 0.67634 0.34849
 O91 O 1.01634 0.65171 0.32367
 O92 O 0.98014 0.67562 0.35059
 Cu93 Cu 1.00066 0.64021 0.35968
 Cu94 Cu 0.99809 0.66581 0.33522
 C95 C 0.97502 0.66913 0.36540
 C96 C 1.02371 0.63708 0.32931
 C97 C 1.02552 0.67008 0.36253
 C98 C 0.97332 0.63581 0.33248
 O99 O 0.98331 0.34255 0.63109
 O100 O 1.02203 0.36513 0.65671
 O101 O 1.02127 0.34118 0.63151
 O102 O 0.98436 0.36674 0.65637
 O103 O 0.98201 0.34430 0.67556
 O104 O 1.02064 0.31982 0.65192
 O105 O 1.01967 0.34393 0.67721
 O106 O 0.98308 0.32016 0.65045
 Cu107 Cu 1.00283 0.35608 0.64188
 Cu108 Cu 1.00123 0.32986 0.66579
 C109 C 0.97689 0.32733 0.63629
 C110 C 1.02713 0.35852 0.67150
 C111 C 1.02735 0.32619 0.63755
 C112 C 0.97690 0.35985 0.67018
 O113 O 0.37160 0.01735 0.33793
 O114 O 0.34663 -0.01817 0.36358
 O115 O 0.37155 -0.01801 0.33761
 O116 O 0.34664 0.01715 0.36380
 O117 O 0.32264 0.01734 0.34436
 O118 O 0.34722 -0.01798 0.31852
 O119 O 0.32223 -0.01763 0.34456
 O120 O 0.34752 0.01723 0.31858
 Cu121 Cu 0.36156 -0.00046 0.35265
 Cu122 Cu 0.33251 -0.00030 0.32954
 C123 C 0.36376 0.02335 0.32390
 C124 C 0.33006 -0.02376 0.35853
 C125 C 0.36358 -0.02396 0.32359
 C126 C 0.33039 0.02323 0.35849
 O127 O 0.63123 0.01705 0.66361
 O128 O 0.65739 -0.01682 0.63707
 O129 O 0.63316 -0.01802 0.66331
 O130 O 0.65559 0.01853 0.63708
 O131 O 0.68036 0.01931 0.65569
 O132 O 0.65733 -0.01629 0.68251
 O133 O 0.68189 -0.01574 0.65597
 O134 O 0.65619 0.01880 0.68195
 Cu135 Cu 0.64189 0.00010 0.64834
 Cu136 Cu 0.67142 0.00157 0.67091
 C137 C 0.63927 0.02368 0.67729
 C138 C 0.67407 -0.02207 0.64205
 C139 C 0.64132 -0.02319 0.67750
 C140 C 0.67185 0.02508 0.64190
 O141 O 0.34230 1.01721 0.63567
 O142 O 0.36693 0.98288 0.66293
 O143 O 0.34250 0.98193 0.63652
 O144 O 0.36673 1.01818 0.66193
 O145 O 0.34201 1.01870 0.68054
 O146 O 0.31817 0.98206 0.65556
 O147 O 0.34258 0.98354 0.68195
 O148 O 0.31749 1.01702 0.65421
 Cu149 Cu 0.35710 1.00000 0.64738
 Cu150 Cu 0.32763 1.00037 0.66998
 C151 C 0.32562 1.02281 0.64024
 C152 C 0.35898 0.97746 0.67714
 C153 C 0.32617 0.97588 0.64170
 C154 C 0.35843 1.02465 0.67552
 O155 O 0.65779 1.01711 0.36461
 O156 O 0.63481 0.98152 0.33768
 O157 O 0.65868 0.98167 0.36463
 O158 O 0.63411 1.01636 0.33770
 O159 O 0.65943 1.01731 0.31977
 O160 O 0.68359 0.98210 0.34622
 O161 O 0.65986 0.98199 0.31941
 O162 O 0.68316 1.01710 0.34674
 Cu163 Cu 0.64389 0.99909 0.35306
 Cu164 Cu 0.67401 0.99970 0.33119
 C165 C 0.67445 1.02312 0.36032
 C166 C 0.64331 0.97587 0.32386
 C167 C 0.67531 0.97596 0.35997
 C168 C 0.64257 1.02267 0.32411
 C169 C 0.80773 0.81061 0.51189
 C170 C 0.80913 0.81088 0.49389
 C171 C 0.82249 0.79870 0.48404
 C172 C 0.79765 0.82387 0.48309
 C173 C 0.79627 0.82446 0.52142
 C174 C 0.81856 0.79750 0.52309
 C175 C 0.84223 0.79725 0.48865
 C176 C 0.85448 0.78561 0.47930
 C177 C 0.84739 0.77571 0.46478
 C178 C 0.82782 0.77761 0.45986
 C179 C 0.81548 0.78892 0.46944
 C180 C 0.80717 0.83525 0.47103
 C181 C 0.79664 0.84750 0.46076
 C182 C 0.77631 0.84862 0.46231
 C183 C 0.76676 0.83706 0.47428
 C184 C 0.77731 0.82471 0.48445
 C185 C 0.77984 0.81935 0.53115
 C186 C 0.76919 0.83231 0.54044
 C187 C 0.77516 0.85051 0.54052
 C188 C 0.79177 0.85555 0.53088
 C189 C 0.80216 0.84264 0.52129
 C190 C 0.81784 0.77878 0.51986
 C191 C 0.82906 0.76687 0.53002
 C192 C 0.84085 0.77344 0.54383
 C193 C 0.84092 0.79210 0.54742
 C194 C 0.82993 0.80396 0.53717
 H195 H 0.84816 0.80511 0.49948
 H196 H 0.86958 0.78463 0.48321
 H197 H 0.82196 0.77016 0.44872
 H198 H 0.80038 0.78997 0.46552
 H199 H 0.82283 0.83476 0.46969
 H200 H 0.80448 0.85617 0.45168
 H201 H 0.76961 0.81574 0.49335
 H202 H 0.77521 0.80534 0.53144
 H203 H 0.75653 0.82804 0.54786
 H204 H 0.79665 0.86948 0.53068
 H205 H 0.81494 0.84674 0.51396
 H206 H 0.80884 0.77343 0.50932
 H207 H 0.82853 0.75256 0.52703
 H208 H 0.84980 0.79765 0.55794
 H209 H 0.83069 0.81831 0.53998
 H210 H 0.75111 0.83744 0.47569
 C211 C 0.19239 0.18737 0.50659
 C212 C 0.19207 0.18782 0.48860
 C213 C 0.17834 0.19959 0.47893
 C214 C 0.20429 0.17556 0.47769
 C215 C 0.20398 0.17370 0.51619
 C216 C 0.18011 0.19953 0.51756
 C217 C 0.15830 0.19614 0.47952
 C218 C 0.14545 0.20682 0.46978
 C219 C 0.15243 0.22131 0.45955
 C220 C 0.17250 0.22485 0.45916
 C221 C 0.18538 0.21389 0.46859
 C222 C 0.19551 0.16465 0.46474
 C223 C 0.20664 0.15282 0.45457
 C224 C 0.22685 0.15161 0.45711
 C225 C 0.23568 0.16275 0.46991
 C226 C 0.22452 0.17472 0.47999
 C227 C 0.21975 0.17915 0.52667
 C228 C 0.23056 0.16633 0.53600
 C229 C 0.22540 0.14793 0.53536
 C230 C 0.20945 0.14256 0.52497
 C231 C 0.19891 0.15534 0.51534
 C232 C 0.18054 0.21839 0.51530
 C233 C 0.16871 0.22955 0.52564
 C234 C 0.15650 0.22209 0.53866
 C235 C 0.15643 0.20324 0.54112
 C236 C 0.16809 0.19211 0.53068
 H237 H 0.15270 0.18502 0.48735
 H238 H 0.13005 0.20385 0.47034
 H239 H 0.17827 0.23585 0.45128
 H240 H 0.20084 0.21661 0.46793
 H241 H 0.17994 0.16509 0.46268
 H242 H 0.19934 0.14446 0.44484
 H243 H 0.23168 0.18332 0.48960
 H244 H 0.22373 0.19331 0.52752
 H245 H 0.24270 0.17085 0.54401
 H246 H 0.20519 0.12847 0.52422
 H247 H 0.18665 0.15098 0.50740
 H248 H 0.19008 0.22447 0.50559
 H249 H 0.16926 0.24403 0.52352
 H250 H 0.14721 0.19703 0.55100
 H251 H 0.16754 0.17762 0.53272
 H252 H 0.25123 0.16229 0.47209
 C253 C 0.19233 0.81161 0.48909
 C254 C 0.19093 0.81173 0.50709
 C255 C 0.17750 0.79950 0.51689
 C256 C 0.20257 0.82457 0.51801
 C257 C 0.20426 0.82527 0.47970
 C258 C 0.18123 0.79879 0.47773
 C259 C 0.15774 0.79806 0.51232
 C260 C 0.14541 0.78652 0.52177
 C261 C 0.15244 0.77671 0.53634
 C262 C 0.17205 0.77856 0.54119
 C263 C 0.18446 0.78976 0.53151
 C264 C 0.19316 0.83595 0.53010
 C265 C 0.20383 0.84797 0.54058
 C266 C 0.22419 0.84887 0.53919
 C267 C 0.23363 0.83732 0.52717
 C268 C 0.22293 0.82519 0.51679
 C269 C 0.22069 0.81986 0.47015
 C270 C 0.23180 0.83262 0.46099
 C271 C 0.22632 0.85092 0.46085
 C272 C 0.20973 0.85626 0.47032
 C273 C 0.19886 0.84355 0.47979
 C274 C 0.18170 0.78001 0.48061
 C275 C 0.17046 0.76836 0.47014
 C276 C 0.15884 0.77523 0.45638
 C277 C 0.15894 0.79396 0.45320
 C278 C 0.16998 0.80558 0.46374
 H279 H 0.15184 0.80590 0.50149
 H280 H 0.13028 0.78555 0.51791
 H281 H 0.17787 0.77117 0.55236
 H282 H 0.19958 0.79080 0.53540
 H283 H 0.17748 0.83561 0.53134
 H284 H 0.19608 0.85664 0.54970
 H285 H 0.23054 0.81620 0.50788
 H286 H 0.22494 0.80576 0.46990
 H287 H 0.24444 0.82811 0.45371
 H288 H 0.20521 0.87028 0.47047
 H289 H 0.18610 0.84789 0.48699
 H290 H 0.19060 0.77442 0.49108
 H291 H 0.17085 0.75398 0.47285
 H292 H 0.15019 0.79976 0.44273
 H293 H 0.16942 0.81998 0.46119
 H294 H 0.24929 0.83753 0.52588
 C295 C 0.79917 0.19448 0.49151
 C296 C 0.80017 0.19510 0.50948
 C297 C 0.81451 0.20683 0.51854
 C298 C 0.78860 0.18268 0.52085
 C299 C 0.78778 0.18026 0.48239
 C300 C 0.81117 0.20655 0.48011
 C301 C 0.83443 0.20318 0.51712
 C302 C 0.84794 0.21385 0.52617
 C303 C 0.84175 0.22851 0.53655
 C304 C 0.82178 0.23226 0.53776
 C305 C 0.80824 0.22132 0.52901
 C306 C 0.79805 0.17210 0.53363
 C307 C 0.78757 0.15999 0.54409
 C308 C 0.76735 0.15814 0.54202
 C309 C 0.75782 0.16898 0.52943
 C310 C 0.76833 0.18124 0.51905
 C311 C 0.77145 0.18491 0.47228
 C312 C 0.76108 0.17154 0.46318
 C313 C 0.76727 0.15345 0.46364
 C314 C 0.78371 0.14888 0.47372
 C315 C 0.79378 0.16217 0.48316
 C316 C 0.81111 0.22542 0.48238
 C317 C 0.82321 0.23643 0.47209
 C318 C 0.83529 0.22880 0.45909
 C319 C 0.83483 0.20998 0.45650
 C320 C 0.82294 0.19899 0.46690
 H321 H 0.83945 0.19193 0.50917
 H322 H 0.86324 0.21069 0.52498
 H323 H 0.81663 0.24339 0.54579
 H324 H 0.79288 0.22421 0.53029
 H325 H 0.81366 0.17297 0.53530
 H326 H 0.79540 0.15188 0.55364
 H327 H 0.76066 0.18956 0.50957
 H328 H 0.76676 0.19886 0.47150
 H329 H 0.74854 0.17542 0.45540
 H330 H 0.78874 0.13503 0.47433
 H331 H 0.80648 0.15844 0.49080
 H332 H 0.80180 0.23161 0.49218
 H333 H 0.82306 0.25090 0.47429
 H334 H 0.84394 0.20364 0.44662
 H335 H 0.82324 0.18450 0.46485
 H336 H 0.74224 0.16802 0.52761
 C337 C 0.50906 0.81691 0.81810
 C338 C 0.48932 0.81796 0.81953
 C339 C 0.47793 0.83005 0.80773
 C340 C 0.47817 0.80741 0.83293
 C341 C 0.52089 0.80394 0.82854
 C342 C 0.51995 0.82955 0.80651
 C343 C 0.46520 0.84282 0.81502
 C344 C 0.45465 0.85442 0.80405
 C345 C 0.45666 0.85348 0.78555
 C346 C 0.46916 0.84043 0.77829
 C347 C 0.47953 0.82871 0.78926
 C348 C 0.48381 0.80711 0.85081
 C349 C 0.47337 0.79684 0.86311
 C350 C 0.45669 0.78721 0.85790
 C351 C 0.45063 0.78808 0.84017
 C352 C 0.46132 0.79800 0.82780
 C353 C 0.51632 0.78541 0.82904
 C354 C 0.52714 0.77360 0.83961
 C355 C 0.54297 0.78006 0.84960
 C356 C 0.54789 0.79850 0.84855
 C357 C 0.53697 0.81028 0.83815
 C358 C 0.53015 0.82295 0.79183
 C359 C 0.54041 0.83482 0.78088
 C360 C 0.54110 0.85341 0.78475
 C361 C 0.53113 0.85992 0.79966
 C362 C 0.52050 0.84810 0.81037
 H363 H 0.46364 0.84397 0.82923
 H364 H 0.44513 0.86430 0.81007
 H365 H 0.47087 0.83918 0.76410
 H366 H 0.48885 0.81861 0.78335
 H367 H 0.49632 0.81476 0.85526
 H368 H 0.47821 0.79663 0.87674
 H369 H 0.45654 0.79818 0.81415
 H370 H 0.50424 0.78013 0.82141
 H371 H 0.52309 0.75945 0.83999
 H372 H 0.55998 0.80395 0.85604
 H373 H 0.54084 0.82449 0.83792
 H374 H 0.52993 0.80863 0.78876
 H375 H 0.54807 0.82943 0.76954
 H376 H 0.53136 0.87419 0.80292
 H377 H 0.51283 0.85336 0.82176
 H378 H 0.43783 0.78080 0.83578
 C379 C 0.51211 0.18452 0.18402
 C380 C 0.49237 0.18615 0.18466
 C381 C 0.48020 0.17582 0.19739
 C382 C 0.48188 0.19764 0.17172
 C383 C 0.52389 0.19609 0.17201
 C384 C 0.52291 0.17103 0.19487
 C385 C 0.46432 0.16573 0.19114
 C386 C 0.45343 0.15502 0.20267
 C387 C 0.45819 0.15414 0.22073
 C388 C 0.47368 0.16475 0.22712
 C389 C 0.48446 0.17564 0.21557
 C390 C 0.48174 0.19307 0.15371
 C391 C 0.47172 0.20382 0.14155
 C392 C 0.46197 0.21948 0.14718
 C393 C 0.46221 0.22404 0.16523
 C394 C 0.47186 0.21305 0.17745
 C395 C 0.52249 0.21502 0.17267
 C396 C 0.53318 0.22576 0.16098
 C397 C 0.54578 0.21778 0.14863
 C398 C 0.54760 0.19883 0.14836
 C399 C 0.53674 0.18811 0.15994
 C400 C 0.53951 0.17644 0.20433
 C401 C 0.54987 0.16399 0.21453
 C402 C 0.54371 0.14589 0.21562
 C403 C 0.52727 0.14040 0.20595
 C404 C 0.51718 0.15277 0.19543
 H405 H 0.46067 0.16571 0.17720
 H406 H 0.44157 0.14707 0.19729
 H407 H 0.47759 0.16454 0.24099
 H408 H 0.49637 0.18365 0.22076
 H409 H 0.48930 0.18113 0.14913
 H410 H 0.47182 0.20001 0.12772
 H411 H 0.47178 0.21668 0.19133
 H412 H 0.51306 0.22148 0.18222
 H413 H 0.53162 0.24031 0.16169
 H414 H 0.55719 0.19226 0.13903
 H415 H 0.53814 0.17353 0.15931
 H416 H 0.54436 0.19039 0.20396
 H417 H 0.56249 0.16860 0.22183
 H418 H 0.52237 0.12647 0.20632
 H419 H 0.50485 0.14810 0.18776
 H420 H 0.45469 0.23596 0.16993
 C421 C 0.48817 0.18644 0.81589
 C422 C 0.50790 0.18484 0.81678
 C423 C 0.51876 0.17142 0.80598
 C424 C 0.51961 0.19627 0.82907
 C425 C 0.47758 0.19790 0.82871
 C426 C 0.47609 0.17602 0.80306
 C427 C 0.51313 0.15314 0.80545
 C428 C 0.52318 0.14084 0.79484
 C429 C 0.53947 0.14646 0.78506
 C430 C 0.54555 0.16457 0.78616
 C431 C 0.53523 0.17695 0.79645
 C432 C 0.53245 0.18812 0.84107
 C433 C 0.54339 0.19869 0.85278
 C434 C 0.54168 0.21765 0.85272
 C435 C 0.52904 0.22579 0.84047
 C436 C 0.51826 0.21522 0.82865
 C437 C 0.46779 0.21342 0.82293
 C438 C 0.45818 0.22447 0.83509
 C439 C 0.45774 0.21984 0.85311
 C440 C 0.46722 0.20405 0.85878
 C441 C 0.47720 0.19325 0.84668
 C442 C 0.48048 0.17573 0.78491
 C443 C 0.46970 0.16487 0.77330
 C444 C 0.45407 0.15438 0.77957
 C445 C 0.44923 0.15532 0.79761
 C446 C 0.46012 0.16600 0.80920
 H447 H 0.50088 0.14841 0.81316
 H448 H 0.51836 0.12689 0.79446
 H449 H 0.55805 0.16927 0.77877
 H450 H 0.53998 0.19093 0.79682
 H451 H 0.53382 0.17354 0.84153
 H452 H 0.55300 0.19197 0.86201
 H453 H 0.50887 0.22183 0.81916
 H454 H 0.46792 0.21711 0.80906
 H455 H 0.45087 0.23649 0.83037
 H456 H 0.46715 0.20020 0.87260
 H457 H 0.48459 0.18121 0.85129
 H458 H 0.49246 0.18367 0.77979
 H459 H 0.47368 0.16461 0.75946
 H460 H 0.43727 0.14747 0.80291
 H461 H 0.45636 0.16605 0.82311
 H462 H 0.52754 0.24035 0.83992
 C463 C 0.49331 0.81703 0.18023
 C464 C 0.51318 0.81733 0.17995
 C465 C 0.52458 0.83045 0.19076
 C466 C 0.52460 0.80488 0.16849
 C467 C 0.48183 0.80580 0.16761
 C468 C 0.48194 0.82833 0.19283
 C469 C 0.52024 0.84901 0.19055
 C470 C 0.53062 0.86105 0.20122
 C471 C 0.54602 0.85487 0.21181
 C472 C 0.55093 0.83645 0.21142
 C473 C 0.54023 0.82434 0.20106
 C474 C 0.53891 0.81197 0.15722
 C475 C 0.54940 0.80062 0.14600
 C476 C 0.54581 0.78189 0.14577
 C477 C 0.53177 0.77473 0.15735
 C478 C 0.52140 0.78610 0.16872
 C479 C 0.46655 0.79495 0.17390
 C480 C 0.45559 0.78440 0.16223
 C481 C 0.45987 0.78433 0.14408
 C482 C 0.47496 0.79537 0.13773
 C483 C 0.48559 0.80627 0.14934
 C484 C 0.48570 0.82799 0.21110
 C485 C 0.47532 0.83921 0.22261
 C486 C 0.46072 0.85072 0.21611
 C487 C 0.45659 0.85059 0.19789
 C488 C 0.46709 0.83953 0.18639
 H489 H 0.50869 0.85416 0.18223
 H490 H 0.52674 0.87524 0.20107
 H491 H 0.56274 0.83134 0.21945
 H492 H 0.54400 0.81012 0.20127
 H493 H 0.54171 0.82639 0.15688
 H494 H 0.56011 0.80660 0.13729
 H495 H 0.51074 0.78027 0.17759
 H496 H 0.46322 0.79454 0.18789
 H497 H 0.44401 0.77601 0.16746
 H498 H 0.47834 0.79577 0.12375
 H499 H 0.49682 0.81502 0.14407
 H500 H 0.49680 0.81916 0.21642
 H501 H 0.47873 0.83884 0.23659
 H502 H 0.44544 0.85925 0.19242
 H503 H 0.46386 0.83995 0.17237
 H504 H 0.52878 0.76035 0.15764
 C505 C 0.80884 0.50798 0.81008
 C506 C 0.81060 0.48961 0.81036
 C507 C 0.79939 0.47848 0.82319
 C508 C 0.82405 0.47965 0.79842
 C509 C 0.81930 0.51958 0.79713
 C510 C 0.79730 0.51753 0.82373
 C511 C 0.80920 0.46661 0.83456
 C512 C 0.79889 0.45616 0.84676
 C513 C 0.77853 0.45738 0.84783
 C514 C 0.76871 0.46910 0.83624
 C515 C 0.77904 0.47943 0.82393
 C516 C 0.84368 0.48468 0.79675
 C517 C 0.85607 0.47504 0.78555
 C518 C 0.84925 0.45980 0.77629
 C519 C 0.82977 0.45449 0.77835
 C520 C 0.81729 0.46436 0.78923
 C521 C 0.81853 0.51613 0.77885
 C522 C 0.82945 0.52665 0.76707
 C523 C 0.84098 0.54103 0.77333
 C524 C 0.84106 0.54486 0.79154
 C525 C 0.83038 0.53425 0.80328
 C526 C 0.78024 0.52664 0.81899
 C527 C 0.76945 0.53585 0.83180
 C528 C 0.77591 0.53652 0.84943
 C529 C 0.79315 0.52753 0.85408
 C530 C 0.80367 0.51797 0.84136
 H531 H 0.82489 0.46560 0.83411
 H532 H 0.80692 0.44727 0.85547
 H533 H 0.75303 0.47022 0.83658
 H534 H 0.77115 0.48815 0.81496
 H535 H 0.84945 0.49603 0.80415
 H536 H 0.87109 0.47928 0.78441
 H537 H 0.80228 0.46010 0.79044
 H538 H 0.80974 0.50514 0.77375
 H539 H 0.82891 0.52346 0.75310
 H540 H 0.84975 0.55583 0.79684
 H541 H 0.83116 0.53725 0.81729
 H542 H 0.77523 0.52648 0.80541
 H543 H 0.75630 0.54277 0.82784
 H544 H 0.79842 0.52779 0.86759
 H545 H 0.81691 0.51110 0.84517
 H546 H 0.82409 0.44282 0.77138
 C547 C 0.18755 0.50793 0.18632
 C548 C 0.18818 0.48954 0.18769
 C549 C 0.20116 0.47818 0.17662
 C550 C 0.17480 0.47968 0.19968
 C551 C 0.17502 0.51882 0.19829
 C552 C 0.19887 0.51816 0.17279
 C553 C 0.19323 0.46365 0.16709
 C554 C 0.20491 0.45317 0.15608
 C555 C 0.22483 0.45699 0.15431
 C556 C 0.23291 0.47128 0.16421
 C557 C 0.22120 0.48167 0.17541
 C558 C 0.15474 0.47946 0.19635
 C559 C 0.14227 0.46949 0.20722
 C560 C 0.14964 0.45983 0.22176
 C561 C 0.16972 0.46029 0.22518
 C562 C 0.18223 0.46993 0.21407
 C563 C 0.17681 0.51745 0.21675
 C564 C 0.16485 0.52764 0.22784
 C565 C 0.15112 0.53966 0.22070
 C566 C 0.14968 0.54129 0.20220
 C567 C 0.16151 0.53096 0.19113
 C568 C 0.20929 0.53369 0.17786
 C569 C 0.21955 0.54379 0.16535
 C570 C 0.21985 0.53843 0.14754
 C571 C 0.20940 0.52295 0.14240
 C572 C 0.19869 0.51311 0.15485
 H573 H 0.17785 0.46063 0.16785
 H574 H 0.19818 0.44228 0.14868
 H575 H 0.24824 0.47446 0.16328
 H576 H 0.22771 0.49259 0.18293
 H577 H 0.14883 0.48680 0.18519
 H578 H 0.12686 0.46942 0.20432
 H579 H 0.19770 0.46989 0.21672
 H580 H 0.18750 0.50852 0.22256
 H581 H 0.16649 0.52620 0.24202
 H582 H 0.13928 0.55042 0.19625
 H583 H 0.16001 0.53232 0.17692
 H584 H 0.20950 0.53798 0.19156
 H585 H 0.22748 0.55568 0.16966
 H586 H 0.20915 0.51870 0.12869
 H587 H 0.19020 0.50161 0.15044
 H588 H 0.17579 0.45287 0.23622
 C589 C 0.81104 0.49205 0.18637
 C590 C 0.81056 0.51046 0.18646
 C591 C 0.79981 0.52076 0.17289
 C592 C 0.82160 0.52123 0.19958
 C593 C 0.82317 0.48177 0.19914
 C594 C 0.79979 0.48126 0.17325
 C595 C 0.80598 0.52070 0.15523
 C596 C 0.79569 0.53045 0.14246
 C597 C 0.77892 0.54015 0.14715
 C598 C 0.77282 0.54015 0.16489
 C599 C 0.78334 0.53072 0.17770
 C600 C 0.83856 0.53029 0.19431
 C601 C 0.84998 0.53934 0.20677
 C602 C 0.84418 0.54012 0.22454
 C603 C 0.82674 0.53174 0.22968
 C604 C 0.81565 0.52210 0.21730
 C605 C 0.81471 0.46806 0.20943
 C606 C 0.82602 0.45806 0.22126
 C607 C 0.84595 0.46174 0.22311
 C608 C 0.85444 0.47532 0.21267
 C609 C 0.84323 0.48500 0.20056
 C610 C 0.77962 0.48337 0.17137
 C611 C 0.76931 0.47308 0.15896
 C612 C 0.77893 0.46024 0.14840
 C613 C 0.79907 0.45795 0.15057
 C614 C 0.80937 0.46834 0.16286
 H615 H 0.81875 0.51314 0.15137
 H616 H 0.80069 0.53019 0.12888
 H617 H 0.76004 0.54762 0.16889
 H618 H 0.77848 0.53091 0.19132
 H619 H 0.84329 0.52977 0.18066
 H620 H 0.86332 0.54583 0.20254
 H621 H 0.80253 0.51523 0.22152
 H622 H 0.79932 0.46516 0.20834
 H623 H 0.81912 0.44762 0.22911
 H624 H 0.86986 0.47818 0.21357
 H625 H 0.85027 0.49487 0.19216
 H626 H 0.77183 0.49290 0.17959
 H627 H 0.75378 0.47508 0.15778
 H628 H 0.80695 0.44819 0.14268
 H629 H 0.82490 0.46640 0.16418
 H630 H 0.82206 0.53219 0.24335
 C631 C 0.19094 0.48964 0.81288
 C632 C 0.19088 0.50805 0.81258
 C633 C 0.20174 0.51866 0.82593
 C634 C 0.17879 0.51850 0.79985
 C635 C 0.17800 0.47907 0.80113
 C636 C 0.20273 0.47918 0.82581
 C637 C 0.19605 0.51838 0.84374
 C638 C 0.20599 0.52886 0.85621
 C639 C 0.22194 0.53954 0.85108
 C640 C 0.22767 0.53966 0.83324
 C641 C 0.21746 0.52948 0.82072
 C642 C 0.16605 0.53177 0.80621
 C643 C 0.15443 0.54164 0.79456
 C644 C 0.15525 0.53845 0.77624
 C645 C 0.16820 0.52530 0.76983
 C646 C 0.17999 0.51554 0.78151
 C647 C 0.18594 0.46846 0.78760
 C648 C 0.17379 0.45846 0.77645
 C649 C 0.15357 0.45853 0.77903
 C650 C 0.14570 0.46896 0.79281
 C651 C 0.15783 0.47929 0.80369
 C652 C 0.22286 0.48193 0.82748
 C653 C 0.23362 0.47213 0.83992
 C654 C 0.22450 0.45917 0.85075
 C655 C 0.20442 0.45622 0.84878
 C656 C 0.19368 0.46611 0.83647
 H657 H 0.18381 0.51019 0.84790
 H658 H 0.20131 0.52847 0.86988
 H659 H 0.23982 0.54788 0.82892
 H660 H 0.22190 0.52990 0.80698
 H661 H 0.16489 0.53436 0.82027
 H662 H 0.14463 0.55165 0.79998
 H663 H 0.19009 0.50572 0.77624
 H664 H 0.20151 0.46812 0.78558
 H665 H 0.18021 0.45043 0.76600
 H666 H 0.13016 0.46929 0.79503
 H667 H 0.15155 0.48734 0.81419
 H668 H 0.23026 0.49162 0.81911
 H669 H 0.24909 0.47463 0.84097
 H670 H 0.19690 0.44637 0.85688
 H671 H 0.17819 0.46370 0.83541
 H672 H 0.16934 0.52264 0.75579
 C673 C 0.29892 0.38892 0.06526
 N674 N 0.31629 0.39489 0.05902
 N675 N 0.32540 0.38594 0.04617
 C676 C 0.31747 0.37071 0.03912
 N677 N 0.30013 0.36475 0.04539
 N678 N 0.29101 0.37370 0.05820
 C679 C 0.28863 0.39879 0.07925
 N680 N 0.27091 0.39303 0.08477
 N681 N 0.26130 0.40204 0.09722
 C682 C 0.26905 0.41713 0.10467
 N683 N 0.28683 0.42287 0.09921
 N684 N 0.29645 0.41386 0.08671
 C685 C 0.25804 0.42722 0.11802
 N686 N 0.26562 0.44217 0.12591
 N687 N 0.25522 0.45151 0.13764
 C688 C 0.23684 0.44629 0.14188
 N689 N 0.22939 0.43127 0.13401
 N690 N 0.23977 0.42192 0.12234
 C691 C 0.70596 0.60946 0.05824
 N692 N 0.68674 0.60643 0.05539
 N693 N 0.67707 0.61596 0.04329
 C694 C 0.68626 0.62898 0.03376
 N695 N 0.70544 0.63207 0.03670
 N696 N 0.71514 0.62243 0.04866
 C697 C 0.71672 0.59888 0.07139
 N698 N 0.73645 0.59890 0.07140
 N699 N 0.74629 0.58930 0.08331
 C700 C 0.73676 0.57948 0.09574
 N701 N 0.71702 0.57950 0.09579
 N702 N 0.70718 0.58896 0.08376
 C703 C 0.74763 0.56912 0.10899
 N704 N 0.73869 0.56285 0.12376
 N705 N 0.74865 0.55367 0.13591
 C706 C 0.76788 0.55027 0.13366
 N707 N 0.77677 0.55646 0.11880
 N708 N 0.76686 0.56578 0.10674
 C709 C 0.70759 0.38646 0.93721
 N710 N 0.68956 0.39144 0.94259
 N711 N 0.68028 0.38205 0.95505
 C712 C 0.68868 0.36731 0.96253
 N713 N 0.70668 0.36231 0.95710
 N714 N 0.71598 0.37173 0.94470
 C715 C 0.71795 0.39688 0.92363
 N716 N 0.73656 0.39272 0.91936
 N717 N 0.74607 0.40225 0.90716
 C718 C 0.73730 0.41625 0.89875
 N719 N 0.71866 0.42038 0.90299
 N720 N 0.70916 0.41088 0.91523
 C721 C 0.74788 0.42681 0.88543
 N722 N 0.73882 0.44002 0.87611
 N723 N 0.74851 0.44966 0.86411
 C724 C 0.76766 0.44652 0.86101
 N725 N 0.77668 0.43328 0.87037
 N726 N 0.76698 0.42360 0.88232
 C727 C 0.29169 0.61345 0.93887
 N728 N 0.31103 0.61109 0.94149
 N729 N 0.32042 0.62060 0.95381
 C730 C 0.31084 0.63294 0.96381
 N731 N 0.29153 0.63540 0.96110
 N732 N 0.28210 0.62576 0.94890
 C733 C 0.28128 0.60267 0.92560
 N734 N 0.26158 0.60167 0.92579
 N735 N 0.25214 0.59161 0.91393
 C736 C 0.26205 0.58232 0.90137
 N737 N 0.28175 0.58341 0.90111
 N738 N 0.29119 0.59333 0.91307
 C739 C 0.25167 0.57122 0.88833
 N740 N 0.26081 0.56529 0.87354
 N741 N 0.25135 0.55526 0.86167
 C742 C 0.23244 0.55063 0.86424
 N743 N 0.22335 0.55650 0.87911
 N744 N 0.23276 0.56668 0.89089
 C745 C 0.06232 0.29499 0.38895
 N746 N 0.05130 0.28726 0.37608
 N747 N 0.03864 0.29711 0.36689
 C748 C 0.03640 0.31499 0.37037
 N749 N 0.04739 0.32272 0.38325
 N750 N 0.06020 0.31291 0.39232
 C751 C 0.07598 0.28406 0.39930
 N752 N 0.09010 0.29208 0.40913
 N753 N 0.10238 0.28213 0.41865
 C754 C 0.10083 0.26382 0.41884
 N755 N 0.08666 0.25581 0.40907
 N756 N 0.07452 0.26575 0.39940
 C757 C 0.11418 0.25286 0.42949
 N758 N 0.10984 0.23538 0.43331
 N759 N 0.12192 0.22541 0.44300
 C760 C 0.13889 0.23249 0.44909
 N761 N 0.14325 0.24997 0.44519
 N762 N 0.13107 0.26000 0.43565
 C763 C 0.06517 0.69853 0.60565
 N764 N 0.05475 0.68503 0.59795
 N765 N 0.04233 0.67516 0.60744
 C766 C 0.03977 0.67855 0.62493
 N767 N 0.05017 0.69205 0.63263
 N768 N 0.06273 0.70179 0.62318
 C769 C 0.07853 0.70972 0.59517
 N770 N 0.09183 0.72048 0.60330
 N771 N 0.10374 0.73089 0.59384
 C772 C 0.10264 0.73108 0.57591
 N773 N 0.08930 0.72035 0.56777
 N774 N 0.07751 0.70980 0.57723
 C775 C 0.11558 0.74280 0.56556
 N776 N 0.11174 0.74643 0.54830
 N777 N 0.12338 0.75728 0.53902
 C778 C 0.13941 0.76477 0.54661
 N779 N 0.14326 0.76105 0.56385
 N780 N 0.13152 0.75035 0.57317
 C781 C 0.93511 0.69822 0.39569
 N782 N 0.93716 0.70154 0.37814
 N783 N 0.94980 0.69217 0.36851
 C784 C 0.96072 0.67898 0.37604
 N785 N 0.95857 0.67552 0.39357
 N786 N 0.94604 0.68504 0.40325
 C787 C 0.92156 0.70904 0.40627
 N788 N 0.92277 0.70930 0.42420
 N789 N 0.91084 0.71965 0.43368
 C790 C 0.89718 0.72997 0.42558
 N791 N 0.89588 0.72958 0.40767
 N792 N 0.90792 0.71938 0.39819
 C793 C 0.88417 0.74159 0.43590
 N794 N 0.86814 0.74888 0.42826
 N795 N 0.85641 0.75961 0.43749
 C796 C 0.86036 0.76364 0.45466
 N797 N 0.87644 0.75638 0.46227
 N798 N 0.88809 0.74550 0.45308
 C799 C 0.93604 0.29916 0.60596
 N800 N 0.93898 0.31713 0.60329
 N801 N 0.95200 0.32619 0.61294
 C802 C 0.96235 0.31762 0.62572
 N803 N 0.95930 0.29970 0.62846
 N804 N 0.94645 0.29062 0.61870
 C805 C 0.92205 0.28897 0.59520
 N806 N 0.92288 0.27064 0.59464
 N807 N 0.91025 0.26125 0.58493
 C808 C 0.89618 0.26983 0.57558
 N809 N 0.89528 0.28817 0.57618
 N810 N 0.90807 0.29759 0.58576
 C811 C 0.88217 0.25933 0.56513
 N812 N 0.86521 0.26681 0.55965
 N813 N 0.85233 0.25703 0.55054
 C814 C 0.85605 0.23949 0.54642
 N815 N 0.87310 0.23209 0.55180
 N816 N 0.88587 0.24180 0.56106
 C817 C 0.39117 0.06409 0.29474
 N818 N 0.37429 0.05657 0.28899
 N819 N 0.36559 0.04359 0.29830
 C820 C 0.37348 0.03760 0.31367
 N821 N 0.39038 0.04509 0.31943
 N822 N 0.39907 0.05812 0.31013
 C823 C 0.40075 0.07829 0.28432
 N824 N 0.41728 0.08639 0.29021
 N825 N 0.42605 0.09909 0.28055
 C826 C 0.41860 0.10413 0.26466
 N827 N 0.40206 0.09606 0.25881
 N828 N 0.39328 0.08340 0.26848
 C829 C 0.42851 0.11767 0.25366
 N830 N 0.42179 0.12143 0.23719
 N831 N 0.43107 0.13320 0.22688
 C832 C 0.44741 0.14174 0.23262
 N833 N 0.45402 0.13807 0.24919
 N834 N 0.44476 0.12625 0.25950
 C835 C 0.60948 0.06111 0.70845
 N836 N 0.59989 0.05121 0.69606
 N837 N 0.60942 0.03943 0.68596
 C838 C 0.62885 0.03703 0.68800
 N839 N 0.63842 0.04690 0.70041
 N840 N 0.62892 0.05879 0.71040
 C841 C 0.59899 0.07393 0.71974
 N842 N 0.60884 0.08636 0.72948
 N843 N 0.59935 0.09793 0.73983
 C844 C 0.57967 0.09736 0.74095
 N845 N 0.56981 0.08488 0.73126
 N846 N 0.57930 0.07342 0.72078
 C847 C 0.56926 0.11003 0.75246
 N848 N 0.55032 0.10716 0.75662
 N849 N 0.54089 0.11866 0.76710
 C850 C 0.55001 0.13353 0.77370
 N851 N 0.56895 0.13639 0.76947
 N852 N 0.57842 0.12481 0.75912
 C853 C 0.38737 0.93955 0.70891
 N854 N 0.39464 0.94407 0.69281
 N855 N 0.38559 0.95614 0.68266
 C856 C 0.36890 0.96406 0.68821
 N857 N 0.36160 0.95950 0.70428
 N858 N 0.37069 0.94749 0.71446
 C859 C 0.39746 0.92643 0.72021
 N860 N 0.39132 0.92336 0.73700
 N861 N 0.40059 0.91160 0.74734
 C862 C 0.41628 0.90243 0.74122
 N863 N 0.42237 0.90546 0.72440
 N864 N 0.41315 0.91728 0.71409
 C865 C 0.42658 0.88959 0.75266
 N866 N 0.44117 0.87926 0.74612
 N867 N 0.45063 0.86772 0.75654
 C868 C 0.44593 0.86611 0.77392
 N869 N 0.43132 0.87649 0.78043
 N870 N 0.42180 0.88798 0.77000
 C871 C 0.61525 0.93836 0.29129
 N872 N 0.60527 0.94741 0.30397
 N873 N 0.61432 0.95914 0.31454
 C874 C 0.63364 0.96236 0.31270
 N875 N 0.64363 0.95333 0.30000
 N876 N 0.63461 0.94145 0.28954
 C877 C 0.60512 0.92578 0.27944
 N878 N 0.61519 0.91370 0.26952
 N879 N 0.60590 0.90237 0.25869
 C880 C 0.58624 0.90285 0.25726
 N881 N 0.57619 0.91498 0.26713
 N882 N 0.58546 0.92618 0.27808
 C883 C 0.57596 0.89050 0.24529
 N884 N 0.55724 0.89377 0.24063
 N885 N 0.54781 0.88254 0.22983
 C886 C 0.55668 0.86752 0.22341
 N887 N 0.57540 0.86424 0.22812
 N888 N 0.58490 0.87558 0.23879
 C889 C 0.38916 0.29562 0.93974
 N890 N 0.37439 0.28844 0.94934
 N891 N 0.36517 0.29835 0.96138
 C892 C 0.37051 0.31577 0.96439
 N893 N 0.38532 0.32297 0.95483
 N894 N 0.39442 0.31309 0.94264
 C895 C 0.39937 0.28452 0.92664
 N896 N 0.41087 0.29226 0.91416
 N897 N 0.42008 0.28207 0.90229
 C898 C 0.41826 0.26378 0.90262
 N899 N 0.40683 0.25606 0.91515
 N900 N 0.39748 0.26625 0.92688
 C901 C 0.42852 0.25246 0.88973
 N902 N 0.43060 0.23446 0.89263
 N903 N 0.43996 0.22412 0.88102
 C904 C 0.44742 0.23136 0.86597
 N905 N 0.44523 0.24937 0.86304
 N906 N 0.43604 0.25975 0.87475
 C907 C 0.61330 0.70376 0.93476
 N908 N 0.60555 0.68804 0.94083
 N909 N 0.61461 0.67853 0.95333
 C910 C 0.63176 0.68440 0.96017
 N911 N 0.63953 0.70008 0.95405
 N912 N 0.63045 0.70960 0.94160
 C913 C 0.60322 0.71448 0.92125
 N914 N 0.61051 0.73071 0.91610
 N915 N 0.60122 0.74070 0.90414
 C916 C 0.58432 0.73480 0.89685
 N917 N 0.57706 0.71851 0.90192
 N918 N 0.58634 0.70853 0.91392
 C919 C 0.57388 0.74617 0.88409
 N920 N 0.55726 0.74027 0.87625
 N921 N 0.54757 0.75091 0.86509
 C922 C 0.55408 0.76786 0.86139
 N923 N 0.57076 0.77366 0.86920
 N924 N 0.58048 0.76302 0.88030
 C925 C 0.38600 0.70723 0.06191
 N926 N 0.39509 0.69420 0.05238
 N927 N 0.38525 0.68430 0.04066
 C928 C 0.36602 0.68721 0.03793
 N929 N 0.35692 0.70025 0.04745
 N930 N 0.36672 0.71002 0.05931
 C931 C 0.39696 0.71841 0.07448
 N932 N 0.38760 0.72845 0.08685
 N933 N 0.39760 0.73879 0.09809
 C934 C 0.41728 0.73961 0.09723
 N935 N 0.42663 0.72961 0.08483
 N936 N 0.41666 0.71913 0.07371
 C937 C 0.42829 0.75121 0.10939
 N938 N 0.44701 0.75572 0.10581
 N939 N 0.45699 0.76636 0.11678
 C940 C 0.44870 0.77274 0.13182
 N941 N 0.42999 0.76814 0.13543
 N942 N 0.41994 0.75766 0.12437
 C943 C 0.61646 0.29199 0.06171
 N944 N 0.60947 0.30835 0.05664
 N945 N 0.61861 0.31804 0.04432
 C946 C 0.63511 0.31174 0.03668
 N947 N 0.64213 0.29542 0.04179
 N948 N 0.63295 0.28571 0.05406
 C949 C 0.60625 0.28115 0.07506
 N950 N 0.61212 0.26404 0.07874
 N951 N 0.60270 0.25408 0.09066
 C952 C 0.58713 0.26089 0.09939
 N953 N 0.58130 0.27802 0.09577
 N954 N 0.59067 0.28797 0.08379
 C955 C 0.57661 0.24981 0.11236
 N956 N 0.56205 0.25702 0.12215
 N957 N 0.55236 0.24688 0.13376
 C958 C 0.55681 0.22913 0.13598
 N959 N 0.57141 0.22195 0.12615
 N960 N 0.58115 0.23210 0.11460
 C961 C 0.29639 0.06010 0.60844
 N962 N 0.28671 0.05053 0.62098
 N963 N 0.29609 0.03877 0.63121
 C964 C 0.31545 0.03603 0.62916
 N965 N 0.32513 0.04554 0.61658
 N966 N 0.31579 0.05744 0.60646
 C967 C 0.28600 0.07303 0.59720
 N968 N 0.29585 0.08569 0.58775
 N969 N 0.28634 0.09752 0.57769
 C970 C 0.26665 0.09699 0.57657
 N971 N 0.25682 0.08426 0.58593
 N972 N 0.26632 0.07255 0.59612
 C973 C 0.25611 0.11005 0.56559
 N974 N 0.23723 0.10711 0.56123
 N975 N 0.22755 0.11906 0.55144
 C976 C 0.23632 0.13448 0.54580
 N977 N 0.25521 0.13743 0.55021
 N978 N 0.26496 0.12539 0.55985
 C979 C 0.70096 0.06180 0.39100
 N980 N 0.71053 0.05410 0.37725
 N981 N 0.70185 0.04168 0.36720
 C982 C 0.68334 0.03634 0.37065
 N983 N 0.67378 0.04401 0.38446
 N984 N 0.68241 0.05659 0.39439
 C985 C 0.71064 0.07539 0.40207
 N986 N 0.70015 0.08658 0.41261
 N987 N 0.70901 0.09899 0.42258
 C988 C 0.72868 0.10048 0.42251
 N989 N 0.73916 0.08922 0.41205
 N990 N 0.73029 0.07696 0.40194
 C991 C 0.73853 0.11408 0.43346
 N992 N 0.75779 0.11258 0.43701
 N993 N 0.76684 0.12499 0.44680
 C994 C 0.75703 0.13948 0.45324
 N995 N 0.73776 0.14100 0.44962
 N996 N 0.72865 0.12848 0.44000
 C997 C 0.70394 0.93981 0.61172
 N998 N 0.71338 0.94966 0.62424
 N999 N 0.70382 0.96171 0.63401
 C1000 C 0.68452 0.96445 0.63150
 N1001 N 0.67509 0.95465 0.61894
 N1002 N 0.68461 0.94248 0.60929
 C1003 C 0.71449 0.92656 0.60096
 N1004 N 0.70470 0.91396 0.59137
 N1005 N 0.71429 0.90189 0.58165
 C1006 C 0.73401 0.90212 0.58103
 N1007 N 0.74379 0.91478 0.59055
 N1008 N 0.73420 0.92674 0.60040
 C1009 C 0.74459 0.88884 0.57034
 N1010 N 0.76368 0.89135 0.56656
 N1011 N 0.77334 0.87925 0.55693
 C1012 C 0.76432 0.86410 0.55086
 N1013 N 0.74522 0.86159 0.55471
 N1014 N 0.73551 0.87377 0.56419
 C1015 C 0.29993 0.93836 0.38909
 N1016 N 0.31925 0.94112 0.39165
 N1017 N 0.32890 0.95316 0.38189
 C1018 C 0.31962 0.96271 0.36909
 N1019 N 0.30035 0.95985 0.36645
 N1020 N 0.29066 0.94795 0.37632
 C1021 C 0.28914 0.92539 0.40003
 N1022 N 0.26942 0.92574 0.40043
 N1023 N 0.25956 0.91407 0.41042
 C1024 C 0.26904 0.90151 0.42025
 N1025 N 0.28877 0.90110 0.41979
 N1026 N 0.29864 0.91290 0.40993
 C1027 C 0.25810 0.88853 0.43105
 N1028 N 0.26679 0.87342 0.43744
 N1029 N 0.25670 0.86147 0.44694
 C1030 C 0.23762 0.86429 0.45057
 N1031 N 0.22900 0.87950 0.44428
 N1032 N 0.23903 0.89135 0.43464
 C1033 C 0.06706 0.38656 0.70289
 N1034 N 0.05582 0.37328 0.70992
 N1035 N 0.04335 0.36413 0.69981
 C1036 C 0.04153 0.36805 0.68235
 N1037 N 0.05276 0.38134 0.67531
 N1038 N 0.06539 0.39037 0.68538
 C1039 C 0.08037 0.39695 0.71416
 N1040 N 0.09471 0.40721 0.70695
 N1041 N 0.10659 0.41683 0.71725
 C1042 C 0.10440 0.41668 0.73510
 N1043 N 0.09003 0.40647 0.74229
 N1044 N 0.07829 0.39670 0.73201
 C1045 C 0.11720 0.42752 0.74645
 N1046 N 0.11207 0.43119 0.76340
 N1047 N 0.12359 0.44115 0.77372
 C1048 C 0.14075 0.44765 0.76753
 N1049 N 0.14591 0.44389 0.75058
 N1050 N 0.13429 0.43409 0.74020
 C1051 C 0.06353 0.60925 0.29776
 N1052 N 0.05453 0.62431 0.29161
 N1053 N 0.04198 0.63327 0.30173
 C1054 C 0.03791 0.62746 0.31835
 N1055 N 0.04693 0.61241 0.32452
 N1056 N 0.05954 0.60348 0.31442
 C1057 C 0.07707 0.59920 0.28646
 N1058 N 0.08705 0.58482 0.29292
 N1059 N 0.09912 0.57555 0.28257
 C1060 C 0.10159 0.58029 0.26537
 N1061 N 0.09162 0.59467 0.25891
 N1062 N 0.07961 0.60397 0.26928
 C1063 C 0.11462 0.56989 0.25386
 N1064 N 0.11568 0.57359 0.23630
 N1065 N 0.12729 0.56402 0.22580
 C1066 C 0.13834 0.55041 0.23243
 N1067 N 0.13730 0.54678 0.25003
 N1068 N 0.12563 0.55631 0.26053
 C1069 C 0.93088 0.39075 0.30104
 N1070 N 0.93290 0.37275 0.29802
 N1071 N 0.94583 0.36312 0.30711
 C1072 C 0.95707 0.37111 0.31966
 N1073 N 0.95491 0.38907 0.32282
 N1074 N 0.94211 0.39874 0.31360
 C1075 C 0.91727 0.40149 0.29045
 N1076 N 0.91882 0.41978 0.28993
 N1077 N 0.90700 0.42949 0.27972
 C1078 C 0.89309 0.42126 0.26981
 N1079 N 0.89141 0.40298 0.27047
 N1080 N 0.90336 0.39325 0.28054
 C1081 C 0.88052 0.43191 0.25813
 N1082 N 0.86418 0.42453 0.25106
 N1083 N 0.85304 0.43409 0.24011
 C1084 C 0.85795 0.45131 0.23566
 N1085 N 0.87431 0.45865 0.24274
 N1086 N 0.88535 0.44916 0.25383
 C1087 C 0.93242 0.60826 0.69792
 N1088 N 0.93862 0.60156 0.68218
 N1089 N 0.95225 0.61020 0.67291
 C1090 C 0.96014 0.62585 0.67905
 N1091 N 0.95390 0.63255 0.69475
 N1092 N 0.94031 0.62391 0.70402
 C1093 C 0.91771 0.59867 0.70841
 N1094 N 0.91253 0.60502 0.72457
 N1095 N 0.89956 0.59619 0.73438
 C1096 C 0.89122 0.58070 0.72838
 N1097 N 0.89630 0.57437 0.71216
 N1098 N 0.90933 0.58320 0.70235
 C1099 C 0.87749 0.57073 0.73961
 N1100 N 0.86859 0.55545 0.73374
 N1101 N 0.85671 0.54615 0.74432
 C1102 C 0.85333 0.55176 0.76116
 N1103 N 0.86217 0.56712 0.76692
 N1104 N 0.87398 0.57643 0.75636
 C1105 C 0.70417 0.60824 0.93736
 N1106 N 0.71275 0.62298 0.94474
 N1107 N 0.70331 0.63294 0.95661
 C1108 C 0.68501 0.62844 0.96172
 N1109 N 0.67645 0.61364 0.95438
 N1110 N 0.68582 0.60379 0.94234
 C1111 C 0.71470 0.59727 0.92434
 N1112 N 0.70506 0.58563 0.91353
 N1113 N 0.71468 0.57580 0.90165
 C1114 C 0.73431 0.57711 0.90029
 N1115 N 0.74395 0.58867 0.91118
 N1116 N 0.73431 0.59863 0.92292
 C1117 C 0.74499 0.56633 0.88723
 N1118 N 0.76449 0.56406 0.88878
 N1119 N 0.77426 0.55442 0.87687
 C1120 C 0.76495 0.54684 0.86284
 N1121 N 0.74544 0.54918 0.86127
 N1122 N 0.73563 0.55865 0.87329
 C1123 C 0.29709 0.39029 0.94069
 N1124 N 0.31473 0.39594 0.94659
 N1125 N 0.32423 0.38659 0.95894
 C1126 C 0.31646 0.37121 0.96581
 N1127 N 0.29882 0.36556 0.95987
 N1128 N 0.28930 0.37494 0.94757
 C1129 C 0.28652 0.40058 0.92712
 N1130 N 0.26834 0.39549 0.92215
 N1131 N 0.25867 0.40480 0.90991
 C1132 C 0.26683 0.41952 0.90212
 N1133 N 0.28503 0.42460 0.90705
 N1134 N 0.29469 0.41531 0.91934
 C1135 C 0.25602 0.42978 0.88869
 N1136 N 0.26441 0.44386 0.88002
 N1137 N 0.25447 0.45315 0.86792
 C1138 C 0.23574 0.44876 0.86405
 N1139 N 0.22741 0.43466 0.87276
 N1140 N 0.23735 0.42535 0.88481
 C1141 C 0.29240 0.61078 0.06042
 N1142 N 0.30854 0.60428 0.05231
 N1143 N 0.31808 0.61431 0.04049
 C1144 C 0.31169 0.63113 0.03620
 N1145 N 0.29550 0.63756 0.04428
 N1146 N 0.28611 0.62763 0.05624
 C1147 C 0.28183 0.59984 0.07347
 N1148 N 0.26932 0.60780 0.08492
 N1149 N 0.25962 0.59794 0.09674
 C1150 C 0.26189 0.57972 0.09740
 N1151 N 0.27434 0.57173 0.08588
 N1152 N 0.28421 0.58162 0.07418
 C1153 C 0.25105 0.56892 0.11038
 N1154 N 0.24877 0.55081 0.10819
 N1155 N 0.23873 0.54111 0.11993
 C1156 C 0.23081 0.54914 0.13439
 N1157 N 0.23321 0.56724 0.13659
 N1158 N 0.24304 0.57696 0.12476
 C1159 C 0.70788 0.38748 0.06009
 N1160 N 0.69016 0.39274 0.05412
 N1161 N 0.68078 0.38304 0.04193
 C1162 C 0.68875 0.36767 0.03528
 N1163 N 0.70646 0.36240 0.04131
 N1164 N 0.71586 0.37213 0.05346
 C1165 C 0.71832 0.39826 0.07343
 N1166 N 0.73663 0.39372 0.07840
 N1167 N 0.74616 0.40356 0.09039
 C1168 C 0.73772 0.41826 0.09788
 N1169 N 0.71939 0.42277 0.09294
 N1170 N 0.70987 0.41297 0.08091
 C1171 C 0.74832 0.42912 0.11104
 N1172 N 0.73954 0.44313 0.11943
 N1173 N 0.74922 0.45298 0.13132
 C1174 C 0.76807 0.44925 0.13525
 N1175 N 0.77680 0.43522 0.12681
 N1176 N 0.76712 0.42534 0.11497
 C1177 C 0.93274 0.69704 0.60979
 N1178 N 0.93887 0.68083 0.60347
 N1179 N 0.95251 0.67147 0.61202
 C1180 C 0.96050 0.67799 0.62720
 N1181 N 0.95430 0.69418 0.63350
 N1182 N 0.94071 0.70352 0.62495
 C1183 C 0.91804 0.70768 0.60029
 N1184 N 0.91300 0.72431 0.60629
 N1185 N 0.90004 0.73426 0.59758
 C1186 C 0.89158 0.72794 0.58257
 N1187 N 0.89653 0.71124 0.57659
 N1188 N 0.90955 0.70129 0.58530
 C1189 C 0.87780 0.73933 0.57278
 N1190 N 0.86868 0.73314 0.55802
 N1191 N 0.85669 0.74384 0.54895
 C1192 C 0.85342 0.76115 0.55425
 N1193 N 0.86250 0.76722 0.56908
 N1194 N 0.87441 0.75653 0.57817
 C1195 C 0.92934 0.30057 0.39038
 N1196 N 0.93622 0.29375 0.37495
 N1197 N 0.94977 0.30258 0.36581
 C1198 C 0.95705 0.31855 0.37178
 N1199 N 0.95015 0.32541 0.38723
 N1200 N 0.93653 0.31658 0.39636
 C1201 C 0.91462 0.29051 0.40045
 N1202 N 0.90670 0.29747 0.41542
 N1203 N 0.89355 0.28808 0.42457
 C1204 C 0.88789 0.27137 0.41909
 N1205 N 0.89579 0.26445 0.40412
 N1206 N 0.90887 0.27385 0.39495
 C1207 C 0.87383 0.26065 0.42930
 N1208 N 0.86992 0.24331 0.42458
 N1209 N 0.85758 0.23331 0.43397
 C1210 C 0.84856 0.24024 0.44842
 N1211 N 0.85238 0.25766 0.45307
 N1212 N 0.86481 0.26767 0.44371
 C1213 C 0.06790 0.29716 0.60967
 N1214 N 0.06190 0.31358 0.60380
 N1215 N 0.04884 0.32306 0.61290
 C1216 C 0.04134 0.31651 0.62824
 N1217 N 0.04746 0.30014 0.63416
 N1218 N 0.06047 0.29064 0.62503
 C1219 C 0.08185 0.28641 0.59942
 N1220 N 0.08638 0.26933 0.60452
 N1221 N 0.09865 0.25937 0.59503
 C1222 C 0.10690 0.26612 0.58012
 N1223 N 0.10245 0.28325 0.57505
 N1224 N 0.09012 0.29320 0.58452
 C1225 C 0.12008 0.25490 0.56951
 N1226 N 0.12937 0.26183 0.55518
 N1227 N 0.14106 0.25148 0.54545
 C1228 C 0.14384 0.23379 0.54962
 N1229 N 0.13453 0.22693 0.56398
 N1230 N 0.12291 0.23728 0.57374
 C1231 C 0.06784 0.69920 0.38837
 N1232 N 0.05954 0.70569 0.37336
 N1233 N 0.04594 0.69619 0.36489
 C1234 C 0.04006 0.67984 0.37114
 N1235 N 0.04842 0.67333 0.38613
 N1236 N 0.06206 0.68282 0.39458
 C1237 C 0.08245 0.70994 0.39796
 N1238 N 0.09115 0.70333 0.41273
 N1239 N 0.10401 0.71330 0.42167
 C1240 C 0.10861 0.73026 0.41616
 N1241 N 0.09996 0.73683 0.40135
 N1242 N 0.08714 0.72685 0.39241
 C1243 C 0.12222 0.74160 0.42630
 N1244 N 0.12537 0.75904 0.42149
 N1245 N 0.13716 0.76959 0.43094
 C1246 C 0.14633 0.76315 0.44556
 N1247 N 0.14327 0.74563 0.45028
 N1248 N 0.13142 0.73506 0.44085
 C1249 C 0.61358 0.93813 0.70898
 N1250 N 0.60837 0.94036 0.69179
 N1251 N 0.61731 0.95260 0.68172
 C1252 C 0.63192 0.96291 0.68841
 N1253 N 0.63726 0.96057 0.70555
 N1254 N 0.62819 0.94846 0.71568
 C1255 C 0.60327 0.92510 0.72025
 N1256 N 0.60469 0.92613 0.73813
 N1257 N 0.59493 0.91462 0.74839
 C1258 C 0.58355 0.90155 0.74113
 N1259 N 0.58225 0.90042 0.72324
 N1260 N 0.59185 0.91206 0.71299
 C1261 C 0.57265 0.88899 0.75245
 N1262 N 0.56505 0.87349 0.74569
 N1263 N 0.55512 0.86213 0.75598
 C1264 C 0.55222 0.86593 0.77336
 N1265 N 0.55977 0.88149 0.78007
 N1266 N 0.56987 0.89275 0.76984
 C1267 C 0.39174 0.93688 0.29303
 N1268 N 0.37472 0.94425 0.28755
 N1269 N 0.36572 0.95663 0.29735
 C1270 C 0.37343 0.96215 0.31299
 N1271 N 0.39044 0.95477 0.31851
 N1272 N 0.39942 0.94234 0.30872
 C1273 C 0.40175 0.92344 0.28200
 N1274 N 0.41824 0.91525 0.28775
 N1275 N 0.42740 0.90327 0.27757
 C1276 C 0.42043 0.89908 0.26125
 N1277 N 0.40394 0.90726 0.25552
 N1278 N 0.39476 0.91919 0.26572
 C1279 C 0.43069 0.88621 0.24977
 N1280 N 0.42459 0.88341 0.23291
 N1281 N 0.43405 0.87207 0.22231
 C1282 C 0.44997 0.86300 0.22814
 N1283 N 0.45600 0.86574 0.24507
 N1284 N 0.44656 0.87715 0.25567
 C1285 C 0.61364 0.06018 0.29222
 N1286 N 0.60386 0.05064 0.30473
 N1287 N 0.61316 0.03887 0.31504
 C1288 C 0.63253 0.03610 0.31312
 N1289 N 0.64232 0.04562 0.30060
 N1290 N 0.63305 0.05751 0.29039
 C1291 C 0.60330 0.07298 0.28074
 N1292 N 0.61324 0.08522 0.27086
 N1293 N 0.60382 0.09681 0.26045
 C1294 C 0.58412 0.09645 0.25940
 N1295 N 0.57418 0.08415 0.26922
 N1296 N 0.58360 0.07268 0.27975
 C1297 C 0.57370 0.10918 0.24790
 N1298 N 0.55469 0.10645 0.24387
 N1299 N 0.54521 0.11802 0.23348
 C1300 C 0.55434 0.13285 0.22686
 N1301 N 0.57335 0.13559 0.23095
 N1302 N 0.58288 0.12393 0.24119
 C1303 C 0.38571 0.06560 0.70468
 N1304 N 0.36853 0.05845 0.71012
 N1305 N 0.35981 0.04548 0.70078
 C1306 C 0.36797 0.03913 0.68566
 N1307 N 0.38513 0.04629 0.68020
 N1308 N 0.39384 0.05930 0.68953
 C1309 C 0.39545 0.07968 0.71523
 N1310 N 0.41227 0.08739 0.70959
 N1311 N 0.42125 0.09988 0.71938
 C1312 C 0.41373 0.10510 0.73518
 N1313 N 0.39689 0.09741 0.74078
 N1314 N 0.38790 0.08496 0.73098
 C1315 C 0.42387 0.11841 0.74634
 N1316 N 0.41714 0.12227 0.76277
 N1317 N 0.42660 0.13385 0.77318
 C1318 C 0.44316 0.14210 0.76760
 N1319 N 0.44980 0.13834 0.75107
 N1320 N 0.44036 0.12670 0.74065
 C1321 C 0.61412 0.70566 0.05895
 N1322 N 0.63082 0.71162 0.05136
 N1323 N 0.63976 0.70175 0.03908
 C1324 C 0.63229 0.68558 0.03389
 N1325 N 0.61558 0.67961 0.04148
 N1326 N 0.60667 0.68946 0.05380
 C1327 C 0.60421 0.71667 0.07237
 N1328 N 0.58816 0.71034 0.08081
 N1329 N 0.57911 0.72045 0.09284
 C1330 C 0.58574 0.73728 0.09684
 N1331 N 0.60179 0.74360 0.08840
 N1332 N 0.61087 0.73347 0.07642
 C1333 C 0.57560 0.74864 0.10982
 N1334 N 0.58129 0.76601 0.11254
 N1335 N 0.57191 0.77648 0.12402
 C1336 C 0.55650 0.77001 0.13332
 N1337 N 0.55089 0.75258 0.13065
 N1338 N 0.56023 0.74210 0.11911
 C1339 C 0.39159 0.29482 0.06107
 N1340 N 0.39647 0.31242 0.05838
 N1341 N 0.38694 0.32236 0.04650
 C1342 C 0.37205 0.31510 0.03703
 N1343 N 0.36711 0.29755 0.03981
 N1344 N 0.37676 0.28757 0.05155
 C1345 C 0.40220 0.28372 0.07395
 N1346 N 0.40072 0.26541 0.07351
 N1347 N 0.41038 0.25527 0.08512
 C1348 C 0.42171 0.26307 0.09771
 N1349 N 0.42312 0.28139 0.09822
 N1350 N 0.41362 0.29153 0.08649
 C1351 C 0.43223 0.25183 0.11054
 N1352 N 0.43955 0.25915 0.12563
 N1353 N 0.44892 0.24886 0.13731
 C1354 C 0.45151 0.23091 0.13427
 N1355 N 0.44428 0.22365 0.11912
 N1356 N 0.43473 0.23389 0.10752
 C1357 C 0.61470 0.29129 0.93894
 N1358 N 0.60802 0.30779 0.94392
 N1359 N 0.61753 0.31755 0.95598
 C1360 C 0.63412 0.31120 0.96345
 N1361 N 0.64084 0.29474 0.95843
 N1362 N 0.63129 0.28494 0.94642
 C1363 C 0.60407 0.28043 0.92580
 N1364 N 0.60961 0.26321 0.92215
 N1365 N 0.59984 0.25329 0.91039
 C1366 C 0.58421 0.26024 0.90180
 N1367 N 0.57871 0.27748 0.90541
 N1368 N 0.58844 0.28737 0.91722
 C1369 C 0.57333 0.24925 0.88894
 N1370 N 0.55875 0.25665 0.87926
 N1371 N 0.54879 0.24664 0.86770
 C1372 C 0.55295 0.22883 0.86541
 N1373 N 0.56755 0.22147 0.87513
 N1374 N 0.57757 0.23149 0.88664
 C1375 C 0.38475 0.71103 0.94233
 N1376 N 0.39413 0.69775 0.95129
 N1377 N 0.38458 0.68728 0.96270
 C1378 C 0.36533 0.68981 0.96570
 N1379 N 0.35594 0.70313 0.95679
 N1380 N 0.36546 0.71349 0.94524
 C1381 C 0.39536 0.72262 0.92984
 N1382 N 0.38566 0.73307 0.91802
 N1383 N 0.39535 0.74350 0.90665
 C1384 C 0.41508 0.74399 0.90682
 N1385 N 0.42477 0.73361 0.91871
 N1386 N 0.41509 0.72306 0.92996
 C1387 C 0.42579 0.75543 0.89427
 N1388 N 0.44494 0.75905 0.89681
 N1389 N 0.45470 0.76931 0.88535
 C1390 C 0.44574 0.77619 0.87083
 N1391 N 0.42658 0.77251 0.86829
 N1392 N 0.41676 0.76240 0.87983
 C1393 C 0.70419 0.93711 0.39035
 N1394 N 0.71287 0.94467 0.37602
 N1395 N 0.70358 0.95696 0.36633
 C1396 C 0.68529 0.96219 0.37061
 N1397 N 0.67659 0.95464 0.38494
 N1398 N 0.68586 0.94229 0.39463
 C1399 C 0.71464 0.92369 0.40108
 N1400 N 0.70582 0.91526 0.41487
 N1401 N 0.71545 0.90318 0.42459
 C1402 C 0.73426 0.89914 0.42089
 N1403 N 0.74305 0.90759 0.40710
 N1404 N 0.73342 0.91961 0.39737
 C1405 C 0.74503 0.88597 0.43163
 N1406 N 0.76419 0.88301 0.42857
 N1407 N 0.77407 0.87117 0.43831
 C1408 C 0.76520 0.86175 0.45147
 N1409 N 0.74599 0.86471 0.45448
 N1410 N 0.73610 0.87660 0.44476
 C1411 C 0.29722 0.93634 0.61205
 N1412 N 0.31538 0.94180 0.60745
 N1413 N 0.32470 0.95431 0.61696
 C1414 C 0.31621 0.96175 0.63144
 N1415 N 0.29810 0.95621 0.63607
 N1416 N 0.28877 0.94376 0.62654
 C1417 C 0.28667 0.92288 0.60138
 N1418 N 0.26794 0.91865 0.60522
 N1419 N 0.25819 0.90671 0.59542
 C1420 C 0.26682 0.89850 0.58142
 N1421 N 0.28559 0.90267 0.57760
 N1422 N 0.29533 0.91467 0.58738
 C1423 C 0.25590 0.88550 0.57053
 N1424 N 0.26470 0.87635 0.55720
 N1425 N 0.25468 0.86467 0.54729
 C1426 C 0.23545 0.86173 0.55028
 N1427 N 0.22670 0.87092 0.56363
 N1428 N 0.23672 0.88255 0.57357
 C1429 C 0.30113 0.06271 0.38770
 N1430 N 0.29301 0.05543 0.37295
 N1431 N 0.30241 0.04292 0.36365
 C1432 C 0.32027 0.03717 0.36876
 N1433 N 0.32842 0.04444 0.38352
 N1434 N 0.31903 0.05701 0.39282
 C1435 C 0.29052 0.07637 0.39797
 N1436 N 0.29875 0.08444 0.41230
 N1437 N 0.28892 0.09670 0.42161
 C1438 C 0.27051 0.10129 0.41695
 N1439 N 0.26232 0.09321 0.40263
 N1440 N 0.27215 0.08101 0.39331
 C1441 C 0.25942 0.11456 0.42729
 N1442 N 0.24057 0.11795 0.42322
 N1443 N 0.23032 0.12976 0.43265
 C1444 C 0.23848 0.13870 0.44650
 N1445 N 0.25740 0.13534 0.45051
 N1446 N 0.26767 0.12348 0.44110
 C1447 C 0.69857 0.06593 0.61233
 N1448 N 0.68073 0.05963 0.60766
 N1449 N 0.67214 0.04661 0.61707
 C1450 C 0.68110 0.03946 0.63147
 N1451 N 0.69890 0.04580 0.63613
 N1452 N 0.70749 0.05877 0.62672
 C1453 C 0.70829 0.08011 0.60196
 N1454 N 0.72660 0.08543 0.60622
 N1455 N 0.73564 0.09812 0.59681
 C1456 C 0.72670 0.10603 0.58280
 N1457 N 0.70835 0.10077 0.57855
 N1458 N 0.69931 0.08802 0.58796
 C1459 C 0.73696 0.11981 0.57235
 N1460 N 0.72801 0.12849 0.55879
 N1461 N 0.73757 0.14078 0.54923
 C1462 C 0.75645 0.14483 0.55284
 N1463 N 0.76531 0.13612 0.56645
 N1464 N 0.75576 0.12389 0.57602
 C1465 C 0.93138 0.60609 0.30488
 N1466 N 0.93165 0.62443 0.30399
 N1467 N 0.94493 0.63392 0.31291
 C1468 C 0.95822 0.62542 0.32325
 N1469 N 0.95778 0.60709 0.32432
 N1470 N 0.94469 0.59759 0.31519
 C1471 C 0.91752 0.59561 0.29421
 N1472 N 0.92203 0.57863 0.28877
 N1473 N 0.90996 0.56943 0.27830
 C1474 C 0.89280 0.57675 0.27311
 N1475 N 0.88816 0.59363 0.27875
 N1476 N 0.90038 0.60295 0.28900
 C1477 C 0.87995 0.56687 0.26095
 N1478 N 0.86053 0.57008 0.26066
 N1479 N 0.84903 0.56134 0.24928
 C1480 C 0.85661 0.54932 0.23761
 N1481 N 0.87604 0.54618 0.23787
 N1482 N 0.88747 0.55469 0.24943
 C1483 C 0.93703 0.38954 0.70002
 N1484 N 0.93917 0.37150 0.70269
 N1485 N 0.95175 0.36200 0.69308
 C1486 C 0.96250 0.37016 0.68031
 N1487 N 0.96024 0.38818 0.67752
 N1488 N 0.94779 0.39771 0.68725
 C1489 C 0.92364 0.40011 0.71103
 N1490 N 0.92470 0.41845 0.71136
 N1491 N 0.91285 0.42801 0.72168
 C1492 C 0.89940 0.41957 0.73192
 N1493 N 0.89826 0.40124 0.73149
 N1494 N 0.91022 0.39168 0.72131
 C1495 C 0.88638 0.43007 0.74336
 N1496 N 0.87048 0.42219 0.75068
 N1497 N 0.85865 0.43167 0.76107
 C1498 C 0.86237 0.44934 0.76469
 N1499 N 0.87835 0.45719 0.75742
 N1500 N 0.89009 0.44775 0.74688
 C1501 C 0.06696 0.60667 0.69835
 N1502 N 0.06126 0.60036 0.68227
 N1503 N 0.04828 0.60943 0.67263
 C1504 C 0.04060 0.62516 0.67872
 N1505 N 0.04640 0.63148 0.69474
 N1506 N 0.05931 0.62241 0.70437
 C1507 C 0.08082 0.59659 0.70938
 N1508 N 0.08492 0.60240 0.72601
 N1509 N 0.09712 0.59321 0.73630
 C1510 C 0.10574 0.57789 0.73035
 N1511 N 0.10173 0.57209 0.71368
 N1512 N 0.08945 0.58126 0.70339
 C1513 C 0.11887 0.56771 0.74201
 N1514 N 0.12872 0.55304 0.73603
 N1515 N 0.14040 0.54380 0.74683
 C1516 C 0.14261 0.54883 0.76402
 N1517 N 0.13273 0.56353 0.76992
 N1518 N 0.12114 0.57279 0.75913
 C1519 C 0.06197 0.38748 0.29655
 N1520 N 0.05084 0.37419 0.28933
 N1521 N 0.03838 0.36486 0.29927
 C1522 C 0.03646 0.36859 0.31677
 N1523 N 0.04757 0.38189 0.32399
 N1524 N 0.06018 0.39109 0.31408
 C1525 C 0.07534 0.39804 0.28547
 N1526 N 0.08943 0.40845 0.29292
 N1527 N 0.10139 0.41820 0.28283
 C1528 C 0.09953 0.41806 0.26495
 N1529 N 0.08540 0.40770 0.25751
 N1530 N 0.07358 0.39781 0.26759
 C1531 C 0.11251 0.42898 0.25381
 N1532 N 0.10788 0.43236 0.23667
 N1533 N 0.11960 0.44230 0.22655
 C1534 C 0.13649 0.44909 0.23312
 N1535 N 0.14114 0.44563 0.25026
 N1536 N 0.12932 0.43584 0.26044
   
