data_POSCAR
  _audit_creation_date              2014-09-24
  _audit_creation_method            'ToBaCCo'
  _symmetry_space_group_name_H-M    'P1'
  _symmetry_Int_Tables_number       1
  _symmetry_cell_setting            triclinic
  loop_
  _symmetry_equiv_pos_as_xyz
 x,y,z
_cell_length_a 52.5747
_cell_length_b 52.5860
_cell_length_c 52.5908
_cell_angle_alpha 89.997500
_cell_angle_beta 90.000900
_cell_angle_gamma 90.007600
loop_
  _atom_site_label
  _atom_site_type_symbol
  _atom_site_fract_x
  _atom_site_fract_y
  _atom_site_fract_z
N1 N 0.34430 0.34446 0.34583
 N2 N 0.34488 0.84463 -0.15496
 N3 N 0.84417 0.34476 -0.15433
 N4 N 0.84505 0.84456 0.34490
 N5 N 0.65516 0.65491 0.34410
 N6 N 0.65517 0.15448 -0.15533
 N7 N 0.15519 0.65471 -0.15592
 N8 N 0.15512 0.15445 0.34454
 N9 N 0.65505 0.34503 0.65539
 N10 N 0.65518 0.84519 1.15517
 N11 N 0.15516 0.34516 1.15557
 N12 N 0.15515 0.84515 0.65531
 N13 N 0.34541 0.65556 0.65479
 N14 N 0.34488 0.15577 1.15471
 N15 N 0.84535 0.65536 1.15494
 N16 N 0.84490 0.15577 0.65493
 N17 N 0.34481 0.34412 0.65488
 N18 N 0.34487 0.84451 0.15428
 N19 N 0.84485 0.34425 0.15494
 N20 N 0.84484 0.84456 0.65446
 N21 N 0.65522 0.65500 0.65525
 N22 N 0.65462 0.15493 0.15597
 N23 N 0.15533 0.65477 0.15534
 N24 N 0.15444 0.15482 0.65602
 N25 N 0.34503 0.65548 0.34513
 N26 N 0.34468 0.15542 0.84523
 N27 N 0.84488 0.65531 0.84503
 N28 N 0.84483 0.15531 0.34520
 N29 N 0.65507 0.34544 0.34469
 N30 N 0.65567 0.84521 0.84470
 N31 N 0.15514 0.34570 0.84463
 N32 N 0.15562 0.84525 0.34456
 O33 O 0.24685 1.02477 0.28022
 O34 O 0.28165 0.97518 0.24505
 O35 O 0.28166 1.02483 0.24512
 O36 O 0.24684 0.97515 0.28016
 O37 O 0.21698 0.97519 0.25054
 O38 O 0.25179 1.02486 0.21551
 O39 O 0.25178 0.97522 0.21545
 O40 O 0.21698 1.02480 0.25061
 Cu41 Cu 0.26727 0.99998 0.26562
 Cu42 Cu 0.23137 1.00002 0.23003
 C43 C 0.22610 1.03324 0.27128
 C44 C 0.27251 0.96672 0.22439
 C45 C 0.27252 1.03334 0.22448
 C46 C 0.22609 0.96670 0.27120
 O47 O 0.21829 0.47525 0.75218
 O48 O 0.25276 0.52480 0.71662
 O49 O 0.25274 0.47515 0.71673
 O50 O 0.21831 0.52485 0.75207
 O51 O 0.24849 0.52490 0.78137
 O52 O 0.28292 0.47520 0.74602
 O53 O 0.28294 0.52485 0.74592
 O54 O 0.24848 0.47530 0.78148
 Cu55 Cu 0.23249 0.50001 0.73144
 Cu56 Cu 0.26876 0.50007 0.76665
 C57 C 0.22763 0.46683 0.77277
 C58 C 0.27359 0.53329 0.72535
 C59 C 0.27356 0.46667 0.72549
 C60 C 0.22765 0.53335 0.77263
 O61 O 0.74790 -0.02441 0.21781
 O62 O 0.78219 0.02515 0.25351
 O63 O 0.78279 -0.02447 0.25284
 O64 O 0.74725 0.02520 0.21853
 O65 O 0.71748 0.02440 0.24822
 O66 O 0.75301 -0.02526 0.28253
 O67 O 0.75241 0.02437 0.28320
 O68 O 0.71812 -0.02520 0.24751
 Cu69 Cu 0.76804 0.00045 0.23268
 Cu70 Cu 0.73225 -0.00050 0.26836
 C71 C 0.72729 -0.03326 0.22670
 C72 C 0.77301 0.03323 0.27430
 C73 C 0.77382 -0.03335 0.27340
 C74 C 0.72643 0.03328 0.22766
 O75 O 0.75149 0.47543 0.78360
 O76 O 0.71719 0.52505 0.74797
 O77 O 0.71677 0.47544 0.74842
 O78 O 0.75176 0.52505 0.78330
 O79 O 0.78178 0.52465 0.75384
 O80 O 0.74677 0.47499 0.71895
 O81 O 0.74720 0.52460 0.71851
 O82 O 0.78149 0.47502 0.75413
 Cu83 Cu 0.73128 0.50029 0.76880
 Cu84 Cu 0.76734 0.49977 0.73339
 C85 C 0.77221 0.46676 0.77480
 C86 C 0.72648 0.53329 0.72729
 C87 C 0.72592 0.46674 0.72787
 C88 C 0.77260 0.53333 0.77439
 O89 O 0.28185 0.52491 0.25399
 O90 O 0.24685 0.47527 0.21904
 O91 O 0.24678 0.52489 0.21914
 O92 O 0.28207 0.47527 0.25374
 O93 O 0.25249 0.47505 0.28363
 O94 O 0.21719 0.52470 0.24903
 O95 O 0.21727 0.47509 0.24894
 O96 O 0.25225 0.52469 0.28387
 Cu97 Cu 0.26738 0.50010 0.23347
 Cu98 Cu 0.23182 0.49986 0.26939
 C99 C 0.27287 0.53328 0.27476
 C100 C 0.22622 0.46671 0.22816
 C101 C 0.22610 0.53326 0.22831
 C102 C 0.27316 0.46667 0.27444
 O103 O 0.75262 1.02485 0.71700
 O104 O 0.71838 0.97516 0.75257
 O105 O 0.71830 1.02476 0.75257
 O106 O 0.75269 0.97521 0.71699
 O107 O 0.78298 0.97525 0.74618
 O108 O 0.74858 1.02481 0.78176
 O109 O 0.74866 0.97521 0.78176
 O110 O 0.78290 1.02489 0.74618
 Cu111 Cu 0.73245 0.99999 0.73183
 Cu112 Cu 0.76884 1.00005 0.76691
 C113 C 0.77347 1.03337 0.72567
 C114 C 0.72780 0.96671 0.77311
 C115 C 0.72769 1.03324 0.77311
 C116 C 0.77356 0.96676 0.72566
 O117 O 0.78271 0.47507 0.24725
 O118 O 0.74723 0.52479 0.28153
 O119 O 0.74712 0.47518 0.28156
 O120 O 0.78282 0.52471 0.24723
 O121 O 0.75363 0.52476 0.21695
 O122 O 0.71792 0.47522 0.25128
 O123 O 0.71804 0.52484 0.25125
 O124 O 0.75352 0.47511 0.21697
 Cu125 Cu 0.76792 0.49993 0.26744
 Cu126 Cu 0.73284 0.49999 0.23106
 C127 C 0.77403 0.46659 0.22640
 C128 C 0.72671 0.53329 0.27212
 C129 C 0.72656 0.46675 0.27215
 C130 C 0.77418 0.53320 0.22638
 O131 O 0.24608 -0.02474 0.71952
 O132 O 0.28103 0.02490 0.75447
 O133 O 0.28114 -0.02474 0.75438
 O134 O 0.24593 0.02488 0.71966
 O135 O 0.21628 0.02472 0.74949
 O136 O 0.25148 -0.02487 0.78421
 O137 O 0.25138 0.02476 0.78430
 O138 O 0.21644 -0.02488 0.74936
 Cu139 Cu 0.26654 0.00009 0.73400
 Cu140 Cu 0.23091 -0.00008 0.76985
 C141 C 0.22543 -0.03328 0.72861
 C142 C 0.27203 0.03331 0.77520
 C143 C 0.27217 -0.03328 0.77508
 C144 C 0.22523 0.03326 0.72878
 O145 O 0.21819 0.25399 1.02495
 O146 O 0.25317 0.21911 0.97527
 O147 O 0.25340 0.21930 1.02488
 O148 O 0.21780 0.25365 0.97532
 O149 O 0.24725 0.28367 0.97495
 O150 O 0.28287 0.24932 1.02455
 O151 O 0.28262 0.24913 0.97495
 O152 O 0.24766 0.28401 1.02458
 Cu153 Cu 0.23266 0.23349 1.00014
 Cu154 Cu 0.26807 0.26957 0.99972
 C155 C 0.22711 0.27482 1.03325
 C156 C 0.27374 0.22830 0.96664
 C157 C 0.27407 0.22857 1.03317
 C158 C 0.22658 0.27438 0.96666
 O159 O 0.24876 0.78419 0.47523
 O160 O 0.28368 0.74922 0.52484
 O161 O 0.28364 0.74918 0.47523
 O162 O 0.24874 0.78418 0.52485
 O163 O 0.21896 0.75448 0.52487
 O164 O 0.25386 0.71947 0.47524
 O165 O 0.25391 0.71951 0.52486
 O166 O 0.21897 0.75449 0.47523
 Cu167 Cu 0.26921 0.76969 0.50004
 Cu168 Cu 0.23341 0.73399 0.50005
 C169 C 0.22805 0.77517 0.46675
 C170 C 0.27463 0.72853 0.53331
 C171 C 0.27457 0.72849 0.46676
 C172 C 0.22803 0.77516 0.53334
 O173 O 0.28263 0.75093 -0.02535
 O174 O 0.24772 0.71597 0.02426
 O175 O 0.24724 0.71640 -0.02537
 O176 O 0.28286 0.75074 0.02425
 O177 O 0.25336 0.78073 0.02461
 O178 O 0.21777 0.74640 -0.02496
 O179 O 0.21823 0.74595 0.02468
 O180 O 0.25316 0.78093 -0.02499
 Cu181 Cu 0.26808 0.73048 -0.00059
 Cu182 Cu 0.23265 0.76652 -0.00013
 C183 C 0.27374 0.77176 -0.03363
 C184 C 0.22717 0.72513 0.03296
 C185 C 0.22657 0.72569 -0.03364
 C186 C 0.27405 0.77148 0.03289
 O187 O 0.21735 0.24553 0.47568
 O188 O 0.25223 0.28054 0.52537
 O189 O 0.25186 0.28094 0.47578
 O190 O 0.21746 0.24539 0.52533
 O191 O 0.24747 0.21592 0.52505
 O192 O 0.28188 0.25148 0.47544
 O193 O 0.28224 0.25107 0.52503
 O194 O 0.24737 0.21608 0.47541
 Cu195 Cu 0.23169 0.26607 0.50057
 Cu196 Cu 0.26776 0.23066 0.50020
 C197 C 0.22657 0.22497 0.46706
 C198 C 0.27307 0.27164 0.53366
 C199 C 0.27260 0.27216 0.46715
 C200 C 0.22673 0.22475 0.53367
 O201 O 0.71720 0.75215 1.02472
 O202 O 0.75275 0.71776 0.97511
 O203 O 0.75237 0.71742 1.02472
 O204 O 0.71744 0.75234 0.97510
 O205 O 0.74693 0.78234 0.97542
 O206 O 0.78188 0.74740 1.02509
 O207 O 0.78225 0.74775 0.97547
 O208 O 0.74670 0.78214 1.02505
 Cu209 Cu 0.73196 0.73190 0.99988
 Cu210 Cu 0.76741 0.76793 1.00029
 C211 C 0.72602 0.77288 1.03335
 C212 C 0.77343 0.72702 0.96683
 C213 C 0.77295 0.72657 1.03338
 C214 C 0.72635 0.77315 0.96677
 O215 O 0.75345 0.21934 0.47513
 O216 O 0.71848 0.25429 0.52475
 O217 O 0.71852 0.25433 0.47511
 O218 O 0.75345 0.21935 0.52475
 O219 O 0.78320 0.24909 0.52476
 O220 O 0.74828 0.28406 0.47514
 O221 O 0.74824 0.28402 0.52476
 O222 O 0.78320 0.24908 0.47515
 Cu223 Cu 0.73297 0.23383 0.49993
 Cu224 Cu 0.76873 0.26956 0.49995
 C225 C 0.77416 0.22838 0.46667
 C226 C 0.72754 0.27498 0.53324
 C227 C 0.72758 0.27503 0.46665
 C228 C 0.77415 0.22839 0.53322
 O229 O 0.78165 0.25174 -0.02442
 O230 O 0.74666 0.21685 0.02516
 O231 O 0.74651 0.21697 -0.02448
 O232 O 0.78148 0.25194 0.02518
 O233 O 0.75175 0.28168 0.02512
 O234 O 0.71679 0.24673 -0.02446
 O235 O 0.71692 0.24659 0.02518
 O236 O 0.75194 0.28151 -0.02449
 Cu237 Cu 0.76707 0.23136 0.00037
 Cu238 Cu 0.73134 0.26712 0.00034
 C239 C 0.77266 0.27244 -0.03291
 C240 C 0.72598 0.22589 0.03366
 C241 C 0.72582 0.22605 -0.03295
 C242 C 0.77244 0.27266 0.03361
 O243 O 0.78207 0.75209 0.47480
 O244 O 0.74712 0.71710 0.52448
 O245 O 0.74730 0.71694 0.47484
 O246 O 0.78221 0.75192 0.52441
 O247 O 0.75245 0.78165 0.52444
 O248 O 0.71752 0.74663 0.47478
 O249 O 0.71736 0.74683 0.52442
 O250 O 0.75228 0.78179 0.47484
 Cu251 Cu 0.76767 0.73151 0.49963
 Cu252 Cu 0.73190 0.76722 0.49962
 C253 C 0.77299 0.77279 0.46635
 C254 C 0.72641 0.72616 0.53293
 C255 C 0.72661 0.72594 0.46633
 C256 C 0.77317 0.77261 0.53289
 O257 O 0.97542 0.25155 0.21707
 O258 O 1.02504 0.21711 0.25256
 O259 O 0.97541 0.21679 0.25220
 O260 O 1.02505 0.25177 0.21732
 O261 O 1.02473 0.28172 0.24684
 O262 O 0.97506 0.24672 0.28174
 O263 O 1.02469 0.24705 0.28208
 O264 O 0.97509 0.28149 0.24660
 Cu265 Cu 1.00027 0.23128 0.23181
 Cu266 Cu 0.99986 0.26727 0.26729
 C267 C 0.96678 0.27226 0.22592
 C268 C 1.03333 0.22634 0.27324
 C269 C 0.96675 0.22591 0.27278
 C270 C 1.03337 0.27257 0.22625
 O271 O 0.52471 0.21660 0.75172
 O272 O 0.47506 0.25205 0.71727
 O273 O 0.52469 0.25175 0.71697
 O274 O 0.47507 0.21680 0.75192
 O275 O 0.47536 0.24631 0.78187
 O276 O 0.52502 0.28127 0.74691
 O277 O 0.47538 0.28157 0.74723
 O278 O 0.52501 0.24612 0.78167
 Cu279 Cu 0.49985 0.23132 0.73145
 Cu280 Cu 0.50022 0.26679 0.76744
 C281 C 0.53334 0.22545 0.77244
 C282 C 0.46674 0.27272 0.72651
 C283 C 0.53333 0.27234 0.72610
 C284 C 0.46674 0.22572 0.77272
 O285 O -0.02539 0.28330 0.75255
 O286 O 0.02426 0.24841 0.71758
 O287 O -0.02536 0.24804 0.71791
 O288 O 0.02426 0.28359 0.75230
 O289 O 0.02462 0.25408 0.78227
 O290 O -0.02498 0.21854 0.74788
 O291 O 0.02464 0.21890 0.74754
 O292 O -0.02504 0.25380 0.78252
 Cu293 Cu -0.00059 0.26882 0.73207
 Cu294 Cu -0.00015 0.23336 0.76808
 C295 C -0.03370 0.27437 0.77336
 C296 C 0.03292 0.22784 0.72672
 C297 C -0.03363 0.22735 0.72716
 C298 C 0.03292 0.27476 0.77301
 O299 O 0.52458 0.25220 0.28342
 O300 O 0.47497 0.21724 0.24847
 O301 O 0.52459 0.21752 0.24821
 O302 O 0.47494 0.25199 0.28361
 O303 O 0.47467 0.28193 0.25408
 O304 O 0.52431 0.24747 0.21868
 O305 O 0.47468 0.24718 0.21893
 O306 O 0.52431 0.28215 0.25390
 Cu307 Cu 0.49980 0.23172 0.26891
 Cu308 Cu 0.49946 0.26770 0.23342
 C309 C 0.53293 0.27299 0.27449
 C310 C 0.46636 0.22637 0.22787
 C311 C 0.53292 0.22675 0.22754
 C312 C 0.46632 0.27270 0.27475
 O313 O 1.02459 0.71682 0.75136
 O314 O 0.97492 0.75225 0.71691
 O315 O 1.02455 0.75192 0.71656
 O316 O 0.97496 0.71706 0.75162
 O317 O 0.97530 0.74661 0.78153
 O318 O 1.02493 0.78149 0.74646
 O319 O 0.97529 0.78181 0.74682
 O320 O 1.02494 0.74639 0.78126
 Cu321 Cu 0.99972 0.73153 0.73109
 Cu322 Cu 1.00015 0.76706 0.76704
 C323 C 1.03325 0.72570 0.77205
 C324 C 0.96663 0.77295 0.72613
 C325 C 1.03321 0.77252 0.72566
 C326 C 0.96665 0.72601 0.77242
 O327 O 0.47527 0.75344 0.21775
 O328 O 0.52495 0.71837 0.25254
 O329 O 0.47531 0.71806 0.25228
 O330 O 0.52490 0.75365 0.21793
 O331 O 0.52462 0.78308 0.24798
 O332 O 0.47502 0.74748 0.28233
 O333 O 0.52464 0.74780 0.28259
 O334 O 0.47499 0.78285 0.24781
 Cu335 Cu 0.50013 0.73291 0.23209
 Cu336 Cu 0.49978 0.76827 0.26821
 C337 C 0.46665 0.77399 0.22698
 C338 C 0.53328 0.72725 0.27337
 C339 C 0.46670 0.72682 0.27304
 C340 C 0.53323 0.77430 0.22723
 O341 O -0.02438 0.78243 0.25318
 O342 O 0.02526 0.74804 0.21769
 O343 O -0.02437 0.74807 0.21766
 O344 O 0.02526 0.78240 0.25322
 O345 O 0.02523 0.75216 0.28246
 O346 O -0.02441 0.71783 0.24689
 O347 O 0.02522 0.71780 0.24692
 O348 O -0.02441 0.75219 0.28241
 Cu349 Cu 0.00045 0.76828 0.23249
 Cu350 Cu 0.00040 0.73195 0.26762
 C351 C -0.03287 0.77304 0.27371
 C352 C 0.03370 0.72718 0.22638
 C353 C -0.03286 0.72722 0.22634
 C354 C 0.03372 0.77301 0.27377
 O355 O 0.52517 0.75356 0.78233
 O356 O 0.47555 0.71801 0.74796
 O357 O 0.52518 0.71807 0.74793
 O358 O 0.47553 0.75351 0.78235
 O359 O 0.47548 0.78278 0.75215
 O360 O 0.52514 0.74734 0.71773
 O361 O 0.47551 0.74728 0.71775
 O362 O 0.52513 0.78283 0.75213
 Cu363 Cu 0.50036 0.73284 0.76819
 Cu364 Cu 0.50031 0.76801 0.73190
 C365 C 0.53363 0.77412 0.77296
 C366 C 0.46707 0.72671 0.72712
 C367 C 0.53363 0.72679 0.72709
 C368 C 0.46702 0.77405 0.77299
 C369 C 0.40822 0.30846 0.31161
 C370 C 0.40760 0.33496 0.31407
 C371 C 0.38673 0.34679 0.32558
 C372 C 0.36626 0.33222 0.33473
 C373 C 0.36716 0.30560 0.33236
 C374 C 0.38802 0.29381 0.32088
 C375 C 0.42919 0.29624 0.29896
 C376 C 0.44636 0.28566 0.28806
 H377 H 0.42312 0.34648 0.30692
 H378 H 0.38647 0.36730 0.32730
 H379 H 0.35150 0.29400 0.33900
 H380 H 0.38825 0.27330 0.31896
 C381 C 0.40894 0.81088 0.80882
 C382 C 0.40822 0.81302 0.83535
 C383 C 0.38734 0.82441 0.84724
 C384 C 0.36691 0.83376 0.83273
 C385 C 0.36792 0.83174 0.80608
 C386 C 0.38880 0.82038 0.79422
 C387 C 0.42989 0.79827 0.79653
 C388 C 0.44706 0.78738 0.78594
 H389 H 0.42368 0.80570 0.84683
 H390 H 0.38700 0.82586 0.86777
 H391 H 0.35231 0.83854 0.79451
 H392 H 0.38910 0.81871 0.77369
 C393 C -0.09185 0.31084 0.80947
 C394 C -0.09257 0.31297 0.83599
 C395 C -0.11344 0.32440 0.84789
 C396 C -0.13384 0.33379 0.83337
 C397 C -0.13284 0.33175 0.80672
 C398 C -0.11197 0.32035 0.79487
 C399 C -0.07087 0.29828 0.79716
 C400 C -0.05368 0.28750 0.78649
 H401 H -0.07711 0.30564 0.84748
 H402 H -0.11378 0.32586 0.86842
 H403 H -0.14844 0.33858 0.79515
 H404 H -0.11167 0.31869 0.77434
 C405 C -0.09096 0.80867 0.31070
 C406 C -0.09162 0.83517 0.31319
 C407 C -0.11250 0.84696 0.32471
 C408 C -0.13295 0.83235 0.33385
 C409 C -0.13201 0.80574 0.33147
 C410 C -0.11114 0.79399 0.31997
 C411 C -0.07000 0.79649 0.29800
 C412 C -0.05283 0.78596 0.28707
 H413 H -0.07612 0.84672 0.30604
 H414 H -0.11279 0.86747 0.32644
 H415 H -0.14765 0.79411 0.33810
 H416 H -0.11087 0.77348 0.31803
 C417 C 0.59134 0.69110 0.30990
 C418 C 0.59200 0.66458 0.31214
 C419 C 0.61283 0.65269 0.32365
 C420 C 0.63323 0.66721 0.33302
 C421 C 0.63230 0.69385 0.33086
 C422 C 0.61148 0.70570 0.31938
 C423 C 0.57040 0.70341 0.29730
 C424 C 0.55323 0.71409 0.28650
 H425 H 0.57653 0.65310 0.30483
 H426 H 0.61311 0.63216 0.32520
 H427 H 0.64791 0.70542 0.33768
 H428 H 0.61122 0.72623 0.31764
 C429 C 0.59134 0.18856 0.80835
 C430 C 0.61161 0.17928 0.79381
 C431 C 0.63243 0.16783 0.80570
 C432 C 0.63324 0.16551 0.83232
 C433 C 0.61270 0.17468 0.84679
 C434 C 0.59188 0.18615 0.83486
 C435 C 0.57042 0.20121 0.79603
 C436 C 0.55327 0.21210 0.78542
 H437 H 0.61145 0.18115 0.77329
 H438 H 0.64813 0.16117 0.79417
 H439 H 0.61289 0.17300 0.86731
 H440 H 0.57631 0.19331 0.84630
 C441 C 1.09132 0.68884 0.80789
 C442 C 1.11155 0.67955 0.79330
 C443 C 1.13239 0.66809 0.80515
 C444 C 1.13325 0.66577 0.83178
 C445 C 1.11274 0.67494 0.84628
 C446 C 1.09190 0.68642 0.83439
 C447 C 1.07037 0.70148 0.79561
 C448 C 1.05321 0.71237 0.78501
 H449 H 1.11136 0.68144 0.77279
 H450 H 1.14807 0.66144 0.79359
 H451 H 1.11296 0.67326 0.86680
 H452 H 1.07636 0.69359 0.84587
 C453 C 1.09124 0.19056 0.31037
 C454 C 1.09196 0.16403 0.31257
 C455 C 1.11278 0.15218 0.32411
 C456 C 1.13314 0.16673 0.33356
 C457 C 1.13212 0.19337 0.33149
 C458 C 1.11130 0.20519 0.31997
 C459 C 1.07036 0.20281 0.29762
 C460 C 1.05324 0.21338 0.28664
 H461 H 1.07655 0.15253 0.30516
 H462 H 1.11314 0.13164 0.32559
 H463 H 1.14769 0.20496 0.33837
 H464 H 1.11099 0.22572 0.31827
 C465 C 0.59127 0.30856 0.68942
 C466 C 0.61145 0.29405 0.67990
 C467 C 0.63224 0.30599 0.66844
 C468 C 0.63311 0.33263 0.66636
 C469 C 0.61265 0.34707 0.67575
 C470 C 0.59185 0.33509 0.68722
 C471 C 0.57038 0.29618 0.70205
 C472 C 0.55325 0.28548 0.71290
 H473 H 0.61125 0.27351 0.68160
 H474 H 0.64789 0.29448 0.66162
 H475 H 0.61288 0.36760 0.67425
 H476 H 0.57635 0.34651 0.69456
 C477 C 0.59123 0.81128 0.19142
 C478 C 0.59183 0.81363 0.16491
 C479 C 0.61269 0.82506 0.15301
 C480 C 0.63319 0.83426 0.16750
 C481 C 0.63230 0.83204 0.19413
 C482 C 0.61145 0.82062 0.20600
 C483 C 0.57031 0.79862 0.20371
 C484 C 0.55316 0.78769 0.21429
 H485 H 0.57630 0.80642 0.15344
 H486 H 0.61294 0.82667 0.13248
 H487 H 0.64799 0.83872 0.20568
 H488 H 0.61124 0.81880 0.22652
 C489 C 1.09136 0.30879 0.18965
 C490 C 1.09199 0.33531 0.18748
 C491 C 1.11280 0.34726 0.17599
 C492 C 1.13323 0.33279 0.16658
 C493 C 1.13232 0.30615 0.16865
 C494 C 1.11151 0.29424 0.18011
 C495 C 1.07045 0.29643 0.20226
 C496 C 1.05331 0.28573 0.21309
 H497 H 1.07652 0.34676 0.19483
 H498 H 1.11307 0.36779 0.17450
 H499 H 1.14794 0.29462 0.16180
 H500 H 1.11127 0.27371 0.18180
 C501 C 1.09120 0.80867 0.68898
 C502 C 1.09179 0.83520 0.68679
 C503 C 1.11263 0.84718 0.67541
 C504 C 1.13314 0.83274 0.66611
 C505 C 1.13225 0.80610 0.66817
 C506 C 1.11141 0.79416 0.67953
 C507 C 1.07029 0.79631 0.70158
 C508 C 1.05314 0.78562 0.71243
 H509 H 1.07627 0.84662 0.69408
 H510 H 1.11288 0.86771 0.67393
 H511 H 1.14793 0.79459 0.66141
 H512 H 1.11120 0.77362 0.68124
 C513 C 0.40920 0.68961 0.69120
 C514 C 0.38906 0.68004 0.70574
 C515 C 0.36827 0.66856 0.69382
 C516 C 0.36736 0.66652 0.66717
 C517 C 0.38779 0.67594 0.65272
 C518 C 0.40859 0.68744 0.66467
 C519 C 0.43006 0.70234 0.70354
 C520 C 0.44717 0.71330 0.71415
 H521 H 0.38928 0.68173 0.72627
 H522 H 0.35264 0.66171 0.70534
 H523 H 0.38753 0.67447 0.63218
 H524 H 0.42405 0.69482 0.65324
 C525 C 0.40853 0.18968 0.19147
 C526 C 0.40804 0.18756 0.16494
 C527 C 0.38729 0.17611 0.15287
 C528 C 0.36678 0.16669 0.16721
 C529 C 0.36756 0.16870 0.19386
 C530 C 0.38831 0.18012 0.20590
 C531 C 0.42938 0.20230 0.20394
 C532 C 0.44647 0.21315 0.21469
 H533 H 0.42358 0.19493 0.15359
 H534 H 0.38712 0.17467 0.13233
 H535 H 0.35187 0.16184 0.20530
 H536 H 0.38844 0.18177 0.22643
 C537 C -0.09082 0.69148 0.18922
 C538 C -0.11102 0.70610 0.17989
 C539 C -0.13183 0.69427 0.16836
 C540 C -0.13270 0.66765 0.16600
 C541 C -0.11221 0.65312 0.17519
 C542 C -0.09140 0.66498 0.18675
 C543 C -0.06992 0.70373 0.20196
 C544 C -0.05278 0.71429 0.21294
 H545 H -0.11082 0.72661 0.18181
 H546 H -0.14750 0.70585 0.16169
 H547 H -0.11245 0.63260 0.17348
 H548 H -0.07588 0.65349 0.19393
 C549 C -0.09142 0.19010 0.69127
 C550 C -0.11154 0.18051 0.70583
 C551 C -0.13230 0.16894 0.69393
 C552 C -0.13318 0.16681 0.66729
 C553 C -0.11277 0.17626 0.65282
 C554 C -0.09202 0.18785 0.66475
 C555 C -0.07060 0.20290 0.70358
 C556 C -0.05351 0.21392 0.71419
 H557 H -0.11133 0.18226 0.72635
 H558 H -0.14791 0.16207 0.70546
 H559 H -0.11302 0.17474 0.63229
 H560 H -0.07657 0.19525 0.65330
 C561 C 0.31008 0.40852 0.31008
 C562 C 0.31958 0.38850 0.29535
 C563 C 0.33110 0.36762 0.30705
 C564 C 0.33326 0.36649 0.33368
 C565 C 0.32388 0.38679 0.34834
 C566 C 0.31234 0.40769 0.33660
 C567 C 0.29737 0.42951 0.29794
 C568 C 0.28646 0.44670 0.28741
 H569 H 0.31782 0.38890 0.27482
 H570 H 0.33791 0.35209 0.29537
 H571 H 0.32544 0.38637 0.36886
 H572 H 0.30502 0.42306 0.34818
 C573 C 0.30848 -0.09142 0.81133
 C574 C 0.29395 -0.11172 0.82055
 C575 C 0.30587 -0.13259 0.83187
 C576 C 0.33251 -0.13340 0.83413
 C577 C 0.34696 -0.11282 0.82502
 C578 C 0.33500 -0.09195 0.81368
 C579 C 0.29611 -0.07043 0.79886
 C580 C 0.28538 -0.05325 0.78815
 H581 H 0.27342 -0.11156 0.81873
 H582 H 0.29436 -0.14833 0.83848
 H583 H 0.36749 -0.11301 0.82666
 H584 H 0.34643 -0.07635 0.80657
 C585 C 0.80797 0.40872 0.81175
 C586 C 0.79338 0.38848 0.82101
 C587 C 0.80523 0.36762 0.83241
 C588 C 0.83186 0.36674 0.83470
 C589 C 0.84638 0.38726 0.82557
 C590 C 0.83449 0.40813 0.81414
 C591 C 0.79570 0.42966 0.79911
 C592 C 0.78513 0.44682 0.78819
 H593 H 0.77285 0.38869 0.81914
 H594 H 0.79366 0.35193 0.83905
 H595 H 0.86690 0.38702 0.82723
 H596 H 0.84597 0.42367 0.80699
 C597 C 0.81085 -0.09145 0.30900
 C598 C 0.81309 -0.09224 0.33552
 C599 C 0.82461 -0.11311 0.34731
 C600 C 0.83400 -0.13345 0.33270
 C601 C 0.83187 -0.13237 0.30607
 C602 C 0.82037 -0.11150 0.29431
 C603 C 0.79815 -0.07050 0.29682
 C604 C 0.78721 -0.05332 0.28629
 H605 H 0.80575 -0.07685 0.34707
 H606 H 0.82614 -0.11351 0.36784
 H607 H 0.83869 -0.14791 0.29442
 H608 H 0.81863 -0.11114 0.27379
 C609 C 0.30932 0.59140 0.68848
 C610 C 0.29469 0.61159 0.67917
 C611 C 0.30650 0.63251 0.66782
 C612 C 0.33314 0.63349 0.66563
 C613 C 0.34769 0.61302 0.67479
 C614 C 0.33584 0.59210 0.68617
 C615 C 0.29709 0.57043 0.70110
 C616 C 0.28653 0.55324 0.71200
 H617 H 0.27416 0.61130 0.68098
 H618 H 0.29490 0.64816 0.66116
 H619 H 0.36822 0.61334 0.67321
 H620 H 0.34736 0.57660 0.69335
 C621 C 0.30857 1.09157 0.18809
 C622 C 0.33510 1.09226 0.18593
 C623 C 0.34703 1.11320 0.17466
 C624 C 0.33253 1.13370 0.16546
 C625 C 0.30588 1.13272 0.16750
 C626 C 0.29399 1.11178 0.17874
 C627 C 0.29624 1.07055 0.20056
 C628 C 0.28559 1.05334 0.21132
 H629 H 0.34656 1.07673 0.19314
 H630 H 0.36756 1.11351 0.17319
 H631 H 0.29433 1.14839 0.16081
 H632 H 0.27346 1.11151 0.18042
 C633 C 0.81129 0.59127 0.19081
 C634 C 0.82072 0.61136 0.20551
 C635 C 0.83219 0.63225 0.19377
 C636 C 0.83438 0.63331 0.16714
 C637 C 0.82510 0.61294 0.15252
 C638 C 0.81360 0.59204 0.16430
 C639 C 0.79857 0.57031 0.20297
 C640 C 0.78760 0.55314 0.21348
 H641 H 0.81892 0.61101 0.22603
 H642 H 0.83894 0.64783 0.20541
 H643 H 0.82667 0.61332 0.13199
 H644 H 0.80633 0.57662 0.15273
 C645 C 0.80901 1.09156 0.68873
 C646 C 0.79431 1.11167 0.67936
 C647 C 0.80606 1.13261 0.66797
 C648 C 0.83270 1.13368 0.66581
 C649 C 0.84731 1.11328 0.67503
 C650 C 0.83553 1.09234 0.68644
 C651 C 0.79684 1.07056 0.70138
 C652 C 0.78633 1.05336 0.71230
 H653 H 0.77378 1.11132 0.68115
 H654 H 0.79441 1.14820 0.66127
 H655 H 0.86784 1.11367 0.67347
 H656 H 0.84709 1.07690 0.69367
 C657 C 0.68958 0.59122 0.30790
 C658 C 0.68718 0.59179 0.33441
 C659 C 0.67559 0.61257 0.34630
 C660 C 0.66629 0.63302 0.33179
 C661 C 0.66858 0.63216 0.30516
 C662 C 0.68016 0.61138 0.29331
 C663 C 0.70234 0.57035 0.29563
 C664 C 0.71331 0.55322 0.28505
 H665 H 0.69445 0.57630 0.34588
 H666 H 0.67393 0.61279 0.36681
 H667 H 0.66183 0.64779 0.29360
 H668 H 0.68202 0.61119 0.27280
 C669 C 0.69168 1.09094 0.81031
 C670 C 0.70619 1.11112 0.81985
 C671 C 0.69424 1.13183 0.83142
 C672 C 0.66759 1.13263 0.83358
 C673 C 0.65316 1.11217 0.82417
 C674 C 0.66515 1.09145 0.81259
 C675 C 0.70405 1.07015 0.79754
 C676 C 0.71470 1.05309 0.78654
 H677 H 0.72672 1.11097 0.81808
 H678 H 0.70573 1.14748 0.83827
 H679 H 0.63263 1.11236 0.82573
 H680 H 0.65374 1.07596 0.80522
 C681 C 0.19163 0.59116 0.80967
 C682 C 0.20616 0.61133 0.81919
 C683 C 0.19423 0.63206 0.83075
 C684 C 0.16758 0.63286 0.83295
 C685 C 0.15314 0.61242 0.82355
 C686 C 0.16511 0.59169 0.81196
 C687 C 0.20399 0.57033 0.79693
 C688 C 0.21464 0.55324 0.78599
 H689 H 0.22669 0.61117 0.81741
 H690 H 0.20573 0.64770 0.83759
 H691 H 0.13261 0.61261 0.82513
 H692 H 0.15368 0.57619 0.80462
 C693 C 0.18951 1.09104 0.30781
 C694 C 0.18717 1.09142 0.33433
 C695 C 0.17562 1.11212 0.34639
 C696 C 0.16630 1.13267 0.33206
 C697 C 0.16857 1.13202 0.30542
 C698 C 0.18010 1.11133 0.29339
 C699 C 0.20213 1.07020 0.29533
 C700 C 0.21295 1.05312 0.28453
 H701 H 0.19443 1.07582 0.34567
 H702 H 0.17398 1.11218 0.36692
 H703 H 0.16180 1.14775 0.29399
 H704 H 0.18191 1.11128 0.27287
 C705 C 0.68913 0.40881 0.69176
 C706 C 0.67977 0.38857 0.70630
 C707 C 0.66828 0.36778 0.69439
 C708 C 0.66601 0.36698 0.66777
 C709 C 0.67522 0.38751 0.65331
 C710 C 0.68673 0.40830 0.66525
 C711 C 0.70181 0.42970 0.70409
 C712 C 0.71269 0.44682 0.71476
 H713 H 0.68163 0.38872 0.72682
 H714 H 0.66159 0.35208 0.70591
 H715 H 0.67357 0.38732 0.63279
 H716 H 0.69394 0.42385 0.65382
 C717 C 0.69150 -0.09106 0.18938
 C718 C 0.66498 -0.09162 0.18700
 C719 C 0.65306 -0.11239 0.17544
 C720 C 0.66754 -0.13286 0.16615
 C721 C 0.69419 -0.13201 0.16839
 C722 C 0.70607 -0.11123 0.17993
 C723 C 0.70379 -0.07023 0.20219
 C724 C 0.71437 -0.05314 0.21322
 H725 H 0.65352 -0.07612 0.19429
 H726 H 0.63254 -0.11262 0.17383
 H727 H 0.70572 -0.14766 0.16164
 H728 H 0.72659 -0.11105 0.18178
 C729 C 0.18943 0.40883 0.19197
 C730 C 0.18703 0.40833 0.16546
 C731 C 0.17548 0.38757 0.15351
 C732 C 0.16622 0.36705 0.16795
 C733 C 0.16851 0.36783 0.19458
 C734 C 0.18004 0.38859 0.20650
 C735 C 0.20212 0.42970 0.20433
 C736 C 0.21300 0.44681 0.21502
 H737 H 0.19426 0.42388 0.15404
 H738 H 0.17382 0.38740 0.13299
 H739 H 0.16178 0.35214 0.20609
 H740 H 0.18190 0.38873 0.22701
 C741 C 0.18892 -0.09117 0.69215
 C742 C 0.18671 -0.09159 0.66563
 C743 C 0.17534 -0.11236 0.65352
 C744 C 0.16605 -0.13296 0.66784
 C745 C 0.16815 -0.13225 0.69448
 C746 C 0.17951 -0.11148 0.70655
 C747 C 0.20146 -0.07030 0.70465
 C748 C 0.21225 -0.05319 0.71543
 H749 H 0.19397 -0.07598 0.65430
 H750 H 0.17383 -0.11247 0.63299
 H751 H 0.16140 -0.14801 0.70589
 H752 H 0.18122 -0.11141 0.72708
 C753 C 0.30829 0.30968 0.40943
 C754 C 0.29363 0.31921 0.38937
 C755 C 0.30541 0.33094 0.36864
 C756 C 0.33204 0.33329 0.36774
 C757 C 0.34662 0.32391 0.38810
 C758 C 0.33480 0.31216 0.40882
 C759 C 0.29609 0.29674 0.43023
 C760 C 0.28555 0.28564 0.44729
 H761 H 0.27311 0.31729 0.38959
 H762 H 0.29381 0.33776 0.35307
 H763 H 0.36714 0.32560 0.38783
 H764 H 0.34633 0.30481 0.42424
 C765 C 0.31060 0.80805 -0.09140
 C766 C 0.31292 0.83457 -0.09187
 C767 C 0.32450 0.84658 -0.11259
 C768 C 0.33386 0.83218 -0.13308
 C769 C 0.33167 0.80554 -0.13232
 C770 C 0.32011 0.79357 -0.11161
 C771 C 0.29788 0.79565 -0.07059
 C772 C 0.28697 0.78493 -0.05351
 H773 H 0.30560 0.84596 -0.07634
 H774 H 0.32608 0.86711 -0.11274
 H775 H 0.33847 0.79407 -0.14800
 H776 H 0.31832 0.77305 -0.11149
 C777 C 0.80970 0.30850 -0.09070
 C778 C 0.81918 0.29393 -0.11085
 C779 C 0.83081 0.30579 -0.13159
 C780 C 0.83311 0.33242 -0.13242
 C781 C 0.82378 0.34691 -0.11198
 C782 C 0.81213 0.33501 -0.09124
 C783 C 0.79689 0.29621 -0.06988
 C784 C 0.78593 0.28556 -0.05279
 H785 H 0.81731 0.27341 -0.11068
 H786 H 0.83759 0.29425 -0.14722
 H787 H 0.82544 0.36743 -0.11219
 H788 H 0.80483 0.34647 -0.07576
 C789 C 0.80898 0.80986 0.40852
 C790 C 0.79434 0.81937 0.38843
 C791 C 0.80615 0.83106 0.36769
 C792 C 0.83278 0.83339 0.36680
 C793 C 0.84733 0.82402 0.38719
 C794 C 0.83549 0.81231 0.40792
 C795 C 0.79674 0.79703 0.42936
 C796 C 0.78611 0.78606 0.44646
 H797 H 0.77382 0.81748 0.38865
 H798 H 0.79456 0.83787 0.35210
 H799 H 0.86785 0.82571 0.38693
 H800 H 0.84700 0.80499 0.42337
 C801 C 0.69138 0.31136 0.59137
 C802 C 0.70594 0.32071 0.61160
 C803 C 0.69404 0.33203 0.63248
 C804 C 0.66739 0.33414 0.63340
 C805 C 0.65291 0.32492 0.61290
 C806 C 0.66485 0.31358 0.59201
 C807 C 0.70372 0.29887 0.57039
 C808 C 0.71441 0.28812 0.55320
 H809 H 0.72647 0.31899 0.61136
 H810 H 0.70558 0.33873 0.64816
 H811 H 0.63238 0.32644 0.61317
 H812 H 0.65340 0.30637 0.57647
 C813 C 0.68911 0.80880 1.09132
 C814 C 0.68692 0.83533 1.09193
 C815 C 0.67549 0.84728 1.11276
 C816 C 0.66614 0.83282 1.13322
 C817 C 0.66823 0.80617 1.13232
 C818 C 0.67963 0.79426 1.11150
 C819 C 0.70174 0.79646 1.07041
 C820 C 0.71265 0.78584 1.05328
 H821 H 0.69423 0.84677 1.07644
 H822 H 0.67399 0.86781 1.11302
 H823 H 0.66143 0.79465 1.14797
 H824 H 0.68134 0.77373 1.11127
 C825 C 0.19117 0.31133 1.09145
 C826 C 0.20583 0.32064 1.11162
 C827 C 0.19404 0.33203 1.13253
 C828 C 0.16741 0.33426 1.13352
 C829 C 0.15282 0.32508 1.11307
 C830 C 0.16465 0.31366 1.09216
 C831 C 0.20340 0.29876 1.07045
 C832 C 0.21401 0.28796 1.05324
 H833 H 0.22635 0.31883 1.11132
 H834 H 0.20566 0.33870 1.14816
 H835 H 0.13230 0.32668 1.11340
 H836 H 0.15312 0.30648 1.07667
 C837 C 0.19176 0.81160 0.59139
 C838 C 0.20623 0.82093 0.61168
 C839 C 0.19425 0.83222 0.63253
 C840 C 0.16760 0.83433 0.63334
 C841 C 0.15320 0.82513 0.61276
 C842 C 0.16523 0.81382 0.59191
 C843 C 0.20418 0.79910 0.57045
 C844 C 0.21490 0.78833 0.55328
 H845 H 0.22677 0.81920 0.61153
 H846 H 0.20572 0.83890 0.64826
 H847 H 0.13267 0.82665 0.61295
 H848 H 0.15384 0.80662 0.57632
 C849 C 0.31128 0.69219 0.59118
 C850 C 0.32065 0.70664 0.61147
 C851 C 0.33212 0.69465 0.63222
 C852 C 0.33438 0.66802 0.63292
 C853 C 0.32514 0.65364 0.61236
 C854 C 0.31364 0.66567 0.59161
 C855 C 0.29866 0.70461 0.57032
 C856 C 0.28782 0.71535 0.55321
 H857 H 0.31882 0.72716 0.61139
 H858 H 0.33884 0.70611 0.64795
 H859 H 0.32677 0.63312 0.61247
 H860 H 0.30643 0.65430 0.57602
 C861 C 0.31105 0.19250 1.09100
 C862 C 0.32034 0.20693 1.11134
 C863 C 0.33173 0.19490 1.13212
 C864 C 0.33397 0.16826 1.13280
 C865 C 0.32483 0.15392 1.11217
 C866 C 0.31342 0.16598 1.09139
 C867 C 0.29841 0.20493 1.07015
 C868 C 0.28748 0.21559 1.05306
 H869 H 0.31849 0.22745 1.11129
 H870 H 0.33837 0.20634 1.14790
 H871 H 0.32645 0.13340 1.11226
 H872 H 0.30625 0.15463 1.07577
 C873 C 0.80907 0.68976 1.09128
 C874 C 0.79450 0.68022 1.11141
 C875 C 0.80637 0.66865 1.13216
 C876 C 0.83301 0.66647 1.13305
 C877 C 0.84751 0.67588 1.11264
 C878 C 0.83560 0.68747 1.09188
 C879 C 0.79675 0.70247 1.07041
 C880 C 0.78608 0.71335 1.05329
 H881 H 0.77397 0.68199 1.11119
 H882 H 0.79482 0.66181 1.14777
 H883 H 0.86804 0.67430 1.11289
 H884 H 0.84706 0.69481 1.07642
 C885 C 0.81076 0.19217 0.59120
 C886 C 0.81318 0.16566 0.59169
 C887 C 0.82467 0.15371 0.61248
 C888 C 0.83385 0.16815 0.63303
 C889 C 0.83152 0.19478 0.63227
 C890 C 0.82005 0.20669 0.61148
 C891 C 0.79815 0.20453 0.57029
 C892 C 0.78733 0.21524 0.55315
 H893 H 0.80601 0.15424 0.57611
 H894 H 0.82635 0.13319 0.61264
 H895 H 0.83818 0.20628 0.64798
 H896 H 0.81817 0.22721 0.61135
 C897 C 0.69087 0.68911 0.40820
 C898 C 0.70562 0.67975 0.38811
 C899 C 0.69394 0.66822 0.36723
 C900 C 0.66731 0.66589 0.36617
 C901 C 0.65264 0.67510 0.38654
 C902 C 0.66437 0.68666 0.40743
 C903 C 0.70300 0.70183 0.42918
 C904 C 0.71355 0.71273 0.44636
 H905 H 0.72614 0.68165 0.38846
 H906 H 0.70562 0.66153 0.35165
 H907 H 0.63212 0.67343 0.38616
 H908 H 0.65277 0.69387 0.42286
 C909 C 0.68911 0.19026 -0.09114
 C910 C 0.67968 0.20499 -0.11120
 C911 C 0.66822 0.19328 -0.13211
 C912 C 0.66606 0.16665 -0.13323
 C913 C 0.67534 0.15200 -0.11288
 C914 C 0.68682 0.16375 -0.09195
 C915 C 0.70177 0.20241 -0.07013
 C916 C 0.71263 0.21298 -0.05293
 H917 H 0.68146 0.22552 -0.11081
 H918 H 0.66148 0.20495 -0.14767
 H919 H 0.67379 0.13148 -0.11330
 H920 H 0.69409 0.15216 -0.07655
 C921 C 0.18932 0.69031 -0.09173
 C922 C 0.17986 0.70510 -0.11174
 C923 C 0.16832 0.69345 -0.13265
 C924 C 0.16611 0.66683 -0.13381
 C925 C 0.17540 0.65212 -0.11350
 C926 C 0.18695 0.66381 -0.09258
 C927 C 0.20212 0.70238 -0.07077
 C928 C 0.21314 0.71283 -0.05360
 H929 H 0.18169 0.72562 -0.11133
 H930 H 0.16157 0.70516 -0.14818
 H931 H 0.17381 0.63160 -0.11395
 H932 H 0.19425 0.65218 -0.07722
 C933 C 0.19085 0.18833 0.40879
 C934 C 0.20559 0.17908 0.38866
 C935 C 0.19390 0.16766 0.36771
 C936 C 0.16728 0.16533 0.36665
 C937 C 0.15261 0.17443 0.38708
 C938 C 0.16434 0.18588 0.40802
 C939 C 0.20298 0.20095 0.42983
 C940 C 0.21352 0.21179 0.44705
 H941 H 0.22611 0.18098 0.38901
 H942 H 0.20558 0.16106 0.35210
 H943 H 0.13209 0.17275 0.38669
 H944 H 0.15275 0.19300 0.42349
 C945 C 0.30910 0.40837 0.68877
 C946 C 0.29436 0.38820 0.67958
 C947 C 0.30605 0.36725 0.66819
 C948 C 0.33267 0.36619 0.66584
 C949 C 0.34734 0.38663 0.67491
 C950 C 0.33561 0.40760 0.68632
 C951 C 0.29698 0.42942 0.70137
 C952 C 0.28647 0.44666 0.71222
 H953 H 0.27384 0.38854 0.68149
 H954 H 0.29437 0.35162 0.66161
 H955 H 0.36786 0.38626 0.67320
 H956 H 0.34720 0.42308 0.69342
 C957 C 0.30855 0.90861 0.18782
 C958 C 0.33508 0.90798 0.18558
 C959 C 0.34700 0.88708 0.17425
 C960 C 0.33252 0.86655 0.16507
 C961 C 0.30587 0.86747 0.16719
 C962 C 0.29398 0.88837 0.17850
 C963 C 0.29623 0.92958 0.20036
 C964 C 0.28558 0.94676 0.21117
 H965 H 0.34653 0.92352 0.19277
 H966 H 0.36754 0.88681 0.17272
 H967 H 0.29433 0.85178 0.16052
 H968 H 0.27345 0.88861 0.18025
 C969 C 0.81092 0.40839 0.19083
 C970 C 0.81313 0.40757 0.16431
 C971 C 0.82457 0.38666 0.15252
 C972 C 0.83391 0.36631 0.16714
 C973 C 0.83182 0.36741 0.19378
 C974 C 0.82040 0.38833 0.20552
 C975 C 0.79827 0.42939 0.20301
 C976 C 0.78737 0.44660 0.21352
 H977 H 0.80582 0.42298 0.15275
 H978 H 0.82607 0.38624 0.13199
 H979 H 0.83861 0.35186 0.20543
 H980 H 0.81868 0.38871 0.22605
 C981 C 0.80911 0.90864 0.68864
 C982 C 0.83562 0.90788 0.68622
 C983 C 0.84735 0.88698 0.67470
 C984 C 0.83269 0.86659 0.66551
 C985 C 0.80606 0.86764 0.66783
 C986 C 0.79437 0.88853 0.67932
 C987 C 0.79698 0.92962 0.70135
 C988 C 0.78647 0.94681 0.71229
 H989 H 0.84721 0.92332 0.69341
 H990 H 0.86787 0.88660 0.67302
 H991 H 0.79439 0.85205 0.66115
 H992 H 0.77385 0.88887 0.68121
 C993 C 0.69097 0.59118 0.68989
 C994 C 0.66446 0.59194 0.68750
 C995 C 0.65272 0.61274 0.67581
 C996 C 0.66738 0.63303 0.66640
 C997 C 0.69401 0.63199 0.66868
 C998 C 0.70571 0.61119 0.68035
 C999 C 0.70310 0.57031 0.70277
 C1000 C 0.71359 0.55319 0.71383
 H1001 H 0.65287 0.57657 0.69486
 H1002 H 0.63219 0.61312 0.67417
 H1003 H 0.70568 0.64751 0.66184
 H1004 H 0.72623 0.61085 0.68220
 C1005 C 0.68918 0.09120 0.19199
 C1006 C 0.67978 0.11134 0.20663
 C1007 C 0.66816 0.13212 0.19485
 C1008 C 0.66578 0.13301 0.16823
 C1009 C 0.67505 0.11259 0.15367
 C1010 C 0.68670 0.09180 0.16549
 C1011 C 0.70199 0.07032 0.20420
 C1012 C 0.71300 0.05320 0.21474
 H1013 H 0.68171 0.11112 0.22715
 H1014 H 0.66143 0.14773 0.20644
 H1015 H 0.67333 0.11284 0.13315
 H1016 H 0.69394 0.07633 0.15398
 C1017 C 0.18934 0.59115 0.19207
 C1018 C 0.17998 0.61146 0.20649
 C1019 C 0.16856 0.63222 0.19447
 C1020 C 0.16636 0.63292 0.16783
 C1021 C 0.17560 0.61233 0.15349
 C1022 C 0.18704 0.59157 0.16555
 C1023 C 0.20194 0.57028 0.20453
 C1024 C 0.21280 0.55317 0.21524
 H1025 H 0.18177 0.61139 0.22702
 H1026 H 0.16184 0.64796 0.20591
 H1027 H 0.17401 0.61243 0.13296
 H1028 H 0.19427 0.57597 0.15420
 C1029 C 0.18837 0.09110 0.69262
 C1030 C 0.18593 0.09151 0.66611
 C1031 C 0.17447 0.11228 0.65410
 C1032 C 0.16534 0.13289 0.66847
 C1033 C 0.16765 0.13220 0.69510
 C1034 C 0.17910 0.11143 0.70708
 C1035 C 0.20103 0.07025 0.70501
 C1036 C 0.21193 0.05315 0.71570
 H1037 H 0.19308 0.07589 0.65474
 H1038 H 0.17280 0.11238 0.63358
 H1039 H 0.16103 0.14797 0.70656
 H1040 H 0.18099 0.11136 0.72760
 C1041 C 0.30889 0.59142 0.31131
 C1042 C 0.33541 0.59210 0.31360
 C1043 C 0.34728 0.61299 0.32501
 C1044 C 0.33274 0.63345 0.33424
 C1045 C 0.30610 0.63248 0.33207
 C1046 C 0.29427 0.61159 0.32068
 C1047 C 0.29662 0.57044 0.29873
 C1048 C 0.28598 0.55325 0.28792
 H1049 H 0.34691 0.57661 0.30638
 H1050 H 0.36781 0.61330 0.32658
 H1051 H 0.29451 0.64812 0.33877
 H1052 H 0.27374 0.61131 0.31890
 C1053 C 0.30824 0.09144 0.81159
 C1054 C 0.33476 0.09199 0.81388
 C1055 C 0.34673 0.11287 0.82521
 C1056 C 0.33229 0.13344 0.83435
 C1057 C 0.30565 0.13260 0.83216
 C1058 C 0.29371 0.11173 0.82085
 C1059 C 0.29586 0.07046 0.79910
 C1060 C 0.28516 0.05328 0.78835
 H1061 H 0.34619 0.07641 0.80674
 H1062 H 0.36726 0.11308 0.82680
 H1063 H 0.29414 0.14833 0.83879
 H1064 H 0.27318 0.11155 0.81906
 C1065 C 0.80870 0.59140 0.81098
 C1066 C 0.83522 0.59205 0.81327
 C1067 C 0.84711 0.61289 0.82475
 C1068 C 0.83258 0.63333 0.83403
 C1069 C 0.80594 0.63240 0.83184
 C1070 C 0.79409 0.61156 0.82039
 C1071 C 0.79640 0.57045 0.79837
 C1072 C 0.78574 0.55328 0.78755
 H1073 H 0.84671 0.57656 0.80602
 H1074 H 0.86764 0.61318 0.82633
 H1075 H 0.79437 0.64803 0.83859
 H1076 H 0.77356 0.61130 0.81861
 C1077 C 0.80869 0.09126 0.31138
 C1078 C 0.83520 0.09190 0.31374
 C1079 C 0.84707 0.11279 0.32517
 C1080 C 0.83253 0.13327 0.33434
 C1081 C 0.80589 0.13233 0.33211
 C1082 C 0.79406 0.11145 0.32070
 C1083 C 0.79645 0.07032 0.29869
 C1084 C 0.78590 0.05317 0.28773
 H1085 H 0.84670 0.07640 0.30654
 H1086 H 0.86760 0.11308 0.32678
 H1087 H 0.79431 0.14799 0.33877
 H1088 H 0.77354 0.11120 0.31886
 C1089 C 0.68927 0.40905 0.30813
 C1090 C 0.67976 0.38885 0.29365
 C1091 C 0.66823 0.36811 0.30561
 C1092 C 0.66607 0.36733 0.33225
 C1093 C 0.67543 0.38782 0.34665
 C1094 C 0.68698 0.40856 0.33465
 C1095 C 0.70206 0.42984 0.29576
 C1096 C 0.71308 0.44690 0.28512
 H1097 H 0.68155 0.38897 0.27312
 H1098 H 0.66143 0.35244 0.29413
 H1099 H 0.67387 0.38766 0.36718
 H1100 H 0.69432 0.42408 0.34605
 C1101 C 0.69199 0.90888 0.81034
 C1102 C 0.66547 0.90833 0.81271
 C1103 C 0.65355 0.88757 0.82430
 C1104 C 0.66803 0.86711 0.83363
 C1105 C 0.69467 0.86795 0.83137
 C1106 C 0.70655 0.88871 0.81980
 C1107 C 0.70429 0.92972 0.79755
 C1108 C 0.71487 0.94681 0.78655
 H1109 H 0.65401 0.92382 0.80541
 H1110 H 0.63302 0.88735 0.82593
 H1111 H 0.70620 0.85231 0.83815
 H1112 H 0.72708 0.88889 0.81796
 C1113 C 0.19161 0.40916 0.81004
 C1114 C 0.20612 0.38896 0.81953
 C1115 C 0.19418 0.36827 0.83116
 C1116 C 0.16754 0.36752 0.83345
 C1117 C 0.15311 0.38799 0.82409
 C1118 C 0.16509 0.40869 0.81244
 C1119 C 0.20397 0.42994 0.79723
 C1120 C 0.21461 0.44699 0.78621
 H1121 H 0.22664 0.38908 0.81767
 H1122 H 0.20568 0.35261 0.83797
 H1123 H 0.13259 0.38785 0.82574
 H1124 H 0.15367 0.42420 0.80512
 C1125 C 0.18959 0.90883 0.30771
 C1126 C 0.18017 0.88851 0.29332
 C1127 C 0.16875 0.86778 0.30538
 C1128 C 0.16661 0.86710 0.33203
 C1129 C 0.17592 0.88768 0.34634
 C1130 C 0.18735 0.90843 0.33423
 C1131 C 0.20215 0.92968 0.29520
 C1132 C 0.21294 0.94679 0.28441
 H1133 H 0.18191 0.88858 0.27279
 H1134 H 0.16199 0.85203 0.29398
 H1135 H 0.17437 0.88760 0.36686
 H1136 H 0.19462 0.92403 0.34555
 C1137 C 0.40873 0.30982 0.69082
 C1138 C 0.38874 0.31947 0.70550
 C1139 C 0.36790 0.33102 0.69374
 C1140 C 0.36680 0.33306 0.66710
 C1141 C 0.38709 0.32355 0.65249
 C1142 C 0.40793 0.31198 0.66430
 C1143 C 0.42965 0.29706 0.70302
 C1144 C 0.44680 0.28610 0.71357
 H1145 H 0.38911 0.31779 0.72603
 H1146 H 0.35239 0.33794 0.70537
 H1147 H 0.38668 0.32502 0.63196
 H1148 H 0.42328 0.30455 0.65275
 C1149 C 0.40871 0.81070 0.19080
 C1150 C 0.38852 0.82021 0.20530
 C1151 C 0.36771 0.83161 0.19335
 C1152 C 0.36685 0.83365 0.16670
 C1153 C 0.38733 0.82429 0.15228
 C1154 C 0.40814 0.81287 0.16428
 C1155 C 0.42960 0.79808 0.20319
 C1156 C 0.44673 0.78723 0.21387
 H1157 H 0.38872 0.81853 0.22584
 H1158 H 0.35204 0.83842 0.20484
 H1159 H 0.38709 0.82576 0.13175
 H1160 H 0.42365 0.80554 0.15287
 C1161 C 0.90875 0.30808 0.18902
 C1162 C 0.88849 0.29349 0.17979
 C1163 C 0.86765 0.30533 0.16834
 C1164 C 0.86681 0.33195 0.16597
 C1165 C 0.88734 0.34646 0.17508
 C1166 C 0.90819 0.33458 0.18655
 C1167 C 0.92969 0.29581 0.20167
 C1168 C 0.94685 0.28522 0.21257
 H1169 H 0.88867 0.27297 0.18172
 H1170 H 0.85194 0.29377 0.16173
 H1171 H 0.88713 0.36698 0.17336
 H1172 H 0.92376 0.34606 0.19367
 C1173 C 0.90866 0.81008 0.69042
 C1174 C 0.90792 0.81236 0.66390
 C1175 C 0.88711 0.82398 0.65209
 C1176 C 0.86679 0.83343 0.66669
 C1177 C 0.86781 0.83126 0.69332
 C1178 C 0.88862 0.81966 0.70509
 C1179 C 0.92956 0.79730 0.70262
 C1180 C 0.94670 0.78632 0.71318
 H1181 H 0.92331 0.80498 0.65236
 H1182 H 0.88675 0.82554 0.63157
 H1183 H 0.85227 0.83813 0.70495
 H1184 H 0.88894 0.81789 0.72561
 C1185 C 0.59104 0.30913 0.31097
 C1186 C 0.61122 0.29456 0.32041
 C1187 C 0.63210 0.30645 0.33176
 C1188 C 0.63306 0.33310 0.33381
 C1189 C 0.61260 0.34759 0.32450
 C1190 C 0.59172 0.33566 0.31313
 C1191 C 0.57007 0.29680 0.29843
 C1192 C 0.55289 0.28612 0.28765
 H1193 H 0.61095 0.27403 0.31873
 H1194 H 0.64774 0.29490 0.33853
 H1195 H 0.61290 0.36812 0.32598
 H1196 H 0.57622 0.34712 0.30585
 C1197 C 0.59169 0.81114 0.80866
 C1198 C 0.61187 0.82047 0.79402
 C1199 C 0.63273 0.83194 0.80582
 C1200 C 0.63367 0.83422 0.83245
 C1201 C 0.61320 0.82503 0.84700
 C1202 C 0.59233 0.81354 0.83516
 C1203 C 0.57074 0.79844 0.79644
 C1204 C 0.55358 0.78750 0.78588
 H1205 H 0.61162 0.81860 0.77350
 H1206 H 0.64838 0.83861 0.79422
 H1207 H 0.61349 0.82669 0.86752
 H1208 H 0.57683 0.80635 0.84668
 C1209 C 0.09107 0.31167 0.80867
 C1210 C 0.11127 0.32093 0.79401
 C1211 C 0.13217 0.33236 0.80578
 C1212 C 0.13312 0.33470 0.83240
 C1213 C 0.11264 0.32557 0.84698
 C1214 C 0.09174 0.31411 0.83517
 C1215 C 0.07008 0.29902 0.79647
 C1216 C 0.05289 0.28811 0.78593
 H1217 H 0.11100 0.31902 0.77349
 H1218 H 0.14782 0.33898 0.79416
 H1219 H 0.11294 0.32727 0.86749
 H1220 H 0.07622 0.30698 0.84670
 C1221 C 0.09167 0.80887 0.31078
 C1222 C 0.11183 0.79432 0.32028
 C1223 C 0.13267 0.80623 0.33168
 C1224 C 0.13361 0.83288 0.33371
 C1225 C 0.11316 0.84735 0.32436
 C1226 C 0.09231 0.83540 0.31295
 C1227 C 0.07077 0.79655 0.29811
 C1228 C 0.05364 0.78595 0.28717
 H1229 H 0.11159 0.77379 0.31859
 H1230 H 0.14832 0.79470 0.33848
 H1231 H 0.11344 0.86788 0.32582
 H1232 H 0.07683 0.84685 0.30561
 C1233 C 0.59156 0.68966 0.69130
 C1234 C 0.61170 0.68025 0.70593
 C1235 C 0.63247 0.66861 0.69412
 C1236 C 0.63334 0.66624 0.66750
 C1237 C 0.61292 0.67554 0.65295
 C1238 C 0.59215 0.68720 0.66480
 C1239 C 0.57068 0.70244 0.70354
 C1240 C 0.55355 0.71341 0.71412
 H1241 H 0.61149 0.68216 0.72644
 H1242 H 0.64808 0.66185 0.70571
 H1243 H 0.61316 0.67382 0.63244
 H1244 H 0.57668 0.69446 0.65329
 C1245 C 0.59086 0.19097 0.19045
 C1246 C 0.61094 0.20561 0.18092
 C1247 C 0.63173 0.19381 0.16933
 C1248 C 0.63270 0.16718 0.16712
 C1249 C 0.61234 0.15261 0.17653
 C1250 C 0.59154 0.16445 0.18814
 C1251 C 0.56997 0.20320 0.20321
 C1252 C 0.55284 0.21377 0.21417
 H1253 H 0.61066 0.22613 0.18271
 H1254 H 0.64731 0.20541 0.16248
 H1255 H 0.61265 0.13209 0.17494
 H1256 H 0.57611 0.15293 0.19549
 C1257 C 0.09156 0.69122 0.18935
 C1258 C 0.09214 0.66469 0.18716
 C1259 C 0.11293 0.65272 0.17568
 C1260 C 0.13339 0.66717 0.16629
 C1261 C 0.13252 0.69381 0.16836
 C1262 C 0.11173 0.70575 0.17982
 C1263 C 0.07071 0.70357 0.20205
 C1264 C 0.05360 0.71420 0.21299
 H1265 H 0.07665 0.65327 0.19451
 H1266 H 0.11317 0.63219 0.17419
 H1267 H 0.14817 0.70532 0.16153
 H1268 H 0.11153 0.72628 0.18153
 C1269 C 0.09077 0.19152 0.68999
 C1270 C 0.11096 0.20597 0.68038
 C1271 C 0.13171 0.19395 0.66893
 C1272 C 0.13253 0.16730 0.66695
 C1273 C 0.11205 0.15293 0.67641
 C1274 C 0.09130 0.16498 0.68788
 C1275 C 0.06993 0.20396 0.70263
 C1276 C 0.05283 0.21469 0.71349
 H1277 H 0.11080 0.22651 0.68202
 H1278 H 0.14738 0.20541 0.66205
 H1279 H 0.11224 0.13239 0.67499
 H1280 H 0.07579 0.15361 0.69528
 C1281 C 0.40886 0.68960 0.30885
 C1282 C 0.40825 0.68732 0.33537
 C1283 C 0.38745 0.67578 0.34728
 C1284 C 0.36701 0.66643 0.33278
 C1285 C 0.36792 0.66858 0.30615
 C1286 C 0.38871 0.68009 0.29427
 C1287 C 0.42971 0.70238 0.29656
 C1288 C 0.44681 0.71338 0.28598
 H1289 H 0.42372 0.69465 0.34683
 H1290 H 0.38718 0.67424 0.36780
 H1291 H 0.35228 0.66178 0.29460
 H1292 H 0.38894 0.68187 0.27375
 C1293 C 0.40866 0.18918 0.80887
 C1294 C 0.38849 0.17968 0.79432
 C1295 C 0.36763 0.16831 0.80622
 C1296 C 0.36668 0.16629 0.83287
 C1297 C 0.38713 0.17565 0.84734
 C1298 C 0.40800 0.18705 0.83540
 C1299 C 0.42961 0.20175 0.79653
 C1300 C 0.44678 0.21255 0.78585
 H1301 H 0.38876 0.18134 0.77379
 H1302 H 0.35200 0.16151 0.79469
 H1303 H 0.38684 0.17421 0.86788
 H1304 H 0.42348 0.19437 0.84685
 C1305 C 0.90865 0.68945 0.80866
 C1306 C 0.88846 0.68000 0.79413
 C1307 C 0.86766 0.66853 0.80603
 C1308 C 0.86680 0.66636 0.83267
 C1309 C 0.88726 0.67569 0.84713
 C1310 C 0.90807 0.68719 0.83518
 C1311 C 0.92957 0.70205 0.79631
 C1312 C 0.94672 0.71286 0.78559
 H1313 H 0.88866 0.68176 0.77360
 H1314 H 0.85200 0.66175 0.79450
 H1315 H 0.88704 0.67413 0.86766
 H1316 H 0.92359 0.69447 0.84662
 C1317 C 0.90873 0.18924 0.30888
 C1318 C 0.88858 0.17974 0.29432
 C1319 C 0.86775 0.16831 0.30621
 C1320 C 0.86681 0.16623 0.33285
 C1321 C 0.88726 0.17559 0.34733
 C1322 C 0.90809 0.18705 0.33540
 C1323 C 0.92966 0.20186 0.29655
 C1324 C 0.94681 0.21271 0.28589
 H1325 H 0.88883 0.18144 0.27379
 H1326 H 0.85211 0.16150 0.29467
 H1327 H 0.88697 0.17411 0.36786
 H1328 H 0.92358 0.19437 0.34686
 C1329 C 0.31006 0.30780 0.59143
 C1330 C 0.31257 0.33430 0.59189
 C1331 C 0.32429 0.34623 0.61258
 C1332 C 0.33360 0.33176 0.63305
 C1333 C 0.33118 0.30514 0.63231
 C1334 C 0.31949 0.29325 0.61163
 C1335 C 0.29725 0.29548 0.57062
 C1336 C 0.28631 0.28480 0.55354
 H1337 H 0.30531 0.34575 0.57637
 H1338 H 0.32603 0.36674 0.61272
 H1339 H 0.33795 0.29362 0.64797
 H1340 H 0.31755 0.27274 0.61151
 C1341 C 0.31100 0.80765 0.09067
 C1342 C 0.32037 0.79326 0.11101
 C1343 C 0.33176 0.80533 0.13175
 C1344 C 0.33392 0.83198 0.13242
 C1345 C 0.32468 0.84628 0.11181
 C1346 C 0.31327 0.83418 0.09106
 C1347 C 0.29837 0.79517 0.06985
 C1348 C 0.28745 0.78447 0.05277
 H1349 H 0.31859 0.77273 0.11096
 H1350 H 0.33848 0.79393 0.14752
 H1351 H 0.32625 0.86681 0.11188
 H1352 H 0.30604 0.84550 0.07544
 C1353 C 0.80856 0.30968 0.09138
 C1354 C 0.79399 0.31924 0.11150
 C1355 C 0.80587 0.33089 0.13221
 C1356 C 0.83250 0.33314 0.13306
 C1357 C 0.84699 0.32372 0.11265
 C1358 C 0.83508 0.31204 0.09194
 C1359 C 0.79625 0.29687 0.07057
 C1360 C 0.78559 0.28592 0.05349
 H1361 H 0.77346 0.31741 0.11131
 H1362 H 0.79432 0.33774 0.14782
 H1363 H 0.86752 0.32533 0.11288
 H1364 H 0.84655 0.30469 0.07648
 C1365 C 0.81015 0.80858 0.59079
 C1366 C 0.81268 0.83508 0.59138
 C1367 C 0.82438 0.84689 0.61214
 C1368 C 0.83366 0.83232 0.63255
 C1369 C 0.83124 0.80570 0.63167
 C1370 C 0.81956 0.79393 0.61092
 C1371 C 0.79735 0.79636 0.56991
 C1372 C 0.78641 0.78574 0.55280
 H1373 H 0.80543 0.84660 0.57591
 H1374 H 0.82613 0.86740 0.61239
 H1375 H 0.83798 0.79410 0.64728
 H1376 H 0.81761 0.77342 0.61070
 C1377 C 0.31105 0.69211 0.40881
 C1378 C 0.32041 0.70657 0.38852
 C1379 C 0.33182 0.69457 0.36774
 C1380 C 0.33401 0.66793 0.36700
 C1381 C 0.32476 0.65356 0.38756
 C1382 C 0.31333 0.66559 0.40834
 C1383 C 0.29850 0.70455 0.42971
 C1384 C 0.28772 0.71531 0.44684
 H1385 H 0.31864 0.72710 0.38863
 H1386 H 0.33854 0.70603 0.35202
 H1387 H 0.32634 0.63303 0.38742
 H1388 H 0.30611 0.65422 0.42393
 C1389 C 0.31054 0.19203 0.90883
 C1390 C 0.32000 0.20650 0.88859
 C1391 C 0.33150 0.19451 0.86786
 C1392 C 0.33370 0.16787 0.86712
 C1393 C 0.32438 0.15349 0.88765
 C1394 C 0.31286 0.16551 0.90838
 C1395 C 0.29786 0.20444 0.92966
 C1396 C 0.28698 0.21515 0.94675
 H1397 H 0.31820 0.22702 0.88870
 H1398 H 0.33827 0.20598 0.85216
 H1399 H 0.32597 0.13296 0.88750
 H1400 H 0.30558 0.15413 0.92393
 C1401 C 0.81065 0.69134 0.90891
 C1402 C 0.81307 0.66484 0.90827
 C1403 C 0.82464 0.65301 0.88745
 C1404 C 0.83389 0.66757 0.86702
 C1405 C 0.83161 0.69420 0.86796
 C1406 C 0.82006 0.70599 0.88877
 C1407 C 0.79786 0.70355 0.92980
 C1408 C 0.78686 0.71409 0.94692
 H1409 H 0.80582 0.65332 0.92374
 H1410 H 0.82629 0.63249 0.88716
 H1411 H 0.83833 0.70580 0.85233
 H1412 H 0.81818 0.72651 0.88902
 C1413 C 0.81077 0.19200 0.40880
 C1414 C 0.81304 0.16548 0.40836
 C1415 C 0.82451 0.15343 0.38761
 C1416 C 0.83380 0.16779 0.36706
 C1417 C 0.83162 0.19443 0.36778
 C1418 C 0.82017 0.20644 0.38852
 C1419 C 0.79817 0.20445 0.42967
 C1420 C 0.78735 0.21520 0.44677
 H1421 H 0.80579 0.15412 0.42395
 H1422 H 0.82608 0.13290 0.38749
 H1423 H 0.83837 0.20587 0.35205
 H1424 H 0.81840 0.22697 0.38861
 C1425 C 0.69144 0.31159 0.40860
 C1426 C 0.70598 0.32088 0.38834
 C1427 C 0.69408 0.33227 0.36750
 C1428 C 0.66744 0.33452 0.36667
 C1429 C 0.65298 0.32536 0.38721
 C1430 C 0.66492 0.31395 0.40806
 C1431 C 0.70378 0.29902 0.42954
 C1432 C 0.71446 0.28821 0.44670
 H1433 H 0.72651 0.31905 0.38851
 H1434 H 0.70560 0.33892 0.35178
 H1435 H 0.63245 0.32699 0.38700
 H1436 H 0.65348 0.30679 0.42362
 C1437 C 0.68973 0.80915 0.90867
 C1438 C 0.68749 0.83567 0.90795
 C1439 C 0.67601 0.84751 0.88709
 C1440 C 0.66666 0.83295 0.86670
 C1441 C 0.66880 0.80631 0.86771
 C1442 C 0.68026 0.79451 0.88856
 C1443 C 0.70235 0.79689 0.92963
 C1444 C 0.71318 0.78626 0.94681
 H1445 H 0.69480 0.84718 0.92340
 H1446 H 0.67448 0.86804 0.88675
 H1447 H 0.66200 0.79471 0.85212
 H1448 H 0.68199 0.77398 0.88887
 C1449 C 0.18934 0.30990 0.90866
 C1450 C 0.18708 0.33642 0.90784
 C1451 C 0.17552 0.34817 0.88697
 C1452 C 0.16611 0.33352 0.86668
 C1453 C 0.16824 0.30689 0.86780
 C1454 C 0.17978 0.29517 0.88866
 C1455 C 0.20214 0.29777 0.92958
 C1456 C 0.21316 0.28727 0.94673
 H1457 H 0.19445 0.34800 0.92320
 H1458 H 0.17399 0.36870 0.88655
 H1459 H 0.16140 0.29522 0.85227
 H1460 H 0.18154 0.27465 0.88905
 C1461 C 0.19195 0.81164 0.40861
 C1462 C 0.20651 0.82092 0.38836
 C1463 C 0.19462 0.83224 0.36747
 C1464 C 0.16797 0.83442 0.36658
 C1465 C 0.15350 0.82528 0.38712
 C1466 C 0.16542 0.81395 0.40802
 C1467 C 0.20427 0.79912 0.42959
 C1468 C 0.21494 0.78834 0.44678
 H1469 H 0.22704 0.81913 0.38857
 H1470 H 0.20616 0.83887 0.35176
 H1471 H 0.13296 0.82686 0.38688
 H1472 H 0.15397 0.80679 0.42358
 C1473 C 0.68962 0.69050 0.59114
 C1474 C 0.68025 0.70530 0.61117
 C1475 C 0.66867 0.69368 0.63207
 C1476 C 0.66630 0.66707 0.63319
 C1477 C 0.67554 0.65234 0.61288
 C1478 C 0.68714 0.66400 0.59197
 C1479 C 0.70234 0.70256 0.57013
 C1480 C 0.71322 0.71309 0.55292
 H1481 H 0.68216 0.72581 0.61078
 H1482 H 0.66197 0.70541 0.64761
 H1483 H 0.67383 0.63183 0.61331
 H1484 H 0.69436 0.65236 0.57658
 C1485 C 0.69024 0.18917 0.09186
 C1486 C 0.70501 0.17980 0.11191
 C1487 C 0.69336 0.16827 0.13282
 C1488 C 0.66673 0.16596 0.13392
 C1489 C 0.65203 0.17519 0.11357
 C1490 C 0.66373 0.18675 0.09267
 C1491 C 0.70235 0.20186 0.07085
 C1492 C 0.71290 0.21272 0.05364
 H1493 H 0.72553 0.18168 0.11153
 H1494 H 0.70506 0.16157 0.14837
 H1495 H 0.63151 0.17352 0.11399
 H1496 H 0.65211 0.19396 0.07726
 C1497 C 0.19131 0.68851 0.09116
 C1498 C 0.20598 0.67918 0.11131
 C1499 C 0.19421 0.66779 0.13223
 C1500 C 0.16757 0.66559 0.13325
 C1501 C 0.15298 0.67477 0.11281
 C1502 C 0.16479 0.68618 0.09188
 C1503 C 0.20351 0.70111 0.07015
 C1504 C 0.21410 0.71195 0.05295
 H1505 H 0.22651 0.68099 0.11099
 H1506 H 0.20583 0.66113 0.14786
 H1507 H 0.13245 0.67318 0.11316
 H1508 H 0.15325 0.69337 0.07641
 C1509 C 0.19082 0.18814 0.59184
 C1510 C 0.16428 0.18600 0.59251
 C1511 C 0.15233 0.17477 0.61345
 C1512 C 0.16680 0.16559 0.63397
 C1513 C 0.19345 0.16762 0.63302
 C1514 C 0.20537 0.17882 0.61208
 C1515 C 0.20316 0.20062 0.57084
 C1516 C 0.21378 0.21143 0.55364
 H1517 H 0.15284 0.19321 0.57696
 H1518 H 0.13179 0.17331 0.61374
 H1519 H 0.20499 0.16094 0.64871
 H1520 H 0.22591 0.18050 0.61183
   
