data_POSCAR
  _audit_creation_date              2014-09-24
  _audit_creation_method            'ToBaCCo'
  _symmetry_space_group_name_H-M    'P1'
  _symmetry_Int_Tables_number       1
  _symmetry_cell_setting            triclinic
  loop_
  _symmetry_equiv_pos_as_xyz
 x,y,z
_cell_length_a 59.0107
_cell_length_b 59.7370
_cell_length_c 61.4223
_cell_angle_alpha 90.351800
_cell_angle_beta 89.777600
_cell_angle_gamma 88.750200
loop_
  _atom_site_label
  _atom_site_type_symbol
  _atom_site_fract_x
  _atom_site_fract_y
  _atom_site_fract_z
C1 C 0.42363 0.00703 0.27847
 H2 H 0.42420 0.02137 0.26782
 C3 C 0.43938 0.00475 0.29534
 H4 H 0.45202 0.01744 0.29742
 C5 C 0.40697 -0.02720 0.28806
 H6 H 0.39480 -0.04001 0.28494
 C7 C 0.42223 -0.03005 0.30522
 H8 H 0.42080 -0.04460 0.31550
 N9 N 0.40748 -0.00858 0.27541
 C10 C 0.40495 0.01474 0.21317
 H11 H 0.39595 0.02987 0.21810
 C12 C 0.41696 0.01432 0.19347
 H13 H 0.41661 0.02899 0.18320
 C14 C 0.41628 -0.02277 0.22032
 H15 H 0.41590 -0.03717 0.23090
 C16 C 0.42825 -0.02401 0.20067
 H17 H 0.43709 -0.03945 0.19620
 Zn18 Zn 0.38662 -0.00438 0.25191
 N19 N 0.40428 -0.00386 0.22585
 C20 C 0.37266 0.03723 0.27201
 N21 N 0.36969 0.02323 0.25474
 C22 C 0.35491 0.02875 0.23856
 C23 C 0.34307 0.04934 0.23894
 C24 C 0.36100 0.05788 0.27315
 C25 C 0.36339 -0.04007 0.23169
 C26 C 0.34976 -0.05886 0.23056
 C27 C 0.34056 -0.05373 0.26855
 C28 C 0.35395 -0.03461 0.26871
 N29 N 0.36578 -0.02865 0.25068
 H30 H 0.38420 0.03252 0.28489
 H31 H 0.35265 0.01729 0.22508
 H32 H 0.33149 0.05341 0.22585
 H33 H 0.36391 0.06890 0.28687
 H34 H 0.37234 -0.03484 0.21728
 H35 H 0.34986 -0.06782 0.21524
 H36 H 0.33149 -0.05754 0.28334
 H37 H 0.35543 -0.02485 0.28351
 C38 C 0.42834 -0.00543 0.18676
 C39 C 0.43864 -0.01385 0.30927
 C40 C 0.33821 -0.06665 0.24927
 C41 C 0.34609 0.06429 0.25637
 C42 C 0.07661 0.02074 0.72603
 H43 H 0.07408 0.03331 0.73856
 C44 C 0.06360 0.02181 0.70701
 H45 H 0.05100 0.03511 0.70515
 C46 C 0.09692 -0.01096 0.71235
 H47 H 0.11061 -0.02307 0.71371
 C48 C 0.08403 -0.01079 0.69338
 H49 H 0.08784 -0.02296 0.68067
 N50 N 0.09300 0.00453 0.72838
 C51 C 0.09872 -0.01450 0.79340
 H52 H 0.11011 -0.02805 0.78877
 C53 C 0.08835 -0.01510 0.81379
 H54 H 0.09159 -0.02938 0.82419
 C55 C 0.08154 0.02082 0.78620
 H56 H 0.07957 0.03518 0.77572
 C57 C 0.07084 0.02095 0.80666
 H58 H 0.06064 0.03538 0.81166
 Zn59 Zn 0.11244 0.00425 0.75338
 N60 N 0.09534 0.00330 0.77999
 C61 C 0.14122 0.03686 0.77195
 N62 N 0.12993 0.03080 0.75361
 C63 C 0.13057 0.04363 0.73541
 C64 C 0.14302 0.06326 0.73512
 C65 C 0.15384 0.05651 0.77240
 C66 C 0.12210 -0.04216 0.74995
 C67 C 0.13532 -0.06170 0.74760
 C68 C 0.16882 -0.03925 0.74869
 C69 C 0.15491 -0.02003 0.75074
 N70 N 0.13195 -0.02179 0.75137
 H71 H 0.14043 0.02643 0.78625
 H72 H 0.12154 0.03858 0.72098
 H73 H 0.14314 0.07322 0.72045
 H74 H 0.16294 0.06090 0.78703
 H75 H 0.10382 -0.04319 0.75045
 H76 H 0.12709 -0.07771 0.74668
 H77 H 0.18705 -0.03757 0.74822
 H78 H 0.16246 -0.00374 0.75175
 C79 C 0.07461 0.00298 0.82092
 C80 C 0.06731 0.00587 0.69041
 C81 C 0.15901 -0.06043 0.74698
 C82 C 0.15499 0.06994 0.75373
 C83 C 0.57270 0.50715 0.22371
 H84 H 0.56340 0.50618 0.23884
 C85 C 0.56087 0.50893 0.20400
 H86 H 0.54251 0.50931 0.20408
 C87 C 0.60782 0.50847 0.20497
 H88 H 0.62615 0.50821 0.20549
 C89 C 0.59676 0.51054 0.18508
 H90 H 0.60671 0.51179 0.17030
 N91 N 0.59579 0.50682 0.22377
 C92 C 0.60279 0.52076 0.29094
 H93 H 0.61674 0.53178 0.28817
 C94 C 0.59205 0.52119 0.31117
 H95 H 0.59764 0.53281 0.32355
 C96 C 0.57971 0.49118 0.27903
 H97 H 0.57549 0.47905 0.26663
 C98 C 0.56830 0.49119 0.29913
 H99 H 0.55534 0.47902 0.30213
 Zn100 Zn 0.61407 0.50463 0.24905
 N101 N 0.59660 0.50590 0.27530
 C102 C 0.62340 0.55026 0.24913
 N103 N 0.63375 0.52967 0.24841
 C104 C 0.65673 0.52752 0.24707
 C105 C 0.67019 0.54659 0.24688
 C106 C 0.63619 0.56967 0.24943
 C107 C 0.62546 0.46093 0.23312
 C108 C 0.63591 0.43966 0.23357
 C109 C 0.65679 0.45115 0.26528
 C110 C 0.64579 0.47212 0.26434
 N111 N 0.63044 0.47665 0.24842
 H112 H 0.60510 0.55155 0.24984
 H113 H 0.66467 0.51107 0.24606
 H114 H 0.68845 0.54464 0.24588
 H115 H 0.62760 0.58587 0.25015
 H116 H 0.61282 0.46455 0.22089
 H117 H 0.63104 0.42726 0.22165
 H118 H 0.66906 0.44808 0.27802
 H119 H 0.64929 0.48474 0.27650
 C120 C 0.57480 0.50609 0.31559
 C121 C 0.57300 0.51087 0.18441
 C122 C 0.65168 0.43438 0.24994
 C123 C 0.65990 0.56800 0.24833
 C124 C 0.92162 0.49048 0.78089
 H125 H 0.92207 0.47502 0.77162
 C126 C 0.93428 0.49216 0.80009
 H127 H 0.94362 0.47742 0.80533
 C128 C 0.90769 0.52758 0.78526
 H129 H 0.89768 0.54157 0.77929
 C130 C 0.92032 0.53017 0.80419
 H131 H 0.91999 0.54657 0.81171
 N132 N 0.90776 0.50768 0.77447
 C133 C 0.92016 0.51611 0.71789
 H134 H 0.92235 0.53092 0.72782
 C135 C 0.93119 0.51419 0.69768
 H136 H 0.94149 0.52779 0.69207
 C137 C 0.90321 0.48094 0.71275
 H138 H 0.89239 0.46793 0.71862
 C139 C 0.91411 0.47820 0.69269
 H140 H 0.91150 0.46299 0.68345
 Zn141 Zn 0.88781 0.50453 0.75028
 N142 N 0.90566 0.50006 0.72455
 C143 C 0.87149 0.54587 0.73109
 N144 N 0.86921 0.53122 0.74784
 C145 C 0.85424 0.53565 0.76428
 C146 C 0.84191 0.55591 0.76498
 C147 C 0.85969 0.56650 0.73129
 C148 C 0.87100 0.46469 0.77091
 C149 C 0.85803 0.44533 0.77185
 C150 C 0.83821 0.45769 0.73970
 C151 C 0.85175 0.47661 0.73920
 N152 N 0.86825 0.47951 0.75429
 H153 H 0.88295 0.54200 0.71781
 H154 H 0.85241 0.52367 0.77727
 H155 H 0.83031 0.55901 0.77841
 H156 H 0.86277 0.57828 0.71835
 H157 H 0.88365 0.46742 0.78320
 H158 H 0.86142 0.43329 0.78459
 H159 H 0.82538 0.45580 0.72732
 H160 H 0.84953 0.48877 0.72636
 C161 C 0.92761 0.49534 0.68444
 C162 C 0.93313 0.51201 0.81278
 C163 C 0.84168 0.44127 0.75579
 C164 C 0.84503 0.57206 0.74869
 C165 C 0.22842 0.39981 1.01318
 H166 H 0.24279 0.40527 1.02255
 C167 C 0.20876 0.41329 1.01220
 H168 H 0.20835 0.42922 1.02071
 C169 C 0.21160 0.37248 0.99074
 H170 H 0.21270 0.35640 0.98258
 C171 C 0.19159 0.38539 0.98938
 H172 H 0.17741 0.37892 0.98036
 N173 N 0.22950 0.37977 1.00256
 C174 C 0.30124 0.37139 1.01664
 H175 H 0.30069 0.35595 1.02561
 C176 C 0.32133 0.38345 1.01635
 H177 H 0.33600 0.37691 1.02495
 C178 C 0.28326 0.39813 0.99387
 H179 H 0.26841 0.40383 0.98508
 C180 C 0.30297 0.41071 0.99317
 H181 H 0.30291 0.42608 0.98393
 Zn182 Zn 0.25605 0.36091 1.00402
 N183 N 0.28275 0.37867 1.00525
 C184 C 0.25256 0.32128 0.97703
 N185 N 0.25683 0.34361 0.97789
 C186 C 0.26056 0.35540 0.95943
 C187 C 0.26072 0.34479 0.93919
 C188 C 0.25239 0.30995 0.95694
 C189 C 0.23948 0.34842 1.04512
 C190 C 0.23865 0.33656 1.06460
 C191 C 0.26872 0.31208 1.05124
 C192 C 0.26907 0.32455 1.03197
 N193 N 0.25461 0.34242 1.02928
 H194 H 0.24898 0.31230 0.99183
 H195 H 0.26324 0.37319 0.96037
 H196 H 0.26372 0.35460 0.92473
 H197 H 0.24921 0.29218 0.95643
 H198 H 0.22832 0.36280 1.04290
 H199 H 0.22687 0.34220 1.07713
 H200 H 0.28024 0.29786 1.05297
 H201 H 0.28105 0.32008 1.01921
 C202 C 0.32253 0.40324 1.00422
 C203 C 0.18985 0.40606 1.00034
 C204 C 0.25336 0.31806 1.06795
 C205 C 0.25679 0.32176 0.93772
 C206 C 0.78852 0.12450 0.98575
 H207 H 0.78587 0.13695 0.97328
 C208 C 0.80901 0.11220 0.98622
 H209 H 0.82175 0.11621 0.97427
 C210 C 0.77527 0.10563 1.01681
 H211 H 0.76195 0.10296 1.02860
 C212 C 0.79541 0.09293 1.01790
 H213 H 0.79649 0.08023 1.03032
 N214 N 0.77225 0.12130 1.00110
 C215 C 0.69796 0.12999 1.00437
 H216 H 0.69623 0.14791 1.00610
 C217 C 0.67856 0.11701 1.00534
 H218 H 0.66217 0.12519 1.00768
 C219 C 0.72110 0.09768 0.99838
 H220 H 0.73765 0.09016 0.99543
 C221 C 0.70209 0.08408 0.99904
 H222 H 0.70431 0.06616 0.99683
 Zn223 Zn 0.74475 0.13904 1.00087
 N224 N 0.71880 0.12025 1.00117
 C225 C 0.73103 0.15066 0.95853
 N226 N 0.74409 0.15702 0.97555
 C227 C 0.75649 0.17595 0.97468
 C228 C 0.75576 0.18954 0.95619
 C229 C 0.72991 0.16364 0.93975
 C230 C 0.75655 0.15455 1.04326
 C231 C 0.75400 0.16764 1.06205
 C232 C 0.72426 0.18895 1.04427
 C233 C 0.72752 0.17554 1.02574
 N234 N 0.74305 0.15833 1.02571
 H235 H 0.72155 0.13541 0.95948
 H236 H 0.76678 0.18059 0.98845
 H237 H 0.76536 0.20477 0.95596
 H238 H 0.71965 0.15801 0.92630
 H239 H 0.76907 0.14113 1.04297
 H240 H 0.76446 0.16388 1.07606
 H241 H 0.71164 0.20238 1.04408
 H242 H 0.71753 0.17885 1.01136
 C243 C 0.68045 0.09372 1.00264
 C244 C 0.81313 0.09622 1.00272
 C245 C 0.73746 0.18491 1.06284
 C246 C 0.74217 0.18353 0.93844
 C247 C 0.28761 0.62007 0.48143
 H248 H 0.28649 0.63388 0.47025
 C249 C 0.30703 0.60622 0.48117
 H250 H 0.32071 0.61003 0.47010
 C251 C 0.27157 0.59884 0.50975
 H252 H 0.25767 0.59608 0.52089
 C253 C 0.29056 0.58440 0.50986
 H254 H 0.29087 0.57046 0.52103
 N255 N 0.27056 0.61653 0.49594
 C256 C 0.20161 0.62174 0.51338
 H257 H 0.20343 0.63458 0.52562
 C258 C 0.18196 0.60907 0.51326
 H259 H 0.16880 0.61283 0.52513
 C260 C 0.21622 0.60161 0.48295
 H261 H 0.22969 0.59877 0.47119
 C262 C 0.19694 0.58841 0.48236
 H263 H 0.19593 0.57532 0.47017
 Zn264 Zn 0.24455 0.63622 0.49744
 N265 N 0.21807 0.61822 0.49804
 C266 C 0.22865 0.65169 0.45676
 N267 N 0.24422 0.65519 0.47261
 C268 C 0.26059 0.67071 0.47010
 C269 C 0.26300 0.68193 0.45028
 C270 C 0.23046 0.66245 0.43677
 C271 C 0.26138 0.64914 0.53849
 C272 C 0.26026 0.65930 0.55897
 C273 C 0.22743 0.68078 0.54726
 C274 C 0.22923 0.67020 0.52688
 N275 N 0.24543 0.65401 0.52323
 H276 H 0.21541 0.63976 0.45915
 H277 H 0.27263 0.67340 0.48306
 H278 H 0.27697 0.69315 0.44801
 H279 H 0.21852 0.65864 0.42398
 H280 H 0.27448 0.63668 0.53518
 H281 H 0.27267 0.65459 0.57115
 H282 H 0.21360 0.69260 0.55036
 H283 H 0.21689 0.67398 0.51437
 C284 C 0.17923 0.59229 0.49743
 C285 C 0.30890 0.58822 0.49573
 C286 C 0.24260 0.67469 0.56387
 C287 C 0.24833 0.67710 0.43304
 C288 C 0.72841 0.88576 0.48191
 H289 H 0.74099 0.88850 0.46940
 C290 C 0.70722 0.89683 0.48081
 H291 H 0.70385 0.90844 0.46769
 C292 C 0.71751 0.86728 0.51414
 H293 H 0.72118 0.85528 0.52677
 C294 C 0.69623 0.87796 0.51368
 H295 H 0.68397 0.87419 0.52623
 N296 N 0.73333 0.87162 0.49865
 C297 C 0.80773 0.86572 0.50261
 H298 H 0.80913 0.84768 0.50382
 C299 C 0.82724 0.87853 0.50360
 H300 H 0.84361 0.87020 0.50529
 C301 C 0.78464 0.89835 0.49862
 H302 H 0.76800 0.90603 0.49695
 C303 C 0.80379 0.91181 0.49925
 H304 H 0.80167 0.92980 0.49795
 Zn305 Zn 0.76200 0.85596 0.49919
 N306 N 0.78697 0.87569 0.49999
 C307 C 0.77880 0.84306 0.45783
 N308 N 0.76360 0.83809 0.47365
 C309 C 0.74835 0.82158 0.47078
 C310 C 0.74829 0.80902 0.45148
 C311 C 0.77911 0.83119 0.43821
 C312 C 0.76284 0.84888 0.54393
 C313 C 0.76445 0.83711 0.56341
 C314 C 0.77141 0.80307 0.54279
 C315 C 0.76924 0.81549 0.52359
 N316 N 0.76462 0.83793 0.52452
 H317 H 0.79030 0.85669 0.46014
 H318 H 0.73616 0.81824 0.48349
 H319 H 0.73625 0.79572 0.44971
 H320 H 0.79089 0.83605 0.42565
 H321 H 0.75978 0.86680 0.54423
 H322 H 0.76245 0.84602 0.57873
 H323 H 0.77469 0.78518 0.54190
 H324 H 0.77136 0.80719 0.50801
 C325 C 0.82547 0.90189 0.50171
 C326 C 0.69088 0.89321 0.49704
 C327 C 0.76859 0.81389 0.56297
 C328 C 0.76376 0.81382 0.43477
 C329 C -0.00162 0.27063 0.40778
 H330 H 0.01022 0.25825 0.41408
 C331 C -0.00548 0.29045 0.41923
 H332 H 0.00291 0.29285 0.43469
 C333 C -0.02587 0.28307 0.37937
 H334 H -0.03316 0.28019 0.36350
 C335 C -0.02985 0.30340 0.39010
 H336 H -0.04015 0.31624 0.38231
 N337 N -0.01165 0.26742 0.38819
 C338 C 0.02415 0.20522 0.38429
 H339 H 0.03413 0.20806 0.36990
 C340 C 0.02893 0.18643 0.39694
 H341 H 0.04210 0.17498 0.39122
 C342 C -0.00606 0.21603 0.40777
 H343 H -0.01965 0.22769 0.41200
 C344 C -0.00165 0.19781 0.42109
 H345 H -0.01163 0.19648 0.43580
 Zn346 Zn -0.00271 0.24276 0.37120
 N347 N 0.00642 0.21914 0.38949
 C348 C 0.02998 0.23707 0.33801
 N349 N 0.02146 0.25142 0.35336
 C350 C 0.03114 0.27149 0.35735
 C351 C 0.05104 0.27715 0.34670
 C352 C 0.04999 0.24196 0.32712
 C353 C -0.04542 0.22525 0.36589
 C354 C -0.06552 0.22068 0.35520
 C355 C -0.04858 0.23341 0.32169
 C356 C -0.02869 0.23761 0.33303
 N357 N -0.02767 0.23386 0.35481
 H358 H 0.02179 0.22133 0.33499
 H359 H 0.02400 0.28281 0.36945
 H360 H 0.05886 0.29292 0.35052
 H361 H 0.05728 0.22966 0.31596
 H362 H -0.04439 0.22279 0.38323
 H363 H -0.07986 0.21490 0.36449
 H364 H -0.04956 0.23725 0.30451
 H365 H -0.01453 0.24486 0.32465
 C366 C 0.01538 0.18190 0.41531
 C367 C -0.01904 0.30746 0.40999
 C368 C -0.06743 0.22535 0.33297
 C369 C 0.06110 0.26196 0.33191
 C370 C 0.00949 0.72562 0.08364
 H371 H 0.02364 0.73673 0.08217
 C372 C 0.00735 0.70779 0.06920
 H373 H 0.02019 0.70496 0.05678
 C374 C -0.02348 0.71488 0.10287
 H375 H -0.03513 0.71752 0.11630
 C376 C -0.02638 0.69695 0.08871
 H377 H -0.04039 0.68584 0.09125
 N378 N -0.00531 0.72821 0.10050
 C379 C -0.00957 0.78152 0.08997
 H380 H -0.02283 0.76997 0.08607
 C381 C -0.00768 0.80113 0.07814
 H382 H -0.02005 0.80497 0.06566
 C383 C 0.02280 0.79036 0.11083
 H384 H 0.03491 0.78598 0.12325
 C385 C 0.02535 0.81019 0.09937
 H386 H 0.03932 0.82096 0.10322
 Zn387 Zn 0.00072 0.74999 0.12128
 N388 N 0.00518 0.77681 0.10634
 C389 C 0.03317 0.75523 0.15338
 N390 N 0.02677 0.74162 0.13684
 C391 C 0.03896 0.72279 0.13143
 C392 C 0.05931 0.71785 0.14194
 C393 C 0.05342 0.75103 0.16420
 C394 C -0.04311 0.76339 0.13358
 C395 C -0.06245 0.76400 0.14653
 C396 C -0.04195 0.74303 0.17389
 C397 C -0.02298 0.74288 0.16029
 N398 N -0.02396 0.75282 0.14051
 H399 H 0.02284 0.76981 0.15762
 H400 H 0.03318 0.71178 0.11871
 H401 H 0.06910 0.70306 0.13719
 H402 H 0.05882 0.76280 0.17651
 H403 H -0.04376 0.77073 0.11762
 H404 H -0.07747 0.77131 0.13923
 H405 H -0.03990 0.73549 0.18971
 H406 H -0.00758 0.73434 0.16541
 C407 C 0.00979 0.81585 0.08301
 C408 C -0.01029 0.69276 0.07221
 C409 C -0.06253 0.75345 0.16714
 C410 C 0.06698 0.73237 0.15821
 C411 C 0.51887 0.21008 0.60097
 H412 H 0.53463 0.21879 0.60293
 C413 C 0.51893 0.18861 0.59221
 H414 H 0.53490 0.18076 0.58739
 C415 C 0.47896 0.20946 0.60600
 H416 H 0.46352 0.21770 0.61160
 C417 C 0.47820 0.18801 0.59715
 H418 H 0.46204 0.17991 0.59560
 N419 N 0.49913 0.21984 0.60783
 C420 C 0.50456 0.29116 0.61097
 H421 H 0.50127 0.29367 0.62816
 C422 C 0.50705 0.30946 0.59755
 H423 H 0.50546 0.32612 0.60451
 C424 C 0.50917 0.26623 0.58095
 H425 H 0.50970 0.24928 0.57468
 C426 C 0.51176 0.28420 0.56680
 H427 H 0.51444 0.28108 0.54959
 Zn428 Zn 0.50078 0.24702 0.62227
 N429 N 0.50568 0.27011 0.60256
 C430 C 0.54025 0.26143 0.64295
 N431 N 0.52492 0.24482 0.64201
 C432 C 0.52780 0.22563 0.65362
 C433 C 0.54665 0.22272 0.66702
 C434 C 0.55904 0.25938 0.65629
 C435 C 0.45828 0.26782 0.62853
 C436 C 0.43714 0.27104 0.63821
 C437 C 0.44709 0.24233 0.66429
 C438 C 0.46818 0.23993 0.65433
 N439 N 0.47334 0.25258 0.63679
 H440 H 0.53837 0.27614 0.63306
 H441 H 0.51587 0.21226 0.65191
 H442 H 0.54900 0.20734 0.67606
 H443 H 0.57124 0.27267 0.65663
 H444 H 0.46231 0.27706 0.61403
 H445 H 0.42544 0.28338 0.63152
 H446 H 0.44299 0.23151 0.67776
 H447 H 0.48017 0.22751 0.66021
 C448 C 0.51073 0.30609 0.57519
 C449 C 0.49841 0.17732 0.59032
 C450 C 0.43125 0.25802 0.65617
 C451 C 0.56237 0.23986 0.66846
 C452 C 0.51018 0.78281 0.89756
 H453 H 0.52551 0.77259 0.89839
 C454 C 0.50948 0.80397 0.90711
 H455 H 0.52440 0.80991 0.91536
 C456 C 0.47275 0.78803 0.88427
 H457 H 0.45870 0.78197 0.87488
 C458 C 0.47123 0.80924 0.89376
 H459 H 0.45573 0.81910 0.89209
 N460 N 0.49204 0.77536 0.88632
 C461 C 0.49568 0.70388 0.88198
 H462 H 0.49072 0.70247 0.86512
 C463 C 0.49695 0.68483 0.89464
 H464 H 0.49315 0.66882 0.88729
 C465 C 0.50464 0.72673 0.91234
 H466 H 0.50709 0.74316 0.91922
 C467 C 0.50615 0.70792 0.92572
 H468 H 0.51021 0.70991 0.94279
 Zn469 Zn 0.49531 0.74799 0.87149
 N470 N 0.49977 0.72426 0.89083
 C471 C 0.52910 0.73043 0.84329
 N472 N 0.51995 0.74955 0.85205
 C473 C 0.52880 0.76989 0.84773
 C474 C 0.54842 0.77142 0.83522
 C475 C 0.54862 0.73120 0.83055
 C476 C 0.45022 0.73760 0.86874
 C477 C 0.42994 0.73231 0.85872
 C478 C 0.44883 0.73466 0.82376
 C479 C 0.46873 0.74006 0.83447
 N480 N 0.46888 0.74174 0.85651
 H481 H 0.52172 0.71447 0.84660
 H482 H 0.52089 0.78497 0.85426
 H483 H 0.55562 0.78766 0.83234
 H484 H 0.55623 0.71575 0.82441
 H485 H 0.45112 0.73873 0.88630
 H486 H 0.41497 0.73000 0.86863
 H487 H 0.44879 0.73361 0.80616
 H488 H 0.48398 0.74303 0.82522
 C489 C 0.50241 0.68668 0.91673
 C490 C 0.48985 0.81750 0.90518
 C491 C 0.42905 0.73111 0.83595
 C492 C 0.55874 0.75184 0.82686
 C493 C -0.23508 0.65835 0.95670
 H494 H -0.22209 0.64531 0.95700
 C495 C -0.23692 0.67241 0.93864
 H496 H -0.22527 0.66994 0.92513
 C497 C -0.26677 0.67656 0.97335
 H498 H -0.27854 0.67793 0.98684
 C499 C -0.26925 0.69093 0.95562
 H500 H -0.28276 0.70349 0.95580
 N501 N -0.25001 0.66055 0.97354
 C502 C -0.23263 0.66461 1.03483
 H503 H -0.21588 0.66007 1.02911
 C504 C -0.23495 0.67726 1.05398
 H505 H -0.21967 0.68145 1.06263
 C506 C -0.27239 0.66337 1.03101
 H507 H -0.28700 0.65816 1.02186
 C508 C -0.27554 0.67579 1.05015
 H509 H -0.29274 0.68027 1.05481
 Zn510 Zn -0.24909 0.64054 0.99749
 N511 N -0.25121 0.65780 1.02377
 C512 C -0.20116 0.63216 0.99721
 N513 N -0.22179 0.62232 0.99704
 C514 C -0.22329 0.59960 0.99677
 C515 C -0.20374 0.58595 0.99734
 C516 C -0.18117 0.61912 0.99822
 C517 C -0.28955 0.62333 0.97889
 C518 C -0.30963 0.61125 0.97886
 C519 C -0.29914 0.59596 1.01376
 C520 C -0.27945 0.60852 1.01325
 N521 N -0.27509 0.62204 0.99609
 H522 H -0.20017 0.65019 0.99647
 H523 H -0.23967 0.59192 0.99612
 H524 H -0.20532 0.56792 0.99723
 H525 H -0.16494 0.62724 0.99844
 H526 H -0.28583 0.63411 0.96534
 H527 H -0.32125 0.61324 0.96539
 H528 H -0.30210 0.58527 1.02761
 H529 H -0.26774 0.60777 1.02675
 C530 C -0.25669 0.68288 1.06231
 C531 C -0.25432 0.68887 0.93784
 C532 C -0.31488 0.59755 0.99663
 C533 C -0.18234 0.59569 0.99835
 C534 C -0.22902 0.34512 0.54029
 H535 H -0.21521 0.35509 0.53449
 C536 C -0.22752 0.33543 0.55978
 H537 H -0.21198 0.33733 0.56880
 C538 C -0.26421 0.32814 0.53262
 H539 H -0.27864 0.32566 0.52215
 C540 C -0.26349 0.31729 0.55428
 H541 H -0.27809 0.30786 0.55903
 N542 N -0.24861 0.34209 0.52692
 C543 C -0.25777 0.35382 0.45704
 H544 H -0.25868 0.37186 0.45718
 C545 C -0.26026 0.34234 0.43743
 H546 H -0.26322 0.35174 0.42265
 C547 C -0.25225 0.31970 0.47595
 H548 H -0.24899 0.31099 0.49103
 C549 C -0.25436 0.30748 0.45651
 H550 H -0.25304 0.28938 0.45675
 Zn551 Zn -0.25135 0.36027 0.50150
 N552 N -0.25418 0.34248 0.47588
 C553 C -0.20749 0.37038 0.48551
 N554 N -0.22478 0.37757 0.49872
 C555 C -0.22307 0.39657 0.51084
 C556 C -0.20329 0.40898 0.51019
 C557 C -0.18729 0.38221 0.48451
 C558 C -0.27789 0.39861 0.49106
 C559 C -0.29674 0.41318 0.49123
 C560 C -0.31368 0.39042 0.51887
 C561 C -0.29441 0.37635 0.51818
 N562 N -0.27718 0.38027 0.50403
 H563 H -0.20913 0.35509 0.47618
 H564 H -0.23700 0.40191 0.52127
 H565 H -0.20239 0.42406 0.51998
 H566 H -0.17347 0.37573 0.47451
 H567 H -0.26367 0.40210 0.48056
 H568 H -0.29604 0.42780 0.48100
 H569 H -0.32735 0.38571 0.52954
 H570 H -0.29364 0.36202 0.52873
 C571 C -0.25876 0.31888 0.43699
 C572 C -0.24642 0.32164 0.56826
 C573 C -0.31553 0.40909 0.50491
 C574 C -0.18483 0.40165 0.49721
 C575 C 0.27409 -0.15758 0.03611
 H576 H 0.28846 -0.14855 0.03009
 C577 C 0.27600 -0.16912 0.05459
 H578 H 0.29227 -0.16944 0.06264
 C579 C 0.23720 -0.17109 0.02928
 H580 H 0.22207 -0.17171 0.01944
 C581 C 0.23832 -0.18384 0.04992
 H582 H 0.22325 -0.19250 0.05478
 N583 N 0.25341 -0.15769 0.02390
 C584 C 0.24120 -0.14107 -0.04460
 H585 H 0.23862 -0.12318 -0.04336
 C586 C 0.23925 -0.15153 -0.06483
 H587 H 0.23514 -0.14142 -0.07891
 C588 C 0.25059 -0.17570 -0.02799
 H589 H 0.25526 -0.18500 -0.01359
 C590 C 0.24890 -0.18688 -0.04807
 H591 H 0.25189 -0.20481 -0.04887
 Zn592 Zn 0.25022 -0.13718 0.00016
 N593 N 0.24672 -0.15315 -0.02662
 C594 C 0.28990 -0.11987 -0.02005
 N595 N 0.27669 -0.11935 -0.00183
 C596 C 0.28177 -0.10586 0.01529
 C597 C 0.30099 -0.09258 0.01470
 C598 C 0.30899 -0.10644 -0.02155
 C599 C 0.20760 -0.12147 0.01902
 C600 C 0.18864 -0.10701 0.02080
 C601 C 0.20562 -0.08309 -0.00582
 C602 C 0.22414 -0.09802 -0.00709
 N603 N 0.22463 -0.11716 0.00473
 H604 H 0.28564 -0.13063 -0.03356
 H605 H 0.27103 -0.10568 0.02961
 H606 H 0.30494 -0.08270 0.02894
 H607 H 0.31876 -0.10681 -0.03649
 H608 H 0.20827 -0.13633 0.02884
 H609 H 0.17507 -0.11196 0.03148
 H610 H 0.20650 -0.06790 -0.01523
 H611 H 0.23828 -0.09423 -0.01760
 C612 C 0.24303 -0.17475 -0.06682
 C613 C 0.25649 -0.18202 0.06316
 C614 C 0.18693 -0.08758 0.00784
 C615 C 0.31493 -0.09253 -0.00399
 C616 C 0.24675 1.17592 0.47390
 H617 H 0.24610 1.18532 0.48900
 C618 C 0.24186 1.18669 0.45413
 H619 H 0.23750 1.20438 0.45427
 C620 C 0.25169 1.14118 0.45554
 H621 H 0.25510 1.12333 0.45627
 C622 C 0.24736 1.15124 0.43556
 H623 H 0.24824 1.14094 0.42102
 N624 N 0.25140 1.15350 0.47420
 C625 C 0.26987 1.16904 0.53047
 H626 H 0.28347 1.17140 0.51891
 C627 C 0.27032 1.17988 0.55082
 H628 H 0.28436 1.19050 0.55483
 C629 C 0.23589 1.15106 0.53998
 H630 H 0.22278 1.13939 0.53610
 C631 C 0.23562 1.16157 0.56029
 H632 H 0.22200 1.15809 0.57156
 Zn633 Zn 0.25474 1.13637 0.50002
 N634 N 0.25305 1.15456 0.52564
 C635 C 0.29837 1.12435 0.48335
 N636 N 0.28349 1.12061 0.49985
 C637 C 0.28917 1.10651 0.51641
 C638 C 0.31006 1.09477 0.51621
 C639 C 0.31926 1.11293 0.48245
 C640 C 0.20919 1.12613 0.49578
 C641 C 0.18967 1.11333 0.49520
 C642 C 0.21284 1.08043 0.50240
 C643 C 0.23202 1.09388 0.50263
 N644 N 0.22983 1.11639 0.49969
 H645 H 0.29418 1.13628 0.47080
 H646 H 0.27739 1.10419 0.52970
 H647 H 0.31402 1.08318 0.52921
 H648 H 0.33069 1.11613 0.46905
 H649 H 0.20786 1.14403 0.49332
 H650 H 0.17340 1.12158 0.49256
 H651 H 0.21485 1.06258 0.50495
 H652 H 0.24856 1.08631 0.50528
 C653 C 0.25335 1.17563 0.56628
 C654 C 0.24182 1.17422 0.43458
 C655 C 0.19126 1.09017 0.49873
 C656 C 0.32527 1.09763 0.49883
 C657 C 0.12358 0.45717 0.25729
 H658 H 0.10548 0.45716 0.26015
 C659 C 0.13608 0.43704 0.25812
 H660 H 0.12737 0.42166 0.26146
 C661 C 0.15657 0.47719 0.24863
 H662 H 0.16450 0.49285 0.24491
 C663 C 0.16972 0.45735 0.24915
 H664 H 0.18774 0.45804 0.24593
 N665 N 0.13383 0.47670 0.25229
 C666 C 0.12842 0.54460 0.26717
 H667 H 0.11710 0.54083 0.28043
 C668 C 0.14006 0.56473 0.26749
 H669 H 0.13754 0.57612 0.28111
 C670 C 0.14483 0.53481 0.23312
 H671 H 0.14647 0.52310 0.21966
 C672 C 0.15671 0.55492 0.23270
 H673 H 0.16775 0.55834 0.21906
 Zn674 Zn 0.11439 0.50272 0.25014
 N675 N 0.13118 0.52989 0.25031
 C676 C 0.10419 0.49916 0.29438
 N677 N 0.09440 0.50186 0.27453
 C678 C 0.07145 0.50208 0.27230
 C679 C 0.05742 0.49959 0.29055
 C680 C 0.09085 0.49650 0.31296
 C681 C 0.10080 0.48276 0.21088
 C682 C 0.09045 0.48131 0.19062
 C683 C 0.07364 0.51798 0.19655
 C684 C 0.08437 0.51863 0.21691
 N685 N 0.09788 0.50126 0.22355
 H686 H 0.12247 0.49876 0.29569
 H687 H 0.06398 0.50381 0.25634
 H688 H 0.03921 0.49952 0.28845
 H689 H 0.09906 0.49452 0.32859
 H690 H 0.11135 0.46896 0.21635
 H691 H 0.09267 0.46555 0.18209
 H692 H 0.06413 0.53278 0.19176
 H693 H 0.08240 0.53332 0.22720
 C694 C 0.15459 0.57012 0.25019
 C695 C 0.15944 0.43684 0.25372
 C696 C 0.07702 0.49932 0.18239
 C697 C 0.06712 0.49651 0.31122
 C698 C -0.15491 1.02461 0.25099
 H699 H -0.16324 1.00887 0.24857
 C700 C -0.16764 1.04470 0.25050
 H701 H -0.18571 1.04419 0.24757
 C702 C -0.12147 1.04454 0.25813
 H703 H -0.10340 1.04435 0.26106
 C704 C -0.13357 1.06493 0.25806
 H705 H -0.12462 1.08034 0.26066
 N706 N -0.13216 1.02491 0.25449
 C707 C -0.12835 0.95650 0.27149
 H708 H -0.11723 0.95979 0.28499
 C709 C -0.14008 0.93645 0.27094
 H710 H -0.13801 0.92478 0.28424
 C711 C -0.14348 0.96694 0.23732
 H712 H -0.14449 0.97883 0.22412
 C713 C -0.15547 0.94694 0.23605
 H714 H -0.16603 0.94378 0.22203
 Zn715 Zn -0.11340 0.99847 0.25587
 N716 N -0.13052 0.97155 0.25505
 C717 C -0.10980 1.00105 0.30102
 N718 N -0.09721 1.00090 0.28246
 C719 C -0.07457 1.00474 0.28301
 C720 C -0.06381 1.00912 0.30285
 C721 C -0.09969 1.00475 0.32116
 C722 C -0.09436 1.01333 0.21625
 C723 C -0.08081 1.01169 0.19761
 C724 C -0.06491 0.97693 0.21113
 C725 C -0.07872 0.97937 0.22962
 N726 N -0.09315 0.99729 0.23178
 H727 H -0.12786 0.99842 0.30013
 H728 H -0.06497 1.00522 0.26799
 H729 H -0.04597 1.01292 0.30275
 H730 H -0.11017 1.00407 0.33562
 H731 H -0.10636 1.02715 0.21794
 H732 H -0.08337 1.02433 0.18530
 H733 H -0.05337 0.96264 0.21036
 H734 H -0.07817 0.96675 0.24218
 C735 C -0.15406 0.93148 0.25316
 C736 C -0.15696 1.06523 0.25405
 C737 C -0.06577 0.99316 0.19448
 C738 C -0.07643 1.00935 0.32238
 C739 C 0.34096 0.52514 -0.25064
 H740 H 0.33315 0.50914 -0.25315
 C741 C 0.32752 0.54479 -0.25040
 H742 H 0.30940 0.54367 -0.25272
 C743 C 0.37393 0.54611 -0.24448
 H744 H 0.39211 0.54650 -0.24230
 C745 C 0.36113 0.56610 -0.24388
 H746 H 0.36965 0.58179 -0.24152
 N747 N 0.36380 0.52615 -0.24799
 C748 C 0.36957 0.45805 -0.22974
 H749 H 0.38059 0.46259 -0.21653
 C750 C 0.35951 0.43822 -0.22930
 H751 H 0.36322 0.42730 -0.21573
 C752 C 0.35452 0.46680 -0.26462
 H753 H 0.35306 0.47777 -0.27851
 C754 C 0.34314 0.44484 -0.26494
 H755 H 0.33263 0.44105 -0.27881
 Zn756 Zn 0.38326 0.50008 -0.24858
 N757 N 0.36660 0.47281 -0.24793
 C758 C 0.39058 0.50431 -0.20428
 N759 N 0.40194 0.50172 -0.22345
 C760 C 0.42502 0.50023 -0.22403
 C761 C 0.43746 0.50008 -0.20458
 C762 C 0.40225 0.50401 -0.18460
 C763 C 0.39698 0.51585 -0.28966
 C764 C 0.40667 0.51408 -0.31036
 C765 C 0.42474 0.47917 -0.29981
 C766 C 0.41459 0.48156 -0.27923
 N767 N 0.40069 0.49951 -0.27469
 H768 H 0.37228 0.50582 -0.20429
 H769 H 0.43376 0.49859 -0.23947
 H770 H 0.45573 0.49801 -0.20513
 H771 H 0.39280 0.50529 -0.16947
 H772 H 0.38568 0.52982 -0.28595
 H773 H 0.40296 0.52697 -0.32224
 H774 H 0.43495 0.46434 -0.30351
 H775 H 0.41697 0.46860 -0.26718
 C776 C 0.34505 0.43081 -0.24779
 C777 C 0.33760 0.56568 -0.24708
 C778 C 0.42024 0.49527 -0.31587
 C779 C 0.42593 0.50138 -0.18456
 C780 C 0.65020 -0.02090 -0.26374
 H781 H 0.65329 -0.00904 -0.27654
 C782 C 0.66192 -0.04036 -0.26351
 H783 H 0.67456 -0.04323 -0.27606
 C784 C 0.63212 -0.02858 -0.23009
 H785 H 0.62056 -0.02421 -0.21704
 C786 C 0.64461 -0.05034 -0.22915
 H787 H 0.64059 -0.06122 -0.21577
 N788 N 0.63405 -0.01546 -0.24686
 C789 C 0.62217 0.05632 -0.25800
 H790 H 0.60546 0.05575 -0.26513
 C791 C 0.63376 0.07653 -0.25760
 H792 H 0.62520 0.09120 -0.26410
 C793 C 0.65238 0.03775 -0.23995
 H794 H 0.65961 0.02253 -0.23318
 C795 C 0.66445 0.05767 -0.23887
 H796 H 0.68118 0.05691 -0.23177
 Zn797 Zn 0.61438 0.01060 -0.24984
 N798 N 0.63155 0.03744 -0.24924
 C799 C 0.59489 0.02794 -0.21119
 N800 N 0.59332 0.01108 -0.22603
 C801 C 0.57963 -0.00661 -0.22231
 C802 C 0.56857 -0.00879 -0.20220
 C803 C 0.58406 0.02650 -0.19103
 C804 C 0.61288 0.01280 -0.29508
 C805 C 0.60416 0.01136 -0.31608
 C806 C 0.56735 0.00421 -0.30071
 C807 C 0.57689 0.00564 -0.27983
 N808 N 0.59945 0.00938 -0.27742
 H809 H 0.60573 0.04190 -0.21435
 H810 H 0.57880 -0.01998 -0.23423
 H811 H 0.55917 -0.02377 -0.19890
 H812 H 0.58643 0.03965 -0.17909
 H813 H 0.63048 0.01681 -0.29286
 H814 H 0.61531 0.01390 -0.32985
 H815 H 0.54954 0.00061 -0.30242
 H816 H 0.56629 0.00347 -0.26565
 C817 C 0.65526 0.07776 -0.24766
 C818 C 0.65843 -0.05695 -0.24570
 C819 C 0.58121 0.00662 -0.31917
 C820 C 0.57158 0.00745 -0.18590
 C821 C 0.02706 0.24353 0.84250
 H822 H 0.01233 0.24788 0.83289
 C823 C 0.04791 0.23996 0.83234
 H824 H 0.04915 0.24147 0.81481
 C825 C 0.04351 0.23660 0.87710
 H826 H 0.04150 0.23558 0.89458
 C827 C 0.06473 0.23296 0.86762
 H828 H 0.07924 0.22945 0.87788
 N829 N 0.02543 0.24224 0.86450
 C830 C -0.03222 0.23113 0.84728
 H831 H -0.02407 0.21526 0.85077
 C832 C -0.05055 0.23184 0.83311
 H833 H -0.05669 0.21640 0.82622
 C834 C -0.03479 0.27047 0.85251
 H835 H -0.02843 0.28551 0.85990
 C836 C -0.05322 0.27195 0.83849
 H837 H -0.06120 0.28812 0.83544
 Zn838 Zn -0.00216 0.24848 0.87816
 N839 N -0.02522 0.25018 0.85720
 C840 C -0.01986 0.28354 0.90363
 N841 N -0.00079 0.27566 0.89344
 C842 C 0.01893 0.28697 0.89416
 C843 C 0.02012 0.30686 0.90595
 C844 C -0.01945 0.30338 0.91556
 C845 C -0.00305 0.20419 0.88973
 C846 C -0.00541 0.18579 0.90311
 C847 C -0.01596 0.21080 0.93276
 C848 C -0.01349 0.22881 0.91870
 N849 N -0.00742 0.22514 0.89755
 H850 H -0.03540 0.27433 0.90244
 H851 H 0.03379 0.28059 0.88569
 H852 H 0.03604 0.31550 0.90670
 H853 H -0.03482 0.30956 0.92343
 H854 H 0.00303 0.20180 0.87325
 H855 H -0.00146 0.16922 0.89671
 H856 H -0.02083 0.21380 0.94956
 H857 H -0.01611 0.24559 0.92487
 C858 C -0.06164 0.25236 0.82915
 C859 C 0.06711 0.23513 0.84502
 C860 C -0.01201 0.18903 0.92486
 C861 C 0.00077 0.31520 0.91687
 C862 C 0.46027 0.26134 0.14628
 H863 H 0.46377 0.27834 0.14170
 C864 C 0.44228 0.25725 0.16020
 H865 H 0.43185 0.27123 0.16594
 C866 C 0.46897 0.22244 0.14352
 H867 H 0.47941 0.20904 0.13667
 C868 C 0.45093 0.21755 0.15736
 H869 H 0.44752 0.20030 0.16129
 N870 N 0.47296 0.24403 0.13806
 C871 C 0.54158 0.25870 0.11910
 H872 H 0.53909 0.26395 0.10244
 C873 C 0.56289 0.26015 0.12858
 H874 H 0.57693 0.26609 0.11897
 C875 C 0.52613 0.24461 0.15186
 H876 H 0.51166 0.23885 0.16090
 C877 C 0.54712 0.24590 0.16203
 H878 H 0.54861 0.24119 0.17897
 Zn879 Zn 0.49521 0.25063 0.11750
 N880 N 0.52382 0.25088 0.13076
 C881 C 0.49924 0.29655 0.11664
 N882 N 0.48903 0.27920 0.10651
 C883 C 0.47464 0.28251 0.08953
 C884 C 0.47087 0.30403 0.08145
 C885 C 0.49615 0.31819 0.10899
 C886 C 0.51435 0.21879 0.08858
 C887 C 0.51390 0.20049 0.07454
 C888 C 0.47300 0.20383 0.07377
 C889 C 0.47425 0.22226 0.08774
 N890 N 0.49469 0.22899 0.09522
 H891 H 0.51001 0.29354 0.13056
 H892 H 0.46646 0.26847 0.08199
 H893 H 0.46010 0.30656 0.06740
 H894 H 0.50498 0.33182 0.11669
 H895 H 0.53040 0.22413 0.09483
 H896 H 0.52969 0.19213 0.06993
 H897 H 0.45657 0.19780 0.06898
 H898 H 0.45884 0.23040 0.09362
 C899 C 0.56583 0.25372 0.15033
 C900 C 0.43725 0.23514 0.16566
 C901 C 0.49301 0.19233 0.06764
 C902 C 0.48216 0.32195 0.09100
 C903 C -0.03723 0.75950 0.64095
 H904 H -0.02696 0.77428 0.64144
 C905 C -0.05738 0.75961 0.65073
 H906 H -0.06320 0.77502 0.65841
 C907 C -0.04138 0.72223 0.62755
 H908 H -0.03510 0.70793 0.61832
 C909 C -0.06367 0.72140 0.63834
 H910 H -0.07263 0.70584 0.63743
 N911 N -0.02944 0.74020 0.62896
 C912 C 0.04325 0.74482 0.62610
 H913 H 0.04594 0.74707 0.60882
 C914 C 0.06161 0.74467 0.64014
 H915 H 0.07849 0.74676 0.63359
 C916 C 0.01796 0.73895 0.65553
 H917 H 0.00088 0.73670 0.66139
 C918 C 0.03594 0.73862 0.67024
 H919 H 0.03263 0.73639 0.68743
 Zn920 Zn -0.00224 0.74342 0.61402
 N921 N 0.02192 0.74231 0.63396
 C922 C 0.01251 0.78681 0.60392
 N923 N -0.00386 0.77154 0.60045
 C924 C -0.02268 0.77674 0.58861
 C925 C -0.02519 0.79776 0.57909
 C926 C 0.01084 0.80784 0.59450
 C927 C 0.01924 0.70581 0.59501
 C928 C 0.02118 0.68734 0.58130
 C929 C -0.01369 0.69902 0.56380
 C930 C -0.01472 0.71762 0.57762
 N931 N 0.00134 0.72037 0.59319
 H932 H 0.02675 0.78301 0.61424
 H933 H -0.03606 0.76481 0.58703
 H934 H -0.04015 0.80172 0.56958
 H935 H 0.02405 0.81982 0.59735
 H936 H 0.03158 0.70778 0.60770
 H937 H 0.03535 0.67572 0.58332
 H938 H -0.02734 0.69629 0.55243
 H939 H -0.02905 0.72907 0.57671
 C940 C 0.05800 0.74186 0.66252
 C941 C -0.07177 0.73938 0.64964
 C942 C 0.00412 0.68331 0.56606
 C943 C -0.00811 0.81340 0.58185
 C944 C 0.52862 0.73888 0.34269
 H945 H 0.51405 0.74354 0.33299
 C946 C 0.54981 0.73655 0.33288
 H947 H 0.55143 0.73926 0.31553
 C948 C 0.54436 0.73006 0.37718
 H949 H 0.54196 0.72787 0.39451
 C950 C 0.56593 0.72759 0.36803
 H951 H 0.58027 0.72372 0.37840
 N952 N 0.52643 0.73610 0.36451
 C953 C 0.46859 0.72493 0.34577
 H954 H 0.47611 0.70884 0.34956
 C955 C 0.45082 0.72617 0.33096
 H956 H 0.44451 0.71089 0.32384
 C957 C 0.46697 0.76430 0.35093
 H958 H 0.47350 0.77914 0.35858
 C959 C 0.44913 0.76630 0.33626
 H960 H 0.44181 0.78270 0.33290
 Zn961 Zn 0.49820 0.74144 0.37757
 N962 N 0.47581 0.74376 0.35591
 C963 C 0.47888 0.77592 0.40299
 N964 N 0.49856 0.76816 0.39380
 C965 C 0.51815 0.77952 0.39576
 C966 C 0.51848 0.79950 0.40747
 C967 C 0.47842 0.79589 0.41480
 C968 C 0.49699 0.69662 0.38783
 C969 C 0.49344 0.67785 0.40048
 C970 C 0.48106 0.70213 0.43007
 C971 C 0.48476 0.72050 0.41676
 N972 N 0.49228 0.71739 0.39596
 H973 H 0.46348 0.76667 0.40087
 H974 H 0.53354 0.77322 0.38815
 H975 H 0.53427 0.80827 0.40902
 H976 H 0.46254 0.80211 0.42165
 H977 H 0.50400 0.69466 0.37163
 H978 H 0.49758 0.66142 0.39385
 H979 H 0.47495 0.70473 0.44656
 H980 H 0.48178 0.73713 0.42320
 C981 C 0.44051 0.74699 0.32654
 C982 C 0.56883 0.73138 0.34570
 C983 C 0.48528 0.68054 0.42182
 C984 C 0.49840 0.80796 0.41702
 Zr985 Zr 0.01980 -0.00918 1.03806
 O986 O 0.04151 0.00533 1.06132
 O987 O 0.01788 -0.04212 1.04923
 O988 O 0.00458 -0.00783 1.06942
 O989 O 0.06205 -0.01824 0.99956
 O990 O -0.03006 0.00870 1.06319
 O991 O 0.05336 -0.02256 1.03548
 O992 O -0.00563 -0.05847 1.02471
 O993 O -0.01417 -0.01689 1.03227
 O994 O 0.01921 -0.02686 1.00857
 O995 O 0.00223 0.02185 1.03692
 O996 O 0.03463 0.01204 1.01482
 Zr997 Zr -0.01895 0.01736 0.97659
 Zr998 Zr -0.03129 0.01401 1.02950
 Zr999 Zr 0.03221 -0.00548 0.98527
 Zr1000 Zr -0.01453 -0.03343 1.00223
 O1001 O 0.06010 0.01391 0.97570
 O1002 O -0.04515 -0.04537 1.01556
 O1003 O -0.00118 -0.01365 0.97728
 O1004 O -0.03345 -0.00357 1.00001
 O1005 O -0.01858 0.03544 1.00591
 O1006 O 0.01486 0.02512 0.98272
 C1007 C 0.00714 -0.05891 1.04163
 C1008 C 0.06704 -0.02442 1.01904
 C1009 C -0.01476 0.00039 1.07580
 O1010 O -0.05995 -0.00478 1.03794
 O1011 O -0.05999 0.02960 1.01559
 O1012 O -0.05196 0.03198 0.97936
 C1013 C -0.06506 0.03539 0.99602
 O1014 O 0.03943 0.04959 1.03674
 Zr1015 Zr 0.01528 0.04193 1.01236
 O1016 O -0.01836 0.05045 0.96621
 O1017 O -0.03930 0.04404 1.04661
 O1018 O 0.00097 0.06772 1.03230
 O1019 O 0.04422 0.05604 0.99769
 O1020 O 0.00309 0.06767 0.99186
 C1021 C -0.00959 0.06784 0.97483
 O1022 O -0.04113 0.00280 0.95378
 O1023 O 0.04130 -0.03587 0.96925
 O1024 O -0.00402 0.01532 0.94503
 O1025 O 0.03036 -0.00143 0.95147
 O1026 O 0.00009 -0.06073 0.98450
 O1027 O -0.03546 -0.04196 0.97547
 C1028 C 0.01544 0.00726 0.93867
 H1029 H 0.02821 -0.04103 1.00881
 H1030 H -0.04935 -0.00693 0.99635
 H1031 H 0.02156 0.03450 0.97123
 H1032 H 0.00336 0.03001 1.05093
 H1033 H -0.04478 -0.06189 1.01401
 H1034 H -0.06950 0.00490 1.04758
 H1035 H -0.05414 0.04196 1.05385
 H1036 H 0.00836 0.08187 1.02834
 H1037 H -0.00823 -0.07434 0.98854
 H1038 H 0.05613 -0.03355 0.96208
 H1039 H 0.06957 0.00438 0.96583
 H1040 H 0.04293 0.07249 0.99975
 H1041 H -0.04131 -0.05722 0.97754
 H1042 H -0.04562 0.01474 0.94339
 H1043 H 0.04594 -0.00665 1.07169
 H1044 H 0.04238 0.06584 1.03661
 Zr1045 Zr 0.51399 0.47986 0.52964
 O1046 O 0.53326 0.49444 0.55481
 O1047 O 0.51493 0.44607 0.53819
 O1048 O 0.49741 0.47792 0.56030
 O1049 O 0.55837 0.47608 0.49270
 O1050 O 0.46157 0.49066 0.55308
 O1051 O 0.54848 0.46938 0.52795
 O1052 O 0.49362 0.42938 0.51208
 O1053 O 0.48112 0.46988 0.52192
 O1054 O 0.51601 0.46404 0.49919
 O1055 O 0.49412 0.50951 0.52958
 O1056 O 0.52814 0.50352 0.50838
 Zr1057 Zr 0.47598 0.50732 0.46820
 Zr1058 Zr 0.46179 0.49959 0.52015
 Zr1059 Zr 0.52833 0.48770 0.47781
 Zr1060 Zr 0.48326 0.45528 0.49101
 O1061 O 0.55486 0.50978 0.47060
 O1062 O 0.45335 0.44034 0.50269
 O1063 O 0.49604 0.47763 0.46794
 O1064 O 0.46218 0.48385 0.48962
 O1065 O 0.47378 0.52346 0.49851
 O1066 O 0.50879 0.51708 0.47622
 C1067 C 0.50612 0.42885 0.52921
 C1068 C 0.56289 0.46920 0.51207
 C1069 C 0.47687 0.48306 0.56611
 O1070 O 0.43376 0.47874 0.52526
 O1071 O 0.43305 0.51495 0.50626
 O1072 O 0.44221 0.52013 0.47059
 C1073 C 0.42848 0.52200 0.48699
 O1074 O 0.52875 0.53991 0.53287
 Zr1075 Zr 0.50666 0.53202 0.50681
 O1076 O 0.47512 0.54099 0.45936
 O1077 O 0.45121 0.52732 0.53958
 O1078 O 0.48927 0.55550 0.52722
 O1079 O 0.53516 0.54903 0.49460
 O1080 O 0.49393 0.55804 0.48700
 C1081 C 0.48242 0.55840 0.46923
 O1082 O 0.45535 0.49289 0.44398
 O1083 O 0.54054 0.45910 0.46053
 O1084 O 0.49199 0.50729 0.43713
 O1085 O 0.52748 0.49337 0.44422
 O1086 O 0.50047 0.43037 0.47209
 O1087 O 0.46397 0.44689 0.46309
 C1088 C 0.51223 0.50108 0.43120
 H1089 H 0.52612 0.45061 0.49891
 H1090 H 0.44674 0.47971 0.48506
 H1091 H 0.51527 0.52752 0.46552
 H1092 H 0.49389 0.51670 0.54415
 H1093 H 0.45506 0.42397 0.50027
 H1094 H 0.42331 0.48693 0.53533
 H1095 H 0.43623 0.52370 0.54585
 H1096 H 0.49573 0.57040 0.52445
 H1097 H 0.49317 0.41589 0.47500
 H1098 H 0.55542 0.46297 0.45420
 H1099 H 0.56547 0.50158 0.46070
 H1100 H 0.53261 0.56521 0.49762
 H1101 H 0.45906 0.43119 0.46422
 H1102 H 0.45057 0.50515 0.43406
 H1103 H 0.53823 0.48215 0.56461
 H1104 H 0.53027 0.55636 0.53391
 Zr1105 Zr 0.49194 1.01495 0.52381
 O1106 O 0.46870 1.00484 0.54801
 O1107 O 0.49821 1.04801 0.53331
 O1108 O 0.50695 1.01388 0.55512
 O1109 O 0.45122 1.02706 0.48497
 O1110 O 0.53925 0.99298 0.54975
 O1111 O 0.45988 1.03141 0.52085
 O1112 O 0.52533 1.05908 0.50941
 O1113 O 0.52679 1.01747 0.51801
 O1114 O 0.49542 1.03109 0.49391
 O1115 O 0.50482 0.98182 0.52384
 O1116 O 0.47455 0.99508 0.50102
 Zr1117 Zr 0.52751 0.98034 0.46355
 Zr1118 Zr 0.53928 0.98450 0.51650
 Zr1119 Zr 0.47984 1.01081 0.47107
 Zr1120 Zr 0.53002 1.03233 0.48754
 O1121 O 0.45014 0.99483 0.46048
 O1122 O 0.56223 1.04031 0.50029
 O1123 O 0.51434 1.01350 0.46322
 O1124 O 0.54444 1.00011 0.48651
 O1125 O 0.52406 0.96386 0.49338
 O1126 O 0.49265 0.97805 0.46947
 C1127 C 0.51211 1.06240 0.52582
 C1128 C 0.44651 1.03398 0.50440
 C1129 C 0.52547 1.00444 0.56195
 O1130 O 0.57072 0.99888 0.52429
 O1131 O 0.56575 0.96460 0.50357
 O1132 O 0.55854 0.96183 0.46724
 C1133 C 0.57078 0.95769 0.48425
 O1134 O 0.46449 0.95928 0.52440
 Zr1135 Zr 0.48935 0.96274 0.49958
 O1136 O 0.52148 0.94754 0.45367
 O1137 O 0.54210 0.95489 0.53512
 O1138 O 0.50018 0.93587 0.51969
 O1139 O 0.45819 0.95302 0.48568
 O1140 O 0.49661 0.93501 0.47908
 C1141 C 0.50921 0.93231 0.46205
 O1142 O 0.55221 0.98995 0.44053
 O1143 O 0.47468 1.04188 0.45521
 O1144 O 0.51377 0.98403 0.43175
 O1145 O 0.48278 1.00700 0.43727
 O1146 O 0.51931 1.06052 0.46911
 O1147 O 0.55212 1.03648 0.46052
 C1148 C 0.49666 0.99589 0.42493
 H1149 H 0.48834 1.04627 0.49380
 H1150 H 0.56077 1.00107 0.48294
 H1151 H 0.48476 0.96954 0.45800
 H1152 H 0.50249 0.97475 0.53819
 H1153 H 0.56445 1.05652 0.49796
 H1154 H 0.57849 0.98858 0.53457
 H1155 H 0.55707 0.95512 0.54239
 H1156 H 0.49084 0.92279 0.51603
 H1157 H 0.52943 1.07300 0.47280
 H1158 H 0.45983 1.04125 0.44778
 H1159 H 0.44228 1.00533 0.45047
 H1160 H 0.45672 0.93673 0.48813
 H1161 H 0.55971 1.05104 0.46181
 H1162 H 0.55479 0.97703 0.43053
 H1163 H 0.46586 1.01788 0.55780
 H1164 H 0.45949 0.94357 0.52479
 Zr1165 Zr -0.01459 0.51783 1.02839
 O1166 O -0.03690 0.50482 1.05198
 O1167 O -0.01151 0.55089 1.03889
 O1168 O 0.00060 0.51730 1.05976
 O1169 O -0.05634 0.52713 0.98978
 O1170 O 0.03476 0.49994 1.05332
 O1171 O -0.04755 0.53246 1.02557
 O1172 O 0.01282 0.56585 1.01422
 O1173 O 0.01970 0.52397 1.02242
 O1174 O -0.01299 0.53470 0.99868
 O1175 O 0.00159 0.48612 1.02772
 O1176 O -0.03017 0.49675 1.00538
 Zr1177 Zr 0.02362 0.48780 0.96727
 Zr1178 Zr 0.03542 0.49235 1.02005
 Zr1179 Zr -0.02666 0.51334 0.97560
 Zr1180 Zr 0.02108 0.53968 0.99223
 O1181 O -0.05497 0.49482 0.96553
 O1182 O 0.05199 0.55062 1.00569
 O1183 O 0.00724 0.51964 0.96763
 O1184 O 0.03867 0.50893 0.99035
 O1185 O 0.02209 0.47062 0.99685
 O1186 O -0.01069 0.48199 0.97344
 C1187 C -0.00016 0.56712 1.03111
 C1188 C -0.06113 0.53413 1.00916
 C1189 C 0.02001 0.50931 1.06606
 O1190 O 0.06525 0.50970 1.02782
 O1191 O 0.06352 0.47518 1.00676
 O1192 O 0.05602 0.47171 0.97056
 C1193 C 0.06876 0.46855 0.98742
 O1194 O -0.03627 0.45975 1.02829
 Zr1195 Zr -0.01219 0.46602 1.00335
 O1196 O 0.02071 0.45462 0.95682
 O1197 O 0.04155 0.46279 1.03813
 O1198 O 0.00141 0.43995 1.02296
 O1199 O -0.04226 0.45344 0.98949
 O1200 O -0.00231 0.43948 0.98245
 C1201 C 0.01014 0.43817 0.96521
 O1202 O 0.04711 0.50025 0.94445
 O1203 O -0.03461 0.54386 0.95973
 O1204 O 0.00943 0.49057 0.93561
 O1205 O -0.02405 0.50940 0.94179
 O1206 O 0.00770 0.56676 0.97377
 O1207 O 0.04288 0.54675 0.96563
 C1208 C -0.00918 0.50013 0.92908
 H1209 H -0.02147 0.54918 0.99871
 H1210 H 0.05476 0.51148 0.98669
 H1211 H -0.01783 0.47287 0.96195
 H1212 H 0.00016 0.47853 1.04192
 H1213 H 0.05236 0.56710 1.00400
 H1214 H 0.07408 0.50008 1.03795
 H1215 H 0.05646 0.46438 1.04528
 H1216 H -0.00661 0.42606 1.01917
 H1217 H 0.01625 0.58027 0.97775
 H1218 H -0.04943 0.54197 0.95248
 H1219 H -0.06387 0.50458 0.95558
 H1220 H -0.04202 0.43701 0.99167
 H1221 H 0.04914 0.56188 0.96754
 H1222 H 0.05096 0.48779 0.93423
 H1223 H -0.04095 0.51727 1.06212
 H1224 H -0.03973 0.44361 1.02841
 Zr1225 Zr -0.01719 0.47412 0.46743
 O1226 O -0.03944 0.48589 0.44286
 O1227 O -0.01270 0.44041 0.45871
 O1228 O -0.00143 0.47328 0.43631
 O1229 O -0.05891 0.46623 0.50611
 O1230 O 0.03264 0.48968 0.44225
 O1231 O -0.04996 0.46036 0.47038
 O1232 O 0.01388 0.42754 0.48276
 O1233 O 0.01730 0.46842 0.47396
 O1234 O -0.01527 0.45854 0.49780
 O1235 O -0.00231 0.50581 0.46672
 O1236 O -0.03407 0.49621 0.48936
 Zr1237 Zr 0.01846 0.50680 0.52745
 Zr1238 Zr 0.03171 0.50006 0.47495
 Zr1239 Zr -0.03032 0.48092 0.51983
 Zr1240 Zr 0.01897 0.45406 0.50476
 O1241 O -0.05990 0.49958 0.52861
 O1242 O 0.05123 0.44300 0.49315
 O1243 O 0.00365 0.47499 0.52844
 O1244 O 0.03510 0.48487 0.50542
 O1245 O 0.01683 0.52266 0.49713
 O1246 O -0.01591 0.51239 0.52064
 C1247 C 0.00068 0.42514 0.46633
 C1248 C -0.06353 0.45906 0.48689
 C1249 C 0.01822 0.47988 0.43004
 O1250 O 0.06287 0.48288 0.46887
 O1251 O 0.05831 0.51867 0.48785
 O1252 O 0.05001 0.52284 0.52395
 C1253 C 0.06274 0.52593 0.50710
 O1254 O -0.04154 0.53175 0.46474
 Zr1255 Zr -0.01748 0.52701 0.49005
 O1256 O 0.01383 0.54034 0.53633
 O1257 O 0.03646 0.52834 0.45499
 O1258 O -0.00477 0.55201 0.46920
 O1259 O -0.04818 0.54052 0.50317
 O1260 O -0.00886 0.55465 0.50960
 C1261 C 0.00312 0.55653 0.52696
 O1262 O 0.04201 0.49543 0.55106
 O1263 O -0.03678 0.45118 0.53714
 O1264 O 0.00373 0.50569 0.55907
 O1265 O -0.02902 0.48705 0.55339
 O1266 O 0.00628 0.42703 0.52304
 O1267 O 0.03964 0.44837 0.53253
 C1268 C -0.01489 0.49700 0.56582
 H1269 H -0.02303 0.44402 0.49817
 H1270 H 0.05122 0.48261 0.50943
 H1271 H -0.02369 0.52208 0.53159
 H1272 H -0.00379 0.51263 0.45212
 H1273 H 0.05250 0.42665 0.49567
 H1274 H 0.07146 0.49207 0.45845
 H1275 H 0.05167 0.52651 0.44822
 H1276 H -0.01355 0.56603 0.47219
 H1277 H 0.01593 0.41366 0.51966
 H1278 H -0.05184 0.45325 0.54417
 H1279 H -0.06855 0.49023 0.53886
 H1280 H -0.04859 0.55677 0.49999
 H1281 H 0.04661 0.43317 0.53164
 H1282 H 0.04507 0.50832 0.56081
 H1283 H -0.04272 0.47294 0.43326
 H1284 H -0.04567 0.54786 0.46367
 Zr1285 Zr 0.48230 -0.01874 -0.03054
 O1286 O 0.46010 -0.00821 -0.05566
 O1287 O 0.48834 -0.05246 -0.03878
 O1288 O 0.49849 -0.01881 -0.06154
 O1289 O 0.43893 -0.02591 0.00683
 O1290 O 0.53150 -0.00093 -0.05495
 O1291 O 0.45018 -0.03377 -0.02805
 O1292 O 0.51262 -0.06495 -0.01253
 O1293 O 0.51664 -0.02373 -0.02301
 O1294 O 0.48340 -0.03363 0.00020
 O1295 O 0.49636 0.01333 -0.03113
 O1296 O 0.46425 0.00342 -0.00942
 Zr1297 Zr 0.51533 0.01584 0.02988
 Zr1298 Zr 0.53022 0.00831 -0.02202
 Zr1299 Zr 0.46718 -0.01117 0.02146
 Zr1300 Zr 0.51743 -0.03739 0.00820
 O1301 O 0.43744 0.00745 0.02976
 O1302 O 0.54989 -0.04840 -0.00291
 O1303 O 0.50104 -0.01623 0.03098
 O1304 O 0.53294 -0.00629 0.00875
 O1305 O 0.51429 0.03111 -0.00068
 O1306 O 0.48103 0.02061 0.02228
 C1307 C 0.50064 -0.06779 -0.02972
 C1308 C 0.43570 -0.03429 -0.01224
 C1309 C 0.51766 -0.01085 -0.06771
 O1310 O 0.56125 -0.00914 -0.02794
 O1311 O 0.55688 0.02634 -0.00850
 O1312 O 0.54678 0.03221 0.02698
 C1313 C 0.56047 0.03424 0.01067
 O1314 O 0.45665 0.03848 -0.03458
 Zr1315 Zr 0.48006 0.03463 -0.00858
 O1316 O 0.51021 0.04960 0.03784
 O1317 O 0.53558 0.03701 -0.04124
 O1318 O 0.49262 0.05963 -0.02953
 O1319 O 0.44870 0.04748 0.00367
 O1320 O 0.48754 0.06287 0.01066
 C1321 C 0.49940 0.06544 0.02802
 O1322 O 0.53829 0.00540 0.05440
 O1323 O 0.46009 -0.04096 0.03846
 O1324 O 0.49977 0.01494 0.06102
 O1325 O 0.46814 -0.00557 0.05523
 O1326 O 0.50475 -0.06373 0.02744
 O1327 O 0.53788 -0.04204 0.03630
 C1328 C 0.48178 0.00506 0.06767
 H1329 H 0.47589 -0.04827 0.00065
 H1330 H 0.54896 -0.00831 0.01321
 H1331 H 0.47287 0.03033 0.03297
 H1332 H 0.49509 0.02008 -0.04576
 H1333 H 0.55132 -0.06466 0.00003
 H1334 H 0.57006 0.00007 -0.03818
 H1335 H 0.55087 0.03521 -0.04784
 H1336 H 0.48340 0.07347 -0.02698
 H1337 H 0.51459 -0.07714 0.02481
 H1338 H 0.44486 -0.03884 0.04513
 H1339 H 0.42865 -0.00192 0.03985
 H1340 H 0.44798 0.06370 0.00038
 H1341 H 0.54521 -0.05711 0.03577
 H1342 H 0.54086 0.01856 0.06395
 H1343 H 0.45751 -0.02141 -0.06514
 H1344 H 0.45191 0.05443 -0.03576
 Zr1345 Zr 0.52249 0.51481 -0.03199
 O1346 O 0.54587 0.50160 -0.05520
 O1347 O 0.51756 0.54746 -0.04309
 O1348 O 0.50768 0.51295 -0.06345
 O1349 O 0.56202 0.52800 0.00734
 O1350 O 0.47522 0.49391 -0.05741
 O1351 O 0.55470 0.52976 -0.02906
 O1352 O 0.49077 0.56231 -0.02002
 O1353 O 0.48757 0.51969 -0.02698
 O1354 O 0.51867 0.53295 -0.00289
 O1355 O 0.50902 0.48254 -0.03076
 O1356 O 0.53927 0.49564 -0.00793
 Zr1357 Zr 0.48549 0.48599 0.02907
 Zr1358 Zr 0.47447 0.48755 -0.02395
 Zr1359 Zr 0.53344 0.51335 0.02125
 Zr1360 Zr 0.48405 0.53678 0.00257
 O1361 O 0.56317 0.49676 0.03250
 O1362 O 0.45271 0.54569 -0.01215
 O1363 O 0.49887 0.51850 0.02817
 O1364 O 0.46916 0.50539 0.00509
 O1365 O 0.48927 0.46755 0.00013
 O1366 O 0.52036 0.48142 0.02386
 C1367 C 0.50451 0.56352 -0.03630
 C1368 C 0.56730 0.53336 -0.01226
 C1369 C 0.48916 0.50393 -0.06997
 O1370 O 0.44332 0.50307 -0.03288
 O1371 O 0.44745 0.46985 -0.01048
 O1372 O 0.45459 0.46883 0.02593
 C1373 C 0.44240 0.46426 0.00913
 O1374 O 0.54909 0.45825 -0.03000
 Zr1375 Zr 0.52409 0.46428 -0.00553
 O1376 O 0.49050 0.45313 0.03996
 O1377 O 0.47151 0.45697 -0.04118
 O1378 O 0.51319 0.43665 -0.02430
 O1379 O 0.55511 0.45389 0.00897
 O1380 O 0.51683 0.43840 0.01625
 C1381 C 0.50338 0.43713 0.03269
 O1382 O 0.46066 0.49857 0.05121
 O1383 O 0.53800 0.54484 0.03643
 O1384 O 0.49872 0.49012 0.06085
 O1385 O 0.53033 0.51062 0.05516
 O1386 O 0.49446 0.56516 0.02053
 O1387 O 0.46078 0.54415 0.02826
 C1388 C 0.51615 0.50079 0.06765
 H1389 H 0.52597 0.54771 -0.00318
 H1390 H 0.45280 0.50744 0.00836
 H1391 H 0.52801 0.47312 0.03575
 H1392 H 0.51144 0.47447 -0.04473
 H1393 H 0.45086 0.56219 -0.01106
 H1394 H 0.43563 0.49258 -0.04284
 H1395 H 0.45666 0.45757 -0.04867
 H1396 H 0.52253 0.42342 -0.02002
 H1397 H 0.48493 0.57812 0.01586
 H1398 H 0.55274 0.54400 0.04410
 H1399 H 0.57084 0.50737 0.04234
 H1400 H 0.55665 0.43744 0.00701
 H1401 H 0.45330 0.55889 0.02565
 H1402 H 0.45757 0.48645 0.06173
 H1403 H 0.54918 0.51383 -0.06551
 H1404 H 0.55384 0.44225 -0.02985
 Zr1405 Zr 0.02354 1.01810 0.47303
 O1406 O 0.04656 1.00896 0.44780
 O1407 O 0.01726 1.05193 0.46628
 O1408 O 0.00833 1.01907 0.44180
 O1409 O 0.06538 1.02527 0.51182
 O1410 O -0.02498 1.00099 0.44676
 O1411 O 0.05549 1.03312 0.47678
 O1412 O -0.00962 1.06251 0.49133
 O1413 O -0.01119 1.02181 0.47979
 O1414 O 0.02080 1.03214 0.50424
 O1415 O 0.01037 0.98577 0.47049
 O1416 O 0.04153 0.99600 0.49370
 Zr1417 Zr -0.01053 0.98053 0.53078
 Zr1418 Zr -0.02395 0.98943 0.47894
 Zr1419 Zr 0.03688 1.00955 0.52505
 Zr1420 Zr -0.01364 1.03450 0.51142
 O1421 O 0.06662 0.99149 0.53402
 O1422 O -0.04626 1.04464 0.50034
 O1423 O 0.00253 1.01306 0.53368
 O1424 O -0.02813 1.00288 0.51025
 O1425 O -0.00788 0.96638 0.49960
 O1426 O 0.02417 0.97727 0.52398
 C1427 C 0.00337 1.06628 0.47497
 C1428 C 0.06939 1.03366 0.49296
 C1429 C -0.01081 1.01171 0.43504
 O1430 O -0.05560 1.00572 0.47337
 O1431 O -0.05043 0.96995 0.49094
 O1432 O -0.04128 0.96336 0.52639
 C1433 C -0.05439 0.96142 0.50973
 O1434 O 0.05085 0.96244 0.46673
 Zr1435 Zr 0.02674 0.96438 0.49250
 O1436 O -0.00446 0.94654 0.53720
 O1437 O -0.02732 0.96153 0.45791
 O1438 O 0.01571 0.93946 0.47046
 O1439 O 0.05828 0.95238 0.50469
 O1440 O 0.02037 0.93541 0.51050
 C1441 C 0.00787 0.93170 0.52721
 O1442 O -0.03473 0.98919 0.55512
 O1443 O 0.04255 1.03922 0.54308
 O1444 O 0.00367 0.98108 0.56238
 O1445 O 0.03422 1.00357 0.55863
 O1446 O -0.00236 1.06091 0.53161
 O1447 O -0.03484 1.03775 0.53937
 C1448 C 0.02055 0.99194 0.57010
 H1449 H 0.02788 1.04697 0.50538
 H1450 H -0.04432 1.00424 0.51442
 H1451 H 0.03226 0.96752 0.53451
 H1452 H 0.01230 0.97966 0.45556
 H1453 H -0.04835 1.06077 0.50388
 H1454 H -0.06366 0.99670 0.46236
 H1455 H -0.04245 0.96305 0.45106
 H1456 H 0.02554 0.92598 0.47251
 H1457 H -0.01250 1.07407 0.52907
 H1458 H 0.05746 1.03729 0.55028
 H1459 H 0.07464 1.00093 0.54470
 H1460 H 0.05996 0.93641 0.50040
 H1461 H -0.04249 1.05267 0.53940
 H1462 H -0.03712 0.97562 0.56401
 H1463 H 0.04921 1.02258 0.43904
 H1464 H 0.05616 0.94671 0.46478
 Zr1465 Zr 0.72755 0.26625 0.22128
 O1466 O 0.73700 0.28994 0.19758
 O1467 O 0.69445 0.25932 0.21139
 O1468 O 0.73024 0.25229 0.18946
 O1469 O 0.71426 0.30560 0.26144
 O1470 O 0.75299 0.22125 0.19411
 O1471 O 0.71074 0.29784 0.22523
 O1472 O 0.68372 0.23165 0.23437
 O1473 O 0.72572 0.23165 0.22626
 O1474 O 0.71107 0.26215 0.25116
 O1475 O 0.76131 0.25411 0.22096
 O1476 O 0.74706 0.28353 0.24446
 Zr1477 Zr 0.76315 0.23111 0.28055
 Zr1478 Zr 0.75934 0.21983 0.22759
 Zr1479 Zr 0.73125 0.27748 0.27444
 Zr1480 Zr 0.71045 0.22787 0.25669
 O1481 O 0.74638 0.30727 0.28546
 O1482 O 0.70326 0.19577 0.24382
 O1483 O 0.72922 0.24325 0.28140
 O1484 O 0.74336 0.21427 0.25748
 O1485 O 0.77977 0.23523 0.25072
 O1486 O 0.76475 0.26563 0.27540
 C1487 C 0.68033 0.24476 0.21812
 C1488 C 0.70776 0.31068 0.24208
 C1489 C 0.74162 0.23507 0.18225
 O1490 O 0.74447 0.18942 0.21804
 O1491 O 0.77856 0.19284 0.24015
 O1492 O 0.78189 0.20063 0.27638
 C1493 C 0.78556 0.18811 0.25944
 O1494 O 0.78220 0.29501 0.22117
 Zr1495 Zr 0.78003 0.26970 0.24522
 O1496 O 0.79692 0.23675 0.28918
 O1497 O 0.79033 0.21712 0.21022
 O1498 O 0.80740 0.26064 0.22423
 O1499 O 0.78935 0.30024 0.26016
 O1500 O 0.80850 0.26252 0.26451
 C1501 C 0.81199 0.24923 0.28057
 O1502 O 0.75372 0.20674 0.30358
 O1503 O 0.69974 0.28108 0.29081
 O1504 O 0.76001 0.24449 0.31252
 O1505 O 0.73605 0.27460 0.30815
 O1506 O 0.68135 0.23796 0.27494
 O1507 O 0.70620 0.20598 0.28349
 C1508 C 0.74808 0.26124 0.32000
 H1509 H 0.69557 0.26882 0.25134
 H1510 H 0.74250 0.19812 0.26080
 H1511 H 0.77339 0.27341 0.28686
 H1512 H 0.76873 0.25692 0.20679
 H1513 H 0.68687 0.19325 0.24603
 H1514 H 0.75526 0.18183 0.20787
 H1515 H 0.79028 0.20262 0.20229
 H1516 H 0.82019 0.27049 0.22776
 H1517 H 0.66895 0.22783 0.27090
 H1518 H 0.69988 0.29565 0.29860
 H1519 H 0.73556 0.31453 0.29583
 H1520 H 0.80571 0.30225 0.25726
 H1521 H 0.69149 0.19844 0.28222
 H1522 H 0.76693 0.20413 0.31328
 H1523 H 0.72372 0.29252 0.18797
 H1524 H 0.79780 0.30078 0.22079
 Zr1525 Zr 0.76752 0.73974 0.72283
 O1526 O 0.75594 0.71663 0.69931
 O1527 O 0.80071 0.74480 0.71202
 O1528 O 0.76481 0.75402 0.69125
 O1529 O 0.78050 0.70004 0.76212
 O1530 O 0.74404 0.78611 0.69735
 O1531 O 0.78317 0.70753 0.72584
 O1532 O 0.81377 0.77146 0.73521
 O1533 O 0.77112 0.77420 0.72807
 O1534 O 0.78514 0.74323 0.75213
 O1535 O 0.73432 0.75330 0.72399
 O1536 O 0.74806 0.72341 0.74668
 Zr1537 Zr 0.73557 0.77660 0.78393
 Zr1538 Zr 0.73808 0.78736 0.73089
 Zr1539 Zr 0.76518 0.72884 0.77604
 Zr1540 Zr 0.78755 0.77741 0.75791
 O1541 O 0.74880 0.70005 0.78761
 O1542 O 0.79582 0.80869 0.74415
 O1543 O 0.76895 0.76295 0.78318
 O1544 O 0.75528 0.79242 0.76015
 O1545 O 0.71774 0.77307 0.75474
 O1546 O 0.73230 0.74216 0.77857
 C1547 C 0.81606 0.75806 0.71884
 C1548 C 0.78632 0.69471 0.74250
 C1549 C 0.75439 0.77201 0.68474
 O1550 O 0.75347 0.81752 0.72155
 O1551 O 0.71975 0.81465 0.74418
 O1552 O 0.71809 0.80796 0.78061
 C1553 C 0.71385 0.82013 0.76369
 O1554 O 0.71137 0.71345 0.72491
 Zr1555 Zr 0.71577 0.73869 0.74897
 O1556 O 0.70207 0.77210 0.79434
 O1557 O 0.70695 0.79095 0.71414
 O1558 O 0.68811 0.74893 0.72916
 O1559 O 0.70553 0.70872 0.76411
 O1560 O 0.68842 0.74738 0.76950
 C1561 C 0.68612 0.76043 0.78613
 O1562 O 0.74681 0.80068 0.80666
 O1563 O 0.79713 0.72342 0.79092
 O1564 O 0.73974 0.76319 0.81564
 O1565 O 0.76271 0.73240 0.80993
 O1566 O 0.81637 0.76636 0.77571
 O1567 O 0.79372 0.79980 0.78415
 C1568 C 0.75179 0.74630 0.82233
 H1569 H 0.80031 0.73584 0.75180
 H1570 H 0.75691 0.80854 0.76346
 H1571 H 0.72381 0.73480 0.79038
 H1572 H 0.72637 0.75089 0.71004
 H1573 H 0.81240 0.81044 0.74560
 H1574 H 0.74273 0.82538 0.71169
 H1575 H 0.70723 0.80552 0.70652
 H1576 H 0.67493 0.73982 0.73324
 H1577 H 0.82927 0.77566 0.77125
 H1578 H 0.79650 0.70891 0.79860
 H1579 H 0.75963 0.69227 0.79743
 H1580 H 0.68895 0.70757 0.76202
 H1581 H 0.80865 0.80675 0.78208
 H1582 H 0.73409 0.80379 0.81693
 H1583 H 0.76875 0.71337 0.68917
 H1584 H 0.69549 0.70841 0.72521
 Zr1585 Zr 0.23275 0.23378 0.78200
 O1586 O 0.24396 0.21169 0.80675
 O1587 O 0.19870 0.23908 0.79053
 O1588 O 0.23257 0.24936 0.81321
 O1589 O 0.22481 0.19192 0.74366
 O1590 O 0.25110 0.28191 0.80733
 O1591 O 0.21826 0.20165 0.77912
 O1592 O 0.18570 0.26406 0.76535
 O1593 O 0.22725 0.26781 0.77512
 O1594 O 0.21734 0.23527 0.75141
 O1595 O 0.26498 0.24816 0.78271
 O1596 O 0.25520 0.21661 0.76047
 Zr1597 Zr 0.26668 0.26800 0.72187
 Zr1598 Zr 0.25947 0.28170 0.77416
 Zr1599 Zr 0.24012 0.21993 0.72977
 Zr1600 Zr 0.21306 0.26899 0.74404
 O1601 O 0.25897 0.19046 0.72174
 O1602 O 0.20175 0.30093 0.75540
 O1603 O 0.23441 0.25343 0.72075
 O1604 O 0.24431 0.28474 0.74354
 O1605 O 0.28242 0.26662 0.75237
 O1606 O 0.27208 0.23408 0.72907
 C1607 C 0.18314 0.25171 0.78221
 C1608 C 0.21712 0.18788 0.76285
 C1609 C 0.24120 0.26789 0.81979
 O1610 O 0.24133 0.31189 0.78095
 O1611 O 0.27748 0.30836 0.76099
 O1612 O 0.28229 0.29965 0.72506
 C1613 C 0.28484 0.31267 0.74175
 O1614 O 0.29060 0.20883 0.78507
 Zr1615 Zr 0.28649 0.23275 0.75984
 O1616 O 0.30093 0.26354 0.71392
 O1617 O 0.28879 0.28715 0.79304
 O1618 O 0.31157 0.24476 0.78136
 O1619 O 0.30031 0.20253 0.74658
 O1620 O 0.31488 0.24162 0.74128
 C1621 C 0.31716 0.25336 0.72397
 O1622 O 0.25553 0.29063 0.69756
 O1623 O 0.21024 0.21352 0.71205
 O1624 O 0.26597 0.25285 0.69044
 O1625 O 0.24696 0.22058 0.69629
 O1626 O 0.18604 0.25639 0.72524
 O1627 O 0.20779 0.28925 0.71610
 C1628 C 0.25733 0.23429 0.68385
 H1629 H 0.20258 0.22772 0.75094
 H1630 H 0.24199 0.30061 0.73941
 H1631 H 0.28207 0.22630 0.71834
 H1632 H 0.27200 0.24666 0.79725
 H1633 H 0.18524 0.30221 0.75259
 H1634 H 0.25076 0.32060 0.79113
 H1635 H 0.28687 0.30211 0.79995
 H1636 H 0.32566 0.23582 0.77870
 H1637 H 0.17247 0.26602 0.72822
 H1638 H 0.21232 0.19851 0.70526
 H1639 H 0.24961 0.18177 0.71149
 H1640 H 0.31672 0.20210 0.74998
 H1641 H 0.19245 0.29627 0.71677
 H1642 H 0.26875 0.29352 0.68802
 H1643 H 0.23071 0.20878 0.81624
 H1644 H 0.30678 0.20420 0.78612
 Zr1645 Zr 0.26463 0.77019 0.27996
 O1646 O 0.25166 0.79159 0.30486
 O1647 O 0.29885 0.76749 0.28837
 O1648 O 0.26609 0.75474 0.31103
 O1649 O 0.26986 0.81200 0.24158
 O1650 O 0.25123 0.72041 0.30467
 O1651 O 0.27684 0.80330 0.27705
 O1652 O 0.31381 0.74331 0.26302
 O1653 O 0.27243 0.73647 0.27295
 O1654 O 0.28024 0.76930 0.24931
 O1655 O 0.23353 0.75363 0.28079
 O1656 O 0.24128 0.78568 0.25850
 Zr1657 Zr 0.23322 0.73314 0.21988
 Zr1658 Zr 0.24130 0.72039 0.27203
 Zr1659 Zr 0.25665 0.78286 0.22774
 Zr1660 Zr 0.28685 0.73581 0.24192
 O1661 O 0.23572 0.81066 0.21933
 O1662 O 0.30012 0.70493 0.25369
 O1663 O 0.26452 0.74963 0.21880
 O1664 O 0.25665 0.71805 0.24133
 O1665 O 0.21749 0.73389 0.25050
 O1666 O 0.22565 0.76679 0.22705
 C1667 C 0.31538 0.75601 0.27994
 C1668 C 0.27728 0.81682 0.26068
 C1669 C 0.26012 0.73507 0.31722
 O1670 O 0.26073 0.69084 0.27778
 O1671 O 0.22428 0.69279 0.25913
 O1672 O 0.21889 0.70100 0.22332
 C1673 C 0.21685 0.68808 0.24001
 O1674 O 0.20564 0.79158 0.28322
 Zr1675 Zr 0.21120 0.76753 0.25800
 O1676 O 0.19873 0.73542 0.21204
 O1677 O 0.21290 0.71377 0.29194
 O1678 O 0.18691 0.75449 0.27981
 O1679 O 0.19537 0.79653 0.24465
 O1680 O 0.18352 0.75635 0.23984
 C1681 C 0.18187 0.74429 0.22254
 O1682 O 0.24566 0.71047 0.19581
 O1683 O 0.28620 0.79149 0.21031
 O1684 O 0.23395 0.74760 0.18832
 O1685 O 0.25141 0.78077 0.19412
 O1686 O 0.31275 0.74989 0.22265
 O1687 O 0.29389 0.71524 0.21425
 C1688 C 0.24254 0.76607 0.18159
 H1689 H 0.29442 0.77784 0.24878
 H1690 H 0.25988 0.70227 0.23713
 H1691 H 0.21534 0.77373 0.21622
 H1692 H 0.22655 0.75469 0.29545
 H1693 H 0.31671 0.70476 0.25108
 H1694 H 0.25205 0.68181 0.28826
 H1695 H 0.21578 0.69897 0.29871
 H1696 H 0.17234 0.76261 0.27726
 H1697 H 0.32704 0.74151 0.22577
 H1698 H 0.28307 0.80622 0.20347
 H1699 H 0.24454 0.81978 0.20903
 H1700 H 0.17900 0.79593 0.24820
 H1701 H 0.30965 0.70926 0.21509
 H1702 H 0.23270 0.70676 0.18629
 H1703 H 0.26460 0.79556 0.31429
 H1704 H 0.18928 0.79548 0.28421
 Zr1705 Zr 0.22730 0.76926 0.71761
 O1706 O 0.23870 0.78966 0.69190
 O1707 O 0.19299 0.76672 0.71030
 O1708 O 0.22555 0.75282 0.68693
 O1709 O 0.22237 0.81282 0.75494
 O1710 O 0.24220 0.71871 0.69333
 O1711 O 0.21400 0.80247 0.72012
 O1712 O 0.17948 0.74331 0.73625
 O1713 O 0.22094 0.73584 0.72542
 O1714 O 0.21251 0.76964 0.74862
 O1715 O 0.25896 0.75249 0.71620
 O1716 O 0.25053 0.78544 0.73809
 Zr1717 Zr 0.26190 0.73428 0.77737
 Zr1718 Zr 0.25273 0.71960 0.72585
 Zr1719 Zr 0.23615 0.78380 0.76932
 Zr1720 Zr 0.20739 0.73644 0.75682
 O1721 O 0.25623 0.81159 0.77730
 O1722 O 0.19501 0.70520 0.74611
 O1723 O 0.22992 0.75088 0.77904
 O1724 O 0.23835 0.71858 0.75698
 O1725 O 0.27673 0.73381 0.74636
 O1726 O 0.26779 0.76765 0.76935
 C1727 C 0.17708 0.75564 0.71924
 C1728 C 0.21420 0.81683 0.73593
 C1729 C 0.23235 0.73305 0.68081
 O1730 O 0.23400 0.69020 0.72094
 O1731 O 0.27050 0.69198 0.73905
 O1732 O 0.27743 0.70204 0.77422
 C1733 C 0.27886 0.68816 0.75802
 O1734 O 0.28525 0.78971 0.71164
 Zr1735 Zr 0.28130 0.76722 0.73800
 O1736 O 0.29657 0.73695 0.78426
 O1737 O 0.28104 0.71190 0.70568
 O1738 O 0.30583 0.75275 0.71652
 O1739 O 0.29572 0.79722 0.74961
 O1740 O 0.30980 0.75797 0.75630
 C1741 C 0.31256 0.74649 0.77372
 O1742 O 0.25119 0.71249 0.80226
 O1743 O 0.20649 0.79338 0.78685
 O1744 O 0.26165 0.74980 0.80858
 O1745 O 0.24200 0.78254 0.80295
 O1746 O 0.18154 0.75141 0.77648
 O1747 O 0.20190 0.71686 0.78506
 C1748 C 0.25221 0.76831 0.81533
 H1749 H 0.19806 0.77835 0.74931
 H1750 H 0.23582 0.70299 0.76165
 H1751 H 0.27805 0.77502 0.77975
 H1752 H 0.26552 0.75299 0.70136
 H1753 H 0.17850 0.70522 0.74913
 H1754 H 0.24270 0.68073 0.71039
 H1755 H 0.27846 0.69693 0.69922
 H1756 H 0.32008 0.76100 0.71844
 H1757 H 0.16746 0.74306 0.77390
 H1758 H 0.20927 0.80827 0.79339
 H1759 H 0.24717 0.82110 0.78751
 H1760 H 0.31200 0.79675 0.74557
 H1761 H 0.18631 0.71106 0.78481
 H1762 H 0.26459 0.70909 0.81148
 H1763 H 0.22533 0.79342 0.68277
 H1764 H 0.30147 0.79324 0.70992
 Zr1765 Zr 0.27168 0.23177 0.22464
 O1766 O 0.26317 0.21014 0.19863
 O1767 O 0.30659 0.23502 0.21977
 O1768 O 0.27521 0.24720 0.19371
 O1769 O 0.27558 0.18990 0.26350
 O1770 O 0.25543 0.28031 0.19759
 O1771 O 0.28535 0.19886 0.22872
 O1772 O 0.31704 0.25943 0.24637
 O1773 O 0.27647 0.26565 0.23210
 O1774 O 0.28369 0.23282 0.25663
 O1775 O 0.23970 0.24759 0.22094
 O1776 O 0.24706 0.21576 0.24382
 Zr1777 Zr 0.23157 0.26804 0.28123
 Zr1778 Zr 0.24429 0.28105 0.23004
 Zr1779 Zr 0.25873 0.21867 0.27591
 Zr1780 Zr 0.28731 0.26642 0.26443
 O1781 O 0.23901 0.19014 0.28175
 O1782 O 0.29997 0.29751 0.25389
 O1783 O 0.26353 0.25207 0.28539
 O1784 O 0.25618 0.28359 0.26199
 O1785 O 0.21913 0.26708 0.24938
 O1786 O 0.22689 0.23426 0.27359
 C1787 C 0.32136 0.24669 0.22985
 C1788 C 0.28502 0.18527 0.24503
 C1789 C 0.26685 0.26581 0.18627
 O1790 O 0.26344 0.31007 0.22481
 O1791 O 0.22560 0.30911 0.24176
 O1792 O 0.21611 0.30000 0.27656
 C1793 C 0.21588 0.31344 0.26017
 O1794 O 0.21454 0.20934 0.21581
 Zr1795 Zr 0.21590 0.23327 0.24151
 O1796 O 0.19655 0.26490 0.28600
 O1797 O 0.21678 0.28779 0.20888
 O1798 O 0.19314 0.24607 0.21775
 O1799 O 0.20085 0.20372 0.25320
 O1800 O 0.18571 0.24335 0.25728
 C1801 C 0.18145 0.25531 0.27434
 O1802 O 0.23960 0.29102 0.30630
 O1803 O 0.28651 0.21114 0.29651
 O1804 O 0.23045 0.25397 0.31283
 O1805 O 0.24846 0.21996 0.30866
 O1806 O 0.31191 0.25306 0.28614
 O1807 O 0.28958 0.28702 0.29265
 C1808 C 0.23806 0.23506 0.32016
 H1809 H 0.29826 0.22456 0.25856
 H1810 H 0.25811 0.29939 0.26645
 H1811 H 0.21586 0.22711 0.28339
 H1812 H 0.23420 0.24619 0.20580
 H1813 H 0.31609 0.29806 0.25828
 H1814 H 0.25511 0.31916 0.21388
 H1815 H 0.21948 0.30253 0.20213
 H1816 H 0.17889 0.23768 0.21898
 H1817 H 0.32573 0.26206 0.28465
 H1818 H 0.28373 0.19626 0.30292
 H1819 H 0.24713 0.18115 0.29290
 H1820 H 0.18491 0.20388 0.24818
 H1821 H 0.30479 0.29367 0.29326
 H1822 H 0.22543 0.29438 0.31457
 H1823 H 0.27738 0.20650 0.19055
 H1824 H 0.19859 0.20527 0.21323
 Zr1825 Zr 0.73287 0.73319 0.27706
 O1826 O 0.74562 0.70966 0.29983
 O1827 O 0.69934 0.73792 0.28777
 O1828 O 0.73373 0.74699 0.30889
 O1829 O 0.72295 0.69355 0.23699
 O1830 O 0.75342 0.77916 0.30454
 O1831 O 0.71795 0.70151 0.27309
 O1832 O 0.68535 0.76499 0.26521
 O1833 O 0.72745 0.76763 0.27272
 O1834 O 0.71561 0.73681 0.24761
 O1835 O 0.76535 0.74708 0.27697
 O1836 O 0.75385 0.71731 0.25338
 Zr1837 Zr 0.76358 0.77109 0.21772
 Zr1838 Zr 0.75978 0.78122 0.27100
 Zr1839 Zr 0.73691 0.72275 0.22388
 Zr1840 Zr 0.71138 0.77103 0.24268
 O1841 O 0.75509 0.69415 0.21226
 O1842 O 0.70110 0.80227 0.25652
 O1843 O 0.73112 0.75689 0.21740
 O1844 O 0.74278 0.78650 0.24156
 O1845 O 0.78120 0.76748 0.24706
 O1846 O 0.76899 0.73667 0.22228
 C1847 C 0.68354 0.75145 0.28129
 C1848 C 0.71621 0.68855 0.25629
 C1849 C 0.74312 0.76478 0.31625
 O1850 O 0.74247 0.81102 0.28076
 O1851 O 0.77717 0.80864 0.25854
 O1852 O 0.77990 0.80220 0.22200
 C1853 C 0.78347 0.81412 0.23925
 O1854 O 0.79093 0.70757 0.27537
 Zr1855 Zr 0.78533 0.73313 0.25196
 O1856 O 0.79729 0.76750 0.20774
 O1857 O 0.79028 0.78503 0.28853
 O1858 O 0.81187 0.74356 0.27261
 O1859 O 0.79779 0.70365 0.23617
 O1860 O 0.81261 0.74287 0.23207
 C1861 C 0.81404 0.75634 0.21585
 O1862 O 0.75097 0.79532 0.19560
 O1863 O 0.70568 0.71726 0.20808
 O1864 O 0.76128 0.75790 0.18564
 O1865 O 0.74068 0.72634 0.19016
 O1866 O 0.68307 0.75996 0.22471
 O1867 O 0.70474 0.79318 0.21640
 C1868 C 0.75104 0.74054 0.17826
 H1869 H 0.70078 0.72938 0.24753
 H1870 H 0.74041 0.80265 0.23857
 H1871 H 0.77821 0.72962 0.21050
 H1872 H 0.77310 0.74451 0.29103
 H1873 H 0.68447 0.80387 0.25466
 H1874 H 0.75262 0.81890 0.29093
 H1875 H 0.78897 0.79950 0.29647
 H1876 H 0.82574 0.73489 0.26843
 H1877 H 0.66983 0.76946 0.22909
 H1878 H 0.70731 0.70283 0.20014
 H1879 H 0.74492 0.68628 0.20210
 H1880 H 0.81441 0.70288 0.23843
 H1881 H 0.68949 0.80019 0.21824
 H1882 H 0.76358 0.79885 0.18555
 H1883 H 0.73297 0.70611 0.30983
 H1884 H 0.80713 0.70287 0.27520
 Zr1885 Zr 0.76187 0.27886 0.78707
 O1886 O 0.75047 0.30145 0.81165
 O1887 O 0.79575 0.27382 0.79566
 O1888 O 0.76247 0.26369 0.81827
 O1889 O 0.77102 0.31912 0.74779
 O1890 O 0.74245 0.23178 0.81325
 O1891 O 0.77650 0.31091 0.78363
 O1892 O 0.80883 0.24786 0.77105
 O1893 O 0.76675 0.24451 0.78091
 O1894 O 0.77762 0.27603 0.75658
 O1895 O 0.72939 0.26505 0.78807
 O1896 O 0.74011 0.29574 0.76511
 Zr1897 Zr 0.72773 0.24328 0.72770
 Zr1898 Zr 0.73426 0.23110 0.78013
 Zr1899 Zr 0.75539 0.29092 0.73451
 Zr1900 Zr 0.78138 0.24201 0.75001
 O1901 O 0.73712 0.32024 0.72537
 O1902 O 0.79200 0.21054 0.76262
 O1903 O 0.76041 0.25700 0.72640
 O1904 O 0.74972 0.22689 0.74963
 O1905 O 0.71177 0.24604 0.75813
 O1906 O 0.72308 0.27754 0.73406
 C1907 C 0.81135 0.26090 0.78760
 C1908 C 0.77831 0.32390 0.76695
 C1909 C 0.75339 0.24556 0.82518
 O1910 O 0.75176 0.20088 0.78772
 O1911 O 0.71644 0.20386 0.76737
 O1912 O 0.71134 0.21224 0.73153
 C1913 C 0.70898 0.19938 0.74820
 O1914 O 0.70477 0.30483 0.78989
 Zr1915 Zr 0.70851 0.28027 0.76487
 O1916 O 0.69336 0.24791 0.72001
 O1917 O 0.70448 0.22694 0.79883
 O1918 O 0.68273 0.26945 0.78628
 O1919 O 0.69587 0.31060 0.75127
 O1920 O 0.68018 0.27220 0.74616
 C1921 C 0.67748 0.25941 0.72954
 O1922 O 0.73837 0.21945 0.70390
 O1923 O 0.78573 0.29635 0.71698
 O1924 O 0.72947 0.25700 0.69590
 O1925 O 0.74979 0.28861 0.70092
 O1926 O 0.80852 0.25336 0.73054
 O1927 O 0.78683 0.22023 0.72291
 C1928 C 0.73946 0.27456 0.68875
 H1929 H 0.79247 0.28338 0.75595
 H1930 H 0.75182 0.21086 0.74578
 H1931 H 0.71344 0.28510 0.72305
 H1932 H 0.72235 0.26711 0.80262
 H1933 H 0.80856 0.20896 0.76012
 H1934 H 0.74210 0.19274 0.79812
 H1935 H 0.70607 0.21227 0.80619
 H1936 H 0.66895 0.27874 0.78348
 H1937 H 0.82207 0.24393 0.73394
 H1938 H 0.78398 0.31109 0.70979
 H1939 H 0.74680 0.32826 0.71491
 H1940 H 0.67948 0.31178 0.75478
 H1941 H 0.80205 0.21301 0.72399
 H1942 H 0.72514 0.21656 0.69444
 H1943 H 0.76369 0.30460 0.82103
 H1944 H 0.68870 0.30987 0.79088
 C1945 C 0.46172 0.96307 0.33593
 C1946 C 0.45398 0.98416 0.32851
 C1947 C 0.45978 1.00335 0.34046
 C1948 C 0.47194 1.00150 0.35998
 C1949 C 0.47873 0.98017 0.36782
 C1950 C 0.47397 0.96110 0.35536
 C1951 C 0.48899 0.97827 0.38847
 C1952 C 0.49185 0.99748 0.40143
 C1953 C 0.48603 1.01861 0.39294
 C1954 C 0.47636 1.02064 0.37237
 H1955 H 0.45376 1.01972 0.33526
 H1956 H 0.47916 0.94460 0.36093
 H1957 H 0.49313 0.96190 0.39506
 H1958 H 0.47138 1.03712 0.36658
 H1959 H 0.45804 0.94799 0.32688
 H1960 H 0.48806 1.03358 0.40273
 C1961 C -0.06495 0.52939 0.84924
 C1962 C -0.05662 0.51350 0.83380
 C1963 C -0.03872 0.49880 0.84047
 C1964 C -0.03000 0.49973 0.86183
 C1965 C -0.03905 0.51560 0.87673
 C1966 C -0.05623 0.53046 0.87021
 C1967 C -0.03133 0.51606 0.89821
 C1968 C -0.01473 0.50063 0.90551
 C1969 C -0.00510 0.48530 0.89047
 C1970 C -0.01267 0.48487 0.86879
 H1971 H -0.03116 0.48680 0.82921
 H1972 H -0.06347 0.54261 0.88159
 H1973 H -0.03874 0.52825 0.90945
 H1974 H -0.00534 0.47260 0.85761
 H1975 H -0.07921 0.54044 0.84588
 H1976 H 0.00771 0.47323 0.89562
 C1977 C 0.08107 -0.00312 0.86052
 C1978 C 0.06625 0.00363 0.84382
 C1979 C 0.04391 0.01060 0.84930
 C1980 C 0.03643 0.01013 0.87117
 C1981 C 0.05158 0.00285 0.88753
 C1982 C 0.07383 -0.00355 0.88208
 C1983 C 0.04437 0.00199 0.90921
 C1984 C 0.02208 0.00833 0.91526
 C1985 C 0.00705 0.01575 0.89897
 C1986 C 0.01416 0.01660 0.87710
 H1987 H 0.03232 0.01588 0.83658
 H1988 H 0.08568 -0.00897 0.89452
 H1989 H 0.05639 -0.00362 0.92142
 H1990 H 0.00224 0.02228 0.86484
 H1991 H 0.09845 -0.00804 0.85689
 H1992 H -0.01016 0.02083 0.90310
 C1993 C 0.58107 0.50263 0.35538
 C1994 C 0.56571 0.50454 0.33805
 C1995 C 0.54224 0.50535 0.34251
 C1996 C 0.53435 0.50472 0.36422
 C1997 C 0.55014 0.50278 0.38136
 C1998 C 0.57339 0.50168 0.37678
 C1999 C 0.54258 0.50194 0.40292
 C2000 C 0.51931 0.50304 0.40804
 C2001 C 0.50361 0.50539 0.39100
 C2002 C 0.51106 0.50612 0.36925
 H2003 H 0.53031 0.50692 0.32921
 H2004 H 0.58568 0.50016 0.38979
 H2005 H 0.55503 0.50042 0.41580
 H2006 H 0.49865 0.50771 0.35638
 H2007 H 0.59915 0.50176 0.35229
 H2008 H 0.48560 0.50627 0.39446
 C2009 C 0.56867 0.53049 0.14897
 C2010 C 0.56136 0.51381 0.16323
 C2011 C 0.54424 0.49926 0.15647
 C2012 C 0.53552 0.50061 0.13518
 C2013 C 0.54372 0.51699 0.12083
 C2014 C 0.55987 0.53215 0.12802
 C2015 C 0.53634 0.51751 0.09921
 C2016 C 0.52109 0.50163 0.09132
 C2017 C 0.51226 0.48592 0.10586
 C2018 C 0.51941 0.48543 0.12763
 H2019 H 0.53857 0.48630 0.16736
 H2020 H 0.56619 0.54490 0.11724
 H2021 H 0.54311 0.52994 0.08832
 H2022 H 0.51284 0.47278 0.13838
 H2023 H 0.58158 0.54206 0.15396
 H2024 H 0.50048 0.47352 0.10023
 C2025 C 0.05551 1.02797 0.65785
 C2026 C 0.05556 1.00763 0.66918
 C2027 C 0.04639 0.98858 0.65920
 C2028 C 0.03811 0.98964 0.63779
 C2029 C 0.03930 1.00994 0.62618
 C2030 C 0.04755 1.02910 0.63649
 C2031 C 0.03287 1.01059 0.60425
 C2032 C 0.02491 0.99134 0.59374
 C2033 C 0.02260 0.97154 0.60566
 C2034 C 0.02933 0.97064 0.62750
 H2035 H 0.04624 0.97287 0.66793
 H2036 H 0.04841 1.04481 0.62785
 H2037 H 0.03440 1.02602 0.59520
 H2038 H 0.02812 0.95499 0.63620
 H2039 H 0.06265 1.04276 0.66516
 H2040 H 0.01648 0.95656 0.59784
 C2041 C -0.07785 0.48511 0.64533
 C2042 C -0.06388 0.49413 0.66154
 C2043 C -0.04248 0.50231 0.65545
 C2044 C -0.03520 0.50118 0.63352
 C2045 C -0.04950 0.49180 0.61769
 C2046 C -0.07072 0.48387 0.62374
 C2047 C -0.04253 0.49054 0.59592
 C2048 C -0.02135 0.49858 0.58928
 C2049 C -0.00715 0.50800 0.60507
 C2050 C -0.01400 0.50924 0.62702
 H2051 H -0.03148 0.50931 0.66769
 H2052 H -0.08194 0.47681 0.61170
 H2053 H -0.05389 0.48330 0.58411
 H2054 H -0.00275 0.51654 0.63887
 H2055 H -0.09461 0.47929 0.64927
 H2056 H 0.00922 0.51437 0.60049
 C2057 C 0.43409 -0.02595 0.15159
 C2058 C 0.43867 -0.00725 0.16471
 C2059 C 0.45218 0.00985 0.15626
 C2060 C 0.46072 0.00836 0.13484
 C2061 C 0.45538 -0.01029 0.12170
 C2062 C 0.44228 -0.02742 0.13029
 C2063 C 0.46285 -0.01136 0.10003
 C2064 C 0.47582 0.00584 0.09113
 C2065 C 0.48184 0.02392 0.10449
 C2066 C 0.47423 0.02524 0.12614
 H2067 H 0.45595 0.02426 0.16631
 H2068 H 0.43810 -0.04185 0.12043
 H2069 H 0.45834 -0.02556 0.08999
 H2070 H 0.47864 0.03961 0.13598
 H2071 H 0.42355 -0.03919 0.15762
 H2072 H 0.49180 0.03737 0.09799
 C2073 C 0.35040 0.42457 -0.01805
 C2074 C 0.34424 0.41545 0.00213
 C2075 C 0.35913 0.41773 0.01992
 C2076 C 0.37971 0.42905 0.01752
 C2077 C 0.38550 0.43810 -0.00288
 C2078 C 0.37075 0.43577 -0.02053
 C2079 C 0.40595 0.44938 -0.00541
 C2080 C 0.42092 0.45198 0.01222
 C2081 C 0.41500 0.44292 0.03250
 C2082 C 0.39462 0.43154 0.03512
 H2083 H 0.35460 0.41095 0.03563
 H2084 H 0.37500 0.44253 -0.03632
 H2085 H 0.41008 0.45628 -0.02118
 H2086 H 0.39051 0.42470 0.05091
 H2087 H 0.33961 0.42272 -0.03214
 H2088 H 0.42614 0.44457 0.04636
 C2089 C -0.15145 0.93245 0.48567
 C2090 C -0.15380 0.91567 0.50140
 C2091 C -0.13597 0.91168 0.51621
 C2092 C -0.11603 0.92417 0.51516
 C2093 C -0.11377 0.94064 0.49893
 C2094 C -0.13161 0.94474 0.48438
 C2095 C -0.09366 0.95267 0.49739
 C2096 C -0.07570 0.94880 0.51204
 C2097 C -0.07832 0.93278 0.52848
 C2098 C -0.09823 0.92047 0.52994
 H2099 H -0.13768 0.89893 0.52856
 H2100 H -0.13017 0.95734 0.47188
 H2101 H -0.09206 0.96517 0.48478
 H2102 H -0.09967 0.90799 0.54257
 H2103 H -0.16477 0.93569 0.47396
 H2104 H -0.06481 0.92948 0.53998
 C2105 C -0.15851 0.07518 1.02449
 C2106 C -0.16567 0.08424 1.00435
 C2107 C -0.15084 0.08127 0.98622
 C2108 C -0.12984 0.06973 0.98825
 C2109 C -0.12334 0.06096 1.00859
 C2110 C -0.13778 0.06374 1.02653
 C2111 C -0.10240 0.04965 1.01081
 C2112 C -0.08751 0.04685 0.99295
 C2113 C -0.09419 0.05549 0.97264
 C2114 C -0.11515 0.06679 0.97032
 H2115 H -0.15569 0.08718 0.97026
 H2116 H -0.13291 0.05729 1.04233
 H2117 H -0.09769 0.04312 1.02663
 H2118 H -0.11980 0.07336 0.95451
 H2119 H -0.16830 0.07763 1.03925
 H2120 H -0.08316 0.05369 0.95859
 C2121 C 0.33783 0.56639 0.51728
 C2122 C 0.33022 0.57428 0.49699
 C2123 C 0.34352 0.56943 0.47829
 C2124 C 0.36415 0.55720 0.47998
 C2125 C 0.37139 0.54948 0.50053
 C2126 C 0.35807 0.55404 0.51901
 C2127 C 0.39204 0.53763 0.50243
 C2128 C 0.40603 0.53348 0.48411
 C2129 C 0.39864 0.54113 0.46366
 C2130 C 0.37784 0.55278 0.46160
 H2131 H 0.33789 0.57512 0.46246
 H2132 H 0.36350 0.54836 0.53492
 H2133 H 0.39737 0.53202 0.51839
 H2134 H 0.37261 0.55858 0.44567
 H2135 H 0.32842 0.57021 0.53205
 H2136 H 0.40900 0.53827 0.44928
 C2137 C 0.14904 0.57357 0.47561
 C2138 C 0.15777 0.57953 0.49608
 C2139 C 0.14556 0.57367 0.51497
 C2140 C 0.12507 0.56210 0.51335
 C2141 C 0.11677 0.55616 0.49263
 C2142 C 0.12886 0.56197 0.47391
 C2143 C 0.09647 0.54452 0.49088
 C2144 C 0.08403 0.53863 0.50955
 C2145 C 0.09231 0.54480 0.53013
 C2146 C 0.11267 0.55636 0.53201
 H2147 H 0.15207 0.57790 0.53091
 H2148 H 0.12261 0.55766 0.45788
 H2149 H 0.09039 0.54009 0.47482
 H2150 H 0.11871 0.56081 0.54807
 H2151 H 0.15762 0.57824 0.46076
 H2152 H 0.08315 0.54053 0.54479
 C2153 C 0.65744 0.06306 -0.01344
 C2154 C 0.65984 0.07977 0.00253
 C2155 C 0.64219 0.08350 0.01778
 C2156 C 0.62233 0.07086 0.01687
 C2157 C 0.62006 0.05447 0.00041
 C2158 C 0.63775 0.05057 -0.01452
 C2159 C 0.60001 0.04241 -0.00110
 C2160 C 0.58200 0.04629 0.01366
 C2161 C 0.58462 0.06217 0.03039
 C2162 C 0.60459 0.07442 0.03193
 H2163 H 0.64393 0.09619 0.03031
 H2164 H 0.63626 0.03803 -0.02723
 H2165 H 0.59841 0.03002 -0.01395
 H2166 H 0.60604 0.08685 0.04473
 H2167 H 0.67060 0.06002 -0.02550
 H2168 H 0.57102 0.06552 0.04193
 C2169 C 0.66018 0.91399 0.51735
 C2170 C 0.66873 0.90576 0.49739
 C2171 C 0.65597 0.90953 0.47828
 C2172 C 0.63482 0.92106 0.47931
 C2173 C 0.62657 0.92899 0.49960
 C2174 C 0.63938 0.92543 0.51845
 C2175 C 0.60568 0.94050 0.50086
 C2176 C 0.59250 0.94453 0.48211
 C2177 C 0.60072 0.93649 0.46193
 C2178 C 0.62167 0.92484 0.46055
 H2179 H 0.66228 0.90320 0.46278
 H2180 H 0.63331 0.93155 0.53411
 H2181 H 0.59981 0.94648 0.51664
 H2182 H 0.62763 0.91889 0.44480
 H2183 H 0.66975 0.91177 0.53222
 H2184 H 0.59105 0.93932 0.44722
 C2185 C 0.16092 0.43027 1.01974
 C2186 C 0.16811 0.41937 1.00049
 C2187 C 0.15409 0.42078 0.98190
 C2188 C 0.13325 0.43283 0.98268
 C2189 C 0.12644 0.44355 1.00223
 C2190 C 0.14039 0.44225 1.02059
 C2191 C 0.10564 0.45527 1.00331
 C2192 C 0.09111 0.45656 0.98516
 C2193 C 0.09809 0.44604 0.96563
 C2194 C 0.11897 0.43429 0.96440
 H2195 H 0.15941 0.41263 0.96686
 H2196 H 0.13531 0.45032 1.03574
 H2197 H 0.10078 0.46331 1.01855
 H2198 H 0.12388 0.42620 0.94921
 H2199 H 0.17096 0.42915 1.03442
 H2200 H 0.08733 0.44670 0.95140
 C2201 C -0.03958 0.34333 0.42002
 C2202 C -0.01964 0.33004 0.41986
 C2203 C 0.00038 0.33870 0.42844
 C2204 C 0.00052 0.36016 0.43743
 C2205 C -0.01954 0.37351 0.43750
 C2206 C -0.03951 0.36498 0.42875
 C2207 C -0.01926 0.39507 0.44649
 C2208 C 0.00068 0.40310 0.45583
 C2209 C 0.02047 0.38966 0.45577
 C2210 C 0.02046 0.36839 0.44644
 H2211 H 0.01603 0.32886 0.42785
 H2212 H -0.05506 0.37497 0.42876
 H2213 H -0.03464 0.40535 0.44674
 H2214 H 0.03594 0.35830 0.44649
 H2215 H -0.05521 0.33694 0.41352
 H2216 H 0.03600 0.39568 0.46285
 C2217 C 0.47888 -0.14181 -0.09667
 C2218 C 0.48910 -0.15973 -0.08534
 C2219 C 0.49925 -0.15573 -0.06512
 C2220 C 0.49968 -0.13408 -0.05648
 C2221 C 0.48945 -0.11613 -0.06798
 C2222 C 0.47898 -0.12018 -0.08800
 C2223 C 0.48992 -0.09444 -0.05928
 C2224 C 0.50063 -0.09047 -0.03927
 C2225 C 0.51087 -0.10848 -0.02808
 C2226 C 0.51033 -0.13010 -0.03658
 H2227 H 0.50683 -0.16948 -0.05607
 H2228 H 0.47111 -0.10660 -0.09706
 H2229 H 0.48199 -0.08072 -0.06810
 H2230 H 0.51827 -0.14371 -0.02759
 H2231 H 0.47123 -0.14445 -0.11244
 H2232 H 0.51914 -0.10594 -0.01257
 C2233 C 0.00687 -0.16139 1.04921
 C2234 C 0.01107 -0.16259 1.07166
 C2235 C 0.01511 -0.14291 1.08352
 C2236 C 0.01414 -0.12213 1.07322
 C2237 C 0.00916 -0.12107 1.05076
 C2238 C 0.00592 -0.14076 1.03882
 C2239 C 0.00709 -0.10031 1.04064
 C2240 C 0.01000 -0.08051 1.05259
 C2241 C 0.01558 -0.08163 1.07476
 C2242 C 0.01753 -0.10234 1.08505
 H2243 H 0.01813 -0.14370 1.10090
 H2244 H 0.00230 -0.14018 1.02154
 H2245 H 0.00316 -0.09959 1.02342
 H2246 H 0.02143 -0.10288 1.10227
 H2247 H 0.00407 -0.17642 1.03974
 H2248 H 0.01795 -0.06649 1.08420
 C2249 C 0.49892 0.32695 0.54191
 C2250 C 0.51194 0.32572 0.56095
 C2251 C 0.52366 0.34455 0.56809
 C2252 C 0.52060 0.36505 0.55768
 C2253 C 0.50646 0.36653 0.53921
 C2254 C 0.49633 0.34725 0.53098
 C2255 C 0.50203 0.38739 0.52981
 C2256 C 0.51126 0.40684 0.53884
 C2257 C 0.52579 0.40504 0.55687
 C2258 C 0.53050 0.38428 0.56615
 H2259 H 0.53408 0.34354 0.58258
 H2260 H 0.48555 0.34810 0.51675
 H2261 H 0.49098 0.38848 0.51577
 H2262 H 0.54142 0.38335 0.58028
 H2263 H 0.48968 0.31260 0.53621
 H2264 H 0.53341 0.41971 0.56395
 C2265 C 0.48459 1.13803 0.59017
 C2266 C 0.49819 1.15458 0.58104
 C2267 C 0.51192 1.14935 0.56299
 C2268 C 0.51235 1.12779 0.55423
 C2269 C 0.49861 1.11117 0.56341
 C2270 C 0.48477 1.11645 0.58138
 C2271 C 0.49885 1.08965 0.55435
 C2272 C 0.51263 1.08461 0.53621
 C2273 C 0.52645 1.10124 0.52745
 C2274 C 0.52627 1.12266 0.53637
 H2275 H 0.52215 1.16214 0.55561
 H2276 H 0.47418 1.10390 0.58865
 H2277 H 0.48816 1.07698 0.56128
 H2278 H 0.53692 1.13524 0.52922
 H2279 H 0.47406 1.14171 0.60428
 H2280 H 0.53725 1.09785 0.51346
 C2281 C -0.00415 0.67002 1.03824
 C2282 C -0.00992 0.67123 1.06042
 C2283 C -0.01316 0.65146 1.07213
 C2284 C -0.01012 0.63066 1.06203
 C2285 C -0.00380 0.62951 1.03983
 C2286 C -0.00116 0.64927 1.02798
 C2287 C -0.00009 0.60864 1.02993
 C2288 C -0.00291 0.58894 1.04189
 C2289 C -0.00941 0.59024 1.06387
 C2290 C -0.01288 0.61098 1.07392
 H2291 H -0.01712 0.65222 1.08938
 H2292 H 0.00354 0.64866 1.01091
 H2293 H 0.00461 0.60773 1.01286
 H2294 H -0.01771 0.61163 1.09096
 H2295 H -0.00164 0.68513 1.02896
 H2296 H -0.01170 0.57519 1.07332
 C2297 C 0.49257 0.66551 -0.04964
 C2298 C 0.50344 0.66628 -0.06998
 C2299 C 0.51350 0.64676 -0.07880
 C2300 C 0.51149 0.62634 -0.06820
 C2301 C 0.49987 0.62544 -0.04808
 C2302 C 0.49087 0.64519 -0.03869
 C2303 C 0.49727 0.60480 -0.03786
 C2304 C 0.50618 0.58509 -0.04752
 C2305 C 0.51777 0.58627 -0.06750
 C2306 C 0.52043 0.60674 -0.07775
 H2307 H 0.52228 0.64736 -0.09432
 H2308 H 0.48200 0.64480 -0.02322
 H2309 H 0.48851 0.60413 -0.02234
 H2310 H 0.52932 0.60722 -0.09320
 H2311 H 0.48459 0.68041 -0.04266
 H2312 H 0.52482 0.57134 -0.07527
 C2313 C 0.03810 1.14862 0.42617
 C2314 C 0.01768 1.16144 0.42669
 C2315 C -0.00106 1.15266 0.43790
 C2316 C 0.00028 1.13167 0.44765
 C2317 C 0.02058 1.11883 0.44630
 C2318 C 0.03949 1.12756 0.43583
 C2319 C 0.02153 1.09739 0.45526
 C2320 C 0.00244 1.08880 0.46573
 C2321 C -0.01754 1.10188 0.46742
 C2322 C -0.01866 1.12313 0.45832
 H2323 H -0.01737 1.16127 0.43803
 H2324 H 0.05533 1.11806 0.43498
 H2325 H 0.03709 1.08744 0.45419
 H2326 H -0.03436 1.13283 0.45951
 H2327 H 0.05332 1.15484 0.41870
 H2328 H -0.03242 1.09550 0.47545
 C2329 C 0.72081 0.70778 0.90995
 C2330 C 0.74262 0.70311 0.91821
 C2331 C 0.76153 0.71121 0.90700
 C2332 C 0.75884 0.72274 0.88730
 C2333 C 0.73688 0.72669 0.87875
 C2334 C 0.71796 0.71953 0.89046
 C2335 C 0.73436 0.73659 0.85812
 C2336 C 0.75359 0.74183 0.84579
 C2337 C 0.77524 0.73859 0.85479
 C2338 C 0.77785 0.72942 0.87548
 H2339 H 0.77842 0.70807 0.91333
 H2340 H 0.70101 0.72235 0.88420
 H2341 H 0.71766 0.73863 0.85101
 H2342 H 0.79479 0.72657 0.88178
 H2343 H 0.70593 0.70163 0.91814
 H2344 H 0.79023 0.74233 0.84535
 C2345 C 0.22464 0.17183 0.39732
 C2346 C 0.23583 0.18459 0.41320
 C2347 C 0.24199 0.20663 0.40800
 C2348 C 0.23838 0.21510 0.38688
 C2349 C 0.22863 0.20132 0.37080
 C2350 C 0.22129 0.17999 0.37634
 C2351 C 0.22721 0.20869 0.34922
 C2352 C 0.23513 0.22980 0.34339
 C2353 C 0.24340 0.24408 0.35961
 C2354 C 0.24514 0.23673 0.38121
 H2355 H 0.25051 0.21682 0.41996
 H2356 H 0.21337 0.16940 0.36432
 H2357 H 0.22079 0.19763 0.33670
 H2358 H 0.25248 0.24766 0.39330
 H2359 H 0.21875 0.15524 0.40096
 H2360 H 0.24978 0.26035 0.35534
 C2361 C 0.71928 0.31308 0.40297
 C2362 C 0.73773 0.30681 0.41614
 C2363 C 0.75337 0.29038 0.40850
 C2364 C 0.75123 0.28135 0.38736
 C2365 C 0.73301 0.28853 0.37408
 C2366 C 0.71686 0.30396 0.38221
 C2367 C 0.73161 0.28088 0.35256
 C2368 C 0.74838 0.26637 0.34368
 C2369 C 0.76598 0.25854 0.35721
 C2370 C 0.76738 0.26595 0.37889
 H2371 H 0.76770 0.28551 0.41854
 H2372 H 0.70271 0.30950 0.37226
 H2373 H 0.71775 0.28688 0.34246
 H2374 H 0.78144 0.26016 0.38881
 H2375 H 0.70688 0.32545 0.40865
 H2376 H 0.77910 0.24735 0.35082
 C2377 C 0.22266 0.82083 0.89787
 C2378 C 0.24057 0.81414 0.91157
 C2379 C 0.25641 0.79781 0.90399
 C2380 C 0.25489 0.78915 0.88262
 C2381 C 0.23722 0.79679 0.86891
 C2382 C 0.22101 0.81227 0.87680
 C2383 C 0.23627 0.78927 0.84730
 C2384 C 0.25276 0.77419 0.83885
 C2385 C 0.26985 0.76597 0.85275
 C2386 C 0.27095 0.77346 0.87445
 H2387 H 0.27032 0.79252 0.91435
 H2388 H 0.20723 0.81809 0.86652
 H2389 H 0.22276 0.79551 0.83691
 H2390 H 0.28458 0.76729 0.88471
 H2391 H 0.20997 0.83295 0.90341
 H2392 H 0.28272 0.75432 0.84667
 C2393 C 0.27161 0.81862 0.10037
 C2394 C 0.25691 0.80929 0.08479
 C2395 C 0.24247 0.79196 0.09185
 C2396 C 0.24271 0.78460 0.11367
 C2397 C 0.25745 0.79460 0.12867
 C2398 C 0.27189 0.81138 0.12185
 C2399 C 0.25741 0.78799 0.15047
 C2400 C 0.24274 0.77142 0.15796
 C2401 C 0.22844 0.76100 0.14289
 C2402 C 0.22840 0.76758 0.12092
 H2403 H 0.23136 0.78372 0.08052
 H2404 H 0.28318 0.81931 0.13328
 H2405 H 0.26886 0.79601 0.16170
 H2406 H 0.21699 0.75955 0.10968
 H2407 H 0.28232 0.83251 0.09659
 H2408 H 0.21701 0.74815 0.14815
 C2409 C 0.76614 0.32632 0.60609
 C2410 C 0.75335 0.31462 0.59046
 C2411 C 0.74015 0.29653 0.59793
 C2412 C 0.73989 0.29057 0.62015
 C2413 C 0.75286 0.30275 0.63515
 C2414 C 0.76591 0.32046 0.62797
 C2415 C 0.75255 0.29723 0.65725
 C2416 C 0.73944 0.27952 0.66500
 C2417 C 0.72671 0.26720 0.64997
 C2418 C 0.72692 0.27270 0.62774
 H2419 H 0.73053 0.28658 0.58664
 H2420 H 0.77578 0.33010 0.63939
 H2421 H 0.76267 0.30690 0.66842
 H2422 H 0.71686 0.26304 0.61652
 H2423 H 0.77569 0.34092 0.60191
 H2424 H 0.71648 0.25346 0.65540
 C2425 C 0.25014 0.16887 0.60614
 C2426 C 0.25488 0.18378 0.58919
 C2427 C 0.26072 0.20597 0.59445
 C2428 C 0.26091 0.21323 0.61640
 C2429 C 0.25548 0.19802 0.63303
 C2430 C 0.25042 0.17588 0.62777
 C2431 C 0.25488 0.20511 0.65477
 C2432 C 0.25946 0.22740 0.66057
 C2433 C 0.26539 0.24241 0.64405
 C2434 C 0.26607 0.23539 0.62213
 H2435 H 0.26449 0.21762 0.58154
 H2436 H 0.24644 0.16399 0.64041
 H2437 H 0.25060 0.19312 0.66723
 H2438 H 0.27036 0.24735 0.60967
 H2439 H 0.24621 0.15159 0.60266
 H2440 H 0.26909 0.25964 0.64800
 C2441 C 0.72079 0.69141 0.09533
 C2442 C 0.74046 0.69442 0.08255
 C2443 C 0.75739 0.70857 0.09096
 C2444 C 0.75504 0.71859 0.11168
 C2445 C 0.73560 0.71448 0.12433
 C2446 C 0.71846 0.70124 0.11588
 C2447 C 0.73392 0.72297 0.14558
 C2448 C 0.75147 0.73552 0.15463
 C2449 C 0.77023 0.74066 0.14159
 C2450 C 0.77202 0.73223 0.12026
 H2451 H 0.77231 0.71219 0.08141
 H2452 H 0.70345 0.69792 0.12545
 H2453 H 0.71921 0.71911 0.15541
 H2454 H 0.78700 0.73577 0.11075
 H2455 H 0.70754 0.68033 0.09027
 H2456 H 0.78400 0.75023 0.14823
 C2457 C 0.17782 0.59784 0.27061
 C2458 C 0.16778 0.59119 0.25094
 C2459 C 0.17017 0.60493 0.23247
 C2460 C 0.18197 0.62523 0.23389
 C2461 C 0.19170 0.63164 0.25388
 C2462 C 0.18965 0.61776 0.27206
 C2463 C 0.20318 0.65192 0.25554
 C2464 C 0.20512 0.66629 0.23751
 C2465 C 0.19546 0.65972 0.21762
 C2466 C 0.18404 0.63939 0.21582
 H2467 H 0.16243 0.60012 0.21722
 H2468 H 0.19711 0.62239 0.28750
 H2469 H 0.21045 0.65655 0.27106
 H2470 H 0.17669 0.63483 0.20032
 H2471 H 0.17663 0.58748 0.28496
 H2472 H 0.19659 0.67035 0.20345
 C2473 C 0.68261 0.10215 0.77088
 C2474 C 0.66694 0.09845 0.75392
 C2475 C 0.66310 0.11614 0.73892
 C2476 C 0.67449 0.13659 0.74086
 C2477 C 0.68968 0.13983 0.75820
 C2478 C 0.69364 0.12251 0.77303
 C2479 C 0.70073 0.16033 0.76046
 C2480 C 0.69720 0.17773 0.74537
 C2481 C 0.68240 0.17417 0.72786
 C2482 C 0.67104 0.15388 0.72571
 H2483 H 0.65193 0.11391 0.72518
 H2484 H 0.70521 0.12475 0.78649
 H2485 H 0.71230 0.16263 0.77393
 H2486 H 0.65954 0.15172 0.71219
 H2487 H 0.68575 0.08978 0.78334
 H2488 H 0.67934 0.18720 0.71598
 C2489 C 0.81471 0.09059 0.23571
 C2490 C 0.83011 0.08690 0.25278
 C2491 C 0.83348 0.10419 0.26811
 C2492 C 0.82166 0.12486 0.26633
 C2493 C 0.80657 0.12839 0.24883
 C2494 C 0.80315 0.11113 0.23369
 C2495 C 0.79509 0.14909 0.24672
 C2496 C 0.79808 0.16642 0.26205
 C2497 C 0.81281 0.16262 0.27965
 C2498 C 0.82462 0.14210 0.28168
 H2499 H 0.84515 0.10149 0.28147
 H2500 H 0.79159 0.11355 0.22021
 H2501 H 0.78357 0.15160 0.23320
 H2502 H 0.83606 0.13971 0.29527
 H2503 H 0.81198 0.07770 0.22359
 H2504 H 0.81541 0.17562 0.29169
 C2505 C 0.30744 0.58998 0.73577
 C2506 C 0.32389 0.58696 0.75206
 C2507 C 0.32759 0.60463 0.76690
 C2508 C 0.31519 0.62501 0.76532
 C2509 C 0.29908 0.62786 0.74857
 C2510 C 0.29524 0.61020 0.73399
 C2511 C 0.28719 0.64839 0.74650
 C2512 C 0.29092 0.66624 0.76109
 C2513 C 0.30661 0.66305 0.77803
 C2514 C 0.31870 0.64268 0.78006
 H2515 H 0.34004 0.60249 0.77969
 H2516 H 0.28292 0.61209 0.72106
 H2517 H 0.27501 0.65044 0.73346
 H2518 H 0.33092 0.64082 0.79308
 H2519 H 0.30441 0.57683 0.72399
 H2520 H 0.30989 0.67647 0.78945
 C2521 C 0.32869 0.40029 0.77343
 C2522 C 0.33390 0.40983 0.75306
 C2523 C 0.32789 0.39767 0.73403
 C2524 C 0.31762 0.37655 0.73553
 C2525 C 0.31281 0.36760 0.75618
 C2526 C 0.31831 0.37962 0.77494
 C2527 C 0.30246 0.34677 0.75788
 C2528 C 0.29674 0.33431 0.73920
 C2529 C 0.30192 0.34313 0.71863
 C2530 C 0.31221 0.36407 0.71681
 H2531 H 0.33199 0.40397 0.71804
 H2532 H 0.31448 0.37306 0.79092
 H2533 H 0.29882 0.34029 0.77394
 H2534 H 0.31584 0.37053 0.70076
 H2535 H 0.33176 0.40907 0.78854
 H2536 H 0.29775 0.33402 0.70394
 C2537 C 0.82188 0.90378 0.27238
 C2538 C 0.83257 0.91055 0.25309
 C2539 C 0.83071 0.89702 0.23426
 C2540 C 0.81880 0.87676 0.23498
 C2541 C 0.80850 0.87020 0.25465
 C2542 C 0.80998 0.88389 0.27316
 C2543 C 0.79697 0.84995 0.25567
 C2544 C 0.79547 0.83577 0.23732
 C2545 C 0.80562 0.84248 0.21772
 C2546 C 0.81718 0.86278 0.21656
 H2547 H 0.83894 0.90195 0.21929
 H2548 H 0.80204 0.87914 0.28833
 H2549 H 0.78920 0.84526 0.27095
 H2550 H 0.82496 0.86746 0.20130
 H2551 H 0.82265 0.91400 0.28697
 H2552 H 0.80480 0.83197 0.20333
 C2553 C 0.67577 0.91205 0.73295
 C2554 C 0.66867 0.92111 0.75324
 C2555 C 0.67173 0.90741 0.77194
 C2556 C 0.68158 0.88569 0.77024
 C2557 C 0.68845 0.87735 0.74971
 C2558 C 0.68545 0.89061 0.73124
 C2559 C 0.69840 0.85589 0.74784
 C2560 C 0.70200 0.84234 0.76629
 C2561 C 0.69501 0.85072 0.78676
 C2562 C 0.68487 0.87216 0.78870
 H2563 H 0.66728 0.91364 0.78799
 H2564 H 0.69047 0.88433 0.71530
 H2565 H 0.70365 0.84992 0.73186
 H2566 H 0.67974 0.87822 0.80468
 H2567 H 0.67308 0.92097 0.71790
 H2568 H 0.69755 0.84079 0.80127
 C2569 C 0.18870 0.41131 0.23618
 C2570 C 0.17268 0.41525 0.25286
 C2571 C 0.16881 0.39812 0.26807
 C2572 C 0.18058 0.37738 0.26648
 C2573 C 0.19632 0.37361 0.24940
 C2574 C 0.20035 0.39073 0.23444
 C2575 C 0.20772 0.35276 0.24746
 C2576 C 0.20383 0.33552 0.26252
 C2577 C 0.18837 0.33960 0.27965
 C2578 C 0.17680 0.36028 0.28156
 H2579 H 0.15671 0.40095 0.28117
 H2580 H 0.21238 0.38814 0.22124
 H2581 H 0.21971 0.35004 0.23425
 H2582 H 0.16483 0.36285 0.29481
 H2583 H 0.19183 0.42399 0.22408
 H2584 H 0.18498 0.32670 0.29147
 C2585 C 0.10597 0.21804 0.84079
 C2586 C 0.08974 0.23441 0.83492
 C2587 C 0.09540 0.25097 0.81990
 C2588 C 0.11703 0.25126 0.81075
 C2589 C 0.13336 0.23477 0.81670
 C2590 C 0.12767 0.21818 0.83168
 C2591 C 0.15506 0.23516 0.80754
 C2592 C 0.16057 0.25175 0.79241
 C2593 C 0.14419 0.26808 0.78667
 C2594 C 0.12260 0.26786 0.79582
 H2595 H 0.08307 0.26393 0.81566
 H2596 H 0.13998 0.20540 0.83638
 H2597 H 0.16750 0.22239 0.81199
 H2598 H 0.11025 0.28062 0.79116
 H2599 H 0.10183 0.20512 0.85235
 H2600 H 0.14805 0.28108 0.77510
 C2601 C 0.60808 0.71516 0.34078
 C2602 C 0.59169 0.73179 0.33601
 C2603 C 0.59722 0.74935 0.32205
 C2604 C 0.61869 0.75017 0.31257
 C2605 C 0.63507 0.73326 0.31715
 C2606 C 0.62965 0.71586 0.33136
 C2607 C 0.65647 0.73395 0.30726
 C2608 C 0.66155 0.75124 0.29271
 C2609 C 0.64515 0.76810 0.28856
 C2610 C 0.62393 0.76759 0.29845
 H2611 H 0.58480 0.76252 0.31869
 H2612 H 0.64200 0.70276 0.33507
 H2613 H 0.66893 0.72082 0.31055
 H2614 H 0.61154 0.78070 0.29487
 H2615 H 0.60409 0.70149 0.35154
 H2616 H 0.64866 0.78169 0.27754
 C2617 C 0.60218 0.27354 0.15695
 C2618 C 0.58826 0.25516 0.16081
 C2619 C 0.59576 0.23816 0.17490
 C2620 C 0.61671 0.23962 0.18529
 C2621 C 0.63058 0.25817 0.18138
 C2622 C 0.62320 0.27501 0.16712
 C2623 C 0.65147 0.25968 0.19195
 C2624 C 0.65858 0.24298 0.20658
 C2625 C 0.64464 0.22457 0.21029
 C2626 C 0.62393 0.22286 0.19967
 H2627 H 0.58533 0.22373 0.17771
 H2628 H 0.63358 0.28939 0.16399
 H2629 H 0.66201 0.27401 0.18900
 H2630 H 0.61350 0.20852 0.20282
 H2631 H 0.59663 0.28698 0.14635
 H2632 H 0.64976 0.21139 0.22138
 C2633 C 0.08086 0.72658 0.69357
 C2634 C 0.07736 0.74290 0.67751
 C2635 C 0.09324 0.75975 0.67476
 C2636 C 0.11314 0.75962 0.68692
 C2637 C 0.11711 0.74267 0.70249
 C2638 C 0.10063 0.72648 0.70604
 C2639 C 0.13776 0.74181 0.71368
 C2640 C 0.15455 0.75747 0.70912
 C2641 C 0.15002 0.77465 0.69409
 C2642 C 0.12946 0.77577 0.68316
 H2643 H 0.09037 0.77265 0.66266
 H2644 H 0.10334 0.71341 0.71796
 H2645 H 0.14105 0.72854 0.72527
 H2646 H 0.12655 0.78893 0.67136
 H2647 H 0.06872 0.71345 0.69589
 H2648 H 0.16252 0.78714 0.69053
 C2649 C 0.88915 0.72563 0.65283
 C2650 C 0.90680 0.73944 0.66008
 C2651 C 0.90241 0.75391 0.67790
 C2652 C 0.88106 0.75515 0.68770
 C2653 C 0.86358 0.74146 0.68007
 C2654 C 0.86782 0.72666 0.66273
 C2655 C 0.84221 0.74271 0.69002
 C2656 C 0.83817 0.75746 0.70760
 C2657 C 0.85572 0.77112 0.71494
 C2658 C 0.87699 0.76993 0.70511
 H2659 H 0.91570 0.76385 0.68485
 H2660 H 0.85455 0.71608 0.65661
 H2661 H 0.82887 0.73203 0.68420
 H2662 H 0.89025 0.78057 0.71114
 H2663 H 0.89123 0.71466 0.63886
 H2664 H 0.85314 0.78262 0.72847
 C2665 C 0.40134 0.21468 0.17166
 C2666 C 0.41672 0.23083 0.17859
 C2667 C 0.41105 0.24489 0.19625
 C2668 C 0.38953 0.24420 0.20572
 C2669 C 0.37366 0.22874 0.19790
 C2670 C 0.37995 0.21357 0.18133
 C2671 C 0.35154 0.22928 0.20619
 C2672 C 0.34501 0.24524 0.22205
 C2673 C 0.36120 0.26000 0.23024
 C2674 C 0.38329 0.25945 0.22217
 H2675 H 0.42303 0.25714 0.20189
 H2676 H 0.36803 0.20152 0.17524
 H2677 H 0.33933 0.21759 0.19992
 H2678 H 0.39532 0.27134 0.22838
 H2679 H 0.40535 0.20377 0.15797
 H2680 H 0.35669 0.27234 0.24260
 C2681 C 0.41729 0.73546 0.29451
 C2682 C 0.41953 0.74823 0.31362
 C2683 C 0.40096 0.76096 0.32149
 C2684 C 0.38011 0.76041 0.31083
 C2685 C 0.37782 0.74720 0.29184
 C2686 C 0.39659 0.73504 0.28361
 C2687 C 0.35671 0.74601 0.28166
 C2688 C 0.33778 0.75773 0.29033
 C2689 C 0.34038 0.77106 0.30908
 C2690 C 0.36138 0.77240 0.31922
 H2691 H 0.40245 0.77054 0.33645
 H2692 H 0.39514 0.72488 0.26903
 H2693 H 0.35501 0.73573 0.26718
 H2694 H 0.36289 0.78261 0.33377
 H2695 H 0.43149 0.72562 0.28816
 H2696 H 0.32614 0.78036 0.31607
 C2697 C 0.91384 0.24061 0.79815
 C2698 C 0.91668 0.25297 0.81742
 C2699 C 0.89816 0.26474 0.82661
 C2700 C 0.87685 0.26390 0.81694
 C2701 C 0.87399 0.25131 0.79763
 C2702 C 0.89262 0.23988 0.78823
 C2703 C 0.85251 0.25022 0.78817
 C2704 C 0.83387 0.26155 0.79781
 C2705 C 0.83697 0.27399 0.81704
 C2706 C 0.85829 0.27516 0.82652
 H2707 H 0.90016 0.27393 0.84174
 H2708 H 0.89073 0.23018 0.77341
 H2709 H 0.85039 0.24063 0.77331
 H2710 H 0.86024 0.28482 0.84136
 H2711 H 0.92800 0.23142 0.79088
 H2712 H 0.82291 0.28287 0.82483
 C2713 C 0.58525 0.99012 0.64356
 C2714 C 0.57245 1.00327 0.65838
 C2715 C 0.55202 1.01349 0.65132
 C2716 C 0.54493 1.01109 0.62952
 C2717 C 0.55824 0.99804 0.61485
 C2718 C 0.57821 0.98747 0.62208
 C2719 C 0.55158 0.99587 0.59307
 C2720 C 0.53175 1.00668 0.58534
 C2721 C 0.51850 1.01956 0.60007
 C2722 C 0.52500 1.02172 0.62195
 H2723 H 0.54206 1.02375 0.66258
 H2724 H 0.58855 0.97732 0.61105
 H2725 H 0.56208 0.98582 0.58208
 H2726 H 0.51454 1.03183 0.63289
 H2727 H 0.60083 0.98182 0.64865
 H2728 H 0.50316 1.02809 0.59467
 C2729 C 0.07786 0.48376 1.14576
 C2730 C 0.06837 0.49870 1.16158
 C2731 C 0.05012 0.51299 1.15465
 C2732 C 0.04182 0.51205 1.13311
 C2733 C 0.05186 0.49689 1.11812
 C2734 C 0.06972 0.48287 1.12460
 C2735 C 0.04419 0.49603 1.09665
 C2736 C 0.02644 0.51019 1.08944
 C2737 C 0.01601 0.52501 1.10448
 C2738 C 0.02367 0.52595 1.12615
 H2739 H 0.04153 0.52429 1.16592
 H2740 H 0.07780 0.47137 1.11309
 H2741 H 0.05228 0.48421 1.08546
 H2742 H 0.01556 0.53769 1.13738
 H2743 H 0.09267 0.47337 1.14888
 H2744 H 0.00229 0.53610 1.09942
 C2745 C -0.04548 -0.03062 1.16706
 C2746 C -0.05277 -0.00930 1.17493
 C2747 C -0.04755 0.00953 1.16218
 C2748 C -0.03711 0.00714 1.14174
 C2749 C -0.03093 -0.01436 1.13370
 C2750 C -0.03474 -0.03307 1.14675
 C2751 C -0.02195 -0.01673 1.11246
 C2752 C -0.01975 0.00221 1.09923
 C2753 C -0.02525 0.02351 1.10772
 C2754 C -0.03358 0.02600 1.12885
 H2755 H -0.05145 0.02631 1.16803
 H2756 H -0.03012 -0.04972 1.14093
 H2757 H -0.01794 -0.03322 1.10584
 H2758 H -0.03813 0.04263 1.13479
 H2759 H -0.04919 -0.04577 1.17578
 H2760 H -0.02369 0.03824 1.09767
 C2761 C 0.41191 0.49532 0.64442
 C2762 C 0.42767 0.49172 0.66120
 C2763 C 0.45007 0.48502 0.65579
 C2764 C 0.45676 0.48289 0.63377
 C2765 C 0.44071 0.48704 0.61720
 C2766 C 0.41832 0.49293 0.62268
 C2767 C 0.44733 0.48589 0.59532
 C2768 C 0.47002 0.48116 0.58937
 C2769 C 0.48583 0.47646 0.60590
 C2770 C 0.47924 0.47723 0.62791
 H2771 H 0.46234 0.48218 0.66861
 H2772 H 0.40580 0.49605 0.61013
 H2773 H 0.43476 0.48944 0.58290
 H2774 H 0.49182 0.47392 0.64034
 H2775 H 0.39448 0.50000 0.64815
 H2776 H 0.50341 0.47277 0.60187
 C2777 C 0.42969 0.48186 -0.14917
 C2778 C 0.43786 0.49798 -0.16358
 C2779 C 0.45642 0.51102 -0.15735
 C2780 C 0.46595 0.50858 -0.13641
 C2781 C 0.45707 0.49260 -0.12202
 C2782 C 0.43926 0.47910 -0.12867
 C2783 C 0.46558 0.49073 -0.10088
 C2784 C 0.48267 0.50487 -0.09334
 C2785 C 0.49198 0.52032 -0.10787
 C2786 C 0.48371 0.52213 -0.12926
 H2787 H 0.46279 0.52351 -0.16839
 H2788 H 0.43236 0.46671 -0.11781
 H2789 H 0.45834 0.47848 -0.09007
 H2790 H 0.49083 0.53446 -0.14002
 H2791 H 0.41565 0.47147 -0.15376
 H2792 H 0.50515 0.53142 -0.10253
 C2793 C -0.07880 1.02496 0.36051
 C2794 C -0.06578 1.01454 0.34387
 C2795 C -0.04295 1.00866 0.34828
 C2796 C -0.03380 1.01204 0.36917
 C2797 C -0.04771 1.02108 0.38595
 C2798 C -0.06998 1.02795 0.38133
 C2799 C -0.03945 1.02234 0.40729
 C2800 C -0.01731 1.01496 0.41212
 C2801 C -0.00301 1.00738 0.39519
 C2802 C -0.01124 1.00579 0.37386
 H2803 H -0.03251 1.00065 0.33582
 H2804 H -0.08072 1.03534 0.39392
 H2805 H -0.05053 1.02820 0.42035
 H2806 H -0.00021 0.99900 0.36119
 H2807 H -0.09603 1.03069 0.35759
 H2808 H 0.01404 1.00140 0.39870
 C2809 C 0.03312 0.50665 0.33448
 C2810 C 0.05279 0.49337 0.33094
 C2811 C 0.05935 0.47771 0.34687
 C2812 C 0.04723 0.47616 0.36651
 C2813 C 0.02798 0.49019 0.37027
 C2814 C 0.02082 0.50505 0.35395
 C2815 C 0.01699 0.48989 0.39067
 C2816 C 0.02543 0.47611 0.40736
 C2817 C 0.04406 0.46172 0.40320
 C2818 C 0.05471 0.46151 0.38285
 H2819 H 0.07424 0.46708 0.34420
 H2820 H 0.00611 0.51594 0.35650
 H2821 H 0.00294 0.50140 0.39404
 H2822 H 0.06942 0.45064 0.38025
 H2823 H 0.02772 0.51887 0.32253
 H2824 H 0.05095 0.45129 0.41605
 C2825 C 0.57976 0.00814 -0.14614
 C2826 C 0.56445 0.00351 -0.16297
 C2827 C 0.54306 -0.00512 -0.15760
 C2828 C 0.53689 -0.00821 -0.13558
 C2829 C 0.55246 -0.00299 -0.11900
 C2830 C 0.57388 0.00490 -0.12445
 C2831 C 0.54630 -0.00517 -0.09710
 C2832 C 0.52447 -0.01199 -0.09110
 C2833 C 0.50919 -0.01777 -0.10764
 C2834 C 0.51539 -0.01598 -0.12969
 H2835 H 0.53114 -0.00886 -0.17041
 H2836 H 0.58604 0.00883 -0.11189
 H2837 H 0.55848 -0.00079 -0.08469
 H2838 H 0.50318 -0.02015 -0.14211
 H2839 H 0.59653 0.01417 -0.14978
 H2840 H 0.49226 -0.02304 -0.10356
 C2841 C 0.65204 0.58392 0.01825
 C2842 C 0.66297 0.58593 -0.00203
 C2843 C 0.65234 0.57720 -0.02075
 C2844 C 0.63130 0.56655 -0.01908
 C2845 C 0.62091 0.56445 0.00152
 C2846 C 0.63137 0.57321 0.02002
 C2847 C 0.60015 0.55366 0.00340
 C2848 C 0.58923 0.54490 -0.01504
 C2849 C 0.59949 0.54732 -0.03557
 C2850 C 0.62040 0.55795 -0.03756
 H2851 H 0.66048 0.57845 -0.03651
 H2852 H 0.62347 0.57192 0.03591
 H2853 H 0.59245 0.55224 0.01937
 H2854 H 0.62803 0.55944 -0.05354
 H2855 H 0.65930 0.59095 0.03286
 H2856 H 0.59149 0.54080 -0.05005
 C2857 C 0.16759 1.06054 0.51584
 C2858 C 0.17041 1.07653 0.49941
 C2859 C 0.15279 1.08008 0.48428
 C2860 C 0.13254 1.06812 0.48581
 C2861 C 0.12978 1.05251 0.50274
 C2862 C 0.14748 1.04870 0.51753
 C2863 C 0.10927 1.04115 0.50478
 C2864 C 0.09140 1.04498 0.49000
 C2865 C 0.09457 1.06015 0.47289
 C2866 C 0.11490 1.07167 0.47086
 H2867 H 0.15482 1.09216 0.47137
 H2868 H 0.14567 1.03676 0.53059
 H2869 H 0.10722 1.02938 0.51797
 H2870 H 0.11673 1.08352 0.45772
 H2871 H 0.18073 1.05764 0.52781
 H2872 H 0.08114 1.06349 0.46131
 C2873 C 0.16165 -0.05999 0.98970
 C2874 C 0.16699 -0.07349 1.00792
 C2875 C 0.15146 -0.07297 1.02567
 C2876 C 0.13126 -0.05991 1.02492
 C2877 C 0.12634 -0.04705 1.00630
 C2878 C 0.14172 -0.04702 0.98896
 C2879 C 0.10583 -0.03481 1.00501
 C2880 C 0.08978 -0.03527 1.02204
 C2881 C 0.09512 -0.04755 1.04087
 C2882 C 0.11568 -0.05972 1.04231
 H2883 H 0.15505 -0.08226 1.04036
 H2884 H 0.13810 -0.03733 0.97447
 H2885 H 0.10217 -0.02534 0.99039
 H2886 H 0.11915 -0.06939 1.05683
 H2887 H 0.17210 -0.06013 0.97522
 H2888 H 0.08314 -0.04830 1.05423
 C2889 C 0.65890 0.43528 0.48524
 C2890 C 0.66431 0.42278 0.50410
 C2891 C 0.64859 0.42383 0.52167
 C2892 C 0.62809 0.43623 0.52010
 C2893 C 0.62305 0.44805 0.50087
 C2894 C 0.63867 0.44770 0.48370
 C2895 C 0.60221 0.45959 0.49881
 C2896 C 0.58595 0.45934 0.51567
 C2897 C 0.59141 0.44807 0.53507
 C2898 C 0.61229 0.43669 0.53729
 H2899 H 0.65224 0.41542 0.53684
 H2900 H 0.63499 0.45660 0.46876
 H2901 H 0.59844 0.46823 0.48374
 H2902 H 0.61586 0.42781 0.55226
 H2903 H 0.66956 0.43471 0.47090
 H2904 H 0.57929 0.44750 0.54833
 C2905 C -0.15529 0.42225 0.51802
 C2906 C -0.16282 0.41349 0.49807
 C2907 C -0.14899 0.41575 0.47941
 C2908 C -0.12805 0.42662 0.48077
 C2909 C -0.12097 0.43537 0.50097
 C2910 C -0.13469 0.43312 0.51943
 C2911 C -0.10017 0.44608 0.50256
 C2912 C -0.08588 0.44822 0.48428
 C2913 C -0.09303 0.43951 0.46417
 C2914 C -0.11395 0.42886 0.46243
 H2915 H -0.15454 0.40922 0.46387
 H2916 H -0.12939 0.43961 0.53508
 H2917 H -0.09507 0.45258 0.51827
 H2918 H -0.11903 0.42225 0.44677
 H2919 H -0.16516 0.42034 0.53276
 H2920 H -0.08243 0.44082 0.44983
 C2921 C 0.33594 -0.05778 0.00668
 C2922 C 0.33545 -0.07814 -0.00500
 C2923 C 0.35480 -0.08467 -0.01732
 C2924 C 0.37428 -0.07145 -0.01748
 C2925 C 0.37470 -0.05165 -0.00484
 C2926 C 0.35537 -0.04484 0.00694
 C2927 C 0.39459 -0.03918 -0.00383
 C2928 C 0.41408 -0.04599 -0.01559
 C2929 C 0.41320 -0.06513 -0.02894
 C2930 C 0.39353 -0.07786 -0.02975
 H2931 H 0.35506 -0.10031 -0.02633
 H2932 H 0.35528 -0.02950 0.01646
 H2933 H 0.39502 -0.02433 0.00639
 H2934 H 0.39351 -0.09291 -0.03968
 H2935 H 0.32126 -0.05168 0.01570
 H2936 H 0.42803 -0.07079 -0.03804
 C2937 C 0.35371 1.07539 0.47683
 C2938 C 0.34696 1.08438 0.49712
 C2939 C 0.36117 1.08092 0.51527
 C2940 C 0.38205 1.06911 0.51297
 C2941 C 0.38859 1.06045 0.49238
 C2942 C 0.37423 1.06355 0.47449
 C2943 C 0.40944 1.04894 0.48987
 C2944 C 0.42424 1.04590 0.50763
 C2945 C 0.41755 1.05452 0.52811
 C2946 C 0.39667 1.06597 0.53076
 H2947 H 0.35626 1.08784 0.53099
 H2948 H 0.37894 1.05692 0.45860
 H2949 H 0.41417 1.04247 0.47392
 H2950 H 0.39202 1.07248 0.54670
 H2951 H 0.34299 1.07743 0.46268
 H2952 H 0.42848 1.05249 0.54211
 C2953 C -0.15850 0.56402 0.98335
 C2954 C -0.16137 0.58142 0.99866
 C2955 C -0.14413 0.58513 1.01400
 C2956 C -0.12421 0.57167 1.01391
 C2957 C -0.12135 0.55462 0.99802
 C2958 C -0.13865 0.55084 0.98294
 C2959 C -0.10107 0.54189 0.99717
 C2960 C -0.08348 0.54575 1.01209
 C2961 C -0.08683 0.56214 1.02838
 C2962 C -0.10697 0.57505 1.02922
 H2963 H -0.14631 0.59838 1.02602
 H2964 H -0.13675 0.53780 0.97069
 H2965 H -0.09883 0.52920 0.98460
 H2966 H -0.10889 0.58794 1.04162
 H2967 H -0.17149 0.56092 0.97136
 H2968 H -0.07354 0.56556 1.03997
 C2969 C -0.00325 0.65975 0.53295
 C2970 C 0.00351 0.66150 0.55478
 C2971 C 0.00881 0.64202 0.56652
 C2972 C 0.00756 0.62104 0.55668
 C2973 C 0.00065 0.61930 0.53475
 C2974 C -0.00465 0.63875 0.52297
 C2975 C -0.00091 0.59813 0.52507
 C2976 C 0.00456 0.57880 0.53704
 C2977 C 0.01158 0.58081 0.55878
 C2978 C 0.01298 0.60177 0.56855
 H2979 H 0.01343 0.64313 0.58355
 H2980 H -0.00994 0.63772 0.50613
 H2981 H -0.00619 0.59674 0.50824
 H2982 H 0.01830 0.60291 0.58539
 H2983 H -0.00738 0.67461 0.52363
 H2984 H 0.01579 0.56614 0.56836
 C2985 C 0.47743 0.16671 0.03910
 C2986 C 0.49211 0.17037 0.05664
 C2987 C 0.50537 0.15252 0.06469
 C2988 C 0.50402 0.13121 0.05549
 C2989 C 0.48926 0.12754 0.03784
 C2990 C 0.47609 0.14542 0.02968
 C2991 C 0.48778 0.10602 0.02884
 C2992 C 0.50081 0.08815 0.03739
 C2993 C 0.51545 0.09212 0.05493
 C2994 C 0.51706 0.11346 0.06389
 H2995 H 0.51633 0.15509 0.07858
 H2996 H 0.46466 0.14290 0.01616
 H2997 H 0.47641 0.10321 0.01532
 H2998 H 0.52845 0.11607 0.07742
 H2999 H 0.46705 0.18030 0.03272
 H3000 H 0.52580 0.07873 0.06177
 C3001 C -0.00257 0.16931 0.95942
 C3002 C -0.01355 0.16956 0.93919
 C3003 C -0.02395 0.15022 0.93149
 C3004 C -0.02189 0.13026 0.94299
 C3005 C -0.00981 0.12974 0.96281
 C3006 C -0.00078 0.14949 0.97124
 C3007 C -0.00625 0.10936 0.97343
 C3008 C -0.01439 0.08947 0.96434
 C3009 C -0.02707 0.09035 0.94500
 C3010 C -0.03083 0.11061 0.93444
 H3011 H -0.03273 0.15051 0.91601
 H3012 H 0.00841 0.14940 0.98648
 H3013 H 0.00332 0.10897 0.98847
 H3014 H -0.04022 0.11080 0.91931
 H3015 H 0.00561 0.18413 0.96553
 H3016 H -0.03379 0.07532 0.93777
 C3017 C 0.49126 0.65997 0.45660
 C3018 C 0.48228 0.66071 0.43548
 C3019 C 0.47227 0.64168 0.42660
 C3020 C 0.47275 0.62154 0.43797
 C3021 C 0.48288 0.62056 0.45876
 C3022 C 0.49149 0.64000 0.46823
 C3023 C 0.48514 0.59999 0.46931
 C3024 C 0.47776 0.58032 0.45918
 C3025 C 0.46677 0.58166 0.43893
 C3026 C 0.46423 0.60214 0.42844
 H3027 H 0.46498 0.64234 0.41042
 H3028 H 0.49919 0.63954 0.48421
 H3029 H 0.49340 0.59926 0.48504
 H3030 H 0.45628 0.60269 0.41257
 H3031 H 0.49910 0.67453 0.46366
 H3032 H 0.46067 0.56680 0.43088
 C3033 C 0.48614 0.83284 0.44801
 C3034 C 0.49818 0.82975 0.42842
 C3035 C 0.50995 0.84767 0.41947
 C3036 C 0.50985 0.86845 0.42999
 C3037 C 0.49773 0.87148 0.44971
 C3038 C 0.48592 0.85358 0.45861
 C3039 C 0.49759 0.89235 0.46016
 C3040 C 0.50944 0.91025 0.45115
 C3041 C 0.52148 0.90698 0.43153
 C3042 C 0.52165 0.88626 0.42103
 H3043 H 0.51893 0.84553 0.40414
 H3044 H 0.47657 0.85560 0.47374
 H3045 H 0.48826 0.89460 0.47529
 H3046 H 0.53101 0.88418 0.40591
 H3047 H 0.47709 0.81915 0.45525
 H3048 H 0.53073 0.92047 0.42418
 C3049 C -0.00927 0.33843 0.94956
 C3050 C 0.00155 0.33637 0.92922
 C3051 C 0.01282 0.35474 0.92049
 C3052 C 0.01300 0.37510 0.93180
 C3053 C 0.00181 0.37710 0.95212
 C3054 C -0.00913 0.35865 0.96095
 C3055 C 0.00140 0.39762 0.96313
 C3056 C 0.01188 0.41630 0.95406
 C3057 C 0.02333 0.41404 0.93402
 C3058 C 0.02389 0.39358 0.92297
 H3059 H 0.02096 0.35335 0.90467
 H3060 H -0.01770 0.35992 0.97656
 H3061 H -0.00741 0.39905 0.97861
 H3062 H 0.03258 0.39228 0.90743
 H3063 H -0.01778 0.32434 0.95668
 H3064 H 0.03158 0.42816 0.92668
 C3065 C 0.46125 0.35598 0.07770
 C3066 C 0.48168 0.34404 0.08084
 C3067 C 0.50219 0.35308 0.07411
 C3068 C 0.50248 0.37399 0.06424
 C3069 C 0.48196 0.38632 0.06145
 C3070 C 0.46141 0.37718 0.06823
 C3071 C 0.48240 0.40738 0.05164
 C3072 C 0.50296 0.41575 0.04401
 C3073 C 0.52316 0.40327 0.04660
 C3074 C 0.52297 0.38261 0.05688
 H3075 H 0.51791 0.34360 0.07628
 H3076 H 0.44553 0.38634 0.06607
 H3077 H 0.46676 0.41694 0.04934
 H3078 H 0.53877 0.37327 0.05885
 H3079 H 0.44532 0.34901 0.08284
 H3080 H 0.53913 0.40963 0.04080
 C3081 C -0.02918 0.84917 0.57429
 C3082 C -0.00972 0.83550 0.57162
 C3083 C 0.00888 0.84333 0.55993
 C3084 C 0.00842 0.86492 0.55144
 C3085 C -0.01090 0.87897 0.55475
 C3086 C -0.02975 0.87086 0.56596
 C3087 C -0.01096 0.90089 0.54691
 C3088 C 0.00791 0.90875 0.53553
 C3089 C 0.02680 0.89450 0.53191
 C3090 C 0.02711 0.87276 0.53993
 H3091 H 0.02379 0.83261 0.55763
 H3092 H -0.04474 0.88136 0.56851
 H3093 H -0.02570 0.91175 0.54950
 H3094 H 0.04199 0.86214 0.53722
 H3095 H -0.04364 0.84328 0.58336
 H3096 H 0.04152 0.90028 0.52317
 C3097 C 0.23151 0.30262 0.09934
 C3098 C 0.25250 0.30544 0.08887
 C3099 C 0.27238 0.29710 0.09905
 C3100 C 0.27130 0.28725 0.11985
 C3101 C 0.25012 0.28576 0.13048
 C3102 C 0.23035 0.29302 0.11992
 C3103 C 0.24904 0.27770 0.15180
 C3104 C 0.26877 0.27088 0.16285
 C3105 C 0.28970 0.27122 0.15195
 C3106 C 0.29098 0.27948 0.13060
 H3107 H 0.28871 0.29910 0.09127
 H3108 H 0.21395 0.29165 0.12776
 H3109 H 0.23280 0.27729 0.16012
 H3110 H 0.30738 0.28031 0.12270
 H3111 H 0.21587 0.30812 0.09171
 H3112 H 0.30509 0.26609 0.16027
 C3113 C 0.78738 0.78765 0.58972
 C3114 C 0.76875 0.80124 0.58362
 C3115 C 0.75035 0.80386 0.59794
 C3116 C 0.75082 0.79394 0.61851
 C3117 C 0.76999 0.78108 0.62513
 C3118 C 0.78804 0.77770 0.61038
 C3119 C 0.77095 0.77260 0.64655
 C3120 C 0.75307 0.77731 0.66125
 C3121 C 0.73376 0.78920 0.65389
 C3122 C 0.73262 0.79739 0.63280
 H3123 H 0.73581 0.81410 0.59317
 H3124 H 0.80286 0.76782 0.61499
 H3125 H 0.78590 0.76343 0.65204
 H3126 H 0.71773 0.80699 0.62787
 H3127 H 0.80172 0.78542 0.57881
 H3128 H 0.71957 0.79270 0.66472
 C3129 C 0.24141 0.66710 0.60369
 C3130 C 0.23910 0.68258 0.58666
 C3131 C 0.23350 0.70511 0.59170
 C3132 C 0.23124 0.71214 0.61358
 C3133 C 0.23423 0.69635 0.63041
 C3134 C 0.23896 0.67388 0.62530
 C3135 C 0.23318 0.70329 0.65218
 C3136 C 0.22969 0.72599 0.65774
 C3137 C 0.22589 0.74156 0.64099
 C3138 C 0.22660 0.73467 0.61908
 H3139 H 0.23161 0.71720 0.57870
 H3140 H 0.24113 0.66156 0.63805
 H3141 H 0.23588 0.69095 0.66484
 H3142 H 0.22415 0.74706 0.60644
 H3143 H 0.24510 0.64959 0.60027
 H3144 H 0.22318 0.75915 0.64478
 C3145 C 0.71182 0.20269 0.09120
 C3146 C 0.73382 0.19815 0.08315
 C3147 C 0.75250 0.20504 0.09536
 C3148 C 0.74941 0.21505 0.11587
 C3149 C 0.72728 0.21872 0.12433
 C3150 C 0.70857 0.21293 0.11159
 C3151 C 0.72439 0.22705 0.14571
 C3152 C 0.74346 0.23104 0.15867
 C3153 C 0.76526 0.22815 0.14973
 C3154 C 0.76823 0.22045 0.12846
 H3155 H 0.76952 0.20197 0.08915
 H3156 H 0.69148 0.21562 0.11771
 H3157 H 0.70755 0.22903 0.15269
 H3158 H 0.78528 0.21782 0.12219
 H3159 H 0.69714 0.19749 0.08210
 H3160 H 0.78011 0.23116 0.15956
 C3161 C 0.71946 0.20005 0.90794
 C3162 C 0.74039 0.19780 0.91867
 C3163 C 0.75946 0.20849 0.90990
 C3164 C 0.75781 0.22014 0.89006
 C3165 C 0.73685 0.22113 0.87903
 C3166 C 0.71772 0.21151 0.88832
 C3167 C 0.73548 0.23089 0.85843
 C3168 C 0.75475 0.23968 0.84843
 C3169 C 0.77528 0.23989 0.85986
 C3170 C 0.77682 0.23011 0.88056
 H3171 H 0.77572 0.20695 0.91795
 H3172 H 0.70148 0.21242 0.88017
 H3173 H 0.71953 0.23085 0.84971
 H3174 H 0.79302 0.22967 0.88881
 H3175 H 0.70437 0.19266 0.91460
 H3176 H 0.79034 0.24649 0.85233
 C3177 C 0.25262 0.66944 0.39343
 C3178 C 0.25284 0.68505 0.41063
 C3179 C 0.25718 0.70768 0.40607
 C3180 C 0.26012 0.71468 0.38435
 C3181 C 0.25924 0.69874 0.36732
 C3182 C 0.25589 0.67617 0.37204
 C3183 C 0.26086 0.70559 0.34567
 C3184 C 0.26264 0.72836 0.34036
 C3185 C 0.26442 0.74414 0.35732
 C3186 C 0.26326 0.73733 0.37917
 H3187 H 0.25747 0.71981 0.41925
 H3188 H 0.25531 0.66376 0.35912
 H3189 H 0.25979 0.69309 0.33285
 H3190 H 0.26408 0.74985 0.39196
 H3191 H 0.24984 0.65189 0.39659
 H3192 H 0.26580 0.76178 0.35371
 C3193 C 0.78406 0.79772 0.40208
 C3194 C 0.76365 0.80145 0.41360
 C3195 C 0.74321 0.79431 0.40420
 C3196 C 0.74312 0.78472 0.38322
 C3197 C 0.76367 0.78243 0.37146
 C3198 C 0.78405 0.78848 0.38119
 C3199 C 0.76345 0.77483 0.34987
 C3200 C 0.74303 0.76920 0.33982
 C3201 C 0.72279 0.77023 0.35186
 C3202 C 0.72280 0.77809 0.37343
 H3203 H 0.72729 0.79707 0.41273
 H3204 H 0.79999 0.78645 0.37249
 H3205 H 0.77913 0.77389 0.34059
 H3206 H 0.70689 0.77956 0.38223
 H3207 H 0.80014 0.80226 0.40908
 H3208 H 0.70689 0.76601 0.34426
 C3209 C 0.27579 0.31560 0.90189
 C3210 C 0.25795 0.31051 0.91611
 C3211 C 0.24091 0.29601 0.90895
 C3212 C 0.24119 0.28770 0.88738
 C3213 C 0.25885 0.29381 0.87316
 C3214 C 0.27625 0.30734 0.88067
 C3215 C 0.25868 0.28675 0.85143
 C3216 C 0.24110 0.27362 0.84330
 C3217 C 0.22397 0.26682 0.85761
 C3218 C 0.22395 0.27391 0.87949
 H3219 H 0.22706 0.29200 0.91979
 H3220 H 0.29002 0.31194 0.86997
 H3221 H 0.27229 0.29174 0.84071
 H3222 H 0.21030 0.26892 0.89012
 H3223 H 0.28928 0.32636 0.90715
 H3224 H 0.21033 0.25658 0.85174
 C3225 C 0.82407 0.41007 0.73458
 C3226 C 0.82931 0.41962 0.75491
 C3227 C 0.82325 0.40798 0.77399
 C3228 C 0.81218 0.38728 0.77265
 C3229 C 0.80691 0.37826 0.75205
 C3230 C 0.81292 0.38976 0.73317
 C3231 C 0.79585 0.35776 0.75052
 C3232 C 0.78996 0.34571 0.76931
 C3233 C 0.79543 0.35471 0.78980
 C3234 C 0.80633 0.37534 0.79146
 H3235 H 0.82698 0.41502 0.78984
 H3236 H 0.80918 0.38294 0.71722
 H3237 H 0.79203 0.35111 0.73452
 H3238 H 0.81025 0.38191 0.80745
 H3239 H 0.82899 0.41806 0.71958
 H3240 H 0.79116 0.34588 0.80455
 C3241 C 0.31741 0.90571 0.22861
 C3242 C 0.32570 0.91415 0.24863
 C3243 C 0.32089 0.90157 0.26770
 C3244 C 0.30943 0.88107 0.26648
 C3245 C 0.30188 0.87318 0.24617
 C3246 C 0.30568 0.88574 0.22748
 C3247 C 0.29093 0.85263 0.24469
 C3248 C 0.28767 0.83924 0.26322
 C3249 C 0.29520 0.84721 0.28348
 C3250 C 0.30585 0.86798 0.28511
 H3251 H 0.32726 0.90661 0.28342
 H3252 H 0.29965 0.88005 0.21179
 H3253 H 0.28543 0.84687 0.22884
 H3254 H 0.31157 0.87365 0.30091
 H3255 H 0.31888 0.91484 0.21357
 H3256 H 0.29299 0.83736 0.29804
 C3257 C 0.19186 0.91574 0.75945
 C3258 C 0.17328 0.91878 0.74547
 C3259 C 0.16777 0.90143 0.73088
 C3260 C 0.18026 0.88108 0.73074
 C3261 C 0.19838 0.87801 0.74546
 C3262 C 0.20425 0.89554 0.75950
 C3263 C 0.20993 0.85727 0.74637
 C3264 C 0.20375 0.83939 0.73272
 C3265 C 0.18637 0.84290 0.71746
 C3266 C 0.17467 0.86355 0.71653
 H3267 H 0.15363 0.90369 0.71984
 H3268 H 0.21816 0.89348 0.77083
 H3269 H 0.22346 0.85489 0.75808
 H3270 H 0.16092 0.86563 0.70503
 H3271 H 0.19635 0.92876 0.77090
 H3272 H 0.18123 0.82941 0.70683
 C3273 C 0.66597 0.40193 0.27232
 C3274 C 0.66191 0.41130 0.25169
 C3275 C 0.66727 0.39830 0.23299
 C3276 C 0.67665 0.37648 0.23495
 C3277 C 0.68083 0.36758 0.25582
 C3278 C 0.67537 0.38040 0.27436
 C3279 C 0.69054 0.34603 0.25790
 C3280 C 0.69628 0.33298 0.23939
 C3281 C 0.69171 0.34186 0.21866
 C3282 C 0.68203 0.36340 0.21646
 H3283 H 0.66445 0.40521 0.21694
 H3284 H 0.67832 0.37374 0.29050
 H3285 H 0.69377 0.33953 0.27406
 H3286 H 0.67891 0.36989 0.20029
 H3287 H 0.66155 0.41112 0.28703
 H3288 H 0.69594 0.33230 0.20411
 C3289 C 0.69052 0.59126 0.23215
 C3290 C 0.67365 0.58859 0.24807
 C3291 C 0.66942 0.60602 0.26320
 C3292 C 0.68166 0.62596 0.26224
 C3293 C 0.69807 0.62870 0.24571
 C3294 C 0.70251 0.61116 0.23089
 C3295 C 0.70955 0.64901 0.24410
 C3296 C 0.70515 0.66661 0.25902
 C3297 C 0.68935 0.66341 0.27584
 C3298 C 0.67761 0.64334 0.27736
 H3299 H 0.65660 0.60403 0.27569
 H3300 H 0.71511 0.61292 0.21817
 H3301 H 0.72184 0.65115 0.23116
 H3302 H 0.66518 0.64151 0.29022
 H3303 H 0.69398 0.57814 0.22027
 H3304 H 0.68557 0.67668 0.28748
 C3305 C 0.18184 0.09517 0.73454
 C3306 C 0.16897 0.09048 0.75322
 C3307 C 0.16928 0.10569 0.77090
 C3308 C 0.18173 0.12556 0.76959
 C3309 C 0.19419 0.13009 0.75050
 C3310 C 0.19431 0.11470 0.73320
 C3311 C 0.20607 0.15011 0.74878
 C3312 C 0.20569 0.16605 0.76581
 C3313 C 0.19355 0.16123 0.78493
 C3314 C 0.18171 0.14118 0.78680
 H3315 H 0.15937 0.10238 0.78538
 H3316 H 0.20389 0.11787 0.71849
 H3317 H 0.21537 0.15337 0.73392
 H3318 H 0.17229 0.13804 0.80161
 H3319 H 0.18233 0.08363 0.72087
 H3320 H 0.19286 0.17313 0.79830
 C3321 C 0.32407 0.09392 0.27711
 C3322 C 0.33354 0.08627 0.25731
 C3323 C 0.33106 0.09978 0.23865
 C3324 C 0.31955 0.12071 0.23989
 C3325 C 0.31017 0.12807 0.25994
 C3326 C 0.31247 0.11453 0.27840
 C3327 C 0.29877 0.14893 0.26132
 C3328 C 0.29667 0.16291 0.24297
 C3329 C 0.30614 0.15543 0.22308
 C3330 C 0.31738 0.13452 0.22154
 H3331 H 0.33845 0.09422 0.22332
 H3332 H 0.30533 0.11991 0.29390
 H3333 H 0.29176 0.15434 0.27686
 H3334 H 0.32450 0.12922 0.20602
 H3335 H 0.32542 0.08380 0.29163
 H3336 H 0.30487 0.16574 0.20868
 C3337 C 0.83116 0.60486 0.77129
 C3338 C 0.83410 0.59488 0.75061
 C3339 C 0.82715 0.60715 0.73209
 C3340 C 0.81740 0.62885 0.73431
 C3341 C 0.81438 0.63831 0.75526
 C3342 C 0.82133 0.62620 0.77359
 C3343 C 0.80445 0.65976 0.75765
 C3344 C 0.79744 0.67224 0.73937
 C3345 C 0.80079 0.66281 0.71852
 C3346 C 0.81059 0.64131 0.71602
 H3347 H 0.82911 0.59981 0.71601
 H3348 H 0.81932 0.63332 0.78978
 H3349 H 0.80222 0.66671 0.77388
 H3350 H 0.81280 0.63440 0.69978
 H3351 H 0.83685 0.59632 0.78584
 H3352 H 0.79557 0.67194 0.70414
 C3353 C 0.91508 0.73604 0.19554
 C3354 C 0.91808 0.75262 0.17938
 C3355 C 0.89974 0.76782 0.17572
 C3356 C 0.87890 0.76543 0.18619
 C3357 C 0.87609 0.74818 0.20143
 C3358 C 0.89440 0.73390 0.20634
 C3359 C 0.85492 0.74532 0.21128
 C3360 C 0.83647 0.75945 0.20586
 C3361 C 0.83963 0.77687 0.19094
 C3362 C 0.86069 0.77990 0.18128
 H3363 H 0.90143 0.78205 0.16510
 H3364 H 0.89253 0.72058 0.21806
 H3365 H 0.85276 0.73190 0.22287
 H3366 H 0.86262 0.79335 0.16969
 H3367 H 0.92792 0.72345 0.19907
 H3368 H 0.82581 0.78823 0.18669
 C3369 C 0.38929 0.26298 0.65242
 C3370 C 0.40838 0.25996 0.66580
 C3371 C 0.40546 0.25767 0.68835
 C3372 C 0.38374 0.25738 0.69735
 C3373 C 0.36463 0.26021 0.68375
 C3374 C 0.36757 0.26331 0.66136
 C3375 C 0.34290 0.25936 0.69266
 C3376 C 0.34001 0.25514 0.71491
 C3377 C 0.35905 0.25241 0.72836
 C3378 C 0.38080 0.25373 0.71967
 H3379 H 0.42008 0.25574 0.69886
 H3380 H 0.35308 0.26540 0.65072
 H3381 H 0.32825 0.26132 0.68218
 H3382 H 0.39528 0.25152 0.73029
 H3383 H 0.39108 0.26443 0.63494
 H3384 H 0.35711 0.24934 0.74562
 C3385 C 0.39079 0.71393 0.83299
 C3386 C 0.40709 0.72862 0.82499
 C3387 C 0.40169 0.74263 0.80748
 C3388 C 0.38004 0.74269 0.79854
 C3389 C 0.36344 0.72840 0.80703
 C3390 C 0.36909 0.71376 0.82401
 C3391 C 0.34138 0.72941 0.79873
 C3392 C 0.33581 0.74461 0.78213
 C3393 C 0.35268 0.75835 0.77354
 C3394 C 0.37459 0.75740 0.78167
 H3395 H 0.41401 0.75433 0.80148
 H3396 H 0.35664 0.70258 0.83063
 H3397 H 0.32857 0.71859 0.80534
 H3398 H 0.38717 0.76842 0.77500
 H3399 H 0.39474 0.70286 0.84641
 H3400 H 0.34889 0.77018 0.76070
 C3401 C 0.89546 0.20709 0.32624
 C3402 C 0.91015 0.22488 0.32258
 C3403 C 0.90250 0.24361 0.31087
 C3404 C 0.88021 0.24498 0.30344
 C3405 C 0.86532 0.22723 0.30750
 C3406 C 0.87320 0.20820 0.31864
 C3407 C 0.84282 0.22891 0.30048
 C3408 C 0.83513 0.24802 0.28927
 C3409 C 0.85011 0.26552 0.28530
 C3410 C 0.87245 0.26404 0.29239
 H3411 H 0.91362 0.25760 0.30839
 H3412 H 0.86205 0.19440 0.32179
 H3413 H 0.83145 0.21522 0.30339
 H3414 H 0.88366 0.27779 0.28921
 H3415 H 0.90112 0.19251 0.33528
 H3416 H 0.84455 0.28041 0.27668
 C3417 C 0.10095 0.27449 0.33652
 C3418 C 0.08397 0.26588 0.32303
 C3419 C 0.08949 0.25918 0.30170
 C3420 C 0.11192 0.25971 0.29436
 C3421 C 0.12902 0.26768 0.30829
 C3422 C 0.12327 0.27553 0.32915
 C3423 C 0.15166 0.26691 0.30143
 C3424 C 0.15749 0.25783 0.28097
 C3425 C 0.14025 0.25054 0.26702
 C3426 C 0.11765 0.25159 0.27362
 H3427 H 0.07645 0.25286 0.29105
 H3428 H 0.13616 0.28170 0.34004
 H3429 H 0.16477 0.27266 0.31232
 H3430 H 0.10473 0.24551 0.26271
 H3431 H 0.09720 0.27951 0.35314
 H3432 H 0.14422 0.24373 0.25104
 C3433 C 0.58468 0.74007 0.79654
 C3434 C 0.58075 0.75269 0.81558
 C3435 C 0.59837 0.76510 0.82463
 C3436 C 0.61993 0.76447 0.81507
 C3437 C 0.62378 0.75147 0.79608
 C3438 C 0.60603 0.73954 0.78679
 C3439 C 0.64540 0.75035 0.78679
 C3440 C 0.66341 0.76196 0.79623
 C3441 C 0.65939 0.77500 0.81503
 C3442 C 0.63779 0.77624 0.82438
 H3443 H 0.59549 0.77462 0.83952
 H3444 H 0.60874 0.72957 0.77218
 H3445 H 0.64813 0.74029 0.77223
 H3446 H 0.63509 0.78628 0.83895
 H3447 H 0.57122 0.73052 0.78930
 H3448 H 0.67294 0.78417 0.82257
 C3449 C 0.59777 0.21918 0.67899
 C3450 C 0.58284 0.23758 0.68179
 C3451 C 0.58884 0.25542 0.69530
 C3452 C 0.61027 0.25581 0.70468
 C3453 C 0.62582 0.23784 0.70091
 C3454 C 0.61919 0.21929 0.68856
 C3455 C 0.64786 0.23906 0.70906
 C3456 C 0.65439 0.25795 0.72099
 C3457 C 0.63857 0.27538 0.72518
 C3458 C 0.61668 0.27433 0.71704
 H3459 H 0.57715 0.26952 0.69761
 H3460 H 0.63083 0.20529 0.68567
 H3461 H 0.65990 0.22541 0.70607
 H3462 H 0.60489 0.28818 0.72009
 H3463 H 0.59332 0.20534 0.66849
 H3464 H 0.64325 0.29005 0.73444
 C3465 C 0.10839 0.72318 0.15480
 C3466 C 0.08963 0.72916 0.16794
 C3467 C 0.09294 0.73432 0.18998
 C3468 C 0.11482 0.73527 0.19843
 C3469 C 0.13369 0.73010 0.18492
 C3470 C 0.13027 0.72347 0.16329
 C3471 C 0.15563 0.73246 0.19303
 C3472 C 0.15889 0.74044 0.21431
 C3473 C 0.13998 0.74500 0.22776
 C3474 C 0.11812 0.74227 0.21992
 H3475 H 0.07853 0.73850 0.20034
 H3476 H 0.14454 0.71941 0.15272
 H3477 H 0.17009 0.72884 0.18254
 H3478 H 0.10382 0.74622 0.23049
 H3479 H 0.10626 0.71931 0.13769
 H3480 H 0.14206 0.75083 0.24434
   
