data_POSCAR
  _audit_creation_date              2014-09-24
  _audit_creation_method            'ToBaCCo'
  _symmetry_space_group_name_H-M    'P1'
  _symmetry_Int_Tables_number       1
  _symmetry_cell_setting            triclinic
  loop_
  _symmetry_equiv_pos_as_xyz
 x,y,z
_cell_length_a 35.1018
_cell_length_b 35.0986
_cell_length_c 35.0835
_cell_angle_alpha 90.046800
_cell_angle_beta 90.034700
_cell_angle_gamma 90.006200
loop_
  _atom_site_label
  _atom_site_type_symbol
  _atom_site_fract_x
  _atom_site_fract_y
  _atom_site_fract_z
O1 O 0.21628 1.03648 0.03744
 O2 O 0.21558 0.96306 -0.03769
 O3 O 0.21469 0.96227 0.03654
 O4 O 0.21549 1.03721 -0.03672
 O5 O 0.27840 1.03461 -0.03850
 O6 O 0.27764 0.96360 0.03841
 O7 O 0.27848 0.96067 -0.03558
 O8 O 0.27923 1.03755 0.03546
 Cu9 Cu 0.20912 0.99980 -0.00010
 Cu10 Cu 0.28479 0.99903 -0.00003
 C11 C 0.24796 1.04978 0.04877
 C12 C 0.24699 0.94919 -0.04910
 C13 C 0.24604 0.95061 0.05022
 C14 C 0.24708 1.04824 -0.05034
 O15 O 0.71804 0.53807 0.53554
 O16 O 0.71815 0.46272 0.46226
 O17 O 0.71716 0.46379 0.53656
 O18 O 0.71695 0.53690 0.46125
 O19 O 0.77988 0.53876 0.46302
 O20 O 0.78008 0.46214 0.53468
 O21 O 0.78108 0.46483 0.46063
 O22 O 0.78098 0.53625 0.53709
 Cu23 Cu 0.71120 0.50036 0.49893
 Cu24 Cu 0.78684 0.50051 0.49889
 C25 C 0.74960 0.54959 0.54900
 C26 C 0.74973 0.45141 0.44871
 C27 C 0.74864 0.45022 0.54801
 C28 C 0.74836 0.55049 0.44968
 O29 O 0.78355 0.96607 1.04038
 O30 O 0.78371 1.03637 0.96227
 O31 O 0.78325 1.04001 1.03617
 O32 O 0.78610 0.96187 0.96619
 O33 O 0.72316 0.96156 0.96382
 O34 O 0.72032 1.03766 1.03597
 O35 O 0.72075 1.03535 0.96155
 O36 O 0.72068 0.96360 1.03775
 Cu37 Cu 0.79052 1.00116 1.00129
 Cu38 Cu 0.71490 0.99948 0.99965
 C39 C 0.75202 0.95283 1.05219
 C40 C 0.75215 1.04789 0.94885
 C41 C 0.75130 1.05179 1.04827
 C42 C 0.75514 0.94860 0.95304
 O43 O 0.22212 0.46321 0.53758
 O44 O 0.22233 0.53732 0.46391
 O45 O 0.22316 0.46327 0.46352
 O46 O 0.22338 0.53717 0.53807
 O47 O 0.28631 0.53512 0.53981
 O48 O 0.28610 0.46499 0.46181
 O49 O 0.28528 0.53907 0.46567
 O50 O 0.28506 0.46112 0.53584
 Cu51 Cu 0.21638 0.50028 0.50075
 Cu52 Cu 0.29207 0.50008 0.50077
 C53 C 0.25347 0.44929 0.54887
 C54 C 0.25375 0.55106 0.45261
 C55 C 0.25462 0.45191 0.44978
 C56 C 0.25491 0.54826 0.55192
 O57 O 1.03708 0.27731 0.03243
 O58 O 0.96154 0.27623 -0.03993
 O59 O 0.96307 0.27615 0.03412
 O60 O 1.03551 0.27502 -0.04158
 O61 O 1.03722 0.21210 -0.03890
 O62 O 0.96127 0.21318 0.03314
 O63 O 0.96317 0.21327 -0.04099
 O64 O 1.03537 0.21440 0.03527
 Cu65 Cu 0.99930 0.28254 -0.00382
 Cu66 Cu 0.99927 0.20685 -0.00277
 C67 C 1.04868 0.24613 0.04647
 C68 C 0.94988 0.24466 -0.05312
 C69 C 0.94958 0.24482 0.04611
 C70 C 1.04892 0.24334 -0.05275
 O71 O 0.53732 0.77842 0.53983
 O72 O 0.46266 0.77960 0.46641
 O73 O 0.46327 0.77817 0.54050
 O74 O 0.53680 0.77844 0.46567
 O75 O 0.53824 0.71549 0.46689
 O76 O 0.46107 0.71527 0.53807
 O77 O 0.46404 0.71667 0.46388
 O78 O 0.53514 0.71548 0.54110
 Cu79 Cu 0.50006 0.78501 0.50314
 Cu80 Cu 0.49958 0.70935 0.50239
 C81 C 0.54850 0.74682 0.55327
 C82 C 0.45101 0.74839 0.45241
 C83 C 0.44949 0.74668 0.55173
 C84 C 0.55031 0.74700 0.45394
 O85 O 0.03843 0.78313 -0.03574
 O86 O -0.03867 0.78632 0.03562
 O87 O 0.03590 0.78687 0.03842
 O88 O -0.03536 0.78503 -0.03849
 O89 O -0.03657 0.72212 -0.03588
 O90 O 0.03503 0.72394 0.04090
 O91 O -0.03865 0.72338 0.03815
 O92 O 0.03788 0.72022 -0.03312
 Cu93 Cu 0.00016 0.79169 -0.00017
 Cu94 Cu -0.00062 0.71609 0.00263
 C95 C 0.05122 0.75103 -0.04649
 C96 C -0.05168 0.75529 0.04893
 C97 C 0.04761 0.75577 0.05262
 C98 C -0.04812 0.75329 -0.05019
 O99 O 0.53619 0.28401 0.45948
 O100 O 0.46443 0.28397 0.53594
 O101 O 0.53856 0.28426 0.53361
 O102 O 0.46205 0.28518 0.46171
 O103 O 0.46350 0.22224 0.45951
 O104 O 0.53625 0.22132 0.53499
 O105 O 0.46227 0.22105 0.53353
 O106 O 0.53747 0.22104 0.46100
 Cu107 Cu 0.50032 0.29075 0.49772
 Cu108 Cu 0.49982 0.21505 0.49721
 C109 C 0.54931 0.25244 0.44768
 C110 C 0.45098 0.25243 0.54740
 C111 C 0.55002 0.25262 0.54680
 C112 C 0.45019 0.25385 0.44808
 O113 O 1.03584 0.03900 0.21763
 O114 O 0.96334 -0.03705 0.21702
 O115 O 0.96135 0.03724 0.21476
 O116 O 1.03734 -0.03483 0.21753
 O117 O 1.03480 -0.03494 0.28050
 O118 O 0.96095 0.03929 0.27774
 O119 O 0.96073 -0.03467 0.27993
 O120 O 1.03469 0.03939 0.28063
 Cu121 Cu 0.99954 0.00107 0.21036
 Cu122 Cu 0.99767 0.00234 0.28605
 C123 C 1.04768 0.05189 0.24933
 C124 C 0.94969 -0.04866 0.24846
 C125 C 0.94852 0.05069 0.24577
 C126 C 1.04869 -0.04732 0.24947
 O127 O 0.53950 0.53367 0.71912
 O128 O 0.46251 0.46236 0.71707
 O129 O 0.46540 0.53655 0.71714
 O130 O 0.53673 0.45965 0.71649
 O131 O 0.53805 0.46044 0.77948
 O132 O 0.46287 0.53373 0.78003
 O133 O 0.46392 0.45959 0.78001
 O134 O 0.53689 0.53434 0.78209
 Cu135 Cu 0.50107 0.49814 0.71108
 Cu136 Cu 0.50034 0.49688 0.78675
 C137 C 0.55089 0.54636 0.75105
 C138 C 0.45049 0.44865 0.74830
 C139 C 0.45179 0.54792 0.74864
 C140 C 0.54994 0.44746 0.74785
 O141 O 0.96380 1.03750 0.78241
 O142 O 1.03550 0.96080 0.78509
 O143 O 1.03774 1.03526 0.78374
 O144 O 0.96140 0.96356 0.78572
 O145 O 0.96288 0.96020 0.72280
 O146 O 1.03755 1.03365 0.72074
 O147 O 1.03676 0.95991 0.72208
 O148 O 0.96306 1.03428 0.71950
 Cu149 Cu 0.99964 0.99949 0.79061
 Cu150 Cu 1.00003 0.99690 0.71492
 C151 C 0.95105 1.04866 0.75043
 C152 C 1.04835 0.94750 0.75397
 C153 C 1.05049 1.04668 0.75193
 C154 C 0.94940 0.94957 0.75461
 O155 O 0.46338 0.54046 0.21906
 O156 O 0.53608 0.46544 0.21891
 O157 O 0.46198 0.46647 0.21935
 O158 O 0.53731 0.53961 0.22126
 O159 O 0.53471 0.54055 0.28421
 O160 O 0.46317 0.46388 0.28230
 O161 O 0.53736 0.46634 0.28191
 O162 O 0.46070 0.53801 0.28197
 Cu163 Cu 0.49980 0.50304 0.21329
 Cu164 Cu 0.49894 0.50208 0.28898
 C165 C 0.44945 0.55170 0.25043
 C166 C 0.54937 0.45348 0.25029
 C167 C 0.45003 0.45259 0.25055
 C168 C 0.54833 0.55288 0.25310
 O169 O 0.24820 0.15338 0.19551
 O170 O 0.29055 0.14249 0.24824
 O171 O 0.14994 0.20026 0.25096
 O172 O 0.13590 0.25049 0.28712
 O173 O 0.19601 0.25233 0.14902
 O174 O 0.24876 0.29430 0.13801
 O175 O 0.25020 0.30520 0.34648
 O176 O 0.20621 0.25535 0.35711
 O177 O 0.34748 0.25243 0.30021
 O178 O 0.35938 0.21052 0.24585
 O179 O 0.30166 0.35071 0.24771
 O180 O 0.24700 0.36274 0.20604
 O181 O 0.25231 0.35077 0.30041
 O182 O 0.20662 0.36211 0.24668
 O183 O 0.34736 0.30482 0.25020
 O184 O 0.35832 0.25044 0.20495
 O185 O 0.30197 0.25545 0.34629
 O186 O 0.24986 0.21044 0.35830
 O187 O 0.24975 0.19907 0.14943
 O188 O 0.29135 0.25226 0.13834
 O189 O 0.15022 0.25129 0.19501
 O190 O 0.14219 0.29802 0.24733
 O191 O 0.19540 0.15399 0.24847
 O192 O 0.24827 0.14334 0.29116
 Zr193 Zr 0.24716 0.18424 0.24697
 O194 O 0.28318 0.21682 0.28218
 Zr195 Zr 0.18065 0.25153 0.24675
 O196 O 0.21356 0.28689 0.28251
 Zr197 Zr 0.24756 0.25081 0.17966
 O198 O 0.28324 0.28653 0.21209
 Zr199 Zr 0.25027 0.25367 0.31604
 O200 O 0.21378 0.21786 0.28391
 Zr201 Zr 0.31687 0.25319 0.24870
 O202 O 0.28423 0.21703 0.21303
 Zr203 Zr 0.25007 0.32031 0.24877
 O204 O 0.21402 0.28793 0.21270
 O205 O 0.21202 0.21586 0.21150
 O206 O 0.28587 0.28913 0.28441
 C207 C 0.24957 0.16423 0.16059
 C208 C 0.16065 0.16527 0.25048
 C209 C 0.16114 0.25193 0.16008
 C210 C 0.25178 0.33997 0.33535
 C211 C 0.33675 0.25409 0.33512
 C212 C 0.33648 0.33971 0.24907
 H213 H 0.29904 0.19951 0.29769
 H214 H 0.29891 0.30218 0.19472
 H215 H 0.19570 0.19933 0.19548
 H216 H 0.19664 0.30259 0.29865
 H217 H 0.18667 0.23674 0.34883
 H218 H 0.14457 0.26501 0.30968
 H219 H 0.35443 0.27250 0.18785
 H220 H 0.31163 0.23498 0.14756
 H221 H 0.27038 0.19206 0.35248
 H222 H 0.23067 0.15265 0.31114
 H223 H 0.26607 0.35640 0.18630
 H224 H 0.23092 0.31431 0.14677
 H225 H 0.31045 0.15105 0.23019
 H226 H 0.35291 0.19070 0.26479
 H227 H 0.14972 0.31524 0.22630
 H228 H 0.18929 0.35774 0.26845
 O229 O 0.75048 0.85342 0.20048
 O230 O 0.70877 0.86395 0.25389
 O231 O 0.84887 0.80439 0.24969
 O232 O 0.86255 0.75493 0.28794
 O233 O 0.79899 0.75551 0.15081
 O234 O 0.74589 0.71329 0.14076
 O235 O 0.75043 0.69957 0.34919
 O236 O 0.79447 0.74880 0.35957
 O237 O 0.65187 0.75354 0.30627
 O238 O 0.63871 0.79635 0.25345
 O239 O 0.69519 0.65574 0.25104
 O240 O 0.74815 0.64344 0.20809
 O241 O 0.74604 0.65456 0.30266
 O242 O 0.79014 0.64352 0.24718
 O243 O 0.65011 0.70211 0.25533
 O244 O 0.63879 0.75768 0.21112
 O245 O 0.69866 0.74899 0.35096
 O246 O 0.75169 0.79447 0.36185
 O247 O 0.74610 0.80842 0.15381
 O248 O 0.70325 0.75568 0.14315
 O249 O 0.84597 0.75210 0.19552
 O250 O 0.85547 0.70682 0.24785
 O251 O 0.80385 0.85105 0.25329
 O252 O 0.75145 0.86194 0.29625
 Zr253 Zr 0.75159 0.82167 0.25142
 O254 O 0.71612 0.78902 0.28706
 Zr255 Zr 0.81724 0.75351 0.24816
 O256 O 0.78495 0.71816 0.28439
 Zr257 Zr 0.74840 0.75615 0.18306
 O258 O 0.71332 0.72029 0.21596
 Zr259 Zr 0.74959 0.75138 0.31941
 O260 O 0.78566 0.78709 0.28678
 Zr261 Zr 0.68110 0.75347 0.25397
 O262 O 0.71312 0.78985 0.21800
 Zr263 Zr 0.74708 0.68558 0.25125
 O264 O 0.78238 0.71804 0.21456
 O265 O 0.78527 0.79007 0.21450
 O266 O 0.71270 0.71672 0.28827
 C267 C 0.74797 0.84309 0.16541
 C268 C 0.83852 0.83945 0.25179
 C269 C 0.83412 0.75356 0.16091
 C270 C 0.74815 0.66494 0.33771
 C271 C 0.66357 0.75070 0.34081
 C272 C 0.66056 0.66711 0.25349
 H273 H 0.70087 0.80622 0.30330
 H274 H 0.69698 0.70506 0.19879
 H275 H 0.80143 0.80646 0.19824
 H276 H 0.80219 0.70208 0.29980
 H277 H 0.81415 0.76710 0.35099
 H278 H 0.85482 0.73934 0.31009
 H279 H 0.64159 0.73555 0.19387
 H280 H 0.68375 0.77357 0.15292
 H281 H 0.72972 0.81172 0.35826
 H282 H 0.76893 0.85198 0.31603
 H283 H 0.72957 0.65103 0.18830
 H284 H 0.76416 0.69326 0.14854
 H285 H 0.68847 0.85585 0.23603
 H286 H 0.64661 0.81639 0.27163
 H287 H 0.84668 0.68910 0.22771
 H288 H 0.80757 0.64675 0.26912
 O289 O 0.75088 0.14841 0.79878
 O290 O 0.70964 0.13760 0.74543
 O291 O 0.85046 0.19529 0.74598
 O292 O 0.86364 0.24438 0.70704
 O293 O 0.80409 0.24785 0.84580
 O294 O 0.75086 0.28895 0.85708
 O295 O 0.75072 0.30078 0.64853
 O296 O 0.79422 0.25083 0.63766
 O297 O 0.65292 0.24833 0.69438
 O298 O 0.64111 0.20558 0.74857
 O299 O 0.69865 0.34591 0.74744
 O300 O 0.75357 0.35760 0.78949
 O301 O 0.74843 0.34623 0.69478
 O302 O 0.79349 0.35762 0.74852
 O303 O 0.65291 0.30004 0.74509
 O304 O 0.64171 0.24560 0.78941
 O305 O 0.69852 0.25140 0.64840
 O306 O 0.75059 0.20596 0.63635
 O307 O 0.75182 0.19392 0.84516
 O308 O 0.70850 0.24629 0.85607
 O309 O 0.84998 0.24695 0.79994
 O310 O 0.85857 0.29271 0.74772
 O311 O 0.80479 0.14914 0.74529
 O312 O 0.75175 0.13861 0.70303
 Zr313 Zr 0.75298 0.17939 0.74738
 O314 O 0.71710 0.21221 0.71228
 Zr315 Zr 0.81964 0.24659 0.74819
 O316 O 0.78687 0.28216 0.71257
 Zr317 Zr 0.75263 0.24576 0.81509
 O318 O 0.71706 0.28164 0.78278
 Zr319 Zr 0.75017 0.24915 0.67874
 O320 O 0.78653 0.21313 0.71076
 Zr321 Zr 0.68344 0.24847 0.74594
 O322 O 0.71596 0.21214 0.78147
 Zr323 Zr 0.75029 0.31556 0.74631
 O324 O 0.78624 0.28298 0.78228
 O325 O 0.78808 0.21085 0.78313
 O326 O 0.71453 0.28453 0.71046
 C327 C 0.75080 0.15913 0.83382
 C328 C 0.83965 0.16034 0.74522
 C329 C 0.83898 0.24767 0.83482
 C330 C 0.74936 0.33554 0.65978
 C331 C 0.66371 0.25020 0.65951
 C332 C 0.66381 0.33492 0.74632
 H333 H 0.70122 0.19503 0.69661
 H334 H 0.70140 0.29723 0.80023
 H335 H 0.80436 0.19439 0.79923
 H336 H 0.80388 0.29790 0.69659
 H337 H 0.81379 0.23226 0.64593
 H338 H 0.85581 0.26061 0.68537
 H339 H 0.64641 0.26678 0.80742
 H340 H 0.68889 0.22815 0.84698
 H341 H 0.72947 0.18808 0.64155
 H342 H 0.76899 0.14819 0.68287
 H343 H 0.73385 0.35171 0.80873
 H344 H 0.76835 0.30930 0.84840
 H345 H 0.68930 0.14638 0.76290
 H346 H 0.64690 0.18649 0.72865
 H347 H 0.85048 0.31055 0.76803
 H348 H 0.81130 0.35288 0.72721
 O349 O 0.24821 0.84707 0.80539
 O350 O 0.29025 0.85809 0.75248
 O351 O 0.15024 0.79840 0.75457
 O352 O 0.13710 0.74887 0.71599
 O353 O 0.19914 0.74737 0.85379
 O354 O 0.25294 0.70679 0.86429
 O355 O 0.25038 0.69424 0.65566
 O356 O 0.20587 0.74311 0.64519
 O357 O 0.34786 0.74874 0.70002
 O358 O 0.36018 0.79100 0.75380
 O359 O 0.30434 0.65004 0.75364
 O360 O 0.25063 0.63763 0.79662
 O361 O 0.25399 0.64897 0.70195
 O362 O 0.20957 0.63727 0.75657
 O363 O 0.34931 0.69659 0.75014
 O364 O 0.36021 0.75145 0.79514
 O365 O 0.30163 0.74448 0.65471
 O366 O 0.24830 0.78916 0.64360
 O367 O 0.25161 0.80191 0.85192
 O368 O 0.29483 0.74956 0.86258
 O369 O 0.15249 0.74668 0.80861
 O370 O 0.14383 0.70071 0.75642
 O371 O 0.19528 0.84509 0.75218
 O372 O 0.24796 0.85634 0.70983
 Zr373 Zr 0.24748 0.81571 0.75428
 O374 O 0.28338 0.78342 0.71878
 Zr375 Zr 0.18191 0.74753 0.75634
 O376 O 0.21470 0.71242 0.72022
 Zr377 Zr 0.25010 0.74976 0.82220
 O378 O 0.28566 0.71424 0.78940
 Zr379 Zr 0.25035 0.74590 0.68578
 O380 O 0.21384 0.78135 0.71828
 Zr381 Zr 0.31814 0.74780 0.75199
 O382 O 0.28563 0.78380 0.78790
 Zr383 Zr 0.25233 0.67973 0.75349
 O384 O 0.21652 0.71187 0.78999
 O385 O 0.21349 0.78387 0.79068
 O386 O 0.28701 0.71119 0.71706
 C387 C 0.25017 0.83663 0.84042
 C388 C 0.16060 0.83347 0.75299
 C389 C 0.16406 0.74652 0.84334
 C390 C 0.25265 0.65957 0.66695
 C391 C 0.33659 0.74653 0.66529
 C392 C 0.33896 0.66154 0.75143
 H393 H 0.29871 0.80085 0.70287
 H394 H 0.30187 0.69892 0.80657
 H395 H 0.19712 0.80009 0.80693
 H396 H 0.19772 0.69636 0.70448
 H397 H 0.18593 0.76115 0.65375
 H398 H 0.14492 0.73293 0.69409
 H399 H 0.35706 0.72933 0.81229
 H400 H 0.31439 0.76745 0.85296
 H401 H 0.26974 0.80692 0.64792
 H402 H 0.23058 0.84656 0.68985
 H403 H 0.27027 0.64417 0.81577
 H404 H 0.23562 0.68617 0.85584
 H405 H 0.31037 0.85000 0.77053
 H406 H 0.35276 0.81089 0.73528
 H407 H 0.15243 0.68315 0.77675
 H408 H 0.19181 0.64120 0.73504
 O409 O 0.24850 0.34580 0.69498
 O410 O 0.20670 0.35648 0.74807
 O411 O 0.34833 0.30150 0.75108
 O412 O 0.36294 0.25211 0.78833
 O413 O 0.30397 0.24672 0.64964
 O414 O 0.25126 0.20465 0.63841
 O415 O 0.24811 0.19513 0.84665
 O416 O 0.29282 0.24517 0.85728
 O417 O 0.15171 0.24568 0.79981
 O418 O 0.13987 0.28791 0.74460
 O419 O 0.19947 0.14828 0.74873
 O420 O 0.25459 0.13727 0.70618
 O421 O 0.25028 0.14925 0.80081
 O422 O 0.29434 0.13799 0.74716
 O423 O 0.15299 0.19347 0.74993
 O424 O 0.14075 0.24670 0.70489
 O425 O 0.19716 0.24453 0.84608
 O426 O 0.24852 0.28988 0.85828
 O427 O 0.25122 0.29988 0.64909
 O428 O 0.20855 0.24700 0.63830
 O429 O 0.34947 0.24984 0.69588
 O430 O 0.35835 0.20405 0.74843
 O431 O 0.30196 0.34682 0.74768
 O432 O 0.24918 0.35686 0.79053
 Zr433 Zr 0.25085 0.31554 0.74669
 O434 O 0.21535 0.28260 0.78195
 Zr435 Zr 0.31874 0.24956 0.74737
 O436 O 0.28632 0.21377 0.78300
 Zr437 Zr 0.25223 0.24847 0.67978
 O438 O 0.21696 0.21244 0.71218
 Zr439 Zr 0.24881 0.24653 0.81609
 O440 O 0.28473 0.28288 0.78405
 Zr441 Zr 0.18256 0.24547 0.74841
 O442 O 0.21469 0.28184 0.71263
 Zr443 Zr 0.25062 0.17949 0.74913
 O444 O 0.28633 0.21227 0.71325
 O445 O 0.28685 0.28429 0.71172
 O446 O 0.21407 0.21027 0.78437
 C447 C 0.24953 0.33474 0.66009
 C448 C 0.33691 0.33625 0.74983
 C449 C 0.33874 0.24813 0.66093
 C450 C 0.24895 0.16027 0.83566
 C451 C 0.16242 0.24465 0.83477
 C452 C 0.16446 0.15878 0.74953
 H453 H 0.19913 0.29971 0.79731
 H454 H 0.20165 0.19639 0.69483
 H455 H 0.30303 0.30085 0.69566
 H456 H 0.30343 0.19847 0.79932
 H457 H 0.31197 0.26432 0.84936
 H458 H 0.35481 0.23680 0.81053
 H459 H 0.14637 0.22583 0.68680
 H460 H 0.18846 0.26467 0.64721
 H461 H 0.22848 0.30854 0.85169
 H462 H 0.26711 0.34814 0.81049
 H463 H 0.23416 0.14211 0.68737
 H464 H 0.26905 0.18472 0.64745
 H465 H 0.18675 0.34735 0.73032
 H466 H 0.14467 0.30683 0.76495
 H467 H 0.35126 0.18643 0.72755
 H468 H 0.31289 0.14404 0.76752
 O469 O 0.75247 0.64999 0.69821
 O470 O 0.79436 0.63843 0.75051
 O471 O 0.65303 0.69360 0.75663
 O472 O 0.63860 0.74245 0.79420
 O473 O 0.69574 0.74991 0.65513
 O474 O 0.74804 0.79177 0.64367
 O475 O 0.75572 0.79831 0.85234
 O476 O 0.71069 0.74855 0.86301
 O477 O 0.85043 0.75106 0.80289
 O478 O 0.86160 0.70761 0.74788
 O479 O 0.80148 0.84681 0.75615
 O480 O 0.74672 0.85886 0.71346
 O481 O 0.75118 0.84484 0.80741
 O482 O 0.70617 0.85636 0.75392
 O483 O 0.84809 0.80196 0.75177
 O484 O 0.85954 0.74821 0.70763
 O485 O 0.80602 0.74735 0.84999
 O486 O 0.75415 0.70313 0.86206
 O487 O 0.74859 0.69641 0.65300
 O488 O 0.79099 0.74980 0.64248
 O489 O 0.65096 0.74598 0.70194
 O490 O 0.64320 0.79118 0.75568
 O491 O 0.69919 0.64825 0.75144
 O492 O 0.75274 0.63770 0.79360
 Zr493 Zr 0.75037 0.67954 0.75034
 O494 O 0.78660 0.71202 0.78543
 Zr495 Zr 0.68254 0.74549 0.75305
 O496 O 0.71551 0.78057 0.78902
 Zr497 Zr 0.74789 0.74751 0.68449
 O498 O 0.78351 0.78326 0.71696
 Zr499 Zr 0.75373 0.74735 0.82086
 O500 O 0.71713 0.71165 0.78874
 Zr501 Zr 0.81869 0.74982 0.75197
 O502 O 0.78598 0.71378 0.71627
 Zr503 Zr 0.75048 0.81547 0.75520
 O504 O 0.71438 0.78325 0.71910
 O505 O 0.71379 0.71121 0.71634
 O506 O 0.78777 0.78422 0.78920
 C507 C 0.75105 0.66144 0.66348
 C508 C 0.66431 0.65887 0.75462
 C509 C 0.66114 0.74835 0.66685
 C510 C 0.75406 0.83335 0.84199
 C511 C 0.84048 0.74959 0.83806
 C512 C 0.83649 0.83652 0.75428
 H513 H 0.80317 0.69473 0.80022
 H514 H 0.79847 0.79964 0.69963
 H515 H 0.69740 0.69486 0.70021
 H516 H 0.69867 0.79555 0.80592
 H517 H 0.69100 0.72998 0.85500
 H518 H 0.64731 0.75671 0.81691
 H519 H 0.85305 0.76851 0.68921
 H520 H 0.81073 0.73117 0.65016
 H521 H 0.77338 0.68406 0.85433
 H522 H 0.73432 0.64558 0.81346
 H523 H 0.76703 0.85438 0.69445
 H524 H 0.73145 0.81214 0.65395
 H525 H 0.81480 0.64859 0.73396
 H526 H 0.85787 0.68932 0.76899
 H527 H 0.64945 0.80872 0.73450
 H528 H 0.68853 0.85064 0.77514
 O529 O 0.24857 0.65410 0.30612
 O530 O 0.20651 0.64272 0.25345
 O531 O 0.34734 0.69946 0.24863
 O532 O 0.36133 0.74915 0.21178
 O533 O 0.30342 0.75410 0.35071
 O534 O 0.25036 0.79553 0.36212
 O535 O 0.24543 0.80408 0.15379
 O536 O 0.29011 0.75441 0.14295
 O537 O 0.14963 0.75363 0.20169
 O538 O 0.13913 0.71013 0.25689
 O539 O 0.19665 0.85067 0.25032
 O540 O 0.25118 0.86280 0.29390
 O541 O 0.24788 0.85017 0.19939
 O542 O 0.29153 0.86215 0.25327
 O543 O 0.15076 0.80498 0.25341
 O544 O 0.13937 0.75121 0.29650
 O545 O 0.19469 0.75451 0.15509
 O546 O 0.24650 0.70911 0.14287
 O547 O 0.25138 0.70019 0.35184
 O548 O 0.20818 0.75266 0.36284
 O549 O 0.34850 0.75111 0.30414
 O550 O 0.35624 0.79707 0.25137
 O551 O 0.30162 0.65354 0.25271
 O552 O 0.24847 0.64270 0.21062
 Zr553 Zr 0.25016 0.68421 0.25429
 O554 O 0.21391 0.71658 0.21919
 Zr555 Zr 0.31726 0.75103 0.25287
 O556 O 0.28409 0.78621 0.21730
 Zr557 Zr 0.25144 0.75153 0.32096
 O558 O 0.21542 0.78696 0.28868
 Zr559 Zr 0.24665 0.75287 0.18465
 O560 O 0.28331 0.71717 0.21657
 Zr561 Zr 0.18100 0.75338 0.25293
 O562 O 0.21395 0.71759 0.28858
 Zr563 Zr 0.24824 0.82019 0.25122
 O564 O 0.28469 0.78806 0.28704
 O565 O 0.28617 0.71597 0.28887
 O566 O 0.21171 0.78880 0.21648
 C567 C 0.24981 0.66528 0.34097
 C568 C 0.33639 0.66458 0.24988
 C569 C 0.33810 0.75289 0.33918
 C570 C 0.24636 0.83899 0.16460
 C571 C 0.16004 0.75454 0.16662
 C572 C 0.16179 0.83977 0.25176
 H573 H 0.19771 0.69927 0.20399
 H574 H 0.20006 0.80288 0.30611
 H575 H 0.30272 0.69961 0.30479
 H576 H 0.30094 0.80162 0.20082
 H577 H 0.30970 0.73573 0.15093
 H578 H 0.35258 0.76376 0.18934
 H579 H 0.14610 0.77062 0.31582
 H580 H 0.18860 0.73405 0.35467
 H581 H 0.22595 0.69089 0.14909
 H582 H 0.26585 0.65170 0.19033
 H583 H 0.23034 0.85815 0.31228
 H584 H 0.26719 0.81596 0.35240
 H585 H 0.18640 0.65194 0.27095
 H586 H 0.14326 0.69203 0.23566
 H587 H 0.34938 0.81444 0.27252
 H588 H 0.31017 0.85621 0.23298
 O589 O 0.75162 0.35043 0.29955
 O590 O 0.79249 0.36126 0.24580
 O591 O 0.65106 0.30582 0.24477
 O592 O 0.63630 0.25657 0.20725
 O593 O 0.69681 0.25053 0.34528
 O594 O 0.74989 0.20940 0.35602
 O595 O 0.75036 0.19969 0.14748
 O596 O 0.70572 0.24976 0.13744
 O597 O 0.84736 0.24988 0.19366
 O598 O 0.85950 0.29318 0.24831
 O599 O 0.80065 0.15322 0.24328
 O600 O 0.74664 0.14189 0.28801
 O601 O 0.74843 0.15389 0.19331
 O602 O 0.70584 0.14239 0.24784
 O603 O 0.84690 0.19862 0.24530
 O604 O 0.85940 0.25255 0.28828
 O605 O 0.80150 0.24903 0.14778
 O606 O 0.74989 0.29456 0.13621
 O607 O 0.74921 0.30456 0.34542
 O608 O 0.79230 0.25181 0.35563
 O609 O 0.65073 0.25367 0.29964
 O610 O 0.64132 0.20838 0.24692
 O611 O 0.69735 0.35126 0.24763
 O612 O 0.74940 0.36148 0.20404
 Zr613 Zr 0.74852 0.32015 0.24783
 O614 O 0.78375 0.28732 0.21212
 Zr615 Zr 0.68088 0.25395 0.24779
 O616 O 0.71302 0.21827 0.21171
 Zr617 Zr 0.74815 0.25309 0.31463
 O618 O 0.78315 0.21719 0.28179
 Zr619 Zr 0.75009 0.25111 0.17824
 O620 O 0.71439 0.28734 0.21077
 Zr621 Zr 0.81704 0.25042 0.24535
 O622 O 0.78518 0.28666 0.28149
 Zr623 Zr 0.74929 0.18412 0.24501
 O624 O 0.71388 0.21676 0.28138
 O625 O 0.71301 0.28879 0.28321
 O626 O 0.78538 0.21507 0.20954
 C627 C 0.75108 0.33941 0.33445
 C628 C 0.66240 0.34060 0.24596
 C629 C 0.66191 0.25151 0.33443
 C630 C 0.74942 0.16482 0.15844
 C631 C 0.83634 0.24887 0.15880
 C632 C 0.83561 0.16389 0.24407
 H633 H 0.79978 0.30444 0.19659
 H634 H 0.79872 0.20121 0.29896
 H635 H 0.69694 0.30520 0.29958
 H636 H 0.69573 0.20292 0.19559
 H637 H 0.68658 0.26881 0.14563
 H638 H 0.64423 0.24127 0.18493
 H639 H 0.85318 0.23293 0.30751
 H640 H 0.81177 0.27034 0.34710
 H641 H 0.77022 0.31304 0.14243
 H642 H 0.73142 0.35254 0.18420
 H643 H 0.76825 0.14601 0.30563
 H644 H 0.73311 0.18879 0.34655
 H645 H 0.81285 0.35207 0.26304
 H646 H 0.85480 0.31153 0.22745
 H647 H 0.64873 0.19064 0.26757
 H648 H 0.68676 0.14849 0.22800
 C649 C 0.25957 0.14030 0.08849
 C650 C 0.28398 0.10355 0.08941
 C651 C 0.24851 0.08030 0.07831
 C652 C 0.22413 0.11666 0.07703
 C653 C 0.23848 0.07408 0.12049
 C654 C 0.27397 0.09771 0.13197
 C655 C 0.24959 0.13406 0.13070
 C656 C 0.21412 0.11083 0.11963
 H657 H 0.26830 0.16781 0.07558
 H658 H 0.31276 0.10033 0.07671
 H659 H 0.20361 0.12414 0.05413
 H660 H 0.22978 0.04650 0.13329
 H661 H 0.29448 0.09027 0.15488
 H662 H 0.18540 0.11424 0.13240
 C663 C 0.71540 0.62035 0.61013
 C664 C 0.73946 0.62138 0.57316
 C665 C 0.74993 0.57931 0.57937
 C666 C 0.72585 0.57786 0.61592
 C667 C 0.78548 0.59076 0.60236
 C668 C 0.77503 0.63320 0.59655
 C669 C 0.75095 0.63175 0.63309
 C670 C 0.76137 0.58964 0.63927
 H671 H 0.68658 0.63288 0.61375
 H672 H 0.73042 0.63407 0.54563
 H673 H 0.70561 0.55480 0.62357
 H674 H 0.81435 0.57832 0.59895
 H675 H 0.79526 0.65628 0.58893
 H676 H 0.77045 0.57680 0.66672
 C677 C 0.71505 0.88454 0.11030
 C678 C 0.72511 0.92710 0.11652
 C679 C 0.75157 0.92536 0.08164
 C680 C 0.74151 0.88326 0.07502
 C681 C 0.78557 0.91424 0.10695
 C682 C 0.75906 0.91552 0.14226
 C683 C 0.74895 0.87338 0.13564
 C684 C 0.77547 0.87174 0.10076
 H685 H 0.68605 0.87204 0.11203
 H686 H 0.70443 0.95022 0.12271
 H687 H 0.73441 0.87027 0.04704
 H688 H 0.81463 0.92664 0.10538
 H689 H 0.76627 0.92853 0.17020
 H690 H 0.79618 0.84862 0.09462
 C691 C 0.21646 0.38990 0.61892
 C692 C 0.24280 0.42525 0.62018
 C693 C 0.25296 0.41860 0.57809
 C694 C 0.22663 0.38363 0.57640
 C695 C 0.28701 0.39348 0.58939
 C696 C 0.27684 0.39973 0.63185
 C697 C 0.25045 0.36478 0.63020
 C698 C 0.26065 0.35811 0.58808
 H699 H 0.18746 0.38805 0.63138
 H700 H 0.23558 0.45326 0.63301
 H701 H 0.20605 0.37734 0.55320
 H702 H 0.31604 0.39521 0.57699
 H703 H 0.29747 0.40598 0.65504
 H704 H 0.26799 0.33019 0.57513
 C705 C 0.74232 0.08650 0.85742
 C706 C 0.77735 0.07622 0.88223
 C707 C 0.75184 0.07695 0.91784
 C708 C 0.71679 0.08685 0.89343
 C709 C 0.76042 0.11944 0.92416
 C710 C 0.78590 0.11913 0.88817
 C711 C 0.75085 0.12901 0.86378
 C712 C 0.72536 0.12969 0.89938
 H713 H 0.73482 0.07319 0.82970
 H714 H 0.79877 0.05394 0.87549
 H715 H 0.68831 0.07330 0.89582
 H716 H 0.76790 0.13267 0.95193
 H717 H 0.81434 0.13275 0.88560
 H718 H 0.70395 0.15198 0.90612
 C719 C 0.26182 0.64203 0.41293
 C720 C 0.22760 0.61706 0.42517
 C721 C 0.25337 0.58169 0.42330
 C722 C 0.28763 0.60626 0.41145
 C723 C 0.24252 0.57502 0.38137
 C724 C 0.21673 0.61076 0.38282
 C725 C 0.25092 0.63534 0.37098
 C726 C 0.27677 0.60000 0.36914
 H727 H 0.26975 0.66989 0.42566
 H728 H 0.20743 0.62374 0.44861
 H729 H 0.31681 0.60416 0.42347
 H730 H 0.23470 0.54708 0.36874
 H731 H 0.18759 0.61297 0.37073
 H732 H 0.29695 0.59332 0.34571
 C733 C 0.23899 0.90900 0.86243
 C734 C 0.21287 0.90863 0.89801
 C735 C 0.24713 0.92054 0.92261
 C736 C 0.27320 0.92133 0.88742
 C737 C 0.25735 0.87867 0.93027
 C738 C 0.22312 0.86632 0.90521
 C739 C 0.24925 0.86706 0.87003
 C740 C 0.28343 0.87900 0.89467
 H741 H 0.23143 0.92123 0.83425
 H742 H 0.18381 0.92102 0.89956
 H743 H 0.29375 0.94432 0.88036
 H744 H 0.26479 0.86653 0.95853
 H745 H 0.20255 0.84331 0.91215
 H746 H 0.31242 0.86650 0.89294
 C747 C 0.76004 0.41176 0.35802
 C748 C 0.72490 0.42246 0.38241
 C749 C 0.75011 0.42181 0.41825
 C750 C 0.78529 0.41147 0.39423
 C751 C 0.74118 0.37945 0.42477
 C752 C 0.71598 0.37966 0.38854
 C753 C 0.75116 0.36936 0.36455
 C754 C 0.77636 0.36873 0.40037
 H755 H 0.76786 0.42481 0.33029
 H756 H 0.70370 0.44484 0.37536
 H757 H 0.81384 0.42484 0.39679
 H758 H 0.73338 0.36652 0.45257
 H759 H 0.68748 0.36619 0.38581
 H760 H 0.79755 0.34633 0.40739
 C761 C 0.13241 0.22351 0.09550
 C762 C 0.09002 0.21342 0.10226
 C763 C 0.07845 0.24706 0.07673
 C764 C 0.12045 0.25715 0.06955
 C765 C 0.07715 0.27392 0.11136
 C766 C 0.08909 0.24031 0.13727
 C767 C 0.13112 0.25044 0.13009
 C768 C 0.11957 0.28403 0.10455
 H769 H 0.15551 0.20279 0.08934
 H770 H 0.07762 0.18434 0.10108
 H771 H 0.13299 0.26395 0.04132
 H772 H 0.05403 0.29459 0.11758
 H773 H 0.07641 0.23340 0.16541
 H774 H 0.13203 0.31307 0.10586
 C775 C 0.63188 0.72230 0.60169
 C776 C 0.58947 0.71208 0.60809
 C777 C 0.57801 0.74669 0.58382
 C778 C 0.62003 0.75690 0.57702
 C779 C 0.57676 0.77224 0.61942
 C780 C 0.58863 0.73766 0.64410
 C781 C 0.63068 0.74791 0.63727
 C782 C 0.61922 0.78246 0.61298
 H783 H 0.65492 0.70176 0.59473
 H784 H 0.57700 0.68310 0.60583
 H785 H 0.63261 0.76471 0.54908
 H786 H 0.55372 0.79276 0.62638
 H787 H 0.57597 0.72975 0.67198
 H788 H 0.63176 0.81140 0.61536
 C789 C 0.09998 0.71992 0.87522
 C790 C 0.10650 0.71500 0.91861
 C791 C 0.08054 0.74956 0.92591
 C792 C 0.07360 0.75447 0.88295
 C793 C 0.11487 0.77673 0.92443
 C794 C 0.14125 0.74220 0.91668
 C795 C 0.13431 0.74706 0.87367
 C796 C 0.10833 0.78159 0.88102
 H797 H 0.09420 0.69654 0.85469
 H798 H 0.10555 0.68759 0.93434
 H799 H 0.04548 0.75957 0.86938
 H800 H 0.12073 0.80014 0.94491
 H801 H 0.16935 0.73711 0.93029
 H802 H 0.10946 0.80895 0.86519
 C803 C 0.59576 0.22707 0.36360
 C804 C 0.60226 0.21676 0.40599
 C805 C 0.57921 0.25217 0.41765
 C806 C 0.57232 0.26249 0.37564
 C807 C 0.61558 0.27653 0.41862
 C808 C 0.63899 0.24116 0.40660
 C809 C 0.63212 0.25144 0.36456
 C810 C 0.60910 0.28684 0.37617
 H811 H 0.58799 0.20672 0.34063
 H812 H 0.59921 0.18790 0.41854
 H813 H 0.54455 0.27129 0.36331
 H814 H 0.62339 0.29689 0.44156
 H815 H 0.66669 0.23233 0.41907
 H816 H 0.61235 0.31565 0.36352
 C817 C 0.88821 0.72002 0.11906
 C818 C 0.88196 0.73021 0.07656
 C819 C 0.91740 0.75594 0.07805
 C820 C 0.92398 0.74576 0.12014
 C821 C 0.89288 0.79044 0.08937
 C822 C 0.85701 0.76467 0.08830
 C823 C 0.86366 0.75442 0.13041
 C824 C 0.89907 0.78024 0.13186
 H825 H 0.88595 0.69106 0.13153
 H826 H 0.87522 0.70968 0.05343
 H827 H 0.95188 0.73810 0.13294
 H828 H 0.89507 0.81942 0.07693
 H829 H 0.82916 0.77243 0.07546
 H830 H 0.90578 0.80081 0.15497
 C831 C 0.38025 0.21543 0.60591
 C832 C 0.37934 0.24188 0.57064
 C833 C 0.42136 0.25197 0.57771
 C834 C 0.42269 0.22554 0.61261
 C835 C 0.40991 0.28596 0.60288
 C836 C 0.36749 0.27585 0.59623
 C837 C 0.36881 0.24934 0.63109
 C838 C 0.41085 0.25948 0.63817
 H839 H 0.36774 0.18643 0.60753
 H840 H 0.36675 0.23477 0.54248
 H841 H 0.44578 0.20490 0.61901
 H842 H 0.42236 0.31499 0.60137
 H843 H 0.34440 0.29653 0.58988
 H844 H 0.42356 0.26672 0.66624
 C845 C 0.91055 0.23465 0.85822
 C846 C 0.92387 0.26934 0.88204
 C847 C 0.92166 0.24471 0.91819
 C848 C 0.90878 0.20997 0.89477
 C849 C 0.88012 0.25677 0.92490
 C850 C 0.88187 0.28141 0.88833
 C851 C 0.86895 0.24676 0.86487
 C852 C 0.86681 0.22206 0.90101
 H853 H 0.92281 0.22555 0.83050
 H854 H 0.94770 0.28872 0.87451
 H855 H 0.92004 0.18056 0.89761
 H856 H 0.86793 0.26576 0.95268
 H857 H 0.87048 0.31075 0.88531
 H858 H 0.84297 0.20266 0.90847
 C859 C 0.41052 0.74195 0.36157
 C860 C 0.42238 0.77580 0.38728
 C861 C 0.42133 0.74918 0.42205
 C862 C 0.40986 0.71529 0.39673
 C863 C 0.37930 0.75906 0.42931
 C864 C 0.37992 0.78571 0.39418
 C865 C 0.36846 0.75187 0.36885
 C866 C 0.36745 0.72519 0.40359
 H867 H 0.42313 0.73491 0.33342
 H868 H 0.44536 0.79657 0.38089
 H869 H 0.42241 0.68629 0.39802
 H870 H 0.36681 0.76598 0.45755
 H871 H 0.36729 0.81467 0.39277
 H872 H 0.34449 0.70438 0.40995
 C873 C 0.13140 0.09904 0.27515
 C874 C 0.08896 0.10531 0.28535
 C875 C 0.07748 0.08219 0.24987
 C876 C 0.11954 0.07554 0.23966
 C877 C 0.07646 0.11859 0.22554
 C878 C 0.08831 0.14209 0.26098
 C879 C 0.13040 0.13542 0.25082
 C880 C 0.11894 0.11232 0.21535
 H881 H 0.15430 0.09133 0.29557
 H882 H 0.07635 0.10220 0.31419
 H883 H 0.13204 0.04785 0.23086
 H884 H 0.05359 0.12632 0.20510
 H885 H 0.07570 0.16972 0.26981
 H886 H 0.13161 0.11559 0.18655
 C887 C 0.63502 0.59209 0.77818
 C888 C 0.59253 0.59853 0.78810
 C889 C 0.58119 0.57602 0.75220
 C890 C 0.62327 0.56916 0.74226
 C891 C 0.58063 0.61272 0.72837
 C892 C 0.59231 0.63560 0.76423
 C893 C 0.63444 0.62878 0.75433
 C894 C 0.62314 0.60627 0.71844
 H895 H 0.65772 0.58398 0.79867
 H896 H 0.57963 0.59513 0.81678
 H897 H 0.63561 0.54148 0.73317
 H898 H 0.55798 0.62090 0.70786
 H899 H 0.57978 0.66318 0.77334
 H900 H 0.63614 0.60985 0.68982
 C901 C 0.86926 0.09624 0.77349
 C902 C 0.88070 0.06985 0.73996
 C903 C 0.92284 0.07740 0.74918
 C904 C 0.91180 0.10336 0.78274
 C905 C 0.92355 0.11160 0.72183
 C906 C 0.88092 0.10448 0.71260
 C907 C 0.86987 0.13045 0.74610
 C908 C 0.91208 0.13795 0.75535
 H909 H 0.84659 0.09025 0.79472
 H910 H 0.86811 0.04149 0.73374
 H911 H 0.92468 0.10277 0.81164
 H912 H 0.94622 0.11767 0.70064
 H913 H 0.86790 0.10529 0.68377
 H914 H 0.92478 0.16622 0.76169
 C915 C 0.37772 0.61130 0.28477
 C916 C 0.37732 0.57473 0.26006
 C917 C 0.41939 0.58162 0.25014
 C918 C 0.42022 0.61778 0.27486
 C919 C 0.40806 0.60499 0.21484
 C920 C 0.36558 0.59851 0.22476
 C921 C 0.36642 0.63466 0.24947
 C922 C 0.40853 0.64153 0.23960
 H923 H 0.36486 0.61432 0.31352
 H924 H 0.36486 0.54692 0.26852
 H925 H 0.44299 0.62536 0.29549
 H926 H 0.42084 0.60217 0.18604
 H927 H 0.34279 0.59097 0.20415
 H928 H 0.42114 0.66926 0.23112
 C929 C 0.11883 0.88742 0.71883
 C930 C 0.07637 0.88117 0.72908
 C931 C 0.07775 0.91683 0.75456
 C932 C 0.11981 0.92343 0.74431
 C933 C 0.08915 0.89261 0.78924
 C934 C 0.08816 0.85654 0.76374
 C935 C 0.13023 0.86318 0.75344
 C936 C 0.13159 0.89881 0.77899
 H937 H 0.13132 0.88495 0.68988
 H938 H 0.05328 0.87421 0.70859
 H939 H 0.13252 0.95129 0.73644
 H940 H 0.07671 0.89499 0.81823
 H941 H 0.07538 0.82874 0.77172
 H942 H 0.15466 0.90573 0.79953
 C943 C 0.59734 0.36929 0.27293
 C944 C 0.60407 0.41147 0.28393
 C945 C 0.57956 0.42371 0.24974
 C946 C 0.57242 0.38192 0.23875
 C947 C 0.61489 0.42525 0.22390
 C948 C 0.63978 0.41264 0.25806
 C949 C 0.63264 0.37081 0.24702
 C950 C 0.60812 0.38303 0.21289
 H951 H 0.59046 0.34588 0.29306
 H952 H 0.60215 0.42342 0.31317
 H953 H 0.54432 0.36964 0.23094
 H954 H 0.62180 0.44867 0.20381
 H955 H 0.66779 0.42504 0.26599
 H956 H 0.61015 0.37102 0.18368
 C957 C 0.86783 0.90406 0.22448
 C958 C 0.87959 0.92957 0.25858
 C959 C 0.92163 0.92245 0.24867
 C960 C 0.91028 0.89738 0.21454
 C961 C 0.92280 0.88750 0.27506
 C962 C 0.88030 0.89423 0.28497
 C963 C 0.86892 0.86912 0.25093
 C964 C 0.91101 0.86202 0.24097
 H965 H 0.84485 0.91052 0.20369
 H966 H 0.86696 0.95769 0.26570
 H967 H 0.92280 0.89886 0.18552
 H968 H 0.94576 0.88096 0.29582
 H969 H 0.86767 0.89258 0.31392
 H970 H 0.92369 0.83396 0.23373
 C971 C 0.35975 0.40859 0.73948
 C972 C 0.38478 0.42022 0.77392
 C973 C 0.42007 0.41909 0.74801
 C974 C 0.39544 0.40785 0.71354
 C975 C 0.42696 0.37700 0.75789
 C976 C 0.39130 0.37770 0.78382
 C977 C 0.36666 0.36647 0.74942
 C978 C 0.40193 0.36537 0.72343
 H979 H 0.33181 0.42133 0.73192
 H980 H 0.37805 0.44317 0.79464
 H981 H 0.39740 0.42050 0.68462
 H982 H 0.45498 0.36436 0.76534
 H983 H 0.38923 0.36500 0.81271
 H984 H 0.40861 0.34243 0.70267
 C985 C 0.09587 0.21937 0.86269
 C986 C 0.10203 0.20782 0.90483
 C987 C 0.07900 0.24295 0.91735
 C988 C 0.07241 0.25448 0.87561
 C989 C 0.11542 0.26719 0.91921
 C990 C 0.13883 0.23212 0.90633
 C991 C 0.13225 0.24370 0.86456
 C992 C 0.10921 0.27875 0.87707
 H993 H 0.08819 0.19973 0.83908
 H994 H 0.09885 0.17861 0.91652
 H995 H 0.04472 0.26364 0.86336
 H996 H 0.12314 0.28682 0.94281
 H997 H 0.16643 0.22283 0.91870
 H998 H 0.11253 0.30791 0.86530
 C999 C 0.59844 0.72363 0.36985
 C1000 C 0.60502 0.71281 0.41212
 C1001 C 0.58075 0.74726 0.42424
 C1002 C 0.57379 0.75804 0.38235
 C1003 C 0.61634 0.77277 0.42574
 C1004 C 0.64100 0.73838 0.41323
 C1005 C 0.63400 0.74922 0.37133
 C1006 C 0.60972 0.78359 0.38345
 H1007 H 0.59142 0.70340 0.34653
 H1008 H 0.60286 0.68365 0.42415
 H1009 H 0.54582 0.76607 0.36996
 H1010 H 0.62341 0.79296 0.44907
 H1011 H 0.66892 0.73025 0.42569
 H1012 H 0.61198 0.81272 0.37136
 C1013 C 0.91329 0.76033 0.86027
 C1014 C 0.91283 0.78681 0.89564
 C1015 C 0.92399 0.75264 0.92073
 C1016 C 0.92491 0.72622 0.88578
 C1017 C 0.88189 0.74310 0.92793
 C1018 C 0.87032 0.77722 0.90243
 C1019 C 0.87114 0.75075 0.86748
 C1020 C 0.88233 0.71666 0.89259
 H1021 H 0.92592 0.76746 0.83217
 H1022 H 0.92557 0.81573 0.89705
 H1023 H 0.94768 0.70527 0.87923
 H1024 H 0.86927 0.73607 0.95608
 H1025 H 0.84755 0.79820 0.90891
 H1026 H 0.86945 0.68782 0.89097
 C1027 C 0.40899 0.24396 0.35805
 C1028 C 0.42108 0.27900 0.38200
 C1029 C 0.42010 0.25413 0.41805
 C1030 C 0.40836 0.21909 0.39446
 C1031 C 0.37813 0.26450 0.42502
 C1032 C 0.37865 0.28934 0.38855
 C1033 C 0.36697 0.25428 0.36500
 C1034 C 0.36603 0.22942 0.40104
 H1035 H 0.42148 0.23550 0.33024
 H1036 H 0.44404 0.29939 0.37447
 H1037 H 0.42083 0.19014 0.39709
 H1038 H 0.36578 0.27292 0.45290
 H1039 H 0.36611 0.31824 0.38569
 H1040 H 0.34305 0.20903 0.40856
 C1041 C 0.09312 0.77965 0.13845
 C1042 C 0.09963 0.79159 0.09644
 C1043 C 0.07702 0.75639 0.08332
 C1044 C 0.07006 0.74445 0.12490
 C1045 C 0.11367 0.73246 0.08178
 C1046 C 0.13663 0.76760 0.09522
 C1047 C 0.12972 0.75561 0.13684
 C1048 C 0.10708 0.72049 0.12372
 H1049 H 0.08505 0.79906 0.16210
 H1050 H 0.09638 0.82087 0.08496
 H1051 H 0.04231 0.73498 0.13674
 H1052 H 0.12186 0.71309 0.05814
 H1053 H 0.16427 0.77721 0.08323
 H1054 H 0.11046 0.69125 0.13527
 C1055 C 0.63345 0.22577 0.59382
 C1056 C 0.59079 0.21698 0.60061
 C1057 C 0.58020 0.25216 0.57674
 C1058 C 0.62250 0.26098 0.56956
 C1059 C 0.58022 0.27743 0.61256
 C1060 C 0.59115 0.24225 0.63679
 C1061 C 0.63349 0.25102 0.62964
 C1062 C 0.62296 0.28622 0.60580
 H1063 H 0.65568 0.20451 0.58643
 H1064 H 0.57731 0.18847 0.59828
 H1065 H 0.63504 0.26868 0.54156
 H1066 H 0.55802 0.29869 0.61999
 H1067 H 0.57845 0.23452 0.66470
 H1068 H 0.63657 0.31467 0.60832
 C1069 C 0.90189 0.22187 0.13043
 C1070 C 0.89533 0.21082 0.08820
 C1071 C 0.91946 0.24529 0.07597
 C1072 C 0.92643 0.25632 0.11780
 C1073 C 0.88382 0.27068 0.07435
 C1074 C 0.85932 0.23628 0.08695
 C1075 C 0.86629 0.24735 0.12881
 C1076 C 0.89042 0.28175 0.11659
 H1077 H 0.90892 0.20179 0.15384
 H1078 H 0.89758 0.18161 0.07625
 H1079 H 0.95441 0.26451 0.13012
 H1080 H 0.87671 0.29072 0.05093
 H1081 H 0.83143 0.22796 0.07453
 H1082 H 0.88804 0.31091 0.12862
 C1083 C 0.37826 0.71130 0.61167
 C1084 C 0.37737 0.73585 0.57500
 C1085 C 0.41932 0.74659 0.58170
 C1086 C 0.42064 0.72202 0.61795
 C1087 C 0.40743 0.78172 0.60507
 C1088 C 0.36512 0.77102 0.59877
 C1089 C 0.36643 0.74645 0.63501
 C1090 C 0.40843 0.75714 0.64167
 H1091 H 0.36599 0.68232 0.61479
 H1092 H 0.36493 0.72711 0.54724
 H1093 H 0.44379 0.70186 0.62557
 H1094 H 0.41966 0.81074 0.60217
 H1095 H 0.34195 0.79117 0.59119
 H1096 H 0.42104 0.76591 0.66934
 C1097 C 0.25628 0.08777 0.85887
 C1098 C 0.28229 0.08750 0.89452
 C1099 C 0.24745 0.07783 0.91924
 C1100 C 0.22144 0.07774 0.88396
 C1101 C 0.23946 0.12034 0.92608
 C1102 C 0.27433 0.13038 0.90097
 C1103 C 0.24835 0.13032 0.86570
 C1104 C 0.21349 0.12071 0.89039
 H1105 H 0.26321 0.07459 0.83095
 H1106 H 0.31061 0.07356 0.89645
 H1107 H 0.19968 0.05577 0.87729
 H1108 H 0.23255 0.13338 0.95408
 H1109 H 0.29609 0.15236 0.90763
 H1110 H 0.18522 0.13476 0.88829
 C1111 C 0.75883 0.64084 0.40945
 C1112 C 0.72371 0.61709 0.42152
 C1113 C 0.74825 0.58084 0.41990
 C1114 C 0.78339 0.60423 0.40815
 C1115 C 0.73746 0.57447 0.37788
 C1116 C 0.71293 0.61114 0.37908
 C1117 C 0.74809 0.63450 0.36739
 C1118 C 0.77263 0.59826 0.36578
 H1119 H 0.76764 0.66840 0.42227
 H1120 H 0.70359 0.62457 0.44476
 H1121 H 0.81242 0.60120 0.42035
 H1122 H 0.72868 0.54683 0.36523
 H1123 H 0.68395 0.61438 0.36682
 H1124 H 0.79274 0.59082 0.34253
 C1125 C 0.72515 0.13501 0.09214
 C1126 C 0.76059 0.12280 0.06875
 C1127 C 0.75036 0.08087 0.07615
 C1128 C 0.71494 0.09265 0.09908
 C1129 C 0.77481 0.08047 0.11253
 C1130 C 0.78500 0.12286 0.10557
 C1131 C 0.74960 0.13463 0.12852
 C1132 C 0.73942 0.09263 0.13582
 H1133 H 0.70475 0.15780 0.08409
 H1134 H 0.76928 0.13486 0.04083
 H1135 H 0.68609 0.08000 0.09625
 H1136 H 0.79524 0.05774 0.12068
 H1137 H 0.81377 0.13566 0.10862
 H1138 H 0.73070 0.08042 0.16366
 C1139 C 0.21901 0.61770 0.61300
 C1140 C 0.24401 0.61936 0.57673
 C1141 C 0.25495 0.57741 0.58286
 C1142 C 0.22997 0.57534 0.61878
 C1143 C 0.28973 0.58917 0.60684
 C1144 C 0.27877 0.63150 0.60109
 C1145 C 0.25373 0.62945 0.63699
 C1146 C 0.26470 0.58749 0.64317
 H1147 H 0.18991 0.62973 0.61590
 H1148 H 0.23555 0.63215 0.54905
 H1149 H 0.20991 0.55190 0.62573
 H1150 H 0.31887 0.57720 0.60407
 H1151 H 0.29882 0.65494 0.59412
 H1152 H 0.27325 0.57464 0.67079
 C1153 C 0.78053 0.89896 0.87043
 C1154 C 0.74571 0.92347 0.88199
 C1155 C 0.75605 0.91745 0.92413
 C1156 C 0.79090 0.89333 0.91297
 C1157 C 0.73089 0.88163 0.92595
 C1158 C 0.72054 0.88733 0.88343
 C1159 C 0.75528 0.86318 0.87223
 C1160 C 0.76568 0.85708 0.91438
 H1161 H 0.80097 0.90571 0.84725
 H1162 H 0.73756 0.95111 0.86897
 H1163 H 0.81987 0.89607 0.92538
 H1164 H 0.71048 0.87482 0.94913
 H1165 H 0.69159 0.88452 0.87099
 H1166 H 0.77392 0.82948 0.92742
 C1167 C 0.26433 0.41189 0.35893
 C1168 C 0.22963 0.42448 0.38307
 C1169 C 0.25449 0.42249 0.41910
 C1170 C 0.28926 0.41028 0.39536
 C1171 C 0.24322 0.38066 0.42550
 C1172 C 0.21833 0.38225 0.38911
 C1173 C 0.25302 0.37005 0.36536
 C1174 C 0.27795 0.36807 0.40136
 H1175 H 0.27308 0.42448 0.33126
 H1176 H 0.20978 0.44802 0.37586
 H1177 H 0.31848 0.42206 0.39815
 H1178 H 0.23458 0.36815 0.45323
 H1179 H 0.18915 0.37040 0.38619
 H1180 H 0.29780 0.34453 0.40857
 C1181 C 0.21133 0.87858 0.10943
 C1182 C 0.21958 0.92151 0.11576
 C1183 C 0.24582 0.92110 0.08069
 C1184 C 0.23754 0.87862 0.07394
 C1185 C 0.28042 0.91125 0.10572
 C1186 C 0.25417 0.91131 0.14116
 C1187 C 0.24595 0.86880 0.13442
 C1188 C 0.27217 0.86842 0.09935
 H1189 H 0.18294 0.86475 0.11137
 H1190 H 0.19795 0.94368 0.12219
 H1191 H 0.23073 0.86555 0.04593
 H1192 H 0.30887 0.92495 0.10398
 H1193 H 0.26102 0.92454 0.16909
 H1194 H 0.29379 0.84625 0.09294
 C1195 C 0.71412 0.39028 0.61967
 C1196 C 0.73974 0.42622 0.62003
 C1197 C 0.74872 0.41970 0.57763
 C1198 C 0.72307 0.38417 0.57683
 C1199 C 0.78357 0.39524 0.58798
 C1200 C 0.77463 0.40138 0.63074
 C1201 C 0.74899 0.36586 0.62997
 C1202 C 0.75792 0.35935 0.58753
 H1203 H 0.68556 0.38786 0.63304
 H1204 H 0.73227 0.45406 0.63307
 H1205 H 0.70186 0.37737 0.55435
 H1206 H 0.81219 0.39748 0.57472
 H1207 H 0.79583 0.40815 0.65323
 H1208 H 0.76541 0.33159 0.57433
 C1209 C 0.09860 0.12936 0.72532
 C1210 C 0.10465 0.08673 0.71583
 C1211 C 0.08111 0.07607 0.75120
 C1212 C 0.07469 0.11833 0.76072
 C1213 C 0.11724 0.07518 0.77598
 C1214 C 0.14118 0.08623 0.74062
 C1215 C 0.13473 0.12852 0.75010
 C1216 C 0.11121 0.11788 0.78547
 H1217 H 0.09126 0.15198 0.70447
 H1218 H 0.10170 0.07366 0.68716
 H1219 H 0.04700 0.13120 0.76897
 H1220 H 0.12458 0.05256 0.79684
 H1221 H 0.16882 0.07328 0.73234
 H1222 H 0.11434 0.13102 0.81410
 C1223 C 0.63175 0.60108 0.27865
 C1224 C 0.58931 0.60701 0.28908
 C1225 C 0.57786 0.58349 0.25385
 C1226 C 0.61991 0.57717 0.24344
 C1227 C 0.57637 0.61970 0.22924
 C1228 C 0.58821 0.64361 0.26442
 C1229 C 0.63029 0.63725 0.25398
 C1230 C 0.61883 0.61372 0.21882
 H1231 H 0.65486 0.59373 0.29898
 H1232 H 0.57693 0.60403 0.31804
 H1233 H 0.63264 0.54952 0.23485
 H1234 H 0.55328 0.62704 0.20891
 H1235 H 0.57542 0.67120 0.27311
 H1236 H 0.63128 0.61683 0.18991
 C1237 C 0.12086 0.89322 0.21607
 C1238 C 0.07826 0.88669 0.22555
 C1239 C 0.07877 0.92278 0.25042
 C1240 C 0.12095 0.92971 0.24091
 C1241 C 0.08974 0.89930 0.28574
 C1242 C 0.08958 0.86285 0.26085
 C1243 C 0.13180 0.86976 0.25138
 C1244 C 0.13232 0.90582 0.27626
 H1245 H 0.13404 0.89032 0.18744
 H1246 H 0.05570 0.87911 0.20468
 H1247 H 0.13347 0.95757 0.23273
 H1248 H 0.07666 0.90204 0.31441
 H1249 H 0.07689 0.83507 0.26906
 H1250 H 0.15491 0.91334 0.29711
 C1251 C 0.59826 0.36394 0.77241
 C1252 C 0.60469 0.40649 0.78208
 C1253 C 0.58015 0.41754 0.74748
 C1254 C 0.57333 0.37536 0.73778
 C1255 C 0.61557 0.41851 0.72171
 C1256 C 0.64047 0.40712 0.75629
 C1257 C 0.63367 0.36490 0.74664
 C1258 C 0.60916 0.37589 0.71203
 H1259 H 0.59146 0.34117 0.79326
 H1260 H 0.60264 0.41931 0.81094
 H1261 H 0.54538 0.36263 0.73021
 H1262 H 0.62241 0.44127 0.70085
 H1263 H 0.66834 0.42000 0.76390
 H1264 H 0.61138 0.36297 0.68322
 C1265 C 0.86533 0.09896 0.27055
 C1266 C 0.87606 0.07327 0.23626
 C1267 C 0.91841 0.08060 0.24474
 C1268 C 0.90803 0.10589 0.27900
 C1269 C 0.91855 0.11536 0.21811
 C1270 C 0.87574 0.10847 0.20963
 C1271 C 0.86545 0.13372 0.24394
 C1272 C 0.90785 0.14099 0.25236
 H1273 H 0.84310 0.09255 0.29211
 H1274 H 0.86337 0.04504 0.22966
 H1275 H 0.92156 0.10465 0.30758
 H1276 H 0.94077 0.12181 0.19654
 H1277 H 0.86207 0.10995 0.18112
 H1278 H 0.92075 0.16911 0.25900
 C1279 C 0.38048 0.60695 0.78460
 C1280 C 0.37995 0.57142 0.75844
 C1281 C 0.42211 0.57839 0.74886
 C1282 C 0.42305 0.61358 0.77499
 C1283 C 0.41097 0.60325 0.71450
 C1284 C 0.36843 0.59666 0.72411
 C1285 C 0.36935 0.63181 0.75031
 C1286 C 0.41152 0.63881 0.74069
 H1287 H 0.36764 0.60881 0.81344
 H1288 H 0.36728 0.54337 0.76569
 H1289 H 0.44583 0.62024 0.79592
 H1290 H 0.42374 0.60151 0.68562
 H1291 H 0.34565 0.59005 0.70315
 H1292 H 0.42428 0.66680 0.73334
 C1293 C 0.85897 0.90908 0.76476
 C1294 C 0.89507 0.90871 0.79019
 C1295 C 0.91909 0.91992 0.75530
 C1296 C 0.88339 0.92068 0.72992
 C1297 C 0.92610 0.87781 0.74555
 C1298 C 0.90168 0.86620 0.78042
 C1299 C 0.86602 0.86695 0.75496
 C1300 C 0.89006 0.87816 0.72015
 H1301 H 0.83106 0.92166 0.77270
 H1302 H 0.89738 0.92156 0.81902
 H1303 H 0.87621 0.94344 0.70918
 H1304 H 0.95407 0.86531 0.73770
 H1305 H 0.90880 0.84344 0.80120
 H1306 H 0.88763 0.86525 0.69136
 C1307 C 0.35969 0.41211 0.24054
 C1308 C 0.38430 0.42294 0.27552
 C1309 C 0.41990 0.42259 0.24997
 C1310 C 0.39565 0.41210 0.21498
 C1311 C 0.42681 0.38026 0.25885
 C1312 C 0.39081 0.38018 0.28437
 C1313 C 0.36658 0.36973 0.24937
 C1314 C 0.40216 0.36939 0.22383
 H1315 H 0.33182 0.42502 0.23300
 H1316 H 0.37723 0.44528 0.29678
 H1317 H 0.39785 0.42548 0.18641
 H1318 H 0.45475 0.36750 0.26636
 H1319 H 0.38845 0.36670 0.31289
 H1320 H 0.40918 0.34703 0.20257
   
