data_POSCAR
  _audit_creation_date              2014-09-24
  _audit_creation_method            'ToBaCCo'
  _symmetry_space_group_name_H-M    'P1'
  _symmetry_Int_Tables_number       1
  _symmetry_cell_setting            triclinic
  loop_
  _symmetry_equiv_pos_as_xyz
 x,y,z
_cell_length_a 51.3340
_cell_length_b 51.3335
_cell_length_c 51.3350
_cell_angle_alpha 88.847400
_cell_angle_beta 88.848800
_cell_angle_gamma 88.849800
loop_
  _atom_site_label
  _atom_site_type_symbol
  _atom_site_fract_x
  _atom_site_fract_y
  _atom_site_fract_z
Si1 Si 0.75565 0.61817 0.99904
 Si2 Si 0.74945 0.37852 0.50323
 Si3 Si 0.24943 -0.12146 0.00322
 Si4 Si 0.25567 0.11817 0.49902
 Si5 Si 0.11816 0.49904 0.25566
 Si6 Si -0.12149 0.00323 0.24940
 Si7 Si 0.37854 0.50321 0.74944
 Si8 Si 0.61820 0.99902 0.75563
 Si9 Si 0.00319 0.24948 -0.12150
 Si10 Si 0.49901 0.25563 0.11817
 Si11 Si 0.99905 0.75571 0.61816
 Si12 Si 0.50322 0.74938 0.37853
 C13 C 0.41872 -0.02487 0.27635
 H14 H 0.41975 -0.00604 0.28534
 C15 C 0.43251 -0.04627 0.28681
 H16 H 0.44434 -0.04391 0.30381
 C17 C 0.40086 -0.05142 0.24419
 H18 H 0.38789 -0.05364 0.22813
 C19 C 0.41433 -0.07325 0.25399
 H20 H 0.41186 -0.09206 0.24526
 N21 N 0.40314 -0.02783 0.25551
 C22 C 0.38697 0.04877 0.22053
 H23 H 0.36602 0.04729 0.21955
 C24 C 0.39917 0.07101 0.21076
 H25 H 0.38760 0.08671 0.20215
 C26 C 0.42762 0.03008 0.23298
 H27 H 0.43856 0.01401 0.24156
 C28 C 0.44065 0.05210 0.22339
 H29 H 0.46165 0.05301 0.22463
 Zn30 Zn 0.38160 0.00058 0.24456
 N31 N 0.40119 0.02903 0.23165
 C32 C 0.36352 0.03596 0.28250
 N33 N 0.36132 0.01121 0.27387
 C34 C 0.34639 -0.00650 0.28706
 C35 C 0.33282 0.00053 0.30986
 C36 C 0.35029 0.04376 0.30508
 C37 C 0.37324 -0.01492 0.19415
 C38 C 0.35958 -0.02310 0.17270
 C39 C 0.31965 -0.01987 0.19832
 C40 C 0.33411 -0.01168 0.21938
 N41 N 0.36048 -0.00978 0.21700
 H42 H 0.37601 0.04958 0.27230
 H43 H 0.34542 -0.02621 0.28010
 H44 H 0.32119 -0.01370 0.32043
 H45 H 0.35242 0.06343 0.31191
 H46 H 0.39417 -0.01296 0.19276
 H47 H 0.37000 -0.02758 0.15473
 H48 H 0.29873 -0.02179 0.20038
 H49 H 0.32430 -0.00707 0.23757
 C50 C 0.42620 0.07278 0.21232
 C51 C 0.43005 -0.07073 0.27566
 C52 C 0.33259 -0.02578 0.17485
 C53 C 0.33492 0.02590 0.31895
 C54 C 0.08569 1.02310 0.78185
 H55 H 0.08393 1.00422 0.79140
 C56 C 0.07234 1.04478 0.79199
 H57 H 0.06014 1.04260 0.80932
 C58 C 0.10488 1.04945 0.74847
 H59 H 0.11818 1.05144 0.73204
 C60 C 0.09189 1.07155 0.75794
 H61 H 0.09505 1.09035 0.74857
 N62 N 0.10169 1.02582 0.76054
 C63 C 0.11575 0.94884 0.72805
 H64 H 0.13681 0.94927 0.72711
 C65 C 0.10282 0.92755 0.71849
 H66 H 0.11393 0.91150 0.71013
 C67 C 0.07554 0.96951 0.73969
 H68 H 0.06506 0.98607 0.74769
 C69 C 0.06177 0.94850 0.73026
 H70 H 0.04067 0.94884 0.73109
 Zn71 Zn 0.12246 0.99689 0.74986
 N72 N 0.10207 0.96916 0.73856
 C73 C 0.13973 0.96106 0.78860
 N74 N 0.14246 0.98570 0.77875
 C75 C 0.15794 1.00308 0.79041
 C76 C 0.17162 0.99578 0.81280
 C77 C 0.15304 0.95300 0.81084
 C78 C 0.13125 1.01249 0.69865
 C79 C 0.14512 1.02038 0.67635
 C80 C 0.18502 1.01564 0.70038
 C81 C 0.17036 1.00776 0.72232
 N82 N 0.14392 1.00676 0.72113
 H83 H 0.12680 0.94774 0.77960
 H84 H 0.15934 1.02271 0.78251
 H85 H 0.18374 1.00975 0.82212
 H86 H 0.15053 0.93342 0.81865
 H87 H 0.11026 1.01123 0.69821
 H88 H 0.13479 1.02534 0.65867
 H89 H 0.20601 1.01687 0.70148
 H90 H 0.18007 1.00267 0.74024
 C91 C 0.07561 0.92735 0.71958
 C92 C 0.07571 1.06926 0.78004
 C93 C 0.17220 1.02216 0.67726
 C94 C 0.16903 0.97051 0.82311
 C95 C 0.58569 0.52301 0.28185
 H96 H 0.58395 0.50413 0.29141
 C97 C 0.57235 0.54468 0.29200
 H98 H 0.56016 0.54249 0.30935
 C99 C 0.60485 0.54936 0.24847
 H100 H 0.61815 0.55136 0.23203
 C101 C 0.59186 0.57145 0.25794
 H102 H 0.59501 0.59026 0.24858
 N103 N 0.60168 0.52573 0.26054
 C104 C 0.61575 0.44876 0.22803
 H105 H 0.63681 0.44920 0.22707
 C106 C 0.60282 0.42747 0.21846
 H107 H 0.61393 0.41142 0.21010
 C108 C 0.57554 0.46941 0.23970
 H109 H 0.56506 0.48596 0.24771
 C110 C 0.56177 0.44840 0.23027
 H111 H 0.54067 0.44873 0.23112
 Zn112 Zn 0.62246 0.49681 0.24985
 N113 N 0.60207 0.46907 0.23855
 C114 C 0.63975 0.46097 0.28857
 N115 N 0.64247 0.48561 0.27874
 C116 C 0.65794 0.50300 0.29040
 C117 C 0.67162 0.49571 0.31279
 C118 C 0.65306 0.45291 0.31081
 C119 C 0.63124 0.51242 0.19863
 C120 C 0.64510 0.52032 0.17634
 C121 C 0.68501 0.51558 0.20036
 C122 C 0.67034 0.50770 0.22230
 N123 N 0.64391 0.50669 0.22111
 H124 H 0.62683 0.44765 0.27956
 H125 H 0.65932 0.52263 0.28251
 H126 H 0.68372 0.50967 0.32211
 H127 H 0.65057 0.43333 0.31861
 H128 H 0.61024 0.51115 0.19820
 H129 H 0.63477 0.52528 0.15867
 H130 H 0.70600 0.51681 0.20146
 H131 H 0.68006 0.50260 0.24022
 C132 C 0.57561 0.42726 0.21958
 C133 C 0.57570 0.56916 0.28006
 C134 C 0.67218 0.52210 0.17725
 C135 C 0.66904 0.47043 0.32309
 C136 C 0.91870 0.47523 0.77632
 H137 H 0.91972 0.49405 0.78532
 C138 C 0.93249 0.45383 0.78678
 H139 H 0.94432 0.45618 0.80379
 C140 C 0.90085 0.44868 0.74416
 H141 H 0.88788 0.44646 0.72810
 C142 C 0.91431 0.42685 0.75396
 H143 H 0.91185 0.40804 0.74522
 N144 N 0.90313 0.47227 0.75547
 C145 C 0.88696 0.54888 0.72051
 H146 H 0.86601 0.54739 0.71952
 C147 C 0.89915 0.57112 0.71074
 H148 H 0.88759 0.58682 0.70213
 C149 C 0.92760 0.53018 0.73297
 H150 H 0.93854 0.51411 0.74155
 C151 C 0.94064 0.55220 0.72338
 H152 H 0.96164 0.55311 0.72462
 Zn153 Zn 0.88158 0.50068 0.74453
 N154 N 0.90118 0.52913 0.73163
 C155 C 0.86349 0.53605 0.78247
 N156 N 0.86130 0.51131 0.77384
 C157 C 0.84637 0.49358 0.78702
 C158 C 0.83280 0.50061 0.80982
 C159 C 0.85026 0.54385 0.80506
 C160 C 0.87323 0.48518 0.69412
 C161 C 0.85957 0.47700 0.67267
 C162 C 0.81964 0.48021 0.69828
 C163 C 0.83410 0.48841 0.71934
 N164 N 0.86046 0.49032 0.71697
 H165 H 0.87598 0.54967 0.77228
 H166 H 0.84540 0.47388 0.78006
 H167 H 0.82117 0.48638 0.82039
 H168 H 0.85239 0.56351 0.81189
 H169 H 0.89416 0.48716 0.69273
 H170 H 0.87000 0.47253 0.65470
 H171 H 0.79872 0.47828 0.70035
 H172 H 0.82429 0.49302 0.73753
 C173 C 0.92619 0.57289 0.71231
 C174 C 0.93003 0.42937 0.77563
 C175 C 0.83258 0.47431 0.67481
 C176 C 0.83490 0.52598 0.81893
 C177 C 0.27633 0.41872 -0.02482
 H178 H 0.28532 0.41974 -0.00599
 C179 C 0.28679 0.43252 -0.04621
 H180 H 0.30380 0.44434 -0.04386
 C181 C 0.24417 0.40087 -0.05138
 H182 H 0.22811 0.38790 -0.05360
 C183 C 0.25398 0.41433 -0.07320
 H184 H 0.24524 0.41187 -0.09201
 N185 N 0.25548 0.40315 -0.02778
 C186 C 0.22050 0.38698 0.04881
 H187 H 0.21951 0.36603 0.04733
 C188 C 0.21073 0.39918 0.07105
 H189 H 0.20211 0.38762 0.08675
 C190 C 0.23297 0.42762 0.03012
 H191 H 0.24156 0.43857 0.01405
 C192 C 0.22338 0.44066 0.05214
 H193 H 0.22463 0.46166 0.05305
 Zn194 Zn 0.24454 0.38160 0.00062
 N195 N 0.23163 0.40120 0.02907
 C196 C 0.28247 0.36351 0.03600
 N197 N 0.27383 0.36132 0.01125
 C198 C 0.28702 0.34639 -0.00647
 C199 C 0.30982 0.33281 0.00057
 C200 C 0.30505 0.35028 0.04380
 C201 C 0.19412 0.37325 -0.01488
 C202 C 0.17267 0.35960 -0.02306
 C203 C 0.19828 0.31966 -0.01984
 C204 C 0.21934 0.33412 -0.01165
 N205 N 0.21697 0.36048 -0.00974
 H206 H 0.27227 0.37599 0.04962
 H207 H 0.28006 0.34542 -0.02617
 H208 H 0.32040 0.32119 -0.01366
 H209 H 0.31188 0.35240 0.06347
 H210 H 0.19273 0.39418 -0.01291
 H211 H 0.15469 0.37003 -0.02753
 H212 H 0.20034 0.29875 -0.02177
 H213 H 0.23753 0.32430 -0.00704
 C214 C 0.21230 0.42621 0.07282
 C215 C 0.27565 0.43006 -0.07068
 C216 C 0.17480 0.33261 -0.02575
 C217 C 0.31892 0.33491 0.02594
 C218 C 0.78184 0.08571 1.02302
 H219 H 0.79140 0.08396 1.00414
 C220 C 0.79199 0.07236 1.04469
 H221 H 0.80934 0.06017 1.04251
 C222 C 0.74845 0.10486 1.04937
 H223 H 0.73201 0.11815 1.05136
 C224 C 0.75792 0.09187 1.07146
 H225 H 0.74855 0.09501 1.09027
 N226 N 0.76052 0.10169 1.02574
 C227 C 0.72801 0.11576 0.94878
 H228 H 0.72704 0.13682 0.94922
 C229 C 0.71844 0.10283 0.92749
 H230 H 0.71007 0.11394 0.91144
 C231 C 0.73970 0.07555 0.96942
 H232 H 0.74771 0.06507 0.98597
 C233 C 0.73027 0.06179 0.94840
 H234 H 0.73113 0.04068 0.94873
 Zn235 Zn 0.74983 0.12247 0.99682
 N236 N 0.73853 0.10208 0.96909
 C237 C 0.78856 0.13976 0.96099
 N238 N 0.77872 0.14249 0.98563
 C239 C 0.79038 0.15796 1.00301
 C240 C 0.81276 0.17164 0.99572
 C241 C 0.81080 0.15308 0.95294
 C242 C 0.69861 0.13124 1.01243
 C243 C 0.67632 0.14510 1.02033
 C244 C 0.70034 0.18501 1.01560
 C245 C 0.72228 0.17035 1.00771
 N246 N 0.72109 0.14391 1.00670
 H247 H 0.77956 0.12685 0.94767
 H248 H 0.78248 0.15935 1.02265
 H249 H 0.82208 0.18375 1.00969
 H250 H 0.81861 0.15059 0.93335
 H251 H 0.69818 0.11024 1.01116
 H252 H 0.65864 0.13477 1.02529
 H253 H 0.70144 0.20600 1.01683
 H254 H 0.74020 0.18007 1.00261
 C255 C 0.71957 0.07563 0.92727
 C256 C 0.78004 0.07571 1.06917
 C257 C 0.67723 0.17219 1.02211
 C258 C 0.82307 0.16907 0.97045
 C259 C 0.28185 0.58565 0.52305
 H260 H 0.29140 0.58390 0.50418
 C261 C 0.29200 0.57230 0.54473
 H262 H 0.30934 0.56011 0.54254
 C263 C 0.24846 0.60480 0.54940
 H264 H 0.23202 0.61810 0.55140
 C265 C 0.25793 0.59181 0.57150
 H266 H 0.24857 0.59496 0.59031
 N267 N 0.26053 0.60163 0.52578
 C268 C 0.22801 0.61572 0.44881
 H269 H 0.22706 0.63678 0.44925
 C270 C 0.21845 0.60279 0.42752
 H271 H 0.21008 0.61391 0.41148
 C272 C 0.23968 0.57550 0.46945
 H273 H 0.24769 0.56502 0.48601
 C274 C 0.23025 0.56174 0.44844
 H275 H 0.23109 0.54064 0.44877
 Zn276 Zn 0.24984 0.62242 0.49686
 N277 N 0.23853 0.60204 0.46912
 C278 C 0.28856 0.63970 0.46102
 N279 N 0.27873 0.64242 0.48566
 C280 C 0.29040 0.65789 0.50304
 C281 C 0.31279 0.67157 0.49575
 C282 C 0.31081 0.65301 0.45296
 C283 C 0.19863 0.63120 0.51247
 C284 C 0.17634 0.64507 0.52037
 C285 C 0.20036 0.68497 0.51563
 C286 C 0.22230 0.67030 0.50775
 N287 N 0.22111 0.64387 0.50674
 H288 H 0.27956 0.62679 0.44770
 H289 H 0.28251 0.65929 0.52268
 H290 H 0.32211 0.68368 0.50971
 H291 H 0.31861 0.65052 0.43338
 H292 H 0.19819 0.61020 0.51121
 H293 H 0.15866 0.63474 0.52534
 H294 H 0.20147 0.70596 0.51686
 H295 H 0.24022 0.68002 0.50265
 C296 C 0.21956 0.57559 0.42730
 C297 C 0.28005 0.57565 0.56921
 C298 C 0.17725 0.67215 0.52215
 C299 C 0.32309 0.66900 0.47047
 C300 C 0.77634 0.91870 0.47514
 H301 H 0.78534 0.91972 0.49396
 C302 C 0.78680 0.93250 0.45374
 H303 H 0.80380 0.94433 0.45609
 C304 C 0.74417 0.90084 0.44858
 H305 H 0.72811 0.88787 0.44637
 C306 C 0.75397 0.91432 0.42676
 H307 H 0.74523 0.91185 0.40795
 N308 N 0.75549 0.90312 0.47217
 C309 C 0.72053 0.88695 0.54878
 H310 H 0.71955 0.86600 0.54730
 C311 C 0.71077 0.89914 0.57102
 H312 H 0.70216 0.88758 0.58672
 C313 C 0.73298 0.92760 0.53008
 H314 H 0.74155 0.93854 0.51400
 C315 C 0.72339 0.94063 0.55210
 H316 H 0.72463 0.96163 0.55300
 Zn317 Zn 0.74456 0.88158 0.50058
 N318 N 0.73165 0.90117 0.52903
 C319 C 0.78250 0.86349 0.53595
 N320 N 0.77386 0.86130 0.51121
 C321 C 0.78706 0.84638 0.49348
 C322 C 0.80986 0.83281 0.50051
 C323 C 0.80508 0.85027 0.54375
 C324 C 0.69414 0.87322 0.48509
 C325 C 0.67269 0.85955 0.47691
 C326 C 0.69831 0.81962 0.48014
 C327 C 0.71937 0.83408 0.48833
 N328 N 0.71700 0.86045 0.49023
 H329 H 0.77230 0.87597 0.54957
 H330 H 0.78009 0.84541 0.47378
 H331 H 0.82044 0.82119 0.48628
 H332 H 0.81192 0.85239 0.56341
 H333 H 0.69275 0.89415 0.48705
 H334 H 0.65472 0.86997 0.47244
 H335 H 0.70037 0.79871 0.47822
 H336 H 0.73756 0.82428 0.49294
 C337 C 0.71232 0.92618 0.57278
 C338 C 0.77564 0.93004 0.42928
 C339 C 0.67483 0.83256 0.47424
 C340 C 0.81896 0.83491 0.52588
 C341 C -0.02482 0.27633 0.41871
 H342 H -0.00600 0.28532 0.41974
 C343 C -0.04622 0.28679 0.43251
 H344 H -0.04387 0.30379 0.44434
 C345 C -0.05138 0.24417 0.40086
 H346 H -0.05360 0.22811 0.38789
 C347 C -0.07321 0.25397 0.41433
 H348 H -0.09202 0.24523 0.41186
 N349 N -0.02779 0.25548 0.40314
 C350 C 0.04881 0.22051 0.38697
 H351 H 0.04732 0.21953 0.36602
 C352 C 0.07105 0.21074 0.39916
 H353 H 0.08675 0.20213 0.38760
 C354 C 0.03012 0.23296 0.42761
 H355 H 0.01404 0.24154 0.43856
 C356 C 0.05214 0.22337 0.44064
 H357 H 0.05304 0.22461 0.46164
 Zn358 Zn 0.00061 0.24454 0.38160
 N359 N 0.02906 0.23163 0.40119
 C360 C 0.03599 0.28248 0.36351
 N361 N 0.01125 0.27385 0.36131
 C362 C -0.00647 0.28704 0.34639
 C363 C 0.00056 0.30984 0.33281
 C364 C 0.04379 0.30507 0.35028
 C365 C -0.01489 0.19413 0.37324
 C366 C -0.02307 0.17268 0.35957
 C367 C -0.01985 0.19830 0.31965
 C368 C -0.01165 0.21936 0.33411
 N369 N -0.00975 0.21698 0.36047
 H370 H 0.04961 0.27229 0.37600
 H371 H -0.02618 0.28007 0.34542
 H372 H -0.01367 0.32041 0.32119
 H373 H 0.06346 0.31190 0.35241
 H374 H -0.01292 0.19274 0.39416
 H375 H -0.02754 0.15471 0.36999
 H376 H -0.02177 0.20037 0.29873
 H377 H -0.00704 0.23755 0.32430
 C378 C 0.07282 0.21230 0.42619
 C379 C -0.07068 0.27564 0.43005
 C380 C -0.02575 0.17483 0.33258
 C381 C 0.02593 0.31894 0.33492
 C382 C 1.02304 0.78186 0.08568
 H383 H 1.00416 0.79142 0.08393
 C384 C 1.04471 0.79201 0.07233
 H385 H 1.04252 0.80935 0.06013
 C386 C 1.04938 0.74848 0.10484
 H387 H 1.05138 0.73204 0.11814
 C388 C 1.07148 0.75795 0.09185
 H389 H 1.09029 0.74858 0.09500
 N390 N 1.02576 0.76054 0.10166
 C391 C 0.94879 0.72803 0.11574
 H392 H 0.94923 0.72707 0.13680
 C393 C 0.92750 0.71846 0.10281
 H394 H 0.91145 0.71009 0.11393
 C395 C 0.96944 0.73970 0.07553
 H396 H 0.98599 0.74772 0.06504
 C397 C 0.94842 0.73027 0.06177
 H398 H 0.94875 0.73112 0.04066
 Zn399 Zn 0.99683 0.74986 0.12245
 N400 N 0.96910 0.73855 0.10206
 C401 C 0.96100 0.78858 0.13972
 N402 N 0.98564 0.77875 0.14245
 C403 C 1.00302 0.79042 0.15792
 C404 C 0.99573 0.81280 0.17160
 C405 C 0.95294 0.81083 0.15303
 C406 C 1.01245 0.69864 0.13123
 C407 C 1.02035 0.67635 0.14510
 C408 C 1.01561 0.70037 0.18500
 C409 C 1.00772 0.72231 0.17034
 N410 N 1.00672 0.72113 0.14390
 H411 H 0.94768 0.77957 0.12681
 H412 H 1.02266 0.78252 0.15932
 H413 H 1.00969 0.82213 0.18371
 H414 H 0.93336 0.81863 0.15054
 H415 H 1.01118 0.69821 0.11023
 H416 H 1.02531 0.65867 0.13477
 H417 H 1.01683 0.70148 0.20599
 H418 H 1.00263 0.74023 0.18005
 C419 C 0.92728 0.71958 0.07561
 C420 C 1.06919 0.78006 0.07568
 C421 C 1.02213 0.67726 0.17218
 C422 C 0.97045 0.82310 0.16902
 C423 C 0.52305 0.28185 0.58570
 H424 H 0.50418 0.29141 0.58395
 C425 C 0.54473 0.29200 0.57235
 H426 H 0.54254 0.30935 0.56016
 C427 C 0.54940 0.24846 0.60485
 H428 H 0.55140 0.23202 0.61814
 C429 C 0.57150 0.25794 0.59186
 H430 H 0.59031 0.24857 0.59501
 N431 N 0.52578 0.26053 0.60168
 C432 C 0.44880 0.22802 0.61575
 H433 H 0.44924 0.22706 0.63681
 C434 C 0.42751 0.21846 0.60281
 H435 H 0.41146 0.21009 0.61392
 C436 C 0.46945 0.23970 0.57554
 H437 H 0.48601 0.24771 0.56506
 C438 C 0.44844 0.23027 0.56177
 H439 H 0.44877 0.23112 0.54067
 Zn440 Zn 0.49685 0.24984 0.62246
 N441 N 0.46912 0.23854 0.60207
 C442 C 0.46102 0.28856 0.63975
 N443 N 0.48566 0.27873 0.64247
 C444 C 0.50304 0.29039 0.65794
 C445 C 0.49575 0.31277 0.67162
 C446 C 0.45296 0.31081 0.65306
 C447 C 0.51246 0.19863 0.63123
 C448 C 0.52036 0.17633 0.64509
 C449 C 0.51562 0.20034 0.68500
 C450 C 0.50773 0.22229 0.67034
 N451 N 0.50673 0.22110 0.64390
 H452 H 0.44769 0.27956 0.62683
 H453 H 0.52268 0.28250 0.65933
 H454 H 0.50972 0.32210 0.68373
 H455 H 0.43338 0.31861 0.65057
 H456 H 0.51120 0.19820 0.61023
 H457 H 0.52533 0.15866 0.63476
 H458 H 0.51684 0.20145 0.70599
 H459 H 0.50264 0.24020 0.68005
 C460 C 0.42730 0.21958 0.57561
 C461 C 0.56921 0.28005 0.57570
 C462 C 0.52214 0.17723 0.67217
 C463 C 0.47048 0.32308 0.66905
 C464 C 0.47517 0.77635 0.91870
 H465 H 0.49399 0.78534 0.91973
 C466 C 0.45377 0.78681 0.93250
 H467 H 0.45612 0.80382 0.94433
 C468 C 0.44861 0.74419 0.90085
 H469 H 0.44639 0.72813 0.88789
 C470 C 0.42678 0.75399 0.91432
 H471 H 0.40797 0.74525 0.91185
 N472 N 0.47220 0.75550 0.90314
 C473 C 0.54881 0.72052 0.88698
 H474 H 0.54732 0.71954 0.86603
 C475 C 0.57104 0.71075 0.89918
 H476 H 0.58674 0.70214 0.88762
 C477 C 0.53011 0.73298 0.92762
 H478 H 0.51403 0.74156 0.93856
 C479 C 0.55212 0.72338 0.94066
 H480 H 0.55302 0.72463 0.96166
 Zn481 Zn 0.50061 0.74456 0.88160
 N482 N 0.52906 0.73164 0.90120
 C483 C 0.53599 0.78249 0.86351
 N484 N 0.51125 0.77386 0.86131
 C485 C 0.49353 0.78705 0.84638
 C486 C 0.50057 0.80984 0.83281
 C487 C 0.54380 0.80507 0.85028
 C488 C 0.48510 0.69414 0.87324
 C489 C 0.47692 0.67269 0.85958
 C490 C 0.48016 0.69830 0.81965
 C491 C 0.48835 0.71936 0.83411
 N492 N 0.49025 0.71699 0.86047
 H493 H 0.54961 0.77229 0.87600
 H494 H 0.47383 0.78009 0.84541
 H495 H 0.48634 0.82042 0.82118
 H496 H 0.56347 0.81190 0.85240
 H497 H 0.48706 0.69275 0.89417
 H498 H 0.47244 0.65472 0.87001
 H499 H 0.47824 0.70037 0.79873
 H500 H 0.49297 0.73755 0.82430
 C501 C 0.57281 0.71231 0.92621
 C502 C 0.42931 0.77566 0.93004
 C503 C 0.47425 0.67483 0.83259
 C504 C 0.52594 0.81894 0.83491
 C505 C 0.47689 -0.17976 0.33315
 C506 C 0.49293 -0.15578 0.33932
 C507 C 0.48429 -0.13340 0.32731
 C508 C 0.46046 -0.13719 0.31031
 C509 C 0.44007 -0.14979 0.32858
 C510 C 0.44870 -0.17213 0.34057
 C511 C 0.47738 -0.18108 0.30330
 C512 C 0.46873 -0.15869 0.29128
 C513 C 0.48596 -0.20370 0.34649
 C514 C 0.49305 -0.22291 0.35846
 C515 C 0.45077 -0.11314 0.29760
 C516 C 0.44188 -0.09359 0.28748
 H517 H 0.50964 -0.15635 0.35197
 H518 H 0.49358 -0.11481 0.32967
 H519 H 0.42053 -0.14185 0.33180
 H520 H 0.43654 -0.18333 0.35404
 H521 H 0.48395 -0.19808 0.29257
 H522 H 0.46790 -0.15650 0.27023
 C523 C 0.97687 0.32034 0.83313
 C524 C 0.99235 0.34448 0.83999
 C525 C 0.98371 0.36685 0.82798
 C526 C 0.96043 0.36290 0.81028
 C527 C 0.93976 0.34983 0.82786
 C528 C 0.94839 0.32749 0.83985
 C529 C 0.97819 0.31933 0.80326
 C530 C 0.96954 0.34172 0.79124
 C531 C 0.98594 0.29639 0.84647
 C532 C 0.99302 0.27718 0.85843
 C533 C 0.95074 0.38696 0.79757
 C534 C 0.94185 0.40650 0.78745
 H535 H 1.00870 0.34402 0.85309
 H536 H 0.99265 0.38555 0.83079
 H537 H 0.92004 0.35746 0.83063
 H538 H 0.93606 0.31598 0.85288
 H539 H 0.98530 0.30254 0.79252
 H540 H 0.96925 0.34412 0.77019
 C541 C 0.03003 1.17876 0.83499
 C542 C 0.01820 1.15405 0.84728
 C543 C 0.02667 1.13163 0.83582
 C544 C 0.04615 1.13610 0.81319
 C545 C 0.06808 1.15184 0.82478
 C546 C 0.05961 1.17424 0.83623
 C547 C 0.02372 1.17764 0.80593
 C548 C 0.03221 1.15519 0.79445
 C549 C 0.02106 1.20273 0.84773
 C550 C 0.01388 1.22192 0.85920
 C551 C 0.05562 1.11196 0.80106
 C552 C 0.06426 1.09231 0.79139
 H553 H 0.00433 1.15416 0.86353
 H554 H 0.02008 1.11255 0.84225
 H555 H 0.08850 1.14591 0.82404
 H556 H 0.07277 1.18749 0.84528
 H557 H 0.01349 1.19309 0.79532
 H558 H 0.02924 1.15140 0.77401
 C559 C 0.53005 0.67866 0.33502
 C560 C 0.52974 0.68007 0.30513
 C561 C 0.53822 0.65762 0.29366
 C562 C 0.54616 0.63600 0.31323
 C563 C 0.52219 0.63242 0.33119
 C564 C 0.51372 0.65485 0.34264
 C565 C 0.55813 0.67073 0.34176
 C566 C 0.56659 0.64833 0.33032
 C567 C 0.52109 0.70264 0.34776
 C568 C 0.51391 0.72183 0.35923
 C569 C 0.55562 0.61186 0.30109
 C570 C 0.56425 0.59221 0.29141
 H571 H 0.52341 0.69715 0.29397
 H572 H 0.53915 0.65547 0.27266
 H573 H 0.51269 0.61392 0.33457
 H574 H 0.49695 0.65555 0.35585
 H575 H 0.57032 0.68176 0.35440
 H576 H 0.58603 0.64017 0.33317
 C577 C 0.52505 0.32346 0.16387
 C578 C 0.55380 0.32887 0.15758
 C579 C 0.56285 0.35015 0.16962
 C580 C 0.54229 0.36401 0.18681
 C581 C 0.53227 0.34281 0.20581
 C582 C 0.52319 0.32146 0.19373
 C583 C 0.51039 0.34888 0.15664
 C584 C 0.51946 0.37021 0.16871
 C585 C 0.51567 0.30063 0.15041
 C586 C 0.50862 0.28226 0.13832
 C587 C 0.55261 0.38693 0.19941
 C588 C 0.56237 0.40553 0.20901
 H589 H 0.56600 0.31700 0.14480
 H590 H 0.58281 0.35650 0.16715
 H591 H 0.53226 0.34445 0.22686
 H592 H 0.51541 0.30480 0.20442
 H593 H 0.49426 0.35001 0.14328
 H594 H 0.51111 0.38960 0.16570
 C595 C 0.02507 0.82355 0.66385
 C596 C 0.01291 0.82771 0.69107
 C597 C 0.02199 0.84907 0.70316
 C598 C 0.04230 0.86411 0.68680
 C599 C 0.02898 0.87057 0.66090
 C600 C 0.01993 0.84926 0.64884
 C601 C 0.05458 0.82254 0.66799
 C602 C 0.06363 0.84383 0.68004
 C603 C 0.01569 0.80072 0.65039
 C604 C 0.00866 0.78235 0.63830
 C605 C 0.05261 0.88703 0.69940
 C606 C 0.06236 0.90563 0.70900
 H607 H -0.00154 0.81503 0.70003
 H608 H 0.01532 0.85471 0.72248
 H609 H 0.02679 0.89016 0.65278
 H610 H 0.00998 0.85061 0.63038
 H611 H 0.06727 0.80647 0.66203
 H612 H 0.08408 0.84598 0.68440
 C613 C 0.97338 0.68362 0.66107
 C614 C 0.94519 0.67738 0.65449
 C615 C 0.93676 0.65465 0.66547
 C616 C 0.95732 0.64030 0.68199
 C617 C 0.96558 0.66026 0.70198
 C618 C 0.97404 0.68307 0.69097
 C619 C 0.98952 0.65959 0.65268
 C620 C 0.98107 0.63681 0.66368
 C621 C 0.98220 0.70798 0.64873
 C622 C 0.98908 0.72754 0.63744
 C623 C 0.94774 0.61583 0.69350
 C624 C 0.93864 0.59600 0.70235
 H625 H 0.93290 0.68978 0.64228
 H626 H 0.91725 0.64757 0.66266
 H627 H 0.96489 0.65678 0.72291
 H628 H 0.98058 0.69913 0.70245
 H629 H 1.00616 0.66041 0.63931
 H630 H 0.99047 0.61813 0.65975
 C631 C 0.47336 0.18352 0.16107
 C632 C 0.44514 0.17734 0.15459
 C633 C 0.43672 0.15460 0.16557
 C634 C 0.45732 0.14020 0.18200
 C635 C 0.46569 0.16012 0.20198
 C636 C 0.47414 0.18293 0.19096
 C637 C 0.48943 0.15948 0.15259
 C638 C 0.48100 0.13670 0.16359
 C639 C 0.48218 0.20789 0.14873
 C640 C 0.48905 0.22745 0.13744
 C641 C 0.44774 0.11573 0.19350
 C642 C 0.43864 0.09589 0.20236
 H643 H 0.43282 0.18976 0.14245
 H644 H 0.41718 0.14756 0.16282
 H645 H 0.46507 0.15661 0.22291
 H646 H 0.48075 0.19896 0.20244
 H647 H 0.50603 0.16029 0.13916
 H648 H 0.49035 0.11801 0.15960
 C649 C 0.33315 0.47689 -0.17970
 C650 C 0.33920 0.49302 -0.15575
 C651 C 0.32719 0.48438 -0.13338
 C652 C 0.31031 0.46045 -0.13714
 C653 C 0.32869 0.44012 -0.14964
 C654 C 0.34068 0.44874 -0.17198
 C655 C 0.30331 0.47724 -0.18108
 C656 C 0.29128 0.46859 -0.15869
 C657 C 0.34650 0.48596 -0.20364
 C658 C 0.35846 0.49304 -0.22285
 C659 C 0.29759 0.45077 -0.11308
 C660 C 0.28747 0.44188 -0.09354
 H661 H 0.35177 0.50979 -0.15634
 H662 H 0.32946 0.49373 -0.11480
 H663 H 0.33199 0.42061 -0.14165
 H664 H 0.35424 0.43663 -0.18312
 H665 H 0.29257 0.48371 -0.19811
 H666 H 0.27024 0.46766 -0.15653
 C667 C 0.83313 0.97690 0.32026
 C668 C 0.80326 0.97817 0.31922
 C669 C 0.79124 0.96952 0.34162
 C670 C 0.81028 0.96045 0.36281
 C671 C 0.82794 0.98376 0.36676
 C672 C 0.83995 0.99241 0.34439
 C673 C 0.83990 0.94844 0.32743
 C674 C 0.82791 0.93980 0.34977
 C675 C 0.84647 0.98597 0.29631
 C676 C 0.85843 0.99306 0.27710
 C677 C 0.79757 0.95076 0.38687
 C678 C 0.78746 0.94187 0.40641
 H679 H 0.79252 0.98525 0.30242
 H680 H 0.77019 0.96919 0.34400
 H681 H 0.83072 0.99272 0.38545
 H682 H 0.85303 1.00878 0.34392
 H683 H 0.85296 0.93612 0.31595
 H684 H 0.83071 0.92009 0.35742
 C685 C 0.83500 0.03007 1.17868
 C686 C 0.84168 0.05818 1.17079
 C687 C 0.83024 0.06664 1.14838
 C688 C 0.81321 0.04618 1.13601
 C689 C 0.79364 0.03817 1.15760
 C690 C 0.80511 0.02969 1.18006
 C691 C 0.84268 0.01379 1.15485
 C692 C 0.83123 0.02226 1.13242
 C693 C 0.84774 0.02111 1.20266
 C694 C 0.85920 0.01393 1.22185
 C695 C 0.80108 0.05564 1.11187
 C696 C 0.79140 0.06426 1.09222
 H697 H 0.85428 0.07039 1.18185
 H698 H 0.83306 0.08609 1.14025
 H699 H 0.77265 0.03906 1.15544
 H700 H 0.79395 0.02332 1.19713
 H701 H 0.85593 -0.00296 1.15556
 H702 H 0.83465 0.01278 1.11392
 C703 C 0.33502 0.53003 0.67872
 C704 C 0.30512 0.52995 0.68021
 C705 C 0.29365 0.53843 0.65775
 C706 C 0.31322 0.54613 0.63605
 C707 C 0.33099 0.52201 0.63253
 C708 C 0.34245 0.51354 0.65496
 C709 C 0.34195 0.55802 0.67065
 C710 C 0.33051 0.56648 0.64824
 C711 C 0.34776 0.52107 0.70270
 C712 C 0.35922 0.51390 0.72189
 C713 C 0.30109 0.55558 0.61191
 C714 C 0.29141 0.56421 0.59226
 H715 H 0.29396 0.52379 0.69735
 H716 H 0.27265 0.53951 0.65566
 H717 H 0.33425 0.51240 0.61406
 H718 H 0.35553 0.49667 0.65570
 H719 H 0.35472 0.57016 0.68159
 H720 H 0.33349 0.58586 0.64000
 C721 C 0.16386 0.52506 0.32349
 C722 C 0.15769 0.55384 0.32882
 C723 C 0.16973 0.56288 0.35011
 C724 C 0.18680 0.54229 0.36405
 C725 C 0.20580 0.53214 0.34291
 C726 C 0.19372 0.52306 0.32155
 C727 C 0.15653 0.51048 0.34892
 C728 C 0.16859 0.51955 0.37025
 C729 C 0.15041 0.51568 0.30065
 C730 C 0.13831 0.50864 0.28228
 C731 C 0.19940 0.55259 0.38697
 C732 C 0.20899 0.56235 0.40558
 H733 H 0.14498 0.56608 0.31689
 H734 H 0.16732 0.58287 0.35640
 H735 H 0.22685 0.53205 0.34459
 H736 H 0.20441 0.51520 0.30493
 H737 H 0.14309 0.49441 0.35007
 H738 H 0.16550 0.51125 0.38966
 C739 C 0.66389 0.02506 0.82345
 C740 C 0.65712 0.05363 0.82923
 C741 C 0.66916 0.06268 0.85051
 C742 C 0.68683 0.04231 0.86401
 C743 C 0.70584 0.03286 0.84256
 C744 C 0.69376 0.02378 0.82120
 C745 C 0.65715 0.01000 0.84877
 C746 C 0.66921 0.01908 0.87010
 C747 C 0.65044 0.01568 0.80062
 C748 C 0.63835 0.00863 0.78225
 C749 C 0.69942 0.05262 0.88693
 C750 C 0.70901 0.06238 0.90554
 H751 H 0.64403 0.06573 0.81758
 H752 H 0.66636 0.08253 0.85709
 H753 H 0.72690 0.03323 0.84403
 H754 H 0.70446 0.01637 0.80437
 H755 H 0.64410 -0.00639 0.84984
 H756 H 0.66650 0.01047 0.88943
 C757 C 0.66110 0.97336 0.68351
 C758 C 0.65542 0.94483 0.67783
 C759 C 0.66640 0.93641 0.65510
 C760 C 0.68202 0.95731 0.64020
 C761 C 0.70195 0.96661 0.65973
 C762 C 0.69093 0.97506 0.68254
 C763 C 0.65186 0.98881 0.65937
 C764 C 0.66286 0.98037 0.63659
 C765 C 0.64876 0.98218 0.70788
 C766 C 0.63747 0.98906 0.72744
 C767 C 0.69352 0.94772 0.61573
 C768 C 0.70237 0.93862 0.59589
 H769 H 0.64381 0.93232 0.69058
 H770 H 0.66418 0.91667 0.64838
 H771 H 0.72283 0.96659 0.65597
 H772 H 0.70237 0.98228 0.69832
 H773 H 0.63794 1.00500 0.66010
 H774 H 0.65837 0.98931 0.61783
 C775 C 0.16106 0.47339 0.18355
 C776 C 0.19094 0.47433 0.18289
 C777 C 0.20196 0.46588 0.16008
 C778 C 0.18198 0.45734 0.14023
 C779 C 0.16344 0.48091 0.13671
 C780 C 0.15243 0.48935 0.15948
 C781 C 0.15471 0.44511 0.17746
 C782 C 0.16570 0.43668 0.15472
 C783 C 0.14872 0.48220 0.20791
 C784 C 0.13742 0.48908 0.22747
 C785 C 0.19349 0.44776 0.11576
 C786 C 0.20234 0.43866 0.09593
 H787 H 0.20241 0.48105 0.19888
 H788 H 0.22288 0.46536 0.15653
 H789 H 0.15936 0.49019 0.11800
 H790 H 0.13892 0.50587 0.16028
 H791 H 0.14266 0.43275 0.18994
 H792 H 0.16304 0.41710 0.14774
 C793 C -0.17970 0.33313 0.47691
 C794 C -0.18014 0.30331 0.47968
 C795 C -0.15775 0.29129 0.47102
 C796 C -0.13714 0.31029 0.46047
 C797 C -0.13295 0.32917 0.48273
 C798 C -0.15532 0.34118 0.49137
 C799 C -0.17338 0.33863 0.44801
 C800 C -0.15104 0.32664 0.43937
 C801 C -0.20364 0.34648 0.48598
 C802 C -0.22285 0.35845 0.49307
 C803 C -0.11309 0.29758 0.45077
 C804 C -0.09355 0.28746 0.44188
 H805 H -0.19656 0.29260 0.48772
 H806 H -0.15498 0.27027 0.47166
 H807 H -0.11408 0.33276 0.49100
 H808 H -0.15561 0.35506 0.50706
 H809 H -0.18542 0.35086 0.43540
 H810 H -0.14395 0.32861 0.41937
 C811 C 0.32028 0.83315 0.97688
 C812 C 0.34388 0.83783 0.99400
 C813 C 0.36625 0.82582 0.98536
 C814 C 0.36284 0.81031 0.96045
 C815 C 0.35125 0.82996 0.94072
 C816 C 0.32890 0.84195 0.94935
 C817 C 0.31834 0.80341 0.97563
 C818 C 0.34073 0.79139 0.96698
 C819 C 0.29634 0.84649 0.98596
 C820 C 0.27713 0.85846 0.99304
 C821 C 0.38690 0.79760 0.95076
 C822 C 0.40644 0.78748 0.94187
 H823 H 0.34306 0.84951 1.01141
 H824 H 0.38460 0.82721 0.99535
 H825 H 0.35983 0.83408 0.92162
 H826 H 0.31836 0.85633 0.93764
 H827 H 0.30095 0.79274 0.98107
 H828 H 0.34252 0.77041 0.96501
 C829 C 1.17870 0.83502 0.03004
 C830 C 1.18012 0.80513 0.02978
 C831 C 1.15767 0.79366 0.03826
 C832 C 1.13603 0.81322 0.04615
 C833 C 1.13247 0.83114 0.02214
 C834 C 1.15490 0.84260 0.01368
 C835 C 1.17073 0.84180 0.05810
 C836 C 1.14833 0.83036 0.06656
 C837 C 1.20268 0.84776 0.02108
 C838 C 1.22187 0.85923 0.01391
 C839 C 1.11189 0.80109 0.05561
 C840 C 1.09224 0.79141 0.06423
 H841 H 1.19722 0.79397 0.02349
 H842 H 1.15553 0.77266 0.03922
 H843 H 1.11398 0.83450 0.01262
 H844 H 1.15562 0.85578 -0.00312
 H845 H 1.18175 0.85447 0.07028
 H846 H 1.14015 0.83324 0.08598
 C847 C 0.67872 0.33502 0.53007
 C848 C 0.68010 0.30513 0.52971
 C849 C 0.65765 0.29366 0.53818
 C850 C 0.63605 0.31322 0.54618
 C851 C 0.63247 0.33123 0.52224
 C852 C 0.65490 0.34269 0.51377
 C853 C 0.67082 0.34171 0.55817
 C854 C 0.64841 0.33027 0.56663
 C855 C 0.70270 0.34775 0.52111
 C856 C 0.72189 0.35922 0.51393
 C857 C 0.61191 0.30109 0.55563
 C858 C 0.59226 0.29141 0.56426
 H859 H 0.69718 0.29397 0.52335
 H860 H 0.65549 0.27266 0.53908
 H861 H 0.61396 0.33465 0.51276
 H862 H 0.65560 0.35592 0.49702
 H863 H 0.68187 0.35432 0.57037
 H864 H 0.64028 0.33309 0.58608
 C865 C 0.32349 0.16387 0.52505
 C866 C 0.34889 0.15679 0.51027
 C867 C 0.37021 0.16886 0.51934
 C868 C 0.36405 0.18682 0.54229
 C869 C 0.35030 0.16949 0.56279
 C870 C 0.32902 0.15745 0.55374
 C871 C 0.32142 0.19374 0.52336
 C872 C 0.34278 0.20582 0.53244
 C873 C 0.30066 0.15042 0.51567
 C874 C 0.28230 0.13833 0.50863
 C875 C 0.38697 0.19942 0.55261
 C876 C 0.40558 0.20901 0.56236
 H877 H 0.35000 0.14352 0.49407
 H878 H 0.38959 0.16593 0.51091
 H879 H 0.35671 0.16692 0.58273
 H880 H 0.31721 0.14457 0.56592
 H881 H 0.30471 0.20444 0.51569
 H882 H 0.34436 0.22688 0.53254
 C883 C 0.82347 0.66387 0.02506
 C884 C 0.84888 0.65669 0.01037
 C885 C 0.87021 0.66875 0.01943
 C886 C 0.86403 0.68681 0.04230
 C887 C 0.85021 0.66958 0.06284
 C888 C 0.82893 0.65754 0.05379
 C889 C 0.82145 0.69373 0.02326
 C890 C 0.84281 0.70581 0.03233
 C891 C 0.80064 0.65041 0.01569
 C892 C 0.78227 0.63832 0.00864
 C893 C 0.88695 0.69941 0.05261
 C894 C 0.90556 0.70900 0.06237
 H895 H 0.85001 0.64335 -0.00579
 H896 H 0.88960 0.66577 0.01106
 H897 H 0.85657 0.66707 0.08280
 H898 H 0.81707 0.64473 0.06600
 H899 H 0.80478 0.70442 0.01551
 H900 H 0.84443 0.72687 0.03236
 C901 C 0.68353 0.66107 0.97339
 C902 C 0.65950 0.65264 0.98950
 C903 C 0.63673 0.66364 0.98106
 C904 C 0.64022 0.68199 0.95734
 C905 C 0.65459 0.66550 0.93677
 C906 C 0.67732 0.65452 0.94519
 C907 C 0.68297 0.69096 0.97409
 C908 C 0.66017 0.70198 0.96564
 C909 C 0.70790 0.64873 0.98220
 C910 C 0.72746 0.63744 0.98908
 C911 C 0.61575 0.69350 0.94776
 C912 C 0.59592 0.70235 0.93866
 H913 H 0.66032 0.63925 1.00613
 H914 H 0.61804 0.65969 0.99045
 H915 H 0.64752 0.66272 0.91724
 H916 H 0.68972 0.64234 0.93288
 H917 H 0.69903 0.70244 0.98065
 H918 H 0.65668 0.72291 0.96497
 C919 C 0.18355 0.16107 0.47336
 C920 C 0.15955 0.15280 0.48961
 C921 C 0.13677 0.16380 0.48117
 C922 C 0.14024 0.18199 0.45732
 C923 C 0.15450 0.16533 0.43681
 C924 C 0.17724 0.15435 0.44524
 C925 C 0.18307 0.19097 0.47387
 C926 C 0.16026 0.20199 0.46542
 C927 C 0.20792 0.14873 0.48218
 C928 C 0.22748 0.13744 0.48906
 C929 C 0.11577 0.19349 0.44773
 C930 C 0.09593 0.20234 0.43864
 H931 H 0.16038 0.13952 0.50632
 H932 H 0.11810 0.15996 0.49063
 H933 H 0.14737 0.16243 0.41733
 H934 H 0.18957 0.14206 0.43298
 H935 H 0.19918 0.20245 0.48030
 H936 H 0.15683 0.22292 0.46462
 C937 C 0.57381 0.06962 0.72756
 C938 C 0.58184 0.09458 0.74103
 C939 C 0.57049 0.11667 0.73092
 C940 C 0.55222 0.11162 0.70834
 C941 C 0.53254 0.09189 0.71932
 C942 C 0.54391 0.06976 0.72945
 C943 C 0.58028 0.07438 0.69858
 C944 C 0.56895 0.09642 0.68849
 C945 C 0.58657 0.04595 0.73799
 C946 C 0.59829 0.02684 0.74565
 C947 C 0.54046 0.13535 0.69691
 C948 C 0.53167 0.15464 0.68629
 H949 H 0.59520 0.09486 0.75715
 H950 H 0.57412 0.13588 0.73836
 H951 H 0.51157 0.09503 0.71919
 H952 H 0.53270 0.05393 0.73800
 H953 H 0.59266 0.06151 0.68697
 H954 H 0.57164 0.10244 0.66823
 C955 C 1.07378 0.56964 0.22759
 C956 C 1.04391 0.57006 0.23004
 C957 C 1.03255 0.59219 0.21991
 C958 C 1.05221 0.61165 0.20835
 C959 C 1.06842 0.59611 0.18836
 C960 C 1.07975 0.57407 0.19846
 C961 C 1.08230 0.59466 0.24064
 C962 C 1.07095 0.61676 0.23052
 C963 C 1.08654 0.54598 0.23802
 C964 C 1.09825 0.52686 0.24568
 C965 C 1.04045 0.63538 0.19692
 C966 C 1.03166 0.65467 0.18630
 H967 H 1.03271 0.55442 0.23897
 H968 H 1.01159 0.59552 0.22015
 H969 H 1.07078 0.60191 0.16801
 H970 H 1.09180 0.56099 0.18675
 H971 H 1.09597 0.59498 0.25648
 H972 H 1.07490 0.63601 0.23769
 C973 C 0.92241 0.93276 0.22127
 C974 C 0.91414 0.92714 0.19342
 C975 C 0.92507 0.90495 0.18365
 C976 C 0.94325 0.89048 0.20266
 C977 C 0.92660 0.88588 0.22743
 C978 C 0.91565 0.90810 0.23721
 C979 C 0.95232 0.93297 0.21996
 C980 C 0.96330 0.91070 0.21016
 C981 C 0.90997 0.95652 0.23145
 C982 C 0.89839 0.97560 0.23912
 C983 C 0.95444 0.86647 0.19172
 C984 C 0.96240 0.84667 0.18185
 H985 H 0.90086 0.93955 0.18230
 H986 H 0.92115 0.89837 0.16417
 H987 H 0.92373 0.86685 0.23653
 H988 H 0.90339 0.90812 0.25470
 H989 H 0.96384 0.94914 0.22621
 H990 H 0.98423 0.90776 0.20800
 C991 C 0.42244 0.43273 0.72131
 C992 C 0.41355 0.42669 0.69376
 C993 C 0.42448 0.40450 0.68400
 C994 C 0.44327 0.39045 0.70270
 C995 C 0.42728 0.38595 0.72791
 C996 C 0.41632 0.40818 0.73769
 C997 C 0.45231 0.43326 0.71926
 C998 C 0.46329 0.41099 0.70945
 C999 C 0.41000 0.45649 0.73149
 C1000 C 0.39842 0.47557 0.73916
 C1001 C 0.45446 0.36644 0.69176
 C1002 C 0.46242 0.34664 0.68188
 H1003 H 0.39987 0.43883 0.68284
 H1004 H 0.42016 0.39764 0.66471
 H1005 H 0.42484 0.36699 0.73729
 H1006 H 0.40449 0.40826 0.75547
 H1007 H 0.46380 0.44963 0.72502
 H1008 H 0.48420 0.40826 0.70681
 C1009 C 0.42231 0.57130 0.77770
 C1010 C 0.41478 0.57596 0.80632
 C1011 C 0.42607 0.59718 0.81637
 C1012 C 0.44383 0.61175 0.79685
 C1013 C 0.42659 0.61821 0.77341
 C1014 C 0.41527 0.59694 0.76334
 C1015 C 0.45221 0.56977 0.77702
 C1016 C 0.46355 0.59107 0.78710
 C1017 C 0.40962 0.54850 0.76729
 C1018 C 0.39806 0.53007 0.75958
 C1019 C 0.45560 0.63459 0.80821
 C1020 C 0.46449 0.65314 0.81870
 H1021 H 0.40172 0.56363 0.81772
 H1022 H 0.42268 0.60303 0.83639
 H1023 H 0.42360 0.63775 0.76540
 H1024 H 0.40257 0.59825 0.74668
 H1025 H 0.46347 0.55345 0.76927
 H1026 H 0.48453 0.59301 0.78800
 C1027 C -0.07771 0.07131 0.27767
 C1028 C -0.08495 0.07576 0.30640
 C1029 C -0.07365 0.09698 0.31646
 C1030 C -0.05618 0.11176 0.29683
 C1031 C -0.07371 0.11827 0.27362
 C1032 C -0.08503 0.09700 0.26355
 C1033 C -0.04780 0.06994 0.27666
 C1034 C -0.03646 0.09124 0.28675
 C1035 C -0.09040 0.04852 0.26726
 C1036 C -0.10196 0.03009 0.25955
 C1037 C -0.04441 0.13459 0.30819
 C1038 C -0.03551 0.15314 0.31868
 H1039 H -0.09783 0.06329 0.31787
 H1040 H -0.07686 0.10269 0.33654
 H1041 H -0.07688 0.13784 0.26576
 H1042 H -0.09792 0.09835 0.24704
 H1043 H -0.03654 0.05372 0.26871
 H1044 H -0.01548 0.09328 0.28744
 C1045 C 0.07435 0.42923 0.28424
 C1046 C 0.08254 0.42169 0.31200
 C1047 C 0.07141 0.39951 0.32142
 C1048 C 0.05314 0.38696 0.30220
 C1049 C 0.06979 0.38292 0.27739
 C1050 C 0.08094 0.40513 0.26795
 C1051 C 0.04444 0.43082 0.28551
 C1052 C 0.03327 0.40855 0.29498
 C1053 C 0.08697 0.45291 0.27433
 C1054 C 0.09856 0.47181 0.26662
 C1055 C 0.04177 0.36289 0.31275
 C1056 C 0.03379 0.34289 0.32234
 H1057 H 0.09589 0.43284 0.32330
 H1058 H 0.07523 0.39167 0.34081
 H1059 H 0.07251 0.36426 0.26801
 H1060 H 0.09322 0.40551 0.25048
 H1061 H 0.03308 0.44788 0.27950
 H1062 H 0.01232 0.40652 0.29707
 C1063 C 0.57440 0.92921 0.78422
 C1064 C 0.58111 0.90508 0.76803
 C1065 C 0.56996 0.88287 0.77747
 C1066 C 0.55317 0.88695 0.80218
 C1067 C 0.53330 0.90849 0.79480
 C1068 C 0.54448 0.93075 0.78534
 C1069 C 0.58245 0.92177 0.81204
 C1070 C 0.57131 0.89959 0.82147
 C1071 C 0.58701 0.95289 0.77431
 C1072 C 0.59861 0.97179 0.76660
 C1073 C 0.54180 0.86289 0.81274
 C1074 C 0.53381 0.84289 0.82233
 H1075 H 0.59348 0.90543 0.75062
 H1076 H 0.57277 0.86419 0.76816
 H1077 H 0.51235 0.90642 0.79680
 H1078 H 0.53312 0.94778 0.77922
 H1079 H 0.59572 0.93298 0.82339
 H1080 H 0.57505 0.89181 0.84089
 C1081 C 0.72758 0.57378 0.06963
 C1082 C 0.69864 0.58040 0.07449
 C1083 C 0.68855 0.56907 0.09653
 C1084 C 0.70835 0.55219 0.11164
 C1085 C 0.73105 0.57031 0.11667
 C1086 C 0.74117 0.58166 0.09458
 C1087 C 0.72930 0.54388 0.06970
 C1088 C 0.71916 0.53251 0.09182
 C1089 C 0.73800 0.58654 0.04597
 C1090 C 0.74567 0.59826 0.02686
 C1091 C 0.69691 0.54043 0.13537
 C1092 C 0.68630 0.53163 0.15466
 H1093 H 0.68706 0.59288 0.06169
 H1094 H 0.66832 0.57186 0.10261
 H1095 H 0.73857 0.57385 0.13587
 H1096 H 0.75736 0.59493 0.09485
 H1097 H 0.73774 0.53265 0.05382
 H1098 H 0.71893 0.51153 0.09492
 C1099 C 0.22760 1.07380 0.56964
 C1100 C 0.22920 1.04390 0.56965
 C1101 C 0.21907 1.03254 0.59178
 C1102 C 0.20837 1.05223 0.61165
 C1103 C 0.18861 1.06921 0.59661
 C1104 C 0.19870 1.08053 0.57456
 C1105 C 0.24128 1.08160 0.59456
 C1106 C 0.23116 1.07025 0.61666
 C1107 C 0.23803 1.08656 0.54597
 C1108 C 0.24569 1.09827 0.52685
 C1109 C 0.19694 1.04048 0.63538
 C1110 C 0.18632 1.03169 0.65467
 H1111 H 0.23757 1.03267 0.55374
 H1112 H 0.21876 1.01156 0.59485
 H1113 H 0.16840 1.07207 0.60273
 H1114 H 0.18714 1.09309 0.56181
 H1115 H 0.25753 1.09480 0.59482
 H1116 H 0.23874 1.07372 0.63585
 C1117 C 0.22129 0.92246 0.93275
 C1118 C 0.19357 0.91392 0.92695
 C1119 C 0.18380 0.92486 0.90477
 C1120 C 0.20268 0.94330 0.89047
 C1121 C 0.22764 0.92693 0.88591
 C1122 C 0.23743 0.91598 0.90814
 C1123 C 0.21967 0.95236 0.93311
 C1124 C 0.20986 0.96334 0.91083
 C1125 C 0.23148 0.91001 0.95651
 C1126 C 0.23915 0.89843 0.97558
 C1127 C 0.19174 0.95450 0.86647
 C1128 C 0.18186 0.96245 0.84667
 H1129 H 0.18254 0.90047 0.93924
 H1130 H 0.16441 0.92077 0.89806
 H1131 H 0.23687 0.92425 0.86691
 H1132 H 0.25504 0.90391 0.90818
 H1133 H 0.22571 0.96386 0.94936
 H1134 H 0.20749 0.98426 0.90799
 C1135 C 0.72131 0.42240 0.43274
 C1136 C 0.73704 0.41534 0.40805
 C1137 C 0.72726 0.42629 0.38582
 C1138 C 0.70269 0.44323 0.39046
 C1139 C 0.71053 0.46330 0.41052
 C1140 C 0.72034 0.45232 0.43280
 C1141 C 0.69333 0.41441 0.42732
 C1142 C 0.68356 0.42534 0.40513
 C1143 C 0.73149 0.40997 0.45650
 C1144 C 0.73916 0.39839 0.47559
 C1145 C 0.69175 0.45442 0.36645
 C1146 C 0.68187 0.46237 0.34665
 H1147 H 0.75440 0.40290 0.40803
 H1148 H 0.73622 0.42323 0.36676
 H1149 H 0.70858 0.48423 0.40749
 H1150 H 0.72680 0.46385 0.44887
 H1151 H 0.68213 0.40132 0.43986
 H1152 H 0.66399 0.42160 0.39867
 C1153 C 0.77770 0.42232 0.57130
 C1154 C 0.77633 0.45223 0.57010
 C1155 C 0.78641 0.46357 0.59139
 C1156 C 0.79685 0.44386 0.61174
 C1157 C 0.81659 0.42671 0.59675
 C1158 C 0.80654 0.41540 0.57553
 C1159 C 0.76382 0.41469 0.59703
 C1160 C 0.77390 0.42602 0.61830
 C1161 C 0.76730 0.40963 0.54850
 C1162 C 0.75959 0.39806 0.53008
 C1163 C 0.80821 0.45564 0.63458
 C1164 C 0.81869 0.46455 0.65312
 H1165 H 0.76814 0.46348 0.55399
 H1166 H 0.78686 0.48455 0.59355
 H1167 H 0.83674 0.42371 0.60231
 H1168 H 0.81808 0.40273 0.56291
 H1169 H 0.74748 0.40160 0.59841
 H1170 H 0.76619 0.42265 0.63790
 C1171 C 0.27769 -0.07771 0.07131
 C1172 C 0.26305 -0.08439 0.09689
 C1173 C 0.27313 -0.07307 0.11817
 C1174 C 0.29684 -0.05619 0.11176
 C1175 C 0.28751 -0.03648 0.09089
 C1176 C 0.27742 -0.04781 0.06959
 C1177 C 0.30618 -0.08559 0.07623
 C1178 C 0.31623 -0.07430 0.09746
 C1179 C 0.26728 -0.09039 0.04851
 C1180 C 0.25957 -0.10194 0.03008
 C1181 C 0.30820 -0.04442 0.13461
 C1182 C 0.31869 -0.03553 0.15315
 H1183 H 0.24621 -0.09685 0.09816
 H1184 H 0.26493 -0.07583 0.13766
 H1185 H 0.28868 -0.01550 0.09269
 H1186 H 0.26995 -0.03655 0.05314
 H1187 H 0.31750 -0.09888 0.06407
 H1188 H 0.33616 -0.07792 0.10348
 C1189 C 0.28424 0.07436 0.42923
 C1190 C 0.31191 0.08274 0.42154
 C1191 C 0.32133 0.07160 0.39937
 C1192 C 0.30220 0.05313 0.38697
 C1193 C 0.27725 0.06957 0.38297
 C1194 C 0.26781 0.08072 0.40518
 C1195 C 0.28576 0.04446 0.43092
 C1196 C 0.29522 0.03327 0.40865
 C1197 C 0.27434 0.08697 0.45290
 C1198 C 0.26663 0.09857 0.47181
 C1199 C 0.31276 0.04175 0.36290
 C1200 C 0.32235 0.03377 0.34290
 H1201 H 0.32315 0.09623 0.43260
 H1202 H 0.34065 0.07556 0.39143
 H1203 H 0.26778 0.07215 0.36435
 H1204 H 0.25025 0.09287 0.40558
 H1205 H 0.27991 0.03310 0.44804
 H1206 H 0.29748 0.01233 0.40669
 C1207 C 0.78422 0.57438 0.92922
 C1208 C 0.78546 0.54447 0.93080
 C1209 C 0.79493 0.53329 0.90853
 C1210 C 0.80218 0.55318 0.88695
 C1211 C 0.82142 0.57141 0.89952
 C1212 C 0.81199 0.58254 0.92171
 C1213 C 0.76795 0.58100 0.90512
 C1214 C 0.77739 0.56985 0.88291
 C1215 C 0.77432 0.58698 0.95291
 C1216 C 0.76661 0.59858 0.97181
 C1217 C 0.81274 0.54181 0.86288
 C1218 C 0.82233 0.53384 0.84288
 H1219 H 0.77943 0.53309 0.94785
 H1220 H 0.79700 0.51234 0.90648
 H1221 H 0.84081 0.57522 0.89169
 H1222 H 0.82331 0.59587 0.93287
 H1223 H 0.75049 0.59329 0.90549
 H1224 H 0.76802 0.57260 0.86425
 C1225 C 0.06965 0.72760 0.57380
 C1226 C 0.07443 0.69863 0.58033
 C1227 C 0.09647 0.68853 0.56901
 C1228 C 0.11165 0.70834 0.55223
 C1229 C 0.11670 0.73097 0.57043
 C1230 C 0.09461 0.74110 0.58178
 C1231 C 0.06977 0.72941 0.54390
 C1232 C 0.09189 0.71927 0.53254
 C1233 C 0.04599 0.73804 0.58655
 C1234 C 0.02687 0.74572 0.59826
 C1235 C 0.13537 0.69690 0.54047
 C1236 C 0.15466 0.68627 0.53168
 H1237 H 0.06158 0.68704 0.59276
 H1238 H 0.10250 0.66827 0.57175
 H1239 H 0.13591 0.73843 0.57403
 H1240 H 0.09489 0.75725 0.59510
 H1241 H 0.05393 0.73793 0.53268
 H1242 H 0.09502 0.71909 0.51156
 C1243 C 0.56960 0.22757 1.07378
 C1244 C 0.57444 0.19862 1.08036
 C1245 C 0.59648 0.18853 1.06903
 C1246 C 0.61161 0.20835 1.05220
 C1247 C 0.61665 0.23102 1.07035
 C1248 C 0.59455 0.24113 1.08170
 C1249 C 0.56969 0.22933 1.04388
 C1250 C 0.59182 0.21920 1.03251
 C1251 C 0.54594 0.23799 1.08654
 C1252 C 0.52682 0.24566 1.09826
 C1253 C 0.63534 0.19692 1.04044
 C1254 C 0.65463 0.18630 1.03164
 H1255 H 0.56162 0.18703 1.09281
 H1256 H 0.60254 0.16829 1.07179
 H1257 H 0.63585 0.23852 1.07391
 H1258 H 0.59482 0.25731 1.09499
 H1259 H 0.55383 0.23780 1.03266
 H1260 H 0.59493 0.21900 1.01153
 C1261 C 0.93272 0.22134 0.92242
 C1262 C 0.92741 0.19329 0.91460
 C1263 C 0.90522 0.18352 0.92553
 C1264 C 0.89044 0.20273 0.94325
 C1265 C 0.88577 0.22717 0.92614
 C1266 C 0.90800 0.23695 0.91518
 C1267 C 0.93270 0.22058 0.95234
 C1268 C 0.91042 0.21077 0.96332
 C1269 C 0.95648 0.23153 0.90998
 C1270 C 0.97556 0.23920 0.89839
 C1271 C 0.86643 0.19178 0.95444
 C1272 C 0.84663 0.18190 0.96240
 H1273 H 0.94003 0.18204 0.90163
 H1274 H 0.89884 0.16390 0.92192
 H1275 H 0.86670 0.23605 0.92297
 H1276 H 0.90796 0.25423 0.90263
 H1277 H 0.94871 0.22717 0.96386
 H1278 H 0.90733 0.20896 0.98426
 C1279 C 0.43275 0.72125 0.42244
 C1280 C 0.40811 0.73727 0.41577
 C1281 C 0.38588 0.72748 0.42673
 C1282 C 0.39046 0.70264 0.44327
 C1283 C 0.41073 0.71002 0.46333
 C1284 C 0.43301 0.71983 0.45235
 C1285 C 0.42706 0.69345 0.41407
 C1286 C 0.40487 0.68368 0.42500
 C1287 C 0.45650 0.73143 0.41000
 C1288 C 0.47559 0.73910 0.39842
 C1289 C 0.36645 0.69170 0.45446
 C1290 C 0.34665 0.68182 0.46242
 H1291 H 0.40813 0.75480 0.40359
 H1292 H 0.36686 0.73663 0.42393
 H1293 H 0.40783 0.70778 0.48425
 H1294 H 0.44921 0.72599 0.46386
 H1295 H 0.43943 0.68236 0.40073
 H1296 H 0.39824 0.66423 0.42102
 C1297 C 0.57131 0.77766 0.42229
 C1298 C 0.59695 0.76331 0.41524
 C1299 C 0.61822 0.77339 0.42656
 C1300 C 0.61175 0.79681 0.44382
 C1301 C 0.59108 0.78705 0.46354
 C1302 C 0.56978 0.77696 0.45220
 C1303 C 0.57595 0.80629 0.41478
 C1304 C 0.59718 0.81634 0.42608
 C1305 C 0.54851 0.76725 0.40961
 C1306 C 0.53008 0.75953 0.39806
 C1307 C 0.63459 0.80818 0.45559
 C1308 C 0.65314 0.81866 0.46448
 H1309 H 0.59826 0.74667 0.40253
 H1310 H 0.63776 0.76539 0.42356
 H1311 H 0.59302 0.78793 0.48452
 H1312 H 0.55347 0.76920 0.46346
 H1313 H 0.56361 0.81770 0.40174
 H1314 H 0.60301 0.83636 0.42270
 C1315 C 0.07128 0.27773 -0.07772
 C1316 C 0.09704 0.26403 -0.08557
 C1317 C 0.11831 0.27410 -0.07424
 C1318 C 0.11172 0.29688 -0.05619
 C1319 C 0.09151 0.28620 -0.03648
 C1320 C 0.07021 0.27611 -0.04782
 C1321 C 0.07535 0.30664 -0.08443
 C1322 C 0.09657 0.31669 -0.07313
 C1323 C 0.04848 0.26733 -0.09041
 C1324 C 0.03005 0.25962 -0.10197
 C1325 C 0.13456 0.30824 -0.04441
 C1326 C 0.15311 0.31872 -0.03551
 H1327 H 0.09844 0.24780 -0.09879
 H1328 H 0.13793 0.26651 -0.07776
 H1329 H 0.09374 0.28648 -0.01551
 H1330 H 0.05419 0.26776 -0.03658
 H1331 H 0.06264 0.31823 -0.09696
 H1332 H 0.10204 0.33689 -0.07598
 C1333 C 0.42919 0.28422 0.07438
 C1334 C 0.40508 0.26799 0.08104
 C1335 C 0.38286 0.27743 0.06989
 C1336 C 0.38693 0.30218 0.05316
 C1337 C 0.40849 0.29486 0.03329
 C1338 C 0.43075 0.28540 0.04447
 C1339 C 0.42171 0.31202 0.08249
 C1340 C 0.39954 0.32144 0.07135
 C1341 C 0.45287 0.27431 0.08699
 C1342 C 0.47178 0.26660 0.09858
 C1343 C 0.36287 0.31274 0.04179
 C1344 C 0.34287 0.32233 0.03380
 H1345 H 0.40543 0.25055 0.09337
 H1346 H 0.36419 0.26809 0.07266
 H1347 H 0.40644 0.29690 0.01233
 H1348 H 0.44779 0.27932 0.03310
 H1349 H 0.43290 0.32334 0.09579
 H1350 H 0.39173 0.34085 0.07512
 C1351 C 0.92925 0.78426 0.57433
 C1352 C 0.90488 0.76885 0.58212
 C1353 C 0.88267 0.77828 0.57096
 C1354 C 0.88698 0.80220 0.55311
 C1355 C 0.90803 0.79357 0.53322
 C1356 C 0.93030 0.78411 0.54441
 C1357 C 0.92252 0.81255 0.58132
 C1358 C 0.90034 0.82197 0.57018
 C1359 C 0.95293 0.77436 0.58695
 C1360 C 0.97183 0.76667 0.59855
 C1361 C 0.86291 0.81275 0.54173
 C1362 C 0.84291 0.82234 0.53375
 H1363 H 0.90508 0.75196 0.59519
 H1364 H 0.86384 0.76947 0.57447
 H1365 H 0.90564 0.79474 0.51227
 H1366 H 0.94700 0.77719 0.53304
 H1367 H 0.93420 0.82420 0.59389
 H1368 H 0.89303 0.84169 0.57321
   
