data_POSCAR
  _audit_creation_date              2014-09-24
  _audit_creation_method            'ToBaCCo'
  _symmetry_space_group_name_H-M    'P1'
  _symmetry_Int_Tables_number       1
  _symmetry_cell_setting            triclinic
  loop_
  _symmetry_equiv_pos_as_xyz
 x,y,z
_cell_length_a 40.0965
_cell_length_b 41.8296
_cell_length_c 55.7803
_cell_angle_alpha 90.875300
_cell_angle_beta 90.106300
_cell_angle_gamma 88.863100
loop_
  _atom_site_label
  _atom_site_type_symbol
  _atom_site_fract_x
  _atom_site_fract_y
  _atom_site_fract_z
C1 C 1.19961 0.24878 0.28889
 H2 H 1.19836 0.22300 0.28754
 C3 C 1.18110 0.26541 0.30644
 H4 H 1.16552 0.25226 0.31851
 C5 C 1.22262 0.29708 0.27552
 H6 H 1.23940 0.30934 0.26385
 C7 C 1.20479 0.31459 0.29290
 H8 H 1.20740 0.34029 0.29397
 N9 N 1.21952 0.26480 0.27366
 C10 C 1.23690 0.20161 0.21190
 H11 H 1.26349 0.20506 0.21052
 C12 C 1.22069 0.18288 0.19484
 H13 H 1.23506 0.17243 0.18019
 C14 C 1.18601 0.21250 0.23223
 H15 H 1.17255 0.22447 0.24663
 C16 C 1.16874 0.19365 0.21557
 H17 H 1.14213 0.19085 0.21766
 Zn18 Zn 1.24577 0.24109 0.25110
 N19 N 1.21957 0.21580 0.23021
 C20 C 1.27408 0.18211 0.26590
 N21 N 1.27537 0.21436 0.26852
 C22 C 1.29588 0.22798 0.28493
 C23 C 1.31570 0.20899 0.29990
 C24 C 1.29349 0.16215 0.28036
 C25 C 1.24979 0.28922 0.21780
 C26 C 1.26421 0.30840 0.20063
 C27 C 1.31807 0.28532 0.21066
 C28 C 1.30261 0.26690 0.22801
 N29 N 1.26899 0.26901 0.23106
 H30 H 1.25751 0.17161 0.25283
 H31 H 1.29597 0.25375 0.28695
 H32 H 1.32972 0.22149 0.31353
 H33 H 1.29218 0.13682 0.27659
 H34 H 1.22304 0.29000 0.22035
 H35 H 1.24832 0.32450 0.19051
 H36 H 1.34464 0.28230 0.20781
 H37 H 1.31726 0.25003 0.23832
 C38 C 1.18615 0.17849 0.19654
 C39 C 1.18366 0.29877 0.30863
 C40 C 1.29873 0.30616 0.19644
 C41 C 1.31453 0.17509 0.29838
 C42 C 0.72186 -0.23564 0.28426
 H43 H 0.72427 -0.26129 0.28612
 C44 C 0.70409 -0.21752 0.30134
 H45 H 0.69318 -0.22955 0.31638
 C46 C 0.73538 -0.18888 0.26324
 H47 H 0.74831 -0.17762 0.24880
 C48 C 0.71746 -0.16988 0.27971
 H49 H 0.71612 -0.14428 0.27720
 N50 N 0.73714 -0.22117 0.26572
 C51 C 0.75371 -0.29260 0.20926
 H52 H 0.78019 -0.28956 0.20671
 C53 C 0.73637 -0.31365 0.19444
 H54 H 0.74972 -0.32632 0.18025
 C55 C 0.70419 -0.27853 0.23035
 H56 H 0.69176 -0.26461 0.24428
 C57 C 0.68587 -0.29960 0.21605
 H58 H 0.65947 -0.30199 0.21942
 Zn59 Zn 0.76383 -0.24754 0.24525
 N60 N 0.73753 -0.27562 0.22680
 C61 C 0.79168 -0.30377 0.26548
 N62 N 0.79283 -0.27131 0.26514
 C63 C 0.81303 -0.25482 0.28029
 C64 C 0.83324 -0.27105 0.29666
 C65 C 0.81130 -0.32095 0.28168
 C66 C 0.77138 -0.20421 0.20795
 C67 C 0.78837 -0.18636 0.19113
 C68 C 0.84032 -0.20863 0.20599
 C69 C 0.82235 -0.22560 0.22283
 N70 N 0.78851 -0.22294 0.22362
 H71 H 0.77500 -0.31637 0.25359
 H72 H 0.81295 -0.22897 0.27990
 H73 H 0.84864 -0.25753 0.30897
 H74 H 0.80993 -0.34677 0.28189
 H75 H 0.74442 -0.20310 0.20859
 H76 H 0.77414 -0.17095 0.17933
 H77 H 0.86715 -0.21182 0.20530
 H78 H 0.83547 -0.24147 0.23486
 C79 C 0.70196 -0.31748 0.19774
 C80 C 0.70183 -0.18409 0.29929
 C81 C 0.82337 -0.18859 0.18983
 C82 C 0.83220 -0.30453 0.29766
 C83 C 0.70156 0.26816 -0.21914
 H84 H 0.70139 0.24244 -0.22042
 C85 C 0.68117 0.28383 -0.20227
 H86 H 0.66518 0.26989 -0.19102
 C87 C 0.72454 0.31729 -0.23065
 H88 H 0.74217 0.33029 -0.24111
 C89 C 0.70467 0.33393 -0.21390
 H90 H 0.70663 0.35965 -0.21221
 N91 N 0.72233 0.28496 -0.23326
 C92 C 0.72743 0.24412 -0.30138
 H93 H 0.74514 0.26136 -0.30725
 C94 C 0.70806 0.22848 -0.31851
 H95 H 0.71113 0.23406 -0.33726
 C96 C 0.70281 0.21484 -0.27029
 H97 H 0.70121 0.20902 -0.25157
 C98 C 0.68313 0.19836 -0.28691
 H99 H 0.66604 0.18056 -0.28070
 Zn100 Zn 0.75031 0.26144 -0.25509
 N101 N 0.72416 0.23765 -0.27765
 C102 C 0.77897 0.20171 -0.24004
 N103 N 0.77752 0.23397 -0.23654
 C104 C 0.79547 0.24843 -0.21892
 C105 C 0.81605 0.23038 -0.20395
 C106 C 0.79895 0.18263 -0.22520
 C107 C 0.76382 0.31384 -0.28469
 C108 C 0.78308 0.33290 -0.29932
 C109 C 0.83172 0.30182 -0.28795
 C110 C 0.81142 0.28353 -0.27342
 N111 N 0.77806 0.28949 -0.27228
 H112 H 0.76466 0.19074 -0.25427
 H113 H 0.79368 0.27413 -0.21651
 H114 H 0.82990 0.24229 -0.18984
 H115 H 0.79988 0.15696 -0.22805
 H116 H 0.73715 0.31808 -0.28363
 H117 H 0.77022 0.35262 -0.30780
 H118 H 0.85757 0.29428 -0.28917
 H119 H 0.82229 0.26359 -0.26387
 C120 C 0.68534 0.20546 -0.31135
 C121 C 0.68253 0.31716 -0.19951
 C122 C 0.81784 0.32680 -0.30198
 C123 C 0.81784 0.19704 -0.20693
 C124 C 1.22215 -0.24138 -0.21274
 H125 H 1.22285 -0.26724 -0.21261
 C126 C 1.20126 -0.22441 -0.19691
 H127 H 1.18590 -0.23740 -0.18459
 C128 C 1.24227 -0.19310 -0.22844
 H129 H 1.25864 -0.18101 -0.24053
 C130 C 1.22199 -0.17515 -0.21268
 H131 H 1.22248 -0.14929 -0.21306
 N132 N 1.24170 -0.22563 -0.22836
 C133 C 1.26180 -0.29355 -0.28676
 H134 H 1.28860 -0.29130 -0.28776
 C135 C 1.24523 -0.31252 -0.30356
 H136 H 1.25958 -0.32439 -0.31762
 C137 C 1.21071 -0.27919 -0.26785
 H138 H 1.19724 -0.26576 -0.25419
 C139 C 1.19316 -0.29833 -0.28407
 H140 H 1.16639 -0.29990 -0.28220
 Zn141 Zn 1.26974 -0.25102 -0.24862
 N142 N 1.24446 -0.27734 -0.26938
 C143 C 1.29514 -0.30902 -0.22943
 N144 N 1.29686 -0.27658 -0.22857
 C145 C 1.31643 -0.26139 -0.21225
 C146 C 1.33556 -0.27897 -0.19600
 C147 C 1.31366 -0.32754 -0.21337
 C148 C 1.28000 -0.20639 -0.28440
 C149 C 1.29792 -0.18942 -0.30125
 C150 C 1.34896 -0.21200 -0.28505
 C151 C 1.33005 -0.22842 -0.26840
 N152 N 1.29619 -0.22543 -0.26843
 H153 H 1.27894 -0.32059 -0.24224
 H154 H 1.31681 -0.23554 -0.21171
 H155 H 1.35059 -0.26647 -0.18287
 H156 H 1.31196 -0.35334 -0.21419
 H157 H 1.25302 -0.20508 -0.28441
 H158 H 1.28451 -0.17504 -0.31421
 H159 H 1.37585 -0.21486 -0.28494
 H160 H 1.34243 -0.24430 -0.25600
 C161 C 1.21038 -0.31517 -0.30240
 C162 C 1.20097 -0.19086 -0.19678
 C163 C 1.33286 -0.19242 -0.30190
 C164 C 1.33409 -0.31248 -0.19633
 C165 C 0.26694 0.21074 0.71064
 H166 H 0.24027 0.21258 0.70782
 C167 C 0.28685 0.19355 0.69433
 H168 H 0.27516 0.18264 0.67882
 C169 C 0.31436 0.22448 0.73370
 H170 H 0.32499 0.23690 0.74893
 C171 C 0.33523 0.20712 0.71798
 H172 H 0.36175 0.20595 0.72159
 N173 N 0.28088 0.22584 0.72981
 C174 C 0.20586 0.23662 0.78557
 H175 H 0.20463 0.26240 0.78750
 C176 C 0.18774 0.21767 0.80104
 H177 H 0.17357 0.22978 0.81505
 C178 C 0.22857 0.19068 0.76594
 H179 H 0.24470 0.18026 0.75231
 C180 C 0.21089 0.17075 0.78100
 H181 H 0.21311 0.14526 0.77774
 Zn182 Zn 0.25160 0.25027 0.74963
 N183 N 0.22579 0.22296 0.76850
 C184 C 0.19003 0.27133 0.72931
 N185 N 0.22372 0.27469 0.72913
 C186 C 0.23868 0.29369 0.71295
 C187 C 0.21959 0.31065 0.69630
 C188 C 0.16999 0.28764 0.71281
 C189 C 0.29238 0.26266 0.78922
 C190 C 0.30918 0.28100 0.80635
 C191 C 0.29201 0.32856 0.78525
 C192 C 0.27518 0.30933 0.76871
 N193 N 0.27580 0.27699 0.77088
 H194 H 0.17866 0.25553 0.74191
 H195 H 0.26558 0.29526 0.71277
 H196 H 0.23198 0.32532 0.68335
 H197 H 0.14323 0.28470 0.71315
 H198 H 0.29199 0.23693 0.79078
 H199 H 0.32131 0.26904 0.82116
 H200 H 0.29155 0.35421 0.78293
 H201 H 0.26143 0.32040 0.75429
 C202 C 0.19010 0.18394 0.79921
 C203 C 0.32155 0.19148 0.69785
 C204 C 0.30912 0.31449 0.80456
 C205 C 0.18479 0.30757 0.69601
 C206 C 0.74216 0.70201 0.71591
 H207 H 0.71544 0.69994 0.71487
 C208 C 0.76211 0.68701 0.69841
 H209 H 0.75042 0.67392 0.68386
 C210 C 0.78999 0.72142 0.73591
 H211 H 0.80100 0.73430 0.75072
 C212 C 0.81082 0.70710 0.71866
 H213 H 0.83759 0.70932 0.72034
 N214 N 0.75622 0.71934 0.73400
 C215 C 0.67985 0.72587 0.78966
 H216 H 0.67585 0.75152 0.79056
 C217 C 0.66284 0.70625 0.80531
 H218 H 0.64669 0.71801 0.81831
 C219 C 0.70869 0.68120 0.77272
 H220 H 0.72691 0.67160 0.76016
 C221 C 0.69191 0.66056 0.78780
 H222 H 0.69689 0.63524 0.78546
 Zn223 Zn 0.72835 0.74210 0.75638
 N224 N 0.70289 0.71324 0.77426
 C225 C 0.67396 0.75531 0.72624
 N226 N 0.69839 0.76949 0.73933
 C227 C 0.70173 0.80181 0.73939
 C228 C 0.68175 0.82081 0.72450
 C229 C 0.65340 0.77337 0.71117
 C230 C 0.75660 0.75762 0.80146
 C231 C 0.77824 0.77264 0.81744
 C232 C 0.79844 0.80426 0.78486
 C233 C 0.77639 0.78857 0.76945
 N234 N 0.75595 0.76571 0.77792
 H235 H 0.67072 0.72979 0.72720
 H236 H 0.72027 0.81301 0.75053
 H237 H 0.68535 0.84639 0.72434
 H238 H 0.63517 0.76132 0.70012
 H239 H 0.74091 0.73894 0.80789
 H240 H 0.77818 0.76589 0.83610
 H241 H 0.81496 0.82190 0.77769
 H242 H 0.77632 0.79394 0.75055
 C243 C 0.66906 0.67282 0.80512
 C244 C 0.79687 0.68994 0.69947
 C245 C 0.79972 0.79614 0.80918
 C246 C 0.65776 0.80649 0.70968
 C247 C 0.77682 0.19181 0.22818
 H248 H 0.75960 0.17870 0.23901
 C249 C 0.79343 0.17640 0.20910
 H250 H 0.78860 0.15144 0.20541
 C251 C 0.80173 0.24091 0.21866
 H252 H 0.80415 0.26626 0.22219
 C253 C 0.81927 0.22640 0.19977
 H254 H 0.83586 0.24073 0.18930
 N255 N 0.78103 0.22357 0.23239
 C256 C 0.69404 0.21889 0.26954
 H257 H 0.68240 0.23360 0.25602
 C258 C 0.67420 0.20039 0.28425
 H259 H 0.64750 0.20061 0.28138
 C260 C 0.74284 0.20087 0.28960
 H261 H 0.76962 0.20167 0.29179
 C262 C 0.72391 0.18252 0.30502
 H263 H 0.73653 0.16963 0.31917
 Zn264 Zn 0.75497 0.24665 0.25509
 N265 N 0.72769 0.21896 0.27256
 C266 C 0.71196 0.26369 0.21820
 N267 N 0.72868 0.27610 0.23729
 C268 C 0.72837 0.30815 0.24190
 C269 C 0.71034 0.32899 0.22713
 C270 C 0.69400 0.28363 0.20285
 C271 C 0.81639 0.26394 0.27674
 C272 C 0.83654 0.27951 0.29348
 C273 C 0.78692 0.30271 0.31173
 C274 C 0.76770 0.28643 0.29480
 N275 N 0.78264 0.26807 0.27743
 H276 H 0.71326 0.23821 0.21460
 H277 H 0.74245 0.31777 0.25675
 H278 H 0.71015 0.35436 0.23127
 H279 H 0.68186 0.27315 0.18736
 H280 H 0.82780 0.24837 0.26336
 H281 H 0.86338 0.27633 0.29250
 H282 H 0.77464 0.31739 0.32536
 H283 H 0.74078 0.28851 0.29541
 C284 C 0.68897 0.18237 0.30269
 C285 C 0.81471 0.19384 0.19436
 C286 C 0.82181 0.29944 0.31110
 C287 C 0.69300 0.31684 0.20716
 C288 C 0.24948 0.71604 0.21235
 H289 H 0.22264 0.71378 0.21228
 C290 C 0.26882 0.69876 0.19570
 H291 H 0.25668 0.68326 0.18279
 C292 C 0.29767 0.74002 0.22870
 H293 H 0.30878 0.75655 0.24128
 C294 C 0.31796 0.72338 0.21220
 H295 H 0.34465 0.72682 0.21257
 N296 N 0.26409 0.73581 0.22866
 C297 C 0.19258 0.74400 0.28737
 H298 H 0.19054 0.76977 0.28910
 C299 C 0.17683 0.72475 0.30398
 H300 H 0.16304 0.73610 0.31855
 C301 C 0.21517 0.69834 0.26719
 H302 H 0.23082 0.68806 0.25325
 C303 C 0.19941 0.67817 0.28316
 H304 H 0.20249 0.65256 0.28075
 Zn305 Zn 0.23529 0.75892 0.24992
 N306 N 0.21151 0.73063 0.26954
 C307 C 0.17250 0.77796 0.22990
 N308 N 0.20588 0.78316 0.23047
 C309 C 0.22015 0.80405 0.21534
 C310 C 0.20073 0.82070 0.19874
 C311 C 0.15212 0.79395 0.21338
 C312 C 0.28281 0.77183 0.28528
 C313 C 0.30077 0.78998 0.30186
 C314 C 0.26997 0.83690 0.28916
 C315 C 0.25304 0.81780 0.27253
 N316 N 0.25980 0.78591 0.27082
 H317 H 0.16179 0.76077 0.24179
 H318 H 0.24686 0.80720 0.21585
 H319 H 0.21274 0.83665 0.18647
 H320 H 0.12564 0.78934 0.21294
 H321 H 0.28693 0.74621 0.28413
 H322 H 0.31760 0.77699 0.31350
 H323 H 0.26434 0.86225 0.28898
 H324 H 0.23418 0.82852 0.26117
 C325 C 0.18030 0.69126 0.30215
 C326 C 0.30355 0.70231 0.19549
 C327 C 0.29466 0.82338 0.30441
 C328 C 0.16628 0.81550 0.19741
 O329 O 1.05397 0.04698 0.01163
 O330 O 0.93493 -0.03795 0.00417
 O331 O 0.95022 0.06130 0.00854
 O332 O 1.03790 -0.05258 0.01178
 O333 O 0.93537 0.01568 0.02007
 O334 O 1.05216 -0.00684 0.02497
 O335 O 0.98024 -0.05103 0.02081
 O336 O 1.00543 0.06047 0.02320
 C337 C 1.03555 0.05908 0.02747
 C338 C 0.94959 -0.05017 0.02153
 C339 C 0.93752 0.04459 0.02436
 C340 C 1.04939 -0.03573 0.02848
 O341 O 1.06477 -0.02806 -0.02022
 O342 O 0.92994 0.03729 -0.02573
 O343 O 1.02878 0.06747 -0.02247
 O344 O 0.96607 -0.05833 -0.02771
 O345 O 0.94382 -0.01507 -0.04026
 O346 O 1.05393 0.02511 -0.03463
 O347 O 1.02239 -0.04880 -0.03619
 O348 O 0.97479 0.05720 -0.03753
 Co349 Co 1.05036 0.00886 -0.00490
 Co350 Co 0.94187 0.00050 -0.01009
 Co351 Co 0.99033 0.05634 -0.00714
 Co352 Co 1.00106 -0.04728 -0.00774
 O353 O 0.99597 0.00460 -0.00748
 C354 C 1.05230 -0.04300 -0.03742
 C355 C 0.94532 0.05148 -0.04161
 C356 C 1.04572 0.05324 -0.03826
 C357 C 0.95096 -0.04353 -0.04396
 O358 O 1.06289 0.54862 0.52064
 O359 O 0.94016 0.46793 0.51403
 O360 O 0.95950 0.56659 0.52138
 O361 O 1.04244 0.44978 0.52005
 O362 O 0.94279 0.52061 0.53103
 O363 O 1.05940 0.49464 0.53327
 O364 O 0.98497 0.45291 0.53024
 O365 O 1.01548 0.56294 0.53404
 C366 C 1.04586 0.56110 0.53712
 C367 C 0.95441 0.45561 0.53149
 C368 C 0.94494 0.54929 0.53603
 C369 C 1.05594 0.46577 0.53642
 O370 O 1.06942 0.47405 0.48764
 O371 O 0.93670 0.54473 0.48664
 O372 O 1.03645 0.57085 0.48772
 O373 O 0.96941 0.44786 0.48152
 O374 O 0.94819 0.49226 0.47010
 O375 O 1.05971 0.52815 0.47417
 O376 O 1.02534 0.45555 0.47257
 O377 O 0.98160 0.56336 0.47422
 Co378 Co 1.05686 0.51113 0.50373
 Co379 Co 0.94781 0.50667 0.50065
 Co380 Co 0.99851 0.56062 0.50413
 Co381 Co 1.00515 0.45691 0.50132
 O382 O 1.00213 0.50883 0.50248
 C383 C 1.05553 0.45934 0.47090
 C384 C 0.95188 0.55866 0.47060
 C385 C 1.05204 0.55661 0.47120
 C386 C 0.95437 0.46370 0.46578
 O387 O 0.55930 0.01131 0.53035
 O388 O 0.44385 -0.01636 0.52608
 O389 O 0.48692 0.05284 0.52759
 O390 O 0.51713 -0.05798 0.53011
 O391 O 0.44126 0.03685 0.51280
 O392 O 0.56445 -0.04304 0.51830
 O393 O 0.46178 -0.06173 0.51429
 O394 O 0.54412 0.05551 0.51575
 C395 C 0.55607 0.04047 0.53297
 C396 C 0.44752 -0.04507 0.53005
 C397 C 0.45655 0.04968 0.52984
 C398 C 0.54707 -0.05467 0.53442
 O399 O 0.56218 -0.02501 0.47137
 O400 O 0.44997 0.01520 0.46644
 O401 O 0.52499 0.04861 0.46918
 O402 O 0.48692 -0.05927 0.46920
 O403 O 0.44056 -0.03791 0.47953
 O404 O 0.56963 0.02883 0.48362
 O405 O 0.54156 -0.06734 0.48477
 O406 O 0.46874 0.05838 0.48076
 Co407 Co 0.55821 -0.00663 0.50072
 Co408 Co 0.44961 -0.00089 0.49641
 Co409 Co 0.50600 0.04831 0.49838
 Co410 Co 0.50207 -0.05606 0.49955
 O411 O 0.50396 -0.00384 0.49874
 C412 C 0.55683 -0.05373 0.46848
 C413 C 0.45568 0.04377 0.46363
 C414 C 0.55503 0.04270 0.46680
 C415 C 0.45730 -0.05387 0.46454
 O416 O 0.55657 0.53327 0.02776
 O417 O 0.43718 0.45340 0.02317
 O418 O 0.45274 0.55223 0.02355
 O419 O 0.54086 0.43486 0.02334
 O420 O 0.43804 0.50747 0.03639
 O421 O 0.55468 0.47898 0.03879
 O422 O 0.48427 0.43787 0.03654
 O423 O 0.50829 0.54913 0.03917
 C424 C 0.53842 0.54644 0.04341
 C425 C 0.45391 0.44085 0.03959
 C426 C 0.43950 0.53659 0.03965
 C427 C 0.55212 0.44986 0.04090
 O428 O 0.56403 0.46111 -0.00859
 O429 O 0.43258 0.52663 -0.01056
 O430 O 0.53225 0.55688 -0.00562
 O431 O 0.46425 0.43059 -0.00979
 O432 O 0.44359 0.47346 -0.02333
 O433 O 0.55450 0.51465 -0.01982
 O434 O 0.51993 0.44044 -0.02260
 O435 O 0.47777 0.54767 -0.02148
 Co436 Co 0.55184 0.49670 0.00940
 Co437 Co 0.44346 0.49056 0.00659
 Co438 Co 0.49320 0.54592 0.00880
 Co439 Co 0.50184 0.44149 0.00700
 O440 O 0.49758 0.49368 0.00796
 C441 C 0.54951 0.44709 -0.02548
 C442 C 0.44849 0.54137 -0.02602
 C443 C 0.54729 0.54313 -0.02247
 C444 C 0.44989 0.44479 -0.02646
 C445 C 1.16983 0.11467 0.14919
 C446 C 1.13867 0.12448 0.13956
 C447 C 1.12182 0.15077 0.15083
 C448 C 1.13695 0.16783 0.16970
 C449 C 1.16872 0.15886 0.17810
 C450 C 1.18445 0.13159 0.16807
 C451 C 1.09022 0.16030 0.14293
 C452 C 1.07490 0.14451 0.12395
 C453 C 1.09106 0.11892 0.11155
 C454 C 1.12383 0.10927 0.11912
 C455 C 1.14120 0.08564 0.10544
 C456 C 1.12720 0.07195 0.08507
 C457 C 1.09505 0.08054 0.07779
 C458 C 1.07606 0.10341 0.09129
 C459 C 1.04280 0.10974 0.08388
 C460 C 1.02970 0.09502 0.06341
 C461 C 1.04927 0.07377 0.04950
 C462 C 1.08184 0.06643 0.05692
 H463 H 1.18348 0.09386 0.14273
 H464 H 1.12435 0.18878 0.17730
 H465 H 1.20839 0.12325 0.17480
 H466 H 1.07715 0.18033 0.15150
 H467 H 1.05073 0.15382 0.11882
 H468 H 1.16635 0.07795 0.10949
 H469 H 1.14177 0.05438 0.07488
 H470 H 1.02604 0.12555 0.09367
 H471 H 1.00419 0.10065 0.05828
 H472 H 1.09691 0.04949 0.04651
 C473 C 1.19065 0.62006 0.65152
 C474 C 1.15919 0.63019 0.64253
 C475 C 1.14386 0.65759 0.65338
 C476 C 1.16049 0.67510 0.67127
 C477 C 1.19220 0.66540 0.67938
 C478 C 1.20669 0.63734 0.66961
 C479 C 1.11212 0.66767 0.64616
 C480 C 1.09503 0.65114 0.62840
 C481 C 1.10947 0.62418 0.61658
 C482 C 1.14250 0.61414 0.62324
 C483 C 1.15817 0.58919 0.60983
 C484 C 1.14223 0.57455 0.59060
 C485 C 1.10972 0.58345 0.58434
 C486 C 1.09243 0.60766 0.59770
 C487 C 1.05873 0.61425 0.59157
 C488 C 1.04361 0.59864 0.57226
 C489 C 1.06152 0.57615 0.55830
 C490 C 1.09446 0.56838 0.56462
 H491 H 1.20332 0.59858 0.64525
 H492 H 1.14889 0.69679 0.67848
 H493 H 1.23058 0.62850 0.67605
 H494 H 1.10027 0.68862 0.65437
 H495 H 1.07088 0.66090 0.62371
 H496 H 1.18340 0.58113 0.61319
 H497 H 1.15553 0.55598 0.58051
 H498 H 1.04316 0.63099 0.60152
 H499 H 1.01789 0.60463 0.56800
 H500 H 1.10824 0.55046 0.55420
 C501 C 0.63101 0.19077 0.63419
 C502 C 0.62771 0.15711 0.63391
 C503 C 0.64316 0.13975 0.65272
 C504 C 0.66093 0.15567 0.67091
 C505 C 0.66450 0.18889 0.67053
 C506 C 0.64916 0.20622 0.65214
 C507 C 0.64142 0.10653 0.65304
 C508 C 0.62578 0.08984 0.63463
 C509 C 0.61078 0.10584 0.61514
 C510 C 0.61055 0.14009 0.61530
 C511 C 0.59335 0.15615 0.59678
 C512 C 0.57844 0.13949 0.57806
 C513 C 0.58023 0.10622 0.57685
 C514 C 0.59616 0.08879 0.59541
 C515 C 0.59751 0.05500 0.59304
 C516 C 0.58412 0.03951 0.57299
 C517 C 0.56889 0.05698 0.55462
 C518 C 0.56657 0.09033 0.55688
 H519 H 0.62064 0.20591 0.62051
 H520 H 0.67308 0.14203 0.68494
 H521 H 0.65134 0.23197 0.65157
 H522 H 0.65284 0.09315 0.66750
 H523 H 0.62578 0.06425 0.63633
 H524 H 0.59071 0.18178 0.59622
 H525 H 0.56583 0.15291 0.56412
 H526 H 0.60940 0.03978 0.60604
 H527 H 0.58612 0.01367 0.57175
 H528 H 0.55464 0.10406 0.54281
 C529 C 0.68132 0.61253 0.15664
 C530 C 0.64932 0.62117 0.14781
 C531 C 0.63379 0.64924 0.15749
 C532 C 0.65071 0.66874 0.17403
 C533 C 0.68308 0.66064 0.18166
 C534 C 0.69777 0.63196 0.17323
 C535 C 0.60167 0.65811 0.15031
 C536 C 0.58459 0.64004 0.13342
 C537 C 0.59934 0.61254 0.12252
 C538 C 0.63245 0.60322 0.12956
 C539 C 0.64808 0.57707 0.11747
 C540 C 0.63230 0.56099 0.09884
 C541 C 0.60007 0.56971 0.09184
 C542 C 0.58261 0.59483 0.10410
 C543 C 0.54919 0.60135 0.09714
 C544 C 0.53470 0.58499 0.07792
 C545 C 0.55294 0.56171 0.06494
 C546 C 0.58537 0.55370 0.07232
 H547 H 0.69433 0.59083 0.15126
 H548 H 0.63895 0.69084 0.18035
 H549 H 0.72224 0.62442 0.17945
 H550 H 0.58961 0.67948 0.15773
 H551 H 0.56017 0.64904 0.12865
 H552 H 0.67317 0.56906 0.12135
 H553 H 0.64565 0.54160 0.08968
 H554 H 0.53345 0.61884 0.10618
 H555 H 0.50931 0.59117 0.07285
 H556 H 0.59935 0.53511 0.06272
 C557 C 0.89152 -0.14281 0.15881
 C558 C 0.87802 -0.13799 0.13565
 C559 C 0.84542 -0.14913 0.13109
 C560 C 0.82809 -0.16580 0.14861
 C561 C 0.84198 -0.17082 0.17137
 C562 C 0.87371 -0.15881 0.17630
 C563 C 0.83017 -0.14368 0.10902
 C564 C 0.84624 -0.12678 0.09141
 C565 C 0.87879 -0.11534 0.09494
 C566 C 0.89551 -0.12225 0.11700
 C567 C 0.92936 -0.11400 0.11941
 C568 C 0.94616 -0.09905 0.10107
 C569 C 0.92971 -0.09077 0.07995
 C570 C 0.89555 -0.09803 0.07681
 C571 C 0.87949 -0.08731 0.05570
 C572 C 0.89703 -0.07145 0.03809
 C573 C 0.93111 -0.06582 0.04078
 C574 C 0.94728 -0.07528 0.06187
 H575 H 0.91543 -0.13383 0.16420
 H576 H 0.80378 -0.17520 0.14431
 H577 H 0.88478 -0.16140 0.19390
 H578 H 0.80533 -0.15234 0.10538
 H579 H 0.83278 -0.12401 0.07482
 H580 H 0.94399 -0.11977 0.13503
 H581 H 0.97230 -0.09367 0.10355
 H582 H 0.85323 -0.09024 0.05242
 H583 H 0.88384 -0.06386 0.02212
 H584 H 0.97355 -0.07040 0.06429
 C585 C 0.89136 0.35833 0.66613
 C586 C 0.87651 0.37424 0.64654
 C587 C 0.84127 0.37563 0.64563
 C588 C 0.82203 0.36050 0.66295
 C589 C 0.83682 0.34334 0.68203
 C590 C 0.87207 0.34333 0.68333
 C591 C 0.82504 0.39160 0.62709
 C592 C 0.84295 0.40595 0.60914
 C593 C 0.87816 0.40466 0.60877
 C594 C 0.89529 0.38851 0.62777
 C595 C 0.93050 0.38653 0.62704
 C596 C 0.94837 0.39950 0.60834
 C597 C 0.93206 0.41517 0.58968
 C598 C 0.89675 0.41839 0.58976
 C599 C 0.88152 0.43504 0.57059
 C600 C 0.90042 0.44698 0.55196
 C601 C 0.93514 0.44305 0.55169
 C602 C 0.95090 0.42742 0.57078
 H603 H 0.91793 0.35717 0.66890
 H604 H 0.79538 0.36068 0.66011
 H605 H 0.88554 0.33280 0.69812
 H606 H 0.79802 0.39288 0.62632
 H607 H 0.82815 0.41742 0.59553
 H608 H 0.94518 0.37454 0.64049
 H609 H 0.97535 0.39703 0.60843
 H610 H 0.85505 0.43939 0.56930
 H611 H 0.88762 0.45939 0.53762
 H612 H 0.97785 0.42457 0.57085
 C613 C 0.39429 -0.17876 0.64789
 C614 C 0.38565 -0.14744 0.64041
 C615 C 0.36042 -0.13058 0.65351
 C616 C 0.34395 -0.14506 0.67257
 C617 C 0.35208 -0.17642 0.67916
 C618 C 0.37771 -0.19289 0.66689
 C619 C 0.35130 -0.09948 0.64736
 C620 C 0.36613 -0.08470 0.62815
 C621 C 0.39075 -0.10058 0.61405
 C622 C 0.40073 -0.13248 0.62028
 C623 C 0.42488 -0.14856 0.60587
 C624 C 0.43826 -0.13442 0.58579
 C625 C 0.42855 -0.10356 0.57933
 C626 C 0.40522 -0.08587 0.59361
 C627 C 0.39722 -0.05420 0.58666
 C628 C 0.41108 -0.04121 0.56617
 C629 C 0.43322 -0.05920 0.55177
 C630 C 0.44206 -0.09032 0.55856
 H631 H 0.41349 -0.19322 0.63938
 H632 H 0.32453 -0.13190 0.68226
 H633 H 0.38441 -0.21723 0.67156
 H634 H 0.33215 -0.08645 0.65740
 H635 H 0.35711 -0.06084 0.62459
 H636 H 0.43370 -0.17251 0.60934
 H637 H 0.45637 -0.14791 0.57511
 H638 H 0.38049 -0.03860 0.59663
 H639 H 0.40414 -0.01695 0.56150
 H640 H 0.45967 -0.10422 0.54773
 C641 C 0.31010 0.34595 0.13640
 C642 C 0.34254 0.35846 0.13818
 C643 C 0.36079 0.35266 0.15953
 C644 C 0.34631 0.33626 0.17859
 C645 C 0.31394 0.32433 0.17661
 C646 C 0.29627 0.32914 0.15521
 C647 C 0.39352 0.36300 0.16170
 C648 C 0.40903 0.37807 0.14283
 C649 C 0.39201 0.38426 0.12115
 C650 C 0.35771 0.37574 0.11928
 C651 C 0.33960 0.38515 0.09874
 C652 C 0.35479 0.40095 0.08013
 C653 C 0.38873 0.40741 0.08093
 C654 C 0.40798 0.39897 0.10133
 C655 C 0.44262 0.40489 0.10074
 C656 C 0.45724 0.41863 0.08079
 C657 C 0.43795 0.42719 0.06086
 C658 C 0.40361 0.42189 0.06118
 H659 H 0.29511 0.34780 0.12042
 H660 H 0.36035 0.33283 0.19500
 H661 H 0.27174 0.31925 0.15267
 H662 H 0.40755 0.35890 0.17803
 H663 H 0.43431 0.38528 0.14604
 H664 H 0.31326 0.38127 0.09671
 H665 H 0.33986 0.40770 0.06472
 H666 H 0.45933 0.39837 0.11507
 H667 H 0.48387 0.42250 0.08096
 H668 H 0.38854 0.42824 0.04574
 C669 C 0.89001 0.17032 -0.16783
 C670 C 0.87689 0.14379 -0.15578
 C671 C 0.84410 0.13437 -0.16187
 C672 C 0.82560 0.15088 -0.17935
 C673 C 0.83870 0.17760 -0.19050
 C674 C 0.87110 0.18694 -0.18476
 C675 C 0.82955 0.10907 -0.15006
 C676 C 0.84611 0.09376 -0.13147
 C677 C 0.87834 0.10286 -0.12416
 C678 C 0.89464 0.12714 -0.13734
 C679 C 0.92806 0.13407 -0.13154
 C680 C 0.94436 0.11926 -0.11263
 C681 C 0.92799 0.09732 -0.09851
 C682 C 0.89480 0.08863 -0.10405
 C683 C 0.87917 0.06680 -0.08869
 C684 C 0.89572 0.05461 -0.06867
 C685 C 0.92838 0.06350 -0.06331
 C686 C 0.94456 0.08446 -0.07857
 H687 H 0.91434 0.17961 -0.16405
 H688 H 0.80033 0.14380 -0.18349
 H689 H 0.88175 0.20750 -0.19325
 H690 H 0.80468 0.10147 -0.15486
 H691 H 0.83295 0.07459 -0.12328
 H692 H 0.94257 0.15073 -0.14145
 H693 H 0.96992 0.12559 -0.10871
 H694 H 0.85385 0.05931 -0.09119
 H695 H 0.88274 0.03831 -0.05720
 H696 H 0.96988 0.09149 -0.07457
 C697 C 0.90221 0.67051 0.33942
 C698 C 0.88718 0.64675 0.35341
 C699 C 0.85365 0.63901 0.34812
 C700 C 0.83635 0.65427 0.32950
 C701 C 0.85151 0.67799 0.31611
 C702 C 0.88454 0.68586 0.32118
 C703 C 0.83725 0.61650 0.36169
 C704 C 0.85290 0.60215 0.38105
 C705 C 0.88598 0.60949 0.38748
 C706 C 0.90387 0.63112 0.37282
 C707 C 0.93781 0.63638 0.37805
 C708 C 0.95338 0.62222 0.39753
 C709 C 0.93576 0.60263 0.41277
 C710 C 0.90182 0.59590 0.40807
 C711 C 0.88502 0.57641 0.42455
 C712 C 0.90131 0.56434 0.44471
 C713 C 0.93479 0.57111 0.44913
 C714 C 0.95194 0.59000 0.43293
 H715 H 0.92727 0.67844 0.34243
 H716 H 0.81055 0.64846 0.32596
 H717 H 0.89678 0.70410 0.31101
 H718 H 0.81175 0.61024 0.35754
 H719 H 0.83835 0.58506 0.39050
 H720 H 0.95333 0.65112 0.36724
 H721 H 0.97946 0.62708 0.40089
 H722 H 0.85910 0.57055 0.42275
 H723 H 0.88754 0.54970 0.45696
 H724 H 0.97790 0.59533 0.43618
 C725 C 0.33922 0.10465 0.33464
 C726 C 0.36548 0.11650 0.34889
 C727 C 0.37522 0.14833 0.34503
 C728 C 0.35904 0.16730 0.32777
 C729 C 0.33196 0.15582 0.31402
 C730 C 0.32299 0.12371 0.31775
 C731 C 0.40096 0.16141 0.35861
 C732 C 0.41617 0.14418 0.37681
 C733 C 0.40645 0.11280 0.38209
 C734 C 0.38173 0.09821 0.36721
 C735 C 0.37393 0.06595 0.37128
 C736 C 0.38834 0.04906 0.39000
 C737 C 0.41080 0.06360 0.40561
 C738 C 0.42042 0.09560 0.40184
 C739 C 0.44285 0.10935 0.41853
 C740 C 0.45448 0.09226 0.43823
 C741 C 0.44452 0.06085 0.44196
 C742 C 0.42317 0.04643 0.42530
 H743 H 0.32962 0.08098 0.33663
 H744 H 0.36876 0.19084 0.32488
 H745 H 0.30182 0.11311 0.30895
 H746 H 0.40902 0.18558 0.35549
 H747 H 0.43569 0.15625 0.38639
 H748 H 0.35676 0.05284 0.36023
 H749 H 0.38126 0.02446 0.39258
 H750 H 0.45126 0.13355 0.41735
 H751 H 0.47114 0.10389 0.45077
 H752 H 0.41533 0.02208 0.42803
 C753 C 0.40293 0.65927 -0.15473
 C754 C 0.38754 0.63456 -0.14193
 C755 C 0.35416 0.62721 -0.14800
 C756 C 0.33732 0.64385 -0.16621
 C757 C 0.35281 0.66855 -0.17835
 C758 C 0.38575 0.67595 -0.17252
 C759 C 0.33744 0.60374 -0.13558
 C760 C 0.35259 0.58807 -0.11658
 C761 C 0.38548 0.59497 -0.10938
 C762 C 0.40371 0.61762 -0.12291
 C763 C 0.43746 0.62266 -0.11692
 C764 C 0.45241 0.60750 -0.09764
 C765 C 0.43438 0.58696 -0.08339
 C766 C 0.40074 0.58014 -0.08903
 C767 C 0.38363 0.55937 -0.07362
 C768 C 0.39921 0.54654 -0.05340
 C769 C 0.43228 0.55379 -0.04789
 C770 C 0.44984 0.57360 -0.06323
 H771 H 0.42792 0.66695 -0.15108
 H772 H 0.31162 0.63832 -0.17035
 H773 H 0.39829 0.69487 -0.18176
 H774 H 0.31204 0.59779 -0.14033
 H775 H 0.33778 0.57040 -0.10796
 H776 H 0.45326 0.63810 -0.12693
 H777 H 0.47831 0.61237 -0.09360
 H778 H 0.35797 0.55309 -0.07629
 H779 H 0.38516 0.53111 -0.04190
 H780 H 0.47552 0.57927 -0.05920
 C781 C 1.12531 -0.16529 -0.16024
 C782 C 1.13725 -0.13938 -0.14623
 C783 C 1.17088 -0.13052 -0.14955
 C784 C 1.19123 -0.14675 -0.16647
 C785 C 1.17900 -0.17254 -0.17993
 C786 C 1.14591 -0.18153 -0.17668
 C787 C 1.18426 -0.10586 -0.13571
 C788 C 1.16539 -0.09031 -0.11805
 C789 C 1.13196 -0.09849 -0.11373
 C790 C 1.11728 -0.12257 -0.12869
 C791 C 1.08313 -0.12901 -0.12565
 C792 C 1.06429 -0.11364 -0.10795
 C793 C 1.07865 -0.09149 -0.09237
 C794 C 1.11264 -0.08344 -0.09495
 C795 C 1.12593 -0.06117 -0.07824
 C796 C 1.10632 -0.04791 -0.05977
 C797 C 1.07285 -0.05616 -0.05737
 C798 C 1.05911 -0.07766 -0.07397
 H799 H 1.10044 -0.17421 -0.15860
 H800 H 1.21699 -0.13994 -0.16863
 H801 H 1.13586 -0.20132 -0.18695
 H802 H 1.20986 -0.09880 -0.13830
 H803 H 1.17777 -0.07164 -0.10821
 H804 H 1.06992 -0.14566 -0.13688
 H805 H 1.03819 -0.11955 -0.10624
 H806 H 1.15155 -0.05397 -0.07855
 H807 H 1.11750 -0.03125 -0.04721
 H808 H 1.03319 -0.08424 -0.07229
 C809 C 1.11313 0.32765 0.34912
 C810 C 1.12802 0.35240 0.36281
 C811 C 1.16215 0.35851 0.35855
 C812 C 1.18000 0.34113 0.34086
 C813 C 1.16470 0.31699 0.32733
 C814 C 1.13124 0.31032 0.33176
 C815 C 1.17841 0.38184 0.37202
 C816 C 1.16180 0.39906 0.38999
 C817 C 1.12783 0.39399 0.39501
 C818 C 1.11042 0.37091 0.38072
 C819 C 1.07592 0.36734 0.38463
 C820 C 1.05916 0.38482 0.40233
 C821 C 1.07602 0.40633 0.41706
 C822 C 1.11057 0.41131 0.41376
 C823 C 1.12637 0.43308 0.42969
 C824 C 1.10854 0.44888 0.44803
 C825 C 1.07446 0.44372 0.45106
 C826 C 1.05835 0.42266 0.43529
 H827 H 1.08767 0.32068 0.35152
 H828 H 1.20610 0.34605 0.33787
 H829 H 1.11883 0.29182 0.32153
 H830 H 1.20447 0.38670 0.36878
 H831 H 1.17631 0.41660 0.39943
 H832 H 1.06084 0.35144 0.37406
 H833 H 1.03267 0.38118 0.40466
 H834 H 1.15258 0.43803 0.42881
 H835 H 1.12155 0.46506 0.45998
 H836 H 1.03194 0.41838 0.43749
 C837 C 0.68167 -0.11578 0.34281
 C838 C 0.65317 -0.12668 0.35493
 C839 C 0.64096 -0.15713 0.34826
 C840 C 0.65619 -0.17519 0.32972
 C841 C 0.68452 -0.16410 0.31796
 C842 C 0.69703 -0.13425 0.32479
 C843 C 0.61386 -0.16965 0.36031
 C844 C 0.59928 -0.15320 0.37952
 C845 C 0.61076 -0.12299 0.38711
 C846 C 0.63701 -0.10882 0.37383
 C847 C 0.64599 -0.07719 0.37973
 C848 C 0.63096 -0.06046 0.39861
 C849 C 0.60697 -0.07473 0.41272
 C850 C 0.59665 -0.10629 0.40737
 C851 C 0.57321 -0.12005 0.42294
 C852 C 0.56050 -0.10300 0.44272
 C853 C 0.57039 -0.07167 0.44757
 C854 C 0.59348 -0.05761 0.43237
 H855 H 0.69348 -0.09359 0.34736
 H856 H 0.64597 -0.19808 0.32454
 H857 H 0.71943 -0.12536 0.31663
 H858 H 0.60418 -0.19277 0.35513
 H859 H 0.57848 -0.16460 0.38779
 H860 H 0.66417 -0.06431 0.36971
 H861 H 0.63864 -0.03619 0.40244
 H862 H 0.56481 -0.14421 0.42074
 H863 H 0.54279 -0.11444 0.45428
 H864 H 0.60149 -0.03342 0.43609
 C865 C 0.60950 0.34006 -0.15936
 C866 C 0.62307 0.36370 -0.14392
 C867 C 0.65664 0.37236 -0.14782
 C868 C 0.67551 0.35778 -0.16631
 C869 C 0.66182 0.33401 -0.18106
 C870 C 0.62863 0.32551 -0.17749
 C871 C 0.67149 0.39510 -0.13300
 C872 C 0.65423 0.40886 -0.11380
 C873 C 0.62105 0.40055 -0.10869
 C874 C 0.60483 0.37841 -0.12448
 C875 C 0.57102 0.37157 -0.12021
 C876 C 0.55402 0.38470 -0.10068
 C877 C 0.56993 0.40499 -0.08447
 C878 C 0.60358 0.41345 -0.08823
 C879 C 0.61848 0.43395 -0.07098
 C880 C 0.60083 0.44496 -0.05084
 C881 C 0.56777 0.43615 -0.04719
 C882 C 0.55233 0.41652 -0.06429
 H883 H 0.58441 0.33169 -0.15768
 H884 H 0.70134 0.36422 -0.16870
 H885 H 0.61737 0.30740 -0.18880
 H886 H 0.69703 0.40205 -0.13605
 H887 H 0.66774 0.42611 -0.10331
 H888 H 0.55674 0.35612 -0.13172
 H889 H 0.52816 0.37848 -0.09804
 H890 H 0.64392 0.44150 -0.07217
 H891 H 0.61325 0.46032 -0.03797
 H892 H 0.52667 0.40965 -0.06169
 C893 C 1.16908 0.11410 -0.16258
 C894 C 1.14075 0.12549 -0.14977
 C895 C 1.12853 0.15660 -0.15500
 C896 C 1.14423 0.17528 -0.17221
 C897 C 1.17300 0.16414 -0.18448
 C898 C 1.18473 0.13296 -0.17948
 C899 C 1.10079 0.16923 -0.14287
 C900 C 1.08567 0.15228 -0.12483
 C901 C 1.09755 0.12163 -0.11828
 C902 C 1.12468 0.10746 -0.13161
 C903 C 1.13488 0.07584 -0.12626
 C904 C 1.12027 0.05917 -0.10783
 C905 C 1.09521 0.07334 -0.09377
 C906 C 1.08332 0.10472 -0.09878
 C907 C 1.05828 0.11813 -0.08358
 C908 C 1.04609 0.10125 -0.06420
 C909 C 1.05811 0.07040 -0.05932
 C910 C 1.08234 0.05638 -0.07442
 H911 H 1.18058 0.09106 -0.15948
 H912 H 1.13320 0.19841 -0.17624
 H913 H 1.20730 0.12323 -0.18756
 H914 H 1.09095 0.19283 -0.14705
 H915 H 1.06446 0.16394 -0.11644
 H916 H 1.15410 0.06305 -0.13611
 H917 H 1.12915 0.03505 -0.10428
 H918 H 1.04807 0.14191 -0.08573
 H919 H 1.02722 0.11256 -0.05288
 H920 H 1.09180 0.03246 -0.07079
 C921 C 1.16899 0.62306 0.34551
 C922 C 1.13864 0.63146 0.35712
 C923 C 1.12207 0.66007 0.35006
 C924 C 1.13505 0.67873 0.33167
 C925 C 1.16536 0.67027 0.32050
 C926 C 1.18209 0.64223 0.32769
 C927 C 1.09285 0.67023 0.36163
 C928 C 1.08041 0.65343 0.38082
 C929 C 1.09634 0.62515 0.38887
 C930 C 1.12477 0.61301 0.37594
 C931 C 1.13817 0.58276 0.38213
 C932 C 1.12528 0.56563 0.40102
 C933 C 1.09922 0.57828 0.41494
 C934 C 1.08459 0.60840 0.40928
 C935 C 1.05949 0.62096 0.42478
 C936 C 1.04932 0.60414 0.44480
 C937 C 1.06324 0.57405 0.44991
 C938 C 1.08802 0.56111 0.43476
 H939 H 1.18393 0.60248 0.35040
 H940 H 1.12153 0.70010 0.32621
 H941 H 1.20601 0.63540 0.32001
 H942 H 1.07979 0.69184 0.35611
 H943 H 1.05771 0.66289 0.38870
 H944 H 1.15829 0.57126 0.37232
 H945 H 1.13634 0.54246 0.40507
 H946 H 1.04795 0.64417 0.42240
 H947 H 1.03034 0.61481 0.45636
 H948 H 1.09924 0.53798 0.43873
 C949 C 0.61773 0.16277 0.34445
 C950 C 0.62918 0.13437 0.35552
 C951 C 0.66088 0.12182 0.34862
 C952 C 0.67958 0.13670 0.33080
 C953 C 0.66803 0.16507 0.32016
 C954 C 0.63691 0.17782 0.32728
 C955 C 0.67407 0.09479 0.35984
 C956 C 0.65717 0.08067 0.37852
 C957 C 0.62574 0.09253 0.38630
 C958 C 0.61074 0.11870 0.37371
 C959 C 0.57773 0.12818 0.37958
 C960 C 0.56059 0.11385 0.39798
 C961 C 0.57579 0.09001 0.41162
 C962 C 0.60862 0.07901 0.40614
 C963 C 0.62320 0.05557 0.42121
 C964 C 0.60583 0.04380 0.44081
 C965 C 0.57332 0.05463 0.44588
 C966 C 0.55834 0.07746 0.43099
 H967 H 0.59466 0.17476 0.34934
 H968 H 0.70341 0.12625 0.32543
 H969 H 0.62761 0.20019 0.32011
 H970 H 0.69815 0.08485 0.35450
 H971 H 0.66919 0.05999 0.38626
 H972 H 0.56409 0.14631 0.36991
 H973 H 0.53530 0.12199 0.40188
 H974 H 0.64832 0.04649 0.41880
 H975 H 0.61793 0.02616 0.45208
 H976 H 0.53324 0.08616 0.43484
 C977 C 0.65567 0.60400 -0.15368
 C978 C 0.62735 0.61417 -0.14038
 C979 C 0.61234 0.64393 -0.14629
 C980 C 0.62511 0.66230 -0.16493
 C981 C 0.65412 0.65263 -0.17764
 C982 C 0.66874 0.62280 -0.17174
 C983 C 0.58489 0.65562 -0.13330
 C984 C 0.57311 0.63931 -0.11366
 C985 C 0.58790 0.61006 -0.10653
 C986 C 0.61413 0.59636 -0.12096
 C987 C 0.62615 0.56534 -0.11552
 C988 C 0.61421 0.54893 -0.09596
 C989 C 0.59052 0.56301 -0.08066
 C990 C 0.57717 0.59389 -0.08555
 C991 C 0.55439 0.60769 -0.06880
 C992 C 0.54514 0.59130 -0.04832
 C993 C 0.55782 0.56053 -0.04394
 C994 C 0.58036 0.54643 -0.06030
 H995 H 0.66935 0.58224 -0.14988
 H996 H 0.61178 0.68411 -0.16946
 H997 H 0.69166 0.61421 -0.17994
 H998 H 0.57286 0.67812 -0.13798
 H999 H 0.55186 0.65003 -0.10462
 H1000 H 0.64447 0.55273 -0.12636
 H1001 H 0.62418 0.52515 -0.09250
 H1002 H 0.54395 0.63146 -0.07062
 H1003 H 0.52776 0.60277 -0.03590
 H1004 H 0.59052 0.52268 -0.05697
 C1005 C 0.86170 -0.19154 -0.14029
 C1006 C 0.86658 -0.15809 -0.14044
 C1007 C 0.84959 -0.14017 -0.15826
 C1008 C 0.82855 -0.15526 -0.17492
 C1009 C 0.82345 -0.18825 -0.17409
 C1010 C 0.84049 -0.20619 -0.15680
 C1011 C 0.85315 -0.10716 -0.15916
 C1012 C 0.87211 -0.09114 -0.14217
 C1013 C 0.88858 -0.10761 -0.12350
 C1014 C 0.88685 -0.14176 -0.12318
 C1015 C 0.90511 -0.15836 -0.10543
 C1016 C 0.92281 -0.14221 -0.08777
 C1017 C 0.92295 -0.10891 -0.08690
 C1018 C 0.90625 -0.09105 -0.10491
 C1019 C 0.90700 -0.05728 -0.10301
 C1020 C 0.92246 -0.04216 -0.08366
 C1021 C 0.93797 -0.05997 -0.06558
 C1022 C 0.93893 -0.09336 -0.06766
 H1023 H 0.87330 -0.20709 -0.12739
 H1024 H 0.81523 -0.14109 -0.18809
 H1025 H 0.83741 -0.23182 -0.15599
 H1026 H 0.84061 -0.09340 -0.17294
 H1027 H 0.87329 -0.06566 -0.14423
 H1028 H 0.90624 -0.18405 -0.10459
 H1029 H 0.93595 -0.15600 -0.07429
 H1030 H 0.89503 -0.04169 -0.11572
 H1031 H 0.92158 -0.01626 -0.08260
 H1032 H 0.95097 -0.10736 -0.05379
 C1033 C 0.88808 0.31719 0.35765
 C1034 C 0.88132 0.34973 0.36368
 C1035 C 0.85517 0.36556 0.35111
 C1036 C 0.83607 0.34906 0.33403
 C1037 C 0.84265 0.31675 0.32877
 C1038 C 0.86905 0.30112 0.34047
 C1039 C 0.84791 0.39774 0.35572
 C1040 C 0.86566 0.41474 0.37283
 C1041 C 0.89138 0.40007 0.38635
 C1042 C 0.89925 0.36697 0.38181
 C1043 C 0.92414 0.35204 0.39596
 C1044 C 0.94012 0.36848 0.41433
 C1045 C 0.93247 0.40057 0.41915
 C1046 C 0.90875 0.41714 0.40481
 C1047 C 0.90310 0.45010 0.40984
 C1048 C 0.91871 0.46519 0.42914
 C1049 C 0.94057 0.44816 0.44407
 C1050 C 0.94801 0.41603 0.43859
 H1051 H 0.90786 0.30338 0.36581
 H1052 H 0.81606 0.36147 0.32466
 H1053 H 0.87463 0.27612 0.33664
 H1054 H 0.82802 0.40995 0.34609
 H1055 H 0.85788 0.43932 0.37541
 H1056 H 0.93137 0.32726 0.39375
 H1057 H 0.95851 0.35578 0.42505
 H1058 H 0.88669 0.46501 0.39935
 H1059 H 0.91300 0.49025 0.43268
 H1060 H 0.96546 0.40282 0.44976
 C1061 C 0.31458 -0.11148 0.34787
 C1062 C 0.34499 -0.12244 0.35795
 C1063 C 0.35917 -0.15113 0.34842
 C1064 C 0.34251 -0.16881 0.33060
 C1065 C 0.31142 -0.15854 0.32114
 C1066 C 0.29838 -0.12894 0.32988
 C1067 C 0.39003 -0.16228 0.35669
 C1068 C 0.40714 -0.14576 0.37443
 C1069 C 0.39376 -0.11748 0.38505
 C1070 C 0.36181 -0.10598 0.37707
 C1071 C 0.34737 -0.07903 0.38893
 C1072 C 0.36335 -0.06398 0.40801
 C1073 C 0.39470 -0.07460 0.41574
 C1074 C 0.41082 -0.10089 0.40393
 C1075 C 0.44343 -0.10950 0.41159
 C1076 C 0.45845 -0.09377 0.43086
 C1077 C 0.44165 -0.06899 0.44329
 C1078 C 0.40992 -0.05919 0.43539
 H1079 H 0.30251 -0.08937 0.35343
 H1080 H 0.35515 -0.18996 0.32346
 H1081 H 0.27443 -0.11955 0.32414
 H1082 H 0.40111 -0.18421 0.34943
 H1083 H 0.43048 -0.15650 0.37996
 H1084 H 0.32308 -0.06946 0.38439
 H1085 H 0.35096 -0.04378 0.41685
 H1086 H 0.45824 -0.12809 0.40297
 H1087 H 0.48324 -0.10147 0.43631
 H1088 H 0.39704 -0.03953 0.44456
 C1089 C 0.32663 0.38278 -0.15183
 C1090 C 0.35631 0.37240 -0.14030
 C1091 C 0.37021 0.34229 -0.14739
 C1092 C 0.35535 0.32406 -0.16573
 C1093 C 0.32582 0.33463 -0.17689
 C1094 C 0.31171 0.36415 -0.16967
 C1095 C 0.39864 0.33029 -0.13595
 C1096 C 0.41295 0.34685 -0.11691
 C1097 C 0.39978 0.37667 -0.10887
 C1098 C 0.37207 0.39039 -0.12156
 C1099 C 0.36121 0.42170 -0.11523
 C1100 C 0.37571 0.43844 -0.09637
 C1101 C 0.40108 0.42449 -0.08273
 C1102 C 0.41347 0.39336 -0.08864
 C1103 C 0.43839 0.37993 -0.07357
 C1104 C 0.45019 0.39671 -0.05356
 C1105 C 0.43798 0.42750 -0.04802
 C1106 C 0.41376 0.44143 -0.06290
 H1107 H 0.31360 0.40467 -0.14694
 H1108 H 0.36683 0.30146 -0.17124
 H1109 H 0.28844 0.37264 -0.17739
 H1110 H 0.40963 0.30745 -0.14147
 H1111 H 0.43482 0.33583 -0.10911
 H1112 H 0.34181 0.43429 -0.12483
 H1113 H 0.36647 0.46240 -0.09214
 H1114 H 0.44859 0.35615 -0.07629
 H1115 H 0.46895 0.38547 -0.04231
 H1116 H 0.40400 0.46522 -0.05865
 C1117 C 1.10582 -0.17160 0.14591
 C1118 C 1.11149 -0.13943 0.13964
 C1119 C 1.13385 -0.12181 0.15421
 C1120 C 1.15071 -0.13634 0.17339
 C1121 C 1.14585 -0.16853 0.17867
 C1122 C 1.12276 -0.18578 0.16506
 C1123 C 1.13986 -0.08989 0.14936
 C1124 C 1.12485 -0.07501 0.12997
 C1125 C 1.10324 -0.09162 0.11435
 C1126 C 1.09632 -0.12435 0.11929
 C1127 C 1.07517 -0.14107 0.10339
 C1128 C 1.06194 -0.12674 0.08308
 C1129 C 1.06882 -0.09508 0.07782
 C1130 C 1.08896 -0.07679 0.09361
 C1131 C 1.09422 -0.04444 0.08778
 C1132 C 1.08108 -0.03138 0.06686
 C1133 C 1.06227 -0.04990 0.05091
 C1134 C 1.05585 -0.08168 0.05667
 H1135 H 1.08878 -0.18667 0.13627
 H1136 H 1.16805 -0.12260 0.18413
 H1137 H 1.11856 -0.21073 0.16874
 H1138 H 1.15675 -0.07627 0.16054
 H1139 H 1.13141 -0.05047 0.12751
 H1140 H 1.06876 -0.16567 0.10584
 H1141 H 1.04629 -0.14075 0.07122
 H1142 H 1.10835 -0.02840 0.09891
 H1143 H 1.08606 -0.00662 0.06306
 H1144 H 1.04078 -0.09604 0.04466
 C1145 C 1.12122 0.32362 0.64707
 C1146 C 1.12770 0.35564 0.64085
 C1147 C 1.15229 0.37197 0.65434
 C1148 C 1.17037 0.35633 0.67243
 C1149 C 1.16430 0.32440 0.67779
 C1150 C 1.13925 0.30839 0.66522
 C1151 C 1.15910 0.40375 0.64958
 C1152 C 1.14236 0.41986 0.63151
 C1153 C 1.11819 0.40463 0.61711
 C1154 C 1.11095 0.37189 0.62169
 C1155 C 1.08786 0.35629 0.60659
 C1156 C 1.07277 0.37184 0.58748
 C1157 C 1.07953 0.40368 0.58279
 C1158 C 1.10170 0.42083 0.59785
 C1159 C 1.10654 0.45350 0.59285
 C1160 C 1.09126 0.46789 0.57321
 C1161 C 1.07061 0.45043 0.55780
 C1162 C 1.06443 0.41841 0.56292
 H1163 H 1.10245 0.30957 0.63829
 H1164 H 1.18930 0.36908 0.68242
 H1165 H 1.13408 0.28367 0.66904
 H1166 H 1.17782 0.41635 0.65988
 H1167 H 1.14969 0.44417 0.62893
 H1168 H 1.08140 0.33163 0.60866
 H1169 H 1.05568 0.35867 0.57614
 H1170 H 1.12186 0.46879 0.60376
 H1171 H 1.09605 0.49284 0.56993
 H1172 H 1.04794 0.40487 0.55136
 C1173 C 0.58828 -0.16427 0.66864
 C1174 C 0.60466 -0.14187 0.65417
 C1175 C 0.63860 -0.13575 0.65941
 C1176 C 0.65520 -0.15174 0.67804
 C1177 C 0.63888 -0.17449 0.69169
 C1178 C 0.60520 -0.18030 0.68696
 C1179 C 0.65616 -0.11422 0.64571
 C1180 C 0.64131 -0.09936 0.62626
 C1181 C 0.60797 -0.10537 0.61967
 C1182 C 0.58894 -0.12607 0.63436
 C1183 C 0.55499 -0.13047 0.62860
 C1184 C 0.54045 -0.11628 0.60868
 C1185 C 0.55910 -0.09743 0.59351
 C1186 C 0.59309 -0.09154 0.59877
 C1187 C 0.61097 -0.07267 0.58250
 C1188 C 0.59582 -0.06064 0.56190
 C1189 C 0.56237 -0.06675 0.55675
 C1190 C 0.54400 -0.08481 0.57284
 H1191 H 0.56262 -0.17058 0.66598
 H1192 H 0.68141 -0.14737 0.68127
 H1193 H 0.59188 -0.19754 0.69739
 H1194 H 0.68197 -0.10913 0.64985
 H1195 H 0.65683 -0.08313 0.61676
 H1196 H 0.53876 -0.14477 0.63920
 H1197 H 0.51437 -0.12059 0.60490
 H1198 H 0.63691 -0.06723 0.58477
 H1199 H 0.61054 -0.04659 0.54983
 H1200 H 0.51804 -0.08967 0.56904
 C1201 C 0.67262 0.38777 0.16756
 C1202 C 0.64354 0.37786 0.15532
 C1203 C 0.63047 0.34774 0.16123
 C1204 C 0.64576 0.32882 0.17884
 C1205 C 0.67510 0.33853 0.19031
 C1206 C 0.68813 0.36834 0.18460
 C1207 C 0.60258 0.33623 0.14920
 C1208 C 0.58833 0.35309 0.13044
 C1209 C 0.60106 0.38268 0.12327
 C1210 C 0.62773 0.39620 0.13687
 C1211 C 0.63761 0.42753 0.13156
 C1212 C 0.62317 0.44442 0.11281
 C1213 C 0.59910 0.43047 0.09815
 C1214 C 0.58789 0.39927 0.10301
 C1215 C 0.56483 0.38548 0.08684
 C1216 C 0.55344 0.40205 0.06685
 C1217 C 0.56413 0.43303 0.06241
 C1218 C 0.58664 0.44733 0.07832
 H1219 H 0.68484 0.40981 0.16368
 H1220 H 0.63500 0.30611 0.18332
 H1221 H 0.71110 0.37631 0.19274
 H1222 H 0.59211 0.31347 0.15393
 H1223 H 0.56686 0.34250 0.12212
 H1224 H 0.65614 0.43997 0.14191
 H1225 H 0.63156 0.46841 0.10938
 H1226 H 0.55596 0.36149 0.08862
 H1227 H 0.53608 0.39049 0.05477
 H1228 H 0.59529 0.47122 0.07486
 C1229 C 0.85002 0.18308 0.13164
 C1230 C 0.86127 0.15082 0.13125
 C1231 C 0.85584 0.13248 0.15200
 C1232 C 0.84135 0.14662 0.17261
 C1233 C 0.83083 0.17883 0.17282
 C1234 C 0.83498 0.19664 0.15197
 C1235 C 0.86467 0.10007 0.15202
 C1236 C 0.87791 0.08513 0.13164
 C1237 C 0.88387 0.10236 0.11055
 C1238 C 0.87695 0.13605 0.11079
 C1239 C 0.88649 0.15397 0.09078
 C1240 C 0.90100 0.13938 0.07078
 C1241 C 0.90588 0.10634 0.06963
 C1242 C 0.89706 0.08720 0.08933
 C1243 C 0.90124 0.05361 0.08671
 C1244 C 0.91409 0.03991 0.06560
 C1245 C 0.92342 0.05911 0.04650
 C1246 C 0.91940 0.09233 0.04871
 H1247 H 0.85142 0.19826 0.11626
 H1248 H 0.83836 0.13244 0.18853
 H1249 H 0.82594 0.22115 0.15110
 H1250 H 0.86079 0.08592 0.16786
 H1251 H 0.88406 0.06006 0.13321
 H1252 H 0.88392 0.17964 0.09026
 H1253 H 0.90805 0.15416 0.05589
 H1254 H 0.89411 0.03720 0.10039
 H1255 H 0.91687 0.01412 0.06427
 H1256 H 0.92635 0.10737 0.03393
 C1257 C 0.86363 0.68042 0.65181
 C1258 C 0.85834 0.64912 0.64270
 C1259 C 0.83308 0.63105 0.65362
 C1260 C 0.81326 0.64444 0.67206
 C1261 C 0.81842 0.67565 0.68043
 C1262 C 0.84399 0.69333 0.67035
 C1263 C 0.82753 0.59974 0.64605
 C1264 C 0.84649 0.58569 0.62784
 C1265 C 0.87164 0.60266 0.61609
 C1266 C 0.87714 0.63515 0.62325
 C1267 C 0.90065 0.65278 0.61034
 C1268 C 0.91811 0.63927 0.59110
 C1269 C 0.91350 0.60751 0.58421
 C1270 C 0.89082 0.58848 0.59695
 C1271 C 0.88835 0.55594 0.58997
 C1272 C 0.90634 0.54344 0.57054
 C1273 C 0.92747 0.56275 0.55732
 C1274 C 0.93132 0.59470 0.56447
 H1275 H 0.88286 0.69555 0.64518
 H1276 H 0.79390 0.63040 0.68012
 H1277 H 0.84847 0.71753 0.67657
 H1278 H 0.80822 0.58586 0.65430
 H1279 H 0.84006 0.56159 0.62296
 H1280 H 0.90556 0.67753 0.61422
 H1281 H 0.93547 0.65393 0.58150
 H1282 H 0.87300 0.53930 0.59923
 H1283 H 0.90332 0.51849 0.56569
 H1284 H 0.94814 0.60966 0.55463
 C1285 C 0.39433 0.16982 0.65676
 C1286 C 0.38278 0.14249 0.64422
 C1287 C 0.35078 0.13123 0.65022
 C1288 C 0.33176 0.14642 0.66832
 C1289 C 0.34320 0.17390 0.68021
 C1290 C 0.37477 0.18525 0.67430
 C1291 C 0.33757 0.10519 0.63786
 C1292 C 0.35464 0.09091 0.61879
 C1293 C 0.38620 0.10171 0.61167
 C1294 C 0.40134 0.12663 0.62547
 C1295 C 0.43453 0.13467 0.62015
 C1296 C 0.45180 0.11995 0.60130
 C1297 C 0.43644 0.09737 0.58656
 C1298 C 0.40327 0.08818 0.59132
 C1299 C 0.38819 0.06653 0.57503
 C1300 C 0.40553 0.05435 0.55515
 C1301 C 0.43853 0.06288 0.55094
 C1302 C 0.45397 0.08424 0.56684
 H1303 H 0.41780 0.18066 0.65281
 H1304 H 0.30767 0.13696 0.67293
 H1305 H 0.38408 0.20679 0.68272
 H1306 H 0.31333 0.09616 0.64262
 H1307 H 0.34267 0.07091 0.61025
 H1308 H 0.44819 0.15190 0.63060
 H1309 H 0.47728 0.12683 0.59792
 H1310 H 0.36267 0.05929 0.57668
 H1311 H 0.39296 0.03810 0.54300
 H1312 H 0.47943 0.09127 0.56356
 C1313 C 0.36809 0.68404 0.14739
 C1314 C 0.36214 0.65158 0.14142
 C1315 C 0.33740 0.63579 0.15470
 C1316 C 0.31874 0.65233 0.17238
 C1317 C 0.32438 0.68465 0.17754
 C1318 C 0.34951 0.70016 0.16512
 C1319 C 0.33111 0.60362 0.15016
 C1320 C 0.34857 0.58660 0.13253
 C1321 C 0.37295 0.60124 0.11838
 C1322 C 0.37961 0.63437 0.12273
 C1323 C 0.40294 0.64936 0.10789
 C1324 C 0.41887 0.63285 0.08929
 C1325 C 0.41273 0.60063 0.08486
 C1326 C 0.39028 0.58407 0.09961
 C1327 C 0.38608 0.55101 0.09478
 C1328 C 0.40244 0.53563 0.07562
 C1329 C 0.42342 0.55255 0.06057
 C1330 C 0.42880 0.58497 0.06552
 H1331 H 0.38690 0.69779 0.13875
 H1332 H 0.29975 0.63996 0.18226
 H1333 H 0.35435 0.72515 0.16877
 H1334 H 0.31228 0.59143 0.16030
 H1335 H 0.34171 0.56202 0.13011
 H1336 H 0.40899 0.67422 0.10977
 H1337 H 0.43617 0.64555 0.07815
 H1338 H 0.37048 0.53620 0.10547
 H1339 H 0.39824 0.51042 0.07240
 H1340 H 0.44551 0.59813 0.05421
   
