data_POSCAR
  _audit_creation_date              2014-09-24
  _audit_creation_method            'ToBaCCo'
  _symmetry_space_group_name_H-M    'P1'
  _symmetry_Int_Tables_number       1
  _symmetry_cell_setting            triclinic
  loop_
  _symmetry_equiv_pos_as_xyz
 x,y,z
_cell_length_a 70.8964
_cell_length_b 69.3972
_cell_length_c 70.5161
_cell_angle_alpha 89.183300
_cell_angle_beta 89.241300
_cell_angle_gamma 88.790300
loop_
  _atom_site_label
  _atom_site_type_symbol
  _atom_site_fract_x
  _atom_site_fract_y
  _atom_site_fract_z
C1 C 0.74672 0.61553 1.02667
 C2 C 0.75739 0.62311 1.01156
 C3 C 0.77492 0.63124 1.01502
 C4 C 0.78187 0.63225 1.03361
 C5 C 0.77114 0.62383 1.04847
 C6 C 0.75341 0.61558 1.04542
 C7 C 0.74973 0.62329 0.99214
 C8 C 0.73161 0.63104 0.98876
 C9 C 0.72408 0.63121 0.97044
 C10 C 0.73492 0.62335 0.95550
 C11 C 0.75299 0.61533 0.95868
 C12 C 0.76036 0.61549 0.97706
 H13 H 0.73292 0.61014 1.02357
 H14 H 0.78234 0.63790 1.00323
 H15 H 0.72336 0.63687 1.00046
 H16 H 0.77431 0.60944 0.97969
 H17 H 0.77738 0.62249 1.06232
 H18 H 0.72923 0.62334 0.94132
 C19 C 0.74151 0.39513 0.47657
 C20 C 0.75112 0.38631 0.49177
 C21 C 0.76865 0.37705 0.48853
 C22 C 0.77650 0.37636 0.47015
 C23 C 0.76692 0.38575 0.45521
 C24 C 0.74934 0.39495 0.45820
 C25 C 0.74232 0.38597 0.51086
 C26 C 0.72440 0.37815 0.51352
 C27 C 0.71581 0.37771 0.53156
 C28 C 0.72519 0.38569 0.54693
 C29 C 0.74317 0.39366 0.54449
 C30 C 0.75173 0.39349 0.52638
 H31 H 0.72780 0.40190 0.47906
 H32 H 0.77570 0.36967 0.50018
 H33 H 0.71719 0.37232 0.50149
 H34 H 0.76568 0.39930 0.52426
 H35 H 0.77322 0.38592 0.44113
 H36 H 0.71850 0.38562 0.56082
 C37 C 0.24287 -0.10540 -0.02480
 C38 C 0.25197 -0.11308 -0.00882
 C39 C 0.27049 -0.12043 -0.01056
 C40 C 0.28018 -0.12025 -0.02821
 C41 C 0.27070 -0.11215 -0.04405
 C42 C 0.25215 -0.10477 -0.04246
 C43 C 0.24221 -0.11294 0.00986
 C44 C 0.22424 -0.12084 0.01201
 C45 C 0.21444 -0.12030 0.02958
 C46 C 0.22320 -0.11124 0.04490
 C47 C 0.24123 -0.10334 0.04293
 C48 C 0.25067 -0.10441 0.02537
 H49 H 0.22853 -0.09980 -0.02343
 H50 H 0.27737 -0.12577 0.00214
 H51 H 0.21783 -0.12688 -0.00035
 H52 H 0.26461 -0.09847 0.02367
 H53 H 0.27739 -0.11204 -0.05792
 H54 H 0.21636 -0.11074 0.05869
 C55 C 0.24739 0.11192 0.52408
 C56 C 0.25663 0.12088 0.50874
 C57 C 0.27369 0.13023 0.51162
 C58 C 0.28132 0.13102 0.52987
 C59 C 0.27209 0.12164 0.54504
 C60 C 0.25513 0.11202 0.54230
 C61 C 0.24809 0.12084 0.48978
 C62 C 0.22983 0.12850 0.48721
 C63 C 0.22130 0.12811 0.46937
 C64 C 0.23118 0.11957 0.45414
 C65 C 0.24944 0.11168 0.45654
 C66 C 0.25790 0.11263 0.47441
 H67 H 0.23410 0.10494 0.52178
 H68 H 0.28055 0.13754 0.49982
 H69 H 0.22225 0.13470 0.49918
 H70 H 0.27183 0.10634 0.47660
 H71 H 0.27832 0.12163 0.55898
 H72 H 0.22481 0.11945 0.44026
 C73 C 0.11404 0.52173 0.24937
 C74 C 0.12233 0.50632 0.25955
 C75 C 0.13162 0.50979 0.27651
 C76 C 0.13307 0.52862 0.28315
 C77 C 0.12444 0.54392 0.27301
 C78 C 0.11479 0.54085 0.25594
 C79 C 0.12232 0.48671 0.25175
 C80 C 0.13038 0.48328 0.23383
 C81 C 0.13105 0.46464 0.22641
 C82 C 0.12294 0.44949 0.23689
 C83 C 0.11470 0.45267 0.25486
 C84 C 0.11469 0.47138 0.26229
 H85 H 0.10771 0.51861 0.23591
 H86 H 0.13851 0.49792 0.28402
 H87 H 0.13677 0.49506 0.22599
 H88 H 0.10876 0.47410 0.27626
 H89 H 0.12481 0.55813 0.27907
 H90 H 0.12278 0.43525 0.23083
 C91 C -0.10876 -0.02655 0.24387
 C92 C -0.11722 -0.01109 0.25351
 C93 C -0.12554 -0.01416 0.27143
 C94 C -0.12551 -0.03266 0.28004
 C95 C -0.11654 -0.04796 0.27014
 C96 C -0.10820 -0.04504 0.25214
 C97 C -0.11709 0.00848 0.24506
 C98 C -0.12582 0.01231 0.22765
 C99 C -0.12674 0.03121 0.21992
 C100 C -0.11791 0.04598 0.22996
 C101 C -0.10877 0.04221 0.24723
 C102 C -0.10862 0.02340 0.25474
 H103 H -0.10251 -0.02410 0.22996
 H104 H -0.13148 -0.00180 0.27875
 H105 H -0.13291 0.00060 0.22095
 H106 H -0.10155 0.02017 0.26798
 H107 H -0.11641 -0.06243 0.27604
 H108 H -0.11768 0.06051 0.22426
 C109 C 0.39129 0.47610 0.74390
 C110 C 0.38295 0.49120 0.75421
 C111 C 0.37406 0.48734 0.77172
 C112 C 0.37296 0.46831 0.77898
 C113 C 0.38192 0.45344 0.76847
 C114 C 0.39099 0.45716 0.75102
 C115 C 0.38291 0.51103 0.74636
 C116 C 0.37488 0.51505 0.72861
 C117 C 0.37416 0.53399 0.72133
 C118 C 0.38227 0.54876 0.73172
 C119 C 0.39045 0.54492 0.74943
 C120 C 0.39050 0.52602 0.75678
 H121 H 0.39794 0.47914 0.73029
 H122 H 0.36697 0.49919 0.77886
 H123 H 0.36850 0.50353 0.72089
 H124 H 0.39679 0.52285 0.77043
 H125 H 0.38266 0.43888 0.77414
 H126 H 0.38196 0.56339 0.72613
 C127 C 0.61224 1.01980 0.74507
 C128 C 0.61992 1.00449 0.75577
 C129 C 0.62833 1.00808 0.77324
 C130 C 0.62965 1.02705 0.78002
 C131 C 0.62128 1.04216 0.76916
 C132 C 0.61263 1.03871 0.75176
 C133 C 0.62001 0.98476 0.74822
 C134 C 0.62883 0.98090 0.73072
 C135 C 0.62969 0.96208 0.72371
 C136 C 0.62105 0.94721 0.73413
 C137 C 0.61191 0.95088 0.75157
 C138 C 0.61168 0.96973 0.75863
 H139 H 0.60605 1.01693 0.73145
 H140 H 0.63497 0.99605 0.78069
 H141 H 0.63564 0.99246 0.72294
 H142 H 0.60505 0.97277 0.77222
 H143 H 0.62070 1.05667 0.77456
 H144 H 0.62113 0.93280 0.72842
 C145 C -0.02448 0.23914 -0.10246
 C146 C -0.01058 0.24998 -0.11167
 C147 C -0.01540 0.26782 -0.12011
 C148 C -0.03423 0.27494 -0.11984
 C149 C -0.04786 0.26390 -0.11000
 C150 C -0.04313 0.24616 -0.10128
 C151 C 0.00907 0.24253 -0.11263
 C152 C 0.01325 0.22486 -0.12136
 C153 C 0.03206 0.21787 -0.12306
 C154 C 0.04635 0.22878 -0.11481
 C155 C 0.04233 0.24644 -0.10599
 C156 C 0.02362 0.25331 -0.10516
 H157 H -0.02063 0.22550 -0.09576
 H158 H -0.00447 0.27537 -0.12784
 H159 H 0.00179 0.21737 -0.12777
 H160 H 0.02029 0.26705 -0.09867
 H161 H -0.06228 0.26915 -0.10864
 H162 H 0.06070 0.22321 -0.11437
 C163 C 0.52341 0.24711 0.10403
 C164 C 0.50796 0.25753 0.11151
 C165 C 0.51064 0.27578 0.11918
 C166 C 0.52870 0.28367 0.11952
 C167 C 0.54404 0.27321 0.11167
 C168 C 0.54153 0.25495 0.10382
 C169 C 0.48891 0.24944 0.11114
 C170 C 0.48518 0.23194 0.12050
 C171 C 0.46689 0.22455 0.12076
 C172 C 0.45252 0.23452 0.11090
 C173 C 0.45614 0.25190 0.10120
 C174 C 0.47437 0.25939 0.10161
 H175 H 0.52124 0.23295 0.09827
 H176 H 0.49864 0.28380 0.12490
 H177 H 0.49636 0.22451 0.12820
 H178 H 0.47742 0.27276 0.09416
 H179 H 0.55796 0.27933 0.11169
 H180 H 0.43840 0.22883 0.11096
 C181 C 1.02497 0.74354 0.61072
 C182 C 1.00962 0.75378 0.61858
 C183 C 1.01208 0.77247 0.62532
 C184 C 1.02984 0.78129 0.62423
 C185 C 1.04500 0.77076 0.61588
 C186 C 1.04272 0.75200 0.60916
 C187 C 0.99076 0.74518 0.61928
 C188 C 0.98774 0.72798 0.62944
 C189 C 0.96960 0.72030 0.63078
 C190 C 0.95463 0.72969 0.62128
 C191 C 0.95754 0.74669 0.61069
 C192 C 0.97568 0.75444 0.60995
 H193 H 1.02299 0.72906 0.60566
 H194 H 0.99983 0.78021 0.63084
 H195 H 0.99936 0.72101 0.63687
 H196 H 0.97826 0.76748 0.60178
 H197 H 1.05891 0.77682 0.61500
 H198 H 0.94063 0.72377 0.62228
 C199 C 0.47921 0.74662 0.39410
 C200 C 0.49332 0.75644 0.38402
 C201 C 0.48892 0.77403 0.37488
 C202 C 0.47040 0.78165 0.37545
 C203 C 0.45650 0.77179 0.38592
 C204 C 0.46075 0.75427 0.39527
 C205 C 0.51251 0.74788 0.38255
 C206 C 0.51516 0.72940 0.37510
 C207 C 0.53326 0.72089 0.37387
 C208 C 0.54872 0.73093 0.38074
 C209 C 0.54630 0.74949 0.38833
 C210 C 0.52809 0.75797 0.38886
 H211 H 0.48274 0.73313 0.40128
 H212 H 0.49973 0.78128 0.36665
 H213 H 0.50307 0.72166 0.37022
 H214 H 0.52593 0.77235 0.39437
 H215 H 0.44221 0.77761 0.38647
 H216 H 0.56264 0.72423 0.38016
 C217 C 0.40372 -0.01608 0.26901
 H218 H 0.40440 -0.00192 0.27516
 C219 C 0.41298 -0.03180 0.27770
 H220 H 0.42076 -0.02959 0.29057
 C221 C 0.39140 -0.03638 0.24567
 H222 H 0.38254 -0.03831 0.23354
 C223 C 0.40051 -0.05240 0.25378
 H224 H 0.39887 -0.06638 0.24744
 N225 N 0.39288 -0.01870 0.25351
 C226 C 0.38043 0.03617 0.22524
 H227 H 0.36525 0.03491 0.22500
 C228 C 0.38884 0.05235 0.21728
 H229 H 0.38004 0.06344 0.21073
 C230 C 0.41025 0.02304 0.23405
 H231 H 0.41844 0.01156 0.24070
 C232 C 0.41932 0.03905 0.22612
 H233 H 0.43453 0.03990 0.22684
 Zn234 Zn 0.37718 0.00189 0.24483
 N235 N 0.39110 0.02212 0.23372
 C236 C 0.36548 0.03007 0.27123
 N237 N 0.36344 0.01141 0.26611
 C238 C 0.35267 -0.00080 0.27668
 C239 C 0.34312 0.00577 0.29291
 C240 C 0.35628 0.03719 0.28733
 C241 C 0.36899 -0.01129 0.20891
 C242 C 0.35811 -0.01781 0.19408
 C243 C 0.33046 -0.01489 0.21432
 C244 C 0.34189 -0.00829 0.22877
 N245 N 0.36083 -0.00689 0.22590
 H246 H 0.37447 0.03948 0.26302
 H247 H 0.35164 -0.01570 0.27259
 H248 H 0.33474 -0.00417 0.30127
 H249 H 0.35798 0.05214 0.29102
 H250 H 0.38406 -0.00985 0.20696
 H251 H 0.36495 -0.02159 0.18079
 H252 H 0.31541 -0.01594 0.21680
 H253 H 0.33559 -0.00430 0.24221
 C254 C 0.40850 0.05411 0.21791
 C255 C 0.41100 -0.05036 0.27036
 C256 C 0.33858 -0.01977 0.19671
 C257 C 0.34497 0.02499 0.29846
 C258 C 0.09275 1.01542 0.77165
 H259 H 0.09182 1.00103 0.77765
 C260 C 0.08393 1.03098 0.78088
 H261 H 0.07622 1.02844 0.79400
 C262 C 0.10525 1.03643 0.74811
 H263 H 0.11401 1.03868 0.73568
 C264 C 0.09665 1.05229 0.75678
 H265 H 0.09859 1.06650 0.75062
 N266 N 0.10349 1.01847 0.75580
 C267 C 0.11492 0.96529 0.72532
 H268 H 0.13015 0.96599 0.72499
 C269 C 0.10598 0.95097 0.71540
 H270 H 0.11447 0.94048 0.70768
 C271 C 0.08545 0.97831 0.73577
 H272 H 0.07758 0.98924 0.74349
 C273 C 0.07588 0.96407 0.72608
 H274 H 0.06061 0.96409 0.72641
 Zn275 Zn 0.11888 0.99812 0.74617
 N276 N 0.10464 0.97862 0.73517
 C277 C 0.13295 0.96866 0.77082
 N278 N 0.13323 0.98783 0.76654
 C279 C 0.14315 1.00020 0.77714
 C280 C 0.15363 0.99336 0.79256
 C281 C 0.14327 0.96120 0.78607
 C282 C 0.12660 1.01261 0.70999
 C283 C 0.13730 1.01983 0.69487
 C284 C 0.16507 1.01673 0.71428
 C285 C 0.15383 1.00941 0.72902
 N286 N 0.13491 1.00776 0.72671
 H287 H 0.12461 0.95911 0.76255
 H288 H 0.14290 1.01542 0.77360
 H289 H 0.16164 1.00340 0.80069
 H290 H 0.14273 0.94593 0.78936
 H291 H 0.11155 1.01100 0.70850
 H292 H 0.13036 1.02394 0.68180
 H293 H 0.18010 1.01800 0.71632
 H294 H 0.16024 1.00513 0.74227
 C295 C 0.08622 0.95033 0.71553
 C296 C 0.08632 1.04978 0.77372
 C297 C 0.15679 1.02207 0.69695
 C298 C 0.15381 0.97360 0.79716
 C299 C 0.59087 0.51370 0.27562
 H300 H 0.59280 0.49946 0.28182
 C301 C 0.58085 0.52794 0.28560
 H302 H 0.57481 0.52447 0.29938
 C303 C 0.59712 0.53576 0.25045
 H304 H 0.60385 0.53885 0.23694
 C305 C 0.58715 0.55038 0.25988
 H306 H 0.58646 0.56467 0.25354
 N307 N 0.59912 0.51797 0.25861
 C308 C 0.61364 0.46566 0.22761
 H309 H 0.62885 0.46664 0.22753
 C310 C 0.60518 0.45095 0.21781
 H311 H 0.61400 0.44044 0.21048
 C312 C 0.58374 0.47845 0.23702
 H313 H 0.57550 0.48943 0.24429
 C314 C 0.57465 0.46381 0.22745
 H315 H 0.55939 0.46359 0.22738
 Zn316 Zn 0.61603 0.49974 0.24775
 N317 N 0.60292 0.47919 0.23676
 C318 C 0.63316 0.47071 0.27111
 N319 N 0.63173 0.49001 0.26756
 C320 C 0.64024 0.50279 0.27898
 C321 C 0.65102 0.49629 0.29432
 C322 C 0.64383 0.46360 0.28625
 C323 C 0.64315 0.52588 0.23264
 C324 C 0.65324 0.53542 0.21828
 C325 C 0.63724 0.51661 0.19517
 C326 C 0.62732 0.50763 0.20990
 N327 N 0.63054 0.51215 0.22829
 H328 H 0.62572 0.46071 0.26254
 H329 H 0.63821 0.51808 0.27654
 H330 H 0.65775 0.50670 0.30315
 H331 H 0.64449 0.44820 0.28896
 H332 H 0.64519 0.52976 0.24721
 H333 H 0.66290 0.54655 0.22209
 H334 H 0.63464 0.51238 0.18074
 H335 H 0.61681 0.49728 0.20649
 C336 C 0.58545 0.45004 0.21741
 C337 C 0.57927 0.54669 0.27791
 C338 C 0.65036 0.53080 0.19921
 C339 C 0.65294 0.47643 0.29810
 C340 C 0.90268 0.47899 0.77470
 H341 H 0.90398 0.49334 0.78025
 C342 C 0.91124 0.46324 0.78407
 H343 H 0.91915 0.46561 0.79683
 C344 C 0.88956 0.45828 0.75217
 H345 H 0.88068 0.45625 0.74008
 C346 C 0.89786 0.44222 0.76103
 H347 H 0.89558 0.42806 0.75534
 N348 N 0.89183 0.47620 0.75924
 C349 C 0.88215 0.53037 0.72858
 H350 H 0.86703 0.52919 0.72731
 C351 C 0.89115 0.54643 0.72109
 H352 H 0.88289 0.55750 0.71384
 C353 C 0.91116 0.51735 0.73985
 H354 H 0.91880 0.50603 0.74736
 C355 C 0.92083 0.53324 0.73240
 H356 H 0.93591 0.53414 0.73431
 Zn357 Zn 0.87715 0.49701 0.74928
 N358 N 0.89209 0.51649 0.73816
 C359 C 0.86478 0.52669 0.77375
 N360 N 0.86280 0.50775 0.76963
 C361 C 0.85156 0.49625 0.78049
 C362 C 0.84146 0.50386 0.79595
 C363 C 0.85491 0.53487 0.78894
 C364 C 0.87011 0.48300 0.71342
 C365 C 0.85969 0.47630 0.69832
 C366 C 0.83134 0.48024 0.71738
 C367 C 0.84231 0.48702 0.73212
 N368 N 0.86136 0.48804 0.72995
 H369 H 0.87424 0.53552 0.76547
 H370 H 0.85052 0.48114 0.77719
 H371 H 0.83243 0.49457 0.80435
 H372 H 0.85689 0.54993 0.79205
 H373 H 0.88526 0.48409 0.71205
 H374 H 0.86698 0.47207 0.68540
 H375 H 0.81619 0.47951 0.71928
 H376 H 0.83558 0.49142 0.74523
 C377 C 0.91066 0.54822 0.72330
 C378 C 0.90845 0.44451 0.77749
 C379 C 0.84005 0.47479 0.70021
 C380 C 0.84301 0.52346 0.80025
 C381 C 0.26778 0.41058 -0.02030
 H382 H 0.27436 0.41101 -0.00655
 C383 C 0.27622 0.41975 -0.03594
 H384 H 0.28930 0.42723 -0.03411
 C385 C 0.24370 0.39875 -0.03971
 H386 H 0.23142 0.39005 -0.04134
 C387 C 0.25155 0.40777 -0.05563
 H388 H 0.24490 0.40622 -0.06924
 N389 N 0.25209 0.39993 -0.02255
 C390 C 0.22621 0.38599 0.03209
 H391 H 0.22597 0.37055 0.03027
 C392 C 0.21908 0.39405 0.04870
 H393 H 0.21316 0.38472 0.05958
 C394 C 0.23427 0.41683 0.01996
 H395 H 0.24034 0.42554 0.00870
 C396 C 0.22712 0.42558 0.03643
 H397 H 0.22780 0.44106 0.03785
 Zn398 Zn 0.24411 0.38357 -0.00244
 N399 N 0.23396 0.39732 0.01833
 C400 C 0.27159 0.37102 0.02379
 N401 N 0.26558 0.36905 0.00569
 C402 C 0.27547 0.35798 -0.00692
 C403 C 0.29192 0.34807 -0.00135
 C404 C 0.28795 0.36150 0.02989
 C405 C 0.20782 0.37626 -0.01421
 C406 C 0.19271 0.36571 -0.02062
 C407 C 0.21263 0.33703 -0.01971
 C408 C 0.22736 0.34815 -0.01317
 N409 N 0.22479 0.36746 -0.01087
 H410 H 0.26396 0.38029 0.03350
 H411 H 0.27069 0.35705 -0.02138
 H412 H 0.29973 0.33946 -0.01158
 H413 H 0.29240 0.36320 0.04440
 H414 H 0.20612 0.39161 -0.01208
 H415 H 0.17945 0.37308 -0.02361
 H416 H 0.21489 0.32169 -0.02156
 H417 H 0.24080 0.34132 -0.01001
 C418 C 0.21975 0.41403 0.05117
 C419 C 0.26841 0.41785 -0.05402
 C420 C 0.19506 0.34585 -0.02359
 C421 C 0.29840 0.34991 0.01726
 C422 C 0.77151 0.08511 1.01788
 H423 H 0.77843 0.08423 1.00414
 C424 C 0.77986 0.07630 1.03374
 H425 H 0.79322 0.06863 1.03208
 C426 C 0.74662 0.09778 1.03702
 H427 H 0.73405 0.10669 1.03847
 C428 C 0.75438 0.08914 1.05316
 H429 H 0.74736 0.09117 1.06674
 N430 N 0.75545 0.09602 1.01988
 C431 C 0.73027 0.10934 0.96511
 H432 H 0.72978 0.12485 0.96653
 C433 C 0.72311 0.10100 0.94898
 H434 H 0.71693 0.11022 0.93809
 C435 C 0.73870 0.07861 0.97788
 H436 H 0.74483 0.07005 0.98924
 C437 C 0.73158 0.06959 0.96189
 H438 H 0.73240 0.05404 0.96094
 Zn439 Zn 0.74761 0.11213 0.99945
 N440 N 0.73812 0.09818 0.97900
 C441 C 0.77531 0.12431 0.97290
 N442 N 0.76898 0.12606 0.99110
 C443 C 0.77843 0.13667 1.00382
 C444 C 0.79474 0.14636 0.99828
 C445 C 0.79155 0.13367 0.96679
 C446 C 0.71091 0.12076 1.01135
 C447 C 0.69563 0.13192 1.01782
 C448 C 0.71530 0.15992 1.01627
 C449 C 0.73022 0.14822 1.00971
 N450 N 0.72786 0.12895 1.00770
 H451 H 0.76796 0.11544 0.96309
 H452 H 0.77339 0.13742 1.01835
 H453 H 0.80218 0.15460 1.00862
 H454 H 0.79622 0.13224 0.95219
 H455 H 0.70938 0.10543 1.00947
 H456 H 0.68239 0.12503 1.02108
 H457 H 0.71741 0.17522 1.01789
 H458 H 0.74365 0.15455 1.00633
 C459 C 0.72391 0.08091 0.94707
 C460 C 0.77158 0.07884 1.05178
 C461 C 0.69776 0.15175 1.02051
 C462 C 0.80152 0.14484 0.97954
 C463 C 0.27732 0.59430 0.51743
 H464 H 0.28437 0.59374 0.50374
 C465 C 0.28569 0.58541 0.53325
 H466 H 0.29920 0.57804 0.53159
 C467 C 0.25194 0.60605 0.53649
 H468 H 0.23913 0.61459 0.53792
 C469 C 0.25968 0.59728 0.55257
 H470 H 0.25239 0.59882 0.56607
 N471 N 0.26097 0.60473 0.51941
 C472 C 0.23578 0.61618 0.46430
 H473 H 0.23510 0.63173 0.46513
 C474 C 0.22889 0.60711 0.44844
 H475 H 0.22277 0.61579 0.43711
 C476 C 0.24435 0.58605 0.47834
 H477 H 0.25039 0.57800 0.49009
 C478 C 0.23742 0.57631 0.46270
 H479 H 0.23830 0.56072 0.46239
 Zn480 Zn 0.25253 0.62035 0.49886
 N481 N 0.24359 0.60565 0.47868
 C482 C 0.27989 0.63290 0.47220
 N483 N 0.27333 0.63505 0.49028
 C484 C 0.28225 0.64651 0.50268
 C485 C 0.29824 0.65663 0.49691
 C486 C 0.29583 0.64264 0.46589
 C487 C 0.21557 0.62728 0.51063
 C488 C 0.19982 0.63762 0.51728
 C489 C 0.21811 0.66661 0.51581
 C490 C 0.23352 0.65569 0.50907
 N491 N 0.23208 0.63632 0.50698
 H492 H 0.27303 0.62333 0.46267
 H493 H 0.27708 0.64757 0.51713
 H494 H 0.30529 0.66553 0.50700
 H495 H 0.30071 0.64081 0.45140
 H496 H 0.21478 0.61188 0.50870
 H497 H 0.18699 0.63003 0.52061
 H498 H 0.21950 0.68199 0.51757
 H499 H 0.24662 0.66270 0.50570
 C500 C 0.22980 0.58694 0.44740
 C501 C 0.27709 0.58733 0.55122
 C502 C 0.20103 0.65752 0.52014
 C503 C 0.30528 0.65464 0.47831
 C504 C 0.77614 0.90628 0.48350
 H505 H 0.78266 0.90460 0.49717
 C506 C 0.78531 0.91668 0.46916
 H507 H 0.79878 0.92303 0.47202
 C508 C 0.75099 0.89969 0.46296
 H509 H 0.73770 0.89288 0.46051
 C510 C 0.75965 0.91003 0.44822
 H511 H 0.75303 0.91078 0.43447
 N512 N 0.75964 0.89741 0.47998
 C513 C 0.73635 0.88076 0.53504
 H514 H 0.73894 0.86537 0.53424
 C515 C 0.72902 0.88868 0.55167
 H516 H 0.72579 0.87922 0.56355
 C517 C 0.73710 0.91160 0.52020
 H518 H 0.74036 0.92039 0.50784
 C519 C 0.72969 0.92018 0.53662
 H520 H 0.72740 0.93565 0.53687
 Zn521 Zn 0.75025 0.87948 0.49823
 N522 N 0.74016 0.89220 0.51973
 C523 C 0.78185 0.87161 0.52002
 N524 N 0.77068 0.86367 0.50683
 C525 C 0.77414 0.84546 0.50056
 C526 C 0.78969 0.83474 0.50727
 C527 C 0.79741 0.86144 0.52712
 C528 C 0.73475 0.85486 0.47083
 C529 C 0.72041 0.84497 0.46193
 C530 C 0.69902 0.85464 0.48712
 C531 C 0.71366 0.86450 0.49539
 N532 N 0.73113 0.86451 0.48719
 H533 H 0.77858 0.88591 0.52519
 H534 H 0.76501 0.83924 0.49028
 H535 H 0.79247 0.82043 0.50184
 H536 H 0.80592 0.86804 0.53777
 H537 H 0.74865 0.85535 0.46434
 H538 H 0.72346 0.83794 0.44860
 H539 H 0.68532 0.85473 0.49408
 H540 H 0.71087 0.87238 0.50823
 C541 C 0.72562 0.90865 0.55265
 C542 C 0.77736 0.91812 0.45105
 C543 C 0.70217 0.84492 0.46999
 C544 C 0.80165 0.84281 0.52062
 C545 C -0.02180 0.26571 0.41434
 H546 H -0.00803 0.26668 0.42065
 C547 C -0.03734 0.27549 0.42242
 H548 H -0.03540 0.28399 0.43496
 C549 C -0.04077 0.25451 0.38954
 H550 H -0.04193 0.24685 0.37639
 C551 C -0.05662 0.26386 0.39718
 H552 H -0.06998 0.26272 0.39007
 N553 N -0.02379 0.25560 0.39813
 C554 C 0.01312 0.21797 0.41160
 H555 H 0.00012 0.21047 0.40987
 C556 C 0.02768 0.20914 0.42189
 H557 H 0.02559 0.19497 0.42809
 C558 C 0.03182 0.24528 0.40543
 H559 H 0.03345 0.25933 0.39892
 C560 C 0.04676 0.23697 0.41560
 H561 H 0.05986 0.24462 0.41643
 Zn562 Zn -0.00247 0.24496 0.38535
 N563 N 0.01566 0.23542 0.40299
 C564 C 0.02537 0.26148 0.36120
 N565 N 0.00842 0.26465 0.37000
 C566 C -0.00065 0.28208 0.36868
 C567 C 0.00751 0.29727 0.35859
 C568 C 0.03415 0.27636 0.35112
 C569 C -0.02241 0.21146 0.37815
 C570 C -0.02908 0.19616 0.36775
 C571 C -0.01105 0.20747 0.34068
 C572 C -0.00479 0.22268 0.35161
 N573 N -0.01042 0.22433 0.37005
 H574 H 0.03236 0.24752 0.36251
 H575 H -0.01418 0.28432 0.37560
 H576 H -0.00007 0.31095 0.35767
 H577 H 0.04797 0.27370 0.34486
 H578 H -0.02721 0.21336 0.39263
 H579 H -0.03895 0.18641 0.37444
 H580 H -0.00617 0.20624 0.32613
 H581 H 0.00456 0.23311 0.34530
 C582 C 0.04501 0.21837 0.42345
 C583 C -0.05499 0.27488 0.41361
 C584 C -0.02337 0.19392 0.34876
 C585 C 0.02531 0.29466 0.34989
 C586 C 1.01638 0.77528 0.08914
 H587 H 1.00193 0.78055 0.09010
 C588 C 1.02972 0.78567 0.07867
 H589 H 1.02540 0.79881 0.07134
 C590 C 1.03979 0.75224 0.09833
 H591 H 1.04385 0.73960 0.10652
 C592 C 1.05351 0.76204 0.08789
 H593 H 1.06799 0.75676 0.08816
 N594 N 1.02166 0.75904 0.09891
 C595 C 0.97225 0.72561 0.11384
 H596 H 0.97515 0.72376 0.12879
 C597 C 0.95624 0.71761 0.10626
 H598 H 0.94696 0.70938 0.11545
 C599 C 0.98093 0.73873 0.08382
 H600 H 0.99057 0.74712 0.07523
 C601 C 0.96499 0.73088 0.07559
 H602 H 0.96235 0.73342 0.06066
 Zn603 Zn 1.00392 0.74772 0.11573
 N604 N 0.98398 0.73629 0.10273
 C605 C 0.97497 0.77126 0.13171
 N606 N 0.99389 0.76757 0.13136
 C607 C 1.00588 0.77849 0.14135
 C608 C 0.99888 0.79356 0.15257
 C609 C 0.96738 0.78610 0.14273
 C610 C 1.02141 0.71172 0.12144
 C611 C 1.02953 0.69631 0.13155
 C612 C 1.02547 0.71454 0.16030
 C613 C 1.01735 0.72960 0.14964
 N614 N 1.01563 0.72800 0.13054
 H615 H 0.96567 0.76288 0.12325
 H616 H 1.02090 0.77548 0.14058
 H617 H 1.00859 0.80195 0.16061
 H618 H 0.95230 0.78892 0.14260
 H619 H 1.01963 0.71074 0.10627
 H620 H 1.03424 0.68357 0.12400
 H621 H 1.02654 0.71598 0.17552
 H622 H 1.01226 0.74243 0.15670
 C623 C 0.95220 0.72053 0.08699
 C624 C 1.04862 0.77919 0.07819
 C625 C 1.03166 0.69761 0.15125
 C626 C 0.97936 0.79746 0.15340
 C627 C 0.51481 0.27570 0.58899
 H628 H 0.50048 0.28134 0.58955
 C629 C 0.52870 0.28577 0.57897
 H630 H 0.52492 0.29904 0.57156
 C631 C 0.53737 0.25201 0.59874
 H632 H 0.54087 0.23925 0.60699
 C633 C 0.55163 0.26150 0.58878
 H634 H 0.56596 0.25584 0.58948
 N635 N 0.51941 0.25930 0.59883
 C636 C 0.46852 0.22764 0.61244
 H637 H 0.47074 0.22598 0.62753
 C638 C 0.45256 0.22008 0.60432
 H639 H 0.44260 0.21240 0.61325
 C640 C 0.47891 0.23977 0.58256
 H641 H 0.48921 0.24758 0.57423
 C642 C 0.46309 0.23227 0.57379
 H643 H 0.46121 0.23449 0.55870
 Zn644 Zn 0.50102 0.24841 0.61517
 N645 N 0.48107 0.23764 0.60163
 C646 C 0.47245 0.27282 0.63048
 N647 N 0.49124 0.26846 0.63071
 C648 C 0.50330 0.27895 0.64106
 C649 C 0.49647 0.29424 0.65209
 C650 C 0.46504 0.28790 0.64130
 C651 C 0.51703 0.21181 0.62072
 C652 C 0.52492 0.19614 0.63061
 C653 C 0.52215 0.21442 0.65946
 C654 C 0.51418 0.22973 0.64902
 N655 N 0.51198 0.22824 0.62996
 H656 H 0.46313 0.26484 0.62169
 H657 H 0.51824 0.27546 0.64069
 H658 H 0.50622 0.30229 0.66043
 H659 H 0.45007 0.29125 0.64070
 H660 H 0.51494 0.21095 0.60559
 H661 H 0.52908 0.18329 0.62295
 H662 H 0.52376 0.21580 0.67462
 H663 H 0.50970 0.24272 0.65619
 C664 C 0.44950 0.22264 0.58483
 C665 C 0.54745 0.27881 0.57903
 C666 C 0.52763 0.19735 0.65023
 C667 C 0.47707 0.29881 0.65235
 C668 C 0.48266 0.77695 0.91363
 H669 H 0.49674 0.78229 0.91142
 C670 C 0.46939 0.78790 0.92395
 H671 H 0.47349 0.80143 0.92996
 C672 C 0.45978 0.75355 0.90745
 H673 H 0.45573 0.74060 0.90048
 C674 C 0.44619 0.76386 0.91784
 H675 H 0.43193 0.75859 0.91872
 N676 N 0.47763 0.76019 0.90547
 C677 C 0.51998 0.71674 0.89748
 H678 H 0.51209 0.70924 0.88703
 C679 C 0.53581 0.70765 0.90528
 H680 H 0.53930 0.69300 0.90121
 C681 C 0.52547 0.74498 0.91484
 H682 H 0.52165 0.75971 0.91814
 C683 C 0.54168 0.73649 0.92280
 H684 H 0.55016 0.74486 0.93216
 Zn685 Zn 0.49514 0.74774 0.88876
 N686 N 0.51512 0.73514 0.90221
 C687 C 0.52465 0.76725 0.86995
 N688 N 0.50564 0.76686 0.87264
 C689 C 0.49405 0.78039 0.86452
 C690 C 0.50156 0.79523 0.85335
 C691 C 0.53275 0.78181 0.85892
 C692 C 0.47531 0.71357 0.88300
 C693 C 0.46681 0.69920 0.87269
 C694 C 0.47307 0.71747 0.84397
 C695 C 0.48156 0.73148 0.85485
 N696 N 0.48257 0.72929 0.87401
 H697 H 0.53362 0.75633 0.87647
 H698 H 0.47897 0.77974 0.86690
 H699 H 0.49211 0.80585 0.84696
 H700 H 0.54795 0.78208 0.85735
 H701 H 0.47655 0.71200 0.89823
 H702 H 0.46164 0.68659 0.88014
 H703 H 0.47230 0.71956 0.82876
 H704 H 0.48749 0.74399 0.84793
 C705 C 0.54723 0.71766 0.91774
 C706 C 0.45083 0.78143 0.92597
 C707 C 0.46566 0.70098 0.85288
 C708 C 0.52118 0.79614 0.85052
 C709 C 0.45494 -0.16742 0.34297
 C710 C 0.44329 -0.18358 0.34356
 C711 C 0.44838 -0.20000 0.35408
 C712 C 0.46523 -0.20074 0.36433
 C713 C 0.47702 -0.18469 0.36365
 C714 C 0.47190 -0.16818 0.35311
 C715 C 0.44917 -0.14998 0.33189
 N716 N 0.46005 -0.13408 0.33112
 N717 N 0.45457 -0.11844 0.32126
 C718 C 0.43799 -0.11807 0.31178
 N719 N 0.42720 -0.13399 0.31255
 N720 N 0.43266 -0.14958 0.32237
 C721 C 0.43152 -0.10070 0.30097
 C722 C 0.41399 -0.10062 0.29191
 C723 C 0.40752 -0.08435 0.28194
 C724 C 0.41843 -0.06770 0.28065
 C725 C 0.43600 -0.06771 0.28967
 C726 C 0.44250 -0.08406 0.29972
 H727 H 0.43017 -0.18360 0.33587
 H728 H 0.43918 -0.21226 0.35399
 H729 H 0.49005 -0.18482 0.37149
 H730 H 0.48120 -0.15600 0.35297
 H731 H 0.40507 -0.11309 0.29263
 H732 H 0.39373 -0.08471 0.27556
 H733 H 0.44478 -0.05513 0.28885
 H734 H 0.45609 -0.08364 0.30652
 C735 C 0.94996 0.32687 0.85063
 C736 C 0.93686 0.31231 0.85405
 C737 C 0.94202 0.29542 0.86379
 C738 C 0.96055 0.29238 0.87051
 C739 C 0.97366 0.30715 0.86700
 C740 C 0.96841 0.32413 0.85728
 C741 C 0.94426 0.34464 0.84002
 N742 N 0.95643 0.35930 0.83710
 N743 N 0.95113 0.37514 0.82743
 C744 C 0.93346 0.37693 0.82028
 N745 N 0.92135 0.36227 0.82324
 N746 N 0.92662 0.34650 0.83289
 C747 C 0.92736 0.39437 0.80937
 C748 C 0.90939 0.39521 0.80118
 C749 C 0.90342 0.41144 0.79085
 C750 C 0.91523 0.42731 0.78840
 C751 C 0.93317 0.42662 0.79667
 C752 C 0.93921 0.41027 0.80700
 H753 H 0.92254 0.31381 0.84900
 H754 H 0.93146 0.28445 0.86514
 H755 H 0.98789 0.30610 0.87231
 H756 H 0.97885 0.33512 0.85500
 H757 H 0.89983 0.38332 0.80274
 H758 H 0.88937 0.41167 0.78500
 H759 H 0.94259 0.43862 0.79495
 H760 H 0.95314 0.41011 0.81313
 C761 C 0.04626 1.16660 0.84664
 C762 C 0.02827 1.16903 0.85494
 C763 C 0.02350 1.18583 0.86488
 C764 C 0.03666 1.20067 0.86695
 C765 C 0.05467 1.19799 0.85845
 C766 C 0.05934 1.18131 0.84852
 C767 C 0.05157 1.14898 0.83596
 N768 N 0.06884 1.14738 0.82755
 N769 N 0.07385 1.13173 0.81791
 C770 C 0.06183 1.11691 0.81623
 N771 N 0.04451 1.11843 0.82464
 N772 N 0.03947 1.13416 0.83431
 C773 C 0.06772 1.09958 0.80537
 C774 C 0.05594 1.08360 0.80397
 C775 C 0.06187 1.06735 0.79370
 C776 C 0.07960 1.06686 0.78454
 C777 C 0.09133 1.08281 0.78603
 C778 C 0.08547 1.09893 0.79627
 H779 H 0.01786 1.15793 0.85384
 H780 H 0.00966 1.18665 0.87150
 H781 H 0.06514 1.20909 0.85861
 H782 H 0.07329 1.18008 0.84215
 H783 H 0.04218 1.08361 0.81082
 H784 H 0.05252 1.05527 0.79275
 H785 H 0.10524 1.08274 0.77951
 H786 H 0.09498 1.11089 0.79707
 C787 C 0.54186 0.66554 0.34776
 C788 C 0.55096 0.66980 0.36476
 C789 C 0.54810 0.68770 0.37332
 C790 C 0.53601 0.70169 0.36512
 C791 C 0.52672 0.69735 0.34828
 C792 C 0.52964 0.67950 0.33968
 C793 C 0.54547 0.64688 0.33822
 N794 N 0.53845 0.64364 0.32075
 N795 N 0.54228 0.62718 0.31186
 C796 C 0.55323 0.61321 0.32008
 N797 N 0.56011 0.61636 0.33764
 N798 N 0.55632 0.63284 0.34651
 C799 C 0.55837 0.59534 0.30976
 C800 C 0.56905 0.58056 0.31862
 C801 C 0.57521 0.56442 0.30845
 C802 C 0.57088 0.56271 0.28916
 C803 C 0.55967 0.57714 0.28046
 C804 C 0.55343 0.59325 0.29065
 H805 H 0.56046 0.65939 0.37138
 H806 H 0.55528 0.69057 0.38641
 H807 H 0.51747 0.70792 0.34154
 H808 H 0.52241 0.67674 0.32660
 H809 H 0.57306 0.58165 0.33332
 H810 H 0.58401 0.55366 0.31550
 H811 H 0.55594 0.57610 0.26567
 H812 H 0.54515 0.60429 0.28339
 C813 C 0.53903 0.33796 0.14604
 C814 C 0.54734 0.33352 0.12836
 C815 C 0.54371 0.31608 0.11961
 C816 C 0.53167 0.30267 0.12829
 C817 C 0.52296 0.30730 0.14570
 C818 C 0.52662 0.32474 0.15450
 C819 C 0.54393 0.35592 0.15585
 N820 N 0.53659 0.36006 0.17327
 N821 N 0.54180 0.37572 0.18243
 C822 C 0.55457 0.38788 0.17456
 N823 N 0.56174 0.38383 0.15708
 N824 N 0.55653 0.36820 0.14793
 C825 C 0.56135 0.40468 0.18512
 C826 C 0.57597 0.41588 0.17749
 C827 C 0.58344 0.43082 0.18785
 C828 C 0.57644 0.43502 0.20608
 C829 C 0.56136 0.42435 0.21351
 C830 C 0.55393 0.40925 0.20316
 H831 H 0.55688 0.34339 0.12136
 H832 H 0.55039 0.31304 0.10604
 H833 H 0.51374 0.29717 0.15280
 H834 H 0.51998 0.32768 0.16809
 H835 H 0.58196 0.41289 0.16361
 H836 H 0.59484 0.43904 0.18165
 H837 H 0.55574 0.42727 0.22755
 H838 H 0.54262 0.40097 0.20943
 C839 C 0.03940 0.83663 0.64739
 C840 C 0.02486 0.82512 0.65462
 C841 C 0.02135 0.80718 0.64673
 C842 C 0.03250 0.80005 0.63149
 C843 C 0.04672 0.81204 0.62401
 C844 C 0.05005 0.83000 0.63180
 C845 C 0.04404 0.85509 0.65643
 N846 N 0.05740 0.86658 0.64862
 N847 N 0.06247 0.88259 0.65720
 C848 C 0.05441 0.88784 0.67398
 N849 N 0.04087 0.87647 0.68170
 N850 N 0.03577 0.86044 0.67310
 C851 C 0.06116 0.90495 0.68405
 C852 C 0.05400 0.90982 0.70211
 C853 C 0.06168 0.92499 0.71216
 C854 C 0.07671 0.93549 0.70438
 C855 C 0.08334 0.93110 0.68606
 C856 C 0.07566 0.91605 0.67602
 H857 H 0.01637 0.82980 0.66665
 H858 H 0.01055 0.79856 0.65344
 H859 H 0.05510 0.80793 0.61174
 H860 H 0.06123 0.83858 0.62568
 H861 H 0.04280 0.90161 0.70869
 H862 H 0.05634 0.92805 0.72629
 H863 H 0.09467 0.93920 0.67957
 H864 H 0.08143 0.91287 0.66209
 C865 C 0.95798 0.66923 0.66400
 C866 C 0.97396 0.66979 0.65198
 C867 C 0.97799 0.68648 0.64140
 C868 C 0.96601 0.70283 0.64251
 C869 C 0.95026 0.70237 0.65476
 C870 C 0.94632 0.68581 0.66541
 C871 C 0.95297 0.65140 0.67460
 N872 N 0.93811 0.65154 0.68693
 N873 N 0.93283 0.63545 0.69579
 C874 C 0.94216 0.61847 0.69274
 N875 N 0.95719 0.61833 0.68056
 N876 N 0.96249 0.63447 0.67168
 C877 C 0.93528 0.60045 0.70177
 C878 C 0.94431 0.58252 0.69846
 C879 C 0.93672 0.56549 0.70594
 C880 C 0.91990 0.56610 0.71668
 C881 C 0.91129 0.58404 0.72052
 C882 C 0.91888 0.60099 0.71320
 H883 H 0.98325 0.65730 0.65059
 H884 H 0.99020 0.68646 0.63201
 H885 H 0.94096 0.71487 0.65613
 H886 H 0.93392 0.68597 0.67454
 H887 H 0.95700 0.58160 0.68978
 H888 H 0.94361 0.55181 0.70278
 H889 H 0.89850 0.58495 0.72905
 H890 H 0.91160 0.61449 0.71621
 C891 C 0.45373 0.17345 0.15332
 C892 C 0.47016 0.17396 0.14194
 C893 C 0.47456 0.19057 0.13142
 C894 C 0.46252 0.20691 0.13195
 C895 C 0.44619 0.20642 0.14340
 C896 C 0.44187 0.18993 0.15398
 C897 C 0.44868 0.15586 0.16428
 N898 N 0.43366 0.15619 0.17640
 N899 N 0.42858 0.14037 0.18584
 C900 C 0.43829 0.12346 0.18360
 N901 N 0.45343 0.12312 0.17157
 N902 N 0.45854 0.13900 0.16212
 C903 C 0.43183 0.10573 0.19348
 C904 C 0.44071 0.08771 0.19026
 C905 C 0.43354 0.07091 0.19864
 C906 C 0.41732 0.07183 0.21028
 C907 C 0.40890 0.08990 0.21401
 C908 C 0.41605 0.10662 0.20574
 H909 H 0.47961 0.16153 0.14112
 H910 H 0.48720 0.19055 0.12263
 H911 H 0.43682 0.21891 0.14433
 H912 H 0.42911 0.19010 0.16260
 H913 H 0.45292 0.08652 0.18093
 H914 H 0.44027 0.05715 0.19549
 H915 H 0.39659 0.09108 0.22322
 H916 H 0.40894 0.12022 0.20872
 C917 C 0.34179 0.45538 -0.17036
 C918 C 0.34450 0.44156 -0.18451
 C919 C 0.35479 0.44577 -0.20097
 C920 C 0.36278 0.46407 -0.20398
 C921 C 0.35996 0.47794 -0.18965
 C922 C 0.34969 0.47361 -0.17308
 C923 C 0.33066 0.45062 -0.15301
 N924 N 0.32884 0.46318 -0.13844
 N925 N 0.31884 0.45862 -0.12291
 C926 C 0.31021 0.44134 -0.12136
 N927 N 0.31203 0.42887 -0.13595
 N928 N 0.32202 0.43340 -0.15141
 C929 C 0.29916 0.43592 -0.10415
 C930 C 0.28965 0.41836 -0.10352
 C931 C 0.27956 0.41276 -0.08735
 C932 C 0.27862 0.42456 -0.07134
 C933 C 0.28804 0.44219 -0.07190
 C934 C 0.29816 0.44786 -0.08819
 H935 H 0.33851 0.42739 -0.18301
 H936 H 0.35560 0.43475 -0.21165
 H937 H 0.36619 0.49200 -0.19074
 H938 H 0.34796 0.48458 -0.16239
 H939 H 0.29011 0.40875 -0.11549
 H940 H 0.27282 0.39890 -0.08726
 H941 H 0.28751 0.45162 -0.05979
 H942 H 0.30532 0.46149 -0.08820
 C943 C 0.84730 0.95718 0.33351
 C944 C 0.84111 0.97228 0.32153
 C945 C 0.85019 0.97582 0.30414
 C946 C 0.86565 0.96418 0.29802
 C947 C 0.87183 0.94913 0.31029
 C948 C 0.86287 0.94578 0.32775
 C949 C 0.83741 0.95307 0.35174
 N950 N 0.84507 0.94052 0.36458
 N951 N 0.83599 0.93634 0.38072
 C952 C 0.81882 0.94447 0.38471
 N953 N 0.81118 0.95710 0.37190
 N954 N 0.82031 0.96134 0.35578
 C955 C 0.80844 0.93907 0.40233
 C956 C 0.78930 0.94428 0.40489
 C957 C 0.77926 0.93793 0.42094
 C958 C 0.78819 0.92641 0.43484
 C959 C 0.80746 0.92172 0.43255
 C960 C 0.81744 0.92793 0.41648
 H961 H 0.82911 0.98132 0.32552
 H962 H 0.84434 0.98718 0.29520
 H963 H 0.88406 0.94020 0.30688
 H964 H 0.86811 0.93409 0.33670
 H965 H 0.78194 0.95287 0.39427
 H966 H 0.76446 0.94188 0.42240
 H967 H 0.81468 0.91263 0.44287
 H968 H 0.83217 0.92369 0.41502
 C969 C 0.84318 0.04373 1.16898
 C970 C 0.84543 0.05791 1.18271
 C971 C 0.85537 0.05385 1.19929
 C972 C 0.86341 0.03536 1.20282
 C973 C 0.86106 0.02116 1.18889
 C974 C 0.85117 0.02533 1.17223
 C975 C 0.83242 0.04827 1.15151
 N976 N 0.83115 0.03527 1.13736
 N977 N 0.82144 0.03955 1.12173
 C978 C 0.81255 0.05698 1.11963
 N979 N 0.81383 0.06992 1.13380
 N980 N 0.82354 0.06566 1.14937
 C981 C 0.80176 0.06204 1.10231
 C982 C 0.79179 0.07972 1.10115
 C983 C 0.78189 0.08491 1.08486
 C984 C 0.78162 0.07258 1.06924
 C985 C 0.79153 0.05484 1.07033
 C986 C 0.80145 0.04958 1.08674
 H987 H 0.83936 0.07224 1.18078
 H988 H 0.85585 0.06517 1.20963
 H989 H 0.86740 0.00692 1.19036
 H990 H 0.84980 0.01408 1.16188
 H991 H 0.79172 0.08971 1.11280
 H992 H 0.77476 0.09886 1.08436
 H993 H 0.79153 0.04502 1.05853
 H994 H 0.80898 0.03585 1.08716
 C995 C 0.34473 0.54775 0.66957
 C996 C 0.34288 0.55966 0.68548
 C997 C 0.35244 0.55514 0.70216
 C998 C 0.36415 0.53861 0.70341
 C999 C 0.36595 0.52657 0.68759
 C1000 C 0.35636 0.53111 0.67082
 C1001 C 0.33457 0.55288 0.65189
 N1002 N 0.33590 0.54158 0.63631
 N1003 N 0.32678 0.54648 0.62046
 C1004 C 0.31596 0.56287 0.61957
 N1005 N 0.31464 0.57408 0.63516
 N1006 N 0.32372 0.56920 0.65095
 C1007 C 0.30590 0.56868 0.60201
 C1008 C 0.29554 0.58616 0.60137
 C1009 C 0.28620 0.59202 0.58495
 C1010 C 0.28682 0.58053 0.56869
 C1011 C 0.29717 0.56302 0.56924
 C1012 C 0.30660 0.55714 0.58576
 H1013 H 0.33398 0.57253 0.68511
 H1014 H 0.35045 0.56449 0.71422
 H1015 H 0.37497 0.51379 0.68811
 H1016 H 0.35812 0.52163 0.65883
 H1017 H 0.29475 0.59551 0.61353
 H1018 H 0.27875 0.60580 0.58489
 H1019 H 0.29785 0.55382 0.55697
 H1020 H 0.31444 0.54358 0.58578
 C1021 C 0.16603 0.54064 0.33235
 C1022 C 0.15363 0.52508 0.33262
 C1023 C 0.14295 0.52104 0.31664
 C1024 C 0.14436 0.53259 0.30017
 C1025 C 0.15683 0.54804 0.29989
 C1026 C 0.16755 0.55199 0.31574
 C1027 C 0.17713 0.54540 0.34927
 N1028 N 0.19013 0.55947 0.34821
 N1029 N 0.19964 0.56443 0.36346
 C1030 C 0.19662 0.55554 0.38047
 N1031 N 0.18374 0.54131 0.38153
 N1032 N 0.17421 0.53632 0.36623
 C1033 C 0.20645 0.56211 0.39757
 C1034 C 0.20264 0.55402 0.41560
 C1035 C 0.21079 0.56156 0.43183
 C1036 C 0.22277 0.57738 0.43030
 C1037 C 0.22717 0.58491 0.41224
 C1038 C 0.21915 0.57736 0.39609
 H1039 H 0.15213 0.51605 0.34517
 H1040 H 0.13339 0.50907 0.31724
 H1041 H 0.15843 0.55699 0.28728
 H1042 H 0.17695 0.56408 0.31499
 H1043 H 0.19298 0.54222 0.41725
 H1044 H 0.20713 0.55554 0.44561
 H1045 H 0.23662 0.59691 0.41064
 H1046 H 0.22258 0.58385 0.38245
 C1047 C 0.66024 0.03903 0.83007
 C1048 C 0.65162 0.02116 0.82805
 C1049 C 0.64156 0.01713 0.81165
 C1050 C 0.63958 0.03101 0.79688
 C1051 C 0.64822 0.04896 0.79922
 C1052 C 0.65840 0.05283 0.81545
 C1053 C 0.67111 0.04347 0.84722
 N1054 N 0.68205 0.05928 0.84742
 N1055 N 0.69152 0.06374 0.86285
 C1056 C 0.69047 0.05263 0.87881
 N1057 N 0.67960 0.03672 0.87863
 N1058 N 0.67015 0.03220 0.86313
 C1059 C 0.70037 0.05841 0.89617
 C1060 C 0.69713 0.04911 0.91374
 C1061 C 0.70530 0.05592 0.93029
 C1062 C 0.71681 0.07216 0.92954
 C1063 C 0.72070 0.08086 0.91186
 C1064 C 0.71259 0.07410 0.89541
 H1065 H 0.65269 0.01023 0.83911
 H1066 H 0.63481 0.00333 0.81103
 H1067 H 0.64799 0.05993 0.78817
 H1068 H 0.66491 0.06675 0.81648
 H1069 H 0.68784 0.03695 0.91482
 H1070 H 0.70203 0.04897 0.94375
 H1071 H 0.72984 0.09315 0.91079
 H1072 H 0.71564 0.08147 0.88212
 C1073 C 0.66053 0.94963 0.67209
 C1074 C 0.66245 0.93762 0.68821
 C1075 C 0.65232 0.94162 0.70485
 C1076 C 0.64012 0.95779 0.70584
 C1077 C 0.63823 0.96988 0.68979
 C1078 C 0.64827 0.96579 0.67305
 C1079 C 0.67122 0.94513 0.65443
 N1080 N 0.66746 0.95465 0.63788
 N1081 N 0.67683 0.95018 0.62197
 C1082 C 0.69041 0.93606 0.62197
 N1083 N 0.69425 0.92668 0.63854
 N1084 N 0.68486 0.93110 0.65441
 C1085 C 0.70038 0.93039 0.60421
 C1086 C 0.71526 0.91670 0.60479
 C1087 C 0.72380 0.91016 0.58808
 C1088 C 0.71767 0.91709 0.57034
 C1089 C 0.70328 0.93132 0.56972
 C1090 C 0.69471 0.93790 0.58650
 H1091 H 0.67174 0.92504 0.68800
 H1092 H 0.65424 0.93220 0.71708
 H1093 H 0.62883 0.98238 0.69013
 H1094 H 0.64646 0.97533 0.66089
 H1095 H 0.72016 0.91075 0.61817
 H1096 H 0.73513 0.89948 0.58904
 H1097 H 0.69817 0.93684 0.55626
 H1098 H 0.68331 0.94849 0.58554
 C1099 C 0.16026 0.45352 0.17359
 C1100 C 0.14817 0.46974 0.17534
 C1101 C 0.13861 0.47337 0.19246
 C1102 C 0.14085 0.46079 0.20810
 C1103 C 0.15289 0.44458 0.20632
 C1104 C 0.16251 0.44101 0.18930
 C1105 C 0.17042 0.44942 0.15554
 N1106 N 0.18323 0.43465 0.15459
 N1107 N 0.19206 0.43049 0.13836
 C1108 C 0.18851 0.44092 0.12232
 N1109 N 0.17579 0.45582 0.12325
 N1110 N 0.16695 0.46000 0.13954
 C1111 C 0.19773 0.43542 0.10413
 C1112 C 0.19323 0.44503 0.08701
 C1113 C 0.20090 0.43859 0.06975
 C1114 C 0.21308 0.42238 0.06934
 C1115 C 0.21815 0.41331 0.08650
 C1116 C 0.21060 0.41975 0.10367
 H1117 H 0.14611 0.47965 0.16352
 H1118 H 0.12932 0.48592 0.19341
 H1119 H 0.15512 0.43480 0.21822
 H1120 H 0.17169 0.42837 0.18849
 H1121 H 0.18342 0.45720 0.08687
 H1122 H 0.19676 0.44580 0.05669
 H1123 H 0.22779 0.40099 0.08661
 H1124 H 0.21458 0.41212 0.11655
 C1125 C -0.17206 0.34478 0.45691
 C1126 C -0.18765 0.34438 0.44484
 C1127 C -0.20433 0.35431 0.44942
 C1128 C -0.20586 0.36512 0.46609
 C1129 C -0.19046 0.36516 0.47846
 C1130 C -0.17371 0.35503 0.47393
 C1131 C -0.15418 0.33488 0.45124
 N1132 N -0.14018 0.33122 0.46386
 N1133 N -0.12418 0.32230 0.45843
 C1134 C -0.12152 0.31684 0.44012
 N1135 N -0.13551 0.32058 0.42757
 N1136 N -0.15148 0.32937 0.43300
 C1137 C -0.10392 0.30688 0.43375
 C1138 C -0.09989 0.30541 0.41426
 C1139 C -0.08387 0.29536 0.40788
 C1140 C -0.07150 0.28631 0.42079
 C1141 C -0.07522 0.28814 0.44034
 C1142 C -0.09127 0.29838 0.44676
 H1143 H -0.18699 0.33639 0.43177
 H1144 H -0.21609 0.35350 0.43984
 H1145 H -0.19119 0.37338 0.49140
 H1146 H -0.16194 0.35560 0.48352
 H1147 H -0.10915 0.31203 0.40384
 H1148 H -0.08116 0.29474 0.39276
 H1149 H -0.06600 0.28127 0.45064
 H1150 H -0.09400 0.29926 0.46187
 C1151 C 0.33539 0.85483 0.96513
 C1152 C 0.32319 0.84832 0.97957
 C1153 C 0.30525 0.85674 0.98204
 C1154 C 0.29879 0.87184 0.96994
 C1155 C 0.31136 0.87852 0.95570
 C1156 C 0.32936 0.87021 0.95341
 C1157 C 0.35398 0.84518 0.96180
 N1158 N 0.36671 0.85283 0.94941
 N1159 N 0.38298 0.84364 0.94563
 C1160 C 0.38721 0.82638 0.95404
 N1161 N 0.37457 0.81883 0.96658
 N1162 N 0.35832 0.82805 0.97041
 C1163 C 0.40464 0.81546 0.94867
 C1164 C 0.40699 0.79596 0.95401
 C1165 C 0.42240 0.78508 0.94724
 C1166 C 0.43589 0.79350 0.93513
 C1167 C 0.43407 0.81320 0.93053
 C1168 C 0.41857 0.82405 0.93717
 H1169 H 0.32737 0.83646 0.98885
 H1170 H 0.29619 0.85054 0.99285
 H1171 H 0.30768 0.89060 0.94652
 H1172 H 0.33846 0.87571 0.94222
 H1173 H 0.39658 0.78889 0.96290
 H1174 H 0.42357 0.76996 0.95114
 H1175 H 0.44417 0.82002 0.92109
 H1176 H 0.41726 0.83905 0.93286
 C1177 C 1.16111 0.85314 0.03747
 C1178 C 1.17395 0.84647 0.02362
 C1179 C 1.19127 0.85539 0.02076
 C1180 C 1.19645 0.87119 0.03186
 C1181 C 1.18326 0.87797 0.04555
 C1182 C 1.16587 0.86915 0.04821
 C1183 C 1.14316 0.84307 0.04116
 N1184 N 1.12956 0.85098 0.05254
 N1185 N 1.11382 0.84153 0.05660
 C1186 C 1.11103 0.82373 0.04952
 N1187 N 1.12456 0.81589 0.03800
 N1188 N 1.14027 0.82537 0.03388
 C1189 C 1.09412 0.81269 0.05514
 C1190 C 1.09323 0.79287 0.05146
 C1191 C 1.07813 0.78209 0.05840
 C1192 C 1.06351 0.79092 0.06898
 C1193 C 1.06398 0.81087 0.07196
 C1194 C 1.07915 0.82163 0.06518
 H1195 H 1.17074 0.83413 0.01510
 H1196 H 1.20090 0.84908 0.01045
 H1197 H 1.18594 0.89052 0.05394
 H1198 H 1.15624 0.87478 0.05893
 H1199 H 1.10449 0.78553 0.04374
 H1200 H 1.07803 0.76675 0.05575
 H1201 H 1.05300 0.81803 0.08023
 H1202 H 1.07933 0.83688 0.06818
 C1203 C 0.66225 0.35044 0.54035
 C1204 C 0.67635 0.34187 0.52886
 C1205 C 0.69362 0.35084 0.52588
 C1206 C 0.69723 0.36855 0.53437
 C1207 C 0.68312 0.37723 0.54573
 C1208 C 0.66579 0.36831 0.54864
 C1209 C 0.64420 0.34054 0.54405
 N1210 N 0.63000 0.34928 0.55404
 N1211 N 0.61407 0.34009 0.55794
 C1212 C 0.61166 0.32177 0.55203
 N1213 N 0.62580 0.31309 0.54191
 N1214 N 0.64171 0.32229 0.53798
 C1215 C 0.59440 0.31113 0.55733
 C1216 C 0.59322 0.29130 0.55380
 C1217 C 0.57768 0.28091 0.56028
 C1218 C 0.56289 0.29014 0.57030
 C1219 C 0.56368 0.31010 0.57316
 C1220 C 0.57928 0.32047 0.56680
 H1221 H 0.67414 0.32813 0.52226
 H1222 H 0.70431 0.34370 0.51723
 H1223 H 0.68544 0.39098 0.55229
 H1224 H 0.65525 0.37533 0.55757
 H1225 H 0.60455 0.28364 0.54649
 H1226 H 0.57734 0.26558 0.55771
 H1227 H 0.55259 0.31757 0.58102
 H1228 H 0.57968 0.33574 0.56969
 C1229 C 0.33126 0.16306 0.54117
 C1230 C 0.33058 0.15129 0.52512
 C1231 C 0.31430 0.14103 0.52123
 C1232 C 0.29848 0.14222 0.53341
 C1233 C 0.29909 0.15419 0.54925
 C1234 C 0.31524 0.16450 0.55307
 C1235 C 0.34861 0.17345 0.54594
 N1236 N 0.34867 0.18528 0.56110
 N1237 N 0.36432 0.19406 0.56604
 C1238 C 0.38065 0.19143 0.55605
 N1239 N 0.38060 0.17974 0.54074
 N1240 N 0.36489 0.17094 0.53578
 C1241 C 0.39821 0.20049 0.56241
 C1242 C 0.41541 0.19784 0.55248
 C1243 C 0.43208 0.20547 0.55941
 C1244 C 0.43185 0.21572 0.57646
 C1245 C 0.41459 0.21883 0.58602
 C1246 C 0.39799 0.21136 0.57908
 H1247 H 0.34266 0.14988 0.51564
 H1248 H 0.31421 0.13185 0.50894
 H1249 H 0.28699 0.15566 0.55870
 H1250 H 0.31519 0.17346 0.56552
 H1251 H 0.41606 0.18960 0.53956
 H1252 H 0.44522 0.20285 0.55179
 H1253 H 0.41396 0.22699 0.59901
 H1254 H 0.38503 0.21384 0.58705
 C1255 C 0.83269 0.66126 0.04586
 C1256 C 0.83025 0.65300 0.02801
 C1257 C 0.81357 0.64353 0.02384
 C1258 C 0.79892 0.64182 0.03753
 C1259 C 0.80158 0.65029 0.05537
 C1260 C 0.81811 0.65983 0.05941
 C1261 C 0.85027 0.67125 0.05062
 N1262 N 0.85143 0.68075 0.06724
 N1263 N 0.86722 0.68936 0.07198
 C1264 C 0.88262 0.68888 0.06034
 N1265 N 0.88148 0.67947 0.04362
 N1266 N 0.86562 0.67085 0.03884
 C1267 C 0.90033 0.69792 0.06627
 C1268 C 0.91699 0.69641 0.05526
 C1269 C 0.93384 0.70411 0.06170
 C1270 C 0.93433 0.71335 0.07929
 C1271 C 0.91756 0.71533 0.08996
 C1272 C 0.90081 0.70773 0.08356
 H1273 H 0.84126 0.65379 0.01726
 H1274 H 0.81265 0.63694 0.01009
 H1275 H 0.79061 0.65036 0.06619
 H1276 H 0.81939 0.66614 0.07328
 H1277 H 0.91711 0.68899 0.04186
 H1278 H 0.94658 0.70236 0.05321
 H1279 H 0.91741 0.72274 0.10338
 H1280 H 0.88826 0.70938 0.09235
 C1281 C 0.66904 0.65588 0.95858
 C1282 C 0.68082 0.66454 0.97173
 C1283 C 0.69859 0.65644 0.97576
 C1284 C 0.70491 0.63945 0.96683
 C1285 C 0.69289 0.63056 0.95407
 C1286 C 0.67523 0.63871 0.94994
 C1287 C 0.65067 0.66491 0.95335
 N1288 N 0.64145 0.65890 0.93784
 N1289 N 0.62522 0.66726 0.93267
 C1290 C 0.61745 0.68196 0.94282
 N1291 N 0.62658 0.68791 0.95845
 N1292 N 0.64289 0.67959 0.96358
 C1293 C 0.59957 0.69138 0.93665
 C1294 C 0.58894 0.70337 0.94885
 C1295 C 0.57193 0.71193 0.94282
 C1296 C 0.56529 0.70878 0.92443
 C1297 C 0.57617 0.69705 0.91219
 C1298 C 0.59299 0.68837 0.91826
 H1299 H 0.67651 0.67781 0.97858
 H1300 H 0.70758 0.66376 0.98552
 H1301 H 0.69712 0.61724 0.94726
 H1302 H 0.66644 0.63153 0.93990
 H1303 H 0.59363 0.70594 0.96312
 H1304 H 0.56384 0.72077 0.95265
 H1305 H 0.57184 0.69472 0.89776
 H1306 H 0.60094 0.67945 0.90839
 C1307 C 0.16595 0.15340 0.46077
 C1308 C 0.17926 0.16278 0.47178
 C1309 C 0.19714 0.15449 0.47470
 C1310 C 0.20216 0.13668 0.46663
 C1311 C 0.18882 0.12722 0.45576
 C1312 C 0.17091 0.13546 0.45289
 C1313 C 0.14718 0.16245 0.45713
 N1314 N 0.13407 0.15306 0.44711
 N1315 N 0.11744 0.16140 0.44328
 C1316 C 0.11318 0.17950 0.44928
 N1317 N 0.12624 0.18886 0.45942
 N1318 N 0.14287 0.18050 0.46328
 C1319 C 0.09503 0.18910 0.44411
 C1320 C 0.09121 0.20843 0.44883
 C1321 C 0.07470 0.21783 0.44265
 C1322 C 0.06162 0.20807 0.43170
 C1323 C 0.06517 0.18858 0.42751
 C1324 C 0.08166 0.17921 0.43364
 H1325 H 0.17593 0.17661 0.47805
 H1326 H 0.20720 0.16221 0.48299
 H1327 H 0.19220 0.11336 0.44956
 H1328 H 0.16101 0.12781 0.44436
 H1329 H 0.10116 0.21646 0.45696
 H1330 H 0.07226 0.23279 0.44628
 H1331 H 0.05554 0.18072 0.41885
 H1332 H 0.08410 0.16432 0.42976
 C1333 C 0.58723 0.08614 0.72034
 C1334 C 0.60444 0.08836 0.72965
 C1335 C 0.61276 0.07293 0.73963
 C1336 C 0.60402 0.05494 0.74065
 C1337 C 0.58688 0.05268 0.73122
 C1338 C 0.57860 0.06809 0.72113
 C1339 C 0.57830 0.10262 0.70999
 N1340 N 0.56305 0.10004 0.69891
 N1341 N 0.55500 0.11487 0.68968
 C1342 C 0.56181 0.13294 0.69119
 N1343 N 0.57704 0.13551 0.70228
 N1344 N 0.58512 0.12067 0.71147
 C1345 C 0.55288 0.14945 0.68089
 C1346 C 0.55826 0.16844 0.68446
 C1347 C 0.54993 0.18399 0.67466
 C1348 C 0.53615 0.18090 0.66097
 C1349 C 0.53072 0.16194 0.65742
 C1350 C 0.53894 0.14640 0.66732
 H1351 H 0.61156 0.10201 0.72921
 H1352 H 0.62614 0.07506 0.74644
 H1353 H 0.57965 0.03909 0.73192
 H1354 H 0.56531 0.06589 0.71418
 H1355 H 0.56893 0.17132 0.69483
 H1356 H 0.55451 0.19843 0.67754
 H1357 H 0.51998 0.15915 0.64709
 H1358 H 0.53444 0.13198 0.66423
 C1359 C 1.08953 0.58776 0.22488
 C1360 C 1.08292 0.56897 0.22306
 C1361 C 1.09114 0.55360 0.23322
 C1362 C 1.10634 0.55649 0.24559
 C1363 C 1.11288 0.57550 0.24725
 C1364 C 1.10459 0.59083 0.23710
 C1365 C 1.08082 0.60406 0.21407
 N1366 N 1.08621 0.62245 0.21694
 N1367 N 1.07842 0.63709 0.20721
 C1368 C 1.06493 0.63398 0.19417
 N1369 N 1.05953 0.61559 0.19131
 N1370 N 1.06730 0.60095 0.20106
 C1371 C 1.05634 0.65027 0.18326
 C1372 C 1.04349 0.64687 0.16872
 C1373 C 1.03551 0.66222 0.15835
 C1374 C 1.04012 0.68132 0.16231
 C1375 C 1.05289 0.68475 0.17689
 C1376 C 1.06094 0.66940 0.18722
 H1377 H 1.07120 0.56609 0.21389
 H1378 H 1.08490 0.53963 0.23180
 H1379 H 1.12496 0.57872 0.25576
 H1380 H 1.11021 0.60509 0.23869
 H1381 H 1.03960 0.63234 0.16530
 H1382 H 1.02553 0.65913 0.14736
 H1383 H 1.05687 0.69931 0.18014
 H1384 H 1.07078 0.67256 0.19831
 C1385 C 0.91923 0.90738 0.22340
 C1386 C 0.90174 0.90501 0.23268
 C1387 C 0.89280 0.92046 0.24188
 C1388 C 0.90113 0.93864 0.24204
 C1389 C 0.91855 0.94107 0.23268
 C1390 C 0.92751 0.92562 0.22347
 C1391 C 0.92872 0.89093 0.21371
 N1392 N 0.94551 0.89314 0.20448
 N1393 N 0.95392 0.87836 0.19567
 C1394 C 0.94593 0.86074 0.19574
 N1395 N 0.92918 0.85853 0.20502
 N1396 N 0.92077 0.87330 0.21381
 C1397 C 0.95502 0.84435 0.18559
 C1398 C 0.94642 0.82628 0.18550
 C1399 C 0.95451 0.81102 0.17533
 C1400 C 0.97141 0.81342 0.16502
 C1401 C 0.98025 0.83134 0.16542
 C1402 C 0.97214 0.84665 0.17558
 H1403 H 0.89489 0.89121 0.23285
 H1404 H 0.87924 0.91821 0.24873
 H1405 H 0.92542 0.95486 0.23274
 H1406 H 0.94098 0.92797 0.21648
 H1407 H 0.93331 0.82392 0.19314
 H1408 H 0.94751 0.79729 0.17554
 H1409 H 0.99319 0.83369 0.15746
 H1410 H 0.97916 0.86035 0.17535
 C1411 C 0.41779 0.41000 0.72111
 C1412 C 0.42663 0.42791 0.72208
 C1413 C 0.41786 0.44331 0.73157
 C1414 C 0.40009 0.44112 0.74031
 C1415 C 0.39116 0.42331 0.73911
 C1416 C 0.39989 0.40794 0.72965
 C1417 C 0.42713 0.39346 0.71142
 N1418 N 0.41867 0.37611 0.71099
 N1419 N 0.42697 0.36120 0.70234
 C1420 C 0.44412 0.36296 0.69376
 N1421 N 0.45262 0.38032 0.69420
 N1422 N 0.44431 0.39525 0.70286
 C1423 C 0.45310 0.34636 0.68386
 C1424 C 0.47060 0.34815 0.67443
 C1425 C 0.47861 0.33262 0.66452
 C1426 C 0.46927 0.31499 0.66378
 C1427 C 0.45199 0.31309 0.67354
 C1428 C 0.44401 0.32856 0.68345
 H1429 H 0.44040 0.43000 0.71567
 H1430 H 0.42515 0.45682 0.73241
 H1431 H 0.37733 0.42128 0.74545
 H1432 H 0.39259 0.39442 0.72909
 H1433 H 0.47800 0.36164 0.67447
 H1434 H 0.49187 0.33456 0.65700
 H1435 H 0.44461 0.29959 0.67350
 H1436 H 0.43059 0.32659 0.69065
 C1437 C 0.41351 0.59168 0.78059
 C1438 C 0.40208 0.57801 0.78978
 C1439 C 0.39481 0.56267 0.77974
 C1440 C 0.39869 0.56076 0.76027
 C1441 C 0.41020 0.57433 0.75110
 C1442 C 0.41759 0.58958 0.76115
 C1443 C 0.42102 0.60811 0.79113
 N1444 N 0.43401 0.61987 0.78300
 N1445 N 0.44071 0.63468 0.79244
 C1446 C 0.43466 0.63843 0.81039
 N1447 N 0.42165 0.62670 0.81852
 N1448 N 0.41499 0.61185 0.80910
 C1449 C 0.44222 0.65482 0.82096
 C1450 C 0.43414 0.66027 0.83844
 C1451 C 0.44153 0.67544 0.84861
 C1452 C 0.45725 0.68546 0.84161
 C1453 C 0.46519 0.68015 0.82402
 C1454 C 0.45773 0.66505 0.81379
 H1455 H 0.39869 0.57917 0.80475
 H1456 H 0.38583 0.55250 0.78712
 H1457 H 0.41358 0.57308 0.73614
 H1458 H 0.42636 0.59982 0.75362
 H1459 H 0.42208 0.65282 0.84430
 H1460 H 0.43487 0.67937 0.86195
 H1461 H 0.47747 0.68736 0.81835
 H1462 H 0.46434 0.66120 0.80041
 C1463 C -0.08135 0.08757 0.27697
 C1464 C -0.09153 0.07346 0.28698
 C1465 C -0.10050 0.05886 0.27733
 C1466 C -0.09938 0.05791 0.25745
 C1467 C -0.08914 0.07200 0.24744
 C1468 C -0.08030 0.08671 0.25708
 C1469 C -0.07192 0.10309 0.28725
 N1470 N -0.06531 0.11883 0.27785
 N1471 N -0.05703 0.13285 0.28718
 C1472 C -0.05492 0.13165 0.30628
 N1473 N -0.06146 0.11587 0.31565
 N1474 N -0.06981 0.10190 0.30634
 C1475 C -0.04603 0.14735 0.31679
 C1476 C -0.04101 0.14459 0.33586
 C1477 C -0.03329 0.15955 0.34605
 C1478 C -0.03054 0.17772 0.33749
 C1479 C -0.03523 0.18038 0.31830
 C1480 C -0.04283 0.16535 0.30805
 H1481 H -0.09275 0.07377 0.30229
 H1482 H -0.10853 0.04843 0.28546
 H1483 H -0.08770 0.07151 0.23215
 H1484 H -0.07247 0.09728 0.24895
 H1485 H -0.04307 0.13085 0.34297
 H1486 H -0.02947 0.15687 0.36068
 H1487 H -0.03351 0.19424 0.31133
 H1488 H -0.04659 0.16797 0.29339
 C1489 C 0.08880 0.40533 0.28501
 C1490 C 0.10564 0.40244 0.27461
 C1491 C 0.11421 0.41784 0.26516
 C1492 C 0.10604 0.43648 0.26568
 C1493 C 0.08928 0.43939 0.27624
 C1494 C 0.08081 0.42401 0.28586
 C1495 C 0.07953 0.38891 0.29471
 N1496 N 0.06559 0.39197 0.30779
 N1497 N 0.05718 0.37720 0.31640
 C1498 C 0.06225 0.35874 0.31222
 N1499 N 0.07616 0.35568 0.29911
 N1500 N 0.08464 0.37045 0.29056
 C1501 C 0.05281 0.34232 0.32177
 C1502 C 0.05493 0.32354 0.31472
 C1503 C 0.04592 0.30811 0.32372
 C1504 C 0.03473 0.31106 0.34008
 C1505 C 0.03275 0.32985 0.34716
 C1506 C 0.04158 0.34530 0.33806
 H1507 H 0.11228 0.38827 0.27383
 H1508 H 0.12730 0.41514 0.25749
 H1509 H 0.08245 0.45348 0.27673
 H1510 H 0.06779 0.42672 0.29367
 H1511 H 0.06338 0.32078 0.30211
 H1512 H 0.04755 0.29390 0.31770
 H1513 H 0.02459 0.33264 0.35995
 H1514 H 0.03979 0.35955 0.34397
 C1515 C 0.58415 0.90458 0.78154
 C1516 C 0.60180 0.90147 0.77265
 C1517 C 0.61089 0.91652 0.76315
 C1518 C 0.60254 0.93505 0.76225
 C1519 C 0.58498 0.93823 0.77129
 C1520 C 0.57590 0.92318 0.78084
 C1521 C 0.57440 0.88849 0.79135
 N1522 N 0.55802 0.89164 0.80115
 N1523 N 0.54930 0.87715 0.80995
 C1524 C 0.55655 0.85889 0.80927
 N1525 N 0.57290 0.85575 0.79944
 N1526 N 0.58164 0.87023 0.79068
 C1527 C 0.54702 0.84277 0.81927
 C1528 C 0.55396 0.82374 0.81749
 C1529 C 0.54537 0.80861 0.82735
 C1530 C 0.52967 0.81211 0.83928
 C1531 C 0.52253 0.83109 0.84082
 C1532 C 0.53109 0.84624 0.83092
 H1533 H 0.60865 0.88737 0.77302
 H1534 H 0.62455 0.91367 0.75660
 H1535 H 0.57805 0.95228 0.77065
 H1536 H 0.56230 0.92610 0.78749
 H1537 H 0.56610 0.82051 0.80853
 H1538 H 0.55103 0.79412 0.82559
 H1539 H 0.51060 0.83432 0.85007
 H1540 H 0.52538 0.86071 0.83265
 C1541 C 0.72167 0.59164 0.09165
 C1542 C 0.73516 0.60566 0.09479
 C1543 C 0.74538 0.61365 0.07967
 C1544 C 0.74268 0.60766 0.06081
 C1545 C 0.72896 0.59353 0.05786
 C1546 C 0.71858 0.58576 0.07302
 C1547 C 0.71094 0.58314 0.10774
 N1548 N 0.69472 0.57362 0.10477
 N1549 N 0.68511 0.56593 0.11926
 C1550 C 0.69138 0.56733 0.13730
 N1551 N 0.70762 0.57680 0.14027
 N1552 N 0.71717 0.58460 0.12579
 C1553 C 0.68080 0.55853 0.15334
 C1554 C 0.68951 0.55496 0.17086
 C1555 C 0.67965 0.54607 0.18578
 C1556 C 0.66078 0.54075 0.18357
 C1557 C 0.65198 0.54475 0.16614
 C1558 C 0.66191 0.55339 0.15118
 H1559 H 0.73764 0.61075 0.10897
 H1560 H 0.75488 0.62508 0.08298
 H1561 H 0.72658 0.58768 0.04400
 H1562 H 0.70840 0.57479 0.07016
 H1563 H 0.70409 0.55867 0.17294
 H1564 H 0.68696 0.54299 0.19889
 H1565 H 0.63734 0.54131 0.16405
 H1566 H 0.65471 0.55617 0.13793
 C1567 C 0.22722 1.08349 0.58928
 C1568 C 0.22781 1.07514 0.57122
 C1569 C 0.23687 1.08437 0.55601
 C1570 C 0.24548 1.10221 0.55847
 C1571 C 0.24485 1.11057 0.57652
 C1572 C 0.23588 1.10130 0.59175
 C1573 C 0.21750 1.07377 0.60538
 N1574 N 0.21881 1.08054 0.62329
 N1575 N 0.20990 1.07193 0.63773
 C1576 C 0.19927 1.05620 0.63488
 N1577 N 0.19800 1.04940 0.61698
 N1578 N 0.20695 1.05798 0.60255
 C1579 C 0.18896 1.04692 0.65086
 C1580 C 0.17574 1.03260 0.64745
 C1581 C 0.16546 1.02438 0.66244
 C1582 C 0.16828 1.03020 0.68117
 C1583 C 0.18176 1.04422 0.68465
 C1584 C 0.19194 1.05255 0.66965
 H1585 H 0.22137 1.06139 0.56884
 H1586 H 0.23735 1.07740 0.54237
 H1587 H 0.25108 1.12444 0.57882
 H1588 H 0.23559 1.10820 0.60542
 H1589 H 0.17311 1.02788 0.63318
 H1590 H 0.15531 1.01344 0.65938
 H1591 H 0.18409 1.04909 0.69893
 H1592 H 0.20205 1.06350 0.67278
 C1593 C 0.22373 0.91955 0.90879
 C1594 C 0.22258 0.92875 0.92642
 C1595 C 0.23180 0.92086 0.94220
 C1596 C 0.24242 0.90361 0.94072
 C1597 C 0.24362 0.89442 0.92311
 C1598 C 0.23437 0.90229 0.90732
 C1599 C 0.21379 0.92784 0.89208
 N1600 N 0.21435 0.91869 0.87518
 N1601 N 0.20528 0.92604 0.86023
 C1602 C 0.19526 0.94289 0.86153
 N1603 N 0.19474 0.95207 0.87841
 N1604 N 0.20380 0.94471 0.89337
 C1605 C 0.18495 0.95095 0.84495
 C1606 C 0.17487 0.96856 0.84623
 C1607 C 0.16490 0.97598 0.83069
 C1608 C 0.16474 0.96595 0.81354
 C1609 C 0.17490 0.94841 0.81220
 C1610 C 0.18492 0.94101 0.82771
 H1611 H 0.21455 0.94208 0.92807
 H1612 H 0.23081 0.92838 0.95554
 H1613 H 0.25151 0.88098 0.92160
 H1614 H 0.23554 0.89479 0.89399
 H1615 H 0.17456 0.97660 0.85928
 H1616 H 0.15701 0.98942 0.83223
 H1617 H 0.17525 0.94047 0.79909
 H1618 H 0.19257 0.92744 0.82618
 C1619 C 0.72029 0.42065 0.41049
 C1620 C 0.72026 0.43002 0.42805
 C1621 C 0.72954 0.42165 0.44362
 C1622 C 0.73905 0.40377 0.44194
 C1623 C 0.73884 0.39432 0.42445
 C1624 C 0.72962 0.40266 0.40893
 C1625 C 0.71075 0.42950 0.39381
 N1626 N 0.71162 0.42071 0.37673
 N1627 N 0.70307 0.42852 0.36169
 C1628 C 0.69327 0.44547 0.36307
 N1629 N 0.69240 0.45430 0.38015
 N1630 N 0.70098 0.44649 0.39520
 C1631 C 0.68349 0.45389 0.34633
 C1632 C 0.67246 0.47089 0.34784
 C1633 C 0.66277 0.47839 0.33214
 C1634 C 0.66391 0.46906 0.31458
 C1635 C 0.67520 0.45226 0.31300
 C1636 C 0.68486 0.44477 0.32867
 H1637 H 0.71322 0.44389 0.42976
 H1638 H 0.72957 0.42933 0.45688
 H1639 H 0.74573 0.38036 0.42280
 H1640 H 0.72982 0.39494 0.39569
 H1641 H 0.67108 0.47829 0.36122
 H1642 H 0.65402 0.49123 0.33387
 H1643 H 0.67659 0.44490 0.29960
 H1644 H 0.69332 0.43173 0.32693
 C1645 C 0.77113 0.41901 0.59181
 C1646 C 0.76092 0.40199 0.59428
 C1647 C 0.75196 0.39370 0.57894
 C1648 C 0.75291 0.40229 0.56078
 C1649 C 0.76311 0.41932 0.55833
 C1650 C 0.77215 0.42755 0.57363
 C1651 C 0.78073 0.42777 0.60804
 N1652 N 0.79243 0.44284 0.60527
 N1653 N 0.80120 0.45061 0.61979
 C1654 C 0.79862 0.44371 0.63774
 N1655 N 0.78686 0.42869 0.64053
 N1656 N 0.77812 0.42088 0.62600
 C1657 C 0.80870 0.45215 0.65384
 C1658 C 0.80466 0.44639 0.67264
 C1659 C 0.81458 0.45400 0.68773
 C1660 C 0.82884 0.46741 0.68434
 C1661 C 0.83271 0.47336 0.66559
 C1662 C 0.82272 0.46587 0.65052
 H1663 H 0.75994 0.39495 0.60805
 H1664 H 0.74446 0.38043 0.58128
 H1665 H 0.76388 0.42647 0.54460
 H1666 H 0.77982 0.44071 0.57122
 H1667 H 0.79392 0.43589 0.67571
 H1668 H 0.81141 0.44904 0.70203
 H1669 H 0.84347 0.48386 0.66257
 H1670 H 0.82618 0.47068 0.63625
 C1671 C 0.26779 -0.07621 0.09004
 C1672 C 0.25773 -0.09330 0.09280
 C1673 C 0.24909 -0.10208 0.07756
 C1674 C 0.25024 -0.09395 0.05921
 C1675 C 0.26016 -0.07680 0.05649
 C1676 C 0.26886 -0.06805 0.07171
 C1677 C 0.27735 -0.06710 0.10610
 N1678 N 0.28878 -0.05187 0.10306
 N1679 N 0.29769 -0.04391 0.11739
 C1680 C 0.29554 -0.05080 0.13539
 N1681 N 0.28403 -0.06597 0.13846
 N1682 N 0.27513 -0.07395 0.12412
 C1683 C 0.30593 -0.04227 0.15123
 C1684 C 0.30264 -0.04834 0.17008
 C1685 C 0.31297 -0.04077 0.18490
 C1686 C 0.32689 -0.02706 0.18117
 C1687 C 0.32997 -0.02076 0.16239
 C1688 C 0.31958 -0.02823 0.14760
 H1689 H 0.25670 -0.10003 0.10671
 H1690 H 0.24177 -0.11544 0.08008
 H1691 H 0.26106 -0.07002 0.04259
 H1692 H 0.27640 -0.05485 0.06907
 H1693 H 0.29221 -0.05910 0.17340
 H1694 H 0.31041 -0.04600 0.19922
 H1695 H 0.34043 -0.01002 0.15913
 H1696 H 0.32245 -0.02317 0.13328
 C1697 C 0.27863 0.08371 0.41011
 C1698 C 0.25926 0.08090 0.41335
 C1699 C 0.24981 0.09003 0.42835
 C1700 C 0.25950 0.10216 0.44050
 C1701 C 0.27885 0.10497 0.43731
 C1702 C 0.28831 0.09587 0.42228
 C1703 C 0.28863 0.07414 0.39410
 N1704 N 0.30718 0.07736 0.39056
 N1705 N 0.31612 0.06897 0.37604
 C1706 C 0.30692 0.05697 0.36443
 N1707 N 0.28839 0.05368 0.36801
 N1708 N 0.27944 0.06208 0.38253
 C1709 C 0.31682 0.04806 0.34798
 C1710 C 0.30743 0.03543 0.33604
 C1711 C 0.31665 0.02764 0.32014
 C1712 C 0.33540 0.03238 0.31581
 C1713 C 0.34487 0.04469 0.32795
 C1714 C 0.33571 0.05242 0.34384
 H1715 H 0.25136 0.07162 0.40430
 H1716 H 0.23495 0.08737 0.43062
 H1717 H 0.28665 0.11439 0.44632
 H1718 H 0.30321 0.09841 0.42019
 H1719 H 0.29289 0.03173 0.33882
 H1720 H 0.30895 0.01830 0.31097
 H1721 H 0.35943 0.04835 0.32516
 H1722 H 0.34343 0.06199 0.35276
 C1723 C 0.78195 0.58792 0.91183
 C1724 C 0.78197 0.57924 0.92998
 C1725 C 0.77299 0.58836 0.94531
 C1726 C 0.76376 0.60632 0.94281
 C1727 C 0.76412 0.61519 0.92478
 C1728 C 0.77312 0.60612 0.90949
 C1729 C 0.79073 0.57798 0.89533
 N1730 N 0.79079 0.58654 0.87790
 N1731 N 0.79840 0.57760 0.86299
 C1732 C 0.80626 0.55966 0.86482
 N1733 N 0.80621 0.55107 0.88226
 N1734 N 0.79860 0.56003 0.89720
 C1735 C 0.81492 0.54989 0.84816
 C1736 C 0.82288 0.53120 0.84981
 C1737 C 0.83161 0.52239 0.83416
 C1738 C 0.83264 0.53211 0.81658
 C1739 C 0.82433 0.55059 0.81484
 C1740 C 0.81557 0.55937 0.83042
 H1741 H 0.78867 0.56526 0.93231
 H1742 H 0.77279 0.58110 0.95900
 H1743 H 0.75735 0.62915 0.92249
 H1744 H 0.77293 0.61332 0.89577
 H1745 H 0.82258 0.52346 0.86325
 H1746 H 0.83802 0.50819 0.83596
 H1747 H 0.82466 0.55833 0.80140
 H1748 H 0.80950 0.57370 0.82856
 C1749 C 0.09010 0.72293 0.58227
 C1750 C 0.09244 0.73318 0.59910
 C1751 C 0.07703 0.74228 0.60800
 C1752 C 0.05891 0.74143 0.60025
 C1753 C 0.05649 0.73093 0.58360
 C1754 C 0.07190 0.72176 0.57472
 C1755 C 0.10657 0.71372 0.57258
 N1756 N 0.10425 0.70248 0.55720
 N1757 N 0.11907 0.69428 0.54848
 C1758 C 0.13686 0.69702 0.55470
 N1759 N 0.13917 0.70829 0.57005
 N1760 N 0.12435 0.71646 0.57880
 C1761 C 0.15334 0.68762 0.54520
 C1762 C 0.17180 0.69148 0.55090
 C1763 C 0.18730 0.68207 0.54245
 C1764 C 0.18469 0.66851 0.52817
 C1765 C 0.16628 0.66491 0.52221
 C1766 C 0.15078 0.67439 0.53059
 H1767 H 0.10622 0.73424 0.60541
 H1768 H 0.07930 0.74998 0.62100
 H1769 H 0.04274 0.73019 0.57717
 H1770 H 0.06958 0.71401 0.56177
 H1771 H 0.17431 0.70163 0.56207
 H1772 H 0.20131 0.68499 0.54746
 H1773 H 0.16385 0.65470 0.51107
 H1774 H 0.13678 0.67112 0.52578
 C1775 C 0.58881 0.22459 1.07808
 C1776 C 0.59100 0.23464 1.09505
 C1777 C 0.57565 0.24432 1.10350
 C1778 C 0.55777 0.24424 1.09514
 C1779 C 0.55556 0.23412 1.07821
 C1780 C 0.57088 0.22438 1.06981
 C1781 C 0.60510 0.21440 1.06905
 N1782 N 0.60268 0.20317 1.05369
 N1783 N 0.61729 0.19393 1.04563
 C1784 C 0.63497 0.19557 1.05254
 N1785 N 0.63741 0.20686 1.06786
 N1786 N 0.62279 0.21607 1.07594
 C1787 C 0.65116 0.18497 1.04379
 C1788 C 0.66966 0.18782 1.04998
 C1789 C 0.68483 0.17733 1.04215
 C1790 C 0.68183 0.16368 1.02805
 C1791 C 0.66339 0.16103 1.02164
 C1792 C 0.64824 0.17159 1.02938
 H1793 H 0.60457 0.23500 1.10188
 H1794 H 0.57776 0.25173 1.11669
 H1795 H 0.54204 0.23402 1.07125
 H1796 H 0.56869 0.21684 1.05670
 H1797 H 0.67243 0.19804 1.06101
 H1798 H 0.69886 0.17953 1.04749
 H1799 H 0.66069 0.15078 1.01062
 H1800 H 0.63421 0.16907 1.02421
 C1801 C 0.91333 0.21421 0.92758
 C1802 C 0.91498 0.23412 0.93038
 C1803 C 0.92925 0.24440 0.92121
 C1804 C 0.94223 0.23503 0.90906
 C1805 C 0.94087 0.21507 0.90657
 C1806 C 0.92655 0.20477 0.91569
 C1807 C 0.89760 0.20350 0.93658
 N1808 N 0.89518 0.18456 0.93291
 N1809 N 0.88067 0.17512 0.94047
 C1810 C 0.86796 0.18421 0.95203
 N1811 N 0.87046 0.20312 0.95582
 N1812 N 0.88496 0.21255 0.94825
 C1813 C 0.85141 0.17388 0.95984
 C1814 C 0.83842 0.18317 0.97209
 C1815 C 0.82239 0.17366 0.97876
 C1816 C 0.81896 0.15469 0.97325
 C1817 C 0.83210 0.14529 0.96129
 C1818 C 0.84814 0.15476 0.95468
 H1819 H 0.90511 0.24185 0.93949
 H1820 H 0.93015 0.25973 0.92364
 H1821 H 0.95062 0.20750 0.89719
 H1822 H 0.92573 0.18945 0.91324
 H1823 H 0.84049 0.19789 0.97637
 H1824 H 0.81244 0.18131 0.98785
 H1825 H 0.83000 0.13056 0.95705
 H1826 H 0.85787 0.14712 0.94535
 C1827 C 0.41647 0.72375 0.42460
 C1828 C 0.42993 0.71378 0.41342
 C1829 C 0.44441 0.72365 0.40412
 C1830 C 0.44577 0.74372 0.40574
 C1831 C 0.43248 0.75367 0.41711
 C1832 C 0.41801 0.74380 0.42645
 C1833 C 0.40070 0.71333 0.43388
 N1834 N 0.38766 0.72281 0.44476
 N1835 N 0.37320 0.71351 0.45260
 C1836 C 0.37116 0.69433 0.44988
 N1837 N 0.38427 0.68484 0.43910
 N1838 N 0.39872 0.69413 0.43128
 C1839 C 0.35471 0.68403 0.45797
 C1840 C 0.35201 0.66455 0.45377
 C1841 C 0.33612 0.65501 0.46060
 C1842 C 0.32254 0.66467 0.47185
 C1843 C 0.32540 0.68401 0.47645
 C1844 C 0.34129 0.69362 0.46954
 H1845 H 0.42919 0.69834 0.41165
 H1846 H 0.45430 0.71561 0.39528
 H1847 H 0.43332 0.76911 0.41882
 H1848 H 0.40794 0.75194 0.43498
 H1849 H 0.36207 0.65667 0.44499
 H1850 H 0.33445 0.64001 0.45707
 H1851 H 0.31511 0.69185 0.48500
 H1852 H 0.34294 0.70861 0.47308
 C1853 C 0.59381 0.77897 0.41119
 C1854 C 0.59603 0.76770 0.39488
 C1855 C 0.58061 0.75833 0.38731
 C1856 C 0.56267 0.75983 0.39602
 C1857 C 0.56052 0.77109 0.41236
 C1858 C 0.57587 0.78063 0.41978
 C1859 C 0.61008 0.78892 0.41929
 N1860 N 0.60728 0.80319 0.43207
 N1861 N 0.62184 0.81208 0.43951
 C1862 C 0.63984 0.80702 0.43460
 N1863 N 0.64266 0.79272 0.42184
 N1864 N 0.62808 0.78389 0.41430
 C1865 C 0.65595 0.81683 0.44315
 C1866 C 0.67432 0.80886 0.44205
 C1867 C 0.68935 0.81794 0.45069
 C1868 C 0.68636 0.83528 0.46048
 C1869 C 0.66802 0.84340 0.46122
 C1870 C 0.65301 0.83424 0.45278
 H1871 H 0.60964 0.76627 0.38783
 H1872 H 0.58273 0.75007 0.37453
 H1873 H 0.54703 0.77227 0.41967
 H1874 H 0.57371 0.78907 0.43245
 H1875 H 0.67704 0.79541 0.43480
 H1876 H 0.70323 0.81116 0.45001
 H1877 H 0.66524 0.85698 0.46820
 H1878 H 0.63908 0.84090 0.45371
 C1879 C 0.08781 0.27703 -0.08079
 C1880 C 0.09031 0.26807 -0.09842
 C1881 C 0.07546 0.25848 -0.10671
 C1882 C 0.05778 0.25748 -0.09752
 C1883 C 0.05519 0.26667 -0.08002
 C1884 C 0.07003 0.27637 -0.07176
 C1885 C 0.10375 0.28681 -0.07185
 N1886 N 0.10101 0.29745 -0.05599
 N1887 N 0.11538 0.30620 -0.04799
 C1888 C 0.13310 0.30462 -0.05546
 N1889 N 0.13583 0.29394 -0.07129
 N1890 N 0.12147 0.28523 -0.07931
 C1891 C 0.14905 0.31458 -0.04675
 C1892 C 0.16765 0.31130 -0.05332
 C1893 C 0.18263 0.32114 -0.04552
 C1894 C 0.17933 0.33458 -0.03108
 C1895 C 0.16079 0.33767 -0.02432
 C1896 C 0.14583 0.32773 -0.03202
 H1897 H 0.10375 0.26844 -0.10586
 H1898 H 0.07783 0.25185 -0.12037
 H1899 H 0.04181 0.26599 -0.07248
 H1900 H 0.06763 0.28309 -0.05815
 H1901 H 0.17065 0.30123 -0.06460
 H1902 H 0.19674 0.31862 -0.05113
 H1903 H 0.15787 0.34779 -0.01305
 H1904 H 0.13171 0.33058 -0.02658
 C1905 C 0.41118 0.28195 0.07175
 C1906 C 0.42405 0.29212 0.08262
 C1907 C 0.43871 0.28240 0.09203
 C1908 C 0.44082 0.26228 0.09085
 C1909 C 0.42809 0.25212 0.07985
 C1910 C 0.41345 0.26183 0.07039
 C1911 C 0.39527 0.29222 0.06225
 N1912 N 0.38298 0.28257 0.05143
 N1913 N 0.36839 0.29176 0.04337
 C1914 C 0.36547 0.31098 0.04581
 N1915 N 0.37783 0.32063 0.05653
 N1916 N 0.39242 0.31146 0.06456
 C1917 C 0.34882 0.32113 0.03754
 C1918 C 0.34501 0.34058 0.04172
 C1919 C 0.32883 0.34994 0.03484
 C1920 C 0.31609 0.34013 0.02356
 C1921 C 0.32010 0.32085 0.01892
 C1922 C 0.33628 0.31142 0.02589
 H1923 H 0.42273 0.30761 0.08400
 H1924 H 0.44819 0.29059 0.10056
 H1925 H 0.42952 0.23663 0.07847
 H1926 H 0.40384 0.25354 0.06212
 H1927 H 0.35437 0.34855 0.05056
 H1928 H 0.32626 0.36491 0.03840
 H1929 H 0.31047 0.31292 0.01033
 H1930 H 0.33881 0.29645 0.02234
 C1931 C 0.91138 0.77471 0.58111
 C1932 C 0.92496 0.78563 0.59024
 C1933 C 0.93987 0.77656 0.59986
 C1934 C 0.94164 0.75635 0.60049
 C1935 C 0.92811 0.74543 0.59127
 C1936 C 0.91312 0.75450 0.58176
 C1937 C 0.89547 0.78438 0.57110
 N1938 N 0.88076 0.77413 0.56472
 N1939 N 0.86635 0.78293 0.55599
 C1940 C 0.86607 0.80234 0.55319
 N1941 N 0.88081 0.81256 0.55948
 N1942 N 0.89518 0.80378 0.56826
 C1943 C 0.84987 0.81231 0.54389
 C1944 C 0.85073 0.83203 0.53924
 C1945 C 0.83524 0.84174 0.53130
 C1946 C 0.81845 0.83203 0.52791
 C1947 C 0.81771 0.81219 0.53212
 C1948 C 0.83327 0.80243 0.54001
 H1949 H 0.92400 0.80122 0.59015
 H1950 H 0.94987 0.78539 0.60706
 H1951 H 0.92922 0.72985 0.59121
 H1952 H 0.90297 0.74566 0.57478
 H1953 H 0.86335 0.84005 0.54184
 H1954 H 0.83643 0.85692 0.52785
 H1955 H 0.80493 0.80433 0.52982
 H1956 H 0.83213 0.78723 0.54343
   
