data_POSCAR
  _audit_creation_date              2014-09-24
  _audit_creation_method            'ToBaCCo'
  _symmetry_space_group_name_H-M    'P1'
  _symmetry_Int_Tables_number       1
  _symmetry_cell_setting            triclinic
  loop_
  _symmetry_equiv_pos_as_xyz
 x,y,z
_cell_length_a 65.1832
_cell_length_b 65.2610
_cell_length_c 65.2080
_cell_angle_alpha 90.001400
_cell_angle_beta 90.001700
_cell_angle_gamma 89.997400
loop_
  _atom_site_label
  _atom_site_type_symbol
  _atom_site_fract_x
  _atom_site_fract_y
  _atom_site_fract_z
C1 C 0.24989 1.06459 -0.01035
 C2 C 0.25106 1.06462 0.01064
 C3 C 0.25136 1.04425 0.01679
 N4 N 0.25047 1.03188 0.00019
 C5 C 0.24960 1.04422 -0.01643
 C6 C 0.25174 1.03758 0.03745
 C7 C 0.25110 1.01677 0.04376
 C8 C 0.24822 1.01044 0.06390
 C9 C 0.24812 0.98942 0.06378
 C10 C 0.25096 0.98331 0.04360
 N11 N 0.25310 1.00008 0.03155
 C12 C 0.25150 0.96258 0.03714
 C13 C 0.25150 0.95592 0.01651
 C14 C 0.25142 0.93555 0.01043
 C15 C 0.25066 0.93551 -0.01057
 C16 C 0.25033 0.95588 -0.01674
 N17 N 0.25085 0.96825 -0.00012
 C18 C 0.25015 0.96254 -0.03741
 C19 C 0.25041 0.98337 -0.04372
 C20 C 0.25302 0.98976 -0.06387
 C21 C 0.25272 1.01078 -0.06376
 C22 C 0.24997 1.01685 -0.04355
 N23 N 0.24824 1.00004 -0.03149
 C24 C 0.24922 1.03757 -0.03707
 H25 H 0.24947 1.07807 -0.02001
 H26 H 0.25150 1.07812 0.02027
 H27 H 0.24430 0.99997 -0.01612
 H28 H 0.24612 1.01999 0.07731
 H29 H 0.24595 0.97976 0.07709
 H30 H 0.25175 0.92208 0.02011
 H31 H 0.25046 0.92201 -0.02021
 H32 H 0.25461 1.02049 -0.07708
 H33 H 0.25724 1.00011 0.01622
 H34 H 0.25516 0.98025 -0.07730
 C35 C 0.75171 0.48972 0.56436
 C36 C 0.75083 0.51071 0.56432
 C37 C 0.75043 0.51677 0.54393
 N38 N 0.75100 0.50015 0.53161
 C39 C 0.75179 0.48358 0.54400
 C40 C 0.75018 0.53738 0.53723
 C41 C 0.75047 0.54379 0.51647
 C42 C 0.75299 0.56397 0.51024
 C43 C 0.75283 0.56399 0.48919
 C44 C 0.75023 0.54382 0.48298
 N45 N 0.74845 0.53166 0.49973
 C46 C 0.74973 0.53743 0.46221
 C47 C 0.75028 0.51681 0.45558
 C48 C 0.75079 0.51069 0.43522
 C49 C 0.75201 0.48971 0.43527
 C50 C 0.75213 0.48365 0.45566
 N51 N 0.75109 0.50025 0.46798
 C52 C 0.75247 0.46304 0.46236
 C53 C 0.75168 0.45665 0.48311
 C54 C 0.74871 0.43651 0.48928
 C55 C 0.74855 0.43649 0.51033
 C56 C 0.75143 0.45661 0.51659
 N57 N 0.75365 0.46875 0.49987
 C58 C 0.75193 0.46296 0.53736
 H59 H 0.75214 0.48009 0.57787
 H60 H 0.75063 0.52039 0.57780
 H61 H 0.75787 0.48404 0.49987
 H62 H 0.75502 0.57734 0.51986
 H63 H 0.75472 0.57737 0.47956
 H64 H 0.75046 0.52032 0.42171
 H65 H 0.75257 0.48004 0.42179
 H66 H 0.74631 0.42315 0.51993
 H67 H 0.74460 0.51628 0.49976
 H68 H 0.74660 0.42319 0.47963
 C69 C 0.74841 0.93560 0.98952
 C70 C 0.74918 0.93559 1.01052
 C71 C 0.74957 0.95596 1.01666
 N72 N 0.74910 0.96831 1.00004
 C73 C 0.74839 0.95597 0.98342
 C74 C 0.74980 0.96265 1.03733
 C75 C 0.74959 0.98347 1.04362
 C76 C 0.74713 0.98986 1.06380
 C77 C 0.74737 1.01088 1.06368
 C78 C 0.74995 1.01695 1.04344
 N79 N 0.75165 1.00013 1.03138
 C80 C 0.75056 1.03766 1.03694
 C81 C 0.75009 1.04430 1.01630
 C82 C 0.74964 1.06466 1.01022
 C83 C 0.74850 1.06468 0.98923
 C84 C 0.74837 1.04430 0.98308
 N85 N 0.74934 1.03195 0.99969
 C86 C 0.74808 1.03762 0.96241
 C87 C 0.74885 1.01681 0.95613
 C88 C 0.75189 1.01046 0.93602
 C89 C 0.75201 0.98944 0.93616
 C90 C 0.74903 0.98334 0.95632
 N91 N 0.74678 1.00012 0.96835
 C92 C 0.74842 0.96261 0.96279
 H93 H 0.74804 0.92212 0.97986
 H94 H 0.74933 0.92209 1.02017
 H95 H 0.74251 1.00015 0.98363
 H96 H 0.74510 0.98036 1.07725
 H97 H 0.74554 1.02059 1.07701
 H98 H 0.74994 1.07814 1.01988
 H99 H 0.74798 1.07817 0.97959
 H100 H 0.75430 0.97975 0.92287
 H101 H 0.75545 1.00007 1.01597
 H102 H 0.75407 1.02000 0.92262
 C103 C 0.24910 0.43540 0.48951
 C104 C 0.24790 0.43548 0.51050
 C105 C 0.24778 0.45587 0.51654
 N106 N 0.24880 0.46816 0.49990
 C107 C 0.24960 0.45574 0.48335
 C108 C 0.24745 0.46260 0.53714
 C109 C 0.24823 0.48335 0.54351
 C110 C 0.25112 0.48954 0.56367
 C111 C 0.25135 0.51057 0.56366
 C112 C 0.24859 0.51680 0.54350
 N113 N 0.24636 0.50008 0.53137
 C114 C 0.24823 0.53755 0.53711
 C115 C 0.24845 0.54416 0.51647
 C116 C 0.24875 0.56450 0.51030
 C117 C 0.24959 0.56442 0.48929
 C118 C 0.24975 0.54403 0.48324
 N119 N 0.24908 0.53174 0.49990
 C120 C 0.24985 0.53729 0.46263
 C121 C 0.24942 0.51652 0.45627
 C122 C 0.24672 0.51027 0.43610
 C123 C 0.24684 0.48924 0.43611
 C124 C 0.24959 0.48307 0.45629
 N125 N 0.25150 0.49982 0.46842
 C126 C 0.25011 0.46233 0.46270
 H127 H 0.24941 0.42188 0.47989
 H128 H 0.24732 0.42203 0.52020
 H129 H 0.25550 0.49987 0.48378
 H130 H 0.25313 0.47991 0.57703
 H131 H 0.25357 0.52017 0.57701
 H132 H 0.24850 0.57801 0.51992
 H133 H 0.24993 0.57787 0.47958
 H134 H 0.24483 0.47960 0.42276
 H135 H 0.24224 0.50007 0.51604
 H136 H 0.24461 0.51986 0.42272
 C137 C 1.06384 0.25904 -0.01107
 C138 C 1.06396 0.25920 0.00997
 C139 C 1.04414 0.25457 0.01621
 N140 N 1.03201 0.25147 -0.00032
 C141 C 1.04395 0.25433 -0.01703
 C142 C 1.03790 0.25193 0.03681
 C143 C 1.01732 0.24863 0.04287
 C144 C 1.01123 0.24222 0.06224
 C145 C 0.99014 0.24204 0.06230
 C146 C 0.98387 0.24833 0.04297
 N147 N 1.00052 0.25244 0.03128
 C148 C 0.96321 0.25131 0.03709
 C149 C 0.95670 0.25415 0.01665
 C150 C 0.93677 0.25869 0.01077
 C151 C 0.93660 0.25888 -0.01026
 C152 C 0.95645 0.25442 -0.01657
 N153 N 0.96863 0.25140 -0.00007
 C154 C 0.96268 0.25187 -0.03718
 C155 C 0.98329 0.24868 -0.04327
 C156 C 0.98936 0.24241 -0.06270
 C157 C 1.01045 0.24226 -0.06278
 C158 C 1.01678 0.24846 -0.04341
 N159 N 1.00011 0.25245 -0.03169
 C160 C 1.03748 0.25145 -0.03753
 H161 H 1.07696 0.26183 -0.02085
 H162 H 1.07719 0.26212 0.01957
 H163 H 1.00022 0.25956 -0.01746
 H164 H 1.02098 0.23827 0.07509
 H165 H 0.98052 0.23792 0.07519
 H166 H 0.92366 0.26135 0.02061
 H167 H 0.92333 0.26170 -0.01983
 H168 H 1.02004 0.23826 -0.07573
 H169 H 1.00041 0.25969 0.01712
 H170 H 0.97960 0.23854 -0.07556
 C171 C 0.48974 0.75003 0.56470
 C172 C 0.51073 0.75133 0.56461
 C173 C 0.51675 0.75166 0.54420
 N174 N 0.50010 0.75068 0.53191
 C175 C 0.48355 0.74969 0.54434
 C176 C 0.53736 0.75218 0.53746
 C177 C 0.54371 0.75162 0.51668
 C178 C 0.56390 0.74905 0.51043
 C179 C 0.56384 0.74882 0.48938
 C180 C 0.54361 0.75128 0.48320
 N181 N 0.53150 0.75335 0.49996
 C182 C 0.53715 0.75148 0.46245
 C183 C 0.51649 0.75118 0.45586
 C184 C 0.51030 0.75086 0.43551
 C185 C 0.48928 0.74992 0.43560
 C186 C 0.48326 0.74973 0.45600
 N187 N 0.49992 0.75049 0.46829
 C188 C 0.46265 0.74949 0.46275
 C189 C 0.45632 0.74986 0.48354
 C190 C 0.43614 0.75245 0.48984
 C191 C 0.43621 0.75232 0.51089
 C192 C 0.45642 0.74968 0.51703
 N193 N 0.46853 0.74783 0.50024
 C194 C 0.46289 0.74916 0.53777
 H195 H 0.48014 0.74954 0.57823
 H196 H 0.52045 0.75182 0.57806
 H197 H 0.48390 0.74389 0.50017
 H198 H 0.57732 0.74721 0.52003
 H199 H 0.57720 0.74680 0.47974
 H200 H 0.51991 0.75117 0.42197
 H201 H 0.47957 0.74955 0.42214
 H202 H 0.42285 0.75425 0.52057
 H203 H 0.51610 0.75719 0.49999
 H204 H 0.42273 0.75448 0.48027
 C205 C -0.01063 0.74254 -0.06410
 C206 C 0.01041 0.74244 -0.06406
 C207 C 0.01650 0.74671 -0.04410
 N208 N -0.00015 0.74957 -0.03207
 C209 C -0.01677 0.74688 -0.04417
 C210 C 0.03707 0.74913 -0.03764
 C211 C 0.04302 0.75213 -0.01697
 C212 C 0.06247 0.75820 -0.01068
 C213 C 0.06232 0.75840 0.01040
 C214 C 0.04281 0.75241 0.01649
 N215 N 0.03122 0.74849 -0.00028
 C216 C 0.03666 0.74969 0.03711
 C217 C 0.01613 0.74695 0.04346
 C218 C 0.01007 0.74265 0.06339
 C219 C -0.01098 0.74240 0.06336
 C220 C -0.01711 0.74663 0.04341
 N221 N -0.00049 0.74953 0.03135
 C222 C -0.03767 0.74908 0.03696
 C223 C -0.04358 0.75230 0.01630
 C224 C -0.06296 0.75854 0.01006
 C225 C -0.06286 0.75871 -0.01101
 C226 C -0.04341 0.75255 -0.01717
 N227 N -0.03182 0.74858 -0.00041
 C228 C -0.03734 0.74955 -0.03781
 H229 H -0.02031 0.73996 -0.07735
 H230 H 0.02012 0.73979 -0.07727
 H231 H -0.01760 0.74147 -0.00041
 H232 H 0.07546 0.76205 -0.02031
 H233 H 0.07516 0.76242 0.02014
 H234 H 0.01978 0.74017 0.07663
 H235 H -0.02066 0.73970 0.07657
 H236 H -0.07574 0.76270 -0.02071
 H237 H 0.01685 0.74166 -0.00031
 H238 H -0.07593 0.76239 0.01970
 C239 C 0.48942 0.24937 0.43553
 C240 C 0.51044 0.25022 0.43558
 C241 C 0.51651 0.25035 0.45598
 N242 N 0.49987 0.24963 0.46830
 C243 C 0.48327 0.24903 0.45589
 C244 C 0.53713 0.25046 0.46269
 C245 C 0.54351 0.25008 0.48346
 C246 C 0.56370 0.24743 0.48972
 C247 C 0.56369 0.24761 0.51077
 C248 C 0.54350 0.25034 0.51695
 N249 N 0.53136 0.25218 0.50018
 C250 C 0.53709 0.25094 0.53771
 C251 C 0.51643 0.25048 0.54432
 C252 C 0.51028 0.25015 0.56468
 C253 C 0.48928 0.24895 0.56463
 C254 C 0.48322 0.24865 0.54424
 N255 N 0.49986 0.24957 0.53192
 C256 C 0.46259 0.24824 0.53753
 C257 C 0.45620 0.24881 0.51677
 C258 C 0.43601 0.25149 0.51056
 C259 C 0.43602 0.25167 0.48951
 C260 C 0.45621 0.24907 0.48329
 N261 N 0.46836 0.24697 0.50002
 C262 C 0.46262 0.24877 0.46252
 H263 H 0.47978 0.24913 0.42202
 H264 H 0.52013 0.25059 0.42211
 H265 H 0.48373 0.24302 0.50003
 H266 H 0.57708 0.24535 0.48012
 H267 H 0.57706 0.24566 0.52042
 H268 H 0.51991 0.25059 0.57820
 H269 H 0.47959 0.24850 0.57810
 H270 H 0.42264 0.25375 0.47989
 H271 H 0.51599 0.25616 0.50014
 H272 H 0.42262 0.25343 0.52019
 C273 C 1.06530 -0.01056 0.25125
 C274 C 1.06527 0.01040 0.25244
 C275 C 1.04486 0.01650 0.25266
 N276 N 1.03252 -0.00012 0.25175
 C277 C 1.04491 -0.01672 0.25090
 C278 C 1.03817 0.03715 0.25297
 C279 C 1.01734 0.04350 0.25222
 C280 C 1.01105 0.06364 0.24938
 C281 C 0.99000 0.06358 0.24923
 C282 C 0.98383 0.04342 0.25194
 N283 N 1.00061 0.03133 0.25409
 C284 C 0.96306 0.03700 0.25232
 C285 C 0.95642 0.01638 0.25215
 C286 C 0.93605 0.01025 0.25188
 C287 C 0.93608 -0.01073 0.25106
 C288 C 0.95647 -0.01680 0.25091
 N289 N 0.96882 -0.00019 0.25156
 C290 C 0.96317 -0.03740 0.25085
 C291 C 0.98395 -0.04377 0.25130
 C292 C 0.99017 -0.06392 0.25404
 C293 C 1.01121 -0.06395 0.25385
 C294 C 1.01746 -0.04378 0.25107
 N295 N 1.00070 -0.03164 0.24918
 C296 C 1.03827 -0.03738 0.25045
 H297 H 1.07882 -0.02018 0.25083
 H298 H 1.07876 0.02005 0.25289
 H299 H 1.00069 -0.01631 0.24515
 H300 H 1.02065 0.07703 0.24737
 H301 H 0.98035 0.07692 0.24712
 H302 H 0.92253 0.01989 0.25215
 H303 H 0.92259 -0.02041 0.25074
 H304 H 1.02083 -0.07732 0.25583
 H305 H 1.00062 0.01599 0.25812
 H306 H 0.98055 -0.07726 0.25620
 C307 C 0.48951 0.56428 0.75199
 C308 C 0.51051 0.56429 0.75317
 C309 C 0.51664 0.54394 0.75342
 N310 N 0.50004 0.53157 0.75250
 C311 C 0.48342 0.54391 0.75164
 C312 C 0.53728 0.53730 0.75379
 C313 C 0.54370 0.51656 0.75312
 C314 C 0.56388 0.51040 0.75030
 C315 C 0.56390 0.48936 0.75008
 C316 C 0.54373 0.48310 0.75279
 N317 N 0.53157 0.49980 0.75498
 C318 C 0.53737 0.46234 0.75312
 C319 C 0.51674 0.45565 0.75297
 C320 C 0.51065 0.43529 0.75274
 C321 C 0.48963 0.43527 0.75192
 C322 C 0.48350 0.45563 0.75171
 N323 N 0.50011 0.46799 0.75235
 C324 C 0.46286 0.46227 0.75156
 C325 C 0.45644 0.48302 0.75192
 C326 C 0.43625 0.48923 0.75455
 C327 C 0.43622 0.51027 0.75441
 C328 C 0.45641 0.51648 0.75172
 N329 N 0.46858 0.49975 0.74985
 C330 C 0.46279 0.53723 0.75118
 H331 H 0.47984 0.57775 0.75158
 H332 H 0.52016 0.57778 0.75363
 H333 H 0.48395 0.49976 0.74589
 H334 H 0.57724 0.52004 0.74831
 H335 H 0.57728 0.47978 0.74790
 H336 H 0.52033 0.42181 0.75301
 H337 H 0.47998 0.42178 0.75161
 H338 H 0.42284 0.51988 0.75638
 H339 H 0.51623 0.49976 0.75904
 H340 H 0.42288 0.47962 0.75662
 C341 C 0.93627 0.98926 0.74865
 C342 C 0.93624 1.01022 0.74738
 C343 C 0.95661 1.01636 0.74731
 N344 N 0.96901 0.99982 0.74841
 C345 C 0.95667 0.98321 0.74923
 C346 C 0.96323 1.03698 0.74702
 C347 C 0.98397 1.04341 0.74786
 C348 C 0.99005 1.06356 0.75088
 C349 C 1.01109 1.06364 0.75117
 C350 C 1.01747 1.04353 0.74829
 N351 N 1.00079 1.03136 0.74595
 C352 C 1.03831 1.03724 0.74785
 C353 C 1.04505 1.01661 0.74790
 C354 C 1.06546 1.01053 0.74793
 C355 C 1.06552 0.98955 0.74875
 C356 C 1.04513 0.98337 0.74915
 N357 N 1.03273 0.99996 0.74864
 C358 C 1.03850 0.96270 0.74938
 C359 C 1.01768 0.95628 0.74912
 C360 C 1.01140 0.93607 0.74668
 C361 C 0.99036 0.93607 0.74687
 C362 C 0.98416 0.95625 0.74939
 N363 N 1.00092 0.96842 0.75110
 C364 C 0.96337 0.96262 0.74989
 H365 H 0.92279 0.97958 0.74898
 H366 H 0.92272 1.01984 0.74675
 H367 H 1.00092 0.98382 0.75484
 H368 H 0.98034 1.07686 0.75295
 H369 H 1.02062 1.07703 0.75348
 H370 H 1.07894 1.02021 0.74752
 H371 H 1.07905 0.97994 0.74891
 H372 H 0.98072 0.92269 0.74504
 H373 H 1.00088 1.01607 0.74171
 H374 H 1.02101 0.92269 0.74469
 C375 C 0.43530 0.48939 0.24806
 C376 C 0.43528 0.51037 0.24687
 C377 C 0.45566 0.51649 0.24663
 N378 N 0.46804 0.49991 0.24756
 C379 C 0.45569 0.48332 0.24843
 C380 C 0.46231 0.53710 0.24625
 C381 C 0.48307 0.54351 0.24689
 C382 C 0.48923 0.56368 0.24968
 C383 C 0.51029 0.56371 0.24984
 C384 C 0.51656 0.54357 0.24714
 N385 N 0.49984 0.53141 0.24501
 C386 C 0.53735 0.53722 0.24677
 C387 C 0.54405 0.51662 0.24703
 C388 C 0.56444 0.51054 0.24733
 C389 C 0.56447 0.48956 0.24826
 C390 C 0.54409 0.48343 0.24846
 N391 N 0.53170 0.50001 0.24772
 C392 C 0.53744 0.46281 0.24864
 C393 C 0.51667 0.45641 0.24820
 C394 C 0.51047 0.43624 0.24549
 C395 C 0.48941 0.43622 0.24558
 C396 C 0.48317 0.45636 0.24833
 N397 N 0.49991 0.46852 0.25027
 C398 C 0.46239 0.46272 0.24887
 H399 H 0.42181 0.47973 0.24846
 H400 H 0.42177 0.52000 0.24640
 H401 H 0.49990 0.48385 0.25431
 H402 H 0.47957 0.57702 0.25169
 H403 H 0.51988 0.57708 0.25198
 H404 H 0.57793 0.52022 0.24702
 H405 H 0.57798 0.47992 0.24863
 H406 H 0.47979 0.42285 0.24355
 H407 H 0.49989 0.51607 0.24097
 H408 H 0.52010 0.42290 0.24338
 O409 O 0.24981 0.19649 0.22135
 O410 O 0.27189 0.19054 0.24994
 O411 O 0.19625 0.22183 0.25052
 O412 O 0.18876 0.24854 0.27029
 O413 O 0.22154 0.25013 0.19606
 O414 O 0.25016 0.27223 0.19029
 O415 O 0.25050 0.27817 0.30256
 O416 O 0.22638 0.25161 0.30809
 O417 O 0.30267 0.25015 0.27790
 O418 O 0.30937 0.22738 0.24911
 O419 O 0.27820 0.30265 0.25009
 O420 O 0.24887 0.30896 0.22677
 O421 O 0.25063 0.30274 0.27779
 O422 O 0.22723 0.30908 0.24862
 O423 O 0.30278 0.27790 0.25028
 O424 O 0.30849 0.24813 0.22647
 O425 O 0.27800 0.25072 0.30260
 O426 O 0.24967 0.22717 0.30885
 O427 O 0.25026 0.22102 0.19649
 O428 O 0.27291 0.24959 0.19068
 O429 O 0.19671 0.25016 0.22064
 O430 O 0.19212 0.27433 0.24914
 O431 O 0.22076 0.19694 0.25019
 O432 O 0.24929 0.19112 0.27277
 Zr433 Zr 0.24867 0.21313 0.24899
 O434 O 0.26801 0.23063 0.26798
 Zr435 Zr 0.21290 0.24938 0.24861
 O436 O 0.23056 0.26832 0.26798
 Zr437 Zr 0.24916 0.24890 0.21275
 O438 O 0.26828 0.26813 0.23032
 Zr439 Zr 0.25024 0.25045 0.28614
 O440 O 0.23063 0.23128 0.26873
 Zr441 Zr 0.28629 0.25018 0.25009
 O442 O 0.26878 0.23074 0.23085
 Zr443 Zr 0.25036 0.28634 0.24999
 O444 O 0.23107 0.26893 0.23046
 O445 O 0.22982 0.23011 0.22973
 O446 O 0.26955 0.26954 0.26925
 C447 C 0.25054 0.20230 0.20255
 C448 C 0.20205 0.20303 0.25095
 C449 C 0.20274 0.25062 0.20190
 C450 C 0.25066 0.29689 0.29658
 C451 C 0.29676 0.25046 0.29667
 C452 C 0.29694 0.29666 0.25025
 H453 H 0.27650 0.22130 0.27637
 H454 H 0.27678 0.27654 0.22101
 H455 H 0.22102 0.22130 0.22103
 H456 H 0.22139 0.27676 0.27661
 H457 H 0.21588 0.24156 0.30369
 H458 H 0.19331 0.25639 0.28244
 H459 H 0.30644 0.25988 0.21711
 H460 H 0.28359 0.23994 0.19549
 H461 H 0.26038 0.21697 0.30552
 H462 H 0.23978 0.19609 0.28352
 H463 H 0.25991 0.30608 0.21677
 H464 H 0.24103 0.28332 0.19520
 H465 H 0.28297 0.19535 0.24074
 H466 H 0.30566 0.21663 0.25913
 H467 H 0.19644 0.28393 0.23821
 H468 H 0.21723 0.30624 0.25966
 O469 O 0.74975 0.80346 0.22100
 O470 O 0.72770 0.80947 0.24963
 O471 O 0.80331 0.77807 0.25015
 O472 O 0.81087 0.75131 0.26985
 O473 O 0.77788 0.74970 0.19574
 O474 O 0.74913 0.72770 0.19004
 O475 O 0.74912 0.72191 0.30234
 O476 O 0.77328 0.74847 0.30781
 O477 O 0.69694 0.74987 0.27779
 O478 O 0.69014 0.77263 0.24904
 O479 O 0.72133 0.69737 0.24997
 O480 O 0.75050 0.69101 0.22658
 O481 O 0.74893 0.69729 0.27761
 O482 O 0.77229 0.69093 0.24833
 O483 O 0.69674 0.72212 0.25008
 O484 O 0.69100 0.75194 0.22636
 O485 O 0.72168 0.74942 0.30241
 O486 O 0.75009 0.77289 0.30859
 O487 O 0.74924 0.77889 0.19618
 O488 O 0.72647 0.75036 0.19049
 O489 O 0.80277 0.74972 0.22025
 O490 O 0.80737 0.72556 0.24879
 O491 O 0.77884 0.80300 0.24982
 O492 O 0.75033 0.80890 0.27243
 Zr493 Zr 0.75090 0.78686 0.24867
 O494 O 0.73159 0.76941 0.26775
 Zr495 Zr 0.78664 0.75055 0.24826
 O496 O 0.76901 0.73167 0.26771
 Zr497 Zr 0.75029 0.75104 0.21248
 O498 O 0.73120 0.73187 0.23014
 Zr499 Zr 0.74938 0.74960 0.28589
 O500 O 0.76897 0.76872 0.26839
 Zr501 Zr 0.71324 0.74985 0.24993
 O502 O 0.73073 0.76924 0.23061
 Zr503 Zr 0.74916 0.71366 0.24979
 O504 O 0.76840 0.73101 0.23018
 O505 O 0.76970 0.76982 0.22939
 O506 O 0.73002 0.73050 0.26907
 C507 C 0.74900 0.79762 0.20221
 C508 C 0.79754 0.79688 0.25057
 C509 C 0.79669 0.74920 0.20152
 C510 C 0.74893 0.70317 0.29639
 C511 C 0.70290 0.74962 0.29653
 C512 C 0.70259 0.70336 0.25008
 H513 H 0.72314 0.77876 0.27615
 H514 H 0.72267 0.72346 0.22086
 H515 H 0.77849 0.77860 0.22068
 H516 H 0.77818 0.72324 0.27634
 H517 H 0.78385 0.75839 0.30330
 H518 H 0.80632 0.74353 0.28204
 H519 H 0.69306 0.74023 0.21694
 H520 H 0.71585 0.76008 0.19531
 H521 H 0.73943 0.78313 0.30526
 H522 H 0.75988 0.80396 0.28315
 H523 H 0.73943 0.69390 0.21662
 H524 H 0.75827 0.71660 0.19491
 H525 H 0.71662 0.80468 0.24042
 H526 H 0.69397 0.78346 0.25894
 H527 H 0.80305 0.71598 0.23784
 H528 H 0.78224 0.69369 0.25945
 O529 O 0.75006 0.19674 0.77858
 O530 O 0.72776 0.19098 0.75006
 O531 O 0.80370 0.22157 0.74907
 O532 O 0.81136 0.24828 0.72924
 O533 O 0.77895 0.25023 0.80361
 O534 O 0.75053 0.27251 0.80951
 O535 O 0.74968 0.27827 0.69719
 O536 O 0.77352 0.25148 0.69154
 O537 O 0.69740 0.25083 0.72217
 O538 O 0.69091 0.22781 0.75121
 O539 O 0.72245 0.30305 0.74981
 O540 O 0.75184 0.30928 0.77281
 O541 O 0.74987 0.30289 0.72191
 O542 O 0.77360 0.30894 0.75107
 O543 O 0.69767 0.27850 0.74986
 O544 O 0.69163 0.24899 0.77344
 O545 O 0.72196 0.25104 0.69735
 O546 O 0.75013 0.22725 0.69098
 O547 O 0.75004 0.22132 0.80340
 O548 O 0.72758 0.25009 0.80922
 O549 O 0.80365 0.24998 0.77891
 O550 O 0.80833 0.27401 0.75032
 O551 O 0.77899 0.19688 0.74962
 O552 O 0.75033 0.19121 0.72720
 Zr553 Zr 0.75123 0.21332 0.75089
 O554 O 0.73196 0.23093 0.73193
 Zr555 Zr 0.78731 0.24927 0.75101
 O556 O 0.76972 0.26831 0.73168
 Zr557 Zr 0.75125 0.24915 0.78707
 O558 O 0.73221 0.26848 0.76954
 Zr559 Zr 0.74980 0.25057 0.71365
 O560 O 0.76933 0.23127 0.73102
 Zr561 Zr 0.71393 0.25065 0.74990
 O562 O 0.73138 0.23113 0.76911
 Zr563 Zr 0.75016 0.28652 0.74974
 O564 O 0.76940 0.26900 0.76922
 O565 O 0.77033 0.23017 0.77002
 O566 O 0.73074 0.26984 0.73061
 C567 C 0.74952 0.20259 0.79738
 C568 C 0.79775 0.20282 0.74877
 C569 C 0.79772 0.25056 0.79768
 C570 C 0.74971 0.29701 0.70314
 C571 C 0.70322 0.25102 0.70337
 C572 C 0.70367 0.29721 0.74983
 H573 H 0.72337 0.22166 0.72359
 H574 H 0.72383 0.27698 0.77888
 H575 H 0.77910 0.22132 0.77869
 H576 H 0.77891 0.27665 0.72299
 H577 H 0.78403 0.24145 0.69595
 H578 H 0.80677 0.25606 0.71706
 H579 H 0.69419 0.26039 0.78311
 H580 H 0.71685 0.24044 0.80451
 H581 H 0.73929 0.21719 0.69430
 H582 H 0.75971 0.19615 0.71633
 H583 H 0.74102 0.30634 0.78303
 H584 H 0.75974 0.28351 0.80456
 H585 H 0.71678 0.19591 0.75932
 H586 H 0.69408 0.21742 0.74062
 H587 H 0.80417 0.28367 0.76127
 H588 H 0.78339 0.30613 0.73983
 O589 O 0.25029 0.80308 0.77907
 O590 O 0.27251 0.80896 0.75048
 O591 O 0.19662 0.77820 0.74953
 O592 O 0.18892 0.75152 0.72981
 O593 O 0.22159 0.74955 0.80403
 O594 O 0.25012 0.72714 0.80971
 O595 O 0.25051 0.72168 0.69749
 O596 O 0.22656 0.74857 0.69203
 O597 O 0.30284 0.74926 0.72227
 O598 O 0.30906 0.77255 0.75175
 O599 O 0.27802 0.69691 0.74988
 O600 O 0.24892 0.69052 0.77301
 O601 O 0.25046 0.69705 0.72219
 O602 O 0.22684 0.69099 0.75153
 O603 O 0.30278 0.72149 0.74989
 O604 O 0.30924 0.75059 0.77319
 O605 O 0.27820 0.74899 0.69754
 O606 O 0.25012 0.77267 0.69126
 O607 O 0.25046 0.77844 0.80382
 O608 O 0.27292 0.74978 0.80957
 O609 O 0.19682 0.74980 0.77940
 O610 O 0.19219 0.72569 0.75075
 O611 O 0.22127 0.80294 0.75010
 O612 O 0.24991 0.80877 0.72773
 Zr613 Zr 0.24909 0.78657 0.75132
 O614 O 0.26832 0.76903 0.73223
 Zr615 Zr 0.21308 0.75055 0.75146
 O616 O 0.23064 0.73157 0.73205
 Zr617 Zr 0.24925 0.75066 0.78742
 O618 O 0.26828 0.73143 0.76979
 Zr619 Zr 0.25044 0.74938 0.71397
 O620 O 0.23097 0.76863 0.73146
 Zr621 Zr 0.28645 0.74931 0.75009
 O622 O 0.26903 0.76873 0.76944
 Zr623 Zr 0.25029 0.71339 0.75003
 O624 O 0.23107 0.73082 0.76959
 O625 O 0.23008 0.76964 0.77047
 O626 O 0.26961 0.73013 0.73083
 C627 C 0.25089 0.79719 0.79786
 C628 C 0.20253 0.79696 0.74922
 C629 C 0.20280 0.74922 0.79815
 C630 C 0.25053 0.70294 0.70342
 C631 C 0.29695 0.74907 0.70350
 C632 C 0.29680 0.70276 0.74982
 H633 H 0.27686 0.77833 0.72388
 H634 H 0.27673 0.72294 0.77907
 H635 H 0.22131 0.77848 0.77916
 H636 H 0.22142 0.72322 0.72338
 H637 H 0.21617 0.75872 0.69646
 H638 H 0.19352 0.74387 0.71756
 H639 H 0.30619 0.73976 0.78334
 H640 H 0.28372 0.75929 0.80473
 H641 H 0.26072 0.78291 0.69476
 H642 H 0.24049 0.80389 0.71687
 H643 H 0.25964 0.69362 0.78329
 H644 H 0.24071 0.71627 0.80485
 H645 H 0.28353 0.80404 0.75968
 H646 H 0.30635 0.78248 0.74062
 H647 H 0.19629 0.71613 0.76180
 H648 H 0.21713 0.69363 0.74018
 O649 O 0.24894 0.30333 0.72188
 O650 O 0.22685 0.30927 0.75045
 O651 O 0.30258 0.27821 0.75127
 O652 O 0.31010 0.25153 0.77110
 O653 O 0.27763 0.24978 0.69678
 O654 O 0.24916 0.22754 0.69092
 O655 O 0.24831 0.22183 0.80315
 O656 O 0.27226 0.24842 0.80884
 O657 O 0.19616 0.24962 0.77829
 O658 O 0.18986 0.27273 0.74908
 O659 O 0.22085 0.19722 0.75057
 O660 O 0.25019 0.19080 0.72755
 O661 O 0.24831 0.19721 0.77842
 O662 O 0.27195 0.19100 0.74925
 O663 O 0.19620 0.22190 0.75065
 O664 O 0.19018 0.25133 0.72712
 O665 O 0.22075 0.24922 0.80307
 O666 O 0.24906 0.27286 0.80937
 O667 O 0.24876 0.27876 0.69705
 O668 O 0.22630 0.25016 0.69114
 O669 O 0.30234 0.24985 0.72148
 O670 O 0.30683 0.22568 0.75002
 O671 O 0.27801 0.30304 0.75075
 O672 O 0.24937 0.30883 0.77327
 Zr673 Zr 0.25015 0.28676 0.74954
 O674 O 0.23078 0.26925 0.76849
 Zr675 Zr 0.28603 0.25061 0.74935
 O676 O 0.26834 0.23166 0.76867
 Zr677 Zr 0.24993 0.25093 0.71333
 O678 O 0.23078 0.23172 0.73084
 Zr679 Zr 0.24855 0.24951 0.78672
 O680 O 0.26818 0.26871 0.76938
 Zr681 Zr 0.21263 0.24964 0.75053
 O682 O 0.23019 0.26906 0.73133
 Zr683 Zr 0.24866 0.21358 0.75061
 O684 O 0.26800 0.23099 0.73115
 O685 O 0.26913 0.26981 0.73037
 O686 O 0.22936 0.23036 0.76979
 C687 C 0.24831 0.29748 0.70310
 C688 C 0.29674 0.29700 0.75159
 C689 C 0.29640 0.24934 0.70271
 C690 C 0.24821 0.20310 0.79719
 C691 C 0.20202 0.24939 0.79708
 C692 C 0.20210 0.20315 0.75064
 H693 H 0.22225 0.27856 0.77684
 H694 H 0.22234 0.22328 0.72150
 H695 H 0.27791 0.27863 0.72169
 H696 H 0.27750 0.22326 0.77735
 H697 H 0.28287 0.25833 0.80439
 H698 H 0.30555 0.24366 0.78323
 H699 H 0.19273 0.23999 0.71738
 H700 H 0.21549 0.25964 0.69601
 H701 H 0.23831 0.28300 0.80602
 H702 H 0.25894 0.30398 0.78401
 H703 H 0.23945 0.19386 0.71729
 H704 H 0.25834 0.21653 0.69589
 H705 H 0.21579 0.30443 0.74123
 H706 H 0.19296 0.28298 0.75981
 H707 H 0.30270 0.21616 0.73894
 H708 H 0.28178 0.19376 0.76047
 O709 O 0.75094 0.69671 0.72184
 O710 O 0.77296 0.69066 0.75042
 O711 O 0.69722 0.72169 0.75109
 O712 O 0.68961 0.74833 0.77098
 O713 O 0.72242 0.75039 0.69680
 O714 O 0.75101 0.77254 0.69108
 O715 O 0.75119 0.77793 0.80341
 O716 O 0.72722 0.75123 0.80883
 O717 O 0.80351 0.75035 0.77866
 O718 O 0.80990 0.72724 0.74932
 O719 O 0.77887 0.80277 0.75101
 O720 O 0.74963 0.80922 0.72788
 O721 O 0.75131 0.80262 0.77876
 O722 O 0.72779 0.80893 0.74947
 O723 O 0.80356 0.77812 0.75104
 O724 O 0.80977 0.74887 0.72756
 O725 O 0.77882 0.75060 0.80334
 O726 O 0.75057 0.72693 0.80948
 O727 O 0.75117 0.72136 0.69709
 O728 O 0.77382 0.74996 0.69144
 O729 O 0.69759 0.75018 0.72137
 O730 O 0.69292 0.77420 0.75000
 O731 O 0.72183 0.69689 0.75062
 O732 O 0.75041 0.69108 0.77323
 Zr733 Zr 0.74969 0.71319 0.74955
 O734 O 0.76896 0.73066 0.76864
 Zr735 Zr 0.71377 0.74931 0.74933
 O736 O 0.73135 0.76821 0.76879
 Zr737 Zr 0.75003 0.74914 0.71347
 O738 O 0.76907 0.76832 0.73113
 Zr739 Zr 0.75108 0.75031 0.78687
 O740 O 0.73155 0.73115 0.76937
 Zr741 Zr 0.78716 0.75036 0.75082
 O742 O 0.76972 0.73097 0.73148
 Zr743 Zr 0.75109 0.78637 0.75088
 O744 O 0.73187 0.76900 0.73127
 O745 O 0.73077 0.73019 0.73036
 O746 O 0.77033 0.76955 0.77008
 C747 C 0.75157 0.70262 0.70307
 C748 C 0.70310 0.70291 0.75140
 C749 C 0.70363 0.75079 0.70265
 C750 C 0.75131 0.79667 0.79751
 C751 C 0.79758 0.75051 0.79742
 C752 C 0.79764 0.79686 0.75109
 H753 H 0.77747 0.72132 0.77699
 H754 H 0.77753 0.77680 0.72186
 H755 H 0.72200 0.72141 0.72162
 H756 H 0.72214 0.77658 0.77745
 H757 H 0.71673 0.74120 0.80434
 H758 H 0.69415 0.75608 0.78319
 H759 H 0.80698 0.75998 0.71763
 H760 H 0.78447 0.74026 0.69620
 H761 H 0.76132 0.71678 0.80612
 H762 H 0.74080 0.69591 0.78396
 H763 H 0.76044 0.80621 0.71767
 H764 H 0.74181 0.78357 0.69599
 H765 H 0.78409 0.69559 0.74135
 H766 H 0.80692 0.71708 0.76018
 H767 H 0.69717 0.78384 0.73907
 H768 H 0.71799 0.80624 0.76073
 O769 O 0.24893 0.69676 0.27802
 O770 O 0.22677 0.69099 0.24948
 O771 O 0.30270 0.72156 0.24867
 O772 O 0.31044 0.74825 0.22895
 O773 O 0.27786 0.75012 0.30321
 O774 O 0.24945 0.77248 0.30908
 O775 O 0.24893 0.77833 0.19681
 O776 O 0.27274 0.75148 0.19120
 O777 O 0.19654 0.75093 0.22158
 O778 O 0.19026 0.72758 0.25105
 O779 O 0.22153 0.80309 0.24937
 O780 O 0.25072 0.80940 0.27233
 O781 O 0.24901 0.80291 0.22157
 O782 O 0.27277 0.80882 0.25088
 O783 O 0.19670 0.77858 0.24927
 O784 O 0.19021 0.74946 0.27252
 O785 O 0.22115 0.75115 0.19682
 O786 O 0.24920 0.72739 0.19045
 O787 O 0.24891 0.72130 0.30288
 O788 O 0.22647 0.74999 0.30872
 O789 O 0.30260 0.74989 0.27855
 O790 O 0.30732 0.77403 0.24998
 O791 O 0.27796 0.69690 0.24912
 O792 O 0.24929 0.69132 0.22663
 Zr793 Zr 0.25020 0.71335 0.25037
 O794 O 0.23098 0.73101 0.23140
 Zr795 Zr 0.28633 0.74926 0.25064
 O796 O 0.26879 0.76834 0.23131
 Zr797 Zr 0.25019 0.74914 0.28662
 O798 O 0.23120 0.76850 0.26910
 Zr799 Zr 0.24892 0.75063 0.21321
 O800 O 0.26838 0.73129 0.23058
 Zr801 Zr 0.21295 0.75073 0.24937
 O802 O 0.23034 0.73118 0.26859
 Zr803 Zr 0.24922 0.78653 0.24936
 O804 O 0.26841 0.76898 0.26885
 O805 O 0.26928 0.73016 0.26958
 O806 O 0.22984 0.76990 0.23014
 C807 C 0.24839 0.70259 0.29681
 C808 C 0.29672 0.70282 0.24829
 C809 C 0.29663 0.75044 0.29731
 C810 C 0.24894 0.79705 0.20279
 C811 C 0.20241 0.75113 0.20281
 C812 C 0.20273 0.79729 0.24928
 H813 H 0.22239 0.72175 0.22305
 H814 H 0.22281 0.77699 0.27843
 H815 H 0.27802 0.72127 0.27824
 H816 H 0.27803 0.77668 0.22265
 H817 H 0.28316 0.74134 0.19559
 H818 H 0.30586 0.75598 0.21673
 H819 H 0.19328 0.76029 0.28266
 H820 H 0.21567 0.74051 0.30383
 H821 H 0.23855 0.71719 0.19390
 H822 H 0.25883 0.69616 0.21586
 H823 H 0.24016 0.80622 0.28274
 H824 H 0.25876 0.78343 0.30420
 H825 H 0.21566 0.69603 0.25851
 H826 H 0.19279 0.71775 0.23979
 H827 H 0.30326 0.78359 0.26105
 H828 H 0.28241 0.80621 0.23946
 O829 O 0.75071 0.30307 0.27835
 O830 O 0.77278 0.30909 0.24980
 O831 O 0.69706 0.27803 0.24902
 O832 O 0.68946 0.25134 0.22922
 O833 O 0.72221 0.24949 0.30342
 O834 O 0.75074 0.22730 0.30923
 O835 O 0.75120 0.22171 0.19692
 O836 O 0.72718 0.24836 0.19137
 O837 O 0.80340 0.24938 0.22170
 O838 O 0.81028 0.27193 0.25044
 O839 O 0.77864 0.19689 0.24944
 O840 O 0.74945 0.19046 0.27240
 O841 O 0.75123 0.19705 0.22160
 O842 O 0.72747 0.19093 0.25091
 O843 O 0.80334 0.22153 0.24930
 O844 O 0.80905 0.25134 0.27324
 O845 O 0.77875 0.24911 0.19698
 O846 O 0.75047 0.27272 0.19076
 O847 O 0.75101 0.27845 0.30313
 O848 O 0.77360 0.24978 0.30884
 O849 O 0.69741 0.24962 0.27882
 O850 O 0.69275 0.22554 0.25022
 O851 O 0.72164 0.30284 0.24949
 O852 O 0.75028 0.30863 0.22694
 Zr853 Zr 0.74950 0.28655 0.25065
 O854 O 0.76881 0.26904 0.23164
 Zr855 Zr 0.71361 0.25042 0.25087
 O856 O 0.73121 0.23149 0.23146
 Zr857 Zr 0.74984 0.25066 0.28678
 O858 O 0.76888 0.23141 0.26919
 Zr859 Zr 0.75098 0.24936 0.21340
 O860 O 0.73141 0.26855 0.23083
 Zr861 Zr 0.78699 0.24935 0.24949
 O862 O 0.76954 0.26881 0.26875
 Zr863 Zr 0.75090 0.21335 0.24945
 O864 O 0.73168 0.23076 0.26901
 O865 O 0.73058 0.26958 0.26984
 O866 O 0.77018 0.23013 0.23025
 C867 C 0.75139 0.29718 0.29713
 C868 C 0.70291 0.29681 0.24867
 C869 C 0.70342 0.24907 0.29756
 C870 C 0.75132 0.20297 0.20285
 C871 C 0.79751 0.24922 0.20294
 C872 C 0.79740 0.20279 0.24934
 H873 H 0.77734 0.27836 0.22330
 H874 H 0.77733 0.22295 0.27849
 H875 H 0.72181 0.27838 0.27855
 H876 H 0.72202 0.22312 0.22279
 H877 H 0.71665 0.25837 0.19581
 H878 H 0.69404 0.24363 0.21700
 H879 H 0.80711 0.23944 0.28244
 H880 H 0.78426 0.25951 0.30412
 H881 H 0.76118 0.28289 0.19414
 H882 H 0.74068 0.30380 0.21621
 H883 H 0.76000 0.19368 0.28281
 H884 H 0.74144 0.21632 0.30439
 H885 H 0.78384 0.30422 0.25900
 H886 H 0.80645 0.28288 0.24069
 H887 H 0.69697 0.21593 0.26118
 H888 H 0.71786 0.19345 0.23944
 C889 C 0.25183 0.05232 0.05248
 C890 C 0.25192 0.06528 0.06567
 C891 C 0.25202 0.08077 0.08138
 C892 C 0.25264 0.10151 0.07598
 C893 C 0.25276 0.11659 0.09121
 C894 C 0.25222 0.11111 0.11208
 C895 C 0.25157 0.09020 0.11735
 C896 C 0.25149 0.07515 0.10208
 C897 C 0.25225 0.12713 0.12825
 C898 C 0.23950 0.12528 0.14556
 C899 C 0.23936 0.14049 0.16067
 C900 C 0.25199 0.15772 0.15871
 C901 C 0.26481 0.15966 0.14161
 C902 C 0.26494 0.14449 0.12646
 C903 C 0.25166 0.17347 0.17417
 C904 C 0.25124 0.18665 0.18712
 H905 H 0.25297 0.10603 0.06000
 H906 H 0.25297 0.13255 0.08667
 H907 H 0.25139 0.08550 0.13327
 H908 H 0.25106 0.05913 0.10643
 H909 H 0.22938 0.11223 0.14725
 H910 H 0.22933 0.13886 0.17381
 H911 H 0.27470 0.17290 0.13997
 H912 H 0.27513 0.14621 0.11346
 C913 C 0.75057 0.55317 0.55286
 C914 C 0.75091 0.56621 0.56592
 C915 C 0.75134 0.58170 0.58159
 C916 C 0.75194 0.60243 0.57619
 C917 C 0.75234 0.61748 0.59143
 C918 C 0.75211 0.61196 0.61229
 C919 C 0.75152 0.59105 0.61755
 C920 C 0.75114 0.57603 0.60228
 C921 C 0.75239 0.62793 0.62848
 C922 C 0.73998 0.62594 0.64603
 C923 C 0.74011 0.64106 0.66119
 C924 C 0.75263 0.65834 0.65905
 C925 C 0.76508 0.66044 0.64170
 C926 C 0.76497 0.64534 0.62649
 C927 C 0.75252 0.67398 0.67457
 C928 C 0.75222 0.68708 0.68758
 H929 H 0.75204 0.60697 0.56020
 H930 H 0.75252 0.63345 0.58691
 H931 H 0.75159 0.58632 0.63346
 H932 H 0.75074 0.56001 0.60661
 H933 H 0.72994 0.61285 0.64787
 H934 H 0.73035 0.63934 0.67454
 H935 H 0.77486 0.67375 0.63991
 H936 H 0.77487 0.64717 0.61329
 C937 C 0.74939 0.94790 0.05235
 C938 C 0.74902 0.93492 0.06552
 C939 C 0.74860 0.91941 0.08121
 C940 C 0.75303 0.92455 0.10157
 C941 C 0.75276 0.90946 0.11680
 C942 C 0.74801 0.88901 0.11185
 C943 C 0.74351 0.88402 0.09134
 C944 C 0.74382 0.89913 0.07614
 C945 C 0.74790 0.87291 0.12798
 C946 C 0.73268 0.85761 0.12812
 C947 C 0.73271 0.84238 0.14321
 C948 C 0.74793 0.84221 0.15835
 C949 C 0.76310 0.85738 0.15837
 C950 C 0.76310 0.87264 0.14331
 C951 C 0.74808 0.82644 0.17379
 C952 C 0.74839 0.81326 0.18675
 H953 H 0.75669 0.94022 0.10568
 H954 H 0.75604 0.91383 0.13248
 H955 H 0.74007 0.86839 0.08700
 H956 H 0.74041 0.89498 0.06041
 H957 H 0.72063 0.85755 0.11670
 H958 H 0.72085 0.83074 0.14307
 H959 H 0.77500 0.85737 0.16997
 H960 H 0.77517 0.88403 0.14347
 C961 C 0.24726 0.44704 0.55299
 C962 C 0.24709 0.43410 0.56617
 C963 C 0.24687 0.41867 0.58188
 C964 C 0.24607 0.39793 0.57651
 C965 C 0.24586 0.38289 0.59176
 C966 C 0.24647 0.38843 0.61261
 C967 C 0.24727 0.40934 0.61784
 C968 C 0.24746 0.42435 0.60256
 C969 C 0.24640 0.37246 0.62880
 C970 C 0.25918 0.37434 0.64609
 C971 C 0.25930 0.35916 0.66121
 C972 C 0.24664 0.34196 0.65927
 C973 C 0.23380 0.33998 0.64219
 C974 C 0.23368 0.35513 0.62703
 C975 C 0.24702 0.32624 0.67472
 C976 C 0.24751 0.31309 0.68767
 H977 H 0.24567 0.39338 0.56053
 H978 H 0.24552 0.36693 0.58726
 H979 H 0.24751 0.41408 0.63376
 H980 H 0.24802 0.44038 0.60686
 H981 H 0.26933 0.38737 0.64775
 H982 H 0.26934 0.36080 0.67434
 H983 H 0.22391 0.32674 0.64057
 H984 H 0.22349 0.35339 0.61403
 C985 C 0.74795 0.05237 0.94738
 C986 C 0.74783 0.06537 0.93422
 C987 C 0.74769 0.08091 0.91855
 C988 C 0.74669 0.10163 0.92398
 C989 C 0.74661 0.11675 0.90879
 C990 C 0.74756 0.11135 0.88791
 C991 C 0.74856 0.09046 0.88261
 C992 C 0.74861 0.07536 0.89784
 C993 C 0.74761 0.12743 0.87176
 C994 C 0.76040 0.12558 0.85446
 C995 C 0.76057 0.14080 0.83936
 C996 C 0.74798 0.15806 0.84131
 C997 C 0.73515 0.16002 0.85841
 C998 C 0.73496 0.14482 0.87354
 C999 C 0.74834 0.17380 0.82583
 C1000 C 0.74879 0.18696 0.81285
 H1001 H 0.74604 0.10610 0.93997
 H1002 H 0.74612 0.13269 0.91339
 H1003 H 0.74904 0.08578 0.86669
 H1004 H 0.74934 0.05936 0.89346
 H1005 H 0.77051 0.11252 0.85276
 H1006 H 0.77061 0.13915 0.82622
 H1007 H 0.72530 0.17328 0.86005
 H1008 H 0.72475 0.14657 0.88652
 C1009 C 0.24944 0.55285 0.44678
 C1010 C 0.24907 0.56581 0.43362
 C1011 C 0.24862 0.58129 0.41796
 C1012 C 0.24923 0.60202 0.42338
 C1013 C 0.24881 0.61711 0.40818
 C1014 C 0.24779 0.61163 0.38733
 C1015 C 0.24716 0.59073 0.38205
 C1016 C 0.24757 0.57567 0.39728
 C1017 C 0.24748 0.62765 0.37117
 C1018 C 0.25881 0.62508 0.35299
 C1019 C 0.25868 0.64024 0.33786
 C1020 C 0.24723 0.65815 0.34068
 C1021 C 0.23585 0.66084 0.35868
 C1022 C 0.23596 0.64570 0.37384
 C1023 C 0.24737 0.67384 0.32521
 C1024 C 0.24770 0.68698 0.31224
 H1025 H 0.25010 0.60652 0.43935
 H1026 H 0.24960 0.63305 0.41272
 H1027 H 0.24610 0.58604 0.36616
 H1028 H 0.24703 0.55965 0.39294
 H1029 H 0.26805 0.61149 0.35060
 H1030 H 0.26761 0.63805 0.32401
 H1031 H 0.22691 0.67464 0.36099
 H1032 H 0.22688 0.64801 0.38754
 C1033 C 0.25055 0.94776 0.94759
 C1034 C 0.25090 0.93469 0.93450
 C1035 C 0.25131 0.91899 0.91898
 C1036 C 0.25077 0.89831 0.92462
 C1037 C 0.25109 0.88303 0.90958
 C1038 C 0.25196 0.88824 0.88865
 C1039 C 0.25255 0.90909 0.88315
 C1040 C 0.25222 0.92435 0.89822
 C1041 C 0.25212 0.87201 0.87263
 C1042 C 0.26463 0.87391 0.85513
 C1043 C 0.26463 0.85869 0.84002
 C1044 C 0.25214 0.84138 0.84216
 C1045 C 0.23969 0.83931 0.85953
 C1046 C 0.23967 0.85449 0.87466
 C1047 C 0.25194 0.82581 0.82649
 C1048 C 0.25158 0.81275 0.81340
 H1049 H 0.25012 0.89399 0.94065
 H1050 H 0.25090 0.86714 0.91434
 H1051 H 0.25296 0.91362 0.86718
 H1052 H 0.25259 0.94031 0.89367
 H1053 H 0.27458 0.88705 0.85324
 H1054 H 0.27436 0.86044 0.82667
 H1055 H 0.22991 0.82600 0.86132
 H1056 H 0.22967 0.85269 0.88779
 C1057 C 0.75271 0.44724 0.44675
 C1058 C 0.75294 0.43413 0.43374
 C1059 C 0.75320 0.41855 0.41817
 C1060 C 0.75235 0.39785 0.42369
 C1061 C 0.75248 0.38269 0.40855
 C1062 C 0.75344 0.38807 0.38768
 C1063 C 0.75436 0.40894 0.38230
 C1064 C 0.75424 0.42406 0.39747
 C1065 C 0.75335 0.37201 0.37158
 C1066 C 0.74178 0.37465 0.35355
 C1067 C 0.74158 0.35946 0.33845
 C1068 C 0.75294 0.34148 0.34113
 C1069 C 0.76453 0.33871 0.35898
 C1070 C 0.76474 0.35387 0.37412
 C1071 C 0.75258 0.32582 0.32562
 C1072 C 0.75213 0.31273 0.31260
 H1073 H 0.75149 0.39343 0.43969
 H1074 H 0.75150 0.36678 0.41315
 H1075 H 0.75539 0.41354 0.36638
 H1076 H 0.75498 0.44005 0.39306
 H1077 H 0.73263 0.38831 0.35128
 H1078 H 0.73248 0.36171 0.32472
 H1079 H 0.77341 0.32485 0.36118
 H1080 H 0.77399 0.35151 0.38771
 C1081 C 0.05274 0.25197 0.05172
 C1082 C 0.06580 0.25200 0.06482
 C1083 C 0.08141 0.25201 0.08042
 C1084 C 0.07629 0.24741 0.10075
 C1085 C 0.09145 0.24739 0.11592
 C1086 C 0.11195 0.25195 0.11093
 C1087 C 0.11694 0.25654 0.09044
 C1088 C 0.10174 0.25658 0.07530
 C1089 C 0.12808 0.25191 0.12702
 C1090 C 0.14752 0.24341 0.12304
 C1091 C 0.16267 0.24332 0.13821
 C1092 C 0.15863 0.25175 0.15753
 C1093 C 0.13936 0.26026 0.16163
 C1094 C 0.12416 0.26033 0.14649
 C1095 C 0.17421 0.25151 0.17318
 C1096 C 0.18725 0.25120 0.18629
 H1097 H 0.06060 0.24376 0.10485
 H1098 H 0.08719 0.24352 0.13150
 H1099 H 0.13253 0.26034 0.08617
 H1100 H 0.10586 0.26021 0.05961
 H1101 H 0.15090 0.23658 0.10829
 H1102 H 0.17751 0.23661 0.13490
 H1103 H 0.13608 0.26686 0.17652
 H1104 H 0.10944 0.26721 0.14993
 C1105 C 0.55324 0.75229 0.55304
 C1106 C 0.56641 0.75236 0.56601
 C1107 C 0.58209 0.75242 0.58151
 C1108 C 0.57667 0.75325 0.60226
 C1109 C 0.59190 0.75326 0.61735
 C1110 C 0.61277 0.75241 0.61187
 C1111 C 0.61804 0.75158 0.59096
 C1112 C 0.60278 0.75159 0.57589
 C1113 C 0.62895 0.75234 0.62789
 C1114 C 0.64623 0.73956 0.62595
 C1115 C 0.66143 0.73944 0.64107
 C1116 C 0.65958 0.75209 0.65830
 C1117 C 0.64247 0.76488 0.66036
 C1118 C 0.62724 0.76501 0.64527
 C1119 C 0.67514 0.75181 0.67393
 C1120 C 0.68816 0.75144 0.68704
 H1121 H 0.56068 0.75383 0.60677
 H1122 H 0.58735 0.75364 0.63332
 H1123 H 0.63396 0.75119 0.58625
 H1124 H 0.60713 0.75099 0.55986
 H1125 H 0.64785 0.72943 0.61290
 H1126 H 0.67458 0.72943 0.63937
 H1127 H 0.64091 0.77476 0.67362
 H1128 H 0.61426 0.77520 0.64707
 C1129 C 0.05212 0.74914 0.94765
 C1130 C 0.06532 0.74912 0.93470
 C1131 C 0.08104 0.74903 0.91921
 C1132 C 0.10175 0.74908 0.92486
 C1133 C 0.11703 0.74891 0.90980
 C1134 C 0.11176 0.74865 0.88887
 C1135 C 0.09089 0.74857 0.88336
 C1136 C 0.07565 0.74878 0.89844
 C1137 C 0.12797 0.74850 0.87285
 C1138 C 0.12599 0.73607 0.85532
 C1139 C 0.14124 0.73601 0.84024
 C1140 C 0.15864 0.74838 0.84245
 C1141 C 0.16076 0.76078 0.85983
 C1142 C 0.14555 0.76084 0.87495
 C1143 C 0.17424 0.74848 0.82683
 C1144 C 0.18729 0.74871 0.81373
 H1145 H 0.10609 0.74917 0.94090
 H1146 H 0.13295 0.74868 0.91453
 H1147 H 0.08635 0.74861 0.86738
 H1148 H 0.05965 0.74876 0.89392
 H1149 H 0.11276 0.72623 0.85339
 H1150 H 0.13947 0.72633 0.82686
 H1151 H 0.17412 0.77049 0.86164
 H1152 H 0.14738 0.77077 0.88812
 C1153 C 0.55297 0.25004 0.44708
 C1154 C 0.56610 0.24967 0.43408
 C1155 C 0.58174 0.24923 0.41854
 C1156 C 0.57629 0.24965 0.39780
 C1157 C 0.59148 0.24934 0.38268
 C1158 C 0.61236 0.24860 0.38814
 C1159 C 0.61767 0.24813 0.40905
 C1160 C 0.60245 0.24844 0.42414
 C1161 C 0.62852 0.24843 0.37209
 C1162 C 0.64597 0.23590 0.37417
 C1163 C 0.66118 0.23581 0.35906
 C1164 C 0.65915 0.24823 0.34169
 C1165 C 0.64187 0.26074 0.33946
 C1166 C 0.62664 0.26085 0.35455
 C1167 C 0.67484 0.24828 0.32618
 C1168 C 0.68793 0.24852 0.31313
 H1169 H 0.56029 0.25020 0.39331
 H1170 H 0.58690 0.24944 0.36672
 H1171 H 0.63360 0.24783 0.41374
 H1172 H 0.60682 0.24816 0.44017
 H1173 H 0.64774 0.22599 0.38737
 H1174 H 0.67450 0.22604 0.36090
 H1175 H 0.64019 0.27047 0.32610
 H1176 H 0.61354 0.27088 0.35263
 C1177 C 0.94726 0.74892 0.05166
 C1178 C 0.93405 0.74873 0.06461
 C1179 C 0.91833 0.74849 0.08011
 C1180 C 0.89771 0.75060 0.07456
 C1181 C 0.88242 0.75042 0.08961
 C1182 C 0.88757 0.74813 0.11046
 C1183 C 0.90838 0.74598 0.11585
 C1184 C 0.92363 0.74615 0.10077
 C1185 C 0.87134 0.74805 0.12650
 C1186 C 0.87266 0.73473 0.14343
 C1187 C 0.85745 0.73476 0.15857
 C1188 C 0.84070 0.74808 0.15700
 C1189 C 0.83920 0.76136 0.14022
 C1190 C 0.85440 0.76137 0.12508
 C1191 C 0.82515 0.74827 0.17270
 C1192 C 0.81214 0.74859 0.18586
 H1193 H 0.89344 0.75235 0.05860
 H1194 H 0.86656 0.75182 0.08490
 H1195 H 0.91291 0.74446 0.13175
 H1196 H 0.93957 0.74454 0.10523
 H1197 H 0.88534 0.72411 0.14487
 H1198 H 0.85876 0.72439 0.17148
 H1199 H 0.82634 0.77180 0.13889
 H1200 H 0.85305 0.77202 0.11242
 C1201 C 0.44676 0.24820 0.55315
 C1202 C 0.43364 0.24817 0.56617
 C1203 C 0.41802 0.24815 0.58172
 C1204 C 0.39730 0.24909 0.57617
 C1205 C 0.38210 0.24906 0.59129
 C1206 C 0.38746 0.24816 0.61216
 C1207 C 0.40833 0.24725 0.61759
 C1208 C 0.42350 0.24722 0.60245
 C1209 C 0.37134 0.24818 0.62822
 C1210 C 0.37365 0.26015 0.64601
 C1211 C 0.35842 0.26022 0.66110
 C1212 C 0.34075 0.24829 0.65865
 C1213 C 0.33834 0.23630 0.64102
 C1214 C 0.35351 0.23626 0.62587
 C1215 C 0.32506 0.24847 0.67416
 C1216 C 0.31195 0.24877 0.68719
 H1217 H 0.39291 0.24990 0.56016
 H1218 H 0.36617 0.25003 0.58668
 H1219 H 0.41288 0.24630 0.63353
 H1220 H 0.43950 0.24642 0.60690
 H1221 H 0.38709 0.26968 0.64810
 H1222 H 0.36040 0.26963 0.67465
 H1223 H 0.32474 0.22697 0.63899
 H1224 H 0.35144 0.22672 0.61244
 C1225 C 0.94781 0.25185 0.94792
 C1226 C 0.93472 0.25182 0.93485
 C1227 C 0.91909 0.25178 0.91925
 C1228 C 0.92423 0.24729 0.89891
 C1229 C 0.90908 0.24721 0.88373
 C1230 C 0.88854 0.25164 0.88871
 C1231 C 0.88353 0.25614 0.90922
 C1232 C 0.89872 0.25620 0.92437
 C1233 C 0.87242 0.25157 0.87258
 C1234 C 0.85685 0.26652 0.87251
 C1235 C 0.84172 0.26645 0.85730
 C1236 C 0.84193 0.25144 0.84197
 C1237 C 0.85731 0.23649 0.84192
 C1238 C 0.87246 0.23654 0.85710
 C1239 C 0.82633 0.25132 0.82634
 C1240 C 0.81327 0.25107 0.81324
 H1241 H 0.93997 0.24389 0.89476
 H1242 H 0.91348 0.24396 0.86806
 H1243 H 0.86784 0.25935 0.91361
 H1244 H 0.89457 0.25964 0.94009
 H1245 H 0.85653 0.27845 0.88405
 H1246 H 0.82990 0.27811 0.85748
 H1247 H 0.85757 0.22475 0.83017
 H1248 H 0.88404 0.22465 0.85688
 C1249 C 0.44677 0.74978 0.44718
 C1250 C 0.43362 0.75005 0.43419
 C1251 C 0.41800 0.75037 0.41863
 C1252 C 0.39727 0.75095 0.42417
 C1253 C 0.38209 0.75120 0.40902
 C1254 C 0.38748 0.75085 0.38812
 C1255 C 0.40837 0.75030 0.38273
 C1256 C 0.42352 0.75007 0.39790
 C1257 C 0.37138 0.75097 0.37202
 C1258 C 0.37332 0.73850 0.35452
 C1259 C 0.35815 0.73857 0.33938
 C1260 C 0.34087 0.75112 0.34149
 C1261 C 0.33880 0.76359 0.35882
 C1262 C 0.35394 0.76353 0.37400
 C1263 C 0.32523 0.75107 0.32593
 C1264 C 0.31216 0.75089 0.31286
 H1265 H 0.39284 0.75113 0.44018
 H1266 H 0.36613 0.75137 0.41365
 H1267 H 0.41301 0.75029 0.36679
 H1268 H 0.43954 0.74969 0.39346
 H1269 H 0.38643 0.72847 0.35269
 H1270 H 0.35986 0.72879 0.32606
 H1271 H 0.32549 0.77339 0.36059
 H1272 H 0.35214 0.77348 0.38717
 C1273 C 0.05293 0.05215 0.25312
 C1274 C 0.06588 0.06534 0.25325
 C1275 C 0.08130 0.08111 0.25338
 C1276 C 0.10209 0.07586 0.25413
 C1277 C 0.11708 0.09118 0.25419
 C1278 C 0.11144 0.11199 0.25347
 C1279 C 0.09048 0.11710 0.25277
 C1280 C 0.07552 0.10175 0.25273
 C1281 C 0.12736 0.12829 0.25335
 C1282 C 0.12518 0.14563 0.24071
 C1283 C 0.14025 0.16088 0.24049
 C1284 C 0.15767 0.15902 0.25289
 C1285 C 0.15997 0.14186 0.26555
 C1286 C 0.14492 0.12659 0.26579
 C1287 C 0.17328 0.17460 0.25242
 C1288 C 0.18640 0.18762 0.25186
 H1289 H 0.10673 0.05992 0.25460
 H1290 H 0.13308 0.08675 0.25450
 H1291 H 0.08563 0.13297 0.25251
 H1292 H 0.05945 0.10597 0.25223
 H1293 H 0.11199 0.14726 0.23075
 H1294 H 0.13836 0.17406 0.23055
 H1295 H 0.17339 0.14027 0.27522
 H1296 H 0.14692 0.11356 0.27588
 C1297 C 0.55309 0.55293 0.75384
 C1298 C 0.56621 0.56596 0.75388
 C1299 C 0.58182 0.58153 0.75389
 C1300 C 0.60255 0.57600 0.75301
 C1301 C 0.61773 0.59113 0.75295
 C1302 C 0.61237 0.61201 0.75378
 C1303 C 0.59148 0.61739 0.75469
 C1304 C 0.57632 0.60223 0.75473
 C1305 C 0.62849 0.62809 0.75360
 C1306 C 0.62675 0.64550 0.76622
 C1307 C 0.64189 0.66067 0.76597
 C1308 C 0.65895 0.65866 0.75310
 C1309 C 0.66084 0.64141 0.74050
 C1310 C 0.64572 0.62621 0.74074
 C1311 C 0.67447 0.67434 0.75270
 C1312 C 0.68752 0.68742 0.75221
 H1313 H 0.60697 0.56001 0.75241
 H1314 H 0.63368 0.58649 0.75251
 H1315 H 0.58686 0.63332 0.75506
 H1316 H 0.56031 0.60667 0.75534
 H1317 H 0.61380 0.64727 0.77647
 H1318 H 0.64031 0.67395 0.77582
 H1319 H 0.67395 0.63973 0.73043
 H1320 H 0.64737 0.61314 0.73065
 C1321 C 0.94755 0.05274 0.74693
 C1322 C 0.93450 0.06582 0.74689
 C1323 C 0.91891 0.08141 0.74687
 C1324 C 0.92444 0.10208 0.74813
 C1325 C 0.90930 0.11726 0.74817
 C1326 C 0.88842 0.11192 0.74697
 C1327 C 0.88303 0.09107 0.74571
 C1328 C 0.89820 0.07593 0.74565
 C1329 C 0.87233 0.12801 0.74706
 C1330 C 0.85419 0.12532 0.75843
 C1331 C 0.83906 0.14051 0.75855
 C1332 C 0.84185 0.15855 0.74729
 C1333 C 0.85984 0.16138 0.73593
 C1334 C 0.87500 0.14622 0.73581
 C1335 C 0.82631 0.17420 0.74755
 C1336 C 0.81327 0.18728 0.74796
 H1337 H 0.94044 0.10647 0.74916
 H1338 H 0.91391 0.13315 0.74942
 H1339 H 0.86711 0.08650 0.74451
 H1340 H 0.89377 0.05996 0.74462
 H1341 H 0.85182 0.11160 0.76747
 H1342 H 0.82524 0.13821 0.76749
 H1343 H 0.86214 0.17528 0.72715
 H1344 H 0.88869 0.14863 0.72673
 C1345 C 0.44666 0.55289 0.24614
 C1346 C 0.43363 0.56600 0.24603
 C1347 C 0.41804 0.58158 0.24592
 C1348 C 0.42354 0.60229 0.24684
 C1349 C 0.40837 0.61743 0.24678
 C1350 C 0.38749 0.61203 0.24585
 C1351 C 0.38214 0.59116 0.24490
 C1352 C 0.39733 0.57605 0.24493
 C1353 C 0.37135 0.62808 0.24597
 C1354 C 0.35335 0.62542 0.25757
 C1355 C 0.33819 0.64057 0.25777
 C1356 C 0.34080 0.65854 0.24637
 C1357 C 0.35863 0.66133 0.23475
 C1358 C 0.37383 0.64621 0.23455
 C1359 C 0.32526 0.67419 0.24680
 C1360 C 0.31223 0.68728 0.24736
 H1361 H 0.43954 0.60672 0.24768
 H1362 H 0.41296 0.63335 0.24778
 H1363 H 0.36622 0.58654 0.24389
 H1364 H 0.39293 0.56006 0.24415
 H1365 H 0.35113 0.61176 0.26674
 H1366 H 0.32448 0.63830 0.26689
 H1367 H 0.36078 0.67518 0.22584
 H1368 H 0.38741 0.64859 0.22529
 C1369 C 0.05331 0.94775 0.74901
 C1370 C 0.06628 0.93457 0.74864
 C1371 C 0.08169 0.91881 0.74816
 C1372 C 0.07591 0.89820 0.74700
 C1373 C 0.09086 0.88284 0.74663
 C1374 C 0.11183 0.88792 0.74741
 C1375 C 0.11748 0.90871 0.74851
 C1376 C 0.10250 0.92404 0.74889
 C1377 C 0.12774 0.87162 0.74723
 C1378 C 0.14594 0.87414 0.73588
 C1379 C 0.16103 0.85891 0.73596
 C1380 C 0.15814 0.84098 0.74736
 C1381 C 0.14007 0.83828 0.75863
 C1382 C 0.12496 0.85348 0.75856
 C1383 C 0.17383 0.82546 0.74776
 C1384 C 0.18695 0.81245 0.74830
 H1385 H 0.05984 0.89400 0.74634
 H1386 H 0.08603 0.86701 0.74549
 H1387 H 0.13347 0.91310 0.74938
 H1388 H 0.10714 0.93995 0.74982
 H1389 H 0.14842 0.88781 0.72680
 H1390 H 0.17494 0.86113 0.72714
 H1391 H 0.13771 0.82448 0.76756
 H1392 H 0.11125 0.85120 0.76766
 C1393 C 0.55310 0.44701 0.24830
 C1394 C 0.56610 0.43387 0.24798
 C1395 C 0.58159 0.41819 0.24757
 C1396 C 0.57592 0.39754 0.24655
 C1397 C 0.59097 0.38227 0.24622
 C1398 C 0.61191 0.38747 0.24689
 C1399 C 0.61744 0.40830 0.24785
 C1400 C 0.60237 0.42354 0.24819
 C1401 C 0.62791 0.37126 0.24676
 C1402 C 0.64608 0.37382 0.23538
 C1403 C 0.66123 0.35865 0.23548
 C1404 C 0.65842 0.34073 0.24692
 C1405 C 0.64038 0.33800 0.25823
 C1406 C 0.62522 0.35314 0.25815
 C1407 C 0.67414 0.32524 0.24729
 C1408 C 0.68729 0.31226 0.24780
 H1409 H 0.55988 0.39324 0.24599
 H1410 H 0.58622 0.36640 0.24519
 H1411 H 0.63341 0.41279 0.24866
 H1412 H 0.60692 0.43949 0.24903
 H1413 H 0.64850 0.38747 0.22626
 H1414 H 0.67513 0.36091 0.22666
 H1415 H 0.63810 0.32422 0.26721
 H1416 H 0.61154 0.35083 0.26728
 C1417 C 0.94755 0.94678 0.25127
 C1418 C 0.93456 0.93364 0.25163
 C1419 C 0.91906 0.91796 0.25205
 C1420 C 0.92471 0.89731 0.25315
 C1421 C 0.90965 0.88206 0.25344
 C1422 C 0.88872 0.88729 0.25264
 C1423 C 0.88321 0.90811 0.25160
 C1424 C 0.89829 0.92334 0.25130
 C1425 C 0.87271 0.87110 0.25273
 C1426 C 0.85451 0.87368 0.26407
 C1427 C 0.83935 0.85852 0.26392
 C1428 C 0.84216 0.84062 0.25246
 C1429 C 0.86023 0.83786 0.24120
 C1430 C 0.87541 0.85298 0.24134
 C1431 C 0.82642 0.82517 0.25202
 C1432 C 0.81323 0.81224 0.25147
 H1433 H 0.94075 0.89300 0.25380
 H1434 H 0.91438 0.86619 0.25452
 H1435 H 0.86725 0.91262 0.25070
 H1436 H 0.89376 0.93929 0.25039
 H1437 H 0.85209 0.88732 0.27320
 H1438 H 0.82543 0.86078 0.27272
 H1439 H 0.86252 0.82409 0.23222
 H1440 H 0.88912 0.85066 0.23225
 C1441 C 0.44705 0.44663 0.75199
 C1442 C 0.43396 0.43359 0.75237
 C1443 C 0.41838 0.41799 0.75280
 C1444 C 0.42395 0.39728 0.75260
 C1445 C 0.40883 0.38209 0.75286
 C1446 C 0.38792 0.38744 0.75334
 C1447 C 0.38249 0.40831 0.75364
 C1448 C 0.39764 0.42347 0.75335
 C1449 C 0.37184 0.37132 0.75338
 C1450 C 0.35432 0.37328 0.76583
 C1451 C 0.33914 0.35814 0.76573
 C1452 C 0.34125 0.34087 0.75318
 C1453 C 0.35863 0.33877 0.74076
 C1454 C 0.37383 0.35387 0.74085
 C1455 C 0.32552 0.32540 0.75288
 C1456 C 0.31236 0.31244 0.75242
 H1457 H 0.43997 0.39288 0.75225
 H1458 H 0.41349 0.36617 0.75291
 H1459 H 0.36653 0.41291 0.75376
 H1460 H 0.39317 0.43947 0.75346
 H1461 H 0.35246 0.38641 0.77581
 H1462 H 0.32576 0.35990 0.77543
 H1463 H 0.36037 0.32551 0.73091
 H1464 H 0.38699 0.35207 0.73088
 C1465 C 0.05222 0.25100 0.94746
 C1466 C 0.06524 0.25059 0.93433
 C1467 C 0.08084 0.25014 0.91874
 C1468 C 0.07569 0.24528 0.89848
 C1469 C 0.09083 0.24499 0.88329
 C1470 C 0.11136 0.24957 0.88818
 C1471 C 0.11638 0.25434 0.90862
 C1472 C 0.10122 0.25463 0.92378
 C1473 C 0.12744 0.24948 0.87202
 C1474 C 0.14290 0.26454 0.87184
 C1475 C 0.15799 0.26448 0.85661
 C1476 C 0.15785 0.24939 0.84136
 C1477 C 0.14256 0.23434 0.84140
 C1478 C 0.12745 0.23437 0.85661
 C1479 C 0.17339 0.24936 0.82569
 C1480 C 0.18643 0.24936 0.81259
 H1481 H 0.05995 0.24181 0.89442
 H1482 H 0.08641 0.24149 0.86768
 H1483 H 0.13208 0.25764 0.91294
 H1484 H 0.10539 0.25833 0.93943
 H1485 H 0.14316 0.27654 0.88330
 H1486 H 0.16974 0.27623 0.85670
 H1487 H 0.14235 0.22256 0.82969
 H1488 H 0.11593 0.22242 0.85647
 C1489 C 0.55293 0.75107 0.44676
 C1490 C 0.56602 0.75072 0.43371
 C1491 C 0.58163 0.75032 0.41811
 C1492 C 0.57613 0.75122 0.39739
 C1493 C 0.59127 0.75098 0.38221
 C1494 C 0.61216 0.74981 0.38757
 C1495 C 0.61752 0.74883 0.40846
 C1496 C 0.60234 0.74909 0.42361
 C1497 C 0.62826 0.74973 0.37146
 C1498 C 0.64549 0.73683 0.37318
 C1499 C 0.66062 0.73678 0.35798
 C1500 C 0.65877 0.74962 0.34089
 C1501 C 0.64172 0.76253 0.33905
 C1502 C 0.62656 0.76259 0.35421
 C1503 C 0.67435 0.74958 0.32524
 C1504 C 0.68738 0.74958 0.31213
 H1505 H 0.56013 0.75211 0.39296
 H1506 H 0.58664 0.75147 0.36627
 H1507 H 0.63346 0.74817 0.41309
 H1508 H 0.60676 0.74843 0.43962
 H1509 H 0.64712 0.72658 0.38614
 H1510 H 0.67374 0.72670 0.35953
 H1511 H 0.64017 0.77259 0.32592
 H1512 H 0.61365 0.77289 0.35259
 C1513 C 0.94771 0.74971 0.94739
 C1514 C 0.93461 0.74981 0.93436
 C1515 C 0.91899 0.74991 0.91879
 C1516 C 0.92441 0.74795 0.89812
 C1517 C 0.90924 0.74805 0.88297
 C1518 C 0.88842 0.75013 0.88832
 C1519 C 0.88314 0.75209 0.90915
 C1520 C 0.89835 0.75196 0.92428
 C1521 C 0.87230 0.75023 0.87223
 C1522 C 0.85566 0.76392 0.87343
 C1523 C 0.84053 0.76404 0.85823
 C1524 C 0.84179 0.75045 0.84167
 C1525 C 0.85825 0.73674 0.84036
 C1526 C 0.87341 0.73663 0.85552
 C1527 C 0.82619 0.75054 0.82605
 C1528 C 0.81313 0.75055 0.81297
 H1529 H 0.94037 0.74641 0.89372
 H1530 H 0.91381 0.74677 0.86706
 H1531 H 0.86725 0.75344 0.91378
 H1532 H 0.89400 0.75340 0.94025
 H1533 H 0.85451 0.77474 0.88597
 H1534 H 0.82787 0.77474 0.85937
 H1535 H 0.85933 0.72611 0.82765
 H1536 H 0.88587 0.72572 0.85431
 C1537 C 0.44682 0.24910 0.44685
 C1538 C 0.43372 0.24937 0.43379
 C1539 C 0.41814 0.24966 0.41817
 C1540 C 0.39742 0.25097 0.42363
 C1541 C 0.38227 0.25118 0.40845
 C1542 C 0.38765 0.25006 0.38758
 C1543 C 0.40854 0.24878 0.38226
 C1544 C 0.42367 0.24860 0.39746
 C1545 C 0.37156 0.25020 0.37145
 C1546 C 0.37315 0.23724 0.35426
 C1547 C 0.35798 0.23735 0.33911
 C1548 C 0.34104 0.25041 0.34089
 C1549 C 0.33932 0.26336 0.35791
 C1550 C 0.35446 0.26325 0.37310
 C1551 C 0.32542 0.25048 0.32528
 C1552 C 0.31233 0.25050 0.31221
 H1553 H 0.39298 0.25176 0.43962
 H1554 H 0.36632 0.25193 0.41305
 H1555 H 0.41319 0.24819 0.36633
 H1556 H 0.43967 0.24766 0.39306
 H1557 H 0.38598 0.22682 0.35269
 H1558 H 0.35943 0.22721 0.32603
 H1559 H 0.32629 0.27356 0.35943
 H1560 H 0.35292 0.27358 0.38601
 C1561 C 0.05237 0.75032 0.05281
 C1562 C 0.06541 0.75081 0.06590
 C1563 C 0.08096 0.75129 0.08153
 C1564 C 0.07537 0.75092 0.10225
 C1565 C 0.09048 0.75111 0.11747
 C1566 C 0.11139 0.75170 0.11214
 C1567 C 0.11684 0.75214 0.09126
 C1568 C 0.10170 0.75193 0.07607
 C1569 C 0.12747 0.75174 0.12827
 C1570 C 0.14490 0.76432 0.12637
 C1571 C 0.16007 0.76426 0.14152
 C1572 C 0.15805 0.75162 0.15874
 C1573 C 0.14078 0.73905 0.16078
 C1574 C 0.12557 0.73911 0.14566
 C1575 C 0.17370 0.75150 0.17429
 C1576 C 0.18682 0.75135 0.18732
 H1577 H 0.05935 0.75048 0.10662
 H1578 H 0.08580 0.75099 0.13340
 H1579 H 0.13280 0.75230 0.08667
 H1580 H 0.10618 0.75215 0.06006
 H1581 H 0.14668 0.77439 0.11329
 H1582 H 0.17337 0.77408 0.13983
 H1583 H 0.13910 0.72915 0.17401
 H1584 H 0.11247 0.72906 0.14743
 C1585 C 0.55291 0.25111 0.55338
 C1586 C 0.56603 0.25127 0.56641
 C1587 C 0.58167 0.25145 0.58200
 C1588 C 0.57619 0.25278 0.60271
 C1589 C 0.59136 0.25289 0.61787
 C1590 C 0.61224 0.25165 0.61252
 C1591 C 0.61758 0.25034 0.59164
 C1592 C 0.60239 0.25025 0.57650
 C1593 C 0.62837 0.25164 0.62863
 C1594 C 0.64556 0.23869 0.62695
 C1595 C 0.66070 0.23864 0.64214
 C1596 C 0.65889 0.25151 0.65921
 C1597 C 0.64187 0.26446 0.66103
 C1598 C 0.62670 0.26453 0.64586
 C1599 C 0.67449 0.25140 0.67484
 C1600 C 0.68759 0.25124 0.68789
 H1601 H 0.56019 0.25367 0.60713
 H1602 H 0.58673 0.25364 0.63380
 H1603 H 0.63351 0.24965 0.58701
 H1604 H 0.60680 0.24928 0.56051
 H1605 H 0.64716 0.22839 0.61403
 H1606 H 0.67378 0.22852 0.64060
 H1607 H 0.64035 0.27453 0.67415
 H1608 H 0.61380 0.27485 0.64748
 C1609 C 0.94767 0.25086 0.05298
 C1610 C 0.93467 0.25052 0.06612
 C1611 C 0.91906 0.25019 0.08170
 C1612 C 0.89866 0.25439 0.07653
 C1613 C 0.88345 0.25419 0.09165
 C1614 C 0.88847 0.24975 0.11216
 C1615 C 0.90904 0.24550 0.11719
 C1616 C 0.92422 0.24573 0.10204
 C1617 C 0.87233 0.24960 0.12824
 C1618 C 0.87233 0.23449 0.14364
 C1619 C 0.85714 0.23438 0.15878
 C1620 C 0.84176 0.24935 0.15873
 C1621 C 0.84162 0.26443 0.14347
 C1622 C 0.85679 0.26456 0.12832
 C1623 C 0.82616 0.24925 0.17434
 C1624 C 0.81308 0.24922 0.18741
 H1625 H 0.89449 0.25780 0.06081
 H1626 H 0.86773 0.25725 0.08724
 H1627 H 0.91343 0.24229 0.13288
 H1628 H 0.93999 0.24250 0.10621
 H1629 H 0.88392 0.22261 0.14384
 H1630 H 0.85735 0.22260 0.17048
 H1631 H 0.82982 0.27612 0.14333
 H1632 H 0.85652 0.27654 0.11683
 C1633 C 0.44712 0.74904 0.55346
 C1634 C 0.43403 0.74893 0.56653
 C1635 C 0.41843 0.74882 0.58213
 C1636 C 0.39768 0.74887 0.57660
 C1637 C 0.38250 0.74879 0.59175
 C1638 C 0.38788 0.74869 0.61265
 C1639 C 0.40880 0.74862 0.61804
 C1640 C 0.42395 0.74868 0.60286
 C1641 C 0.37177 0.74871 0.62876
 C1642 C 0.37406 0.76072 0.64654
 C1643 C 0.35888 0.76075 0.66169
 C1644 C 0.34123 0.74877 0.65930
 C1645 C 0.33880 0.73678 0.64168
 C1646 C 0.35395 0.73674 0.62650
 C1647 C 0.32562 0.74884 0.67491
 C1648 C 0.31253 0.74893 0.68797
 H1649 H 0.39325 0.74903 0.56059
 H1650 H 0.36655 0.74911 0.58711
 H1651 H 0.41343 0.74826 0.63398
 H1652 H 0.43997 0.74858 0.60730
 H1653 H 0.38745 0.77032 0.64860
 H1654 H 0.36088 0.77016 0.67523
 H1655 H 0.32521 0.72742 0.63969
 H1656 H 0.35184 0.72715 0.61311
 C1657 C 0.24898 0.05322 0.94715
 C1658 C 0.24877 0.06625 0.93406
 C1659 C 0.24851 0.08184 0.91849
 C1660 C 0.24818 0.10254 0.92405
 C1661 C 0.24797 0.11773 0.90894
 C1662 C 0.24807 0.11238 0.88803
 C1663 C 0.24837 0.09151 0.88260
 C1664 C 0.24859 0.07635 0.89775
 C1665 C 0.24795 0.12849 0.87196
 C1666 C 0.23590 0.12620 0.85420
 C1667 C 0.23587 0.14135 0.83905
 C1668 C 0.24789 0.15896 0.84143
 C1669 C 0.25990 0.16140 0.85904
 C1670 C 0.25993 0.14629 0.87423
 C1671 C 0.24794 0.17450 0.82579
 C1672 C 0.24803 0.18755 0.81271
 H1673 H 0.24805 0.10695 0.94007
 H1674 H 0.24748 0.13364 0.91360
 H1675 H 0.24872 0.08691 0.86665
 H1676 H 0.24890 0.06036 0.89328
 H1677 H 0.22631 0.11281 0.85215
 H1678 H 0.22647 0.13934 0.82549
 H1679 H 0.26929 0.17496 0.86101
 H1680 H 0.26956 0.14838 0.88760
 C1681 C 0.74957 0.55324 0.44656
 C1682 C 0.74941 0.56635 0.43353
 C1683 C 0.74921 0.58195 0.41792
 C1684 C 0.74938 0.60268 0.42341
 C1685 C 0.74919 0.61783 0.40824
 C1686 C 0.74886 0.61242 0.38735
 C1687 C 0.74868 0.59153 0.38200
 C1688 C 0.74884 0.57641 0.39719
 C1689 C 0.74877 0.62849 0.37121
 C1690 C 0.76075 0.62621 0.35340
 C1691 C 0.76070 0.64136 0.33823
 C1692 C 0.74866 0.65895 0.34062
 C1693 C 0.73667 0.66136 0.35826
 C1694 C 0.73672 0.64625 0.37347
 C1695 C 0.74869 0.67455 0.32501
 C1696 C 0.74877 0.68761 0.31193
 H1697 H 0.74973 0.60713 0.43942
 H1698 H 0.74959 0.63377 0.41284
 H1699 H 0.74815 0.58689 0.36606
 H1700 H 0.74863 0.56041 0.39277
 H1701 H 0.77038 0.61285 0.35134
 H1702 H 0.77010 0.63937 0.32468
 H1703 H 0.72725 0.67489 0.36024
 H1704 H 0.72714 0.64832 0.38687
 C1705 C 0.75076 0.05331 0.05273
 C1706 C 0.75095 0.06631 0.06585
 C1707 C 0.75119 0.08183 0.08149
 C1708 C 0.75100 0.07627 0.10221
 C1709 C 0.75121 0.09138 0.11741
 C1710 C 0.75158 0.11226 0.11205
 C1711 C 0.75178 0.11768 0.09116
 C1712 C 0.75159 0.10255 0.07599
 C1713 C 0.75166 0.12834 0.12815
 C1714 C 0.73975 0.14617 0.12584
 C1715 C 0.73980 0.16130 0.14101
 C1716 C 0.75174 0.15882 0.15866
 C1717 C 0.76366 0.14115 0.16111
 C1718 C 0.76362 0.12599 0.14596
 C1719 C 0.75168 0.17438 0.17427
 C1720 C 0.75154 0.18744 0.18733
 H1721 H 0.75063 0.06026 0.10661
 H1722 H 0.75078 0.08673 0.13334
 H1723 H 0.75234 0.13361 0.08655
 H1724 H 0.75180 0.10701 0.05999
 H1725 H 0.73018 0.14830 0.11244
 H1726 H 0.73047 0.17489 0.13900
 H1727 H 0.77300 0.13911 0.17470
 H1728 H 0.77315 0.11256 0.14806
 C1729 C 0.24855 0.55319 0.55295
 C1730 C 0.24882 0.56616 0.56613
 C1731 C 0.24915 0.58164 0.58186
 C1732 C 0.24923 0.60240 0.57650
 C1733 C 0.24956 0.61745 0.59176
 C1734 C 0.24981 0.61193 0.61263
 C1735 C 0.24971 0.59100 0.61785
 C1736 C 0.24939 0.57597 0.60256
 C1737 C 0.25015 0.62795 0.62885
 C1738 C 0.23842 0.62566 0.64682
 C1739 C 0.23861 0.64084 0.66197
 C1740 C 0.25052 0.65850 0.65938
 C1741 C 0.26231 0.66088 0.64160
 C1742 C 0.26214 0.64573 0.62644
 C1743 C 0.25058 0.67420 0.67490
 C1744 C 0.25058 0.68735 0.68790
 H1745 H 0.24897 0.60695 0.56052
 H1746 H 0.24932 0.63341 0.58723
 H1747 H 0.25016 0.58625 0.63375
 H1748 H 0.24938 0.55994 0.60688
 H1749 H 0.22884 0.61229 0.64904
 H1750 H 0.22939 0.63885 0.67565
 H1751 H 0.27164 0.67445 0.63946
 H1752 H 0.27157 0.64782 0.61293
 C1753 C 0.74875 0.94695 0.94702
 C1754 C 0.74903 0.93387 0.93397
 C1755 C 0.74939 0.91822 0.91847
 C1756 C 0.74805 0.89757 0.92407
 C1757 C 0.74842 0.88232 0.90903
 C1758 C 0.75016 0.88755 0.88817
 C1759 C 0.75151 0.90837 0.88270
 C1760 C 0.75111 0.92360 0.89777
 C1761 C 0.75054 0.87137 0.87218
 C1762 C 0.76407 0.87282 0.85542
 C1763 C 0.76437 0.85759 0.84034
 C1764 C 0.75115 0.84076 0.84179
 C1765 C 0.73766 0.83917 0.85841
 C1766 C 0.73736 0.85435 0.87352
 C1767 C 0.75131 0.82520 0.82617
 C1768 C 0.75136 0.81217 0.81308
 H1769 H 0.74677 0.89325 0.94007
 H1770 H 0.74761 0.86642 0.91372
 H1771 H 0.75259 0.91288 0.86676
 H1772 H 0.75209 0.93955 0.89329
 H1773 H 0.77459 0.88559 0.85411
 H1774 H 0.77491 0.85894 0.82757
 H1775 H 0.72732 0.82623 0.85964
 H1776 H 0.72660 0.85294 0.88609
 C1777 C 0.25025 0.44667 0.44690
 C1778 C 0.25041 0.43365 0.43378
 C1779 C 0.25061 0.41812 0.41811
 C1780 C 0.25200 0.39741 0.42352
 C1781 C 0.25219 0.38231 0.40830
 C1782 C 0.25097 0.38773 0.38745
 C1783 C 0.24959 0.40860 0.38218
 C1784 C 0.24943 0.42368 0.39742
 C1785 C 0.25104 0.37170 0.37128
 C1786 C 0.23797 0.37329 0.35418
 C1787 C 0.23797 0.35814 0.33901
 C1788 C 0.25105 0.34122 0.34070
 C1789 C 0.26414 0.33950 0.35763
 C1790 C 0.26415 0.35462 0.37282
 C1791 C 0.25097 0.32559 0.32512
 C1792 C 0.25085 0.31249 0.31208
 H1793 H 0.25287 0.39293 0.43950
 H1794 H 0.25300 0.36638 0.41286
 H1795 H 0.24891 0.41328 0.36626
 H1796 H 0.24842 0.43967 0.39307
 H1797 H 0.22752 0.38610 0.35268
 H1798 H 0.22772 0.35959 0.32601
 H1799 H 0.27436 0.32649 0.35907
 H1800 H 0.27457 0.35309 0.38566
 C1801 C 0.25114 0.94695 0.05294
 C1802 C 0.25083 0.93396 0.06607
 C1803 C 0.25046 0.91843 0.08170
 C1804 C 0.24891 0.92397 0.10237
 C1805 C 0.24861 0.90886 0.11756
 C1806 C 0.24989 0.88800 0.11225
 C1807 C 0.25140 0.88260 0.09141
 C1808 C 0.25167 0.89773 0.07625
 C1809 C 0.24969 0.87193 0.12835
 C1810 C 0.26281 0.85487 0.12691
 C1811 C 0.26259 0.83970 0.14203
 C1812 C 0.24926 0.84136 0.15877
 C1813 C 0.23617 0.85828 0.16036
 C1814 C 0.23638 0.87349 0.14527
 C1815 C 0.24906 0.82573 0.17430
 C1816 C 0.24896 0.81263 0.18731
 H1817 H 0.24801 0.93996 0.10674
 H1818 H 0.24768 0.91351 0.13348
 H1819 H 0.25212 0.86667 0.08683
 H1820 H 0.25280 0.89328 0.06028
 H1821 H 0.27343 0.85338 0.11422
 H1822 H 0.27285 0.82670 0.14070
 H1823 H 0.22577 0.85969 0.17325
 H1824 H 0.22594 0.88631 0.14667
 C1825 C 0.75168 0.44715 0.55302
 C1826 C 0.75146 0.43406 0.56607
 C1827 C 0.75117 0.41849 0.58171
 C1828 C 0.75000 0.39778 0.57626
 C1829 C 0.74966 0.38265 0.59145
 C1830 C 0.75049 0.38804 0.61234
 C1831 C 0.75168 0.40892 0.61765
 C1832 C 0.75202 0.42402 0.60243
 C1833 C 0.75016 0.37197 0.62850
 C1834 C 0.76265 0.37374 0.64603
 C1835 C 0.76241 0.35856 0.66116
 C1836 C 0.74970 0.34140 0.65903
 C1837 C 0.73719 0.33951 0.64169
 C1838 C 0.73740 0.35467 0.62653
 C1839 C 0.74960 0.32572 0.67457
 C1840 C 0.74961 0.31260 0.68761
 H1841 H 0.74941 0.39333 0.56026
 H1842 H 0.74903 0.36673 0.58684
 H1843 H 0.75207 0.41360 0.63357
 H1844 H 0.75288 0.44001 0.60682
 H1845 H 0.77283 0.38671 0.64789
 H1846 H 0.77220 0.36016 0.67449
 H1847 H 0.72725 0.32632 0.63989
 H1848 H 0.72741 0.35297 0.61338
 C1849 C 0.05304 0.05227 0.74819
 C1850 C 0.06597 0.06548 0.74850
 C1851 C 0.08140 0.08122 0.74885
 C1852 C 0.07708 0.10032 0.75761
 C1853 C 0.09209 0.11563 0.75794
 C1854 C 0.11161 0.11202 0.74947
 C1855 C 0.11579 0.09276 0.74070
 C1856 C 0.10077 0.07747 0.74041
 C1857 C 0.12757 0.12826 0.74976
 C1858 C 0.14030 0.13141 0.73263
 C1859 C 0.15537 0.14664 0.73293
 C1860 C 0.15793 0.15891 0.75034
 C1861 C 0.14534 0.15591 0.76746
 C1862 C 0.13024 0.14070 0.76719
 C1863 C 0.17348 0.17456 0.75058
 C1864 C 0.18654 0.18763 0.75065
 H1865 H 0.06211 0.10339 0.76414
 H1866 H 0.08833 0.13037 0.76456
 H1867 H 0.13075 0.08943 0.73430
 H1868 H 0.10429 0.06272 0.73365
 H1869 H 0.13844 0.12227 0.71889
 H1870 H 0.16500 0.14886 0.71957
 H1871 H 0.14724 0.16529 0.78104
 H1872 H 0.12085 0.13847 0.78070
 C1873 C 0.55296 0.55305 0.24708
 C1874 C 0.56597 0.56617 0.24737
 C1875 C 0.58154 0.58179 0.24777
 C1876 C 0.60229 0.57631 0.24710
 C1877 C 0.61745 0.59146 0.24755
 C1878 C 0.61203 0.61230 0.24871
 C1879 C 0.59113 0.61764 0.24938
 C1880 C 0.57599 0.60247 0.24890
 C1881 C 0.62811 0.62841 0.24915
 C1882 C 0.62620 0.64544 0.26224
 C1883 C 0.64131 0.66064 0.26258
 C1884 C 0.65850 0.65904 0.24982
 C1885 C 0.66057 0.64213 0.23678
 C1886 C 0.64550 0.62690 0.23644
 C1887 C 0.67398 0.67475 0.25004
 C1888 C 0.68701 0.68785 0.25011
 H1889 H 0.60674 0.56034 0.24628
 H1890 H 0.63341 0.58686 0.24727
 H1891 H 0.58648 0.63356 0.25001
 H1892 H 0.55997 0.60687 0.24936
 H1893 H 0.61313 0.64689 0.27240
 H1894 H 0.63960 0.67363 0.27279
 H1895 H 0.67380 0.64077 0.22681
 H1896 H 0.64728 0.61411 0.22602
 C1897 C 0.05307 0.94766 0.25030
 C1898 C 0.06609 0.93453 0.25016
 C1899 C 0.08165 0.91889 0.24996
 C1900 C 0.07609 0.89820 0.25090
 C1901 C 0.09121 0.88301 0.25073
 C1902 C 0.11211 0.88832 0.24961
 C1903 C 0.11752 0.90918 0.24868
 C1904 C 0.10238 0.92435 0.24886
 C1905 C 0.12818 0.87220 0.24947
 C1906 C 0.14536 0.87390 0.23650
 C1907 C 0.16048 0.85871 0.23641
 C1908 C 0.15865 0.84163 0.24926
 C1909 C 0.14164 0.83980 0.26223
 C1910 C 0.12649 0.85496 0.26233
 C1911 C 0.17423 0.82601 0.24921
 C1912 C 0.18726 0.81290 0.24922
 H1913 H 0.06008 0.89382 0.25171
 H1914 H 0.08655 0.86709 0.25122
 H1915 H 0.13347 0.91377 0.24809
 H1916 H 0.10684 0.94033 0.24822
 H1917 H 0.14696 0.88685 0.22625
 H1918 H 0.17357 0.86025 0.22628
 H1919 H 0.14012 0.82669 0.27230
 H1920 H 0.11360 0.85335 0.27268
 C1921 C 0.55321 0.44674 0.75266
 C1922 C 0.56637 0.43376 0.75226
 C1923 C 0.58204 0.41825 0.75177
 C1924 C 0.57662 0.39751 0.75176
 C1925 C 0.59184 0.38242 0.75132
 C1926 C 0.61272 0.38791 0.75092
 C1927 C 0.61800 0.40882 0.75091
 C1928 C 0.60275 0.42388 0.75132
 C1929 C 0.62891 0.37190 0.75058
 C1930 C 0.64684 0.37418 0.76238
 C1931 C 0.66204 0.35906 0.76213
 C1932 C 0.65953 0.34149 0.75009
 C1933 C 0.64178 0.33910 0.73826
 C1934 C 0.62655 0.35418 0.73850
 C1935 C 0.67513 0.32589 0.74994
 C1936 C 0.68818 0.31281 0.74987
 H1937 H 0.56062 0.39300 0.75215
 H1938 H 0.58729 0.36647 0.75161
 H1939 H 0.63392 0.41353 0.75033
 H1940 H 0.60711 0.43990 0.75126
 H1941 H 0.64899 0.38751 0.77204
 H1942 H 0.67570 0.36104 0.77139
 H1943 H 0.63972 0.32558 0.72884
 H1944 H 0.61306 0.35211 0.72905
 C1945 C 0.94739 0.05277 0.25192
 C1946 C 0.93432 0.06584 0.25157
 C1947 C 0.91869 0.08138 0.25112
 C1948 C 0.92416 0.10206 0.24971
 C1949 C 0.90897 0.11719 0.24929
 C1950 C 0.88809 0.11180 0.25030
 C1951 C 0.88276 0.09095 0.25169
 C1952 C 0.89797 0.07586 0.25209
 C1953 C 0.87195 0.12787 0.24996
 C1954 C 0.85466 0.12633 0.26279
 C1955 C 0.83955 0.14153 0.26256
 C1956 C 0.84148 0.15844 0.24950
 C1957 C 0.85858 0.16008 0.23664
 C1958 C 0.87373 0.14491 0.23685
 C1959 C 0.82595 0.17411 0.24937
 C1960 C 0.81293 0.18722 0.24932
 H1961 H 0.94016 0.10650 0.24899
 H1962 H 0.91358 0.13311 0.24848
 H1963 H 0.86682 0.08631 0.25222
 H1964 H 0.89357 0.05988 0.25312
 H1965 H 0.85298 0.11354 0.27323
 H1966 H 0.82639 0.14013 0.27262
 H1967 H 0.86020 0.17307 0.22642
 H1968 H 0.88670 0.14638 0.22659
 C1969 C 0.44694 0.55284 0.75108
 C1970 C 0.43378 0.56582 0.75094
 C1971 C 0.41809 0.58132 0.75073
 C1972 C 0.42350 0.60202 0.74939
 C1973 C 0.40827 0.61710 0.74909
 C1974 C 0.38740 0.61165 0.75014
 C1975 C 0.38214 0.59078 0.75151
 C1976 C 0.39740 0.57573 0.75179
 C1977 C 0.37122 0.62768 0.74987
 C1978 C 0.35393 0.62607 0.76270
 C1979 C 0.33881 0.64127 0.76257
 C1980 C 0.34074 0.65826 0.74961
 C1981 C 0.35782 0.65996 0.73673
 C1982 C 0.37296 0.64479 0.73684
 C1983 C 0.32526 0.67398 0.74963
 C1984 C 0.31228 0.68715 0.74969
 H1985 H 0.43948 0.60651 0.74861
 H1986 H 0.41282 0.63304 0.74831
 H1987 H 0.36622 0.58608 0.75209
 H1988 H 0.39306 0.55973 0.75278
 H1989 H 0.35226 0.61323 0.77308
 H1990 H 0.32567 0.63982 0.77264
 H1991 H 0.35943 0.67301 0.72658
 H1992 H 0.38593 0.64633 0.72658
 C1993 C 0.94774 0.94680 0.75016
 C1994 C 0.93470 0.93371 0.75041
 C1995 C 0.91909 0.91813 0.75071
 C1996 C 0.92457 0.89742 0.74986
 C1997 C 0.90941 0.88227 0.75004
 C1998 C 0.88852 0.88766 0.75109
 C1999 C 0.88318 0.90853 0.75200
 C2000 C 0.89837 0.92365 0.75180
 C2001 C 0.87240 0.87157 0.75115
 C2002 C 0.85512 0.87336 0.76396
 C2003 C 0.83996 0.85820 0.76398
 C2004 C 0.84185 0.84108 0.75120
 C2005 C 0.85896 0.83916 0.73839
 C2006 C 0.87414 0.85429 0.73835
 C2007 C 0.82625 0.82548 0.75122
 C2008 C 0.81318 0.81241 0.75118
 H2009 H 0.94057 0.89298 0.74907
 H2010 H 0.91403 0.86634 0.74961
 H2011 H 0.86724 0.91318 0.75256
 H2012 H 0.89396 0.93965 0.75241
 H2013 H 0.85345 0.88635 0.77416
 H2014 H 0.82679 0.85982 0.77399
 H2015 H 0.86054 0.82601 0.72837
 H2016 H 0.88711 0.85261 0.72811
 C2017 C 0.44678 0.44688 0.24898
 C2018 C 0.43380 0.43372 0.24912
 C2019 C 0.41830 0.41803 0.24934
 C2020 C 0.42393 0.39735 0.24847
 C2021 C 0.40888 0.38209 0.24875
 C2022 C 0.38797 0.38733 0.24994
 C2023 C 0.38247 0.40817 0.25081
 C2024 C 0.39755 0.42340 0.25050
 C2025 C 0.37195 0.37115 0.25020
 C2026 C 0.35485 0.37284 0.26327
 C2027 C 0.33969 0.35768 0.26340
 C2028 C 0.34140 0.34066 0.25046
 C2029 C 0.35837 0.33881 0.23744
 C2030 C 0.37356 0.35394 0.23731
 C2031 C 0.32571 0.32514 0.25046
 C2032 C 0.31257 0.31214 0.25039
 H2033 H 0.43996 0.39303 0.24763
 H2034 H 0.41360 0.36619 0.24830
 H2035 H 0.36650 0.41269 0.25145
 H2036 H 0.39302 0.43936 0.25112
 H2037 H 0.35331 0.38578 0.27356
 H2038 H 0.32665 0.35924 0.27358
 H2039 H 0.35981 0.32573 0.22731
 H2040 H 0.38640 0.35233 0.22690
   
