data_POSCAR
  _audit_creation_date              2014-09-24
  _audit_creation_method            'ToBaCCo'
  _symmetry_space_group_name_H-M    'P1'
  _symmetry_Int_Tables_number       1
  _symmetry_cell_setting            triclinic
  loop_
  _symmetry_equiv_pos_as_xyz
 x,y,z
_cell_length_a 53.9837
_cell_length_b 55.7646
_cell_length_c 55.1687
_cell_angle_alpha 87.892900
_cell_angle_beta 92.166400
_cell_angle_gamma 89.755500
loop_
  _atom_site_label
  _atom_site_type_symbol
  _atom_site_fract_x
  _atom_site_fract_y
  _atom_site_fract_z
N1 N 0.18128 0.21167 0.22162
 N2 N 0.18906 0.19755 0.23995
 C3 C 0.17550 0.20175 0.25931
 C4 C 0.15830 0.21956 0.25275
 C5 C 0.16246 0.22534 0.22863
 H6 H 0.17833 0.19286 0.27696
 H7 H 0.15270 0.23858 0.21702
 Cu8 Cu 0.21622 0.17514 0.23666
 Cu9 Cu 0.19698 0.21162 0.19047
 Cu10 Cu 0.25791 0.19151 0.19583
 N11 N 0.24639 0.15683 0.23342
 N12 N 0.26271 0.16300 0.21727
 C13 C 0.28175 0.14725 0.21907
 C14 C 0.27703 0.13031 0.23737
 C15 C 0.25440 0.13705 0.24603
 H16 H 0.29785 0.14819 0.20799
 H17 H 0.24429 0.12803 0.26020
 N18 N 0.24537 0.21375 0.16938
 N19 N 0.22173 0.21974 0.16646
 C20 C 0.21870 0.23475 0.14695
 C21 C 0.24159 0.23878 0.13729
 C22 C 0.25814 0.22518 0.15193
 H23 H 0.20140 0.24346 0.14126
 H24 H 0.27799 0.22399 0.15020
 H25 H 0.22190 0.18224 0.19315
 H26 H 0.22864 0.20924 0.21121
 N27 N 0.65027 0.72388 0.72878
 N28 N 0.66105 0.71124 0.74679
 C29 C 0.64761 0.71324 0.76674
 C30 C 0.62723 0.72793 0.76076
 C31 C 0.62964 0.73419 0.73644
 H32 H 0.65226 0.70455 0.78416
 H33 H 0.61763 0.74575 0.72503
 Cu34 Cu 0.69144 0.69340 0.74176
 Cu35 Cu 0.66377 0.72648 0.69669
 Cu36 Cu 0.72615 0.71245 0.69579
 N37 N 0.72022 0.67520 0.73239
 N38 N 0.73435 0.68329 0.71502
 C39 C 0.75318 0.66781 0.71257
 C40 C 0.75053 0.64873 0.72900
 C41 C 0.72936 0.65403 0.74130
 H42 H 0.76717 0.66988 0.69913
 H43 H 0.72124 0.64334 0.75566
 N44 N 0.70911 0.73322 0.67079
 N45 N 0.68507 0.73750 0.67054
 C46 C 0.67878 0.75199 0.65126
 C47 C 0.69992 0.75715 0.63861
 C48 C 0.71882 0.74480 0.65158
 H49 H 0.66025 0.75879 0.64730
 H50 H 0.73828 0.74447 0.64771
 H51 H 0.69138 0.69999 0.69774
 H52 H 0.69716 0.72814 0.71429
 N53 N 0.33526 0.76640 0.73426
 N54 N 0.32956 0.78334 0.74902
 C55 C 0.34579 0.78271 0.76814
 C56 C 0.36272 0.76437 0.76523
 C57 C 0.35537 0.75441 0.74346
 H58 H 0.34515 0.79467 0.78307
 H59 H 0.36403 0.73965 0.73478
 Cu60 Cu 0.30175 0.80484 0.74180
 Cu61 Cu 0.31613 0.76117 0.70430
 Cu62 Cu 0.26315 0.79602 0.69378
 N63 N 0.27009 0.82133 0.73795
 N64 N 0.25559 0.81876 0.71859
 C65 C 0.23566 0.83318 0.71989
 C66 C 0.23758 0.84533 0.74146
 C67 C 0.25975 0.83712 0.75246
 H68 H 0.22069 0.83422 0.70634
 H69 H 0.26818 0.84262 0.76942
 N70 N 0.27411 0.77187 0.67110
 N71 N 0.29429 0.75865 0.67508
 C72 C 0.29623 0.74335 0.65691
 C73 C 0.27623 0.74695 0.64073
 C74 C 0.26263 0.76522 0.65033
 H75 H 0.31066 0.72996 0.65596
 H76 H 0.24545 0.77292 0.64290
 H77 H 0.30121 0.79523 0.69893
 H78 H 0.28327 0.77343 0.71775
 N79 N 0.85895 0.28851 0.22706
 N80 N 0.85316 0.30975 0.23470
 C81 C 0.87063 0.31668 0.25091
 C82 C 0.88836 0.29872 0.25405
 C83 C 0.88020 0.28092 0.23863
 H84 H 0.86981 0.33314 0.26057
 H85 H 0.88933 0.26406 0.23553
 Cu86 Cu 0.82217 0.32541 0.22487
 Cu87 Cu 0.83909 0.27372 0.20123
 Cu88 Cu 0.78357 0.30243 0.18291
 N89 N 0.79129 0.34119 0.21497
 N90 N 0.77538 0.33169 0.19952
 C91 C 0.75528 0.34618 0.19665
 C92 C 0.75918 0.36585 0.21092
 C93 C 0.78209 0.36201 0.22228
 H94 H 0.73952 0.34315 0.18447
 H95 H 0.79128 0.37364 0.23498
 N96 N 0.79547 0.27284 0.16829
 N97 N 0.81655 0.26205 0.17515
 C98 C 0.82060 0.24397 0.16023
 C99 C 0.80119 0.24328 0.14311
 C100 C 0.78555 0.26179 0.14892
 H101 H 0.83690 0.23262 0.16126
 H102 H 0.76888 0.26762 0.13891
 H103 H 0.82184 0.30472 0.18684
 H104 H 0.80547 0.28756 0.21101
 N105 N 0.81012 0.73115 0.26395
 N106 N 0.80418 0.71232 0.25113
 C107 C 0.81961 0.71126 0.23248
 C108 C 0.83577 0.73050 0.23356
 C109 C 0.82916 0.74261 0.25376
 H110 H 0.81885 0.69780 0.21886
 H111 H 0.83778 0.75857 0.26065
 Cu112 Cu 0.77606 0.69095 0.25922
 Cu113 Cu 0.79270 0.74027 0.29296
 Cu114 Cu 0.74024 0.71070 0.30302
 N115 N 0.74751 0.67259 0.27069
 N116 N 0.73385 0.68051 0.28795
 C117 C 0.71629 0.66437 0.29314
 C118 C 0.71879 0.64512 0.27832
 C119 C 0.73877 0.65100 0.26411
 H120 H 0.70271 0.66653 0.30681
 H121 H 0.74676 0.64013 0.25054
 N122 N 0.75235 0.73475 0.32482
 N123 N 0.77302 0.74636 0.32102
 C124 C 0.77693 0.76197 0.33882
 C125 C 0.75759 0.76000 0.35465
 C126 C 0.74240 0.74243 0.34510
 H127 H 0.79252 0.77402 0.33994
 H128 H 0.72543 0.73550 0.35235
 H129 H 0.78302 0.70416 0.29309
 H130 H 0.76617 0.72445 0.27024
 N131 N 0.30894 0.20803 -0.24487
 N132 N 0.31068 0.18750 -0.25562
 C133 C 0.32979 0.18857 -0.27062
 C134 C 0.34055 0.21120 -0.26936
 C135 C 0.32646 0.22303 -0.25291
 H136 H 0.33537 0.17387 -0.28146
 H137 H 0.32922 0.24083 -0.24623
 Cu138 Cu 0.28761 0.16155 -0.24855
 Cu139 Cu 0.28565 0.21309 -0.21950
 Cu140 Cu 0.26338 0.16052 -0.19350
 N141 N 0.26225 0.13832 -0.23977
 N142 N 0.25336 0.13771 -0.21791
 C143 C 0.23643 0.12021 -0.21628
 C144 C 0.23428 0.10922 -0.23840
 C145 C 0.25103 0.12128 -0.25293
 H146 H 0.22596 0.11640 -0.20028
 H147 H 0.25478 0.11799 -0.27163
 N148 N 0.26474 0.19087 -0.17648
 N149 N 0.27196 0.21114 -0.18700
 C150 C 0.27048 0.22881 -0.17120
 C151 C 0.26184 0.21927 -0.14958
 C152 C 0.25838 0.19509 -0.15366
 H153 H 0.27621 0.24707 -0.17499
 H154 H 0.25165 0.18153 -0.14109
 H155 H 0.29342 0.17872 -0.20870
 H156 H 0.26146 0.18395 -0.22198
 N157 N 0.66811 0.30684 -0.23644
 N158 N 0.67111 0.32714 -0.24879
 C159 C 0.65122 0.33126 -0.26378
 C160 C 0.63494 0.31217 -0.26125
 C161 C 0.64643 0.29700 -0.24360
 H162 H 0.64957 0.34629 -0.27667
 H163 H 0.63981 0.27996 -0.23654
 Cu164 Cu 0.70239 0.34413 -0.24675
 Cu165 Cu 0.69343 0.29429 -0.21299
 Cu166 Cu 0.73910 0.33542 -0.19715
 N167 N 0.73321 0.36158 -0.24285
 N168 N 0.74766 0.35804 -0.22335
 C169 C 0.76735 0.37266 -0.22479
 C170 C 0.76527 0.38604 -0.24653
 C171 C 0.74327 0.37843 -0.25747
 H172 H 0.78196 0.37344 -0.21090
 H173 H 0.73495 0.38492 -0.27459
 N174 N 0.73273 0.30588 -0.17763
 N175 N 0.71554 0.29021 -0.18373
 C176 C 0.71568 0.27219 -0.16678
 C177 C 0.73401 0.27659 -0.14926
 C178 C 0.74449 0.29808 -0.15683
 H179 H 0.70342 0.25692 -0.16726
 H180 H 0.75941 0.30749 -0.14773
 H181 H 0.70144 0.32860 -0.20497
 H182 H 0.72535 0.31330 -0.22250
 N183 N 0.13337 0.80571 0.28774
 N184 N 0.13961 0.82562 0.27615
 C185 C 0.12459 0.82904 0.25629
 C186 C 0.10795 0.81018 0.25536
 C187 C 0.11411 0.79573 0.27573
 H188 H 0.12616 0.84384 0.24323
 H189 H 0.10535 0.77918 0.28147
 Cu190 Cu 0.16735 0.84465 0.28766
 Cu191 Cu 0.15053 0.79493 0.31785
 Cu192 Cu 0.21053 0.81674 0.32451
 N193 N 0.20075 0.85676 0.29120
 N194 N 0.21804 0.84528 0.30444
 C195 C 0.23972 0.85689 0.30201
 C196 C 0.23574 0.87687 0.28642
 C197 C 0.21061 0.87608 0.28008
 H198 H 0.25690 0.85133 0.31126
 H199 H 0.20022 0.88806 0.26763
 N200 N 0.19843 0.78843 0.34330
 N201 N 0.17546 0.78062 0.34088
 C202 C 0.17231 0.76195 0.35652
 C203 C 0.19431 0.75775 0.36972
 C204 C 0.21051 0.77489 0.36077
 H205 H 0.15520 0.75210 0.35802
 H206 H 0.22948 0.77770 0.36698
 H207 H 0.17383 0.82353 0.32722
 H208 H 0.18245 0.80508 0.30133
 N209 N 0.49785 0.41524 0.48730
 N210 N 0.47872 0.41857 0.50086
 C211 C 0.47782 0.40061 0.51775
 C212 C 0.49763 0.38528 0.51485
 C213 C 0.51009 0.39523 0.49542
 H214 H 0.46403 0.39908 0.53143
 H215 H 0.52651 0.38822 0.48746
 Cu216 Cu 0.45755 0.44674 0.49608
 Cu217 Cu 0.50472 0.43712 0.45989
 Cu218 Cu 0.45305 0.47068 0.43971
 N219 N 0.43453 0.47285 0.48766
 N220 N 0.43274 0.48219 0.46547
 C221 C 0.41517 0.49943 0.46433
 C222 C 0.40543 0.50116 0.48717
 C223 C 0.41826 0.48389 0.50148
 H224 H 0.41011 0.50998 0.44806
 H225 H 0.41586 0.47947 0.52048
 N226 N 0.48143 0.46451 0.41925
 N227 N 0.50157 0.45274 0.42722
 C228 C 0.51774 0.45224 0.40921
 C229 C 0.50721 0.46418 0.38885
 C230 C 0.48420 0.47174 0.39597
 H231 H 0.53553 0.44321 0.41062
 H232 H 0.47057 0.48204 0.38511
 H233 H 0.48151 0.46695 0.46460
 H234 H 0.46760 0.43825 0.45454
 N235 N -0.05111 -0.08642 0.99345
 N236 N -0.06982 -0.07947 1.00611
 C237 C -0.07648 -0.09767 1.02115
 C238 C -0.06087 -0.11697 1.01805
 C239 C -0.04490 -0.10915 1.00036
 H240 H -0.09099 -0.09664 1.03407
 H241 H -0.02989 -0.11921 0.99310
 Cu242 Cu -0.08229 -0.04666 1.00359
 Cu243 Cu -0.03602 -0.06514 0.96938
 Cu244 Cu -0.06909 -0.01288 0.95420
 N245 N -0.09971 -0.01665 0.99554
 N246 N -0.09477 -0.00381 0.97591
 C247 C -0.10914 0.01599 0.97465
 C248 C -0.12399 0.01566 0.99460
 C249 C -0.11746 -0.00543 1.00748
 H250 H -0.10836 0.02987 0.96051
 H251 H -0.12510 -0.01221 1.02420
 N252 N -0.04226 -0.02486 0.93467
 N253 N -0.02928 -0.04448 0.94049
 C254 C -0.01176 -0.04713 0.92395
 C255 C -0.01367 -0.02805 0.90711
 C256 C -0.03327 -0.01443 0.91451
 H257 H 0.00172 -0.06155 0.92443
 H258 H -0.04040 0.00201 0.90589
 H259 H -0.04758 -0.03151 0.97984
 H260 H -0.07001 -0.04978 0.96192
 N261 N 1.03700 0.58718 0.96920
 N262 N 1.05134 0.57793 0.98697
 C263 C 1.04675 0.58938 1.00750
 C264 C 1.02835 0.60644 1.00216
 C265 C 1.02272 0.60449 0.97772
 H266 H 1.05565 0.58532 1.02507
 H267 H 1.00932 0.61506 0.96684
 Cu268 Cu 1.07328 0.55091 0.98108
 Cu269 Cu 1.03725 0.57633 0.93624
 Cu270 Cu 1.07724 0.52990 0.92484
 N271 N 1.09568 0.52447 0.97456
 N272 N 1.09696 0.51664 0.95244
 C273 C 1.11243 0.49772 0.95272
 C274 C 1.12138 0.49316 0.97626
 C275 C 1.11049 0.51065 0.98969
 H276 H 1.11659 0.48780 0.93689
 H277 H 1.11257 0.51263 1.00908
 N278 N 1.05559 0.54564 0.89938
 N279 N 1.04009 0.56310 0.90400
 C280 C 1.02565 0.56815 0.88408
 C281 C 1.03227 0.55316 0.86600
 C282 C 1.05146 0.53923 0.87624
 H283 H 1.01054 0.58096 0.88311
 H284 H 1.06034 0.52429 0.86803
 H285 H 1.04839 0.54136 0.94489
 H286 H 1.07332 0.56354 0.93836
 N287 N 0.52885 0.07413 0.48469
 N288 N 0.54462 0.06897 0.50289
 C289 C 0.54318 0.08601 0.51942
 C290 C 0.52545 0.10271 0.51115
 C291 C 0.51680 0.09461 0.48899
 H292 H 0.55369 0.08587 0.53651
 H293 H 0.50259 0.10277 0.47700
 Cu294 Cu 0.56511 0.04020 0.50321
 Cu295 Cu 0.52465 0.05330 0.45726
 Cu296 Cu 0.54245 -0.00540 0.47160
 N297 N 0.58237 0.00955 0.50349
 N298 N 0.57385 -0.00800 0.49030
 C299 C 0.59006 -0.02643 0.49212
 C300 C 0.60969 -0.02011 0.50738
 C301 C 0.60417 0.00280 0.51439
 H302 H 0.58791 -0.04303 0.48273
 H303 H 0.61572 0.01407 0.52561
 N304 N 0.51782 0.00340 0.44548
 N305 N 0.51271 0.02590 0.43880
 C306 C 0.49661 0.02631 0.41959
 C307 C 0.49103 0.00291 0.41417
 C308 C 0.50472 -0.01119 0.43096
 H309 H 0.48876 0.04241 0.41081
 H310 H 0.50542 -0.03059 0.43220
 H311 H 0.52712 0.02662 0.48297
 H312 H 0.55360 0.02797 0.46219
 N313 N -0.04883 0.11600 0.53750
 N314 N -0.06858 0.10993 0.52454
 C315 C -0.07174 0.12537 0.50540
 C316 C -0.05291 0.14212 0.50629
 C317 C -0.03870 0.13560 0.52697
 H318 H -0.08599 0.12373 0.49127
 H319 H -0.02192 0.14408 0.53360
 Cu320 Cu -0.08711 0.08125 0.53225
 Cu321 Cu -0.03712 0.09710 0.56614
 Cu322 Cu -0.06496 0.04178 0.57513
 N323 N -0.09864 0.04848 0.53381
 N324 N -0.09026 0.03312 0.55083
 C325 C -0.10133 0.01182 0.54769
 C326 C -0.11738 0.01393 0.52749
 C327 C -0.11515 0.03749 0.51914
 H328 H -0.09761 -0.00412 0.55901
 H329 H -0.12492 0.04611 0.50369
 N330 N -0.03895 0.05408 0.59742
 N331 N -0.02828 0.07511 0.59398
 C332 C -0.01078 0.07796 0.61167
 C333 C -0.01029 0.05771 0.62703
 C334 C -0.02852 0.04301 0.61739
 H335 H 0.00116 0.09340 0.61288
 H336 H -0.03368 0.02539 0.62418
 H337 H -0.04873 0.06558 0.55093
 H338 H -0.06936 0.07879 0.57353
 N339 N 0.47552 0.55409 -0.00016
 N340 N 0.45716 0.54951 -0.01561
 C341 C 0.45855 0.56439 -0.03527
 C342 C 0.47912 0.57868 -0.03198
 C343 C 0.48936 0.57190 -0.00948
 H344 H 0.44529 0.56522 -0.05048
 H345 H 0.50507 0.57995 -0.00018
 Cu346 Cu 0.43243 0.52560 -0.00774
 Cu347 Cu 0.47856 0.53780 0.03159
 Cu348 Cu 0.45228 0.48121 0.03117
 N349 N 0.41230 0.49764 -0.00114
 N350 N 0.42022 0.47995 0.01360
 C351 C 0.40288 0.46265 0.01411
 C352 C 0.38291 0.47015 -0.00087
 C353 C 0.38961 0.49243 -0.01024
 H354 H 0.40449 0.44616 0.02502
 H355 H 0.37891 0.50389 -0.02297
 N356 N 0.47871 0.49034 0.05485
 N357 N 0.48720 0.51246 0.05594
 C358 C 0.50353 0.51374 0.07482
 C359 C 0.50573 0.49128 0.08602
 C360 C 0.48984 0.47678 0.07287
 H361 H 0.51378 0.52965 0.07951
 H362 H 0.48634 0.45792 0.07644
 H363 H 0.47000 0.50882 0.01233
 H364 H 0.44617 0.51683 0.03436
 N365 N 0.54292 -0.07809 0.02692
 N366 N 0.55938 -0.06659 0.01401
 C367 C 0.56198 -0.07776 -0.00700
 C368 C 0.54646 -0.09746 -0.00704
 C369 C 0.53461 -0.09706 0.01474
 H370 H 0.57460 -0.07232 -0.02091
 H371 H 0.52086 -0.10955 0.02123
 Cu372 Cu 0.57615 -0.03844 0.02626
 Cu373 Cu 0.53320 -0.06720 0.05834
 Cu374 Cu 0.57994 -0.03537 0.08696
 N375 N 0.59623 -0.01431 0.04214
 N376 N 0.59789 -0.01338 0.06590
 C377 C 0.61333 0.00442 0.07212
 C378 C 0.62176 0.01547 0.05108
 C379 C 0.61048 0.00298 0.03238
 H380 H 0.61796 0.00887 0.09064
 H381 H 0.61233 0.00620 0.01311
 N382 N 0.55257 -0.05061 0.10437
 N383 N 0.53408 -0.06171 0.09329
 C384 C 0.51675 -0.06724 0.10945
 C385 C 0.52471 -0.05917 0.13187
 C386 C 0.54756 -0.04884 0.12794
 H387 H 0.49934 -0.07586 0.10503
 H388 H 0.55886 -0.03916 0.14085
 H389 H 0.55133 -0.03402 0.06191
 H390 H 0.56979 -0.06248 0.06343
 N391 N 1.01953 0.44377 0.49748
 N392 N 1.03769 0.44868 0.48294
 C393 C 1.03971 0.43076 0.46738
 C394 C 1.02165 0.41388 0.47232
 C395 C 1.00917 0.42281 0.49151
 H396 H 1.05312 0.43014 0.45335
 H397 H 0.99387 0.41451 0.50065
 Cu398 Cu 1.05678 0.47814 0.48530
 Cu399 Cu 1.01066 0.46479 0.52307
 Cu400 Cu 1.04599 0.51567 0.53065
 N401 N 1.07803 0.50547 0.49186
 N402 N 1.07415 0.51971 0.50982
 C403 C 1.09230 0.53620 0.51077
 C404 C 1.10830 0.53218 0.49230
 C405 C 1.09860 0.51261 0.48060
 H406 H 1.09373 0.55013 0.52388
 H407 H 1.10645 0.50377 0.46553
 N408 N 1.01673 0.50828 0.54992
 N409 N 1.00419 0.48813 0.54791
 C410 C 0.98622 0.48753 0.56421
 C411 C 0.98724 0.50847 0.57671
 C412 C 1.00664 0.52133 0.56718
 H413 H 0.97291 0.47327 0.56645
 H414 H 1.01307 0.53871 0.57268
 H415 H 1.02358 0.49662 0.50730
 H416 H 1.04603 0.47902 0.52769
 C417 C 0.39046 -0.02035 0.25270
 C418 C 0.10271 -0.02615 0.76168
 C419 C 0.62042 0.48945 0.24144
 C420 C 0.89344 0.52292 0.73637
 C421 C 0.23998 0.34714 -0.01947
 C422 C 0.74195 0.14894 -0.00752
 C423 C 0.26956 0.63273 0.49662
 C424 C 0.76461 0.87029 0.50180
 C425 C 0.02898 0.25547 0.38029
 C426 C -0.01024 0.73416 0.12735
 C427 C 0.49807 0.23604 0.63275
 C428 C 0.50391 0.75083 0.89772
 C429 C 0.13212 0.21791 0.28919
 C430 C 0.11451 0.22802 0.30388
 C431 C 0.10477 0.25113 0.29780
 C432 C 0.11271 0.26366 0.27705
 C433 C 0.13004 0.25334 0.26237
 C434 C 0.13991 0.23042 0.26830
 C435 C 0.08706 0.26120 0.31240
 C436 C 0.07865 0.24826 0.33273
 C437 C 0.08822 0.22510 0.33864
 C438 C 0.10626 0.21519 0.32433
 C439 C 0.07910 0.21193 0.35840
 C440 C 0.06051 0.22146 0.37212
 C441 C 0.05119 0.24494 0.36710
 C442 C 0.06035 0.25793 0.34689
 H443 H 0.13936 0.20011 0.29382
 H444 H 0.10544 0.28139 0.27212
 H445 H 0.13590 0.26347 0.24650
 H446 H 0.07958 0.27894 0.30774
 H447 H 0.11357 0.19737 0.32888
 H448 H 0.08582 0.19390 0.36282
 H449 H 0.05304 0.20981 0.38606
 H450 H 0.05276 0.27555 0.34197
 C451 C 0.60846 0.73079 0.80179
 C452 C 0.58905 0.73782 0.81635
 C453 C 0.56811 0.74982 0.80544
 C454 C 0.56691 0.75471 0.78040
 C455 C 0.58610 0.74756 0.76609
 C456 C 0.60708 0.73548 0.77649
 C457 C 0.54842 0.75639 0.81960
 C458 C 0.54899 0.75059 0.84451
 C459 C 0.56995 0.73895 0.85565
 C460 C 0.59001 0.73281 0.84154
 C461 C 0.57027 0.73350 0.88066
 C462 C 0.54943 0.73819 0.89411
 C463 C 0.52748 0.74786 0.88280
 C464 C 0.52847 0.75572 0.85821
 H465 H 0.62449 0.72163 0.81019
 H466 H 0.55094 0.76383 0.77178
 H467 H 0.58418 0.75136 0.74677
 H468 H 0.53229 0.76537 0.81108
 H469 H 0.60607 0.72371 0.85004
 H470 H 0.58639 0.72509 0.88973
 H471 H 0.54998 0.73325 0.91329
 H472 H 0.51325 0.76557 0.84925
 C473 C 0.39142 0.77153 0.80112
 C474 C 0.41172 0.76488 0.81659
 C475 C 0.42497 0.74357 0.81259
 C476 C 0.41766 0.72925 0.79328
 C477 C 0.39743 0.73598 0.77799
 C478 C 0.38410 0.75718 0.78167
 C479 C 0.44534 0.73694 0.82790
 C480 C 0.45268 0.75140 0.84712
 C481 C 0.43941 0.77263 0.85123
 C482 C 0.41898 0.77926 0.83594
 C483 C 0.44669 0.78676 0.87069
 C484 C 0.46719 0.78019 0.88575
 C485 C 0.48139 0.75955 0.88135
 C486 C 0.47315 0.74491 0.86228
 H487 H 0.38158 0.78802 0.80423
 H488 H 0.42759 0.71282 0.79000
 H489 H 0.39225 0.72441 0.76335
 H490 H 0.45554 0.72060 0.82479
 H491 H 0.40878 0.79558 0.83909
 H492 H 0.43637 0.80284 0.87443
 H493 H 0.47131 0.79121 0.90104
 H494 H 0.48313 0.72847 0.85909
 C495 C -0.07800 0.27732 0.27720
 C496 C -0.05861 0.27738 0.29498
 C497 C -0.05091 0.29928 0.30490
 C498 C -0.06277 0.32066 0.29711
 C499 C -0.08260 0.32038 0.28022
 C500 C -0.09071 0.29875 0.27013
 C501 C -0.03182 0.29947 0.32282
 C502 C -0.02089 0.27792 0.33172
 C503 C -0.02880 0.25597 0.32214
 C504 C -0.04732 0.25583 0.30357
 C505 C -0.01811 0.23449 0.33139
 C506 C -0.00008 0.23471 0.35016
 C507 C 0.00786 0.25641 0.36038
 C508 C -0.00233 0.27807 0.35024
 H509 H -0.08393 0.26041 0.26993
 H510 H -0.05702 0.33762 0.30443
 H511 H -0.09124 0.33738 0.27488
 H512 H -0.02594 0.31634 0.33029
 H513 H -0.05329 0.23895 0.29619
 H514 H -0.02378 0.21746 0.32419
 H515 H 0.00781 0.21775 0.35689
 H516 H 0.00417 0.29523 0.35627
 C517 C -0.13243 0.71973 0.20351
 C518 C -0.11210 0.72595 0.18939
 C519 C -0.10363 0.74993 0.18851
 C520 C -0.11575 0.76731 0.20146
 C521 C -0.13568 0.76095 0.21567
 C522 C -0.14406 0.73711 0.21711
 C523 C -0.08290 0.75611 0.17511
 C524 C -0.07023 0.73857 0.16282
 C525 C -0.07869 0.71465 0.16350
 C526 C -0.09969 0.70849 0.17663
 C527 C -0.06554 0.69715 0.15169
 C528 C -0.04404 0.70315 0.13954
 C529 C -0.03546 0.72709 0.13813
 C530 C -0.04880 0.74452 0.15039
 H531 H -0.13863 0.70128 0.20455
 H532 H -0.10958 0.78579 0.20089
 H533 H -0.14452 0.77480 0.22557
 H534 H -0.07635 0.77449 0.17464
 H535 H -0.10604 0.69006 0.17733
 H536 H -0.07147 0.67860 0.15244
 H537 H -0.03385 0.68858 0.13218
 H538 H -0.04206 0.76280 0.15057
 C539 C 0.37609 0.20494 0.70496
 C540 C 0.39757 0.21356 0.69404
 C541 C 0.40466 0.23772 0.69662
 C542 C 0.39025 0.25281 0.71015
 C543 C 0.36910 0.24409 0.72120
 C544 C 0.36166 0.22001 0.71889
 C545 C 0.42603 0.24642 0.68565
 C546 C 0.44045 0.23123 0.67211
 C547 C 0.43355 0.20701 0.66979
 C548 C 0.41217 0.19831 0.68073
 C549 C 0.44827 0.19181 0.65670
 C550 C 0.46912 0.20066 0.64522
 C551 C 0.47545 0.22524 0.64583
 C552 C 0.46153 0.23997 0.66064
 H553 H 0.37107 0.18635 0.70283
 H554 H 0.39537 0.27141 0.71227
 H555 H 0.35863 0.25653 0.73139
 H556 H 0.43135 0.26502 0.68753
 H557 H 0.40689 0.17970 0.67885
 H558 H 0.44369 0.17299 0.65537
 H559 H 0.48024 0.18785 0.63618
 H560 H 0.46675 0.25859 0.66252
 C561 C 0.60139 0.28563 0.72510
 C562 C 0.58104 0.28117 0.70929
 C563 C 0.57125 0.29985 0.69374
 C564 C 0.58182 0.32268 0.69436
 C565 C 0.60253 0.32681 0.70951
 C566 C 0.61292 0.30831 0.72486
 C567 C 0.55159 0.29525 0.67725
 C568 C 0.54225 0.27193 0.67536
 C569 C 0.55194 0.25326 0.69097
 C570 C 0.57095 0.25806 0.70814
 C571 C 0.54280 0.22998 0.68879
 C572 C 0.52523 0.22499 0.67049
 C573 C 0.51633 0.24308 0.65369
 C574 C 0.52399 0.26691 0.65750
 H575 H 0.60889 0.27097 0.73655
 H576 H 0.57447 0.33725 0.68264
 H577 H 0.61024 0.34468 0.70909
 H578 H 0.54425 0.30961 0.66521
 H579 H 0.57846 0.24365 0.72000
 H580 H 0.54973 0.21547 0.70081
 H581 H 0.51911 0.20663 0.66883
 H582 H 0.51627 0.28175 0.64653
 C583 C 0.07833 0.78296 0.23367
 C584 C 0.06108 0.77855 0.21469
 C585 C 0.05379 0.79739 0.19807
 C586 C 0.06348 0.82041 0.20102
 C587 C 0.08081 0.82460 0.21982
 C588 C 0.08863 0.80591 0.23618
 C589 C 0.03742 0.79279 0.17845
 C590 C 0.02870 0.76946 0.17492
 C591 C 0.03549 0.75079 0.19190
 C592 C 0.05147 0.75547 0.21178
 C593 C 0.02637 0.72765 0.18859
 C594 C 0.01161 0.72279 0.16808
 C595 C 0.00595 0.74077 0.14996
 C596 C 0.01365 0.76447 0.15443
 H597 H 0.08425 0.76828 0.24597
 H598 H 0.05795 0.83512 0.18857
 H599 H 0.08809 0.84253 0.22147
 H600 H 0.03203 0.80722 0.16556
 H601 H 0.05686 0.74104 0.22465
 H602 H 0.03091 0.71322 0.20171
 H603 H 0.00501 0.70465 0.16596
 H604 H 0.00809 0.77925 0.14218
 C605 C 0.30979 0.09942 0.23056
 C606 C 0.32321 0.07863 0.23804
 C607 C 0.31932 0.06765 0.26109
 C608 C 0.30225 0.07773 0.27633
 C609 C 0.28881 0.09823 0.26867
 C610 C 0.29226 0.10920 0.24569
 C611 C 0.33229 0.04662 0.26843
 C612 C 0.34889 0.03621 0.25289
 C613 C 0.35291 0.04724 0.22994
 C614 C 0.34017 0.06844 0.22268
 C615 C 0.36969 0.03690 0.21463
 C616 C 0.38189 0.01548 0.22162
 C617 C 0.37717 0.00339 0.24397
 C618 C 0.36132 0.01478 0.25987
 H619 H 0.31253 0.10756 0.21274
 H620 H 0.29912 0.06962 0.29410
 H621 H 0.27571 0.10552 0.28086
 H622 H 0.32919 0.03817 0.28608
 H623 H 0.34323 0.07684 0.20500
 H624 H 0.37350 0.04544 0.19721
 H625 H 0.39535 0.00890 0.20947
 H626 H 0.35826 0.00648 0.27758
 C627 C 0.79112 0.62750 0.72513
 C628 C 0.80599 0.60676 0.72755
 C629 C 0.79572 0.58504 0.73647
 C630 C 0.77092 0.58451 0.74314
 C631 C 0.75637 0.60530 0.74099
 C632 C 0.76624 0.62692 0.73186
 C633 C 0.81042 0.56424 0.73875
 C634 C 0.83542 0.56494 0.73265
 C635 C 0.84583 0.58671 0.72424
 C636 C 0.83100 0.60745 0.72146
 C637 C 0.87109 0.58753 0.71946
 C638 C 0.88589 0.56700 0.72301
 C639 C 0.87573 0.54463 0.73023
 C640 C 0.85025 0.54425 0.73558
 H641 H 0.79903 0.64414 0.71833
 H642 H 0.76277 0.56802 0.75003
 H643 H 0.73722 0.60432 0.74609
 H644 H 0.80247 0.54758 0.74553
 H645 H 0.83901 0.62417 0.71492
 H646 H 0.87958 0.60422 0.71356
 H647 H 0.90558 0.56855 0.72023
 H648 H 0.84183 0.52836 0.74331
 C649 C 0.80199 0.41306 0.75920
 C650 C 0.81736 0.43169 0.75111
 C651 C 0.81311 0.44248 0.72773
 C652 C 0.79376 0.43414 0.71271
 C653 C 0.77846 0.41563 0.72093
 C654 C 0.78220 0.40502 0.74436
 C655 C 0.82803 0.46163 0.71994
 C656 C 0.84692 0.47031 0.73541
 C657 C 0.85129 0.45924 0.75862
 C658 C 0.83665 0.43992 0.76626
 C659 C 0.87016 0.46775 0.77398
 C660 C 0.88396 0.48769 0.76695
 C661 C 0.87897 0.50012 0.74443
 C662 C 0.86115 0.49021 0.72828
 H663 H 0.80527 0.40524 0.77729
 H664 H 0.79028 0.44209 0.69467
 H665 H 0.76365 0.40976 0.70884
 H666 H 0.82463 0.47006 0.70208
 H667 H 0.84000 0.43158 0.78417
 H668 H 0.87418 0.45906 0.79160
 H669 H 0.89866 0.49299 0.77942
 H670 H 0.85773 0.49874 0.71048
 C671 C 0.27874 -0.10898 0.28370
 C672 C 0.29582 -0.09167 0.27575
 C673 C 0.28715 -0.07075 0.26285
 C674 C 0.26179 -0.06773 0.25752
 C675 C 0.24500 -0.08509 0.26510
 C676 C 0.25307 -0.10590 0.27852
 C677 C 0.30391 -0.05306 0.25554
 C678 C 0.32935 -0.05603 0.26079
 C679 C 0.33825 -0.07727 0.27288
 C680 C 0.32142 -0.09495 0.28042
 C681 C 0.36383 -0.08049 0.27695
 C682 C 0.38031 -0.06245 0.26997
 C683 C 0.37166 -0.04017 0.25982
 C684 C 0.34596 -0.03796 0.25407
 H685 H 0.28566 -0.12489 0.29360
 H686 H 0.25489 -0.05184 0.24749
 H687 H 0.22560 -0.08170 0.26071
 H688 H 0.29711 -0.03687 0.24594
 H689 H 0.32823 -0.11117 0.28993
 H690 H 0.37113 -0.09696 0.28555
 H691 H 0.40000 -0.06558 0.27313
 H692 H 0.33854 -0.02241 0.24398
 C693 C 0.20162 -0.12785 0.73491
 C694 C 0.18557 -0.11034 0.74322
 C695 C 0.18823 -0.10285 0.76736
 C696 C 0.20725 -0.11267 0.78263
 C697 C 0.22360 -0.12962 0.77406
 C698 C 0.22101 -0.13759 0.75011
 C699 C 0.17202 -0.08548 0.77573
 C700 C 0.15360 -0.07505 0.76002
 C701 C 0.15144 -0.08213 0.73573
 C702 C 0.16718 -0.09991 0.72755
 C703 C 0.13393 -0.07091 0.71978
 C704 C 0.11847 -0.05300 0.72776
 C705 C 0.11916 -0.04651 0.75235
 C706 C 0.13755 -0.05740 0.76811
 H707 H 0.19930 -0.13321 0.71631
 H708 H 0.20962 -0.10710 0.80118
 H709 H 0.23799 -0.13667 0.78653
 H710 H 0.17394 -0.07988 0.79433
 H711 H 0.16537 -0.10537 0.70890
 H712 H 0.13253 -0.07563 0.70089
 H713 H 0.10641 -0.04407 0.71419
 H714 H 0.13935 -0.05198 0.78676
 C715 C 0.71772 0.38553 0.21506
 C716 C 0.70359 0.40595 0.21998
 C717 C 0.71548 0.42837 0.22229
 C718 C 0.74109 0.43010 0.21969
 C719 C 0.75500 0.40972 0.21544
 C720 C 0.74354 0.38731 0.21325
 C721 C 0.70171 0.44874 0.22744
 C722 C 0.67615 0.44710 0.23050
 C723 C 0.66418 0.42476 0.22860
 C724 C 0.67794 0.40429 0.22322
 C725 C 0.63873 0.42331 0.23242
 C726 C 0.62517 0.44394 0.23713
 C727 C 0.63646 0.46679 0.23736
 C728 C 0.66247 0.46764 0.23539
 H729 H 0.70886 0.36820 0.21363
 H730 H 0.75045 0.44715 0.22138
 H731 H 0.77486 0.41145 0.21395
 H732 H 0.71093 0.46589 0.22908
 H733 H 0.66876 0.38711 0.22173
 H734 H 0.62924 0.40626 0.23159
 H735 H 0.60546 0.44226 0.23978
 H736 H 0.67257 0.48409 0.23779
 C737 C 0.70091 0.60878 0.25824
 C738 C 0.68538 0.58852 0.25868
 C739 C 0.67264 0.58237 0.27996
 C740 C 0.67564 0.59637 0.30037
 C741 C 0.69086 0.61648 0.29973
 C742 C 0.70353 0.62304 0.27870
 C743 C 0.65708 0.56233 0.28058
 C744 C 0.65406 0.54816 0.26023
 C745 C 0.66660 0.55429 0.23890
 C746 C 0.68218 0.57443 0.23821
 C747 C 0.66321 0.54020 0.21857
 C748 C 0.64816 0.51989 0.21962
 C749 C 0.63639 0.51266 0.24117
 C750 C 0.63875 0.52788 0.26108
 H751 H 0.71049 0.61369 0.24189
 H752 H 0.66612 0.59182 0.31685
 H753 H 0.69279 0.62681 0.31591
 H754 H 0.64742 0.55768 0.29698
 H755 H 0.69180 0.57911 0.22180
 H756 H 0.67234 0.54477 0.20188
 H757 H 0.64614 0.50925 0.20363
 H758 H 0.62870 0.52436 0.27737
 C759 C 0.20447 0.07683 0.77326
 C760 C 0.18747 0.05883 0.76739
 C761 C 0.18298 0.05307 0.74290
 C762 C 0.19579 0.06546 0.72469
 C763 C 0.21267 0.08352 0.73070
 C764 C 0.21707 0.08952 0.75504
 C765 C 0.16570 0.03517 0.73708
 C766 C 0.15277 0.02314 0.75550
 C767 C 0.15746 0.02895 0.77994
 C768 C 0.17479 0.04665 0.78574
 C769 C 0.14492 0.01682 0.79831
 C770 C 0.12747 -0.00062 0.79266
 C771 C 0.12138 -0.00605 0.76829
 C772 C 0.13519 0.00542 0.74992
 H773 H 0.20778 0.08086 0.79214
 H774 H 0.19262 0.06133 0.70580
 H775 H 0.22196 0.09297 0.71621
 H776 H 0.16220 0.03075 0.71828
 H777 H 0.17830 0.05104 0.80455
 H778 H 0.14880 0.02065 0.81720
 H779 H 0.11932 -0.01011 0.80777
 H780 H 0.13195 0.00068 0.73120
 C781 C 0.22974 0.26034 0.09811
 C782 C 0.23425 0.27769 0.07977
 C783 C 0.25608 0.29158 0.08118
 C784 C 0.27344 0.28723 0.10041
 C785 C 0.26911 0.26946 0.11825
 C786 C 0.24710 0.25616 0.11743
 C787 C 0.26031 0.30939 0.06323
 C788 C 0.24358 0.31271 0.04327
 C789 C 0.22221 0.29829 0.04146
 C790 C 0.21739 0.28121 0.05996
 C791 C 0.20617 0.30102 0.02101
 C792 C 0.21189 0.31701 0.00200
 C793 C 0.23365 0.33102 0.00296
 C794 C 0.24840 0.32974 0.02473
 H795 H 0.21284 0.24993 0.09725
 H796 H 0.29037 0.29756 0.10166
 H797 H 0.28264 0.26661 0.13308
 H798 H 0.27695 0.32018 0.06444
 H799 H 0.20081 0.27033 0.05868
 H800 H 0.18957 0.29026 0.01937
 H801 H 0.19960 0.31795 -0.01398
 H802 H 0.26398 0.34152 0.02749
 C803 C 0.72486 0.77615 0.60561
 C804 C 0.72740 0.79269 0.58611
 C805 C 0.70684 0.80676 0.57755
 C806 C 0.68397 0.80374 0.58840
 C807 C 0.68163 0.78736 0.60794
 C808 C 0.70210 0.77358 0.61699
 C809 C 0.70957 0.82390 0.55860
 C810 C 0.73276 0.82744 0.54840
 C811 C 0.75317 0.81303 0.55670
 C812 C 0.75034 0.79565 0.57536
 C813 C 0.77617 0.81635 0.54633
 C814 C 0.77923 0.83443 0.52863
 C815 C 0.75953 0.85009 0.52104
 C816 C 0.73590 0.84543 0.53032
 H817 H 0.74081 0.76559 0.61204
 H818 H 0.66798 0.81432 0.58204
 H819 H 0.66380 0.78589 0.61611
 H820 H 0.69383 0.83486 0.55221
 H821 H 0.76611 0.78476 0.58183
 H822 H 0.79193 0.80519 0.55216
 H823 H 0.79739 0.83675 0.52119
 H824 H 0.71978 0.85555 0.52368
 C825 C 0.77233 0.78821 0.38682
 C826 C 0.76812 0.80127 0.40763
 C827 C 0.74477 0.79987 0.41837
 C828 C 0.72613 0.78555 0.40830
 C829 C 0.73043 0.77270 0.38770
 C830 C 0.75350 0.77381 0.37668
 C831 C 0.74028 0.81286 0.43896
 C832 C 0.75876 0.82742 0.44897
 C833 C 0.78215 0.82891 0.43851
 C834 C 0.78676 0.81575 0.41787
 C835 C 0.80047 0.84348 0.44898
 C836 C 0.79546 0.85684 0.46930
 C837 C 0.77177 0.85628 0.47933
 C838 C 0.75395 0.84065 0.46928
 H839 H 0.79026 0.78921 0.37870
 H840 H 0.70814 0.78436 0.41632
 H841 H 0.71543 0.76208 0.38034
 H842 H 0.72231 0.81178 0.44709
 H843 H 0.80472 0.81686 0.40974
 H844 H 0.81873 0.84449 0.44152
 H845 H 0.81037 0.86722 0.47712
 H846 H 0.73587 0.83929 0.47714
 C847 C 0.25812 0.25736 -0.12722
 C848 C 0.25508 0.26972 -0.10586
 C849 C 0.25181 0.25676 -0.08373
 C850 C 0.25155 0.23161 -0.08342
 C851 C 0.25461 0.21942 -0.10481
 C852 C 0.25804 0.23213 -0.12692
 C853 C 0.24879 0.26916 -0.06234
 C854 C 0.24875 0.29436 -0.06288
 C855 C 0.25207 0.30723 -0.08504
 C856 C 0.25527 0.29486 -0.10636
 C857 C 0.25222 0.33231 -0.08556
 C858 C 0.24852 0.34460 -0.06446
 C859 C 0.24415 0.33225 -0.04221
 C860 C 0.24532 0.30687 -0.04161
 H861 H 0.26037 0.26754 -0.14407
 H862 H 0.24903 0.22136 -0.06664
 H863 H 0.25458 0.20001 -0.10390
 H864 H 0.24626 0.25921 -0.04535
 H865 H 0.25785 0.30480 -0.12334
 H866 H 0.25504 0.34246 -0.10235
 H867 H 0.24859 0.36403 -0.06553
 H868 H 0.24381 0.29657 -0.02477
 C869 C 0.72359 0.24558 -0.11727
 C870 C 0.73004 0.23100 -0.09668
 C871 C 0.75418 0.23218 -0.08595
 C872 C 0.77129 0.24835 -0.09576
 C873 C 0.76465 0.26296 -0.11615
 C874 C 0.74084 0.26156 -0.12725
 C875 C 0.76085 0.21706 -0.06577
 C876 C 0.74367 0.20070 -0.05629
 C877 C 0.71939 0.20004 -0.06673
 C878 C 0.71271 0.21517 -0.08678
 C879 C 0.70210 0.18421 -0.05697
 C880 C 0.70899 0.16831 -0.03781
 C881 C 0.73370 0.16715 -0.02829
 C882 C 0.75044 0.18471 -0.03681
 H883 H 0.70505 0.24455 -0.12539
 H884 H 0.78987 0.24958 -0.08776
 H885 H 0.77834 0.27504 -0.12350
 H886 H 0.77946 0.21776 -0.05772
 H887 H 0.69411 0.21443 -0.09486
 H888 H 0.68316 0.18406 -0.06422
 H889 H 0.69462 0.15705 -0.03052
 H890 H 0.76906 0.18526 -0.02878
 C891 C 0.22328 0.73287 0.39729
 C892 C 0.22752 0.71506 0.41570
 C893 C 0.20717 0.70359 0.42654
 C894 C 0.18300 0.71016 0.41887
 C895 C 0.17894 0.72775 0.40050
 C896 C 0.19896 0.73927 0.38944
 C897 C 0.21128 0.68559 0.44468
 C898 C 0.23550 0.67858 0.45192
 C899 C 0.25584 0.69021 0.44130
 C900 C 0.25175 0.70841 0.42332
 C901 C 0.27996 0.68357 0.44898
 C902 C 0.28392 0.66519 0.46655
 C903 C 0.26394 0.65235 0.47649
 C904 C 0.23963 0.66010 0.46961
 H905 H 0.23893 0.74139 0.38885
 H906 H 0.16719 0.70159 0.42701
 H907 H 0.16000 0.73240 0.39514
 H908 H 0.19562 0.67684 0.45296
 H909 H 0.26740 0.71726 0.41515
 H910 H 0.29580 0.69262 0.44144
 H911 H 0.30283 0.66072 0.47233
 H912 H 0.22378 0.65222 0.47821
 C913 C 0.28786 0.71922 0.60799
 C914 C 0.28148 0.70540 0.58791
 C915 C 0.25669 0.70544 0.57868
 C916 C 0.23883 0.71946 0.58939
 C917 C 0.24532 0.73314 0.60930
 C918 C 0.26980 0.73307 0.61895
 C919 C 0.25005 0.69135 0.55899
 C920 C 0.26786 0.67715 0.54838
 C921 C 0.29270 0.67729 0.55726
 C922 C 0.29941 0.69144 0.57700
 C923 C 0.31041 0.66342 0.54607
 C924 C 0.30348 0.64912 0.52663
 C925 C 0.27845 0.64769 0.51841
 C926 C 0.26107 0.66275 0.52901
 H927 H 0.30687 0.71917 0.61501
 H928 H 0.21975 0.71967 0.58252
 H929 H 0.23095 0.74340 0.61740
 H930 H 0.23098 0.69128 0.55204
 H931 H 0.31848 0.69149 0.58391
 H932 H 0.32971 0.66380 0.55220
 H933 H 0.31798 0.63966 0.51792
 H934 H 0.24195 0.66295 0.52224
 C935 C 0.77588 0.22491 0.10946
 C936 C 0.77388 0.21085 0.08885
 C937 C 0.79525 0.19972 0.08024
 C938 C 0.81816 0.20255 0.09258
 C939 C 0.81996 0.21639 0.11317
 C940 C 0.79893 0.22785 0.12176
 C941 C 0.79340 0.18592 0.05948
 C942 C 0.77035 0.18276 0.04740
 C943 C 0.74896 0.19368 0.05614
 C944 C 0.75085 0.20776 0.07671
 C945 C 0.72602 0.19045 0.04407
 C946 C 0.72416 0.17616 0.02384
 C947 C 0.74511 0.16437 0.01519
 C948 C 0.76841 0.16876 0.02676
 H949 H 0.75945 0.23339 0.11598
 H950 H 0.83472 0.19412 0.08627
 H951 H 0.83800 0.21846 0.12204
 H952 H 0.80985 0.17748 0.05287
 H953 H 0.73441 0.21623 0.08330
 H954 H 0.70944 0.19890 0.05033
 H955 H 0.70612 0.17398 0.01497
 H956 H 0.78525 0.16157 0.01982
 C957 C 0.48537 0.35049 0.54159
 C958 C 0.49124 0.33003 0.55627
 C959 C 0.51618 0.32229 0.55934
 C960 C 0.53471 0.33487 0.54713
 C961 C 0.52864 0.35509 0.53228
 C962 C 0.50399 0.36326 0.52963
 C963 C 0.52214 0.30222 0.57463
 C964 C 0.50343 0.28973 0.58673
 C965 C 0.47849 0.29714 0.58308
 C966 C 0.47254 0.31725 0.56797
 C967 C 0.45981 0.28419 0.59447
 C968 C 0.46572 0.26451 0.60998
 C969 C 0.49066 0.25771 0.61539
 C970 C 0.50926 0.27001 0.60252
 H971 H 0.46623 0.35638 0.53938
 H972 H 0.55391 0.32917 0.54917
 H973 H 0.54332 0.36466 0.52331
 H974 H 0.54129 0.29644 0.57721
 H975 H 0.45337 0.32302 0.56538
 H976 H 0.44051 0.28917 0.59124
 H977 H 0.45038 0.25462 0.61725
 H978 H 0.52845 0.26442 0.60530
 C979 C -0.03800 0.84742 0.03695
 C980 C -0.03736 0.82635 0.05177
 C981 C -0.05959 0.81713 0.06107
 C982 C -0.08204 0.82918 0.05547
 C983 C -0.08242 0.85047 0.04129
 C984 C -0.06045 0.85982 0.03198
 C985 C -0.05895 0.79639 0.07630
 C986 C -0.03625 0.78525 0.08313
 C987 C -0.01405 0.79455 0.07394
 C988 C -0.01475 0.81479 0.05802
 C989 C 0.00857 0.78364 0.08108
 C990 C 0.00933 0.76434 0.09792
 C991 C -0.01249 0.75528 0.10821
 C992 C -0.03541 0.76529 0.09948
 H993 H -0.02091 0.85465 0.03010
 H994 H -0.09926 0.82240 0.06245
 H995 H -0.09995 0.85964 0.03756
 H996 H -0.07603 0.78938 0.08344
 H997 H 0.00234 0.82190 0.05101
 H998 H 0.02578 0.79033 0.07400
 H999 H 0.02722 0.75667 0.10344
 H1000 H -0.05276 0.75791 0.10531
 C1001 C 0.03005 0.63207 0.03863
 C1002 C 0.01948 0.64956 0.05284
 C1003 C -0.00492 0.65791 0.04717
 C1004 C -0.01835 0.64860 0.02749
 C1005 C -0.00756 0.63160 0.01320
 C1006 C 0.01675 0.62330 0.01848
 C1007 C -0.01539 0.67569 0.06098
 C1008 C -0.00166 0.68552 0.08024
 C1009 C 0.02271 0.67725 0.08588
 C1010 C 0.03309 0.65922 0.07228
 C1011 C 0.03654 0.68754 0.10469
 C1012 C 0.02631 0.70565 0.11803
 C1013 C 0.00152 0.71348 0.11352
 C1014 C -0.01188 0.70367 0.09378
 H1015 H 0.04888 0.62593 0.04271
 H1016 H -0.03709 0.65474 0.02291
 H1017 H -0.01833 0.62491 -0.00204
 H1018 H -0.03409 0.68207 0.05657
 H1019 H 0.05186 0.65298 0.07659
 H1020 H 0.05551 0.68187 0.10886
 H1021 H 0.03835 0.71375 0.13145
 H1022 H -0.03047 0.71019 0.08913
 C1023 C 0.53201 0.13460 0.54140
 C1024 C 0.52326 0.15377 0.55449
 C1025 C 0.49862 0.16207 0.55030
 C1026 C 0.48342 0.15150 0.53257
 C1027 C 0.49235 0.13254 0.51946
 C1028 C 0.51656 0.12370 0.52400
 C1029 C 0.48949 0.18053 0.56414
 C1030 C 0.50468 0.19075 0.58213
 C1031 C 0.52951 0.18297 0.58576
 C1032 C 0.53868 0.16456 0.57192
 C1033 C 0.54475 0.19365 0.60331
 C1034 C 0.53524 0.21108 0.61796
 C1035 C 0.50991 0.21777 0.61601
 C1036 C 0.49526 0.20830 0.59689
 H1037 H 0.55083 0.12815 0.54479
 H1038 H 0.46452 0.15768 0.52905
 H1039 H 0.48003 0.12439 0.50623
 H1040 H 0.47046 0.18662 0.56119
 H1041 H 0.55766 0.15838 0.57496
 H1042 H 0.56407 0.18845 0.60580
 H1043 H 0.54806 0.21918 0.63069
 H1044 H 0.47609 0.21399 0.59421
 C1045 C -0.02418 0.17122 0.48607
 C1046 C -0.01894 0.18755 0.46700
 C1047 C -0.03780 0.19415 0.44951
 C1048 C -0.06166 0.18478 0.45167
 C1049 C -0.06665 0.16837 0.47051
 C1050 C -0.04792 0.16111 0.48766
 C1051 C -0.03240 0.20951 0.42979
 C1052 C -0.00824 0.21800 0.42704
 C1053 C 0.01050 0.21193 0.44477
 C1054 C 0.00501 0.19687 0.46477
 C1055 C 0.03444 0.22092 0.44210
 C1056 C 0.03999 0.23499 0.42158
 C1057 C 0.02196 0.23987 0.40278
 C1058 C -0.00255 0.23219 0.40654
 H1059 H -0.00950 0.16576 0.49906
 H1060 H -0.07636 0.18978 0.43851
 H1061 H -0.08520 0.16123 0.47147
 H1062 H -0.04684 0.21431 0.41625
 H1063 H 0.01947 0.19201 0.47827
 H1064 H 0.04895 0.21692 0.45578
 H1065 H 0.05868 0.24169 0.42000
 H1066 H -0.01750 0.23722 0.39375
 C1067 C 0.47268 0.62090 0.95387
 C1068 C 0.48034 0.64153 0.94104
 C1069 C 0.50131 0.64045 0.92648
 C1070 C 0.51436 0.61874 0.92520
 C1071 C 0.50698 0.59843 0.93862
 C1072 C 0.48615 0.59949 0.95293
 C1073 C 0.50923 0.66120 0.91396
 C1074 C 0.49702 0.68318 0.91657
 C1075 C 0.47623 0.68421 0.93131
 C1076 C 0.46776 0.66333 0.94312
 C1077 C 0.46437 0.70617 0.93423
 C1078 C 0.47352 0.72708 0.92337
 C1079 C 0.49483 0.72676 0.90922
 C1080 C 0.50562 0.70420 0.90502
 H1081 H 0.45673 0.62163 0.96522
 H1082 H 0.53054 0.61760 0.91425
 H1083 H 0.51753 0.58192 0.93793
 H1084 H 0.52532 0.66039 0.90281
 H1085 H 0.45178 0.66416 0.95441
 H1086 H 0.44825 0.70726 0.94526
 H1087 H 0.46412 0.74387 0.92632
 H1088 H 0.52063 0.70257 0.89281
 C1089 C 0.53780 0.86070 0.98098
 C1090 C 0.53406 0.84347 0.96339
 C1091 C 0.53553 0.85012 0.93850
 C1092 C 0.54165 0.87382 0.93176
 C1093 C 0.54579 0.89082 0.94950
 C1094 C 0.54345 0.88448 0.97418
 C1095 C 0.53062 0.83304 0.92087
 C1096 C 0.52447 0.80940 0.92789
 C1097 C 0.52402 0.80269 0.95281
 C1098 C 0.52871 0.81973 0.97038
 C1099 C 0.51886 0.77898 0.95984
 C1100 C 0.51311 0.76220 0.94246
 C1101 C 0.51134 0.76884 0.91744
 C1102 C 0.51845 0.79242 0.91045
 H1103 H 0.53643 0.85556 1.00002
 H1104 H 0.54305 0.87924 0.91281
 H1105 H 0.55017 0.90908 0.94389
 H1106 H 0.53132 0.83820 0.90176
 H1107 H 0.52798 0.81457 0.98949
 H1108 H 0.51929 0.77336 0.97887
 H1109 H 0.51020 0.74399 0.94902
 H1110 H 0.51854 0.79766 0.89134
 C1111 C 0.03535 0.37966 0.44772
 C1112 C 0.03057 0.35802 0.43621
 C1113 C 0.00653 0.34805 0.43648
 C1114 C -0.01220 0.35971 0.44851
 C1115 C -0.00720 0.38105 0.46018
 C1116 C 0.01654 0.39128 0.45983
 C1117 C 0.00164 0.32650 0.42491
 C1118 C 0.02060 0.31456 0.41341
 C1119 C 0.04468 0.32432 0.41345
 C1120 C 0.04950 0.34608 0.42467
 C1121 C 0.06370 0.31189 0.40270
 C1122 C 0.05898 0.29004 0.39191
 C1123 C 0.03481 0.28036 0.39071
 C1124 C 0.01589 0.29281 0.40218
 H1125 H 0.05382 0.38718 0.44762
 H1126 H -0.03070 0.35229 0.44897
 H1127 H -0.02208 0.38971 0.46922
 H1128 H -0.01683 0.31892 0.42505
 H1129 H 0.06801 0.35356 0.42464
 H1130 H 0.08243 0.31882 0.40310
 H1131 H 0.07468 0.28066 0.38514
 H1132 H -0.00261 0.28531 0.40244
 C1133 C 0.37238 0.53235 0.47730
 C1134 C 0.35416 0.54845 0.48437
 C1135 C 0.34905 0.55013 0.50919
 C1136 C 0.36222 0.53556 0.52649
 C1137 C 0.38041 0.51965 0.51933
 C1138 C 0.38579 0.51787 0.49469
 C1139 C 0.33103 0.56645 0.51630
 C1140 C 0.31827 0.58134 0.49889
 C1141 C 0.32333 0.57950 0.47409
 C1142 C 0.34110 0.56302 0.46697
 C1143 C 0.31044 0.59410 0.45673
 C1144 C 0.29327 0.61096 0.46382
 C1145 C 0.28895 0.61429 0.48862
 C1146 C 0.30069 0.59820 0.50588
 H1147 H 0.37602 0.53120 0.45822
 H1148 H 0.35859 0.53659 0.54561
 H1149 H 0.39038 0.50894 0.53326
 H1150 H 0.32719 0.56778 0.53536
 H1151 H 0.34493 0.56169 0.44790
 H1152 H 0.31359 0.59247 0.43758
 H1153 H 0.28320 0.62116 0.44958
 H1154 H 0.29650 0.59922 0.52487
 C1155 C 0.84925 0.05161 -0.01667
 C1156 C 0.83155 0.06886 -0.01105
 C1157 C 0.82196 0.06869 0.01244
 C1158 C 0.83034 0.05134 0.02992
 C1159 C 0.84788 0.03415 0.02413
 C1160 C 0.85749 0.03403 0.00079
 C1161 C 0.80388 0.08560 0.01794
 C1162 C 0.79496 0.10241 0.00010
 C1163 C 0.80461 0.10262 -0.02332
 C1164 C 0.82301 0.08601 -0.02870
 C1165 C 0.79506 0.11888 -0.04126
 C1166 C 0.77566 0.13440 -0.03632
 C1167 C 0.76586 0.13483 -0.01292
 C1168 C 0.77590 0.11845 0.00511
 H1169 H 0.85619 0.05172 -0.03482
 H1170 H 0.82322 0.05096 0.04803
 H1171 H 0.85397 0.02105 0.03806
 H1172 H 0.79640 0.08537 0.03592
 H1173 H 0.83028 0.08608 -0.04677
 H1174 H 0.80195 0.11896 -0.05946
 H1175 H 0.76780 0.14511 -0.05141
 H1176 H 0.76809 0.11764 0.02293
 C1177 C 0.64836 0.04320 0.02648
 C1178 C 0.66452 0.06275 0.02444
 C1179 C 0.67145 0.07556 0.04524
 C1180 C 0.66206 0.06856 0.06774
 C1181 C 0.64597 0.04907 0.06962
 C1182 C 0.63892 0.03615 0.04905
 C1183 C 0.68765 0.09509 0.04322
 C1184 C 0.69700 0.10199 0.02062
 C1185 C 0.69011 0.08907 -0.00011
 C1186 C 0.67391 0.06959 0.00190
 C1187 C 0.69981 0.09558 -0.02251
 C1188 C 0.71605 0.11482 -0.02448
 C1189 C 0.72262 0.12866 -0.00427
 C1190 C 0.71336 0.12143 0.01850
 H1191 H 0.64337 0.03347 0.01042
 H1192 H 0.66713 0.07817 0.08389
 H1193 H 0.63899 0.04430 0.08725
 H1194 H 0.69295 0.10491 0.05920
 H1195 H 0.66868 0.05970 -0.01406
 H1196 H 0.69502 0.08565 -0.03853
 H1197 H 0.72357 0.11910 -0.04203
 H1198 H 0.71921 0.13032 0.03482
 C1199 C 0.14565 0.55555 0.50535
 C1200 C 0.16761 0.56779 0.50015
 C1201 C 0.17497 0.57047 0.47587
 C1202 C 0.16047 0.56037 0.45728
 C1203 C 0.13890 0.54776 0.46268
 C1204 C 0.13120 0.54541 0.48669
 C1205 C 0.19665 0.58319 0.47059
 C1206 C 0.21122 0.59303 0.48934
 C1207 C 0.20416 0.58974 0.51363
 C1208 C 0.18237 0.57730 0.51888
 C1209 C 0.21912 0.59881 0.53235
 C1210 C 0.24033 0.61190 0.52710
 C1211 C 0.24667 0.61726 0.50285
 C1212 C 0.23258 0.60634 0.48419
 H1213 H 0.14005 0.55350 0.52397
 H1214 H 0.16582 0.56219 0.43857
 H1215 H 0.12800 0.54017 0.44800
 H1216 H 0.20212 0.58549 0.45194
 H1217 H 0.17689 0.57502 0.53754
 H1218 H 0.21444 0.59574 0.55114
 H1219 H 0.25166 0.61778 0.54230
 H1220 H 0.23790 0.60887 0.46552
 C1221 C 0.14019 0.45287 -0.02939
 C1222 C 0.15718 0.43452 -0.02278
 C1223 C 0.17235 0.43616 -0.00149
 C1224 C 0.16968 0.45601 0.01317
 C1225 C 0.15271 0.47438 0.00634
 C1226 C 0.13816 0.47318 -0.01525
 C1227 C 0.19023 0.41821 0.00439
 C1228 C 0.19338 0.39904 -0.01112
 C1229 C 0.17771 0.39735 -0.03208
 C1230 C 0.15955 0.41487 -0.03760
 C1231 C 0.18068 0.37835 -0.04751
 C1232 C 0.20001 0.36196 -0.04325
 C1233 C 0.21733 0.36433 -0.02360
 C1234 C 0.21243 0.38197 -0.00655
 H1235 H 0.12872 0.45133 -0.04578
 H1236 H 0.18104 0.45758 0.02964
 H1237 H 0.15145 0.48979 0.01762
 H1238 H 0.20216 0.41958 0.02054
 H1239 H 0.14776 0.41360 -0.05387
 H1240 H 0.16828 0.37637 -0.06322
 H1241 H 0.20111 0.34743 -0.05558
 H1242 H 0.22447 0.38323 0.00952
 C1243 C 0.64374 0.95358 0.49457
 C1244 C 0.66583 0.94070 0.49943
 C1245 C 0.67664 0.93960 0.52320
 C1246 C 0.66553 0.95222 0.54152
 C1247 C 0.64389 0.96566 0.53632
 C1248 C 0.63269 0.96611 0.51293
 C1249 C 0.69831 0.92594 0.52818
 C1250 C 0.70953 0.91383 0.50954
 C1251 C 0.69922 0.91594 0.48564
 C1252 C 0.67735 0.92911 0.48077
 C1253 C 0.71104 0.90500 0.46685
 C1254 C 0.73228 0.89115 0.47170
 C1255 C 0.74172 0.88676 0.49577
 C1256 C 0.73078 0.89952 0.51437
 H1257 H 0.63539 0.95427 0.47637
 H1258 H 0.67362 0.95178 0.55981
 H1259 H 0.63562 0.97534 0.55067
 H1260 H 0.70638 0.92471 0.54649
 H1261 H 0.66931 0.93037 0.46243
 H1262 H 0.70392 0.90725 0.44826
 H1263 H 0.74112 0.88406 0.45625
 H1264 H 0.73850 0.89768 0.53278
 C1265 C 0.85924 0.97555 0.53203
 C1266 C 0.84328 0.95806 0.52279
 C1267 C 0.83455 0.95987 0.49830
 C1268 C 0.84195 0.97933 0.48350
 C1269 C 0.85759 0.99691 0.49296
 C1270 C 0.86637 0.99518 0.51729
 C1271 C 0.81835 0.94240 0.48918
 C1272 C 0.81042 0.92344 0.50442
 C1273 C 0.81905 0.92193 0.52893
 C1274 C 0.83558 0.93903 0.53788
 C1275 C 0.81044 0.90374 0.54441
 C1276 C 0.79336 0.88716 0.53588
 C1277 C 0.78509 0.88747 0.51118
 C1278 C 0.79358 0.90628 0.49575
 H1279 H 0.86559 0.97414 0.55089
 H1280 H 0.83548 0.98107 0.46468
 H1281 H 0.86295 1.01176 0.48114
 H1282 H 0.81165 0.94378 0.47039
 H1283 H 0.84210 0.93778 0.55674
 H1284 H 0.81639 0.90273 0.56340
 H1285 H 0.78623 0.87465 0.54924
 H1286 H 0.78665 0.90773 0.47705
 C1287 C 0.35780 0.43247 -0.00268
 C1288 C 0.33530 0.42064 -0.00736
 C1289 C 0.31390 0.43414 -0.01473
 C1290 C 0.31540 0.45913 -0.01758
 C1291 C 0.33787 0.47072 -0.01313
 C1292 C 0.35924 0.45757 -0.00558
 C1293 C 0.29131 0.42248 -0.01905
 C1294 C 0.28977 0.39746 -0.01609
 C1295 C 0.31122 0.38390 -0.00926
 C1296 C 0.33386 0.39555 -0.00488
 C1297 C 0.30970 0.35889 -0.00719
 C1298 C 0.28697 0.34750 -0.01094
 C1299 C 0.26484 0.36078 -0.01584
 C1300 C 0.26702 0.38587 -0.01985
 H1301 H 0.37421 0.42212 0.00288
 H1302 H 0.29919 0.46974 -0.02320
 H1303 H 0.33839 0.49008 -0.01528
 H1304 H 0.27488 0.43291 -0.02449
 H1305 H 0.35030 0.38513 0.00050
 H1306 H 0.32606 0.34810 -0.00260
 H1307 H 0.28646 0.32809 -0.00933
 H1308 H 0.25134 0.39668 -0.02635
 C1309 C 0.54360 0.46680 0.36170
 C1310 C 0.55353 0.47064 0.33867
 C1311 C 0.53742 0.47506 0.31817
 C1312 C 0.51176 0.47574 0.32103
 C1313 C 0.50207 0.47223 0.34399
 C1314 C 0.51781 0.46773 0.36456
 C1315 C 0.54719 0.47894 0.29515
 C1316 C 0.57293 0.47891 0.29237
 C1317 C 0.58904 0.47462 0.31283
 C1318 C 0.57927 0.47034 0.33583
 C1319 C 0.61468 0.47464 0.30992
 C1320 C 0.62428 0.47937 0.28709
 C1321 C 0.60860 0.48450 0.26641
 C1322 C 0.58269 0.48329 0.26939
 H1323 H 0.55597 0.46357 0.37742
 H1324 H 0.49916 0.47911 0.30551
 H1325 H 0.48216 0.47279 0.34554
 H1326 H 0.53477 0.48230 0.27947
 H1327 H 0.59169 0.46700 0.35152
 H1328 H 0.62737 0.47114 0.32535
 H1329 H 0.64422 0.47939 0.28553
 H1330 H 0.56977 0.48552 0.25405
 C1331 C 0.01604 -0.04040 0.87556
 C1332 C 0.03043 -0.03476 0.85538
 C1333 C 0.03106 -0.01082 0.84600
 C1334 C 0.01745 0.00701 0.85683
 C1335 C 0.00314 0.00126 0.87668
 C1336 C 0.00213 -0.02243 0.88623
 C1337 C 0.04522 -0.00499 0.82590
 C1338 C 0.05883 -0.02276 0.81492
 C1339 C 0.05827 -0.04670 0.82408
 C1340 C 0.04407 -0.05260 0.84430
 C1341 C 0.07174 -0.06433 0.81267
 C1342 C 0.08597 -0.05824 0.79267
 C1343 C 0.08757 -0.03418 0.78389
 C1344 C 0.07304 -0.01681 0.79489
 H1345 H 0.01534 -0.05876 0.88264
 H1346 H 0.01784 0.02544 0.84992
 H1347 H -0.00697 0.01558 0.88468
 H1348 H 0.04567 0.01341 0.81880
 H1349 H 0.04362 -0.07099 0.85135
 H1350 H 0.07114 -0.08290 0.81910
 H1351 H 0.09528 -0.07264 0.78404
 H1352 H 0.07322 0.00163 0.78794
 C1353 C 0.00849 0.02896 0.65879
 C1354 C 0.02556 0.02344 0.67800
 C1355 C 0.04139 0.04145 0.68698
 C1356 C 0.03960 0.06480 0.67673
 C1357 C 0.02259 0.07015 0.65752
 C1358 C 0.00699 0.05228 0.64817
 C1359 C 0.05894 0.03575 0.70577
 C1360 C 0.06108 0.01215 0.71546
 C1361 C 0.04498 -0.00572 0.70664
 C1362 C 0.02727 0.00003 0.68810
 C1363 C 0.04689 -0.02914 0.71645
 C1364 C 0.06517 -0.03508 0.73417
 C1365 C 0.08249 -0.01794 0.74235
 C1366 C 0.07928 0.00609 0.73359
 H1367 H -0.00319 0.01486 0.65186
 H1368 H 0.05151 0.07888 0.68342
 H1369 H 0.02179 0.08834 0.65002
 H1370 H 0.07122 0.04955 0.71251
 H1371 H 0.01504 -0.01379 0.68130
 H1372 H 0.03443 -0.04299 0.71020
 H1373 H 0.06631 -0.05347 0.74117
 H1374 H 0.09065 0.02029 0.74072
 C1375 C 0.52642 0.50041 0.12571
 C1376 C 0.54354 0.49482 0.14485
 C1377 C 0.55744 0.47328 0.14474
 C1378 C 0.55312 0.45719 0.12609
 C1379 C 0.53554 0.46263 0.10742
 C1380 C 0.52249 0.48446 0.10685
 C1381 C 0.57549 0.46824 0.16318
 C1382 C 0.57925 0.48407 0.18217
 C1383 C 0.56457 0.50502 0.18286
 C1384 C 0.54704 0.51046 0.16403
 C1385 C 0.56785 0.52028 0.20227
 C1386 C 0.58537 0.51477 0.22092
 C1387 C 0.60041 0.49395 0.22069
 C1388 C 0.59750 0.47916 0.20046
 H1389 H 0.51611 0.51715 0.12546
 H1390 H 0.56345 0.44051 0.12584
 H1391 H 0.53276 0.45017 0.09297
 H1392 H 0.58648 0.45193 0.16284
 H1393 H 0.53611 0.52681 0.16431
 H1394 H 0.55677 0.53646 0.20312
 H1395 H 0.58730 0.52690 0.23576
 H1396 H 0.60944 0.46392 0.19826
 C1397 C 0.48443 -0.05869 0.15304
 C1398 C 0.47090 -0.05491 0.17381
 C1399 C 0.48359 -0.05129 0.19626
 C1400 C 0.50956 -0.05205 0.19766
 C1401 C 0.52288 -0.05534 0.17682
 C1402 C 0.51050 -0.05827 0.15427
 C1403 C 0.47019 -0.04609 0.21672
 C1404 C 0.44430 -0.04365 0.21482
 C1405 C 0.43158 -0.04780 0.19255
 C1406 C 0.44491 -0.05373 0.17225
 C1407 C 0.40575 -0.04537 0.19081
 C1408 C 0.39283 -0.03742 0.21046
 C1409 C 0.40539 -0.03129 0.23229
 C1410 C 0.43111 -0.03620 0.23466
 H1411 H 0.47462 -0.06074 0.13576
 H1412 H 0.51958 -0.04943 0.21474
 H1413 H 0.54293 -0.05527 0.17832
 H1414 H 0.47998 -0.04294 0.23383
 H1415 H 0.43514 -0.05657 0.15506
 H1416 H 0.39560 -0.04893 0.17402
 H1417 H 0.37295 -0.03497 0.20828
 H1418 H 0.44128 -0.03382 0.25164
 C1419 C 0.96890 0.50051 0.61692
 C1420 C 0.95340 0.50704 0.63548
 C1421 C 0.93887 0.52819 0.63256
 C1422 C 0.94085 0.54292 0.61155
 C1423 C 0.95709 0.53676 0.59360
 C1424 C 0.97093 0.51542 0.59605
 C1425 C 0.92292 0.53447 0.65084
 C1426 C 0.92230 0.52058 0.67258
 C1427 C 0.93757 0.50002 0.67585
 C1428 C 0.95257 0.49303 0.65708
 C1429 C 0.93780 0.48692 0.69796
 C1430 C 0.92369 0.49455 0.71693
 C1431 C 0.90842 0.51526 0.71433
 C1432 C 0.90707 0.52736 0.69129
 H1433 H 0.97983 0.48414 0.61888
 H1434 H 0.93004 0.55930 0.60911
 H1435 H 0.95849 0.54838 0.57755
 H1436 H 0.91155 0.55053 0.64845
 H1437 H 0.96402 0.47703 0.65951
 H1438 H 0.94935 0.47106 0.70082
 H1439 H 0.92497 0.48437 0.73403
 H1440 H 0.89446 0.54217 0.68746
 C1441 C 0.99279 0.55376 0.84125
 C1442 C 0.97900 0.54910 0.81999
 C1443 C 0.99106 0.54088 0.79955
 C1444 C 1.01684 0.53726 0.80094
 C1445 C 1.03040 0.54134 0.82252
 C1446 C 1.01847 0.54967 0.84280
 C1447 C 0.97704 0.53585 0.77838
 C1448 C 0.95106 0.53800 0.77785
 C1449 C 0.93917 0.54590 0.79852
 C1450 C 0.95321 0.55185 0.81924
 C1451 C 0.91335 0.54722 0.79843
 C1452 C 0.89928 0.53996 0.77841
 C1453 C 0.91053 0.53155 0.75756
 C1454 C 0.93675 0.53167 0.75726
 H1455 H 0.98329 0.55967 0.85695
 H1456 H 1.02643 0.53086 0.78551
 H1457 H 1.05021 0.53808 0.82337
 H1458 H 0.98625 0.52953 0.76266
 H1459 H 0.94398 0.55795 0.83505
 H1460 H 0.90395 0.55326 0.81414
 H1461 H 0.87930 0.54036 0.77942
 H1462 H 0.94636 0.52655 0.74143
 C1463 C 0.47308 0.00677 0.37198
 C1464 C 0.45642 -0.00043 0.35357
 C1465 C 0.43941 -0.01906 0.35843
 C1466 C 0.44007 -0.03080 0.38139
 C1467 C 0.45733 -0.02405 0.39938
 C1468 C 0.47366 -0.00502 0.39490
 C1469 C 0.42225 -0.02579 0.34020
 C1470 C 0.42262 -0.01486 0.31687
 C1471 C 0.44027 0.00311 0.31186
 C1472 C 0.45672 0.01054 0.33032
 C1473 C 0.44126 0.01332 0.28842
 C1474 C 0.42535 0.00544 0.26994
 C1475 C 0.40767 -0.01272 0.27427
 C1476 C 0.40586 -0.02191 0.29840
 H1477 H 0.48592 0.02126 0.36839
 H1478 H 0.42733 -0.04525 0.38539
 H1479 H 0.45753 -0.03328 0.41700
 H1480 H 0.40900 -0.03987 0.34402
 H1481 H 0.47003 0.02457 0.32650
 H1482 H 0.45462 0.02717 0.28425
 H1483 H 0.42700 0.01344 0.25189
 H1484 H 0.39157 -0.03445 0.30326
   
