data_POSCAR
  _audit_creation_date              2014-09-24
  _audit_creation_method            'ToBaCCo'
  _symmetry_space_group_name_H-M    'P1'
  _symmetry_Int_Tables_number       1
  _symmetry_cell_setting            triclinic
  loop_
  _symmetry_equiv_pos_as_xyz
 x,y,z
_cell_length_a 65.5476
_cell_length_b 65.2048
_cell_length_c 68.6043
_cell_angle_alpha 89.893300
_cell_angle_beta 89.845800
_cell_angle_gamma 89.328800
loop_
  _atom_site_label
  _atom_site_type_symbol
  _atom_site_fract_x
  _atom_site_fract_y
  _atom_site_fract_z
C1 C 0.40683 0.01380 0.28406
 H2 H 0.39623 0.02616 0.28092
 C3 C 0.41893 0.01473 0.30075
 H4 H 0.41724 0.02782 0.31033
 C5 C 0.42195 -0.01804 0.27533
 H6 H 0.42298 -0.03080 0.26530
 C7 C 0.43429 -0.01780 0.29194
 H8 H 0.44474 -0.03047 0.29458
 N9 N 0.40817 -0.00265 0.27196
 C10 C 0.40701 -0.02297 0.21494
 H11 H 0.39640 -0.03520 0.21768
 C12 C 0.41920 -0.02353 0.19819
 H13 H 0.41763 -0.03622 0.18819
 C14 C 0.42190 0.00829 0.22463
 H15 H 0.42278 0.02071 0.23502
 C16 C 0.43434 0.00839 0.20802
 H17 H 0.44473 0.02097 0.20579
 Zn18 Zn 0.39087 -0.00487 0.24981
 N19 N 0.40823 -0.00697 0.22755
 C20 C 0.37478 0.03084 0.23092
 N21 N 0.37356 0.01890 0.24719
 C22 C 0.35994 0.02349 0.26158
 C23 C 0.34750 0.04107 0.26029
 C24 C 0.36265 0.04852 0.22903
 C25 C 0.37540 -0.04048 0.26887
 C26 C 0.36332 -0.05789 0.27103
 C27 C 0.34782 -0.05018 0.23996
 C28 C 0.36028 -0.03293 0.23841
 N29 N 0.37399 -0.02856 0.25260
 H30 H 0.38519 0.02675 0.21931
 H31 H 0.35893 0.01362 0.27424
 H32 H 0.33703 0.04454 0.27209
 H33 H 0.36415 0.05784 0.21604
 H34 H 0.38586 -0.03653 0.28035
 H35 H 0.36510 -0.06703 0.28413
 H36 H 0.33726 -0.05322 0.22822
 H37 H 0.35910 -0.02305 0.22577
 C38 C 0.43289 -0.00753 0.19436
 C39 C 0.43267 -0.00138 0.30510
 C40 C 0.34927 -0.06323 0.25640
 C41 C 0.34889 0.05401 0.24391
 C42 C 0.09358 0.02286 0.71476
 H43 H 0.10432 0.03500 0.71726
 C44 C 0.08143 0.02331 0.69804
 H45 H 0.08315 0.03585 0.68783
 C46 C 0.07838 -0.00813 0.72497
 H47 H 0.07741 -0.02043 0.73553
 C48 C 0.06597 -0.00833 0.70842
 H49 H 0.05550 -0.02086 0.70640
 N50 N 0.09222 0.00702 0.72758
 C51 C 0.09450 -0.01368 0.78437
 H52 H 0.10531 -0.02589 0.78134
 C53 C 0.08273 -0.01443 0.80135
 H54 H 0.08484 -0.02724 0.81123
 C55 C 0.07867 0.01769 0.77521
 H56 H 0.07730 0.03023 0.76493
 C57 C 0.06661 0.01760 0.79207
 H58 H 0.05601 0.03016 0.79463
 Zn59 Zn 0.10976 0.00480 0.74958
 N60 N 0.09268 0.00248 0.77194
 C61 C 0.12526 0.04016 0.76866
 N62 N 0.12662 0.02846 0.75227
 C63 C 0.14030 0.03303 0.73799
 C64 C 0.15277 0.05025 0.73963
 C65 C 0.13738 0.05751 0.77088
 C66 C 0.12551 -0.03078 0.73036
 C67 C 0.13770 -0.04838 0.72813
 C68 C 0.15352 -0.04100 0.75900
 C69 C 0.14099 -0.02352 0.76065
 N70 N 0.12704 -0.01892 0.74661
 H71 H 0.11483 0.03607 0.78019
 H72 H 0.14145 0.02333 0.72525
 H73 H 0.16336 0.05367 0.72796
 H74 H 0.13583 0.06660 0.78400
 H75 H 0.11484 -0.02668 0.71902
 H76 H 0.13597 -0.05763 0.71516
 H77 H 0.16428 -0.04447 0.77051
 H78 H 0.14224 -0.01370 0.77328
 C79 C 0.06881 0.00155 0.80561
 C80 C 0.06764 0.00736 0.69448
 C81 C 0.15184 -0.05385 0.74263
 C82 C 0.15132 0.06288 0.75620
 C83 C 0.59215 0.51891 0.21546
 H84 H 0.60272 0.53118 0.21811
 C85 C 0.58026 0.51924 0.19859
 H86 H 0.58184 0.53195 0.18854
 C87 C 0.57788 0.48723 0.22499
 H88 H 0.57737 0.47457 0.23518
 C89 C 0.56572 0.48692 0.20825
 H90 H 0.55580 0.47402 0.20581
 N91 N 0.59097 0.50295 0.22816
 C92 C 0.60521 0.50543 0.29003
 H93 H 0.62152 0.50732 0.28901
 C94 C 0.59555 0.50817 0.30796
 H95 H 0.60480 0.51147 0.32060
 C96 C 0.57345 0.50041 0.27451
 H97 H 0.56480 0.49803 0.26137
 C98 C 0.56311 0.50299 0.29228
 H99 H 0.54662 0.50222 0.29259
 Zn100 Zn 0.60914 0.50172 0.24983
 N101 N 0.59418 0.50163 0.27371
 C102 C 0.61634 0.54337 0.25663
 N103 N 0.62554 0.52566 0.25064
 C104 C 0.64595 0.52482 0.24697
 C105 C 0.65793 0.54227 0.24948
 C106 C 0.62777 0.56106 0.25958
 C107 C 0.62533 0.46620 0.23091
 C108 C 0.63724 0.44837 0.22889
 C109 C 0.65126 0.45451 0.26078
 C110 C 0.63902 0.47219 0.26222
 N111 N 0.62615 0.47762 0.24750
 H112 H 0.60012 0.54360 0.25959
 H113 H 0.65299 0.51056 0.24234
 H114 H 0.67416 0.54123 0.24664
 H115 H 0.62012 0.57490 0.26458
 H116 H 0.61552 0.47090 0.21907
 H117 H 0.63615 0.43953 0.21560
 H118 H 0.66123 0.45050 0.27279
 H119 H 0.63989 0.48152 0.27514
 C120 C 0.57419 0.50718 0.30929
 C121 C 0.56704 0.50294 0.19461
 C122 C 0.65037 0.44221 0.24400
 C123 C 0.64890 0.56066 0.25613
 C124 C 0.90840 0.51535 0.78354
 H125 H 0.89792 0.52779 0.78035
 C126 C 0.92053 0.51628 0.80021
 H127 H 0.91890 0.52952 0.80962
 C128 C 0.92322 0.48335 0.77495
 H129 H 0.92410 0.47052 0.76499
 C130 C 0.93557 0.48355 0.79156
 H131 H 0.94588 0.47073 0.79414
 N132 N 0.90953 0.49880 0.77156
 C133 C 0.90744 0.47862 0.71441
 H134 H 0.89686 0.46639 0.71724
 C135 C 0.91928 0.47819 0.69742
 H136 H 0.91747 0.46558 0.68735
 C137 C 0.92260 0.50976 0.72405
 H138 H 0.92370 0.52210 0.73450
 C139 C 0.93470 0.50998 0.70722
 H140 H 0.94506 0.52256 0.70488
 Zn141 Zn 0.89192 0.49657 0.74963
 N142 N 0.90894 0.49451 0.72711
 C143 C 0.87563 0.53239 0.73106
 N144 N 0.87460 0.52037 0.74728
 C145 C 0.86123 0.52496 0.76189
 C146 C 0.84890 0.54263 0.76089
 C147 C 0.86359 0.55017 0.72944
 C148 C 0.87665 0.46105 0.76902
 C149 C 0.86458 0.44365 0.77139
 C150 C 0.84876 0.45114 0.74045
 C151 C 0.86119 0.46839 0.73865
 N152 N 0.87506 0.47287 0.75268
 H153 H 0.88583 0.52831 0.71928
 H154 H 0.86038 0.51503 0.77452
 H155 H 0.83866 0.54611 0.77287
 H156 H 0.86496 0.55958 0.71649
 H157 H 0.88721 0.46507 0.78039
 H158 H 0.86631 0.43446 0.78445
 H159 H 0.83801 0.44781 0.72895
 H160 H 0.85986 0.47818 0.72595
 C161 C 0.93292 0.49420 0.69345
 C162 C 0.93410 0.50002 0.80475
 C163 C 0.85045 0.43837 0.75694
 C164 C 0.85013 0.55568 0.74457
 C165 C 0.22244 0.38337 0.98300
 H166 H 0.23324 0.38277 0.97106
 C167 C 0.20401 0.39426 0.98084
 H168 H 0.20090 0.40217 0.96726
 C169 C 0.21320 0.37331 1.01497
 H170 H 0.21654 0.36475 1.02809
 C171 C 0.19475 0.38418 1.01352
 H172 H 0.18426 0.38396 1.02574
 N173 N 0.22670 0.37315 0.99987
 C174 C 0.29268 0.36348 1.00601
 H175 H 0.29274 0.34705 1.00821
 C176 C 0.31070 0.37444 1.00844
 H177 H 0.32458 0.36624 1.01227
 C178 C 0.27431 0.39403 0.99877
 H179 H 0.26002 0.40165 0.99541
 C180 C 0.29212 0.40557 1.00070
 H181 H 0.29133 0.42202 0.99862
 Zn182 Zn 0.25107 0.35678 1.00105
 N183 N 0.27492 0.37334 1.00140
 C184 C 0.26577 0.34231 0.96485
 N185 N 0.25117 0.33963 0.97870
 C186 C 0.23542 0.32655 0.97578
 C187 C 0.23372 0.31584 0.95817
 C188 C 0.26451 0.33217 0.94700
 C189 C 0.25454 0.35224 1.04104
 C190 C 0.25786 0.34245 1.05885
 C191 C 0.25593 0.30978 1.04248
 C192 C 0.25274 0.32027 1.02485
 N193 N 0.25213 0.34116 1.02448
 H194 H 0.27796 0.35301 0.96729
 H195 H 0.22378 0.32498 0.98687
 H196 H 0.22078 0.30598 0.95587
 H197 H 0.27599 0.33503 0.93598
 H198 H 0.25440 0.36882 1.04030
 H199 H 0.25991 0.35175 1.07174
 H200 H 0.25661 0.29319 1.04249
 H201 H 0.25132 0.31171 1.01147
 C202 C 0.31060 0.39580 1.00584
 C203 C 0.18982 0.39475 0.99623
 C204 C 0.25880 0.32093 1.05977
 C205 C 0.24813 0.31901 0.94333
 C206 C 0.77918 0.11596 0.98269
 H207 H 0.76873 0.11682 0.97054
 C208 C 0.79787 0.10548 0.98062
 H209 H 0.80140 0.09820 0.96682
 C210 C 0.78730 0.12503 1.01510
 H211 H 0.78345 0.13305 1.02838
 C212 C 0.80596 0.11449 1.01379
 H213 H 0.81593 0.11450 1.02635
 N214 N 0.77427 0.12554 0.99972
 C215 C 0.70815 0.13424 1.00603
 H216 H 0.70792 0.15060 1.00862
 C217 C 0.69026 0.12302 1.00833
 H218 H 0.67631 0.13095 1.01245
 C219 C 0.72681 0.10412 0.99791
 H220 H 0.74118 0.09677 0.99423
 C221 C 0.70912 0.09234 0.99967
 H222 H 0.71006 0.07596 0.99716
 Zn223 Zn 0.74965 0.14159 1.00090
 N224 N 0.72601 0.12472 1.00107
 C225 C 0.73487 0.15629 0.96483
 N226 N 0.74948 0.15898 0.97859
 C227 C 0.76513 0.17219 0.97559
 C228 C 0.76672 0.18302 0.95799
 C229 C 0.73602 0.16658 0.94700
 C230 C 0.74563 0.14558 1.04090
 C231 C 0.74231 0.15507 1.05884
 C232 C 0.74451 0.18801 1.04287
 C233 C 0.74771 0.17781 1.02511
 N234 N 0.74823 0.15693 1.02447
 H235 H 0.72275 0.14551 0.96732
 H236 H 0.77678 0.17377 0.98661
 H237 H 0.77959 0.19300 0.95563
 H238 H 0.72451 0.16373 0.93608
 H239 H 0.74569 0.12901 1.03997
 H240 H 0.74015 0.14556 1.07161
 H241 H 0.74395 0.20461 1.04309
 H242 H 0.74932 0.18658 1.01183
 C243 C 0.69057 0.10175 1.00518
 C244 C 0.81170 0.10463 0.99630
 C245 C 0.74154 0.17659 1.06004
 C246 C 0.75230 0.17987 0.94323
 C247 C 0.27684 0.60922 0.51065
 H248 H 0.26543 0.60544 0.52143
 C249 C 0.29463 0.59715 0.50922
 H250 H 0.29681 0.58448 0.51925
 C251 C 0.28749 0.62963 0.48408
 H252 H 0.28477 0.64212 0.47408
 C253 C 0.30539 0.61793 0.48208
 H254 H 0.31612 0.62186 0.47068
 N255 N 0.27374 0.62546 0.49845
 C256 C 0.21134 0.63121 0.51616
 H257 H 0.21341 0.64449 0.52529
 C258 C 0.19358 0.61973 0.51819
 H259 H 0.18234 0.62437 0.52895
 C260 C 0.22322 0.60945 0.49089
 H261 H 0.23487 0.60551 0.48029
 C262 C 0.20553 0.59761 0.49232
 H263 H 0.20377 0.58461 0.48271
 Zn264 Zn 0.24968 0.64261 0.50091
 N265 N 0.22578 0.62597 0.50268
 C266 C 0.23469 0.65567 0.46415
 N267 N 0.24815 0.66013 0.47853
 C268 C 0.26187 0.67551 0.47628
 C269 C 0.26306 0.68640 0.45870
 C270 C 0.23549 0.66600 0.44631
 C271 C 0.25365 0.64830 0.54125
 C272 C 0.25123 0.65819 0.55911
 C273 C 0.24319 0.68957 0.54194
 C274 C 0.24564 0.67898 0.52430
 N275 N 0.25059 0.65861 0.52425
 H276 H 0.22388 0.64347 0.46614
 H277 H 0.27259 0.67866 0.48783
 H278 H 0.27461 0.69799 0.45693
 H279 H 0.22509 0.66164 0.43485
 H280 H 0.25704 0.63209 0.54105
 H281 H 0.25331 0.64940 0.57237
 H282 H 0.23869 0.70560 0.54170
 H283 H 0.24260 0.68686 0.51073
 C284 C 0.19037 0.60271 0.50614
 C285 C 0.30934 0.60156 0.49488
 C286 C 0.24555 0.67902 0.55968
 C287 C 0.25015 0.68124 0.44322
 C288 C 0.72166 0.88415 0.48480
 H289 H 0.73242 0.88349 0.47282
 C290 C 0.70320 0.89498 0.48264
 H291 H 0.70002 0.90278 0.46903
 C292 C 0.71260 0.87430 0.51687
 H293 H 0.71602 0.86586 0.53003
 C294 C 0.69411 0.88513 0.51543
 H295 H 0.68368 0.88498 0.52769
 N296 N 0.72603 0.87406 0.50171
 C297 C 0.79209 0.86483 0.50767
 H298 H 0.79229 0.84841 0.50995
 C299 C 0.81003 0.87594 0.51001
 H300 H 0.82399 0.86787 0.51384
 C301 C 0.77348 0.89521 0.50036
 H302 H 0.75912 0.90271 0.49701
 C303 C 0.79120 0.90690 0.50219
 H304 H 0.79028 0.92333 0.50004
 Zn305 Zn 0.75050 0.85782 0.50291
 N306 N 0.77424 0.87453 0.50308
 C307 C 0.76517 0.84312 0.46675
 N308 N 0.75060 0.84051 0.48064
 C309 C 0.73489 0.82736 0.47785
 C310 C 0.73321 0.81647 0.46034
 C311 C 0.76394 0.83278 0.44900
 C312 C 0.75411 0.85356 0.54293
 C313 C 0.75752 0.84391 0.56079
 C314 C 0.75576 0.81112 0.54462
 C315 C 0.75247 0.82147 0.52694
 N316 N 0.75172 0.84235 0.52644
 H317 H 0.77733 0.85388 0.46909
 H318 H 0.72327 0.82585 0.48897
 H319 H 0.72031 0.80652 0.45816
 H320 H 0.77543 0.83555 0.43796
 H321 H 0.75387 0.87014 0.54209
 H322 H 0.75955 0.85330 0.57362
 H323 H 0.75655 0.79452 0.54472
 H324 H 0.75105 0.81282 0.51361
 C325 C 0.80977 0.89729 0.50732
 C326 C 0.68908 0.89556 0.49809
 C327 C 0.75860 0.82239 0.56184
 C328 C 0.74762 0.81951 0.44546
 C329 C 0.00763 0.27522 0.40037
 H330 H 0.02031 0.26470 0.40251
 C331 C 0.00547 0.29234 0.41223
 H332 H 0.01668 0.29495 0.42349
 C333 C -0.02203 0.28467 0.38258
 H334 H -0.03266 0.28154 0.37098
 C335 C -0.02467 0.30216 0.39399
 H336 H -0.03734 0.31249 0.39101
 N337 N -0.00577 0.27198 0.38568
 C338 C 0.02098 0.21375 0.38252
 H339 H 0.03115 0.21625 0.37037
 C340 C 0.02350 0.19636 0.39414
 H341 H 0.03567 0.18559 0.39065
 C342 C -0.00745 0.22460 0.40148
 H343 H -0.01965 0.23560 0.40398
 C344 C -0.00536 0.20764 0.41361
 H345 H -0.01614 0.20585 0.42547
 Zn346 Zn -0.00032 0.24936 0.36984
 N347 N 0.00535 0.22707 0.38610
 C348 C 0.02562 0.24159 0.33869
 N349 N 0.02163 0.25495 0.35341
 C350 C 0.03235 0.27251 0.35554
 C351 C 0.04845 0.27678 0.34300
 C352 C 0.04150 0.24531 0.32571
 C353 C -0.03340 0.22606 0.35699
 C354 C -0.04972 0.22154 0.34489
 C355 C -0.04276 0.25239 0.32647
 C356 C -0.02669 0.25640 0.33905
 N357 N -0.02256 0.24343 0.35407
 H358 H 0.01647 0.22799 0.33713
 H359 H 0.02852 0.28321 0.36700
 H360 H 0.05711 0.29063 0.34515
 H361 H 0.04477 0.23426 0.31433
 H362 H -0.02949 0.21572 0.36875
 H363 H -0.05845 0.20783 0.34763
 H364 H -0.04611 0.26311 0.31481
 H365 H -0.01748 0.26988 0.33691
 C366 C 0.00990 0.19286 0.40969
 C367 C -0.01057 0.30631 0.40880
 C368 C -0.05465 0.23490 0.32952
 C369 C 0.05332 0.26296 0.32801
 C370 C 0.00689 0.72521 0.09726
 H371 H 0.01977 0.73528 0.09555
 C372 C 0.00436 0.70887 0.08456
 H373 H 0.01553 0.70634 0.07313
 C374 C -0.02308 0.71625 0.11462
 H375 H -0.03372 0.71930 0.12635
 C376 C -0.02614 0.69960 0.10234
 H377 H -0.03910 0.68979 0.10482
 N378 N -0.00651 0.72830 0.11211
 C379 C 0.02077 0.78478 0.11618
 H380 H 0.03118 0.78131 0.12793
 C381 C 0.02416 0.80179 0.10435
 H382 H 0.03713 0.81145 0.10725
 C383 C -0.00879 0.77645 0.09809
 H384 H -0.02161 0.76643 0.09586
 C385 C -0.00590 0.79314 0.08583
 H386 H -0.01675 0.79601 0.07424
 Zn387 Zn -0.00128 0.75016 0.12871
 N388 N 0.00425 0.77285 0.11308
 C389 C 0.02470 0.75675 0.15976
 N390 N 0.02085 0.74383 0.14476
 C391 C 0.03218 0.72653 0.14177
 C392 C 0.04885 0.72219 0.15365
 C393 C 0.04110 0.75291 0.17211
 C394 C -0.03622 0.77189 0.14144
 C395 C -0.05330 0.77514 0.15316
 C396 C -0.04356 0.74524 0.17211
 C397 C -0.02689 0.74242 0.15979
 N398 N -0.02377 0.75546 0.14468
 H399 H 0.01513 0.77019 0.16193
 H400 H 0.02849 0.71620 0.13006
 H401 H 0.05805 0.70862 0.15078
 H402 H 0.04428 0.76368 0.18368
 H403 H -0.03315 0.78232 0.12959
 H404 H -0.06321 0.78811 0.14990
 H405 H -0.04575 0.73433 0.18383
 H406 H -0.01649 0.72965 0.16210
 C407 C 0.01056 0.80624 0.08911
 C408 C -0.01210 0.69559 0.08728
 C409 C -0.05745 0.76151 0.16862
 C410 C 0.05362 0.73564 0.16885
 C411 C 0.50798 0.22681 0.59529
 H412 H 0.52117 0.23645 0.59350
 C413 C 0.50512 0.21027 0.58292
 H414 H 0.51635 0.20715 0.57168
 C415 C 0.47753 0.21918 0.61250
 H416 H 0.46682 0.22285 0.62400
 C417 C 0.47416 0.20231 0.60056
 H418 H 0.46088 0.19293 0.60309
 N419 N 0.49448 0.23068 0.60990
 C420 C 0.52425 0.28557 0.61194
 H421 H 0.53460 0.28185 0.62367
 C422 C 0.52869 0.30169 0.59934
 H423 H 0.54237 0.31050 0.60166
 C424 C 0.49384 0.27862 0.59459
 H425 H 0.48031 0.26944 0.59292
 C426 C 0.49777 0.29443 0.58155
 H427 H 0.48697 0.29756 0.56998
 Zn428 Zn 0.50032 0.25290 0.62587
 N429 N 0.50685 0.27474 0.60954
 C430 C 0.53293 0.22866 0.63998
 N431 N 0.52211 0.24639 0.64226
 C432 C 0.52618 0.25974 0.65687
 C433 C 0.54228 0.25584 0.66956
 C434 C 0.54932 0.22425 0.65220
 C435 C 0.46687 0.27701 0.63870
 C436 C 0.45023 0.28146 0.65069
 C437 C 0.45773 0.25057 0.66908
 C438 C 0.47402 0.24660 0.65660
 N439 N 0.47804 0.25959 0.64163
 H440 H 0.52907 0.21804 0.62856
 H441 H 0.51702 0.27355 0.65847
 H442 H 0.54565 0.26692 0.68080
 H443 H 0.55814 0.21031 0.64990
 H444 H 0.47067 0.28734 0.62696
 H445 H 0.44115 0.29513 0.64793
 H446 H 0.45447 0.23978 0.68066
 H447 H 0.48343 0.23303 0.65868
 C448 C 0.51522 0.30638 0.58405
 C449 C 0.48824 0.19755 0.58574
 C450 C 0.44542 0.26801 0.66598
 C451 C 0.55429 0.23808 0.66703
 C452 C 0.50693 0.77323 0.90122
 H453 H 0.51953 0.76260 0.90333
 C454 C 0.50472 0.79013 0.91336
 H455 H 0.51580 0.79244 0.92480
 C456 C 0.47760 0.78324 0.88320
 H457 H 0.46714 0.78043 0.87140
 C458 C 0.47491 0.80052 0.89490
 H459 H 0.46238 0.81101 0.89191
 N460 N 0.49375 0.77040 0.88627
 C461 C 0.52151 0.71313 0.88285
 H462 H 0.53221 0.71638 0.87130
 C463 C 0.52434 0.69575 0.89443
 H464 H 0.53721 0.68562 0.89159
 C465 C 0.49156 0.72220 0.90049
 H466 H 0.47872 0.73256 0.90254
 C467 C 0.49390 0.70519 0.91251
 H468 H 0.48265 0.70247 0.92379
 Zn469 Zn 0.49952 0.74822 0.86996
 N470 N 0.50504 0.72558 0.88581
 C471 C 0.53239 0.77180 0.85673
 N472 N 0.52175 0.75427 0.85407
 C473 C 0.52612 0.74116 0.83924
 C474 C 0.54230 0.74513 0.82667
 C475 C 0.54880 0.77629 0.84462
 C476 C 0.46682 0.72514 0.85578
 C477 C 0.45065 0.72107 0.84334
 C478 C 0.45772 0.75264 0.82612
 C479 C 0.47362 0.75619 0.83902
 N480 N 0.47759 0.74268 0.85364
 H481 H 0.52827 0.78228 0.86828
 H482 H 0.51706 0.72756 0.83729
 H483 H 0.54586 0.73427 0.81520
 H484 H 0.55739 0.79011 0.84718
 H485 H 0.47062 0.71434 0.86718
 H486 H 0.44193 0.70724 0.84548
 H487 H 0.45446 0.76382 0.81483
 H488 H 0.48280 0.76979 0.83749
 C489 C 0.51021 0.69148 0.90927
 C490 C 0.48885 0.80430 0.90994
 C491 C 0.44583 0.73504 0.82843
 C492 C 0.55403 0.76274 0.82952
 C493 C -0.24306 0.67168 0.97507
 H494 H -0.23205 0.67622 0.98591
 C495 C -0.24490 0.68294 0.95765
 H496 H -0.23536 0.69617 0.95532
 C497 C -0.26822 0.64854 0.96447
 H498 H -0.27693 0.63481 0.96672
 C499 C -0.27041 0.65913 0.94696
 H500 H -0.28114 0.65348 0.93633
 N501 N -0.25508 0.65511 0.97839
 C502 C -0.25746 0.64474 1.04164
 H503 H -0.25887 0.62824 1.04084
 C504 C -0.25627 0.65425 1.05975
 H505 H -0.25706 0.64471 1.07267
 C506 C -0.25425 0.67662 1.02548
 H507 H -0.25347 0.68531 1.01210
 C508 C -0.25294 0.68687 1.04342
 H509 H -0.25111 0.70335 1.04346
 Zn510 Zn -0.25416 0.63932 1.00200
 N511 N -0.25583 0.65582 1.02494
 C512 C -0.21564 0.62741 1.01755
 N513 N -0.22906 0.62390 1.00283
 C514 C -0.22462 0.60994 0.98868
 C515 C -0.20636 0.59852 0.98931
 C516 C -0.19730 0.61633 1.01877
 C517 C -0.29594 0.63120 1.00108
 C518 C -0.31368 0.61978 0.99874
 C519 C -0.29324 0.58881 1.00046
 C520 C -0.27577 0.60087 1.00234
 N521 N -0.27737 0.62171 1.00219
 H522 H -0.21898 0.63894 1.02840
 H523 H -0.23532 0.60758 0.97694
 H524 H -0.20324 0.58740 0.97795
 H525 H -0.18700 0.61944 1.03068
 H526 H -0.29686 0.64778 1.00117
 H527 H -0.32820 0.62772 0.99732
 H528 H -0.29163 0.57227 1.00023
 H529 H -0.26095 0.59355 1.00354
 C530 C -0.25343 0.67560 1.06097
 C531 C -0.25885 0.67671 0.94334
 C532 C -0.31247 0.59829 0.99815
 C533 C -0.19242 0.60156 1.00458
 C534 C -0.24742 0.32213 0.52299
 H535 H -0.24737 0.31348 0.50959
 C536 C -0.24901 0.31223 0.54013
 H537 H -0.25040 0.29570 0.54025
 C538 C -0.24443 0.35462 0.53851
 H539 H -0.24333 0.37115 0.53783
 C540 C -0.24603 0.34445 0.55760
 H541 H -0.24558 0.35405 0.57046
 N542 N -0.24585 0.34416 0.52246
 C543 C -0.23431 0.35254 0.46165
 H544 H -0.22599 0.36655 0.46371
 C545 C -0.23207 0.34200 0.44414
 H546 H -0.22174 0.34800 0.43326
 C547 C -0.25841 0.32852 0.47293
 H548 H -0.26900 0.32358 0.48405
 C549 C -0.25650 0.31730 0.45552
 H550 H -0.26557 0.30370 0.45349
 Zn551 Zn -0.24737 0.36097 0.49965
 N552 N -0.24688 0.34548 0.47591
 C553 C -0.20544 0.36815 0.49774
 N554 N -0.22374 0.37800 0.49977
 C555 C -0.22483 0.39883 0.50093
 C556 C -0.20710 0.41055 0.49927
 C557 C -0.18746 0.37925 0.49558
 C558 C -0.28572 0.37329 0.51546
 C559 C -0.30357 0.38508 0.51725
 C560 C -0.29364 0.40406 0.48861
 C561 C -0.27591 0.39186 0.48740
 N562 N -0.27208 0.37703 0.50092
 H563 H -0.20493 0.35157 0.49705
 H564 H -0.23943 0.40642 0.50290
 H565 H -0.20829 0.42711 0.49993
 H566 H -0.17316 0.37106 0.49348
 H567 H -0.28290 0.36107 0.52577
 H568 H -0.31394 0.38170 0.52912
 H569 H -0.29612 0.41588 0.47773
 H570 H -0.26504 0.39441 0.47577
 C571 C -0.24301 0.32396 0.44089
 C572 C -0.24888 0.32401 0.55871
 C573 C -0.30780 0.40090 0.50383
 C574 C -0.18815 0.40076 0.49613
 C575 C 0.26223 -0.17363 0.02680
 H576 H 0.27186 -0.17994 0.01544
 C577 C 0.25998 -0.18391 0.04367
 H578 H 0.26762 -0.19860 0.04554
 C579 C 0.24212 -0.14541 0.03813
 H580 H 0.23528 -0.13041 0.03615
 C581 C 0.23947 -0.15594 0.05693
 H582 H 0.23049 -0.14818 0.06801
 N583 N 0.25208 -0.15413 0.02388
 C584 C 0.24975 -0.14492 -0.03961
 H585 H 0.24898 -0.12836 -0.03886
 C586 C 0.25124 -0.15452 -0.05767
 H587 H 0.25134 -0.14507 -0.07067
 C588 C 0.25093 -0.17697 -0.02338
 H589 H 0.25057 -0.18571 -0.01004
 C590 C 0.25244 -0.18729 -0.04129
 H591 H 0.25352 -0.20387 -0.04143
 Zn592 Zn 0.25193 -0.13918 -0.00022
 N593 N 0.25040 -0.15607 -0.02287
 C594 C 0.29040 -0.12820 -0.01601
 N595 N 0.27636 -0.12335 -0.00202
 C596 C 0.27977 -0.10781 0.01072
 C597 C 0.29756 -0.09614 0.00932
 C598 C 0.30828 -0.11692 -0.01798
 C599 C 0.21018 -0.13181 0.00369
 C600 C 0.19199 -0.12067 0.00585
 C601 C 0.21029 -0.08977 -0.00190
 C602 C 0.22831 -0.10151 -0.00336
 N603 N 0.22798 -0.12212 -0.00029
 H604 H 0.28793 -0.14101 -0.02562
 H605 H 0.26860 -0.10438 0.02193
 H606 H 0.29987 -0.08377 0.01955
 H607 H 0.31911 -0.12113 -0.02927
 H608 H 0.21027 -0.14825 0.00588
 H609 H 0.17824 -0.12890 0.00951
 H610 H 0.21103 -0.07337 -0.00425
 H611 H 0.24254 -0.09410 -0.00681
 C612 C 0.25317 -0.17596 -0.05874
 C613 C 0.24755 -0.17481 0.05977
 C614 C 0.19177 -0.09925 0.00319
 C615 C 0.31210 -0.10056 -0.00528
 C616 C 0.25623 1.17208 0.47298
 H617 H 0.26722 1.17692 0.48371
 C618 C 0.25425 1.18298 0.45538
 H619 H 0.26368 1.19624 0.45279
 C620 C 0.23119 1.14856 0.46288
 H621 H 0.22256 1.13482 0.46543
 C622 C 0.22888 1.15878 0.44519
 H623 H 0.21815 1.15285 0.43470
 N624 N 0.24431 1.15552 0.47664
 C625 C 0.24283 1.14707 0.54014
 H626 H 0.24161 1.13054 0.53989
 C627 C 0.24461 1.15721 0.55790
 H628 H 0.24445 1.14824 0.57119
 C629 C 0.24508 1.17846 0.52292
 H630 H 0.24528 1.18672 0.50928
 C631 C 0.24688 1.18931 0.54049
 H632 H 0.24858 1.20580 0.54010
 Zn633 Zn 0.24524 1.14041 0.50061
 N634 N 0.24383 1.15761 0.52307
 C635 C 0.28393 1.12896 0.51607
 N636 N 0.27027 1.12488 0.50170
 C637 C 0.27444 1.11027 0.48806
 C638 C 0.29264 1.09877 0.48892
 C639 C 0.30220 1.11782 0.51751
 C640 C 0.20344 1.13270 0.49998
 C641 C 0.18558 1.12143 0.49785
 C642 C 0.20568 1.09029 0.50032
 C643 C 0.22327 1.10219 0.50198
 N644 N 0.22190 1.12303 0.50134
 H645 H 0.28084 1.14103 0.52644
 H646 H 0.26357 1.10747 0.47655
 H647 H 0.29554 1.08714 0.47799
 H648 H 0.31269 1.12140 0.52914
 H649 H 0.20271 1.14929 0.49966
 H650 H 0.17115 1.12950 0.49620
 H651 H 0.20710 1.07372 0.50045
 H652 H 0.23801 1.09474 0.50338
 C653 C 0.24724 1.17857 0.55828
 C654 C 0.24028 1.17638 0.44125
 C655 C 0.18656 1.09992 0.49773
 C656 C 0.30679 1.10239 0.50389
 C657 C 0.13254 0.47090 0.26545
 H658 H 0.13110 0.48125 0.27770
 C659 C 0.14365 0.45251 0.26745
 H660 H 0.15086 0.44895 0.28124
 C661 C 0.12454 0.46284 0.23274
 H662 H 0.11677 0.46663 0.21934
 C663 C 0.13572 0.44450 0.23401
 H664 H 0.13649 0.43453 0.22142
 N665 N 0.12325 0.47574 0.24828
 C666 C 0.11459 0.54198 0.24086
 H667 H 0.09844 0.54222 0.23765
 C668 C 0.12589 0.55991 0.23883
 H669 H 0.11822 0.57390 0.23425
 C670 C 0.14411 0.52330 0.25041
 H671 H 0.15122 0.50892 0.25461
 C672 C 0.15595 0.54101 0.24891
 H673 H 0.17210 0.54006 0.25210
 Zn674 Zn 0.10705 0.50029 0.24681
 N675 N 0.12378 0.52410 0.24646
 C676 C 0.09052 0.51694 0.28143
 N677 N 0.08948 0.50086 0.26891
 C678 C 0.07731 0.48456 0.27280
 C679 C 0.06585 0.48386 0.29007
 C680 C 0.07939 0.51686 0.29879
 C681 C 0.10298 0.50420 0.20680
 C682 C 0.09341 0.50703 0.18887
 C683 C 0.06078 0.50343 0.20491
 C684 C 0.07110 0.50078 0.22265
 N685 N 0.09185 0.50118 0.22323
 H686 H 0.10044 0.52964 0.27825
 H687 H 0.07694 0.47183 0.26272
 H688 H 0.05665 0.47055 0.29311
 H689 H 0.08084 0.52972 0.30863
 H690 H 0.11944 0.50482 0.20771
 H691 H 0.10299 0.50953 0.17621
 H692 H 0.04426 0.50313 0.20494
 H693 H 0.06249 0.49878 0.23595
 C694 C 0.14688 0.55962 0.24287
 C695 C 0.14541 0.43903 0.25156
 C696 C 0.07191 0.50682 0.18756
 C697 C 0.06708 0.50003 0.30351
 C698 C -0.13385 1.02573 0.26802
 H699 H -0.13256 1.01528 0.28023
 C700 C -0.14499 1.04410 0.27003
 H701 H -0.15239 1.04754 0.28378
 C702 C -0.12541 1.03409 0.23541
 H703 H -0.11745 1.03043 0.22205
 C704 C -0.13663 1.05240 0.23668
 H705 H -0.13722 1.06249 0.22413
 N706 N -0.12434 1.02106 0.25089
 C707 C -0.11536 0.95480 0.24405
 H708 H -0.09908 0.95449 0.24140
 C709 C -0.12664 0.93691 0.24173
 H710 H -0.11884 0.92287 0.23753
 C711 C -0.14522 0.97367 0.25232
 H712 H -0.15245 0.98812 0.25607
 C713 C -0.15706 0.95602 0.25048
 H714 H -0.17335 0.95709 0.25301
 Zn715 Zn -0.10808 0.99659 0.24948
 N716 N -0.12472 0.97275 0.24914
 C717 C -0.09192 0.98046 0.28448
 N718 N -0.09063 0.99620 0.27154
 C719 C -0.07836 1.01249 0.27501
 C720 C -0.06704 1.01355 0.29227
 C721 C -0.08098 0.98093 0.30189
 C722 C -0.10389 0.99301 0.20947
 C723 C -0.09426 0.99052 0.19150
 C724 C -0.06168 0.99381 0.20751
 C725 C -0.07204 0.99616 0.22530
 N726 N -0.09279 0.99580 0.22592
 H727 H -0.10194 0.96779 0.28162
 H728 H -0.07783 1.02496 0.26460
 H729 H -0.05778 1.02688 0.29499
 H730 H -0.08263 0.96838 0.31210
 H731 H -0.12035 0.99238 0.21042
 H732 H -0.10369 0.98824 0.17877
 H733 H -0.04517 0.99410 0.20741
 H734 H -0.06346 0.99795 0.23861
 C735 C -0.14781 0.93734 0.24491
 C736 C -0.14654 1.05771 0.25418
 C737 C -0.07280 0.99080 0.19022
 C738 C -0.06858 0.99779 0.30617
 C739 C 0.36020 0.52844 -0.26110
 H740 H 0.35678 0.51735 -0.27224
 C741 C 0.34813 0.54624 -0.25954
 H742 H 0.33588 0.54873 -0.26985
 C743 C 0.37954 0.53824 -0.23369
 H744 H 0.39151 0.53510 -0.22335
 C745 C 0.36783 0.55618 -0.23157
 H746 H 0.37127 0.56657 -0.21976
 N747 N 0.37592 0.52491 -0.24854
 C748 C 0.38163 0.46128 -0.26674
 H749 H 0.39522 0.46298 -0.27552
 C750 C 0.37029 0.44449 -0.26880
 H751 H 0.37494 0.43300 -0.27935
 C752 C 0.35995 0.47491 -0.24186
 H753 H 0.35598 0.48681 -0.23152
 C754 C 0.34705 0.45645 -0.24347
 H755 H 0.33386 0.45530 -0.23401
 Zn756 Zn 0.39281 0.50067 -0.25129
 N757 N 0.37602 0.47691 -0.25287
 C758 C 0.40745 0.48327 -0.21608
 N759 N 0.41051 0.49853 -0.22926
 C760 C 0.42506 0.51294 -0.22627
 C761 C 0.43647 0.51295 -0.20904
 C762 C 0.41846 0.48273 -0.19869
 C763 C 0.39798 0.50308 -0.29182
 C764 C 0.40787 0.50047 -0.30967
 C765 C 0.43962 0.49534 -0.29254
 C766 C 0.42904 0.49792 -0.27490
 N767 N 0.40850 0.50149 -0.27483
 H768 H 0.39597 0.47187 -0.21871
 H769 H 0.42724 0.52494 -0.23696
 H770 H 0.44743 0.52498 -0.20667
 H771 H 0.41527 0.47074 -0.18821
 H772 H 0.38167 0.50528 -0.29159
 H773 H 0.39893 0.50131 -0.32291
 H774 H 0.45582 0.49193 -0.29228
 H775 H 0.43714 0.49609 -0.26131
 C776 C 0.35183 0.44161 -0.25649
 C777 C 0.35199 0.56055 -0.24472
 C778 C 0.42890 0.49614 -0.31023
 C779 C 0.43288 0.49797 -0.19475
 C780 C 0.63362 -0.02871 -0.23192
 H781 H 0.63164 -0.01872 -0.21946
 C782 C 0.64401 -0.04648 -0.23003
 H783 H 0.65044 -0.05053 -0.21599
 C784 C 0.62671 -0.03479 -0.26549
 H785 H 0.61949 -0.03068 -0.27908
 C786 C 0.63851 -0.05419 -0.26424
 H787 H 0.63984 -0.06344 -0.27729
 N788 N 0.62467 -0.02297 -0.25031
 C789 C 0.61514 0.04298 -0.25833
 H790 H 0.59912 0.04285 -0.26206
 C791 C 0.62624 0.06101 -0.26065
 H792 H 0.61839 0.07458 -0.26603
 C793 C 0.64453 0.02515 -0.24720
 H794 H 0.65165 0.01103 -0.24227
 C795 C 0.65616 0.04299 -0.24888
 H796 H 0.67217 0.04226 -0.24505
 Zn797 Zn 0.60805 0.00135 -0.25158
 N798 N 0.62438 0.02546 -0.25189
 C799 C 0.59123 0.01758 -0.21687
 N800 N 0.59059 0.00148 -0.22940
 C801 C 0.57884 -0.01513 -0.22553
 C802 C 0.56739 -0.01612 -0.20827
 C803 C 0.58009 0.01721 -0.19951
 C804 C 0.60344 0.00554 -0.29163
 C805 C 0.59352 0.00845 -0.30937
 C806 C 0.56123 0.00425 -0.29291
 C807 C 0.57184 0.00148 -0.27534
 N808 N 0.59260 0.00216 -0.27505
 H809 H 0.60080 0.03054 -0.22007
 H810 H 0.57878 -0.02785 -0.23563
 H811 H 0.55851 -0.02967 -0.20525
 H812 H 0.58120 0.03010 -0.18966
 H813 H 0.61990 0.00645 -0.29096
 H814 H 0.60262 0.01127 -0.32227
 H815 H 0.54472 0.00384 -0.29285
 H816 H 0.56345 -0.00077 -0.26195
 C817 C 0.64713 0.06131 -0.25594
 C818 C 0.64678 -0.06026 -0.24714
 C819 C 0.57210 0.00800 -0.31023
 C820 C 0.56818 0.00007 -0.19482
 C821 C 0.02572 0.25740 0.84161
 H822 H 0.01573 0.27056 0.83956
 C823 C 0.04220 0.25424 0.82917
 H824 H 0.04497 0.26522 0.81763
 C825 C 0.03424 0.22734 0.85951
 H826 H 0.03093 0.21686 0.87127
 C827 C 0.05106 0.22368 0.84752
 H828 H 0.06078 0.21046 0.85032
 N829 N 0.02234 0.24427 0.85661
 C830 C -0.03381 0.27293 0.85874
 H831 H -0.03038 0.28391 0.86999
 C832 C -0.05065 0.27615 0.84677
 H833 H -0.06025 0.28957 0.84905
 C834 C -0.02556 0.24202 0.84214
 H835 H -0.01567 0.22872 0.84059
 C836 C -0.04210 0.24472 0.82973
 H837 H -0.04500 0.23325 0.81872
 Zn838 Zn 0.00016 0.25037 0.87267
 N839 N -0.02203 0.25581 0.85650
 C840 C -0.00764 0.27711 0.90292
 N841 N 0.00573 0.27298 0.88826
 C842 C 0.02273 0.28435 0.88544
 C843 C 0.02634 0.30129 0.89719
 C844 C -0.00453 0.29376 0.91514
 C845 C -0.02262 0.21723 0.88708
 C846 C -0.02632 0.20076 0.89948
 C847 C 0.00479 0.20857 0.91674
 C848 C 0.00797 0.22475 0.90390
 N849 N -0.00546 0.22847 0.88925
 H850 H -0.02085 0.26753 0.90494
 H851 H 0.03339 0.28045 0.87397
 H852 H 0.03971 0.31049 0.89451
 H853 H -0.01561 0.29708 0.92646
 H854 H -0.03334 0.22083 0.87562
 H855 H -0.03980 0.19162 0.89728
 H856 H 0.01594 0.20550 0.92802
 H857 H 0.02129 0.23425 0.90541
 C858 C -0.05511 0.26175 0.83226
 C859 C 0.05535 0.23743 0.83233
 C860 C -0.01235 0.19613 0.91435
 C861 C 0.01247 0.30626 0.91211
 C862 C 0.47417 0.25492 0.15975
 H863 H 0.48333 0.26849 0.16143
 C864 C 0.45809 0.25128 0.17249
 H865 H 0.45474 0.26235 0.18384
 C866 C 0.46746 0.22413 0.14265
 H867 H 0.47135 0.21353 0.13112
 C868 C 0.45110 0.21997 0.15495
 H869 H 0.44231 0.20624 0.15260
 N870 N 0.47826 0.24160 0.14503
 C871 C 0.53289 0.27162 0.14225
 H872 H 0.52914 0.28200 0.13048
 C873 C 0.54914 0.27598 0.15451
 H874 H 0.55800 0.28963 0.15190
 C875 C 0.52593 0.24120 0.15997
 H876 H 0.51672 0.22768 0.16190
 C877 C 0.54189 0.24505 0.17269
 H878 H 0.54510 0.23420 0.18428
 Zn879 Zn 0.50021 0.24777 0.12885
 N880 N 0.52202 0.25423 0.14496
 C881 C 0.50690 0.27360 0.09769
 N882 N 0.49380 0.26987 0.11260
 C883 C 0.47679 0.28158 0.11553
 C884 C 0.47298 0.29857 0.10370
 C885 C 0.50357 0.29025 0.08538
 C886 C 0.52363 0.21356 0.11636
 C887 C 0.52749 0.19637 0.10485
 C888 C 0.49721 0.20462 0.08617
 C889 C 0.49381 0.22146 0.09817
 N890 N 0.50675 0.22535 0.11309
 H891 H 0.52017 0.26381 0.09564
 H892 H 0.46638 0.27804 0.12725
 H893 H 0.45968 0.30813 0.10653
 H894 H 0.51451 0.29331 0.07392
 H895 H 0.53390 0.21721 0.12810
 H896 H 0.54069 0.18677 0.10793
 H897 H 0.48641 0.20147 0.07468
 H898 H 0.48063 0.23130 0.09586
 C899 C 0.55393 0.26244 0.16979
 C900 C 0.44612 0.23379 0.16993
 C901 C 0.51400 0.19160 0.08973
 C902 C 0.48666 0.30322 0.08860
 C903 C -0.02521 0.75734 0.66125
 H904 H -0.01542 0.77044 0.66310
 C905 C -0.04032 0.75394 0.67381
 H906 H -0.04268 0.76452 0.68579
 C907 C -0.03261 0.72722 0.64291
 H908 H -0.02941 0.71682 0.63104
 C909 C -0.04977 0.72308 0.65611
 H910 H -0.05914 0.70987 0.65320
 N911 N -0.02179 0.74361 0.64522
 C912 C 0.03302 0.77329 0.64097
 H913 H 0.02905 0.78361 0.62923
 C914 C 0.04959 0.77764 0.65285
 H915 H 0.05844 0.79124 0.64998
 C916 C 0.02631 0.74302 0.65903
 H917 H 0.01706 0.72958 0.66126
 C918 C 0.04259 0.74687 0.67138
 H919 H 0.04600 0.73610 0.68298
 Zn920 Zn -0.00023 0.74973 0.62852
 N921 N 0.02208 0.75601 0.64406
 C922 C 0.00542 0.77563 0.59719
 N923 N -0.00701 0.77203 0.61265
 C924 C -0.02356 0.78411 0.61648
 C925 C -0.02757 0.80131 0.60499
 C926 C 0.00186 0.79249 0.58520
 C927 C 0.02269 0.71555 0.61530
 C928 C 0.02626 0.69845 0.60359
 C929 C -0.00439 0.70691 0.58556
 C930 C -0.00748 0.72368 0.59773
 N931 N 0.00577 0.72741 0.61243
 H932 H 0.01836 0.76559 0.59447
 H933 H -0.03341 0.78070 0.62868
 H934 H -0.04047 0.81116 0.60854
 H935 H 0.01229 0.79543 0.57329
 H936 H 0.03321 0.71907 0.62686
 H937 H 0.03950 0.68880 0.60635
 H938 H -0.01544 0.70388 0.57424
 H939 H -0.02068 0.73358 0.59573
 C940 C 0.05463 0.76421 0.66814
 C941 C -0.05392 0.73614 0.67085
 C942 C 0.01244 0.69383 0.58869
 C943 C -0.01456 0.80581 0.58933
 C944 C 0.52369 0.75602 0.34530
 H945 H 0.51356 0.76899 0.34286
 C946 C 0.54037 0.75281 0.33312
 H947 H 0.54310 0.76355 0.32137
 C948 C 0.53245 0.72658 0.36401
 H949 H 0.52918 0.71639 0.37601
 C950 C 0.54950 0.72289 0.35229
 H951 H 0.55940 0.70992 0.35550
 N952 N 0.52032 0.74322 0.36057
 C953 C 0.46452 0.77242 0.36134
 H954 H 0.46793 0.78360 0.37242
 C955 C 0.44801 0.77570 0.34895
 H956 H 0.43864 0.78936 0.35076
 C957 C 0.47252 0.74099 0.34554
 H958 H 0.48220 0.72748 0.34445
 C959 C 0.45632 0.74373 0.33273
 H960 H 0.45345 0.73207 0.32189
 Zn961 Zn 0.49792 0.74971 0.37624
 N962 N 0.47602 0.75505 0.35967
 C963 C 0.48996 0.77712 0.40592
 N964 N 0.50348 0.77257 0.39150
 C965 C 0.52066 0.78367 0.38871
 C966 C 0.52435 0.80074 0.40028
 C967 C 0.49315 0.79389 0.41795
 C968 C 0.47428 0.71750 0.39122
 C969 C 0.46986 0.70170 0.40416
 C970 C 0.50104 0.70908 0.42147
 C971 C 0.50494 0.72460 0.40809
 N972 N 0.49179 0.72824 0.39318
 H973 H 0.47660 0.76774 0.40792
 H974 H 0.53142 0.77945 0.37743
 H975 H 0.53789 0.80970 0.39765
 H976 H 0.48197 0.79753 0.42911
 H977 H 0.46377 0.72106 0.37957
 H978 H 0.45608 0.69297 0.40215
 H979 H 0.51195 0.70608 0.43298
 H980 H 0.51853 0.73375 0.40946
 C981 C 0.44362 0.76108 0.33462
 C982 C 0.55375 0.73632 0.33682
 C983 C 0.48347 0.69720 0.41937
 C984 C 0.51037 0.80610 0.41498
 Zr985 Zr 0.01844 -0.01446 1.02658
 O986 O 0.03765 -0.00364 1.04898
 O987 O 0.01654 -0.04568 1.03330
 O988 O 0.00421 -0.01658 1.05440
 O989 O 0.05739 -0.01724 0.99249
 O990 O -0.02768 -0.00348 1.04876
 O991 O 0.04859 -0.02630 1.02354
 O992 O -0.00506 -0.05814 1.01022
 O993 O -0.01209 -0.02087 1.02018
 O994 O 0.01810 -0.02766 0.99882
 O995 O 0.00288 0.01391 1.02801
 O996 O 0.03226 0.00714 1.00789
 Zr997 Zr -0.01561 0.01611 0.97351
 Zr998 Zr -0.02720 0.00754 1.02011
 Zr999 Zr 0.03023 -0.00586 0.98007
 Zr1000 Zr -0.01230 -0.03298 0.99211
 O1001 O 0.05471 0.01328 0.97199
 O1002 O -0.04024 -0.04492 1.00253
 O1003 O 0.00011 -0.01232 0.97196
 O1004 O -0.02905 -0.00543 0.99232
 O1005 O -0.01526 0.02951 1.00123
 O1006 O 0.01493 0.02234 0.97997
 C1007 C 0.00650 -0.06016 1.02524
 C1008 C 0.06137 -0.02530 1.00920
 C1009 C -0.01414 -0.01184 1.05979
 O1010 O -0.05433 -0.00922 1.02427
 O1011 O -0.05196 0.02467 1.00935
 O1012 O -0.04523 0.02947 0.97702
 C1013 C -0.05652 0.03168 0.99238
 O1014 O 0.03640 0.03920 1.03090
 Zr1015 Zr 0.01522 0.03463 1.00795
 O1016 O -0.01405 0.04741 0.96705
 O1017 O -0.03340 0.03220 1.03935
 O1018 O 0.00216 0.05630 1.02749
 O1019 O 0.04194 0.04835 0.99661
 O1020 O 0.00545 0.06025 0.99162
 C1021 C -0.00568 0.06220 0.97631
 O1022 O -0.03604 0.00576 0.95190
 O1023 O 0.03948 -0.03249 0.96461
 O1024 O -0.00231 0.01573 0.94514
 O1025 O 0.02786 -0.00137 0.95000
 O1026 O 0.00104 -0.05597 0.97415
 O1027 O -0.03082 -0.03819 0.96726
 C1028 C 0.01443 0.00724 0.93901
 H1029 H 0.02619 -0.04055 0.99800
 H1030 H -0.04337 -0.00797 0.98858
 H1031 H 0.02115 0.03177 0.97037
 H1032 H 0.00361 0.01973 1.04130
 H1033 H -0.04017 -0.05983 0.99974
 H1034 H -0.06263 -0.00164 1.03403
 H1035 H -0.04699 0.02970 1.04521
 H1036 H 0.00916 0.06952 1.02542
 H1037 H -0.00641 -0.06887 0.97656
 H1038 H 0.05278 -0.02945 0.95840
 H1039 H 0.06329 0.00535 0.96270
 H1040 H 0.04120 0.06316 0.99979
 H1041 H -0.03610 -0.05235 0.96771
 H1042 H -0.03957 0.01776 0.94359
 H1043 H 0.04147 -0.01565 1.05715
 H1044 H 0.03941 0.05400 1.03202
 Zr1045 Zr 0.51959 0.48571 0.52606
 O1046 O 0.53765 0.49610 0.54951
 O1047 O 0.51990 0.45398 0.53051
 O1048 O 0.50516 0.48103 0.55348
 O1049 O 0.55919 0.48725 0.49253
 O1050 O 0.47232 0.49145 0.54783
 O1051 O 0.55055 0.47617 0.52301
 O1052 O 0.50040 0.44167 0.50569
 O1053 O 0.48995 0.47718 0.51822
 O1054 O 0.52113 0.47500 0.49736
 O1055 O 0.50148 0.51240 0.52908
 O1056 O 0.53203 0.50999 0.50961
 Zr1057 Zr 0.48461 0.51766 0.47445
 Zr1058 Zr 0.47232 0.50407 0.51976
 Zr1059 Zr 0.53196 0.49932 0.48080
 Zr1060 Zr 0.49162 0.46762 0.48925
 O1061 O 0.55577 0.52058 0.47682
 O1062 O 0.46451 0.45248 0.49761
 O1063 O 0.50283 0.49095 0.47114
 O1064 O 0.47250 0.49347 0.49101
 O1065 O 0.48285 0.52861 0.50308
 O1066 O 0.51420 0.52598 0.48246
 C1067 C 0.51147 0.43940 0.52101
 C1068 C 0.56334 0.47828 0.50879
 C1069 C 0.48645 0.48407 0.55882
 O1070 O 0.44722 0.48409 0.52219
 O1071 O 0.44599 0.51891 0.50910
 O1072 O 0.45417 0.52861 0.47810
 C1073 C 0.44181 0.52768 0.49277
 O1074 O 0.53243 0.54006 0.53526
 Zr1075 Zr 0.51253 0.53580 0.51122
 O1076 O 0.48374 0.54943 0.47028
 O1077 O 0.46293 0.52680 0.53997
 O1078 O 0.49694 0.55453 0.53181
 O1079 O 0.53820 0.55288 0.50207
 O1080 O 0.50114 0.56185 0.49645
 C1081 C 0.49047 0.56409 0.48087
 O1082 O 0.46559 0.50753 0.45160
 O1083 O 0.54268 0.47559 0.46227
 O1084 O 0.49854 0.52063 0.44657
 O1085 O 0.53106 0.50886 0.45169
 O1086 O 0.50731 0.44720 0.47024
 O1087 O 0.47464 0.46323 0.46327
 C1088 C 0.51687 0.51632 0.44081
 H1089 H 0.53014 0.46284 0.49573
 H1090 H 0.45861 0.49002 0.48655
 H1091 H 0.51989 0.53683 0.47400
 H1092 H 0.50131 0.51726 0.54273
 H1093 H 0.46598 0.43792 0.49366
 H1094 H 0.43787 0.49008 0.53209
 H1095 H 0.44957 0.52249 0.54529
 H1096 H 0.50282 0.56844 0.53101
 H1097 H 0.50067 0.43366 0.47130
 H1098 H 0.55602 0.48001 0.45698
 H1099 H 0.56523 0.51455 0.46704
 H1100 H 0.53604 0.56720 0.50651
 H1101 H 0.47023 0.44878 0.46253
 H1102 H 0.46130 0.51987 0.44410
 H1103 H 0.54212 0.48380 0.55697
 H1104 H 0.53397 0.55491 0.53776
 Zr1105 Zr 0.48172 1.01775 0.52492
 O1106 O 0.46168 1.00718 0.54690
 O1107 O 0.48370 1.04894 0.53159
 O1108 O 0.49506 1.01956 0.55310
 O1109 O 0.44437 1.02186 0.48947
 O1110 O 0.52697 1.00605 0.54829
 O1111 O 0.45162 1.02961 0.52113
 O1112 O 0.50641 1.06112 0.50918
 O1113 O 0.51258 1.02369 0.51936
 O1114 O 0.48332 1.03106 0.49718
 O1115 O 0.49681 0.98915 0.52676
 O1116 O 0.46828 0.99650 0.50576
 Zr1117 Zr 0.51721 0.98678 0.47278
 Zr1118 Zr 0.52726 0.99506 0.51967
 Zr1119 Zr 0.47161 1.00958 0.47801
 Zr1120 Zr 0.51403 1.03590 0.49132
 O1121 O 0.44697 0.99097 0.46947
 O1122 O 0.54172 1.04733 0.50266
 O1123 O 0.50210 1.01551 0.47077
 O1124 O 0.53029 1.00806 0.49195
 O1125 O 0.51566 0.97332 0.50048
 O1126 O 0.48635 0.98110 0.47841
 C1127 C 0.49424 1.06330 0.52379
 C1128 C 0.43960 1.02936 0.50622
 C1129 C 0.51318 1.01459 0.55896
 O1130 O 0.55450 1.01137 0.52463
 O1131 O 0.55227 0.97777 0.50954
 O1132 O 0.54646 0.97296 0.47709
 C1133 C 0.55729 0.97071 0.49270
 O1134 O 0.46275 0.96455 0.52872
 Zr1135 Zr 0.48484 0.96874 0.50637
 O1136 O 0.51535 0.95551 0.46628
 O1137 O 0.53237 0.97019 0.53900
 O1138 O 0.49684 0.94679 0.52625
 O1139 O 0.45833 0.95544 0.49434
 O1140 O 0.49472 0.94302 0.49030
 C1141 C 0.50633 0.94088 0.47529
 O1142 O 0.53850 0.99691 0.45171
 O1143 O 0.46358 1.03635 0.46211
 O1144 O 0.50484 0.98716 0.44409
 O1145 O 0.47494 1.00501 0.44803
 O1146 O 0.50171 1.05906 0.47290
 O1147 O 0.53368 1.04103 0.46715
 C1148 C 0.48850 0.99598 0.43747
 H1149 H 0.47544 1.04406 0.49612
 H1150 H 0.54478 1.01040 0.48860
 H1151 H 0.48029 0.97179 0.46867
 H1152 H 0.49552 0.98330 0.54002
 H1153 H 0.54197 1.06226 0.49996
 H1154 H 0.56233 1.00362 0.53461
 H1155 H 0.54577 0.97245 0.54525
 H1156 H 0.48967 0.93371 0.52399
 H1157 H 0.50915 1.07189 0.47559
 H1158 H 0.45047 1.03360 0.45549
 H1159 H 0.43893 0.99901 0.45985
 H1160 H 0.45868 0.94064 0.49764
 H1161 H 0.53905 1.05515 0.46778
 H1162 H 0.54215 0.98489 0.44351
 H1163 H 0.45776 1.01924 0.55494
 H1164 H 0.45952 0.94980 0.52987
 Zr1165 Zr -0.01730 0.51679 1.02399
 O1166 O -0.03728 0.50592 1.04589
 O1167 O -0.01528 0.54788 1.03102
 O1168 O -0.00386 0.51826 1.05218
 O1169 O -0.05468 0.52151 0.98863
 O1170 O 0.02794 0.50462 1.04713
 O1171 O -0.04740 0.52872 1.02040
 O1172 O 0.00745 0.56035 1.00878
 O1173 O 0.01356 0.52275 1.01846
 O1174 O -0.01571 0.53049 0.99643
 O1175 O -0.00227 0.48814 1.02543
 O1176 O -0.03080 0.49584 1.00457
 Zr1177 Zr 0.01807 0.48652 0.97140
 Zr1178 Zr 0.02818 0.49409 1.01838
 Zr1179 Zr -0.02749 0.50932 0.97699
 Zr1180 Zr 0.01499 0.53537 0.99059
 O1181 O -0.05219 0.49088 0.96826
 O1182 O 0.04272 0.54658 1.00205
 O1183 O 0.00301 0.51531 0.96978
 O1184 O 0.03121 0.50750 0.99083
 O1185 O 0.01652 0.47265 0.99892
 O1186 O -0.01280 0.48081 0.97699
 C1187 C -0.00472 0.56233 1.02342
 C1188 C -0.05943 0.52874 1.00549
 C1189 C 0.01425 0.51311 1.05793
 O1190 O 0.05544 0.51028 1.02353
 O1191 O 0.05313 0.47692 1.00800
 O1192 O 0.04731 0.47258 0.97550
 C1193 C 0.05814 0.47008 0.99108
 O1194 O -0.03639 0.46358 1.02707
 Zr1195 Zr -0.01429 0.46804 1.00478
 O1196 O 0.01617 0.45535 0.96451
 O1197 O 0.03328 0.46892 1.03735
 O1198 O -0.00233 0.44580 1.02438
 O1199 O -0.04082 0.45494 0.99258
 O1200 O -0.00444 0.44254 0.98839
 C1201 C 0.00717 0.44060 0.97335
 O1202 O 0.03934 0.49693 0.95044
 O1203 O -0.03547 0.53631 0.96142
 O1204 O 0.00565 0.48730 0.94274
 O1205 O -0.02423 0.50512 0.94695
 O1206 O 0.00268 0.55881 0.97249
 O1207 O 0.03463 0.54082 0.96647
 C1208 C -0.01070 0.49621 0.93625
 H1209 H -0.02357 0.54352 0.99555
 H1210 H 0.04570 0.50985 0.98750
 H1211 H -0.01888 0.47165 0.96714
 H1212 H -0.00354 0.48209 1.03862
 H1213 H 0.04300 0.56155 0.99954
 H1214 H 0.06328 0.50237 1.03340
 H1215 H 0.04669 0.47106 1.04363
 H1216 H -0.00951 0.43276 1.02196
 H1217 H 0.01014 0.57159 0.97533
 H1218 H -0.04860 0.53368 0.95478
 H1219 H -0.06022 0.49907 0.95875
 H1220 H -0.04048 0.44009 0.99569
 H1221 H 0.04000 0.55492 0.96728
 H1222 H 0.04297 0.48502 0.94208
 H1223 H -0.04118 0.51787 1.05408
 H1224 H -0.03964 0.44881 1.02803
 Zr1225 Zr -0.01563 0.48620 0.47227
 O1226 O -0.03572 0.49815 0.45086
 O1227 O -0.01279 0.45549 0.46377
 O1228 O -0.00193 0.48632 0.44407
 O1229 O -0.05363 0.48074 0.50698
 O1230 O 0.02849 0.50203 0.44939
 O1231 O -0.04539 0.47394 0.47526
 O1232 O 0.00973 0.44189 0.48574
 O1233 O 0.01530 0.47987 0.47764
 O1234 O -0.01419 0.47120 0.49923
 O1235 O -0.00124 0.51490 0.47237
 O1236 O -0.02976 0.50629 0.49252
 Zr1237 Zr 0.01848 0.51377 0.52645
 Zr1238 Zr 0.02927 0.50850 0.47920
 Zr1239 Zr -0.02660 0.49151 0.51951
 Zr1240 Zr 0.01653 0.46592 0.50502
 O1241 O -0.05164 0.50961 0.52919
 O1242 O 0.04463 0.45503 0.49339
 O1243 O 0.00393 0.48501 0.52663
 O1244 O 0.03216 0.49368 0.50613
 O1245 O 0.01705 0.52902 0.49957
 O1246 O -0.01242 0.51990 0.52096
 C1247 C -0.00213 0.44064 0.47090
 C1248 C -0.05784 0.47390 0.48991
 C1249 C 0.01527 0.49368 0.43823
 O1250 O 0.05585 0.49136 0.47202
 O1251 O 0.05484 0.52304 0.49078
 O1252 O 0.04763 0.52755 0.52307
 C1253 C 0.05929 0.52942 0.50794
 O1254 O -0.03579 0.53980 0.47163
 Zr1255 Zr -0.01383 0.53402 0.49378
 O1256 O 0.01602 0.54462 0.53469
 O1257 O 0.03494 0.53553 0.46304
 O1258 O -0.00221 0.55722 0.47524
 O1259 O -0.04078 0.54644 0.50651
 O1260 O -0.00460 0.55864 0.51129
 C1261 C 0.00685 0.55983 0.52643
 O1262 O 0.03963 0.50227 0.54714
 O1263 O -0.03444 0.46372 0.53354
 O1264 O 0.00562 0.51164 0.55495
 O1265 O -0.02379 0.49405 0.54974
 O1266 O 0.00435 0.44174 0.52201
 O1267 O 0.03595 0.45923 0.52903
 C1268 C -0.01064 0.50247 0.56093
 H1269 H -0.02182 0.45819 0.49947
 H1270 H 0.04664 0.49092 0.50942
 H1271 H -0.01878 0.52860 0.53118
 H1272 H -0.00260 0.52179 0.45956
 H1273 H 0.04511 0.43996 0.49528
 H1274 H 0.06389 0.49985 0.46287
 H1275 H 0.04828 0.53356 0.45642
 H1276 H -0.00968 0.57014 0.47825
 H1277 H 0.01206 0.42905 0.51868
 H1278 H -0.04773 0.46608 0.54013
 H1279 H -0.05968 0.50093 0.53817
 H1280 H -0.04068 0.56146 0.50426
 H1281 H 0.04147 0.44509 0.52775
 H1282 H 0.04293 0.51377 0.55600
 H1283 H -0.03926 0.48663 0.44212
 H1284 H -0.03948 0.55457 0.47151
 Zr1285 Zr 0.48570 -0.01608 -0.02604
 O1286 O 0.46558 -0.00400 -0.04736
 O1287 O 0.48838 -0.04676 -0.03469
 O1288 O 0.49930 -0.01571 -0.05432
 O1289 O 0.44811 -0.02216 0.00901
 O1290 O 0.52973 0.00000 -0.04902
 O1291 O 0.45577 -0.02807 -0.02300
 O1292 O 0.51104 -0.06053 -0.01292
 O1293 O 0.51667 -0.02248 -0.02086
 O1294 O 0.48731 -0.03127 0.00082
 O1295 O 0.50017 0.01258 -0.02583
 O1296 O 0.47171 0.00384 -0.00556
 Zr1297 Zr 0.52010 0.01115 0.02815
 Zr1298 Zr 0.53073 0.00611 -0.01915
 Zr1299 Zr 0.47508 -0.01112 0.02133
 Zr1300 Zr 0.51805 -0.03661 0.00643
 O1301 O 0.44999 0.00689 0.03106
 O1302 O 0.54605 -0.04742 -0.00549
 O1303 O 0.50562 -0.01766 0.02825
 O1304 O 0.53369 -0.00886 0.00769
 O1305 O 0.51857 0.02653 0.00135
 O1306 O 0.48918 0.01729 0.02283
 C1307 C 0.49904 -0.06168 -0.02768
 C1308 C 0.44359 -0.02855 -0.00814
 C1309 C 0.51645 -0.00824 -0.06018
 O1310 O 0.55714 -0.01109 -0.02671
 O1311 O 0.55656 0.02023 -0.00751
 O1312 O 0.54909 0.02513 0.02469
 C1313 C 0.56088 0.02677 0.00963
 O1314 O 0.46553 0.03734 -0.02627
 Zr1315 Zr 0.48765 0.03156 -0.00427
 O1316 O 0.51768 0.04195 0.03657
 O1317 O 0.53643 0.03335 -0.03497
 O1318 O 0.49908 0.05487 -0.02279
 O1319 O 0.46083 0.04399 0.00868
 O1320 O 0.49706 0.05608 0.01325
 C1321 C 0.50855 0.05720 0.02835
 O1322 O 0.54138 -0.00051 0.04864
 O1323 O 0.46745 -0.03896 0.03539
 O1324 O 0.50739 0.00899 0.05669
 O1325 O 0.47801 -0.00868 0.05156
 O1326 O 0.50594 -0.06085 0.02340
 O1327 O 0.53768 -0.04360 0.03021
 C1328 C 0.49117 -0.00023 0.06271
 H1329 H 0.47966 -0.04427 0.00104
 H1330 H 0.54817 -0.01167 0.01093
 H1331 H 0.48287 0.02593 0.03311
 H1332 H 0.49875 0.01959 -0.03857
 H1333 H 0.54652 -0.06251 -0.00378
 H1334 H 0.56517 -0.00252 -0.03581
 H1335 H 0.54971 0.03140 -0.04170
 H1336 H 0.49158 0.06775 -0.01970
 H1337 H 0.51355 -0.07356 0.01992
 H1338 H 0.45421 -0.03666 0.04209
 H1339 H 0.44206 -0.00180 0.04012
 H1340 H 0.46092 0.05901 0.00643
 H1341 H 0.54314 -0.05774 0.02877
 H1342 H 0.54475 0.01093 0.05754
 H1343 H 0.46198 -0.01548 -0.05613
 H1344 H 0.46179 0.05210 -0.02632
 Zr1345 Zr 0.51593 0.51175 -0.02672
 O1346 O 0.53554 0.49986 -0.04862
 O1347 O 0.51337 0.54261 -0.03489
 O1348 O 0.50179 0.51207 -0.05467
 O1349 O 0.55471 0.51596 0.00718
 O1350 O 0.47097 0.49736 -0.04869
 O1351 O 0.54589 0.52366 -0.02420
 O1352 O 0.49165 0.55628 -0.01216
 O1353 O 0.48524 0.51863 -0.02054
 O1354 O 0.51532 0.52628 0.00045
 O1355 O 0.50093 0.48337 -0.02662
 O1356 O 0.53009 0.49103 -0.00707
 Zr1357 Zr 0.48240 0.48387 0.02787
 Zr1358 Zr 0.47068 0.49029 -0.01897
 Zr1359 Zr 0.52776 0.50537 0.02017
 Zr1360 Zr 0.48484 0.53208 0.00704
 O1361 O 0.55264 0.48660 0.02900
 O1362 O 0.45669 0.54372 -0.00370
 O1363 O 0.49752 0.51234 0.02808
 O1364 O 0.46867 0.50463 0.00820
 O1365 O 0.48295 0.46912 0.00079
 O1366 O 0.51307 0.47724 0.02160
 C1367 C 0.50315 0.55754 -0.02733
 C1368 C 0.55862 0.52325 -0.00984
 C1369 C 0.48423 0.50535 -0.06013
 O1370 O 0.44436 0.50815 -0.02535
 O1371 O 0.44492 0.47632 -0.00690
 O1372 O 0.45312 0.47042 0.02495
 C1373 C 0.44093 0.46937 0.01021
 O1374 O 0.53497 0.45785 -0.02856
 Zr1375 Zr 0.51362 0.46362 -0.00579
 O1376 O 0.48451 0.45287 0.03573
 O1377 O 0.46407 0.46366 -0.03526
 O1378 O 0.50119 0.44098 -0.02433
 O1379 O 0.54057 0.45043 0.00614
 O1380 O 0.50424 0.43886 0.01161
 C1381 C 0.49313 0.43763 0.02703
 O1382 O 0.46177 0.49535 0.04910
 O1383 O 0.53643 0.53271 0.03439
 O1384 O 0.49572 0.48538 0.05610
 O1385 O 0.52544 0.50235 0.05044
 O1386 O 0.49789 0.55572 0.02397
 O1387 O 0.46614 0.53874 0.03164
 C1388 C 0.51225 0.49413 0.06182
 H1389 H 0.52316 0.53916 0.00067
 H1390 H 0.45434 0.50762 0.01191
 H1391 H 0.51945 0.46825 0.03157
 H1392 H 0.50187 0.47667 -0.03953
 H1393 H 0.45655 0.55876 -0.00163
 H1394 H 0.43594 0.50000 -0.03440
 H1395 H 0.45065 0.46606 -0.04155
 H1396 H 0.50850 0.42788 -0.02168
 H1397 H 0.49037 0.56862 0.02097
 H1398 H 0.54978 0.52994 0.04068
 H1399 H 0.56100 0.49493 0.03793
 H1400 H 0.54013 0.43547 0.00369
 H1401 H 0.46087 0.55300 0.03067
 H1402 H 0.45841 0.48375 0.05788
 H1403 H 0.53910 0.51147 -0.05732
 H1404 H 0.53844 0.44304 -0.02892
 Zr1405 Zr 0.01430 1.01429 0.47397
 O1406 O 0.03385 1.00223 0.45211
 O1407 O 0.01174 1.04508 0.46559
 O1408 O 0.00010 1.01438 0.44605
 O1409 O 0.05311 1.01884 0.50777
 O1410 O -0.03060 0.99947 0.45216
 O1411 O 0.04427 1.02620 0.47633
 O1412 O -0.01013 1.05888 0.48811
 O1413 O -0.01642 1.02112 0.48010
 O1414 O 0.01367 1.02909 0.50100
 O1415 O -0.00061 0.98586 0.47434
 O1416 O 0.02853 0.99381 0.49379
 Zr1417 Zr -0.01909 0.98684 0.52886
 Zr1418 Zr -0.03088 0.99275 0.48195
 Zr1419 Zr 0.02617 1.00842 0.52089
 Zr1420 Zr -0.01683 1.03485 0.50756
 O1421 O 0.05108 0.98981 0.52995
 O1422 O -0.04504 1.04627 0.49674
 O1423 O -0.00408 1.01537 0.52877
 O1424 O -0.03290 1.00736 0.50900
 O1425 O -0.01852 0.97183 0.50190
 O1426 O 0.01159 0.98025 0.52261
 C1427 C 0.00143 1.06004 0.47298
 C1428 C 0.05702 1.02591 0.49068
 C1429 C -0.01740 1.00747 0.44065
 O1430 O -0.05725 1.01046 0.47542
 O1431 O -0.05658 0.97880 0.49417
 O1432 O -0.04831 0.97322 0.52606
 C1433 C -0.06051 0.97198 0.51134
 O1434 O 0.03352 0.96043 0.47262
 Zr1435 Zr 0.01215 0.96636 0.49534
 O1436 O -0.01685 0.95593 0.53703
 O1437 O -0.03742 0.96592 0.46593
 O1438 O -0.00018 0.94350 0.47699
 O1439 O 0.03913 0.95337 0.50740
 O1440 O 0.00280 0.94175 0.51293
 C1441 C -0.00825 0.94063 0.52840
 O1442 O -0.03978 0.99845 0.54998
 O1443 O 0.03482 1.03595 0.53479
 O1444 O -0.00575 0.98875 0.55707
 O1445 O 0.02388 1.00579 0.55118
 O1446 O -0.00386 1.05873 0.52424
 O1447 O -0.03554 1.04171 0.53211
 C1448 C 0.01075 0.99766 0.56267
 H1449 H 0.02149 1.04198 0.50109
 H1450 H -0.04725 1.01033 0.51269
 H1451 H 0.01800 0.97138 0.53266
 H1452 H 0.00035 0.97903 0.46149
 H1453 H -0.04523 1.06133 0.49865
 H1454 H -0.06564 1.00219 0.46645
 H1455 H -0.05084 0.96821 0.45963
 H1456 H 0.00717 0.93045 0.47976
 H1457 H -0.01143 1.07156 0.52113
 H1458 H 0.04819 1.03329 0.54109
 H1459 H 0.05944 0.99827 0.53878
 H1460 H 0.03872 0.93837 0.50511
 H1461 H -0.04087 1.05593 0.53100
 H1462 H -0.04307 0.98693 0.55888
 H1463 H 0.03740 1.01376 0.44332
 H1464 H 0.03708 0.94563 0.47243
 Zr1465 Zr 0.73367 0.26661 0.22464
 O1466 O 0.74383 0.28514 0.20125
 O1467 O 0.70215 0.26632 0.22007
 O1468 O 0.72958 0.25222 0.19715
 O1469 O 0.73384 0.30603 0.25841
 O1470 O 0.74076 0.21943 0.20264
 O1471 O 0.72375 0.29755 0.22765
 O1472 O 0.69015 0.24601 0.24462
 O1473 O 0.72591 0.23649 0.23219
 O1474 O 0.72259 0.26751 0.25328
 O1475 O 0.76076 0.24925 0.22170
 O1476 O 0.75719 0.27957 0.24147
 Zr1477 Zr 0.76563 0.23165 0.27632
 Zr1478 Zr 0.75319 0.21960 0.23072
 Zr1479 Zr 0.74621 0.27882 0.27019
 Zr1480 Zr 0.71597 0.23752 0.26109
 O1481 O 0.76662 0.30327 0.27465
 O1482 O 0.70176 0.21003 0.25224
 O1483 O 0.73855 0.24918 0.27954
 O1484 O 0.74222 0.21904 0.25938
 O1485 O 0.77698 0.23065 0.24777
 O1486 O 0.77321 0.26174 0.26861
 C1487 C 0.68776 0.25739 0.22945
 C1488 C 0.72537 0.31027 0.24196
 C1489 C 0.73307 0.23354 0.19172
 O1490 O 0.73439 0.19357 0.22823
 O1491 O 0.76928 0.19383 0.24111
 O1492 O 0.77729 0.20133 0.27264
 C1493 C 0.77754 0.18943 0.25760
 O1494 O 0.78743 0.28131 0.21615
 Zr1495 Zr 0.78342 0.26077 0.23991
 O1496 O 0.79720 0.23165 0.28079
 O1497 O 0.77609 0.21128 0.21030
 O1498 O 0.80274 0.24592 0.21934
 O1499 O 0.79958 0.28687 0.24946
 O1500 O 0.80937 0.24976 0.25478
 C1501 C 0.81171 0.23894 0.27033
 O1502 O 0.75579 0.21193 0.29894
 O1503 O 0.72197 0.28870 0.28848
 O1504 O 0.76764 0.24537 0.30436
 O1505 O 0.75528 0.27788 0.29942
 O1506 O 0.69501 0.25240 0.28013
 O1507 O 0.71170 0.21983 0.28680
 C1508 C 0.76287 0.26363 0.31024
 H1509 H 0.71028 0.27628 0.25485
 H1510 H 0.73915 0.20490 0.26367
 H1511 H 0.78371 0.26763 0.27723
 H1512 H 0.76575 0.24941 0.20807
 H1513 H 0.68719 0.21105 0.25606
 H1514 H 0.74079 0.18451 0.21832
 H1515 H 0.77236 0.19772 0.20497
 H1516 H 0.81640 0.25220 0.22031
 H1517 H 0.68175 0.24536 0.27893
 H1518 H 0.72587 0.30219 0.29385
 H1519 H 0.76015 0.31254 0.28436
 H1520 H 0.81393 0.28515 0.24514
 H1521 H 0.69745 0.21499 0.28735
 H1522 H 0.76805 0.20794 0.30657
 H1523 H 0.73158 0.28940 0.19372
 H1524 H 0.80219 0.28323 0.21374
 Zr1525 Zr 0.76746 0.73191 0.72641
 O1526 O 0.75780 0.71301 0.70321
 O1527 O 0.79901 0.73257 0.72194
 O1528 O 0.77161 0.74608 0.69874
 O1529 O 0.76770 0.69287 0.76078
 O1530 O 0.75996 0.77878 0.70379
 O1531 O 0.77767 0.70110 0.72984
 O1532 O 0.81048 0.75363 0.74602
 O1533 O 0.77466 0.76226 0.73352
 O1534 O 0.77836 0.73155 0.75506
 O1535 O 0.74013 0.74881 0.72316
 O1536 O 0.74403 0.71879 0.74339
 Zr1537 Zr 0.73456 0.76704 0.77750
 Zr1538 Zr 0.74713 0.77870 0.73176
 Zr1539 Zr 0.75480 0.72007 0.77212
 Zr1540 Zr 0.78443 0.76176 0.76243
 O1541 O 0.73476 0.69535 0.77692
 O1542 O 0.79821 0.78942 0.75326
 O1543 O 0.76189 0.74997 0.78102
 O1544 O 0.75789 0.77981 0.76041
 O1545 O 0.72340 0.76747 0.74892
 O1546 O 0.72755 0.73672 0.77023
 C1547 C 0.81317 0.74200 0.73109
 C1548 C 0.77619 0.68852 0.74434
 C1549 C 0.76796 0.76468 0.69309
 O1550 O 0.76540 0.80510 0.72902
 O1551 O 0.73034 0.80425 0.74166
 O1552 O 0.72255 0.79719 0.77339
 C1553 C 0.72203 0.80881 0.75811
 O1554 O 0.71407 0.71622 0.71806
 Zr1555 Zr 0.71753 0.73715 0.74150
 O1556 O 0.70296 0.76663 0.78187
 O1557 O 0.72438 0.78630 0.71104
 O1558 O 0.69814 0.75140 0.72067
 O1559 O 0.70170 0.71092 0.75143
 O1560 O 0.69130 0.74793 0.75615
 C1561 C 0.68865 0.75895 0.77150
 O1562 O 0.74393 0.78714 0.79987
 O1563 O 0.77905 0.71087 0.79060
 O1564 O 0.73247 0.75362 0.80570
 O1565 O 0.74543 0.72126 0.80131
 O1566 O 0.80554 0.74743 0.78163
 O1567 O 0.78820 0.77976 0.78793
 C1568 C 0.73747 0.73552 0.81187
 H1569 H 0.79079 0.72299 0.75676
 H1570 H 0.76070 0.79405 0.76449
 H1571 H 0.71707 0.73077 0.77891
 H1572 H 0.73527 0.74840 0.70951
 H1573 H 0.81276 0.78871 0.75714
 H1574 H 0.75895 0.81391 0.71893
 H1575 H 0.72790 0.79988 0.70554
 H1576 H 0.68459 0.74490 0.72171
 H1577 H 0.81867 0.75470 0.78033
 H1578 H 0.77533 0.69739 0.79619
 H1579 H 0.74129 0.68632 0.78678
 H1580 H 0.68736 0.71234 0.74702
 H1581 H 0.80236 0.78484 0.78845
 H1582 H 0.73155 0.79105 0.80742
 H1583 H 0.77019 0.70884 0.69578
 H1584 H 0.69937 0.71402 0.71564
 Zr1585 Zr 0.23580 0.23626 0.77574
 O1586 O 0.24702 0.21792 0.79894
 O1587 O 0.20446 0.23712 0.78155
 O1588 O 0.23263 0.25118 0.80320
 O1589 O 0.23534 0.19629 0.74256
 O1590 O 0.24456 0.28329 0.79700
 O1591 O 0.22589 0.20540 0.77344
 O1592 O 0.19137 0.25709 0.75710
 O1593 O 0.22746 0.26637 0.76804
 O1594 O 0.22371 0.23504 0.74757
 O1595 O 0.26284 0.25329 0.77722
 O1596 O 0.25887 0.22274 0.75821
 Zr1597 Zr 0.26556 0.26992 0.72221
 Zr1598 Zr 0.25462 0.28289 0.76806
 Zr1599 Zr 0.24682 0.22317 0.72995
 Zr1600 Zr 0.21648 0.26497 0.73954
 O1601 O 0.26736 0.19844 0.72497
 O1602 O 0.20228 0.29279 0.74849
 O1603 O 0.23852 0.25273 0.72040
 O1604 O 0.24261 0.28308 0.73986
 O1605 O 0.27793 0.27130 0.75029
 O1606 O 0.27371 0.23987 0.73010
 C1607 C 0.18965 0.24602 0.77254
 C1608 C 0.22727 0.19243 0.75925
 C1609 C 0.23716 0.26962 0.80842
 O1610 O 0.23497 0.30859 0.77170
 O1611 O 0.26867 0.30891 0.75638
 O1612 O 0.27720 0.30009 0.72519
 C1613 C 0.27683 0.31269 0.73972
 O1614 O 0.29019 0.22103 0.78224
 Zr1615 Zr 0.28497 0.24121 0.75835
 O1616 O 0.29692 0.26943 0.71648
 O1617 O 0.27878 0.29173 0.78654
 O1618 O 0.30490 0.25607 0.77795
 O1619 O 0.30096 0.21471 0.74849
 O1620 O 0.31023 0.25172 0.74234
 C1621 C 0.31189 0.26223 0.72654
 O1622 O 0.25468 0.28942 0.69973
 O1623 O 0.22202 0.21318 0.71284
 O1624 O 0.26678 0.25565 0.69431
 O1625 O 0.25455 0.22360 0.70037
 O1626 O 0.19511 0.24995 0.72149
 O1627 O 0.21098 0.28233 0.71379
 C1628 C 0.26172 0.23740 0.68896
 H1629 H 0.21144 0.22641 0.74658
 H1630 H 0.23914 0.29717 0.73547
 H1631 H 0.28393 0.23368 0.72116
 H1632 H 0.26845 0.25327 0.79060
 H1633 H 0.18759 0.29187 0.74528
 H1634 H 0.24167 0.31786 0.78109
 H1635 H 0.27501 0.30530 0.79205
 H1636 H 0.31859 0.24962 0.77651
 H1637 H 0.18177 0.25706 0.72315
 H1638 H 0.22590 0.19957 0.70749
 H1639 H 0.26068 0.18913 0.71561
 H1640 H 0.31549 0.21634 0.75208
 H1641 H 0.19660 0.28717 0.71367
 H1642 H 0.26663 0.29318 0.69164
 H1643 H 0.23509 0.21392 0.80697
 H1644 H 0.30505 0.21880 0.78394
 Zr1645 Zr 0.26464 0.76524 0.27574
 O1646 O 0.25376 0.78376 0.29894
 O1647 O 0.29595 0.76386 0.28141
 O1648 O 0.26745 0.75026 0.30328
 O1649 O 0.26580 0.80519 0.24237
 O1650 O 0.25525 0.71827 0.29718
 O1651 O 0.27497 0.79597 0.27329
 O1652 O 0.30878 0.74363 0.25704
 O1653 O 0.27255 0.73501 0.26808
 O1654 O 0.27676 0.76631 0.24749
 O1655 O 0.23738 0.74856 0.27744
 O1656 O 0.24180 0.77912 0.25827
 Zr1657 Zr 0.23437 0.73208 0.22255
 Zr1658 Zr 0.24517 0.71884 0.26830
 Zr1659 Zr 0.25381 0.77853 0.22991
 Zr1660 Zr 0.28356 0.73629 0.23952
 O1661 O 0.23371 0.80364 0.22506
 O1662 O 0.29732 0.70820 0.24835
 O1663 O 0.26167 0.74884 0.22046
 O1664 O 0.25717 0.71855 0.24004
 O1665 O 0.22199 0.73084 0.25068
 O1666 O 0.22667 0.76224 0.23036
 C1667 C 0.31063 0.75466 0.27244
 C1668 C 0.27385 0.80895 0.25904
 C1669 C 0.26275 0.73185 0.30855
 O1670 O 0.26449 0.69290 0.27194
 O1671 O 0.23088 0.69294 0.25668
 O1672 O 0.22226 0.70214 0.22563
 C1673 C 0.22259 0.68940 0.24008
 O1674 O 0.21070 0.78130 0.28257
 Zr1675 Zr 0.21545 0.76105 0.25869
 O1676 O 0.20298 0.73307 0.21702
 O1677 O 0.22084 0.71031 0.28687
 O1678 O 0.19527 0.74653 0.27846
 O1679 O 0.19981 0.78778 0.24889
 O1680 O 0.19000 0.75100 0.24290
 C1681 C 0.18814 0.74053 0.22715
 O1682 O 0.24489 0.71242 0.20005
 O1683 O 0.27874 0.78798 0.21254
 O1684 O 0.23335 0.74631 0.19465
 O1685 O 0.24577 0.77833 0.20037
 O1686 O 0.30523 0.75103 0.22144
 O1687 O 0.28878 0.71900 0.21372
 C1688 C 0.23844 0.76452 0.18915
 H1689 H 0.28917 0.77473 0.24644
 H1690 H 0.26043 0.70443 0.23564
 H1691 H 0.21652 0.76858 0.22148
 H1692 H 0.23177 0.74865 0.29084
 H1693 H 0.31203 0.70890 0.24506
 H1694 H 0.25766 0.68370 0.28138
 H1695 H 0.22444 0.69669 0.29240
 H1696 H 0.18172 0.75327 0.27712
 H1697 H 0.31844 0.74368 0.22304
 H1698 H 0.27511 0.80167 0.20718
 H1699 H 0.24054 0.81286 0.21564
 H1700 H 0.18529 0.78641 0.25268
 H1701 H 0.30307 0.71392 0.21351
 H1702 H 0.23287 0.70886 0.19203
 H1703 H 0.26576 0.78754 0.30689
 H1704 H 0.19589 0.78377 0.28441
 Zr1705 Zr 0.23441 0.77007 0.72326
 O1706 O 0.24468 0.78810 0.69957
 O1707 O 0.20286 0.76995 0.71872
 O1708 O 0.23017 0.75526 0.69599
 O1709 O 0.23538 0.81015 0.75632
 O1710 O 0.24112 0.72250 0.70201
 O1711 O 0.22478 0.80119 0.72585
 O1712 O 0.19073 0.75029 0.74370
 O1713 O 0.22628 0.74021 0.73140
 O1714 O 0.22345 0.77168 0.75191
 O1715 O 0.26125 0.75225 0.72058
 O1716 O 0.25820 0.78302 0.73974
 Zr1717 Zr 0.26619 0.73571 0.77545
 Zr1718 Zr 0.25330 0.72289 0.73017
 Zr1719 Zr 0.24732 0.78297 0.76850
 Zr1720 Zr 0.21648 0.74195 0.76031
 O1721 O 0.26815 0.80713 0.77261
 O1722 O 0.20187 0.71443 0.75217
 O1723 O 0.23933 0.75364 0.77843
 O1724 O 0.24248 0.72310 0.75887
 O1725 O 0.27738 0.73394 0.74687
 O1726 O 0.27411 0.76553 0.76718
 C1727 C 0.18842 0.76131 0.72828
 C1728 C 0.22673 0.81418 0.73992
 C1729 C 0.23361 0.73648 0.69085
 O1730 O 0.23380 0.69737 0.72788
 O1731 O 0.26829 0.69673 0.74117
 O1732 O 0.27758 0.70525 0.77212
 C1733 C 0.27694 0.69273 0.75756
 O1734 O 0.28837 0.78376 0.71426
 Zr1735 Zr 0.28417 0.76382 0.73846
 O1736 O 0.29776 0.73538 0.77977
 O1737 O 0.27629 0.71364 0.71021
 O1738 O 0.30324 0.74832 0.71811
 O1739 O 0.30065 0.78994 0.74746
 O1740 O 0.31007 0.75282 0.75342
 C1741 C 0.31233 0.74225 0.76913
 O1742 O 0.25622 0.71652 0.79842
 O1743 O 0.22325 0.79368 0.78659
 O1744 O 0.26851 0.74989 0.80326
 O1745 O 0.25617 0.78228 0.79776
 O1746 O 0.19581 0.75760 0.77909
 O1747 O 0.21206 0.72494 0.78641
 C1748 C 0.26367 0.76823 0.80886
 H1749 H 0.21125 0.78063 0.75335
 H1750 H 0.23920 0.70911 0.76345
 H1751 H 0.28470 0.77146 0.77567
 H1752 H 0.26623 0.75206 0.70695
 H1753 H 0.18733 0.71574 0.75604
 H1754 H 0.24000 0.68799 0.71812
 H1755 H 0.27226 0.70012 0.70500
 H1756 H 0.31697 0.75446 0.71890
 H1757 H 0.18243 0.75077 0.77803
 H1758 H 0.22743 0.80717 0.79178
 H1759 H 0.26186 0.81663 0.78221
 H1760 H 0.31498 0.78796 0.74315
 H1761 H 0.19771 0.72042 0.78718
 H1762 H 0.26848 0.71246 0.80602
 H1763 H 0.23245 0.79238 0.69203
 H1764 H 0.30314 0.78554 0.71184
 Zr1765 Zr 0.26587 0.22977 0.22396
 O1766 O 0.25610 0.21103 0.20068
 O1767 O 0.29745 0.23008 0.21965
 O1768 O 0.27039 0.24395 0.19635
 O1769 O 0.26537 0.19064 0.25821
 O1770 O 0.25915 0.27678 0.20142
 O1771 O 0.27579 0.19886 0.22741
 O1772 O 0.30904 0.25073 0.24400
 O1773 O 0.27342 0.25999 0.23121
 O1774 O 0.27654 0.22917 0.25268
 O1775 O 0.23879 0.24705 0.22058
 O1776 O 0.24213 0.21690 0.24073
 Zr1777 Zr 0.23307 0.26515 0.27490
 Zr1778 Zr 0.24613 0.27682 0.22931
 Zr1779 Zr 0.25271 0.21795 0.26953
 Zr1780 Zr 0.28297 0.25927 0.26018
 O1781 O 0.23227 0.19351 0.27411
 O1782 O 0.29723 0.28672 0.25113
 O1783 O 0.26014 0.24771 0.27857
 O1784 O 0.25670 0.27768 0.25803
 O1785 O 0.22211 0.26585 0.24627
 O1786 O 0.22569 0.23496 0.26752
 C1787 C 0.31168 0.23918 0.22900
 C1788 C 0.27405 0.18626 0.24186
 C1789 C 0.26703 0.26260 0.19073
 O1790 O 0.26482 0.30294 0.22672
 O1791 O 0.22975 0.30264 0.23923
 O1792 O 0.22141 0.29541 0.27079
 C1793 C 0.22129 0.30718 0.25562
 O1794 O 0.21231 0.21488 0.21516
 Zr1795 Zr 0.21589 0.23563 0.23873
 O1796 O 0.20144 0.26513 0.27909
 O1797 O 0.22358 0.28482 0.20852
 O1798 O 0.19682 0.25022 0.21784
 O1799 O 0.19968 0.20955 0.24845
 O1800 O 0.18968 0.24666 0.25327
 C1801 C 0.18709 0.25767 0.26863
 O1802 O 0.24251 0.28512 0.29737
 O1803 O 0.27668 0.20831 0.28815
 O1804 O 0.23072 0.25176 0.30307
 O1805 O 0.24320 0.21922 0.29868
 O1806 O 0.30371 0.24464 0.27955
 O1807 O 0.28678 0.27717 0.28574
 C1808 C 0.23546 0.23360 0.30924
 H1809 H 0.28885 0.22045 0.25446
 H1810 H 0.25966 0.29186 0.26218
 H1811 H 0.21508 0.22913 0.27613
 H1812 H 0.23402 0.24675 0.20690
 H1813 H 0.31173 0.28579 0.25511
 H1814 H 0.25856 0.31186 0.21661
 H1815 H 0.22735 0.29835 0.20307
 H1816 H 0.18317 0.24389 0.21877
 H1817 H 0.31695 0.25173 0.27837
 H1818 H 0.27271 0.19488 0.29369
 H1819 H 0.23860 0.18436 0.28400
 H1820 H 0.18538 0.21117 0.24397
 H1821 H 0.30099 0.28211 0.28634
 H1822 H 0.23013 0.28916 0.30485
 H1823 H 0.26847 0.20672 0.19332
 H1824 H 0.19759 0.21285 0.21267
 Zr1825 Zr 0.73411 0.73336 0.27940
 O1826 O 0.74525 0.71538 0.30287
 O1827 O 0.70289 0.73496 0.28554
 O1828 O 0.73150 0.74902 0.30654
 O1829 O 0.73331 0.69241 0.24738
 O1830 O 0.74412 0.78068 0.29956
 O1831 O 0.72350 0.70272 0.27782
 O1832 O 0.68983 0.75443 0.26073
 O1833 O 0.72622 0.76342 0.27109
 O1834 O 0.72171 0.73161 0.25138
 O1835 O 0.76147 0.74993 0.28023
 O1836 O 0.75676 0.71899 0.26198
 Zr1837 Zr 0.76397 0.76509 0.22485
 Zr1838 Zr 0.75368 0.77943 0.27047
 Zr1839 Zr 0.74445 0.71892 0.23382
 Zr1840 Zr 0.71491 0.76145 0.24274
 O1841 O 0.76459 0.69388 0.22871
 O1842 O 0.70128 0.78973 0.25117
 O1843 O 0.73658 0.74837 0.22371
 O1844 O 0.74138 0.77907 0.24238
 O1845 O 0.77664 0.76696 0.25278
 O1846 O 0.77164 0.73510 0.23333
 C1847 C 0.68810 0.74382 0.27646
 C1848 C 0.72504 0.68922 0.26410
 C1849 C 0.73652 0.76745 0.31133
 O1850 O 0.73439 0.80544 0.27386
 O1851 O 0.76773 0.80503 0.25796
 O1852 O 0.77624 0.79506 0.22708
 C1853 C 0.77595 0.80816 0.24121
 O1854 O 0.78833 0.71746 0.28587
 Zr1855 Zr 0.78318 0.73694 0.26146
 O1856 O 0.79530 0.76385 0.21889
 O1857 O 0.77830 0.78840 0.28832
 O1858 O 0.80367 0.75205 0.28035
 O1859 O 0.79838 0.70974 0.25223
 O1860 O 0.80847 0.74620 0.24484
 C1861 C 0.81020 0.75636 0.22886
 O1862 O 0.75326 0.78426 0.20205
 O1863 O 0.71911 0.70870 0.21758
 O1864 O 0.76460 0.75016 0.19725
 O1865 O 0.75137 0.71869 0.20405
 O1866 O 0.69315 0.74632 0.22522
 O1867 O 0.70940 0.77827 0.21668
 C1868 C 0.75877 0.73203 0.19227
 H1869 H 0.70929 0.72314 0.25073
 H1870 H 0.73810 0.79309 0.23769
 H1871 H 0.78160 0.72848 0.22440
 H1872 H 0.76724 0.75014 0.29355
 H1873 H 0.68653 0.78897 0.24816
 H1874 H 0.74135 0.81484 0.28295
 H1875 H 0.77479 0.80215 0.29358
 H1876 H 0.81721 0.74528 0.27894
 H1877 H 0.67992 0.75363 0.22687
 H1878 H 0.72274 0.69492 0.21248
 H1879 H 0.75754 0.68445 0.21972
 H1880 H 0.81299 0.71109 0.25561
 H1881 H 0.69508 0.78328 0.21657
 H1882 H 0.76521 0.78760 0.19378
 H1883 H 0.73333 0.71178 0.31109
 H1884 H 0.80317 0.71502 0.28748
 Zr1885 Zr 0.76461 0.26507 0.77619
 O1886 O 0.75378 0.28322 0.79967
 O1887 O 0.79591 0.26343 0.78184
 O1888 O 0.76743 0.24959 0.80345
 O1889 O 0.76582 0.30559 0.74349
 O1890 O 0.75462 0.21792 0.79698
 O1891 O 0.77516 0.29579 0.77420
 O1892 O 0.80862 0.24351 0.75718
 O1893 O 0.77230 0.23491 0.76809
 O1894 O 0.77678 0.26651 0.74798
 O1895 O 0.73721 0.24859 0.77756
 O1896 O 0.74186 0.27937 0.75890
 Zr1897 Zr 0.73415 0.23301 0.72238
 Zr1898 Zr 0.74480 0.21896 0.76801
 Zr1899 Zr 0.75394 0.27915 0.73058
 Zr1900 Zr 0.78336 0.23657 0.73957
 O1901 O 0.73393 0.30436 0.72581
 O1902 O 0.79692 0.20827 0.74806
 O1903 O 0.76159 0.24959 0.72066
 O1904 O 0.75683 0.21906 0.73975
 O1905 O 0.72173 0.23139 0.75049
 O1906 O 0.72667 0.26308 0.73066
 C1907 C 0.81054 0.25431 0.77272
 C1908 C 0.77396 0.30904 0.76018
 C1909 C 0.76239 0.23121 0.80851
 O1910 O 0.76404 0.19293 0.77145
 O1911 O 0.73060 0.19327 0.75594
 O1912 O 0.72181 0.20309 0.72509
 C1913 C 0.72222 0.19007 0.73932
 O1914 O 0.71060 0.28132 0.78314
 Zr1915 Zr 0.71537 0.26150 0.75895
 O1916 O 0.70278 0.23429 0.71685
 O1917 O 0.72027 0.21024 0.78625
 O1918 O 0.69506 0.24673 0.77842
 O1919 O 0.70002 0.28855 0.74952
 O1920 O 0.68987 0.25195 0.74291
 C1921 C 0.68797 0.24171 0.72703
 O1922 O 0.74460 0.21367 0.69960
 O1923 O 0.77905 0.28893 0.71361
 O1924 O 0.73319 0.24778 0.69464
 O1925 O 0.74643 0.27930 0.70099
 O1926 O 0.80508 0.25148 0.72166
 O1927 O 0.78856 0.21958 0.71357
 C1928 C 0.73886 0.26593 0.68945
 H1929 H 0.78923 0.27489 0.74707
 H1930 H 0.76002 0.20499 0.73516
 H1931 H 0.71661 0.26966 0.72182
 H1932 H 0.73157 0.24850 0.79096
 H1933 H 0.81164 0.20892 0.74483
 H1934 H 0.75712 0.18362 0.78073
 H1935 H 0.72378 0.19654 0.79163
 H1936 H 0.68153 0.25355 0.77714
 H1937 H 0.81828 0.24408 0.72320
 H1938 H 0.77546 0.30269 0.70841
 H1939 H 0.74086 0.31366 0.71655
 H1940 H 0.68546 0.28723 0.75318
 H1941 H 0.80285 0.21449 0.71333
 H1942 H 0.73255 0.21029 0.69155
 H1943 H 0.76580 0.28683 0.80768
 H1944 H 0.69579 0.28386 0.78493
 C1945 C 0.46365 0.99837 0.35872
 N1946 N 0.46581 0.98228 0.34629
 N1947 N 0.45639 0.98249 0.32904
 C1948 C 0.44445 0.99874 0.32359
 N1949 N 0.44261 1.01486 0.33597
 N1950 N 0.45197 1.01465 0.35315
 C1951 C 0.47212 0.99794 0.37859
 N1952 N 0.46645 1.01293 0.39118
 N1953 N 0.47234 1.01230 0.40966
 C1954 C 0.48434 0.99678 0.41641
 N1955 N 0.49047 0.98185 0.40378
 N1956 N 0.48438 0.98239 0.38517
 C1957 C -0.03558 0.49942 0.85752
 N1958 N -0.03304 0.48364 0.84481
 N1959 N -0.04244 0.48398 0.82755
 C1960 C -0.05480 0.50004 0.82235
 N1961 N -0.05695 0.51588 0.83504
 N1962 N -0.04760 0.51555 0.85222
 C1963 C -0.02713 0.49880 0.87740
 N1964 N -0.03311 0.51346 0.89020
 N1965 N -0.02721 0.51264 0.90868
 C1966 C -0.01493 0.49724 0.91521
 N1967 N -0.00851 0.48264 0.90237
 N1968 N -0.01459 0.48337 0.88376
 C1969 C 0.03934 0.00310 0.86013
 N1970 N 0.03572 0.01818 0.84685
 N1971 N 0.04467 0.01753 0.82933
 C1972 C 0.05754 0.00179 0.82444
 N1973 N 0.06084 -0.01334 0.83770
 N1974 N 0.05197 -0.01268 0.85514
 C1975 C 0.03129 0.00413 0.88017
 N1976 N 0.03862 -0.00938 0.89349
 N1977 N 0.03277 -0.00830 0.91200
 C1978 C 0.01922 0.00622 0.91805
 N1979 N 0.01151 0.01968 0.90471
 N1980 N 0.01754 0.01870 0.88607
 C1981 C 0.54593 0.51768 0.36354
 N1982 N 0.53460 0.51186 0.34798
 N1983 N 0.54343 0.50867 0.33064
 C1984 C 0.56390 0.51104 0.32828
 N1985 N 0.57505 0.51700 0.34386
 N1986 N 0.56628 0.52021 0.36109
 C1987 C 0.53715 0.51976 0.38322
 N1988 N 0.54987 0.52318 0.39837
 N1989 N 0.54294 0.52309 0.41657
 C1990 C 0.52295 0.51983 0.42046
 N1991 N 0.50998 0.51688 0.40530
 N1992 N 0.51698 0.51684 0.38696
 C1993 C 0.53741 0.50023 0.14036
 N1994 N 0.53431 0.48536 0.15391
 N1995 N 0.54331 0.48638 0.17133
 C1996 C 0.55572 0.50228 0.17586
 N1997 N 0.55850 0.51721 0.16234
 N1998 N 0.54959 0.51618 0.14499
 C1999 C 0.52929 0.49877 0.12041
 N2000 N 0.53619 0.51201 0.10674
 N2001 N 0.53027 0.51048 0.08832
 C2002 C 0.51707 0.49578 0.08271
 N2003 N 0.50980 0.48260 0.09640
 N2004 N 0.51590 0.48403 0.11496
 C2005 C 0.03689 1.00457 0.64082
 N2006 N 0.04929 1.02046 0.64512
 N2007 N 0.05858 1.02153 0.66229
 C2008 C 0.05595 1.00672 0.67595
 N2009 N 0.04331 0.99089 0.67176
 N2010 N 0.03395 0.98982 0.65452
 C2011 C 0.02837 1.00300 0.62103
 N2012 N 0.01512 0.98803 0.61583
 N2013 N 0.00877 0.98641 0.59737
 C2014 C 0.01563 0.99962 0.58352
 N2015 N 0.02867 1.01458 0.58889
 N2016 N 0.03484 1.01629 0.60722
 C2017 C -0.03660 0.49649 0.63941
 N2018 N -0.04887 0.48058 0.64407
 N2019 N -0.05812 0.47970 0.66133
 C2020 C -0.05556 0.49473 0.67473
 N2021 N -0.04306 0.51059 0.67016
 N2022 N -0.03376 0.51148 0.65283
 C2023 C -0.02803 0.49778 0.61954
 N2024 N -0.01512 0.51294 0.61393
 N2025 N -0.00878 0.51433 0.59541
 C2026 C -0.01528 0.50064 0.58189
 N2027 N -0.02796 0.48549 0.58767
 N2028 N -0.03412 0.48402 0.60606
 C2029 C 0.46458 -0.00577 0.14094
 N2030 N 0.45256 -0.02185 0.14567
 N2031 N 0.44294 -0.02256 0.16276
 C2032 C 0.44484 -0.00717 0.17589
 N2033 N 0.45709 0.00887 0.17126
 N2034 N 0.46677 0.00958 0.15411
 C2035 C 0.47349 -0.00467 0.12121
 N2036 N 0.48596 0.01082 0.11550
 N2037 N 0.49248 0.01209 0.09703
 C2038 C 0.48660 -0.00204 0.08367
 N2039 N 0.47438 -0.01753 0.08955
 N2040 N 0.46804 -0.01888 0.10790
 C2041 C 0.36486 0.42906 0.01219
 N2042 N 0.34890 0.43691 0.00188
 N2043 N 0.33161 0.42651 0.00011
 C2044 C 0.32963 0.40769 0.00839
 N2045 N 0.34562 0.39987 0.01875
 N2046 N 0.36286 0.41036 0.02066
 C2047 C 0.38432 0.44023 0.01299
 N2048 N 0.39943 0.43481 0.02565
 N2049 N 0.41731 0.44447 0.02542
 C2050 C 0.42077 0.45978 0.01239
 N2051 N 0.40561 0.46519 -0.00014
 N2052 N 0.38774 0.45573 0.00024
 C2053 C -0.13625 0.93105 0.51351
 N2054 N -0.15228 0.93872 0.50319
 N2055 N -0.16948 0.92816 0.50147
 C2056 C -0.17128 0.90935 0.50980
 N2057 N -0.15523 0.90170 0.52017
 N2058 N -0.13807 0.91235 0.52204
 C2059 C -0.11689 0.94240 0.51428
 N2060 N -0.10173 0.93715 0.52695
 N2061 N -0.08393 0.94697 0.52668
 C2062 C -0.08061 0.96227 0.51360
 N2063 N -0.09582 0.96751 0.50107
 N2064 N -0.11361 0.95790 0.50149
 C2065 C -0.13225 0.07486 0.99204
 N2066 N -0.14461 0.07643 0.97622
 N2067 N -0.16272 0.08597 0.97754
 C2068 C -0.16919 0.09442 0.99468
 N2069 N -0.15666 0.09286 1.01037
 N2070 N -0.13869 0.08323 1.00911
 C2071 C -0.11243 0.06382 0.99135
 N2072 N -0.10276 0.05937 1.00829
 N2073 N -0.08504 0.04926 1.00830
 C2074 C -0.07603 0.04327 0.99137
 N2075 N -0.08556 0.04781 0.97428
 N2076 N -0.10350 0.05786 0.97428
 C2077 C 0.36468 0.56811 0.49141
 N2078 N 0.35113 0.56458 0.50602
 N2079 N 0.33352 0.57499 0.50699
 C2080 C 0.32871 0.58944 0.49341
 N2081 N 0.34228 0.59290 0.47874
 N2082 N 0.35988 0.58245 0.47774
 C2083 C 0.38447 0.55701 0.49095
 N2084 N 0.39811 0.55978 0.47621
 N2085 N 0.41625 0.55018 0.47641
 C2086 C 0.42141 0.53748 0.49140
 N2087 N 0.40769 0.53469 0.50602
 N2088 N 0.38961 0.54420 0.50578
 C2089 C 0.13560 0.56963 0.50995
 N2090 N 0.14030 0.58376 0.52369
 N2091 N 0.15773 0.59410 0.52258
 C2092 C 0.17120 0.59072 0.50774
 N2093 N 0.16649 0.57646 0.49412
 N2094 N 0.14906 0.56619 0.49518
 C2095 C 0.11596 0.55870 0.51034
 N2096 N 0.11070 0.54694 0.49493
 N2097 N 0.09280 0.53754 0.49455
 C2098 C 0.07939 0.53934 0.50960
 N2099 N 0.08466 0.55096 0.52520
 N2100 N 0.10262 0.56051 0.52553
 C2101 C 0.63659 0.06785 0.01114
 N2102 N 0.63861 0.08615 0.02033
 N2103 N 0.65577 0.09683 0.01852
 C2104 C 0.67164 0.08961 0.00758
 N2105 N 0.66965 0.07120 -0.00140
 N2106 N 0.65244 0.06061 0.00025
 C2107 C 0.61722 0.05651 0.01192
 N2108 N 0.61359 0.04168 -0.00141
 N2109 N 0.59580 0.03206 -0.00169
 C2110 C 0.58095 0.03662 0.01150
 N2111 N 0.58461 0.05127 0.02509
 N2112 N 0.60241 0.06110 0.02523
 C2113 C 0.63275 0.92705 0.49353
 N2114 N 0.63995 0.92057 0.51106
 N2115 N 0.65774 0.91061 0.51241
 C2116 C 0.66924 0.90678 0.49631
 N2117 N 0.66207 0.91332 0.47872
 N2118 N 0.64416 0.92322 0.47733
 C2119 C 0.61306 0.93830 0.49260
 N2120 N 0.60380 0.94304 0.47539
 N2121 N 0.58595 0.95323 0.47512
 C2122 C 0.57682 0.95913 0.49208
 N2123 N 0.58616 0.95436 0.50916
 N2124 N 0.60383 0.94413 0.50943
 C2125 C 0.13353 0.42632 0.99166
 N2126 N 0.14062 0.41963 1.00916
 N2127 N 0.15840 0.40965 1.01052
 C2128 C 0.17000 0.40601 0.99444
 N2129 N 0.16294 0.41275 0.97688
 N2130 N 0.14504 0.42268 0.97549
 C2131 C 0.11386 0.43759 0.99076
 N2132 N 0.10469 0.44260 0.97357
 N2133 N 0.08685 0.45282 0.97336
 C2134 C 0.07764 0.45846 0.99036
 N2135 N 0.08689 0.45342 1.00741
 N2136 N 0.10454 0.44317 1.00762
 C2137 C -0.01046 0.36264 0.43754
 N2138 N -0.02331 0.35953 0.42240
 N2139 N -0.02387 0.34136 0.41363
 C2140 C -0.01159 0.32570 0.41969
 N2141 N 0.00101 0.32881 0.43505
 N2142 N 0.00154 0.34694 0.44383
 C2143 C -0.00867 0.38285 0.44633
 N2144 N 0.00450 0.38577 0.46124
 N2145 N 0.00671 0.40429 0.46895
 C2146 C -0.00408 0.42054 0.46191
 N2147 N -0.01727 0.41764 0.44698
 N2148 N -0.01949 0.39909 0.43927
 C2149 C 0.48957 -0.13955 -0.06103
 N2150 N 0.47667 -0.14244 -0.07617
 N2151 N 0.47589 -0.16056 -0.08501
 C2152 C 0.48797 -0.17640 -0.07900
 N2153 N 0.50058 -0.17352 -0.06362
 N2154 N 0.50135 -0.15544 -0.05477
 C2155 C 0.49167 -0.11937 -0.05223
 N2156 N 0.50498 -0.11662 -0.03740
 N2157 N 0.50748 -0.09813 -0.02971
 C2158 C 0.49686 -0.08174 -0.03669
 N2159 N 0.48354 -0.08448 -0.05155
 N2160 N 0.48103 -0.10300 -0.05923
 C2161 C 0.01366 -0.13871 1.05822
 N2162 N 0.00113 -0.15382 1.05222
 N2163 N 0.00063 -0.17160 1.06170
 C2164 C 0.01266 -0.17493 1.07749
 N2165 N 0.02550 -0.15992 1.08323
 N2166 N 0.02597 -0.14210 1.07377
 C2167 C 0.01268 -0.11860 1.04901
 N2168 N 0.02343 -0.10276 1.05638
 N2169 N 0.02148 -0.08407 1.04875
 C2170 C 0.00867 -0.08062 1.03357
 N2171 N -0.00196 -0.09649 1.02612
 N2172 N -0.00004 -0.11517 1.03376
 C2173 C 0.52096 0.36003 0.55144
 N2174 N 0.50809 0.34514 0.54562
 N2175 N 0.50686 0.32768 0.55557
 C2176 C 0.51847 0.32449 0.57167
 N2177 N 0.53175 0.33920 0.57715
 N2178 N 0.53294 0.35670 0.56724
 C2179 C 0.52010 0.38019 0.54230
 N2180 N 0.53015 0.39613 0.55034
 N2181 N 0.52760 0.41502 0.54336
 C2182 C 0.51486 0.41859 0.52815
 N2183 N 0.50505 0.40260 0.51991
 N2184 N 0.50756 0.38372 0.52693
 C2185 C 0.48587 1.14225 0.55543
 N2186 N 0.49858 1.15728 0.54951
 N2187 N 0.49880 1.17517 0.55875
 C2188 C 0.48629 1.17869 0.57421
 N2189 N 0.47325 1.16377 0.57984
 N2190 N 0.47306 1.14584 0.57063
 C2191 C 0.48721 1.12200 0.54659
 N2192 N 0.47619 1.10625 0.55387
 N2193 N 0.47845 1.08747 0.54659
 C2194 C 0.49186 1.08382 0.53187
 N2195 N 0.50278 1.09960 0.52452
 N2196 N 0.50055 1.11837 0.53181
 C2197 C -0.01349 0.64076 1.05614
 N2198 N -0.00077 0.65595 1.05065
 N2199 N -0.00084 0.67370 1.06015
 C2200 C -0.01366 0.67690 1.07545
 N2201 N -0.02669 0.66180 1.08064
 N2202 N -0.02660 0.64403 1.07116
 C2203 C -0.01195 0.62066 1.04702
 N2204 N -0.02303 0.60479 1.05395
 N2205 N -0.02069 0.58613 1.04642
 C2206 C -0.00712 0.58273 1.03178
 N2207 N 0.00388 0.59862 1.02478
 N2208 N 0.00156 0.61727 1.03234
 C2209 C 0.51103 0.63551 -0.06115
 N2210 N 0.49893 0.65117 -0.05490
 N2211 N 0.49916 0.66919 -0.06397
 C2212 C 0.51154 0.67224 -0.07957
 N2213 N 0.52393 0.65664 -0.08558
 N2214 N 0.52367 0.63858 -0.07654
 C2215 C 0.50950 0.61537 -0.05212
 N2216 N 0.52014 0.59910 -0.05935
 N2217 N 0.51802 0.58056 -0.05153
 C2218 C 0.50513 0.57769 -0.03629
 N2219 N 0.49454 0.59397 -0.02904
 N2220 N 0.49664 0.61248 -0.03687
 C2221 C 0.00967 1.13786 0.43891
 N2222 N -0.00321 1.15325 0.44424
 N2223 N -0.00273 1.17122 0.43511
 C2224 C 0.01067 1.17454 0.42033
 N2225 N 0.02388 1.15919 0.41534
 N2226 N 0.02336 1.14116 0.42443
 C2227 C 0.00797 1.11774 0.44798
 N2228 N 0.01910 1.10156 0.44126
 N2229 N 0.01689 1.08305 0.44912
 C2230 C 0.00343 1.08013 0.46390
 N2231 N -0.00765 1.09632 0.47063
 N2232 N -0.00548 1.11480 0.46274
 C2233 C 0.73461 0.70667 0.88928
 N2234 N 0.72617 0.68810 0.89260
 N2235 N 0.72815 0.67888 0.90980
 C2236 C 0.73882 0.68768 0.92444
 N2237 N 0.74725 0.70637 0.92118
 N2238 N 0.74518 0.71570 0.90391
 C2239 C 0.73348 0.71559 0.86956
 N2240 N 0.73944 0.73510 0.86563
 N2241 N 0.73963 0.74213 0.84729
 C2242 C 0.73393 0.72984 0.83231
 N2243 N 0.72782 0.71050 0.83635
 N2244 N 0.72742 0.70359 0.85459
 C2245 C 0.23311 0.20553 0.38689
 N2246 N 0.24355 0.21493 0.40139
 N2247 N 0.24583 0.20584 0.41874
 C2248 C 0.23775 0.18704 0.42223
 N2249 N 0.22720 0.17787 0.40771
 N2250 N 0.22502 0.18685 0.39043
 C2251 C 0.23178 0.21421 0.36709
 N2252 N 0.22593 0.20193 0.35225
 N2253 N 0.22622 0.20865 0.33395
 C2254 C 0.23199 0.22805 0.32972
 N2255 N 0.23746 0.24061 0.34458
 N2256 N 0.23740 0.23378 0.36298
 C2257 C 0.76445 0.29346 0.38725
 N2258 N 0.75398 0.28439 0.40202
 N2259 N 0.75160 0.29391 0.41914
 C2260 C 0.75958 0.31283 0.42211
 N2261 N 0.77014 0.32168 0.40733
 N2262 N 0.77244 0.31226 0.39029
 C2263 C 0.76597 0.28426 0.36768
 N2264 N 0.77225 0.29608 0.35259
 N2265 N 0.77216 0.28893 0.33446
 C2266 C 0.76618 0.26952 0.33064
 N2267 N 0.76028 0.25741 0.34576
 N2268 N 0.76015 0.26468 0.36398
 C2269 C 0.26302 0.79688 0.88638
 N2270 N 0.26283 0.81752 0.88864
 N2271 N 0.25969 0.82592 0.90603
 C2272 C 0.25652 0.81409 0.92201
 N2273 N 0.25683 0.79332 0.91983
 N2274 N 0.25994 0.78485 0.90231
 C2275 C 0.26541 0.78838 0.86660
 N2276 N 0.26466 0.76790 0.86281
 N2277 N 0.26516 0.76105 0.84443
 C2278 C 0.26644 0.77448 0.82928
 N2279 N 0.26754 0.79480 0.83321
 N2280 N 0.26713 0.80159 0.85144
 C2281 C 0.23869 0.79523 0.11228
 N2282 N 0.24918 0.78584 0.09761
 N2283 N 0.25200 0.79540 0.08058
 C2284 C 0.24446 0.81471 0.07755
 N2285 N 0.23382 0.82384 0.09226
 N2286 N 0.23109 0.81438 0.10923
 C2287 C 0.23677 0.78594 0.13180
 N2288 N 0.23075 0.79796 0.14691
 N2289 N 0.23045 0.79064 0.16499
 C2290 C 0.23578 0.77087 0.16874
 N2291 N 0.24143 0.75859 0.15361
 N2292 N 0.24195 0.76602 0.13543
 C2293 C 0.74160 0.29660 0.61240
 N2294 N 0.74225 0.28499 0.59595
 N2295 N 0.74533 0.29375 0.57855
 C2296 C 0.74804 0.31439 0.57694
 N2297 N 0.74738 0.32579 0.59349
 N2298 N 0.74425 0.31712 0.61076
 C2299 C 0.73891 0.28773 0.63203
 N2300 N 0.73868 0.30060 0.64749
 N2301 N 0.73779 0.29337 0.66556
 C2302 C 0.73696 0.27292 0.66907
 N2303 N 0.73677 0.25986 0.65361
 N2304 N 0.73772 0.26717 0.63536
 C2305 C 0.25866 0.20707 0.61210
 N2306 N 0.25837 0.18637 0.61039
 N2307 N 0.25470 0.17754 0.59334
 C2308 C 0.25110 0.18899 0.57716
 N2309 N 0.25150 0.20981 0.57877
 N2310 N 0.25513 0.21870 0.59596
 C2311 C 0.26173 0.21606 0.63157
 N2312 N 0.26064 0.23662 0.63498
 N2313 N 0.26172 0.24389 0.65320
 C2314 C 0.26395 0.23080 0.66854
 N2315 N 0.26541 0.21040 0.66494
 N2316 N 0.26442 0.20320 0.64689
 C2317 C 0.75528 0.70215 0.11502
 N2318 N 0.75226 0.68172 0.11315
 N2319 N 0.74935 0.67335 0.09575
 C2320 C 0.74927 0.68499 0.07931
 N2321 N 0.75230 0.70556 0.08117
 N2322 N 0.75519 0.71400 0.09869
 C2323 C 0.75789 0.71071 0.13474
 N2324 N 0.76004 0.73115 0.13817
 N2325 N 0.76116 0.73825 0.15645
 C2326 C 0.76019 0.72510 0.17185
 N2327 N 0.75834 0.70476 0.16825
 N2328 N 0.75728 0.69773 0.15015
 C2329 C 0.18106 0.61369 0.23796
 N2330 N 0.18804 0.59756 0.24869
 N2331 N 0.17735 0.58034 0.25003
 C2332 C 0.15910 0.57860 0.24087
 N2333 N 0.15215 0.59476 0.23010
 N2334 N 0.16293 0.61194 0.22862
 C2335 C 0.19254 0.63304 0.23739
 N2336 N 0.18769 0.64831 0.22460
 N2337 N 0.19763 0.66610 0.22490
 C2338 C 0.21268 0.66930 0.23810
 N2339 N 0.21753 0.65398 0.25077
 N2340 N 0.20777 0.63620 0.25035
 C2341 C 0.68050 0.11451 0.73775
 N2342 N 0.68890 0.09753 0.74616
 N2343 N 0.67824 0.08033 0.74798
 C2344 C 0.65860 0.07940 0.74174
 N2345 N 0.65025 0.09647 0.73330
 N2346 N 0.66097 0.11362 0.73129
 C2347 C 0.69205 0.13380 0.73677
 N2348 N 0.68584 0.14975 0.72531
 N2349 N 0.69584 0.16749 0.72540
 C2350 C 0.71234 0.16999 0.73710
 N2351 N 0.71854 0.15400 0.74843
 N2352 N 0.70872 0.13624 0.74817
 C2353 C 0.82049 0.11339 0.25786
 N2354 N 0.82634 0.10336 0.27434
 N2355 N 0.83668 0.08561 0.27326
 C2356 C 0.84169 0.07728 0.25567
 N2357 N 0.83583 0.08741 0.23927
 N2358 N 0.82540 0.10501 0.24034
 C2359 C 0.80897 0.13297 0.25852
 N2360 N 0.80089 0.14067 0.24184
 N2361 N 0.79076 0.15845 0.24185
 C2362 C 0.78832 0.16943 0.25851
 N2363 N 0.79640 0.16179 0.27531
 N2364 N 0.80649 0.14383 0.27532
 C2365 C 0.31816 0.61578 0.75910
 N2366 N 0.33238 0.61096 0.77277
 N2367 N 0.34297 0.59338 0.77167
 C2368 C 0.33979 0.57990 0.75688
 N2369 N 0.32547 0.58475 0.74331
 N2370 N 0.31491 0.60231 0.74438
 C2371 C 0.30686 0.63551 0.75960
 N2372 N 0.29404 0.64050 0.74481
 N2373 N 0.28434 0.65854 0.74454
 C2374 C 0.28693 0.67236 0.75908
 N2375 N 0.29963 0.66736 0.77404
 N2376 N 0.30943 0.64926 0.77428
 C2377 C 0.31796 0.38866 0.73846
 N2378 N 0.31294 0.40317 0.75189
 N2379 N 0.32369 0.42032 0.75340
 C2380 C 0.34005 0.42370 0.74163
 N2381 N 0.34496 0.40915 0.72813
 N2382 N 0.33416 0.39201 0.72655
 C2383 C 0.30651 0.36930 0.73763
 N2384 N 0.31032 0.35493 0.72367
 N2385 N 0.30050 0.33707 0.72379
 C2386 C 0.28655 0.33293 0.73793
 N2387 N 0.28271 0.34739 0.75172
 N2388 N 0.29239 0.36521 0.75154
 C2389 C 0.81776 0.88361 0.23878
 N2390 N 0.81026 0.89997 0.24885
 N2391 N 0.82105 0.91707 0.25058
 C2392 C 0.83992 0.91847 0.24248
 N2393 N 0.84739 0.90209 0.23234
 N2394 N 0.83653 0.88502 0.23049
 C2395 C 0.80613 0.86437 0.23799
 N2396 N 0.81170 0.84870 0.22593
 N2397 N 0.80167 0.83096 0.22625
 C2398 C 0.78578 0.82824 0.23874
 N2399 N 0.78021 0.84397 0.25064
 N2400 N 0.79006 0.86170 0.25018
 C2401 C 0.67845 0.88456 0.75723
 N2402 N 0.67475 0.89610 0.77336
 N2403 N 0.66462 0.91395 0.77197
 C2404 C 0.65763 0.92093 0.75445
 N2405 N 0.66133 0.90922 0.73842
 N2406 N 0.67156 0.89152 0.73977
 C2407 C 0.68997 0.86496 0.75815
 N2408 N 0.69678 0.85629 0.74138
 N2409 N 0.70705 0.83858 0.74164
 C2410 C 0.71086 0.82863 0.75867
 N2411 N 0.70401 0.83722 0.77556
 N2412 N 0.69382 0.85513 0.77531
 C2413 C 0.17829 0.38325 0.25533
 N2414 N 0.17236 0.39328 0.27179
 N2415 N 0.16205 0.41104 0.27067
 C2416 C 0.15715 0.41941 0.25307
 N2417 N 0.16308 0.40929 0.23668
 N2418 N 0.17347 0.39166 0.23779
 C2419 C 0.18978 0.36364 0.25607
 N2420 N 0.19792 0.35585 0.23943
 N2421 N 0.20805 0.33806 0.23957
 C2422 C 0.21044 0.32717 0.25631
 N2423 N 0.20230 0.33490 0.27306
 N2424 N 0.19221 0.35286 0.27295
 C2425 C 0.11079 0.23517 0.80249
 N2426 N 0.09525 0.24715 0.79587
 N2427 N 0.07731 0.24725 0.80493
 C2428 C 0.07424 0.23534 0.82090
 N2429 N 0.08968 0.22297 0.82720
 N2430 N 0.10766 0.22291 0.81817
 C2431 C 0.13107 0.23697 0.79401
 N2432 N 0.14727 0.22726 0.80232
 N2433 N 0.16601 0.23016 0.79546
 C2434 C 0.16916 0.24293 0.78015
 N2435 N 0.15294 0.25250 0.77175
 N2436 N 0.13420 0.24964 0.77862
 C2437 C 0.60942 0.73411 0.30732
 N2438 N 0.60637 0.72221 0.32326
 N2439 N 0.58835 0.72226 0.33223
 C2440 C 0.57279 0.73425 0.32558
 N2441 N 0.57579 0.74581 0.30937
 N2442 N 0.59377 0.74573 0.30038
 C2443 C 0.62967 0.73578 0.29873
 N2444 N 0.63272 0.74802 0.28301
 N2445 N 0.65140 0.75061 0.27589
 C2446 C 0.66766 0.74119 0.28438
 N2447 N 0.66460 0.72887 0.30005
 N2448 N 0.64591 0.72625 0.30714
 C2449 C 0.60829 0.26734 0.20070
 N2450 N 0.59347 0.25460 0.20701
 N2451 N 0.57580 0.25367 0.19763
 C2452 C 0.57230 0.26546 0.18164
 N2453 N 0.58696 0.27862 0.17568
 N2454 N 0.60467 0.27951 0.18502
 C2455 C 0.62857 0.26618 0.20924
 N2456 N 0.64430 0.27629 0.20086
 N2457 N 0.66322 0.27360 0.20742
 C2458 C 0.66701 0.26065 0.22251
 N2459 N 0.65125 0.25074 0.23104
 N2460 N 0.63234 0.25339 0.22444
 C2461 C 0.10910 0.76988 0.69878
 N2462 N 0.09434 0.75722 0.70536
 N2463 N 0.07667 0.75598 0.69601
 C2464 C 0.07312 0.76739 0.67977
 N2465 N 0.08774 0.78044 0.67351
 N2466 N 0.10545 0.78164 0.68282
 C2467 C 0.12933 0.76914 0.70746
 N2468 N 0.14505 0.77912 0.69893
 N2469 N 0.16393 0.77679 0.70570
 C2470 C 0.16769 0.76435 0.72118
 N2471 N 0.15193 0.75459 0.72987
 N2472 N 0.13307 0.75688 0.72306
 C2473 C 0.89278 0.73279 0.70208
 N2474 N 0.89702 0.71880 0.68803
 N2475 N 0.91465 0.71934 0.67840
 C2476 C 0.92859 0.73402 0.68236
 N2477 N 0.92446 0.74765 0.69683
 N2478 N 0.90689 0.74705 0.70652
 C2479 C 0.87252 0.73394 0.71077
 N2480 N 0.86834 0.74780 0.72499
 N2481 N 0.84940 0.75022 0.73166
 C2482 C 0.83399 0.73902 0.72415
 N2483 N 0.83820 0.72504 0.71004
 N2484 N 0.85716 0.72256 0.70345
 C2485 C 0.39150 0.22924 0.20077
 N2486 N 0.39536 0.21673 0.18540
 N2487 N 0.41315 0.21754 0.17610
 C2488 C 0.42766 0.23094 0.18177
 N2489 N 0.42392 0.24308 0.19746
 N2490 N 0.40616 0.24224 0.20681
 C2491 C 0.37113 0.23042 0.20922
 N2492 N 0.36712 0.24348 0.22414
 N2493 N 0.34814 0.24611 0.23061
 C2494 C 0.33253 0.23593 0.22223
 N2495 N 0.33656 0.22272 0.20743
 N2496 N 0.35556 0.22004 0.20100
 C2497 C 0.38912 0.76358 0.30345
 N2498 N 0.40432 0.75055 0.29795
 N2499 N 0.42198 0.75027 0.30744
 C2500 C 0.42508 0.76305 0.32272
 N2501 N 0.41000 0.77641 0.32790
 N2502 N 0.39231 0.77665 0.31846
 C2503 C 0.36904 0.76223 0.29458
 N2504 N 0.35301 0.77284 0.30222
 N2505 N 0.33435 0.77043 0.29511
 C2506 C 0.33110 0.75729 0.28017
 N2507 N 0.34716 0.74682 0.27240
 N2508 N 0.36582 0.74917 0.27956
 C2509 C 0.88945 0.26356 0.80264
 N2510 N 0.90476 0.25098 0.79651
 N2511 N 0.92270 0.25095 0.80550
 C2512 C 0.92598 0.26353 0.82089
 N2513 N 0.91076 0.27644 0.82671
 N2514 N 0.89280 0.27643 0.81776
 C2515 C 0.86919 0.26197 0.79421
 N2516 N 0.85318 0.27225 0.80229
 N2517 N 0.83442 0.26975 0.79544
 C2518 C 0.83106 0.25684 0.78034
 N2519 N 0.84708 0.24667 0.77218
 N2520 N 0.86584 0.24912 0.77907
 C2521 C 0.54318 1.01763 0.63576
 N2522 N 0.53199 1.01238 0.65169
 N2523 N 0.54102 1.00952 0.66895
 C2524 C 0.56156 1.01166 0.67089
 N2525 N 0.57256 1.01708 0.65495
 N2526 N 0.56359 1.01995 0.63780
 C2527 C 0.53417 1.01928 0.61615
 N2528 N 0.54676 1.02202 0.60070
 N2529 N 0.53961 1.02154 0.58262
 C2530 C 0.51952 1.01854 0.57914
 N2531 N 0.50667 1.01627 0.59458
 N2532 N 0.51390 1.01661 0.61281
 C2533 C 0.04438 0.51561 1.13477
 N2534 N 0.06495 0.51626 1.13662
 N2535 N 0.07379 0.51350 1.15385
 C2536 C 0.06253 0.50990 1.17014
 N2537 N 0.04181 0.50942 1.16829
 N2538 N 0.03291 0.51215 1.15095
 C2539 C 0.03542 0.51731 1.11514
 N2540 N 0.01501 0.51577 1.11183
 N2541 N 0.00777 0.51552 1.09360
 C2542 C 0.02074 0.51678 1.07813
 N2543 N 0.04099 0.51868 1.08159
 N2544 N 0.04815 0.51904 1.09967
 C2545 C -0.04491 -0.01648 1.13649
 N2546 N -0.03344 -0.01347 1.15268
 N2547 N -0.04234 -0.01130 1.17013
 C2548 C -0.06303 -0.01193 1.17203
 N2549 N -0.07431 -0.01510 1.15576
 N2550 N -0.06547 -0.01729 1.13842
 C2551 C -0.03592 -0.01746 1.11681
 N2552 N -0.01546 -0.01630 1.11357
 N2553 N -0.00809 -0.01550 1.09537
 C2554 C -0.02099 -0.01579 1.07987
 N2555 N -0.04131 -0.01728 1.08324
 N2556 N -0.04860 -0.01819 1.10128
 C2557 C 0.45669 0.48342 0.63573
 N2558 N 0.46839 0.48715 0.65165
 N2559 N 0.45969 0.49106 0.66891
 C2560 C 0.43901 0.49161 0.67084
 N2561 N 0.42747 0.48776 0.65490
 N2562 N 0.43611 0.48377 0.63775
 C2563 C 0.46556 0.48055 0.61616
 N2564 N 0.45284 0.47772 0.60089
 N2565 N 0.45994 0.47755 0.58274
 C2566 C 0.48010 0.47998 0.57902
 N2567 N 0.49305 0.48224 0.59431
 N2568 N 0.48589 0.48250 0.61259
 C2569 C 0.45890 0.50159 -0.13889
 N2570 N 0.44400 0.48798 -0.14290
 N2571 N 0.43620 0.48659 -0.16070
 C2572 C 0.44289 0.49882 -0.17534
 N2573 N 0.45796 0.51241 -0.17140
 N2574 N 0.46589 0.51374 -0.15352
 C2575 C 0.46618 0.50335 -0.11867
 N2576 N 0.48311 0.51408 -0.11370
 N2577 N 0.48915 0.51505 -0.09509
 C2578 C 0.47829 0.50549 -0.08086
 N2579 N 0.46141 0.49496 -0.08597
 N2580 N 0.45552 0.49387 -0.10442
 C2581 C -0.04257 1.00277 0.36192
 N2582 N -0.05635 0.98804 0.35780
 N2583 N -0.06414 0.98630 0.34003
 C2584 C -0.05861 0.99929 0.32554
 N2585 N -0.04468 1.01403 0.32958
 N2586 N -0.03674 1.01571 0.34744
 C2587 C -0.03535 1.00481 0.38213
 N2588 N -0.01897 1.01635 0.38712
 N2589 N -0.01295 1.01750 0.40573
 C2590 C -0.02329 1.00732 0.41992
 N2591 N -0.03963 0.99598 0.41479
 N2592 N -0.04548 0.99470 0.39634
 C2593 C 0.04016 0.49689 0.35917
 N2594 N 0.03549 0.48272 0.34543
 N2595 N 0.04369 0.48380 0.32760
 C2596 C 0.05678 0.49912 0.32283
 N2597 N 0.06114 0.51332 0.33658
 N2598 N 0.05306 0.51220 0.35433
 C2599 C 0.03275 0.49555 0.37944
 N2600 N 0.04173 0.50737 0.39307
 N2601 N 0.03593 0.50649 0.41158
 C2602 C 0.02076 0.49386 0.41737
 N2603 N 0.01151 0.48202 0.40375
 N2604 N 0.01750 0.48278 0.38508
 C2605 C 0.54110 -0.00384 -0.13926
 N2606 N 0.55362 0.01182 -0.14403
 N2607 N 0.56174 0.01318 -0.16176
 C2608 C 0.55782 -0.00112 -0.17554
 N2609 N 0.54512 -0.01678 -0.17084
 N2610 N 0.53686 -0.01811 -0.15304
 C2611 C 0.53369 -0.00545 -0.11901
 N2612 N 0.51878 -0.01864 -0.11343
 N2613 N 0.51284 -0.01968 -0.09476
 C2614 C 0.52180 -0.00770 -0.08107
 N2615 N 0.53662 0.00535 -0.08680
 N2616 N 0.54237 0.00652 -0.10532
 C2617 C 0.63441 0.56379 -0.01035
 N2618 N 0.63544 0.58347 -0.01674
 N2619 N 0.65231 0.59436 -0.01408
 C2620 C 0.66888 0.58599 -0.00503
 N2621 N 0.66790 0.56622 0.00115
 N2622 N 0.65096 0.55539 -0.00134
 C2623 C 0.61527 0.55217 -0.01192
 N2624 N 0.61232 0.53546 -0.00050
 N2625 N 0.59450 0.52585 -0.00052
 C2626 C 0.57900 0.53230 -0.01221
 N2627 N 0.58204 0.54878 -0.02397
 N2628 N 0.59984 0.55858 -0.02377
 C2629 C 0.13312 1.06581 0.48964
 N2630 N 0.13436 1.08537 0.48296
 N2631 N 0.15133 1.09614 0.48550
 C2632 C 0.16779 1.08776 0.49471
 N2633 N 0.16661 1.06811 0.50117
 N2634 N 0.14957 1.05741 0.49881
 C2635 C 0.11389 1.05435 0.48821
 N2636 N 0.11081 1.03781 0.49982
 N2637 N 0.09292 1.02835 0.49991
 C2638 C 0.07745 1.03479 0.48819
 N2639 N 0.08061 1.05111 0.47625
 N2640 N 0.09849 1.06075 0.47631
 C2641 C 0.13811 -0.06587 1.01008
 N2642 N 0.13909 -0.08600 1.01506
 N2643 N 0.15638 -0.09672 1.01281
 C2644 C 0.17352 -0.08777 1.00564
 N2645 N 0.17251 -0.06751 1.00089
 N2646 N 0.15514 -0.05684 1.00290
 C2647 C 0.11863 -0.05435 1.01134
 N2648 N 0.11558 -0.03733 1.00027
 N2649 N 0.09751 -0.02776 1.00015
 C2650 C 0.08186 -0.03457 1.01136
 N2651 N 0.08499 -0.05138 1.02274
 N2652 N 0.10302 -0.06115 1.02266
 C2653 C 0.63950 0.43626 0.50879
 N2654 N 0.65294 0.43948 0.49402
 N2655 N 0.66995 0.42818 0.49246
 C2656 C 0.67427 0.41307 0.50557
 N2657 N 0.66078 0.40996 0.52040
 N2658 N 0.64377 0.42128 0.52197
 C2659 C 0.62027 0.44828 0.50990
 N2660 N 0.60651 0.44516 0.52447
 N2661 N 0.58864 0.45525 0.52466
 C2662 C 0.58389 0.46886 0.51029
 N2663 N 0.59777 0.47209 0.49589
 N2664 N 0.61560 0.46208 0.49573
 C2665 C -0.13424 0.43442 0.48886
 N2666 N -0.13580 0.41523 0.48141
 N2667 N -0.15292 0.40461 0.48367
 C2668 C -0.16922 0.41277 0.49336
 N2669 N -0.16770 0.43207 0.50060
 N2670 N -0.15052 0.44261 0.49851
 C2671 C -0.11486 0.44569 0.48766
 N2672 N -0.11146 0.46159 0.49990
 N2673 N -0.09350 0.47092 0.50003
 C2674 C -0.07828 0.46498 0.48773
 N2675 N -0.08176 0.44930 0.47519
 N2676 N -0.09970 0.43978 0.47522
 C2677 C 0.36661 -0.06719 -0.00984
 N2678 N 0.35329 -0.06370 0.00503
 N2679 N 0.33596 -0.07411 0.00637
 C2680 C 0.33121 -0.08855 -0.00707
 N2681 N 0.34453 -0.09196 -0.02202
 N2682 N 0.36187 -0.08151 -0.02339
 C2683 C 0.38619 -0.05622 -0.01053
 N2684 N 0.39973 -0.05889 -0.02543
 N2685 N 0.41783 -0.04964 -0.02520
 C2686 C 0.42304 -0.03740 -0.01002
 N2687 N 0.40939 -0.03465 0.00471
 N2688 N 0.39135 -0.04378 0.00443
 C2689 C 0.36219 1.06911 0.50738
 N2690 N 0.34923 1.06634 0.49220
 N2691 N 0.33164 1.07676 0.49116
 C2692 C 0.32627 1.09046 0.50522
 N2693 N 0.33925 1.09315 0.52044
 N2694 N 0.35684 1.08270 0.52151
 C2695 C 0.38197 1.05802 0.50795
 N2696 N 0.39510 1.06014 0.52314
 N2697 N 0.41330 1.05066 0.52301
 C2698 C 0.41901 1.03872 0.50766
 N2699 N 0.40579 1.03655 0.49261
 N2700 N 0.38764 1.04593 0.49277
 C2701 C -0.13687 0.56844 1.00737
 N2702 N -0.14973 0.56613 0.99205
 N2703 N -0.16736 0.57650 0.99122
 C2704 C -0.17288 0.58969 1.00566
 N2705 N -0.16000 0.59193 1.02103
 N2706 N -0.14237 0.58153 1.02188
 C2707 C -0.11707 0.55738 1.00773
 N2708 N -0.10398 0.55910 1.02300
 N2709 N -0.08577 0.54963 1.02269
 C2710 C -0.08001 0.53811 1.00708
 N2711 N -0.09319 0.53633 0.99195
 N2712 N -0.11134 0.54570 0.99228
 C2713 C 0.01551 0.63825 0.55876
 N2714 N 0.02745 0.64136 0.57456
 N2715 N 0.02705 0.65935 0.58370
 C2716 C 0.01465 0.67480 0.57738
 N2717 N 0.00301 0.67173 0.56135
 N2718 N 0.00346 0.65380 0.55218
 C2719 C 0.01431 0.61806 0.54982
 N2720 N 0.00196 0.61517 0.53427
 N2721 N -0.00032 0.59655 0.52681
 C2722 C 0.00955 0.58017 0.53472
 N2723 N 0.02202 0.58305 0.55021
 N2724 N 0.02432 0.60171 0.55768
 C2725 C 0.51752 0.13576 0.06029
 N2726 N 0.52904 0.13891 0.07637
 N2727 N 0.52853 0.15698 0.08536
 C2728 C 0.51645 0.17248 0.07860
 N2729 N 0.50526 0.16938 0.06229
 N2730 N 0.50581 0.15136 0.05328
 C2731 C 0.51630 0.11550 0.05150
 N2732 N 0.50415 0.11262 0.03581
 N2733 N 0.50178 0.09397 0.02845
 C2734 C 0.51136 0.07755 0.03660
 N2735 N 0.52364 0.08042 0.05223
 N2736 N 0.52603 0.09911 0.05960
 C2737 C -0.01588 0.14149 0.94577
 N2738 N -0.02825 0.14487 0.93027
 N2739 N -0.02773 0.16264 0.92074
 C2740 C -0.01475 0.17759 0.92632
 N2741 N -0.00270 0.17430 0.94210
 N2742 N -0.00327 0.15657 0.95168
 C2743 C -0.01455 0.12123 0.95467
 N2744 N -0.00190 0.11781 0.96997
 N2745 N 0.00075 0.09897 0.97701
 C2746 C -0.00900 0.08290 0.96886
 N2747 N -0.02179 0.08633 0.95367
 N2748 N -0.02450 0.10520 0.94666
 C2749 C 0.47797 0.64379 0.45236
 N2750 N 0.49081 0.65876 0.45807
 N2751 N 0.49194 0.67618 0.44804
 C2752 C 0.48025 0.67926 0.43198
 N2753 N 0.46696 0.66449 0.42665
 N2754 N 0.46589 0.64703 0.43662
 C2755 C 0.47923 0.62353 0.46128
 N2756 N 0.46992 0.60741 0.45276
 N2757 N 0.47320 0.58844 0.45927
 C2758 C 0.48594 0.58497 0.47450
 N2759 N 0.49494 0.60113 0.48328
 N2760 N 0.49173 0.62010 0.47670
 C2761 C 0.51481 0.86137 0.44508
 N2762 N 0.50214 0.84653 0.45151
 N2763 N 0.50122 0.82866 0.44229
 C2764 C 0.51298 0.82497 0.42634
 N2765 N 0.52601 0.83969 0.42019
 N2766 N 0.52688 0.85761 0.42937
 C2767 C 0.51396 0.88170 0.45380
 N2768 N 0.52423 0.89750 0.44563
 N2769 N 0.52197 0.91642 0.45260
 C2770 C 0.50931 0.92013 0.46790
 N2771 N 0.49925 0.90429 0.47620
 N2772 N 0.50148 0.88539 0.46921
 C2773 C 0.01628 0.36139 0.94253
 N2774 N 0.00380 0.34636 0.94889
 N2775 N 0.00311 0.32852 0.93958
 C2776 C 0.01490 0.32507 0.92361
 N2777 N 0.02773 0.34000 0.91753
 N2778 N 0.02838 0.35787 0.92680
 C2779 C 0.01519 0.38166 0.95137
 N2780 N 0.02535 0.39761 0.94334
 N2781 N 0.02294 0.41646 0.95044
 C2782 C 0.01023 0.41995 0.96575
 N2783 N 0.00026 0.40396 0.97390
 N2784 N 0.00264 0.38514 0.96678
 C2785 C 0.48348 0.35889 0.05869
 N2786 N 0.49528 0.34328 0.05186
 N2787 N 0.49572 0.32529 0.06100
 C2788 C 0.48431 0.32224 0.07725
 N2789 N 0.47212 0.33776 0.08381
 N2790 N 0.47174 0.35579 0.07471
 C2791 C 0.48485 0.37917 0.04988
 N2792 N 0.47530 0.39559 0.05811
 N2793 N 0.47787 0.41431 0.05082
 C2794 C 0.49015 0.41721 0.03512
 N2795 N 0.49954 0.40076 0.02682
 N2796 N 0.49700 0.38207 0.03412
 C2797 C -0.01789 0.86189 0.56010
 N2798 N -0.00665 0.84614 0.55271
 N2799 N -0.00619 0.82805 0.56165
 C2800 C -0.01701 0.82502 0.57827
 N2801 N -0.02864 0.84068 0.58541
 N2802 N -0.02905 0.85883 0.57649
 C2803 C -0.01650 0.88221 0.55137
 N2804 N -0.02570 0.89869 0.55985
 N2805 N -0.02314 0.91742 0.55254
 C2806 C -0.01120 0.92024 0.53659
 N2807 N -0.00214 0.90373 0.52806
 N2808 N -0.00469 0.88505 0.53537
 C2809 C 0.27014 0.29241 0.11381
 N2810 N 0.26491 0.28096 0.09810
 N2811 N 0.26152 0.28986 0.08083
 C2812 C 0.26308 0.31055 0.07866
 N2813 N 0.26849 0.32184 0.09439
 N2814 N 0.27191 0.31298 0.11156
 C2815 C 0.27222 0.28344 0.13345
 N2816 N 0.27529 0.29611 0.14878
 N2817 N 0.27485 0.28900 0.16693
 C2818 C 0.27157 0.26886 0.17059
 N2819 N 0.26904 0.25594 0.15526
 N2820 N 0.26936 0.26312 0.13698
 C2821 C 0.77027 0.79427 0.61602
 N2822 N 0.76522 0.78267 0.60035
 N2823 N 0.76172 0.79146 0.58304
 C2824 C 0.76299 0.81216 0.58079
 N2825 N 0.76821 0.82360 0.59648
 N2826 N 0.77174 0.81486 0.61369
 C2827 C 0.77252 0.78541 0.63570
 N2828 N 0.77542 0.79819 0.65097
 N2829 N 0.77517 0.79114 0.66915
 C2830 C 0.77227 0.77094 0.67289
 N2831 N 0.76991 0.75793 0.65761
 N2832 N 0.77003 0.76505 0.63931
 C2833 C 0.23335 0.70644 0.61400
 N2834 N 0.23490 0.68578 0.61211
 N2835 N 0.23873 0.67726 0.59488
 C2836 C 0.24122 0.68900 0.57872
 N2837 N 0.23947 0.70975 0.58052
 N2838 N 0.23572 0.71833 0.59787
 C2839 C 0.23052 0.71524 0.63361
 N2840 N 0.23144 0.73577 0.63704
 N2841 N 0.23112 0.74297 0.65529
 C2842 C 0.22982 0.72986 0.67069
 N2843 N 0.22842 0.70947 0.66711
 N2844 N 0.22867 0.70233 0.64899
 C2845 C 0.73066 0.20420 0.11458
 N2846 N 0.72930 0.18362 0.11221
 N2847 N 0.73257 0.17505 0.09489
 C2848 C 0.73741 0.18664 0.07913
 N2849 N 0.73859 0.20734 0.08143
 N2850 N 0.73534 0.21596 0.09884
 C2851 C 0.72862 0.21290 0.13433
 N2852 N 0.73073 0.23329 0.13792
 N2853 N 0.73090 0.24033 0.15623
 C2854 C 0.72897 0.22720 0.17153
 N2855 N 0.72648 0.20696 0.16782
 N2856 N 0.72619 0.19998 0.14964
 C2857 C 0.75999 0.20397 0.88680
 N2858 N 0.74824 0.18732 0.89010
 N2859 N 0.74564 0.18002 0.90802
 C2860 C 0.75479 0.18894 0.92350
 N2861 N 0.76664 0.20564 0.92026
 N2862 N 0.76910 0.21311 0.90224
 C2863 C 0.76257 0.21130 0.86661
 N2864 N 0.76950 0.23039 0.86221
 N2865 N 0.77021 0.23686 0.84368
 C2866 C 0.76422 0.22434 0.82896
 N2867 N 0.75770 0.20524 0.83349
 N2868 N 0.75687 0.19888 0.85186
 C2869 C 0.25900 0.70520 0.38690
 N2870 N 0.26610 0.71547 0.40267
 N2871 N 0.26318 0.70807 0.42064
 C2872 C 0.25283 0.69031 0.42351
 N2873 N 0.24565 0.68026 0.40770
 N2874 N 0.24872 0.68752 0.38982
 C2875 C 0.26215 0.71248 0.36676
 N2876 N 0.25835 0.69943 0.35192
 N2877 N 0.25957 0.70567 0.33354
 C2878 C 0.26461 0.72524 0.32907
 N2879 N 0.26876 0.73839 0.34389
 N2880 N 0.26765 0.73207 0.36245
 C2881 C 0.73960 0.79512 0.38934
 N2882 N 0.75141 0.81175 0.39236
 N2883 N 0.75412 0.81915 0.41020
 C2884 C 0.74503 0.81033 0.42584
 N2885 N 0.73314 0.79364 0.42287
 N2886 N 0.73056 0.78607 0.40495
 C2887 C 0.73687 0.78768 0.36925
 N2888 N 0.72988 0.76858 0.36511
 N2889 N 0.72900 0.76201 0.34664
 C2890 C 0.73489 0.77444 0.33174
 N2891 N 0.74147 0.79355 0.33602
 N2892 N 0.74247 0.80001 0.35432
 C2893 C 0.23980 0.29566 0.88688
 N2894 N 0.25130 0.31247 0.89008
 N2895 N 0.25413 0.31954 0.90802
 C2896 C 0.24546 0.31019 0.92359
 N2897 N 0.23386 0.29331 0.92045
 N2898 N 0.23119 0.28608 0.90242
 C2899 C 0.23696 0.28861 0.86668
 N2900 N 0.23079 0.26930 0.86222
 N2901 N 0.23000 0.26311 0.84363
 C2902 C 0.23516 0.27613 0.82893
 N2903 N 0.24089 0.29545 0.83354
 N2904 N 0.24180 0.30154 0.85196
 C2905 C 0.81512 0.38496 0.76203
 N2906 N 0.81245 0.39812 0.74685
 N2907 N 0.82351 0.41508 0.74535
 C2908 C 0.83775 0.41965 0.75897
 N2909 N 0.84033 0.40651 0.77425
 N2910 N 0.82927 0.38950 0.77574
 C2911 C 0.80339 0.36575 0.76287
 N2912 N 0.80632 0.35162 0.77727
 N2913 N 0.79646 0.33378 0.77702
 C2914 C 0.78326 0.32945 0.76236
 N2915 N 0.78022 0.34372 0.74818
 N2916 N 0.79001 0.36148 0.74845
 C2917 C 0.31498 0.88491 0.26073
 N2918 N 0.31310 0.89765 0.24515
 N2919 N 0.32417 0.91462 0.24382
 C2920 C 0.33768 0.91967 0.25801
 N2921 N 0.33938 0.90688 0.27369
 N2922 N 0.32832 0.88986 0.27502
 C2923 C 0.30326 0.86569 0.26147
 N2924 N 0.30554 0.85195 0.27630
 N2925 N 0.29569 0.83410 0.27606
 C2926 C 0.28317 0.82938 0.26099
 N2927 N 0.28077 0.84325 0.24636
 N2928 N 0.29055 0.86102 0.24661
 C2929 C 0.18673 0.89164 0.73820
 N2930 N 0.18925 0.90464 0.75343
 N2931 N 0.17836 0.92198 0.75472
 C2932 C 0.16446 0.92709 0.74083
 N2933 N 0.16205 0.91411 0.72550
 N2934 N 0.17294 0.89673 0.72422
 C2935 C 0.19817 0.87201 0.73751
 N2936 N 0.19532 0.85823 0.72292
 N2937 N 0.20489 0.84001 0.72317
 C2938 C 0.21769 0.83494 0.73803
 N2939 N 0.22065 0.84884 0.75244
 N2940 N 0.21115 0.86699 0.75217
 C2941 C 0.68506 0.38756 0.24014
 N2942 N 0.68690 0.40024 0.25570
 N2943 N 0.67605 0.41760 0.25681
 C2944 C 0.66287 0.42306 0.24241
 N2945 N 0.66113 0.41040 0.22676
 N2946 N 0.67198 0.39299 0.22565
 C2947 C 0.69651 0.36794 0.23960
 N2948 N 0.69432 0.35444 0.22467
 N2949 N 0.70395 0.33626 0.22498
 C2950 C 0.71615 0.33096 0.24022
 N2951 N 0.71845 0.34458 0.25499
 N2952 N 0.70887 0.36269 0.25466
 C2953 C 0.68397 0.61353 0.26495
 N2954 N 0.66493 0.61215 0.27265
 N2955 N 0.65386 0.59536 0.26994
 C2956 C 0.66138 0.57924 0.25947
 N2957 N 0.68051 0.58060 0.25195
 N2958 N 0.69152 0.59743 0.25455
 C2959 C 0.69576 0.63260 0.26657
 N2960 N 0.71244 0.63532 0.25516
 N2961 N 0.72222 0.65310 0.25515
 C2962 C 0.71595 0.66882 0.26675
 N2963 N 0.69949 0.66601 0.27852
 N2964 N 0.68956 0.64822 0.27840
 C2965 C 0.18667 0.11623 0.76098
 N2966 N 0.18904 0.10333 0.74559
 N2967 N 0.17799 0.08637 0.74418
 C2968 C 0.16405 0.08157 0.75810
 N2969 N 0.16177 0.09445 0.77357
 N2970 N 0.17282 0.11145 0.77498
 C2971 C 0.19833 0.13547 0.76177
 N2972 N 0.19561 0.14928 0.77643
 N2973 N 0.20534 0.16718 0.77620
 C2974 C 0.21819 0.17189 0.76129
 N2975 N 0.22103 0.15794 0.74683
 N2976 N 0.21137 0.14011 0.74708
 C2977 C 0.31432 0.10884 0.24044
 N2978 N 0.31238 0.09601 0.25595
 N2979 N 0.32316 0.07857 0.25694
 C2980 C 0.33638 0.07320 0.24248
 N2981 N 0.33822 0.08602 0.22691
 N2982 N 0.32743 0.10348 0.22591
 C2983 C 0.30294 0.12853 0.23992
 N2984 N 0.30510 0.14195 0.22487
 N2985 N 0.29550 0.16014 0.22508
 C2986 C 0.28335 0.16557 0.24037
 N2987 N 0.28110 0.15204 0.25528
 N2988 N 0.29065 0.13390 0.25505
 C2989 C 0.81611 0.61090 0.74206
 N2990 N 0.82882 0.60547 0.72722
 N2991 N 0.83943 0.58789 0.72793
 C2992 C 0.83780 0.57500 0.74348
 N2993 N 0.82499 0.58046 0.75824
 N2994 N 0.81438 0.59802 0.75754
 C2995 C 0.80490 0.63070 0.74184
 N2996 N 0.79302 0.63614 0.75725
 N2997 N 0.78357 0.65433 0.75769
 C2998 C 0.78553 0.66784 0.74272
 N2999 N 0.79727 0.66236 0.72718
 N3000 N 0.80678 0.64412 0.72675
 C3001 C 0.88914 0.76494 0.19848
 N3002 N 0.90363 0.75095 0.20353
 N3003 N 0.92134 0.75019 0.19408
 C3004 C 0.92530 0.76340 0.17922
 N3005 N 0.91089 0.77780 0.17463
 N3006 N 0.89311 0.77848 0.18400
 C3007 C 0.86894 0.76407 0.20728
 N3008 N 0.85301 0.77446 0.19922
 N3009 N 0.83422 0.77215 0.20619
 C3010 C 0.83078 0.75937 0.22144
 N3011 N 0.84675 0.74921 0.22966
 N3012 N 0.86551 0.75143 0.22262
 C3013 C 0.39077 0.27336 0.69686
 N3014 N 0.40619 0.26137 0.70374
 N3015 N 0.42390 0.26031 0.69430
 C3016 C 0.42686 0.27122 0.67769
 N3017 N 0.41158 0.28365 0.67113
 N3018 N 0.39382 0.28465 0.68052
 C3019 C 0.37055 0.27217 0.70561
 N3020 N 0.35424 0.28105 0.69671
 N3021 N 0.33548 0.27809 0.70353
 C3022 C 0.33245 0.26610 0.71943
 N3023 N 0.34879 0.25749 0.72850
 N3024 N 0.36753 0.26039 0.72165
 C3025 C 0.39185 0.73017 0.79690
 N3026 N 0.39533 0.71795 0.81258
 N3027 N 0.41293 0.71886 0.82210
 C3028 C 0.42761 0.73210 0.81637
 N3029 N 0.42427 0.74395 0.80038
 N3030 N 0.40671 0.74299 0.79080
 C3031 C 0.37158 0.73148 0.78835
 N3032 N 0.36801 0.74391 0.77284
 N3033 N 0.34910 0.74703 0.76644
 C3034 C 0.33312 0.73798 0.77550
 N3035 N 0.33671 0.72533 0.79084
 N3036 N 0.35564 0.72214 0.79718
 C3037 C 0.89133 0.22846 0.29831
 N3038 N 0.89495 0.21682 0.31435
 N3039 N 0.91255 0.21824 0.32381
 C3040 C 0.92708 0.23144 0.31766
 N3041 N 0.92360 0.24272 0.30133
 N3042 N 0.90604 0.24125 0.29181
 C3043 C 0.87106 0.22925 0.28972
 N3044 N 0.86734 0.24137 0.27402
 N3045 N 0.84839 0.24409 0.26757
 C3046 C 0.83254 0.23495 0.27673
 N3047 N 0.83629 0.22259 0.29226
 N3048 N 0.85525 0.21981 0.29867
 C3049 C 0.10721 0.26862 0.29616
 N3050 N 0.10344 0.28096 0.31166
 N3051 N 0.08586 0.27977 0.32128
 C3052 C 0.07149 0.26612 0.31582
 N3053 N 0.07511 0.25414 0.30000
 N3054 N 0.09266 0.25537 0.29032
 C3055 C 0.12752 0.26764 0.28757
 N3056 N 0.13145 0.25496 0.27234
 N3057 N 0.15046 0.25213 0.26600
 C3058 C 0.16618 0.26171 0.27484
 N3059 N 0.16223 0.27462 0.28989
 N3060 N 0.14321 0.27752 0.29617
 C3061 C 0.60854 0.76899 0.79875
 N3062 N 0.60456 0.78090 0.81451
 N3063 N 0.58681 0.77953 0.82381
 C3064 C 0.57247 0.76612 0.81776
 N3065 N 0.57632 0.75457 0.80170
 N3066 N 0.59403 0.75599 0.79235
 C3067 C 0.62895 0.76822 0.79037
 N3068 N 0.63302 0.75588 0.77493
 N3069 N 0.65208 0.75326 0.76866
 C3070 C 0.66771 0.76273 0.77775
 N3071 N 0.66361 0.77531 0.79302
 N3072 N 0.64453 0.77799 0.79925
 C3073 C 0.60883 0.23248 0.69780
 N3074 N 0.59376 0.24517 0.70428
 N3075 N 0.57606 0.24637 0.69492
 C3076 C 0.57278 0.23488 0.67877
 N3077 N 0.58770 0.22179 0.67262
 N3078 N 0.60544 0.22065 0.68193
 C3079 C 0.62907 0.23332 0.70641
 N3080 N 0.64514 0.22383 0.69761
 N3081 N 0.66397 0.22633 0.70430
 C3082 C 0.66733 0.23844 0.72000
 N3083 N 0.65123 0.24769 0.72897
 N3084 N 0.63242 0.24525 0.72222
 C3085 C 0.10879 0.73054 0.19866
 N3086 N 0.09360 0.74279 0.20560
 N3087 N 0.07572 0.74383 0.19653
 C3088 C 0.07238 0.73260 0.18024
 N3089 N 0.08745 0.71994 0.17361
 N3090 N 0.10537 0.71896 0.18263
 C3091 C 0.12914 0.73157 0.20703
 N3092 N 0.14522 0.72235 0.19798
 N3093 N 0.16410 0.72502 0.20451
 C3094 C 0.16748 0.73704 0.22026
 N3095 N 0.15137 0.74602 0.22945
 N3096 N 0.13252 0.74340 0.22289
   
