data_POSCAR
  _audit_creation_date              2014-09-24
  _audit_creation_method            'ToBaCCo'
  _symmetry_space_group_name_H-M    'P1'
  _symmetry_Int_Tables_number       1
  _symmetry_cell_setting            triclinic
  loop_
  _symmetry_equiv_pos_as_xyz
 x,y,z
_cell_length_a 48.1754
_cell_length_b 47.7909
_cell_length_c 48.2408
_cell_angle_alpha 89.944200
_cell_angle_beta 90.187500
_cell_angle_gamma 90.260900
loop_
  _atom_site_label
  _atom_site_type_symbol
  _atom_site_fract_x
  _atom_site_fract_y
  _atom_site_fract_z
N1 N 0.15530 0.22693 0.22246
 N2 N 0.16164 0.20593 0.23890
 C3 C 0.14171 0.20311 0.25823
 C4 C 0.12207 0.22357 0.25364
 C5 C 0.13129 0.23835 0.23088
 H6 H 0.14168 0.18763 0.27460
 H7 H 0.12136 0.25619 0.22132
 Cu8 Cu 0.19567 0.18478 0.23402
 Cu9 Cu 0.17918 0.23846 0.19210
 Cu10 Cu 0.23415 0.19479 0.17687
 N11 N 0.22309 0.15757 0.22222
 N12 N 0.23767 0.16132 0.19951
 C13 C 0.25540 0.13988 0.19652
 C14 C 0.25172 0.12182 0.21855
 C15 C 0.23109 0.13358 0.23449
 H16 H 0.27038 0.13798 0.17999
 H17 H 0.22292 0.12551 0.25378
 N18 N 0.22343 0.22650 0.15307
 N19 N 0.20227 0.24299 0.15876
 C20 C 0.19999 0.26241 0.13865
 C21 C 0.22078 0.25795 0.11960
 C22 C 0.23527 0.23512 0.12928
 H23 H 0.18456 0.27875 0.13800
 H24 H 0.25311 0.22560 0.11964
 H25 H 0.19241 0.19801 0.18557
 H26 H 0.21641 0.22171 0.20490
 N27 N 0.65716 0.72669 0.72790
 N28 N 0.66356 0.70578 0.74444
 C29 C 0.64320 0.70234 0.76321
 C30 C 0.62318 0.72230 0.75821
 C31 C 0.63264 0.73745 0.73575
 H32 H 0.64315 0.68678 0.77950
 H33 H 0.62254 0.75512 0.72605
 Cu34 Cu 0.69816 0.68544 0.74053
 Cu35 Cu 0.68170 0.73890 0.69823
 Cu36 Cu 0.73886 0.69721 0.68538
 N37 N 0.72629 0.65876 0.72929
 N38 N 0.74176 0.66333 0.70734
 C39 C 0.75974 0.64213 0.70436
 C40 C 0.75530 0.62333 0.72560
 C41 C 0.73396 0.63442 0.74110
 H42 H 0.77527 0.64082 0.68830
 H43 H 0.72498 0.62560 0.75970
 N44 N 0.72803 0.72853 0.66128
 N45 N 0.70603 0.74424 0.66580
 C46 C 0.70357 0.76283 0.64490
 C47 C 0.72510 0.75855 0.62661
 C48 C 0.74019 0.73673 0.63755
 H49 H 0.68716 0.77806 0.64284
 H50 H 0.75827 0.72709 0.62849
 H51 H 0.69660 0.69895 0.69205
 H52 H 0.71871 0.72343 0.71259
 N53 N 0.34424 0.77396 0.72478
 N54 N 0.33911 0.79559 0.74079
 C55 C 0.35889 0.79719 0.76058
 C56 C 0.37710 0.77533 0.75672
 C57 C 0.36724 0.76099 0.73391
 H58 H 0.36033 0.81327 0.77628
 H59 H 0.37650 0.74289 0.72428
 Cu60 Cu 0.30783 0.82005 0.73292
 Cu61 Cu 0.32159 0.76474 0.69250
 Cu62 Cu 0.26197 0.80405 0.68294
 N63 N 0.27628 0.84419 0.72510
 N64 N 0.25874 0.83793 0.70506
 C65 C 0.23918 0.85786 0.70344
 C66 C 0.24476 0.87762 0.72356
 C67 C 0.26836 0.86838 0.73703
 H68 H 0.22210 0.85781 0.68883
 H69 H 0.27892 0.87859 0.75408
 N70 N 0.27275 0.77337 0.65801
 N71 N 0.29572 0.75875 0.66134
 C72 C 0.29794 0.74040 0.64030
 C73 C 0.27534 0.74370 0.62305
 C74 C 0.25976 0.76470 0.63477
 H75 H 0.31488 0.72593 0.63743
 H76 H 0.24077 0.77346 0.62659
 H77 H 0.30467 0.80407 0.68527
 H78 H 0.28626 0.78006 0.70973
 N79 N 0.84183 0.26957 0.22696
 N80 N 0.83585 0.29043 0.24365
 C81 C 0.85684 0.29395 0.26187
 C82 C 0.87678 0.27406 0.25633
 C83 C 0.86666 0.25894 0.23409
 H84 H 0.85750 0.30964 0.27801
 H85 H 0.87655 0.24153 0.22384
 Cu86 Cu 0.80104 0.31066 0.24023
 Cu87 Cu 0.81672 0.25734 0.19771
 Cu88 Cu 0.75950 0.29920 0.18530
 N89 N 0.77232 0.33714 0.22965
 N90 N 0.75648 0.33271 0.20783
 C91 C 0.73836 0.35387 0.20522
 C92 C 0.74310 0.37251 0.22655
 C93 C 0.76476 0.36135 0.24172
 H94 H 0.72266 0.35537 0.18923
 H95 H 0.77416 0.37014 0.26016
 N96 N 0.77005 0.26802 0.16093
 N97 N 0.79203 0.25223 0.16544
 C98 C 0.79440 0.23375 0.14451
 C99 C 0.77282 0.23811 0.12618
 C100 C 0.75778 0.25992 0.13712
 H101 H 0.81082 0.21855 0.14243
 H102 H 0.73969 0.26962 0.12801
 H103 H 0.80185 0.29735 0.19170
 H104 H 0.77987 0.27292 0.21234
 N105 N 0.83604 0.73159 0.27064
 N106 N 0.83005 0.71076 0.25383
 C107 C 0.85074 0.70788 0.23534
 C108 C 0.87051 0.72816 0.24082
 C109 C 0.86058 0.74285 0.26329
 H110 H 0.85147 0.69217 0.21924
 H111 H 0.87059 0.76020 0.27373
 Cu112 Cu 0.79591 0.68935 0.25793
 Cu113 Cu 0.81160 0.74253 0.30072
 Cu114 Cu 0.75613 0.69815 0.31422
 N115 N 0.76858 0.66146 0.26891
 N116 N 0.75339 0.66481 0.29125
 C117 C 0.73646 0.64255 0.29423
 C118 C 0.74135 0.62437 0.27262
 C119 C 0.76184 0.63690 0.25690
 H120 H 0.72162 0.63981 0.31080
 H121 H 0.77121 0.62873 0.23826
 N122 N 0.76664 0.72943 0.33875
 N123 N 0.78796 0.74616 0.33380
 C124 C 0.79054 0.76447 0.35487
 C125 C 0.76979 0.75905 0.37377
 C126 C 0.75501 0.73677 0.36301
 H127 H 0.80653 0.78033 0.35662
 H128 H 0.73752 0.72630 0.37250
 H129 H 0.79809 0.70191 0.30659
 H130 H 0.77461 0.72575 0.28709
 N131 N 0.34457 0.22731 -0.22423
 N132 N 0.34024 0.20450 -0.23892
 C133 C 0.36055 0.20217 -0.25794
 C134 C 0.37827 0.22479 -0.25498
 C135 C 0.36758 0.24033 -0.23345
 H136 H 0.36262 0.18516 -0.27254
 H137 H 0.37614 0.25937 -0.22479
 Cu138 Cu 0.30919 0.17949 -0.23076
 Cu139 Cu 0.32043 0.23819 -0.19391
 Cu140 Cu 0.26559 0.19425 -0.17849
 N141 N 0.27787 0.15510 -0.22183
 N142 N 0.26140 0.16061 -0.20085
 C143 C 0.24207 0.14031 -0.19880
 C144 C 0.24666 0.12114 -0.21962
 C145 C 0.26945 0.13107 -0.23390
 H146 H 0.22571 0.13968 -0.18352
 H147 H 0.27911 0.12143 -0.25167
 N148 N 0.27585 0.22648 -0.15510
 N149 N 0.29702 0.24311 -0.16091
 C150 C 0.29928 0.26270 -0.14098
 C151 C 0.27846 0.25824 -0.12192
 C152 C 0.26395 0.23520 -0.13141
 H153 H 0.31485 0.27906 -0.14037
 H154 H 0.24620 0.22549 -0.12162
 H155 H 0.30802 0.19789 -0.18403
 H156 H 0.28520 0.21808 -0.20827
 N157 N 0.65656 0.27217 -0.22662
 N158 N 0.66057 0.29545 -0.24066
 C159 C 0.63999 0.29842 -0.25937
 C160 C 0.62232 0.27575 -0.25692
 C161 C 0.63338 0.25944 -0.23602
 H162 H 0.63793 0.31578 -0.27362
 H163 H 0.62509 0.23992 -0.22813
 Cu164 Cu 0.69200 0.31989 -0.23282
 Cu165 Cu 0.68176 0.26018 -0.19727
 Cu166 Cu 0.73393 0.30682 -0.17866
 N167 N 0.72363 0.34390 -0.22444
 N168 N 0.73952 0.33893 -0.20280
 C169 C 0.75896 0.35912 -0.20082
 C170 C 0.75502 0.37765 -0.22238
 C171 C 0.73252 0.36746 -0.23705
 H172 H 0.77475 0.36028 -0.18488
 H173 H 0.72319 0.37678 -0.25525
 N174 N 0.72511 0.27302 -0.15709
 N175 N 0.70522 0.25522 -0.16400
 C176 C 0.70374 0.23500 -0.14452
 C177 C 0.72380 0.24035 -0.12470
 C178 C 0.73696 0.26450 -0.13326
 H179 H 0.68886 0.21798 -0.14442
 H180 H 0.75349 0.27540 -0.12251
 H181 H 0.69171 0.30059 -0.18618
 H182 H 0.71701 0.28241 -0.20917
 N183 N 0.15543 0.77377 0.27447
 N184 N 0.16056 0.79561 0.25866
 C185 C 0.14062 0.79739 0.23906
 C186 C 0.12230 0.77543 0.24286
 C187 C 0.13228 0.76084 0.26541
 H188 H 0.13903 0.81375 0.22364
 H189 H 0.12292 0.74268 0.27503
 Cu190 Cu 0.19173 0.82047 0.26661
 Cu191 Cu 0.17806 0.76445 0.30659
 Cu192 Cu 0.23725 0.80446 0.31717
 N193 N 0.22314 0.84478 0.27525
 N194 N 0.24047 0.83862 0.29546
 C195 C 0.25989 0.85884 0.29744
 C196 C 0.25441 0.87867 0.27737
 C197 C 0.23105 0.86917 0.26358
 H198 H 0.27685 0.85893 0.31218
 H199 H 0.22067 0.87934 0.24642
 N200 N 0.22655 0.77317 0.34155
 N201 N 0.20373 0.75824 0.33775
 C202 C 0.20163 0.73920 0.35823
 C203 C 0.22416 0.74237 0.37564
 C204 C 0.23957 0.76401 0.36457
 H205 H 0.18490 0.72422 0.36046
 H206 H 0.25860 0.77266 0.37295
 H207 H 0.19471 0.80404 0.31419
 H208 H 0.21355 0.78062 0.28968
 N209 N 0.47959 0.40732 0.47897
 N210 N 0.45851 0.41315 0.49519
 C211 C 0.45517 0.39222 0.51363
 C212 C 0.47541 0.37248 0.50876
 C213 C 0.49056 0.38265 0.48667
 H214 H 0.43932 0.39141 0.52944
 H215 H 0.50815 0.37283 0.47688
 Cu216 Cu 0.43759 0.44760 0.49082
 Cu217 Cu 0.49150 0.43236 0.44944
 Cu218 Cu 0.44825 0.48826 0.43505
 N219 N 0.41066 0.47558 0.47938
 N220 N 0.41473 0.49101 0.45716
 C221 C 0.39339 0.50880 0.45409
 C222 C 0.37503 0.50429 0.47554
 C223 C 0.38654 0.48310 0.49126
 H224 H 0.39169 0.52431 0.43785
 H225 H 0.37814 0.47413 0.51006
 N226 N 0.47991 0.47812 0.41143
 N227 N 0.49628 0.45666 0.41672
 C228 C 0.51510 0.45449 0.39624
 C229 C 0.51037 0.47567 0.37739
 C230 C 0.48798 0.49025 0.38756
 H231 H 0.53083 0.43849 0.39484
 H232 H 0.47792 0.50795 0.37790
 H233 H 0.47470 0.46940 0.46295
 H234 H 0.45149 0.44587 0.44255
 N235 N -0.02312 -0.09414 0.97344
 N236 N -0.04364 -0.08761 0.99014
 C237 C -0.04597 -0.10738 1.00989
 C238 C -0.02573 -0.12717 1.00540
 C239 C -0.01154 -0.11820 0.98219
 H240 H -0.06119 -0.10745 1.02630
 H241 H 0.00572 -0.12853 0.97231
 Cu242 Cu -0.06530 -0.05415 0.98355
 Cu243 Cu -0.01340 -0.07119 0.94126
 Cu244 Cu -0.05035 -0.00909 0.93308
 N245 N -0.08953 -0.02274 0.97592
 N246 N -0.08368 -0.00522 0.95570
 C247 C -0.10385 0.01413 0.95398
 C248 C -0.12328 0.00830 0.97418
 C249 C -0.11365 -0.01520 0.98771
 H250 H -0.10454 0.03093 0.93896
 H251 H -0.12376 -0.02625 1.00446
 N252 N -0.02065 -0.02096 0.90762
 N253 N -0.00693 -0.04470 0.91042
 C254 C 0.01100 -0.04719 0.88920
 C255 C 0.00836 -0.02401 0.87239
 C256 C -0.01180 -0.00779 0.88456
 H257 H 0.02476 -0.06467 0.88591
 H258 H -0.01982 0.01183 0.87685
 H259 H -0.02585 -0.03443 0.95832
 H260 H -0.05167 -0.05208 0.93538
 N261 N 1.02293 0.59487 0.97462
 N262 N 1.04433 0.58953 0.99076
 C263 C 1.04606 0.60931 1.01054
 C264 C 1.02456 0.62786 1.00660
 C265 C 1.01021 0.61814 0.98373
 H266 H 1.06184 0.61036 1.02649
 H267 H 0.99212 0.62753 0.97426
 Cu268 Cu 1.06802 0.55755 0.98378
 Cu269 Cu 1.01387 0.57181 0.94241
 Cu270 Cu 1.05681 0.51492 0.92988
 N271 N 1.09227 0.52602 0.97670
 N272 N 1.08780 0.50943 0.95540
 C273 C 1.10820 0.49032 0.95418
 C274 C 1.12628 0.49524 0.97587
 C275 C 1.11565 0.51797 0.98979
 H276 H 1.11018 0.47447 0.93832
 H277 H 1.12483 0.52839 1.00749
 N278 N 1.02446 0.52406 0.90649
 N279 N 1.00835 0.54588 0.91100
 C280 C 0.98917 0.54729 0.89065
 C281 C 0.99342 0.52530 0.87271
 C282 C 1.01584 0.51096 0.88328
 H283 H 0.97358 0.56337 0.88863
 H284 H 1.02560 0.49282 0.87424
 H285 H 1.03094 0.53534 0.95722
 H286 H 1.05372 0.55782 0.93529
 N287 N 0.52307 0.09136 0.47586
 N288 N 0.54366 0.08453 0.49247
 C289 C 0.54650 0.10438 0.51210
 C290 C 0.52648 0.12446 0.50751
 C291 C 0.51194 0.11559 0.48446
 H292 H 0.56170 0.10405 0.52864
 H293 H 0.49450 0.12595 0.47479
 Cu294 Cu 0.56423 0.04999 0.48736
 Cu295 Cu 0.51169 0.06789 0.44497
 Cu296 Cu 0.55443 0.01210 0.42946
 N297 N 0.59087 0.02200 0.47557
 N298 N 0.58719 0.00762 0.45261
 C299 C 0.60831 -0.01041 0.44956
 C300 C 0.62609 -0.00713 0.47181
 C301 C 0.61450 0.01357 0.48794
 H302 H 0.61032 -0.02516 0.43271
 H303 H 0.62256 0.02165 0.50731
 N304 N 0.52354 0.02380 0.40532
 N305 N 0.50740 0.04525 0.41115
 C306 C 0.48853 0.04824 0.39074
 C307 C 0.49298 0.02762 0.37132
 C308 C 0.51524 0.01247 0.38109
 H309 H 0.47258 0.06406 0.39012
 H310 H 0.52461 -0.00545 0.37123
 H311 H 0.52768 0.03000 0.45740
 H312 H 0.55173 0.05414 0.43878
 N313 N -0.02497 0.09350 0.52283
 N314 N -0.04627 0.08727 0.50685
 C315 C -0.04860 0.10687 0.48691
 C316 C -0.02756 0.12619 0.49058
 C317 C -0.01289 0.11713 0.51345
 H318 H -0.06453 0.10728 0.47108
 H319 H 0.00490 0.12731 0.52283
 Cu320 Cu -0.06944 0.05462 0.51380
 Cu321 Cu -0.01535 0.07125 0.55522
 Cu322 Cu -0.05751 0.01427 0.56997
 N323 N -0.09333 0.02314 0.52317
 N324 N -0.08880 0.00757 0.54520
 C325 C -0.10915 -0.01173 0.54729
 C326 C -0.12724 -0.00801 0.52539
 C327 C -0.11667 0.01421 0.51047
 H328 H -0.11100 -0.02700 0.56375
 H329 H -0.12574 0.02361 0.49220
 N330 N -0.02485 0.02441 0.59257
 N331 N -0.00894 0.04629 0.58708
 C332 C 0.01095 0.04827 0.60669
 C333 C 0.00737 0.02660 0.62523
 C334 C -0.01538 0.01183 0.61574
 H335 H 0.02674 0.06439 0.60761
 H336 H -0.02455 -0.00644 0.62534
 H337 H -0.03222 0.03391 0.54140
 H338 H -0.05536 0.05688 0.56238
 N339 N 0.48450 0.58996 0.02275
 N340 N 0.46409 0.58366 0.00565
 C341 C 0.46082 0.60468 -0.01265
 C342 C 0.48040 0.62501 -0.00681
 C343 C 0.49512 0.61507 0.01572
 H344 H 0.44541 0.60516 -0.02900
 H345 H 0.51214 0.62538 0.02630
 Cu346 Cu 0.44380 0.54865 0.00896
 Cu347 Cu 0.49575 0.56490 0.05255
 Cu348 Cu 0.45268 0.50781 0.06481
 N349 N 0.41655 0.52046 0.01915
 N350 N 0.41984 0.50483 0.04136
 C351 C 0.39784 0.48757 0.04390
 C352 C 0.37992 0.49275 0.02215
 C353 C 0.39233 0.51373 0.00681
 H354 H 0.39502 0.47244 0.06036
 H355 H 0.38421 0.52358 -0.01168
 N356 N 0.48339 0.51855 0.08979
 N357 N 0.49965 0.54042 0.08529
 C358 C 0.51773 0.54287 0.10652
 C359 C 0.51264 0.52149 0.12505
 C360 C 0.49080 0.50646 0.11391
 H361 H 0.53322 0.55919 0.10862
 H362 H 0.48070 0.48844 0.12302
 H363 H 0.48003 0.52741 0.03836
 H364 H 0.45573 0.55028 0.05777
 N365 N 0.52131 -0.09005 0.02375
 N366 N 0.54131 -0.08309 0.00656
 C367 C 0.54397 -0.10329 -0.01269
 C368 C 0.52443 -0.12378 -0.00726
 C369 C 0.51036 -0.11477 0.01591
 H370 H 0.55878 -0.10295 -0.02948
 H371 H 0.49338 -0.12537 0.02619
 Cu372 Cu 0.56161 -0.04813 0.01066
 Cu373 Cu 0.51057 -0.06605 0.05438
 Cu374 Cu 0.55391 -0.00967 0.06835
 N375 N 0.58902 -0.02035 0.02169
 N376 N 0.58628 -0.00571 0.04458
 C377 C 0.60822 0.01163 0.04729
 C378 C 0.62551 0.00753 0.02492
 C379 C 0.61280 -0.01288 0.00907
 H380 H 0.61135 0.02618 0.06419
 H381 H 0.62035 -0.02175 -0.01008
 N382 N 0.52339 -0.02110 0.09312
 N383 N 0.50706 -0.04275 0.08784
 C384 C 0.48847 -0.04541 0.10845
 C385 C 0.49325 -0.02438 0.12742
 C386 C 0.51545 -0.00931 0.11718
 H387 H 0.47243 -0.06126 0.10946
 H388 H 0.52499 0.00889 0.12658
 H389 H 0.52618 -0.02801 0.04143
 H390 H 0.55077 -0.05177 0.05960
 N391 N 1.02252 0.40864 0.52222
 N392 N 1.04598 0.41170 0.50865
 C393 C 1.04815 0.39099 0.48984
 C394 C 1.02476 0.37432 0.49177
 C395 C 1.00889 0.38607 0.51243
 H396 H 1.06556 0.38788 0.47612
 H397 H 0.98924 0.37844 0.52020
 Cu398 Cu 1.07154 0.44196 0.51797
 Cu399 Cu 1.01161 0.43357 0.55211
 Cu400 Cu 1.06035 0.48288 0.57323
 N401 N 1.09685 0.47243 0.52725
 N402 N 1.09251 0.48794 0.54932
 C403 C 1.11307 0.50694 0.55167
 C404 C 1.13117 0.50313 0.52993
 C405 C 1.12035 0.48113 0.51477
 H406 H 1.11462 0.52250 0.56786
 H407 H 1.12906 0.47220 0.49616
 N408 N 1.02627 0.47465 0.59423
 N409 N 1.00774 0.45585 0.58620
 C410 C 0.98734 0.45447 0.60518
 C411 C 0.99325 0.47347 0.62588
 C412 C 1.01793 0.48597 0.61835
 H413 H 0.96962 0.44054 0.60416
 H414 H 1.02910 0.50184 0.62987
 H415 H 1.03569 0.46848 0.54193
 H416 H 1.05200 0.44109 0.56426
 C417 C 0.34336 -0.02404 0.25409
 C418 C 0.35767 0.00091 0.24868
 C419 C 0.34292 0.02545 0.24312
 C420 C 0.31380 0.02521 0.24303
 C421 C 0.29958 0.00015 0.24858
 C422 C 0.31425 -0.02456 0.25402
 C423 C 0.38815 0.00134 0.24883
 C424 C 0.40276 -0.00295 0.22419
 C425 C 0.43188 -0.00267 0.22421
 C426 C 0.44624 0.00209 0.24912
 C427 C 0.43171 0.00646 0.27389
 C428 C 0.40260 0.00601 0.27362
 H429 H 0.35501 -0.04284 0.25850
 H430 H 0.35427 0.04454 0.23881
 H431 H 0.39132 -0.00678 0.20522
 H432 H 0.39104 0.00947 0.29249
 H433 H 0.27708 -0.00013 0.24857
 H434 H 0.46874 0.00233 0.24925
 C435 C 0.15543 -0.02607 0.74588
 C436 C 0.14095 -0.00118 0.75044
 C437 C 0.15556 0.02364 0.75580
 C438 C 0.18467 0.02370 0.75659
 C439 C 0.19905 -0.00132 0.75192
 C440 C 0.18455 -0.02628 0.74658
 C441 C 0.11047 -0.00101 0.74932
 C442 C 0.09504 -0.00528 0.77353
 C443 C 0.06596 -0.00484 0.77265
 C444 C 0.05241 0.00013 0.74733
 C445 C 0.06771 0.00435 0.72299
 C446 C 0.09680 0.00370 0.72408
 H447 H 0.14391 -0.04505 0.74146
 H448 H 0.14411 0.04271 0.75940
 H449 H 0.10566 -0.00895 0.79303
 H450 H 0.10892 0.00713 0.70552
 H451 H 0.22154 -0.00135 0.75238
 H452 H 0.02998 0.00078 0.74639
 C453 C 0.65490 0.47239 0.24850
 C454 C 0.64108 0.49779 0.25239
 C455 C 0.65637 0.52251 0.25602
 C456 C 0.68547 0.52195 0.25591
 C457 C 0.69918 0.49644 0.25181
 C458 C 0.68400 0.47161 0.24807
 C459 C 0.61058 0.49849 0.25227
 C460 C 0.59584 0.49416 0.27690
 C461 C 0.56674 0.49415 0.27676
 C462 C 0.55248 0.49891 0.25179
 C463 C 0.56708 0.50344 0.22707
 C464 C 0.59618 0.50306 0.22740
 H465 H 0.64287 0.45346 0.24547
 H466 H 0.64563 0.54216 0.25897
 H467 H 0.60701 0.49056 0.29612
 H468 H 0.60760 0.50631 0.20834
 H469 H 0.72163 0.49577 0.25133
 H470 H 0.53007 0.49905 0.25160
 C471 C 0.84585 0.47559 0.75506
 C472 C 0.86039 0.50060 0.75055
 C473 C 0.84586 0.52557 0.74654
 C474 C 0.81674 0.52565 0.74695
 C475 C 0.80231 0.50054 0.75157
 C476 C 0.81675 0.47545 0.75565
 C477 C 0.89085 0.50056 0.74966
 C478 C 0.90451 0.49580 0.72453
 C479 C 0.93359 0.49542 0.72358
 C480 C 0.94890 0.49986 0.74797
 C481 C 0.93535 0.50498 0.77316
 C482 C 0.90627 0.50513 0.77390
 H483 H 0.85734 0.45645 0.75824
 H484 H 0.85734 0.54471 0.74281
 H485 H 0.89241 0.49211 0.70593
 H486 H 0.89564 0.50887 0.79332
 H487 H 0.77981 0.50051 0.75193
 H488 H 0.97133 0.49932 0.74717
 C489 C 0.25645 0.35000 -0.02540
 C490 C 0.25129 0.36462 -0.00083
 C491 C 0.24558 0.34994 0.02363
 C492 C 0.24503 0.32060 0.02366
 C493 C 0.25019 0.30607 -0.00103
 C494 C 0.25587 0.32065 -0.02564
 C495 C 0.25170 0.39534 -0.00075
 C496 C 0.22702 0.41022 -0.00465
 C497 C 0.22730 0.43954 -0.00489
 C498 C 0.25241 0.45391 -0.00067
 C499 C 0.27718 0.43914 0.00352
 C500 C 0.27674 0.40981 0.00323
 H501 H 0.26099 0.36159 -0.04414
 H502 H 0.24146 0.36151 0.04243
 H503 H 0.20767 0.39897 -0.00775
 H504 H 0.29582 0.39825 0.00628
 H505 H 0.24977 0.28340 -0.00110
 H506 H 0.25269 0.47650 -0.00065
 C507 C 0.74537 0.15336 -0.02497
 C508 C 0.75060 0.13861 -0.00040
 C509 C 0.75499 0.15320 0.02442
 C510 C 0.75442 0.18252 0.02475
 C511 C 0.74893 0.19712 0.00011
 C512 C 0.74422 0.18265 -0.02478
 C513 C 0.75094 0.10789 -0.00059
 C514 C 0.77568 0.09353 -0.00576
 C515 C 0.77591 0.06420 -0.00633
 C516 C 0.75125 0.04934 -0.00125
 C517 C 0.72647 0.06358 0.00418
 C518 C 0.72640 0.09289 0.00432
 H519 H 0.74195 0.14204 -0.04414
 H520 H 0.75893 0.14175 0.04343
 H521 H 0.79468 0.10517 -0.00946
 H522 H 0.70728 0.10403 0.00835
 H523 H 0.74836 0.21970 0.00030
 H524 H 0.75138 0.02675 -0.00135
 C525 C 0.24792 0.65365 0.47509
 C526 C 0.25269 0.64007 0.50038
 C527 C 0.25697 0.65580 0.52451
 C528 C 0.25657 0.68511 0.52346
 C529 C 0.25162 0.69858 0.49807
 C530 C 0.24728 0.68296 0.47384
 C531 C 0.25289 0.60936 0.50156
 C532 C 0.27758 0.59477 0.49701
 C533 C 0.27778 0.56542 0.49757
 C534 C 0.25301 0.55079 0.50277
 C535 C 0.22818 0.56530 0.50734
 C536 C 0.22826 0.59464 0.50671
 H537 H 0.24447 0.64129 0.45661
 H538 H 0.26062 0.64524 0.54407
 H539 H 0.29640 0.60642 0.49277
 H540 H 0.20933 0.60619 0.51022
 H541 H 0.25097 0.72118 0.49701
 H542 H 0.25304 0.52812 0.50318
 C543 C 0.75352 0.84344 0.47579
 C544 C 0.74948 0.85808 0.50058
 C545 C 0.74506 0.84338 0.52531
 C546 C 0.74446 0.81406 0.52535
 C547 C 0.74879 0.79951 0.50048
 C548 C 0.75341 0.81411 0.47565
 C549 C 0.74901 0.88881 0.50053
 C550 C 0.72408 0.90283 0.49528
 C551 C 0.72336 0.93215 0.49510
 C552 C 0.74778 0.94734 0.50030
 C553 C 0.77283 0.93346 0.50568
 C554 C 0.77334 0.90412 0.50568
 H555 H 0.75674 0.85487 0.45664
 H556 H 0.74175 0.85475 0.54444
 H557 H 0.70543 0.89078 0.49121
 H558 H 0.79264 0.89322 0.50968
 H559 H 0.74843 0.77693 0.50042
 H560 H 0.74711 0.96997 0.49993
 C561 C -0.02458 0.25767 0.34221
 C562 C -0.00025 0.25265 0.35738
 C563 C 0.02470 0.24759 0.34348
 C564 C 0.02541 0.24736 0.31443
 C565 C 0.00099 0.25244 0.29938
 C566 C -0.02405 0.25776 0.31315
 C567 C -0.00103 0.25169 0.38781
 C568 C -0.00610 0.22623 0.40133
 C569 C -0.00667 0.22504 0.43036
 C570 C -0.00210 0.24951 0.44575
 C571 C 0.00330 0.27503 0.43238
 C572 C 0.00368 0.27603 0.40333
 H573 H -0.04392 0.26131 0.35302
 H574 H 0.04331 0.24338 0.35538
 H575 H -0.00967 0.20754 0.38916
 H576 H 0.00779 0.29567 0.39282
 H577 H 0.00159 0.25188 0.27697
 H578 H -0.00266 0.24844 0.46814
 C579 C -0.02766 0.74577 0.15656
 C580 C -0.00280 0.75040 0.14224
 C581 C 0.02187 0.75514 0.15699
 C582 C 0.02178 0.75543 0.18603
 C583 C -0.00315 0.75054 0.20023
 C584 C -0.02792 0.74560 0.18561
 C585 C -0.00257 0.75029 0.11180
 C586 C -0.00646 0.77526 0.09712
 C587 C -0.00613 0.77530 0.06804
 C588 C -0.00179 0.75014 0.05380
 C589 C 0.00225 0.72507 0.06838
 C590 C 0.00177 0.72525 0.09744
 H591 H -0.04674 0.74220 0.14510
 H592 H 0.04108 0.75874 0.14588
 H593 H -0.00992 0.79446 0.10845
 H594 H 0.00501 0.70613 0.10903
 H595 H -0.00331 0.75068 0.22260
 H596 H -0.00146 0.75007 0.03134
 C597 C 0.47447 0.24410 0.65733
 C598 C 0.49859 0.24873 0.64179
 C599 C 0.52392 0.25363 0.65531
 C600 C 0.52524 0.25405 0.68434
 C601 C 0.50105 0.24935 0.69976
 C602 C 0.47561 0.24424 0.68639
 C603 C 0.49758 0.24788 0.61136
 C604 C 0.49255 0.27234 0.59614
 C605 C 0.49258 0.27172 0.56707
 C606 C 0.49800 0.24645 0.55337
 C607 C 0.50305 0.22190 0.56846
 C608 C 0.50275 0.22270 0.59750
 H609 H 0.45491 0.24021 0.64683
 H610 H 0.54243 0.25715 0.64311
 H611 H 0.48881 0.29186 0.60690
 H612 H 0.50697 0.20400 0.60943
 H613 H 0.50222 0.24979 0.72215
 H614 H 0.49861 0.24575 0.53097
 C615 C 0.47498 0.75430 0.84508
 C616 C 0.49912 0.74915 0.86049
 C617 C 0.52412 0.74362 0.84686
 C618 C 0.52509 0.74316 0.81782
 C619 C 0.50082 0.74818 0.80253
 C620 C 0.47574 0.75396 0.81603
 C621 C 0.49850 0.75021 0.89092
 C622 C 0.49497 0.72560 0.90633
 C623 C 0.49505 0.72649 0.93539
 C624 C 0.49926 0.75216 0.94890
 C625 C 0.50295 0.77685 0.93359
 C626 C 0.50236 0.77579 0.90455
 H627 H 0.45568 0.75871 0.85567
 H628 H 0.54266 0.73975 0.85896
 H629 H 0.49217 0.70580 0.89572
 H630 H 0.50547 0.79461 0.89244
 H631 H 0.50168 0.74762 0.78013
 H632 H 0.49995 0.75306 0.97131
 C633 C 0.08110 0.23791 0.31158
 C634 C 0.08531 0.21120 0.29396
 C635 C 0.09666 0.22942 0.27026
 C636 C 0.09277 0.25604 0.28764
 C637 C 0.06742 0.23250 0.25782
 C638 C 0.05572 0.21438 0.28172
 C639 C 0.05177 0.24101 0.29916
 C640 C 0.06321 0.25920 0.27542
 H641 H 0.08716 0.24019 0.33367
 H642 H 0.09451 0.19133 0.30147
 H643 H 0.10829 0.27313 0.28987
 H644 H 0.06204 0.23020 0.23555
 H645 H 0.04022 0.19727 0.27943
 H646 H 0.05394 0.27905 0.26793
 C647 C 0.58095 0.73473 0.81561
 C648 C 0.58597 0.70847 0.79757
 C649 C 0.59731 0.72738 0.77438
 C650 C 0.59260 0.75355 0.79219
 C651 C 0.56819 0.73007 0.76155
 C652 C 0.55650 0.71126 0.78494
 C653 C 0.55175 0.73744 0.80281
 C654 C 0.56317 0.75633 0.77959
 H655 H 0.58666 0.73667 0.83783
 H656 H 0.59545 0.68865 0.80487
 H657 H 0.60772 0.77093 0.79498
 H658 H 0.56320 0.72811 0.73916
 H659 H 0.54140 0.69387 0.78211
 H660 H 0.55360 0.77612 0.77233
 C661 C 0.43117 0.78549 0.80419
 C662 C 0.42865 0.78895 0.77237
 C663 C 0.40315 0.76953 0.77256
 C664 C 0.40528 0.76614 0.80418
 C665 C 0.42167 0.74380 0.76810
 C666 C 0.44748 0.76317 0.76805
 C667 C 0.44973 0.75974 0.79974
 C668 C 0.42415 0.74036 0.79994
 H669 H 0.43533 0.80264 0.81915
 H670 H 0.43021 0.80903 0.76089
 H671 H 0.38766 0.76744 0.81888
 H672 H 0.41767 0.72654 0.75323
 H673 H 0.46453 0.76215 0.75269
 H674 H 0.42253 0.72027 0.81141
 C675 C -0.07057 0.28694 0.30238
 C676 C -0.07363 0.29103 0.27065
 C677 C -0.09779 0.26994 0.27059
 C678 C -0.09516 0.26593 0.30210
 C679 C -0.07771 0.24561 0.26533
 C680 C -0.05319 0.26663 0.26557
 C681 C -0.05043 0.26258 0.29715
 C682 C -0.07472 0.24157 0.29706
 H683 H -0.06738 0.30393 0.31774
 H684 H -0.07344 0.31144 0.25966
 H685 H -0.11267 0.26568 0.31700
 H686 H -0.08061 0.22844 0.25010
 H687 H -0.03617 0.26714 0.25014
 H688 H -0.07494 0.22115 0.30805
 C689 C -0.07894 0.76150 0.20044
 C690 C -0.09936 0.73706 0.19470
 C691 C -0.10260 0.73275 0.22611
 C692 C -0.08252 0.75714 0.23204
 C693 C -0.07848 0.71184 0.22643
 C694 C -0.07483 0.71621 0.19484
 C695 C -0.05472 0.74063 0.20077
 C696 C -0.05808 0.73628 0.23224
 H697 H -0.07890 0.78201 0.18963
 H698 H -0.11662 0.73732 0.17940
 H699 H -0.08575 0.77410 0.24737
 H700 H -0.07857 0.69132 0.23724
 H701 H -0.07141 0.69936 0.17941
 H702 H -0.04144 0.73571 0.24818
 C703 C 0.44743 0.23673 0.73461
 C704 C 0.42170 0.25600 0.73378
 C705 C 0.40307 0.23004 0.73015
 C706 C 0.42845 0.21072 0.73115
 C707 C 0.40511 0.23228 0.69843
 C708 C 0.42413 0.25828 0.70184
 C709 C 0.44962 0.23901 0.70282
 C710 C 0.43090 0.21305 0.69922
 H711 H 0.46450 0.23839 0.75001
 H712 H 0.41794 0.27382 0.74799
 H713 H 0.42997 0.19106 0.74333
 H714 H 0.38745 0.23040 0.68371
 H715 H 0.42259 0.27794 0.68966
 H716 H 0.43494 0.19538 0.68489
 C717 C 0.58097 0.26434 0.68627
 C718 C 0.58549 0.28992 0.70547
 C719 C 0.59782 0.27039 0.72763
 C720 C 0.59367 0.24491 0.70866
 C721 C 0.56907 0.26588 0.74063
 C722 C 0.55639 0.28530 0.71827
 C723 C 0.55211 0.25981 0.69923
 C724 C 0.56453 0.24032 0.72142
 H725 H 0.58632 0.26373 0.66393
 H726 H 0.59408 0.31046 0.69889
 H727 H 0.60928 0.22833 0.70490
 H728 H 0.56440 0.26659 0.76314
 H729 H 0.54082 0.30190 0.72207
 H730 H 0.55570 0.21982 0.72782
 C731 C 0.05150 0.76430 0.23320
 C732 C 0.07683 0.74456 0.23256
 C733 C 0.09583 0.76999 0.22753
 C734 C 0.07081 0.78978 0.22829
 C735 C 0.09283 0.76658 0.19599
 C736 C 0.07346 0.74109 0.20081
 C737 C 0.04835 0.76086 0.20159
 C738 C 0.06740 0.78631 0.19655
 H739 H 0.03488 0.76357 0.24905
 H740 H 0.08078 0.72725 0.24738
 H741 H 0.07001 0.80991 0.23971
 H742 H 0.11010 0.76758 0.18085
 H743 H 0.07431 0.72096 0.18940
 H744 H 0.06325 0.80349 0.18162
 C745 C 0.27500 0.06345 0.25544
 C746 C 0.28698 0.09315 0.25044
 C747 C 0.26808 0.09611 0.22490
 C748 C 0.25584 0.06677 0.22980
 C749 C 0.29076 0.08400 0.20611
 C750 C 0.30988 0.08078 0.23172
 C751 C 0.29773 0.05132 0.23665
 C752 C 0.27875 0.05432 0.21111
 H753 H 0.26869 0.05479 0.27584
 H754 H 0.29017 0.10938 0.26660
 H755 H 0.23345 0.06127 0.22893
 H756 H 0.29721 0.09246 0.18568
 H757 H 0.33203 0.08719 0.23247
 H758 H 0.27552 0.03811 0.19494
 C759 C 0.77781 0.56342 0.76064
 C760 C 0.78990 0.59330 0.75711
 C761 C 0.77144 0.59738 0.73141
 C762 C 0.75909 0.56788 0.73485
 C763 C 0.79444 0.58605 0.71251
 C764 C 0.81311 0.58171 0.73827
 C765 C 0.80084 0.55210 0.74172
 C766 C 0.78229 0.55623 0.71603
 H767 H 0.77117 0.55389 0.78055
 H768 H 0.79281 0.60883 0.77398
 H769 H 0.73671 0.56245 0.73337
 H770 H 0.80127 0.59534 0.69256
 H771 H 0.83526 0.58800 0.73969
 H772 H 0.77936 0.54074 0.69913
 C773 C 0.77719 0.43774 0.74263
 C774 C 0.78914 0.40784 0.74553
 C775 C 0.77149 0.40347 0.77165
 C776 C 0.75927 0.43299 0.76883
 C777 C 0.79515 0.41462 0.79009
 C778 C 0.81304 0.41927 0.76391
 C779 C 0.80089 0.44891 0.76109
 C780 C 0.78314 0.44447 0.78719
 H781 H 0.76995 0.44747 0.72301
 H782 H 0.79139 0.39251 0.72843
 H783 H 0.73698 0.43836 0.77090
 H784 H 0.80252 0.40509 0.80976
 H785 H 0.83509 0.41305 0.76187
 H786 H 0.78081 0.45978 0.80430
 C787 C 0.27449 -0.06250 0.24238
 C788 C 0.28670 -0.09232 0.24497
 C789 C 0.26986 -0.09673 0.27160
 C790 C 0.25737 -0.06730 0.26911
 C791 C 0.29398 -0.08545 0.28936
 C792 C 0.31106 -0.08071 0.26264
 C793 C 0.29866 -0.05115 0.26013
 C794 C 0.28171 -0.05565 0.28675
 H795 H 0.26664 -0.05285 0.22296
 H796 H 0.28859 -0.10765 0.22781
 H797 H 0.23513 -0.06202 0.27184
 H798 H 0.30201 -0.09486 0.30883
 H799 H 0.33309 -0.08675 0.25991
 H800 H 0.27982 -0.04033 0.30391
 C801 C 0.22469 -0.06361 0.75845
 C802 C 0.21263 -0.09363 0.75619
 C803 C 0.22928 -0.09796 0.72945
 C804 C 0.24163 -0.06833 0.73162
 C805 C 0.20495 -0.08711 0.71181
 C806 C 0.18806 -0.08246 0.73863
 C807 C 0.20032 -0.05271 0.74081
 C808 C 0.21708 -0.05713 0.71409
 H809 H 0.23266 -0.05374 0.77774
 H810 H 0.21096 -0.10889 0.77347
 H811 H 0.26382 -0.06276 0.72867
 H812 H 0.19678 -0.09672 0.69248
 H813 H 0.16609 -0.08880 0.74160
 H814 H 0.21877 -0.04190 0.69679
 C815 C 0.72233 0.43300 0.26145
 C816 C 0.70957 0.40335 0.25837
 C817 C 0.72737 0.39872 0.23242
 C818 C 0.74038 0.42799 0.23542
 C819 C 0.70419 0.41040 0.21378
 C820 C 0.68618 0.41532 0.23979
 C821 C 0.69912 0.44470 0.24280
 C822 C 0.71701 0.43999 0.21686
 H823 H 0.72963 0.44251 0.28117
 H824 H 0.70672 0.38800 0.27542
 H825 H 0.76282 0.43296 0.23356
 H826 H 0.69674 0.40111 0.19402
 H827 H 0.66393 0.40954 0.24160
 H828 H 0.71991 0.45530 0.19978
 C829 C 0.69974 0.57379 0.24014
 C830 C 0.69555 0.59343 0.26526
 C831 C 0.72721 0.59695 0.26761
 C832 C 0.73161 0.57767 0.24254
 C833 C 0.72896 0.57193 0.28755
 C834 C 0.69714 0.56807 0.28515
 C835 C 0.70146 0.54869 0.26007
 C836 C 0.73319 0.55226 0.26243
 H837 H 0.68757 0.57431 0.22057
 H838 H 0.68021 0.61064 0.26646
 H839 H 0.74587 0.58179 0.22496
 H840 H 0.74112 0.57145 0.30713
 H841 H 0.68285 0.56390 0.30269
 H842 H 0.74904 0.53553 0.26139
 C843 C 0.21797 0.05429 0.78921
 C844 C 0.24216 0.06580 0.77143
 C845 C 0.23007 0.09537 0.77417
 C846 C 0.20608 0.08420 0.79204
 C847 C 0.21277 0.09127 0.74766
 C848 C 0.22462 0.06135 0.74483
 C849 C 0.20059 0.05013 0.76270
 C850 C 0.18855 0.07982 0.76545
 H851 H 0.21995 0.03884 0.80629
 H852 H 0.26439 0.06028 0.77397
 H853 H 0.19849 0.09365 0.81159
 H854 H 0.21084 0.10676 0.73060
 H855 H 0.23211 0.05176 0.72530
 H856 H 0.16656 0.08615 0.76296
 C857 C 0.23543 0.31672 0.07909
 C858 C 0.20892 0.29875 0.08302
 C859 C 0.22693 0.27478 0.09425
 C860 C 0.25336 0.29251 0.09060
 C861 C 0.23013 0.26260 0.06496
 C862 C 0.21222 0.28678 0.05339
 C863 C 0.23864 0.30458 0.04970
 C864 C 0.25665 0.28057 0.06098
 H865 H 0.23764 0.33892 0.08543
 H866 H 0.18917 0.30617 0.09216
 H867 H 0.27024 0.29467 0.10618
 H868 H 0.22787 0.24017 0.05942
 H869 H 0.19531 0.28458 0.03784
 H870 H 0.27638 0.27325 0.05173
 C871 C 0.73572 0.76678 0.55562
 C872 C 0.75541 0.76799 0.58098
 C873 C 0.73026 0.77330 0.59979
 C874 C 0.71052 0.77196 0.57475
 C875 C 0.73366 0.80509 0.59627
 C876 C 0.75887 0.79998 0.57712
 C877 C 0.73916 0.79864 0.55200
 C878 C 0.71399 0.80395 0.57084
 H879 H 0.73640 0.75054 0.53923
 H880 H 0.77259 0.75317 0.58521
 H881 H 0.69054 0.76032 0.57407
 H882 H 0.73275 0.82070 0.61327
 H883 H 0.77885 0.81161 0.57786
 H884 H 0.69694 0.81886 0.56640
 C885 C 0.76118 0.76687 0.44518
 C886 C 0.74068 0.76786 0.42044
 C887 C 0.76520 0.77345 0.40084
 C888 C 0.78575 0.77232 0.42524
 C889 C 0.76188 0.80522 0.40444
 C890 C 0.73732 0.79983 0.42439
 C891 C 0.75784 0.79871 0.44887
 C892 C 0.78238 0.80427 0.42922
 H893 H 0.76108 0.75065 0.46165
 H894 H 0.72343 0.75284 0.41672
 H895 H 0.80575 0.76088 0.42530
 H896 H 0.76221 0.82085 0.38741
 H897 H 0.71732 0.81127 0.42428
 H898 H 0.79954 0.81935 0.43307
 C899 C 0.28780 0.28669 -0.05571
 C900 C 0.26941 0.26270 -0.06722
 C901 C 0.27259 0.27499 -0.09650
 C902 C 0.29107 0.29878 -0.08533
 C903 C 0.24649 0.29289 -0.09262
 C904 C 0.24322 0.28085 -0.06299
 C905 C 0.26170 0.30467 -0.05177
 C906 C 0.26489 0.31692 -0.08116
 H907 H 0.30478 0.28429 -0.04029
 H908 H 0.27133 0.24023 -0.06174
 H909 H 0.31088 0.30611 -0.09457
 H910 H 0.22953 0.29526 -0.10806
 H911 H 0.22343 0.27363 -0.05361
 H912 H 0.26298 0.33917 -0.08740
 C913 C 0.75888 0.19963 -0.07555
 C914 C 0.73480 0.19314 -0.09593
 C915 C 0.72907 0.22466 -0.09841
 C916 C 0.75309 0.23134 -0.07836
 C917 C 0.70849 0.22325 -0.07418
 C918 C 0.71430 0.19153 -0.07128
 C919 C 0.73836 0.19825 -0.05123
 C920 C 0.73256 0.22982 -0.05385
 H921 H 0.77971 0.18980 -0.07585
 H922 H 0.73566 0.17818 -0.11349
 H923 H 0.76922 0.24772 -0.08127
 H924 H 0.68765 0.23308 -0.07390
 H925 H 0.69833 0.17503 -0.06810
 H926 H 0.73134 0.24543 -0.03689
 C927 C 0.23732 0.68465 0.41822
 C928 C 0.21149 0.70327 0.41369
 C929 C 0.23029 0.72619 0.40142
 C930 C 0.25605 0.70780 0.40563
 C931 C 0.23434 0.73943 0.43018
 C932 C 0.21562 0.71633 0.44277
 C933 C 0.24137 0.69788 0.44707
 C934 C 0.26017 0.72082 0.43475
 H935 H 0.23852 0.66213 0.41283
 H936 H 0.19134 0.69607 0.40498
 H937 H 0.27264 0.70449 0.39008
 H938 H 0.23304 0.76213 0.43484
 H939 H 0.19900 0.71969 0.45828
 H940 H 0.28029 0.72788 0.44364
 C941 C 0.24217 0.69993 0.57495
 C942 C 0.26798 0.69655 0.59384
 C943 C 0.26984 0.72855 0.59654
 C944 C 0.24409 0.73215 0.57800
 C945 C 0.28901 0.73027 0.57120
 C946 C 0.28708 0.69808 0.56815
 C947 C 0.26133 0.70163 0.54954
 C948 C 0.26320 0.73370 0.55230
 H949 H 0.22282 0.68730 0.57624
 H950 H 0.26998 0.68142 0.61120
 H951 H 0.22633 0.74623 0.58221
 H952 H 0.30836 0.74290 0.56995
 H953 H 0.30478 0.68396 0.56386
 H954 H 0.26138 0.74942 0.53546
 C955 C 0.76228 0.22984 0.05510
 C956 C 0.74255 0.22828 0.08030
 C957 C 0.76775 0.22340 0.09931
 C958 C 0.78753 0.22509 0.07444
 C959 C 0.76492 0.19155 0.09580
 C960 C 0.73967 0.19623 0.07644
 C961 C 0.75941 0.19792 0.05148
 C962 C 0.78463 0.19305 0.07054
 H963 H 0.76140 0.24610 0.03869
 H964 H 0.72514 0.24281 0.08440
 H965 H 0.80730 0.23709 0.07390
 H966 H 0.76606 0.17595 0.11283
 H967 H 0.71990 0.18423 0.07701
 H968 H 0.80195 0.17846 0.06627
 C969 C 0.46312 0.31812 0.55576
 C970 C 0.48357 0.34324 0.55567
 C971 C 0.47991 0.34568 0.52409
 C972 C 0.45940 0.32096 0.52398
 C973 C 0.50441 0.32578 0.51927
 C974 C 0.50812 0.32300 0.55105
 C975 C 0.48766 0.29819 0.55095
 C976 C 0.48396 0.30073 0.51930
 H977 H 0.44613 0.31473 0.57090
 H978 H 0.48335 0.36099 0.57048
 H979 H 0.43928 0.32040 0.51271
 H980 H 0.52151 0.32900 0.50422
 H981 H 0.52824 0.32362 0.56232
 H982 H 0.48391 0.28353 0.50388
 C983 C 0.00771 0.81221 0.02820
 C984 C -0.01850 0.81733 0.01025
 C985 C -0.02039 0.84709 0.02215
 C986 C 0.00574 0.84233 0.03984
 C987 C -0.03901 0.83669 0.04589
 C988 C -0.03704 0.80662 0.03419
 C989 C -0.01093 0.80179 0.05197
 C990 C -0.01282 0.83164 0.06381
 H991 H 0.02703 0.80194 0.02107
 H992 H -0.02088 0.81169 -0.01194
 H993 H 0.02332 0.85728 0.04195
 H994 H -0.05838 0.84678 0.05314
 H995 H -0.05463 0.79168 0.03203
 H996 H -0.01042 0.83804 0.08579
 C997 C -0.01053 0.68756 0.02878
 C998 C 0.01587 0.68305 0.01114
 C999 C 0.01848 0.65341 0.02326
 C1000 C -0.00783 0.65756 0.04065
 C1001 C 0.03675 0.66439 0.04711
 C1002 C 0.03405 0.69434 0.03519
 C1003 C 0.00775 0.69857 0.05266
 C1004 C 0.01036 0.66885 0.06474
 H1005 H -0.03008 0.69730 0.02140
 H1006 H 0.01820 0.68861 -0.01107
 H1007 H -0.02502 0.64216 0.04269
 H1008 H 0.05633 0.65483 0.05465
 H1009 H 0.05127 0.70970 0.03310
 H1010 H 0.00807 0.66252 0.08675
 C1011 C 0.49139 0.18387 0.52933
 C1012 C 0.51795 0.17953 0.51192
 C1013 C 0.52081 0.15002 0.52428
 C1014 C 0.49434 0.15405 0.54148
 C1015 C 0.53882 0.16135 0.54815
 C1016 C 0.53586 0.19121 0.53598
 C1017 C 0.50938 0.19530 0.55324
 C1018 C 0.51226 0.16571 0.56559
 H1019 H 0.47178 0.19331 0.52172
 H1020 H 0.52036 0.18496 0.48968
 H1021 H 0.47730 0.13848 0.54354
 H1022 H 0.55845 0.15195 0.55576
 H1023 H 0.55291 0.20676 0.53387
 H1024 H 0.50985 0.15962 0.58765
 C1025 C -0.01491 0.16854 0.43265
 C1026 C 0.00374 0.15696 0.45620
 C1027 C -0.02224 0.15204 0.47396
 C1028 C -0.04098 0.16328 0.45065
 C1029 C -0.01956 0.18144 0.48661
 C1030 C 0.00650 0.18669 0.46864
 C1031 C -0.01222 0.19801 0.44530
 C1032 C -0.03820 0.19302 0.46312
 H1033 H -0.01298 0.16285 0.41045
 H1034 H 0.02097 0.14186 0.45355
 H1035 H -0.06063 0.15355 0.44332
 H1036 H -0.02152 0.18650 0.50897
 H1037 H 0.02613 0.19653 0.47590
 H1038 H -0.05545 0.20809 0.46582
 C1039 C 0.48714 0.69719 0.98319
 C1040 C 0.46328 0.67597 0.97805
 C1041 C 0.48454 0.65210 0.97827
 C1042 C 0.50836 0.67296 0.98357
 C1043 C 0.48847 0.65476 0.94676
 C1044 C 0.46726 0.67899 0.94636
 C1045 C 0.49110 0.69991 0.95161
 C1046 C 0.51233 0.67596 0.95184
 H1047 H 0.48640 0.71442 0.99856
 H1048 H 0.44303 0.67569 0.98896
 H1049 H 0.52534 0.67034 0.99894
 H1050 H 0.48898 0.63703 0.93193
 H1051 H 0.45034 0.68170 0.93093
 H1052 H 0.53258 0.67618 0.94093
 C1053 C 0.50995 0.83343 0.93572
 C1054 C 0.49224 0.84462 0.96001
 C1055 C 0.51898 0.85009 0.97664
 C1056 C 0.53676 0.83921 0.95258
 C1057 C 0.51748 0.82066 0.98945
 C1058 C 0.49066 0.81486 0.97260
 C1059 C 0.50844 0.80391 0.94852
 C1060 C 0.53517 0.80944 0.96521
 H1061 H 0.50677 0.83913 0.91364
 H1062 H 0.47462 0.85939 0.95806
 H1063 H 0.55585 0.84933 0.94443
 H1064 H 0.52065 0.81566 1.01171
 H1065 H 0.47159 0.80465 0.98070
 H1066 H 0.55282 0.79470 0.96720
 C1067 C -0.00934 0.32754 0.44714
 C1068 C -0.00773 0.33023 0.47910
 C1069 C 0.01873 0.34806 0.47604
 C1070 C 0.01719 0.34573 0.44429
 C1071 C 0.03693 0.32179 0.47770
 C1072 C 0.01041 0.30364 0.48062
 C1073 C 0.00883 0.30119 0.44880
 C1074 C 0.03531 0.31909 0.44576
 H1075 H -0.02847 0.32966 0.43444
 H1076 H -0.02552 0.33491 0.49286
 H1077 H 0.02003 0.36332 0.42951
 H1078 H 0.05606 0.31971 0.49041
 H1079 H 0.00776 0.28666 0.49609
 H1080 H 0.05301 0.31425 0.43192
 C1081 C 0.30787 0.53062 0.46651
 C1082 C 0.33726 0.54316 0.46239
 C1083 C 0.34913 0.52030 0.48142
 C1084 C 0.32007 0.50754 0.48546
 C1085 C 0.34534 0.53910 0.50694
 C1086 C 0.33321 0.56217 0.48796
 C1087 C 0.30403 0.54951 0.49201
 C1088 C 0.31591 0.52661 0.51106
 H1089 H 0.29223 0.52729 0.44988
 H1090 H 0.34602 0.54996 0.44221
 H1091 H 0.31493 0.48491 0.48437
 H1092 H 0.36100 0.54240 0.52356
 H1093 H 0.33927 0.58457 0.48898
 H1094 H 0.30691 0.51997 0.53119
 C1095 C 0.82691 0.04822 0.00883
 C1096 C 0.83012 0.01649 0.00328
 C1097 C 0.85010 0.02329 -0.02062
 C1098 C 0.84724 0.05482 -0.01513
 C1099 C 0.82584 0.02405 -0.04135
 C1100 C 0.80555 0.01738 -0.01740
 C1101 C 0.80256 0.04897 -0.01186
 C1102 C 0.82257 0.05577 -0.03579
 H1103 H 0.82710 0.05829 0.02955
 H1104 H 0.83328 0.00029 0.01947
 H1105 H 0.86467 0.07007 -0.01425
 H1106 H 0.82568 0.01400 -0.06208
 H1107 H 0.78871 0.00151 -0.01863
 H1108 H 0.81922 0.07205 -0.05187
 C1109 C 0.67423 0.04969 -0.00911
 C1110 C 0.67039 0.01760 -0.00665
 C1111 C 0.65240 0.02208 0.01922
 C1112 C 0.65589 0.05398 0.01681
 C1113 C 0.67807 0.02020 0.03810
 C1114 C 0.69641 0.01587 0.01217
 C1115 C 0.69999 0.04783 0.00972
 C1116 C 0.68194 0.05229 0.03561
 H1117 H 0.67289 0.06196 -0.02862
 H1118 H 0.66554 0.00327 -0.02411
 H1119 H 0.63895 0.06950 0.01878
 H1120 H 0.67937 0.00794 0.05761
 H1121 H 0.71278 -0.00028 0.01042
 H1122 H 0.68694 0.06668 0.05299
 C1123 C 0.19793 0.53083 0.53896
 C1124 C 0.16845 0.54304 0.54258
 C1125 C 0.15685 0.51966 0.52391
 C1126 C 0.18601 0.50724 0.52038
 C1127 C 0.16076 0.53802 0.49805
 C1128 C 0.17263 0.56162 0.51665
 C1129 C 0.20190 0.54928 0.51311
 C1130 C 0.19028 0.52586 0.49443
 H1131 H 0.21345 0.52804 0.55579
 H1132 H 0.15946 0.55008 0.56252
 H1133 H 0.19125 0.48471 0.52198
 H1134 H 0.14521 0.54078 0.48125
 H1135 H 0.16652 0.58392 0.51515
 H1136 H 0.19948 0.51897 0.47452
 C1137 C 0.18153 0.44977 -0.03482
 C1138 C 0.15627 0.44882 -0.01508
 C1139 C 0.15302 0.48061 -0.01851
 C1140 C 0.17791 0.48173 -0.03831
 C1141 C 0.17212 0.48600 0.00653
 C1142 C 0.17574 0.45398 0.01002
 C1143 C 0.20071 0.45511 -0.00978
 C1144 C 0.19736 0.48697 -0.01322
 H1145 H 0.18565 0.43475 -0.05185
 H1146 H 0.13909 0.43328 -0.01591
 H1147 H 0.17851 0.49327 -0.05828
 H1148 H 0.16811 0.50095 0.02363
 H1149 H 0.17511 0.44244 0.02998
 H1150 H 0.21395 0.50313 -0.01264
 C1151 C 0.68460 0.97008 0.50806
 C1152 C 0.68069 0.98945 0.48261
 C1153 C 0.65179 0.97657 0.47782
 C1154 C 0.65535 0.95742 0.50318
 C1155 C 0.66407 0.95407 0.45875
 C1156 C 0.69330 0.96676 0.46363
 C1157 C 0.69692 0.94754 0.48898
 C1158 C 0.66792 0.93470 0.48418
 H1159 H 0.69326 0.97649 0.52844
 H1160 H 0.68569 1.01214 0.48190
 H1161 H 0.63947 0.95379 0.51943
 H1162 H 0.65558 0.94753 0.43833
 H1163 H 0.70916 0.97043 0.44736
 H1164 H 0.66215 0.91221 0.48480
 C1165 C 0.81805 0.94511 0.53643
 C1166 C 0.84360 0.94455 0.51703
 C1167 C 0.84630 0.97647 0.51999
 C1168 C 0.82114 0.97722 0.53946
 C1169 C 0.82743 0.98099 0.49463
 C1170 C 0.82438 0.94886 0.49161
 C1171 C 0.79913 0.94962 0.51104
 C1172 C 0.80194 0.98161 0.51404
 H1173 H 0.81394 0.93023 0.55363
 H1174 H 0.86102 0.92947 0.51832
 H1175 H 0.82008 0.98902 0.55923
 H1176 H 0.83137 0.99579 0.47732
 H1177 H 0.82548 0.93707 0.47184
 H1178 H 0.78511 0.99734 0.51300
 C1179 C 0.32307 0.44895 0.03354
 C1180 C 0.34835 0.44714 0.01392
 C1181 C 0.35257 0.47891 0.01681
 C1182 C 0.32766 0.48088 0.03650
 C1183 C 0.33374 0.48430 -0.00840
 C1184 C 0.32915 0.45234 -0.01134
 C1185 C 0.30416 0.45430 0.00832
 C1186 C 0.30846 0.48614 0.01124
 H1187 H 0.31843 0.43429 0.05080
 H1188 H 0.36504 0.43124 0.01508
 H1189 H 0.32733 0.49275 0.05626
 H1190 H 0.33828 0.49891 -0.02571
 H1191 H 0.32952 0.44046 -0.03110
 H1192 H 0.29235 0.50262 0.01028
 C1193 C 0.55182 0.50950 0.32797
 C1194 C 0.52005 0.50568 0.33127
 C1195 C 0.52532 0.48077 0.35075
 C1196 C 0.55688 0.48454 0.34781
 C1197 C 0.52468 0.46038 0.32616
 C1198 C 0.51954 0.48534 0.30635
 C1199 C 0.55117 0.48915 0.30329
 C1200 C 0.55643 0.46421 0.32282
 H1201 H 0.56310 0.52980 0.32848
 H1202 H 0.50505 0.52285 0.33482
 H1203 H 0.57209 0.48416 0.36514
 H1204 H 0.51340 0.44008 0.32569
 H1205 H 0.50368 0.48545 0.28963
 H1206 H 0.57151 0.44714 0.31911
 C1207 C 0.05298 -0.03598 0.81698
 C1208 C 0.05509 -0.01713 0.84298
 C1209 C 0.02335 -0.01844 0.84587
 C1210 C 0.02104 -0.03735 0.82022
 C1211 C 0.02010 0.00785 0.82778
 C1212 C 0.05206 0.00922 0.82454
 C1213 C 0.04977 -0.00968 0.79881
 C1214 C 0.01796 -0.01101 0.80178
 H1215 H 0.06661 -0.05402 0.81230
 H1216 H 0.07019 -0.01970 0.86021
 H1217 H 0.00814 -0.05660 0.81873
 H1218 H 0.00652 0.02595 0.83237
 H1219 H 0.06495 0.02847 0.82608
 H1220 H 0.00223 -0.00860 0.78511
 C1221 C 0.03494 0.03638 0.69164
 C1222 C 0.04742 0.03945 0.66225
 C1223 C 0.02396 0.02079 0.65081
 C1224 C 0.01131 0.01781 0.67988
 C1225 C 0.04161 -0.00553 0.65534
 C1226 C 0.06530 0.01305 0.66711
 C1227 C 0.05265 0.01007 0.69626
 C1228 C 0.02917 -0.00859 0.68475
 H1229 H 0.03232 0.05361 0.70682
 H1230 H 0.05488 0.05934 0.65293
 H1231 H -0.01107 0.01983 0.68489
 H1232 H 0.04417 -0.02274 0.64014
 H1233 H 0.08751 0.01106 0.66144
 H1234 H 0.02180 -0.02845 0.69420
 C1235 C 0.55306 0.48802 0.17552
 C1236 C 0.52136 0.49149 0.17143
 C1237 C 0.52694 0.51649 0.15212
 C1238 C 0.55845 0.51308 0.15586
 C1239 C 0.52580 0.53684 0.17672
 C1240 C 0.52034 0.51179 0.19637
 C1241 C 0.55192 0.50834 0.20021
 C1242 C 0.55748 0.53336 0.18085
 H1243 H 0.56439 0.46786 0.17527
 H1244 H 0.50645 0.47417 0.16746
 H1245 H 0.57398 0.51366 0.13892
 H1246 H 0.51446 0.55701 0.17694
 H1247 H 0.50418 0.51146 0.21270
 H1248 H 0.57245 0.55059 0.18498
 C1249 C 0.46574 -0.03427 0.19378
 C1250 C 0.45359 -0.03737 0.16419
 C1251 C 0.47706 -0.01857 0.15312
 C1252 C 0.48941 -0.01555 0.18239
 C1253 C 0.45922 0.00764 0.15733
 C1254 C 0.43553 -0.01110 0.16866
 C1255 C 0.44780 -0.00808 0.19804
 C1256 C 0.47131 0.01074 0.18696
 H1257 H 0.46827 -0.05151 0.20901
 H1258 H 0.44632 -0.05731 0.15481
 H1259 H 0.51175 -0.01744 0.18776
 H1260 H 0.45673 0.02486 0.14208
 H1261 H 0.41344 -0.00924 0.16240
 H1262 H 0.47843 0.03063 0.19655
 C1263 C 0.93605 0.48920 0.66750
 C1264 C 0.96120 0.50646 0.65696
 C1265 C 0.97685 0.47909 0.65146
 C1266 C 0.95194 0.46174 0.66167
 C1267 C 0.98936 0.47967 0.68081
 C1268 C 0.97349 0.50712 0.68663
 C1269 C 0.94856 0.48978 0.69692
 C1270 C 0.96427 0.46242 0.69136
 H1271 H 0.91413 0.49323 0.66167
 H1272 H 0.96014 0.52453 0.64253
 H1273 H 0.94316 0.44296 0.65128
 H1274 H 1.01144 0.47569 0.68605
 H1275 H 0.98223 0.52589 0.69708
 H1276 H 0.96539 0.44433 0.70577
 C1277 C 0.98329 0.51341 0.80204
 C1278 C 0.97896 0.53909 0.82106
 C1279 C 0.97818 0.51950 0.84632
 C1280 C 0.98267 0.49387 0.82764
 C1281 C 0.94652 0.51636 0.84367
 C1282 C 0.94711 0.53589 0.81805
 C1283 C 0.95156 0.51024 0.79931
 C1284 C 0.95078 0.49067 0.82464
 H1285 H 0.99885 0.51237 0.78517
 H1286 H 0.99069 0.55910 0.81987
 H1287 H 0.99734 0.47650 0.83171
 H1288 H 0.93154 0.51762 0.86105
 H1289 H 0.93238 0.55318 0.81385
 H1290 H 0.93906 0.47067 0.82584
 C1291 C 0.43513 0.01441 0.32960
 C1292 C 0.45889 -0.00417 0.34085
 C1293 C 0.47662 0.02221 0.34553
 C1294 C 0.45310 0.04086 0.33456
 C1295 C 0.48900 0.01974 0.31631
 C1296 C 0.47101 -0.00672 0.31128
 C1297 C 0.44745 0.01194 0.30027
 C1298 C 0.46527 0.03831 0.30500
 H1299 H 0.41303 0.01218 0.33564
 H1300 H 0.45646 -0.02161 0.35588
 H1301 H 0.44579 0.06056 0.34420
 H1302 H 0.51133 0.02201 0.31113
 H1303 H 0.47823 -0.02639 0.30150
 H1304 H 0.46774 0.05578 0.29001
   
