data_POSCAR
  _audit_creation_date              2014-09-24
  _audit_creation_method            'ToBaCCo'
  _symmetry_space_group_name_H-M    'P1'
  _symmetry_Int_Tables_number       1
  _symmetry_cell_setting            triclinic
  loop_
  _symmetry_equiv_pos_as_xyz
 x,y,z
_cell_length_a 86.0634
_cell_length_b 86.0714
_cell_length_c 86.1113
_cell_angle_alpha 89.975700
_cell_angle_beta 89.990600
_cell_angle_gamma 89.999400
loop_
  _atom_site_label
  _atom_site_type_symbol
  _atom_site_fract_x
  _atom_site_fract_y
  _atom_site_fract_z
C1 C 0.19585 0.21742 0.21313
 C2 C 0.20453 0.22179 0.20005
 C3 C 0.21742 0.21323 0.19575
 C4 C 0.22180 0.20017 0.20444
 C5 C 0.21324 0.19585 0.21732
 C6 C 0.20019 0.20456 0.22172
 C7 C 0.18279 0.22354 0.22001
 N8 N 0.17908 0.21472 0.23259
 C9 C 0.18970 0.20308 0.23369
 C10 C 0.22012 0.18279 0.22345
 N11 N 0.23269 0.17906 0.21462
 C12 C 0.23377 0.18968 0.20296
 C13 C 0.22355 0.22012 0.18269
 N14 N 0.21468 0.23265 0.17893
 C15 C 0.20300 0.23372 0.18953
 H16 H 0.17658 0.23380 0.21622
 H17 H 0.18971 0.19402 0.24241
 H18 H 0.21636 0.17660 0.23373
 H19 H 0.24249 0.18967 0.19390
 H20 H 0.23360 0.21613 0.17628
 H21 H 0.19415 0.24264 0.18973
 C22 C 0.69577 0.71745 0.71321
 C23 C 0.70446 0.72182 0.70013
 C24 C 0.71732 0.71323 0.69581
 C25 C 0.72171 0.70018 0.70451
 C26 C 0.71313 0.69586 0.71738
 C27 C 0.70006 0.70455 0.72176
 C28 C 0.68273 0.72360 0.72010
 N29 N 0.67897 0.71474 0.73264
 C30 C 0.68955 0.70305 0.73370
 C31 C 0.72000 0.68278 0.72350
 N32 N 0.73256 0.67905 0.71467
 C33 C 0.73367 0.68968 0.70303
 C34 C 0.72345 0.72011 0.68275
 N35 N 0.71463 0.73269 0.67903
 C36 C 0.70298 0.73379 0.68965
 H37 H 0.67633 0.73367 0.71612
 H38 H 0.68975 0.69420 0.74262
 H39 H 0.71621 0.67658 0.73376
 H40 H 0.74239 0.68967 0.69397
 H41 H 0.73371 0.71633 0.67655
 H42 H 0.69393 0.74253 0.68965
 C43 C 0.30390 0.78263 0.71323
 C44 C 0.29523 0.77829 0.70015
 C45 C 0.28236 0.78687 0.69585
 C46 C 0.27800 0.79994 0.70455
 C47 C 0.28653 0.80423 0.71738
 C48 C 0.29957 0.79550 0.72180
 C49 C 0.31695 0.77649 0.72012
 N50 N 0.32066 0.78530 0.73269
 C51 C 0.31005 0.79696 0.73378
 C52 C 0.27967 0.81728 0.72350
 N53 N 0.26702 0.82118 0.71472
 C54 C 0.26606 0.81045 0.70307
 C55 C 0.27621 0.78000 0.68280
 N56 N 0.28506 0.76746 0.67904
 C57 C 0.29673 0.76636 0.68963
 H58 H 0.32315 0.76622 0.71634
 H59 H 0.31005 0.80601 0.74250
 H60 H 0.28373 0.82320 0.73378
 H61 H 0.25751 0.81014 0.69390
 H62 H 0.26617 0.78402 0.67639
 H63 H 0.30557 0.75741 0.68983
 C64 C 0.80421 0.28258 0.21330
 C65 C 0.79555 0.27820 0.20021
 C66 C 0.78265 0.28674 0.19589
 C67 C 0.77825 0.29980 0.20458
 C68 C 0.78683 0.30412 0.21744
 C69 C 0.79990 0.29542 0.22182
 C70 C 0.81725 0.27646 0.22019
 N71 N 0.82113 0.28525 0.23282
 C72 C 0.81040 0.29692 0.23375
 C73 C 0.77995 0.31718 0.22356
 N74 N 0.76737 0.32090 0.21474
 C75 C 0.76628 0.31028 0.20309
 C76 C 0.77652 0.27983 0.18286
 N77 N 0.78540 0.26730 0.17912
 C78 C 0.79708 0.26625 0.18972
 H79 H 0.82339 0.26637 0.21595
 H80 H 0.80989 0.30592 0.24248
 H81 H 0.78372 0.32338 0.23381
 H82 H 0.75755 0.31028 0.19404
 H83 H 0.76646 0.28380 0.17645
 H84 H 0.80593 0.25732 0.18994
 C85 C 0.80430 0.71753 0.28655
 C86 C 0.79563 0.72192 0.29963
 C87 C 0.78276 0.71336 0.30398
 C88 C 0.77835 0.70031 0.29529
 C89 C 0.78692 0.69599 0.28242
 C90 C 0.80000 0.70469 0.27804
 C91 C 0.81733 0.72366 0.27964
 N92 N 0.82122 0.71486 0.26702
 C93 C 0.81049 0.70318 0.26610
 C94 C 0.78004 0.68293 0.27630
 N95 N 0.76747 0.67921 0.28513
 C96 C 0.76638 0.68982 0.29678
 C97 C 0.77665 0.72024 0.31704
 N98 N 0.78549 0.73280 0.32074
 C99 C 0.79713 0.73389 0.31011
 H100 H 0.82347 0.73375 0.28388
 H101 H 0.80998 0.69419 0.25738
 H102 H 0.78382 0.67673 0.26604
 H103 H 0.75766 0.68982 0.30584
 H104 H 0.76638 0.71648 0.32325
 H105 H 0.80619 0.74261 0.31009
 C106 C 0.30428 0.21747 -0.21336
 C107 C 0.29556 0.22189 -0.20032
 C108 C 0.28267 0.21333 -0.19602
 C109 C 0.27831 0.20026 -0.20471
 C110 C 0.28688 0.19595 -0.21752
 C111 C 0.29999 0.20462 -0.22187
 C112 C 0.31735 0.22357 -0.22023
 N113 N 0.32126 0.21475 -0.23284
 C114 C 0.31052 0.20309 -0.23377
 C115 C 0.28000 0.18291 -0.22364
 N116 N 0.26733 0.17902 -0.21488
 C117 C 0.26636 0.18976 -0.20323
 C118 C 0.27652 0.22022 -0.18298
 N119 N 0.28535 0.23279 -0.17926
 C120 C 0.29703 0.23387 -0.18985
 H121 H 0.32344 0.23369 -0.21601
 H122 H 0.31004 0.19406 -0.24246
 H123 H 0.28427 0.17678 -0.23372
 H124 H 0.25763 0.19027 -0.19424
 H125 H 0.26624 0.21645 -0.17680
 H126 H 0.30609 0.24258 -0.18984
 C127 C 0.69595 0.28252 -0.21324
 C128 C 0.70463 0.27814 -0.20016
 C129 C 0.71750 0.28672 -0.19585
 C130 C 0.72185 0.29980 -0.20454
 C131 C 0.71331 0.30409 -0.21737
 C132 C 0.70026 0.29536 -0.22177
 C133 C 0.68292 0.27639 -0.22013
 N134 N 0.67904 0.28517 -0.23278
 C135 C 0.68978 0.29684 -0.23372
 C136 C 0.72017 0.31715 -0.22349
 N137 N 0.73282 0.32105 -0.21471
 C138 C 0.73378 0.31031 -0.20305
 C139 C 0.72365 0.27983 -0.18280
 N140 N 0.71481 0.26727 -0.17906
 C141 C 0.70313 0.26619 -0.18966
 H142 H 0.67695 0.26614 -0.21602
 H143 H 0.69014 0.30599 -0.24229
 H144 H 0.71606 0.32311 -0.23373
 H145 H 0.74236 0.30995 -0.19392
 H146 H 0.73369 0.28383 -0.17640
 H147 H 0.69430 0.25724 -0.18987
 C148 C 0.19589 0.78252 0.28643
 C149 C 0.20454 0.77815 0.29952
 C150 C 0.21739 0.78675 0.30386
 C151 C 0.22179 0.79981 0.29515
 C152 C 0.21327 0.80411 0.28230
 C153 C 0.20021 0.79541 0.27789
 C154 C 0.18287 0.77636 0.27950
 N155 N 0.17915 0.78522 0.26696
 C156 C 0.18973 0.79691 0.26592
 C157 C 0.22015 0.81717 0.27620
 N158 N 0.23279 0.82105 0.28500
 C159 C 0.23373 0.81031 0.29665
 C160 C 0.22349 0.77989 0.31694
 N161 N 0.21467 0.76731 0.32065
 C162 C 0.20305 0.76619 0.31001
 H163 H 0.17646 0.76630 0.28347
 H164 H 0.18995 0.80577 0.25699
 H165 H 0.21610 0.82312 0.26593
 H166 H 0.24226 0.80999 0.30585
 H167 H 0.23374 0.78368 0.32315
 H168 H 0.19401 0.75745 0.30999
 C169 C 0.46739 0.44586 0.46348
 C170 C 0.47177 0.45454 0.45041
 C171 C 0.46318 0.46741 0.44607
 C172 C 0.45012 0.47180 0.45477
 C173 C 0.44579 0.46322 0.46763
 C174 C 0.45448 0.45015 0.47202
 C175 C 0.47353 0.43282 0.47038
 N176 N 0.46466 0.42906 0.48291
 C177 C 0.45297 0.43964 0.48396
 C178 C 0.43271 0.47009 0.47374
 N179 N 0.42899 0.48265 0.46490
 C180 C 0.43962 0.48376 0.45327
 C181 C 0.47006 0.47353 0.43301
 N182 N 0.48264 0.46471 0.42930
 C183 C 0.48374 0.45307 0.43993
 H184 H 0.48360 0.42642 0.46641
 H185 H 0.44411 0.43984 0.49288
 H186 H 0.42650 0.46630 0.48399
 H187 H 0.43961 0.49247 0.44420
 H188 H 0.46628 0.48380 0.42681
 H189 H 0.49247 0.44402 0.43994
 C190 C -0.03246 -0.05425 0.96335
 C191 C -0.02802 -0.04553 0.95031
 C192 C -0.03657 -0.03264 0.94600
 C193 C -0.04964 -0.02826 0.95469
 C194 C -0.05396 -0.03682 0.96751
 C195 C -0.04531 -0.04994 0.97185
 C196 C -0.02637 -0.06731 0.97022
 N197 N -0.03520 -0.07122 0.98283
 C198 C -0.04685 -0.06047 0.98377
 C199 C -0.06699 -0.02993 0.97364
 N200 N -0.07087 -0.01726 0.96487
 C201 C -0.06013 -0.01631 0.95321
 C202 C -0.02967 -0.02650 0.93296
 N203 N -0.01711 -0.03534 0.92924
 C204 C -0.01604 -0.04701 0.93983
 H205 H -0.01627 -0.07344 0.96598
 H206 H -0.05586 -0.05996 0.99248
 H207 H -0.07315 -0.03420 0.98370
 H208 H -0.05960 -0.00755 0.94424
 H209 H -0.03342 -0.01621 0.92678
 H210 H -0.00734 -0.05608 0.93983
 C211 C 1.03251 0.55408 0.96339
 C212 C 1.02814 0.54541 0.95030
 C213 C 1.03669 0.53252 0.94601
 C214 C 1.04976 0.52816 0.95471
 C215 C 1.05405 0.53669 0.96754
 C216 C 1.04535 0.54977 0.97191
 C217 C 1.02638 0.56711 0.97027
 N218 N 1.03517 0.57100 0.98292
 C219 C 1.04684 0.56026 0.98385
 C220 C 1.06709 0.52981 0.97366
 N221 N 1.07099 0.51716 0.96489
 C222 C 1.06026 0.51621 0.95323
 C223 C 1.02980 0.52638 0.93297
 N224 N 1.01726 0.53524 0.92922
 C225 C 1.01619 0.54692 0.93980
 H226 H 1.01627 0.57322 0.96604
 H227 H 1.05585 0.55976 0.99256
 H228 H 1.07310 0.53398 0.98385
 H229 H 1.05984 0.50759 0.94414
 H230 H 1.03379 0.51632 0.92657
 H231 H 1.00725 0.55576 0.94000
 C232 C 0.53263 0.05407 0.46337
 C233 C 0.52826 0.04540 0.45030
 C234 C 0.53684 0.03252 0.44598
 C235 C 0.54993 0.02816 0.45466
 C236 C 0.55423 0.03669 0.46749
 C237 C 0.54551 0.04973 0.47192
 C238 C 0.52650 0.06711 0.47027
 N239 N 0.53534 0.07081 0.48283
 C240 C 0.54700 0.06020 0.48390
 C241 C 0.56729 0.02982 0.47359
 N242 N 0.57118 0.01718 0.46480
 C243 C 0.56043 0.01623 0.45316
 C244 C 0.52994 0.02638 0.43294
 N245 N 0.51739 0.03522 0.42921
 C246 C 0.51631 0.04689 0.43980
 H247 H 0.51623 0.07331 0.46650
 H248 H 0.55607 0.06020 0.49260
 H249 H 0.57325 0.03390 0.48384
 H250 H 0.56008 0.00767 0.44400
 H251 H 0.53394 0.01634 0.42654
 H252 H 0.50736 0.05572 0.44002
 C253 C -0.03256 0.05435 0.53700
 C254 C -0.02818 0.04566 0.55007
 C255 C -0.03676 0.03278 0.55439
 C256 C -0.04980 0.02838 0.54568
 C257 C -0.05413 0.03696 0.53282
 C258 C -0.04545 0.05004 0.52845
 C259 C -0.02642 0.06740 0.53010
 N260 N -0.03529 0.07115 0.51757
 C261 C -0.04696 0.06056 0.51651
 C262 C -0.06719 0.03008 0.52670
 N263 N -0.07091 0.01750 0.53552
 C264 C -0.06029 0.01640 0.54716
 C265 C -0.02987 0.02665 0.56744
 N266 N -0.01731 0.03548 0.57116
 C267 C -0.01621 0.04714 0.56055
 H268 H -0.01636 0.07381 0.53408
 H269 H -0.05581 0.06035 0.50758
 H270 H -0.07339 0.03387 0.51644
 H271 H -0.06029 0.00768 0.55621
 H272 H -0.03364 0.01637 0.57363
 H273 H -0.00749 0.05620 0.56055
 C274 C 0.46739 0.55435 0.03677
 C275 C 0.47176 0.54567 0.04986
 C276 C 0.46319 0.53279 0.05418
 C277 C 0.45016 0.52839 0.04546
 C278 C 0.44585 0.53697 0.03259
 C279 C 0.45455 0.55005 0.02824
 C280 C 0.47352 0.56739 0.02989
 N281 N 0.46474 0.57129 0.01725
 C282 C 0.45306 0.56056 0.01630
 C283 C 0.43280 0.53009 0.02644
 N284 N 0.42907 0.51752 0.03525
 C285 C 0.43967 0.51641 0.04692
 C286 C 0.47005 0.52667 0.06725
 N287 N 0.48261 0.53551 0.07098
 C288 C 0.48371 0.54716 0.06036
 H289 H 0.48360 0.57352 0.03415
 H290 H 0.44408 0.56005 0.00756
 H291 H 0.42662 0.53388 0.01617
 H292 H 0.43965 0.50769 0.05597
 H293 H 0.46628 0.51640 0.07344
 H294 H 0.49243 0.55622 0.06036
 C295 C 0.53265 -0.05416 0.03684
 C296 C 0.52829 -0.04549 0.04992
 C297 C 0.53685 -0.03261 0.05424
 C298 C 0.54994 -0.02824 0.04556
 C299 C 0.55422 -0.03676 0.03265
 C300 C 0.54551 -0.04981 0.02825
 C301 C 0.52652 -0.06721 0.02996
 N302 N 0.53533 -0.07090 0.01737
 C303 C 0.54698 -0.06028 0.01627
 C304 C 0.56726 -0.02986 0.02650
 N305 N 0.57103 -0.01734 0.03538
 C306 C 0.56045 -0.01630 0.04707
 C307 C 0.52998 -0.02650 0.06730
 N308 N 0.51745 -0.03537 0.07105
 C309 C 0.51636 -0.04702 0.06045
 H310 H 0.51626 -0.07341 0.03375
 H311 H 0.55602 -0.06026 0.00754
 H312 H 0.57365 -0.03382 0.01643
 H313 H 0.56026 -0.00738 0.05593
 H314 H 0.53399 -0.01646 0.07372
 H315 H 0.50743 -0.05587 0.06024
 C316 C 1.03247 0.44605 0.53667
 C317 C 1.02810 0.45471 0.54975
 C318 C 1.03670 0.46757 0.55408
 C319 C 1.04974 0.47197 0.54536
 C320 C 1.05404 0.46345 0.53252
 C321 C 1.04535 0.45038 0.52812
 C322 C 1.02632 0.43302 0.52975
 N323 N 1.03517 0.42931 0.51721
 C324 C 1.04685 0.43990 0.51615
 C325 C 1.06709 0.47034 0.52640
 N326 N 1.07097 0.48298 0.53519
 C327 C 1.06023 0.48392 0.54685
 C328 C 1.02984 0.47367 0.56716
 N329 N 1.01727 0.46484 0.57088
 C330 C 1.01615 0.45321 0.56025
 H331 H 1.01626 0.42661 0.53373
 H332 H 1.05570 0.44013 0.50722
 H333 H 1.07303 0.46628 0.51613
 H334 H 1.05992 0.49245 0.55603
 H335 H 1.03363 0.48393 0.57336
 H336 H 1.00742 0.44416 0.56025
 C337 C 0.39879 0.00706 0.22927
 H338 H 0.39944 0.01758 0.23611
 C339 C 0.40894 0.00487 0.21681
 H340 H 0.41746 0.01375 0.21419
 C341 C 0.38720 -0.01750 0.22477
 H342 H 0.37885 -0.02628 0.22801
 C343 C 0.39714 -0.02017 0.21223
 H344 H 0.39609 -0.03091 0.20576
 N345 N 0.38808 -0.00397 0.23288
 C346 C 0.35124 0.02079 0.25735
 H347 H 0.35056 0.01394 0.26786
 C348 C 0.34114 0.03329 0.25515
 H349 H 0.33262 0.03593 0.26401
 C350 C 0.36289 0.02527 0.23282
 H351 H 0.37124 0.02200 0.22405
 C352 C 0.35300 0.03784 0.23012
 H353 H 0.35408 0.04432 0.21940
 Zn354 Zn 0.37499 -0.00018 0.25015
 N355 N 0.36197 0.01714 0.24634
 C356 C 0.38713 0.01713 0.27557
 N357 N 0.38801 0.00359 0.26747
 C358 C 0.39870 -0.00745 0.27113
 C359 C 0.40881 -0.00527 0.28361
 C360 C 0.39703 0.01980 0.28813
 C361 C 0.35123 -0.02108 0.24285
 C362 C 0.34109 -0.03356 0.24500
 C363 C 0.35283 -0.03815 0.27007
 C364 C 0.36276 -0.02560 0.26743
 N365 N 0.36191 -0.01746 0.25390
 H366 H 0.37881 0.02592 0.27229
 H367 H 0.39935 -0.01798 0.26429
 H368 H 0.41731 -0.01416 0.28626
 H369 H 0.39598 0.03054 0.29459
 H370 H 0.35061 -0.01423 0.23233
 H371 H 0.33260 -0.03618 0.23611
 H372 H 0.35385 -0.04464 0.28080
 H373 H 0.37108 -0.02235 0.27623
 C374 C 0.34196 0.04203 0.24140
 C375 C 0.40817 -0.00889 0.20808
 C376 C 0.34184 -0.04231 0.25875
 C377 C 0.40803 0.00849 0.29233
 C378 C 0.10147 -0.00705 0.72925
 H379 H 0.10083 -0.01757 0.73610
 C380 C 0.09133 -0.00487 0.71680
 H381 H 0.08281 -0.01375 0.71418
 C382 C 0.11307 0.01751 0.72473
 H383 H 0.12141 0.02629 0.72797
 C384 C 0.10313 0.02018 0.71219
 H385 H 0.10418 0.03091 0.70571
 N386 N 0.11219 0.00398 0.73286
 C387 C 0.14905 -0.02076 0.75730
 H388 H 0.14974 -0.01392 0.76781
 C389 C 0.15916 -0.03325 0.75510
 H390 H 0.16769 -0.03590 0.76395
 C391 C 0.13739 -0.02523 0.73278
 H392 H 0.12903 -0.02197 0.72402
 C393 C 0.14729 -0.03781 0.73009
 H394 H 0.14619 -0.04428 0.71937
 Zn395 Zn 0.12528 0.00019 0.75012
 N396 N 0.13832 -0.01712 0.74630
 C397 C 0.11317 -0.01715 0.77555
 N398 N 0.11227 -0.00362 0.76744
 C399 C 0.10156 0.00741 0.77111
 C400 C 0.09146 0.00521 0.78360
 C401 C 0.10328 -0.01985 0.78812
 C402 C 0.14902 0.02112 0.74282
 C403 C 0.15915 0.03361 0.74498
 C404 C 0.14739 0.03817 0.77005
 C405 C 0.13748 0.02560 0.76740
 N406 N 0.13834 0.01748 0.75388
 H407 H 0.12151 -0.02593 0.77227
 H408 H 0.10089 0.01794 0.76427
 H409 H 0.08295 0.01408 0.78625
 H410 H 0.10435 -0.03058 0.79458
 H411 H 0.14966 0.01428 0.73231
 H412 H 0.16764 0.03625 0.73609
 H413 H 0.14635 0.04464 0.78078
 H414 H 0.12916 0.02234 0.77620
 C415 C 0.15833 -0.04199 0.74135
 C416 C 0.09210 0.00889 0.70805
 C417 C 0.15839 0.04235 0.75873
 C418 C 0.09226 -0.00856 0.79232
 C419 C 0.60118 0.49284 0.22920
 H420 H 0.60052 0.48232 0.23604
 C421 C 0.59105 0.49504 0.21673
 H422 H 0.58254 0.48616 0.21410
 C423 C 0.61279 0.51740 0.22470
 H424 H 0.62113 0.52618 0.22796
 C425 C 0.60287 0.52009 0.21215
 H426 H 0.60393 0.53082 0.20568
 N427 N 0.61190 0.50387 0.23282
 C428 C 0.64872 0.47912 0.25731
 H429 H 0.64940 0.48596 0.26782
 C430 C 0.65884 0.46664 0.25511
 H431 H 0.66737 0.46400 0.26398
 C432 C 0.63709 0.47464 0.23278
 H433 H 0.62875 0.47791 0.22401
 C434 C 0.64700 0.46208 0.23009
 H435 H 0.64593 0.45561 0.21937
 Zn436 Zn 0.62496 0.50007 0.25010
 N437 N 0.63800 0.48276 0.24630
 C438 C 0.61283 0.48275 0.27552
 N439 N 0.61193 0.49628 0.26741
 C440 C 0.60124 0.50732 0.27106
 C441 C 0.59112 0.50513 0.28355
 C442 C 0.60292 0.48006 0.28809
 C443 C 0.64873 0.52098 0.24282
 C444 C 0.65886 0.53346 0.24498
 C445 C 0.64709 0.53804 0.27003
 C446 C 0.63716 0.52548 0.26738
 N447 N 0.63803 0.51736 0.25386
 H448 H 0.62116 0.47396 0.27225
 H449 H 0.60058 0.51784 0.26422
 H450 H 0.58262 0.51401 0.28620
 H451 H 0.60398 0.46933 0.29456
 H452 H 0.64937 0.51414 0.23230
 H453 H 0.66736 0.53609 0.23609
 H454 H 0.64605 0.54452 0.28076
 H455 H 0.62883 0.52223 0.27618
 C456 C 0.65804 0.45790 0.24136
 C457 C 0.59184 0.50880 0.20799
 C458 C 0.65810 0.54220 0.25873
 C459 C 0.59191 0.49136 0.29228
 C460 C 0.89870 0.50711 0.72921
 H461 H 0.89935 0.51763 0.73606
 C462 C 0.90884 0.50494 0.71674
 H463 H 0.91735 0.51383 0.71411
 C464 C 0.88712 0.48255 0.72471
 H465 H 0.87878 0.47376 0.72795
 C466 C 0.89705 0.47989 0.71216
 H467 H 0.89600 0.46917 0.70568
 N468 N 0.88800 0.49607 0.73283
 C469 C 0.85115 0.52077 0.75733
 H470 H 0.85049 0.51392 0.76785
 C471 C 0.84102 0.53325 0.75513
 H472 H 0.83250 0.53588 0.76400
 C473 C 0.86277 0.52527 0.73279
 H474 H 0.87112 0.52202 0.72402
 C475 C 0.85285 0.53783 0.73010
 H476 H 0.85392 0.54431 0.71938
 Zn477 Zn 0.87492 0.49985 0.75011
 N478 N 0.86187 0.51714 0.74631
 C479 C 0.88705 0.51716 0.77553
 N480 N 0.88795 0.50363 0.76742
 C481 C 0.89866 0.49260 0.77106
 C482 C 0.90878 0.49478 0.78354
 C483 C 0.89696 0.51983 0.78809
 C484 C 0.85118 0.47891 0.74284
 C485 C 0.84105 0.46643 0.74501
 C486 C 0.85283 0.46185 0.77006
 C487 C 0.86275 0.47441 0.76740
 N488 N 0.86187 0.48254 0.75388
 H489 H 0.87872 0.52594 0.77227
 H490 H 0.89933 0.48208 0.76422
 H491 H 0.91729 0.48591 0.78618
 H492 H 0.89589 0.53056 0.79456
 H493 H 0.85054 0.48577 0.73232
 H494 H 0.83255 0.46380 0.73613
 H495 H 0.85387 0.45537 0.78079
 H496 H 0.87108 0.47767 0.77619
 C497 C 0.84182 0.54199 0.74138
 C498 C 0.90806 0.49119 0.70799
 C499 C 0.84182 0.45768 0.75876
 C500 C 0.90798 0.50854 0.79227
 C501 C 0.22898 0.39888 0.00711
 H502 H 0.23585 0.39953 0.01761
 C503 C 0.21650 0.40901 0.00496
 H504 H 0.21388 0.41751 0.01385
 C505 C 0.22445 0.38732 -0.01744
 H506 H 0.22769 0.37899 -0.02624
 C507 C 0.21188 0.39723 -0.02008
 H508 H 0.20538 0.39619 -0.03080
 N509 N 0.23260 0.38819 -0.00394
 C510 C 0.25715 0.35133 0.02071
 H511 H 0.26767 0.35069 0.01386
 C512 C 0.25496 0.34119 0.03317
 H513 H 0.26384 0.33267 0.03579
 C514 C 0.23259 0.36293 0.02521
 H515 H 0.22380 0.37128 0.02197
 C516 C 0.22991 0.35299 0.03776
 H517 H 0.21918 0.35405 0.04423
 Zn518 Zn 0.24990 0.37513 -0.00019
 N519 N 0.24612 0.36205 0.01709
 C520 C 0.27533 0.38726 0.01713
 N521 N 0.26721 0.38817 0.00361
 C522 C 0.27084 0.39890 -0.00741
 C523 C 0.28332 0.40902 -0.00521
 C524 C 0.28790 0.39717 0.01981
 C525 C 0.24265 0.35141 -0.02114
 C526 C 0.24483 0.34130 -0.03362
 C527 C 0.26988 0.35311 -0.03818
 C528 C 0.26721 0.36301 -0.02562
 N529 N 0.25368 0.36211 -0.01750
 H530 H 0.27208 0.37891 0.02590
 H531 H 0.26399 0.39957 -0.01792
 H532 H 0.28595 0.41754 -0.01408
 H533 H 0.29438 0.39609 0.03053
 H534 H 0.23212 0.35074 -0.01429
 H535 H 0.23595 0.33279 -0.03626
 H536 H 0.28062 0.35418 -0.04466
 H537 H 0.27599 0.37134 -0.02236
 C538 C 0.24120 0.34196 0.04191
 C539 C 0.20773 0.40824 -0.00878
 C540 C 0.25859 0.34210 -0.04236
 C541 C 0.29207 0.40821 0.00853
 C542 C 0.72946 0.10111 -0.00718
 H543 H 0.73627 0.10050 -0.01773
 C544 C 0.71698 0.09098 -0.00500
 H545 H 0.71411 0.08273 -0.01404
 C546 C 0.72494 0.11273 0.01734
 H547 H 0.72824 0.12101 0.02615
 C548 C 0.71236 0.10284 0.02001
 H549 H 0.70611 0.10364 0.03089
 N550 N 0.73308 0.11182 0.00383
 C551 C 0.75764 0.14861 -0.02091
 H552 H 0.76817 0.14926 -0.01409
 C553 C 0.75544 0.15874 -0.03339
 H554 H 0.76433 0.16725 -0.03604
 C555 C 0.73306 0.13704 -0.02535
 H556 H 0.72427 0.12871 -0.02208
 C557 C 0.73037 0.14695 -0.03791
 H558 H 0.71963 0.14591 -0.04436
 Zn559 Zn 0.75039 0.12487 0.00005
 N560 N 0.74660 0.13792 -0.01725
 C561 C 0.77584 0.11272 -0.01722
 N562 N 0.76769 0.11183 -0.00371
 C563 C 0.77131 0.10112 0.00733
 C564 C 0.78378 0.09098 0.00516
 C565 C 0.78842 0.10281 -0.01986
 C566 C 0.74310 0.14863 0.02095
 C567 C 0.74527 0.15876 0.03343
 C568 C 0.77032 0.14697 0.03802
 C569 C 0.76767 0.13705 0.02547
 N570 N 0.75415 0.13793 0.01733
 H571 H 0.77255 0.12100 -0.02604
 H572 H 0.76450 0.10051 0.01787
 H573 H 0.78664 0.08273 0.01421
 H574 H 0.79467 0.10361 -0.03075
 H575 H 0.73259 0.14928 0.01410
 H576 H 0.73637 0.16726 0.03604
 H577 H 0.78104 0.14591 0.04451
 H578 H 0.77646 0.12872 0.02223
 C579 C 0.74167 0.15797 -0.04210
 C580 C 0.70820 0.09180 0.00873
 C581 C 0.75901 0.15798 0.04218
 C582 C 0.79256 0.09178 -0.00858
 C583 C 0.22884 0.60131 0.49275
 H584 H 0.23570 0.60065 0.48224
 C585 C 0.21636 0.59118 0.49493
 H586 H 0.21374 0.58267 0.48606
 C587 C 0.22433 0.61291 0.51729
 H588 H 0.22758 0.62125 0.52606
 C589 C 0.21177 0.60299 0.51996
 H590 H 0.20528 0.60405 0.53068
 N591 N 0.23246 0.61202 0.50377
 C592 C 0.25702 0.64882 0.47904
 H593 H 0.26754 0.64948 0.48588
 C594 C 0.25484 0.65894 0.46655
 H595 H 0.26373 0.66744 0.46391
 C596 C 0.23246 0.63722 0.47455
 H597 H 0.22367 0.62888 0.47781
 C598 C 0.22979 0.64713 0.46198
 H599 H 0.21907 0.64606 0.45551
 Zn600 Zn 0.24977 0.62507 0.49998
 N601 N 0.24599 0.63811 0.48268
 C602 C 0.27520 0.61290 0.48269
 N603 N 0.26707 0.61202 0.49622
 C604 C 0.27071 0.60133 0.50726
 C605 C 0.28318 0.59119 0.50508
 C606 C 0.28776 0.60298 0.48003
 C607 C 0.24250 0.64884 0.52088
 C608 C 0.24467 0.65897 0.53335
 C609 C 0.26973 0.64718 0.53793
 C610 C 0.26706 0.63726 0.52539
 N611 N 0.25354 0.63813 0.51726
 H612 H 0.27194 0.62124 0.47390
 H613 H 0.26386 0.60068 0.51777
 H614 H 0.28581 0.58269 0.51397
 H615 H 0.29423 0.60403 0.46930
 H616 H 0.23198 0.64948 0.51404
 H617 H 0.23579 0.66748 0.53596
 H618 H 0.28046 0.64613 0.54441
 H619 H 0.27585 0.62892 0.52214
 C620 C 0.24109 0.65814 0.45781
 C621 C 0.20761 0.59197 0.50867
 C622 C 0.25843 0.65820 0.54209
 C623 C 0.29192 0.59197 0.49133
 C624 C 0.72906 0.89882 0.50711
 H625 H 0.73590 0.89947 0.51763
 C626 C 0.71658 0.90895 0.50493
 H627 H 0.71394 0.91745 0.51381
 C628 C 0.72459 0.88726 0.48255
 H629 H 0.72785 0.87893 0.47376
 C630 C 0.71203 0.89718 0.47988
 H631 H 0.70556 0.89614 0.46915
 N632 N 0.73270 0.88813 0.49607
 C633 C 0.75723 0.85129 0.52077
 H634 H 0.76776 0.85064 0.51394
 C635 C 0.75504 0.84116 0.53324
 H636 H 0.76392 0.83265 0.53588
 C637 C 0.73266 0.86288 0.52524
 H638 H 0.72388 0.87122 0.52198
 C639 C 0.72997 0.85296 0.53779
 H640 H 0.71924 0.85401 0.54426
 Zn641 Zn 0.75001 0.87508 0.49986
 N642 N 0.74620 0.86200 0.51713
 C643 C 0.77540 0.88722 0.51721
 N644 N 0.76730 0.88813 0.50368
 C645 C 0.77095 0.89885 0.49267
 C646 C 0.78343 0.90897 0.49488
 C647 C 0.78796 0.89713 0.51991
 C648 C 0.74280 0.85136 0.47889
 C649 C 0.74501 0.84125 0.46640
 C650 C 0.77007 0.85307 0.46190
 C651 C 0.76737 0.86296 0.47446
 N652 N 0.75382 0.86206 0.48256
 H653 H 0.77213 0.87887 0.52598
 H654 H 0.76411 0.89952 0.48215
 H655 H 0.78607 0.91750 0.48602
 H656 H 0.79442 0.89605 0.53065
 H657 H 0.73226 0.85069 0.48572
 H658 H 0.73613 0.83275 0.46375
 H659 H 0.78081 0.85414 0.45544
 H660 H 0.77615 0.87130 0.47774
 C661 C 0.74127 0.84194 0.54197
 C662 C 0.70785 0.90819 0.49117
 C663 C 0.75878 0.84206 0.45769
 C664 C 0.79215 0.90817 0.50864
 C665 C 0.00716 0.22928 0.39869
 H666 H 0.01768 0.23613 0.39932
 C667 C 0.00499 0.21681 0.40884
 H668 H 0.01388 0.21420 0.41734
 C669 C -0.01741 0.22475 0.38713
 H670 H -0.02621 0.22799 0.37880
 C671 C -0.02007 0.21221 0.39708
 H672 H -0.03080 0.20573 0.39605
 N673 N -0.00389 0.23288 0.38799
 C674 C 0.02081 0.25738 0.35113
 H675 H 0.01400 0.26793 0.35051
 C676 C 0.03328 0.25517 0.34101
 H677 H 0.03614 0.26421 0.33274
 C678 C 0.02532 0.23285 0.36279
 H679 H 0.02202 0.22404 0.37109
 C680 C 0.03789 0.23017 0.35289
 H681 H 0.04414 0.21928 0.35371
 Zn682 Zn -0.00012 0.25016 0.37490
 N683 N 0.01719 0.24637 0.36187
 C684 C 0.01718 0.27561 0.38701
 N685 N 0.00365 0.26749 0.38791
 C686 C -0.00739 0.27114 0.39859
 C687 C -0.00522 0.28364 0.40869
 C688 C 0.01985 0.28819 0.39690
 C689 C -0.02105 0.24286 0.35118
 C690 C -0.03352 0.24502 0.34104
 C691 C -0.03814 0.27007 0.35282
 C692 C -0.02556 0.26743 0.36272
 N693 N -0.01743 0.25391 0.36186
 H694 H 0.02598 0.27234 0.37869
 H695 H -0.01791 0.26429 0.39926
 H696 H -0.01410 0.28628 0.41719
 H697 H 0.03058 0.29466 0.39584
 H698 H -0.01424 0.23231 0.35059
 H699 H -0.03638 0.23595 0.33282
 H700 H -0.04438 0.28096 0.35359
 H701 H -0.02226 0.27627 0.37098
 C702 C 0.04204 0.24143 0.34184
 C703 C -0.00877 0.20807 0.40809
 C704 C -0.04229 0.25877 0.34181
 C705 C 0.00854 0.29237 0.40790
 C706 C -0.00739 0.72889 0.10105
 H707 H -0.01795 0.73568 0.10045
 C708 C -0.00522 0.71640 0.09094
 H709 H -0.01428 0.71352 0.08271
 C710 C 0.01718 0.72441 0.11262
 H711 H 0.02601 0.72773 0.12088
 C712 C 0.01983 0.71182 0.10274
 H713 H 0.03073 0.70558 0.10353
 N714 N 0.00365 0.73253 0.11173
 C715 C -0.02102 0.75715 0.14851
 H716 H -0.01417 0.76767 0.14913
 C717 C -0.03349 0.75498 0.15866
 H718 H -0.03611 0.76388 0.16714
 C719 C -0.02552 0.73256 0.13699
 H720 H -0.02227 0.72376 0.12867
 C721 C -0.03807 0.72991 0.14693
 H722 H -0.04454 0.71917 0.14590
 Zn723 Zn -0.00011 0.74985 0.12475
 N724 N -0.01740 0.74609 0.13783
 C725 C -0.01742 0.77528 0.11260
 N726 N -0.00390 0.76714 0.11169
 C727 C 0.00712 0.77076 0.10096
 C728 C 0.00493 0.78323 0.09083
 C729 C -0.02009 0.78785 0.10269
 C730 C 0.02086 0.74261 0.14847
 C731 C 0.03336 0.74479 0.15856
 C732 C 0.03792 0.76984 0.14674
 C733 C 0.02534 0.76717 0.13685
 N734 N 0.01721 0.75364 0.13777
 H735 H -0.02623 0.77198 0.12089
 H736 H 0.01767 0.76395 0.10035
 H737 H 0.01397 0.78609 0.08257
 H738 H -0.03098 0.79410 0.10350
 H739 H 0.01402 0.73209 0.14914
 H740 H 0.03601 0.73591 0.16707
 H741 H 0.04439 0.78057 0.14566
 H742 H 0.02206 0.77595 0.12852
 C743 C -0.04223 0.74122 0.15792
 C744 C 0.00853 0.70764 0.09174
 C745 C 0.04211 0.75855 0.15775
 C746 C -0.00881 0.79200 0.09165
 C747 C 0.49295 0.22897 0.60154
 H748 H 0.48243 0.23583 0.60090
 C749 C 0.49512 0.21650 0.59142
 H750 H 0.48622 0.21387 0.58292
 C751 C 0.51752 0.22447 0.61310
 H752 H 0.52632 0.22772 0.62142
 C753 C 0.52018 0.21191 0.60319
 H754 H 0.53091 0.20543 0.60423
 N755 N 0.50400 0.23260 0.61223
 C756 C 0.47928 0.25714 0.64903
 H757 H 0.48612 0.26767 0.64967
 C758 C 0.46680 0.25495 0.65915
 H759 H 0.46416 0.26384 0.66765
 C760 C 0.47481 0.23257 0.63746
 H761 H 0.47808 0.22378 0.62914
 C762 C 0.46225 0.22989 0.64738
 H763 H 0.45578 0.21916 0.64633
 Zn764 Zn 0.50022 0.24989 0.62528
 N765 N 0.48293 0.24610 0.63834
 C766 C 0.48290 0.27532 0.61314
 N767 N 0.49643 0.26720 0.61224
 C768 C 0.50745 0.27083 0.60152
 C769 C 0.50525 0.28331 0.59139
 C770 C 0.48022 0.28789 0.60323
 C771 C 0.52119 0.24263 0.64900
 C772 C 0.53368 0.24482 0.65910
 C773 C 0.53821 0.26989 0.64732
 C774 C 0.52564 0.26721 0.63742
 N775 N 0.51753 0.25368 0.63831
 H776 H 0.47408 0.27200 0.62142
 H777 H 0.51801 0.26404 0.60091
 H778 H 0.51430 0.28618 0.58314
 H779 H 0.46932 0.29412 0.60403
 H780 H 0.51435 0.23211 0.64965
 H781 H 0.53633 0.23593 0.66760
 H782 H 0.54468 0.28063 0.64626
 H783 H 0.52237 0.27601 0.62910
 C784 C 0.45807 0.24119 0.65838
 C785 C 0.50887 0.20775 0.59219
 C786 C 0.54241 0.25858 0.65832
 C787 C 0.49149 0.29205 0.59220
 C788 C 0.50713 0.72908 0.89880
 H789 H 0.51765 0.73593 0.89943
 C790 C 0.50497 0.71661 0.90894
 H791 H 0.51387 0.71398 0.91743
 C792 C 0.48254 0.72459 0.88728
 H793 H 0.47374 0.72784 0.87896
 C794 C 0.47989 0.71203 0.89720
 H795 H 0.46916 0.70555 0.89618
 N796 N 0.49607 0.73271 0.88813
 C797 C 0.52071 0.75727 0.85127
 H798 H 0.51390 0.76781 0.85067
 C799 C 0.53318 0.75509 0.84113
 H800 H 0.53603 0.76414 0.83288
 C801 C 0.52526 0.73272 0.86289
 H802 H 0.52197 0.72390 0.87118
 C803 C 0.53783 0.73007 0.85298
 H804 H 0.54408 0.71919 0.85378
 Zn805 Zn 0.49982 0.75001 0.87506
 N806 N 0.51711 0.74624 0.86200
 C807 C 0.51714 0.77544 0.88718
 N808 N 0.50361 0.76732 0.88808
 C809 C 0.49257 0.77097 0.89878
 C810 C 0.49476 0.78345 0.90888
 C811 C 0.51982 0.78800 0.89707
 C812 C 0.47888 0.74272 0.85134
 C813 C 0.46640 0.74489 0.84122
 C814 C 0.46177 0.76992 0.85303
 C815 C 0.47436 0.76728 0.86292
 N816 N 0.48250 0.75376 0.86203
 H817 H 0.52592 0.77217 0.87885
 H818 H 0.48205 0.76412 0.89944
 H819 H 0.48588 0.78610 0.91739
 H820 H 0.53055 0.79448 0.89601
 H821 H 0.48569 0.73217 0.85074
 H822 H 0.46354 0.73583 0.83298
 H823 H 0.45552 0.78081 0.85381
 H824 H 0.47766 0.77611 0.87118
 C825 C 0.54196 0.74136 0.84194
 C826 C 0.49121 0.70787 0.90819
 C827 C 0.45762 0.75863 0.84201
 C828 C 0.50853 0.79219 0.90809
 C829 C 0.15431 0.21486 0.26852
 C830 C 0.14085 0.22217 0.26309
 C831 C 0.13998 0.22703 0.24761
 C832 C 0.15253 0.22460 0.23758
 C833 C 0.16613 0.21725 0.24292
 C834 C 0.16687 0.21241 0.25852
 C835 C 0.12792 0.22467 0.27339
 C836 C 0.11709 0.22677 0.28202
 C837 C 0.10441 0.22924 0.29211
 C838 C 0.09358 0.23135 0.30074
 C839 C 0.08065 0.23388 0.31104
 C840 C 0.06704 0.24084 0.30550
 C841 C 0.05448 0.24330 0.31550
 C842 C 0.05538 0.23882 0.33120
 C843 C 0.06912 0.23183 0.33664
 C844 C 0.08166 0.22939 0.32663
 H845 H 0.15512 0.21109 0.28050
 H846 H 0.12959 0.23266 0.24327
 H847 H 0.15150 0.22828 0.22561
 H848 H 0.17723 0.20691 0.26305
 H849 H 0.06612 0.24432 0.29344
 H850 H 0.04400 0.24852 0.31090
 H851 H 0.07024 0.22844 0.34870
 H852 H 0.09216 0.22403 0.33104
 C853 C 0.64756 0.73478 0.75536
 C854 C 0.64075 0.72223 0.76314
 C855 C 0.64654 0.70722 0.76087
 C856 C 0.65910 0.70474 0.75086
 C857 C 0.66603 0.71728 0.74297
 C858 C 0.66010 0.73234 0.74534
 C859 C 0.62783 0.72476 0.77344
 C860 C 0.61700 0.72687 0.78207
 C861 C 0.60432 0.72932 0.79218
 C862 C 0.59350 0.73141 0.80081
 C863 C 0.58057 0.73391 0.81112
 C864 C 0.58159 0.72939 0.82670
 C865 C 0.56904 0.73180 0.83672
 C866 C 0.55529 0.73878 0.83129
 C867 C 0.55439 0.74329 0.81560
 C868 C 0.56695 0.74086 0.80559
 H869 H 0.64319 0.74646 0.75707
 H870 H 0.64133 0.69741 0.76680
 H871 H 0.66322 0.69300 0.74914
 H872 H 0.66529 0.74225 0.73962
 H873 H 0.59210 0.72404 0.83111
 H874 H 0.57018 0.72839 0.84878
 H875 H 0.54390 0.74850 0.81101
 H876 H 0.56602 0.74436 0.79354
 C877 C 0.35972 0.77293 0.74775
 C878 C 0.35884 0.77778 0.76323
 C879 C 0.34537 0.78510 0.76865
 C880 C 0.33283 0.78758 0.75863
 C881 C 0.33359 0.78275 0.74304
 C882 C 0.34719 0.77538 0.73772
 C883 C 0.37175 0.77525 0.77355
 C884 C 0.38257 0.77314 0.78219
 C885 C 0.39524 0.77067 0.79229
 C886 C 0.40606 0.76857 0.80092
 C887 C 0.41899 0.76607 0.81123
 C888 C 0.41798 0.77060 0.82680
 C889 C 0.43054 0.76819 0.83682
 C890 C 0.44428 0.76119 0.83138
 C891 C 0.44517 0.75668 0.81569
 C892 C 0.43261 0.75912 0.80570
 H893 H 0.37011 0.76729 0.74342
 H894 H 0.34455 0.78886 0.78063
 H895 H 0.32248 0.79308 0.76315
 H896 H 0.34823 0.77171 0.72575
 H897 H 0.40748 0.77595 0.83121
 H898 H 0.42942 0.77160 0.84886
 H899 H 0.45566 0.75147 0.81110
 H900 H 0.43353 0.75561 0.79365
 C901 C -0.15039 0.29102 0.26469
 C902 C -0.14107 0.27785 0.26301
 C903 C -0.14434 0.26715 0.25129
 C904 C -0.15687 0.26956 0.24125
 C905 C -0.16650 0.28283 0.24270
 C906 C -0.16294 0.29352 0.25470
 C907 C -0.12815 0.27533 0.27332
 C908 C -0.11733 0.27323 0.28195
 C909 C -0.10465 0.27077 0.29206
 C910 C -0.09383 0.26868 0.30069
 C911 C -0.08090 0.26619 0.31100
 C912 C -0.06729 0.25922 0.30548
 C913 C -0.05473 0.25679 0.31549
 C914 C -0.05562 0.26133 0.33116
 C915 C -0.06936 0.26834 0.33659
 C916 C -0.08191 0.27075 0.32656
 H917 H -0.14793 0.29943 0.27373
 H918 H -0.13720 0.25687 0.24991
 H919 H -0.15890 0.26080 0.23254
 H920 H -0.16960 0.30398 0.25648
 H921 H -0.06637 0.25569 0.29344
 H922 H -0.04424 0.25156 0.31091
 H923 H -0.07048 0.27178 0.34863
 H924 H -0.09241 0.27612 0.33096
 C925 C -0.14428 0.73297 0.24850
 C926 C -0.14097 0.72222 0.23682
 C927 C -0.15026 0.70903 0.23519
 C928 C -0.16282 0.70655 0.24518
 C929 C -0.16642 0.71727 0.25713
 C930 C -0.15682 0.73057 0.25854
 C931 C -0.12804 0.72472 0.22652
 C932 C -0.11721 0.72681 0.21788
 C933 C -0.10454 0.72925 0.20777
 C934 C -0.09371 0.73133 0.19913
 C935 C -0.08080 0.73381 0.18881
 C936 C -0.07070 0.72156 0.18529
 C937 C -0.05816 0.72395 0.17525
 C938 C -0.05554 0.73866 0.16859
 C939 C -0.06576 0.75090 0.17221
 C940 C -0.07830 0.74848 0.18225
 H941 H -0.13717 0.74327 0.24984
 H942 H -0.14777 0.70059 0.22619
 H943 H -0.16945 0.69606 0.24344
 H944 H -0.15888 0.73936 0.26721
 H945 H -0.07250 0.71017 0.19034
 H946 H -0.05039 0.71435 0.17287
 H947 H -0.06418 0.76230 0.16712
 H948 H -0.08607 0.75803 0.18485
 C949 C 0.34961 0.20910 0.73514
 C950 C 0.35916 0.22207 0.73705
 C951 C 0.35609 0.23260 0.74898
 C952 C 0.34353 0.23021 0.75900
 C953 C 0.33366 0.21715 0.75731
 C954 C 0.33703 0.20664 0.74510
 C955 C 0.37211 0.22456 0.72677
 C956 C 0.38296 0.22665 0.71817
 C957 C 0.39566 0.22910 0.70809
 C958 C 0.40650 0.23121 0.69947
 C959 C 0.41944 0.23371 0.68918
 C960 C 0.42194 0.24839 0.68265
 C961 C 0.43450 0.25084 0.67264
 C962 C 0.44474 0.23861 0.66903
 C963 C 0.44211 0.22389 0.67566
 C964 C 0.42955 0.22148 0.68567
 H965 H 0.35191 0.20084 0.72593
 H966 H 0.36342 0.24272 0.75056
 H967 H 0.34170 0.23882 0.76791
 H968 H 0.33016 0.19635 0.74310
 H969 H 0.41416 0.25794 0.68526
 H970 H 0.43609 0.26224 0.66757
 H971 H 0.44989 0.21430 0.67327
 H972 H 0.42775 0.21008 0.69070
 C973 C 0.65175 0.28976 0.73413
 C974 C 0.64125 0.27775 0.73702
 C975 C 0.64333 0.26819 0.74995
 C976 C 0.65586 0.27061 0.75999
 C977 C 0.66668 0.28273 0.75733
 C978 C 0.66430 0.29226 0.74412
 C979 C 0.62833 0.27522 0.72671
 C980 C 0.61750 0.27311 0.71808
 C981 C 0.60482 0.27064 0.70799
 C982 C 0.59399 0.26854 0.69937
 C983 C 0.58105 0.26605 0.68908
 C984 C 0.57855 0.25137 0.68256
 C985 C 0.56599 0.24893 0.67256
 C986 C 0.55575 0.26116 0.66895
 C987 C 0.55837 0.27588 0.67558
 C988 C 0.57094 0.27829 0.68558
 H989 H 0.65025 0.29723 0.72411
 H990 H 0.63524 0.25884 0.75231
 H991 H 0.65677 0.26291 0.76983
 H992 H 0.67206 0.30166 0.74120
 H993 H 0.58634 0.24183 0.68516
 H994 H 0.56440 0.23753 0.66749
 H995 H 0.55059 0.28547 0.67320
 H996 H 0.57274 0.28968 0.69061
 C997 C 0.14677 0.79274 0.23868
 C998 C 0.14098 0.77773 0.23640
 C999 C 0.14778 0.76518 0.24419
 C1000 C 0.16031 0.76763 0.25422
 C1001 C 0.16623 0.78268 0.25660
 C1002 C 0.15931 0.79522 0.24869
 C1003 C 0.12806 0.77520 0.22610
 C1004 C 0.11723 0.77308 0.21748
 C1005 C 0.10455 0.77061 0.20739
 C1006 C 0.09371 0.76851 0.19877
 C1007 C 0.08077 0.76601 0.18849
 C1008 C 0.07826 0.75133 0.18197
 C1009 C 0.06568 0.74889 0.17199
 C1010 C 0.05546 0.76113 0.16837
 C1011 C 0.05809 0.77585 0.17498
 C1012 C 0.07066 0.77826 0.18498
 H1013 H 0.14156 0.80255 0.23274
 H1014 H 0.14342 0.75349 0.24248
 H1015 H 0.16549 0.75771 0.25994
 H1016 H 0.16343 0.80696 0.25042
 H1017 H 0.08603 0.74179 0.18458
 H1018 H 0.06409 0.73749 0.16693
 H1019 H 0.05031 0.78544 0.17260
 H1020 H 0.07248 0.78965 0.18999
 C1021 C 0.24775 0.14001 0.22702
 C1022 C 0.26323 0.14087 0.22213
 C1023 C 0.26865 0.15431 0.21477
 C1024 C 0.25863 0.16686 0.21229
 C1025 C 0.24303 0.16613 0.21716
 C1026 C 0.23771 0.15255 0.22456
 C1027 C 0.27355 0.12795 0.22466
 C1028 C 0.28218 0.11713 0.22677
 C1029 C 0.29229 0.10445 0.22925
 C1030 C 0.30091 0.09362 0.23136
 C1031 C 0.31120 0.08068 0.23388
 C1032 C 0.31474 0.07058 0.22165
 C1033 C 0.32474 0.05801 0.22408
 C1034 C 0.33134 0.05537 0.23880
 C1035 C 0.32770 0.06560 0.25102
 C1036 C 0.31770 0.07817 0.24856
 H1037 H 0.24342 0.12964 0.23269
 H1038 H 0.28062 0.15512 0.21098
 H1039 H 0.26315 0.17720 0.20676
 H1040 H 0.22574 0.15152 0.22826
 H1041 H 0.30973 0.07239 0.21025
 H1042 H 0.32714 0.05024 0.21449
 H1043 H 0.33274 0.06400 0.26243
 H1044 H 0.31508 0.08594 0.25810
 C1045 C 0.74755 0.63995 0.72700
 C1046 C 0.76304 0.64080 0.72213
 C1047 C 0.76848 0.65425 0.71481
 C1048 C 0.75849 0.66682 0.71235
 C1049 C 0.74289 0.66610 0.71720
 C1050 C 0.73754 0.65251 0.72457
 C1051 C 0.77334 0.62786 0.72464
 C1052 C 0.78196 0.61703 0.72675
 C1053 C 0.79206 0.60435 0.72923
 C1054 C 0.80068 0.59352 0.73135
 C1055 C 0.81099 0.58059 0.73387
 C1056 C 0.81453 0.57049 0.72164
 C1057 C 0.82456 0.55794 0.72406
 C1058 C 0.83116 0.55532 0.73878
 C1059 C 0.82751 0.56553 0.75101
 C1060 C 0.81749 0.57809 0.74855
 H1061 H 0.74320 0.62957 0.73265
 H1062 H 0.78047 0.65505 0.71103
 H1063 H 0.76303 0.67717 0.70684
 H1064 H 0.72556 0.65149 0.72825
 H1065 H 0.80953 0.57230 0.71023
 H1066 H 0.82697 0.55017 0.71448
 H1067 H 0.83256 0.56395 0.76241
 H1068 H 0.81486 0.58586 0.75809
 C1069 C 0.76589 0.34839 0.78986
 C1070 C 0.76298 0.35890 0.77786
 C1071 C 0.75003 0.35681 0.76833
 C1072 C 0.74000 0.34427 0.77075
 C1073 C 0.74269 0.33343 0.78285
 C1074 C 0.75591 0.33582 0.79236
 C1075 C 0.77327 0.37183 0.77533
 C1076 C 0.78190 0.38266 0.77323
 C1077 C 0.79201 0.39533 0.77077
 C1078 C 0.80065 0.40616 0.76868
 C1079 C 0.81097 0.41908 0.76619
 C1080 C 0.81751 0.42159 0.75153
 C1081 C 0.82754 0.43414 0.74910
 C1082 C 0.83116 0.44436 0.76133
 C1083 C 0.82452 0.44173 0.77603
 C1084 C 0.81448 0.42918 0.77843
 H1085 H 0.77592 0.34989 0.79731
 H1086 H 0.74765 0.36491 0.75900
 H1087 H 0.73015 0.34335 0.76307
 H1088 H 0.75885 0.32806 0.80174
 H1089 H 0.81490 0.41382 0.74198
 H1090 H 0.83262 0.43573 0.73770
 H1091 H 0.82691 0.44949 0.78563
 H1092 H 0.80944 0.42737 0.78982
 C1093 C 0.26612 -0.15191 0.28934
 C1094 C 0.26297 -0.14112 0.27766
 C1095 C 0.24977 -0.14292 0.26842
 C1096 C 0.23973 -0.15546 0.27081
 C1097 C 0.24266 -0.16657 0.28259
 C1098 C 0.25614 -0.16448 0.29181
 C1099 C 0.27327 -0.12818 0.27516
 C1100 C 0.28191 -0.11735 0.27308
 C1101 C 0.29202 -0.10467 0.27064
 C1102 C 0.30065 -0.09384 0.26858
 C1103 C 0.31097 -0.08092 0.26611
 C1104 C 0.31754 -0.07840 0.25146
 C1105 C 0.32757 -0.06585 0.24905
 C1106 C 0.33117 -0.05564 0.26130
 C1107 C 0.32450 -0.05828 0.27599
 C1108 C 0.31447 -0.07083 0.27837
 H1109 H 0.27636 -0.15064 0.29656
 H1110 H 0.24719 -0.13458 0.25934
 H1111 H 0.22965 -0.15612 0.26341
 H1112 H 0.25929 -0.17251 0.30090
 H1113 H 0.31495 -0.08616 0.24190
 H1114 H 0.33267 -0.06425 0.23767
 H1115 H 0.32688 -0.05051 0.28559
 H1116 H 0.30941 -0.07265 0.28975
 C1117 C 0.23372 -0.15173 0.71042
 C1118 C 0.23689 -0.14097 0.72211
 C1119 C 0.25009 -0.14280 0.73135
 C1120 C 0.26011 -0.15535 0.72894
 C1121 C 0.25716 -0.16644 0.71715
 C1122 C 0.24369 -0.16431 0.70793
 C1123 C 0.22660 -0.12802 0.72463
 C1124 C 0.21800 -0.11718 0.72673
 C1125 C 0.20793 -0.10447 0.72919
 C1126 C 0.19933 -0.09362 0.73130
 C1127 C 0.18906 -0.08067 0.73383
 C1128 C 0.18257 -0.07815 0.74851
 C1129 C 0.17259 -0.06557 0.75098
 C1130 C 0.16895 -0.05534 0.73875
 C1131 C 0.17554 -0.05798 0.72402
 C1132 C 0.18552 -0.07056 0.72159
 H1133 H 0.22348 -0.15043 0.70321
 H1134 H 0.25267 -0.13449 0.74044
 H1135 H 0.27019 -0.15605 0.73635
 H1136 H 0.24053 -0.17231 0.69884
 H1137 H 0.18520 -0.08593 0.75805
 H1138 H 0.16756 -0.06397 0.76239
 H1139 H 0.17313 -0.05020 0.71444
 H1140 H 0.19052 -0.07238 0.71019
 C1141 C 0.73141 0.34565 0.21488
 C1142 C 0.73684 0.35911 0.22219
 C1143 C 0.75233 0.35997 0.22705
 C1144 C 0.76236 0.34743 0.22463
 C1145 C 0.75703 0.33383 0.21727
 C1146 C 0.74143 0.33309 0.21242
 C1147 C 0.72652 0.37203 0.22469
 C1148 C 0.71789 0.38286 0.22679
 C1149 C 0.70779 0.39554 0.22924
 C1150 C 0.69916 0.40636 0.23134
 C1151 C 0.68885 0.41929 0.23385
 C1152 C 0.68235 0.42179 0.24854
 C1153 C 0.67234 0.43435 0.25099
 C1154 C 0.66869 0.44457 0.23877
 C1155 C 0.67529 0.44195 0.22404
 C1156 C 0.68531 0.42939 0.22162
 H1157 H 0.71943 0.34483 0.21110
 H1158 H 0.75666 0.37036 0.23269
 H1159 H 0.77433 0.34847 0.22830
 H1160 H 0.73690 0.32274 0.20693
 H1161 H 0.68498 0.41402 0.25808
 H1162 H 0.66729 0.43593 0.26240
 H1163 H 0.67288 0.44972 0.21446
 H1164 H 0.69032 0.42759 0.21022
 C1165 C 0.73152 0.65444 0.28501
 C1166 C 0.73695 0.64099 0.27769
 C1167 C 0.75243 0.64013 0.27281
 C1168 C 0.76246 0.65268 0.27524
 C1169 C 0.75713 0.66627 0.28261
 C1170 C 0.74153 0.66700 0.28747
 C1171 C 0.72664 0.62807 0.27518
 C1172 C 0.71800 0.61724 0.27309
 C1173 C 0.70790 0.60456 0.27065
 C1174 C 0.69926 0.59374 0.26858
 C1175 C 0.68895 0.58081 0.26611
 C1176 C 0.68240 0.57830 0.25145
 C1177 C 0.67237 0.56575 0.24904
 C1178 C 0.66876 0.55553 0.26128
 C1179 C 0.67541 0.55816 0.27598
 C1180 C 0.68544 0.57071 0.27836
 H1181 H 0.71954 0.65525 0.28879
 H1182 H 0.75677 0.62975 0.26717
 H1183 H 0.77444 0.65164 0.27155
 H1184 H 0.73700 0.67735 0.29297
 H1185 H 0.68500 0.58607 0.24189
 H1186 H 0.66729 0.56416 0.23765
 H1187 H 0.67302 0.55039 0.28558
 H1188 H 0.69048 0.57252 0.28974
 C1189 C 0.23527 0.15069 0.79072
 C1190 C 0.23716 0.14120 0.77772
 C1191 C 0.24908 0.14430 0.76717
 C1192 C 0.25911 0.15684 0.76959
 C1193 C 0.25746 0.16665 0.78269
 C1194 C 0.24526 0.16325 0.79321
 C1195 C 0.22686 0.12826 0.77520
 C1196 C 0.21824 0.11743 0.77311
 C1197 C 0.20814 0.10475 0.77066
 C1198 C 0.19951 0.09391 0.76858
 C1199 C 0.18921 0.08098 0.76611
 C1200 C 0.18265 0.07847 0.75146
 C1201 C 0.17264 0.06590 0.74904
 C1202 C 0.16904 0.05568 0.76129
 C1203 C 0.17569 0.05831 0.77598
 C1204 C 0.18571 0.07087 0.77836
 H1205 H 0.22607 0.14836 0.79899
 H1206 H 0.25063 0.13702 0.75703
 H1207 H 0.26801 0.15871 0.76097
 H1208 H 0.24328 0.17006 0.80353
 H1209 H 0.18525 0.08624 0.74190
 H1210 H 0.16755 0.06431 0.73765
 H1211 H 0.17332 0.05054 0.78558
 H1212 H 0.19076 0.07268 0.78974
 C1213 C 0.20708 0.26084 0.14649
 C1214 C 0.22209 0.26311 0.14067
 C1215 C 0.23466 0.25536 0.14746
 C1216 C 0.23224 0.24535 0.16002
 C1217 C 0.21719 0.24297 0.16598
 C1218 C 0.20464 0.25084 0.15905
 C1219 C 0.22459 0.27341 0.12773
 C1220 C 0.22668 0.28203 0.11689
 C1221 C 0.22913 0.29213 0.10422
 C1222 C 0.23123 0.30077 0.09339
 C1223 C 0.23373 0.31109 0.08047
 C1224 C 0.22148 0.31464 0.07039
 C1225 C 0.22389 0.32467 0.05785
 C1226 C 0.23862 0.33129 0.05522
 C1227 C 0.25085 0.32764 0.06543
 C1228 C 0.24841 0.31761 0.07797
 H1229 H 0.19726 0.26675 0.14128
 H1230 H 0.24633 0.25707 0.14308
 H1231 H 0.24217 0.23964 0.16520
 H1232 H 0.19290 0.24912 0.16320
 H1233 H 0.21008 0.30962 0.07219
 H1234 H 0.21430 0.32709 0.05008
 H1235 H 0.26226 0.33270 0.06384
 H1236 H 0.25796 0.31497 0.08573
 C1237 C 0.72697 0.74771 0.63995
 C1238 C 0.72210 0.76320 0.64080
 C1239 C 0.71479 0.76863 0.65426
 C1240 C 0.71233 0.75863 0.66681
 C1241 C 0.71717 0.74302 0.66609
 C1242 C 0.72453 0.73768 0.65250
 C1243 C 0.72461 0.77350 0.62787
 C1244 C 0.72670 0.78212 0.61704
 C1245 C 0.72917 0.79221 0.60435
 C1246 C 0.73126 0.80083 0.59352
 C1247 C 0.73377 0.81113 0.58058
 C1248 C 0.72154 0.81465 0.57047
 C1249 C 0.72396 0.82466 0.55792
 C1250 C 0.73868 0.83128 0.55530
 C1251 C 0.75091 0.82766 0.56552
 C1252 C 0.74846 0.81765 0.57808
 H1253 H 0.73260 0.74336 0.62957
 H1254 H 0.71102 0.78062 0.65506
 H1255 H 0.70683 0.76316 0.67716
 H1256 H 0.72821 0.72571 0.65147
 H1257 H 0.71014 0.80962 0.57228
 H1258 H 0.71437 0.82705 0.55014
 H1259 H 0.76231 0.83272 0.56394
 H1260 H 0.75800 0.81504 0.58586
 C1261 C 0.78539 0.76876 0.34547
 C1262 C 0.77806 0.76334 0.35893
 C1263 C 0.77318 0.74785 0.35980
 C1264 C 0.77561 0.73782 0.34727
 C1265 C 0.78298 0.74315 0.33367
 C1266 C 0.78784 0.75874 0.33293
 C1267 C 0.77554 0.77365 0.37184
 C1268 C 0.77342 0.78229 0.38265
 C1269 C 0.77094 0.79239 0.39531
 C1270 C 0.76883 0.80101 0.40614
 C1271 C 0.76631 0.81131 0.41906
 C1272 C 0.75163 0.81783 0.42155
 C1273 C 0.74917 0.82782 0.43411
 C1274 C 0.76139 0.83144 0.44435
 C1275 C 0.77611 0.82481 0.44174
 C1276 C 0.77854 0.81481 0.42918
 H1277 H 0.78917 0.78074 0.34466
 H1278 H 0.76753 0.74352 0.37018
 H1279 H 0.77192 0.72585 0.34831
 H1280 H 0.79335 0.76327 0.32258
 H1281 H 0.74209 0.81523 0.41377
 H1282 H 0.73776 0.83289 0.43569
 H1283 H 0.78569 0.82720 0.44953
 H1284 H 0.78994 0.80979 0.42739
 C1285 C 0.28518 0.26874 -0.15454
 C1286 C 0.27781 0.26333 -0.14110
 C1287 C 0.27292 0.24785 -0.14024
 C1288 C 0.27538 0.23782 -0.15277
 C1289 C 0.28279 0.24313 -0.16634
 C1290 C 0.28767 0.25873 -0.16707
 C1291 C 0.27528 0.27365 -0.12820
 C1292 C 0.27316 0.28228 -0.11738
 C1293 C 0.27069 0.29238 -0.10472
 C1294 C 0.26858 0.30101 -0.09389
 C1295 C 0.26607 0.31131 -0.08097
 C1296 C 0.25139 0.31782 -0.07846
 C1297 C 0.24894 0.32783 -0.06591
 C1298 C 0.26118 0.33146 -0.05569
 C1299 C 0.27590 0.32484 -0.05832
 C1300 C 0.27831 0.31483 -0.07087
 H1301 H 0.28898 0.28072 -0.15534
 H1302 H 0.26724 0.24352 -0.12988
 H1303 H 0.27168 0.22585 -0.15173
 H1304 H 0.29321 0.26325 -0.17741
 H1305 H 0.24184 0.31521 -0.08623
 H1306 H 0.23754 0.33289 -0.06432
 H1307 H 0.28549 0.32723 -0.05055
 H1308 H 0.28972 0.30981 -0.07268
 C1309 C 0.73486 0.24457 -0.14763
 C1310 C 0.72232 0.23676 -0.14085
 C1311 C 0.70730 0.23900 -0.14666
 C1312 C 0.70482 0.24901 -0.15921
 C1313 C 0.71735 0.25693 -0.16612
 C1314 C 0.73240 0.25460 -0.16018
 C1315 C 0.72485 0.22646 -0.12792
 C1316 C 0.72699 0.21784 -0.11710
 C1317 C 0.72948 0.20774 -0.10442
 C1318 C 0.73161 0.19912 -0.09360
 C1319 C 0.73413 0.18881 -0.08068
 C1320 C 0.72191 0.18529 -0.07055
 C1321 C 0.72435 0.17526 -0.05801
 C1322 C 0.73907 0.16863 -0.05541
 C1323 C 0.75128 0.17226 -0.06566
 C1324 C 0.74882 0.18228 -0.07820
 H1325 H 0.74654 0.24289 -0.14325
 H1326 H 0.69750 0.23305 -0.14146
 H1327 H 0.69308 0.25070 -0.16335
 H1328 H 0.74232 0.26034 -0.16535
 H1329 H 0.71051 0.19032 -0.07233
 H1330 H 0.71476 0.17287 -0.05021
 H1331 H 0.76269 0.16719 -0.06409
 H1332 H 0.75835 0.18490 -0.08600
 C1333 C 0.22693 0.75232 0.35976
 C1334 C 0.22208 0.73683 0.35890
 C1335 C 0.21480 0.73138 0.34544
 C1336 C 0.21236 0.74137 0.33287
 C1337 C 0.21719 0.75698 0.33360
 C1338 C 0.22451 0.76234 0.34720
 C1339 C 0.22456 0.72653 0.37184
 C1340 C 0.22664 0.71791 0.38268
 C1341 C 0.22907 0.70783 0.39538
 C1342 C 0.23116 0.69921 0.40622
 C1343 C 0.23365 0.68892 0.41916
 C1344 C 0.22140 0.68541 0.42925
 C1345 C 0.22380 0.67540 0.44182
 C1346 C 0.23852 0.66878 0.44447
 C1347 C 0.25076 0.67240 0.43425
 C1348 C 0.24833 0.68240 0.42169
 H1349 H 0.23253 0.75667 0.37015
 H1350 H 0.21105 0.71939 0.34463
 H1351 H 0.20690 0.73683 0.32252
 H1352 H 0.22817 0.77431 0.34823
 H1353 H 0.21000 0.69043 0.42743
 H1354 H 0.21420 0.67301 0.44959
 H1355 H 0.26217 0.66734 0.43585
 H1356 H 0.25789 0.68501 0.41392
 C1357 C 0.26502 0.74480 0.64759
 C1358 C 0.27756 0.73701 0.64080
 C1359 C 0.29258 0.73926 0.64661
 C1360 C 0.29505 0.74924 0.65917
 C1361 C 0.28252 0.75715 0.66609
 C1362 C 0.26747 0.75481 0.66014
 C1363 C 0.27503 0.72672 0.62787
 C1364 C 0.27292 0.71810 0.61705
 C1365 C 0.27046 0.70800 0.60438
 C1366 C 0.26837 0.69937 0.59356
 C1367 C 0.26587 0.68906 0.58064
 C1368 C 0.25119 0.68253 0.57814
 C1369 C 0.24876 0.67251 0.56560
 C1370 C 0.26100 0.66887 0.55540
 C1371 C 0.27572 0.67550 0.55802
 C1372 C 0.27812 0.68553 0.57056
 H1373 H 0.25334 0.74312 0.64321
 H1374 H 0.30238 0.73332 0.64141
 H1375 H 0.30680 0.75094 0.66331
 H1376 H 0.25755 0.76054 0.66532
 H1377 H 0.24164 0.68515 0.58591
 H1378 H 0.23736 0.66744 0.56402
 H1379 H 0.28532 0.67309 0.55025
 H1380 H 0.28952 0.69055 0.57236
 C1381 C 0.76541 0.24454 0.14772
 C1382 C 0.77797 0.23676 0.14094
 C1383 C 0.79298 0.23905 0.14675
 C1384 C 0.79543 0.24906 0.15929
 C1385 C 0.78288 0.25695 0.16620
 C1386 C 0.76784 0.25457 0.16025
 C1387 C 0.77547 0.22646 0.12802
 C1388 C 0.77338 0.21783 0.11720
 C1389 C 0.77094 0.20772 0.10453
 C1390 C 0.76886 0.19909 0.09371
 C1391 C 0.76639 0.18879 0.08078
 C1392 C 0.75172 0.18225 0.07826
 C1393 C 0.74931 0.17224 0.06571
 C1394 C 0.76157 0.16862 0.05551
 C1395 C 0.77628 0.17526 0.05815
 C1396 C 0.77866 0.18528 0.07071
 H1397 H 0.75374 0.24282 0.14334
 H1398 H 0.80280 0.23312 0.14156
 H1399 H 0.80717 0.25079 0.16343
 H1400 H 0.75791 0.26028 0.16542
 H1401 H 0.74216 0.18486 0.08601
 H1402 H 0.73791 0.16717 0.06410
 H1403 H 0.78589 0.17287 0.05040
 H1404 H 0.79005 0.19031 0.07253
 C1405 C 0.45713 0.39663 0.51114
 C1406 C 0.47215 0.39083 0.51342
 C1407 C 0.48470 0.39764 0.50564
 C1408 C 0.48226 0.41019 0.49562
 C1409 C 0.46720 0.41612 0.49324
 C1410 C 0.45466 0.40918 0.50113
 C1411 C 0.47467 0.37791 0.52372
 C1412 C 0.47679 0.36708 0.53234
 C1413 C 0.47928 0.35440 0.54244
 C1414 C 0.48140 0.34358 0.55107
 C1415 C 0.48394 0.33066 0.56138
 C1416 C 0.49092 0.31706 0.55585
 C1417 C 0.49339 0.30450 0.56586
 C1418 C 0.48889 0.30538 0.58155
 C1419 C 0.48188 0.31912 0.58699
 C1420 C 0.47943 0.33166 0.57696
 H1421 H 0.44732 0.39142 0.51706
 H1422 H 0.49638 0.39327 0.50736
 H1423 H 0.49218 0.41538 0.48991
 H1424 H 0.44291 0.41331 0.49941
 H1425 H 0.49441 0.31614 0.54380
 H1426 H 0.49862 0.29402 0.56127
 H1427 H 0.47847 0.32023 0.59904
 H1428 H 0.47406 0.34215 0.58137
 C1429 C -0.01722 0.89414 0.00122
 C1430 C -0.02793 0.89090 0.01295
 C1431 C -0.04105 0.90026 0.01467
 C1432 C -0.04350 0.91285 0.00470
 C1433 C -0.03282 0.91639 -0.00731
 C1434 C -0.01959 0.90670 -0.00880
 C1435 C -0.02545 0.87795 0.02324
 C1436 C -0.02336 0.86710 0.03186
 C1437 C -0.02091 0.85441 0.04194
 C1438 C -0.01881 0.84357 0.05056
 C1439 C -0.01631 0.83064 0.06086
 C1440 C -0.02081 0.83164 0.07644
 C1441 C -0.01839 0.81908 0.08646
 C1442 C -0.01140 0.80534 0.08101
 C1443 C -0.00691 0.80445 0.06532
 C1444 C -0.00936 0.81702 0.05532
 H1445 H -0.00698 0.88696 -0.00019
 H1446 H -0.04946 0.89783 0.02372
 H1447 H -0.05393 0.91955 0.00651
 H1448 H -0.01083 0.90869 -0.01753
 H1449 H -0.02616 0.84214 0.08086
 H1450 H -0.02179 0.82020 0.09851
 H1451 H -0.00170 0.79397 0.06072
 H1452 H -0.00587 0.81611 0.04327
 C1453 C 0.04076 0.59929 0.01498
 C1454 C 0.02775 0.60878 0.01310
 C1455 C 0.01720 0.60570 0.00118
 C1456 C 0.01962 0.59317 -0.00885
 C1457 C 0.03274 0.58335 -0.00720
 C1458 C 0.04326 0.58673 0.00499
 C1459 C 0.02522 0.62171 0.02340
 C1460 C 0.02310 0.63253 0.03202
 C1461 C 0.02063 0.64521 0.04211
 C1462 C 0.01852 0.65605 0.05072
 C1463 C 0.01601 0.66899 0.06101
 C1464 C 0.00904 0.68259 0.05546
 C1465 C 0.00659 0.69516 0.06544
 C1466 C 0.01111 0.69430 0.08112
 C1467 C 0.01813 0.68057 0.08658
 C1468 C 0.02055 0.66801 0.07658
 H1469 H 0.04903 0.60159 0.02418
 H1470 H 0.00705 0.61299 -0.00036
 H1471 H 0.01100 0.59132 -0.01774
 H1472 H 0.05358 0.57991 0.00696
 H1473 H 0.00552 0.68349 0.04341
 H1474 H 0.00136 0.70563 0.06083
 H1475 H 0.02155 0.67947 0.09863
 H1476 H 0.02592 0.65752 0.08101
 C1477 C 0.53522 0.09553 0.51878
 C1478 C 0.52787 0.10899 0.51338
 C1479 C 0.52297 0.10986 0.49791
 C1480 C 0.52541 0.09733 0.48787
 C1481 C 0.53280 0.08374 0.49318
 C1482 C 0.53768 0.08299 0.50876
 C1483 C 0.52536 0.12190 0.52370
 C1484 C 0.52327 0.13271 0.53233
 C1485 C 0.52082 0.14538 0.54244
 C1486 C 0.51874 0.15621 0.55107
 C1487 C 0.51627 0.16913 0.56138
 C1488 C 0.50160 0.17165 0.56792
 C1489 C 0.49918 0.18421 0.57793
 C1490 C 0.51143 0.19442 0.58154
 C1491 C 0.52614 0.19178 0.57490
 C1492 C 0.52852 0.17922 0.56489
 H1493 H 0.53901 0.09471 0.53075
 H1494 H 0.51731 0.12024 0.49359
 H1495 H 0.52171 0.09838 0.47591
 H1496 H 0.54320 0.07264 0.51327
 H1497 H 0.49203 0.16389 0.56531
 H1498 H 0.48778 0.18581 0.58301
 H1499 H 0.53574 0.19954 0.57729
 H1500 H 0.53992 0.17740 0.55985
 C1501 C -0.01526 0.10258 0.49484
 C1502 C -0.02782 0.10937 0.48705
 C1503 C -0.04283 0.10356 0.48933
 C1504 C -0.04530 0.09101 0.49934
 C1505 C -0.03275 0.08410 0.50724
 C1506 C -0.01770 0.09004 0.50486
 C1507 C -0.02530 0.12229 0.47674
 C1508 C -0.02320 0.13311 0.46810
 C1509 C -0.02075 0.14578 0.45798
 C1510 C -0.01867 0.15660 0.44933
 C1511 C -0.01619 0.16951 0.43900
 C1512 C -0.02844 0.17960 0.43547
 C1513 C -0.02604 0.19214 0.42542
 C1514 C -0.01133 0.19475 0.41877
 C1515 C 0.00091 0.18454 0.42241
 C1516 C -0.00151 0.17201 0.43245
 H1517 H -0.00358 0.10696 0.49312
 H1518 H -0.05264 0.10876 0.48339
 H1519 H -0.05704 0.08687 0.50106
 H1520 H -0.00778 0.08486 0.51059
 H1521 H -0.03983 0.17780 0.44051
 H1522 H -0.03564 0.19990 0.42302
 H1523 H 0.01231 0.18613 0.41733
 H1524 H 0.00804 0.16424 0.43507
 C1525 C 0.48289 0.60579 0.99877
 C1526 C 0.47216 0.60910 0.98707
 C1527 C 0.45897 0.59982 0.98541
 C1528 C 0.45647 0.58726 0.99540
 C1529 C 0.46717 0.58365 1.00737
 C1530 C 0.48047 0.59325 1.00881
 C1531 C 0.47469 0.62202 0.97676
 C1532 C 0.47680 0.63285 0.96813
 C1533 C 0.47925 0.64552 0.95802
 C1534 C 0.48134 0.65634 0.94938
 C1535 C 0.48382 0.66927 0.93906
 C1536 C 0.47156 0.67936 0.93555
 C1537 C 0.47395 0.69191 0.92552
 C1538 C 0.48865 0.69454 0.91886
 C1539 C 0.50090 0.68432 0.92248
 C1540 C 0.49848 0.67177 0.93250
 H1541 H 0.49319 0.61290 1.00013
 H1542 H 0.45055 0.60231 0.97639
 H1543 H 0.44598 0.58063 0.99364
 H1544 H 0.48925 0.59119 1.01750
 H1545 H 0.46017 0.67756 0.94060
 H1546 H 0.46434 0.69968 0.92313
 H1547 H 0.51230 0.68591 0.91739
 H1548 H 0.50804 0.66401 0.93511
 C1549 C 0.52296 0.89004 1.00233
 C1550 C 0.52780 0.89093 0.98684
 C1551 C 0.53511 0.90440 0.98141
 C1552 C 0.53760 0.91693 0.99143
 C1553 C 0.53278 0.91617 1.00703
 C1554 C 0.52542 0.90257 1.01236
 C1555 C 0.52526 0.87802 0.97652
 C1556 C 0.52314 0.86721 0.96789
 C1557 C 0.52065 0.85454 0.95779
 C1558 C 0.51854 0.84372 0.94917
 C1559 C 0.51603 0.83080 0.93887
 C1560 C 0.52826 0.82068 0.93535
 C1561 C 0.52584 0.80813 0.92535
 C1562 C 0.51112 0.80552 0.91872
 C1563 C 0.49889 0.81575 0.92235
 C1564 C 0.50135 0.82831 0.93235
 H1565 H 0.51733 0.87965 1.00666
 H1566 H 0.53886 0.90522 0.96943
 H1567 H 0.54309 0.92729 0.98690
 H1568 H 0.52177 0.90152 1.02434
 H1569 H 0.53966 0.82247 0.94038
 H1570 H 0.53543 0.80034 0.92295
 H1571 H 0.48749 0.81417 0.91728
 H1572 H 0.49180 0.83609 0.93496
 C1573 C 0.01513 0.39793 0.49445
 C1574 C 0.02768 0.39115 0.48665
 C1575 C 0.04269 0.39695 0.48891
 C1576 C 0.04517 0.40949 0.49893
 C1577 C 0.03263 0.41639 0.50685
 C1578 C 0.01758 0.41045 0.50449
 C1579 C 0.02515 0.37824 0.47634
 C1580 C 0.02304 0.36742 0.46771
 C1581 C 0.02057 0.35475 0.45761
 C1582 C 0.01848 0.34393 0.44898
 C1583 C 0.01599 0.33100 0.43868
 C1584 C 0.02823 0.32089 0.43518
 C1585 C 0.02583 0.30833 0.42517
 C1586 C 0.01112 0.30571 0.41853
 C1587 C -0.00112 0.31594 0.42214
 C1588 C 0.00132 0.32850 0.43214
 H1589 H 0.00345 0.39355 0.49275
 H1590 H 0.05249 0.39176 0.48296
 H1591 H 0.05691 0.41362 0.50064
 H1592 H 0.00766 0.41562 0.51023
 H1593 H 0.03963 0.32269 0.44022
 H1594 H 0.03543 0.30055 0.42279
 H1595 H -0.01252 0.31436 0.41706
 H1596 H -0.00823 0.33628 0.43474
 C1597 C 0.38987 0.49764 0.47718
 C1598 C 0.39071 0.51312 0.47229
 C1599 C 0.40418 0.51857 0.46498
 C1600 C 0.41675 0.50857 0.46255
 C1601 C 0.41603 0.49297 0.46742
 C1602 C 0.40243 0.48763 0.47477
 C1603 C 0.37777 0.52342 0.47477
 C1604 C 0.36694 0.53204 0.47686
 C1605 C 0.35426 0.54215 0.47930
 C1606 C 0.34343 0.55079 0.48138
 C1607 C 0.33051 0.56111 0.48388
 C1608 C 0.32041 0.56464 0.47164
 C1609 C 0.30786 0.57467 0.47405
 C1610 C 0.30525 0.58130 0.48875
 C1611 C 0.31547 0.57767 0.50098
 C1612 C 0.32801 0.56764 0.49854
 H1613 H 0.37949 0.49329 0.48281
 H1614 H 0.40497 0.53054 0.46119
 H1615 H 0.42710 0.51311 0.45705
 H1616 H 0.40141 0.47566 0.47847
 H1617 H 0.32221 0.55961 0.46025
 H1618 H 0.30009 0.57707 0.46445
 H1619 H 0.31389 0.58274 0.51238
 H1620 H 0.33579 0.56502 0.50809
 C1621 C 0.89461 0.00120 -0.01702
 C1622 C 0.89134 0.01294 -0.02772
 C1623 C 0.90065 0.01463 -0.04088
 C1624 C 0.91321 0.00464 -0.04337
 C1625 C 0.91677 -0.00738 -0.03270
 C1626 C 0.90714 -0.00884 -0.01943
 C1627 C 0.87841 0.02324 -0.02520
 C1628 C 0.86758 0.03188 -0.02310
 C1629 C 0.85490 0.04198 -0.02065
 C1630 C 0.84408 0.05062 -0.01855
 C1631 C 0.83116 0.06094 -0.01604
 C1632 C 0.83218 0.07653 -0.02056
 C1633 C 0.81964 0.08656 -0.01814
 C1634 C 0.80589 0.08112 -0.01115
 C1635 C 0.80499 0.06543 -0.00664
 C1636 C 0.81754 0.05542 -0.00908
 H1637 H 0.88747 -0.00019 -0.00674
 H1638 H 0.89819 0.02368 -0.04927
 H1639 H 0.91987 0.00643 -0.05383
 H1640 H 0.90917 -0.01757 -0.01068
 H1641 H 0.84269 0.08093 -0.02592
 H1642 H 0.82077 0.09861 -0.02155
 H1643 H 0.79450 0.06084 -0.00143
 H1644 H 0.81661 0.04336 -0.00558
 C1645 C 0.60348 0.01086 0.04291
 C1646 C 0.60927 0.01315 0.02789
 C1647 C 0.60245 0.00540 0.01535
 C1648 C 0.58990 -0.00461 0.01779
 C1649 C 0.58397 -0.00701 0.03284
 C1650 C 0.59092 0.00086 0.04538
 C1651 C 0.62221 0.02345 0.02537
 C1652 C 0.63304 0.03206 0.02326
 C1653 C 0.64574 0.04215 0.02079
 C1654 C 0.65658 0.05076 0.01869
 C1655 C 0.66953 0.06105 0.01620
 C1656 C 0.68314 0.05549 0.00926
 C1657 C 0.69572 0.06548 0.00682
 C1658 C 0.69485 0.08117 0.01131
 C1659 C 0.68111 0.08664 0.01830
 C1660 C 0.66854 0.07664 0.02071
 H1661 H 0.60871 0.01677 0.05271
 H1662 H 0.60681 0.00713 0.00367
 H1663 H 0.58470 -0.01031 0.00787
 H1664 H 0.58680 -0.00088 0.05712
 H1665 H 0.68404 0.04344 0.00576
 H1666 H 0.70620 0.06087 0.00161
 H1667 H 0.68000 0.09870 0.02170
 H1668 H 0.65804 0.08107 0.02606
 C1669 C 0.09799 0.51634 0.53947
 C1670 C 0.10878 0.51318 0.52779
 C1671 C 0.10698 0.49997 0.51857
 C1672 C 0.09445 0.48992 0.52098
 C1673 C 0.08334 0.49286 0.53276
 C1674 C 0.08543 0.50635 0.54196
 C1675 C 0.12170 0.52349 0.52527
 C1676 C 0.13253 0.53212 0.52316
 C1677 C 0.14522 0.54222 0.52070
 C1678 C 0.15605 0.55085 0.51861
 C1679 C 0.16898 0.56115 0.51612
 C1680 C 0.17150 0.56767 0.50145
 C1681 C 0.18406 0.57769 0.49901
 C1682 C 0.19427 0.58132 0.51125
 C1683 C 0.19163 0.57470 0.52596
 C1684 C 0.17907 0.56468 0.52836
 H1685 H 0.09925 0.52658 0.54667
 H1686 H 0.11532 0.49738 0.50950
 H1687 H 0.09379 0.47983 0.51360
 H1688 H 0.07740 0.50950 0.55104
 H1689 H 0.16374 0.56506 0.49190
 H1690 H 0.18566 0.58275 0.48761
 H1691 H 0.19939 0.57710 0.53556
 H1692 H 0.17725 0.55966 0.53976
 C1693 C 0.10637 0.49956 -0.01776
 C1694 C 0.10883 0.48699 -0.02769
 C1695 C 0.09869 0.48445 -0.04008
 C1696 C 0.08612 0.49442 -0.04257
 C1697 C 0.08337 0.50728 -0.03267
 C1698 C 0.09383 0.50959 -0.02018
 C1699 C 0.12178 0.47670 -0.02518
 C1700 C 0.13261 0.46808 -0.02309
 C1701 C 0.14530 0.45798 -0.02066
 C1702 C 0.15614 0.44936 -0.01859
 C1703 C 0.16909 0.43906 -0.01612
 C1704 C 0.17916 0.43555 -0.02839
 C1705 C 0.19173 0.42553 -0.02602
 C1706 C 0.19439 0.41889 -0.01132
 C1707 C 0.18419 0.42250 0.00094
 C1708 C 0.17163 0.43252 -0.00146
 H1709 H 0.11418 0.50164 -0.00811
 H1710 H 0.10049 0.47471 -0.04785
 H1711 H 0.07871 0.49182 -0.05232
 H1712 H 0.09258 0.51910 -0.01212
 H1713 H 0.17732 0.44058 -0.03978
 H1714 H 0.19948 0.42314 -0.03563
 H1715 H 0.18581 0.41743 0.01233
 H1716 H 0.16387 0.43512 0.00810
 C1717 C 0.60707 1.00006 0.48156
 C1718 C 0.60903 0.98701 0.47214
 C1719 C 0.59840 0.98400 0.46029
 C1720 C 0.58582 0.99398 0.45782
 C1721 C 0.58356 1.00730 0.46721
 C1722 C 0.59452 1.01009 0.47917
 C1723 C 0.62198 0.97671 0.47463
 C1724 C 0.63281 0.96809 0.47671
 C1725 C 0.64550 0.95799 0.47915
 C1726 C 0.65633 0.94935 0.48123
 C1727 C 0.66925 0.93903 0.48373
 C1728 C 0.67936 0.93552 0.47149
 C1729 C 0.69191 0.92549 0.47389
 C1730 C 0.69452 0.91884 0.48860
 C1731 C 0.68429 0.92246 0.50082
 C1732 C 0.67174 0.93248 0.49839
 H1733 H 0.61527 1.00251 0.49078
 H1734 H 0.59980 0.97389 0.45292
 H1735 H 0.57795 0.99096 0.44856
 H1736 H 0.59371 1.02003 0.48674
 H1737 H 0.67756 0.94057 0.46010
 H1738 H 0.69969 0.92311 0.46430
 H1739 H 0.68587 0.91737 0.51222
 H1740 H 0.66396 0.93509 0.50793
 C1741 C 0.89003 1.00245 0.52315
 C1742 C 0.89090 0.98696 0.52800
 C1743 C 0.90436 0.98154 0.53534
 C1744 C 0.91690 0.99156 0.53782
 C1745 C 0.91616 1.00716 0.53297
 C1746 C 0.90257 1.01249 0.52560
 C1747 C 0.87799 0.97664 0.52546
 C1748 C 0.86718 0.96801 0.52333
 C1749 C 0.85451 0.95790 0.52084
 C1750 C 0.84368 0.94927 0.51871
 C1751 C 0.83076 0.93897 0.51619
 C1752 C 0.82064 0.93543 0.52841
 C1753 C 0.80808 0.92541 0.52597
 C1754 C 0.80548 0.91881 0.51125
 C1755 C 0.81571 0.92247 0.49904
 C1756 C 0.82827 0.93247 0.50150
 H1757 H 0.87965 1.00679 0.51750
 H1758 H 0.90517 0.96955 0.53910
 H1759 H 0.92725 0.98703 0.54332
 H1760 H 0.90153 1.02447 0.52193
 H1761 H 0.82243 0.94043 0.53981
 H1762 H 0.80030 0.92300 0.53555
 H1763 H 0.81414 0.91742 0.48763
 H1764 H 0.83605 0.93511 0.49197
 C1765 C 0.40431 0.48156 0.03505
 C1766 C 0.39086 0.48700 0.02772
 C1767 C 0.39001 0.50249 0.02286
 C1768 C 0.40255 0.51252 0.02532
 C1769 C 0.41613 0.50718 0.03270
 C1770 C 0.41686 0.49157 0.03754
 C1771 C 0.37794 0.47669 0.02518
 C1772 C 0.36712 0.46806 0.02307
 C1773 C 0.35445 0.45795 0.02060
 C1774 C 0.34362 0.44932 0.01850
 C1775 C 0.33069 0.43902 0.01600
 C1776 C 0.32817 0.43251 0.00133
 C1777 C 0.31562 0.42250 -0.00112
 C1778 C 0.30540 0.41885 0.01112
 C1779 C 0.30804 0.42545 0.02583
 C1780 C 0.32060 0.43547 0.02825
 H1781 H 0.40512 0.46958 0.03882
 H1782 H 0.37963 0.50683 0.01721
 H1783 H 0.40152 0.52449 0.02164
 H1784 H 0.42721 0.48704 0.04305
 H1785 H 0.33594 0.43515 -0.00822
 H1786 H 0.31402 0.41746 -0.01252
 H1787 H 0.30027 0.42304 0.03543
 H1788 H 0.32241 0.44048 0.03964
 C1789 C 0.49768 0.47705 0.39024
 C1790 C 0.51317 0.47219 0.39110
 C1791 C 0.51860 0.46487 0.40456
 C1792 C 0.50859 0.46241 0.41711
 C1793 C 0.49298 0.46725 0.41637
 C1794 C 0.48765 0.47461 0.40278
 C1795 C 0.52348 0.47470 0.37818
 C1796 C 0.53212 0.47679 0.36736
 C1797 C 0.54221 0.47925 0.35468
 C1798 C 0.55083 0.48135 0.34384
 C1799 C 0.56113 0.48386 0.33091
 C1800 C 0.56463 0.47163 0.32080
 C1801 C 0.57464 0.47405 0.30823
 C1802 C 0.58127 0.48877 0.30561
 C1803 C 0.57765 0.50099 0.31584
 C1804 C 0.56765 0.49854 0.32840
 H1805 H 0.49334 0.48268 0.37985
 H1806 H 0.53059 0.46111 0.40537
 H1807 H 0.51312 0.45691 0.42746
 H1808 H 0.47567 0.47828 0.40174
 H1809 H 0.55961 0.46023 0.32260
 H1810 H 0.57702 0.46446 0.30045
 H1811 H 0.58272 0.51240 0.31426
 H1812 H 0.56505 0.50808 0.33619
 C1813 C -0.00201 -0.02293 0.89022
 C1814 C 0.01347 -0.02783 0.89108
 C1815 C 0.01887 -0.03520 0.90452
 C1816 C 0.00884 -0.03768 0.91706
 C1817 C -0.00675 -0.03279 0.91632
 C1818 C -0.01205 -0.02537 0.90274
 C1819 C 0.02380 -0.02532 0.87817
 C1820 C 0.03244 -0.02320 0.86736
 C1821 C 0.04255 -0.02073 0.85470
 C1822 C 0.05119 -0.01862 0.84387
 C1823 C 0.06149 -0.01610 0.83095
 C1824 C 0.06501 -0.02832 0.82084
 C1825 C 0.07502 -0.02589 0.80828
 C1826 C 0.08163 -0.01117 0.80566
 C1827 C 0.07800 0.00105 0.81589
 C1828 C 0.06800 -0.00141 0.82845
 H1829 H -0.00632 -0.01725 0.87985
 H1830 H 0.03084 -0.03901 0.90533
 H1831 H 0.01335 -0.04322 0.92739
 H1832 H -0.02402 -0.02166 0.90171
 H1833 H 0.05999 -0.03973 0.82264
 H1834 H 0.07741 -0.03547 0.80050
 H1835 H 0.08306 0.01246 0.81431
 H1836 H 0.06538 0.00813 0.83623
 C1837 C -0.00226 0.02310 0.61021
 C1838 C 0.01322 0.02798 0.60935
 C1839 C 0.01865 0.03533 0.59590
 C1840 C 0.00863 0.03780 0.58336
 C1841 C -0.00697 0.03294 0.58409
 C1842 C -0.01229 0.02555 0.59767
 C1843 C 0.02353 0.02546 0.62226
 C1844 C 0.03217 0.02336 0.63308
 C1845 C 0.04228 0.02090 0.64575
 C1846 C 0.05092 0.01881 0.65657
 C1847 C 0.06124 0.01633 0.66948
 C1848 C 0.06477 0.02858 0.67956
 C1849 C 0.07481 0.02618 0.69210
 C1850 C 0.08144 0.01146 0.69473
 C1851 C 0.07780 -0.00078 0.68453
 C1852 C 0.06777 0.00165 0.67199
 H1853 H -0.00660 0.01745 0.62058
 H1854 H 0.03063 0.03911 0.59510
 H1855 H 0.01316 0.04332 0.57302
 H1856 H -0.02426 0.02186 0.59871
 H1857 H 0.05974 0.03997 0.67775
 H1858 H 0.07721 0.03578 0.69986
 H1859 H 0.08287 -0.01218 0.68613
 H1860 H 0.06515 -0.00790 0.66423
 C1861 C 0.49761 0.52315 0.11005
 C1862 C 0.51310 0.52803 0.10920
 C1863 C 0.51854 0.53537 0.09576
 C1864 C 0.50854 0.53784 0.08320
 C1865 C 0.49294 0.53298 0.08392
 C1866 C 0.48759 0.52560 0.09750
 C1867 C 0.52341 0.52549 0.12212
 C1868 C 0.53203 0.52337 0.13294
 C1869 C 0.54212 0.52089 0.14562
 C1870 C 0.55074 0.51879 0.15645
 C1871 C 0.56104 0.51628 0.16938
 C1872 C 0.56456 0.52852 0.17947
 C1873 C 0.57457 0.52610 0.19203
 C1874 C 0.58119 0.51138 0.19466
 C1875 C 0.57756 0.49915 0.18445
 C1876 C 0.56756 0.50160 0.17189
 H1877 H 0.49327 0.51750 0.12042
 H1878 H 0.53052 0.53915 0.09496
 H1879 H 0.51308 0.54336 0.07286
 H1880 H 0.47562 0.52191 0.09853
 H1881 H 0.55954 0.53992 0.17766
 H1882 H 0.57697 0.53570 0.19980
 H1883 H 0.58263 0.48775 0.18604
 H1884 H 0.56494 0.49205 0.16412
 C1885 C 0.49477 -0.01542 0.10255
 C1886 C 0.48700 -0.02798 0.10933
 C1887 C 0.48926 -0.04298 0.10350
 C1888 C 0.49925 -0.04542 0.09092
 C1889 C 0.50713 -0.03287 0.08402
 C1890 C 0.50478 -0.01783 0.08999
 C1891 C 0.47671 -0.02549 0.12227
 C1892 C 0.46809 -0.02341 0.13311
 C1893 C 0.45799 -0.02096 0.14578
 C1894 C 0.44936 -0.01886 0.15661
 C1895 C 0.43905 -0.01636 0.16952
 C1896 C 0.43551 -0.02860 0.17962
 C1897 C 0.42547 -0.02619 0.19216
 C1898 C 0.41884 -0.01147 0.19477
 C1899 C 0.42249 0.00077 0.18455
 C1900 C 0.43252 -0.00168 0.17201
 H1901 H 0.49307 -0.00375 0.10695
 H1902 H 0.48334 -0.05280 0.10869
 H1903 H 0.50096 -0.05715 0.08676
 H1904 H 0.51049 -0.00789 0.08482
 H1905 H 0.44053 -0.04000 0.17783
 H1906 H 0.42306 -0.03578 0.19993
 H1907 H 0.41742 0.01217 0.18613
 H1908 H 0.43515 0.00787 0.16424
 C1909 C 1.00230 0.47710 0.60999
 C1910 C 0.98681 0.47223 0.60915
 C1911 C 0.98136 0.46494 0.59570
 C1912 C 0.99135 0.46250 0.58313
 C1913 C 1.00695 0.46735 0.58384
 C1914 C 1.01231 0.47469 0.59743
 C1915 C 0.97652 0.47471 0.62210
 C1916 C 0.96791 0.47678 0.63294
 C1917 C 0.95782 0.47921 0.64563
 C1918 C 0.94920 0.48130 0.65646
 C1919 C 0.93890 0.48378 0.66939
 C1920 C 0.93537 0.47153 0.67948
 C1921 C 0.92535 0.47392 0.69203
 C1922 C 0.91872 0.48863 0.69467
 C1923 C 0.92235 0.50088 0.68446
 C1924 C 0.93237 0.49845 0.67191
 H1925 H 1.00666 0.48272 0.62037
 H1926 H 0.96937 0.46116 0.59491
 H1927 H 0.98680 0.45702 0.57278
 H1928 H 1.02428 0.47837 0.59845
 H1929 H 0.94040 0.46013 0.67767
 H1930 H 0.92296 0.46431 0.69980
 H1931 H 0.91728 0.51228 0.68606
 H1932 H 0.93498 0.50801 0.66414
 C1933 C 0.98901 0.54275 0.89681
 C1934 C 0.98675 0.52773 0.89102
 C1935 C 0.99454 0.51519 0.89783
 C1936 C 1.00456 0.51764 0.91036
 C1937 C 1.00693 0.53270 0.91628
 C1938 C 0.99902 0.54523 0.90936
 C1939 C 0.97644 0.52519 0.87811
 C1940 C 0.96782 0.52308 0.86729
 C1941 C 0.95772 0.52061 0.85462
 C1942 C 0.94909 0.51851 0.84380
 C1943 C 0.93878 0.51601 0.83087
 C1944 C 0.93226 0.50133 0.82837
 C1945 C 0.92225 0.49889 0.81582
 C1946 C 0.91862 0.51112 0.80560
 C1947 C 0.92525 0.52584 0.80822
 C1948 C 0.93526 0.52825 0.82077
 H1949 H 0.98308 0.55255 0.89160
 H1950 H 0.99284 0.50350 0.89347
 H1951 H 1.01029 0.50772 0.91555
 H1952 H 1.00074 0.55697 0.91348
 H1953 H 0.93488 0.49178 0.83615
 H1954 H 0.91719 0.48748 0.81424
 H1955 H 0.92285 0.53544 0.80045
 H1956 H 0.94028 0.53965 0.82258
 C1957 C 0.49468 0.01517 0.39781
 C1958 C 0.48685 0.02770 0.39104
 C1959 C 0.48909 0.04272 0.39684
 C1960 C 0.49911 0.04520 0.40938
 C1961 C 0.50704 0.03267 0.41628
 C1962 C 0.50471 0.01762 0.41034
 C1963 C 0.47654 0.02516 0.37813
 C1964 C 0.46790 0.02304 0.36732
 C1965 C 0.45779 0.02057 0.35465
 C1966 C 0.44916 0.01847 0.34384
 C1967 C 0.43885 0.01596 0.33092
 C1968 C 0.43231 0.00129 0.32843
 C1969 C 0.42230 -0.00115 0.31589
 C1970 C 0.41868 0.01108 0.30565
 C1971 C 0.42532 0.02579 0.30826
 C1972 C 0.43534 0.02820 0.32081
 H1973 H 0.49299 0.00349 0.39344
 H1974 H 0.48313 0.05251 0.39165
 H1975 H 0.50080 0.05694 0.41352
 H1976 H 0.51046 0.00771 0.41551
 H1977 H 0.43492 -0.00825 0.33621
 H1978 H 0.41722 -0.01255 0.31431
 H1979 H 0.42293 0.03538 0.30047
 H1980 H 0.44037 0.03960 0.32260
   
