data_POSCAR
  _audit_creation_date              2014-09-24
  _audit_creation_method            'ToBaCCo'
  _symmetry_space_group_name_H-M    'P1'
  _symmetry_Int_Tables_number       1
  _symmetry_cell_setting            triclinic
  loop_
  _symmetry_equiv_pos_as_xyz
 x,y,z
_cell_length_a 52.0276
_cell_length_b 49.1984
_cell_length_c 50.6573
_cell_angle_alpha 91.988100
_cell_angle_beta 92.081600
_cell_angle_gamma 90.910600
loop_
  _atom_site_label
  _atom_site_type_symbol
  _atom_site_fract_x
  _atom_site_fract_y
  _atom_site_fract_z
C1 C 0.73383 0.68605 0.97475
 H2 H 0.75343 0.69307 0.97265
 C3 C 0.71364 0.69941 0.96204
 H4 H 0.71796 0.71725 0.95099
 C5 C 0.70471 0.65373 0.99098
 H6 H 0.70136 0.63522 1.00128
 C7 C 0.68402 0.66617 0.97824
 H8 H 0.66504 0.65700 0.97916
 N9 N 0.72906 0.66377 0.98907
 C10 C 0.80334 0.65250 1.03029
 H11 H 0.80459 0.63075 1.02677
 C12 C 0.82417 0.66699 1.04218
 H13 H 0.84145 0.65615 1.04743
 C14 C 0.77968 0.69294 1.02604
 H15 H 0.76226 0.70295 1.01984
 C16 C 0.80007 0.70827 1.03801
 H17 H 0.79808 0.73004 1.04086
 Zn18 Zn 0.75729 0.64366 1.00217
 N19 N 0.78206 0.66569 1.02161
 C20 C 0.79565 0.63795 0.96463
 N21 N 0.77249 0.62817 0.97201
 C22 C 0.75841 0.61018 0.95619
 C23 C 0.76746 0.60153 0.93169
 C24 C 0.80536 0.62991 0.94036
 C25 C 0.73149 0.62674 1.04515
 C26 C 0.72155 0.60925 1.06333
 C27 C 0.74286 0.57202 1.04139
 C28 C 0.75171 0.59031 1.02300
 N29 N 0.74571 0.61705 1.02514
 H30 H 0.80618 0.65293 0.97698
 H31 H 0.73974 0.60330 0.96222
 H32 H 0.75571 0.58779 0.91900
 H33 H 0.82375 0.63810 0.93479
 H34 H 0.72775 0.64829 1.04687
 H35 H 0.71109 0.61850 1.07926
 H36 H 0.74750 0.55082 1.03840
 H37 H 0.76349 0.58314 1.00712
 C38 C 0.82299 0.69538 1.04561
 C39 C 0.68831 0.68922 0.96326
 C40 C 0.72694 0.58111 1.06192
 C41 C 0.79103 0.61186 0.92333
 C42 C 0.71339 0.36981 0.52793
 H43 H 0.72080 0.38563 0.54155
 C44 C 0.69215 0.35428 0.53478
 H45 H 0.68346 0.35822 0.55361
 C46 C 0.71400 0.34682 0.48603
 H47 H 0.72217 0.34461 0.46676
 C48 C 0.69236 0.33133 0.49183
 H49 H 0.68391 0.31712 0.47705
 N50 N 0.72358 0.36622 0.50370
 C51 C 0.80120 0.38865 0.48443
 H52 H 0.79960 0.41046 0.48675
 C53 C 0.82530 0.37736 0.48165
 H54 H 0.84201 0.39069 0.48099
 C55 C 0.78153 0.34483 0.48386
 H56 H 0.76454 0.33222 0.48547
 C57 C 0.80540 0.33261 0.48091
 H58 H 0.80657 0.31064 0.48013
 Zn59 Zn 0.74926 0.39088 0.49278
 N60 N 0.77990 0.37243 0.48551
 C61 C 0.76958 0.40447 0.54200
 N62 N 0.75804 0.41596 0.52077
 C63 C 0.75481 0.44332 0.51997
 C64 C 0.76357 0.46029 0.54136
 C65 C 0.77839 0.42048 0.56366
 C66 C 0.75351 0.42188 0.44655
 C67 C 0.74558 0.42973 0.42129
 C68 C 0.70349 0.41062 0.42844
 C69 C 0.71203 0.40361 0.45365
 N70 N 0.73700 0.40815 0.46180
 H71 H 0.77200 0.38267 0.54197
 H72 H 0.74582 0.45196 0.50267
 H73 H 0.76133 0.48208 0.54040
 H74 H 0.78710 0.41066 0.58048
 H75 H 0.77315 0.42571 0.45337
 H76 H 0.75918 0.43958 0.40887
 H77 H 0.68386 0.40578 0.42181
 H78 H 0.69884 0.39363 0.46628
 C79 C 0.82766 0.34901 0.48020
 C80 C 0.68102 0.33543 0.51628
 C81 C 0.72058 0.42309 0.41171
 C82 C 0.77582 0.44883 0.56345
 C83 C 0.22860 -0.17206 0.00192
 H84 H 0.24736 -0.18080 -0.00026
 C85 C 0.20857 -0.18782 0.01138
 H86 H 0.21212 -0.20862 0.01660
 C87 C 0.20109 -0.13436 -0.00212
 H88 H 0.19833 -0.11355 -0.00770
 C89 C 0.18064 -0.14926 0.00760
 H90 H 0.16208 -0.13985 0.00938
 N91 N 0.22455 -0.14582 -0.00452
 C92 C 0.30075 -0.14396 -0.00420
 H93 H 0.29927 -0.13042 0.01290
 C94 C 0.32324 -0.15861 -0.00751
 H95 H 0.33904 -0.15558 0.00685
 C96 C 0.28216 -0.16392 -0.04376
 H97 H 0.26610 -0.16594 -0.05784
 C98 C 0.30427 -0.17905 -0.04779
 H99 H 0.30486 -0.19278 -0.06491
 Zn100 Zn 0.25147 -0.12461 -0.01801
 N101 N 0.28093 -0.14645 -0.02245
 C102 C 0.28124 -0.07911 0.00132
 N103 N 0.26055 -0.09523 0.00615
 C104 C 0.24817 -0.09257 0.02928
 C105 C 0.25711 -0.07390 0.04899
 C106 C 0.29090 -0.06022 0.02058
 C107 C 0.22569 -0.13007 -0.06690
 C108 C 0.21595 -0.12283 -0.09162
 C109 C 0.23539 -0.07831 -0.08398
 C110 C 0.24452 -0.08645 -0.05921
 N111 N 0.23978 -0.11206 -0.05128
 H112 H 0.29121 -0.08205 -0.01691
 H113 H 0.23205 -0.10574 0.03307
 H114 H 0.24736 -0.07264 0.06751
 H115 H 0.30823 -0.04870 0.01690
 H116 H 0.22155 -0.15013 -0.05990
 H117 H 0.20375 -0.13785 -0.10207
 H118 H 0.24102 -0.05814 -0.08946
 H119 H 0.25562 -0.07225 -0.04651
 C120 C 0.32535 -0.17625 -0.02969
 C121 C 0.18426 -0.17637 0.01443
 C122 C 0.22066 -0.09648 -0.10115
 C123 C 0.27921 -0.05800 0.04509
 C124 C 0.21602 0.13585 0.46172
 H125 H 0.22240 0.12678 0.44344
 C126 C 0.19415 0.15179 0.46126
 H127 H 0.18403 0.15462 0.44253
 C128 C 0.21993 0.14080 0.50840
 H129 H 0.22967 0.13563 0.52674
 C130 C 0.19814 0.15701 0.50884
 H131 H 0.19154 0.16475 0.52763
 N132 N 0.22814 0.13025 0.48509
 C133 C 0.30605 0.10137 0.49614
 H134 H 0.30311 0.08106 0.48756
 C135 C 0.33080 0.11067 0.50324
 H136 H 0.34676 0.09710 0.50066
 C137 C 0.28865 0.14377 0.50925
 H138 H 0.27220 0.15678 0.51087
 C139 C 0.31323 0.15402 0.51649
 H140 H 0.31549 0.17493 0.52368
 Zn141 Zn 0.25381 0.10356 0.48536
 N142 N 0.28559 0.11786 0.49923
 C143 C 0.27303 0.11137 0.43687
 N144 N 0.25977 0.09246 0.45006
 C145 C 0.25230 0.06824 0.43823
 C146 C 0.25824 0.06245 0.41183
 C147 C 0.27964 0.10632 0.41086
 C148 C 0.25819 0.06500 0.52556
 C149 C 0.24849 0.04922 0.54538
 C150 C 0.20584 0.05392 0.52584
 C151 C 0.21645 0.06924 0.50603
 N152 N 0.24212 0.07512 0.50664
 H153 H 0.27878 0.13043 0.44681
 H154 H 0.24172 0.05355 0.44917
 H155 H 0.25194 0.04321 0.40257
 H156 H 0.29109 0.12146 0.40140
 H157 H 0.27837 0.07035 0.52633
 H158 H 0.26147 0.04251 0.56094
 H159 H 0.18523 0.05048 0.52581
 H160 H 0.20396 0.07796 0.49115
 C161 C 0.33472 0.13747 0.51312
 C162 C 0.18454 0.16207 0.48507
 C163 C 0.22191 0.04427 0.54620
 C164 C 0.27222 0.08165 0.39779
 C165 C 0.14992 0.45882 0.23020
 H166 H 0.14086 0.44232 0.24008
 C167 C 0.16296 0.45323 0.20705
 H168 H 0.16336 0.43247 0.19929
 C169 C 0.15877 0.50595 0.22730
 H170 H 0.15652 0.52654 0.23489
 C171 C 0.17214 0.50126 0.20419
 H172 H 0.18045 0.51839 0.19449
 N173 N 0.14711 0.48496 0.23920
 C174 C 0.12038 0.51813 0.31402
 H175 H 0.10014 0.51397 0.30975
 C176 C 0.12819 0.53145 0.33764
 H177 H 0.11374 0.53711 0.35156
 C178 C 0.16354 0.51496 0.30095
 H179 H 0.17711 0.50850 0.28643
 C180 C 0.17226 0.52868 0.32444
 H181 H 0.19261 0.53301 0.32773
 Zn182 Zn 0.12271 0.49300 0.26526
 N183 N 0.13791 0.51013 0.29625
 C184 C 0.11115 0.45203 0.30033
 N185 N 0.10628 0.46000 0.27520
 C186 C 0.09198 0.44390 0.25763
 C187 C 0.08160 0.41906 0.26535
 C188 C 0.10106 0.42764 0.30886
 C189 C 0.10764 0.54507 0.25378
 C190 C 0.09323 0.56600 0.24326
 C191 C 0.06137 0.53274 0.22709
 C192 C 0.07636 0.51232 0.23828
 N193 N 0.09925 0.51876 0.25105
 H194 H 0.12350 0.46413 0.31381
 H195 H 0.08924 0.44987 0.23741
 H196 H 0.07024 0.40650 0.25120
 H197 H 0.10558 0.42167 0.32886
 H198 H 0.12580 0.54991 0.26403
 H199 H 0.10040 0.58671 0.24609
 H200 H 0.04364 0.52710 0.21631
 H201 H 0.06981 0.49142 0.23628
 C202 C 0.15438 0.53740 0.34301
 C203 C 0.17339 0.47472 0.19311
 C204 C 0.06995 0.56005 0.22921
 C205 C 0.08601 0.41080 0.29137
 C206 C -0.14585 0.03863 0.23353
 H207 H -0.14501 0.04541 0.25410
 C208 C -0.15888 0.05400 0.21501
 H209 H -0.16878 0.07173 0.22229
 C210 C -0.13459 0.00643 0.20038
 H211 H -0.12472 -0.01196 0.19481
 C212 C -0.14759 0.02122 0.18100
 H213 H -0.14687 0.01392 0.16067
 N214 N -0.13382 0.01547 0.22605
 C215 C -0.12878 -0.03071 0.29811
 H216 H -0.10940 -0.03819 0.29728
 C217 C -0.14391 -0.03729 0.31928
 H218 H -0.13580 -0.04929 0.33495
 C219 C -0.16294 -0.00613 0.27878
 H220 H -0.17063 0.00563 0.26289
 C221 C -0.17861 -0.01196 0.29969
 H222 H -0.19805 -0.00439 0.29970
 Zn223 Zn -0.11506 -0.00216 0.25324
 N224 N -0.13810 -0.01448 0.27889
 C225 C -0.07871 0.01738 0.29295
 N226 N -0.09136 0.02371 0.27003
 C227 C -0.08781 0.04847 0.25935
 C228 C -0.07254 0.06851 0.27266
 C229 C -0.06295 0.03672 0.30672
 C230 C -0.10893 -0.05628 0.23350
 C231 C -0.09486 -0.07935 0.22662
 C232 C -0.05587 -0.05211 0.23188
 C233 C -0.07061 -0.02968 0.23870
 N234 N -0.09660 -0.03220 0.23980
 H235 H -0.08106 -0.00252 0.30085
 H236 H -0.09691 0.05291 0.24056
 H237 H -0.07037 0.08827 0.26413
 H238 H -0.05365 0.03157 0.32532
 H239 H -0.12962 -0.05778 0.23472
 H240 H -0.10489 -0.09857 0.22256
 H241 H -0.03519 -0.04959 0.23125
 H242 H -0.06120 -0.01032 0.24358
 C243 C -0.16890 -0.02713 0.32060
 C244 C -0.15965 0.04588 0.18800
 C245 C -0.06788 -0.07754 0.22628
 C246 C -0.06022 0.06285 0.29686
 C247 C 0.33058 0.50866 0.73528
 H248 H 0.32821 0.51250 0.75619
 C249 C 0.31723 0.52416 0.71702
 H250 H 0.30429 0.53964 0.72401
 C251 C 0.35199 0.48545 0.70087
 H252 H 0.36635 0.47107 0.69485
 C253 C 0.33895 0.50054 0.68186
 H254 H 0.34339 0.49772 0.66123
 N255 N 0.34818 0.49040 0.72702
 C256 C 0.36195 0.46890 0.80754
 H257 H 0.38160 0.47575 0.81096
 C258 C 0.34728 0.46244 0.82908
 H259 H 0.35579 0.46457 0.84888
 C260 C 0.32671 0.45813 0.77789
 H261 H 0.31882 0.45634 0.75785
 C262 C 0.31128 0.45178 0.79884
 H263 H 0.29158 0.44501 0.79478
 Zn264 Zn 0.37079 0.47620 0.75294
 N265 N 0.35148 0.46680 0.78252
 C266 C 0.41629 0.49849 0.77959
 N267 N 0.39598 0.50375 0.76292
 C268 C 0.39250 0.52915 0.75371
 C269 C 0.40868 0.55070 0.76246
 C270 C 0.43311 0.51954 0.78878
 C271 C 0.37140 0.42151 0.73660
 C272 C 0.38161 0.39734 0.72673
 C273 C 0.42186 0.42121 0.72098
 C274 C 0.41096 0.44491 0.73131
 N275 N 0.38617 0.44458 0.73895
 H276 H 0.41916 0.47805 0.78619
 H277 H 0.37681 0.53306 0.73996
 H278 H 0.40520 0.57082 0.75523
 H279 H 0.44861 0.51520 0.80276
 H280 H 0.35166 0.42184 0.74250
 H281 H 0.36956 0.37916 0.72498
 H282 H 0.44166 0.42169 0.71510
 H283 H 0.42223 0.46358 0.73304
 C284 C 0.32154 0.45401 0.82483
 C285 C 0.32214 0.52093 0.69005
 C286 C 0.40715 0.39701 0.71879
 C287 C 0.42895 0.54619 0.78068
 C288 C 0.67405 0.98359 0.73259
 H289 H 0.68090 0.98825 0.75266
 C290 C 0.69149 0.97593 0.71345
 H291 H 0.71174 0.97484 0.71895
 C292 C 0.63940 0.97935 0.70094
 H293 H 0.61898 0.98048 0.69636
 C294 C 0.65611 0.97171 0.68122
 H295 H 0.64831 0.96662 0.66153
 N296 N 0.64850 0.98462 0.72612
 C297 C 0.65119 0.98417 0.79847
 H298 H 0.65148 0.96354 0.79036
 C299 C 0.66199 0.99024 0.82363
 H300 H 0.67125 0.97399 0.83398
 C301 C 0.63930 1.02999 0.79371
 H302 H 0.62991 1.04529 0.78217
 C303 C 0.65020 1.03711 0.81866
 H304 H 0.64836 1.05792 0.82585
 Zn305 Zn 0.62379 0.99307 0.75142
 N306 N 0.63999 1.00389 0.78416
 C307 C 0.60951 0.93757 0.74440
 N308 N 0.60356 0.96139 0.75700
 C309 C 0.58483 0.96231 0.77504
 C310 C 0.57088 0.93878 0.78055
 C311 C 0.59634 0.91354 0.74958
 C312 C 0.61661 1.04249 0.72712
 C313 C 0.60325 1.06288 0.71424
 C314 C 0.56341 1.04046 0.72451
 C315 C 0.57755 1.02021 0.73672
 N316 N 0.60369 1.02153 0.73776
 H317 H 0.62505 0.93690 0.73086
 H318 H 0.58092 0.98132 0.78539
 H319 H 0.55580 0.94014 0.79467
 H320 H 0.60212 0.89478 0.73989
 H321 H 0.63742 1.04286 0.72789
 H322 H 0.61408 1.07862 0.70494
 H323 H 0.54262 1.03906 0.72425
 H324 H 0.56756 1.00328 0.74493
 C325 C 0.66155 1.01707 0.83444
 C326 C 0.68250 0.96956 0.68743
 C327 C 0.57621 1.06194 0.71252
 C328 C 0.57667 0.91383 0.76788
 C329 C 0.03176 0.23543 -0.14185
 H330 H 0.03664 0.25661 -0.13750
 C331 C 0.04791 0.21944 -0.15713
 H332 H 0.06487 0.22874 -0.16498
 C333 C 0.00379 0.19772 -0.13651
 H334 H -0.01304 0.18915 -0.12785
 C335 C 0.01956 0.18091 -0.15141
 H336 H 0.01456 0.15952 -0.15391
 N337 N 0.01009 0.22446 -0.13204
 C338 C -0.04065 0.29112 -0.11367
 H339 H -0.04525 0.28556 -0.09390
 C340 C -0.05400 0.31188 -0.12579
 H341 H -0.06877 0.32247 -0.11519
 C342 C -0.01664 0.28316 -0.15202
 H343 H -0.00273 0.27131 -0.16249
 C344 C -0.02928 0.30420 -0.16476
 H345 H -0.02490 0.30857 -0.18493
 Zn346 Zn -0.00965 0.24653 -0.10938
 N347 N -0.02261 0.27702 -0.12694
 C348 C 0.01612 0.28497 -0.07448
 N349 N 0.01230 0.25800 -0.08033
 C350 C 0.02689 0.23896 -0.06836
 C351 C 0.04728 0.24690 -0.05085
 C352 C 0.03604 0.29377 -0.05688
 C353 C -0.05640 0.22040 -0.11891
 C354 C -0.08044 0.20946 -0.11360
 C355 C -0.06855 0.21237 -0.06708
 C356 C -0.04459 0.22326 -0.07344
 N357 N -0.03913 0.22723 -0.09901
 H358 H 0.00458 0.29984 -0.08439
 H359 H 0.02372 0.21766 -0.07370
 H360 H 0.05965 0.23148 -0.04289
 H361 H 0.03906 0.31538 -0.05301
 H362 H -0.05180 0.22454 -0.13906
 H363 H -0.09363 0.20628 -0.13039
 H364 H -0.07142 0.20895 -0.04646
 H365 H -0.03059 0.22911 -0.05788
 C366 C -0.04857 0.31835 -0.15173
 C367 C 0.04206 0.19166 -0.16189
 C368 C -0.08752 0.20543 -0.08722
 C369 C 0.05259 0.27471 -0.04557
 C370 C 0.47646 0.22493 0.15936
 H371 H 0.46778 0.24407 0.16477
 C372 C 0.47207 0.20194 0.17429
 H373 H 0.46031 0.20361 0.19145
 C374 C 0.50171 0.19918 0.12998
 H375 H 0.51242 0.19771 0.11216
 C376 C 0.49794 0.17591 0.14430
 H377 H 0.50604 0.15697 0.13728
 N378 N 0.49119 0.22316 0.13771
 C379 C 0.51117 0.30621 0.11788
 H380 H 0.50607 0.30384 0.09702
 C381 C 0.51903 0.33155 0.12851
 H382 H 0.52016 0.34867 0.11570
 C383 C 0.51532 0.28670 0.15996
 H384 H 0.51357 0.26914 0.17206
 C385 C 0.52370 0.31181 0.17143
 H386 H 0.52827 0.31359 0.19245
 Zn387 Zn 0.49496 0.25318 0.11548
 N388 N 0.50881 0.28462 0.13368
 C389 C 0.45030 0.28293 0.11536
 N390 N 0.46148 0.26193 0.10217
 C391 C 0.44793 0.24669 0.08330
 C392 C 0.42223 0.25285 0.07681
 C393 C 0.42484 0.28950 0.10978
 C394 C 0.54302 0.24053 0.10100
 C395 C 0.56337 0.23211 0.08589
 C396 C 0.53527 0.23274 0.04690
 C397 C 0.51515 0.24105 0.06298
 N398 N 0.51932 0.24416 0.08963
 H399 H 0.46079 0.29417 0.13106
 H400 H 0.45680 0.22942 0.07375
 H401 H 0.41152 0.24052 0.06195
 H402 H 0.41644 0.30627 0.12067
 H403 H 0.54590 0.24352 0.12217
 H404 H 0.58194 0.22896 0.09556
 H405 H 0.53172 0.22963 0.02581
 H406 H 0.49631 0.24457 0.05422
 C407 C 0.52501 0.33467 0.15563
 C408 C 0.48296 0.17700 0.16677
 C409 C 0.55959 0.22757 0.05856
 C410 C 0.41035 0.27428 0.09052
 C411 C 0.96145 0.71376 0.64724
 H412 H 0.94603 0.72496 0.63810
 C413 C 0.95557 0.69191 0.66292
 H414 H 0.93558 0.68661 0.66557
 C415 C 1.00600 0.70830 0.65634
 H416 H 1.02563 0.71499 0.65375
 C417 C 1.00101 0.68608 0.67191
 H418 H 1.01703 0.67551 0.68081
 N419 N 0.98636 0.72113 0.64375
 C420 C 1.03235 0.78722 0.64482
 H421 H 1.04579 0.77582 0.63326
 C422 C 1.04109 0.80998 0.65994
 H423 H 1.06123 0.81579 0.65970
 C424 C 0.99031 0.79243 0.66043
 H425 H 0.97051 0.78541 0.66048
 C426 C 0.99813 0.81558 0.67553
 H427 H 0.98399 0.82644 0.68675
 Zn428 Zn 0.99445 0.75038 0.62195
 N429 N 1.00712 0.77951 0.64455
 C430 C 0.95694 0.78710 0.60307
 N431 N 0.96473 0.76085 0.60234
 C432 C 0.95118 0.74122 0.58797
 C433 C 0.92782 0.74730 0.57522
 C434 C 0.93379 0.79410 0.59055
 C435 C 1.03099 0.76015 0.58389
 C436 C 1.05232 0.75447 0.56879
 C437 C 1.04782 0.70720 0.57942
 C438 C 1.02691 0.71389 0.59471
 N439 N 1.01966 0.74021 0.59759
 H440 H 0.96844 0.80268 0.61361
 H441 H 0.95812 0.72061 0.58721
 H442 H 0.91697 0.73130 0.56440
 H443 H 0.92745 0.81492 0.59228
 H444 H 1.02443 0.78084 0.58603
 H445 H 1.06220 0.77107 0.55974
 H446 H 1.05355 0.68617 0.57784
 H447 H 1.01688 0.69810 0.60471
 C448 C 1.02375 0.82501 0.67499
 C449 C 0.97549 0.67739 0.67517
 C450 C 1.06157 0.72780 0.56714
 C451 C 0.91864 0.77396 0.57685
 C452 C 0.51781 0.73330 0.34327
 H453 H 0.51260 0.75294 0.33608
 C454 C 0.53203 0.71575 0.32751
 H455 H 0.53756 0.72190 0.30816
 C456 C 0.51802 0.70162 0.37752
 H457 H 0.51314 0.69665 0.39738
 C458 C 0.53181 0.68325 0.36222
 H459 H 0.53746 0.66406 0.37032
 N460 N 0.51154 0.72621 0.36797
 C461 C 0.45512 0.77811 0.36671
 H462 H 0.44390 0.76241 0.37548
 C463 C 0.44267 0.79640 0.35060
 H464 H 0.42194 0.79473 0.34862
 C465 C 0.49531 0.79955 0.36034
 H466 H 0.51592 0.80032 0.36403
 C467 C 0.48356 0.81849 0.34395
 H468 H 0.49573 0.83328 0.33492
 Zn469 Zn 0.49607 0.75180 0.39100
 N470 N 0.48101 0.77959 0.37094
 C471 C 0.51756 0.78898 0.43079
 N472 N 0.52206 0.76692 0.41473
 C473 C 0.54601 0.75632 0.41350
 C474 C 0.56655 0.76799 0.42841
 C475 C 0.53768 0.80124 0.44631
 C476 C 0.45759 0.71220 0.39585
 C477 C 0.43395 0.70237 0.40379
 C478 C 0.43457 0.73742 0.43838
 C479 C 0.45833 0.74660 0.42980
 N480 N 0.46910 0.73425 0.40854
 H481 H 0.49861 0.79767 0.43087
 H482 H 0.54956 0.73916 0.40043
 H483 H 0.58547 0.75934 0.42688
 H484 H 0.53402 0.81917 0.45851
 H485 H 0.46577 0.70332 0.37834
 H486 H 0.42484 0.68525 0.39294
 H487 H 0.42567 0.74831 0.45449
 H488 H 0.46734 0.76454 0.43914
 C489 C 0.45678 0.81673 0.33817
 C490 C 0.53940 0.69056 0.33714
 C491 C 0.42172 0.71557 0.42473
 C492 C 0.56262 0.79094 0.44479
 C493 C 0.39227 -0.03113 0.24333
 C494 C 0.37833 -0.03283 0.21617
 C495 C 0.36943 -0.00882 0.20760
 C496 C 0.37609 0.01538 0.22670
 C497 C 0.41388 -0.01009 0.24009
 C498 C 0.40573 0.01443 0.23109
 C499 C 0.37379 -0.01689 0.26166
 C500 C 0.36492 0.00741 0.25332
 H501 H 0.37668 -0.05146 0.20414
 H502 H 0.36859 0.03445 0.21889
 H503 H 0.43379 -0.01464 0.24410
 H504 H 0.36964 -0.02514 0.28056
 C505 C 0.12003 1.03986 0.74742
 C506 C 0.13475 1.04180 0.72188
 C507 C 0.14222 1.01745 0.71146
 C508 C 0.13416 0.99309 0.72761
 C509 C 0.09753 1.01980 0.74039
 C510 C 0.10499 0.99536 0.73012
 C511 C 0.13758 1.02375 0.76605
 C512 C 0.14498 0.99914 0.75594
 H513 H 0.13918 1.06102 0.71314
 H514 H 0.13996 0.97337 0.71872
 H515 H 0.07778 1.02311 0.74525
 H516 H 0.14117 1.03016 0.78652
 C517 C 0.62316 0.54083 0.24926
 C518 C 0.63808 0.54373 0.22400
 C519 C 0.64637 0.51993 0.21308
 C520 C 0.63892 0.49488 0.22872
 C521 C 0.60132 0.52059 0.24091
 C522 C 0.60938 0.49657 0.23000
 C523 C 0.64085 0.52524 0.26767
 C524 C 0.64929 0.50121 0.25732
 H525 H 0.64122 0.56316 0.21517
 H526 H 0.64569 0.47555 0.21974
 H527 H 0.58120 0.52544 0.24198
 H528 H 0.64463 0.53196 0.28804
 C529 C 0.88298 0.47663 0.76467
 C530 C 0.86703 0.47399 0.73869
 C531 C 0.85944 0.49804 0.72885
 C532 C 0.86857 0.52291 0.74591
 C533 C 0.90556 0.49585 0.75854
 C534 C 0.89792 0.52002 0.74865
 C535 C 0.86669 0.49374 0.78334
 C536 C 0.85913 0.51796 0.77377
 H537 H 0.86232 0.45454 0.72888
 H538 H 0.86229 0.54245 0.73776
 H539 H 0.92564 0.49116 0.76139
 H540 H 0.86377 0.48816 0.80352
 C541 C 0.24853 0.38891 -0.01553
 C542 C 0.22479 0.37029 -0.01981
 C543 C 0.21611 0.35916 0.00248
 C544 C 0.23271 0.36709 0.02740
 C545 C 0.24141 0.40955 0.00615
 C546 C 0.23271 0.39849 0.02851
 C547 C 0.26857 0.37107 -0.00193
 C548 C 0.26047 0.35931 0.02042
 H549 H 0.21572 0.36633 -0.03917
 H550 H 0.22555 0.35790 0.04542
 H551 H 0.24326 0.43127 0.00374
 H552 H 0.28806 0.36928 -0.00816
 C553 C 0.75366 0.12042 1.03587
 C554 C 0.72984 0.13804 1.03842
 C555 C 0.71926 0.14615 1.01509
 C556 C 0.73391 0.13591 0.99089
 C557 C 0.74452 0.09676 1.01692
 C558 C 0.73386 0.10463 0.99328
 C559 C 0.77211 0.13690 1.01981
 C560 C 0.76225 0.14499 0.99623
 H561 H 0.72169 0.14293 1.05733
 H562 H 0.72554 0.14337 0.97222
 H563 H 0.74604 0.07577 1.02193
 H564 H 0.79230 0.13926 1.02559
 C565 C 0.25838 0.62490 0.54322
 C566 C 0.23820 0.64632 0.54963
 C567 C 0.22860 0.65955 0.52842
 C568 C 0.24070 0.65047 0.50244
 C569 C 0.24475 0.60598 0.52180
 C570 C 0.23539 0.61966 0.50055
 C571 C 0.27895 0.64007 0.52851
 C572 C 0.26997 0.65346 0.50719
 H573 H 0.23102 0.64923 0.56930
 H574 H 0.23321 0.66120 0.48496
 H575 H 0.24018 0.58474 0.52428
 H576 H 0.29927 0.63820 0.53341
 C577 C 0.75931 0.90474 0.47856
 C578 C 0.73406 0.88889 0.47294
 C579 C 0.72711 0.87259 0.49272
 C580 C 0.74654 0.87300 0.51627
 C581 C 0.75575 0.91983 0.50539
 C582 C 0.74921 0.90308 0.52503
 C583 C 0.77928 0.88306 0.48511
 C584 C 0.77261 0.86636 0.50464
 H585 H 0.72162 0.89235 0.45582
 H586 H 0.74106 0.85955 0.53237
 H587 H 0.76001 0.94123 0.50921
 H588 H 0.79777 0.88201 0.47605
 C589 C -0.01775 0.26127 0.42583
 C590 C -0.02512 0.23588 0.40836
 C591 C -0.00486 0.22471 0.39570
 C592 C 0.02081 0.24014 0.40139
 C593 C 0.00392 0.25147 0.44428
 C594 C 0.02415 0.24049 0.43170
 C595 C -0.00467 0.28055 0.40733
 C596 C 0.01539 0.26972 0.39442
 H597 H -0.04368 0.22568 0.40842
 H598 H 0.03720 0.23130 0.39086
 H599 H 0.00288 0.25259 0.46559
 H600 H -0.01179 0.30071 0.40373
 C601 C 1.03959 0.75494 0.10881
 C602 C 1.04207 0.72794 0.12276
 C603 C 1.02204 0.72147 0.13813
 C604 C 1.00077 0.74304 0.13794
 C605 C 1.01363 0.75275 0.09358
 C606 C 0.99332 0.74668 0.10866
 C607 C 1.03524 0.77586 0.13148
 C608 C 1.01481 0.76981 0.14638
 H609 H 1.05851 0.71501 0.12030
 H610 H 0.98424 0.73850 0.15041
 H611 H 1.01147 0.75669 0.07271
 H612 H 1.04613 0.79456 0.13504
 C613 C 0.53007 0.25339 0.58790
 C614 C 0.53874 0.23035 0.60593
 C615 C 0.51891 0.21781 0.61797
 C616 C 0.49241 0.22984 0.61136
 C617 C 0.50975 0.23955 0.56902
 C618 C 0.49004 0.22734 0.58112
 C619 C 0.51505 0.27257 0.60574
 C620 C 0.49536 0.26050 0.61813
 H621 H 0.55787 0.22205 0.60622
 H622 H 0.47635 0.21974 0.62120
 H623 H 0.51150 0.23866 0.54777
 H624 H 0.52066 0.29372 0.60922
 C625 C 0.47865 0.75090 0.89500
 C626 C 0.47120 0.72454 0.87946
 C627 C 0.48858 0.71635 0.86155
 C628 C 0.51187 0.73576 0.86035
 C629 C 0.50577 0.74577 0.90702
 C630 C 0.52321 0.73797 0.88883
 C631 C 0.48360 0.77191 0.87396
 C632 C 0.50081 0.76400 0.85580
 H633 H 0.45453 0.71230 0.88393
 H634 H 0.52572 0.72933 0.84531
 H635 H 0.51154 0.75073 0.92735
 H636 H 0.47545 0.79204 0.87445
 C637 C 0.44023 -0.12223 0.29917
 C638 C 0.41742 -0.13114 0.28718
 C639 C 0.40714 -0.15688 0.29032
 C640 C 0.42073 -0.17422 0.30683
 C641 C 0.44422 -0.16567 0.32038
 C642 C 0.45423 -0.13917 0.31578
 O643 O 0.44599 -0.09653 0.29413
 C644 C 0.42630 -0.08920 0.27862
 C645 C 0.40833 -0.10971 0.27391
 C646 C 0.38541 -0.10624 0.25977
 C647 C 0.38080 -0.08056 0.24985
 C648 C 0.39932 -0.05897 0.25339
 C649 C 0.42231 -0.06344 0.26854
 H650 H 0.38920 -0.16343 0.28041
 H651 H 0.41296 -0.19460 0.30826
 H652 H 0.47154 -0.13113 0.32584
 H653 H 0.37122 -0.12253 0.25709
 H654 H 0.36247 -0.07739 0.23973
 H655 H 0.43627 -0.04736 0.27328
 C656 C 0.93130 0.38001 0.81078
 C657 C 0.90499 0.37669 0.81056
 C658 C 0.89284 0.35481 0.82181
 C659 C 0.90846 0.33560 0.83397
 C660 C 0.93565 0.33848 0.83447
 C661 C 0.94726 0.36087 0.82244
 O662 O 0.93880 0.40293 0.80000
 C663 C 0.91672 0.41426 0.79282
 C664 C 0.89554 0.39891 0.79876
 C665 C 0.87053 0.40707 0.79358
 C666 C 0.86718 0.43222 0.78198
 C667 C 0.88860 0.44896 0.77594
 C668 C 0.91386 0.43950 0.78132
 H669 H 0.87209 0.35282 0.82158
 H670 H 0.89944 0.31846 0.84306
 H671 H 0.96795 0.36368 0.82288
 H672 H 0.85417 0.39464 0.79854
 H673 H 0.84775 0.43900 0.77804
 H674 H 0.93088 0.45119 0.77727
 C675 C 0.06727 1.13406 0.79522
 C676 C 0.09335 1.13850 0.79847
 C677 C 0.10392 1.16022 0.81370
 C678 C 0.08691 1.17791 0.82627
 C679 C 0.05982 1.17373 0.82336
 C680 C 0.05001 1.15153 0.80724
 O681 O 0.06115 1.11151 0.78111
 C682 C 0.08388 1.10141 0.77543
 C683 C 0.10421 1.11720 0.78546
 C684 C 0.12965 1.10989 0.78252
 C685 C 0.13427 1.08506 0.76919
 C686 C 0.11363 1.06773 0.75942
 C687 C 0.08800 1.07671 0.76206
 H688 H 0.12454 1.16307 0.81636
 H689 H 0.09495 1.19431 0.83893
 H690 H 0.02955 1.14766 0.80438
 H691 H 0.14539 1.12261 0.79061
 H692 H 0.15399 1.07886 0.76707
 H693 H 0.07145 1.06504 0.75456
 C694 C 0.56730 0.62851 0.30401
 C695 C 0.58993 0.63931 0.29540
 C696 C 0.59678 0.66663 0.29914
 C697 C 0.57963 0.68351 0.31242
 C698 C 0.55640 0.67274 0.32191
 C699 C 0.55017 0.64482 0.31762
 O700 O 0.56433 0.60213 0.29812
 C701 C 0.58557 0.59615 0.28556
 C702 C 0.60194 0.61812 0.28360
 C703 C 0.62565 0.61623 0.27208
 C704 C 0.63252 0.59076 0.26157
 C705 C 0.61533 0.56794 0.26176
 C706 C 0.59184 0.57070 0.27492
 H707 H 0.61468 0.67466 0.29210
 H708 H 0.58466 0.70482 0.31585
 H709 H 0.53251 0.63615 0.32462
 H710 H 0.63854 0.63367 0.27144
 H711 H 0.65128 0.58893 0.25320
 H712 H 0.57881 0.55368 0.27718
 C713 C 0.56064 0.39380 0.19073
 C714 C 0.54459 0.41473 0.18433
 C715 C 0.52166 0.41071 0.16971
 C716 C 0.51515 0.38406 0.16099
 C717 C 0.53145 0.36209 0.16707
 C718 C 0.55436 0.36700 0.18253
 O719 O 0.58197 0.40225 0.20396
 C720 C 0.57928 0.42905 0.20591
 C721 C 0.55672 0.43767 0.19428
 C722 C 0.55028 0.46492 0.19343
 C723 C 0.56772 0.48409 0.20524
 C724 C 0.59115 0.47584 0.21767
 C725 C 0.59696 0.44781 0.21770
 H726 H 0.50944 0.42754 0.16480
 H727 H 0.49754 0.38050 0.14923
 H728 H 0.56732 0.35067 0.18709
 H729 H 0.53255 0.47123 0.18380
 H730 H 0.56311 0.50540 0.20416
 H731 H 0.61455 0.44064 0.22668
 C732 C 0.05765 0.89243 0.69158
 C733 C 0.04660 0.89980 0.71494
 C734 C 0.02847 0.88352 0.72665
 C735 C 0.02131 0.85872 0.71365
 C736 C 0.03213 0.85079 0.68923
 C737 C 0.05064 0.86809 0.67819
 O738 O 0.07486 0.91047 0.68400
 C739 C 0.07465 0.92971 0.70298
 C740 C 0.05758 0.92427 0.72231
 C741 C 0.05431 0.94176 0.74404
 C742 C 0.06945 0.96568 0.74603
 C743 C 0.08750 0.97148 0.72654
 C744 C 0.09002 0.95322 0.70468
 H745 H 0.02023 0.88961 0.74522
 H746 H 0.00751 0.84566 0.72276
 H747 H 0.05907 0.86308 0.65946
 H748 H 0.04082 0.93703 0.75905
 H749 H 0.06769 0.97919 0.76317
 H750 H 0.10367 0.95710 0.68956
 C751 C 0.94322 0.61356 0.69862
 C752 C 0.95839 0.60826 0.72057
 C753 C 0.97937 0.62468 0.72884
 C754 C 0.98490 0.64743 0.71386
 C755 C 0.96960 0.65326 0.69097
 C756 C 0.94851 0.63580 0.68333
 O757 O 0.92378 0.59600 0.69447
 C758 C 0.92669 0.57924 0.71425
 C759 C 0.94764 0.58569 0.73074
 C760 C 0.95400 0.57082 0.75286
 C761 C 0.93793 0.54861 0.75829
 C762 C 0.91593 0.54197 0.74179
 C763 C 0.91044 0.55744 0.71935
 H764 H 0.99089 0.62032 0.74636
 H765 H 1.00083 0.66071 0.72040
 H766 H 0.93656 0.63924 0.66587
 H767 H 0.97053 0.57630 0.76563
 H768 H 0.94217 0.53714 0.77573
 H769 H 0.89392 0.55275 0.70628
 C770 C 0.44901 0.11948 0.20007
 C771 C 0.46874 0.10133 0.20220
 C772 C 0.49366 0.10735 0.19507
 C773 C 0.49836 0.13293 0.18472
 C774 C 0.47820 0.15178 0.18130
 C775 C 0.45325 0.14509 0.18972
 O776 O 0.42654 0.10915 0.20692
 C777 C 0.43223 0.08389 0.21328
 C778 C 0.45775 0.07813 0.21059
 C779 C 0.46758 0.05247 0.21432
 C780 C 0.45045 0.03181 0.22109
 C781 C 0.42386 0.03701 0.22455
 C782 C 0.41488 0.06379 0.22068
 H783 H 0.50884 0.09267 0.19689
 H784 H 0.51763 0.13780 0.17878
 H785 H 0.43734 0.15874 0.18695
 H786 H 0.48766 0.04827 0.21136
 H787 H 0.45819 0.01171 0.22280
 H788 H 0.39505 0.06914 0.22304
 C789 C 0.29888 0.42671 -0.11105
 C790 C 0.27450 0.43708 -0.11060
 C791 C 0.26436 0.45294 -0.13050
 C792 C 0.28001 0.45833 -0.15176
 C793 C 0.30530 0.44801 -0.15263
 C794 C 0.31484 0.43203 -0.13186
 O795 O 0.30461 0.41170 -0.09044
 C796 C 0.28341 0.41267 -0.07665
 C797 C 0.26447 0.42801 -0.08809
 C798 C 0.24072 0.43170 -0.07703
 C799 C 0.23627 0.41897 -0.05326
 C800 C 0.25533 0.40268 -0.04095
 C801 C 0.27937 0.39966 -0.05307
 H802 H 0.24508 0.46081 -0.12974
 H803 H 0.27255 0.47079 -0.16740
 H804 H 0.33395 0.42364 -0.13211
 H805 H 0.22609 0.44388 -0.08640
 H806 H 0.21778 0.42158 -0.04442
 H807 H 0.29463 0.38756 -0.04499
 C808 C 0.80122 0.94042 0.37883
 C809 C 0.78940 0.96243 0.39035
 C810 C 0.78972 0.98803 0.37956
 C811 C 0.80296 0.99109 0.35615
 C812 C 0.81574 0.96878 0.34421
 C813 C 0.81464 0.94304 0.35572
 O814 O 0.79900 0.91798 0.39236
 C815 C 0.78571 0.92603 0.41297
 C816 C 0.77941 0.95302 0.41281
 C817 C 0.76604 0.96564 0.43299
 C818 C 0.75933 0.94987 0.45441
 C819 C 0.76632 0.92207 0.45546
 C820 C 0.77887 0.90996 0.43371
 H821 H 0.78040 1.00511 0.38901
 H822 H 0.80391 1.01100 0.34772
 H823 H 0.82413 0.92563 0.34706
 H824 H 0.76106 0.98689 0.43234
 H825 H 0.74854 0.95941 0.46993
 H826 H 0.78353 0.88860 0.43295
 C827 C 0.80596 0.06803 1.12630
 C828 C 0.80379 0.09531 1.13220
 C829 C 0.81350 0.10752 1.15559
 C830 C 0.82576 0.09093 1.17389
 C831 C 0.82820 0.06232 1.16881
 C832 C 0.81821 0.05101 1.14417
 O833 O 0.79543 0.06064 1.10278
 C834 C 0.78650 0.08385 1.09372
 C835 C 0.79119 0.10562 1.11101
 C836 C 0.78406 0.13191 1.10545
 C837 C 0.77157 0.13597 1.08100
 C838 C 0.76606 0.11391 1.06262
 C839 C 0.77394 0.08736 1.06925
 H840 H 0.81188 0.12918 1.15956
 H841 H 0.83415 0.10097 1.19153
 H842 H 0.81887 0.02949 1.13921
 H843 H 0.78824 0.14878 1.11931
 H844 H 0.76641 0.15650 1.07616
 H845 H 0.77121 0.06992 1.05591
 C846 C 0.29464 0.55444 0.62920
 C847 C 0.29866 0.58129 0.63684
 C848 C 0.30944 0.58962 0.66130
 C849 C 0.31653 0.56940 0.67872
 C850 C 0.31293 0.54144 0.67142
 C851 C 0.30188 0.53383 0.64619
 O852 O 0.28392 0.55123 0.60500
 C853 C 0.28125 0.57665 0.59729
 C854 C 0.29019 0.59565 0.61609
 C855 C 0.29001 0.62337 0.61230
 C856 C 0.27992 0.63203 0.58817
 C857 C 0.26970 0.61315 0.56840
 C858 C 0.27071 0.58485 0.57303
 H859 H 0.31241 0.61094 0.66674
 H860 H 0.32540 0.57551 0.69773
 H861 H 0.29900 0.51266 0.64010
 H862 H 0.29748 0.63785 0.62734
 H863 H 0.27979 0.65366 0.58488
 H864 H 0.26377 0.56966 0.55850
 C865 C 0.19047 0.56265 0.40606
 C866 C 0.17405 0.58254 0.41438
 C867 C 0.15201 0.58940 0.40009
 C868 C 0.14626 0.57482 0.37638
 C869 C 0.16227 0.55349 0.36746
 C870 C 0.18499 0.54761 0.38246
 O871 O 0.21091 0.56026 0.42236
 C872 C 0.20718 0.57904 0.44134
 C873 C 0.18478 0.59304 0.43731
 C874 C 0.17712 0.61400 0.45411
 C875 C 0.19355 0.62141 0.47568
 C876 C 0.21716 0.60799 0.48005
 C877 C 0.22390 0.58605 0.46295
 H878 H 0.13972 0.60555 0.40688
 H879 H 0.12928 0.58030 0.36491
 H880 H 0.19768 0.53158 0.37625
 H881 H 0.15940 0.62469 0.45042
 H882 H 0.18814 0.63813 0.48864
 H883 H 0.24204 0.57584 0.46561
 C884 C 0.69044 0.05591 0.89331
 C885 C 0.69085 0.03607 0.91170
 C886 C 0.68222 0.00964 0.90587
 C887 C 0.67274 0.00338 0.88003
 C888 C 0.67173 0.02354 0.86038
 C889 C 0.68087 0.05031 0.86759
 O890 O 0.69981 0.07968 0.90277
 C891 C 0.70612 0.07473 0.92775
 C892 C 0.70094 0.04842 0.93426
 C893 C 0.70564 0.03911 0.95950
 C894 C 0.71622 0.05765 0.97878
 C895 C 0.72235 0.08503 0.97261
 C896 C 0.71688 0.09342 0.94647
 H897 H 0.68260 -0.00563 0.92074
 H898 H 0.66520 -0.01699 0.87600
 H899 H 0.68152 0.06633 0.85354
 H900 H 0.70107 0.01836 0.96428
 H901 H 0.71909 0.05039 0.99851
 H902 H 0.72079 0.11374 0.94030
 C903 C 0.71205 0.95426 0.62157
 C904 C 0.72965 0.93500 0.62860
 C905 C 0.73377 0.92728 0.65454
 C906 C 0.71887 0.93964 0.67399
 C907 C 0.70012 0.95913 0.66719
 C908 C 0.69706 0.96681 0.64057
 O909 O 0.71003 0.95756 0.59568
 C910 C 0.72659 0.93985 0.58612
 C911 C 0.73904 0.92547 0.60545
 C912 C 0.75572 0.90444 0.59974
 C913 C 0.75946 0.89775 0.57303
 C914 C 0.74680 0.91224 0.55279
 C915 C 0.73044 0.93388 0.55943
 H916 H 0.74746 0.91176 0.65952
 H917 H 0.72117 0.93314 0.69412
 H918 H 0.68290 0.98152 0.63468
 H919 H 0.76493 0.89308 0.61525
 H920 H 0.77195 0.88107 0.56806
 H921 H 0.72003 0.94471 0.54429
 C922 C 0.20206 0.44114 0.13247
 C923 C 0.19546 0.45961 0.11376
 C924 C 0.18288 0.48361 0.11974
 C925 C 0.17651 0.48869 0.14607
 C926 C 0.18274 0.46990 0.16593
 C927 C 0.19595 0.44582 0.15890
 O928 O 0.21350 0.41934 0.12238
 C929 C 0.21400 0.42418 0.09673
 C930 C 0.20314 0.44853 0.09052
 C931 C 0.20090 0.45740 0.06485
 C932 C 0.21049 0.44063 0.04472
 C933 C 0.22233 0.41551 0.05042
 C934 C 0.22383 0.40715 0.07694
 H935 H 0.17770 0.49769 0.10456
 H936 H 0.16586 0.50685 0.15074
 H937 H 0.20100 0.43101 0.17344
 H938 H 0.19187 0.47646 0.06043
 H939 H 0.20823 0.44718 0.02461
 H940 H 0.23258 0.38822 0.08216
 C941 C -0.11665 0.30611 0.45900
 C942 C -0.09712 0.31775 0.47479
 C943 C -0.10100 0.33865 0.49326
 C944 C -0.12605 0.34823 0.49535
 C945 C -0.14654 0.33699 0.47896
 C946 C -0.14180 0.31528 0.46080
 O947 O -0.10849 0.28734 0.44192
 C948 C -0.08327 0.28723 0.44705
 C949 C -0.07542 0.30552 0.46695
 C950 C -0.04980 0.31021 0.47440
 C951 C -0.03144 0.29531 0.46086
 C952 C -0.03883 0.27559 0.44065
 C953 C -0.06531 0.27184 0.43349
 H954 H -0.08524 0.34754 0.50534
 H955 H -0.12947 0.36460 0.50957
 H956 H -0.15697 0.30661 0.44778
 H957 H -0.04408 0.32531 0.48962
 H958 H -0.01132 0.29946 0.46588
 H959 H -0.07190 0.25829 0.41733
 C960 C 0.38238 0.79369 0.93617
 C961 C 0.39656 0.78441 0.95735
 C962 C 0.38826 0.78656 0.98311
 C963 C 0.36454 0.79904 0.98720
 C964 C 0.34970 0.80918 0.96567
 C965 C 0.35885 0.80617 0.93976
 O966 O 0.39375 0.79006 0.91334
 C967 C 0.41564 0.77831 0.92025
 C968 C 0.41839 0.77442 0.94691
 C969 C 0.44011 0.76272 0.95825
 C970 C 0.45988 0.75498 0.94146
 C971 C 0.45778 0.75936 0.91383
 C972 C 0.43484 0.77061 0.90324
 H973 H 0.39970 0.77908 0.99951
 H974 H 0.35776 0.80076 1.00713
 H975 H 0.34837 0.81404 0.92291
 H976 H 0.44177 0.75958 0.97928
 H977 H 0.47644 0.74526 0.95016
 H978 H 0.43205 0.77348 0.88224
 C979 C 1.12712 0.80265 0.05348
 C980 C 1.12255 0.77664 0.04337
 C981 C 1.13741 0.76479 0.02394
 C982 C 1.15780 0.78039 0.01459
 C983 C 1.16277 0.80736 0.02457
 C984 C 1.14708 0.81859 0.04427
 O985 O 1.11108 0.80993 0.07213
 C986 C 1.09603 0.78806 0.07383
 C987 C 1.10214 0.76719 0.05658
 C988 C 1.08860 0.74260 0.05488
 C989 C 1.06813 0.73932 0.07185
 C990 C 1.06176 0.76020 0.09055
 C991 C 1.07590 0.78518 0.09104
 H992 H 1.13351 0.74426 0.01632
 H993 H 1.16953 0.77161 -0.00063
 H994 H 1.15056 0.83899 0.05248
 H995 H 1.09356 0.72653 0.04094
 H996 H 1.05727 0.72033 0.07060
 H997 H 1.07164 0.80222 0.10399
 C998 C 0.62676 0.29827 0.54766
 C999 C 0.60640 0.30646 0.53196
 C1000 C 0.60935 0.32255 0.51023
 C1001 C 0.63436 0.33089 0.50462
 C1002 C 0.65559 0.32347 0.52096
 C1003 C 0.65181 0.30684 0.54276
 O1004 O 0.61960 0.28284 0.56722
 C1005 C 0.59416 0.28143 0.56383
 C1006 C 0.58521 0.29586 0.54273
 C1007 C 0.55928 0.29852 0.53635
 C1008 C 0.54179 0.28522 0.55199
 C1009 C 0.55031 0.26862 0.57296
 C1010 C 0.57705 0.26738 0.57934
 H1011 H 0.59297 0.32864 0.49818
 H1012 H 0.63716 0.34391 0.48811
 H1013 H 0.66778 0.30116 0.55560
 H1014 H 0.55272 0.31066 0.52010
 H1015 H 0.52145 0.28750 0.54746
 H1016 H 0.58448 0.25621 0.59586
 C1017 C 0.39254 0.17507 0.54499
 C1018 C 0.41124 0.16733 0.52791
 C1019 C 0.40628 0.15042 0.50576
 C1020 C 0.38097 0.14091 0.50104
 C1021 C 0.36123 0.14825 0.51847
 C1022 C 0.36718 0.16578 0.54072
 O1023 O 0.40141 0.19153 0.56471
 C1024 C 0.42624 0.19418 0.55992
 C1025 C 0.43316 0.17973 0.53764
 C1026 C 0.45811 0.17954 0.52884
 C1027 C 0.47672 0.19510 0.54348
 C1028 C 0.47010 0.21061 0.56636
 C1029 C 0.44448 0.20987 0.57482
 H1030 H 0.42133 0.14485 0.49250
 H1031 H 0.37672 0.12806 0.48359
 H1032 H 0.35265 0.17168 0.55446
 H1033 H 0.46307 0.16780 0.51134
 H1034 H 0.49633 0.19480 0.53707
 H1035 H 0.43881 0.22154 0.59209
 C1036 C 0.88681 0.71506 0.08002
 C1037 C 0.89240 0.73883 0.06777
 C1038 C 0.87563 0.75025 0.04944
 C1039 C 0.85232 0.73636 0.04311
 C1040 C 0.84622 0.71144 0.05503
 C1041 C 0.86368 0.70100 0.07416
 O1042 O 0.90593 0.70690 0.09577
 C1043 C 0.92405 0.72586 0.09329
 C1044 C 0.91673 0.74583 0.07635
 C1045 C 0.93323 0.76678 0.06966
 C1046 C 0.95835 0.76705 0.08071
 C1047 C 0.96645 0.74658 0.09811
 C1048 C 0.94888 0.72593 0.10477
 H1049 H 0.88063 0.76877 0.03976
 H1050 H 0.83959 0.74444 0.02805
 H1051 H 0.85976 0.68209 0.08366
 H1052 H 0.92713 0.78211 0.05606
 H1053 H 0.97153 0.78316 0.07569
 H1054 H 0.95464 0.70983 0.11761
 C1055 C 0.62149 0.71079 0.94090
 C1056 C 0.62645 0.72103 0.91668
 C1057 C 0.65100 0.72216 0.90683
 C1058 C 0.67127 0.71209 0.92248
 C1059 C 0.66679 0.70134 0.94765
 C1060 C 0.64139 0.70103 0.95697
 O1061 O 0.59665 0.71059 0.94612
 C1062 C 0.58571 0.72093 0.92470
 C1063 C 0.60312 0.72771 0.90613
 C1064 C 0.59582 0.73838 0.88201
 C1065 C 0.56947 0.74204 0.87672
 C1066 C 0.55099 0.73479 0.89533
 C1067 C 0.55939 0.72429 0.91981
 H1068 H 0.65437 0.72995 0.88751
 H1069 H 0.69029 0.71194 0.91451
 H1070 H 0.63710 0.69319 0.97604
 H1071 H 0.60989 0.74366 0.86774
 H1072 H 0.56361 0.75079 0.85819
 H1073 H 0.54584 0.71829 0.93434
 C1074 C 0.12599 0.20093 0.46281
 C1075 C 0.10916 0.19417 0.48191
 C1076 C 0.11617 0.17867 0.50335
 C1077 C 0.14144 0.16922 0.50486
 C1078 C 0.15913 0.17538 0.48509
 C1079 C 0.15128 0.19199 0.46405
 O1080 O 0.11514 0.21482 0.44347
 C1081 C 0.09088 0.21673 0.45048
 C1082 C 0.08627 0.20441 0.47385
 C1083 C 0.06203 0.20294 0.48432
 C1084 C 0.04171 0.21483 0.47024
 C1085 C 0.04593 0.22800 0.44618
 C1086 C 0.07095 0.22880 0.43616
 H1087 H 0.10245 0.17334 0.51795
 H1088 H 0.14680 0.15607 0.52077
 H1089 H 0.16419 0.19711 0.44862
 H1090 H 0.05880 0.19269 0.50250
 H1091 H 0.02263 0.21326 0.47791
 H1092 H 0.07487 0.23862 0.41791
 C1093 C 0.55706 0.12755 0.68017
 C1094 C 0.53461 0.11928 0.66696
 C1095 C 0.52460 0.09302 0.66793
 C1096 C 0.53834 0.07442 0.68308
 C1097 C 0.56154 0.08234 0.69723
 C1098 C 0.57085 0.10952 0.69572
 O1099 O 0.56364 0.15320 0.67587
 C1100 C 0.54490 0.16124 0.65958
 C1101 C 0.52660 0.14126 0.65367
 C1102 C 0.50541 0.14510 0.63683
 C1103 C 0.50297 0.17058 0.62555
 C1104 C 0.52166 0.19155 0.63108
 C1105 C 0.54298 0.18674 0.64837
 H1106 H 0.50707 0.08690 0.65701
 H1107 H 0.53112 0.05368 0.68316
 H1108 H 0.58831 0.11651 0.70626
 H1109 H 0.49136 0.12898 0.63234
 H1110 H 0.48682 0.17366 0.61196
 H1111 H 0.55755 0.20232 0.65292
 C1112 C 1.05516 0.62512 0.19423
 C1113 C 1.02871 0.62458 0.19313
 C1114 C 1.01445 0.60336 0.20322
 C1115 C 1.02803 0.58205 0.21499
 C1116 C 1.05539 0.58225 0.21638
 C1117 C 1.06895 0.60419 0.20555
 O1118 O 1.06528 0.64684 0.18355
 C1119 C 1.04482 0.66038 0.17542
 C1120 C 1.02191 0.64776 0.18070
 C1121 C 0.99823 0.65864 0.17337
 C1122 C 0.99829 0.68320 0.15980
 C1123 C 1.02178 0.69636 0.15382
 C1124 C 1.04531 0.68476 0.16233
 H1125 H 0.99364 0.60326 0.20221
 H1126 H 1.01720 0.56570 0.22336
 H1127 H 1.08975 0.60494 0.20560
 H1128 H 0.98036 0.64841 0.17762
 H1129 H 0.98006 0.69147 0.15349
 H1130 H 1.06371 0.69430 0.15892
 C1131 C 0.95635 0.85628 0.19624
 C1132 C 0.97923 0.85397 0.21041
 C1133 C 0.98740 0.87265 0.23027
 C1134 C 0.97145 0.89474 0.23565
 C1135 C 0.94791 0.89801 0.22105
 C1136 C 0.94017 0.87816 0.20125
 O1137 O 0.95284 0.83704 0.17732
 C1138 C 0.97399 0.82237 0.17955
 C1139 C 0.99078 0.83193 0.19949
 C1140 C 1.01495 0.82092 0.20403
 C1141 C 1.02232 0.79953 0.18703
 C1142 C 1.00542 0.78943 0.16629
 C1143 C 0.98072 0.80066 0.16280
 H1144 H 1.00555 0.87049 0.24104
 H1145 H 0.97753 0.90935 0.25119
 H1146 H 0.92258 0.88020 0.18945
 H1147 H 1.02802 0.82915 0.21951
 H1148 H 1.04138 0.79125 0.18952
 H1149 H 0.96784 0.79384 0.14654
 C1150 C 0.44232 0.34720 0.67535
 C1151 C 0.43842 0.32342 0.68828
 C1152 C 0.42457 0.32232 0.71120
 C1153 C 0.41430 0.34669 0.72112
 C1154 C 0.41823 0.37151 0.70820
 C1155 C 0.43253 0.37166 0.68499
 O1156 O 0.45592 0.34391 0.65386
 C1157 C 0.46081 0.31752 0.65327
 C1158 C 0.45061 0.30403 0.67387
 C1159 C 0.45392 0.27633 0.67719
 C1160 C 0.46849 0.26205 0.65862
 C1161 C 0.47923 0.27553 0.63714
 C1162 C 0.47502 0.30371 0.63446
 H1163 H 0.42175 0.30340 0.72107
 H1164 H 0.40354 0.34633 0.73901
 H1165 H 0.43564 0.39020 0.67455
 H1166 H 0.44591 0.26617 0.69371
 H1167 H 0.47187 0.24070 0.66148
 H1168 H 0.48254 0.31472 0.61822
 C1169 C 0.44795 0.61559 0.80993
 C1170 C 0.47422 0.61337 0.81261
 C1171 C 0.48694 0.58969 0.80542
 C1172 C 0.47196 0.56751 0.79498
 C1173 C 0.44483 0.56947 0.79180
 C1174 C 0.43279 0.59396 0.79949
 O1175 O 0.43944 0.63944 0.81855
 C1176 C 0.46079 0.65266 0.82685
 C1177 C 0.48265 0.63772 0.82359
 C1178 C 0.50704 0.64770 0.83137
 C1179 C 0.50889 0.67397 0.84322
 C1180 C 0.48654 0.68958 0.84718
 C1181 C 0.46218 0.67872 0.83859
 H1182 H 0.50763 0.58830 0.80785
 H1183 H 0.48148 0.54896 0.78910
 H1184 H 0.41210 0.59598 0.79781
 H1185 H 0.52398 0.63555 0.82878
 H1186 H 0.52764 0.68170 0.85008
 H1187 H 0.44476 0.69009 0.84119
 C1188 C -0.04177 0.12997 0.33128
 C1189 C -0.01798 0.12407 0.34213
 C1190 C -0.00678 0.09875 0.33872
 C1191 C -0.02073 0.07867 0.32359
 C1192 C -0.04527 0.08433 0.31210
 C1193 C -0.05580 0.11046 0.31594
 O1194 O -0.04938 0.15490 0.33762
 C1195 C -0.02994 0.16502 0.35277
 C1196 C -0.01019 0.14704 0.35605
 C1197 C 0.01188 0.15337 0.37148
 C1198 C 0.01361 0.17922 0.38411
 C1199 C -0.00663 0.19805 0.38125
 C1200 C -0.02870 0.19076 0.36526
 H1201 H 0.01190 0.09452 0.34760
 H1202 H -0.01244 0.05879 0.32074
 H1203 H -0.07467 0.11521 0.30782
 H1204 H 0.02710 0.13883 0.37394
 H1205 H 0.03041 0.18423 0.39667
 H1206 H -0.04444 0.20467 0.36266
 C1207 C 0.05770 0.35861 0.33522
 C1208 C 0.05956 0.33518 0.31983
 C1209 C 0.06887 0.33523 0.29439
 C1210 C 0.07692 0.36035 0.28470
 C1211 C 0.07561 0.38466 0.30054
 C1212 C 0.06552 0.38361 0.32605
 O1213 O 0.04818 0.35449 0.35867
 C1214 C 0.04394 0.32786 0.35819
 C1215 C 0.05062 0.31494 0.33498
 C1216 C 0.04757 0.28695 0.33055
 C1217 C 0.03676 0.27186 0.35065
 C1218 C 0.02919 0.28499 0.37445
 C1219 C 0.03328 0.31335 0.37829
 H1220 H 0.07013 0.31660 0.28254
 H1221 H 0.08481 0.36076 0.26524
 H1222 H 0.06395 0.40178 0.33853
 H1223 H 0.05292 0.27714 0.31215
 H1224 H 0.03348 0.25021 0.34728
 H1225 H 0.02799 0.32398 0.39631
 C1226 C 0.54409 0.85902 0.80623
 C1227 C 0.54076 0.83867 0.78705
 C1228 C 0.54779 0.84185 0.76112
 C1229 C 0.55891 0.86689 0.75478
 C1230 C 0.56320 0.88808 0.77439
 C1231 C 0.55537 0.88391 0.80048
 O1232 O 0.53628 0.85193 0.82969
 C1233 C 0.52791 0.82652 0.82527
 C1234 C 0.53036 0.81729 0.79956
 C1235 C 0.52364 0.79082 0.79101
 C1236 C 0.51394 0.77325 0.80974
 C1237 C 0.51079 0.78257 0.83619
 C1238 C 0.51793 0.80960 0.84400
 H1239 H 0.54485 0.82562 0.74628
 H1240 H 0.56418 0.86969 0.73458
 H1241 H 0.55866 0.89922 0.81615
 H1242 H 0.52602 0.78387 0.77076
 H1243 H 0.50865 0.75254 0.80364
 H1244 H 0.51631 0.81706 0.86422
 C1245 C 0.68700 0.55449 0.11403
 C1246 C 0.70028 0.53173 0.12080
 C1247 C 0.72169 0.52322 0.10731
 C1248 C 0.73001 0.53916 0.08653
 C1249 C 0.71746 0.56392 0.08007
 C1250 C 0.69501 0.57075 0.09397
 O1251 O 0.66767 0.55991 0.12950
 C1252 C 0.66895 0.54042 0.14680
 C1253 C 0.68857 0.52257 0.14261
 C1254 C 0.69427 0.50193 0.15999
 C1255 C 0.67960 0.50026 0.18281
 C1256 C 0.65974 0.51905 0.18766
 C1257 C 0.65391 0.53870 0.16872
 H1258 H 0.73206 0.50532 0.11300
 H1259 H 0.74741 0.53296 0.07716
 H1260 H 0.68339 0.58809 0.08934
 H1261 H 0.71006 0.48832 0.15667
 H1262 H 0.68450 0.48521 0.19716
 H1263 H 0.63867 0.55315 0.17133
 C1264 C 0.18310 1.03407 0.60671
 C1265 C 0.19522 1.01210 0.61732
 C1266 C 0.21506 0.99871 0.60487
 C1267 C 0.22305 1.00872 0.58079
 C1268 C 0.21112 1.03164 0.56964
 C1269 C 0.19053 1.04414 0.58267
 O1270 O 0.16557 1.04470 0.62225
 C1271 C 0.16668 1.02915 0.64314
 C1272 C 0.18447 1.00888 0.64112
 C1273 C 0.18939 0.99092 0.66123
 C1274 C 0.17533 0.99390 0.68428
 C1275 C 0.15681 1.01463 0.68688
 C1276 C 0.15248 1.03247 0.66586
 H1277 H 0.22448 0.98161 0.61370
 H1278 H 0.23885 0.99899 0.57108
 H1279 H 0.18150 1.06208 0.57506
 H1280 H 0.20376 0.97536 0.65937
 H1281 H 0.17936 0.98041 0.70028
 H1282 H 0.13845 1.04843 0.66705
 C1283 C 0.19864 0.94574 0.84329
 C1284 C 0.18901 0.92595 0.82580
 C1285 C 0.19020 0.89853 0.83083
 C1286 C 0.20148 0.89111 0.85503
 C1287 C 0.21106 0.91103 0.87451
 C1288 C 0.20973 0.93899 0.86764
 O1289 O 0.19488 0.97075 0.83503
 C1290 C 0.18248 0.96654 0.81183
 C1291 C 0.17834 0.93947 0.80532
 C1292 C 0.16431 0.93050 0.78275
 C1293 C 0.15388 0.95025 0.76635
 C1294 C 0.15790 0.97849 0.77246
 C1295 C 0.17284 0.98655 0.79550
 H1296 H 0.18273 0.88325 0.81655
 H1297 H 0.20320 0.86954 0.85759
 H1298 H 0.21545 0.95567 0.88106
 H1299 H 0.16079 0.90905 0.77836
 H1300 H 0.14186 0.94324 0.74957
 H1301 H 0.17648 1.00773 0.80101
 C1302 C 0.70469 0.45760 0.34795
 C1303 C 0.69451 0.43599 0.33280
 C1304 C 0.69295 0.40976 0.34204
 C1305 C 0.70206 0.40570 0.36799
 C1306 C 0.71258 0.42768 0.38399
 C1307 C 0.71430 0.45392 0.37365
 O1308 O 0.70215 0.48125 0.33642
 C1309 C 0.69003 0.47444 0.31358
 C1310 C 0.68509 0.44700 0.31028
 C1311 C 0.67097 0.43579 0.28863
 C1312 C 0.66075 0.45370 0.27013
 C1313 C 0.66440 0.48224 0.27376
 C1314 C 0.68026 0.49251 0.29534
 H1315 H 0.68435 0.39318 0.33000
 H1316 H 0.70068 0.38553 0.37580
 H1317 H 0.72169 0.47112 0.38569
 H1318 H 0.66707 0.41413 0.28659
 H1319 H 0.64890 0.44526 0.25392
 H1320 H 0.68381 0.51410 0.29875
 C1321 C 0.81716 0.47200 0.62280
 C1322 C 0.80298 0.49295 0.63306
 C1323 C 0.78048 0.50174 0.62050
 C1324 C 0.77207 0.48795 0.59682
 C1325 C 0.78616 0.46581 0.58635
 C1326 C 0.80943 0.45842 0.59930
 O1327 O 0.83685 0.46527 0.63838
 C1328 C 0.83508 0.48221 0.65908
 C1329 C 0.81482 0.49973 0.65690
 C1330 C 0.80889 0.51818 0.67719
 C1331 C 0.82426 0.51822 0.70066
 C1332 C 0.84474 0.49971 0.70346
 C1333 C 0.85041 0.48185 0.68210
 H1334 H 0.76934 0.51797 0.62907
 H1335 H 0.75408 0.49372 0.58735
 H1336 H 0.82080 0.44178 0.59186
 H1337 H 0.79270 0.53160 0.67525
 H1338 H 0.81960 0.53187 0.71696
 H1339 H 0.86598 0.46757 0.68354
 C1340 C 0.30672 -0.03841 0.11306
 C1341 C 0.31826 -0.01367 0.10879
 C1342 C 0.31692 -0.00170 0.08426
 C1343 C 0.30338 -0.01596 0.06339
 C1344 C 0.29154 -0.04164 0.06741
 C1345 C 0.29314 -0.05273 0.09279
 O1346 O 0.31138 -0.04721 0.13713
 C1347 C 0.32625 -0.02769 0.14840
 C1348 C 0.33107 -0.00659 0.13206
 C1349 C 0.34733 0.01527 0.13983
 C1350 C 0.35930 0.01505 0.16523
 C1351 C 0.35499 -0.00693 0.18202
 C1352 C 0.33779 -0.02826 0.17352
 H1353 H 0.32639 0.01761 0.08116
 H1354 H 0.30235 -0.00716 0.04409
 H1355 H 0.28511 -0.07262 0.09644
 H1356 H 0.35115 0.03155 0.12660
 H1357 H 0.37264 0.03138 0.17135
 H1358 H 0.33395 -0.04528 0.18587
 C1359 C 0.29878 0.04543 0.33775
 C1360 C 0.30301 0.06702 0.32181
 C1361 C 0.29541 0.09324 0.32839
 C1362 C 0.28368 0.09751 0.35267
 C1363 C 0.28045 0.07586 0.37029
 C1364 C 0.28754 0.04927 0.36216
 O1365 O 0.30842 0.02239 0.32847
 C1366 C 0.31925 0.02965 0.30642
 C1367 C 0.31672 0.05674 0.30149
 C1368 C 0.32874 0.06894 0.28074
 C1369 C 0.34422 0.05261 0.26467
 C1370 C 0.34713 0.02442 0.26925
 C1371 C 0.33366 0.01292 0.29022
 H1372 H 0.29885 0.10994 0.31553
 H1373 H 0.27774 0.11790 0.35797
 H1374 H 0.28596 0.03231 0.37508
 H1375 H 0.32706 0.09051 0.27764
 H1376 H 0.35446 0.06240 0.24937
 H1377 H 0.33458 -0.00838 0.29457
 C1378 C 0.80862 0.57124 0.86208
 C1379 C 0.82013 0.59112 0.84790
 C1380 C 0.82214 0.61812 0.85687
 C1381 C 0.81204 0.62483 0.88152
 C1382 C 0.80037 0.60460 0.89673
 C1383 C 0.79839 0.57746 0.88659
 O1384 O 0.81000 0.54661 0.85079
 C1385 C 0.82275 0.55102 0.82909
 C1386 C 0.82937 0.57790 0.82634
 C1387 C 0.84424 0.58671 0.80592
 C1388 C 0.85307 0.56692 0.78792
 C1389 C 0.84691 0.53895 0.79064
 C1390 C 0.83097 0.53112 0.81126
 H1391 H 0.83149 0.63338 0.84549
 H1392 H 0.81340 0.64577 0.88880
 H1393 H 0.79005 0.56147 0.89787
 H1394 H 0.84962 0.60792 0.80444
 H1395 H 0.86572 0.57338 0.77277
 H1396 H 0.82586 0.51002 0.81400
 C1397 C 0.12678 0.69814 0.55511
 C1398 C 0.13456 0.71268 0.53403
 C1399 C 0.11900 0.73186 0.52212
 C1400 C 0.09466 0.73636 0.53260
 C1401 C 0.08645 0.72185 0.55470
 C1402 C 0.10295 0.70241 0.56590
 O1403 O 0.14408 0.68072 0.56356
 C1404 C 0.16331 0.68432 0.54757
 C1405 C 0.15866 0.70369 0.52916
 C1406 C 0.17658 0.71049 0.51061
 C1407 C 0.20002 0.69653 0.51095
 C1408 C 0.20498 0.67611 0.52955
 C1409 C 0.18616 0.67015 0.54811
 H1410 H 0.12535 0.74297 0.50541
 H1411 H 0.08228 0.75109 0.52346
 H1412 H 0.09783 0.69134 0.58309
 H1413 H 0.17264 0.72590 0.49634
 H1414 H 0.21417 0.70161 0.49671
 H1415 H 0.18860 0.65423 0.56213
 C1416 C 0.61798 0.18772 1.04039
 C1417 C 0.62540 0.20044 1.01806
 C1418 C 0.61102 0.22108 1.00684
 C1419 C 0.58853 0.22921 1.01949
 C1420 C 0.58112 0.21687 1.04303
 C1421 C 0.59589 0.19543 1.05315
 O1422 O 0.63451 0.16941 1.04869
 C1423 C 0.65295 0.17061 1.03140
 C1424 C 0.64848 0.18923 1.01220
 C1425 C 0.66621 0.19435 0.99291
 C1426 C 0.68940 0.17986 0.99365
 C1427 C 0.69444 0.16077 1.01352
 C1428 C 0.67557 0.15595 1.03236
 H1429 H 0.61722 0.23101 0.98937
 H1430 H 0.57752 0.24579 1.01164
 H1431 H 0.59077 0.18557 1.07106
 H1432 H 0.66255 0.20931 0.97813
 H1433 H 0.70363 0.18410 0.97922
 H1434 H 0.67835 0.14127 1.04758
 C1435 C 0.85347 0.18995 0.94887
 C1436 C 0.83852 0.17735 0.92908
 C1437 C 0.84711 0.17299 0.90376
 C1438 C 0.87199 0.18224 0.89846
 C1439 C 0.88833 0.19589 0.91839
 C1440 C 0.87828 0.19937 0.94419
 O1441 O 0.84213 0.19109 0.97192
 C1442 C 0.81958 0.17873 0.96654
 C1443 C 0.81634 0.16999 0.94058
 C1444 C 0.79465 0.15532 0.93106
 C1445 C 0.77598 0.14863 0.94925
 C1446 C 0.77928 0.15658 0.97637
 C1447 C 0.80113 0.17268 0.98481
 H1448 H 0.83523 0.16233 0.88863
 H1449 H 0.87847 0.17718 0.87893
 H1450 H 0.88862 0.21003 0.96036
 H1451 H 0.79264 0.14835 0.91057
 H1452 H 0.75982 0.13597 0.94239
 H1453 H 0.80436 0.17920 1.00531
 C1454 C 0.36243 0.69864 0.46239
 C1455 C 0.34509 0.69225 0.44187
 C1456 C 0.35143 0.69333 0.41552
 C1457 C 0.37668 0.70124 0.41013
 C1458 C 0.39505 0.70769 0.43097
 C1459 C 0.38762 0.70658 0.45750
 O1460 O 0.35289 0.69512 0.48597
 C1461 C 0.32906 0.68624 0.48020
 C1462 C 0.32326 0.68417 0.45352
 C1463 C 0.29979 0.67391 0.44318
 C1464 C 0.28178 0.66488 0.46108
 C1465 C 0.28755 0.66627 0.48871
 C1466 C 0.31139 0.67775 0.49829
 H1467 H 0.33752 0.68806 0.39969
 H1468 H 0.38186 0.70245 0.38969
 H1469 H 0.40120 0.71101 0.47384
 H1470 H 0.29581 0.67209 0.42206
 H1471 H 0.26394 0.65566 0.45327
 H1472 H 0.31646 0.67921 0.51921
 C1473 C 0.62888 0.82097 0.45925
 C1474 C 0.62772 0.82796 0.48570
 C1475 C 0.60554 0.82413 0.49984
 C1476 C 0.58385 0.81237 0.48617
 C1477 C 0.58489 0.80454 0.45901
 C1478 C 0.60774 0.80915 0.44544
 O1479 O 0.65141 0.82675 0.44921
 C1480 C 0.66489 0.83757 0.46975
 C1481 C 0.65141 0.83867 0.49263
 C1482 C 0.66203 0.84941 0.51644
 C1483 C 0.68740 0.85974 0.51651
 C1484 C 0.70142 0.85932 0.49297
 C1485 C 0.68998 0.84780 0.46935
 H1486 H 0.60497 0.82993 0.52061
 H1487 H 0.56648 0.80887 0.49679
 H1488 H 0.60901 0.80378 0.42462
 H1489 H 0.65109 0.85016 0.53421
 H1490 H 0.69573 0.86889 0.53466
 H1491 H 0.70019 0.84711 0.45110
 C1492 C 0.11393 0.31393 -0.02654
 C1493 C 0.12357 0.29925 -0.00591
 C1494 C 0.11048 0.27683 0.00346
 C1495 C 0.08674 0.26919 -0.00914
 C1496 C 0.07661 0.28389 -0.03074
 C1497 C 0.09055 0.30672 -0.03928
 O1498 O 0.12943 0.33399 -0.03312
 C1499 C 0.14940 0.33197 -0.01636
 C1500 C 0.14693 0.31109 0.00076
 C1501 C 0.16624 0.30510 0.01935
 C1502 C 0.18896 0.32117 0.02011
 C1503 C 0.19192 0.34267 0.00241
 C1504 C 0.17154 0.34819 -0.01581
 H1505 H 0.11839 0.26544 0.01965
 H1506 H 0.07635 0.25177 -0.00216
 H1507 H 0.08397 0.31803 -0.05611
 H1508 H 0.16408 0.28842 0.03251
 H1509 H 0.20438 0.31640 0.03401
 H1510 H 0.17277 0.36466 -0.02934
 C1511 C 0.34857 0.29573 0.05628
 C1512 C 0.33381 0.30122 0.07778
 C1513 C 0.34220 0.29636 0.10351
 C1514 C 0.36700 0.28606 0.10729
 C1515 C 0.38295 0.28098 0.08553
 C1516 C 0.37326 0.28524 0.05957
 O1517 O 0.33780 0.30373 0.03376
 C1518 C 0.31593 0.31467 0.04125
 C1519 C 0.31254 0.31367 0.06795
 C1520 C 0.29193 0.32588 0.08017
 C1521 C 0.27436 0.34008 0.06430
 C1522 C 0.27762 0.34190 0.03669
 C1523 C 0.29849 0.32821 0.02507
 H1524 H 0.33042 0.30117 0.12016
 H1525 H 0.37414 0.28280 0.12726
 H1526 H 0.38519 0.28221 0.04267
 H1527 H 0.28992 0.32528 0.10134
 H1528 H 0.25893 0.35046 0.07386
 H1529 H 0.30167 0.32862 0.00411
 C1530 C 0.86491 0.81242 0.54378
 C1531 C 0.84434 0.79505 0.54683
 C1532 C 0.84690 0.77004 0.55858
 C1533 C 0.87161 0.76287 0.56778
 C1534 C 0.89306 0.78071 0.56520
 C1535 C 0.88954 0.80571 0.55270
 O1536 O 0.85844 0.83544 0.53269
 C1537 C 0.83322 0.83262 0.52869
 C1538 C 0.82353 0.80833 0.53701
 C1539 C 0.79738 0.80174 0.53530
 C1540 C 0.78063 0.82096 0.52451
 C1541 C 0.79029 0.84605 0.51566
 C1542 C 0.81702 0.85186 0.51790
 H1543 H 0.83044 0.75675 0.56096
 H1544 H 0.87387 0.74383 0.57764
 H1545 H 0.90545 0.81973 0.55024
 H1546 H 0.79012 0.78258 0.54213
 H1547 H 0.76024 0.81620 0.52283
 H1548 H 0.82501 0.87107 0.51202
   
