data_POSCAR
  _audit_creation_date              2014-09-24
  _audit_creation_method            'ToBaCCo'
  _symmetry_space_group_name_H-M    'P1'
  _symmetry_Int_Tables_number       1
  _symmetry_cell_setting            triclinic
  loop_
  _symmetry_equiv_pos_as_xyz
 x,y,z
_cell_length_a 38.8657
_cell_length_b 39.6224
_cell_length_c 39.8650
_cell_angle_alpha 90.186800
_cell_angle_beta 90.267600
_cell_angle_gamma 89.900400
loop_
  _atom_site_label
  _atom_site_type_symbol
  _atom_site_fract_x
  _atom_site_fract_y
  _atom_site_fract_z
C1 C 0.38692 0.23999 0.01811
 C2 C 0.38693 0.23997 -0.01605
 C3 C 0.37072 0.26940 -0.02630
 N4 N 0.35968 0.28679 0.00099
 C5 C 0.37069 0.26937 0.02826
 C6 C 0.36650 0.27955 -0.06032
 C7 C 0.34229 0.30455 -0.06984
 C8 C 0.32525 0.30565 -0.10041
 C9 C 0.30485 0.33402 -0.10013
 C10 C 0.30951 0.34946 -0.06913
 N11 N 0.33240 0.33118 -0.05087
 C12 C 0.29527 0.38089 -0.05885
 C13 C 0.30039 0.39243 -0.02573
 C14 C 0.30516 0.42565 -0.01585
 C15 C 0.30552 0.42574 0.01860
 C16 C 0.30115 0.39259 0.02841
 N17 N 0.29861 0.37213 0.00135
 C18 C 0.29705 0.38129 0.06155
 C19 C 0.31101 0.34993 0.07165
 C20 C 0.30682 0.33494 0.10276
 C21 C 0.32684 0.30631 0.10286
 C22 C 0.34299 0.30471 0.07201
 N23 N 0.33312 0.33125 0.05311
 C24 C 0.36649 0.27941 0.06225
 H25 H 0.39676 0.21969 0.03333
 H26 H 0.39679 0.21960 -0.03119
 H27 H 0.34370 0.33820 0.03024
 H28 H 0.32668 0.28751 -0.12069
 H29 H 0.28902 0.34212 -0.12088
 H30 H 0.30888 0.44739 -0.03177
 H31 H 0.30959 0.44753 0.03455
 H32 H 0.32854 0.28833 0.12316
 H33 H 0.34342 0.33842 -0.02815
 H34 H 0.29156 0.34358 0.12364
 C35 C 0.61244 0.76040 -0.01999
 C36 C 0.61419 0.76187 0.01423
 C37 C 0.62779 0.73146 0.02498
 N38 N 0.63516 0.71177 -0.00182
 C39 C 0.62541 0.72916 -0.02947
 C40 C 0.63177 0.72199 0.05904
 C41 C 0.65642 0.69790 0.06980
 C42 C 0.66986 0.69607 0.10202
 C43 C 0.69408 0.67082 0.10197
 C44 C 0.69506 0.65779 0.06971
 N45 N 0.67222 0.67466 0.05021
 C46 C 0.71838 0.63259 0.05876
 C47 C 0.72805 0.62897 0.02475
 C48 C 0.75857 0.61472 0.01389
 C49 C 0.75706 0.61368 -0.02036
 C50 C 0.72567 0.62757 -0.02962
 N51 N 0.70827 0.63731 -0.00192
 C52 C 0.71118 0.62746 -0.06226
 C53 C 0.67990 0.64433 -0.06847
 C54 C 0.65467 0.63430 -0.09095
 C55 C 0.62988 0.65913 -0.09080
 C56 C 0.64087 0.68371 -0.06840
 N57 N 0.67080 0.67391 -0.05399
 C58 C 0.62473 0.71507 -0.06229
 H59 H 0.60226 0.78036 -0.03534
 H60 H 0.60665 0.78335 0.02924
 H61 H 0.68595 0.68829 -0.03763
 H62 H 0.66480 0.71269 0.12297
 H63 H 0.71077 0.66472 0.12285
 H64 H 0.78012 0.60623 0.02885
 H65 H 0.77702 0.60335 -0.03594
 H66 H 0.60576 0.65817 -0.10437
 H67 H 0.66604 0.66905 0.02552
 H68 H 0.65314 0.61076 -0.10463
 C69 C 0.71936 0.42051 1.01709
 C70 C 0.71969 0.42039 0.98282
 C71 C 0.70757 0.38917 0.97257
 N72 N 0.69974 0.37027 0.99972
 C73 C 0.70710 0.38930 1.02712
 C74 C 0.70748 0.37661 0.93927
 C75 C 0.69084 0.34593 0.93176
 C76 C 0.70003 0.32308 0.90701
 C77 C 0.67497 0.29854 0.90639
 C78 C 0.65133 0.30714 0.93084
 N79 N 0.66171 0.33547 0.94686
 C80 C 0.62022 0.29036 0.93756
 C81 C 0.60761 0.28912 0.97081
 C82 C 0.57638 0.27574 0.98073
 C83 C 0.57662 0.27518 1.01503
 C84 C 0.60797 0.28830 1.02531
 N85 N 0.62680 0.29692 0.99818
 C86 C 0.62095 0.28866 1.05854
 C87 C 0.65184 0.30576 1.06592
 C88 C 0.67580 0.29684 1.09012
 C89 C 0.70025 0.32197 1.09071
 C90 C 0.69040 0.34552 1.06690
 N91 N 0.66150 0.33487 1.05115
 C92 C 0.70654 0.37671 1.06043
 H93 H 0.72813 0.44137 1.03217
 H94 H 0.72873 0.44108 0.96785
 H95 H 0.64718 0.34854 1.03358
 H96 H 0.72327 0.32283 0.89226
 H97 H 0.67538 0.27603 0.89104
 H98 H 0.55556 0.26636 0.96547
 H99 H 0.55603 0.26530 1.03003
 H100 H 0.72352 0.32176 1.10565
 H101 H 0.64771 0.34889 0.96482
 H102 H 0.67681 0.27381 1.10453
 C103 C 0.42310 0.72514 0.98426
 C104 C 0.42481 0.72354 1.01845
 C105 C 0.39408 0.70974 1.02935
 N106 N 0.37407 0.70206 1.00255
 C107 C 0.39158 0.71178 0.97491
 C108 C 0.38476 0.70527 1.06350
 C109 C 0.36141 0.67968 1.07364
 C110 C 0.36100 0.66521 1.10527
 C111 C 0.33636 0.64052 1.10479
 C112 C 0.32213 0.64014 1.07283
 N113 N 0.33785 0.66388 1.05389
 C114 C 0.29693 0.61664 1.06166
 C115 C 0.29388 0.60701 1.02743
 C116 C 0.28168 0.57612 1.01615
 C117 C 0.28100 0.57741 0.98191
 C118 C 0.29317 0.60894 0.97299
 N119 N 0.30144 0.62680 1.00092
 C120 C 0.29325 0.62258 0.94019
 C121 C 0.30870 0.65410 0.93428
 C122 C 0.29828 0.67763 0.91074
 C123 C 0.32228 0.70315 0.91143
 C124 C 0.34662 0.69433 0.93532
 N125 N 0.33755 0.66498 0.94994
 C126 C 0.37762 0.71145 0.94203
 H127 H 0.44316 0.73523 0.96873
 H128 H 0.44679 0.73113 1.03326
 H129 H 0.35235 0.65124 0.96708
 H130 H 0.37825 0.66998 1.12607
 H131 H 0.33150 0.62329 1.12516
 H132 H 0.27456 0.55438 1.03080
 H133 H 0.27221 0.55711 0.96609
 H134 H 0.32089 0.72623 0.89713
 H135 H 0.33110 0.67050 1.02959
 H136 H 0.27500 0.67746 0.89583
 C137 C 0.01567 0.42623 0.28051
 C138 C -0.01939 0.42741 0.28246
 C139 C -0.03013 0.39665 0.29511
 N140 N -0.00239 0.37711 0.30181
 C141 C 0.02569 0.39496 0.29256
 C142 C -0.06502 0.38670 0.29894
 C143 C -0.07531 0.36317 0.32379
 C144 C -0.10801 0.36149 0.33747
 C145 C -0.10710 0.33733 0.36200
 C146 C -0.07384 0.32463 0.36301
 N147 N -0.05459 0.34079 0.33981
 C148 C -0.06168 0.30071 0.38676
 C149 C -0.02652 0.29901 0.39640
 C150 C -0.01464 0.28824 0.42739
 C151 C 0.02044 0.28813 0.42600
 C152 C 0.02929 0.29912 0.39425
 N153 N 0.00046 0.30620 0.37639
 C154 C 0.06278 0.29890 0.38037
 C155 C 0.06869 0.31415 0.34906
 C156 C 0.09267 0.30412 0.32547
 C157 C 0.09155 0.32762 0.30008
 C158 C 0.06699 0.35130 0.30903
 N159 N 0.05241 0.34232 0.33837
 C160 C 0.05948 0.38154 0.29198
 H161 H 0.03130 0.44648 0.27116
 H162 H -0.03492 0.44898 0.27573
 H163 H 0.03481 0.35666 0.35213
 H164 H -0.12980 0.37767 0.33238
 H165 H -0.12806 0.33193 0.37884
 H166 H -0.02946 0.28161 0.44923
 H167 H 0.03682 0.28054 0.44645
 H168 H 0.10581 0.32617 0.27694
 H169 H -0.02927 0.33531 0.33383
 H170 H 0.10794 0.28133 0.32536
 C171 C 0.00924 0.69763 0.56928
 C172 C -0.02601 0.69784 0.57066
 C173 C -0.03471 0.69447 0.60420
 N174 N -0.00585 0.69264 0.62319
 C175 C 0.02095 0.69546 0.60199
 C176 C -0.06792 0.69710 0.61839
 C177 C -0.07301 0.68388 0.65081
 C178 C -0.09561 0.69547 0.67506
 C179 C -0.09349 0.67321 0.70152
 C180 C -0.06957 0.64886 0.69265
 N181 N -0.05646 0.65616 0.66228
 C182 C -0.06134 0.61936 0.71062
 C183 C -0.02710 0.60677 0.71015
 C184 C -0.01606 0.57638 0.72349
 C185 C 0.01892 0.57578 0.72102
 C186 C 0.02878 0.60584 0.70625
 N187 N 0.00045 0.62474 0.69955
 C188 C 0.06319 0.61729 0.70228
 C189 C 0.07015 0.64631 0.68285
 C190 C 0.09847 0.66726 0.68597
 C191 C 0.09676 0.69013 0.66009
 C192 C 0.06669 0.68343 0.64249
 N193 N 0.05066 0.65671 0.65663
 C194 C 0.05511 0.69995 0.61306
 H195 H 0.02437 0.69835 0.54661
 H196 H -0.04267 0.69993 0.54909
 H197 H 0.02922 0.64417 0.64689
 H198 H -0.11047 0.71850 0.67494
 H199 H -0.10678 0.67571 0.72516
 H200 H -0.03090 0.55645 0.73455
 H201 H 0.03452 0.55519 0.72979
 H202 H 0.11565 0.70942 0.65550
 H203 H -0.03954 0.64097 0.64858
 H204 H 0.11757 0.66763 0.70562
 C205 C 0.97832 0.62182 0.23810
 C206 C 1.01349 0.62282 0.23696
 C207 C 1.02484 0.63081 0.26895
 N208 N 0.99757 0.63603 0.28936
 C209 C 0.96898 0.63039 0.27056
 C210 C 1.05969 0.63098 0.27970
 C211 C 1.07107 0.65419 0.30468
 C212 C 1.10419 0.65697 0.31773
 C213 C 1.10410 0.68359 0.33998
 C214 C 1.07117 0.69690 0.33966
 N215 N 1.05152 0.67928 0.31768
 C216 C 1.06014 0.72594 0.35734
 C217 C 1.02562 0.73636 0.35581
 C218 C 1.01397 0.76936 0.35637
 C219 C 0.97874 0.76779 0.35880
 C220 C 0.97039 0.73388 0.35982
 N221 N 0.99898 0.71470 0.35736
 C222 C 0.93773 0.72007 0.36582
 C223 C 0.92866 0.68919 0.35029
 C224 C 0.90128 0.66853 0.35855
 C225 C 0.90129 0.64225 0.33581
 C226 C 0.92783 0.64819 0.31352
 N227 N 0.94470 0.67646 0.32297
 C228 C 0.93515 0.63010 0.28377
 H229 H 0.96217 0.61590 0.21690
 H230 H 1.02885 0.61854 0.21480
 H231 H 0.96407 0.68834 0.30936
 H232 H 1.12689 0.64277 0.31130
 H233 H 1.12634 0.69266 0.35358
 H234 H 1.02924 0.79209 0.35462
 H235 H 0.96133 0.78911 0.35882
 H236 H 0.88462 0.62063 0.33707
 H237 H 1.02677 0.68579 0.31002
 H238 H 0.88321 0.67142 0.37881
 C239 C 0.98412 0.36487 0.76772
 C240 C 1.01945 0.36467 0.76788
 C241 C 1.02962 0.36400 0.73463
 N242 N 1.00180 0.36297 0.71418
 C243 C 0.97401 0.36412 0.73442
 C244 C 1.06376 0.36630 0.72290
 C245 C 1.07405 0.34714 0.69449
 C246 C 1.10579 0.34820 0.67866
 C247 C 1.10542 0.32362 0.65409
 C248 C 1.07353 0.30809 0.65551
 N249 N 1.05491 0.32233 0.68040
 C250 C 1.06280 0.27971 0.63654
 C251 C 1.02889 0.26765 0.63913
 C252 C 1.01897 0.23415 0.63786
 C253 C 0.98364 0.23401 0.63803
 C254 C 0.97337 0.26744 0.63931
 N255 N 1.00104 0.28800 0.64058
 C256 C 0.93926 0.27931 0.63712
 C257 C 0.92899 0.30801 0.65572
 C258 C 0.89717 0.32383 0.65430
 C259 C 0.89740 0.34872 0.67855
 C260 C 0.92934 0.34741 0.69417
 N261 N 0.94813 0.32235 0.68028
 C262 C 0.93991 0.36635 0.72250
 H263 H 0.96778 0.36442 0.78961
 H264 H 1.03578 0.36414 0.78993
 H265 H 0.97154 0.31333 0.68936
 H266 H 1.12761 0.36395 0.68458
 H267 H 1.12684 0.31740 0.63807
 H268 H 1.03547 0.21212 0.63772
 H269 H 0.96742 0.21185 0.63814
 H270 H 0.87584 0.36482 0.68447
 H271 H 1.03152 0.31346 0.68938
 H272 H 0.87540 0.31762 0.63856
 C273 C 0.28114 -0.01462 0.42765
 C274 C 0.28085 0.01981 0.42614
 C275 C 0.29324 0.02851 0.39482
 N276 N 0.30128 0.00023 0.37732
 C277 C 0.29332 -0.02625 0.39711
 C278 C 0.29367 0.06141 0.38102
 C279 C 0.30969 0.06720 0.34997
 C280 C 0.29985 0.09084 0.32629
 C281 C 0.32428 0.08997 0.30138
 C282 C 0.34829 0.06586 0.31068
 N283 N 0.33862 0.05133 0.33977
 C284 C 0.37937 0.05860 0.29410
 C285 C 0.39298 0.02544 0.29465
 C286 C 0.42473 0.01562 0.28239
 C287 C 0.42586 -0.01876 0.28416
 C288 C 0.39461 -0.02931 0.29702
 N289 N 0.37479 -0.00211 0.30394
 C290 C 0.38450 -0.06354 0.30088
 C291 C 0.36059 -0.07364 0.32574
 C292 C 0.35949 -0.10551 0.33995
 C293 C 0.33466 -0.10475 0.36424
 C294 C 0.32101 -0.07239 0.36459
 N295 N 0.33726 -0.05350 0.34123
 C296 C 0.29592 -0.06077 0.38777
 H297 H 0.27375 -0.02917 0.44929
 H298 H 0.27217 0.03589 0.44619
 H299 H 0.33109 -0.02892 0.33466
 H300 H 0.27663 0.10585 0.32590
 H301 H 0.32325 0.10414 0.27831
 H302 H 0.44534 0.03090 0.27293
 H303 H 0.44779 -0.03390 0.27721
 H304 H 0.32934 -0.12521 0.38128
 H305 H 0.35302 0.03404 0.35375
 H306 H 0.37651 -0.12660 0.33538
 C307 C 0.57324 0.01614 0.71769
 C308 C 0.57445 -0.01829 0.71898
 C309 C 0.60611 -0.02794 0.70629
 N310 N 0.62411 -0.00025 0.69716
 C311 C 0.60430 0.02682 0.70462
 C312 C 0.61986 -0.06108 0.70637
 C313 C 0.65115 -0.06805 0.69000
 C314 C 0.67524 -0.09197 0.69955
 C315 C 0.69993 -0.09272 0.67491
 C316 C 0.69015 -0.06923 0.65101
 N317 N 0.66101 -0.05349 0.66097
 C318 C 0.70664 -0.06323 0.62013
 C319 C 0.70760 -0.02993 0.60703
 C320 C 0.72107 -0.02046 0.57632
 C321 C 0.72073 0.01396 0.57552
 C322 C 0.70735 0.02491 0.60577
 N323 N 0.69883 -0.00199 0.62479
 C324 C 0.70400 0.05926 0.61534
 C325 C 0.67879 0.07059 0.63840
 C326 C 0.66528 0.10298 0.63904
 C327 C 0.64007 0.10347 0.66299
 C328 C 0.63859 0.07138 0.67658
 N329 N 0.66215 0.05140 0.66122
 C330 C 0.61408 0.06104 0.70069
 H331 H 0.55138 0.03126 0.72497
 H332 H 0.55396 -0.03374 0.72844
 H333 H 0.66810 0.02666 0.66735
 H334 H 0.67610 -0.10615 0.72264
 H335 H 0.72324 -0.10761 0.67554
 H336 H 0.73053 -0.03595 0.55618
 H337 H 0.72876 0.02889 0.55439
 H338 H 0.62304 0.12453 0.66763
 H339 H 0.64667 -0.03622 0.64691
 H340 H 0.67075 0.12362 0.62227
 C341 C 0.37928 1.01527 0.76003
 C342 C 0.38068 0.98085 0.75847
 C343 C 0.36770 0.97158 0.72736
 N344 N 0.35825 0.99949 0.71006
 C345 C 0.36591 1.02633 0.72971
 C346 C 0.36832 0.93870 0.71333
 C347 C 0.35179 0.93226 0.68247
 C348 C 0.36211 0.90906 0.65849
 C349 C 0.33720 0.90901 0.63384
 C350 C 0.31249 0.93223 0.64352
 N351 N 0.32209 0.94709 0.67264
 C352 C 0.28120 0.93872 0.62682
 C353 C 0.26721 0.97175 0.62665
 C354 C 0.23589 0.98120 0.61281
 C355 C 0.23473 1.01566 0.61364
 C356 C 0.26546 1.02653 0.62768
 N357 N 0.28497 0.99957 0.63617
 C358 C 0.27549 1.06079 0.63116
 C359 C 0.29848 1.07158 0.65680
 C360 C 0.29894 1.10374 0.67060
 C361 C 0.32331 1.10369 0.69559
 C362 C 0.33736 1.07152 0.69660
 N363 N 0.32171 1.05199 0.67312
 C364 C 0.36254 1.06068 0.72014
 H365 H 0.38700 1.03021 0.78146
 H366 H 0.39061 0.96517 0.77826
 H367 H 0.32847 1.02748 0.66675
 H368 H 0.38595 0.89505 0.65764
 H369 H 0.33835 0.89491 0.61064
 H370 H 0.21573 0.96561 0.60263
 H371 H 0.21327 1.03077 0.60515
 H372 H 0.32825 1.12453 0.71249
 H373 H 0.30736 0.96399 0.68674
 H374 H 0.28197 1.12463 0.66497
 C375 C 0.64050 1.01843 0.23415
 C376 C 0.64043 0.98377 0.23435
 C377 C 0.64111 0.97416 0.26768
 N378 N 0.64220 1.00159 0.28787
 C379 C 0.64124 1.02865 0.26736
 C380 C 0.63841 0.94089 0.27970
 C381 C 0.65685 0.93087 0.30873
 C382 C 0.65489 0.89982 0.32454
 C383 C 0.67916 0.89998 0.34989
 C384 C 0.69536 0.93113 0.34892
 N385 N 0.68181 0.94949 0.32356
 C386 C 0.72394 0.94137 0.36861
 C387 C 0.73626 0.97472 0.36670
 C388 C 0.77038 0.98440 0.36869
 C389 C 0.77059 1.01905 0.36823
 C390 C 0.73656 1.02928 0.36617
 N391 N 0.71559 1.00212 0.36456
 C392 C 0.72454 1.06292 0.36774
 C393 C 0.69613 1.07313 0.34769
 C394 C 0.68031 1.10459 0.34782
 C395 C 0.65590 1.10425 0.32268
 C396 C 0.65743 1.07269 0.30768
 N397 N 0.68223 1.05418 0.32284
 C398 C 0.63875 1.06215 0.27897
 H399 H 0.64102 1.03426 0.21209
 H400 H 0.64088 0.96753 0.21248
 H401 H 0.69145 1.03094 0.31458
 H402 H 0.63877 0.87860 0.31808
 H403 H 0.68470 0.87891 0.36613
 H404 H 0.79283 0.96822 0.36916
 H405 H 0.79325 1.03488 0.36846
 H406 H 0.64002 1.12551 0.31575
 H407 H 0.69140 0.97229 0.31476
 H408 H 0.68621 1.12625 0.36324
 O409 O 0.86005 0.81101 0.47146
 O410 O 0.81058 0.85377 0.53704
 O411 O 0.85623 0.80551 0.53560
 O412 O 0.81445 0.85924 0.47276
 O413 O 0.77343 0.82125 0.46563
 O414 O 0.81479 0.76770 0.53020
 O415 O 0.76823 0.81713 0.53053
 O416 O 0.81905 0.77280 0.46551
 Cu417 Cu 0.83943 0.83612 0.50492
 Cu418 Cu 0.78958 0.79088 0.49764
 C419 C 0.84833 0.78448 0.45770
 C420 C 0.78062 0.84352 0.54413
 C421 C 0.84322 0.77718 0.54291
 C422 C 0.78691 0.84951 0.45856
 O423 O 0.18457 0.14179 0.52980
 O424 O 0.14340 0.19338 0.46515
 O425 O 0.18904 0.14546 0.46550
 O426 O 0.13921 0.18993 0.52954
 O427 O 0.18089 0.22737 0.53587
 O428 O 0.23076 0.18307 0.47023
 O429 O 0.18391 0.23212 0.47070
 O430 O 0.22656 0.17907 0.53490
 Cu431 Cu 0.15991 0.16392 0.49688
 Cu432 Cu 0.20975 0.20937 0.50318
 C433 C 0.21269 0.15129 0.54302
 C434 C 0.15594 0.22183 0.45763
 C435 C 0.21865 0.15608 0.45763
 C436 C 0.15144 0.21605 0.54362
 O437 O 0.18391 0.86127 0.46854
 O438 O 0.13388 0.81260 0.52958
 O439 O 0.18110 0.85910 0.53250
 O440 O 0.13508 0.81638 0.46479
 O441 O 0.17518 0.77679 0.46274
 O442 O 0.22077 0.81906 0.53304
 O443 O 0.17285 0.77194 0.52802
 O444 O 0.22413 0.82170 0.46851
 Cu445 Cu 0.15439 0.84120 0.49894
 Cu446 Cu 0.20213 0.79314 0.49814
 C447 C 0.21296 0.85022 0.45900
 C448 C 0.14454 0.78374 0.53865
 C449 C 0.20911 0.84711 0.54363
 C450 C 0.14713 0.78950 0.45217
 O451 O 0.86229 0.18650 0.53432
 O452 O 0.81797 0.14113 0.46727
 O453 O 0.86285 0.18997 0.46991
 O454 O 0.81502 0.13995 0.53164
 O455 O 0.77347 0.17815 0.53148
 O456 O 0.82183 0.22869 0.47055
 O457 O 0.77656 0.17946 0.46654
 O458 O 0.82104 0.22497 0.53571
 Cu459 Cu 0.84367 0.16057 0.50075
 Cu460 Cu 0.79405 0.20676 0.50106
 C461 C 0.84965 0.21343 0.54623
 C462 C 0.78966 0.15206 0.45581
 C463 C 0.85079 0.21816 0.46037
 C464 C 0.78576 0.15023 0.54139
 O465 O 0.46584 0.85930 0.81081
 O466 O 0.53129 0.81282 0.85754
 O467 O 0.53197 0.85798 0.81030
 O468 O 0.46530 0.81342 0.85740
 O469 O 0.46586 0.77208 0.82000
 O470 O 0.52987 0.81902 0.77052
 O471 O 0.53236 0.77319 0.81840
 O472 O 0.46322 0.81864 0.77279
 Cu473 Cu 0.49868 0.83991 0.83783
 Cu474 Cu 0.49774 0.79164 0.79145
 C475 C 0.45367 0.84729 0.78377
 C476 C 0.54257 0.78497 0.84640
 C477 C 0.54137 0.84673 0.78196
 C478 C 0.45523 0.78466 0.84740
 O479 O 0.53213 0.18486 0.14072
 O480 O 0.46719 0.13868 0.18890
 O481 O 0.46596 0.18354 0.14151
 O482 O 0.53335 0.13799 0.18637
 O483 O 0.53611 0.17845 0.22461
 O484 O 0.46516 0.22316 0.18066
 O485 O 0.46934 0.17762 0.22869
 O486 O 0.53168 0.22580 0.17854
 Cu487 Cu 0.49957 0.15728 0.16053
 Cu488 Cu 0.50065 0.20529 0.20714
 C489 C 0.54211 0.21363 0.15092
 C490 C 0.45799 0.14981 0.21736
 C491 C 0.45438 0.21114 0.15294
 C492 C 0.54608 0.15014 0.21307
 O493 O 0.52954 0.14100 0.80903
 O494 O 0.46527 0.18577 0.85931
 O495 O 0.46373 0.13914 0.81347
 O496 O 0.53148 0.18723 0.85580
 O497 O 0.52684 0.22774 0.81805
 O498 O 0.45995 0.17798 0.77391
 O499 O 0.46022 0.22502 0.82031
 O500 O 0.52644 0.18066 0.77025
 Cu501 Cu 0.49802 0.15941 0.83830
 Cu502 Cu 0.49320 0.20690 0.79165
 C503 C 0.53817 0.15264 0.78073
 C504 C 0.45199 0.21299 0.84864
 C505 C 0.45083 0.14988 0.78626
 C506 C 0.53981 0.21608 0.84494
 O507 O 0.46638 0.81389 0.14362
 O508 O 0.53187 0.86349 0.18800
 O509 O 0.53217 0.81806 0.14079
 O510 O 0.46585 0.85951 0.19131
 O511 O 0.47104 0.82005 0.23011
 O512 O 0.53667 0.77732 0.17836
 O513 O 0.53784 0.82311 0.22574
 O514 O 0.47052 0.77371 0.18179
 Cu515 Cu 0.49842 0.84278 0.16219
 Cu516 Cu 0.50426 0.79452 0.20800
 C517 C 0.45821 0.78497 0.15445
 C518 C 0.54596 0.85189 0.21431
 C519 C 0.54513 0.79036 0.15055
 C520 C 0.45805 0.84754 0.21972
 O521 O 0.81119 0.46719 0.85909
 O522 O 0.85748 0.53294 0.81310
 O523 O 0.81033 0.53204 0.85909
 O524 O 0.85967 0.46807 0.81438
 O525 O 0.81917 0.46475 0.77536
 O526 O 0.77099 0.53268 0.81889
 O527 O 0.81889 0.53029 0.77225
 O528 O 0.77008 0.46736 0.82056
 Cu529 Cu 0.83865 0.50022 0.84037
 Cu530 Cu 0.79075 0.49867 0.79264
 C531 C 0.78230 0.45692 0.84822
 C532 C 0.84666 0.54198 0.78443
 C533 C 0.78225 0.54300 0.84708
 C534 C 0.84806 0.45558 0.78735
 O535 O 0.18729 0.46826 0.14008
 O536 O 0.13923 0.53344 0.18498
 O537 O 0.18764 0.53286 0.13973
 O538 O 0.14077 0.46833 0.18696
 O539 O 0.18079 0.46947 0.22655
 O540 O 0.22762 0.53457 0.17937
 O541 O 0.17872 0.53471 0.22505
 O542 O 0.22816 0.46972 0.17883
 Cu543 Cu 0.15963 0.50061 0.15910
 Cu544 Cu 0.20784 0.50216 0.20654
 C545 C 0.21640 0.45885 0.15102
 C546 C 0.15025 0.54470 0.21280
 C547 C 0.21611 0.54382 0.15101
 C548 C 0.15238 0.45857 0.21511
 O549 O 0.81187 0.52927 0.13837
 O550 O 0.85538 0.46552 0.18949
 O551 O 0.80921 0.46415 0.14171
 O552 O 0.85757 0.53002 0.18600
 O553 O 0.81625 0.53418 0.22375
 O554 O 0.76724 0.46807 0.17876
 O555 O 0.81424 0.46896 0.22748
 O556 O 0.77031 0.53345 0.17584
 Cu557 Cu 0.83754 0.49670 0.16005
 Cu558 Cu 0.78772 0.50128 0.20529
 C559 C 0.78377 0.54213 0.14823
 C560 C 0.84296 0.45733 0.21763
 C561 C 0.77969 0.45560 0.15206
 C562 C 0.84545 0.54294 0.21260
 O563 O 0.19045 0.53475 0.85686
 O564 O 0.14205 0.46852 0.81360
 O565 O 0.18902 0.46992 0.86071
 O566 O 0.14496 0.53323 0.80884
 O567 O 0.18513 0.52832 0.77006
 O568 O 0.23076 0.46647 0.82335
 O569 O 0.18341 0.46301 0.77608
 O570 O 0.23179 0.53127 0.81908
 Cu571 Cu 0.16250 0.50202 0.83873
 Cu572 Cu 0.21188 0.49699 0.79318
 C573 C 0.21966 0.54360 0.84603
 C574 C 0.15411 0.45476 0.78743
 C575 C 0.21784 0.45820 0.85132
 C576 C 0.15692 0.54076 0.78028
 C577 C 0.25769 0.40448 0.13772
 C578 C 0.24419 0.38830 0.10470
 C579 C 0.27577 0.40225 0.08593
 C580 C 0.28945 0.41821 0.11865
 C581 C 0.25563 0.43485 0.07758
 C582 C 0.22422 0.42099 0.09652
 C583 C 0.23800 0.43693 0.12909
 C584 C 0.26931 0.45097 0.11038
 H585 H 0.25823 0.39211 0.16266
 H586 H 0.23352 0.36245 0.10207
 H587 H 0.31651 0.41707 0.12759
 H588 H 0.25264 0.44830 0.05340
 H589 H 0.19718 0.42202 0.08749
 H590 H 0.27955 0.47700 0.11292
 C591 C 0.78020 0.57766 0.09198
 C592 C 0.74418 0.57213 0.07636
 C593 C 0.73512 0.60927 0.08447
 C594 C 0.77090 0.61480 0.10013
 C595 C 0.72061 0.59827 0.11880
 C596 C 0.73014 0.56122 0.11076
 C597 C 0.76592 0.56700 0.12619
 C598 C 0.75671 0.60374 0.13472
 H599 H 0.80483 0.56897 0.08087
 H600 H 0.73883 0.55857 0.05249
 H601 H 0.78765 0.63697 0.09564
 H602 H 0.69573 0.60596 0.13008
 H603 H 0.71356 0.53892 0.11532
 H604 H 0.76194 0.61647 0.15906
 C605 C 0.72328 0.42565 0.86589
 C606 C 0.73112 0.38823 0.87416
 C607 C 0.72646 0.39598 0.91199
 C608 C 0.71824 0.43315 0.90360
 C609 C 0.76504 0.40437 0.91529
 C610 C 0.76997 0.39676 0.87750
 C611 C 0.76172 0.43379 0.86964
 C612 C 0.75690 0.44164 0.90704
 H613 H 0.70622 0.43456 0.84533
 H614 H 0.72024 0.36759 0.85861
 H615 H 0.69674 0.44827 0.91411
 H616 H 0.78231 0.39566 0.93577
 H617 H 0.79139 0.38191 0.86649
 H618 H 0.76763 0.46392 0.92041
 C619 C 0.24521 0.55800 0.90466
 C620 C 0.28378 0.56693 0.90225
 C621 C 0.27500 0.60374 0.91177
 C622 C 0.23652 0.59488 0.91401
 C623 C 0.27070 0.61251 0.87413
 C624 C 0.27904 0.57538 0.86468
 C625 C 0.24065 0.56678 0.86739
 C626 C 0.23190 0.60349 0.87641
 H627 H 0.23467 0.53524 0.91711
 H628 H 0.30527 0.55172 0.91273
 H629 H 0.21892 0.60278 0.93444
 H630 H 0.28152 0.63389 0.85979
 H631 H 0.29639 0.56725 0.84413
 H632 H 0.21048 0.61847 0.86548
 C633 C 0.09757 0.25024 0.44379
 C634 C 0.10201 0.28795 0.43519
 C635 C 0.09157 0.28004 0.39859
 C636 C 0.08738 0.24239 0.40714
 C637 C 0.12987 0.27402 0.38966
 C638 C 0.14021 0.28149 0.42661
 C639 C 0.13543 0.24397 0.43490
 C640 C 0.12557 0.23608 0.39838
 H641 H 0.08434 0.24034 0.46634
 H642 H 0.09257 0.30948 0.45049
 H643 H 0.06552 0.22616 0.39925
 H644 H 0.14503 0.28407 0.36846
 H645 H 0.16222 0.29740 0.43473
 H646 H 0.13557 0.21464 0.38330
 C647 C 0.10124 0.73329 0.54493
 C648 C 0.11112 0.71100 0.57533
 C649 C 0.07891 0.72368 0.59391
 C650 C 0.06904 0.74616 0.56363
 C651 C 0.09978 0.75320 0.60920
 C652 C 0.13229 0.74057 0.59042
 C653 C 0.12208 0.76244 0.56020
 C654 C 0.09015 0.77542 0.57874
 H655 H 0.10197 0.72512 0.51828
 H656 H 0.11972 0.68431 0.57386
 H657 H 0.04371 0.75152 0.55191
 H658 H 0.09875 0.76232 0.63553
 H659 H 0.15852 0.73856 0.60136
 H660 H 0.08167 0.80215 0.58017
 C661 C 0.86218 0.73463 0.41226
 C662 C 0.87797 0.75161 0.38087
 C663 C 0.91356 0.73735 0.39049
 C664 C 0.89806 0.72023 0.42170
 C665 C 0.92145 0.76932 0.41151
 C666 C 0.88578 0.78375 0.40186
 C667 C 0.87032 0.76657 0.43276
 C668 C 0.90569 0.75229 0.44255
 H669 H 0.83759 0.72045 0.41279
 H670 H 0.86664 0.75130 0.35526
 H671 H 0.90356 0.69424 0.43057
 H672 H 0.94541 0.78428 0.41383
 H673 H 0.88053 0.81006 0.39380
 H674 H 0.91698 0.75260 0.46817
 C675 C 0.89101 0.21396 0.59925
 C676 C 0.92353 0.23338 0.58847
 C677 C 0.91415 0.26187 0.61337
 C678 C 0.88163 0.24266 0.62414
 C679 C 0.89354 0.28009 0.58558
 C680 C 0.90275 0.25143 0.56087
 C681 C 0.87046 0.23212 0.57167
 C682 C 0.86069 0.26063 0.59606
 H683 H 0.88980 0.18656 0.60484
 H684 H 0.94880 0.22168 0.58289
 H685 H 0.87310 0.23905 0.65041
 H686 H 0.89492 0.30739 0.57958
 H687 H 0.91129 0.25520 0.53465
 H688 H 0.83463 0.27172 0.59892
 C689 C 0.39739 0.11966 0.23122
 C690 C 0.40596 0.08192 0.23688
 C691 C 0.39810 0.08602 0.27453
 C692 C 0.38938 0.12379 0.26914
 C693 C 0.43598 0.09540 0.28170
 C694 C 0.44393 0.09115 0.24397
 C695 C 0.43514 0.12849 0.23843
 C696 C 0.42750 0.13304 0.27594
 H697 H 0.38162 0.12992 0.21031
 H698 H 0.39715 0.06074 0.22072
 H699 H 0.36820 0.13922 0.27968
 H700 H 0.45201 0.08567 0.30267
 H701 H 0.46666 0.07787 0.23346
 H702 H 0.43652 0.15432 0.29187
 C703 C 0.59577 0.11684 0.76838
 C704 C 0.58334 0.08138 0.75790
 C705 C 0.59541 0.08778 0.72158
 C706 C 0.60833 0.12321 0.73215
 C707 C 0.55999 0.10249 0.71227
 C708 C 0.54772 0.09601 0.74852
 C709 C 0.56040 0.13128 0.75880
 C710 C 0.57254 0.13813 0.72284
 H711 H 0.61037 0.12301 0.79160
 H712 H 0.58784 0.05821 0.77290
 H713 H 0.63360 0.13470 0.72623
 H714 H 0.54518 0.09644 0.68916
 H715 H 0.52253 0.08490 0.75548
 H716 H 0.56813 0.16180 0.70862
 C717 C 0.43429 0.87826 0.72709
 C718 C 0.39512 0.87357 0.72102
 C719 C 0.38931 0.91109 0.73053
 C720 C 0.42820 0.91568 0.73647
 C721 C 0.38429 0.90090 0.76752
 C722 C 0.39058 0.86346 0.75827
 C723 C 0.42929 0.86860 0.76402
 C724 C 0.42329 0.90574 0.77354
 H725 H 0.45504 0.86869 0.71053
 H726 H 0.38334 0.85848 0.70053
 H727 H 0.44383 0.93727 0.72755
 H728 H 0.36345 0.90993 0.78428
 H729 H 0.37533 0.84172 0.76742
 H730 H 0.43492 0.91910 0.79533
 C731 C 0.60026 0.89283 0.21447
 C732 C 0.58914 0.92533 0.23306
 C733 C 0.61412 0.91640 0.26202
 C734 C 0.62522 0.88395 0.24361
 C735 C 0.58510 0.89699 0.27989
 C736 C 0.56030 0.90572 0.25080
 C737 C 0.57150 0.87350 0.23234
 C738 C 0.59597 0.86424 0.26129
 H739 H 0.60640 0.89096 0.18736
 H740 H 0.58391 0.94995 0.22093
 H741 H 0.65216 0.87510 0.24068
 H742 H 0.57849 0.89896 0.30688
 H743 H 0.53344 0.91462 0.25389
 H744 H 0.59853 0.83890 0.27281
 C745 C 0.41984 0.21946 0.90653
 C746 C 0.42582 0.25572 0.91969
 C747 C 0.38718 0.26332 0.91410
 C748 C 0.38120 0.22729 0.90084
 C749 C 0.39517 0.27582 0.87819
 C750 C 0.43374 0.26769 0.88380
 C751 C 0.42756 0.23164 0.87084
 C752 C 0.38930 0.23942 0.86471
 H753 H 0.43020 0.19616 0.91827
 H754 H 0.44141 0.26253 0.94212
 H755 H 0.35954 0.21059 0.90793
 H756 H 0.38612 0.29933 0.86592
 H757 H 0.45556 0.28414 0.87660
 H758 H 0.37452 0.23267 0.84178
 C759 C 0.56118 0.72801 0.87764
 C760 C 0.60046 0.72196 0.87399
 C761 C 0.60532 0.73160 0.91144
 C762 C 0.56634 0.73750 0.91499
 C763 C 0.61071 0.76881 0.90139
 C764 C 0.60530 0.75944 0.86403
 C765 C 0.56649 0.76515 0.86811
 C766 C 0.57158 0.77480 0.90515
 H767 H 0.54066 0.71130 0.86758
 H768 H 0.61256 0.70142 0.85921
 H769 H 0.55012 0.72856 0.93601
 H770 H 0.63134 0.78575 0.91084
 H771 H 0.62108 0.76863 0.84281
 H772 H 0.55963 0.79673 0.91805
 C773 C 0.40066 0.77226 0.11831
 C774 C 0.41340 0.76245 0.08299
 C775 C 0.40201 0.72555 0.08880
 C776 C 0.38870 0.73547 0.12405
 C777 C 0.43752 0.71668 0.10354
 C778 C 0.44913 0.75350 0.09767
 C779 C 0.43613 0.76310 0.13277
 C780 C 0.42461 0.72659 0.13900
 H781 H 0.38564 0.79524 0.12468
 H782 H 0.40874 0.77788 0.06021
 H783 H 0.36350 0.72888 0.13523
 H784 H 0.45282 0.69383 0.09734
 H785 H 0.47424 0.76117 0.08692
 H786 H 0.42915 0.71206 0.16236
 C787 C 0.57204 0.27206 0.13217
 C788 C 0.61031 0.26539 0.12370
 C789 C 0.60193 0.26945 0.08591
 C790 C 0.56389 0.27647 0.09448
 C791 C 0.59449 0.23136 0.08297
 C792 C 0.60273 0.22703 0.12076
 C793 C 0.56483 0.23409 0.12884
 C794 C 0.55634 0.23828 0.09145
 H795 H 0.56264 0.28869 0.15264
 H796 H 0.63125 0.27678 0.13889
 H797 H 0.54776 0.29701 0.08386
 H798 H 0.60371 0.21454 0.06257
 H799 H 0.61860 0.20655 0.13185
 H800 H 0.53384 0.22701 0.07834
 C801 C 0.23956 0.13656 0.60418
 C802 C 0.22459 0.10191 0.61481
 C803 C 0.25999 0.08554 0.60915
 C804 C 0.27530 0.11991 0.59858
 C805 C 0.25071 0.07792 0.57212
 C806 C 0.21504 0.09428 0.57779
 C807 C 0.23008 0.12855 0.56757
 C808 C 0.26549 0.11240 0.56167
 H809 H 0.23493 0.16100 0.61708
 H810 H 0.20775 0.09749 0.63677
 H811 H 0.30044 0.13074 0.60633
 H812 H 0.25547 0.05400 0.55830
 H813 H 0.19014 0.08369 0.56901
 H814 H 0.28211 0.11692 0.53957
 C815 C 0.74313 0.13969 0.40508
 C816 C 0.76189 0.11744 0.37867
 C817 C 0.74108 0.08658 0.39020
 C818 C 0.72207 0.10848 0.41639
 C819 C 0.76899 0.07783 0.41658
 C820 C 0.79000 0.10871 0.40500
 C821 C 0.77106 0.13062 0.43089
 C822 C 0.75019 0.09997 0.44252
 H823 H 0.73261 0.16536 0.40063
 H824 H 0.76675 0.12451 0.35219
 H825 H 0.69405 0.10807 0.42166
 H826 H 0.78001 0.05305 0.42378
 H827 H 0.81813 0.10895 0.40034
 H828 H 0.74519 0.09303 0.46898
 C829 C 0.76650 0.87328 0.60375
 C830 C 0.76310 0.91133 0.59564
 C831 C 0.72421 0.90968 0.60268
 C832 C 0.72727 0.87157 0.61096
 C833 C 0.71680 0.90079 0.56560
 C834 C 0.75581 0.90263 0.55849
 C835 C 0.75917 0.86495 0.56676
 C836 C 0.72037 0.86280 0.57357
 H837 H 0.78700 0.86164 0.61938
 H838 H 0.78086 0.93139 0.60456
 H839 H 0.71520 0.85692 0.63139
 H840 H 0.69620 0.91186 0.54966
 H841 H 0.76768 0.91529 0.53660
 H842 H 0.70294 0.84258 0.56441
 C843 C 0.27161 0.86432 0.42565
 C844 C 0.26222 0.88038 0.39131
 C845 C 0.27449 0.91499 0.40487
 C846 C 0.28385 0.89915 0.43887
 C847 C 0.23758 0.92266 0.41716
 C848 C 0.22544 0.88791 0.40413
 C849 C 0.23512 0.87233 0.43809
 C850 C 0.24701 0.90681 0.45141
 H851 H 0.28537 0.84000 0.42912
 H852 H 0.26777 0.86926 0.36632
 H853 H 0.30792 0.90388 0.45321
 H854 H 0.22295 0.94648 0.41357
 H855 H 0.20126 0.88300 0.39004
 H856 H 0.24044 0.91753 0.47635
 C857 C 0.14126 0.40525 0.74077
 C858 C 0.12016 0.37729 0.75855
 C859 C 0.08764 0.38881 0.73952
 C860 C 0.10840 0.41654 0.72153
 C861 C 0.07878 0.41393 0.76802
 C862 C 0.11135 0.40238 0.78723
 C863 C 0.13210 0.42981 0.76928
 C864 C 0.09980 0.44144 0.75020
 H865 H 0.16720 0.40194 0.72969
 H866 H 0.12846 0.35070 0.76200
 H867 H 0.10692 0.42283 0.69444
 H868 H 0.05371 0.42005 0.77975
 H869 H 0.11273 0.39663 0.81444
 H870 H 0.09165 0.46809 0.74678
 C871 C 0.10311 0.55647 0.25924
 C872 C 0.11277 0.58745 0.28094
 C873 C 0.08383 0.60812 0.26382
 C874 C 0.07392 0.57681 0.24254
 C875 C 0.10892 0.61985 0.23650
 C876 C 0.13821 0.59918 0.25335
 C877 C 0.12792 0.56851 0.23193
 C878 C 0.09892 0.58870 0.21500
 H879 H 0.10099 0.53013 0.26843
 H880 H 0.11822 0.58552 0.30822
 H881 H 0.04815 0.56554 0.23823
 H882 H 0.11126 0.64606 0.22705
 H883 H 0.16490 0.60813 0.25773
 H884 H 0.09321 0.58920 0.18770
 C885 C 0.85724 0.42435 0.27621
 C886 C 0.87345 0.38948 0.26755
 C887 C 0.90908 0.40320 0.27851
 C888 C 0.89311 0.43764 0.28720
 C889 C 0.91585 0.41475 0.24211
 C890 C 0.88017 0.40159 0.23127
 C891 C 0.86448 0.43601 0.24022
 C892 C 0.89996 0.44941 0.25089
 H893 H 0.83279 0.42824 0.28998
 H894 H 0.86226 0.36449 0.27357
 H895 H 0.89857 0.45260 0.31020
 H896 H 0.93971 0.41077 0.22739
 H897 H 0.87454 0.38689 0.20814
 H898 H 0.91076 0.47430 0.24378
 C899 C 0.90687 0.55680 0.75970
 C900 C 0.90352 0.56436 0.72180
 C901 C 0.91235 0.60166 0.72907
 C902 C 0.91559 0.59422 0.76685
 C903 C 0.87357 0.60972 0.73327
 C904 C 0.86488 0.57217 0.72641
 C905 C 0.86854 0.56490 0.76407
 C906 C 0.87681 0.60207 0.77136
 H907 H 0.92036 0.53471 0.77072
 H908 H 0.91431 0.54863 0.70128
 H909 H 0.93658 0.60320 0.78360
 H910 H 0.85780 0.63028 0.72231
 H911 H 0.84379 0.56297 0.70990
 H912 H 0.86549 0.61746 0.79185
 C913 C 0.77169 0.57279 0.90483
 C914 C 0.76607 0.61108 0.90006
 C915 C 0.72811 0.60654 0.91023
 C916 C 0.73365 0.56834 0.91473
 C917 C 0.71814 0.60095 0.87295
 C918 C 0.75640 0.60501 0.86285
 C919 C 0.76178 0.56699 0.86790
 C920 C 0.72386 0.56244 0.87753
 H921 H 0.79389 0.56116 0.91811
 H922 H 0.78355 0.63130 0.90914
 H923 H 0.72435 0.55312 0.93619
 H924 H 0.69708 0.61271 0.85820
 H925 H 0.76591 0.61987 0.84125
 H926 H 0.70659 0.54226 0.86798
 C927 C 0.22339 0.42005 0.90657
 C928 C 0.24338 0.38726 0.89846
 C929 C 0.27480 0.40086 0.91817
 C930 C 0.25459 0.43351 0.92658
 C931 C 0.28908 0.41712 0.88610
 C932 C 0.25758 0.40371 0.86606
 C933 C 0.23788 0.43621 0.87467
 C934 C 0.26895 0.44988 0.89439
 H935 H 0.19618 0.42126 0.91482
 H936 H 0.23243 0.36149 0.90036
 H937 H 0.25106 0.44674 0.95086
 H938 H 0.31625 0.41596 0.87772
 H939 H 0.25847 0.39157 0.84096
 H940 H 0.27928 0.47592 0.89262
 C941 C 0.22739 0.59967 0.11369
 C942 C 0.26422 0.61289 0.12067
 C943 C 0.27599 0.59936 0.08610
 C944 C 0.23903 0.58669 0.07898
 C945 C 0.28583 0.56524 0.10172
 C946 C 0.27410 0.57842 0.13651
 C947 C 0.23756 0.56560 0.12905
 C948 C 0.24896 0.55233 0.09460
 H949 H 0.20321 0.61365 0.11890
 H950 H 0.26986 0.63808 0.13164
 H951 H 0.22399 0.59014 0.05549
 H952 H 0.30988 0.55098 0.09669
 H953 H 0.28830 0.57506 0.16049
 H954 H 0.24235 0.52722 0.08395
 C955 C 0.76678 0.39526 0.12273
 C956 C 0.72776 0.38711 0.12488
 C957 C 0.72403 0.39499 0.08696
 C958 C 0.76273 0.40297 0.08487
 C959 C 0.71594 0.43221 0.09547
 C960 C 0.72015 0.42463 0.13326
 C961 C 0.75875 0.43237 0.13069
 C962 C 0.75476 0.44028 0.09321
 H963 H 0.78778 0.38015 0.13425
 H964 H 0.71630 0.36653 0.13989
 H965 H 0.78042 0.39420 0.06485
 H966 H 0.69483 0.44762 0.08452
 H967 H 0.70279 0.43366 0.15343
 H968 H 0.76597 0.46248 0.08033
 C969 C 0.85601 0.71742 0.57472
 C970 C 0.89322 0.70768 0.56502
 C971 C 0.90559 0.71585 0.60099
 C972 C 0.86827 0.72512 0.61105
 C973 C 0.91247 0.75279 0.59109
 C974 C 0.90035 0.74468 0.55504
 C975 C 0.86345 0.75417 0.56506
 C976 C 0.87524 0.76230 0.60098
 H977 H 0.83250 0.70307 0.56783
 H978 H 0.89965 0.68484 0.55010
 H979 H 0.85270 0.71683 0.63271
 H980 H 0.93581 0.76754 0.59770
 H981 H 0.91357 0.75285 0.53184
 H982 H 0.86762 0.78491 0.61570
 C983 C 0.90759 0.25231 0.45088
 C984 C 0.92281 0.24338 0.41620
 C985 C 0.91403 0.27947 0.40417
 C986 C 0.89881 0.28834 0.43861
 C987 C 0.87856 0.26690 0.39158
 C988 C 0.88720 0.23092 0.40419
 C989 C 0.87225 0.24012 0.43860
 C990 C 0.86312 0.27580 0.42638
 H991 H 0.91965 0.24581 0.47529
 H992 H 0.94727 0.22953 0.41197
 H993 H 0.90366 0.31199 0.45284
 H994 H 0.86633 0.27208 0.36691
 H995 H 0.88217 0.20713 0.39024
 H996 H 0.83823 0.28892 0.43055
 C997 C 0.09719 0.25310 0.55901
 C998 C 0.07735 0.23451 0.58675
 C999 C 0.08720 0.26267 0.61196
 C1000 C 0.10682 0.28142 0.58407
 C1001 C 0.12016 0.24343 0.62183
 C1002 C 0.11036 0.21508 0.59666
 C1003 C 0.12992 0.23381 0.56903
 C1004 C 0.14009 0.26198 0.59372
 H1005 H 0.08797 0.25705 0.53292
 H1006 H 0.05200 0.22276 0.58163
 H1007 H 0.10510 0.30883 0.57863
 H1008 H 0.12948 0.23947 0.64788
 H1009 H 0.11198 0.18759 0.60172
 H1010 H 0.16612 0.27318 0.59630
 C1011 C 0.10798 0.79111 0.39719
 C1012 C 0.11789 0.76232 0.37257
 C1013 C 0.08439 0.74382 0.38160
 C1014 C 0.07440 0.77242 0.40618
 C1015 C 0.10308 0.72501 0.41027
 C1016 C 0.13686 0.74370 0.40153
 C1017 C 0.12654 0.77225 0.42562
 C1018 C 0.09324 0.75371 0.43469
 H1019 H 0.11021 0.81851 0.39195
 H1020 H 0.12788 0.76588 0.34679
 H1021 H 0.04925 0.78492 0.41035
 H1022 H 0.10083 0.69766 0.41580
 H1023 H 0.16276 0.73199 0.39993
 H1024 H 0.08323 0.75018 0.46048
 C1025 C 0.60208 0.87694 0.76839
 C1026 C 0.61006 0.87337 0.73039
 C1027 C 0.60121 0.91119 0.72555
 C1028 C 0.59338 0.91472 0.76325
 C1029 C 0.56337 0.90179 0.71827
 C1030 C 0.57195 0.86408 0.72350
 C1031 C 0.56436 0.86808 0.76107
 C1032 C 0.55545 0.90548 0.75604
 H1033 H 0.61790 0.86642 0.78913
 H1034 H 0.63133 0.85822 0.71961
 H1035 H 0.60213 0.93571 0.77970
 H1036 H 0.54729 0.91181 0.69746
 H1037 H 0.56300 0.84300 0.70728
 H1038 H 0.53266 0.91853 0.76671
 C1039 C 0.39965 0.88189 0.23381
 C1040 C 0.38870 0.87543 0.27057
 C1041 C 0.40145 0.91112 0.28054
 C1042 C 0.41178 0.91762 0.24371
 C1043 C 0.43748 0.89710 0.28848
 C1044 C 0.42516 0.86121 0.27851
 C1045 C 0.43566 0.86818 0.24207
 C1046 C 0.44801 0.90369 0.25174
 H1047 H 0.38425 0.87535 0.21120
 H1048 H 0.36393 0.86343 0.27738
 H1049 H 0.40629 0.94069 0.22886
 H1050 H 0.45318 0.90346 0.31095
 H1051 H 0.43061 0.83767 0.29259
 H1052 H 0.47243 0.91542 0.24349
 C1053 C 0.56068 0.09728 0.24999
 C1054 C 0.58948 0.07740 0.23229
 C1055 C 0.61447 0.08651 0.26119
 C1056 C 0.58548 0.10620 0.27905
 C1057 C 0.62559 0.11876 0.24273
 C1058 C 0.60063 0.10967 0.21363
 C1059 C 0.57190 0.12932 0.23147
 C1060 C 0.59635 0.13876 0.26037
 H1061 H 0.53370 0.08867 0.25300
 H1062 H 0.58426 0.05269 0.22021
 H1063 H 0.57894 0.10448 0.30607
 H1064 H 0.65253 0.12744 0.23974
 H1065 H 0.60679 0.11130 0.18652
 H1066 H 0.59890 0.16421 0.27180
 C1067 C 0.38868 0.13605 0.75758
 C1068 C 0.39569 0.12012 0.72259
 C1069 C 0.38439 0.08540 0.73638
 C1070 C 0.37732 0.10106 0.77101
 C1071 C 0.42205 0.07773 0.74654
 C1072 C 0.43320 0.11251 0.73328
 C1073 C 0.42589 0.12793 0.76791
 C1074 C 0.41495 0.09333 0.78142
 H1075 H 0.37525 0.16036 0.76218
 H1076 H 0.38870 0.13146 0.69806
 H1077 H 0.35424 0.09623 0.78656
 H1078 H 0.43646 0.05397 0.74187
 H1079 H 0.45643 0.11743 0.71796
 H1080 H 0.42307 0.08224 0.80575
 C1081 C 0.60627 0.76080 0.13561
 C1082 C 0.59814 0.72592 0.11962
 C1083 C 0.60942 0.73970 0.08512
 C1084 C 0.61757 0.77430 0.10084
 C1085 C 0.57200 0.75089 0.07785
 C1086 C 0.56087 0.73755 0.11241
 C1087 C 0.56927 0.77211 0.12791
 C1088 C 0.58015 0.78572 0.09353
 H1089 H 0.62011 0.76497 0.15968
 H1090 H 0.60458 0.70099 0.13062
 H1091 H 0.64103 0.78939 0.09594
 H1092 H 0.55724 0.74660 0.05431
 H1093 H 0.53728 0.72264 0.11736
 H1094 H 0.57254 0.81046 0.08279
 C1095 C 0.42090 0.21829 0.09605
 C1096 C 0.38244 0.22616 0.10210
 C1097 C 0.38831 0.26221 0.08918
 C1098 C 0.42680 0.25455 0.08329
 C1099 C 0.39688 0.27451 0.12518
 C1100 C 0.39114 0.23807 0.13832
 C1101 C 0.42927 0.23028 0.13186
 C1102 C 0.43534 0.26634 0.11923
 H1103 H 0.43092 0.19506 0.08385
 H1104 H 0.36062 0.20958 0.09489
 H1105 H 0.44197 0.26141 0.06080
 H1106 H 0.38794 0.29799 0.13765
 H1107 H 0.37672 0.23126 0.16128
 H1108 H 0.45730 0.28274 0.12649
 C1109 C 0.60127 0.23011 0.87377
 C1110 C 0.60866 0.26856 0.87164
 C1111 C 0.60088 0.27195 0.90959
 C1112 C 0.59364 0.23381 0.91167
 C1113 C 0.56270 0.27902 0.90138
 C1114 C 0.57019 0.27521 0.86351
 C1115 C 0.56321 0.23717 0.86605
 C1116 C 0.55539 0.24080 0.90362
 H1117 H 0.61706 0.20990 0.86212
 H1118 H 0.62941 0.28030 0.85672
 H1119 H 0.60319 0.21667 0.93164
 H1120 H 0.54666 0.29930 0.91260
 H1121 H 0.56042 0.29210 0.84343
 H1122 H 0.53314 0.22928 0.91668
 C1123 C 0.39488 0.77212 0.87855
 C1124 C 0.38691 0.73378 0.87631
 C1125 C 0.39608 0.73020 0.91400
 C1126 C 0.40391 0.76825 0.91623
 C1127 C 0.43385 0.72270 0.90471
 C1128 C 0.42493 0.72664 0.86713
 C1129 C 0.43251 0.76458 0.86977
 C1130 C 0.44177 0.76084 0.90705
 H1131 H 0.37895 0.79256 0.86748
 H1132 H 0.36555 0.72239 0.86169
 H1133 H 0.39532 0.78544 0.93659
 H1134 H 0.45005 0.70219 0.91530
 H1135 H 0.43371 0.70965 0.84669
 H1136 H 0.46467 0.77207 0.91952
 C1137 C 0.75113 0.90481 0.44517
 C1138 C 0.77038 0.92474 0.41792
 C1139 C 0.74122 0.91665 0.39262
 C1140 C 0.72182 0.89696 0.42002
 C1141 C 0.75993 0.88417 0.38163
 C1142 C 0.78927 0.89217 0.40691
 C1143 C 0.76983 0.87254 0.43402
 C1144 C 0.74068 0.86420 0.40920
 H1145 H 0.74752 0.91308 0.47156
 H1146 H 0.78300 0.94915 0.42370
 H1147 H 0.69398 0.89917 0.42571
 H1148 H 0.76354 0.87577 0.35529
 H1149 H 0.81720 0.89002 0.40164
 H1150 H 0.72854 0.83907 0.40584
 C1151 C 0.23468 0.86355 0.60556
 C1152 C 0.27309 0.87324 0.60153
 C1153 C 0.26367 0.91094 0.60647
 C1154 C 0.22555 0.90120 0.61099
 C1155 C 0.25822 0.91495 0.56842
 C1156 C 0.26749 0.87735 0.56318
 C1157 C 0.22943 0.86811 0.56768
 C1158 C 0.22004 0.90545 0.57282
 H1159 H 0.22484 0.84216 0.62062
 H1160 H 0.29387 0.85829 0.61352
 H1161 H 0.20817 0.91083 0.63087
 H1162 H 0.26784 0.93618 0.55298
 H1163 H 0.28467 0.86727 0.54335
 H1164 H 0.19803 0.91887 0.56098
 C1165 C 0.23185 0.12528 0.39855
 C1166 C 0.27076 0.12783 0.39022
 C1167 C 0.27511 0.09004 0.39920
 C1168 C 0.23651 0.08755 0.40737
 C1169 C 0.28330 0.09986 0.43588
 C1170 C 0.27852 0.13757 0.42721
 C1171 C 0.24002 0.13457 0.43513
 C1172 C 0.24462 0.09718 0.44412
 H1173 H 0.21058 0.13606 0.38327
 H1174 H 0.28183 0.14226 0.36911
 H1175 H 0.21912 0.06682 0.39931
 H1176 H 0.30466 0.08959 0.45138
 H1177 H 0.29563 0.15842 0.43549
 H1178 H 0.23377 0.08470 0.46662
 C1179 C 0.77427 0.11394 0.59769
 C1180 C 0.73705 0.12068 0.60973
 C1181 C 0.72616 0.08523 0.59730
 C1182 C 0.76347 0.07835 0.58580
 C1183 C 0.71686 0.09952 0.56262
 C1184 C 0.72765 0.13515 0.57473
 C1185 C 0.76457 0.12793 0.56305
 C1186 C 0.75409 0.09262 0.55088
 H1187 H 0.79807 0.12013 0.61191
 H1188 H 0.73084 0.13249 0.63425
 H1189 H 0.77864 0.05505 0.59046
 H1190 H 0.69318 0.09348 0.54814
 H1191 H 0.71307 0.15883 0.57021
 H1192 H 0.76162 0.08098 0.52665
 C1193 C 0.90439 0.57537 0.22279
 C1194 C 0.89733 0.61335 0.22882
 C1195 C 0.90760 0.60895 0.26605
 C1196 C 0.91441 0.57104 0.26006
 C1197 C 0.86960 0.60123 0.27487
 C1198 C 0.85949 0.60522 0.23745
 C1199 C 0.86686 0.56762 0.23176
 C1200 C 0.87657 0.56317 0.26884
 H1201 H 0.91875 0.56466 0.20122
 H1202 H 0.90503 0.63443 0.21220
 H1203 H 0.93708 0.55672 0.26937
 H1204 H 0.85229 0.61163 0.29430
 H1205 H 0.83664 0.61908 0.22788
 H1206 H 0.86790 0.54226 0.28521
 C1207 C 0.89041 0.40296 0.78724
 C1208 C 0.88185 0.37845 0.75800
 C1209 C 0.91473 0.38993 0.73994
 C1210 C 0.92334 0.41446 0.76898
 C1211 C 0.89440 0.41810 0.72189
 C1212 C 0.86120 0.40685 0.74015
 C1213 C 0.87013 0.43087 0.76919
 C1214 C 0.90280 0.44247 0.75109
 H1215 H 0.88855 0.39681 0.81431
 H1216 H 0.87339 0.35187 0.76084
 H1217 H 0.94836 0.41985 0.78132
 H1218 H 0.89637 0.42461 0.69490
 H1219 H 0.83541 0.40398 0.72843
 H1220 H 0.91116 0.46910 0.74825
 C1221 C 0.09687 0.55660 0.75543
 C1222 C 0.09061 0.59490 0.75931
 C1223 C 0.09223 0.59871 0.72085
 C1224 C 0.09876 0.56042 0.71692
 C1225 C 0.13163 0.60474 0.72311
 C1226 C 0.12987 0.60087 0.76183
 C1227 C 0.13576 0.56278 0.75790
 C1228 C 0.13796 0.56624 0.71961
 H1229 H 0.08262 0.53653 0.76887
 H1230 H 0.07101 0.60657 0.77589
 H1231 H 0.08639 0.54348 0.69820
 H1232 H 0.14855 0.62251 0.70958
 H1233 H 0.14290 0.61747 0.78041
 H1234 H 0.15772 0.55431 0.70340
 C1235 C 0.13551 0.42826 0.27343
 C1236 C 0.09724 0.43679 0.27942
 C1237 C 0.08738 0.39974 0.27222
 C1238 C 0.12578 0.39095 0.26658
 C1239 C 0.08298 0.40763 0.23461
 C1240 C 0.09270 0.44478 0.24175
 C1241 C 0.13067 0.43592 0.23597
 C1242 C 0.12136 0.39900 0.22869
 H1243 H 0.15736 0.43687 0.28928
 H1244 H 0.08757 0.45251 0.30048
 H1245 H 0.14153 0.37008 0.27694
 H1246 H 0.06120 0.39921 0.21855
 H1247 H 0.07924 0.46723 0.23142
 H1248 H 0.13156 0.38355 0.20769
   
