data_POSCAR
  _audit_creation_date              2014-09-24
  _audit_creation_method            'ToBaCCo'
  _symmetry_space_group_name_H-M    'P1'
  _symmetry_Int_Tables_number       1
  _symmetry_cell_setting            triclinic
  loop_
  _symmetry_equiv_pos_as_xyz
 x,y,z
_cell_length_a 52.7974
_cell_length_b 52.8773
_cell_length_c 51.2650
_cell_angle_alpha 88.894800
_cell_angle_beta 90.280700
_cell_angle_gamma 90.356200
loop_
  _atom_site_label
  _atom_site_type_symbol
  _atom_site_fract_x
  _atom_site_fract_y
  _atom_site_fract_z
C1 C 0.33381 0.46448 0.92340
 C2 C 0.32326 0.47239 0.89952
 C3 C 0.30077 0.46125 0.89013
 C4 C 0.28910 0.44187 0.90490
 C5 C 0.29948 0.43373 0.92884
 C6 C 0.32187 0.44513 0.93818
 C7 C 0.35669 0.47497 0.93215
 C8 C 0.36816 0.46638 0.95546
 C9 C 0.35557 0.44736 0.97047
 C10 C 0.33280 0.43656 0.96181
 C11 C 0.32134 0.41658 0.97595
 C12 C 0.29917 0.40492 0.96673
 C13 C 0.28834 0.41371 0.94305
 H14 H 0.33329 0.48649 0.88795
 H15 H 0.27206 0.43289 0.89753
 H16 H 0.36596 0.48951 0.92031
 H17 H 0.36330 0.44004 0.98857
 H18 H 0.33003 0.40962 0.99389
 H19 H 0.27191 0.40442 0.93485
 C20 C 0.46171 0.82622 0.41912
 C21 C 0.47488 0.84626 0.43066
 C22 C 0.46508 0.85815 0.45280
 C23 C 0.44220 0.84893 0.46363
 C24 C 0.42878 0.82903 0.45216
 C25 C 0.43858 0.81763 0.42982
 C26 C 0.47093 0.81523 0.39644
 C27 C 0.45732 0.79592 0.38412
 C28 C 0.43438 0.78726 0.39508
 C29 C 0.42497 0.79801 0.41781
 C30 C 0.40167 0.78995 0.42810
 C31 C 0.39133 0.80165 0.45007
 C32 C 0.40530 0.82094 0.46217
 H33 H 0.49249 0.85245 0.42192
 H34 H 0.43430 0.85782 0.48064
 H35 H 0.48845 0.82219 0.38790
 H36 H 0.42310 0.77300 0.38556
 H37 H 0.39188 0.77463 0.41865
 H38 H 0.39760 0.83004 0.47914
 C39 C 0.96451 0.92625 0.81013
 C40 C 0.97625 0.90593 0.79791
 C41 C 0.96406 0.89286 0.77762
 C42 C 0.94016 0.90136 0.76888
 C43 C 0.92821 0.92158 0.78094
 C44 C 0.94030 0.93402 0.80168
 C45 C 0.97626 0.93825 0.83128
 C46 C 0.96396 0.95797 0.84437
 C47 C 0.93996 0.96584 0.83521
 C48 C 0.92796 0.95389 0.81425
 C49 C 0.90349 0.96103 0.80616
 C50 C 0.89105 0.94822 0.78580
 C51 C 0.90385 0.92887 0.77310
 H52 H 0.99466 0.89971 0.80492
 H53 H 0.93015 0.89214 0.75326
 H54 H 0.99475 0.93175 0.83741
 H55 H 0.93014 0.98093 0.84494
 H56 H 0.89438 0.97642 0.81595
 H57 H 0.89449 0.91896 0.75738
 C58 C 0.44435 -0.08165 0.32806
 C59 C 0.45529 -0.10367 0.31813
 C60 C 0.44359 -0.11690 0.29770
 C61 C 0.42051 -0.10777 0.28736
 C62 C 0.40943 -0.08582 0.29699
 C63 C 0.42129 -0.07274 0.31745
 C64 C 0.45579 -0.06874 0.34883
 C65 C 0.44441 -0.04706 0.35921
 C66 C 0.42131 -0.03858 0.34860
 C67 C 0.40974 -0.05112 0.32772
 C68 C 0.38655 -0.04264 0.31729
 C69 C 0.37476 -0.05541 0.29651
 C70 C 0.38635 -0.07707 0.28671
 H71 H 0.47286 -0.11070 0.32647
 H72 H 0.41052 -0.11797 0.27238
 H73 H 0.47306 -0.07620 0.35735
 H74 H 0.41225 -0.02217 0.35674
 H75 H 0.37767 -0.02647 0.32592
 H76 H 0.37726 -0.08723 0.27100
 C77 C 0.81139 0.29132 0.33182
 C78 C 0.79945 0.28181 0.35426
 C79 C 0.78011 0.29542 0.36623
 C80 C 0.77193 0.31831 0.35478
 C81 C 0.78374 0.32808 0.33231
 C82 C 0.80360 0.31463 0.32076
 C83 C 0.83168 0.27833 0.32098
 C84 C 0.84443 0.28819 0.29913
 C85 C 0.83656 0.31157 0.28801
 C86 C 0.81621 0.32488 0.29876
 C87 C 0.80880 0.34865 0.28856
 C88 C 0.78901 0.36226 0.30007
 C89 C 0.77661 0.35164 0.32198
 H90 H 0.80591 0.26415 0.36305
 H91 H 0.75670 0.32885 0.36336
 H92 H 0.83790 0.26063 0.32984
 H93 H 0.84678 0.31997 0.27174
 H94 H 0.81875 0.35682 0.27194
 H95 H 0.76212 0.36195 0.33201
 C96 C -0.20151 0.81840 0.83189
 C97 C -0.21171 0.83911 0.81828
 C98 C -0.19936 0.84976 0.79627
 C99 C -0.17680 0.83835 0.78773
 C100 C -0.16657 0.81717 0.80105
 C101 C -0.17887 0.80737 0.82342
 C102 C -0.21326 0.80932 0.85464
 C103 C -0.20262 0.78956 0.86945
 C104 C -0.17999 0.77838 0.86085
 C105 C -0.16814 0.78710 0.83787
 C106 C -0.14533 0.77641 0.82959
 C107 C -0.13316 0.78548 0.80696
 C108 C -0.14383 0.80612 0.79290
 H109 H -0.22867 0.84726 0.82608
 H110 H -0.16693 0.84621 0.77090
 H111 H -0.23047 0.81818 0.86132
 H112 H -0.17087 0.76362 0.87228
 H113 H -0.13695 0.76097 0.84081
 H114 H -0.13413 0.81418 0.77612
 C115 C 0.91722 0.33113 0.45056
 C116 C 0.93171 0.35022 0.46303
 C117 C 0.95423 0.36006 0.45131
 C118 C 0.96189 0.35029 0.42742
 C119 C 0.94780 0.33181 0.41487
 C120 C 0.92547 0.32207 0.42629
 C121 C 0.89449 0.32119 0.46150
 C122 C 0.88011 0.30244 0.44835
 C123 C 0.88891 0.29397 0.42418
 C124 C 0.91132 0.30352 0.41309
 C125 C 0.91967 0.29500 0.38874
 C126 C 0.94208 0.30485 0.37750
 C127 C 0.95581 0.32330 0.39066
 H128 H 0.92515 0.35732 0.48142
 H129 H 0.97895 0.35750 0.41805
 H130 H 0.88805 0.32841 0.47988
 H131 H 0.87811 0.27980 0.41380
 H132 H 0.90837 0.28124 0.37842
 H133 H 0.97295 0.33105 0.38196
 C134 C 0.43807 0.45435 0.82186
 C135 C 0.45036 0.46439 0.84390
 C136 C 0.47009 0.45086 0.85660
 C137 C 0.47778 0.42774 0.84658
 C138 C 0.46567 0.41748 0.82495
 C139 C 0.44577 0.43068 0.81251
 C140 C 0.41791 0.46719 0.80934
 C141 C 0.40539 0.45645 0.78770
 C142 C 0.41361 0.43300 0.77860
 C143 C 0.43344 0.41998 0.79088
 C144 C 0.44075 0.39610 0.78217
 C145 C 0.46023 0.38271 0.79505
 C146 C 0.47282 0.39378 0.81608
 H147 H 0.44447 0.48257 0.85097
 H148 H 0.49287 0.41723 0.85621
 H149 H 0.41205 0.48524 0.81671
 H150 H 0.40407 0.42450 0.76212
 H151 H 0.43122 0.38821 0.76544
 H152 H 0.48794 0.38360 0.82601
 C153 C 0.84036 0.91862 0.95882
 C154 C 0.83071 0.89737 0.97212
 C155 C 0.80692 0.88705 0.96574
 C156 C 0.79234 0.89927 0.94584
 C157 C 0.80175 0.92099 0.93246
 C158 C 0.82594 0.93052 0.93903
 C159 C 0.86463 0.92776 0.96472
 C160 C 0.87509 0.94857 0.95095
 C161 C 0.86033 0.96070 0.93154
 C162 C 0.83596 0.95178 0.92559
 C163 C 0.82181 0.96361 0.90586
 C164 C 0.79792 0.95437 0.89859
 C165 C 0.78778 0.93303 0.91218
 H166 H 0.84224 0.88839 0.98719
 H167 H 0.77387 0.89216 0.94040
 H168 H 0.87563 0.91824 0.97987
 H169 H 0.86740 0.97703 0.92082
 H170 H 0.82987 0.97980 0.89548
 H171 H 0.76943 0.92544 0.90695
 C172 C 0.30853 0.82187 0.27269
 C173 C 0.30056 0.84635 0.26598
 C174 C 0.28209 0.85863 0.28078
 C175 C 0.27109 0.84549 0.30214
 C176 C 0.27891 0.82099 0.30900
 C177 C 0.29758 0.80906 0.29422
 C178 C 0.32842 0.81065 0.25923
 C179 C 0.33777 0.78696 0.26725
 C180 C 0.32560 0.77354 0.28768
 C181 C 0.30606 0.78475 0.30163
 C182 C 0.29617 0.77278 0.32401
 C183 C 0.27836 0.78501 0.33952
 C184 C 0.26933 0.80893 0.33143
 H185 H 0.30939 0.85618 0.24958
 H186 H 0.25682 0.85402 0.31406
 H187 H 0.33762 0.82101 0.24341
 H188 H 0.33177 0.75480 0.29353
 H189 H 0.30342 0.75447 0.33022
 H190 H 0.25597 0.81912 0.34307
 C191 C 0.82995 0.43176 0.48575
 C192 C 0.81858 0.41072 0.49760
 C193 C 0.79639 0.40030 0.48741
 C194 C 0.78474 0.41200 0.46534
 C195 C 0.79582 0.43362 0.45330
 C196 C 0.81872 0.44327 0.46354
 C197 C 0.85335 0.44030 0.49496
 C198 C 0.86657 0.45961 0.48175
 C199 C 0.85460 0.47213 0.46038
 C200 C 0.83095 0.46387 0.45112
 C201 C 0.82005 0.47517 0.42883
 C202 C 0.79736 0.46591 0.41805
 C203 C 0.78522 0.44500 0.43057
 H204 H 0.82770 0.40163 0.51430
 H205 H 0.76791 0.40378 0.45677
 H206 H 0.86204 0.43069 0.51160
 H207 H 0.86341 0.48804 0.45041
 H208 H 0.82978 0.49091 0.41928
 H209 H 0.76798 0.43712 0.42258
 C210 C 0.95867 0.82887 -0.08152
 C211 C 0.96772 0.85181 -0.07155
 C212 C 0.95717 0.86194 -0.04879
 C213 C 0.93724 0.84894 -0.03631
 C214 C 0.92805 0.82597 -0.04594
 C215 C 0.93885 0.81585 -0.06854
 C216 C 0.96869 0.81908 -0.10461
 C217 C 0.95908 0.79632 -0.11496
 C218 C 0.93966 0.78339 -0.10137
 C219 C 0.92939 0.79303 -0.07852
 C220 C 0.90925 0.78049 -0.06595
 C221 C 0.89811 0.79049 -0.04362
 C222 C 0.90777 0.81334 -0.03367
 H223 H 0.98239 0.86204 -0.08208
 H224 H 0.92876 0.85685 -0.01907
 H225 H 0.98371 0.82953 -0.11425
 H226 H 0.93198 0.76590 -0.10894
 H227 H 0.90180 0.76310 -0.07395
 H228 H 0.89929 0.82197 -0.01693
 C229 C 0.32696 0.33036 0.79356
 C230 C 0.31812 0.35403 0.78453
 C231 C 0.29944 0.36707 0.79853
 C232 C 0.28924 0.35582 0.82105
 C233 C 0.29783 0.33230 0.83018
 C234 C 0.31675 0.31944 0.81651
 C235 C 0.34629 0.31778 0.78041
 C236 C 0.35586 0.29455 0.78993
 C237 C 0.34531 0.28370 0.81287
 C238 C 0.32582 0.29600 0.82618
 C239 C 0.31569 0.28564 0.84942
 C240 C 0.29666 0.29839 0.86299
 C241 C 0.28812 0.32188 0.85327
 H242 H 0.32578 0.36205 0.76665
 H243 H 0.27485 0.36572 0.83184
 H244 H 0.35441 0.32643 0.76298
 H245 H 0.35257 0.26620 0.82105
 H246 H 0.32275 0.26778 0.85712
 H247 H 0.27456 0.33279 0.86400
 C248 C 0.19003 0.54203 0.57139
 C249 C 0.16923 0.52686 0.56500
 C250 C 0.15305 0.53384 0.54452
 C251 C 0.15765 0.55662 0.53032
 C252 C 0.17821 0.57241 0.53691
 C253 C 0.19448 0.56490 0.55754
 C254 C 0.20588 0.53509 0.59220
 C255 C 0.22629 0.55074 0.59945
 C256 C 0.23041 0.57356 0.58591
 C257 C 0.21464 0.58073 0.56509
 C258 C 0.21835 0.60397 0.55244
 C259 C 0.20273 0.61172 0.53150
 C260 C 0.18248 0.59587 0.52394
 H261 H 0.16546 0.50958 0.57611
 H262 H 0.14470 0.56251 0.51493
 H263 H 0.20142 0.51807 0.60334
 H264 H 0.24571 0.58597 0.59195
 H265 H 0.23301 0.61633 0.55983
 H266 H 0.16997 0.60192 0.50823
 C267 C 0.58727 0.69708 0.08174
 C268 C 0.61140 0.70396 0.07267
 C269 C 0.62456 0.68854 0.05513
 C270 C 0.61328 0.66566 0.04742
 C271 C 0.58921 0.65837 0.05662
 C272 C 0.57615 0.67420 0.07376
 C273 C 0.57430 0.71252 0.09916
 C274 C 0.55032 0.70546 0.10862
 C275 C 0.53953 0.68238 0.10080
 C276 C 0.55222 0.66682 0.08348
 C277 C 0.54151 0.64372 0.07621
 C278 C 0.55409 0.62800 0.05894
 C279 C 0.57810 0.63535 0.04929
 H280 H 0.61984 0.72109 0.07999
 H281 H 0.62333 0.65348 0.03426
 H282 H 0.58298 0.72998 0.10562
 H283 H 0.52170 0.67583 0.10884
 H284 H 0.52320 0.63795 0.08387
 H285 H 0.58846 0.62295 0.03666
 C286 C 0.69724 0.16354 0.68444
 C287 C 0.70760 0.17640 0.66243
 C288 C 0.69780 0.20009 0.65390
 C289 C 0.67781 0.21067 0.66786
 C290 C 0.66726 0.19818 0.68955
 C291 C 0.67695 0.17459 0.69790
 C292 C 0.70632 0.13961 0.69291
 C293 C 0.69517 0.12663 0.71459
 C294 C 0.67504 0.13824 0.72753
 C295 C 0.66587 0.16186 0.71940
 C296 C 0.64517 0.17253 0.73212
 C297 C 0.63506 0.19576 0.72362
 C298 C 0.64652 0.20865 0.70241
 H299 H 0.72279 0.16763 0.65190
 H300 H 0.67001 0.22870 0.66146
 H301 H 0.72169 0.13133 0.68225
 H302 H 0.66612 0.12868 0.74404
 H303 H 0.63640 0.16234 0.74830
 H304 H 0.63905 0.22636 0.69501
 C305 C 1.07147 0.04762 0.16943
 C306 C 1.09339 0.04132 0.18342
 C307 C 1.10046 0.05465 0.20587
 C308 C 1.08549 0.07506 0.21369
 C309 C 1.06339 0.08171 0.19970
 C310 C 1.05632 0.06776 0.17760
 C311 C 1.06505 0.03452 0.14680
 C312 C 1.04361 0.04118 0.13192
 C313 C 1.02816 0.06108 0.14069
 C314 C 1.03457 0.07448 0.16313
 C315 C 1.01999 0.09516 0.17066
 C316 C 1.02684 0.10940 0.19240
 C317 C 1.04867 0.10249 0.20692
 H318 H 1.10534 0.02655 0.17604
 H319 H 1.09115 0.08582 0.23056
 H320 H 1.07720 0.01937 0.14045
 H321 H 1.01154 0.06715 0.13006
 H322 H 1.00350 0.10058 0.15921
 H323 H 1.05494 0.11369 0.22319
 C324 C 0.03061 0.17977 1.06151
 C325 C 0.02322 0.15571 1.05288
 C326 C 0.03535 0.14438 1.03160
 C327 C 0.05499 0.15801 1.01881
 C328 C 0.06259 0.18194 1.02729
 C329 C 0.05020 0.19297 1.04847
 C330 C 0.01950 0.19038 1.08365
 C331 C 0.02769 0.21420 1.09270
 C332 C 0.04646 0.22747 1.07882
 C333 C 0.05795 0.21696 1.05709
 C334 C 0.07811 0.22956 1.04483
 C335 C 0.09179 0.21789 1.02494
 C336 C 0.08329 0.19450 1.01565
 H337 H 0.00827 0.14556 1.06316
 H338 H 0.06491 0.15040 1.00242
 H339 H 0.00538 0.17946 1.09420
 H340 H 0.05297 0.24568 1.08570
 H341 H 0.08339 0.24813 1.05154
 H342 H 0.09355 0.18551 1.00010
 C343 C 0.17967 0.67997 0.70750
 C344 C 0.15866 0.69052 0.71965
 C345 C 0.14738 0.71248 0.70940
 C346 C 0.15837 0.72484 0.68757
 C347 C 0.17940 0.71442 0.67514
 C348 C 0.18997 0.69176 0.68500
 C349 C 0.18983 0.65720 0.71694
 C350 C 0.21000 0.64569 0.70413
 C351 C 0.22020 0.65751 0.68156
 C352 C 0.21035 0.68052 0.67198
 C353 C 0.21997 0.69194 0.64908
 C354 C 0.20945 0.71460 0.63896
 C355 C 0.18935 0.72575 0.65240
 H356 H 0.15034 0.68101 0.73651
 H357 H 0.15047 0.74232 0.67991
 H358 H 0.18166 0.64808 0.73409
 H359 H 0.23522 0.64871 0.67081
 H360 H 0.23515 0.68263 0.63907
 H361 H 0.18090 0.74299 0.64469
 C362 C 1.19082 0.17475 0.17822
 C363 C 1.20120 0.15258 0.18932
 C364 C 1.18950 0.14027 0.21094
 C365 C 1.16772 0.15112 0.22155
 C366 C 1.15717 0.17309 0.21062
 C367 C 1.16864 0.18498 0.18883
 C368 C 1.20191 0.18642 0.15621
 C369 C 1.19120 0.20812 0.14441
 C370 C 1.16899 0.21826 0.15528
 C371 C 1.15764 0.20678 0.17738
 C372 C 1.13504 0.21629 0.18778
 C373 C 1.12312 0.20398 0.20926
 C374 C 1.13473 0.18274 0.22072
 H375 H 1.21805 0.14508 0.18055
 H376 H 1.15842 0.14202 0.23811
 H377 H 1.21881 0.17831 0.14791
 H378 H 1.15991 0.23454 0.14635
 H379 H 1.12696 0.23308 0.17885
 H380 H 1.12579 0.17316 0.23720
 C381 C 0.68481 1.07674 0.54405
 C382 C 0.66283 1.06601 0.53268
 C383 C 0.65307 1.04252 0.54201
 C384 C 0.66580 1.02997 0.56258
 C385 C 0.68745 1.04041 0.57412
 C386 C 0.69708 1.06374 0.56477
 C387 C 0.69431 1.10058 0.53570
 C388 C 0.71589 1.11153 0.54799
 C389 C 0.72800 1.09777 0.56805
 C390 C 0.71867 1.07435 0.57668
 C391 C 0.73011 1.06198 0.59798
 C392 C 0.72014 1.03926 0.60808
 C393 C 0.69899 1.02827 0.59564
 H394 H 0.65343 1.07616 0.51694
 H395 H 0.65843 1.01209 0.57010
 H396 H 0.68442 1.11034 0.52006
 H397 H 0.74446 1.10573 0.57775
 H398 H 0.74632 1.07064 0.60745
 H399 H 0.69064 1.01086 0.60296
 C400 C 0.54456 0.57516 0.17654
 C401 C 0.53354 0.56207 0.15575
 C402 C 0.54429 0.53956 0.14676
 C403 C 0.56573 0.52967 0.15959
 C404 C 0.57707 0.54271 0.18010
 C405 C 0.56659 0.56556 0.18858
 C406 C 0.53437 0.59810 0.18485
 C407 C 0.54601 0.61168 0.20518
 C408 C 0.56814 0.60194 0.21683
 C409 C 0.57853 0.57909 0.20867
 C410 C 0.60105 0.56989 0.21981
 C411 C 0.61164 0.54711 0.21123
 C412 C 0.59934 0.53361 0.19159
 H413 H 0.51698 0.56984 0.14600
 H414 H 0.57415 0.51219 0.15352
 H415 H 0.51774 0.60528 0.17493
 H416 H 0.57744 0.61233 0.23224
 H417 H 0.61046 0.58102 0.23448
 H418 H 0.60752 0.51617 0.18477
 C419 C 0.66459 0.70968 0.18727
 C420 C 0.64083 0.71832 0.19507
 C421 C 0.62766 0.70602 0.21551
 C422 C 0.63919 0.68567 0.22882
 C423 C 0.66306 0.67700 0.22136
 C424 C 0.67581 0.68887 0.20035
 C425 C 0.67680 0.72115 0.16598
 C426 C 0.70005 0.71217 0.15710
 C427 C 0.71144 0.69134 0.17035
 C428 C 0.69941 0.67962 0.19204
 C429 C 0.71002 0.65834 0.20507
 C430 C 0.69722 0.64636 0.22626
 C431 C 0.67388 0.65609 0.23416
 H432 H 0.63281 0.73446 0.18486
 H433 H 0.62923 0.67613 0.24468
 H434 H 0.66784 0.73692 0.15579
 H435 H 0.72906 0.68365 0.16343
 H436 H 0.72778 0.65100 0.19817
 H437 H 0.66374 0.64696 0.25015
 C438 C 0.18084 0.05157 1.06934
 C439 C 0.16021 0.04089 1.05581
 C440 C 0.14885 0.05387 1.03431
 C441 C 0.15932 0.07723 1.02616
 C442 C 0.17965 0.08816 1.03962
 C443 C 0.19043 0.07535 1.06125
 C444 C 0.19142 0.03925 1.09141
 C445 C 0.21138 0.05066 1.10567
 C446 C 0.22101 0.07411 1.09679
 C447 C 0.21054 0.08661 1.07508
 C448 C 0.21926 0.11076 1.06772
 C449 C 0.20800 0.12403 1.04686
 C450 C 0.18872 0.11222 1.03229
 H451 H 0.15320 0.02272 1.06257
 H452 H 0.15100 0.08752 1.00976
 H453 H 0.18353 0.02118 1.09740
 H454 H 0.23624 0.08325 1.10742
 H455 H 0.23431 0.11965 1.07882
 H456 H 0.18050 0.12162 1.01537
 C457 C 0.56997 0.17332 0.53768
 C458 C 0.59208 0.18550 0.52927
 C459 C 0.60344 0.20437 0.54420
 C460 C 0.59165 0.21184 0.56749
 C461 C 0.56923 0.19986 0.57609
 C462 C 0.55842 0.18043 0.56115
 C463 C 0.56004 0.15322 0.52350
 C464 C 0.53900 0.13956 0.53262
 C465 C 0.52667 0.14748 0.55545
 C466 C 0.53648 0.16763 0.56994
 C467 C 0.52529 0.17452 0.59358
 C468 C 0.53579 0.19389 0.60873
 C469 C 0.55791 0.20644 0.59977
 H470 H 0.60105 0.17962 0.51140
 H471 H 0.59971 0.22681 0.57903
 H472 H 0.56955 0.14733 0.50594
 H473 H 0.50981 0.13786 0.56241
 H474 H 0.50858 0.16447 0.60047
 H475 H 0.56702 0.22072 0.61144
 C476 C 0.09191 0.55394 0.66963
 C477 C 0.11510 0.54525 0.68010
 C478 C 0.12539 0.55575 0.70305
 C479 C 0.11196 0.57524 0.71526
 C480 C 0.08879 0.58420 0.70507
 C481 C 0.07879 0.57343 0.68222
 C482 C 0.08184 0.54393 0.64641
 C483 C 0.05885 0.55322 0.63579
 C484 C 0.04615 0.57245 0.64859
 C485 C 0.05583 0.58251 0.67161
 C486 C 0.04298 0.60204 0.68372
 C487 C 0.05273 0.61333 0.70615
 C488 C 0.07568 0.60412 0.71699
 H489 H 0.12522 0.53078 0.66988
 H490 H 0.11974 0.58368 0.73269
 H491 H 0.09228 0.52953 0.63638
 H492 H 0.02860 0.57978 0.64043
 H493 H 0.02547 0.60900 0.67514
 H494 H 0.08351 0.61231 0.73446
 C495 C 0.68279 0.57521 0.05001
 C496 C 0.66300 0.56478 0.03538
 C497 C 0.64934 0.54377 0.04483
 C498 C 0.65590 0.53296 0.06939
 C499 C 0.67570 0.54334 0.08438
 C500 C 0.68910 0.56463 0.07461
 C501 C 0.69573 0.59671 0.04077
 C502 C 0.71468 0.60823 0.05584
 C503 C 0.72102 0.59755 0.08032
 C504 C 0.70828 0.57590 0.08977
 C505 C 0.71399 0.56592 0.11455
 C506 C 0.70112 0.54444 0.12453
 C507 C 0.68186 0.53337 0.10930
 H508 H 0.65782 0.57336 0.01674
 H509 H 0.64502 0.51726 0.07741
 H510 H 0.69052 0.60495 0.02197
 H511 H 0.73546 0.60604 0.09238
 H512 H 0.72797 0.57567 0.12616
 H513 H 0.67150 0.51712 0.11697
 C514 C 0.04884 0.66799 0.57069
 C515 C 0.03809 0.67941 0.59265
 C516 C 0.04793 0.70251 0.60196
 C517 C 0.06815 0.71417 0.58868
 C518 C 0.07915 0.70291 0.56709
 C519 C 0.06951 0.67979 0.55800
 C520 C 0.03973 0.64474 0.56147
 C521 C 0.05104 0.63311 0.53988
 C522 C 0.07145 0.64530 0.52733
 C523 C 0.08081 0.66833 0.53637
 C524 C 0.10192 0.67969 0.52452
 C525 C 0.11215 0.70216 0.53414
 C526 C 0.10019 0.71414 0.55495
 H527 H 0.02222 0.67023 0.60225
 H528 H 0.07589 0.73186 0.59568
 H529 H 0.02403 0.63545 0.57137
 H530 H 0.08052 0.63703 0.51073
 H531 H 0.11099 0.67054 0.50830
 H532 H 0.10723 0.73204 0.56196
 C533 C 0.54168 1.07011 0.67196
 C534 C 0.53222 1.05866 0.64953
 C535 C 0.54491 1.03834 0.63822
 C536 C 0.56682 1.02873 0.65076
 C537 C 0.57637 1.03993 0.67342
 C538 C 0.56389 1.06083 0.68396
 C539 C 0.52971 1.09135 0.68192
 C540 C 0.53969 1.10389 0.70355
 C541 C 0.56186 1.09437 0.71572
 C542 C 0.57395 1.07286 0.70606
 C543 C 0.59634 1.06360 0.71764
 C544 C 0.60888 1.04257 0.70742
 C545 C 0.59870 1.03095 0.68514
 H546 H 0.51531 1.06630 0.64026
 H547 H 0.57691 1.01281 0.64315
 H548 H 0.51283 1.09861 0.67231
 H549 H 0.57031 1.10384 0.73213
 H550 H 0.60421 1.07295 0.73452
 H551 H 0.60829 1.01540 0.67617
 C552 C 0.41283 0.32874 0.95754
 C553 C 0.42422 0.34962 0.96954
 C554 C 0.44717 0.35999 0.96025
 C555 C 0.45871 0.34862 0.93853
 C556 C 0.44741 0.32788 0.92626
 C557 C 0.42443 0.31785 0.93579
 C558 C 0.38962 0.31906 0.96660
 C559 C 0.37778 0.29847 0.95426
 C560 C 0.38953 0.28783 0.93252
 C561 C 0.41272 0.29735 0.92315
 C562 C 0.42403 0.28715 0.90093
 C563 C 0.44702 0.29717 0.89119
 C564 C 0.45851 0.31747 0.90411
 H565 H 0.41494 0.35804 0.98607
 H566 H 0.47614 0.35583 0.93032
 H567 H 0.38068 0.32829 0.98273
 H568 H 0.38038 0.27225 0.92264
 H569 H 0.41437 0.27202 0.89095
 H570 H 0.47606 0.32545 0.89661
 C571 C 0.92387 0.45481 0.32489
 C572 C 0.93606 0.46484 0.34663
 C573 C 0.95607 0.45201 0.35908
 C574 C 0.96474 0.42915 0.34809
 C575 C 0.95286 0.41910 0.32580
 C576 C 0.93213 0.43187 0.31445
 C577 C 0.90262 0.46686 0.31429
 C578 C 0.88860 0.45555 0.29423
 C579 C 0.89754 0.43343 0.28300
 C580 C 0.91920 0.42148 0.29299
 C581 C 0.92730 0.39871 0.28251
 C582 C 0.94813 0.38574 0.29334
 C583 C 0.96078 0.39613 0.31507
 H584 H 0.92913 0.48237 0.35458
 H585 H 0.98033 0.41874 0.35666
 H586 H 0.89671 0.48465 0.32231
 H587 H 0.88693 0.42488 0.26725
 H588 H 0.91679 0.39118 0.26627
 H589 H 0.97663 0.38611 0.32384
 C590 C 0.33634 0.95964 0.41969
 C591 C 0.32364 0.97247 0.39939
 C592 C 0.29994 0.96402 0.39042
 C593 C 0.28883 0.94238 0.40237
 C594 C 0.30131 0.92938 0.42285
 C595 C 0.32519 0.93805 0.43146
 C596 C 0.36037 0.96774 0.42790
 C597 C 0.37377 0.95449 0.44762
 C598 C 0.36226 0.93304 0.45947
 C599 C 0.33822 0.92480 0.45143
 C600 C 0.32735 0.90302 0.46271
 C601 C 0.30376 0.89390 0.45421
 C602 C 0.29072 0.90733 0.43424
 H603 H 0.33249 0.98885 0.39012
 H604 H 0.27099 0.93495 0.39536
 H605 H 0.36885 0.98427 0.41851
 H606 H 0.37164 0.92240 0.47484
 H607 H 0.33762 0.89274 0.47787
 H608 H 0.27274 0.90058 0.42692
 O609 O 0.19924 0.53649 0.73533
 O610 O 0.20622 0.53692 0.78146
 O611 O 0.26524 0.57335 0.70483
 O612 O 0.30607 0.56858 0.70359
 O613 O 0.23990 0.50037 0.67298
 O614 O 0.24040 0.45870 0.68742
 O615 O 0.33313 0.51309 0.78083
 O616 O 0.32384 0.55610 0.77080
 O617 O 0.27173 0.47936 0.81356
 O618 O 0.22885 0.47595 0.80619
 O619 O 0.30657 0.44533 0.75031
 O620 O 0.30658 0.45177 0.70398
 O621 O 0.33659 0.48130 0.75188
 O622 O 0.32917 0.48296 0.70188
 O623 O 0.27474 0.44341 0.78002
 O624 O 0.22634 0.45125 0.77558
 O625 O 0.29799 0.51363 0.81271
 O626 O 0.29208 0.55807 0.79899
 O627 O 0.20203 0.50389 0.70721
 O628 O 0.21398 0.45915 0.71711
 O629 O 0.26609 0.53473 0.67116
 O630 O 0.31242 0.53409 0.68351
 O631 O 0.23310 0.57303 0.73426
 O632 O 0.23375 0.56578 0.78172
 Zr633 Zr 0.23535 0.53739 0.75330
 O634 O 0.25814 0.51793 0.78089
 Zr635 Zr 0.28128 0.53739 0.70909
 O636 O 0.30657 0.51952 0.73532
 Zr637 Zr 0.23940 0.48998 0.71243
 O638 O 0.26368 0.46911 0.73728
 Zr639 Zr 0.29638 0.52693 0.77394
 O640 O 0.27350 0.54818 0.74768
 Zr641 Zr 0.25581 0.47856 0.77591
 O642 O 0.22971 0.49794 0.75109
 Zr643 Zr 0.30166 0.48038 0.73177
 O644 O 0.27772 0.49821 0.70399
 O645 O 0.24319 0.52898 0.71483
 O646 O 0.29378 0.48777 0.77059
 C647 C 0.18986 0.52217 0.71766
 C648 C 0.24647 0.58369 0.71615
 C649 C 0.25078 0.51874 0.66080
 C650 C 0.34521 0.49477 0.77064
 C651 C 0.28765 0.49452 0.82425
 C652 C 0.29412 0.43407 0.76846
 H653 H 0.25282 0.52246 0.79865
 H654 H 0.26109 0.45090 0.73408
 H655 H 0.23238 0.53843 0.70224
 H656 H 0.32419 0.52500 0.73186
 H657 H 0.31600 0.56996 0.76038
 H658 H 0.31935 0.56713 0.71719
 H659 H 0.23122 0.43795 0.76328
 H660 H 0.20279 0.46312 0.73190
 H661 H 0.27694 0.55499 0.80989
 H662 H 0.24917 0.57634 0.77947
 H663 H 0.29141 0.44072 0.70469
 H664 H 0.25809 0.45750 0.68129
 H665 H 0.19847 0.51983 0.78114
 H666 H 0.22181 0.49308 0.80813
 H667 H 0.30961 0.51862 0.67329
 H668 H 0.34189 0.49584 0.70683
 O669 O 0.23996 0.06551 0.21227
 O670 O 0.28327 0.05563 0.21580
 O671 O 0.20760 -0.00257 0.18160
 O672 O 0.20618 -0.04325 0.19258
 O673 O 0.17172 0.03485 0.24469
 O674 O 0.17932 0.03558 0.29047
 O675 O 0.26860 -0.06581 0.25987
 O676 O 0.26852 -0.06086 0.21500
 O677 O 0.30390 0.00157 0.28740
 O678 O 0.29498 0.04605 0.28315
 O679 O 0.23747 -0.02818 0.32257
 O680 O 0.19328 -0.02617 0.31321
 O681 O 0.23726 -0.06351 0.28998
 O682 O 0.19060 -0.05193 0.28457
 O683 O 0.26993 0.00021 0.32067
 O684 O 0.26533 0.04788 0.30822
 O685 O 0.30331 -0.03285 0.26149
 O686 O 0.29735 -0.03100 0.21247
 O687 O 0.20883 0.06873 0.24258
 O688 O 0.20928 0.06214 0.28988
 O689 O 0.17153 0.00112 0.21775
 O690 O 0.18111 -0.04435 0.22555
 O691 O 0.23853 0.02755 0.17966
 O692 O 0.28368 0.02425 0.19125
 Zr693 Zr 0.25362 0.02864 0.21785
 O694 O 0.27679 0.00828 0.24424
 Zr695 Zr 0.20793 -0.01466 0.22082
 O696 O 0.22956 -0.03761 0.24623
 Zr697 Zr 0.20800 0.03319 0.26202
 O698 O 0.22866 0.01185 0.29000
 Zr699 Zr 0.26848 -0.03038 0.24112
 O700 O 0.24689 -0.01021 0.21279
 Zr701 Zr 0.26750 0.01677 0.28291
 O702 O 0.24692 0.04012 0.25639
 Zr703 Zr 0.22213 -0.02700 0.28474
 O704 O 0.19858 -0.00548 0.25932
 O705 O 0.21496 0.02385 0.22359
 O706 O 0.26095 -0.02191 0.27975
 C707 C 0.22246 0.07773 0.22375
 C708 C 0.22061 0.01438 0.16933
 C709 C 0.16095 0.02025 0.22813
 C710 C 0.25503 -0.07527 0.27835
 C711 C 0.31394 -0.01845 0.27837
 C712 C 0.25683 -0.01712 0.33245
 H713 H 0.29474 0.01219 0.24052
 H714 H 0.22413 0.01701 0.30779
 H715 H 0.20470 0.03405 0.21113
 H716 H 0.22532 -0.05553 0.24308
 H717 H 0.26025 -0.05471 0.19872
 H718 H 0.21800 -0.05669 0.19834
 H719 H 0.25368 0.04329 0.32263
 H720 H 0.22617 0.07025 0.28832
 H721 H 0.31005 -0.01779 0.21647
 H722 H 0.28152 0.00734 0.18355
 H723 H 0.19265 -0.00878 0.31990
 H724 H 0.17092 0.01879 0.29128
 H725 H 0.28309 0.06468 0.23252
 H726 H 0.30467 0.04499 0.26675
 H727 H 0.17005 -0.03988 0.24028
 H728 H 0.19426 -0.06557 0.27223
 O729 O 0.48059 0.77593 0.30799
 O730 O 0.52449 0.77860 0.29738
 O731 O 0.44622 0.81143 0.24076
 O732 O 0.44450 0.80552 0.19798
 O733 O 0.41606 0.74144 0.27284
 O734 O 0.42813 0.69837 0.27004
 O735 O 0.51565 0.74718 0.17046
 O736 O 0.50666 0.79103 0.17645
 O737 O 0.55071 0.71950 0.23525
 O738 O 0.54276 0.71771 0.28161
 O739 O 0.48717 0.68159 0.20377
 O740 O 0.44108 0.68792 0.20639
 O741 O 0.48546 0.71633 0.16964
 O742 O 0.43909 0.71593 0.17945
 O743 O 0.51914 0.68304 0.23359
 O744 O 0.51617 0.69036 0.28245
 O745 O 0.54840 0.75085 0.20437
 O746 O 0.53605 0.79539 0.20755
 O747 O 0.45251 0.74311 0.30849
 O748 O 0.45745 0.69920 0.29772
 O749 O 0.41286 0.77249 0.24164
 O750 O 0.42231 0.77114 0.19448
 O751 O 0.47629 0.81245 0.27270
 O752 O 0.52168 0.80693 0.26820
 Zr753 Zr 0.49465 0.77728 0.26979
 O754 O 0.51991 0.75720 0.24645
 Zr755 Zr 0.44921 0.77511 0.22495
 O756 O 0.47280 0.75566 0.19908
 Zr757 Zr 0.45365 0.72934 0.27030
 O758 O 0.47665 0.70749 0.24627
 Zr759 Zr 0.51100 0.76388 0.20695
 O760 O 0.48729 0.78630 0.23026
 Zr761 Zr 0.51460 0.71803 0.25208
 O762 O 0.49177 0.73818 0.27824
 Zr763 Zr 0.46916 0.71666 0.20691
 O764 O 0.44365 0.73601 0.23097
 O765 O 0.45673 0.76821 0.26422
 O766 O 0.50737 0.72494 0.21270
 C767 C 0.46435 0.76138 0.31943
 C768 C 0.45799 0.82240 0.25948
 C769 C 0.40361 0.75829 0.25994
 C770 C 0.50410 0.72867 0.15959
 C771 C 0.56031 0.73337 0.21696
 C772 C 0.50658 0.67211 0.21537
 H773 H 0.53741 0.76244 0.25077
 H774 H 0.47369 0.68935 0.25025
 H775 H 0.44545 0.77777 0.27577
 H776 H 0.46850 0.76013 0.18077
 H777 H 0.49766 0.80555 0.18394
 H778 H 0.45564 0.80224 0.18299
 H779 H 0.50353 0.67706 0.27858
 H780 H 0.47420 0.70133 0.30617
 H781 H 0.54683 0.79381 0.22332
 H782 H 0.51872 0.81632 0.25158
 H783 H 0.44375 0.67686 0.22193
 H784 H 0.41958 0.69887 0.25282
 H785 H 0.52550 0.76150 0.30552
 H786 H 0.55100 0.73456 0.28140
 H787 H 0.41366 0.75468 0.19739
 H788 H 0.44099 0.73080 0.16760
 O789 O 0.00418 0.79717 0.80347
 O790 O 0.04806 0.79798 0.78838
 O791 O -0.03668 0.81396 0.73311
 O792 O -0.03817 0.79786 0.69208
 O793 O -0.06032 0.75387 0.78325
 O794 O -0.04545 0.70976 0.78855
 O795 O 0.02882 0.73860 0.67334
 O796 O 0.01841 0.78360 0.67150
 O797 O 0.07379 0.72961 0.73994
 O798 O 0.06708 0.74145 0.78787
 O799 O 0.01372 0.68130 0.72561
 O800 O -0.03456 0.68515 0.73403
 O801 O 0.00332 0.70538 0.68458
 O802 O -0.03984 0.70272 0.69868
 O803 O 0.04649 0.69211 0.75212
 O804 O 0.04754 0.70885 0.79505
 O805 O 0.06568 0.75112 0.70200
 O806 O 0.05285 0.79267 0.69442
 O807 O -0.02158 0.76389 0.81398
 O808 O -0.01596 0.71941 0.81465
 O809 O -0.06695 0.77579 0.74517
 O810 O -0.06177 0.76341 0.70088
 O811 O -0.00396 0.82363 0.76028
 O812 O 0.04048 0.82022 0.75504
 Zr813 Zr 0.01602 0.78979 0.76504
 O814 O 0.04081 0.76664 0.74440
 Zr815 Zr -0.03204 0.77505 0.72590
 O816 O -0.00957 0.75029 0.70420
 Zr817 Zr -0.02216 0.74160 0.78053
 O818 O 0.00182 0.71596 0.76159
 Zr819 Zr 0.02814 0.76270 0.70566
 O820 O 0.00540 0.78904 0.72528
 Zr821 Zr 0.03924 0.72999 0.76062
 O822 O 0.01597 0.75369 0.78301
 Zr823 Zr -0.00895 0.71411 0.72223
 O824 O -0.03455 0.73801 0.74175
 O825 O -0.02154 0.77800 0.76481
 O826 O 0.02860 0.72624 0.72168
 C827 C -0.01046 0.78489 0.81929
 C828 C -0.02406 0.82942 0.74738
 C829 C -0.07431 0.76703 0.76739
 C830 C 0.01825 0.71710 0.66875
 C831 C 0.08024 0.73847 0.71734
 C832 C 0.03477 0.67649 0.73750
 H833 H 0.05809 0.77387 0.74527
 H834 H 0.00089 0.69919 0.77037
 H835 H -0.03248 0.78961 0.77454
 H836 H -0.01585 0.74968 0.68603
 H837 H 0.01084 0.79967 0.67720
 H838 H -0.03096 0.78898 0.67705
 H839 H 0.03247 0.69839 0.79928
 H840 H 0.00176 0.72270 0.82007
 H841 H 0.06082 0.79923 0.71041
 H842 H 0.03686 0.82474 0.73657
 H843 H -0.02673 0.67550 0.74866
 H844 H -0.05652 0.70759 0.77310
 H845 H 0.04909 0.78443 0.80194
 H846 H 0.07757 0.75482 0.77946
 H847 H -0.06772 0.74671 0.70750
 H848 H -0.04316 0.71660 0.68594
 O849 O 0.08087 0.03114 -0.00452
 O850 O 0.07837 0.02568 -0.05199
 O851 O 0.01192 0.06979 0.01158
 O852 O -0.02948 0.06344 0.00236
 O853 O 0.03379 0.00612 0.05801
 O854 O 0.03127 -0.03970 0.05111
 O855 O -0.04849 -0.00160 -0.05797
 O856 O -0.03743 0.04333 -0.05715
 O857 O 0.01919 -0.03658 -0.08086
 O858 O 0.06489 -0.03183 -0.06465
 O859 O -0.02021 -0.06525 -0.01946
 O860 O -0.02334 -0.05394 0.02847
 O861 O -0.05250 -0.03107 -0.02538
 O862 O -0.05038 -0.02786 0.02178
 O863 O 0.01546 -0.06773 -0.04392
 O864 O 0.06020 -0.05874 -0.03616
 O865 O -0.01128 -0.00694 -0.08725
 O866 O -0.00555 0.03552 -0.08649
 O867 O 0.07484 0.00228 0.02842
 O868 O 0.06477 -0.04095 0.02922
 O869 O 0.00410 0.03630 0.04969
 O870 O -0.03789 0.03390 0.03222
 O871 O 0.04687 0.06721 -0.01401
 O872 O 0.05392 0.05509 -0.05845
 Zr873 Zr 0.04703 0.02962 -0.02691
 O874 O 0.02757 0.00659 -0.05376
 Zr875 Zr -0.00418 0.03328 0.01002
 O876 O -0.02539 0.00953 -0.01430
 Zr877 Zr 0.03826 -0.01188 0.02180
 O878 O 0.01966 -0.03729 -0.00311
 Zr879 Zr -0.01163 0.01310 -0.05247
 O880 O 0.00820 0.03907 -0.02867
 Zr881 Zr 0.03150 -0.03141 -0.04193
 O882 O 0.05295 -0.00854 -0.01633
 Zr883 Zr -0.01903 -0.02863 -0.00375
 O884 O -0.00076 -0.00463 0.02306
 O885 O 0.03444 0.02602 0.01127
 O886 O -0.00734 -0.02489 -0.04227
 C887 C 0.08818 0.01901 0.01624
 C888 C 0.03183 0.07938 0.00080
 C889 C 0.01932 0.02433 0.06493
 C890 C -0.06086 -0.01901 -0.04553
 C891 C 0.00171 -0.02589 -0.09468
 C892 C -0.00518 -0.07704 -0.03466
 H893 H 0.03404 0.00979 -0.07160
 H894 H 0.02276 -0.05484 0.00301
 H895 H 0.04366 0.03729 0.02330
 H896 H -0.04346 0.01419 -0.01327
 H897 H -0.02826 0.05900 -0.05241
 H898 H -0.04268 0.05719 -0.00970
 H899 H 0.05668 -0.06775 -0.01947
 H900 H 0.07470 -0.04261 0.01302
 H901 H 0.00698 0.04857 -0.08170
 H902 H 0.03888 0.06609 -0.06017
 H903 H -0.00983 -0.06676 0.02761
 H904 H 0.01381 -0.03693 0.05737
 H905 H 0.08640 0.00935 -0.04725
 H906 H 0.06286 -0.01949 -0.07924
 H907 H -0.03848 0.01790 0.04255
 H908 H -0.05997 -0.01224 0.01776
 O909 O 0.08511 0.51420 0.49077
 O910 O 0.07481 0.51406 0.44951
 O911 O 0.02410 0.55968 0.52332
 O912 O -0.01908 0.55556 0.52655
 O913 O 0.05100 0.49383 0.56621
 O914 O 0.04635 0.45043 0.56205
 O915 O -0.05208 0.49424 0.46639
 O916 O -0.03915 0.53493 0.45930
 O917 O 0.00806 0.45000 0.43544
 O918 O 0.05075 0.44805 0.44310
 O919 O -0.02817 0.42972 0.50701
 O920 O -0.02376 0.44007 0.54935
 O921 O -0.05573 0.46886 0.50252
 O922 O -0.04060 0.47553 0.55101
 O923 O -0.00069 0.42255 0.47404
 O924 O 0.04472 0.42149 0.48000
 O925 O -0.01940 0.48283 0.43159
 O926 O -0.00870 0.53140 0.43536
 O927 O 0.08380 0.49096 0.52858
 O928 O 0.06955 0.44421 0.53052
 O929 O 0.02514 0.52804 0.56346
 O930 O -0.02226 0.52785 0.55567
 O931 O 0.05324 0.55392 0.49151
 O932 O 0.04460 0.53862 0.44481
 Zr933 Zr 0.04738 0.51602 0.47923
 O934 O 0.02266 0.49246 0.45827
 Zr935 Zr 0.00617 0.52470 0.52700
 O936 O -0.02150 0.50432 0.50643
 Zr937 Zr 0.04601 0.47644 0.53024
 O938 O 0.01858 0.45281 0.51273
 Zr939 Zr -0.01410 0.50442 0.46592
 O940 O 0.01064 0.52901 0.48610
 Zr941 Zr 0.02361 0.45475 0.47238
 O942 O 0.05235 0.47729 0.48981
 Zr943 Zr -0.01851 0.46634 0.51822
 O944 O 0.00862 0.48695 0.54007
 O945 O 0.04314 0.51433 0.51944
 O946 O -0.01339 0.46668 0.47793
 C947 C 0.09533 0.50514 0.51150
 C948 C 0.04221 0.56752 0.50872
 C949 C 0.04174 0.51411 0.57537
 C950 C -0.06492 0.48048 0.48226
 C951 C -0.00896 0.46254 0.42311
 C952 C -0.01985 0.41628 0.48847
 H953 H 0.02692 0.49356 0.43952
 H954 H 0.02032 0.43521 0.51938
 H955 H 0.05550 0.52518 0.52861
 H956 H -0.03828 0.51153 0.51032
 H957 H -0.04389 0.54118 0.47665
 H958 H -0.02085 0.56102 0.50806
 H959 H 0.06189 0.42688 0.48532
 H960 H 0.08292 0.44727 0.51734
 H961 H 0.00078 0.52317 0.42129
 H962 H 0.03314 0.55282 0.44863
 H963 H -0.00675 0.43395 0.55440
 H964 H 0.02956 0.45168 0.57043
 H965 H 0.07292 0.49709 0.44194
 H966 H 0.06710 0.45473 0.44960
 H967 H -0.01879 0.51479 0.56931
 H968 H -0.05331 0.48814 0.54523
 O969 O 0.57356 0.03976 0.49252
 O970 O 0.56105 0.04072 0.44813
 O971 O 0.50460 0.05568 0.53276
 O972 O 0.46648 0.03983 0.53746
 O973 O 0.55268 -0.00628 0.55863
 O974 O 0.55908 -0.04771 0.54409
 O975 O 0.44544 -0.01626 0.46534
 O976 O 0.44609 0.02719 0.47069
 O977 O 0.51116 -0.03197 0.42159
 O978 O 0.55507 -0.02350 0.42602
 O979 O 0.49222 -0.07626 0.48669
 O980 O 0.49710 -0.07378 0.53249
 O981 O 0.45384 -0.04939 0.49290
 O982 O 0.46902 -0.04909 0.54086
 O983 O 0.51853 -0.06794 0.45263
 O984 O 0.56475 -0.04957 0.45466
 O985 O 0.47428 -0.01120 0.42833
 O986 O 0.47352 0.03628 0.43933
 O987 O 0.58292 0.00655 0.51969
 O988 O 0.58171 -0.03943 0.51140
 O989 O 0.51750 0.01747 0.56464
 O990 O 0.47185 0.00478 0.55754
 O991 O 0.53111 0.06598 0.49925
 O992 O 0.52683 0.06029 0.45181
 Zr993 Zr 0.53646 0.03164 0.47938
 O994 O 0.51681 0.00745 0.45378
 Zr995 Zr 0.49799 0.01709 0.52870
 O996 O 0.47563 -0.00605 0.50493
 Zr997 Zr 0.55004 -0.01658 0.51938
 O998 O 0.52953 -0.04259 0.49664
 Zr999 Zr 0.47884 0.00509 0.46543
 O1000 O 0.49791 0.03098 0.48978
 Zr1001 Zr 0.53011 -0.02988 0.45763
 O1002 O 0.55257 -0.00482 0.48005
 Zr1003 Zr 0.49094 -0.04252 0.50691
 O1004 O 0.51228 -0.01974 0.53248
 O1005 O 0.53585 0.01998 0.51826
 O1006 O 0.49203 -0.03182 0.46770
 C1007 C 0.58852 0.02779 0.50825
 C1008 C 0.51809 0.07147 0.51961
 C1009 C 0.53825 0.00728 0.57268
 C1010 C 0.43936 -0.03712 0.47694
 C1011 C 0.48889 -0.02497 0.41453
 C1012 C 0.50316 -0.08240 0.46552
 H1013 H 0.51845 0.01381 0.43562
 H1014 H 0.53696 -0.05962 0.49868
 H1015 H 0.54531 0.03169 0.52962
 H1016 H 0.45787 -0.00553 0.51090
 H1017 H 0.45147 0.04225 0.48053
 H1018 H 0.45348 0.03644 0.52402
 H1019 H 0.56334 -0.06538 0.46520
 H1020 H 0.58908 -0.03291 0.49486
 H1021 H 0.48343 0.03343 0.42333
 H1022 H 0.50926 0.06537 0.45573
 H1023 H 0.51506 -0.07866 0.53087
 H1024 H 0.54320 -0.05259 0.55312
 H1025 H 0.57193 0.02575 0.44583
 H1026 H 0.55328 -0.00557 0.42054
 H1027 H 0.47983 -0.00939 0.56738
 H1028 H 0.45336 -0.03900 0.53910
 O1029 O 0.58066 0.52081 0.00448
 O1030 O 0.56803 0.51773 -0.04447
 O1031 O 0.51970 0.55642 0.03788
 O1032 O 0.47640 0.55157 0.03817
 O1033 O 0.54710 0.48676 0.06999
 O1034 O 0.54059 0.44205 0.05671
 O1035 O 0.44274 0.49419 -0.02616
 O1036 O 0.45314 0.53824 -0.01856
 O1037 O 0.50250 0.46636 -0.06823
 O1038 O 0.55172 0.46777 -0.06020
 O1039 O 0.47573 0.42734 -0.00391
 O1040 O 0.48415 0.43209 0.04549
 O1041 O 0.44405 0.46213 0.00404
 O1042 O 0.45609 0.45772 0.04834
 O1043 O 0.50529 0.42880 -0.03602
 O1044 O 0.54829 0.43471 -0.03913
 O1045 O 0.47303 0.49705 -0.06332
 O1046 O 0.48024 0.53861 -0.05460
 O1047 O 0.58067 0.48693 0.03255
 O1048 O 0.56960 0.44422 0.02864
 O1049 O 0.51866 0.51875 0.07256
 O1050 O 0.47442 0.51853 0.06610
 O1051 O 0.54606 0.55761 0.00286
 O1052 O 0.54860 0.55148 -0.03923
 Zr1053 Zr 0.54363 0.52128 -0.01212
 O1054 O 0.51755 0.50326 -0.03706
 Zr1055 Zr 0.50155 0.52067 0.03582
 O1056 O 0.47467 0.50051 0.01389
 Zr1057 Zr 0.54320 0.47393 0.03128
 O1058 O 0.51902 0.45270 0.00719
 Zr1059 Zr 0.47989 0.50955 -0.02564
 O1060 O 0.50577 0.53140 -0.00366
 Zr1061 Zr 0.52248 0.46421 -0.03222
 O1062 O 0.55002 0.48224 -0.00854
 Zr1063 Zr 0.48156 0.46128 0.01674
 O1064 O 0.50577 0.48131 0.04221
 O1065 O 0.53897 0.51284 0.02724
 O1066 O 0.48480 0.47057 -0.02276
 C1067 C 0.59143 0.50607 0.02155
 C1068 C 0.53622 0.56746 0.02301
 C1069 C 0.53592 0.50447 0.08235
 C1070 C 0.43252 0.47581 -0.01301
 C1071 C 0.48378 0.47994 -0.07653
 C1072 C 0.48697 0.41803 -0.02378
 H1073 H 0.52034 0.50905 -0.05529
 H1074 H 0.52272 0.43450 0.00960
 H1075 H 0.55060 0.52262 0.03845
 H1076 H 0.45743 0.50483 0.01971
 H1077 H 0.46277 0.55314 -0.01246
 H1078 H 0.45976 0.54611 0.03125
 H1079 H 0.55279 0.42728 -0.02190
 H1080 H 0.57656 0.44522 0.01075
 H1081 H 0.49056 0.55258 -0.04751
 H1082 H 0.53293 0.55224 -0.04984
 H1083 H 0.49532 0.41877 0.03878
 H1084 H 0.52593 0.44489 0.06824
 H1085 H 0.58009 0.50401 -0.04008
 H1086 H 0.54630 0.48036 -0.07359
 H1087 H 0.47516 0.50115 0.07360
 H1088 H 0.44848 0.47454 0.05084
 O1089 O 0.77453 0.32648 0.51792
 O1090 O 0.77602 0.30879 0.56419
 O1091 O 0.80806 0.26889 0.47481
 O1092 O 0.80220 0.22565 0.47258
 O1093 O 0.73796 0.30062 0.45015
 O1094 O 0.69382 0.29448 0.46521
 O1095 O 0.74397 0.18691 0.53483
 O1096 O 0.78949 0.19741 0.52738
 O1097 O 0.71884 0.24235 0.58413
 O1098 O 0.72341 0.29111 0.58237
 O1099 O 0.67782 0.22622 0.51871
 O1100 O 0.68329 0.23803 0.46978
 O1101 O 0.71032 0.19288 0.50760
 O1102 O 0.70668 0.20843 0.46485
 O1103 O 0.68191 0.25039 0.55473
 O1104 O 0.69113 0.29435 0.56038
 O1105 O 0.74845 0.21274 0.57538
 O1106 O 0.78960 0.21816 0.56665
 O1107 O 0.74032 0.33009 0.49092
 O1108 O 0.69807 0.32004 0.49596
 O1109 O 0.76825 0.27117 0.44299
 O1110 O 0.76851 0.22658 0.44605
 O1111 O 0.81081 0.29326 0.51080
 O1112 O 0.80646 0.28585 0.55616
 Zr1113 Zr 0.77573 0.28761 0.52961
 O1114 O 0.75696 0.25985 0.55290
 Zr1115 Zr 0.77192 0.25099 0.47817
 O1116 O 0.75109 0.22267 0.49842
 Zr1117 Zr 0.72663 0.29318 0.48905
 O1118 O 0.70510 0.26754 0.51163
 Zr1119 Zr 0.76109 0.22328 0.53796
 O1120 O 0.78383 0.25046 0.51741
 Zr1121 Zr 0.71794 0.26653 0.55067
 O1122 O 0.73674 0.29544 0.52886
 Zr1123 Zr 0.71207 0.23123 0.49791
 O1124 O 0.73251 0.25709 0.47406
 O1125 O 0.76555 0.28748 0.49051
 O1126 O 0.72234 0.22993 0.53717
 C1127 C 0.75951 0.33930 0.50272
 C1128 C 0.81989 0.28474 0.48951
 C1129 C 0.75409 0.28958 0.43556
 C1130 C 0.72419 0.17898 0.52237
 C1131 C 0.73149 0.22223 0.59003
 C1132 C 0.66957 0.23510 0.54030
 H1133 H 0.76339 0.26037 0.57104
 H1134 H 0.68703 0.27218 0.51026
 H1135 H 0.77493 0.30017 0.47983
 H1136 H 0.75453 0.20598 0.49086
 H1137 H 0.80482 0.20751 0.52306
 H1138 H 0.79663 0.20876 0.47898
 H1139 H 0.68013 0.29711 0.54493
 H1140 H 0.69927 0.32414 0.51469
 H1141 H 0.80205 0.23190 0.56365
 H1142 H 0.81600 0.27035 0.55220
 H1143 H 0.67044 0.24904 0.47767
 H1144 H 0.69584 0.28148 0.45175
 H1145 H 0.76051 0.31921 0.56387
 H1146 H 0.73693 0.28402 0.59370
 H1147 H 0.75080 0.22783 0.43977
 H1148 H 0.72316 0.20060 0.46094
 O1149 O 0.78817 0.81806 0.00631
 O1150 O 0.78427 0.81333 0.05460
 O1151 O 0.83044 0.75356 -0.01381
 O1152 O 0.82782 0.71113 -0.00484
 O1153 O 0.76388 0.77174 -0.05536
 O1154 O 0.71833 0.76538 -0.04568
 O1155 O 0.76580 0.68549 0.05954
 O1156 O 0.81079 0.69849 0.05360
 O1157 O 0.72820 0.74652 0.08511
 O1158 O 0.73104 0.79497 0.07087
 O1159 O 0.69898 0.71067 0.02407
 O1160 O 0.70926 0.70933 -0.02398
 O1161 O 0.73573 0.68040 0.02821
 O1162 O 0.73722 0.68399 -0.01915
 O1163 O 0.69541 0.74552 0.04906
 O1164 O 0.70130 0.78923 0.04587
 O1165 O 0.76292 0.72168 0.09013
 O1166 O 0.80486 0.72758 0.08443
 O1167 O 0.75825 0.81119 -0.02490
 O1168 O 0.71581 0.79809 -0.02323
 O1169 O 0.79634 0.74395 -0.04998
 O1170 O 0.79743 0.70187 -0.03403
 O1171 O 0.82677 0.78672 0.01359
 O1172 O 0.81648 0.79114 0.05806
 Zr1173 Zr 0.78979 0.78357 0.02829
 O1174 O 0.76979 0.76131 0.05610
 Zr1175 Zr 0.79551 0.73418 -0.01035
 O1176 O 0.77441 0.71032 0.01483
 Zr1177 Zr 0.74697 0.77356 -0.01806
 O1178 O 0.72423 0.75239 0.00805
 Zr1179 Zr 0.77913 0.72284 0.05307
 O1180 O 0.80221 0.74560 0.02823
 Zr1181 Zr 0.73113 0.76275 0.04694
 O1182 O 0.75083 0.78694 0.02031
 Zr1183 Zr 0.73534 0.71442 0.00700
 O1184 O 0.75680 0.73531 -0.02081
 O1185 O 0.78544 0.77211 -0.00997
 O1186 O 0.74032 0.72463 0.04567
 C1187 C 0.77474 0.82518 -0.01363
 C1188 C 0.83906 0.77360 -0.00286
 C1189 C 0.78276 0.75899 -0.06390
 C1190 C 0.74859 0.67249 0.04795
 C1191 C 0.74227 0.73104 0.09844
 C1192 C 0.68666 0.72501 0.03952
 H1193 H 0.77317 0.76748 0.07386
 H1194 H 0.70627 0.75473 0.00307
 H1195 H 0.79547 0.78255 -0.02242
 H1196 H 0.78009 0.69266 0.01311
 H1197 H 0.82561 0.70866 0.04776
 H1198 H 0.82253 0.69582 0.00517
 H1199 H 0.69438 0.78927 0.02791
 H1200 H 0.71458 0.80790 -0.00704
 H1201 H 0.80866 0.74584 0.08536
 H1202 H 0.82709 0.77585 0.06006
 H1203 H 0.69624 0.72263 -0.02285
 H1204 H 0.72256 0.74883 -0.05319
 H1205 H 0.76775 0.82106 0.05009
 H1206 H 0.74031 0.79074 0.08717
 H1207 H 0.78065 0.70002 -0.04249
 H1208 H 0.75352 0.67528 -0.01608
 O1209 O 0.98444 0.17825 0.21007
 O1210 O 0.93659 0.18604 0.21626
 O1211 O 1.00710 0.24353 0.16764
 O1212 O 1.00335 0.28653 0.17228
 O1213 O 1.04718 0.21997 0.23628
 O1214 O 1.03741 0.22580 0.28389
 O1215 O 0.94263 0.31183 0.23729
 O1216 O 0.94792 0.30279 0.19099
 O1217 O 0.91205 0.25002 0.27210
 O1218 O 0.92259 0.20114 0.26787
 O1219 O 0.97262 0.28122 0.30393
 O1220 O 1.02130 0.27894 0.29404
 O1221 O 0.97363 0.31395 0.26811
 O1222 O 1.01751 0.30842 0.26778
 O1223 O 0.94558 0.24764 0.30643
 O1224 O 0.94646 0.20440 0.29956
 O1225 O 0.91005 0.27727 0.23730
 O1226 O 0.91626 0.27184 0.19408
 O1227 O 1.01382 0.18197 0.24242
 O1228 O 1.01509 0.19340 0.28518
 O1229 O 1.04383 0.24814 0.20233
 O1230 O 1.03314 0.29119 0.20337
 O1231 O 0.97750 0.21214 0.17068
 O1232 O 0.93772 0.20585 0.18038
 Zr1233 Zr 0.96520 0.21355 0.20929
 O1234 O 0.93975 0.23656 0.22967
 Zr1235 Zr 1.00659 0.26099 0.20444
 O1236 O 0.98420 0.28509 0.22696
 Zr1237 Zr 1.01073 0.21947 0.25375
 O1238 O 0.98639 0.24030 0.27755
 Zr1239 Zr 0.94618 0.27525 0.22144
 O1240 O 0.96833 0.25208 0.19733
 Zr1241 Zr 0.94798 0.23225 0.26946
 O1242 O 0.97257 0.20792 0.24924
 Zr1243 Zr 0.99069 0.27856 0.26721
 O1244 O 1.01635 0.25782 0.24441
 O1245 O 1.00320 0.22277 0.21403
 O1246 O 0.95252 0.27066 0.26129
 C1247 C 1.00248 0.16948 0.22468
 C1248 C 0.99430 0.22495 0.15816
 C1249 C 1.05632 0.23232 0.21645
 C1250 C 0.95485 0.32333 0.25547
 C1251 C 0.90072 0.26694 0.25788
 C1252 C 0.95581 0.26747 0.31578
 H1253 H 0.92206 0.23178 0.22556
 H1254 H 0.99064 0.23685 0.29608
 H1255 H 1.01426 0.21216 0.20326
 H1256 H 0.98743 0.30295 0.22186
 H1257 H 0.95369 0.29404 0.17520
 H1258 H 0.99590 0.30239 0.17859
 H1259 H 0.96369 0.20328 0.30713
 H1260 H 0.99819 0.18572 0.28815
 H1261 H 0.92309 0.26231 0.17929
 H1262 H 0.92557 0.21998 0.18062
 H1263 H 1.01665 0.26807 0.30922
 H1264 H 1.04739 0.24098 0.27872
 H1265 H 0.94259 0.17497 0.23078
 H1266 H 0.90716 0.20670 0.25840
 H1267 H 1.04153 0.29143 0.22068
 H1268 H 1.01862 0.31541 0.24979
 O1269 O 0.80950 0.98897 0.79314
 O1270 O 0.79919 1.03197 0.78983
 O1271 O 0.74086 0.95583 0.82484
 O1272 O 0.70022 0.95546 0.81433
 O1273 O 0.77900 0.92051 0.76263
 O1274 O 0.78025 0.92725 0.71707
 O1275 O 0.67933 1.01956 0.74356
 O1276 O 0.68209 1.01803 0.78869
 O1277 O 0.74632 1.05156 0.71543
 O1278 O 0.79045 1.04362 0.72099
 O1279 O 0.71783 0.98411 0.68325
 O1280 O 0.71782 0.94079 0.69494
 O1281 O 0.68148 0.98708 0.71523
 O1282 O 0.69129 0.94005 0.72331
 O1283 O 0.74720 1.01572 0.68372
 O1284 O 0.79408 1.01315 0.69807
 O1285 O 0.71338 1.05303 0.74372
 O1286 O 0.71312 1.04575 0.79276
 O1287 O 0.81315 0.95803 0.76315
 O1288 O 0.80628 0.95712 0.71599
 O1289 O 0.74490 0.92041 0.78963
 O1290 O 0.69899 0.93044 0.78108
 O1291 O 0.77140 0.98635 0.82613
 O1292 O 0.76722 1.03199 0.81416
 Zr1293 Zr 0.77241 1.00219 0.78782
 O1294 O 0.75278 1.02530 0.76061
 Zr1295 Zr 0.72895 0.95683 0.78575
 O1296 O 0.70634 0.97871 0.75999
 Zr1297 Zr 0.77744 0.95645 0.74448
 O1298 O 0.75641 0.97673 0.71619
 Zr1299 Zr 0.71391 1.01762 0.76382
 O1300 O 0.73336 0.99587 0.79280
 Zr1301 Zr 0.76174 1.01553 0.72216
 O1302 O 0.78452 0.99526 0.74938
 Zr1303 Zr 0.71734 0.97065 0.72181
 O1304 O 0.73861 0.94718 0.74751
 O1305 O 0.76764 0.96364 0.78272
 O1306 O 0.72287 1.00949 0.72540
 C1307 C 0.82210 0.97197 0.78142
 C1308 C 0.75824 0.96824 0.83670
 C1309 C 0.76433 0.90984 0.77951
 C1310 C 0.67016 1.00605 0.72518
 C1311 C 0.72736 1.06275 0.72550
 C1312 C 0.73025 1.00221 0.67230
 H1313 H 0.75682 1.04323 0.76386
 H1314 H 0.76183 0.97169 0.69862
 H1315 H 0.77794 0.95345 0.79514
 H1316 H 0.68821 0.97499 0.76308
 H1317 H 0.68720 1.00919 0.80506
 H1318 H 0.68673 0.96708 0.80827
 H1319 H 0.79076 1.00007 0.68492
 H1320 H 0.81520 0.97355 0.71752
 H1321 H 0.72715 1.05784 0.78940
 H1322 H 0.75072 1.02893 0.82280
 H1323 H 0.73539 0.93940 0.68855
 H1324 H 0.76348 0.91881 0.71656
 H1325 H 0.80793 1.03252 0.77278
 H1326 H 0.78933 1.05321 0.73731
 H1327 H 0.70403 0.91885 0.76710
 H1328 H 0.67715 0.94477 0.73479
 O1329 O 0.74311 0.47233 0.34091
 O1330 O 0.69986 0.47910 0.33017
 O1331 O 0.77394 0.43885 0.27387
 O1332 O 0.77677 0.44678 0.23182
 O1333 O 0.81297 0.50284 0.30798
 O1334 O 0.80778 0.54359 0.31260
 O1335 O 0.71712 0.51470 0.20245
 O1336 O 0.71632 0.47100 0.20963
 O1337 O 0.68380 0.54613 0.26940
 O1338 O 0.69119 0.54579 0.31386
 O1339 O 0.75312 0.57495 0.23743
 O1340 O 0.79520 0.56473 0.24433
 O1341 O 0.75101 0.54145 0.20377
 O1342 O 0.79672 0.53390 0.21622
 O1343 O 0.72026 0.57675 0.26579
 O1344 O 0.72430 0.56684 0.31664
 O1345 O 0.68292 0.51803 0.23639
 O1346 O 0.68663 0.47107 0.23961
 O1347 O 0.77602 0.50013 0.34343
 O1348 O 0.77348 0.54796 0.33377
 O1349 O 0.81191 0.47306 0.27652
 O1350 O 0.80326 0.47773 0.22915
 O1351 O 0.74115 0.43972 0.30247
 O1352 O 0.69712 0.45424 0.29901
 Zr1353 Zr 0.72940 0.47781 0.30254
 O1354 O 0.70845 0.50351 0.27926
 Zr1355 Zr 0.77587 0.47614 0.25921
 O1356 O 0.75608 0.50017 0.23325
 Zr1357 Zr 0.77691 0.51877 0.30632
 O1358 O 0.75904 0.54560 0.28137
 Zr1359 Zr 0.71690 0.49766 0.23985
 O1360 O 0.73642 0.47043 0.26302
 Zr1361 Zr 0.71984 0.54113 0.28574
 O1362 O 0.73774 0.51553 0.31238
 Zr1363 Zr 0.76569 0.53766 0.24195
 O1364 O 0.78704 0.51355 0.26688
 O1365 O 0.76838 0.48126 0.29848
 O1366 O 0.72660 0.53521 0.24640
 C1367 C 0.76167 0.48255 0.35323
 C1368 C 0.75887 0.42822 0.29039
 C1369 C 0.82307 0.48532 0.29473
 C1370 C 0.73205 0.53127 0.19204
 C1371 C 0.67317 0.53582 0.24976
 C1372 C 0.73439 0.58637 0.24761
 H1373 H 0.69026 0.50109 0.28310
 H1374 H 0.76472 0.56294 0.28544
 H1375 H 0.77807 0.46914 0.30951
 H1376 H 0.76013 0.49580 0.21508
 H1377 H 0.72332 0.45509 0.21710
 H1378 H 0.76537 0.45182 0.21729
 H1379 H 0.73497 0.58111 0.31035
 H1380 H 0.75897 0.54348 0.34516
 H1381 H 0.67482 0.47514 0.25382
 H1382 H 0.69868 0.44554 0.28217
 H1383 H 0.80864 0.55696 0.25531
 H1384 H 0.80682 0.55692 0.29885
 H1385 H 0.70192 0.49526 0.33941
 H1386 H 0.68356 0.52889 0.31702
 H1387 H 0.81495 0.49188 0.23306
 H1388 H 0.79217 0.52123 0.20302
 O1389 O 0.56303 0.21661 0.75531
 O1390 O 0.55146 0.21849 0.80170
 O1391 O 0.50400 0.17415 0.72269
 O1392 O 0.46160 0.17582 0.71933
 O1393 O 0.52816 0.24416 0.68583
 O1394 O 0.52103 0.28729 0.69404
 O1395 O 0.42491 0.23558 0.78417
 O1396 O 0.43697 0.19229 0.77983
 O1397 O 0.48106 0.27431 0.81935
 O1398 O 0.52391 0.27531 0.81807
 O1399 O 0.45290 0.30323 0.74984
 O1400 O 0.45697 0.29270 0.70389
 O1401 O 0.42340 0.26692 0.75322
 O1402 O 0.43358 0.26150 0.70460
 O1403 O 0.48161 0.30705 0.78277
 O1404 O 0.52670 0.30381 0.78271
 O1405 O 0.45623 0.23901 0.81962
 O1406 O 0.46558 0.19396 0.81196
 O1407 O 0.56134 0.24785 0.72424
 O1408 O 0.54541 0.29197 0.72473
 O1409 O 0.50238 0.20954 0.68453
 O1410 O 0.45618 0.20797 0.69190
 O1411 O 0.53200 0.17805 0.75631
 O1412 O 0.52681 0.18786 0.80131
 Zr1413 Zr 0.52586 0.21458 0.77011
 O1414 O 0.49967 0.23398 0.79304
 Zr1415 Zr 0.48434 0.20881 0.72144
 O1416 O 0.45601 0.22758 0.74272
 Zr1417 Zr 0.52306 0.25865 0.72331
 O1418 O 0.49641 0.27963 0.74393
 Zr1419 Zr 0.46262 0.22298 0.78296
 O1420 O 0.48894 0.20134 0.76182
 Zr1421 Zr 0.50122 0.27276 0.78409
 O1422 O 0.53021 0.25388 0.76368
 Zr1423 Zr 0.45950 0.26677 0.73574
 O1424 O 0.48613 0.24781 0.71236
 O1425 O 0.52111 0.21988 0.73012
 O1426 O 0.46428 0.26180 0.77575
 C1427 C 0.57318 0.23079 0.73751
 C1428 C 0.52189 0.16571 0.73762
 C1429 C 0.51869 0.22496 0.67424
 C1430 C 0.41359 0.25379 0.77204
 C1431 C 0.46451 0.25944 0.82993
 C1432 C 0.46360 0.31559 0.76821
 H1433 H 0.50347 0.23091 0.81174
 H1434 H 0.49893 0.29771 0.73928
 H1435 H 0.53355 0.21037 0.71985
 H1436 H 0.43897 0.22121 0.73807
 H1437 H 0.44657 0.17815 0.77236
 H1438 H 0.44565 0.17925 0.72864
 H1439 H 0.54394 0.29686 0.78086
 H1440 H 0.55689 0.29020 0.73994
 H1441 H 0.47920 0.19868 0.82428
 H1442 H 0.51120 0.17751 0.79984
 H1443 H 0.47134 0.30468 0.70539
 H1444 H 0.50475 0.28478 0.68475
 H1445 H 0.56180 0.23384 0.79813
 H1446 H 0.53905 0.26495 0.81498
 H1447 H 0.45722 0.22433 0.68224
 H1448 H 0.42138 0.24811 0.70987
 O1449 O 0.23878 0.78768 0.42370
 O1450 O 0.19725 0.78648 0.44157
 O1451 O 0.28170 0.82128 0.48559
 O1452 O 0.28757 0.81305 0.52870
 O1453 O 0.31071 0.75708 0.44765
 O1454 O 0.30164 0.71262 0.45015
 O1455 O 0.22784 0.74791 0.56427
 O1456 O 0.23258 0.79242 0.55801
 O1457 O 0.18434 0.72167 0.50391
 O1458 O 0.18618 0.72515 0.45533
 O1459 O 0.25359 0.68577 0.52142
 O1460 O 0.29891 0.69711 0.51369
 O1461 O 0.25748 0.71760 0.55832
 O1462 O 0.30153 0.72109 0.54307
 O1463 O 0.21715 0.68710 0.49761
 O1464 O 0.21187 0.69785 0.45114
 O1465 O 0.18968 0.75050 0.53585
 O1466 O 0.19831 0.79574 0.53281
 O1467 O 0.26897 0.75783 0.41773
 O1468 O 0.26928 0.71332 0.42667
 O1469 O 0.31652 0.78570 0.47975
 O1470 O 0.31420 0.78070 0.52658
 O1471 O 0.24645 0.82227 0.45985
 O1472 O 0.20300 0.81300 0.47069
 Zr1473 Zr 0.23107 0.78560 0.46381
 O1474 O 0.21082 0.76212 0.48990
 Zr1475 Zr 0.28261 0.78411 0.50115
 O1476 O 0.26444 0.76069 0.52927
 Zr1477 Zr 0.27459 0.74146 0.45496
 O1478 O 0.25632 0.71611 0.48084
 Zr1479 Zr 0.22522 0.76661 0.52784
 O1480 O 0.24364 0.79249 0.50211
 Zr1481 Zr 0.21738 0.72402 0.48143
 O1482 O 0.23526 0.74756 0.45318
 Zr1483 Zr 0.26874 0.72261 0.51915
 O1484 O 0.28945 0.74594 0.49275
 O1485 O 0.26990 0.77940 0.46312
 O1486 O 0.22980 0.72840 0.51973
 C1487 C 0.25405 0.77535 0.40936
 C1488 C 0.26631 0.83256 0.46971
 C1489 C 0.32400 0.77369 0.45965
 C1490 C 0.24108 0.72896 0.57228
 C1491 C 0.17693 0.73335 0.52421
 C1492 C 0.23334 0.67560 0.51227
 H1493 H 0.19265 0.76634 0.48861
 H1494 H 0.25976 0.69865 0.47536
 H1495 H 0.27877 0.79050 0.45031
 H1496 H 0.27116 0.76405 0.54691
 H1497 H 0.23920 0.80810 0.54957
 H1498 H 0.28134 0.80645 0.54569
 H1499 H 0.22723 0.68731 0.45017
 H1500 H 0.25120 0.71394 0.42152
 H1501 H 0.18568 0.79473 0.51857
 H1502 H 0.20752 0.82107 0.48736
 H1503 H 0.29467 0.68678 0.49836
 H1504 H 0.31296 0.71309 0.46559
 H1505 H 0.19590 0.76993 0.43297
 H1506 H 0.17529 0.73945 0.46021
 H1507 H 0.32195 0.76407 0.52327
 H1508 H 0.30132 0.73589 0.55457
 O1509 O 0.30361 0.27053 0.97588
 O1510 O 0.29297 0.22599 0.97893
 O1511 O 0.23991 0.30129 0.93543
 O1512 O 0.19825 0.30455 0.94073
 O1513 O 0.26990 0.33624 1.00471
 O1514 O 0.26373 0.32670 1.05088
 O1515 O 0.16686 0.23997 1.00261
 O1516 O 0.17752 0.24502 0.95755
 O1517 O 0.22894 0.20258 1.03687
 O1518 O 0.27504 0.21167 1.03958
 O1519 O 0.19804 0.26799 1.07141
 O1520 O 0.20241 0.31362 1.06240
 O1521 O 0.16665 0.26940 1.03438
 O1522 O 0.17788 0.31561 1.03227
 O1523 O 0.22587 0.23538 1.07270
 O1524 O 0.27277 0.23711 1.06791
 O1525 O 0.19877 0.20525 1.00512
 O1526 O 0.20468 0.21340 0.95914
 O1527 O 0.30338 0.29937 1.00827
 O1528 O 0.29114 0.29774 1.05312
 O1529 O 0.24035 0.33752 0.97221
 O1530 O 0.19495 0.32937 0.97353
 O1531 O 0.27031 0.27096 0.93786
 O1532 O 0.26643 0.22675 0.94791
 Zr1533 Zr 0.26646 0.25572 0.97576
 O1534 O 0.24188 0.23190 0.99719
 Zr1535 Zr 0.22354 0.30147 0.97277
 O1536 O 0.19711 0.27968 0.99413
 Zr1537 Zr 0.26562 0.29951 1.02126
 O1538 O 0.24107 0.27744 1.04495
 Zr1539 Zr 0.20407 0.24123 0.98840
 O1540 O 0.22867 0.26299 0.96448
 Zr1541 Zr 0.24582 0.23885 1.03720
 O1542 O 0.27276 0.26079 1.01592
 Zr1543 Zr 0.20336 0.28487 1.03426
 O1544 O 0.22786 0.30917 1.01269
 O1545 O 0.26126 0.29410 0.98147
 O1546 O 0.20802 0.24630 1.02845
 C1547 C 0.31442 0.28729 0.99008
 C1548 C 0.25797 0.28838 0.92562
 C1549 C 0.25810 0.34752 0.98579
 C1550 C 0.15601 0.25210 1.02087
 C1551 C 0.21066 0.19332 1.02330
 C1552 C 0.20794 0.24845 1.08257
 H1553 H 0.24578 0.21415 0.99318
 H1554 H 0.24423 0.28107 1.06351
 H1555 H 0.27296 0.30457 0.97072
 H1556 H 0.17973 0.28427 0.98867
 H1557 H 0.18678 0.25227 0.94236
 H1558 H 0.18303 0.29435 0.94508
 H1559 H 0.26998 0.25173 1.07927
 H1560 H 0.29750 0.28017 1.05396
 H1561 H 0.22002 0.20300 0.96172
 H1562 H 0.25010 0.22801 0.93841
 H1563 H 0.21756 0.31168 1.07366
 H1564 H 0.24765 0.33593 1.04811
 H1565 H 0.30103 0.22733 0.99634
 H1566 H 0.27424 0.20158 1.02355
 H1567 H 0.19684 0.33831 0.99022
 H1568 H 0.16691 0.31338 1.01677
 C1569 C 0.28996 0.39244 0.79061
 C1570 C 0.30332 0.40876 0.77594
 H1571 H 0.27179 0.39827 0.79812
 H1572 H 0.32180 0.40360 0.76882
 C1573 C 0.27609 -0.11621 0.27394
 C1574 C 0.25982 -0.10150 0.28675
 H1575 H 0.28570 -0.10803 0.25710
 H1576 H 0.24940 -0.10825 0.30356
 C1577 C 0.79216 0.87223 0.78364
 C1578 C 0.77048 0.88426 0.78937
 H1579 H 0.80442 0.88080 0.76898
 H1580 H 0.75684 0.87619 0.80275
 C1581 C 0.45513 0.85907 0.28884
 C1582 C 0.44883 0.84771 0.26645
 H1583 H 0.46896 0.85012 0.30164
 H1584 H 0.43560 0.85648 0.25299
 C1585 C -0.02442 0.87079 0.76840
 C1586 C -0.03448 0.85492 0.75081
 H1587 H -0.00670 0.86538 0.77766
 H1588 H -0.05186 0.85911 0.74050
 C1589 C -0.03473 -0.11324 -0.03838
 C1590 C -0.01197 -0.10277 -0.04297
 H1591 H -0.04816 -0.10324 -0.02649
 H1592 H 0.00200 -0.11280 -0.05409
 C1593 C -0.03057 0.37993 0.46111
 C1594 C -0.03456 0.39296 0.48282
 H1595 H -0.01458 0.38599 0.44927
 H1596 H -0.05014 0.38813 0.49562
 C1597 C 0.47631 -0.12039 0.46405
 C1598 C 0.49634 -0.10718 0.45460
 H1599 H 0.46685 -0.11308 0.48103
 H1600 H 0.50634 -0.11284 0.43737
 C1601 C 0.45698 0.38182 -0.02755
 C1602 C 0.47865 0.39360 -0.03432
 H1603 H 0.44589 0.39004 -0.01214
 H1604 H 0.49071 0.38628 -0.04926
 C1605 C 0.78827 0.37560 0.49877
 C1606 C 0.76506 0.36598 0.49628
 H1607 H 0.80257 0.36435 0.50878
 H1608 H 0.75041 0.37688 0.48653
 C1609 C 0.79967 0.86447 -0.02084
 C1610 C 0.77892 0.85054 -0.02575
 H1611 H 0.81266 0.85706 -0.00615
 H1612 H 0.76553 0.85637 -0.04064
 C1613 C 0.77042 0.28560 0.39146
 C1614 C 0.75761 0.29925 0.40877
 H1615 H 0.77624 0.26661 0.39705
 H1616 H 0.75114 0.31817 0.40420
 C1617 C 0.78542 0.78308 -0.10515
 C1618 C 0.79082 0.76229 -0.09110
 H1619 H 0.77251 0.79674 -0.09712
 H1620 H 0.80342 0.74817 -0.09861
 C1621 C 0.29011 0.46793 0.86413
 C1622 C 0.29541 0.48967 0.85142
 H1623 H 0.27794 0.45410 0.85492
 H1624 H 0.30681 0.50411 0.86054
 C1625 C 0.28885 -0.02293 0.36708
 C1626 C 0.26506 -0.02630 0.35848
 H1627 H 0.30146 -0.01087 0.35568
 H1628 H 0.25188 -0.03806 0.36936
 C1629 C -0.02610 -0.03037 -0.13315
 C1630 C -0.00473 -0.03697 -0.12021
 H1631 H -0.03748 -0.01554 -0.12490
 H1632 H 0.00727 -0.05197 -0.12683
 C1633 C -0.03447 0.46245 0.38243
 C1634 C -0.01665 0.45201 0.39777
 H1635 H -0.04287 0.47989 0.38895
 H1636 H -0.00754 0.43464 0.39249
 C1637 C 0.45498 -0.03394 0.38235
 C1638 C 0.47949 -0.03470 0.38938
 H1639 H 0.44183 -0.02365 0.39431
 H1640 H 0.49299 -0.04433 0.37732
 C1641 C 0.48283 0.45914 -0.11911
 C1642 C 0.47283 0.47544 -0.10254
 H1643 H 0.50024 0.44964 -0.11351
 H1644 H 0.45519 0.48481 -0.10724
 C1645 C 0.46648 0.78724 0.35858
 C1646 C 0.45775 0.76662 0.34658
 H1647 H 0.48038 0.79915 0.34875
 H1648 H 0.44451 0.75384 0.35609
 C1649 C -0.03274 0.78599 0.86135
 C1650 C -0.01563 0.79629 0.84483
 H1651 H -0.04178 0.76846 0.85560
 H1652 H -0.00602 0.81384 0.84902
 C1653 C 0.36175 0.77826 0.25567
 C1654 C 0.37744 0.76232 0.26821
 H1655 H 0.36806 0.78756 0.23780
 H1656 H 0.37204 0.75334 0.28647
 C1657 C -0.10852 0.77414 0.79951
 C1658 C -0.10021 0.77425 0.77487
 H1659 H -0.09682 0.76586 0.81483
 H1660 H -0.11215 0.78191 0.75945
 C1661 C 0.85543 0.29142 0.45798
 C1662 C 0.84521 0.29500 0.48159
 H1663 H 0.84496 0.27965 0.44455
 H1664 H 0.85507 0.30659 0.49555
 C1665 C 0.87529 0.77747 -0.03279
 C1666 C 0.86416 0.78351 -0.01033
 H1667 H 0.86650 0.76307 -0.04465
 H1668 H 0.87230 0.79767 0.00213
 C1669 C -0.10012 -0.04385 -0.04259
 C1670 C -0.08656 -0.02544 -0.05465
 H1671 H -0.09120 -0.05409 -0.02651
 H1672 H -0.09381 -0.01485 -0.07124
 C1673 C -0.10825 0.46429 0.48959
 C1674 C -0.09187 0.47837 0.47575
 H1675 H -0.10115 0.45442 0.50685
 H1676 H -0.09752 0.48792 0.45789
 C1677 C 0.39815 -0.03671 0.45430
 C1678 C 0.41402 -0.04776 0.47168
 H1679 H 0.40473 -0.01972 0.44419
 H1680 H 0.40908 -0.06498 0.48213
 C1681 C 0.39231 0.47622 -0.03811
 C1682 C 0.40588 0.46884 -0.01720
 H1683 H 0.40101 0.48969 -0.05161
 H1684 H 0.39841 0.45552 -0.00302
 C1685 C 0.38293 0.46780 0.77436
 C1686 C 0.37002 0.48800 0.78233
 H1687 H 0.37559 0.45768 0.75773
 H1688 H 0.37639 0.49862 0.79895
 C1689 C 0.34995 -0.04761 0.28508
 C1690 C 0.33924 -0.02503 0.28870
 H1691 H 0.34008 -0.06120 0.27307
 H1692 H 0.34872 -0.01087 0.30018
 C1693 C 0.15062 0.54815 0.71424
 C1694 C 0.16389 0.52755 0.70753
 H1695 H 0.15878 0.56052 0.72868
 H1696 H 0.15617 0.51452 0.69355
 C1697 C 0.12436 0.04859 0.22009
 C1698 C 0.13504 0.02567 0.21916
 H1699 H 0.13386 0.06361 0.23049
 H1700 H 0.12529 0.01036 0.20957
 C1701 C 0.60167 0.71309 0.22323
 C1702 C 0.58667 0.72884 0.20946
 H1703 H 0.59413 0.70391 0.24065
 H1704 H 0.59320 0.73828 0.19186
 C1705 C 0.12334 0.72090 0.72112
 C1706 C 0.10575 0.73354 0.70740
 H1707 H 0.11898 0.71433 0.74076
 H1708 H 0.10932 0.73923 0.68736
 C1709 C 0.62792 0.21487 0.53479
 C1710 C 0.64444 0.22721 0.54979
 H1711 H 0.63322 0.21088 0.51488
 H1712 H 0.64001 0.23128 0.56983
 C1713 C 0.65037 0.69520 0.04529
 C1714 C 0.66055 0.71841 0.04713
 H1715 H 0.66139 0.68045 0.03644
 H1716 H 0.64982 0.73361 0.05533
 C1717 C 0.12682 0.04534 0.02119
 C1718 C 0.11300 0.02492 0.02814
 H1719 H 0.11975 0.05696 0.00510
 H1720 H 0.11857 0.01287 0.04436
 C1721 C 0.13025 0.51813 0.54000
 C1722 C 0.12135 0.51398 0.51610
 H1723 H 0.12007 0.51077 0.55685
 H1724 H 0.13177 0.52137 0.49942
 C1725 C 0.62934 0.03027 0.53214
 C1726 C 0.61318 0.04014 0.51441
 H1727 H 0.62436 0.01217 0.54106
 H1728 H 0.61717 0.05823 0.50511
 C1729 C 0.62676 0.53552 0.02974
 C1730 C 0.61700 0.51217 0.03137
 H1731 H 0.61723 0.54968 0.01774
 H1732 H 0.62654 0.49778 0.04299
 C1733 C 0.03957 0.02871 0.10813
 C1734 C 0.02034 0.03360 0.09170
 H1735 H 0.05367 0.01520 0.10209
 H1736 H 0.00549 0.04654 0.09656
 C1737 C 0.04783 0.54458 0.61075
 C1738 C 0.05201 0.52181 0.60086
 H1739 H 0.03525 0.55743 0.60035
 H1740 H 0.06401 0.50846 0.61126
 C1741 C 0.53563 0.02952 0.61421
 C1742 C 0.54704 0.01237 0.59935
 H1743 H 0.51865 0.03842 0.60647
 H1744 H 0.56427 0.00307 0.60547
 C1745 C 0.53354 0.52828 0.12285
 C1746 C 0.54462 0.51007 0.10896
 H1747 H 0.51658 0.53715 0.11506
 H1748 H 0.56151 0.50060 0.11578
 C1749 C 0.24158 0.54538 0.62298
 C1750 C 0.24342 0.52225 0.63359
 H1751 H 0.24963 0.56138 0.63312
 H1752 H 0.23581 0.50597 0.62370
 C1753 C 0.22132 0.04079 0.12934
 C1754 C 0.21293 0.02003 0.14213
 H1755 H 0.23595 0.05188 0.13881
 H1756 H 0.19830 0.00813 0.13405
 C1757 C 0.70637 0.21436 0.63004
 C1758 C 0.72590 0.20827 0.61479
 H1759 H 0.69532 0.23080 0.62436
 H1760 H 0.73749 0.19206 0.61965
 C1761 C 0.71022 0.72404 0.13270
 C1762 C 0.73414 0.72206 0.12460
 H1763 H 0.69700 0.73458 0.12050
 H1764 H 0.74783 0.71183 0.13642
 C1765 C 0.53831 0.72108 0.12876
 C1766 C 0.51366 0.71946 0.13474
 H1767 H 0.55069 0.73281 0.14044
 H1768 H 0.50085 0.70811 0.12325
 C1769 C 0.03859 0.71525 0.62566
 C1770 C 0.02395 0.70439 0.64403
 H1771 H 0.04557 0.73426 0.62890
 H1772 H 0.01690 0.68532 0.64179
 C1773 C 0.53650 0.63640 0.21442
 C1774 C 0.51468 0.64704 0.20665
 H1775 H 0.54828 0.64642 0.22824
 H1776 H 0.50227 0.63771 0.19304
 C1777 C 0.03846 0.63530 0.71618
 C1778 C 0.04750 0.65207 0.73316
 H1779 H 0.02022 0.63912 0.70717
 H1780 H 0.06584 0.64930 0.74221
 C1781 C 0.02781 0.11965 0.02458
 C1782 C 0.03889 0.10584 0.00605
 H1783 H 0.01247 0.11087 0.03553
 H1784 H 0.05465 0.11310 -0.00514
 C1785 C 0.04146 0.60792 0.53183
 C1786 C 0.05154 0.59349 0.51309
 H1787 H 0.02556 0.60045 0.54290
 H1788 H 0.06745 0.59990 0.50155
 C1789 C 0.53231 0.11598 0.51889
 C1790 C 0.51946 0.09701 0.53026
 H1791 H 0.54082 0.11295 0.50000
 H1792 H 0.51132 0.09921 0.54938
 C1793 C 0.54207 0.60360 0.05222
 C1794 C 0.54576 0.59279 0.02925
 H1795 H 0.52969 0.59454 0.06643
 H1796 H 0.55742 0.60224 0.01468
 C1797 C 0.72555 0.13604 0.54234
 C1798 C 0.71564 0.15243 0.52500
 H1799 H 0.74163 0.14256 0.55369
 H1800 H 0.69957 0.14722 0.51311
 C1801 C 0.72583 0.63219 0.04564
 C1802 C 0.74242 0.64701 0.05829
 H1803 H 0.71866 0.63867 0.02684
 H1804 H 0.75060 0.64136 0.07683
 C1805 C 0.21852 0.62069 0.71429
 C1806 C 0.23980 0.60929 0.70692
 H1807 H 0.20642 0.61112 0.72843
 H1808 H 0.25261 0.61841 0.69328
 C1809 C 0.19769 0.11704 0.22192
 C1810 C 0.21723 0.10338 0.21344
 H1811 H 0.18665 0.10911 0.23792
 H1812 H 0.22911 0.11003 0.19765
 C1813 C 0.70255 1.10239 0.72404
 C1814 C 0.72151 1.08836 0.71482
 H1815 H 0.69185 1.09434 0.74023
 H1816 H 0.73323 1.09530 0.69899
 C1817 C 0.70605 0.62279 0.23992
 C1818 C 0.72850 0.61172 0.23643
 H1819 H 0.69271 0.61349 0.25301
 H1820 H 0.74233 0.62023 0.22345
 C1821 C 0.52713 0.12770 0.71122
 C1822 C 0.53269 0.14062 0.73271
 H1823 H 0.51301 0.13537 0.69788
 H1824 H 0.54642 0.13353 0.74667
 C1825 C 1.01203 0.13256 0.19778
 C1826 C 1.01229 0.14384 0.22088
 H1827 H 1.00148 0.14120 0.18179
 H1828 H 1.02249 0.13536 0.23714
 C1829 C 0.20659 0.63704 0.51885
 C1830 C 0.22917 0.64892 0.51958
 H1831 H 0.19043 0.64646 0.51002
 H1832 H 0.24561 0.63917 0.52727
 C1833 C 0.21656 0.15030 1.04133
 C1834 C 0.20226 0.16726 1.02851
 H1835 H 0.23481 0.15613 1.04899
 H1836 H 0.18374 0.16215 1.02116
 C1837 C 0.21735 0.72646 0.61364
 C1838 C 0.23668 0.71868 0.59889
 H1839 H 0.20579 0.74190 0.60626
 H1840 H 0.24884 0.70349 0.60547
 C1841 C 0.20317 0.21836 1.11999
 C1842 C 0.19719 0.24042 1.10811
 H1843 H 0.21742 0.20669 1.11108
 H1844 H 0.18333 0.25276 1.11652
 C1845 C 0.70645 0.53409 0.15126
 C1846 C 0.72756 0.53964 0.16483
 H1847 H 0.69233 0.52173 0.16011
 H1848 H 0.74236 0.55116 0.15616
 C1849 C 0.73094 1.02947 0.63304
 C1850 C 0.72341 1.00810 0.64508
 H1851 H 0.74445 1.04154 0.64293
 H1852 H 0.71018 0.99536 0.63594
 C1853 C 0.52405 0.19926 0.63448
 C1854 C 0.52831 0.22055 0.64768
 H1855 H 0.51159 0.18497 0.64293
 H1856 H 0.54004 0.23538 0.63927
 C1857 C 1.01931 0.22502 0.11774
 C1858 C 0.99950 0.21651 0.13151
 H1859 H 1.03076 0.24014 0.12571
 H1860 H 0.98734 0.20183 0.12395
 C1861 C 0.61118 0.20431 0.73584
 C1862 C 0.59961 0.22624 0.73008
 H1863 H 0.60167 0.19088 0.74876
 H1864 H 0.60831 0.24023 0.71735
 C1865 C 1.09814 0.21157 0.21988
 C1866 C 1.08241 0.22767 0.20773
 H1867 H 1.09171 0.20215 0.23764
 H1868 H 1.08794 0.23703 0.18973
 C1869 C 0.13583 0.71187 0.52248
 C1870 C 0.15228 0.72650 0.53528
 H1871 H 0.14074 0.70514 0.50332
 H1872 H 0.14824 0.73299 0.55469
 C1873 C 0.11606 0.22839 1.01493
 C1874 C 0.12992 0.24538 1.02796
 H1875 H 0.12391 0.22006 0.99762
 H1876 H 0.12305 0.25349 1.04572
 C1877 C 0.63620 0.53730 0.22082
 C1878 C 0.64814 0.54542 0.24216
 H1879 H 0.64492 0.52262 0.20949
 H1880 H 0.63983 0.55954 0.25437
 C1881 C 0.63318 1.03428 0.71972
 C1882 C 0.64513 1.01264 0.71421
 H1883 H 0.64177 1.04687 0.73371
 H1884 H 0.63698 0.99936 0.70077
 C1885 C 0.86366 0.46518 0.28591
 C1886 C 0.84900 0.47855 0.30168
 H1887 H 0.85626 0.45926 0.26721
 H1888 H 0.85557 0.48418 0.32072
 C1889 C 0.86470 0.95377 0.77720
 C1890 C 0.84843 0.96814 0.79023
 H1891 H 0.85810 0.94476 0.75958
 H1892 H 0.85410 0.97735 0.80796
 C1893 C 0.37826 0.28374 0.77652
 C1894 C 0.38835 0.26091 0.78182
 H1895 H 0.38783 0.29605 0.76252
 H1896 H 0.37942 0.24802 0.79560
 C1897 C 0.86716 0.27458 0.29002
 C1898 C 0.87581 0.27658 0.26563
 H1899 H 0.87740 0.26299 0.30415
 H1900 H 0.86548 0.28771 0.25124
 C1901 C 0.36601 0.79468 0.46081
 C1902 C 0.34922 0.77954 0.44887
 H1903 H 0.36074 0.80297 0.47917
 H1904 H 0.35349 0.77115 0.43040
 C1905 C 0.35242 0.28866 0.96221
 C1906 C 0.34095 0.29432 0.98467
 H1907 H 0.34242 0.27687 0.94844
 H1908 H 0.35042 0.30572 0.99904
 C1909 C 0.78855 0.47800 0.39293
 C1910 C 0.76737 0.47201 0.37973
 H1911 H 0.80097 0.49223 0.38430
 H1912 H 0.75444 0.45790 0.38753
 C1913 C 0.78589 0.96694 0.87543
 C1914 C 0.76478 0.95915 0.86338
 H1915 H 0.79648 0.98236 0.86636
 H1916 H 0.75367 0.94369 0.87147
 C1917 C 0.27245 0.77376 0.36551
 C1918 C 0.25512 0.78299 0.38173
 H1919 H 0.28439 0.75838 0.37236
 H1920 H 0.24225 0.79769 0.37547
 C1921 C 0.28731 0.28794 0.88826
 C1922 C 0.26525 0.29499 0.89875
 H1923 H 0.29946 0.27489 0.89894
 H1924 H 0.25242 0.30720 0.88799
 C1925 C 0.45894 0.28835 0.86676
 C1926 C 0.45355 0.26633 0.85530
 H1927 H 0.47283 0.30085 0.85772
 H1928 H 0.44034 0.25309 0.86417
 C1929 C 0.95155 0.29721 0.35172
 C1930 C 0.94695 0.27454 0.34174
 H1931 H 0.96343 0.31055 0.34098
 H1932 H 0.93565 0.26077 0.35249
 C1933 C 0.46822 0.35710 0.78771
 C1934 C 0.45472 0.34139 0.77280
 H1935 H 0.48591 0.35046 0.79611
 H1936 H 0.43694 0.34710 0.76404
 C1937 C 0.95662 0.36090 0.28338
 C1938 C 0.94648 0.34884 0.26276
 H1939 H 0.97184 0.35180 0.29419
 H1940 H 0.93131 0.35702 0.25131
 C1941 C 0.29478 0.86942 0.46567
 C1942 C 0.27228 0.85859 0.46077
 H1943 H 0.30807 0.85923 0.47811
 H1944 H 0.25837 0.86804 0.44860
 C1945 C 0.28938 0.38205 0.98077
 C1946 C 0.26580 0.37316 0.97750
 H1947 H 0.30255 0.37137 0.99289
 H1948 H 0.25225 0.38374 0.96586
 C1949 C 0.78318 0.38829 0.29022
 C1950 C 0.76241 0.40122 0.29695
 H1951 H 0.79713 0.39748 0.27776
 H1952 H 0.74776 0.39242 0.30868
   
