data_POSCAR
  _audit_creation_date              2014-09-24
  _audit_creation_method            'ToBaCCo'
  _symmetry_space_group_name_H-M    'P1'
  _symmetry_Int_Tables_number       1
  _symmetry_cell_setting            triclinic
  loop_
  _symmetry_equiv_pos_as_xyz
 x,y,z
_cell_length_a 51.9649
_cell_length_b 53.9072
_cell_length_c 53.6038
_cell_angle_alpha 94.079600
_cell_angle_beta 93.823800
_cell_angle_gamma 93.599800
loop_
  _atom_site_label
  _atom_site_type_symbol
  _atom_site_fract_x
  _atom_site_fract_y
  _atom_site_fract_z
C1 C 0.71850 0.66340 0.96695
 H2 H 0.72834 0.65248 0.95334
 C3 C 0.70021 0.67942 0.95869
 H4 H 0.69659 0.68078 0.93875
 C5 C 0.71208 0.67543 1.00931
 H6 H 0.71660 0.67377 1.02903
 C7 C 0.69357 0.69165 1.00185
 H8 H 0.68396 0.70225 1.01597
 N9 N 0.72359 0.66114 0.99189
 C10 C 0.79351 0.63433 1.02690
 H11 H 0.78761 0.61466 1.02603
 C12 C 0.81718 0.64314 1.03907
 H13 H 0.82952 0.63009 1.04751
 C14 C 0.78418 0.67522 1.01732
 H15 H 0.77099 0.68759 1.00906
 C16 C 0.80782 0.68487 1.02931
 H17 H 0.81241 0.70478 1.03035
 Zn18 Zn 0.74543 0.63606 1.00189
 N19 N 0.77758 0.65034 1.01636
 C20 C 0.77498 0.61621 0.96414
 N21 N 0.75103 0.61499 0.97297
 C22 C 0.73100 0.60120 0.96001
 C23 C 0.73475 0.58779 0.93738
 C24 C 0.77944 0.60366 0.94134
 C25 C 0.73204 0.63119 1.05027
 C26 C 0.72049 0.62131 1.07038
 C27 C 0.70550 0.58480 1.04337
 C28 C 0.71759 0.59544 1.02368
 N29 N 0.72995 0.61857 1.02729
 H30 H 0.79059 0.62760 0.97436
 H31 H 0.71186 0.60129 0.96676
 H32 H 0.71847 0.57708 0.92731
 H33 H 0.79885 0.60501 0.93524
 H34 H 0.74263 0.64920 1.05299
 H35 H 0.72212 0.63214 1.08832
 H36 H 0.69527 0.56672 1.03958
 H37 H 0.71669 0.58527 1.00554
 C38 C 0.82467 0.66865 1.04036
 C39 C 0.68679 0.69315 0.97628
 C40 C 0.70653 0.59803 1.06714
 C41 C 0.75905 0.58942 0.92732
 C42 C 0.71035 0.35966 0.47738
 H43 H 0.72932 0.35285 0.47561
 C44 C 0.69064 0.34419 0.48569
 H45 H 0.69483 0.32558 0.49025
 C46 C 0.68282 0.39307 0.47599
 H47 H 0.68028 0.41243 0.47300
 C48 C 0.66266 0.37833 0.48441
 H49 H 0.64448 0.38638 0.48767
 N50 N 0.70627 0.38376 0.47334
 C51 C 0.78508 0.38873 0.47107
 H52 H 0.78783 0.39949 0.48893
 C53 C 0.80535 0.37550 0.46225
 H54 H 0.82364 0.37687 0.47329
 C55 C 0.75811 0.37434 0.43492
 H56 H 0.73963 0.37369 0.42440
 C57 C 0.77780 0.36091 0.42540
 H58 H 0.77430 0.35023 0.40747
 Zn59 Zn 0.73439 0.40637 0.46847
 N60 N 0.76207 0.38812 0.45727
 C61 C 0.76474 0.44185 0.50317
 N62 N 0.74426 0.42460 0.49997
 C63 C 0.73102 0.41811 0.51984
 C64 C 0.73852 0.42837 0.54394
 C65 C 0.77308 0.45261 0.52721
 C66 C 0.70891 0.41515 0.42332
 C67 C 0.70059 0.42808 0.40305
 C68 C 0.72163 0.46577 0.42413
 C69 C 0.72968 0.45197 0.44406
 N70 N 0.72353 0.42701 0.44310
 H71 H 0.77532 0.44650 0.48724
 H72 H 0.71504 0.40423 0.51736
 H73 H 0.72786 0.42225 0.55936
 H74 H 0.78995 0.46555 0.52913
 H75 H 0.70334 0.39551 0.42338
 H76 H 0.68854 0.41774 0.38818
 H77 H 0.72687 0.48562 0.42519
 H78 H 0.74093 0.46119 0.46011
 C79 C 0.80176 0.36132 0.43907
 C80 C 0.66663 0.35378 0.48994
 C81 C 0.70724 0.45382 0.40296
 C82 C 0.76010 0.44547 0.54815
 C83 C 0.23351 -0.12900 0.00546
 H84 H 0.25238 -0.12718 0.01549
 C85 C 0.21423 -0.14547 0.01298
 H86 H 0.21897 -0.15669 0.02833
 C87 C 0.20486 -0.11618 -0.02665
 H88 H 0.20110 -0.10434 -0.04172
 C89 C 0.18499 -0.13236 -0.01972
 H90 H 0.16611 -0.13294 -0.02970
 N91 N 0.22849 -0.11463 -0.01389
 C92 C 0.30129 -0.08963 -0.04286
 H93 H 0.29859 -0.06993 -0.04330
 C94 C 0.32286 -0.09951 -0.05296
 H95 H 0.33682 -0.08731 -0.06112
 C96 C 0.28593 -0.12965 -0.03244
 H97 H 0.27123 -0.14145 -0.02499
 C98 C 0.30736 -0.14026 -0.04209
 H99 H 0.30869 -0.16021 -0.04207
 Zn100 Zn 0.25422 -0.08997 -0.02042
 N101 N 0.28343 -0.10470 -0.03275
 C102 C 0.28860 -0.06396 0.01755
 N103 N 0.26348 -0.07092 0.01023
 C104 C 0.24436 -0.06688 0.02583
 C105 C 0.25028 -0.05651 0.05029
 C106 C 0.29538 -0.05299 0.04169
 C107 C 0.23779 -0.07974 -0.06891
 C108 C 0.22755 -0.06600 -0.08786
 C109 C 0.22401 -0.03185 -0.05679
 C110 C 0.23453 -0.04622 -0.03850
 N111 N 0.24089 -0.06978 -0.04483
 H112 H 0.30356 -0.06764 0.00503
 H113 H 0.22453 -0.07274 0.01961
 H114 H 0.23479 -0.05436 0.06267
 H115 H 0.31566 -0.04866 0.04706
 H116 H 0.24312 -0.09854 -0.07336
 H117 H 0.22526 -0.07494 -0.10659
 H118 H 0.21877 -0.01322 -0.05123
 H119 H 0.23730 -0.03867 -0.01921
 C120 C 0.32621 -0.12506 -0.05242
 C121 C 0.18933 -0.14683 0.00070
 C122 C 0.22020 -0.04163 -0.08193
 C123 C 0.27610 -0.04970 0.05873
 C124 C 0.22166 0.16878 0.49386
 H125 H 0.24087 0.17606 0.50067
 C126 C 0.20383 0.18498 0.48498
 H127 H 0.20954 0.20465 0.48484
 C128 C 0.19074 0.13445 0.48564
 H129 H 0.18598 0.11462 0.48567
 C130 C 0.17228 0.14999 0.47675
 H131 H 0.15346 0.14177 0.46963
 N132 N 0.21499 0.14394 0.49357
 C133 C 0.28174 0.13580 0.53861
 H134 H 0.27142 0.12530 0.55166
 C135 C 0.30622 0.14711 0.54608
 H136 H 0.31395 0.14571 0.56512
 C137 C 0.28411 0.15018 0.49801
 H138 H 0.27546 0.15094 0.47918
 C139 C 0.30855 0.16186 0.50472
 H140 H 0.31861 0.17175 0.49097
 Zn141 Zn 0.23897 0.12099 0.50358
 N142 N 0.27117 0.13762 0.51495
 C143 C 0.26217 0.08137 0.47947
 N144 N 0.24536 0.09928 0.47578
 C145 C 0.23561 0.10338 0.45237
 C146 C 0.24305 0.08944 0.43143
 C147 C 0.26986 0.06674 0.45913
 C148 C 0.21914 0.11771 0.55006
 C149 C 0.20954 0.10659 0.57054
 C150 C 0.21111 0.06636 0.54797
 C151 C 0.22079 0.07834 0.52791
 N152 N 0.22506 0.10355 0.52953
 H153 H 0.27011 0.07888 0.49823
 H154 H 0.22270 0.11807 0.44975
 H155 H 0.23483 0.09334 0.41320
 H156 H 0.28354 0.05279 0.46256
 H157 H 0.22216 0.13779 0.55056
 H158 H 0.20496 0.11883 0.58619
 H159 H 0.20811 0.04622 0.54635
 H160 H 0.22490 0.06742 0.51114
 C161 C 0.32004 0.16015 0.52889
 C162 C 0.17882 0.17564 0.47625
 C163 C 0.20574 0.08038 0.56995
 C164 C 0.26089 0.07106 0.43459
 C165 C 0.17064 0.50650 0.21144
 H166 H 0.16985 0.52606 0.21725
 C167 C 0.18583 0.49923 0.19198
 H168 H 0.19682 0.51333 0.18294
 C169 C 0.15663 0.46445 0.21564
 H170 H 0.14498 0.45090 0.22462
 C171 C 0.17164 0.45636 0.19641
 H172 H 0.17177 0.43656 0.19159
 N173 N 0.15632 0.48915 0.22275
 C174 C 0.13904 0.51917 0.29692
 H175 H 0.11828 0.51540 0.29528
 C176 C 0.15143 0.52877 0.31976
 H177 H 0.13986 0.53281 0.33541
 C178 C 0.17903 0.51880 0.27810
 H179 H 0.18970 0.51460 0.26189
 C180 C 0.19222 0.52856 0.30062
 H181 H 0.21303 0.53197 0.30154
 Zn182 Zn 0.13395 0.50004 0.24726
 N183 N 0.15288 0.51440 0.27669
 C184 C 0.08742 0.46999 0.25156
 N185 N 0.11342 0.47254 0.25686
 C186 C 0.12577 0.45601 0.27054
 C187 C 0.11199 0.43581 0.27943
 C188 C 0.07282 0.45002 0.26004
 C189 C 0.11205 0.54691 0.24499
 C190 C 0.09866 0.56520 0.23348
 C191 C 0.08771 0.53579 0.19765
 C192 C 0.10108 0.51800 0.21000
 N193 N 0.11313 0.52388 0.23313
 H194 H 0.07791 0.48357 0.24099
 H195 H 0.14645 0.45874 0.27481
 H196 H 0.12274 0.42354 0.29055
 H197 H 0.05209 0.44846 0.25569
 H198 H 0.12219 0.55145 0.26314
 H199 H 0.09907 0.58343 0.24330
 H200 H 0.07881 0.53080 0.17896
 H201 H 0.10252 0.49966 0.20082
 C202 C 0.17843 0.53331 0.32188
 C203 C 0.18611 0.47391 0.18390
 C204 C 0.08650 0.55991 0.20920
 C205 C 0.08497 0.43252 0.27427
 C206 C -0.13257 0.01505 0.24630
 H207 H -0.12966 0.02391 0.26512
 C208 C -0.15018 0.02412 0.22899
 H209 H -0.16087 0.03986 0.23495
 C210 C -0.12111 -0.01547 0.21583
 H211 H -0.10921 -0.03045 0.21060
 C212 C -0.13854 -0.00705 0.19784
 H213 H -0.13937 -0.01619 0.17920
 N214 N -0.11839 -0.00431 0.23948
 C215 C -0.09089 -0.03715 0.30739
 H216 H -0.07041 -0.03679 0.30477
 C217 C -0.10074 -0.04894 0.32742
 H218 H -0.08773 -0.05759 0.34028
 C219 C -0.13290 -0.02716 0.29322
 H220 H -0.14547 -0.01925 0.27950
 C221 C -0.14354 -0.03853 0.31315
 H222 H -0.16427 -0.03932 0.31433
 Zn223 Zn -0.09225 -0.01279 0.26307
 N224 N -0.10697 -0.02655 0.29080
 C225 C -0.06693 0.02464 0.29807
 N226 N -0.07221 0.01717 0.27340
 C227 C -0.06632 0.03243 0.25518
 C228 C -0.05580 0.05670 0.26150
 C229 C -0.05588 0.04861 0.30526
 C230 C -0.08319 -0.06028 0.24280
 C231 C -0.06910 -0.07932 0.23272
 C232 C -0.03184 -0.04996 0.23423
 C233 C -0.04667 -0.03150 0.24436
 N234 N -0.07188 -0.03695 0.24835
 H235 H -0.07222 0.01242 0.31228
 H236 H -0.07103 0.02613 0.23571
 H237 H -0.05225 0.06882 0.24664
 H238 H -0.05301 0.05413 0.32507
 H239 H -0.10327 -0.06408 0.24630
 H240 H -0.07914 -0.09740 0.22831
 H241 H -0.01179 -0.04515 0.23118
 H242 H -0.03801 -0.01287 0.24912
 C243 C -0.12733 -0.04962 0.33055
 C244 C -0.15327 0.01337 0.20416
 C245 C -0.04286 -0.07439 0.22837
 C246 C -0.05079 0.06533 0.28682
 C247 C 0.36930 0.48515 0.73979
 H248 H 0.36027 0.47962 0.75624
 C249 C 0.35414 0.49407 0.72025
 H250 H 0.33375 0.49581 0.72229
 C251 C 0.40670 0.49002 0.71722
 H252 H 0.42702 0.48773 0.71573
 C253 C 0.39240 0.49929 0.69746
 H254 H 0.40203 0.50473 0.68118
 N255 N 0.39528 0.48409 0.73831
 C256 C 0.40091 0.43947 0.79820
 H257 H 0.41459 0.42813 0.78929
 C258 C 0.38655 0.42973 0.81674
 H259 H 0.38920 0.41087 0.82169
 C260 C 0.38096 0.47767 0.80285
 H261 H 0.37890 0.49640 0.79732
 C262 C 0.36622 0.46867 0.82159
 H263 H 0.35256 0.48053 0.82989
 Zn264 Zn 0.41743 0.47505 0.76545
 N265 N 0.39774 0.46298 0.79138
 C266 C 0.43795 0.51316 0.80218
 N267 N 0.43915 0.50373 0.77810
 C268 C 0.45429 0.51557 0.76227
 C269 C 0.46715 0.53868 0.76975
 C270 C 0.45053 0.53623 0.81052
 C271 C 0.42391 0.42978 0.73936
 C272 C 0.43684 0.40981 0.72955
 C273 C 0.47714 0.43077 0.74715
 C274 C 0.46335 0.45031 0.75674
 N275 N 0.43720 0.44939 0.75277
 H276 H 0.42666 0.50318 0.81489
 H277 H 0.45601 0.50746 0.74355
 H278 H 0.47829 0.54807 0.75638
 H279 H 0.44839 0.54304 0.82963
 H280 H 0.40311 0.42969 0.73635
 H281 H 0.42538 0.39493 0.71868
 H282 H 0.49799 0.43189 0.75055
 H283 H 0.47351 0.46611 0.76748
 C284 C 0.36896 0.44432 0.82871
 C285 C 0.36589 0.50176 0.69899
 C286 C 0.46397 0.40996 0.73350
 C287 C 0.46466 0.54991 0.79387
 C288 C 0.69118 0.97626 0.71962
 H289 H 0.69982 0.98522 0.73712
 C290 C 0.70696 0.96633 0.70179
 H291 H 0.72775 0.96785 0.70563
 C292 C 0.65369 0.96323 0.69318
 H293 H 0.63286 0.96233 0.68992
 C294 C 0.66865 0.95305 0.67495
 H295 H 0.65902 0.94480 0.65754
 N296 N 0.66506 0.97478 0.71486
 C297 C 0.65180 0.99254 0.78996
 H298 H 0.63686 0.97765 0.78963
 C299 C 0.66259 1.00340 0.81300
 H300 H 0.65546 0.99587 0.82951
 C301 C 0.67726 1.02053 0.76820
 H302 H 0.68241 1.02743 0.75061
 C303 C 0.68872 1.03193 0.79083
 H304 H 0.70294 1.04744 0.79022
 Zn305 Zn 0.64198 0.98802 0.73735
 N306 N 0.65925 1.00113 0.76817
 C307 C 0.62850 0.94090 0.75168
 N308 N 0.61808 0.96140 0.74300
 C309 C 0.59213 0.96213 0.73833
 C310 C 0.57551 0.94191 0.74324
 C311 C 0.61269 0.92032 0.75689
 C312 C 0.63356 1.02275 0.70135
 C313 C 0.62418 1.04414 0.69193
 C314 C 0.59784 1.04831 0.72724
 C315 C 0.60795 1.02688 0.73611
 N316 N 0.62559 1.01467 0.72318
 H317 H 0.64926 0.94075 0.75494
 H318 H 0.58424 0.97839 0.73091
 H319 H 0.55486 0.94307 0.73972
 H320 H 0.62204 0.90488 0.76439
 H321 H 0.64785 1.01308 0.69147
 H322 H 0.63092 1.04952 0.67434
 H323 H 0.58412 1.05796 0.73807
 H324 H 0.60222 1.02031 0.75366
 C325 C 0.68141 1.02364 0.81386
 C326 C 0.69570 0.95442 0.67918
 C327 C 0.60651 1.05775 0.70525
 C328 C 0.58560 0.92061 0.75288
 C329 C -0.00137 0.24944 -0.13983
 H330 H 0.00602 0.26873 -0.13867
 C331 C 0.01132 0.23132 -0.15316
 H332 H 0.02849 0.23681 -0.16238
 C333 C -0.03223 0.21879 -0.12843
 H334 H -0.04875 0.21388 -0.11816
 C335 C -0.02011 0.20004 -0.14155
 H336 H -0.02759 0.18094 -0.14100
 N337 N -0.02282 0.24296 -0.12795
 C338 C -0.06055 0.31272 -0.11904
 H339 H -0.06209 0.31441 -0.09897
 C340 C -0.06952 0.33118 -0.13376
 H341 H -0.07824 0.34690 -0.12484
 C342 C -0.04820 0.28956 -0.15503
 H343 H -0.04025 0.27316 -0.16333
 C344 C -0.05725 0.30740 -0.17048
 H345 H -0.05593 0.30469 -0.19056
 Zn346 Zn -0.03732 0.26856 -0.10867
 N347 N -0.04959 0.29271 -0.12975
 C348 C -0.00190 0.30717 -0.08622
 N349 N -0.01018 0.28282 -0.08560
 C350 C 0.00328 0.26728 -0.07160
 C351 C 0.02672 0.27580 -0.05850
 C352 C 0.02125 0.31654 -0.07326
 C353 C -0.08639 0.24584 -0.10841
 C354 C -0.10810 0.23451 -0.09891
 C355 C -0.08775 0.24336 -0.05709
 C356 C -0.06625 0.25443 -0.06752
 N357 N -0.06586 0.25511 -0.09279
 H358 H -0.01241 0.31916 -0.09788
 H359 H -0.00345 0.24786 -0.07177
 H360 H 0.03760 0.26274 -0.04835
 H361 H 0.02713 0.33580 -0.07517
 H362 H -0.08563 0.24686 -0.12844
 H363 H -0.12395 0.22689 -0.11193
 H364 H -0.08703 0.24288 -0.03697
 H365 H -0.04979 0.26221 -0.05544
 C366 C -0.06760 0.32873 -0.15983
 C367 C 0.00198 0.20627 -0.15420
 C368 C -0.10908 0.23282 -0.07294
 C369 C 0.03658 0.30056 -0.05979
 C370 C 0.47204 0.21744 0.16020
 H371 H 0.47651 0.23704 0.16550
 C372 C 0.46153 0.20198 0.17735
 H373 H 0.45802 0.20977 0.19590
 C374 C 0.47077 0.18339 0.12950
 H375 H 0.47426 0.17640 0.11069
 C376 C 0.46045 0.16730 0.14605
 H377 H 0.45564 0.14799 0.13958
 N378 N 0.47645 0.20789 0.13682
 C379 C 0.49312 0.28045 0.12249
 H380 H 0.47673 0.27945 0.10891
 C381 C 0.50322 0.30374 0.13303
 H382 H 0.49461 0.32007 0.12661
 C383 C 0.52415 0.26025 0.14660
 H384 H 0.53227 0.24328 0.15188
 C385 C 0.53475 0.28315 0.15777
 H386 H 0.55105 0.28352 0.17152
 Zn387 Zn 0.49085 0.22792 0.11304
 N388 N 0.50386 0.25927 0.12907
 C389 C 0.46969 0.24708 0.06843
 N390 N 0.46441 0.23314 0.08787
 C391 C 0.43968 0.22522 0.09158
 C392 C 0.41901 0.23235 0.07632
 C393 C 0.44959 0.25456 0.05260
 C394 C 0.53368 0.20033 0.11776
 C395 C 0.55503 0.18769 0.11112
 C396 C 0.54568 0.19679 0.06814
 C397 C 0.52420 0.20918 0.07566
 N398 N 0.51884 0.21102 0.10022
 H399 H 0.48939 0.25372 0.06611
 H400 H 0.43571 0.21426 0.10715
 H401 H 0.39977 0.22579 0.08029
 H402 H 0.45430 0.26646 0.03785
 H403 H 0.52877 0.20142 0.13706
 H404 H 0.56641 0.17942 0.12564
 H405 H 0.54928 0.19565 0.04849
 H406 H 0.51194 0.21728 0.06183
 C407 C 0.52440 0.30533 0.15098
 C408 C 0.45596 0.17653 0.17045
 C409 C 0.56161 0.18591 0.08612
 C410 C 0.42371 0.24805 0.05697
 C411 C 0.97351 0.72276 0.66170
 H412 H 0.96026 0.73473 0.65289
 C413 C 0.96425 0.70508 0.67730
 H414 H 0.94393 0.70405 0.68061
 C415 C 1.01616 0.71022 0.66843
 H416 H 1.03633 0.71217 0.66456
 C417 C 1.00772 0.69222 0.68410
 H418 H 1.02152 0.68035 0.69232
 N419 N 0.99896 0.72462 0.65716
 C420 C 1.03730 0.79310 0.63480
 H421 H 1.03558 0.78981 0.61459
 C422 C 1.04820 0.81590 0.64580
 H423 H 1.05530 0.82983 0.63391
 C424 C 1.02997 0.77886 0.67471
 H425 H 1.02251 0.76449 0.68587
 C426 C 1.04107 0.80134 0.68653
 H427 H 1.04217 0.80412 0.70680
 Zn428 Zn 1.01057 0.74580 0.63303
 N429 N 1.02797 0.77531 0.64925
 C430 C 0.97618 0.77886 0.61219
 N431 N 0.98137 0.75446 0.61260
 C432 C 0.96545 0.73634 0.59950
 C433 C 0.94364 0.74251 0.58504
 C434 C 0.95510 0.78589 0.59756
 C435 C 1.05838 0.73751 0.61173
 C436 C 1.07620 0.72343 0.59966
 C437 C 1.04319 0.68974 0.59167
 C438 C 1.02596 0.70458 0.60370
 N439 N 1.03376 0.72800 0.61356
 H440 H 0.98812 0.79308 0.62341
 H441 H 0.96939 0.71700 0.60050
 H442 H 0.93167 0.72763 0.57464
 H443 H 0.95172 0.80553 0.59741
 H444 H 1.06471 0.75571 0.62040
 H445 H 1.09570 0.73156 0.59946
 H446 H 1.03662 0.67092 0.58456
 H447 H 1.00667 0.69693 0.60614
 C448 C 1.04969 0.82038 0.67198
 C449 C 0.98135 0.68895 0.68808
 C450 C 1.06882 0.69893 0.58965
 C451 C 0.93834 0.76772 0.58381
 C452 C 0.50411 0.73301 0.35823
 H453 H 0.51207 0.75210 0.36121
 C454 C 0.51526 0.71623 0.34190
 H455 H 0.53186 0.72255 0.33226
 C456 C 0.47314 0.70152 0.36771
 H457 H 0.45704 0.69580 0.37821
 C458 C 0.48374 0.68407 0.35154
 H459 H 0.47566 0.66501 0.35010
 N460 N 0.48333 0.72549 0.37057
 C461 C 0.44729 0.79471 0.38765
 H462 H 0.44708 0.79505 0.40784
 C463 C 0.43800 0.81447 0.37502
 H464 H 0.43044 0.82948 0.38612
 C465 C 0.45657 0.77366 0.34937
 H466 H 0.46349 0.75760 0.33938
 C467 C 0.44702 0.79272 0.33590
 H468 H 0.44711 0.79103 0.31563
 Zn469 Zn 0.47057 0.74950 0.39301
 N470 N 0.45710 0.77524 0.37482
 C471 C 0.50711 0.78668 0.41625
 N472 N 0.49921 0.76209 0.41515
 C473 C 0.51378 0.74555 0.42663
 C474 C 0.53791 0.75336 0.43875
 C475 C 0.53090 0.79535 0.42832
 C476 C 0.42099 0.72873 0.39531
 C477 C 0.39950 0.71793 0.40564
 C478 C 0.42410 0.72007 0.44570
 C479 C 0.44515 0.73110 0.43455
 N480 N 0.44325 0.73494 0.40973
 H481 H 0.49568 0.79956 0.40665
 H482 H 0.50730 0.72599 0.42514
 H483 H 0.54963 0.73960 0.44679
 H484 H 0.53622 0.81497 0.42807
 H485 H 0.42000 0.73216 0.37564
 H486 H 0.38206 0.71309 0.39359
 H487 H 0.42654 0.71719 0.46541
 H488 H 0.46300 0.73644 0.44570
 C489 C 0.43815 0.81392 0.34862
 C490 C 0.50503 0.69146 0.33826
 C491 C 0.40073 0.71322 0.43113
 C492 C 0.54734 0.77844 0.43898
 C493 C 0.38712 -0.02273 0.27297
 C494 C 0.37198 -0.02866 0.24762
 C495 C 0.35889 -0.00821 0.23892
 C496 C 0.36275 0.01526 0.25702
 C497 C 0.40514 0.00001 0.26947
 C498 C 0.39229 0.02048 0.26069
 C499 C 0.36762 -0.01331 0.29064
 C500 C 0.35423 0.00700 0.28218
 H501 H 0.37343 -0.04598 0.23647
 H502 H 0.35183 0.03078 0.25031
 H503 H 0.42601 -0.00006 0.27178
 H504 H 0.36563 -0.02086 0.30861
 C505 C 0.07767 1.04790 0.75763
 C506 C 0.09298 1.05910 0.73748
 C507 C 0.11084 1.04324 0.72722
 C508 C 0.11113 1.01801 0.73898
 C509 C 0.06509 1.02332 0.74526
 C510 C 0.08296 1.00696 0.73554
 C511 C 0.09786 1.04051 0.77719
 C512 C 0.11599 1.02451 0.76728
 H513 H 0.09007 1.07745 0.73117
 H514 H 0.12560 1.00587 0.73155
 H515 H 0.04450 1.01844 0.74466
 H516 H 0.09694 1.04572 0.79695
 C517 C 0.56728 0.53528 0.23546
 C518 C 0.58145 0.54302 0.21299
 C519 C 0.59805 0.52504 0.20374
 C520 C 0.59773 0.50157 0.21840
 C521 C 0.55292 0.51037 0.22670
 C522 C 0.56905 0.49208 0.21749
 C523 C 0.58822 0.52911 0.25484
 C524 C 0.60474 0.51101 0.24586
 H525 H 0.57830 0.56047 0.20494
 H526 H 0.61104 0.48786 0.21135
 H527 H 0.53221 0.50696 0.22729
 H528 H 0.58881 0.53677 0.27408
 C529 C 0.87524 0.49149 0.75966
 C530 C 0.86115 0.48380 0.73416
 C531 C 0.84573 0.50238 0.72471
 C532 C 0.84669 0.52611 0.74243
 C533 C 0.89083 0.51585 0.75598
 C534 C 0.87545 0.53450 0.74652
 C535 C 0.85429 0.49886 0.77674
 C536 C 0.83904 0.51771 0.76780
 H537 H 0.86478 0.46669 0.72360
 H538 H 0.83451 0.54066 0.73521
 H539 H 0.91166 0.51790 0.75902
 H540 H 0.85349 0.49230 0.79530
 C541 C 0.26639 0.38811 -0.01996
 C542 C 0.23953 0.37725 -0.02982
 C543 C 0.22779 0.36059 -0.01385
 C544 C 0.24519 0.35693 0.00972
 C545 C 0.26277 0.40010 0.00617
 C546 C 0.25112 0.38338 0.02220
 C547 C 0.28211 0.36579 -0.01551
 C548 C 0.27097 0.34888 0.00047
 H549 H 0.23020 0.38328 -0.04673
 H550 H 0.23629 0.34373 0.02222
 H551 H 0.26711 0.41978 0.01109
 H552 H 0.30114 0.36457 -0.02232
 C553 C 0.76042 0.07831 1.04220
 C554 C 0.73579 0.09095 1.04773
 C555 C 0.72720 0.10640 1.02881
 C556 C 0.74488 0.10700 1.00693
 C557 C 0.75445 0.06433 1.01657
 C558 C 0.74598 0.07944 0.99751
 C559 C 0.78019 0.09931 1.03796
 C560 C 0.77223 0.11479 1.01904
 H561 H 0.72618 0.08807 1.06464
 H562 H 0.73793 0.11911 0.99252
 H563 H 0.75568 0.04438 1.01334
 H564 H 0.79903 0.10180 1.04812
 C565 C 0.25897 0.57334 0.55439
 C566 C 0.23671 0.58919 0.56056
 C567 C 0.22972 0.60514 0.54160
 C568 C 0.24640 0.60298 0.51901
 C569 C 0.25033 0.55937 0.52916
 C570 C 0.24365 0.57511 0.50997
 C571 C 0.28100 0.59175 0.54894
 C572 C 0.27458 0.60761 0.52990
 H573 H 0.22783 0.58852 0.57819
 H574 H 0.24053 0.61576 0.50481
 H575 H 0.24924 0.53923 0.52616
 H576 H 0.30025 0.59200 0.55814
 C577 C 0.77487 0.87107 0.47418
 C578 C 0.74909 0.85803 0.46402
 C579 C 0.73845 0.84090 0.48020
 C580 C 0.75589 0.83892 0.50416
 C581 C 0.76990 0.88297 0.50000
 C582 C 0.75959 0.86568 0.51624
 C583 C 0.79251 0.85029 0.47941
 C584 C 0.78254 0.83287 0.49558
 H585 H 0.73941 0.86317 0.44689
 H586 H 0.74790 0.82530 0.51677
 H587 H 0.77293 0.90281 0.50473
 H588 H 0.81189 0.85075 0.47323
 C589 C -0.02686 0.27590 0.39958
 C590 C -0.03280 0.25250 0.38187
 C591 C -0.01080 0.24407 0.37025
 C592 C 0.01391 0.26074 0.37765
 C593 C -0.00508 0.26943 0.41800
 C594 C 0.01690 0.26119 0.40643
 C595 C -0.01456 0.29521 0.38386
 C596 C 0.00730 0.28717 0.37179
 H597 H -0.05135 0.24203 0.38072
 H598 H 0.03065 0.25437 0.36779
 H599 H -0.00672 0.26987 0.43807
 H600 H -0.02175 0.31352 0.38301
 C601 C 1.05579 0.75582 0.10493
 C602 C 1.06043 0.73283 0.11906
 C603 C 1.03951 0.72504 0.13303
 C604 C 1.01684 0.74192 0.13108
 C605 C 1.03059 0.74925 0.08889
 C606 C 1.00946 0.74186 0.10273
 C607 C 1.04951 0.77570 0.12485
 C608 C 1.02824 0.76856 0.13874
 H609 H 1.07862 0.72415 0.11912
 H610 H 1.00101 0.73615 0.14271
 H611 H 1.02894 0.75032 0.06874
 H612 H 1.05970 0.79389 0.12682
 C613 C 0.54805 0.24411 0.59327
 C614 C 0.56137 0.22501 0.60819
 C615 C 0.54657 0.21561 0.62725
 C616 C 0.52037 0.22712 0.62866
 C617 C 0.52212 0.23119 0.58324
 C618 C 0.50697 0.22211 0.60223
 C619 C 0.54139 0.26441 0.61258
 C620 C 0.52657 0.25543 0.63179
 H621 H 0.57953 0.21818 0.60301
 H622 H 0.50873 0.21995 0.64361
 H623 H 0.51606 0.22985 0.56350
 H624 H 0.54586 0.28392 0.61026
 C625 C 0.47972 0.77393 0.88507
 C626 C 0.46830 0.74900 0.87270
 C627 C 0.48527 0.73631 0.85751
 C628 C 0.51131 0.75117 0.85595
 C629 C 0.50508 0.76814 0.89899
 C630 C 0.52215 0.75586 0.88328
 C631 C 0.48785 0.78900 0.86363
 C632 C 0.50481 0.77694 0.84781
 H633 H 0.44982 0.74062 0.87717
 H634 H 0.52482 0.74209 0.84362
 H635 H 0.50894 0.77224 0.91897
 H636 H 0.48294 0.80810 0.86250
 C637 C 0.43010 -0.16745 0.33504
 C638 C 0.42388 -0.14404 0.34505
 C639 C 0.41523 -0.12466 0.32889
 C640 C 0.42234 -0.09955 0.33622
 C641 C 0.41410 -0.08079 0.32151
 C642 C 0.39825 -0.08685 0.29934
 C643 C 0.39072 -0.11193 0.29227
 C644 C 0.39929 -0.13073 0.30679
 C645 C 0.38776 -0.06734 0.28442
 C646 C 0.40081 -0.04414 0.28292
 H647 H 0.42755 -0.13856 0.36481
 H648 H 0.43431 -0.09446 0.35337
 H649 H 0.41951 -0.06157 0.32795
 H650 H 0.37811 -0.11696 0.27552
 H651 H 0.39289 -0.14991 0.30105
 H652 H 0.36884 -0.07118 0.27466
 H653 H 0.42947 -0.17025 0.31476
 H654 H 0.42009 -0.04041 0.29190
 C655 C 0.92296 0.34752 0.82364
 C656 C 0.92285 0.37275 0.83159
 C657 C 0.91279 0.39158 0.81539
 C658 C 0.92178 0.41665 0.82038
 C659 C 0.91183 0.43508 0.80616
 C660 C 0.89246 0.42875 0.78676
 C661 C 0.88337 0.40370 0.78188
 C662 C 0.89346 0.38526 0.79596
 C663 C 0.87984 0.44783 0.77266
 C664 C 0.89109 0.47166 0.77012
 H665 H 0.93157 0.37921 0.85001
 H666 H 0.93639 0.42201 0.83550
 H667 H 0.91875 0.45427 0.81103
 H668 H 0.86814 0.39842 0.76732
 H669 H 0.88548 0.36625 0.79206
 H670 H 0.86049 0.44305 0.76416
 H671 H 0.91749 0.34151 0.80421
 H672 H 0.91069 0.47676 0.77764
 C673 C 0.01663 1.18728 0.83268
 C674 C 0.00676 1.16292 0.82548
 C675 C 0.02253 1.14394 0.81385
 C676 C 0.01018 1.12378 0.79871
 C677 C 0.02459 1.10553 0.78750
 C678 C 0.05169 1.10698 0.79157
 C679 C 0.06395 1.12700 0.80696
 C680 C 0.04958 1.14519 0.81812
 C681 C 0.06806 1.08857 0.77989
 C682 C 0.05902 1.06529 0.76845
 H683 H -0.01345 1.15776 0.82727
 H684 H -0.01066 1.12233 0.79526
 H685 H 0.01437 1.09067 0.77546
 H686 H 0.08478 1.12850 0.81052
 H687 H 0.05977 1.15993 0.83037
 H688 H 0.08872 1.09330 0.78086
 H689 H 0.03588 1.19308 0.82787
 H690 H 0.03880 1.05907 0.76803
 C691 C 0.51791 0.67387 0.32154
 C692 C 0.50673 0.65063 0.31187
 C693 C 0.52070 0.63272 0.29651
 C694 C 0.50646 0.61392 0.28099
 C695 C 0.51904 0.59628 0.26676
 C696 C 0.54620 0.59700 0.26803
 C697 C 0.56041 0.61589 0.28337
 C698 C 0.54787 0.63343 0.29765
 C699 C 0.56051 0.57842 0.25397
 C700 C 0.55017 0.55454 0.24562
 H701 H 0.48673 0.64561 0.31475
 H702 H 0.48552 0.61294 0.27981
 H703 H 0.50741 0.58234 0.25470
 H704 H 0.58135 0.61677 0.28476
 H705 H 0.55961 0.64707 0.30995
 H706 H 0.58088 0.58287 0.25199
 H707 H 0.53676 0.68002 0.31599
 H708 H 0.53045 0.54876 0.24890
 C709 C 0.53670 0.32947 0.16242
 C710 C 0.52581 0.35238 0.16030
 C711 C 0.53839 0.37676 0.17066
 C712 C 0.52353 0.39762 0.17107
 C713 C 0.53438 0.42112 0.18022
 C714 C 0.56046 0.42430 0.18944
 C715 C 0.57552 0.40358 0.18854
 C716 C 0.56467 0.38005 0.17926
 C717 C 0.57270 0.44895 0.19933
 C718 C 0.55847 0.46831 0.20860
 H719 H 0.50665 0.35272 0.15126
 H720 H 0.50338 0.39578 0.16414
 H721 H 0.52231 0.43670 0.17953
 H722 H 0.59577 0.40560 0.19510
 H723 H 0.57715 0.36477 0.17860
 H724 H 0.59353 0.45118 0.20010
 H725 H 0.55481 0.32882 0.17342
 H726 H 0.53782 0.46484 0.20941
 C727 C 0.05991 0.84471 0.68436
 C728 C 0.05618 0.86702 0.67330
 C729 C 0.06522 0.89175 0.68553
 C730 C 0.05188 0.91259 0.67946
 C731 C 0.06005 0.93633 0.69038
 C732 C 0.08200 0.93968 0.70736
 C733 C 0.09574 0.91894 0.71296
 C734 C 0.08735 0.89513 0.70230
 C735 C 0.09145 0.96463 0.71878
 C736 C 0.07472 0.98315 0.72468
 H737 H 0.04452 0.86652 0.65573
 H738 H 0.03500 0.91048 0.66629
 H739 H 0.04950 0.95205 0.68511
 H740 H 0.11293 0.92115 0.72572
 H741 H 0.09850 0.87955 0.70681
 H742 H 0.11183 0.96738 0.72442
 H743 H 0.06845 0.84522 0.70339
 H744 H 0.05409 0.97851 0.72189
 C745 C 0.97233 0.66823 0.70280
 C746 C 0.94718 0.65710 0.69937
 C747 C 0.93825 0.63430 0.71110
 C748 C 0.91551 0.62104 0.70068
 C749 C 0.90637 0.59920 0.71059
 C750 C 0.91961 0.59024 0.73149
 C751 C 0.94236 0.60345 0.74198
 C752 C 0.95153 0.62539 0.73204
 C753 C 0.91065 0.56676 0.74197
 C754 C 0.88470 0.55777 0.73956
 H755 H 0.93378 0.66406 0.68566
 H756 H 0.90495 0.62737 0.68448
 H757 H 0.88927 0.58914 0.70140
 H758 H 0.95296 0.59688 0.75803
 H759 H 0.96882 0.63528 0.74100
 H760 H 0.92487 0.55682 0.75217
 H761 H 0.98668 0.65998 0.71454
 H762 H 0.87054 0.56939 0.73158
 C763 C 0.44470 0.16020 0.18854
 C764 C 0.44825 0.13470 0.18776
 C765 C 0.43550 0.11724 0.20393
 C766 C 0.44555 0.09392 0.20638
 C767 C 0.43307 0.07608 0.21985
 C768 C 0.41015 0.08120 0.23119
 C769 C 0.40012 0.10456 0.22882
 C770 C 0.41267 0.12247 0.21540
 C771 C 0.39519 0.06192 0.24362
 C772 C 0.40638 0.04146 0.25343
 H773 H 0.46150 0.12708 0.17494
 H774 H 0.46288 0.08928 0.19741
 H775 H 0.44096 0.05802 0.22046
 H776 H 0.38226 0.10881 0.23702
 H777 H 0.40390 0.13994 0.21335
 H778 H 0.37480 0.06420 0.24478
 H779 H 0.43435 0.16875 0.20339
 H780 H 0.42726 0.04136 0.25498
 C781 C 0.35334 0.43304 -0.15238
 C782 C 0.34020 0.44660 -0.13465
 C783 C 0.32458 0.43424 -0.11636
 C784 C 0.32130 0.44682 -0.09307
 C785 C 0.30727 0.43520 -0.07519
 C786 C 0.29606 0.41076 -0.08046
 C787 C 0.29869 0.39860 -0.10410
 C788 C 0.31267 0.41017 -0.12187
 C789 C 0.28182 0.39690 -0.06218
 C790 C 0.27878 0.40536 -0.03735
 H791 H 0.34269 0.46674 -0.13293
 H792 H 0.32999 0.46553 -0.08853
 H793 H 0.30550 0.44545 -0.05741
 H794 H 0.28998 0.37991 -0.10884
 H795 H 0.31388 0.40024 -0.13997
 H796 H 0.27389 0.37821 -0.06835
 H797 H 0.35321 0.41300 -0.15173
 H798 H 0.28684 0.42351 -0.02978
 C799 C 0.86231 0.93660 0.35098
 C800 C 0.83900 0.94145 0.36130
 C801 C 0.82786 0.92598 0.38014
 C802 C 0.81182 0.93662 0.39742
 C803 C 0.80060 0.92219 0.41506
 C804 C 0.80499 0.89674 0.41542
 C805 C 0.82056 0.88603 0.39777
 C806 C 0.83200 0.90048 0.38038
 C807 C 0.79302 0.88055 0.43317
 C808 C 0.78577 0.88910 0.45671
 H809 H 0.82906 0.95760 0.35619
 H810 H 0.80800 0.95614 0.39730
 H811 H 0.78808 0.93089 0.42792
 H812 H 0.82392 0.86638 0.39745
 H813 H 0.84355 0.89149 0.36678
 H814 H 0.79118 0.86064 0.42815
 H815 H 0.87392 0.92258 0.35867
 H816 H 0.78849 0.90870 0.46288
 C817 C 0.83075 0.02374 1.18745
 C818 C 0.82541 0.01517 1.16219
 C819 C 0.81105 0.02949 1.14391
 C820 C 0.79853 0.01678 1.12228
 C821 C 0.78613 0.02982 1.10387
 C822 C 0.78638 0.05600 1.10656
 C823 C 0.79851 0.06867 1.12840
 C824 C 0.81087 0.05562 1.14683
 C825 C 0.77456 0.07073 1.08704
 C826 C 0.76964 0.06177 1.06198
 H827 H 0.83124 -0.00275 1.15520
 H828 H 0.79839 -0.00334 1.11958
 H829 H 0.77634 0.01924 1.08772
 H830 H 0.79899 0.08882 1.13094
 H831 H 0.82093 0.06618 1.16287
 H832 H 0.77116 0.09001 1.09214
 H833 H 0.82135 0.04014 1.19396
 H834 H 0.77484 0.04331 1.05592
 C835 C 0.35173 0.51408 0.67908
 C836 C 0.32513 0.51048 0.67336
 C837 C 0.31195 0.52497 0.65457
 C838 C 0.29146 0.51364 0.63853
 C839 C 0.27948 0.52703 0.62009
 C840 C 0.28755 0.55212 0.61784
 C841 C 0.30728 0.56367 0.63461
 C842 C 0.31952 0.55020 0.65268
 C843 C 0.27592 0.56690 0.59843
 C844 C 0.26650 0.55668 0.57468
 H845 H 0.31403 0.49594 0.68167
 H846 H 0.28509 0.49430 0.63996
 H847 H 0.26382 0.51782 0.60785
 H848 H 0.31357 0.58307 0.63343
 H849 H 0.33478 0.55961 0.66530
 H850 H 0.27730 0.58702 0.60190
 H851 H 0.36295 0.52622 0.66798
 H852 H 0.26648 0.53679 0.57010
 C853 C 0.19247 0.54329 0.34579
 C854 C 0.18325 0.53890 0.36908
 C855 C 0.19641 0.54902 0.39335
 C856 C 0.19097 0.53719 0.41506
 C857 C 0.20214 0.54664 0.43851
 C858 C 0.21893 0.56829 0.44074
 C859 C 0.22409 0.58037 0.41909
 C860 C 0.21305 0.57079 0.39557
 C861 C 0.23016 0.57937 0.46545
 C862 C 0.23487 0.56511 0.48585
 H863 H 0.16617 0.52644 0.36974
 H864 H 0.17788 0.52063 0.41390
 H865 H 0.19699 0.53731 0.45487
 H866 H 0.23662 0.59731 0.42039
 H867 H 0.21706 0.58087 0.37936
 H868 H 0.23587 0.59906 0.46688
 H869 H 0.21124 0.55300 0.34497
 H870 H 0.23213 0.54502 0.48285
 C871 C 0.69228 0.03562 0.83551
 C872 C 0.68687 0.02945 0.85973
 C873 C 0.69833 0.04330 0.88319
 C874 C 0.69711 0.03151 0.90562
 C875 C 0.70698 0.04372 0.92838
 C876 C 0.71849 0.06812 0.92928
 C877 C 0.71916 0.08023 0.90698
 C878 C 0.70923 0.06797 0.88411
 C879 C 0.72898 0.08145 0.95333
 C880 C 0.73829 0.06861 0.97344
 H881 H 0.67440 0.01324 0.86235
 H882 H 0.68836 0.01273 0.90559
 H883 H 0.70502 0.03411 0.94525
 H884 H 0.72744 0.09921 0.90727
 H885 H 0.70972 0.07810 0.86744
 H886 H 0.72989 0.10158 0.95463
 H887 H 0.70636 0.05103 0.83405
 H888 H 0.73961 0.04867 0.97040
 C889 C 0.71242 0.94466 0.65993
 C890 C 0.70363 0.92569 0.64164
 C891 C 0.71821 0.91754 0.62002
 C892 C 0.70943 0.89540 0.60581
 C893 C 0.72115 0.88783 0.58411
 C894 C 0.74213 0.90225 0.57612
 C895 C 0.75101 0.92437 0.59037
 C896 C 0.73923 0.93197 0.61211
 C897 C 0.75392 0.89574 0.55227
 C898 C 0.75161 0.87172 0.54025
 H899 H 0.68497 0.91605 0.64321
 H900 H 0.69302 0.88413 0.61124
 H901 H 0.71304 0.87115 0.57329
 H902 H 0.76687 0.93602 0.58444
 H903 H 0.74618 0.94950 0.62208
 H904 H 0.76479 0.91055 0.54420
 H905 H 0.73223 0.95231 0.66066
 H906 H 0.74297 0.85663 0.54979
 C907 C 0.20139 0.46658 0.16244
 C908 C 0.19640 0.44399 0.14784
 C909 C 0.21007 0.43660 0.12530
 C910 C 0.19924 0.41633 0.10930
 C911 C 0.21102 0.40866 0.08767
 C912 C 0.23418 0.42096 0.08160
 C913 C 0.24510 0.44121 0.09756
 C914 C 0.23333 0.44887 0.11932
 C915 C 0.24653 0.41390 0.05820
 C916 C 0.24298 0.38996 0.04603
 H917 H 0.18043 0.43149 0.15205
 H918 H 0.18131 0.40656 0.11336
 H919 H 0.20150 0.39350 0.07546
 H920 H 0.26287 0.45107 0.09325
 H921 H 0.24269 0.46422 0.13131
 H922 H 0.25885 0.42806 0.05072
 H923 H 0.21563 0.48028 0.15703
 H924 H 0.23287 0.37547 0.05528
 C925 C -0.17745 0.34755 0.42805
 C926 C -0.15569 0.34067 0.44193
 C927 C -0.13478 0.32752 0.43036
 C928 C -0.11886 0.31357 0.44529
 C929 C -0.09858 0.30133 0.43514
 C930 C -0.09360 0.30316 0.40983
 C931 C -0.10965 0.31694 0.39485
 C932 C -0.12990 0.32917 0.40500
 C933 C -0.07190 0.29118 0.39842
 C934 C -0.04989 0.28488 0.41228
 H935 H -0.15441 0.34381 0.46215
 H936 H -0.12222 0.31198 0.46486
 H937 H -0.08712 0.29033 0.44715
 H938 H -0.10618 0.31869 0.37533
 H939 H -0.14123 0.34032 0.39301
 H940 H -0.07225 0.28894 0.37814
 H941 H -0.18014 0.34162 0.40828
 H942 H -0.04809 0.28871 0.43242
 C943 C 0.34859 0.86453 0.93598
 C944 C 0.35909 0.84263 0.94298
 C945 C 0.38000 0.83124 0.92975
 C946 C 0.39671 0.81625 0.94260
 C947 C 0.41610 0.80457 0.93025
 C948 C 0.41884 0.80749 0.90468
 C949 C 0.40185 0.82217 0.89178
 C950 C 0.38269 0.83401 0.90416
 C951 C 0.43817 0.79467 0.89047
 C952 C 0.46119 0.78681 0.90123
 H953 H 0.35246 0.83398 0.95923
 H954 H 0.39471 0.81352 0.96222
 H955 H 0.42836 0.79281 0.94060
 H956 H 0.40335 0.82440 0.87199
 H957 H 0.36961 0.84475 0.89346
 H958 H 0.43466 0.79213 0.87026
 H959 H 0.35764 0.87501 0.92203
 H960 H 0.46598 0.78996 0.92121
 C961 C 1.16730 0.83775 0.00897
 C962 C 1.16678 0.82924 0.03298
 C963 C 1.14372 0.81660 0.04251
 C964 C 1.14720 0.80229 0.06317
 C965 C 1.12597 0.79126 0.07385
 C966 C 1.10068 0.79439 0.06408
 C967 C 1.09715 0.80887 0.04355
 C968 C 1.11842 0.81982 0.03277
 C969 C 1.07774 0.78415 0.07584
 C970 C 1.07831 0.76370 0.09037
 H971 H 1.18379 0.83224 0.04584
 H972 H 1.16646 0.79989 0.07131
 H973 H 1.12953 0.78102 0.09022
 H974 H 1.07784 0.81191 0.03598
 H975 H 1.11486 0.83141 0.01743
 H976 H 1.05974 0.79303 0.07309
 H977 H 1.15034 0.83427 -0.00394
 H978 H 1.09563 0.75362 0.09203
 C979 C 0.64683 0.34011 0.50315
 C980 C 0.64594 0.31448 0.50544
 C981 C 0.63028 0.30287 0.52399
 C982 C 0.61875 0.27869 0.51869
 C983 C 0.60421 0.26742 0.53638
 C984 C 0.60153 0.28006 0.55983
 C985 C 0.61377 0.30389 0.56539
 C986 C 0.62783 0.31531 0.54758
 C987 C 0.58653 0.26884 0.57904
 C988 C 0.56395 0.25368 0.57308
 H989 H 0.65682 0.30264 0.49351
 H990 H 0.62083 0.26863 0.50079
 H991 H 0.59552 0.24873 0.53187
 H992 H 0.61221 0.31381 0.58347
 H993 H 0.63722 0.33368 0.55248
 H994 H 0.59207 0.27446 0.59858
 H995 H 0.63302 0.35097 0.51264
 H996 H 0.55752 0.24879 0.55361
 C997 C 0.34626 0.17216 0.53529
 C998 C 0.36327 0.16478 0.55425
 C999 C 0.39017 0.17564 0.55931
 C1000 C 0.40309 0.17311 0.58273
 C1001 C 0.42861 0.18283 0.58812
 C1002 C 0.44176 0.19530 0.57003
 C1003 C 0.42898 0.19730 0.54643
 C1004 C 0.40354 0.18757 0.54106
 C1005 C 0.46877 0.20607 0.57451
 C1006 C 0.48196 0.21054 0.59821
 H1007 H 0.35687 0.15041 0.56595
 H1008 H 0.39338 0.16358 0.59696
 H1009 H 0.43787 0.18014 0.60628
 H1010 H 0.43875 0.20645 0.53200
 H1011 H 0.39478 0.18907 0.52242
 H1012 H 0.47802 0.21156 0.55813
 H1013 H 0.35256 0.18675 0.52379
 H1014 H 0.47244 0.20553 0.61461
 C1015 C 0.84959 0.67741 0.05414
 C1016 C 0.86287 0.70027 0.05134
 C1017 C 0.88819 0.70786 0.06499
 C1018 C 0.90551 0.72447 0.05448
 C1019 C 0.92987 0.73139 0.06656
 C1020 C 0.93733 0.72183 0.08952
 C1021 C 0.91959 0.70602 0.10049
 C1022 C 0.89529 0.69907 0.08840
 C1023 C 0.96305 0.72829 0.10285
 C1024 C 0.98486 0.73583 0.09066
 H1025 H 0.85565 0.71215 0.03740
 H1026 H 0.90030 0.73189 0.03672
 H1027 H 0.94256 0.74442 0.05797
 H1028 H 0.92463 0.69880 0.11840
 H1029 H 0.88208 0.68703 0.09760
 H1030 H 0.96471 0.72556 0.12262
 H1031 H 0.85861 0.66446 0.06595
 H1032 H 0.98297 0.73676 0.07053
 C1033 C 0.66533 0.70850 0.96866
 C1034 C 0.65033 0.70332 0.94603
 C1035 C 0.62681 0.71609 0.93875
 C1036 C 0.61018 0.70499 0.91881
 C1037 C 0.58764 0.71596 0.91120
 C1038 C 0.58130 0.73858 0.92320
 C1039 C 0.59779 0.74969 0.94326
 C1040 C 0.62045 0.73871 0.95088
 C1041 C 0.55731 0.75042 0.91563
 C1042 C 0.54591 0.74709 0.89115
 H1043 H 0.65477 0.68770 0.93362
 H1044 H 0.61447 0.68751 0.90922
 H1045 H 0.57501 0.70635 0.89624
 H1046 H 0.59325 0.76706 0.95288
 H1047 H 0.63290 0.74817 0.96602
 H1048 H 0.54917 0.76254 0.92954
 H1049 H 0.65971 0.72243 0.98240
 H1050 H 0.55601 0.73704 0.87704
 C1051 C 0.16060 0.19270 0.46552
 C1052 C 0.13382 0.18791 0.46431
 C1053 C 0.11554 0.20351 0.45137
 C1054 C 0.08990 0.20299 0.45806
 C1055 C 0.07171 0.21642 0.44537
 C1056 C 0.07883 0.23057 0.42556
 C1057 C 0.10441 0.23088 0.41867
 C1058 C 0.12266 0.21759 0.43150
 C1059 C 0.05964 0.24365 0.41071
 C1060 C 0.03737 0.25219 0.42067
 H1061 H 0.12575 0.17250 0.47385
 H1062 H 0.08385 0.19194 0.47301
 H1063 H 0.05196 0.21500 0.45062
 H1064 H 0.11023 0.24127 0.40317
 H1065 H 0.14204 0.21777 0.42525
 H1066 H 0.06376 0.24690 0.39169
 H1067 H 0.16860 0.20991 0.45901
 H1068 H 0.03556 0.25160 0.44064
 C1069 C 0.59765 0.08044 0.69767
 C1070 C 0.60898 0.09414 0.67952
 C1071 C 0.60027 0.11829 0.67197
 C1072 C 0.61814 0.13460 0.66184
 C1073 C 0.61061 0.15689 0.65292
 C1074 C 0.58492 0.16339 0.65365
 C1075 C 0.56692 0.14716 0.66405
 C1076 C 0.57457 0.12483 0.67320
 C1077 C 0.57783 0.18623 0.64170
 C1078 C 0.55366 0.19634 0.64207
 H1079 H 0.62643 0.08828 0.67169
 H1080 H 0.63803 0.12997 0.66057
 H1081 H 0.62488 0.16889 0.64491
 H1082 H 0.54683 0.15112 0.66453
 H1083 H 0.56015 0.11236 0.68032
 H1084 H 0.59277 0.19528 0.63181
 H1085 H 0.58240 0.08859 0.70764
 H1086 H 0.53956 0.18913 0.65409
 C1087 C 1.07485 0.57805 0.19544
 C1088 C 1.07106 0.60236 0.20492
 C1089 C 1.06487 0.62248 0.18849
 C1090 C 1.05277 0.64330 0.19819
 C1091 C 1.04904 0.66365 0.18378
 C1092 C 1.05773 0.66362 0.15950
 C1093 C 1.06959 0.64271 0.14977
 C1094 C 1.07305 0.62234 0.16401
 C1095 C 1.05697 0.68567 0.14461
 C1096 C 1.03897 0.70385 0.14686
 H1097 H 1.07274 0.60720 0.22491
 H1098 H 1.04665 0.64402 0.21714
 H1099 H 1.04038 0.67972 0.19207
 H1100 H 1.07674 0.64237 0.13123
 H1101 H 1.08319 0.60703 0.15615
 H1102 H 1.07057 0.68663 0.13025
 H1103 H 1.06881 0.57300 0.17590
 H1104 H 1.02315 0.70090 0.15871
 C1105 C 0.97267 0.90744 0.21818
 C1106 C 0.96495 0.88206 0.21310
 C1107 C 0.98122 0.86383 0.20079
 C1108 C 0.97607 0.83831 0.20353
 C1109 C 0.99020 0.82043 0.19133
 C1110 C 1.00967 0.82774 0.17581
 C1111 C 1.01502 0.85328 0.17335
 C1112 C 1.00089 0.87112 0.18550
 C1113 C 1.02460 0.80966 0.16155
 C1114 C 1.01637 0.78453 0.15565
 H1115 H 0.94675 0.87465 0.21903
 H1116 H 0.96102 0.83216 0.21518
 H1117 H 0.98582 0.80105 0.19430
 H1118 H 1.02985 0.85947 0.16146
 H1119 H 1.00503 0.89048 0.18223
 H1120 H 1.04180 0.81732 0.15387
 H1121 H 0.99221 0.91354 0.21452
 H1122 H 0.99902 0.77706 0.16325
 C1123 C 0.47841 0.39063 0.72388
 C1124 C 0.46768 0.36800 0.71189
 C1125 C 0.48307 0.34926 0.69918
 C1126 C 0.47198 0.32490 0.69355
 C1127 C 0.48492 0.30718 0.67977
 C1128 C 0.50935 0.31352 0.67130
 C1129 C 0.52056 0.33778 0.67720
 C1130 C 0.50761 0.35549 0.69092
 C1131 C 0.52275 0.29632 0.65454
 C1132 C 0.51647 0.27061 0.65060
 H1133 H 0.44721 0.36316 0.71200
 H1134 H 0.45295 0.31969 0.69939
 H1135 H 0.47524 0.28895 0.67511
 H1136 H 0.53919 0.34328 0.67061
 H1137 H 0.51656 0.37420 0.69411
 H1138 H 0.53833 0.30466 0.64490
 H1139 H 0.49926 0.39337 0.72634
 H1140 H 0.50324 0.26176 0.66251
 C1141 C 0.47538 0.57452 0.79971
 C1142 C 0.47254 0.58884 0.82212
 C1143 C 0.47977 0.61600 0.82606
 C1144 C 0.46843 0.62972 0.84515
 C1145 C 0.47367 0.65545 0.84918
 C1146 C 0.49039 0.66820 0.83410
 C1147 C 0.50254 0.65442 0.81561
 C1148 C 0.49728 0.62858 0.81155
 C1149 C 0.49634 0.69553 0.83812
 C1150 C 0.47916 0.71133 0.84898
 H1151 H 0.46255 0.58075 0.83690
 H1152 H 0.45523 0.62052 0.85692
 H1153 H 0.46485 0.66514 0.86443
 H1154 H 0.51600 0.66371 0.80416
 H1155 H 0.50721 0.61870 0.79724
 H1156 H 0.51471 0.70291 0.83254
 H1157 H 0.48497 0.58341 0.78508
 H1158 H 0.46012 0.70350 0.85236
 C1159 C -0.04291 0.09065 0.29267
 C1160 C -0.03486 0.10122 0.31672
 C1161 C -0.03257 0.12848 0.32276
 C1162 C -0.01374 0.13894 0.34110
 C1163 C -0.01273 0.16439 0.34864
 C1164 C -0.03100 0.17967 0.33835
 C1165 C -0.04984 0.16920 0.32002
 C1166 C -0.05045 0.14389 0.31205
 C1167 C -0.03226 0.20583 0.34819
 C1168 C -0.01018 0.22106 0.35648
 H1169 H -0.02965 0.08954 0.33159
 H1170 H -0.00002 0.12733 0.34985
 H1171 H 0.00161 0.17184 0.36328
 H1172 H -0.06432 0.18056 0.31212
 H1173 H -0.06562 0.13619 0.29833
 H1174 H -0.05116 0.21316 0.34851
 H1175 H -0.04345 0.10302 0.27757
 H1176 H 0.00853 0.21465 0.35235
 C1177 C 0.06954 0.41316 0.28337
 C1178 C 0.07896 0.39417 0.29733
 C1179 C 0.06210 0.37596 0.30936
 C1180 C 0.07254 0.35423 0.31742
 C1181 C 0.05783 0.33730 0.33022
 C1182 C 0.03223 0.34180 0.33525
 C1183 C 0.02182 0.36351 0.32712
 C1184 C 0.03653 0.38043 0.31443
 C1185 C 0.01609 0.32538 0.34997
 C1186 C 0.02217 0.30160 0.35650
 H1187 H 0.09946 0.39198 0.29958
 H1188 H 0.09231 0.35048 0.31409
 H1189 H 0.06694 0.32119 0.33659
 H1190 H 0.00228 0.36765 0.33100
 H1191 H 0.02792 0.39729 0.30941
 H1192 H -0.00170 0.33270 0.35557
 H1193 H 0.04887 0.41303 0.27919
 H1194 H 0.03893 0.29348 0.34932
 C1195 C 0.56826 0.90110 0.75892
 C1196 C 0.57557 0.87878 0.76845
 C1197 C 0.55755 0.86053 0.77916
 C1198 C 0.56676 0.83774 0.78575
 C1199 C 0.55153 0.82102 0.79829
 C1200 C 0.52656 0.82672 0.80444
 C1201 C 0.51708 0.84913 0.79716
 C1202 C 0.53234 0.86591 0.78480
 C1203 C 0.51064 0.81129 0.82025
 C1204 C 0.51700 0.78818 0.82846
 H1205 H 0.59552 0.87426 0.76880
 H1206 H 0.58615 0.83314 0.78182
 H1207 H 0.55988 0.80421 0.80379
 H1208 H 0.49800 0.85414 0.80181
 H1209 H 0.52444 0.88333 0.78069
 H1210 H 0.49335 0.81928 0.82634
 H1211 H 0.54787 0.90387 0.75623
 H1212 H 0.53215 0.77846 0.81998
 C1213 C 0.69356 0.58976 0.08754
 C1214 C 0.67832 0.56742 0.08771
 C1215 C 0.66224 0.56251 0.10888
 C1216 C 0.65680 0.53796 0.11512
 C1217 C 0.64156 0.53314 0.13509
 C1218 C 0.63130 0.55289 0.14899
 C1219 C 0.63622 0.57730 0.14221
 C1220 C 0.65144 0.58209 0.12243
 C1221 C 0.61470 0.54916 0.17003
 C1222 C 0.61337 0.52773 0.18334
 H1223 H 0.67827 0.55300 0.07264
 H1224 H 0.66449 0.52253 0.10463
 H1225 H 0.63758 0.51399 0.13919
 H1226 H 0.62821 0.59282 0.15228
 H1227 H 0.65429 0.60114 0.11752
 H1228 H 0.60405 0.56488 0.17581
 H1229 H 0.69511 0.60204 0.10457
 H1230 H 0.62511 0.51256 0.17826
 C1231 C 0.19649 1.06774 0.59008
 C1232 C 0.19294 1.07925 0.61379
 C1233 C 0.18135 1.06670 0.63458
 C1234 C 0.17973 1.08093 0.65734
 C1235 C 0.16751 1.07089 0.67708
 C1236 C 0.15653 1.04629 0.67453
 C1237 C 0.15907 1.03159 0.65230
 C1238 C 0.17116 1.04170 0.63237
 C1239 C 0.14178 1.03609 0.69458
 C1240 C 0.12593 1.05110 0.70825
 H1241 H 0.19902 1.09869 0.61791
 H1242 H 0.18759 1.10011 0.65977
 H1243 H 0.16655 1.08246 0.69430
 H1244 H 0.15090 1.01250 0.65004
 H1245 H 0.17187 1.02991 0.61533
 H1246 H 0.14160 1.01628 0.69665
 H1247 H 0.19245 1.04782 0.58696
 H1248 H 0.12430 1.07007 0.70314
 C1249 C 0.20870 0.97311 0.90030
 C1250 C 0.20400 0.96610 0.87460
 C1251 C 0.18939 0.98093 0.85692
 C1252 C 0.17828 0.96890 0.83429
 C1253 C 0.16319 0.98170 0.81761
 C1254 C 0.15910 1.00697 0.82314
 C1255 C 0.17073 1.01919 0.84542
 C1256 C 0.18593 1.00644 0.86205
 C1257 C 0.14143 1.02057 0.80713
 C1258 C 0.13530 1.01385 0.78164
 H1259 H 0.20967 0.94839 0.86691
 H1260 H 0.18068 0.94931 0.82981
 H1261 H 0.15407 0.97148 0.80091
 H1262 H 0.16791 1.03868 0.85006
 H1263 H 0.19484 1.01675 0.87875
 H1264 H 0.13346 1.03676 0.81594
 H1265 H 0.20240 0.99085 0.90734
 H1266 H 0.14606 0.99984 0.77229
 C1267 C 0.69937 0.46799 0.38304
 C1268 C 0.68777 0.45767 0.35990
 C1269 C 0.67586 0.47228 0.34029
 C1270 C 0.66863 0.46018 0.31655
 C1271 C 0.65502 0.47231 0.29818
 C1272 C 0.64839 0.49698 0.30316
 C1273 C 0.65617 0.50927 0.32669
 C1274 C 0.66966 0.49711 0.34510
 C1275 C 0.63163 0.50987 0.28546
 C1276 C 0.62423 0.50097 0.26064
 H1277 H 0.68740 0.43779 0.35540
 H1278 H 0.67292 0.44098 0.31238
 H1279 H 0.64904 0.46186 0.28058
 H1280 H 0.65113 0.52820 0.33116
 H1281 H 0.67423 0.50701 0.36325
 H1282 H 0.62447 0.52708 0.29286
 H1283 H 0.70301 0.48801 0.38570
 H1284 H 0.63369 0.48553 0.25219
 C1285 C 0.76839 0.45321 0.57316
 C1286 C 0.78958 0.46981 0.58117
 C1287 C 0.79937 0.47264 0.60789
 C1288 C 0.79891 0.45204 0.62257
 C1289 C 0.80878 0.45457 0.64752
 C1290 C 0.81915 0.47774 0.65850
 C1291 C 0.81983 0.49839 0.64383
 C1292 C 0.81019 0.49577 0.61865
 C1293 C 0.83063 0.47907 0.68460
 C1294 C 0.83288 0.50080 0.70071
 H1295 H 0.79903 0.48114 0.56817
 H1296 H 0.79150 0.43375 0.61463
 H1297 H 0.80846 0.43829 0.65828
 H1298 H 0.82841 0.51635 0.65151
 H1299 H 0.81113 0.51180 0.60757
 H1300 H 0.83644 0.46175 0.69148
 H1301 H 0.75783 0.44504 0.58769
 H1302 H 0.82409 0.51722 0.69461
 C1303 C 0.28180 -0.04182 0.08418
 C1304 C 0.30609 -0.03224 0.09456
 C1305 C 0.31263 -0.03020 0.12189
 C1306 C 0.33010 -0.01090 0.13266
 C1307 C 0.33815 -0.00992 0.15816
 C1308 C 0.32929 -0.02862 0.17311
 C1309 C 0.31189 -0.04794 0.16231
 C1310 C 0.30338 -0.04860 0.13698
 C1311 C 0.33962 -0.02952 0.19931
 C1312 C 0.34591 -0.00805 0.21521
 H1313 H 0.32076 -0.02578 0.08271
 H1314 H 0.33776 0.00324 0.12126
 H1315 H 0.35209 0.00487 0.16590
 H1316 H 0.30512 -0.06271 0.17343
 H1317 H 0.29043 -0.06408 0.12901
 H1318 H 0.34135 -0.04772 0.20632
 H1319 H 0.26646 -0.04372 0.09681
 H1320 H 0.34024 0.00966 0.20907
 C1321 C 0.27057 0.05729 0.41443
 C1322 C 0.26718 0.06243 0.38921
 C1323 C 0.28023 0.04852 0.36951
 C1324 C 0.28948 0.06103 0.34949
 C1325 C 0.30379 0.04875 0.33177
 C1326 C 0.30867 0.02352 0.33359
 C1327 C 0.29833 0.01082 0.35302
 C1328 C 0.28423 0.02312 0.37076
 C1329 C 0.32568 0.01005 0.31699
 C1330 C 0.33560 0.01906 0.29544
 H1331 H 0.25754 0.07864 0.38390
 H1332 H 0.28647 0.08060 0.34810
 H1333 H 0.31156 0.05937 0.31732
 H1334 H 0.30160 -0.00865 0.35481
 H1335 H 0.27664 0.01275 0.38553
 H1336 H 0.33051 -0.00811 0.32240
 H1337 H 0.28313 0.04268 0.41894
 H1338 H 0.32850 0.03573 0.28821
 C1339 C 0.76220 0.57679 0.90392
 C1340 C 0.78315 0.58176 0.88948
 C1341 C 0.78759 0.56684 0.86612
 C1342 C 0.80168 0.57801 0.84795
 C1343 C 0.80881 0.56382 0.82699
 C1344 C 0.80227 0.53802 0.82401
 C1345 C 0.78769 0.52695 0.84189
 C1346 C 0.78023 0.54122 0.86268
 C1347 C 0.81332 0.52186 0.80458
 C1348 C 0.82173 0.53032 0.78223
 H1349 H 0.79637 0.59789 0.89460
 H1350 H 0.80779 0.59767 0.85034
 H1351 H 0.82062 0.57285 0.81393
 H1352 H 0.78277 0.50705 0.84019
 H1353 H 0.76990 0.53193 0.87663
 H1354 H 0.81572 0.50273 0.80868
 H1355 H 0.74690 0.56337 0.89599
 H1356 H 0.81521 0.54770 0.77604
 C1357 C 0.08632 0.68281 0.57936
 C1358 C 0.11200 0.68976 0.57510
 C1359 C 0.13121 0.67132 0.56961
 C1360 C 0.12921 0.64738 0.57844
 C1361 C 0.14877 0.63112 0.57502
 C1362 C 0.17065 0.63827 0.56259
 C1363 C 0.17261 0.66212 0.55355
 C1364 C 0.15311 0.67851 0.55717
 C1365 C 0.19165 0.62104 0.56103
 C1366 C 0.20950 0.62120 0.54260
 H1367 H 0.11858 0.70921 0.57560
 H1368 H 0.11307 0.64146 0.58885
 H1369 H 0.14697 0.61297 0.58247
 H1370 H 0.18953 0.66853 0.54450
 H1371 H 0.15530 0.69701 0.55058
 H1372 H 0.19192 0.60690 0.57434
 H1373 H 0.07954 0.66350 0.57474
 H1374 H 0.20709 0.63353 0.52767
 C1375 C 0.58351 0.17305 1.08047
 C1376 C 0.59420 0.17092 1.05716
 C1377 C 0.61729 0.15658 1.05351
 C1378 C 0.63549 0.16429 1.03695
 C1379 C 0.65813 0.15174 1.03439
 C1380 C 0.66271 0.13095 1.04816
 C1381 C 0.64404 0.12287 1.06407
 C1382 C 0.62155 0.13538 1.06662
 C1383 C 0.68685 0.11765 1.04749
 C1384 C 0.70457 0.11941 1.02900
 H1385 H 0.58707 0.18122 1.04187
 H1386 H 0.63256 0.18050 1.02653
 H1387 H 0.67213 0.15884 1.02219
 H1388 H 0.64690 0.10681 1.07474
 H1389 H 0.60752 0.12834 1.07887
 H1390 H 0.69000 0.10517 1.06211
 H1391 H 0.59349 0.16466 1.09580
 H1392 H 0.70048 0.13066 1.01350
 C1393 C 0.86903 0.22013 0.93565
 C1394 C 0.86475 0.21694 0.96081
 C1395 C 0.84286 0.20103 0.96895
 C1396 C 0.84398 0.19442 0.99384
 C1397 C 0.82477 0.17830 1.00214
 C1398 C 0.80397 0.16818 0.98559
 C1399 C 0.80210 0.17576 0.96108
 C1400 C 0.82124 0.19201 0.95280
 C1401 C 0.78418 0.14958 0.99310
 C1402 C 0.78925 0.13403 1.01239
 H1403 H 0.87855 0.22521 0.97547
 H1404 H 0.86003 0.20145 1.00690
 H1405 H 0.82639 0.17395 1.02153
 H1406 H 0.78600 0.16869 0.94810
 H1407 H 0.81878 0.19726 0.93378
 H1408 H 0.76614 0.14698 0.98171
 H1409 H 0.85487 0.21163 0.92142
 H1410 H 0.80810 0.13612 1.02245
 C1411 C 0.37866 0.70168 0.44052
 C1412 C 0.37683 0.69477 0.46510
 C1413 C 0.35373 0.68103 0.47371
 C1414 C 0.35174 0.67963 0.49958
 C1415 C 0.33099 0.66602 0.50860
 C1416 C 0.31178 0.65336 0.49186
 C1417 C 0.31336 0.65515 0.46606
 C1418 C 0.33422 0.66856 0.45700
 C1419 C 0.29020 0.63784 0.50070
 C1420 C 0.29344 0.62437 0.52188
 H1421 H 0.39269 0.69954 0.47901
 H1422 H 0.36638 0.68904 0.51291
 H1423 H 0.33000 0.66555 0.52867
 H1424 H 0.29880 0.64550 0.45281
 H1425 H 0.33509 0.66839 0.43693
 H1426 H 0.27262 0.63500 0.48861
 H1427 H 0.36185 0.69786 0.42751
 H1428 H 0.31230 0.62571 0.53198
 C1429 C 0.57317 0.78512 0.44812
 C1430 C 0.58565 0.80879 0.44692
 C1431 C 0.61402 0.81405 0.45048
 C1432 C 0.62509 0.83344 0.43777
 C1433 C 0.65171 0.83899 0.43980
 C1434 C 0.66799 0.82569 0.45505
 C1435 C 0.65704 0.80637 0.46812
 C1436 C 0.63023 0.80055 0.46580
 C1437 C 0.69608 0.83272 0.45638
 C1438 C 0.71327 0.82945 0.47695
 H1439 H 0.57503 0.82387 0.44032
 H1440 H 0.61309 0.84414 0.42585
 H1441 H 0.65961 0.85397 0.42955
 H1442 H 0.66905 0.79550 0.47978
 H1443 H 0.62231 0.78574 0.47620
 H1444 H 0.70264 0.84299 0.44118
 H1445 H 0.58465 0.77045 0.45460
 H1446 H 0.70652 0.81896 0.49198
 C1447 C 0.06188 0.30768 -0.04929
 C1448 C 0.07445 0.33133 -0.05048
 C1449 C 0.10272 0.33697 -0.04547
 C1450 C 0.11410 0.35718 -0.05680
 C1451 C 0.14069 0.36290 -0.05380
 C1452 C 0.15666 0.34890 -0.03898
 C1453 C 0.14537 0.32885 -0.02714
 C1454 C 0.11859 0.32291 -0.03038
 C1455 C 0.18483 0.35576 -0.03706
 C1456 C 0.20200 0.35061 -0.01711
 H1457 H 0.06397 0.34622 -0.05771
 H1458 H 0.10241 0.36836 -0.06849
 H1459 H 0.14884 0.37846 -0.06310
 H1460 H 0.15711 0.31744 -0.01582
 H1461 H 0.11052 0.30748 -0.02094
 H1462 H 0.19158 0.36710 -0.05141
 H1463 H 0.07283 0.29336 -0.04134
 H1464 H 0.19490 0.33960 -0.00261
 C1465 C 0.40385 0.25836 0.04263
 C1466 C 0.37764 0.25704 0.04768
 C1467 C 0.35824 0.27145 0.03451
 C1468 C 0.33715 0.27942 0.04730
 C1469 C 0.31948 0.29460 0.03616
 C1470 C 0.32237 0.30181 0.01173
 C1471 C 0.34287 0.29293 -0.00140
 C1472 C 0.36056 0.27787 0.00977
 C1473 C 0.30602 0.32002 -0.00003
 C1474 C 0.28313 0.32826 0.00917
 H1475 H 0.37132 0.24771 0.06358
 H1476 H 0.33484 0.27460 0.06635
 H1477 H 0.30426 0.30125 0.04713
 H1478 H 0.34551 0.29807 -0.02029
 H1479 H 0.37603 0.27139 -0.00100
 H1480 H 0.31291 0.32747 -0.01674
 H1481 H 0.40962 0.26984 0.02791
 H1482 H 0.27427 0.31858 0.02373
 C1483 C 0.91752 0.77570 0.56906
 C1484 C 0.89688 0.76035 0.55728
 C1485 C 0.87709 0.77105 0.54096
 C1486 C 0.85072 0.76451 0.54262
 C1487 C 0.83195 0.77618 0.52847
 C1488 C 0.83946 0.79414 0.51208
 C1489 C 0.86587 0.79957 0.50956
 C1490 C 0.88449 0.78832 0.52396
 C1491 C 0.82083 0.80815 0.49760
 C1492 C 0.79663 0.81399 0.50551
 H1493 H 0.89389 0.74108 0.56142
 H1494 H 0.84466 0.75097 0.55541
 H1495 H 0.81175 0.77108 0.53037
 H1496 H 0.87217 0.81314 0.49688
 H1497 H 0.90473 0.79323 0.52189
 H1498 H 0.82799 0.81635 0.48138
 H1499 H 0.91695 0.79557 0.56714
 H1500 H 0.78882 0.80457 0.52077
   
