data_POSCAR
  _audit_creation_date              2014-09-24
  _audit_creation_method            'ToBaCCo'
  _symmetry_space_group_name_H-M    'P1'
  _symmetry_Int_Tables_number       1
  _symmetry_cell_setting            triclinic
  loop_
  _symmetry_equiv_pos_as_xyz
 x,y,z
_cell_length_a 35.4482
_cell_length_b 36.9095
_cell_length_c 40.3234
_cell_angle_alpha 90.057800
_cell_angle_beta 90.663400
_cell_angle_gamma 91.416200
loop_
  _atom_site_label
  _atom_site_type_symbol
  _atom_site_fract_x
  _atom_site_fract_y
  _atom_site_fract_z
C1 C 0.42528 -0.00893 0.27949
 C2 C 0.39923 0.02412 0.27618
 C3 C 0.38038 0.02521 0.24620
 C4 C 0.38865 -0.00698 0.22338
 C5 C 0.39937 -0.04184 0.27338
 C6 C 0.37916 -0.04068 0.24477
 C7 C 0.45061 -0.00620 0.24905
 C8 C 0.43186 -0.00443 0.21961
 H9 H 0.39844 0.04577 0.29426
 H10 H 0.37341 -0.00715 0.19927
 H11 H 0.39359 -0.06164 0.29259
 H12 H 0.48081 -0.00153 0.25120
 C13 C 0.07488 0.00350 0.77819
 C14 C 0.10228 -0.02783 0.77130
 C15 C 0.11892 -0.02564 0.74043
 C16 C 0.10657 0.00830 0.72043
 C17 C 0.09905 0.03792 0.77365
 C18 C 0.11646 0.04052 0.74408
 C19 C 0.04874 0.00229 0.75039
 C20 C 0.06520 0.00543 0.71856
 H21 H 0.10710 -0.04971 0.78855
 H22 H 0.11983 0.01133 0.69587
 H23 H 0.10568 0.05625 0.79403
 H24 H 0.01871 -0.00110 0.75407
 C25 C 0.57703 0.48416 0.29076
 C26 C 0.60617 0.45614 0.28077
 C27 C 0.62093 0.46111 0.24992
 C28 C 0.60449 0.49453 0.23183
 C29 C 0.59767 0.52106 0.28701
 C30 C 0.61215 0.52693 0.25624
 C31 C 0.54752 0.48309 0.26296
 C32 C 0.56110 0.48782 0.23204
 H33 H 0.61399 0.43410 0.29693
 H34 H 0.61587 0.49868 0.20664
 H35 H 0.60019 0.54092 0.30670
 H36 H 0.51773 0.47910 0.26783
 C37 C 0.93517 0.50547 0.78683
 C38 C 0.91122 0.53949 0.78233
 C39 C 0.89161 0.54005 0.75290
 C40 C 0.89675 0.50599 0.73156
 C41 C 0.90734 0.47354 0.78314
 C42 C 0.88650 0.47373 0.75477
 C43 C 0.95950 0.50479 0.75571
 C44 C 0.93982 0.50591 0.72673
 H45 H 0.91350 0.56269 0.79876
 H46 H 0.88063 0.50589 0.70784
 H47 H 0.90241 0.45418 0.80288
 H48 H 0.98969 0.50971 0.75644
 C49 C 0.26574 0.37416 1.00198
 C50 C 0.27168 0.34481 1.02796
 C51 C 0.24685 0.31646 1.02601
 C52 C 0.21767 0.31972 0.99779
 C53 C 0.26670 0.35394 0.96832
 C54 C 0.24122 0.32513 0.96611
 C55 C 0.22456 0.38468 1.00563
 C56 C 0.19944 0.35656 1.00348
 H57 H 0.29357 0.34677 1.04693
 H58 H 0.19666 0.29702 0.99718
 H59 H 0.28517 0.36195 0.94831
 H60 H 0.21589 0.41261 1.00665
 C61 C 0.77777 0.12998 0.99169
 C62 C 0.78102 0.15945 0.96537
 C63 C 0.75553 0.18606 0.96762
 C64 C 0.72891 0.18110 0.99749
 C65 C 0.78113 0.15090 1.02488
 C66 C 0.75580 0.17813 1.02776
 C67 C 0.73853 0.11699 0.98951
 C68 C 0.71135 0.14481 0.99375
 H69 H 0.80234 0.15910 0.94633
 H70 H 0.70819 0.20303 0.99928
 H71 H 0.80223 0.14557 1.04372
 H72 H 0.73074 0.08842 0.98924
 C73 C 0.28995 0.63446 0.48912
 C74 C 0.28743 0.65796 0.45781
 C75 C 0.26100 0.68396 0.45890
 C76 C 0.23913 0.68441 0.49156
 C77 C 0.29610 0.66181 0.51778
 C78 C 0.26960 0.68812 0.51890
 C79 C 0.24941 0.61951 0.49381
 C80 C 0.22281 0.64554 0.49545
 H81 H 0.30540 0.65433 0.43657
 H82 H 0.21724 0.70536 0.49228
 H83 H 0.31905 0.66042 0.53562
 H84 H 0.24281 0.59100 0.49745
 C85 C 0.78726 0.86830 0.49593
 C86 C 0.78672 0.84413 0.52646
 C87 C 0.75619 0.82186 0.52866
 C88 C 0.72779 0.82556 0.49982
 C89 C 0.78160 0.84224 0.46629
 C90 C 0.75041 0.81991 0.46800
 C91 C 0.74998 0.88894 0.49739
 C92 C 0.71869 0.86627 0.49890
 H93 H 0.80909 0.84456 0.54506
 H94 H 0.70251 0.80745 0.50218
 H95 H 0.79984 0.84317 0.44496
 H96 H 0.74819 0.91779 0.49306
 C97 C 0.01608 0.28775 0.40514
 C98 C 0.02961 0.30133 0.37122
 C99 C 0.02125 0.27786 0.34603
 C100 C -0.00081 0.24395 0.35689
 C101 C -0.02411 0.27998 0.40166
 C102 C -0.03331 0.25650 0.37470
 C103 C 0.03362 0.25076 0.40917
 C104 C 0.02442 0.22769 0.38393
 H105 H 0.05022 0.32330 0.36866
 H106 H -0.00777 0.22455 0.33647
 H107 H -0.04516 0.29093 0.41791
 H108 H 0.04703 0.24162 0.43180
 C109 C -0.01770 0.76323 0.09709
 C110 C -0.02356 0.77498 0.13305
 C111 C -0.01511 0.74923 0.15587
 C112 C -0.00063 0.71456 0.14059
 C113 C 0.02347 0.75205 0.09558
 C114 C 0.03203 0.72660 0.11853
 C115 C -0.04042 0.72750 0.09305
 C116 C -0.03132 0.70236 0.11609
 H117 H -0.03774 0.79969 0.13936
 H118 H 0.00694 0.69320 0.15868
 H119 H 0.04417 0.76440 0.07929
 H120 H -0.05746 0.72039 0.07148
 C121 C 0.53480 0.28422 0.61190
 C122 C 0.50573 0.28132 0.63911
 C123 C 0.49582 0.24686 0.64673
 C124 C 0.51476 0.21813 0.62607
 C125 C 0.56746 0.26104 0.62354
 C126 C 0.55646 0.22649 0.63107
 C127 C 0.51732 0.26344 0.58241
 C128 C 0.50737 0.22845 0.58974
 H129 H 0.49589 0.30452 0.65277
 H130 H 0.50640 0.19008 0.63313
 H131 H 0.59587 0.27149 0.62810
 H132 H 0.51748 0.27422 0.55748
 C133 C 0.51704 0.79797 0.88595
 C134 C 0.54605 0.78033 0.86421
 C135 C 0.53905 0.74443 0.85891
 C136 C 0.50340 0.72952 0.87557
 C137 C 0.47935 0.79041 0.86800
 C138 C 0.47205 0.75428 0.86290
 C139 C 0.51541 0.77661 0.91590
 C140 C 0.50799 0.73917 0.91037
 H141 H 0.56881 0.79538 0.85241
 H142 H 0.49777 0.70029 0.87059
 H143 H 0.45976 0.81135 0.86144
 H144 H 0.51994 0.78815 0.94040
 C145 C -0.24714 0.68470 0.97127
 C146 C -0.22265 0.65054 0.97388
 C147 C -0.22501 0.63382 1.00437
 C148 C -0.25103 0.65310 1.02859
 C149 C -0.28687 0.67119 0.98028
 C150 C -0.28898 0.65434 1.00993
 C151 C -0.23352 0.70853 1.00039
 C152 C -0.23539 0.69216 1.03036
 H153 H -0.20554 0.64072 0.95389
 H154 H -0.25277 0.64052 1.05330
 H155 H -0.31067 0.67237 0.96324
 H156 H -0.22204 0.73572 0.99709
 C157 C -0.25711 0.31196 0.47016
 C158 C -0.28782 0.33818 0.48134
 C159 C -0.28077 0.35426 0.51149
 C160 C -0.24344 0.34167 0.52771
 C161 C -0.22031 0.33505 0.47116
 C162 C -0.21321 0.35114 0.50111
 C163 C -0.25312 0.28638 0.49698
 C164 C -0.24632 0.30191 0.52885
 H165 H -0.31208 0.34433 0.46600
 H166 H -0.23718 0.35434 0.55213
 H167 H -0.20396 0.34172 0.44943
 H168 H -0.25369 0.25750 0.49247
 C169 C 0.23750 -0.19295 -0.04179
 C170 C 0.20360 -0.17083 -0.03119
 C171 C 0.20768 -0.15477 -0.00089
 C172 C 0.24607 -0.16288 0.01616
 C173 C 0.27137 -0.16618 -0.04002
 C174 C 0.27600 -0.14989 -0.00984
 C175 C 0.24416 -0.21827 -0.01525
 C176 C 0.24787 -0.20268 0.01687
 H177 H 0.17855 -0.16828 -0.04656
 H178 H 0.24972 -0.14997 0.04085
 H179 H 0.28844 -0.15888 -0.06118
 H180 H 0.24923 -0.24653 -0.02010
 C181 C 0.26793 1.19570 0.46520
 C182 C 0.29385 1.16303 0.46919
 C183 C 0.28921 1.14502 0.49870
 C184 C 0.25823 1.16078 0.52069
 C185 C 0.22835 1.18032 0.46966
 C186 C 0.22290 1.16152 0.49792
 C187 C 0.27612 1.21870 0.49612
 C188 C 0.27178 1.20077 0.52533
 H189 H 0.31637 1.15746 0.45216
 H190 H 0.25304 1.14604 0.54420
 H191 H 0.20669 1.18227 0.45054
 H192 H 0.28801 1.24588 0.49466
 C193 C 0.12043 0.51796 0.24560
 C194 C 0.08769 0.51831 0.22062
 C195 C 0.06135 0.49153 0.22460
 C196 C 0.06994 0.46627 0.25375
 C197 C 0.10118 0.51865 0.28005
 C198 C 0.07447 0.49128 0.28430
 C199 C 0.13607 0.47962 0.24305
 C200 C 0.10991 0.45260 0.24755
 H201 H 0.08582 0.53827 0.20100
 H202 H 0.04890 0.44379 0.25599
 H203 H 0.10841 0.53833 0.29913
 H204 H 0.16591 0.47452 0.24091
 C205 C -0.12500 1.02580 0.25697
 C206 C -0.09288 1.03343 0.28172
 C207 C -0.06458 1.00955 0.28079
 C208 C -0.07074 0.97987 0.25433
 C209 C -0.10541 1.02452 0.22267
 C210 C -0.07671 1.00012 0.22134
 C211 C -0.13709 0.98828 0.26346
 C212 C -0.10745 0.96268 0.26092
 H213 H -0.09320 1.05568 0.29928
 H214 H -0.04743 0.96049 0.25479
 H215 H -0.11474 1.03976 0.20132
 H216 H -0.16657 0.97990 0.26417
 C217 C 0.37706 0.54023 -0.24546
 C218 C 0.40027 0.54628 -0.21383
 C219 C 0.42961 0.52391 -0.20992
 C220 C 0.43347 0.49671 -0.23892
 C221 C 0.40557 0.54292 -0.27385
 C222 C 0.43511 0.52003 -0.27079
 C223 C 0.36508 0.49984 -0.24449
 C224 C 0.39450 0.47679 -0.24148
 H225 H 0.39362 0.56676 -0.19566
 H226 H 0.45735 0.47814 -0.23560
 H227 H 0.40139 0.55982 -0.29542
 H228 H 0.33629 0.49039 -0.24889
 C229 C 0.62551 0.03113 -0.24637
 C230 C 0.60098 0.02921 -0.27756
 C231 C 0.57669 0.00069 -0.27926
 C232 C 0.57930 -0.02501 -0.24926
 C233 C 0.59772 0.02817 -0.21732
 C234 C 0.57359 -0.00116 -0.21844
 C235 C 0.64596 -0.00544 -0.24587
 C236 C 0.62143 -0.03504 -0.24695
 H237 H 0.60226 0.04968 -0.29685
 H238 H 0.55975 -0.04887 -0.25122
 H239 H 0.59876 0.04703 -0.19675
 H240 H 0.67594 -0.00769 -0.24121
 C241 C 0.03958 0.24391 0.84584
 C242 C 0.05023 0.27566 0.86918
 C243 C 0.02760 0.27740 0.89590
 C244 C -0.00392 0.24874 0.89675
 C245 C 0.03996 0.20995 0.86800
 C246 C 0.01700 0.21281 0.89490
 C247 C 0.00035 0.24801 0.83742
 C248 C -0.02344 0.25237 0.86521
 H249 H 0.07345 0.29469 0.86499
 H250 H -0.02255 0.25084 0.91858
 H251 H 0.05774 0.18700 0.86377
 H252 H -0.00968 0.24892 0.81204
 C253 C 0.53807 0.26730 0.12514
 C254 C 0.53134 0.23978 0.09732
 C255 C 0.49453 0.23622 0.08803
 C256 C 0.46792 0.26012 0.10708
 C257 C 0.52097 0.30217 0.11251
 C258 C 0.48446 0.29798 0.10266
 C259 C 0.51207 0.25432 0.15327
 C260 C 0.47548 0.25076 0.14331
 H261 H 0.55342 0.22351 0.08706
 H262 H 0.43777 0.25704 0.09950
 H263 H 0.53693 0.32742 0.11001
 H264 H 0.52155 0.24615 0.17766
 C265 C 0.04160 0.77685 0.61083
 C266 C 0.03022 0.73901 0.59888
 C267 C -0.00772 0.73373 0.59573
 C268 C -0.03079 0.76608 0.60564
 C269 C 0.02251 0.80241 0.58663
 C270 C -0.01554 0.79672 0.58419
 C271 C 0.02069 0.78188 0.64351
 C272 C -0.01710 0.77588 0.64069
 H273 H 0.05054 0.71983 0.59019
 H274 H -0.06175 0.76175 0.60293
 H275 H 0.03632 0.82645 0.57681
 H276 H 0.03462 0.78972 0.66656
 C277 C 0.53096 0.75585 0.35345
 C278 C 0.53417 0.77976 0.38436
 C279 C 0.50569 0.77387 0.40621
 C280 C 0.47677 0.74489 0.39519
 C281 C 0.52866 0.71694 0.36660
 C282 C 0.49997 0.71154 0.38814
 C283 C 0.49175 0.76269 0.33906
 C284 C 0.46368 0.75769 0.36118
 H285 H 0.55568 0.80088 0.38754
 H286 H 0.45333 0.73975 0.41271
 H287 H 0.54587 0.69510 0.35801
 H288 H 0.48685 0.77238 0.31405
 Zr289 Zr 0.01971 -0.04382 1.04419
 O290 O 0.05898 -0.03628 1.08378
 O291 O 0.00125 -0.09771 1.05335
 O292 O -0.00513 -0.04036 1.09180
 O293 O 0.08726 -0.06446 0.98523
 O294 O -0.05392 -0.00158 1.08584
 O295 O 0.07055 -0.07256 1.03928
 O296 O -0.04418 -0.10849 1.01378
 O297 O -0.03824 -0.04285 1.03343
 O298 O 0.01297 -0.06523 0.99635
 O299 O 0.00497 0.01099 1.04783
 O300 O 0.05401 -0.01101 1.01312
 Zr301 Zr -0.02852 0.02375 0.95598
 Zr302 Zr -0.05254 0.01201 1.03511
 Zr303 Zr 0.04456 -0.03167 0.96505
 Zr304 Zr -0.04419 -0.06214 0.98470
 O305 O 0.09808 -0.00818 0.95433
 O306 O -0.10021 -0.07330 1.00038
 O307 O -0.01286 -0.03077 0.95117
 O308 O -0.06182 -0.00900 0.98724
 O309 O -0.02165 0.04627 1.00344
 O310 O 0.02938 0.02272 0.96678
 C311 C -0.02421 -0.11780 1.03876
 C312 C 0.09276 -0.07734 1.01456
 C313 C -0.03249 -0.02177 1.10343
 O314 O -0.10629 -0.01104 1.04570
 O315 O -0.09462 0.04614 1.01628
 O316 O -0.07949 0.05239 0.96163
 C317 C -0.10130 0.05744 0.98668
 O318 O 0.07734 0.04048 1.05308
 Zr319 Zr 0.03592 0.04283 1.01464
 O320 O -0.01166 0.07738 0.94580
 O321 O -0.05299 0.05975 1.06419
 O322 O 0.02404 0.08389 1.04959
 O323 O 0.08937 0.05816 0.99531
 O324 O 0.02850 0.09165 0.98876
 C325 C 0.00975 0.09952 0.96240
 O326 O -0.06831 0.01596 0.91686
 O327 O 0.04656 -0.07954 0.93624
 O328 O -0.00418 0.01947 0.90863
 O329 O 0.04486 -0.01918 0.91394
 O330 O -0.03109 -0.10660 0.95387
 O331 O -0.07867 -0.06134 0.94123
 C332 C 0.02353 0.00162 0.89682
 H333 H 0.02157 -0.09047 0.99460
 H334 H -0.08884 -0.00916 0.98078
 H335 H 0.04462 0.03739 0.95108
 H336 H 0.01008 0.02075 1.07034
 H337 H -0.10716 -0.09836 0.99338
 H338 H -0.11843 0.00555 1.06146
 H339 H -0.07789 0.06023 1.07509
 H340 H 0.04273 0.10397 1.04642
 H341 H -0.05163 -0.12512 0.95614
 H342 H 0.07199 -0.07994 0.92628
 H343 H 0.11013 -0.02455 0.93833
 H344 H 0.09469 0.08362 1.00207
 H345 H -0.09492 -0.08353 0.94034
 H346 H -0.06873 0.03878 0.90384
 H347 H 0.05928 -0.05914 1.09675
 H348 H 0.08966 0.06466 1.05605
 Zr349 Zr 0.54989 0.48921 0.55855
 O350 O 0.59177 0.51851 0.58589
 O351 O 0.54712 0.44044 0.58401
 O352 O 0.52929 0.49857 0.60706
 O353 O 0.60876 0.45428 0.49815
 O354 O 0.47219 0.52475 0.59853
 O355 O 0.60226 0.46191 0.55399
 O356 O 0.50033 0.40905 0.55608
 O357 O 0.49143 0.47846 0.55685
 O358 O 0.53986 0.45244 0.51976
 O359 O 0.52436 0.53955 0.55089
 O360 O 0.57273 0.51440 0.51604
 Zr361 Zr 0.47671 0.51522 0.46518
 Zr362 Zr 0.46616 0.52810 0.54649
 Zr363 Zr 0.56020 0.47764 0.47744
 Zr364 Zr 0.48208 0.44288 0.51739
 O365 O 0.60833 0.50357 0.45682
 O366 O 0.43386 0.43169 0.54659
 O367 O 0.50215 0.46495 0.47268
 O368 O 0.45432 0.49105 0.50804
 O369 O 0.48554 0.55325 0.50331
 O370 O 0.53478 0.52682 0.46742
 C371 C 0.52662 0.41209 0.57828
 C372 C 0.61961 0.44943 0.52835
 C373 C 0.49821 0.51205 0.61750
 O374 O 0.41602 0.50503 0.56624
 O375 O 0.41874 0.55340 0.52450
 O376 O 0.42391 0.54027 0.46939
 C377 C 0.40657 0.55412 0.49419
 O378 O 0.58916 0.58051 0.53780
 Zr379 Zr 0.54370 0.56266 0.50655
 O380 O 0.47842 0.56441 0.44039
 O381 O 0.46298 0.58093 0.56648
 O382 O 0.52673 0.61088 0.53012
 O383 O 0.59065 0.57861 0.47738
 O384 O 0.52341 0.59748 0.46899
 C385 C 0.49779 0.59346 0.44623
 O386 O 0.43421 0.48660 0.43784
 O387 O 0.56588 0.42438 0.45883
 O388 O 0.49510 0.50105 0.41698
 O389 O 0.55258 0.47584 0.42596
 O390 O 0.49624 0.39195 0.49726
 O391 O 0.44055 0.42336 0.48292
 C392 C 0.52551 0.48597 0.40708
 H393 H 0.55222 0.42888 0.52230
 H394 H 0.42688 0.48594 0.50563
 H395 H 0.54471 0.53782 0.44681
 H396 H 0.53004 0.55613 0.56971
 H397 H 0.43192 0.40504 0.54934
 H398 H 0.40427 0.52417 0.57961
 H399 H 0.43939 0.58146 0.57939
 H400 H 0.53961 0.63146 0.51881
 H401 H 0.48055 0.37314 0.50849
 H402 H 0.58954 0.42416 0.44595
 H403 H 0.62076 0.48521 0.44304
 H404 H 0.59110 0.60544 0.47619
 H405 H 0.42622 0.40283 0.49289
 H406 H 0.42611 0.50267 0.41952
 H407 H 0.59996 0.50231 0.60405
 H408 H 0.59542 0.60628 0.53311
 Zr409 Zr 0.47175 1.03143 0.54532
 O410 O 0.43305 1.02467 0.58468
 O411 O 0.48585 1.08687 0.55219
 O412 O 0.49521 1.02928 0.59406
 O413 O 0.40290 1.04664 0.48426
 O414 O 0.54737 0.99474 0.58905
 O415 O 0.41966 1.05693 0.53838
 O416 O 0.52673 1.09995 0.51029
 O417 O 0.52983 1.03345 0.53573
 O418 O 0.47701 1.05070 0.49672
 O419 O 0.48932 0.97771 0.55068
 O420 O 0.43844 0.99621 0.51481
 Zr421 Zr 0.52214 0.96289 0.46029
 Zr422 Zr 0.54689 0.97933 0.53883
 Zr423 Zr 0.44684 1.01483 0.46609
 Zr424 Zr 0.53434 1.05060 0.48635
 O425 O 0.39486 0.98797 0.45482
 O426 O 0.58784 1.06613 0.50648
 O427 O 0.50423 1.01634 0.45354
 O428 O 0.55474 0.99828 0.49042
 O429 O 0.51664 0.94275 0.50840
 O430 O 0.46426 0.96134 0.46975
 C431 C 0.50617 1.10891 0.53470
 C432 C 0.39739 1.06025 0.51315
 C433 C 0.52378 1.01252 0.60627
 O434 O 0.59967 1.00510 0.54913
 O435 O 0.58996 0.94582 0.52108
 O436 O 0.57057 0.93194 0.46830
 C437 C 0.59351 0.92934 0.49313
 O438 O 0.41786 0.94704 0.55621
 Zr439 Zr 0.45897 0.94355 0.51845
 O440 O 0.50822 0.90810 0.45289
 O441 O 0.55091 0.93316 0.56964
 O442 O 0.47163 0.90442 0.55519
 O443 O 0.40642 0.92511 0.49825
 O444 O 0.46901 0.89376 0.49563
 C445 C 0.48877 0.88556 0.47042
 O446 O 0.56305 0.97139 0.42302
 O447 O 0.44109 1.06132 0.43586
 O448 O 0.49897 0.96429 0.41190
 O449 O 0.44896 1.00187 0.41524
 O450 O 0.52092 1.09093 0.45097
 O451 O 0.57157 1.04994 0.44539
 C452 C 0.47158 0.98200 0.39893
 H453 H 0.46651 1.07501 0.49329
 H454 H 0.58168 0.99855 0.48421
 H455 H 0.44996 0.94537 0.45408
 H456 H 0.48481 0.96826 0.57326
 H457 H 0.59309 1.09154 0.49972
 H458 H 0.61274 0.98971 0.56555
 H459 H 0.57608 0.93457 0.58062
 H460 H 0.45274 0.88428 0.55296
 H461 H 0.54025 1.11073 0.45289
 H462 H 0.41581 1.05948 0.42512
 H463 H 0.38221 1.00281 0.43774
 H464 H 0.40203 0.89995 0.50613
 H465 H 0.58881 1.07143 0.44652
 H466 H 0.56485 0.94842 0.41036
 H467 H 0.43130 1.04833 0.59629
 H468 H 0.40495 0.92316 0.55897
 Zr469 Zr -0.06125 0.50000 1.05700
 O470 O -0.10552 0.47674 1.08525
 O471 O -0.05562 0.54996 1.08034
 O472 O -0.04358 0.49233 1.10712
 O473 O -0.11644 0.53101 0.99061
 O474 O 0.01443 0.46732 1.10223
 O475 O -0.11296 0.52614 1.04710
 O476 O -0.00736 0.57784 1.05235
 O477 O -0.00252 0.50835 1.05729
 O478 O -0.04841 0.53329 1.01640
 O479 O -0.03861 0.44808 1.05435
 O480 O -0.08373 0.47288 1.01492
 Zr481 Zr 0.01264 0.46235 0.96954
 Zr482 Zr 0.02030 0.45694 1.05162
 Zr483 Zr -0.06786 0.50551 0.97425
 Zr484 Zr 0.00978 0.54014 1.01614
 O485 O -0.11543 0.47984 0.95140
 O486 O 0.05799 0.55163 1.04628
 O487 O -0.00932 0.51472 0.97210
 O488 O 0.03520 0.48969 1.01126
 O489 O 0.00045 0.42911 1.01005
 O490 O -0.04588 0.45397 0.96896
 C491 C -0.03309 0.57677 1.07473
 C492 C -0.12891 0.53672 1.01985
 C493 C -0.01221 0.48072 1.11929
 O494 O 0.07206 0.47828 1.07083
 O495 O 0.06558 0.42612 1.03360
 O496 O 0.05965 0.42980 0.97730
 C497 C 0.07542 0.41793 1.00384
 O498 O -0.11172 0.40961 1.03000
 Zr499 Zr -0.05784 0.42250 1.01061
 O500 O 0.00448 0.41199 0.94631
 O501 O 0.01926 0.40649 1.07649
 O502 O -0.05478 0.37773 1.04332
 O503 O -0.09698 0.40085 0.97529
 O504 O -0.02725 0.38199 0.98685
 C505 C -0.00682 0.38287 0.96076
 O506 O 0.06053 0.48385 0.94471
 O507 O -0.07130 0.55783 0.95308
 O508 O 0.00004 0.47591 0.92032
 O509 O -0.05602 0.50468 0.92308
 O510 O -0.00260 0.58924 0.99150
 O511 O 0.05362 0.55541 0.98307
 C512 C -0.02785 0.49238 0.90710
 H513 H -0.06000 0.55737 1.01737
 H514 H 0.06294 0.49271 1.00959
 H515 H -0.05515 0.44217 0.94826
 H516 H -0.04571 0.43374 1.07415
 H517 H 0.06096 0.57835 1.04770
 H518 H 0.08207 0.45992 1.08631
 H519 H 0.04246 0.40595 1.09040
 H520 H -0.06774 0.35698 1.03201
 H521 H 0.01251 0.60888 1.00247
 H522 H -0.09378 0.55759 0.93820
 H523 H -0.12576 0.49754 0.93545
 H524 H -0.09656 0.37413 0.97759
 H525 H 0.06657 0.57777 0.99137
 H526 H 0.06733 0.46611 0.92740
 H527 H -0.11296 0.49537 1.10150
 H528 H -0.11094 0.41734 1.05350
 Zr529 Zr -0.02612 0.46859 0.46509
 O530 O -0.06724 0.46910 0.42660
 O531 O -0.00680 0.41601 0.45919
 O532 O -0.00302 0.46842 0.41636
 O533 O -0.08894 0.45299 0.52941
 O534 O 0.04571 0.51014 0.41744
 O535 O -0.07753 0.43831 0.47557
 O536 O 0.04192 0.41116 0.49636
 O537 O 0.03245 0.47453 0.47275
 O538 O -0.01499 0.45212 0.51385
 O539 O -0.01250 0.52364 0.45632
 O540 O -0.05850 0.50194 0.49558
 Zr541 Zr 0.02633 0.54793 0.54520
 Zr542 Zr 0.04566 0.52978 0.46639
 Zr543 Zr -0.04433 0.48688 0.54428
 Zr544 Zr 0.04279 0.46018 0.52212
 O545 O -0.09692 0.50772 0.55852
 O546 O 0.09773 0.45180 0.50373
 O547 O 0.01346 0.49290 0.55490
 O548 O 0.05864 0.51442 0.51509
 O549 O 0.01557 0.56498 0.49652
 O550 O -0.03184 0.54152 0.53748
 C551 C 0.02040 0.39901 0.47302
 C552 C -0.09805 0.43729 0.50210
 C553 C 0.02435 0.48658 0.40248
 O554 O 0.09951 0.50973 0.45536
 O555 O 0.08799 0.56812 0.48083
 O556 O 0.07218 0.58363 0.53359
 C557 C 0.09332 0.58635 0.50779
 O558 O -0.08372 0.54837 0.45033
 Zr559 Zr -0.04241 0.55627 0.48847
 O560 O 0.00598 0.59993 0.55225
 O561 O 0.04320 0.57400 0.43316
 O562 O -0.03118 0.59681 0.45244
 O563 O -0.09700 0.56611 0.50696
 O564 O -0.04065 0.60603 0.51325
 C565 C -0.02033 0.61748 0.53770
 O566 O 0.07062 0.54759 0.58091
 O567 O -0.04332 0.44077 0.57544
 O568 O 0.00692 0.54581 0.59484
 O569 O -0.04067 0.50304 0.59395
 O570 O 0.03254 0.41827 0.55707
 O571 O 0.08074 0.46648 0.56304
 C572 C -0.01894 0.52613 0.60897
 H573 H -0.02321 0.42670 0.51795
 H574 H 0.08590 0.51742 0.52026
 H575 H -0.04697 0.55561 0.55317
 H576 H -0.01877 0.53077 0.43329
 H577 H 0.10588 0.42777 0.51163
 H578 H 0.11046 0.52564 0.43797
 H579 H 0.06765 0.57517 0.42149
 H580 H -0.05070 0.61541 0.45459
 H581 H 0.05268 0.40033 0.55463
 H582 H -0.06763 0.43978 0.58734
 H583 H -0.10682 0.49206 0.57657
 H584 H -0.10485 0.59000 0.49846
 H585 H 0.09702 0.44511 0.56451
 H586 H 0.07060 0.57125 0.59266
 H587 H -0.06765 0.44472 0.41614
 H588 H -0.09547 0.57178 0.44513
 Zr589 Zr 0.45966 -0.02666 -0.04477
 O590 O 0.41799 -0.02090 -0.08226
 O591 O 0.47752 -0.07906 -0.05421
 O592 O 0.48299 -0.02650 -0.09342
 O593 O 0.39789 -0.04468 0.01990
 O594 O 0.53232 0.01469 -0.09068
 O595 O 0.40834 -0.05749 -0.03453
 O596 O 0.53526 -0.07706 -0.02912
 O597 O 0.51838 -0.02150 -0.03739
 O598 O 0.47125 -0.04659 0.00280
 O599 O 0.47543 0.02843 -0.05124
 O600 O 0.42869 0.00558 -0.01228
 Zr601 Zr 0.51573 0.04713 0.03813
 Zr602 Zr 0.53395 0.03296 -0.04127
 Zr603 Zr 0.44362 -0.01242 0.03540
 Zr604 Zr 0.52940 -0.04021 0.01022
 O605 O 0.39201 0.00869 0.05182
 O606 O 0.58730 -0.04767 0.00015
 O607 O 0.50170 -0.00829 0.04500
 O608 O 0.54686 0.01423 0.00642
 O609 O 0.50477 0.06684 -0.00956
 O610 O 0.45736 0.04254 0.03095
 C611 C 0.51112 -0.09037 -0.05011
 C612 C 0.38833 -0.05965 -0.00766
 C613 C 0.51109 -0.00854 -0.10636
 O614 O 0.58645 0.01118 -0.05431
 O615 O 0.57927 0.06757 -0.02498
 O616 O 0.56168 0.08319 0.02720
 C617 C 0.58417 0.08563 0.00221
 O618 O 0.40340 0.05321 -0.05415
 Zr619 Zr 0.44650 0.05974 -0.01738
 O620 O 0.49803 0.10013 0.04630
 O621 O 0.53299 0.07943 -0.07182
 O622 O 0.45586 0.10051 -0.05363
 O623 O 0.39389 0.07165 0.00413
 O624 O 0.45274 0.10947 0.00671
 C625 C 0.47413 0.11984 0.03081
 O626 O 0.56030 0.04413 0.07337
 O627 O 0.44488 -0.06031 0.06421
 O628 O 0.49700 0.04252 0.08801
 O629 O 0.44869 0.00055 0.08584
 O630 O 0.51653 -0.09040 0.03358
 O631 O 0.56116 -0.04080 0.05523
 C632 C 0.47124 0.02222 0.10168
 H633 H 0.46230 -0.07208 0.00501
 H634 H 0.57413 0.01621 0.01183
 H635 H 0.44326 0.05670 0.04735
 H636 H 0.46919 0.03678 -0.07393
 H637 H 0.59269 -0.07344 0.00470
 H638 H 0.59777 0.02756 -0.07116
 H639 H 0.55697 0.07984 -0.08421
 H640 H 0.43643 0.11906 -0.05072
 H641 H 0.53586 -0.10750 0.02625
 H642 H 0.42075 -0.06190 0.07636
 H643 H 0.38203 -0.00799 0.06907
 H644 H 0.38673 0.09603 -0.00364
 H645 H 0.57269 -0.06477 0.05816
 H646 H 0.56120 0.06739 0.08577
 H647 H 0.41577 -0.04450 -0.09402
 H648 H 0.39021 0.07634 -0.05705
 Zr649 Zr 0.51982 0.55222 -0.02521
 O650 O 0.56479 0.54054 -0.05732
 O651 O 0.50993 0.60662 -0.03781
 O652 O 0.50391 0.54994 -0.07632
 O653 O 0.57969 0.56119 0.04301
 O654 O 0.44457 0.52429 -0.07621
 O655 O 0.57244 0.57825 -0.01097
 O656 O 0.47027 0.62574 0.00240
 O657 O 0.46143 0.55979 -0.02155
 O658 O 0.51050 0.57292 0.02225
 O659 O 0.49426 0.50038 -0.03231
 O660 O 0.54192 0.51380 0.00834
 Zr661 Zr 0.44668 0.49215 0.05487
 Zr662 Zr 0.43623 0.50798 -0.02662
 Zr663 Zr 0.52991 0.53430 0.05546
 Zr664 Zr 0.45273 0.57874 0.02675
 O665 O 0.57701 0.50357 0.06990
 O666 O 0.40447 0.59875 0.00193
 O667 O 0.47245 0.54309 0.06317
 O668 O 0.42460 0.52907 0.02050
 O669 O 0.45505 0.47000 0.00762
 O670 O 0.50436 0.48328 0.05040
 C671 C 0.49127 0.63114 -0.02278
 C672 C 0.59075 0.57800 0.01709
 C673 C 0.47355 0.53786 -0.09116
 O674 O 0.38807 0.53715 -0.04080
 O675 O 0.38852 0.47530 -0.01412
 O676 O 0.39351 0.46916 0.04220
 C677 C 0.37640 0.46395 0.01414
 O678 O 0.55911 0.45896 -0.02962
 Zr679 Zr 0.51284 0.46359 0.00306
 O680 O 0.44539 0.43686 0.06241
 O681 O 0.43031 0.46343 -0.05955
 O682 O 0.49655 0.42580 -0.03443
 O683 O 0.55869 0.43939 0.02815
 O684 O 0.48963 0.41697 0.02633
 C685 C 0.46363 0.41205 0.04809
 O686 O 0.40555 0.50834 0.08908
 O687 O 0.53721 0.57964 0.08733
 O688 O 0.46733 0.48754 0.10486
 O689 O 0.52357 0.51895 0.10481
 O690 O 0.46843 0.61912 0.06211
 O691 O 0.41105 0.58293 0.06396
 C692 C 0.49801 0.49995 0.11926
 H693 H 0.52339 0.59656 0.02659
 H694 H 0.39720 0.53235 0.02347
 H695 H 0.51411 0.46578 0.06678
 H696 H 0.50016 0.48996 -0.05420
 H697 H 0.40241 0.62463 0.00805
 H698 H 0.37537 0.52293 -0.05873
 H699 H 0.40691 0.46694 -0.07274
 H700 H 0.50926 0.40279 -0.02941
 H701 H 0.45258 0.64047 0.05803
 H702 H 0.56094 0.57626 0.10009
 H703 H 0.59019 0.51699 0.08813
 H704 H 0.55793 0.41331 0.02224
 H705 H 0.39808 0.60624 0.06150
 H706 H 0.39749 0.48628 0.10141
 H707 H 0.57106 0.56311 -0.06966
 H708 H 0.56560 0.43314 -0.03190
 Zr709 Zr 0.04919 1.03097 0.45368
 O710 O 0.09418 1.00590 0.42934
 O711 O 0.04675 1.07977 0.42882
 O712 O 0.03429 1.02299 0.40286
 O713 O 0.10628 1.05622 0.52150
 O714 O -0.02829 1.00702 0.40555
 O715 O 0.10024 1.06022 0.46510
 O716 O 0.00174 1.10959 0.45756
 O717 O -0.00814 1.04401 0.45291
 O718 O 0.03909 1.06291 0.49554
 O719 O 0.01898 0.98130 0.45345
 O720 O 0.06727 0.99975 0.49436
 Zr721 Zr -0.03229 0.99539 0.53811
 Zr722 Zr -0.03809 0.99504 0.45545
 Zr723 Zr 0.05487 1.03128 0.53612
 Zr724 Zr -0.01765 1.07418 0.49542
 O725 O 0.10017 1.00125 0.55542
 O726 O -0.06601 1.09033 0.46835
 O727 O -0.00233 1.04537 0.53850
 O728 O -0.05017 1.02622 0.49731
 O729 O -0.02323 0.96386 0.49598
 O730 O 0.02478 0.98191 0.53826
 C731 C 0.02577 1.10676 0.43390
 C732 C 0.11671 1.06833 0.49307
 C733 C 0.00171 1.01546 0.38945
 O734 O -0.08582 1.02205 0.43681
 O735 O -0.08648 0.96568 0.47041
 O736 O -0.08465 0.96821 0.52708
 C737 C -0.09905 0.95698 0.49917
 O738 O 0.08224 0.93907 0.46816
 Zr739 Zr 0.03357 0.95192 0.49567
 O740 O -0.03703 0.94313 0.55660
 O741 O -0.04418 0.94660 0.42753
 O742 O 0.02019 0.90801 0.46329
 O743 O 0.07208 0.92744 0.52896
 O744 O 0.00028 0.91279 0.52075
 C745 C -0.02494 0.91415 0.54349
 O746 O -0.07486 1.02152 0.56477
 O747 O 0.06256 1.08086 0.56203
 O748 O -0.01506 1.00110 0.58868
 O749 O 0.04548 1.02365 0.58708
 O750 O 0.00155 1.12298 0.51858
 O751 O -0.05626 1.09140 0.53178
 C752 C 0.01648 1.01148 0.60279
 H753 H 0.05209 1.08689 0.49570
 H754 H -0.07740 1.03130 0.49880
 H755 H 0.03185 0.96714 0.55772
 H756 H 0.02456 0.96689 0.43345
 H757 H -0.06531 1.11718 0.46776
 H758 H -0.09785 1.00578 0.42000
 H759 H -0.06639 0.94943 0.41268
 H760 H 0.03082 0.88593 0.47333
 H761 H -0.01218 1.14304 0.50794
 H762 H 0.08546 1.07857 0.57616
 H763 H 0.11326 1.01691 0.57213
 H764 H 0.06821 0.90089 0.52658
 H765 H -0.06805 1.11408 0.52434
 H766 H -0.08532 1.00330 0.58044
 H767 H 0.10402 1.02370 0.41300
 H768 H 0.08926 0.91375 0.47277
 Zr769 Zr 0.74476 0.28664 0.20161
 O770 O 0.77772 0.32501 0.17500
 O771 O 0.69457 0.28568 0.17481
 O772 O 0.75205 0.26671 0.15291
 O773 O 0.71482 0.34594 0.26258
 O774 O 0.77304 0.20916 0.16012
 O775 O 0.72080 0.33899 0.20665
 O776 O 0.65910 0.24326 0.20247
 O777 O 0.72871 0.23151 0.20285
 O778 O 0.70625 0.28016 0.24018
 O779 O 0.79492 0.25789 0.20816
 O780 O 0.77393 0.30612 0.24410
 Zr781 Zr 0.76854 0.21396 0.29395
 Zr782 Zr 0.77812 0.20319 0.21208
 Zr783 Zr 0.73542 0.29728 0.28262
 Zr784 Zr 0.69224 0.22539 0.24257
 O785 O 0.76643 0.34169 0.30327
 O786 O 0.67413 0.17886 0.21543
 O787 O 0.71818 0.24241 0.28723
 O788 O 0.74014 0.19491 0.25116
 O789 O 0.80754 0.21902 0.25538
 O790 O 0.78462 0.26891 0.29171
 C791 C 0.66458 0.26642 0.17909
 C792 C 0.71020 0.35686 0.23251
 C793 C 0.76201 0.23556 0.14181
 O794 O 0.74867 0.15738 0.19223
 O795 O 0.80041 0.15533 0.23200
 O796 O 0.79150 0.16149 0.28774
 C797 C 0.80210 0.14351 0.26196
 O798 O 0.84296 0.31662 0.22196
 Zr799 Zr 0.82175 0.27403 0.25248
 O800 O 0.81821 0.21744 0.32199
 O801 O 0.83179 0.19562 0.19110
 O802 O 0.86918 0.25386 0.22749
 O803 O 0.84398 0.31708 0.28227
 O804 O 0.85737 0.25098 0.28892
 C805 C 0.85019 0.23247 0.31533
 O806 O 0.73965 0.17305 0.32110
 O807 O 0.68124 0.30653 0.30199
 O808 O 0.75217 0.23183 0.34176
 O809 O 0.73535 0.29067 0.33420
 O810 O 0.64269 0.24513 0.26434
 O811 O 0.66539 0.18564 0.27266
 C812 C 0.74152 0.26297 0.35246
 H813 H 0.68275 0.29377 0.23723
 H814 H 0.73263 0.16902 0.25342
 H815 H 0.79691 0.27821 0.31228
 H816 H 0.81201 0.26197 0.18920
 H817 H 0.64619 0.17927 0.21389
 H818 H 0.76658 0.14457 0.17791
 H819 H 0.82967 0.17329 0.17747
 H820 H 0.89206 0.26410 0.23873
 H821 H 0.62102 0.23304 0.25272
 H822 H 0.68313 0.32937 0.31493
 H823 H 0.74875 0.35504 0.31738
 H824 H 0.87182 0.31507 0.28268
 H825 H 0.67285 0.19122 0.29587
 H826 H 0.75668 0.16582 0.33951
 H827 H 0.76147 0.33383 0.15669
 H828 H 0.87046 0.31996 0.22585
 Zr829 Zr 0.79249 0.72851 0.70473
 O830 O 0.78994 0.69015 0.66552
 O831 O 0.84739 0.74879 0.69523
 O832 O 0.78566 0.74864 0.65589
 O833 O 0.81527 0.66556 0.76636
 O834 O 0.74519 0.79543 0.66066
 O835 O 0.82269 0.68025 0.71188
 O836 O 0.85870 0.79232 0.73452
 O837 O 0.78927 0.78435 0.71345
 O838 O 0.81500 0.73727 0.75233
 O839 O 0.73478 0.74004 0.70044
 O840 O 0.76013 0.69516 0.73665
 Zr841 Zr 0.72016 0.77399 0.79064
 Zr842 Zr 0.73142 0.79561 0.71135
 Zr843 Zr 0.78138 0.70680 0.78457
 Zr844 Zr 0.80937 0.79231 0.76208
 O845 O 0.75971 0.65513 0.79852
 O846 O 0.81841 0.84546 0.74334
 O847 O 0.77780 0.76208 0.79627
 O848 O 0.75298 0.80663 0.75898
 O849 O 0.69671 0.76507 0.74340
 O850 O 0.72418 0.71828 0.78206
 C851 C 0.86827 0.77330 0.70964
 C852 C 0.82782 0.65953 0.73719
 C853 C 0.76557 0.77410 0.64359
 O854 O 0.75358 0.84733 0.69824
 O855 O 0.69625 0.83659 0.72934
 O856 O 0.68450 0.81868 0.78245
 C857 C 0.68058 0.84060 0.75772
 O858 O 0.69936 0.67211 0.69444
 Zr859 Zr 0.70329 0.70969 0.73421
 O860 O 0.66662 0.75254 0.80181
 O861 O 0.68108 0.79419 0.68265
 O862 O 0.65752 0.72014 0.70165
 O863 O 0.69573 0.65583 0.75142
 O864 O 0.65419 0.70917 0.76265
 C865 C 0.64582 0.72732 0.78846
 O866 O 0.72448 0.81509 0.82733
 O867 O 0.83211 0.70793 0.81281
 O868 O 0.72786 0.75469 0.83939
 O869 O 0.76934 0.70857 0.83558
 O870 O 0.85533 0.78262 0.79478
 O871 O 0.80749 0.82760 0.80371
 C872 C 0.74812 0.72959 0.85212
 H873 H 0.84155 0.72982 0.75445
 H874 H 0.75159 0.83258 0.76488
 H875 H 0.71076 0.70297 0.79849
 H876 H 0.72422 0.73404 0.67824
 H877 H 0.84433 0.85350 0.74985
 H878 H 0.73567 0.85782 0.68204
 H879 H 0.67990 0.81775 0.67095
 H880 H 0.63851 0.70023 0.70440
 H881 H 0.87415 0.80267 0.79203
 H882 H 0.83361 0.68417 0.82411
 H883 H 0.77734 0.64542 0.81538
 H884 H 0.66963 0.64787 0.74534
 H885 H 0.82969 0.84441 0.80351
 H886 H 0.70092 0.81397 0.84043
 H887 H 0.81462 0.69111 0.65403
 H888 H 0.72521 0.66358 0.69070
 Zr889 Zr 0.23336 0.21920 0.78784
 O890 O 0.24101 0.17982 0.82524
 O891 O 0.17618 0.22864 0.79306
 O892 O 0.22784 0.24178 0.83640
 O893 O 0.22723 0.15771 0.72238
 O894 O 0.26446 0.29371 0.83622
 O895 O 0.20635 0.16798 0.77480
 O896 O 0.16478 0.27267 0.75472
 O897 O 0.23171 0.27564 0.78073
 O898 O 0.21650 0.22749 0.73855
 O899 O 0.28807 0.23996 0.79854
 O900 O 0.27296 0.19266 0.75841
 Zr901 Zr 0.31093 0.27930 0.71065
 Zr902 Zr 0.28706 0.29590 0.78850
 Zr903 Zr 0.25726 0.20427 0.70922
 Zr904 Zr 0.21661 0.28320 0.73116
 O905 O 0.28683 0.15746 0.69553
 O906 O 0.19935 0.33310 0.75138
 O907 O 0.25577 0.25990 0.69939
 O908 O 0.27075 0.30568 0.73942
 O909 O 0.32828 0.27158 0.75987
 O910 O 0.31199 0.22332 0.71797
 C911 C 0.15461 0.25057 0.77777
 C912 C 0.20866 0.14836 0.74808
 C913 C 0.24241 0.27064 0.85049
 O914 O 0.25958 0.34495 0.79837
 O915 O 0.32263 0.34072 0.77575
 O916 O 0.34234 0.32695 0.72368
 C917 C 0.34223 0.34746 0.74963
 O918 O 0.32212 0.17504 0.80502
 Zr919 Zr 0.32667 0.21549 0.76768
 O920 O 0.36798 0.26667 0.70600
 O921 O 0.33162 0.29938 0.82380
 O922 O 0.36534 0.23093 0.80599
 O923 O 0.34552 0.16548 0.74884
 O924 O 0.37915 0.22464 0.74625
 C925 C 0.38923 0.24469 0.72195
 O926 O 0.30630 0.32139 0.67526
 O927 O 0.21035 0.19841 0.67644
 O928 O 0.31195 0.26081 0.66065
 O929 O 0.27339 0.21046 0.65982
 O930 O 0.17671 0.26846 0.69362
 O931 O 0.21753 0.32161 0.69190
 C932 C 0.29448 0.23426 0.64557
 H933 H 0.19147 0.21635 0.73321
 H934 H 0.27055 0.33194 0.73445
 H935 H 0.32920 0.21096 0.70273
 H936 H 0.29550 0.23521 0.82184
 H937 H 0.17293 0.33674 0.74407
 H938 H 0.27380 0.35718 0.81669
 H939 H 0.32917 0.32280 0.83553
 H940 H 0.38705 0.21457 0.80488
 H941 H 0.15440 0.28378 0.69645
 H942 H 0.21300 0.17514 0.66448
 H943 H 0.27259 0.14587 0.67689
 H944 H 0.37082 0.16120 0.75858
 H945 H 0.19314 0.33412 0.69096
 H946 H 0.33114 0.32419 0.66430
 H947 H 0.21598 0.17542 0.83543
 H948 H 0.34754 0.16626 0.81071
 Zr949 Zr 0.26045 0.78394 0.28149
 O950 O 0.22928 0.82271 0.30753
 O951 O 0.31185 0.78680 0.30706
 O952 O 0.25353 0.76774 0.33164
 O953 O 0.27874 0.84129 0.21513
 O954 O 0.23890 0.70724 0.32779
 O955 O 0.28186 0.83748 0.27159
 O956 O 0.34713 0.74559 0.27973
 O957 O 0.27826 0.73018 0.28217
 O958 O 0.29666 0.77787 0.24135
 O959 O 0.21104 0.75110 0.27847
 O960 O 0.22804 0.79758 0.23930
 Zr961 Zr 0.23467 0.70270 0.19447
 Zr962 Zr 0.22953 0.69755 0.27692
 Zr963 Zr 0.26423 0.78892 0.19927
 Zr964 Zr 0.31284 0.72417 0.24126
 O965 O 0.23081 0.82814 0.17536
 O966 O 0.33337 0.68004 0.26924
 O967 O 0.28393 0.73573 0.19692
 O968 O 0.26580 0.68908 0.23702
 O969 O 0.19741 0.70770 0.23420
 O970 O 0.21609 0.75613 0.19404
 C971 C 0.34183 0.76875 0.30296
 C972 C 0.28597 0.85474 0.24384
 C973 C 0.24695 0.73618 0.34448
 O974 O 0.26066 0.65437 0.29698
 O975 O 0.20507 0.64789 0.26073
 O976 O 0.21196 0.64996 0.20449
 C977 C 0.20140 0.63399 0.23157
 O978 O 0.15220 0.79923 0.26363
 Zr979 Zr 0.18124 0.76137 0.23451
 O980 O 0.18402 0.69752 0.16874
 O981 O 0.17817 0.68852 0.30221
 O982 O 0.13545 0.73796 0.26085
 O983 O 0.15832 0.80352 0.20557
 O984 O 0.14648 0.73467 0.19852
 C985 C 0.15267 0.71240 0.17459
 O986 O 0.26616 0.66324 0.16965
 O987 O 0.31761 0.80195 0.17891
 O988 O 0.24468 0.71907 0.14468
 O989 O 0.26227 0.77888 0.14808
 O990 O 0.36174 0.74743 0.21918
 O991 O 0.33529 0.68744 0.20646
 C992 C 0.25381 0.75006 0.13151
 H993 H 0.31946 0.79385 0.24266
 H994 H 0.27378 0.66359 0.23591
 H995 H 0.20234 0.76299 0.17359
 H996 H 0.19464 0.75524 0.29775
 H997 H 0.36126 0.68262 0.27009
 H998 H 0.24395 0.64153 0.31288
 H999 H 0.18168 0.66710 0.31662
 H1000 H 0.11195 0.74548 0.24948
 H1001 H 0.38394 0.73660 0.23015
 H1002 H 0.31419 0.82343 0.16454
 H1003 H 0.24751 0.84213 0.16023
 H1004 H 0.13067 0.79887 0.20429
 H1005 H 0.36081 0.68039 0.21385
 H1006 H 0.24915 0.65235 0.15245
 H1007 H 0.24670 0.83382 0.32429
 H1008 H 0.17006 0.81983 0.26769
 Zr1009 Zr 0.24522 0.80005 0.68889
 O1010 O 0.27724 0.84101 0.66473
 O1011 O 0.19685 0.79823 0.65969
 O1012 O 0.25641 0.78206 0.63989
 O1013 O 0.20899 0.85468 0.75181
 O1014 O 0.28189 0.72620 0.64688
 O1015 O 0.21837 0.85103 0.69595
 O1016 O 0.16330 0.75162 0.68326
 O1017 O 0.23255 0.74415 0.68764
 O1018 O 0.20504 0.78984 0.72555
 O1019 O 0.29656 0.77360 0.69675
 O1020 O 0.27056 0.81908 0.73333
 Zr1021 Zr 0.26844 0.72443 0.77928
 Zr1022 Zr 0.28298 0.71787 0.69833
 Zr1023 Zr 0.23093 0.80599 0.77007
 Zr1024 Zr 0.19405 0.73450 0.72518
 O1025 O 0.25808 0.85053 0.79425
 O1026 O 0.18022 0.68788 0.69641
 O1027 O 0.21671 0.75031 0.77158
 O1028 O 0.24303 0.70608 0.73494
 O1029 O 0.30918 0.73371 0.74286
 O1030 O 0.28148 0.78004 0.78014
 C1031 C 0.16843 0.77639 0.66120
 C1032 C 0.20569 0.86710 0.72218
 C1033 C 0.26978 0.75212 0.62870
 O1034 O 0.25737 0.67231 0.67441
 O1035 O 0.30477 0.66929 0.71796
 O1036 O 0.29040 0.67230 0.77287
 C1037 C 0.30321 0.65577 0.74739
 O1038 O 0.33987 0.83416 0.71360
 Zr1039 Zr 0.31983 0.78968 0.74245
 O1040 O 0.31989 0.72428 0.80532
 O1041 O 0.33875 0.71350 0.68097
 O1042 O 0.37030 0.77349 0.71959
 O1043 O 0.33649 0.83328 0.77412
 O1044 O 0.35487 0.76866 0.77983
 C1045 C 0.35026 0.74337 0.80142
 O1046 O 0.23872 0.68291 0.80513
 O1047 O 0.17504 0.81117 0.78708
 O1048 O 0.25163 0.73932 0.82723
 O1049 O 0.22843 0.79616 0.82122
 O1050 O 0.14198 0.75121 0.74454
 O1051 O 0.16685 0.69282 0.75281
 C1052 C 0.23721 0.76841 0.83855
 H1053 H 0.18100 0.80239 0.72191
 H1054 H 0.23631 0.67991 0.73581
 H1055 H 0.29265 0.78833 0.80152
 H1056 H 0.31452 0.77935 0.67877
 H1057 H 0.15245 0.68718 0.69310
 H1058 H 0.27721 0.66073 0.66122
 H1059 H 0.33891 0.69168 0.66665
 H1060 H 0.39168 0.78523 0.73187
 H1061 H 0.12181 0.73920 0.73096
 H1062 H 0.17486 0.83298 0.80146
 H1063 H 0.23892 0.86184 0.80837
 H1064 H 0.36441 0.83356 0.77579
 H1065 H 0.17277 0.69768 0.77647
 H1066 H 0.25532 0.67449 0.82343
 H1067 H 0.26109 0.84993 0.64639
 H1068 H 0.36664 0.83962 0.71934
 Zr1069 Zr 0.26834 0.20523 0.19633
 O1070 O 0.24979 0.16481 0.16212
 O1071 O 0.32452 0.21136 0.18192
 O1072 O 0.26418 0.22424 0.14681
 O1073 O 0.29099 0.14568 0.26067
 O1074 O 0.23476 0.27827 0.15197
 O1075 O 0.29409 0.15514 0.20482
 O1076 O 0.34783 0.25740 0.21465
 O1077 O 0.27594 0.26161 0.20040
 O1078 O 0.29710 0.21462 0.24122
 O1079 O 0.21368 0.22586 0.19511
 O1080 O 0.23530 0.17984 0.23320
 Zr1081 Zr 0.21641 0.26879 0.28370
 Zr1082 Zr 0.22129 0.28216 0.20223
 Zr1083 Zr 0.26352 0.19203 0.27817
 Zr1084 Zr 0.30291 0.27053 0.24599
 O1085 O 0.23348 0.14614 0.29632
 O1086 O 0.31762 0.31882 0.22029
 O1087 O 0.27130 0.24822 0.28497
 O1088 O 0.24962 0.29378 0.24693
 O1089 O 0.18748 0.25968 0.23903
 O1090 O 0.20903 0.21253 0.27984
 C1091 C 0.35118 0.23266 0.19245
 C1092 C 0.30091 0.13667 0.23124
 C1093 C 0.25037 0.25354 0.13484
 O1094 O 0.24646 0.33203 0.18739
 O1095 O 0.18854 0.32557 0.21964
 O1096 O 0.18410 0.31494 0.27522
 C1097 C 0.17619 0.33286 0.24883
 O1098 O 0.17299 0.15385 0.20892
 Zr1099 Zr 0.18215 0.20369 0.23410
 O1100 O 0.16054 0.25977 0.29933
 O1101 O 0.17077 0.28352 0.17384
 O1102 O 0.13933 0.20858 0.19734
 O1103 O 0.15758 0.16258 0.26411
 O1104 O 0.13568 0.22872 0.25523
 C1105 C 0.13249 0.24756 0.28173
 O1106 O 0.23318 0.31291 0.31464
 O1107 O 0.31566 0.18513 0.30336
 O1108 O 0.22800 0.25412 0.33318
 O1109 O 0.26030 0.20158 0.32948
 O1110 O 0.35051 0.25807 0.27580
 O1111 O 0.31271 0.31019 0.28356
 C1112 C 0.24670 0.22798 0.34592
 H1113 H 0.32213 0.20343 0.24262
 H1114 H 0.25214 0.32025 0.25072
 H1115 H 0.19460 0.20247 0.29874
 H1116 H 0.20103 0.22021 0.17365
 H1117 H 0.34530 0.32252 0.22266
 H1118 H 0.22913 0.34279 0.17086
 H1119 H 0.17166 0.30646 0.16109
 H1120 H 0.11729 0.19383 0.20485
 H1121 H 0.37170 0.27429 0.26892
 H1122 H 0.31338 0.16249 0.31649
 H1123 H 0.25020 0.13483 0.31299
 H1124 H 0.13026 0.16157 0.25858
 H1125 H 0.33592 0.32447 0.27842
 H1126 H 0.21216 0.31737 0.33007
 H1127 H 0.27157 0.15904 0.14796
 H1128 H 0.18395 0.15700 0.18663
 Zr1129 Zr 0.72116 0.71527 0.29093
 O1130 O 0.72637 0.67487 0.32777
 O1131 O 0.66500 0.73004 0.29688
 O1132 O 0.71760 0.73699 0.34016
 O1133 O 0.71036 0.65444 0.22526
 O1134 O 0.75570 0.78791 0.33917
 O1135 O 0.69071 0.66557 0.27793
 O1136 O 0.65731 0.77605 0.25975
 O1137 O 0.72186 0.77170 0.28309
 O1138 O 0.70506 0.72381 0.24147
 O1139 O 0.77672 0.73439 0.30144
 O1140 O 0.76036 0.68710 0.26205
 Zr1141 Zr 0.80104 0.77219 0.21398
 Zr1142 Zr 0.77740 0.79043 0.29127
 Zr1143 Zr 0.74529 0.69850 0.21266
 Zr1144 Zr 0.70757 0.77942 0.23327
 O1145 O 0.77275 0.64991 0.20108
 O1146 O 0.69380 0.83222 0.24921
 O1147 O 0.74572 0.75403 0.20214
 O1148 O 0.76193 0.80047 0.24205
 O1149 O 0.81776 0.76453 0.26321
 O1150 O 0.80082 0.71621 0.22139
 C1151 C 0.64608 0.75556 0.28348
 C1152 C 0.69059 0.64637 0.25078
 C1153 C 0.73370 0.76525 0.35404
 O1154 O 0.75002 0.83928 0.30207
 O1155 O 0.81247 0.83537 0.27755
 O1156 O 0.83471 0.81787 0.22739
 C1157 C 0.83389 0.83990 0.25216
 O1158 O 0.80810 0.66666 0.30677
 Zr1159 Zr 0.81506 0.70857 0.27109
 O1160 O 0.85809 0.76070 0.21066
 O1161 O 0.82294 0.79381 0.32558
 O1162 O 0.85213 0.72007 0.31164
 O1163 O 0.83531 0.66007 0.25027
 O1164 O 0.86924 0.72131 0.25299
 C1165 C 0.87998 0.74196 0.22912
 O1166 O 0.79648 0.81409 0.17840
 O1167 O 0.69960 0.69425 0.17843
 O1168 O 0.80379 0.75342 0.16453
 O1169 O 0.76382 0.70401 0.16359
 O1170 O 0.66436 0.76455 0.19868
 O1171 O 0.71115 0.81348 0.19090
 C1172 C 0.78598 0.72720 0.14948
 H1173 H 0.67931 0.71418 0.23648
 H1174 H 0.76260 0.82661 0.23657
 H1175 H 0.81846 0.70385 0.20651
 H1176 H 0.78407 0.72935 0.32470
 H1177 H 0.66813 0.83727 0.24068
 H1178 H 0.76495 0.85160 0.31991
 H1179 H 0.82070 0.81714 0.33749
 H1180 H 0.87332 0.70312 0.31036
 H1181 H 0.64398 0.78227 0.20093
 H1182 H 0.70225 0.67120 0.16613
 H1183 H 0.75883 0.63887 0.18200
 H1184 H 0.86077 0.65626 0.25985
 H1185 H 0.68763 0.82719 0.18851
 H1186 H 0.82161 0.81746 0.16809
 H1187 H 0.70125 0.67185 0.33815
 H1188 H 0.83256 0.65493 0.31073
 Zr1189 Zr 0.77575 0.29343 0.79396
 O1190 O 0.74522 0.33326 0.81927
 O1191 O 0.82739 0.29524 0.81970
 O1192 O 0.76751 0.27882 0.84460
 O1193 O 0.78858 0.35026 0.72622
 O1194 O 0.75776 0.21750 0.84145
 O1195 O 0.79645 0.34703 0.78245
 O1196 O 0.86276 0.25766 0.78851
 O1197 O 0.79580 0.24032 0.79412
 O1198 O 0.80969 0.28787 0.75207
 O1199 O 0.72760 0.25861 0.79302
 O1200 O 0.74061 0.30543 0.75285
 Zr1201 Zr 0.74795 0.21000 0.70875
 Zr1202 Zr 0.74847 0.20588 0.79121
 Zr1203 Zr 0.77448 0.29729 0.71124
 Zr1204 Zr 0.82780 0.23484 0.75146
 O1205 O 0.73779 0.33461 0.68865
 O1206 O 0.85204 0.19162 0.77823
 O1207 O 0.79589 0.24480 0.70846
 O1208 O 0.78226 0.19772 0.74972
 O1209 O 0.71383 0.21522 0.75035
 O1210 O 0.72722 0.26266 0.70842
 C1211 C 0.85775 0.27834 0.81371
 C1212 C 0.79803 0.36417 0.75437
 C1213 C 0.76225 0.24719 0.85783
 O1214 O 0.78350 0.16520 0.81052
 O1215 O 0.72468 0.15546 0.77644
 O1216 O 0.72432 0.15785 0.71981
 C1217 C 0.71533 0.14283 0.74770
 O1218 O 0.67384 0.31098 0.77942
 Zr1219 Zr 0.69493 0.26787 0.75059
 O1220 O 0.69500 0.20017 0.68836
 O1221 O 0.69895 0.19376 0.81834
 O1222 O 0.65174 0.24620 0.78125
 O1223 O 0.66674 0.30454 0.71894
 O1224 O 0.65812 0.23526 0.72081
 C1225 C 0.66312 0.21123 0.69809
 O1226 O 0.77966 0.17118 0.68336
 O1227 O 0.82589 0.31223 0.68820
 O1228 O 0.75327 0.22601 0.65827
 O1229 O 0.77047 0.28604 0.66023
 O1230 O 0.87466 0.25973 0.72751
 O1231 O 0.84987 0.19937 0.71538
 C1232 C 0.76154 0.25682 0.64434
 H1233 H 0.83215 0.30433 0.75227
 H1234 H 0.79093 0.17246 0.74839
 H1235 H 0.71154 0.26773 0.68857
 H1236 H 0.71165 0.26225 0.81267
 H1237 H 0.87979 0.19555 0.77802
 H1238 H 0.76831 0.15155 0.82701
 H1239 H 0.70464 0.17310 0.83311
 H1240 H 0.62724 0.25311 0.77133
 H1241 H 0.89779 0.24981 0.73770
 H1242 H 0.82060 0.33324 0.67373
 H1243 H 0.75299 0.34910 0.67272
 H1244 H 0.63941 0.29846 0.72013
 H1245 H 0.87588 0.19288 0.72181
 H1246 H 0.76206 0.15921 0.66725
 H1247 H 0.76287 0.34466 0.83571
 H1248 H 0.64618 0.31227 0.77607
 N1249 N 0.48850 0.95945 0.34334
 N1250 N 0.47724 0.96295 0.31229
 C1251 C 0.44821 0.98591 0.31087
 C1252 C 0.44014 0.99703 0.34293
 C1253 C 0.46659 0.97958 0.36271
 H1254 H 0.41765 1.01424 0.35082
 H1255 H 0.51049 0.94298 0.35103
 H1256 H 0.48860 0.94875 0.29249
 N1257 N 0.00242 0.48745 0.85247
 N1258 N -0.00675 0.49128 0.82094
 C1259 C -0.04229 0.50354 0.81870
 C1260 C -0.05636 0.50737 0.85046
 C1261 C -0.02708 0.49675 0.87103
 H1262 H -0.08462 0.51455 0.85743
 H1263 H 0.02802 0.47725 0.86091
 H1264 H 0.01066 0.48347 0.80166
 N1265 N 0.01295 0.03181 0.84329
 N1266 N 0.02629 0.03209 0.81303
 C1267 C 0.05304 0.00686 0.81024
 C1268 C 0.05734 -0.01008 0.84097
 C1269 C 0.03105 0.00682 0.86120
 H1270 H 0.07718 -0.03065 0.84784
 H1271 H -0.00767 0.04930 0.85160
 H1272 H 0.01760 0.05006 0.79462
 N1273 N 0.51998 0.44759 0.35716
 N1274 N 0.53621 0.44579 0.32794
 C1275 C 0.55786 0.47590 0.32330
 C1276 C 0.55529 0.49785 0.35116
 C1277 C 0.53053 0.47904 0.37175
 H1278 H 0.56983 0.52339 0.35627
 H1279 H 0.50316 0.42694 0.36741
 H1280 H 0.53236 0.42423 0.31133
 N1281 N 0.48395 0.47100 0.17403
 N1282 N 0.50101 0.46741 0.20315
 C1283 C 0.53505 0.48489 0.20272
 C1284 C 0.53972 0.50020 0.17163
 C1285 C 0.50646 0.49097 0.15425
 H1286 H 0.56366 0.51612 0.16293
 H1287 H 0.45748 0.45969 0.16791
 H1288 H 0.48939 0.45270 0.22280
 N1289 N -0.00878 0.99761 0.65685
 N1290 N 0.00495 0.99589 0.68928
 C1291 C 0.04229 1.00475 0.68939
 C1292 C 0.05281 1.01262 0.65680
 C1293 C 0.01994 1.00796 0.63732
 H1294 H 0.08063 1.02051 0.64820
 H1295 H -0.03661 0.99150 0.64962
 H1296 H -0.01169 0.98743 0.70910
 N1297 N -0.00071 0.54832 0.66543
 N1298 N -0.01116 0.54230 0.69632
 C1299 C -0.04137 0.51924 0.69628
 C1300 C -0.05080 0.51053 0.66380
 C1301 C -0.02396 0.52925 0.64503
 H1302 H -0.07304 0.49212 0.65513
 H1303 H 0.02246 0.56460 0.65867
 H1304 H 0.00230 0.55408 0.71698
 N1305 N 0.49256 0.03856 0.15917
 N1306 N 0.48281 0.03060 0.18991
 C1307 C 0.45117 0.00939 0.18936
 C1308 C 0.44020 0.00392 0.15655
 C1309 C 0.46748 0.02266 0.13816
 H1310 H 0.41647 -0.01228 0.14731
 H1311 H 0.51647 0.05402 0.15282
 H1312 H 0.49766 0.03998 0.21085
 N1313 N 0.31680 0.44804 0.04168
 N1314 N 0.28801 0.42516 0.03808
 C1315 C 0.29160 0.40639 0.00960
 C1316 C 0.32451 0.41841 -0.00602
 C1317 C 0.33962 0.44480 0.01555
 H1318 H 0.33706 0.40771 -0.02820
 H1319 H 0.32122 0.46484 0.06230
 H1320 H 0.26702 0.42129 0.05579
 N1321 N -0.11368 0.89236 0.49453
 N1322 N -0.14285 0.86981 0.49194
 C1323 C -0.17495 0.88834 0.49471
 C1324 C -0.16546 0.92507 0.49947
 C1325 C -0.12597 0.92605 0.49942
 H1326 H -0.18423 0.94746 0.50250
 H1327 H -0.08562 0.88476 0.49238
 H1328 H -0.14070 0.84186 0.48866
 N1329 N -0.15839 0.06874 0.95227
 N1330 N -0.19107 0.08489 0.95484
 C1331 C -0.19282 0.10160 0.98456
 C1332 C -0.15938 0.09489 1.00201
 C1333 C -0.13820 0.07427 0.98034
 H1334 H -0.15067 0.10501 1.02615
 H1335 H -0.15021 0.05400 0.93154
 H1336 H -0.21118 0.08595 0.93575
 N1337 N 0.34843 0.56183 0.45997
 N1338 N 0.31810 0.58190 0.45919
 C1339 C 0.31902 0.60494 0.48517
 C1340 C 0.35176 0.59848 0.50386
 C1341 C 0.36970 0.57092 0.48673
 H1342 H 0.36197 0.61260 0.52582
 H1343 H 0.35451 0.54232 0.44216
 H1344 H 0.29749 0.58050 0.44047
 N1345 N 0.12804 0.64264 0.52693
 N1346 N 0.16165 0.65841 0.52306
 C1347 C 0.18262 0.63750 0.50338
 C1348 C 0.16098 0.60718 0.49390
 C1349 C 0.12645 0.61159 0.50933
 H1350 H 0.16935 0.58483 0.47847
 H1351 H 0.10658 0.65310 0.54137
 H1352 H 0.17035 0.68264 0.53452
 N1353 N 0.61693 0.13896 0.02487
 N1354 N 0.65177 0.15687 0.02078
 C1355 C 0.67261 0.13716 -0.00007
 C1356 C 0.65062 0.10719 -0.01094
 C1357 C 0.61583 0.10950 0.00508
 H1358 H 0.65913 0.08597 -0.02762
 H1359 H 0.59540 0.14797 0.04006
 H1360 H 0.66067 0.17975 0.03428
 N1361 N 0.62422 0.87633 0.46831
 N1362 N 0.65672 0.85974 0.47012
 C1363 C 0.67987 0.87784 0.49145
 C1364 C 0.66098 0.90729 0.50421
 C1365 C 0.62557 0.90512 0.48885
 H1366 H 0.67137 0.92719 0.52203
 H1367 H 0.60137 0.86772 0.45346
 H1368 H 0.66297 0.83657 0.45655
 N1369 N 0.10567 0.36771 0.97392
 N1370 N 0.13754 0.34996 0.97495
 C1371 C 0.15877 0.36289 1.00035
 C1372 C 0.13910 0.38958 1.01676
 C1373 C 0.10555 0.39177 0.99908
 H1374 H 0.14909 0.40697 1.03680
 H1375 H 0.08519 0.36445 0.95532
 H1376 H 0.14572 0.33143 0.95696
 N1377 N 0.05379 0.34091 0.47323
 N1378 N 0.05279 0.31097 0.45536
 C1379 C 0.02543 0.31403 0.43204
 C1380 C 0.00873 0.34697 0.43487
 C1381 C 0.02729 0.36296 0.46117
 H1382 H -0.01329 0.35803 0.41933
 H1383 H 0.07272 0.34622 0.49280
 H1384 H 0.07133 0.28974 0.45877
 N1385 N 0.56054 -0.12424 -0.07809
 N1386 N 0.56212 -0.15234 -0.09808
 C1387 C 0.52656 -0.16359 -0.10594
 C1388 C 0.50139 -0.14125 -0.09067
 C1389 C 0.52406 -0.11756 -0.07276
 H1390 H 0.47109 -0.14499 -0.08888
 H1391 H 0.58402 -0.11129 -0.06701
 H1392 H 0.58703 -0.16567 -0.10322
 N1393 N -0.05926 -0.17629 1.03795
 N1394 N -0.05731 -0.20820 1.05231
 C1395 C -0.02762 -0.20737 1.07349
 C1396 C -0.01016 -0.17344 1.07286
 C1397 C -0.03117 -0.15469 1.05006
 H1398 H 0.01399 -0.16379 1.08730
 H1399 H -0.07978 -0.16951 1.02037
 H1400 H -0.07678 -0.22937 1.04798
 N1401 N 0.56499 0.37712 0.61798
 N1402 N 0.56957 0.34254 0.62472
 C1403 C 0.54493 0.32279 0.60593
 C1404 C 0.52293 0.34557 0.58757
 C1405 C 0.53658 0.37952 0.59575
 H1406 H 0.49976 0.33844 0.57089
 H1407 H 0.58113 0.39840 0.62835
 H1408 H 0.58831 0.33301 0.64268
 N1409 N 0.51310 1.17297 0.51812
 N1410 N 0.51146 1.20513 0.53213
 C1411 C 0.50176 1.20058 0.56412
 C1412 C 0.49592 1.16396 0.57038
 C1413 C 0.50432 1.14760 0.54089
 H1414 H 0.48976 1.15055 0.59359
 H1415 H 0.52135 1.16860 0.49368
 H1416 H 0.51946 1.22920 0.52029
 N1417 N -0.05309 0.60868 1.12545
 N1418 N -0.05381 0.64244 1.13618
 C1419 C -0.04074 0.66420 1.11196
 C1420 C -0.03020 0.64386 1.08516
 C1421 C -0.03837 0.60887 1.09479
 H1422 H -0.01717 0.65313 1.06243
 H1423 H -0.06159 0.58603 1.13924
 H1424 H -0.06224 0.65024 1.15983
 N1425 N 0.48456 0.69489 -0.01474
 N1426 N 0.49102 0.72599 -0.03330
 C1427 C 0.50247 0.71543 -0.06348
 C1428 C 0.50518 0.67807 -0.06460
 C1429 C 0.49382 0.66645 -0.03365
 H1430 H 0.51361 0.66144 -0.08523
 H1431 H 0.47487 0.69451 0.00964
 H1432 H 0.48460 0.75207 -0.02545
 N1433 N 0.04161 1.13349 0.37921
 N1434 N 0.04059 1.16588 0.36539
 C1435 C 0.02824 1.18912 0.38827
 C1436 C 0.02032 1.17130 0.41732
 C1437 C 0.02929 1.13633 0.41062
 H1438 H 0.00982 1.18234 0.44023
 H1439 H 0.05028 1.11004 0.36727
 H1440 H 0.04881 1.17189 0.34118
 N1441 N 0.73021 0.74959 0.90802
 N1442 N 0.73251 0.73824 0.93888
 C1443 C 0.75090 0.70668 0.93982
 C1444 C 0.76083 0.69740 0.90768
 C1445 C 0.74690 0.72552 0.88833
 H1446 H 0.77439 0.67312 0.89941
 H1447 H 0.71675 0.77319 0.90069
 H1448 H 0.72040 0.75140 0.95893
 N1449 N 0.25038 0.25940 0.40018
 N1450 N 0.25903 0.25176 0.43123
 C1451 C 0.26953 0.21686 0.43328
 C1452 C 0.26714 0.20169 0.40174
 C1453 C 0.25458 0.22952 0.38168
 H1454 H 0.27056 0.17360 0.39494
 H1455 H 0.24056 0.28440 0.39215
 H1456 H 0.25480 0.26958 0.45088
 N1457 N 0.70895 0.25027 0.40553
 N1458 N 0.70751 0.26495 0.43538
 C1459 C 0.73356 0.29222 0.43784
 C1460 C 0.75183 0.29537 0.40762
 C1461 C 0.73564 0.26801 0.38809
 H1462 H 0.77377 0.31462 0.40056
 H1463 H 0.69118 0.22916 0.39704
 H1464 H 0.68926 0.25600 0.45398
 N1465 N 0.21298 0.74465 0.89164
 N1466 N 0.21212 0.75533 0.92282
 C1467 C 0.23048 0.78776 0.92565
 C1468 C 0.24226 0.79879 0.89458
 C1469 C 0.23090 0.77049 0.87401
 H1470 H 0.25760 0.82335 0.88786
 H1471 H 0.20113 0.72031 0.88266
 H1472 H 0.19943 0.74035 0.94181
 N1473 N 0.24673 0.72488 0.07642
 N1474 N 0.24530 0.73829 0.04420
 C1475 C 0.25036 0.77481 0.04527
 C1476 C 0.25571 0.78515 0.07834
 C1477 C 0.25308 0.75309 0.09693
 H1478 H 0.25960 0.81241 0.08789
 H1479 H 0.24240 0.69771 0.08290
 H1480 H 0.23879 0.72197 0.02371
 N1481 N 0.75145 0.23071 0.58981
 N1482 N 0.74932 0.24345 0.55736
 C1483 C 0.75572 0.27981 0.55762
 C1484 C 0.76253 0.29068 0.59040
 C1485 C 0.75940 0.25916 0.60968
 H1486 H 0.76786 0.31798 0.59940
 H1487 H 0.74667 0.20377 0.59687
 H1488 H 0.74225 0.22675 0.53727
 N1489 N 0.31766 0.25391 0.59012
 N1490 N 0.31117 0.24544 0.55869
 C1491 C 0.28645 0.21695 0.55694
 C1492 C 0.27729 0.20661 0.58896
 C1493 C 0.29746 0.23104 0.60924
 H1494 H 0.25758 0.18540 0.59645
 H1495 H 0.33515 0.27544 0.59814
 H1496 H 0.32381 0.25919 0.53897
 N1497 N 0.80949 0.74717 0.09407
 N1498 N 0.80311 0.73846 0.06264
 C1499 C 0.77919 0.70943 0.06127
 C1500 C 0.77027 0.69913 0.09328
 C1501 C 0.78984 0.72386 0.11332
 H1502 H 0.75087 0.67776 0.10102
 H1503 H 0.82628 0.76924 0.10200
 H1504 H 0.81497 0.75243 0.04266
 N1505 N 0.18741 0.57590 0.20210
 N1506 N 0.16728 0.54576 0.20642
 C1507 C 0.14989 0.54675 0.23603
 C1508 C 0.16003 0.57948 0.25151
 C1509 C 0.18382 0.59721 0.22886
 H1510 H 0.15006 0.58978 0.27487
 H1511 H 0.20287 0.58189 0.18082
 H1512 H 0.16440 0.52521 0.18867
 N1513 N 0.64863 0.12656 0.74906
 N1514 N 0.62588 0.09827 0.75282
 C1515 C 0.64609 0.06780 0.75372
 C1516 C 0.68441 0.07761 0.75071
 C1517 C 0.68433 0.11550 0.74748
 H1518 H 0.70840 0.06006 0.75062
 H1519 H 0.63973 0.15333 0.74826
 H1520 H 0.59654 0.09984 0.75409
 N1521 N 0.80697 0.08536 0.29315
 N1522 N 0.82389 0.05399 0.29051
 C1523 C 0.84434 0.05349 0.26245
 C1524 C 0.83993 0.08677 0.24649
 C1525 C 0.81602 0.10619 0.26694
 H1526 H 0.85411 0.09650 0.22449
 H1527 H 0.79000 0.09252 0.31300
 H1528 H 0.82311 0.03391 0.30875
 N1529 N 0.29837 0.59563 0.77472
 N1530 N 0.31633 0.56473 0.77522
 C1531 C 0.34481 0.56639 0.75336
 C1532 C 0.34459 0.60032 0.73801
 C1533 C 0.31476 0.61798 0.75250
 H1534 H 0.36515 0.61182 0.72115
 H1535 H 0.27590 0.60163 0.79017
 H1536 H 0.31065 0.54371 0.79190
 N1537 N 0.40066 0.38293 0.73479
 N1538 N 0.41471 0.41634 0.73794
 C1539 C 0.38979 0.43679 0.75405
 C1540 C 0.35846 0.41489 0.76194
 C1541 C 0.36660 0.38083 0.74925
 H1542 H 0.33291 0.42287 0.77410
 H1543 H 0.41420 0.36196 0.72268
 H1544 H 0.44040 0.42522 0.72801
 N1545 N 0.88997 0.87089 0.23259
 N1546 N 0.90765 0.90473 0.23657
 C1547 C 0.88573 0.92516 0.25593
 C1548 C 0.85450 0.90406 0.26598
 C1549 C 0.85838 0.87026 0.25080
 H1550 H 0.83130 0.91257 0.28112
 H1551 H 0.90031 0.84989 0.21816
 H1552 H 0.93167 0.91302 0.22362
 N1553 N 0.62875 0.87411 0.78460
 N1554 N 0.61355 0.90644 0.78326
 C1555 C 0.63219 0.92716 0.76098
 C1556 C 0.66044 0.90660 0.74703
 C1557 C 0.65707 0.87289 0.76270
 H1558 H 0.68035 0.91485 0.72818
 H1559 H 0.61950 0.85313 0.80011
 H1560 H 0.59085 0.91424 0.79769
 N1561 N 0.12084 0.36098 0.27445
 N1562 N 0.10286 0.39186 0.27357
 C1563 C 0.12006 0.41423 0.25182
 C1564 C 0.15023 0.39641 0.23775
 C1565 C 0.14960 0.36261 0.25292
 H1566 H 0.17046 0.40696 0.22011
 H1567 H 0.11371 0.33931 0.28995
 H1568 H 0.08018 0.39788 0.28875
 N1569 N 0.08877 0.26972 0.77217
 N1570 N 0.05773 0.26682 0.78965
 C1571 C 0.06389 0.24465 0.81577
 C1572 C 0.10066 0.23343 0.81504
 C1573 C 0.11531 0.25011 0.78722
 H1574 H 0.11571 0.21858 0.83395
 H1575 H 0.09215 0.28658 0.75157
 H1576 H 0.03399 0.28231 0.78503
 N1577 N 0.59115 0.79415 0.29107
 N1578 N 0.56162 0.79483 0.31052
 C1579 C 0.56077 0.76430 0.32881
 C1580 C 0.59121 0.74345 0.32112
 C1581 C 0.60957 0.76337 0.29711
 H1582 H 0.59973 0.71815 0.33210
 H1583 H 0.59909 0.81502 0.27492
 H1584 H 0.54269 0.81604 0.31143
 N1585 N 0.63735 0.28819 0.12638
 N1586 N 0.60370 0.28824 0.11221
 C1587 C 0.57882 0.27226 0.13295
 C1588 C 0.59718 0.26091 0.16111
 C1589 C 0.63397 0.27164 0.15592
 H1590 H 0.58581 0.24688 0.18245
 H1591 H 0.66194 0.29900 0.11586
 H1592 H 0.59798 0.29906 0.08881
 N1593 N 0.13954 0.80515 0.61195
 N1594 N 0.10557 0.80571 0.59829
 C1595 C 0.08319 0.78176 0.61461
 C1596 C 0.10374 0.76462 0.63870
 C1597 C 0.13883 0.78075 0.63672
 H1598 H 0.09354 0.74547 0.65706
 H1599 H 0.16212 0.82224 0.60526
 H1600 H 0.09820 0.82305 0.57900
 N1601 N 0.93261 0.80106 0.71282
 N1602 N 0.96351 0.80121 0.69490
 C1603 C 0.95689 0.78020 0.66804
 C1604 C 0.92065 0.76583 0.66892
 C1605 C 0.90626 0.77985 0.69751
 H1606 H 0.90641 0.74812 0.65114
 H1607 H 0.92969 0.81550 0.73490
 H1608 H 0.98803 0.81632 0.70061
 N1609 N 0.39955 0.19466 0.16716
 N1610 N 0.43441 0.19884 0.15656
 C1611 C 0.44619 0.23318 0.16263
 C1612 C 0.41772 0.25180 0.17758
 C1613 C 0.38866 0.22647 0.17972
 H1614 H 0.41679 0.28056 0.18273
 H1615 H 0.38322 0.17084 0.16466
 H1616 H 0.44865 0.17943 0.14297
 N1617 N 0.36757 0.78387 0.35888
 N1618 N 0.39979 0.77927 0.37493
 C1619 C 0.42481 0.76630 0.35333
 C1620 C 0.40830 0.76243 0.32254
 C1621 C 0.37209 0.77361 0.32713
 H1622 H 0.42040 0.75138 0.30028
 H1623 H 0.34273 0.79236 0.36985
 H1624 H 0.40432 0.78482 0.40008
 N1625 N 0.88555 0.29156 0.86810
 N1626 N 0.91901 0.28129 0.88388
 C1627 C 0.93995 0.26451 0.86099
 C1628 C 0.92078 0.26341 0.83121
 C1629 C 0.88719 0.28000 0.83644
 H1630 H 0.92908 0.25034 0.80849
 H1631 H 0.86270 0.30324 0.87982
 H1632 H 0.92632 0.28727 0.90847
 N1633 N 0.50022 1.01420 0.66458
 N1634 N 0.51332 1.00705 0.69472
 C1635 C 0.54984 0.99809 0.69265
 C1636 C 0.56039 0.99999 0.65964
 C1637 C 0.52827 1.01043 0.64266
 H1638 H 0.58823 0.99626 0.64962
 H1639 H 0.47258 1.02166 0.65927
 H1640 H 0.49810 1.01042 0.71649
 N1641 N -0.02520 0.47077 1.17977
 N1642 N -0.00484 0.47203 1.20760
 C1643 C 0.02954 0.48650 1.20086
 C1644 C 0.03109 0.49455 1.16748
 C1645 C -0.00395 0.48420 1.15494
 H1646 H 0.05524 0.50450 1.15370
 H1647 H -0.05229 0.45917 1.17762
 H1648 H -0.01420 0.46259 1.23056
 N1649 N -0.01368 -0.03709 1.16122
 N1650 N -0.02418 -0.03002 1.19180
 C1651 C -0.05566 -0.01012 1.19098
 C1652 C -0.06532 -0.00404 1.15785
 C1653 C -0.03794 -0.02192 1.13980
 H1654 H -0.08887 0.01099 1.14823
 H1655 H 0.01034 -0.05148 1.15527
 H1656 H -0.00928 -0.03850 1.21273
 N1657 N 0.51286 0.49620 0.67681
 N1658 N 0.49616 0.49799 0.70598
 C1659 C 0.46317 0.51510 0.70236
 C1660 C 0.45892 0.52463 0.66914
 C1661 C 0.49095 0.51201 0.65372
 H1662 H 0.43505 0.53736 0.65743
 H1663 H 0.53837 0.48344 0.67275
 H1664 H 0.50720 0.48718 0.72784
 N1665 N 0.50283 0.53224 -0.14734
 N1666 N 0.49128 0.52586 -0.17826
 C1667 C 0.45330 0.52602 -0.17934
 C1668 C 0.44023 0.53269 -0.14759
 C1669 C 0.47246 0.53650 -0.12794
 H1670 H 0.41118 0.53401 -0.13978
 H1671 H 0.53104 0.53251 -0.13955
 H1672 H 0.50919 0.52205 -0.19829
 N1673 N 0.01936 1.00000 0.33116
 N1674 N 0.00089 0.99671 0.30246
 C1675 C -0.03362 1.01080 0.30574
 C1676 C -0.03707 1.02353 0.33774
 C1677 C -0.00320 1.01602 0.35320
 H1678 H -0.06216 1.03372 0.34923
 H1679 H 0.04575 0.98910 0.33611
 H1680 H 0.01137 0.98397 0.28147
 N1681 N 0.00933 0.45943 0.34700
 N1682 N 0.02185 0.46136 0.31629
 C1683 C 0.05222 0.48422 0.31513
 C1684 C 0.05899 0.49761 0.34708
 C1685 C 0.03112 0.48096 0.36657
 H1686 H 0.08111 0.51647 0.35510
 H1687 H -0.01413 0.44380 0.35422
 H1688 H 0.00903 0.44735 0.29654
 N1689 N 0.50444 -0.03950 -0.16201
 N1690 N 0.52090 -0.03748 -0.19136
 C1691 C 0.54767 -0.01079 -0.19064
 C1692 C 0.54807 0.00469 -0.15919
 C1693 C 0.52037 -0.01427 -0.14176
 H1694 H 0.56654 0.02620 -0.14981
 H1695 H 0.48305 -0.05822 -0.15595
 H1696 H 0.51382 -0.05438 -0.21136
 N1697 N 0.64151 0.60247 0.05356
 N1698 N 0.67224 0.62308 0.05225
 C1699 C 0.67722 0.63381 0.02077
 C1700 C 0.64781 0.61946 0.00094
 C1701 C 0.62594 0.59940 0.02292
 H1702 H 0.64366 0.62220 -0.02556
 H1703 H 0.63148 0.59076 0.07543
 H1704 H 0.68924 0.62949 0.07284
 N1705 N 0.12719 1.13375 0.48848
 N1706 N 0.15379 1.15870 0.49358
 C1707 C 0.18610 1.14261 0.50238
 C1708 C 0.17932 1.10512 0.50346
 C1709 C 0.14152 1.10086 0.49378
 H1710 H 0.19946 1.08409 0.50799
 H1711 H 0.09950 1.13928 0.48131
 H1712 H 0.15034 1.18630 0.48910
 N1713 N 0.14190 -0.10709 1.05011
 N1714 N 0.17241 -0.12661 1.04608
 C1715 C 0.17763 -0.13208 1.01341
 C1716 C 0.14910 -0.11475 0.99592
 C1717 C 0.12699 -0.09921 1.02011
 H1718 H 0.14477 -0.11379 0.96933
 H1719 H 0.13157 -0.09928 1.07312
 H1720 H 0.18878 -0.13666 1.06553
 N1721 N 0.66994 0.41877 0.56234
 N1722 N 0.69552 0.39361 0.55789
 C1723 C 0.69490 0.38297 0.52581
 C1724 C 0.66769 0.40292 0.50917
 C1725 C 0.65252 0.42543 0.53318
 H1726 H 0.65934 0.40080 0.48333
 H1727 H 0.66412 0.43063 0.58519
 H1728 H 0.71240 0.38335 0.57689
 N1729 N -0.16217 0.43218 0.52453
 N1730 N -0.19129 0.40943 0.52568
 C1731 C -0.18520 0.38143 0.50532
 C1732 C -0.15015 0.38704 0.48990
 C1733 C -0.13622 0.41968 0.50338
 H1734 H -0.13613 0.36909 0.47305
 H1735 H -0.15984 0.45577 0.53881
 H1736 H -0.21502 0.41338 0.54023
 N1737 N 0.32554 -0.06903 0.01726
 N1738 N 0.29730 -0.09289 0.01811
 C1739 C 0.30313 -0.11890 -0.00440
 C1740 C 0.33714 -0.11070 -0.02087
 C1741 C 0.35072 -0.07871 -0.00585
 H1742 H 0.35082 -0.12666 -0.03953
 H1743 H 0.32785 -0.04663 0.03308
 H1744 H 0.27433 -0.09103 0.03395
 N1745 N 0.34965 1.08950 0.54808
 N1746 N 0.32102 1.11135 0.54427
 C1747 C 0.31602 1.11819 0.51167
 C1748 C 0.34267 1.09939 0.49389
 C1749 C 0.36346 1.08166 0.51806
 H1750 H 0.34747 1.09991 0.46744
 H1751 H 0.36001 1.08086 0.57103
 H1752 H 0.30654 1.12254 0.56404
 N1753 N -0.18725 0.55681 1.04723
 N1754 N -0.21278 0.58182 1.04273
 C1755 C -0.20496 0.60061 1.01471
 C1756 C -0.17338 0.58595 1.00034
 C1757 C -0.16292 0.55850 1.02202
 H1758 H -0.15862 0.59535 0.97851
 H1759 H -0.18644 0.53918 1.06747
 H1760 H -0.23492 0.58567 1.05906
 N1761 N -0.05809 0.67283 0.54231
 N1762 N -0.05546 0.70353 0.55906
 C1763 C -0.02412 0.70274 0.57825
 C1764 C -0.00638 0.67052 0.57409
 C1765 C -0.02842 0.65269 0.55094
 H1766 H 0.01992 0.66189 0.58509
 H1767 H -0.07928 0.66634 0.52494
 H1768 H -0.07371 0.72507 0.55592
 N1769 N 0.44308 0.17913 0.03193
 N1770 N 0.44885 0.21059 0.04686
 C1771 C 0.48078 0.20865 0.06509
 C1772 C 0.49590 0.17496 0.06207
 C1773 C 0.47104 0.15709 0.04114
 H1774 H 0.52058 0.16441 0.07444
 H1775 H 0.42008 0.17280 0.01637
 H1776 H 0.43102 0.23260 0.04479
 N1777 N 0.00917 0.16536 0.97176
 N1778 N 0.01010 0.19522 0.95388
 C1779 C 0.01481 0.18622 0.92183
 C1780 C 0.01609 0.14892 0.91893
 C1781 C 0.01232 0.13693 0.95126
 H1782 H 0.01874 0.13288 0.89663
 H1783 H 0.00528 0.16455 0.99739
 H1784 H 0.00720 0.22111 0.96369
 N1785 N 0.45394 0.62980 0.41299
 N1786 N 0.45426 0.66152 0.39805
 C1787 C 0.48926 0.67610 0.40079
 C1788 C 0.51227 0.65339 0.41848
 C1789 C 0.48860 0.62441 0.42582
 H1790 H 0.54154 0.65778 0.42567
 H1791 H 0.43010 0.61278 0.41518
 H1792 H 0.43092 0.67291 0.38636
 N1793 N 0.46980 0.82065 0.47581
 N1794 N 0.47526 0.79045 0.45917
 C1795 C 0.49872 0.79808 0.43392
 C1796 C 0.50877 0.83431 0.43449
 C1797 C 0.48946 0.84764 0.46100
 H1798 H 0.52534 0.84948 0.41662
 H1799 H 0.45204 0.82275 0.49618
 H1800 H 0.46217 0.76554 0.46458
 N1801 N 0.02037 0.32345 0.97117
 N1802 N 0.03371 0.29662 0.95368
 C1803 C 0.03057 0.30494 0.92132
 C1804 C 0.01513 0.33867 0.91785
 C1805 C 0.00860 0.34903 0.95001
 H1806 H 0.00625 0.35198 0.89526
 H1807 H 0.01915 0.32400 0.99704
 H1808 H 0.04314 0.27241 0.96375
 N1809 N 0.42275 0.36483 0.07331
 N1810 N 0.42861 0.33392 0.08870
 C1811 C 0.46497 0.32570 0.08453
 C1812 C 0.48262 0.35101 0.06480
 C1813 C 0.45524 0.37561 0.05886
 H1814 H 0.51234 0.35357 0.05908
 H1815 H 0.39789 0.37934 0.07471
 H1816 H 0.40903 0.32055 0.10383
 N1817 N -0.06493 0.87610 0.58018
 N1818 N -0.06408 0.84203 0.58999
 C1819 C -0.03957 0.82448 0.57076
 C1820 C -0.02672 0.84727 0.54630
 C1821 C -0.04117 0.88002 0.55462
 H1822 H -0.00327 0.84279 0.52992
 H1823 H -0.07797 0.89673 0.59319
 H1824 H -0.07527 0.83279 0.61237
 N1825 N 0.24509 0.23515 0.07504
 N1826 N 0.24192 0.25211 0.04619
 C1827 C 0.24671 0.28797 0.05149
 C1828 C 0.25291 0.29413 0.08488
 C1829 C 0.25162 0.26012 0.09899
 H1830 H 0.25657 0.31998 0.09737
 H1831 H 0.24133 0.20723 0.07830
 H1832 H 0.23669 0.23930 0.02344
 N1833 N 0.77090 0.75054 0.58581
 N1834 N 0.76485 0.76223 0.55526
 C1835 C 0.75301 0.79658 0.55660
 C1836 C 0.75175 0.80729 0.58954
 C1837 C 0.76342 0.77739 0.60724
 H1838 H 0.74583 0.83393 0.59912
 H1839 H 0.78057 0.72482 0.59173
 H1840 H 0.77114 0.74772 0.53385
 N1841 N 0.25188 0.76595 0.56991
 N1842 N 0.25130 0.74867 0.54112
 C1843 C 0.26882 0.71683 0.54468
 C1844 C 0.28133 0.71394 0.57725
 C1845 C 0.26966 0.74550 0.59255
 H1846 H 0.29420 0.69080 0.58885
 H1847 H 0.23860 0.79043 0.57422
 H1848 H 0.23812 0.75828 0.51970
 N1849 N 0.74315 0.25248 0.08416
 N1850 N 0.74080 0.23717 0.05454
 C1851 C 0.75512 0.20370 0.05622
 C1852 C 0.76731 0.19756 0.08862
 C1853 C 0.75895 0.22920 0.10561
 H1854 H 0.77899 0.17305 0.09871
 H1855 H 0.73308 0.27813 0.08966
 H1856 H 0.72941 0.24967 0.03361
 N1857 N 0.74419 0.26529 0.91589
 N1858 N 0.74039 0.24821 0.94472
 C1859 C 0.75425 0.21466 0.94179
 C1860 C 0.76724 0.21046 0.90988
 C1861 C 0.76046 0.24283 0.89415
 H1862 H 0.77810 0.18620 0.89874
 H1863 H 0.73402 0.29104 0.91082
 H1864 H 0.72808 0.25925 0.96573
 N1865 N 0.24255 0.75804 0.40333
 N1866 N 0.24518 0.74390 0.43344
 C1867 C 0.25408 0.70872 0.43073
 C1868 C 0.25676 0.70004 0.39742
 C1869 C 0.24913 0.73197 0.38085
 H1870 H 0.26319 0.67404 0.38670
 H1871 H 0.23580 0.78489 0.39836
 H1872 H 0.24150 0.75833 0.45541
 N1873 N 0.70553 0.75557 0.41095
 N1874 N 0.71033 0.76997 0.44096
 C1875 C 0.73733 0.79645 0.43974
 C1876 C 0.74980 0.79900 0.40740
 C1877 C 0.72905 0.77281 0.38987
 H1878 H 0.77099 0.81758 0.39765
 H1879 H 0.68646 0.73442 0.40517
 H1880 H 0.69541 0.76150 0.46185
 N1881 N 0.21311 0.25685 0.90546
 N1882 N 0.21336 0.27090 0.93567
 C1883 C 0.23508 0.30158 0.93622
 C1884 C 0.24927 0.30703 0.90458
 C1885 C 0.23456 0.27807 0.88581
 H1886 H 0.26768 0.32893 0.89627
 H1887 H 0.19869 0.23291 0.89865
 H1888 H 0.19904 0.25902 0.95548
 N1889 N 0.80201 0.42504 0.72844
 N1890 N 0.82615 0.45284 0.72703
 C1891 C 0.85372 0.44818 0.74974
 C1892 C 0.84609 0.41586 0.76685
 C1893 C 0.81301 0.40194 0.75238
 H1894 H 0.86366 0.40286 0.78520
 H1895 H 0.77914 0.42121 0.71213
 H1896 H 0.82385 0.47421 0.71025
 N1897 N 0.29092 0.91647 0.22029
 N1898 N 0.31668 0.94285 0.21855
 C1899 C 0.34507 0.93565 0.23982
 C1900 C 0.33634 0.90334 0.25634
 C1901 C 0.30173 0.89202 0.24312
 H1902 H 0.35407 0.88859 0.27337
 H1903 H 0.26716 0.91435 0.20477
 H1904 H 0.31482 0.96498 0.20257
 N1905 N 0.17865 0.91859 0.68954
 N1906 N 0.15590 0.94600 0.69433
 C1907 C 0.14548 0.94704 0.72648
 C1908 C 0.16299 0.91846 0.74281
 C1909 C 0.18391 0.90108 0.71840
 H1910 H 0.16032 0.91086 0.76860
 H1911 H 0.18983 0.91169 0.66659
 H1912 H 0.14711 0.96309 0.67531
 N1913 N 0.68233 0.40751 0.19871
 N1914 N 0.65887 0.43452 0.20328
 C1915 C 0.64921 0.43591 0.23555
 C1916 C 0.66808 0.40840 0.25215
 C1917 C 0.68879 0.39094 0.22793
 H1918 H 0.66594 0.40098 0.27803
 H1919 H 0.69288 0.40003 0.17568
 H1920 H 0.64879 0.45086 0.18419
 N1921 N 0.65710 0.60201 0.21411
 N1922 N 0.63751 0.57122 0.21503
 C1923 C 0.63235 0.56146 0.24678
 C1924 C 0.64952 0.58834 0.26729
 C1925 C 0.66540 0.61359 0.24521
 H1926 H 0.65159 0.58858 0.29408
 H1927 H 0.66501 0.61479 0.19206
 H1928 H 0.62786 0.55735 0.19389
 N1929 N 0.20129 0.08842 0.72107
 N1930 N 0.17650 0.06135 0.71825
 C1931 C 0.14814 0.06693 0.73929
 C1932 C 0.15565 0.09933 0.75673
 C1933 C 0.18976 0.11223 0.74411
 H1934 H 0.13811 0.11230 0.77479
 H1935 H 0.22558 0.09083 0.70671
 H1936 H 0.17946 0.03931 0.70232
 N1937 N 0.33291 0.09141 0.19689
 N1938 N 0.35409 0.06287 0.20082
 C1939 C 0.35825 0.05596 0.23350
 C1940 C 0.33872 0.08173 0.25129
 C1941 C 0.32284 0.10359 0.22688
 H1942 H 0.33659 0.08434 0.27793
 H1943 H 0.32608 0.10262 0.17388
 H1944 H 0.36624 0.04918 0.18113
 N1945 N 0.85744 0.61259 0.70230
 N1946 N 0.87310 0.58079 0.70644
 C1947 C 0.87468 0.57314 0.73912
 C1948 C 0.85937 0.60152 0.75661
 C1949 C 0.84858 0.62591 0.73223
 H1950 H 0.85592 0.60380 0.78316
 H1951 H 0.85245 0.62459 0.67926
 H1952 H 0.88296 0.56499 0.68703
 N1953 N 0.94617 0.72111 0.23215
 N1954 N 0.97570 0.72415 0.21254
 C1955 C 0.96848 0.74917 0.18904
 C1956 C 0.93373 0.76352 0.19482
 C1957 C 0.91992 0.74407 0.22122
 H1958 H 0.91758 0.78047 0.17831
 H1959 H 0.94281 0.70128 0.25041
 H1960 H 0.99859 0.70690 0.21349
 N1961 N 0.44750 0.21024 0.71606
 N1962 N 0.47519 0.20956 0.69454
 C1963 C 0.47210 0.23863 0.67473
 C1964 C 0.44200 0.25883 0.68384
 C1965 C 0.42683 0.23966 0.70971
 H1966 H 0.43078 0.28231 0.67143
 H1967 H 0.44163 0.18972 0.73320
 H1968 H 0.49507 0.18921 0.69312
 N1969 N 0.38708 0.70554 0.84067
 N1970 N 0.42000 0.70811 0.85631
 C1971 C 0.43630 0.74043 0.84892
 C1972 C 0.41318 0.75909 0.82763
 C1973 C 0.38238 0.73609 0.82304
 H1974 H 0.41800 0.78570 0.81700
 H1975 H 0.36848 0.68320 0.84194
 H1976 H 0.43053 0.68837 0.87223
 N1977 N 0.87014 0.22911 0.37230
 N1978 N 0.90289 0.23940 0.38964
 C1979 C 0.93009 0.24517 0.36712
 C1980 C 0.91569 0.23999 0.33542
 C1981 C 0.87793 0.23113 0.33967
 H1982 H 0.92999 0.24526 0.31227
 H1983 H 0.84358 0.22574 0.38300
 H1984 H 0.90524 0.24171 0.41540
 N1985 N 0.06339 0.24941 0.27216
 N1986 N 0.03351 0.26006 0.28835
 C1987 C 0.04515 0.27552 0.31704
 C1988 C 0.08407 0.27472 0.31927
 C1989 C 0.09437 0.25743 0.29066
 H1990 H 0.10193 0.28182 0.34038
 H1991 H 0.06227 0.23547 0.24960
 H1992 H 0.00564 0.25438 0.28097
 N1993 N 0.58084 0.69994 0.79167
 N1994 N 0.55196 0.70340 0.81184
 C1995 C 0.56364 0.72362 0.83800
 C1996 C 0.60125 0.73239 0.83499
 C1997 C 0.61072 0.71817 0.80501
 H1998 H 0.61809 0.75083 0.85036
 H1999 H 0.57914 0.68792 0.76822
 H2000 H 0.52421 0.69530 0.80609
 N2001 N 0.63160 0.17327 0.65511
 N2002 N 0.60120 0.17722 0.63642
 C2003 C 0.58042 0.20313 0.65012
 C2004 C 0.59703 0.21508 0.67912
 C2005 C 0.63016 0.19690 0.68056
 H2006 H 0.59023 0.23935 0.69273
 H2007 H 0.65474 0.15810 0.64822
 H2008 H 0.59747 0.16602 0.61277
 N2009 N 0.12832 0.70259 0.11772
 N2010 N 0.09608 0.70815 0.10206
 C2011 C 0.06989 0.71457 0.12502
 C2012 C 0.08548 0.71307 0.15625
 C2013 C 0.12261 0.70604 0.15057
 H2014 H 0.07257 0.72021 0.17951
 H2015 H 0.15417 0.69961 0.10597
 H2016 H 0.09266 0.70911 0.07631
   
