data_POSCAR
  _audit_creation_date              2014-09-24
  _audit_creation_method            'ToBaCCo'
  _symmetry_space_group_name_H-M    'P1'
  _symmetry_Int_Tables_number       1
  _symmetry_cell_setting            triclinic
  loop_
  _symmetry_equiv_pos_as_xyz
 x,y,z
_cell_length_a 43.1925
_cell_length_b 42.3691
_cell_length_c 47.6217
_cell_angle_alpha 90.289900
_cell_angle_beta 89.893300
_cell_angle_gamma 90.494900
loop_
  _atom_site_label
  _atom_site_type_symbol
  _atom_site_fract_x
  _atom_site_fract_y
  _atom_site_fract_z
C1 C 0.40977 -0.03858 0.25251
 C2 C 0.42236 -0.01125 0.24019
 C3 C 0.43613 -0.01288 0.21374
 C4 C 0.43893 -0.04171 0.19958
 C5 C 0.42651 -0.06921 0.21218
 C6 C 0.41116 -0.06814 0.23865
 C7 C 0.42589 0.01830 0.25636
 C8 C 0.44520 0.01825 0.27987
 C9 C 0.45359 0.04643 0.29378
 C10 C 0.44186 0.07497 0.28258
 C11 C 0.41983 0.07539 0.26050
 C12 C 0.41277 0.04657 0.24703
 H13 H 0.40028 -0.03669 0.27349
 H14 H 0.44534 0.00856 0.20450
 H15 H 0.45310 -0.00441 0.28706
 H16 H 0.39676 0.04563 0.22961
 H17 H 0.42794 -0.09114 0.20063
 H18 H 0.45026 0.09724 0.29063
 C19 C 0.08559 -0.04617 0.74563
 C20 C 0.07259 -0.01922 0.75796
 C21 C 0.05714 -0.02148 0.78363
 C22 C 0.05372 -0.05057 0.79721
 C23 C 0.06730 -0.07761 0.78480
 C24 C 0.08382 -0.07559 0.75912
 C25 C 0.07370 0.01141 0.74353
 C26 C 0.05909 0.01437 0.71761
 C27 C 0.05795 0.04353 0.70354
 C28 C 0.07318 0.06980 0.71640
 C29 C 0.08845 0.06700 0.74259
 C30 C 0.08800 0.03764 0.75610
 H31 H 0.09727 -0.04401 0.72557
 H32 H 0.04790 -0.00020 0.79301
 H33 H 0.04943 -0.00687 0.70831
 H34 H 0.09890 0.03502 0.77642
 H35 H 0.06560 -0.10006 0.79541
 H36 H 0.07308 0.09264 0.70644
 C37 C 0.58583 0.45379 0.24559
 C38 C 0.57241 0.48058 0.25781
 C39 C 0.55661 0.47811 0.28330
 C40 C 0.55323 0.44896 0.29680
 C41 C 0.56722 0.42208 0.28448
 C42 C 0.58413 0.42433 0.25902
 C43 C 0.57359 0.51130 0.24353
 C44 C 0.55917 0.51444 0.21751
 C45 C 0.55782 0.54381 0.20414
 C46 C 0.57234 0.57015 0.21714
 C47 C 0.58780 0.56719 0.24318
 C48 C 0.58766 0.53759 0.25640
 H49 H 0.59782 0.45610 0.22570
 H50 H 0.54710 0.49930 0.29261
 H51 H 0.54902 0.49368 0.20772
 H52 H 0.59860 0.53483 0.27668
 H53 H 0.56555 0.39958 0.29500
 H54 H 0.57216 0.59280 0.20676
 C55 C 0.91026 0.46355 0.75377
 C56 C 0.92321 0.49049 0.74114
 C57 C 0.93605 0.48841 0.71429
 C58 C 0.93724 0.45952 0.69991
 C59 C 0.92386 0.43254 0.71265
 C60 C 0.90993 0.43434 0.73956
 C61 C 0.92734 0.52018 0.75697
 C62 C 0.94674 0.52024 0.78041
 C63 C 0.95514 0.54852 0.79418
 C64 C 0.94349 0.57700 0.78284
 C65 C 0.92141 0.57730 0.76081
 C66 C 0.91423 0.54841 0.74754
 H67 H 0.90087 0.46534 0.77483
 H68 H 0.94568 0.50955 0.70485
 H69 H 0.95458 0.49761 0.78775
 H70 H 0.89807 0.54736 0.73024
 H71 H 0.92405 0.41020 0.70154
 H72 H 0.95196 0.59929 0.79079
 C73 C 0.26089 0.34147 1.03930
 C74 C 0.26395 0.36062 1.01543
 C75 C 0.29096 0.37897 1.01191
 C76 C 0.31501 0.37838 1.03195
 C77 C 0.31175 0.35833 1.05535
 C78 C 0.28476 0.33963 1.05960
 C79 C 0.23961 0.35972 0.99328
 C80 C 0.21241 0.37767 0.99587
 C81 C 0.18902 0.37618 0.97508
 C82 C 0.19324 0.35567 0.95195
 C83 C 0.22032 0.33763 0.94900
 C84 C 0.24344 0.34006 0.96972
 H85 H 0.24037 0.32676 1.04098
 H86 H 0.29297 0.39395 0.99363
 H87 H 0.20984 0.39320 1.01384
 H88 H 0.26430 0.32617 0.96779
 H89 H 0.33015 0.35821 1.07069
 H90 H 0.17550 0.35391 0.93597
 C91 C 0.74171 0.15508 1.03512
 C92 C 0.73753 0.13699 1.01054
 C93 C 0.70950 0.12031 1.00658
 C94 C 0.68557 0.12160 1.02685
 C95 C 0.68987 0.14103 1.05066
 C96 C 0.71783 0.15798 1.05536
 C97 C 0.76209 0.13694 0.98844
 C98 C 0.78903 0.11877 0.99153
 C99 C 0.81286 0.11948 0.97106
 C100 C 0.80937 0.13946 0.94766
 C101 C 0.78261 0.15789 0.94420
 C102 C 0.75900 0.15615 0.96464
 H103 H 0.76311 0.16833 1.03742
 H104 H 0.70667 0.10592 0.98788
 H105 H 0.79107 0.10369 1.00971
 H106 H 0.73842 0.17035 0.96239
 H107 H 0.67148 0.14199 1.06608
 H108 H 0.82749 0.14060 0.93194
 C109 C 0.23985 0.65562 0.53286
 C110 C 0.23574 0.63697 0.50864
 C111 C 0.20786 0.61973 0.50525
 C112 C 0.18416 0.62091 0.52586
 C113 C 0.18873 0.64045 0.54958
 C114 C 0.21638 0.65783 0.55333
 C115 C 0.26031 0.63666 0.48654
 C116 C 0.28715 0.61830 0.48970
 C117 C 0.31117 0.61905 0.46941
 C118 C 0.30794 0.63918 0.44608
 C119 C 0.28132 0.65781 0.44255
 C120 C 0.25756 0.65610 0.46286
 H121 H 0.26115 0.66902 0.53545
 H122 H 0.20497 0.60504 0.48675
 H123 H 0.28901 0.60314 0.50785
 H124 H 0.23711 0.67051 0.46062
 H125 H 0.17073 0.64209 0.56538
 H126 H 0.32618 0.64032 0.43048
 C127 C 0.76202 0.84044 0.53826
 C128 C 0.76505 0.85973 0.51460
 C129 C 0.79184 0.87855 0.51144
 C130 C 0.81584 0.87877 0.53190
 C131 C 0.81189 0.85887 0.55555
 C132 C 0.78531 0.83963 0.55885
 C133 C 0.74065 0.85897 0.49253
 C134 C 0.71358 0.87714 0.49516
 C135 C 0.69007 0.87569 0.47449
 C136 C 0.69406 0.85507 0.45141
 C137 C 0.72103 0.83686 0.44842
 C138 C 0.74423 0.83918 0.46905
 H139 H 0.74161 0.82556 0.54034
 H140 H 0.79295 0.89382 0.49334
 H141 H 0.71121 0.89275 0.51310
 H142 H 0.76499 0.82513 0.46711
 H143 H 0.82970 0.85755 0.57139
 H144 H 0.67625 0.85334 0.43550
 C145 C -0.04648 0.25101 0.32945
 C146 C -0.01723 0.23944 0.33621
 C147 C -0.01473 0.21154 0.35127
 C148 C -0.04114 0.19578 0.36130
 C149 C -0.07032 0.20731 0.35409
 C150 C -0.07352 0.23520 0.33842
 C151 C 0.01011 0.26016 0.33498
 C152 C 0.00834 0.28932 0.34859
 C153 C 0.03518 0.30621 0.35544
 C154 C 0.06389 0.29473 0.34720
 C155 C 0.06612 0.26532 0.33386
 C156 C 0.03911 0.24823 0.32736
 H157 H -0.04768 0.27376 0.31931
 H158 H 0.00806 0.20479 0.35841
 H159 H -0.01379 0.29715 0.35671
 H160 H 0.04065 0.22484 0.31818
 H161 H -0.09049 0.19342 0.35968
 H162 H 0.08455 0.30834 0.35210
 C163 C -0.04099 0.74199 0.17068
 C164 C -0.01267 0.75554 0.16258
 C165 C -0.01235 0.78323 0.14700
 C166 C -0.03993 0.79702 0.13854
 C167 C -0.06808 0.78368 0.14658
 C168 C -0.06914 0.75572 0.16244
 C169 C 0.01583 0.73708 0.16286
 C170 C 0.01556 0.70850 0.14831
 C171 C 0.04322 0.69453 0.13916
 C172 C 0.07134 0.70858 0.14710
 C173 C 0.07192 0.73710 0.16219
 C174 C 0.04404 0.75129 0.17003
 H175 H -0.04071 0.71942 0.18122
 H176 H 0.00950 0.79229 0.13902
 H177 H -0.00657 0.69991 0.14067
 H178 H 0.04415 0.77426 0.18015
 H179 H -0.08902 0.79592 0.14088
 H180 H 0.09291 0.69712 0.14187
 C181 C 0.46006 0.24301 0.66949
 C182 C 0.48752 0.25809 0.66122
 C183 C 0.48631 0.28692 0.64748
 C184 C 0.45789 0.30054 0.64101
 C185 C 0.43057 0.28592 0.64971
 C186 C 0.43146 0.25685 0.66361
 C187 C 0.51646 0.24066 0.65938
 C188 C 0.51655 0.21352 0.64287
 C189 C 0.54437 0.19994 0.63429
 C190 C 0.57234 0.21314 0.64320
 C191 C 0.57262 0.24075 0.65961
 C192 C 0.54451 0.25447 0.66768
 H193 H 0.46097 0.21983 0.67896
 H194 H 0.50754 0.29698 0.63907
 H195 H 0.49478 0.20468 0.63455
 H196 H 0.54434 0.27657 0.67924
 H197 H 0.40864 0.29702 0.64521
 H198 H 0.59381 0.20187 0.63726
 C199 C 0.45394 0.75216 0.82974
 C200 C 0.48293 0.74005 0.83662
 C201 C 0.48479 0.71164 0.85109
 C202 C 0.45796 0.69579 0.86026
 C203 C 0.42907 0.70782 0.85272
 C204 C 0.42686 0.73608 0.83770
 C205 C 0.51069 0.76020 0.83562
 C206 C 0.50931 0.78957 0.84891
 C207 C 0.53639 0.80610 0.85567
 C208 C 0.56494 0.79404 0.84768
 C209 C 0.56678 0.76439 0.83472
 C210 C 0.53954 0.74768 0.82826
 H211 H 0.45259 0.77489 0.81952
 H212 H 0.50735 0.70442 0.85844
 H213 H 0.48727 0.79789 0.85682
 H214 H 0.54078 0.72419 0.81925
 H215 H 0.40823 0.69479 0.85805
 H216 H 0.58579 0.80740 0.85248
 C217 C -0.28846 0.65844 0.99698
 C218 C -0.26126 0.67068 1.00921
 C219 C -0.26225 0.68429 1.03590
 C220 C -0.29026 0.68741 1.05035
 C221 C -0.31762 0.67547 1.03781
 C222 C -0.31723 0.66026 1.01110
 C223 C -0.23256 0.67450 0.99275
 C224 C -0.23323 0.69400 0.96919
 C225 C -0.20586 0.70336 0.95537
 C226 C -0.17751 0.69247 0.96670
 C227 C -0.17638 0.67006 0.98870
 C228 C -0.20440 0.66199 1.00210
 H229 H -0.28712 0.64904 0.97584
 H230 H -0.24097 0.69326 1.04508
 H231 H -0.25568 0.70141 0.96196
 H232 H -0.20479 0.64578 1.01956
 H233 H -0.33895 0.67716 1.04958
 H234 H -0.15598 0.70190 0.95880
 C235 C -0.29768 0.33648 0.50414
 C236 C -0.27066 0.32413 0.49209
 C237 C -0.27213 0.30786 0.46662
 C238 C -0.30043 0.30267 0.45309
 C239 C -0.32764 0.31508 0.46539
 C240 C -0.32675 0.33292 0.49083
 C241 C -0.24080 0.32601 0.50694
 C242 C -0.23825 0.31207 0.53332
 C243 C -0.20965 0.31059 0.54707
 C244 C -0.18341 0.32447 0.53410
 C245 C -0.18570 0.33937 0.50764
 C246 C -0.21460 0.33948 0.49410
 H247 H -0.29572 0.34812 0.52434
 H248 H -0.25085 0.29921 0.45742
 H249 H -0.25884 0.30221 0.54304
 H250 H -0.21681 0.34995 0.47350
 H251 H -0.34916 0.31190 0.45421
 H252 H -0.16132 0.32411 0.54477
 C253 C 0.20552 -0.16280 0.00291
 C254 C 0.23213 -0.17596 -0.00897
 C255 C 0.23043 -0.19179 -0.03466
 C256 C 0.20220 -0.19539 -0.04914
 C257 C 0.17549 -0.18128 -0.03697
 C258 C 0.17699 -0.16471 -0.01107
 C259 C 0.26184 -0.17494 0.00611
 C260 C 0.26393 -0.18955 0.03219
 C261 C 0.29222 -0.19121 0.04676
 C262 C 0.31857 -0.17651 0.03424
 C263 C 0.31667 -0.16122 0.00790
 C264 C 0.28811 -0.16110 -0.00609
 H265 H 0.20719 -0.15102 0.02310
 H266 H 0.25187 -0.20048 -0.04340
 H267 H 0.24274 -0.19885 0.04116
 H268 H 0.28619 -0.15023 -0.02656
 H269 H 0.15330 -0.18325 -0.04726
 H270 H 0.34079 -0.17708 0.04456
 C271 C 0.21356 1.15838 0.49717
 C272 C 0.24057 1.17101 0.50941
 C273 C 0.23949 1.18388 0.53642
 C274 C 0.21157 1.18553 0.55130
 C275 C 0.18453 1.17258 0.53894
 C276 C 0.18530 1.15859 0.51190
 C277 C 0.26918 1.17531 0.49295
 C278 C 0.26827 1.19474 0.46936
 C279 C 0.29551 1.20390 0.45521
 C280 C 0.32397 1.19291 0.46626
 C281 C 0.32527 1.17070 0.48841
 C282 C 0.29739 1.16280 0.50210
 H283 H 0.21453 1.14900 0.47598
 H284 H 0.26060 1.19333 0.54554
 H285 H 0.24574 1.20211 0.46230
 H286 H 0.29714 1.14659 0.51957
 H287 H 0.16291 1.17320 0.55044
 H288 H 0.34547 1.20203 0.45801
 C289 C 0.08465 0.51235 0.21231
 C290 C 0.10409 0.51531 0.23576
 C291 C 0.12288 0.54243 0.23867
 C292 C 0.12246 0.56666 0.21834
 C293 C 0.10248 0.56323 0.19509
 C294 C 0.08355 0.53617 0.19181
 C295 C 0.10372 0.49043 0.25769
 C296 C 0.12215 0.46332 0.25499
 C297 C 0.12111 0.43920 0.27544
 C298 C 0.10075 0.44269 0.29845
 C299 C 0.08231 0.46978 0.30155
 C300 C 0.08411 0.49354 0.28105
 H301 H 0.07001 0.49157 0.21025
 H302 H 0.13809 0.54435 0.25667
 H303 H 0.13762 0.46137 0.23716
 H304 H 0.06988 0.51438 0.28304
 H305 H 0.10179 0.58156 0.17934
 H306 H 0.09944 0.42442 0.31425
 C307 C -0.08903 0.98984 0.21568
 C308 C -0.10670 0.98605 0.24023
 C309 C -0.12385 0.95802 0.24415
 C310 C -0.12385 0.93341 0.22376
 C311 C -0.10475 0.93758 0.19982
 C312 C -0.08716 0.96551 0.19532
 C313 C -0.10678 1.01144 0.26209
 C314 C -0.12538 1.03830 0.25895
 C315 C -0.12593 1.06275 0.27957
 C316 C -0.10638 1.05933 0.30327
 C317 C -0.08737 1.03268 0.30662
 C318 C -0.08804 1.00877 0.28597
 H319 H -0.07547 1.01129 0.21341
 H320 H -0.13826 0.95651 0.26270
 H321 H -0.14042 1.03895 0.24085
 H322 H -0.07356 0.98819 0.28824
 H323 H -0.10370 0.91900 0.18428
 H324 H -0.10525 1.07758 0.31917
 C325 C 0.40988 0.49064 -0.28489
 C326 C 0.39234 0.48664 -0.26024
 C327 C 0.37566 0.45833 -0.25620
 C328 C 0.37650 0.43383 -0.27643
 C329 C 0.39542 0.43785 -0.30031
 C330 C 0.41227 0.46617 -0.30512
 C331 C 0.39223 0.51193 -0.23833
 C332 C 0.37384 0.53892 -0.24153
 C333 C 0.37346 0.56339 -0.22094
 C334 C 0.39298 0.55989 -0.19725
 C335 C 0.41182 0.53312 -0.19387
 C336 C 0.41096 0.50917 -0.21445
 H337 H 0.42300 0.51236 -0.28733
 H338 H 0.36155 0.45576 -0.23752
 H339 H 0.35883 0.53966 -0.25965
 H340 H 0.42533 0.48850 -0.21218
 H341 H 0.39602 0.41903 -0.31573
 H342 H 0.39425 0.57818 -0.18138
 C343 C 0.58643 0.01204 -0.28933
 C344 C 0.60503 0.01508 -0.26528
 C345 C 0.62351 0.04226 -0.26171
 C346 C 0.62351 0.06661 -0.28184
 C347 C 0.60397 0.06346 -0.30540
 C348 C 0.58523 0.03621 -0.30974
 C349 C 0.60402 -0.00975 -0.24327
 C350 C 0.62198 -0.03720 -0.24582
 C351 C 0.62073 -0.06104 -0.22514
 C352 C 0.60053 -0.05704 -0.20210
 C353 C 0.58251 -0.02965 -0.19913
 C354 C 0.58462 -0.00605 -0.21979
 H355 H 0.57175 -0.00871 -0.29115
 H356 H 0.63819 0.04412 -0.24336
 H357 H 0.63737 -0.03957 -0.26368
 H358 H 0.57083 0.01509 -0.21782
 H359 H 0.60432 0.08209 -0.32083
 H360 H 0.59904 -0.07513 -0.18616
 C361 C 0.00428 0.20438 0.91216
 C362 C -0.00806 0.23343 0.90412
 C363 C -0.03616 0.23415 0.88989
 C364 C -0.05182 0.20620 0.88318
 C365 C -0.03985 0.17736 0.89151
 C366 C -0.01156 0.17619 0.90580
 C367 C 0.01074 0.26237 0.90502
 C368 C 0.04022 0.26158 0.89313
 C369 C 0.05626 0.28954 0.88745
 C370 C 0.04342 0.31837 0.89485
 C371 C 0.01371 0.31962 0.90651
 C372 C -0.00254 0.29150 0.91189
 H373 H 0.02667 0.20375 0.92236
 H374 H -0.04459 0.25641 0.88191
 H375 H 0.04939 0.23928 0.88574
 H376 H -0.02591 0.29226 0.92016
 H377 H -0.05273 0.15592 0.88683
 H378 H 0.05651 0.33984 0.89096
 C379 C 0.49323 0.20973 0.08900
 C380 C 0.50839 0.23763 0.09724
 C381 C 0.53754 0.23620 0.10950
 C382 C 0.55145 0.20715 0.11437
 C383 C 0.53670 0.17945 0.10582
 C384 C 0.50735 0.18052 0.09342
 C385 C 0.49169 0.26739 0.09935
 C386 C 0.46442 0.26774 0.11489
 C387 C 0.45067 0.29625 0.12240
 C388 C 0.46394 0.32461 0.11370
 C389 C 0.49156 0.32466 0.09818
 C390 C 0.50546 0.29589 0.09108
 H391 H 0.47007 0.21073 0.08034
 H392 H 0.54805 0.25765 0.11776
 H393 H 0.45512 0.24571 0.12295
 H394 H 0.52734 0.29557 0.07992
 H395 H 0.54810 0.15709 0.10909
 H396 H 0.45241 0.34653 0.11877
 C397 C -0.00854 0.70965 0.58933
 C398 C 0.00674 0.73738 0.59793
 C399 C 0.03573 0.73553 0.61052
 C400 C 0.04929 0.70629 0.61533
 C401 C 0.03431 0.67880 0.60665
 C402 C 0.00518 0.68025 0.59388
 C403 C -0.00970 0.76742 0.59980
 C404 C -0.03787 0.76789 0.61399
 C405 C -0.05130 0.79649 0.62240
 C406 C -0.03657 0.82479 0.61506
 C407 C -0.00858 0.82467 0.60008
 C408 C 0.00498 0.79583 0.59278
 H409 H -0.03148 0.71092 0.58026
 H410 H 0.04651 0.75678 0.61890
 H411 H -0.04738 0.74562 0.62122
 H412 H 0.02725 0.79539 0.58228
 H413 H 0.04544 0.65630 0.60996
 H414 H -0.04772 0.84698 0.61980
 C415 C 0.50392 0.70287 0.41111
 C416 C 0.49162 0.73202 0.40334
 C417 C 0.46356 0.73293 0.38905
 C418 C 0.44788 0.70506 0.38208
 C419 C 0.45978 0.67613 0.39025
 C420 C 0.48806 0.67477 0.40452
 C421 C 0.51046 0.76089 0.40459
 C422 C 0.53995 0.76020 0.39271
 C423 C 0.55608 0.78820 0.38739
 C424 C 0.54329 0.81694 0.39512
 C425 C 0.51359 0.81808 0.40683
 C426 C 0.49727 0.78994 0.41187
 H427 H 0.52631 0.70211 0.42131
 H428 H 0.45519 0.75529 0.38124
 H429 H 0.54908 0.73800 0.38505
 H430 H 0.47390 0.79064 0.42018
 H431 H 0.44685 0.65476 0.38543
 H432 H 0.55638 0.83847 0.39144
 Zr433 Zr 0.01667 -0.05032 1.04051
 O434 O 0.05190 -0.03616 1.06879
 O435 O 0.00202 -0.09200 1.05855
 O436 O -0.00303 -0.04158 1.08081
 O437 O 0.06198 -0.08668 0.98959
 O438 O -0.04019 -0.00467 1.07278
 O439 O 0.05583 -0.08076 1.03697
 O440 O -0.04273 -0.10389 1.03535
 O441 O -0.03138 -0.04649 1.03577
 O442 O 0.00420 -0.07809 1.00584
 O443 O 0.00768 -0.00195 1.03613
 O444 O 0.04290 -0.03247 1.00681
 Zr445 Zr -0.02811 -0.00695 0.95995
 Zr446 Zr -0.04008 0.00125 1.02892
 Zr447 Zr 0.02777 -0.05872 0.97189
 Zr448 Zr -0.04321 -0.07295 1.00050
 O449 O 0.07160 -0.04693 0.95470
 O450 O -0.08791 -0.07282 1.01899
 O451 O -0.01997 -0.05579 0.96470
 O452 O -0.05389 -0.02542 0.99384
 O453 O -0.01608 0.02079 0.99499
 O454 O 0.01975 -0.01096 0.96529
 C455 C -0.02308 -0.10785 1.05537
 C456 C 0.06961 -0.09231 1.01503
 C457 C -0.02521 -0.02331 1.08901
 O458 O -0.08560 -0.00892 1.04298
 O459 O -0.07176 0.03232 1.01041
 O460 O -0.06520 0.02588 0.96321
 C461 C -0.07894 0.03831 0.98476
 O462 O 0.06850 0.01667 1.03028
 Zr463 Zr 0.03146 0.01501 1.00098
 O464 O -0.01185 0.03529 0.94234
 O465 O -0.03350 0.04618 1.04763
 O466 O 0.02718 0.05813 1.02343
 O467 O 0.07410 0.01916 0.97908
 O468 O 0.02690 0.05136 0.97182
 C469 C 0.00887 0.05517 0.95076
 O470 O -0.06536 -0.01864 0.93290
 O471 O 0.02268 -0.10521 0.95591
 O472 O -0.01261 -0.02102 0.91911
 O473 O 0.02358 -0.05827 0.92840
 O474 O -0.03792 -0.11895 0.98350
 O475 O -0.07597 -0.08028 0.96782
 C476 C 0.00765 -0.04174 0.91135
 H477 H 0.00950 -0.10062 1.00810
 H478 H -0.07639 -0.02363 0.99036
 H479 H 0.03171 -0.00326 0.94891
 H480 H 0.01394 0.00985 1.05323
 H481 H -0.09524 -0.09503 1.01986
 H482 H -0.09226 0.00923 1.05467
 H483 H -0.05282 0.05103 1.05798
 H484 H 0.04357 0.07266 1.01653
 H485 H -0.05413 -0.13250 0.99209
 H486 H 0.04196 -0.11023 0.94553
 H487 H 0.07822 -0.06515 0.94309
 H488 H 0.08108 0.04145 0.98066
 H489 H -0.08950 -0.09848 0.97254
 H490 H -0.06599 -0.00216 0.91819
 H491 H 0.05327 -0.05298 1.08314
 H492 H 0.07975 0.03703 1.02852
 Zr493 Zr 0.51465 0.44900 0.53970
 O494 O 0.55025 0.46284 0.56773
 O495 O 0.49954 0.40771 0.55804
 O496 O 0.49531 0.45863 0.58000
 O497 O 0.55867 0.41094 0.48891
 O498 O 0.45865 0.49604 0.57188
 O499 O 0.55336 0.41786 0.53626
 O500 O 0.45390 0.39694 0.53590
 O501 O 0.46664 0.45359 0.53520
 O502 O 0.50145 0.42101 0.50539
 O503 O 0.50632 0.49746 0.53496
 O504 O 0.54093 0.46599 0.50570
 Zr505 Zr 0.47000 0.49215 0.45900
 Zr506 Zr 0.45856 0.50136 0.52795
 Zr507 Zr 0.52508 0.43959 0.47112
 Zr508 Zr 0.45411 0.42686 0.50030
 O509 O 0.56911 0.45027 0.45381
 O510 O 0.40931 0.42800 0.51856
 O511 O 0.47735 0.44322 0.46416
 O512 O 0.44415 0.47447 0.49320
 O513 O 0.48266 0.52011 0.49372
 O514 O 0.51781 0.48742 0.46419
 C515 C 0.47380 0.39278 0.55570
 C516 C 0.56650 0.40548 0.51434
 C517 C 0.47345 0.47733 0.58819
 O518 O 0.41306 0.49197 0.54247
 O519 O 0.42698 0.53247 0.50927
 O520 O 0.43317 0.52533 0.46210
 C521 C 0.41961 0.53812 0.48359
 O522 O 0.56736 0.51486 0.52870
 Zr523 Zr 0.53015 0.51360 0.49957
 O524 O 0.48667 0.53410 0.44111
 O525 O 0.46591 0.54650 0.54603
 O526 O 0.52671 0.55703 0.52164
 O527 O 0.57273 0.51687 0.47746
 O528 O 0.52605 0.54965 0.47011
 C529 C 0.50784 0.55365 0.44922
 O530 O 0.43262 0.48055 0.43206
 O531 O 0.51886 0.39314 0.45536
 O532 O 0.48541 0.47779 0.41819
 O533 O 0.52093 0.43991 0.42760
 O534 O 0.45867 0.38036 0.48422
 O535 O 0.42135 0.41944 0.46763
 C536 C 0.50542 0.45678 0.41049
 H537 H 0.50637 0.39842 0.50786
 H538 H 0.42166 0.47652 0.48979
 H539 H 0.52983 0.49479 0.44773
 H540 H 0.51287 0.50936 0.55192
 H541 H 0.40166 0.40592 0.51972
 H542 H 0.40669 0.51040 0.55396
 H543 H 0.44674 0.55177 0.55644
 H544 H 0.54332 0.57119 0.51457
 H545 H 0.44228 0.36730 0.49314
 H546 H 0.53800 0.38757 0.44500
 H547 H 0.57536 0.43179 0.44234
 H548 H 0.58010 0.53904 0.47892
 H549 H 0.40765 0.40141 0.47249
 H550 H 0.43210 0.49693 0.41725
 H551 H 0.55140 0.44615 0.58221
 H552 H 0.57889 0.53504 0.52680
 Zr553 Zr 0.48536 1.05128 0.53311
 O554 O 0.44832 1.04003 0.56049
 O555 O 0.50050 1.09357 0.54994
 O556 O 0.50306 1.04381 0.57439
 O557 O 0.44376 1.08500 0.47936
 O558 O 0.53865 1.00464 0.56887
 O559 O 0.44748 1.08322 0.52703
 O560 O 0.54748 1.10165 0.52922
 O561 O 0.53343 1.04527 0.53043
 O562 O 0.50071 1.07660 0.49808
 O563 O 0.49291 1.00236 0.53060
 O564 O 0.46039 1.03245 0.49895
 Zr565 Zr 0.53273 1.00181 0.45589
 Zr566 Zr 0.54085 0.99690 0.52534
 Zr567 Zr 0.47842 1.05607 0.46386
 Zr568 Zr 0.54812 1.06948 0.49494
 O569 O 0.43564 1.04495 0.44436
 O570 O 0.59202 1.06858 0.51478
 O571 O 0.52628 1.05114 0.45880
 O572 O 0.55738 1.02128 0.49012
 O573 O 0.51790 0.97634 0.49121
 O574 O 0.48487 1.00780 0.45912
 C575 C 0.52676 1.10758 0.54803
 C576 C 0.43506 1.09343 0.50398
 C577 C 0.52389 1.02480 0.58395
 O578 O 0.58569 1.00648 0.54130
 O579 O 0.57297 0.96428 0.50916
 O580 O 0.56867 0.96832 0.46162
 C581 C 0.58128 0.95691 0.48399
 O582 O 0.43201 0.98537 0.52322
 Zr583 Zr 0.47033 0.98431 0.49518
 O584 O 0.51555 0.95922 0.43919
 O585 O 0.53178 0.95297 0.54472
 O586 O 0.47194 0.94220 0.51901
 O587 O 0.42862 0.98107 0.47186
 O588 O 0.47452 0.94640 0.46734
 C589 C 0.49343 0.94077 0.44720
 O590 O 0.57162 1.01042 0.42980
 O591 O 0.48548 1.10183 0.44721
 O592 O 0.52014 1.01421 0.41402
 O593 O 0.48570 1.05394 0.42071
 O594 O 0.54514 1.11492 0.47673
 O595 O 0.58248 1.07423 0.46321
 C596 C 0.50181 1.03588 0.40487
 H597 H 0.49602 1.09939 0.49935
 H598 H 0.57996 1.01860 0.48761
 H599 H 0.47354 0.99979 0.44246
 H600 H 0.48537 0.99167 0.54778
 H601 H 0.60013 1.09054 0.51526
 H602 H 0.59119 0.98865 0.55369
 H603 H 0.55034 0.94794 0.55600
 H604 H 0.45529 0.92798 0.51203
 H605 H 0.56131 1.12830 0.48567
 H606 H 0.46711 1.10675 0.43562
 H607 H 0.43034 1.06301 0.43217
 H608 H 0.42057 0.95921 0.47376
 H609 H 0.59627 1.09232 0.46779
 H610 H 0.57235 0.99306 0.41573
 H611 H 0.44700 1.05764 0.57422
 H612 H 0.41994 0.96550 0.52141
 Zr613 Zr -0.01600 0.55127 1.03381
 O614 O -0.05339 0.53966 1.06068
 O615 O -0.00090 0.59322 1.05134
 O616 O 0.00095 0.54292 1.07523
 O617 O -0.05640 0.58641 0.98005
 O618 O 0.03666 0.50399 1.06926
 O619 O -0.05389 0.58318 1.02771
 O620 O 0.04731 0.59981 1.03276
 O621 O 0.03206 0.54486 1.03162
 O622 O 0.00017 0.57730 0.99947
 O623 O -0.00872 0.50235 1.03057
 O624 O -0.04046 0.53344 0.99895
 Zr625 Zr 0.03233 0.50306 0.95643
 Zr626 Zr 0.03925 0.49662 1.02578
 Zr627 Zr -0.02160 0.55767 0.96454
 Zr628 Zr 0.04758 0.56981 0.99690
 O629 O -0.06408 0.54750 0.94412
 O630 O 0.09168 0.56807 1.01632
 O631 O 0.02628 0.55241 0.96010
 O632 O 0.05657 0.52164 0.99127
 O633 O 0.01668 0.47697 0.99107
 O634 O -0.01551 0.50943 0.95911
 C635 C 0.02604 0.60598 1.05101
 C636 C -0.06579 0.59402 1.00467
 C637 C 0.02179 0.52380 1.08462
 O638 O 0.08398 0.50533 1.04237
 O639 O 0.07136 0.46404 1.00954
 O640 O 0.06800 0.46925 0.96205
 C641 C 0.08012 0.45723 0.98438
 O642 O -0.06966 0.48629 1.02207
 Zr643 Zr -0.03087 0.48531 0.99456
 O644 O 0.01522 0.46080 0.93896
 O645 O 0.02947 0.45248 1.04450
 O646 O -0.03011 0.44271 1.01775
 O647 O -0.07218 0.48286 0.97059
 O648 O -0.02651 0.44792 0.96624
 C649 C -0.00719 0.44240 0.94641
 O650 O 0.07161 0.51202 0.93091
 O651 O -0.01374 0.60374 0.94886
 O652 O 0.02035 0.51613 0.91464
 O653 O -0.01360 0.55628 0.92142
 O654 O 0.04494 0.61619 0.98057
 O655 O 0.08184 0.57558 0.96520
 C656 C 0.00240 0.53813 0.90554
 H657 H -0.00444 0.60008 1.00113
 H658 H 0.07916 0.51883 0.98899
 H659 H -0.02664 0.50183 0.94220
 H660 H -0.01659 0.49135 1.04747
 H661 H 0.09981 0.58999 1.01744
 H662 H 0.08906 0.48728 1.05466
 H663 H 0.04778 0.44713 1.05599
 H664 H -0.04682 0.42883 1.01034
 H665 H 0.06103 0.62898 0.99026
 H666 H -0.03186 0.60914 0.93714
 H667 H -0.06897 0.56592 0.93221
 H668 H -0.08048 0.46105 0.97211
 H669 H 0.09548 0.59370 0.97006
 H670 H 0.07251 0.49491 0.91662
 H671 H -0.05491 0.55709 1.07458
 H672 H -0.08190 0.46658 1.01983
 Zr673 Zr -0.02563 0.45554 0.45547
 O674 O -0.06036 0.46933 0.42691
 O675 O -0.01122 0.41377 0.43753
 O676 O -0.00530 0.46388 0.41532
 O677 O -0.07224 0.41982 0.50588
 O678 O 0.03250 0.50059 0.42413
 O679 O -0.06508 0.42478 0.45856
 O680 O 0.03344 0.40305 0.46088
 O681 O 0.02238 0.45951 0.46093
 O682 O -0.01417 0.42825 0.49037
 O683 O -0.01588 0.50399 0.45991
 O684 O -0.05207 0.47387 0.48881
 Zr685 Zr 0.01864 0.50012 0.53655
 Zr686 Zr 0.03179 0.50729 0.46784
 Zr687 Zr -0.03794 0.44812 0.52401
 Zr688 Zr 0.03320 0.43349 0.49635
 O689 O -0.08196 0.45995 0.54045
 O690 O 0.07856 0.43332 0.47922
 O691 O 0.00973 0.45119 0.53183
 O692 O 0.04459 0.48107 0.50309
 O693 O 0.00762 0.52747 0.50138
 O694 O -0.02920 0.49596 0.53052
 C695 C 0.01407 0.39870 0.44060
 C696 C -0.07938 0.41357 0.48036
 C697 C 0.01746 0.48198 0.40755
 O698 O 0.07728 0.49680 0.45426
 O699 O 0.06409 0.53826 0.48648
 O700 O 0.05684 0.53244 0.53360
 C701 C 0.07130 0.54431 0.51216
 O702 O -0.07617 0.52305 0.46459
 Zr703 Zr -0.03994 0.52147 0.49467
 O704 O 0.00239 0.54243 0.55390
 O705 O 0.02636 0.55200 0.44902
 O706 O -0.03413 0.56444 0.47254
 O707 O -0.08314 0.52551 0.51558
 O708 O -0.03600 0.55792 0.52421
 C709 C -0.01838 0.56188 0.54560
 O710 O 0.05507 0.48910 0.56442
 O711 O -0.03360 0.40196 0.54029
 O712 O 0.00225 0.48664 0.57716
 O713 O -0.03478 0.44954 0.56766
 O714 O 0.02665 0.38739 0.51259
 O715 O 0.06476 0.42628 0.52986
 C716 C -0.01870 0.46632 0.58480
 H717 H -0.01975 0.40568 0.48799
 H718 H 0.06707 0.48281 0.50687
 H719 H -0.04138 0.50381 0.54670
 H720 H -0.02162 0.51558 0.44271
 H721 H 0.08545 0.41107 0.47848
 H722 H 0.08443 0.51470 0.44250
 H723 H 0.04586 0.55659 0.43878
 H724 H -0.05039 0.57910 0.47915
 H725 H 0.04278 0.37388 0.50405
 H726 H -0.05313 0.39697 0.55036
 H727 H -0.08906 0.44186 0.55198
 H728 H -0.08989 0.54771 0.51386
 H729 H 0.07785 0.40779 0.52558
 H730 H 0.05565 0.50593 0.57899
 H731 H -0.06180 0.45239 0.41252
 H732 H -0.08691 0.54354 0.46607
 Zr733 Zr 0.47626 -0.04414 -0.04447
 O734 O 0.44119 -0.03051 -0.07276
 O735 O 0.49088 -0.08566 -0.06272
 O736 O 0.49618 -0.03535 -0.08471
 O737 O 0.43029 -0.08051 0.00613
 O738 O 0.53391 0.00146 -0.07598
 O739 O 0.43702 -0.07521 -0.04122
 O740 O 0.53567 -0.09631 -0.03953
 O741 O 0.52429 -0.03984 -0.03926
 O742 O 0.48816 -0.07153 -0.00976
 O743 O 0.48573 0.00436 -0.03989
 O744 O 0.44992 -0.02619 -0.01090
 Zr745 Zr 0.52073 0.00030 0.03655
 Zr746 Zr 0.53344 0.00796 -0.03221
 Zr747 Zr 0.46449 -0.05202 0.02410
 Zr748 Zr 0.53553 -0.06598 -0.00401
 O749 O 0.42050 -0.04062 0.04085
 O750 O 0.58074 -0.06570 -0.02148
 O751 O 0.51218 -0.04866 0.03168
 O752 O 0.54662 -0.01836 0.00287
 O753 O 0.50933 0.02776 0.00155
 O754 O 0.47290 -0.00416 0.03076
 C755 C 0.51622 -0.10066 -0.05976
 C756 C 0.42297 -0.08666 -0.01936
 C757 C 0.51881 -0.01712 -0.09256
 O758 O 0.57891 -0.00211 -0.04610
 O759 O 0.56571 0.03901 -0.01354
 O760 O 0.55866 0.03286 0.03358
 C761 C 0.57298 0.04493 0.01216
 O762 O 0.42531 0.02290 -0.03480
 Zr763 Zr 0.46177 0.02146 -0.00493
 O764 O 0.50439 0.04244 0.05412
 O765 O 0.52757 0.05275 -0.05077
 O766 O 0.46712 0.06459 -0.02691
 O767 O 0.41867 0.02513 0.01622
 O768 O 0.46566 0.05778 0.02474
 C769 C 0.48345 0.06179 0.04601
 O770 O 0.55740 -0.01073 0.06416
 O771 O 0.46929 -0.09824 0.04015
 O772 O 0.50465 -0.01331 0.07722
 O773 O 0.46800 -0.05079 0.06771
 O774 O 0.52944 -0.11217 0.01214
 O775 O 0.56743 -0.07311 0.02924
 C776 C 0.48395 -0.03389 0.08486
 H777 H 0.48272 -0.09412 -0.01220
 H778 H 0.56911 -0.01649 0.00654
 H779 H 0.46076 0.00354 0.04702
 H780 H 0.47978 0.01600 -0.05701
 H781 H 0.58779 -0.08789 -0.02237
 H782 H 0.58586 0.01591 -0.05780
 H783 H 0.54699 0.05753 -0.06108
 H784 H 0.45080 0.07909 -0.02016
 H785 H 0.54562 -0.12553 0.00347
 H786 H 0.44990 -0.10339 0.05038
 H787 H 0.41365 -0.05879 0.05241
 H788 H 0.41176 0.04730 0.01461
 H789 H 0.58066 -0.09145 0.02477
 H790 H 0.55803 0.00602 0.07880
 H791 H 0.43977 -0.04741 -0.08719
 H792 H 0.41446 0.04332 -0.03322
 Zr793 Zr 0.51973 0.54980 -0.03971
 O794 O 0.55432 0.53615 -0.06872
 O795 O 0.50522 0.59163 -0.05708
 O796 O 0.49928 0.54126 -0.07987
 O797 O 0.56572 0.58621 0.01090
 O798 O 0.46183 0.50418 -0.07120
 O799 O 0.55951 0.58027 -0.03645
 O800 O 0.45955 0.60101 -0.03472
 O801 O 0.47173 0.54534 -0.03428
 O802 O 0.50784 0.57724 -0.00473
 O803 O 0.51036 0.50128 -0.03546
 O804 O 0.54612 0.53195 -0.00637
 Zr805 Zr 0.47549 0.50546 0.04117
 Zr806 Zr 0.46267 0.49755 -0.02754
 Zr807 Zr 0.53157 0.55782 0.02891
 Zr808 Zr 0.46044 0.57157 0.00115
 O809 O 0.57562 0.54665 0.04541
 O810 O 0.41490 0.57112 -0.01544
 O811 O 0.48390 0.55443 0.03664
 O812 O 0.44944 0.52391 0.00777
 O813 O 0.48690 0.47796 0.00593
 O814 O 0.52330 0.50995 0.03521
 C815 C 0.47934 0.60583 -0.05461
 C816 C 0.57340 0.59198 -0.01455
 C817 C 0.47666 0.52294 -0.08770
 O818 O 0.41701 0.50734 -0.04083
 O819 O 0.43099 0.46602 -0.00883
 O820 O 0.43813 0.47233 0.03829
 C821 C 0.42403 0.45990 0.01688
 O822 O 0.57096 0.48303 -0.03063
 Zr823 Zr 0.53441 0.48428 -0.00072
 O824 O 0.49182 0.46347 0.05851
 O825 O 0.46868 0.45292 -0.04679
 O826 O 0.52927 0.44120 -0.02318
 O827 O 0.57742 0.48048 0.02036
 O828 O 0.53018 0.44788 0.02856
 C829 C 0.51250 0.44396 0.04995
 O830 O 0.43867 0.51674 0.06875
 O831 O 0.52664 0.60405 0.04531
 O832 O 0.49162 0.51901 0.08185
 O833 O 0.52823 0.55655 0.07259
 O834 O 0.46659 0.61811 0.01688
 O835 O 0.42906 0.57897 0.03493
 C836 C 0.51236 0.53952 0.08962
 H837 H 0.51331 0.59982 -0.00703
 H838 H 0.42697 0.52187 0.01158
 H839 H 0.53547 0.50227 0.05134
 H840 H 0.51628 0.48965 -0.05271
 H841 H 0.40784 0.59330 -0.01617
 H842 H 0.41006 0.48925 -0.05258
 H843 H 0.44917 0.44800 -0.05688
 H844 H 0.54556 0.42672 -0.01654
 H845 H 0.45028 0.63122 0.00830
 H846 H 0.54606 0.60930 0.05543
 H847 H 0.58244 0.56491 0.05701
 H848 H 0.58423 0.45828 0.01856
 H849 H 0.41593 0.59743 0.03084
 H850 H 0.43799 0.50015 0.08338
 H851 H 0.55568 0.55317 -0.08290
 H852 H 0.58187 0.46264 -0.02928
 Zr853 Zr 0.02030 1.04894 0.46110
 O854 O 0.05470 1.03485 0.43208
 O855 O 0.00630 1.09094 0.44367
 O856 O -0.00020 1.04068 0.42093
 O857 O 0.06686 1.08481 0.51167
 O858 O -0.03788 1.00384 0.42953
 O859 O 0.06047 1.07870 0.46433
 O860 O -0.03905 1.10111 0.46631
 O861 O -0.02772 1.04502 0.46649
 O862 O 0.00870 1.07657 0.49607
 O863 O 0.01055 1.00053 0.46540
 O864 O 0.04647 1.03092 0.49452
 Zr865 Zr -0.02441 1.00507 0.54193
 Zr866 Zr -0.03717 0.99731 0.47322
 Zr867 Zr 0.03220 1.05702 0.52978
 Zr868 Zr -0.03876 1.07134 0.50194
 O869 O 0.07597 1.04538 0.54658
 O870 O -0.08416 1.07140 0.48506
 O871 O -0.01553 1.05397 0.53743
 O872 O -0.05022 1.02378 0.50851
 O873 O -0.01318 0.97745 0.50673
 O874 O 0.02346 1.00922 0.53610
 C875 C -0.01927 1.10567 0.44637
 C876 C 0.07465 1.09016 0.48615
 C877 C -0.02292 1.02251 0.41305
 O878 O -0.08268 1.00756 0.45980
 O879 O -0.06928 0.96630 0.49188
 O880 O -0.06184 0.97196 0.53902
 C881 C -0.07620 0.95996 0.51755
 O882 O 0.07088 0.98163 0.47026
 Zr883 Zr 0.03439 0.98337 0.50022
 O884 O -0.00828 0.96315 0.55959
 O885 O -0.03159 0.95256 0.45407
 O886 O 0.02878 0.94021 0.47798
 O887 O 0.07744 0.97935 0.52120
 O888 O 0.03005 0.94723 0.52975
 C889 C 0.01239 0.94354 0.55120
 O890 O -0.06137 1.01656 0.56928
 O891 O 0.02782 1.10345 0.54587
 O892 O -0.00843 1.01879 0.58256
 O893 O 0.02845 1.05616 0.57350
 O894 O -0.03221 1.11771 0.51797
 O895 O -0.07032 1.07893 0.53555
 C896 C 0.01222 1.03933 0.59044
 H897 H 0.01442 1.09909 0.49374
 H898 H -0.07270 1.02195 0.51229
 H899 H 0.03552 1.00153 0.55230
 H900 H 0.01639 0.98881 0.44817
 H901 H -0.09101 1.09365 0.48434
 H902 H -0.08979 0.98955 0.44803
 H903 H -0.05112 0.94783 0.44395
 H904 H 0.04493 0.92560 0.48469
 H905 H -0.04834 1.13106 0.50942
 H906 H 0.04726 1.10850 0.55604
 H907 H 0.08294 1.06362 0.55813
 H908 H 0.08410 0.95709 0.51946
 H909 H -0.08326 1.09751 0.53141
 H910 H -0.06213 1.00006 0.58399
 H911 H 0.05626 1.05183 0.41787
 H912 H 0.08152 0.96109 0.47160
 Zr913 Zr 0.70275 0.26452 0.20980
 O914 O 0.71601 0.30073 0.18172
 O915 O 0.66242 0.24840 0.19139
 O916 O 0.71185 0.24451 0.16953
 O917 O 0.66577 0.31004 0.26044
 O918 O 0.74866 0.20730 0.17771
 O919 O 0.67176 0.30355 0.21310
 O920 O 0.65177 0.20254 0.21444
 O921 O 0.70750 0.21567 0.21454
 O922 O 0.67563 0.25127 0.24428
 O923 O 0.75037 0.25645 0.21449
 O924 O 0.71955 0.29174 0.24364
 Zr925 Zr 0.74584 0.21996 0.29056
 Zr926 Zr 0.75445 0.20785 0.22160
 Zr927 Zr 0.69395 0.27586 0.27836
 Zr928 Zr 0.68168 0.20309 0.24963
 O929 O 0.70454 0.32080 0.29563
 O930 O 0.68282 0.15735 0.23138
 O931 O 0.69780 0.22727 0.28553
 O932 O 0.72848 0.19322 0.25652
 O933 O 0.77291 0.23276 0.25571
 O934 O 0.74094 0.26865 0.28532
 C935 C 0.64756 0.22238 0.19438
 C936 C 0.66003 0.31745 0.23494
 C937 C 0.73008 0.22211 0.16140
 O938 O 0.74555 0.16119 0.20747
 O939 O 0.78545 0.17631 0.24029
 O940 O 0.77907 0.18303 0.28748
 C941 C 0.79152 0.16922 0.26594
 O942 O 0.76728 0.31896 0.22075
 Zr943 Zr 0.76635 0.28108 0.24983
 O944 O 0.78695 0.23711 0.30838
 O945 O 0.79842 0.21554 0.20313
 O946 O 0.80876 0.27778 0.22754
 O947 O 0.76954 0.32451 0.27204
 O948 O 0.80211 0.27685 0.27912
 C949 C 0.80627 0.25835 0.30000
 O950 O 0.73491 0.18172 0.31735
 O951 O 0.64839 0.26979 0.29405
 O952 O 0.73155 0.23551 0.33135
 O953 O 0.69429 0.27160 0.32185
 O954 O 0.63627 0.20758 0.26609
 O955 O 0.67504 0.16987 0.28243
 C956 C 0.71072 0.25570 0.33900
 H957 H 0.65343 0.25615 0.24183
 H958 H 0.73072 0.17034 0.25999
 H959 H 0.74822 0.28097 0.30179
 H960 H 0.76187 0.26305 0.19746
 H961 H 0.66120 0.14939 0.23045
 H962 H 0.76354 0.15475 0.19589
 H963 H 0.80365 0.19591 0.19282
 H964 H 0.82265 0.29475 0.23463
 H965 H 0.62345 0.19066 0.25742
 H966 H 0.64305 0.28934 0.30445
 H967 H 0.68648 0.32719 0.30714
 H968 H 0.79130 0.33198 0.27070
 H969 H 0.65743 0.15570 0.27770
 H970 H 0.75102 0.18137 0.33218
 H971 H 0.69960 0.30170 0.16722
 H972 H 0.78693 0.33094 0.22278
 Zr973 Zr 0.79875 0.73612 0.71596
 O974 O 0.78885 0.69816 0.68832
 O975 O 0.83960 0.75319 0.69938
 O976 O 0.79126 0.75410 0.67471
 O977 O 0.83288 0.69433 0.76957
 O978 O 0.75246 0.78982 0.68060
 O979 O 0.83139 0.69864 0.72192
 O980 O 0.84609 0.80111 0.72057
 O981 O 0.79149 0.78490 0.71911
 O982 O 0.82297 0.75221 0.75131
 O983 O 0.75055 0.74240 0.71821
 O984 O 0.78087 0.70984 0.74976
 Zr985 Zr 0.74857 0.78234 0.79326
 Zr986 Zr 0.74388 0.79104 0.72392
 Zr987 Zr 0.80332 0.72861 0.78519
 Zr988 Zr 0.81465 0.80030 0.75485
 O989 O 0.79349 0.68454 0.80417
 O990 O 0.81252 0.84529 0.73565
 O991 O 0.79713 0.77719 0.79064
 O992 O 0.76710 0.80834 0.75944
 O993 O 0.72426 0.76677 0.75763
 O994 O 0.75574 0.73376 0.78970
 C995 C 0.85258 0.78033 0.70159
 C996 C 0.84167 0.68610 0.74492
 C997 C 0.77247 0.77532 0.66537
 O998 O 0.75168 0.83732 0.70872
 O999 O 0.71059 0.82232 0.74014
 O1000 O 0.71475 0.81800 0.78767
 C1001 C 0.70309 0.83045 0.76533
 O1002 O 0.73602 0.67951 0.72525
 Zr1003 Zr 0.73335 0.71857 0.75331
 O1004 O 0.70691 0.76390 0.80920
 O1005 O 0.70141 0.78055 0.70377
 O1006 O 0.69242 0.71865 0.72877
 O1007 O 0.73083 0.67615 0.77671
 O1008 O 0.69541 0.72227 0.78030
 C1009 C 0.68911 0.74142 0.80039
 O1010 O 0.75588 0.82196 0.81979
 O1011 O 0.84791 0.73690 0.80226
 O1012 O 0.76079 0.76958 0.83508
 O1013 O 0.80079 0.73571 0.82839
 O1014 O 0.85935 0.79836 0.77308
 O1015 O 0.81828 0.83496 0.78712
 C1016 C 0.78256 0.75154 0.84422
 H1017 H 0.84547 0.74814 0.75011
 H1018 H 0.76377 0.83124 0.76216
 H1019 H 0.74801 0.72195 0.80620
 H1020 H 0.74041 0.73459 0.70086
 H1021 H 0.83381 0.85421 0.73542
 H1022 H 0.73418 0.84237 0.69612
 H1023 H 0.69606 0.79938 0.69258
 H1024 H 0.67895 0.70120 0.73549
 H1025 H 0.87196 0.81534 0.76437
 H1026 H 0.85313 0.71829 0.81379
 H1027 H 0.81126 0.67957 0.81648
 H1028 H 0.70958 0.66748 0.77456
 H1029 H 0.83565 0.84958 0.78283
 H1030 H 0.73873 0.82221 0.83369
 H1031 H 0.80623 0.69733 0.67470
 H1032 H 0.71708 0.66634 0.72703
 Zr1033 Zr 0.20789 0.22642 0.79545
 O1034 O 0.22003 0.19106 0.82452
 O1035 O 0.16729 0.24285 0.81273
 O1036 O 0.21606 0.24761 0.83549
 O1037 O 0.17243 0.17872 0.74511
 O1038 O 0.25281 0.28536 0.82673
 O1039 O 0.17636 0.18722 0.79239
 O1040 O 0.15776 0.28770 0.78809
 O1041 O 0.21307 0.27514 0.78938
 O1042 O 0.18197 0.23808 0.75998
 O1043 O 0.25570 0.23504 0.79160
 O1044 O 0.22569 0.19828 0.76278
 Zr1045 Zr 0.25374 0.26873 0.71448
 Zr1046 Zr 0.26024 0.28339 0.78313
 Zr1047 Zr 0.20131 0.21259 0.72702
 Zr1048 Zr 0.18839 0.28610 0.75340
 O1049 O 0.21218 0.16713 0.71138
 O1050 O 0.18911 0.33260 0.77012
 O1051 O 0.20554 0.26093 0.71855
 O1052 O 0.23539 0.29640 0.74730
 O1053 O 0.27979 0.25757 0.75019
 O1054 O 0.24850 0.22020 0.72102
 C1055 C 0.15286 0.26866 0.80870
 C1056 C 0.16545 0.17238 0.77061
 C1057 C 0.23404 0.27068 0.84324
 O1058 O 0.25110 0.33038 0.79580
 O1059 O 0.29189 0.31491 0.76441
 O1060 O 0.28646 0.30670 0.71731
 C1061 C 0.29834 0.32147 0.73869
 O1062 O 0.27286 0.17282 0.78778
 Zr1063 Zr 0.27274 0.20939 0.75740
 O1064 O 0.29506 0.25104 0.69795
 O1065 O 0.30356 0.27703 0.80285
 O1066 O 0.31456 0.21445 0.78032
 O1067 O 0.27616 0.16502 0.73683
 O1068 O 0.30924 0.21249 0.72857
 C1069 C 0.31381 0.23002 0.70705
 O1070 O 0.24413 0.30566 0.68610
 O1071 O 0.15636 0.21763 0.71003
 O1072 O 0.24063 0.25168 0.67389
 O1073 O 0.20330 0.21499 0.68341
 O1074 O 0.14336 0.28036 0.73634
 O1075 O 0.18284 0.31784 0.71939
 C1076 C 0.22026 0.23070 0.66628
 H1077 H 0.15966 0.23305 0.76209
 H1078 H 0.23776 0.31919 0.74324
 H1079 H 0.25618 0.20734 0.70510
 H1080 H 0.26665 0.22924 0.80906
 H1081 H 0.16749 0.34025 0.77031
 H1082 H 0.26868 0.33742 0.80772
 H1083 H 0.30843 0.29703 0.81284
 H1084 H 0.32865 0.19744 0.77407
 H1085 H 0.13042 0.29742 0.74428
 H1086 H 0.15123 0.19767 0.70004
 H1087 H 0.19449 0.16007 0.69962
 H1088 H 0.29779 0.15778 0.73888
 H1089 H 0.16510 0.33187 0.72324
 H1090 H 0.26079 0.30562 0.67171
 H1091 H 0.20320 0.19032 0.83870
 H1092 H 0.29261 0.16120 0.78661
 Zr1093 Zr 0.29805 0.76903 0.28923
 O1094 O 0.28629 0.80444 0.31874
 O1095 O 0.33879 0.75256 0.30603
 O1096 O 0.28974 0.74795 0.32927
 O1097 O 0.33384 0.81580 0.23873
 O1098 O 0.25229 0.71086 0.32052
 O1099 O 0.32926 0.80854 0.28607
 O1100 O 0.34759 0.70708 0.28164
 O1101 O 0.29231 0.72031 0.28316
 O1102 O 0.32383 0.75669 0.25363
 O1103 O 0.25016 0.76100 0.28544
 O1104 O 0.28064 0.79694 0.25648
 Zr1105 Zr 0.25173 0.72633 0.20837
 Zr1106 Zr 0.24504 0.71260 0.27699
 Zr1107 Zr 0.30482 0.78194 0.22060
 Zr1108 Zr 0.31687 0.70863 0.24710
 O1109 O 0.29445 0.82722 0.20474
 O1110 O 0.31556 0.66237 0.26390
 O1111 O 0.30002 0.73354 0.21227
 O1112 O 0.26972 0.69880 0.24113
 O1113 O 0.22590 0.73831 0.24415
 O1114 O 0.25753 0.77489 0.21475
 C1115 C 0.35285 0.72645 0.30209
 C1116 C 0.34048 0.82285 0.26421
 C1117 C 0.27130 0.72527 0.33703
 O1118 O 0.25347 0.66555 0.28944
 O1119 O 0.21266 0.68172 0.25830
 O1120 O 0.21818 0.68924 0.21119
 C1121 C 0.20589 0.67514 0.23261
 O1122 O 0.23418 0.82367 0.28134
 Zr1123 Zr 0.23348 0.78647 0.25124
 O1124 O 0.21049 0.74406 0.19199
 O1125 O 0.20189 0.71983 0.29698
 O1126 O 0.19178 0.78270 0.27461
 O1127 O 0.23034 0.83038 0.23026
 O1128 O 0.19663 0.78283 0.22291
 C1129 C 0.19172 0.76496 0.20151
 O1130 O 0.26106 0.68876 0.18020
 O1131 O 0.34983 0.77628 0.20369
 O1132 O 0.26501 0.74266 0.16777
 O1133 O 0.30311 0.77874 0.17691
 O1134 O 0.36193 0.71368 0.22984
 O1135 O 0.32208 0.67635 0.21315
 C1136 C 0.28585 0.76298 0.15994
 H1137 H 0.34618 0.76158 0.25564
 H1138 H 0.26699 0.67601 0.23708
 H1139 H 0.24996 0.78756 0.19880
 H1140 H 0.23928 0.76715 0.30293
 H1141 H 0.33708 0.65443 0.26404
 H1142 H 0.23573 0.65883 0.30130
 H1143 H 0.19663 0.69994 0.30683
 H1144 H 0.17796 0.79984 0.26837
 H1145 H 0.37471 0.69655 0.23772
 H1146 H 0.35518 0.79608 0.19371
 H1147 H 0.31227 0.83390 0.19298
 H1148 H 0.20875 0.83779 0.23235
 H1149 H 0.33968 0.66218 0.21697
 H1150 H 0.24451 0.68878 0.16577
 H1151 H 0.30322 0.80508 0.33277
 H1152 H 0.21473 0.83577 0.28010
 Zr1153 Zr 0.20116 0.76402 0.70919
 O1154 O 0.21377 0.80023 0.68086
 O1155 O 0.16090 0.74726 0.69108
 O1156 O 0.21039 0.74414 0.66882
 O1157 O 0.16436 0.80966 0.75993
 O1158 O 0.24699 0.70687 0.67733
 O1159 O 0.17000 0.80291 0.71257
 O1160 O 0.15082 0.70150 0.71450
 O1161 O 0.20631 0.71525 0.71422
 O1162 O 0.17444 0.75085 0.74397
 O1163 O 0.24887 0.75635 0.71362
 O1164 O 0.21799 0.79160 0.74280
 Zr1165 Zr 0.24538 0.72048 0.78990
 Zr1166 Zr 0.25335 0.70787 0.72106
 Zr1167 Zr 0.19286 0.77578 0.77785
 Zr1168 Zr 0.18089 0.70276 0.74958
 O1169 O 0.20324 0.82090 0.79488
 O1170 O 0.18226 0.65681 0.73176
 O1171 O 0.19722 0.72730 0.78523
 O1172 O 0.22783 0.69331 0.75622
 O1173 O 0.27198 0.73323 0.75478
 O1174 O 0.24002 0.76908 0.78444
 C1175 C 0.14635 0.72109 0.69429
 C1176 C 0.15842 0.81691 0.73443
 C1177 C 0.22860 0.72165 0.66083
 O1178 O 0.24476 0.66100 0.70730
 O1179 O 0.28478 0.67672 0.73965
 O1180 O 0.27877 0.68373 0.78683
 C1181 C 0.29111 0.66985 0.76529
 O1182 O 0.26498 0.81920 0.71944
 Zr1183 Zr 0.26494 0.78145 0.74866
 O1184 O 0.28665 0.73804 0.80723
 O1185 O 0.29707 0.71573 0.70214
 O1186 O 0.30704 0.77866 0.72583
 O1187 O 0.26813 0.82492 0.77079
 O1188 O 0.30126 0.77745 0.77736
 C1189 C 0.30580 0.75916 0.79832
 O1190 O 0.23501 0.68244 0.81709
 O1191 O 0.14746 0.76942 0.79382
 O1192 O 0.23146 0.73629 0.83061
 O1193 O 0.19355 0.77180 0.82144
 O1194 O 0.13554 0.70713 0.76622
 O1195 O 0.17468 0.66984 0.78269
 C1196 C 0.21046 0.75618 0.83842
 H1197 H 0.15218 0.75553 0.74161
 H1198 H 0.23028 0.67048 0.75983
 H1199 H 0.24739 0.78155 0.80078
 H1200 H 0.26017 0.76290 0.69647
 H1201 H 0.16069 0.64866 0.73104
 H1202 H 0.26266 0.65466 0.69556
 H1203 H 0.30231 0.69609 0.69187
 H1204 H 0.32080 0.79588 0.73267
 H1205 H 0.12277 0.69005 0.75773
 H1206 H 0.14203 0.78899 0.80414
 H1207 H 0.18521 0.82722 0.80645
 H1208 H 0.28982 0.83254 0.76918
 H1209 H 0.15709 0.65556 0.77821
 H1210 H 0.25128 0.68234 0.83179
 H1211 H 0.19720 0.80099 0.66650
 H1212 H 0.28442 0.83158 0.72134
 Zr1213 Zr 0.29883 0.23578 0.21559
 O1214 O 0.28864 0.19810 0.18772
 O1215 O 0.34004 0.25237 0.19923
 O1216 O 0.29177 0.25422 0.17444
 O1217 O 0.33177 0.19293 0.26917
 O1218 O 0.25303 0.29014 0.18004
 O1219 O 0.33099 0.19782 0.22155
 O1220 O 0.34777 0.29948 0.22157
 O1221 O 0.29227 0.28466 0.21893
 O1222 O 0.32295 0.25123 0.25120
 O1223 O 0.25071 0.24276 0.21761
 O1224 O 0.28027 0.20951 0.24912
 Zr1225 Zr 0.24876 0.28224 0.29285
 Zr1226 Zr 0.24466 0.29147 0.22347
 Zr1227 Zr 0.30271 0.22765 0.28479
 Zr1228 Zr 0.31531 0.29941 0.25498
 O1229 O 0.29190 0.18368 0.30353
 O1230 O 0.31412 0.34426 0.23543
 O1231 O 0.29722 0.27629 0.29049
 O1232 O 0.26786 0.30817 0.25924
 O1233 O 0.22450 0.26729 0.25698
 O1234 O 0.25520 0.23357 0.28911
 C1235 C 0.35391 0.27896 0.20230
 C1236 C 0.34080 0.18487 0.24455
 C1237 C 0.27309 0.27548 0.16498
 O1238 O 0.25342 0.33765 0.20844
 O1239 O 0.21172 0.32319 0.23975
 O1240 O 0.21534 0.31826 0.28727
 C1241 C 0.20402 0.33108 0.26497
 O1242 O 0.23506 0.18003 0.22427
 Zr1243 Zr 0.23287 0.21898 0.25249
 O1244 O 0.20683 0.26430 0.30860
 O1245 O 0.20206 0.28179 0.20322
 O1246 O 0.19213 0.21981 0.22772
 O1247 O 0.22957 0.17648 0.27571
 O1248 O 0.19478 0.22322 0.27927
 C1249 C 0.18870 0.24227 0.29950
 O1250 O 0.25638 0.32174 0.31946
 O1251 O 0.34736 0.23489 0.30209
 O1252 O 0.26088 0.26933 0.33469
 O1253 O 0.30023 0.23469 0.32797
 O1254 O 0.35950 0.29684 0.27412
 O1255 O 0.31885 0.33420 0.28715
 C1256 C 0.28241 0.25096 0.34381
 H1257 H 0.34540 0.24683 0.25016
 H1258 H 0.26484 0.33110 0.26204
 H1259 H 0.24721 0.22182 0.30556
 H1260 H 0.24057 0.23517 0.20018
 H1261 H 0.33552 0.35289 0.23547
 H1262 H 0.23600 0.34313 0.19590
 H1263 H 0.19697 0.30081 0.19217
 H1264 H 0.17833 0.20256 0.23432
 H1265 H 0.37255 0.31371 0.26576
 H1266 H 0.35212 0.21613 0.31361
 H1267 H 0.30948 0.17830 0.31592
 H1268 H 0.20817 0.16821 0.27350
 H1269 H 0.33633 0.34870 0.28292
 H1270 H 0.23921 0.32211 0.33335
 H1271 H 0.30605 0.19718 0.17416
 H1272 H 0.21597 0.16709 0.22599
 Zr1273 Zr 0.70796 0.72648 0.29459
 O1274 O 0.72054 0.69084 0.32323
 O1275 O 0.66744 0.74261 0.31233
 O1276 O 0.71629 0.74723 0.33475
 O1277 O 0.67233 0.67909 0.24421
 O1278 O 0.75286 0.78518 0.32610
 O1279 O 0.67655 0.68726 0.29151
 O1280 O 0.65738 0.78752 0.28795
 O1281 O 0.71281 0.77528 0.28890
 O1282 O 0.68172 0.73835 0.25938
 O1283 O 0.75570 0.73536 0.29051
 O1284 O 0.72568 0.69877 0.26159
 Zr1285 Zr 0.75304 0.76991 0.21373
 Zr1286 Zr 0.75988 0.78381 0.28245
 Zr1287 Zr 0.70094 0.71329 0.22610
 Zr1288 Zr 0.68784 0.78648 0.25313
 O1289 O 0.71193 0.66807 0.21001
 O1290 O 0.68840 0.83278 0.27026
 O1291 O 0.70490 0.76175 0.21802
 O1292 O 0.73475 0.79710 0.24688
 O1293 O 0.77938 0.75849 0.24918
 O1294 O 0.74805 0.72127 0.21987
 C1295 C 0.65275 0.76831 0.30848
 C1296 C 0.66554 0.67254 0.26972
 C1297 C 0.73425 0.77027 0.34258
 O1298 O 0.75048 0.83055 0.29571
 O1299 O 0.79100 0.81588 0.26389
 O1300 O 0.78579 0.80790 0.21676
 C1301 C 0.79747 0.82267 0.23824
 O1302 O 0.77335 0.67337 0.28610
 Zr1303 Zr 0.77264 0.71018 0.25597
 O1304 O 0.79428 0.75262 0.19679
 O1305 O 0.80344 0.77755 0.30175
 O1306 O 0.81468 0.71536 0.27855
 O1307 O 0.77600 0.66599 0.23510
 O1308 O 0.80881 0.71362 0.22679
 C1309 C 0.81315 0.73145 0.20542
 O1310 O 0.74306 0.80717 0.18580
 O1311 O 0.65583 0.71820 0.20943
 O1312 O 0.73968 0.75326 0.17306
 O1313 O 0.70259 0.71627 0.18250
 O1314 O 0.64276 0.78064 0.23622
 O1315 O 0.68192 0.81854 0.21943
 C1316 C 0.71932 0.73230 0.16539
 H1317 H 0.65945 0.73320 0.26158
 H1318 H 0.73696 0.81994 0.24301
 H1319 H 0.75565 0.70862 0.20378
 H1320 H 0.76681 0.72943 0.30785
 H1321 H 0.66674 0.84032 0.27061
 H1322 H 0.76808 0.83758 0.30760
 H1323 H 0.80825 0.79745 0.31193
 H1324 H 0.82882 0.69853 0.27206
 H1325 H 0.62976 0.79755 0.24436
 H1326 H 0.65076 0.69830 0.19933
 H1327 H 0.69417 0.66105 0.19831
 H1328 H 0.79769 0.65882 0.23689
 H1329 H 0.66412 0.83243 0.22349
 H1330 H 0.75962 0.80737 0.17133
 H1331 H 0.70387 0.68988 0.33756
 H1332 H 0.79317 0.66191 0.28468
 Zr1333 Zr 0.79759 0.26963 0.79112
 O1334 O 0.78544 0.30443 0.82107
 O1335 O 0.83863 0.25354 0.80762
 O1336 O 0.78967 0.24799 0.83096
 O1337 O 0.83239 0.31792 0.74106
 O1338 O 0.75290 0.21029 0.82190
 O1339 O 0.82810 0.30970 0.78830
 O1340 O 0.84798 0.20852 0.78273
 O1341 O 0.79262 0.22092 0.78449
 O1342 O 0.82346 0.25830 0.75532
 O1343 O 0.74981 0.26083 0.78740
 O1344 O 0.77956 0.29772 0.75880
 Zr1345 Zr 0.75169 0.22738 0.70990
 Zr1346 Zr 0.74546 0.21249 0.77839
 Zr1347 Zr 0.80389 0.28374 0.72268
 Zr1348 Zr 0.81725 0.21023 0.74821
 O1349 O 0.79276 0.32913 0.70748
 O1350 O 0.81680 0.16363 0.76428
 O1351 O 0.79987 0.23540 0.71374
 O1352 O 0.77024 0.19967 0.74228
 O1353 O 0.72576 0.23834 0.74590
 O1354 O 0.75671 0.27593 0.71692
 C1355 C 0.85301 0.22766 0.80340
 C1356 C 0.83888 0.32468 0.76662
 C1357 C 0.77165 0.22490 0.83853
 O1358 O 0.75478 0.16541 0.79021
 O1359 O 0.71345 0.18140 0.75945
 O1360 O 0.71862 0.18980 0.71243
 C1361 C 0.70661 0.17518 0.73371
 O1362 O 0.73256 0.32313 0.78423
 Zr1363 Zr 0.73255 0.28650 0.75357
 O1364 O 0.71030 0.24484 0.69367
 O1365 O 0.70229 0.21861 0.79865
 O1366 O 0.69092 0.28139 0.77686
 O1367 O 0.72867 0.33078 0.73335
 O1368 O 0.69583 0.28288 0.72510
 C1369 C 0.69131 0.26545 0.70336
 O1370 O 0.76155 0.19032 0.68136
 O1371 O 0.84888 0.27900 0.70552
 O1372 O 0.76454 0.24448 0.66943
 O1373 O 0.80175 0.28138 0.67897
 O1374 O 0.86223 0.21634 0.73104
 O1375 O 0.82286 0.17869 0.71377
 C1376 C 0.78476 0.26555 0.66183
 H1377 H 0.84573 0.26355 0.75735
 H1378 H 0.76784 0.17691 0.73795
 H1379 H 0.74889 0.28876 0.70117
 H1380 H 0.73889 0.26653 0.80499
 H1381 H 0.83845 0.15607 0.76422
 H1382 H 0.73722 0.15820 0.80206
 H1383 H 0.69743 0.19849 0.80828
 H1384 H 0.67674 0.29832 0.77084
 H1385 H 0.87527 0.19927 0.73865
 H1386 H 0.85385 0.29900 0.69570
 H1387 H 0.81040 0.33628 0.69571
 H1388 H 0.70697 0.33779 0.73557
 H1389 H 0.84076 0.16482 0.71728
 H1390 H 0.74495 0.19024 0.66697
 H1391 H 0.80244 0.30517 0.83503
 H1392 H 0.71279 0.33474 0.78328
 C1393 C 0.47047 1.07121 0.33845
 C1394 C 0.47138 1.04576 0.31921
 C1395 C 0.48848 1.01878 0.32750
 C1396 C 0.50062 1.01606 0.35474
 C1397 C 0.49670 1.04045 0.37430
 C1398 C 0.48303 1.06862 0.36525
 H1399 H 0.45787 1.09256 0.33429
 H1400 H 0.49237 0.99919 0.31339
 H1401 H 0.51157 0.99426 0.36087
 H1402 H 0.48012 1.08828 0.37962
 C1403 C -0.02852 0.57344 0.83893
 C1404 C -0.02724 0.54800 0.81968
 C1405 C -0.01006 0.52114 0.82807
 C1406 C 0.00183 0.51849 0.85539
 C1407 C -0.00247 0.54282 0.87496
 C1408 C -0.01625 0.57090 0.86585
 H1409 H -0.04125 0.59469 0.83466
 H1410 H -0.00593 0.50160 0.81395
 H1411 H 0.01288 0.49676 0.86157
 H1412 H -0.01948 0.59049 0.88024
 C1413 C 0.04934 -0.07129 0.84637
 C1414 C 0.03807 -0.05159 0.82526
 C1415 C 0.01371 -0.03077 0.83210
 C1416 C 0.00261 -0.02817 0.85976
 C1417 C 0.01525 -0.04673 0.88111
 C1418 C 0.03797 -0.06909 0.87372
 H1419 H 0.06820 -0.08733 0.84227
 H1420 H 0.00374 -0.01579 0.81621
 H1421 H -0.01506 -0.01098 0.86456
 H1422 H 0.04825 -0.08416 0.88939
 C1423 C 0.51267 0.46846 0.33137
 C1424 C 0.53714 0.44770 0.32467
 C1425 C 0.54802 0.42776 0.34579
 C1426 C 0.53618 0.42966 0.37300
 C1427 C 0.51336 0.45197 0.38028
 C1428 C 0.50112 0.47079 0.35891
 H1429 H 0.50296 0.48361 0.31549
 H1430 H 0.56693 0.41174 0.34184
 H1431 H 0.54618 0.41442 0.38868
 H1432 H 0.48341 0.48797 0.36361
 C1433 C 0.55606 0.56510 0.15502
 C1434 C 0.54298 0.54589 0.17586
 C1435 C 0.51727 0.52665 0.16863
 C1436 C 0.50631 0.52520 0.14092
 C1437 C 0.52049 0.54334 0.11986
 C1438 C 0.54490 0.56400 0.12756
 H1439 H 0.57601 0.57991 0.15949
 H1440 H 0.50602 0.51207 0.18429
 H1441 H 0.48736 0.50927 0.13586
 H1442 H 0.55648 0.57855 0.11207
 C1443 C 0.02002 1.02318 0.66848
 C1444 C 0.04316 1.04536 0.67676
 C1445 C 0.05220 1.06815 0.65681
 C1446 C 0.04076 1.06703 0.62937
 C1447 C 0.01973 1.04328 0.62077
 C1448 C 0.00870 1.02205 0.64093
 H1449 H 0.01028 1.00644 0.68317
 H1450 H 0.06988 1.08563 0.66133
 H1451 H 0.04961 1.08416 0.61451
 H1452 H -0.00793 1.00384 0.63525
 C1453 C -0.02305 0.47798 0.66416
 C1454 C -0.04856 0.45843 0.67126
 C1455 C -0.06188 0.43965 0.65012
 C1456 C -0.05107 0.44139 0.62254
 C1457 C -0.02675 0.46224 0.61503
 C1458 C -0.01242 0.48004 0.63634
 H1459 H -0.01163 0.49223 0.68003
 H1460 H -0.08165 0.42461 0.65454
 H1461 H -0.06276 0.42707 0.60686
 H1462 H 0.00646 0.49609 0.63144
 C1463 C 0.47840 -0.02184 0.16413
 C1464 C 0.45358 -0.04235 0.17109
 C1465 C 0.44127 -0.06180 0.14994
 C1466 C 0.45239 -0.05991 0.12249
 C1467 C 0.47595 -0.03817 0.11507
 C1468 C 0.48932 -0.01960 0.13640
 H1469 H 0.48902 -0.00697 0.18003
 H1470 H 0.42198 -0.07754 0.15418
 H1471 H 0.44145 -0.07484 0.10681
 H1472 H 0.50757 -0.00280 0.13156
 C1473 C 0.35682 0.40318 0.00183
 C1474 C 0.34360 0.39856 0.02850
 C1475 C 0.35797 0.41342 0.05174
 C1476 C 0.38443 0.43268 0.04828
 C1477 C 0.39727 0.43769 0.02147
 C1478 C 0.38314 0.42238 -0.00162
 H1479 H 0.34693 0.39176 -0.01650
 H1480 H 0.34834 0.41080 0.07260
 H1481 H 0.39443 0.44414 0.06655
 H1482 H 0.39227 0.42539 -0.02264
 C1483 C -0.14693 0.90829 0.50194
 C1484 C -0.15697 0.89825 0.52873
 C1485 C -0.13891 0.90837 0.55206
 C1486 C -0.11267 0.92801 0.54868
 C1487 C -0.10323 0.93801 0.52190
 C1488 C -0.12070 0.92757 0.49864
 H1489 H -0.15849 0.90049 0.48300
 H1490 H -0.14557 0.90253 0.57331
 H1491 H -0.10001 0.93567 0.56714
 H1492 H -0.11425 0.93442 0.47754
 C1493 C -0.14544 0.09457 1.00065
 C1494 C -0.15868 0.09950 0.97411
 C1495 C -0.14452 0.08502 0.95065
 C1496 C -0.11831 0.06577 0.95378
 C1497 C -0.10549 0.06042 0.98047
 C1498 C -0.11937 0.07542 1.00378
 H1499 H -0.15511 0.10571 1.01916
 H1500 H -0.15413 0.08792 0.92986
 H1501 H -0.10848 0.05460 0.93535
 H1502 H -0.11026 0.07218 1.02472
 C1503 C 0.35269 0.59405 0.49922
 C1504 C 0.33963 0.59904 0.47260
 C1505 C 0.35404 0.58469 0.44920
 C1506 C 0.38031 0.56553 0.45245
 C1507 C 0.39299 0.56016 0.47920
 C1508 C 0.37884 0.57501 0.50246
 H1509 H 0.34282 0.60508 0.51769
 H1510 H 0.34459 0.58763 0.42836
 H1511 H 0.39032 0.55447 0.43405
 H1512 H 0.38780 0.57174 0.52345
 C1513 C 0.14077 0.59785 0.49631
 C1514 C 0.15464 0.60200 0.52276
 C1515 C 0.13989 0.58802 0.54618
 C1516 C 0.11247 0.57006 0.54312
 C1517 C 0.09896 0.56552 0.51652
 C1518 C 0.11348 0.57998 0.49325
 H1519 H 0.15090 0.60863 0.47785
 H1520 H 0.14994 0.59031 0.56690
 H1521 H 0.10225 0.55919 0.56149
 H1522 H 0.10393 0.57728 0.47236
 C1523 C 0.64233 0.09885 -0.00312
 C1524 C 0.65609 0.10271 0.02341
 C1525 C 0.64134 0.08836 0.04665
 C1526 C 0.61399 0.07040 0.04334
 C1527 C 0.60056 0.06617 0.01668
 C1528 C 0.61510 0.08094 -0.00643
 H1529 H 0.65252 0.10988 -0.02144
 H1530 H 0.65134 0.09035 0.06741
 H1531 H 0.60376 0.05926 0.06159
 H1532 H 0.60559 0.07844 -0.02735
 C1533 C 0.64767 0.90187 0.50290
 C1534 C 0.66154 0.89574 0.47670
 C1535 C 0.64788 0.90904 0.45264
 C1536 C 0.62149 0.92816 0.45478
 C1537 C 0.60795 0.93466 0.48106
 C1538 C 0.62138 0.92098 0.50504
 H1539 H 0.65703 0.89172 0.52185
 H1540 H 0.65800 0.90531 0.43210
 H1541 H 0.61208 0.93836 0.43585
 H1542 H 0.61172 0.92525 0.52570
 C1543 C 0.14696 0.40961 0.95314
 C1544 C 0.16041 0.39610 0.97721
 C1545 C 0.14629 0.40195 1.00334
 C1546 C 0.11996 0.42101 1.00543
 C1547 C 0.10676 0.43494 0.98145
 C1548 C 0.12054 0.42870 0.95523
 H1549 H 0.15728 0.40607 0.93265
 H1550 H 0.15549 0.39163 1.02229
 H1551 H 0.11012 0.42507 1.02605
 H1552 H 0.11131 0.43909 0.93631
 C1553 C 0.05243 0.33402 0.39891
 C1554 C 0.03307 0.33268 0.37521
 C1555 C 0.00871 0.35392 0.37268
 C1556 C 0.00247 0.37485 0.39426
 C1557 C 0.02112 0.37575 0.41845
 C1558 C 0.04661 0.35566 0.42037
 H1559 H 0.07112 0.31741 0.40146
 H1560 H -0.00627 0.35345 0.35446
 H1561 H -0.01718 0.39031 0.39187
 H1562 H 0.06147 0.35608 0.43867
 C1563 C 0.55402 -0.16587 -0.10112
 C1564 C 0.53468 -0.16715 -0.12484
 C1565 C 0.51065 -0.14556 -0.12758
 C1566 C 0.50465 -0.12437 -0.10614
 C1567 C 0.52322 -0.12359 -0.08190
 C1568 C 0.54845 -0.14399 -0.07982
 H1569 H 0.57245 -0.18275 -0.09841
 H1570 H 0.49569 -0.14598 -0.14582
 H1571 H 0.48515 -0.10872 -0.10861
 H1572 H 0.56324 -0.14368 -0.06147
 C1573 C -0.05783 -0.17652 1.09486
 C1574 C -0.03883 -0.17659 1.11882
 C1575 C -0.01613 -0.15324 1.12227
 C1576 C -0.01103 -0.13136 1.10136
 C1577 C -0.02932 -0.13156 1.07695
 C1578 C -0.05324 -0.15389 1.07407
 H1579 H -0.07528 -0.19468 1.09168
 H1580 H -0.00160 -0.15255 1.14079
 H1581 H 0.00741 -0.11422 1.10448
 H1582 H -0.06772 -0.15441 1.05552
 C1583 C 0.48057 0.35035 0.62406
 C1584 C 0.45743 0.32730 0.62170
 C1585 C 0.43769 0.32708 0.59822
 C1586 C 0.44232 0.34879 0.57662
 C1587 C 0.46715 0.37023 0.57816
 C1588 C 0.48601 0.37085 0.60220
 H1589 H 0.49568 0.35131 0.64219
 H1590 H 0.41987 0.30914 0.59585
 H1591 H 0.42736 0.34800 0.55840
 H1592 H 0.50522 0.38730 0.60431
 C1593 C 0.51965 1.15159 0.61587
 C1594 C 0.54344 1.17399 0.61382
 C1595 C 0.56322 1.17378 0.59030
 C1596 C 0.55831 1.15200 0.56860
 C1597 C 0.53313 1.13097 0.57005
 C1598 C 0.51392 1.13110 0.59391
 H1599 H 0.50459 1.15073 0.63408
 H1600 H 0.58157 1.19118 0.58816
 H1601 H 0.57352 1.15218 0.55050
 H1602 H 0.49454 1.11489 0.59603
 C1603 C 0.01615 0.64941 1.11895
 C1604 C 0.04208 0.66958 1.11958
 C1605 C 0.06466 0.66655 1.09819
 C1606 C 0.05983 0.64582 1.07566
 C1607 C 0.03245 0.62797 1.07420
 C1608 C 0.01101 0.62967 1.09633
 H1609 H -0.00070 0.64904 1.13582
 H1610 H 0.08496 0.68166 1.09749
 H1611 H 0.07698 0.64449 1.05909
 H1612 H -0.00993 0.61541 1.09651
 C1613 C 0.43872 0.66640 -0.09890
 C1614 C 0.46052 0.67070 -0.12076
 C1615 C 0.48688 0.65156 -0.12138
 C1616 C 0.49282 0.63101 -0.09970
 C1617 C 0.47218 0.62819 -0.07702
 C1618 C 0.44463 0.64538 -0.07713
 H1619 H 0.41821 0.68078 -0.09730
 H1620 H 0.50327 0.65250 -0.13860
 H1621 H 0.51380 0.61725 -0.10093
 H1622 H 0.42805 0.64315 -0.06016
 C1623 C -0.01152 1.15209 0.37998
 C1624 C -0.03799 1.17110 0.38065
 C1625 C -0.05956 1.16688 0.40270
 C1626 C -0.05358 1.14578 0.42436
 C1627 C -0.02616 1.12842 0.42423
 C1628 C -0.00553 1.13139 0.40155
 H1629 H 0.00478 1.15303 0.36269
 H1630 H -0.08006 1.18127 0.40446
 H1631 H -0.07011 1.14352 0.44138
 H1632 H 0.01540 1.11756 0.40022
 C1633 C 0.76606 0.73788 0.92151
 C1634 C 0.79298 0.72126 0.92991
 C1635 C 0.81797 0.72081 0.91075
 C1636 C 0.81510 0.73333 0.88391
 C1637 C 0.78712 0.74648 0.87477
 C1638 C 0.76309 0.74999 0.89424
 H1639 H 0.74676 0.74142 0.93557
 H1640 H 0.83922 0.70852 0.91499
 H1641 H 0.83446 0.73077 0.86960
 H1642 H 0.74144 0.76057 0.88803
 C1643 C 0.31872 0.22092 0.41019
 C1644 C 0.29402 0.22159 0.42964
 C1645 C 0.26700 0.23818 0.42143
 C1646 C 0.26361 0.24997 0.39408
 C1647 C 0.28733 0.24618 0.37435
 C1648 C 0.31544 0.23313 0.38328
 H1649 H 0.34003 0.20868 0.41428
 H1650 H 0.24792 0.24193 0.43570
 H1651 H 0.24188 0.26052 0.38804
 H1652 H 0.33459 0.23041 0.36876
 C1653 C 0.72084 0.26256 0.41836
 C1654 C 0.69937 0.28651 0.42505
 C1655 C 0.67972 0.29711 0.40377
 C1656 C 0.68248 0.28552 0.37646
 C1657 C 0.70537 0.26328 0.36923
 C1658 C 0.72398 0.25125 0.39071
 H1659 H 0.73589 0.25315 0.43436
 H1660 H 0.66323 0.31570 0.40773
 H1661 H 0.66735 0.29530 0.36068
 H1662 H 0.74160 0.23397 0.38603
 C1663 C 0.22487 0.76667 0.91658
 C1664 C 0.20160 0.78862 0.92433
 C1665 C 0.17889 0.79538 0.90406
 C1666 C 0.18097 0.78316 0.87684
 C1667 C 0.20575 0.76368 0.86868
 C1668 C 0.22703 0.75465 0.88917
 H1669 H 0.24173 0.75847 0.93155
 H1670 H 0.16057 0.81201 0.90810
 H1671 H 0.16373 0.79036 0.86174
 H1672 H 0.24602 0.73919 0.88382
 C1673 C 0.27076 0.77103 0.08174
 C1674 C 0.29322 0.79397 0.07365
 C1675 C 0.31550 0.80284 0.09386
 C1676 C 0.31381 0.79141 0.12129
 C1677 C 0.28993 0.77060 0.12967
 C1678 C 0.26904 0.75974 0.10931
 H1679 H 0.25431 0.76136 0.06687
 H1680 H 0.33312 0.82040 0.08951
 H1681 H 0.33068 0.80011 0.13631
 H1682 H 0.25075 0.74323 0.11483
 C1683 C 0.81025 0.30979 0.59656
 C1684 C 0.79182 0.29605 0.57554
 C1685 C 0.77283 0.26996 0.58269
 C1686 C 0.77101 0.25917 0.61046
 C1687 C 0.78847 0.27393 0.63166
 C1688 C 0.80873 0.29883 0.62411
 H1689 H 0.82485 0.33006 0.59208
 H1690 H 0.75881 0.25825 0.56689
 H1691 H 0.75543 0.23981 0.61541
 H1692 H 0.82274 0.31087 0.63973
 C1693 C 0.23101 0.22563 0.58693
 C1694 C 0.21140 0.19987 0.58000
 C1695 C 0.19322 0.18647 0.60128
 C1696 C 0.19541 0.19753 0.62882
 C1697 C 0.21615 0.22218 0.63614
 C1698 C 0.23352 0.23653 0.61473
 H1699 H 0.24485 0.23710 0.57093
 H1700 H 0.17818 0.16646 0.59697
 H1701 H 0.18144 0.18579 0.64459
 H1702 H 0.24947 0.25566 0.61951
 C1703 C 0.73018 0.72704 0.08602
 C1704 C 0.70977 0.70196 0.07900
 C1705 C 0.69099 0.68926 0.10021
 C1706 C 0.69337 0.70029 0.12775
 C1707 C 0.71490 0.72416 0.13518
 C1708 C 0.73287 0.73789 0.11384
 H1709 H 0.74455 0.73793 0.07008
 H1710 H 0.67536 0.66974 0.09588
 H1711 H 0.67890 0.68906 0.14345
 H1712 H 0.74947 0.75640 0.11870
 C1713 C 0.15737 0.60956 0.19803
 C1714 C 0.14280 0.59543 0.22143
 C1715 C 0.14807 0.60891 0.24804
 C1716 C 0.16779 0.63507 0.25132
 C1717 C 0.18300 0.64881 0.22810
 C1718 C 0.17720 0.63589 0.20131
 H1719 H 0.15413 0.59976 0.17720
 H1720 H 0.13683 0.59927 0.26648
 H1721 H 0.17133 0.64433 0.27231
 H1722 H 0.18851 0.64565 0.18296
 C1723 C 0.65900 0.10940 0.69850
 C1724 C 0.64393 0.09529 0.72166
 C1725 C 0.64873 0.10873 0.74835
 C1726 C 0.66838 0.13492 0.75193
 C1727 C 0.68395 0.14872 0.72893
 C1728 C 0.67869 0.13577 0.70207
 H1729 H 0.65623 0.09958 0.67762
 H1730 H 0.63716 0.09908 0.76661
 H1731 H 0.67154 0.14420 0.77297
 H1732 H 0.69033 0.14555 0.68389
 C1733 C 0.84405 0.10766 0.30005
 C1734 C 0.85438 0.08974 0.27659
 C1735 C 0.84420 0.09957 0.24987
 C1736 C 0.82451 0.12539 0.24676
 C1737 C 0.81380 0.14265 0.27013
 C1738 C 0.82400 0.13349 0.29685
 H1739 H 0.85006 0.10113 0.32124
 H1740 H 0.85212 0.08818 0.23084
 H1741 H 0.81755 0.13167 0.22569
 H1742 H 0.81621 0.14603 0.31540
 C1743 C 0.34361 0.60840 0.79947
 C1744 C 0.35395 0.59047 0.77603
 C1745 C 0.34392 0.60036 0.74928
 C1746 C 0.32429 0.62620 0.74613
 C1747 C 0.31349 0.64341 0.76950
 C1748 C 0.32361 0.63424 0.79624
 H1749 H 0.34954 0.60182 0.82068
 H1750 H 0.35191 0.58898 0.73028
 H1751 H 0.31741 0.63251 0.72506
 H1752 H 0.31575 0.64676 0.81477
 C1753 C 0.34292 0.38936 0.70387
 C1754 C 0.35746 0.40418 0.72705
 C1755 C 0.35345 0.39047 0.75364
 C1756 C 0.33510 0.36329 0.75707
 C1757 C 0.32006 0.34877 0.73404
 C1758 C 0.32454 0.36204 0.70730
 H1759 H 0.34504 0.39935 0.68308
 H1760 H 0.36463 0.40069 0.77191
 H1761 H 0.33245 0.35385 0.77804
 H1762 H 0.31322 0.35180 0.68910
 C1763 C 0.84724 0.88710 0.20369
 C1764 C 0.85745 0.90541 0.22706
 C1765 C 0.84813 0.89489 0.25390
 C1766 C 0.82952 0.86792 0.25722
 C1767 C 0.81903 0.85021 0.23392
 C1768 C 0.82832 0.86014 0.20709
 H1769 H 0.85237 0.89418 0.18241
 H1770 H 0.85593 0.90670 0.27281
 H1771 H 0.82316 0.86112 0.27836
 H1772 H 0.82054 0.84739 0.18861
 C1773 C 0.65433 0.89683 0.79678
 C1774 C 0.64076 0.91021 0.77272
 C1775 C 0.64683 0.89603 0.74655
 C1776 C 0.66628 0.86979 0.74439
 C1777 C 0.68035 0.85677 0.76834
 C1778 C 0.67380 0.87049 0.79463
 H1779 H 0.65058 0.90723 0.81730
 H1780 H 0.63645 0.90515 0.72761
 H1781 H 0.67056 0.85994 0.72373
 H1782 H 0.68428 0.86135 0.81352
 C1783 C 0.15487 0.39689 0.29695
 C1784 C 0.14144 0.41065 0.27301
 C1785 C 0.14788 0.39701 0.24666
 C1786 C 0.16750 0.37092 0.24425
 C1787 C 0.18135 0.35747 0.26811
 C1788 C 0.17448 0.37068 0.29455
 H1789 H 0.15087 0.40686 0.31760
 H1790 H 0.13762 0.40642 0.22778
 H1791 H 0.17201 0.36145 0.22350
 H1792 H 0.18477 0.36121 0.31340
 C1793 C 0.10568 0.26478 0.87461
 C1794 C 0.08399 0.28838 0.86993
 C1795 C 0.08633 0.30749 0.84596
 C1796 C 0.10924 0.30174 0.82605
 C1797 C 0.12963 0.27660 0.82986
 C1798 C 0.12801 0.25862 0.85457
 H1799 H 0.10436 0.25006 0.89312
 H1800 H 0.06943 0.32563 0.84186
 H1801 H 0.11023 0.31608 0.80730
 H1802 H 0.14359 0.23921 0.85832
 C1803 C 0.58618 0.80662 0.34610
 C1804 C 0.58382 0.78722 0.36987
 C1805 C 0.60551 0.76355 0.37433
 C1806 C 0.62788 0.75766 0.35427
 C1807 C 0.62951 0.77594 0.32973
 C1808 C 0.60910 0.80111 0.32615
 H1809 H 0.56928 0.82481 0.34218
 H1810 H 0.60416 0.74859 0.39269
 H1811 H 0.64351 0.73824 0.35784
 H1812 H 0.61008 0.81568 0.30754
 C1813 C 0.60208 0.22919 0.12797
 C1814 C 0.57917 0.20620 0.13184
 C1815 C 0.58030 0.18615 0.15524
 C1816 C 0.60315 0.19057 0.17554
 C1817 C 0.62457 0.21538 0.17269
 C1818 C 0.62411 0.23423 0.14847
 H1819 H 0.60179 0.24456 0.10985
 H1820 H 0.56249 0.16843 0.15869
 H1821 H 0.60321 0.17561 0.19391
 H1822 H 0.64050 0.25339 0.14541
 C1823 C 0.07809 0.68534 0.65626
 C1824 C 0.07718 0.70491 0.63253
 C1825 C 0.10074 0.72703 0.62791
 C1826 C 0.12330 0.73174 0.64799
 C1827 C 0.12340 0.71365 0.67267
 C1828 C 0.10133 0.68956 0.67623
 H1829 H 0.05981 0.66827 0.66020
 H1830 H 0.10053 0.74205 0.60956
 H1831 H 0.14004 0.75048 0.64451
 H1832 H 0.10112 0.67517 0.69497
 C1833 C 0.90105 0.77103 0.63711
 C1834 C 0.92231 0.79608 0.63956
 C1835 C 0.91815 0.81859 0.66122
 C1836 C 0.89509 0.81410 0.68147
 C1837 C 0.87589 0.78733 0.68009
 C1838 C 0.87856 0.76648 0.65723
 H1839 H 0.90198 0.75442 0.61977
 H1840 H 0.93403 0.83825 0.66398
 H1841 H 0.89307 0.83081 0.69865
 H1842 H 0.86344 0.74612 0.65484
 C1843 C 0.40109 0.27246 0.13674
 C1844 C 0.42369 0.29574 0.14096
 C1845 C 0.42228 0.31545 0.16476
 C1846 C 0.39915 0.31070 0.18486
 C1847 C 0.37782 0.28587 0.18139
 C1848 C 0.37890 0.26708 0.15701
 H1849 H 0.40141 0.25745 0.11825
 H1850 H 0.43979 0.33344 0.16843
 H1851 H 0.39862 0.32559 0.20340
 H1852 H 0.36256 0.24794 0.15344
 C1853 C 0.41912 0.68766 0.33946
 C1854 C 0.42091 0.70661 0.36371
 C1855 C 0.39911 0.73020 0.36837
 C1856 C 0.37717 0.73643 0.34816
 C1857 C 0.37598 0.71854 0.32323
 C1858 C 0.39654 0.69349 0.31932
 H1859 H 0.43608 0.66949 0.33546
 H1860 H 0.39994 0.74475 0.38714
 H1861 H 0.36140 0.75572 0.35203
 H1862 H 0.39588 0.67922 0.30039
 C1863 C 0.91942 0.18882 0.84057
 C1864 C 0.92113 0.20761 0.86492
 C1865 C 0.89923 0.23107 0.86971
 C1866 C 0.87728 0.23738 0.84953
 C1867 C 0.87619 0.21970 0.82449
 C1868 C 0.89684 0.19473 0.82044
 H1869 H 0.93645 0.17075 0.83648
 H1870 H 0.90003 0.24552 0.88855
 H1871 H 0.86145 0.25658 0.85351
 H1872 H 0.89624 0.18060 0.80143
 C1873 C 0.55959 1.00310 0.65386
 C1874 C 0.56633 1.03305 0.66576
 C1875 C 0.55461 1.05978 0.65175
 C1876 C 0.53842 1.05676 0.62638
 C1877 C 0.53378 1.02718 0.61379
 C1878 C 0.54405 1.00032 0.62811
 H1879 H 0.56834 0.98169 0.66309
 H1880 H 0.55766 1.08330 0.66031
 H1881 H 0.53120 1.07778 0.61574
 H1882 H 0.54119 0.97712 0.61876
 C1883 C 0.06324 0.50305 1.15192
 C1884 C 0.06377 0.53206 1.16632
 C1885 C 0.04652 0.55722 1.15536
 C1886 C 0.03037 0.55380 1.12991
 C1887 C 0.03167 0.52543 1.11457
 C1888 C 0.04755 0.49983 1.12638
 H1889 H 0.07631 0.48322 1.15965
 H1890 H 0.04604 0.57975 1.16619
 H1891 H 0.01832 0.57382 1.12153
 H1892 H 0.04905 0.47755 1.11522
 C1893 C -0.06396 -0.00120 1.15798
 C1894 C -0.06854 -0.03100 1.17067
 C1895 C -0.05489 -0.05740 1.15737
 C1896 C -0.03873 -0.05434 1.13198
 C1897 C -0.03618 -0.02507 1.11859
 C1898 C -0.04859 0.00156 1.13209
 H1899 H -0.07421 0.01985 1.16679
 H1900 H -0.05625 -0.08064 1.16663
 H1901 H -0.02965 -0.07524 1.12204
 H1902 H -0.04726 0.02446 1.12213
 C1903 C 0.43448 0.49962 0.65713
 C1904 C 0.43061 0.46988 0.67012
 C1905 C 0.44473 0.44365 0.65703
 C1906 C 0.46075 0.44680 0.63160
 C1907 C 0.46257 0.47587 0.61784
 C1908 C 0.44963 0.50239 0.63111
 H1909 H 0.42384 0.52053 0.66582
 H1910 H 0.44386 0.42049 0.66650
 H1911 H 0.47030 0.42606 0.62192
 H1912 H 0.45041 0.52518 0.62092
 C1913 C 0.44934 0.55526 -0.15776
 C1914 C 0.43165 0.52974 -0.16833
 C1915 C 0.43203 0.50108 -0.15363
 C1916 C 0.44826 0.49845 -0.12833
 C1917 C 0.46496 0.52427 -0.11712
 C1918 C 0.46602 0.55245 -0.13256
 H1919 H 0.44986 0.57757 -0.16875
 H1920 H 0.41861 0.48102 -0.16105
 H1921 H 0.44684 0.47639 -0.11699
 H1922 H 0.47843 0.57279 -0.12447
 C1923 C -0.05022 1.05498 0.34302
 C1924 C -0.06761 1.02935 0.33224
 C1925 C -0.06707 1.00062 0.34684
 C1926 C -0.05097 0.99801 0.37222
 C1927 C -0.03453 1.02392 0.38361
 C1928 C -0.03365 1.05220 0.36829
 H1929 H -0.04983 1.07735 0.33212
 H1930 H -0.08028 0.98048 0.33929
 H1931 H -0.05226 0.97589 0.38348
 H1932 H -0.02151 1.07263 0.37655
 C1933 C 0.04373 0.44901 0.33713
 C1934 C 0.06229 0.47391 0.32688
 C1935 C 0.06277 0.50259 0.34181
 C1936 C 0.04658 0.50574 0.36714
 C1937 C 0.02906 0.48044 0.37809
 C1938 C 0.02704 0.45239 0.36231
 H1939 H 0.04258 0.42673 0.32593
 H1940 H 0.07690 0.52218 0.33458
 H1941 H 0.04871 0.52772 0.37872
 H1942 H 0.01387 0.43252 0.37013
 C1943 C 0.56390 0.00334 -0.15857
 C1944 C 0.56264 -0.02516 -0.17374
 C1945 C 0.54365 -0.04975 -0.16355
 C1946 C 0.52732 -0.04631 -0.13819
 C1947 C 0.53016 -0.01852 -0.12213
 C1948 C 0.54809 0.00653 -0.13302
 H1949 H 0.57838 0.02268 -0.16577
 H1950 H 0.54191 -0.07188 -0.17494
 H1951 H 0.51378 -0.06596 -0.13047
 H1952 H 0.55083 0.02831 -0.12125
 C1953 C 0.65607 0.62033 -0.01918
 C1954 C 0.65519 0.64678 -0.00076
 C1955 C 0.62570 0.65823 0.00675
 C1956 C 0.59867 0.64222 -0.00124
 C1957 C 0.59992 0.61418 -0.01699
 C1958 C 0.62877 0.60404 -0.02688
 H1959 H 0.67784 0.61011 -0.02557
 H1960 H 0.62314 0.67943 0.01926
 H1961 H 0.57667 0.65052 0.00677
 H1962 H 0.63049 0.58201 -0.03840
 C1963 C 0.15823 1.11476 0.48485
 C1964 C 0.15681 1.14380 0.49943
 C1965 C 0.12760 1.15742 0.50374
 C1966 C 0.10053 1.14125 0.49592
 C1967 C 0.10189 1.11122 0.48334
 C1968 C 0.13101 1.09858 0.47698
 H1969 H 0.18028 1.10346 0.48130
 H1970 H 0.12557 1.17999 0.51431
 H1971 H 0.07834 1.15117 0.50165
 H1972 H 0.13270 1.07502 0.46820
 C1973 C 0.15213 -0.11851 1.01398
 C1974 C 0.14921 -0.14841 1.00096
 C1975 C 0.11937 -0.16161 0.99824
 C1976 C 0.09318 -0.14445 1.00629
 C1977 C 0.09610 -0.11386 1.01760
 C1978 C 0.12586 -0.10143 1.02216
 H1979 H 0.17462 -0.10732 1.01618
 H1980 H 0.11613 -0.18474 0.98890
 H1981 H 0.07043 -0.15418 1.00181
 H1982 H 0.12872 -0.07745 1.02980
 C1983 C 0.64807 0.37547 0.51897
 C1984 C 0.64613 0.34786 0.50195
 C1985 C 0.61612 0.33685 0.49500
 C1986 C 0.58980 0.35412 0.50222
 C1987 C 0.59225 0.38285 0.51687
 C1988 C 0.62151 0.39278 0.52613
 H1989 H 0.67016 0.38572 0.52477
 H1990 H 0.61256 0.31501 0.48357
 H1991 H 0.56743 0.34600 0.49468
 H1992 H 0.62416 0.41531 0.53674
 C1993 C -0.12846 0.34337 0.49722
 C1994 C -0.15837 0.35585 0.49475
 C1995 C -0.16168 0.38536 0.48151
 C1996 C -0.13558 0.40298 0.47312
 C1997 C -0.10570 0.39135 0.47755
 C1998 C -0.10248 0.36097 0.48883
 H1999 H -0.12500 0.32055 0.50680
 H2000 H -0.18430 0.39588 0.47946
 H2001 H -0.13867 0.42678 0.46548
 H2002 H -0.07963 0.35186 0.49320
 C2003 C 0.34074 -0.11496 -0.01784
 C2004 C 0.34409 -0.14449 -0.00462
 C2005 C 0.37403 -0.15691 -0.00217
 C2006 C 0.39997 -0.13928 -0.01066
 C2007 C 0.39669 -0.10894 -0.02204
 C2008 C 0.36678 -0.09734 -0.02636
 H2009 H 0.31810 -0.10445 -0.01988
 H2010 H 0.37754 -0.17975 0.00735
 H2011 H 0.42285 -0.14836 -0.00635
 H2012 H 0.36364 -0.07356 -0.03403
 C2013 C 0.36077 1.13901 0.52130
 C2014 C 0.35522 1.15417 0.49528
 C2015 C 0.37805 1.15136 0.47439
 C2016 C 0.40457 1.13376 0.47873
 C2017 C 0.40924 1.11679 0.50371
 C2018 C 0.38742 1.12033 0.52541
 H2019 H 0.34434 1.14088 0.53837
 H2020 H 0.37512 1.16136 0.45375
 H2021 H 0.42092 1.13229 0.46151
 H2022 H 0.39027 1.10778 0.54497
 C2023 C -0.14104 0.63813 1.02161
 C2024 C -0.14636 0.65372 0.99575
 C2025 C -0.12311 0.65163 0.97516
 C2026 C -0.09638 0.63443 0.97965
 C2027 C -0.09189 0.61706 1.00443
 C2028 C -0.11418 0.61980 1.02582
 H2029 H -0.15780 0.63941 1.03846
 H2030 H -0.12579 0.66191 0.95460
 H2031 H -0.07970 0.63357 0.96265
 H2032 H -0.11151 0.60688 1.04522
 C2033 C -0.02226 0.64868 0.55755
 C2034 C -0.00980 0.65081 0.58463
 C2035 C -0.00689 0.62342 0.60090
 C2036 C -0.01199 0.59395 0.58881
 C2037 C -0.02094 0.59177 0.56065
 C2038 C -0.02804 0.61921 0.54566
 H2039 H -0.02480 0.66950 0.54468
 H2040 H 0.00172 0.62470 0.62223
 H2041 H -0.00711 0.57295 0.60086
 H2042 H -0.03519 0.61795 0.52389
 C2043 C 0.47925 0.14857 0.05779
 C2044 C 0.49243 0.15090 0.08457
 C2045 C 0.49592 0.12361 0.10087
 C2046 C 0.49063 0.09406 0.08901
 C2047 C 0.48094 0.09169 0.06106
 C2048 C 0.47329 0.11902 0.04613
 H2049 H 0.47624 0.16930 0.04489
 H2050 H 0.50507 0.12504 0.12201
 H2051 H 0.49594 0.07315 0.10103
 H2052 H 0.46557 0.11763 0.02453
 C2053 C 0.01365 0.14235 0.94135
 C2054 C 0.00056 0.14550 0.91463
 C2055 C -0.00430 0.11850 0.89784
 C2056 C 0.00034 0.08863 0.90891
 C2057 C 0.01076 0.08555 0.93656
 C2058 C 0.01900 0.11253 0.95215
 H2059 H 0.01757 0.16270 0.95476
 H2060 H -0.01333 0.12042 0.87673
 H2061 H -0.00559 0.06802 0.89641
 H2062 H 0.02711 0.11066 0.97359
 C2063 C 0.49499 0.61705 0.39635
 C2064 C 0.50011 0.64399 0.41317
 C2065 C 0.51339 0.64069 0.43980
 C2066 C 0.51861 0.61083 0.45052
 C2067 C 0.51002 0.58394 0.43496
 C2068 C 0.49946 0.58712 0.40737
 H2069 H 0.48584 0.61906 0.37529
 H2070 H 0.51751 0.66097 0.45325
 H2071 H 0.52683 0.60888 0.47191
 H2072 H 0.49326 0.56657 0.39490
 C2073 C 0.50632 0.87493 0.39635
 C2074 C 0.50038 0.84891 0.41382
 C2075 C 0.48596 0.85348 0.43984
 C2076 C 0.48091 0.88393 0.44965
 C2077 C 0.49071 0.90995 0.43368
 C2078 C 0.50196 0.90539 0.40642
 H2079 H 0.51644 0.87178 0.37570
 H2080 H 0.48107 0.83378 0.45360
 H2081 H 0.47200 0.88701 0.47076
 H2082 H 0.50900 0.92525 0.39359
 C2083 C 0.00676 0.37654 0.89580
 C2084 C 0.00043 0.35053 0.91320
 C2085 C -0.01460 0.35517 0.93893
 C2086 C -0.01989 0.38563 0.94857
 C2087 C -0.00969 0.41163 0.93276
 C2088 C 0.00221 0.40702 0.90574
 H2089 H 0.01728 0.37337 0.87532
 H2090 H -0.01980 0.33553 0.95267
 H2091 H -0.02929 0.38873 0.96949
 H2092 H 0.00958 0.42687 0.89304
 C2093 C 0.51596 0.35713 0.06080
 C2094 C 0.50456 0.35479 0.08830
 C2095 C 0.50170 0.38221 0.10483
 C2096 C 0.50632 0.41173 0.09288
 C2097 C 0.51480 0.41399 0.06459
 C2098 C 0.52134 0.38661 0.04909
 H2099 H 0.51832 0.33644 0.04756
 H2100 H 0.49401 0.38091 0.12645
 H2101 H 0.50178 0.43271 0.10526
 H2102 H 0.52795 0.38792 0.02717
 C2103 C 0.01657 0.85689 0.56294
 C2104 C 0.00482 0.85472 0.59035
 C2105 C 0.00161 0.88230 0.60662
 C2106 C 0.00609 0.91173 0.59443
 C2107 C 0.01480 0.91376 0.56617
 C2108 C 0.02182 0.88627 0.55102
 H2109 H 0.01920 0.83611 0.54986
 H2110 H -0.00635 0.88117 0.62817
 H2111 H 0.00121 0.93280 0.60658
 H2112 H 0.02867 0.88739 0.52914
 C2113 C 0.25219 0.31325 0.09563
 C2114 C 0.28159 0.32005 0.08386
 C2115 C 0.30774 0.30763 0.09774
 C2116 C 0.30469 0.29073 0.12286
 C2117 C 0.27562 0.28605 0.13531
 C2118 C 0.24937 0.29699 0.12109
 H2119 H 0.23124 0.32251 0.08654
 H2120 H 0.33082 0.31064 0.08925
 H2121 H 0.32529 0.28295 0.13340
 H2122 H 0.22658 0.29409 0.13032
 C2123 C 0.80621 0.80229 0.59560
 C2124 C 0.78136 0.81944 0.58433
 C2125 C 0.75270 0.81823 0.59829
 C2126 C 0.74940 0.80190 0.62358
 C2127 C 0.77460 0.78607 0.63567
 C2128 C 0.80279 0.78561 0.62089
 H2129 H 0.82849 0.80226 0.58513
 H2130 H 0.73310 0.83121 0.59037
 H2131 H 0.72730 0.80280 0.63434
 H2132 H 0.82260 0.77380 0.62958
 C2133 C 0.19755 0.69766 0.58901
 C2134 C 0.22097 0.67751 0.57912
 C2135 C 0.24831 0.67510 0.59484
 C2136 C 0.25143 0.69092 0.62060
 C2137 C 0.22747 0.71001 0.63119
 C2138 C 0.20095 0.71400 0.61457
 H2139 H 0.17636 0.70035 0.57716
 H2140 H 0.26675 0.65976 0.58785
 H2141 H 0.27228 0.68729 0.63273
 H2142 H 0.18222 0.72857 0.62190
 C2143 C 0.69615 0.19171 0.09308
 C2144 C 0.72172 0.17703 0.07997
 C2145 C 0.75102 0.18113 0.09277
 C2146 C 0.75407 0.19705 0.11858
 C2147 C 0.72823 0.21053 0.13187
 C2148 C 0.69953 0.20846 0.11834
 H2149 H 0.67333 0.19073 0.08375
 H2150 H 0.77144 0.17009 0.08409
 H2151 H 0.77654 0.19798 0.12862
 H2152 H 0.67927 0.21839 0.12806
 C2153 C 0.80361 0.19689 0.90857
 C2154 C 0.77896 0.17817 0.91877
 C2155 C 0.75095 0.17796 0.90380
 C2156 C 0.74817 0.19462 0.87861
 C2157 C 0.77315 0.21241 0.86778
 C2158 C 0.80062 0.21405 0.88353
 H2159 H 0.82539 0.19790 0.91978
 H2160 H 0.73155 0.16374 0.91094
 H2161 H 0.72663 0.19275 0.86709
 H2162 H 0.82027 0.22735 0.87583
 C2163 C 0.30291 0.69664 0.40701
 C2164 C 0.27796 0.67833 0.41722
 C2165 C 0.24991 0.67876 0.40234
 C2166 C 0.24734 0.69560 0.37722
 C2167 C 0.27262 0.71290 0.36633
 C2168 C 0.30016 0.71394 0.38201
 H2169 H 0.32475 0.69720 0.41815
 H2170 H 0.23026 0.66488 0.40946
 H2171 H 0.22573 0.69417 0.36576
 H2172 H 0.32004 0.72685 0.37427
 C2173 C 0.70140 0.79703 0.41280
 C2174 C 0.72549 0.81643 0.42311
 C2175 C 0.75362 0.81737 0.40827
 C2176 C 0.75701 0.80078 0.38297
 C2177 C 0.73251 0.78241 0.37196
 C2178 C 0.70501 0.77996 0.38766
 H2179 H 0.67956 0.79550 0.42394
 H2180 H 0.77258 0.83215 0.41555
 H2181 H 0.77855 0.80326 0.37147
 H2182 H 0.68575 0.76613 0.37981
 C2183 C 0.20101 0.29755 0.91344
 C2184 C 0.22493 0.31723 0.92367
 C2185 C 0.25300 0.31844 0.90875
 C2186 C 0.25649 0.30182 0.88346
 C2187 C 0.23216 0.28312 0.87255
 C2188 C 0.20473 0.28043 0.88833
 H2189 H 0.17922 0.29582 0.92464
 H2190 H 0.27183 0.33342 0.91598
 H2191 H 0.27798 0.30449 0.87193
 H2192 H 0.18562 0.26632 0.88060
 C2193 C 0.90682 0.37572 0.74885
 C2194 C 0.89443 0.40607 0.75242
 C2195 C 0.86594 0.40886 0.76675
 C2196 C 0.84916 0.38190 0.77510
 C2197 C 0.86062 0.35161 0.76956
 C2198 C 0.89007 0.34889 0.75720
 H2199 H 0.92890 0.37260 0.73844
 H2200 H 0.85552 0.43179 0.76972
 H2201 H 0.82605 0.38467 0.78359
 H2202 H 0.89905 0.32579 0.75196
 C2203 C 0.40731 0.87373 0.24319
 C2204 C 0.39701 0.90424 0.25050
 C2205 C 0.37097 0.90613 0.26867
 C2206 C 0.35410 0.87890 0.27639
 C2207 C 0.36318 0.84908 0.26674
 C2208 C 0.39068 0.84676 0.25115
 H2209 H 0.42808 0.87031 0.23087
 H2210 H 0.36154 0.92867 0.27487
 H2211 H 0.33250 0.88147 0.28772
 H2212 H 0.39810 0.82400 0.24327
 C2213 C 0.08869 0.86567 0.75024
 C2214 C 0.10063 0.89647 0.74722
 C2215 C 0.12994 0.90018 0.73439
 C2216 C 0.14763 0.87383 0.72671
 C2217 C 0.13643 0.84320 0.73162
 C2218 C 0.10647 0.83941 0.74274
 H2219 H 0.06607 0.86176 0.75948
 H2220 H 0.14022 0.92339 0.73200
 H2221 H 0.17108 0.87740 0.71918
 H2222 H 0.09766 0.81600 0.74744
 C2223 C 0.63095 0.40059 0.23499
 C2224 C 0.60142 0.39658 0.24733
 C2225 C 0.58969 0.36566 0.25007
 C2226 C 0.60782 0.33959 0.24275
 C2227 C 0.63796 0.34367 0.23209
 C2228 C 0.64901 0.37442 0.22750
 H2229 H 0.64108 0.42390 0.23283
 H2230 H 0.56693 0.36152 0.25894
 H2231 H 0.59910 0.31608 0.24720
 H2232 H 0.67256 0.37822 0.22034
 C2233 C 0.59431 0.62540 0.25374
 C2234 C 0.60539 0.59439 0.25582
 C2235 C 0.63459 0.58981 0.26835
 C2236 C 0.65313 0.61564 0.27652
 C2237 C 0.64280 0.64658 0.27256
 C2238 C 0.61286 0.65114 0.26189
 H2239 H 0.57182 0.62988 0.24468
 H2240 H 0.64410 0.56634 0.27004
 H2241 H 0.67654 0.61151 0.28365
 H2242 H 0.60474 0.67481 0.25786
 C2243 C 0.13494 0.08964 0.76820
 C2244 C 0.10589 0.09423 0.75538
 C2245 C 0.09464 0.12519 0.75358
 C2246 C 0.11289 0.15092 0.76234
 C2247 C 0.14270 0.14639 0.77333
 C2248 C 0.15318 0.11545 0.77695
 H2249 H 0.14457 0.06621 0.76971
 H2250 H 0.07222 0.12966 0.74435
 H2251 H 0.10469 0.17460 0.75849
 H2252 H 0.17653 0.11135 0.78426
 C2253 C 0.39959 0.12889 0.27418
 C2254 C 0.40274 0.10538 0.25347
 C2255 C 0.38745 0.11027 0.22748
 C2256 C 0.36838 0.13688 0.22325
 C2257 C 0.36454 0.15932 0.24479
 C2258 C 0.38157 0.15538 0.26971
 H2259 H 0.40968 0.12648 0.29479
 H2260 H 0.38955 0.09333 0.21055
 H2261 H 0.35577 0.13915 0.20375
 H2262 H 0.37983 0.17225 0.28678
 C2263 C 0.90123 0.63088 0.77431
 C2264 C 0.90425 0.60722 0.75372
 C2265 C 0.88870 0.61185 0.72783
 C2266 C 0.86943 0.63829 0.72363
 C2267 C 0.86566 0.66083 0.74508
 C2268 C 0.88301 0.65722 0.76985
 H2269 H 0.91155 0.62869 0.79485
 H2270 H 0.89071 0.59481 0.71097
 H2271 H 0.85657 0.64033 0.70423
 H2272 H 0.88134 0.67422 0.78684
 C2273 C 0.89850 0.72567 0.19527
 C2274 C 0.90209 0.74238 0.16994
 C2275 C 0.87556 0.74790 0.15346
 C2276 C 0.84622 0.74163 0.16400
 C2277 C 0.84284 0.72909 0.19091
 C2278 C 0.86904 0.71913 0.20566
 H2279 H 0.91796 0.72058 0.20871
 H2280 H 0.87720 0.75811 0.13272
 H2281 H 0.82620 0.74834 0.15179
 H2282 H 0.86692 0.70904 0.22644
 C2283 C 0.37623 0.24351 0.65441
 C2284 C 0.40233 0.24142 0.67185
 C2285 C 0.39932 0.22843 0.69872
 C2286 C 0.37009 0.22127 0.70923
 C2287 C 0.34372 0.22757 0.69309
 C2288 C 0.34697 0.23701 0.66512
 H2289 H 0.37824 0.25235 0.63317
 H2290 H 0.41913 0.22644 0.71248
 H2291 H 0.36802 0.21387 0.73090
 H2292 H 0.32684 0.24136 0.65220
 C2293 C 0.37066 0.74371 0.84815
 C2294 C 0.39620 0.74839 0.83022
 C2295 C 0.39170 0.76227 0.80390
 C2296 C 0.36199 0.76873 0.79468
 C2297 C 0.33632 0.76072 0.81138
 C2298 C 0.34081 0.74938 0.83861
 H2299 H 0.37359 0.73418 0.86902
 H2300 H 0.41084 0.76607 0.78956
 H2301 H 0.35907 0.77740 0.77350
 H2302 H 0.32126 0.74348 0.85193
 C2303 C 0.87084 0.23870 0.34868
 C2304 C 0.89680 0.24675 0.33198
 C2305 C 0.89193 0.26501 0.30775
 C2306 C 0.86209 0.27156 0.29884
 C2307 C 0.83649 0.25982 0.31374
 C2308 C 0.84102 0.24483 0.33946
 H2309 H 0.87325 0.22705 0.36871
 H2310 H 0.91068 0.27183 0.29392
 H2311 H 0.85921 0.28339 0.27891
 H2312 H 0.82153 0.23643 0.35177
 C2313 C 0.10263 0.23761 0.30201
 C2314 C 0.09688 0.25244 0.32781
 C2315 C 0.12143 0.25786 0.34663
 C2316 C 0.15173 0.25228 0.33830
 C2317 C 0.15763 0.24034 0.31141
 C2318 C 0.13288 0.23133 0.29395
 H2319 H 0.08409 0.23307 0.28721
 H2320 H 0.11736 0.26813 0.36717
 H2321 H 0.17056 0.25886 0.35222
 H2322 H 0.13696 0.22205 0.27304
 C2323 C 0.62195 0.75645 0.84772
 C2324 C 0.59739 0.75104 0.82888
 C2325 C 0.60313 0.73608 0.80314
 C2326 C 0.63339 0.72986 0.79506
 C2327 C 0.65814 0.73908 0.81245
 C2328 C 0.65225 0.75096 0.83936
 H2329 H 0.61787 0.76681 0.86822
 H2330 H 0.58459 0.73153 0.78835
 H2331 H 0.63747 0.72060 0.77415
 H2332 H 0.67108 0.75766 0.85323
 C2333 C 0.62836 0.25292 0.65090
 C2334 C 0.60232 0.25457 0.66859
 C2335 C 0.60566 0.26617 0.69605
 C2336 C 0.63495 0.27290 0.70654
 C2337 C 0.66118 0.26749 0.68986
 C2338 C 0.65773 0.25890 0.66162
 H2339 H 0.62621 0.24519 0.62928
 H2340 H 0.58602 0.26767 0.71014
 H2341 H 0.63719 0.27950 0.72846
 H2342 H 0.67778 0.25514 0.64834
 C2343 C 0.12725 0.74920 0.15131
 C2344 C 0.10180 0.75175 0.16961
 C2345 C 0.10593 0.76531 0.19626
 C2346 C 0.13549 0.77300 0.20556
 C2347 C 0.16125 0.76660 0.18853
 C2348 C 0.15692 0.75616 0.16087
 H2349 H 0.12446 0.74000 0.13020
 H2350 H 0.08673 0.76762 0.21076
 H2351 H 0.13835 0.78105 0.22704
 H2352 H 0.17655 0.75159 0.14729
   
