data_POSCAR
  _audit_creation_date              2014-09-24
  _audit_creation_method            'ToBaCCo'
  _symmetry_space_group_name_H-M    'P1'
  _symmetry_Int_Tables_number       1
  _symmetry_cell_setting            triclinic
  loop_
  _symmetry_equiv_pos_as_xyz
 x,y,z
_cell_length_a 59.1898
_cell_length_b 59.2012
_cell_length_c 59.1498
_cell_angle_alpha 89.986100
_cell_angle_beta 89.970700
_cell_angle_gamma 89.999600
loop_
  _atom_site_label
  _atom_site_type_symbol
  _atom_site_fract_x
  _atom_site_fract_y
  _atom_site_fract_z
C1 C 0.35838 1.35932 0.33035
 N2 N 0.33960 1.36862 0.33967
 C3 C 0.33028 1.35931 0.35846
 N4 N 0.33966 1.34061 0.36783
 C5 C 0.35844 1.33130 0.35852
 N6 N 0.36775 1.34062 0.33973
 C7 C 0.35775 0.85863 0.83082
 N8 N 0.36705 0.83986 0.84014
 C9 C 0.35768 0.83049 0.85886
 N10 N 0.33892 0.83981 0.86819
 C11 C 0.32961 0.85859 0.85888
 N12 N 0.33899 0.86795 0.84016
 C13 C 0.85721 1.35831 0.82923
 N14 N 0.83843 1.36763 0.83855
 C15 C 0.82909 1.35831 0.85733
 N16 N 0.83847 1.33961 0.86671
 C17 C 0.85724 1.33029 0.85740
 N18 N 0.86657 1.33961 0.83863
 C19 C 0.85900 0.85883 0.33015
 N20 N 0.84026 0.86816 0.33951
 C21 C 0.83091 0.85880 0.35826
 N22 N 0.84023 0.84004 0.36757
 C23 C 0.85897 0.83071 0.35822
 N24 N 0.86831 0.84006 0.33947
 C25 C 0.64079 0.64092 0.33127
 N26 N 0.65955 0.63159 0.34058
 C27 C 0.66894 0.64095 0.35929
 N28 N 0.65965 0.65973 0.36860
 C29 C 0.64089 0.66906 0.35929
 N30 N 0.63151 0.65969 0.34059
 C31 C 0.64246 0.14132 0.82961
 N32 N 0.66122 0.13201 0.83894
 C33 C 0.67053 0.14133 0.85772
 N34 N 0.66114 0.16003 0.86709
 C35 C 0.64238 0.16934 0.85777
 N36 N 0.63308 0.16002 0.83899
 C37 C 1.14046 0.64062 0.83144
 N38 N 1.13115 0.65938 0.84075
 C39 C 1.14047 0.66871 0.85950
 N40 N 1.15919 0.65937 0.86886
 C41 C 1.16851 0.64060 0.85955
 N42 N 1.15918 0.63127 0.84079
 C43 C 1.14237 0.14110 0.32979
 N44 N 1.16114 0.13180 0.33911
 C45 C 1.17047 0.14115 0.35787
 N46 N 1.16109 0.15987 0.36722
 C47 C 1.14232 0.16916 0.35790
 N48 N 1.13300 0.15982 0.33916
 C49 C 0.64177 1.35945 0.66867
 N50 N 0.66056 1.36874 0.65936
 C51 C 0.66991 1.35941 0.64061
 N52 N 0.66054 1.34070 0.63124
 C53 C 0.64175 1.33141 0.64055
 N54 N 0.63241 1.34075 0.65930
 C55 C 0.64113 0.85856 1.17018
 N56 N 0.65988 0.86788 1.16082
 C57 C 0.66922 0.85854 1.14208
 N58 N 0.65990 0.83979 1.13276
 C59 C 0.64115 0.83046 1.14211
 N60 N 0.63181 0.83980 1.16086
 C61 C 1.14184 1.35899 1.16979
 N62 N 1.16061 1.36829 1.16045
 C63 C 1.16994 1.35895 1.14169
 N64 N 1.16057 1.34023 1.13235
 C65 C 1.14180 1.33093 1.14168
 N66 N 1.13248 1.34027 1.16044
 C67 C 1.14237 0.85848 0.66942
 N68 N 1.13308 0.83972 0.66008
 C69 C 1.14246 0.83038 0.64135
 N70 N 1.16122 0.83973 0.63202
 C71 C 1.17051 0.85850 0.64136
 N72 N 1.16112 0.86783 0.66009
 C73 C 0.35773 0.64151 0.66932
 N74 N 0.36704 0.66028 0.66001
 C75 C 0.35770 0.66965 0.64128
 N76 N 0.33896 0.66032 0.63193
 C77 C 0.32964 0.64154 0.64123
 N78 N 0.33900 0.63218 0.65997
 C79 C 0.35800 0.14074 1.16997
 N80 N 0.36735 0.15945 1.16058
 C81 C 0.35803 0.16877 1.14181
 N82 N 0.33927 0.15945 1.13251
 C83 C 0.32990 0.14073 1.14189
 N84 N 0.33923 0.13142 1.16066
 C85 C 0.85921 0.64063 1.16853
 N86 N 0.84044 0.63132 1.15922
 C87 C 0.83106 0.64069 1.14051
 N88 N 0.84036 0.65946 1.13119
 C89 C 0.85912 0.66878 1.14050
 N90 N 0.86850 0.65941 1.15921
 C91 C 0.85743 0.14150 0.67063
 N92 N 0.86681 0.16019 0.66123
 C93 C 0.85751 0.16951 0.64246
 N94 N 0.83875 0.16021 0.63314
 C95 C 0.82935 0.14151 0.64253
 N96 N 0.83866 0.13219 0.66131
 C97 C 1.35873 0.35777 0.67035
 N98 N 1.36808 0.33903 0.66100
 C99 C 1.35878 0.32972 0.64221
 N100 N 1.34006 0.33908 0.63286
 C101 C 1.33071 0.35781 0.64220
 N102 N 1.34001 0.36712 0.66098
 C103 C 1.35900 0.85784 1.16916
 N104 N 1.36827 0.83903 1.15989
 C105 C 1.35889 0.82965 1.14118
 N106 N 1.34017 0.83901 1.13183
 C107 C 1.33090 0.85782 1.14110
 N108 N 1.34028 0.86719 1.15981
 C109 C 0.85921 0.35933 1.16962
 N110 N 0.84044 0.36864 1.16030
 C111 C 0.83111 0.35931 1.14155
 N112 N 0.84046 0.34058 1.13220
 C113 C 0.85922 0.33127 1.14151
 N114 N 0.86855 0.34060 1.16026
 C115 C 0.85922 0.85912 0.66884
 N116 N 0.84049 0.86846 0.65950
 C117 C 0.83116 0.85913 0.64075
 N118 N 0.84047 0.84037 0.63143
 C119 C 0.85920 0.83103 0.64077
 N120 N 0.86854 0.84036 0.65952
 C121 C 0.64104 0.64118 0.66898
 N122 N 0.63174 0.65995 0.65968
 C123 C 0.64110 0.66931 0.64094
 N124 N 0.65985 0.65997 0.63159
 C125 C 0.66915 0.64120 0.64090
 N126 N 0.65978 0.63185 0.65964
 C127 C 0.64100 1.14196 1.16981
 N128 N 0.63167 1.16070 1.16045
 C129 C 0.64101 1.17004 1.14169
 N130 N 0.65977 1.16070 1.13236
 C131 C 0.66910 1.14196 1.14171
 N132 N 0.65975 1.13264 1.16047
 C133 C 0.14142 0.64263 1.17033
 N134 N 0.13214 0.66142 1.16104
 C135 C 0.14148 0.67077 1.14228
 N136 N 0.16019 0.66140 1.13289
 C137 C 0.16948 0.64261 1.14218
 N138 N 0.16013 0.63327 1.16094
 C139 C 0.14047 1.14151 0.66860
 N140 N 0.15922 1.13219 0.65926
 C141 C 0.16856 1.14153 0.64050
 N142 N 0.15923 1.16028 0.63117
 C143 C 0.14048 1.16960 0.64051
 N144 N 0.13114 1.16026 0.65927
 C145 C 1.35923 0.64136 0.33012
 N146 N 1.36854 0.66014 0.33942
 C147 C 1.35921 0.66948 0.35818
 N148 N 1.34049 0.66013 0.36756
 C149 C 1.33118 0.64135 0.35827
 N150 N 1.34051 0.63202 0.33952
 C151 C 1.35886 1.14207 0.82985
 N152 N 1.36818 1.16081 0.83922
 C153 C 1.35885 1.17011 0.85800
 N154 N 1.34012 1.16074 0.86734
 C155 C 1.33079 1.14200 0.85799
 N156 N 1.34012 1.13271 0.83921
 C157 C 0.85886 0.64123 0.83088
 N158 N 0.86816 0.65999 0.84020
 C159 C 0.85880 0.66933 0.85894
 N160 N 0.84006 0.65999 0.86828
 C161 C 0.83075 0.64122 0.85896
 N162 N 0.84011 0.63189 0.84022
 C163 C 0.85917 1.14198 0.33013
 N164 N 0.86851 1.16073 0.33946
 C165 C 0.85917 1.17008 0.35822
 N166 N 0.84041 1.16076 0.36756
 C167 C 0.83107 1.14202 0.35823
 N168 N 0.84041 1.13267 0.33949
 C169 C 0.64147 0.35784 0.32969
 N170 N 0.66022 0.36717 0.33900
 C171 C 0.66958 0.35785 0.35775
 N172 N 0.66026 0.33910 0.36711
 C173 C 0.64151 0.32976 0.35780
 N174 N 0.63215 0.33909 0.33905
 C175 C 0.64074 0.85919 0.83129
 N176 N 0.65947 0.86850 0.84065
 C177 C 0.66879 0.85914 0.85940
 N178 N 0.65946 0.84037 0.86869
 C179 C 0.64073 0.83105 0.85933
 N180 N 0.63141 0.84042 0.84059
 C181 C 0.14058 0.35829 0.83124
 N182 N 0.15931 0.36762 0.84059
 C183 C 0.16864 0.35829 0.85935
 N184 N 0.15931 0.33953 0.86867
 C185 C 0.14057 0.33020 0.85933
 N186 N 0.13125 0.33954 0.84057
 C187 C 0.14114 0.85904 0.33020
 N188 N 0.15985 0.86841 0.33956
 C189 C 0.16920 0.85908 0.35831
 N190 N 0.15991 0.84030 0.36763
 C191 C 0.14119 0.83093 0.35828
 N192 N 0.13185 0.84026 0.33953
 O193 O 0.97798 0.91884 0.88762
 O194 O 0.97792 0.89257 0.86119
 C195 C 0.97026 0.91095 0.86922
 C196 C 0.95182 0.92303 0.85737
 C197 C 0.94412 0.91558 0.83618
 H198 H 0.95209 0.90128 0.82797
 O199 O 1.02191 1.08179 0.88758
 O200 O 1.02202 1.10806 0.86114
 C201 C 1.02967 1.08967 0.86917
 C202 C 1.04812 1.07759 0.85733
 C203 C 1.05581 1.08501 0.83612
 H204 H 1.04783 1.09930 0.82790
 O205 O 0.88740 0.97843 0.91858
 O206 O 0.86097 0.97834 0.89232
 C207 C 0.86900 0.97069 0.91071
 C208 C 0.85717 0.95225 0.92283
 C209 C 0.83599 0.94452 0.91541
 H210 H 0.82778 0.95245 0.90108
 O211 O 1.11267 1.02221 0.91845
 O212 O 1.13907 1.02225 0.89212
 C213 C 1.13107 1.02993 0.91052
 C214 C 1.14292 1.04839 0.92256
 C215 C 1.16404 1.05617 0.91501
 H216 H 1.17220 1.04826 0.90064
 O217 O 0.91835 0.88791 0.97822
 O218 O 0.89208 0.86149 0.97823
 C219 C 0.91045 0.86951 0.97051
 C220 C 0.92249 0.85767 0.95203
 C221 C 0.91501 0.83652 0.94430
 H222 H 0.90069 0.82833 0.95227
 O223 O 1.08171 1.11260 0.97809
 O224 O 1.10795 1.13905 0.97801
 C225 C 1.08958 1.13101 0.97035
 C226 C 1.07747 1.14286 0.95191
 C227 C 1.08492 1.16404 0.94419
 H228 H 1.09925 1.17222 0.95212
 O229 O 0.91826 1.02249 0.88753
 O230 O 0.89199 1.02246 0.86111
 C231 C 0.91035 1.03018 0.86912
 C232 C 0.92237 1.04867 0.85726
 C233 C 0.91478 1.05651 0.83617
 H234 H 0.90040 1.04863 0.82803
 O235 O 1.08170 0.97817 0.88753
 O236 O 1.10796 0.97815 0.86106
 C237 C 1.08959 0.97046 0.86910
 C238 C 1.07754 0.95200 0.85727
 C239 C 1.08507 0.94419 0.83614
 H240 H 1.09944 0.95208 0.82796
 O241 O 1.02199 0.88783 0.91858
 O242 O 1.02198 0.86140 0.89231
 C243 C 1.02967 0.86941 0.91069
 C244 C 1.04808 0.85752 0.92278
 C245 C 1.05572 0.83631 0.91536
 H246 H 1.04774 0.82812 0.90105
 O247 O 0.97786 1.11283 0.91847
 O248 O 0.97791 1.13926 0.89218
 C249 C 0.97018 1.13124 0.91055
 C250 C 0.95168 1.14307 0.92258
 C251 C 0.94382 1.16414 0.91497
 H252 H 0.95170 1.17228 0.90057
 O253 O 0.88734 1.08195 0.97811
 O254 O 0.86095 1.10825 0.97817
 C255 C 0.86894 1.08989 0.97043
 C256 C 0.85709 1.07789 0.95192
 C257 C 0.83600 1.08547 0.94408
 H258 H 0.82785 1.09984 0.95199
 O259 O 1.11257 0.91853 0.97814
 O260 O 1.13896 0.89224 0.97805
 C261 C 1.13095 0.91061 0.97037
 C262 C 1.14278 0.92266 0.95187
 C263 C 1.16389 0.91513 0.94406
 H264 H 1.17206 0.90077 0.95197
 O265 O 0.97783 1.08195 0.88747
 O266 O 0.97789 1.10823 0.86104
 C267 C 0.97014 1.08988 0.86906
 C268 C 0.95163 1.07789 0.85723
 C269 C 0.94378 1.08548 0.83613
 H270 H 0.95167 1.09984 0.82796
 O271 O 1.02206 0.91870 0.88754
 O272 O 1.02205 0.89242 0.86113
 C273 C 1.02977 0.91078 0.86914
 C274 C 1.04827 0.92279 0.85729
 C275 C 1.05607 0.91524 0.83616
 H276 H 1.04815 0.90089 0.82799
 O277 O 1.11259 0.97814 0.91851
 O278 O 1.13900 0.97812 0.89219
 C279 C 1.13098 0.97042 0.91058
 C280 C 1.14280 0.95192 0.92262
 C281 C 1.16392 0.94412 0.91507
 H282 H 1.17210 0.95204 0.90071
 O283 O 0.88734 1.02249 0.91851
 O284 O 0.86092 1.02246 0.89224
 C285 C 0.86894 1.03018 0.91061
 C286 C 0.85710 1.04866 0.92265
 C287 C 0.83602 1.05650 0.91508
 H288 H 0.82786 1.04861 0.90070
 O289 O 0.91831 1.11284 0.97807
 O290 O 0.89207 1.13929 0.97814
 C291 C 0.91041 1.13126 0.97038
 C292 C 0.92243 1.14308 0.95186
 C293 C 0.91484 1.16415 0.94399
 H294 H 0.90045 1.17230 0.95188
 O295 O 1.08155 0.88768 0.97822
 O296 O 1.10779 0.86123 0.97814
 C297 C 1.08941 0.86927 0.97049
 C298 C 1.07731 0.85745 0.95205
 C299 C 1.08468 0.83625 0.94436
 H300 H 1.09896 0.82800 0.95233
 O301 O 1.08162 1.02222 0.88762
 O302 O 1.10786 1.02226 0.86113
 C303 C 1.08949 1.02994 0.86919
 C304 C 1.07740 1.04837 0.85734
 C305 C 1.08482 1.05607 0.83613
 H306 H 1.09913 1.04812 0.82791
 O307 O 0.91834 0.97843 0.88761
 O308 O 0.89207 0.97834 0.86119
 C309 C 0.91046 0.97069 0.86921
 C310 C 0.92255 0.95225 0.85737
 C311 C 0.91512 0.94453 0.83618
 H312 H 0.90081 0.95248 0.82797
 O313 O 1.02194 1.11272 0.91852
 O314 O 1.02205 1.13915 0.89224
 C315 C 1.02970 1.13111 0.91063
 C316 C 1.04818 1.14291 0.92270
 C317 C 1.05590 1.16408 0.91525
 H318 H 1.04794 1.17231 0.90095
 O319 O 0.97793 0.88786 0.91854
 O320 O 0.97786 0.86144 0.89227
 C321 C 0.97019 0.86947 0.91065
 C322 C 0.95172 0.85766 0.92274
 C323 C 0.94398 0.83650 0.91528
 H324 H 0.95191 0.82830 0.90094
 O325 O 1.11273 1.08175 0.97806
 O326 O 1.13912 1.10804 0.97799
 C327 C 1.13111 1.08967 0.97031
 C328 C 1.14294 1.07762 0.95182
 C329 C 1.16406 1.08514 0.94400
 H330 H 1.17224 1.09949 0.95191
 O331 O 0.88746 0.91888 0.97828
 O332 O 0.86104 0.89261 0.97829
 C333 C 0.86905 0.91098 0.97059
 C334 C 0.85720 0.92304 0.95213
 C335 C 0.83602 0.91558 0.94444
 H336 H 0.82783 0.90128 0.95243
 Cu337 Cu 1.00000 0.90594 0.90570
 Cu338 Cu 0.99995 0.87431 0.87407
 Cu339 Cu 0.99987 1.09469 0.90564
 Cu340 Cu 0.99999 1.12632 0.87400
 Cu341 Cu 0.90547 1.00046 0.90569
 Cu342 Cu 0.87384 1.00039 0.87406
 Cu343 Cu 1.09452 1.00019 0.90567
 Cu344 Cu 1.12612 1.00020 0.87397
 C345 C 0.94106 0.94152 0.86772
 H346 H 0.94669 0.94716 0.88420
 C347 C 0.92590 0.92632 0.82562
 C348 C 1.05889 1.05911 0.86770
 H349 H 1.05326 1.05348 0.88420
 C350 C 1.07403 1.07426 0.82556
 C351 C 0.86753 0.94154 0.94135
 H352 H 0.88400 0.94719 0.94697
 C353 C 0.82546 0.92631 0.92620
 C354 C 1.13262 1.05909 0.94112
 H355 H 1.11619 1.05339 0.94684
 C356 C 1.17457 1.07443 0.92571
 C357 C 0.94100 0.86800 0.94127
 H358 H 0.94668 0.88445 0.94692
 C359 C 0.92574 0.82597 0.92605
 C360 C 1.05895 1.13254 0.94119
 H361 H 1.05330 1.11607 0.94684
 C362 C 1.07415 1.17461 0.92598
 C363 C 0.94095 1.05933 0.86753
 H364 H 0.94670 1.05358 0.88394
 C365 C 0.92547 1.07480 0.82564
 C366 C 1.05898 0.94132 0.86759
 H367 H 1.05327 0.94704 0.88403
 C368 C 1.07435 0.92593 0.82563
 C369 C 1.05884 0.86785 0.94129
 H370 H 1.05325 0.88434 0.94691
 C371 C 1.07390 0.82571 0.92614
 C372 C 0.94101 1.13280 0.94118
 H373 H 0.94676 1.11641 0.94695
 C374 C 0.92551 1.17464 0.92566
 C375 C 0.86739 1.05933 0.94122
 H376 H 0.88379 1.05359 0.94696
 C377 C 0.82550 1.07479 0.92577
 C378 C 1.13248 0.94121 0.94117
 H379 H 1.11605 0.94692 0.94689
 C380 C 1.17443 0.92584 0.92578
 O381 O 1.02218 0.91866 1.11288
 O382 O 1.02215 0.89240 1.13933
 C383 C 1.02987 0.91076 1.13130
 C384 C 1.04834 0.92279 1.14314
 C385 C 1.05610 0.91529 1.16429
 H386 H 1.04816 0.90096 1.17249
 O387 O 0.97815 1.08179 1.11292
 O388 O 0.97813 1.10809 1.13931
 C389 C 0.97043 1.08972 1.13132
 C390 C 0.95195 1.07770 1.14319
 C391 C 0.94418 1.08524 1.16433
 H392 H 0.95213 1.09958 1.17250
 O393 O 0.88755 1.02237 1.08199
 O394 O 0.86114 1.02241 1.10830
 C395 C 0.86915 1.03009 1.08991
 C396 C 0.85731 1.04854 1.07783
 C397 C 0.83616 1.05629 1.08535
 H398 H 0.82799 1.04838 1.09971
 O399 O 1.11272 0.97814 1.08184
 O400 O 1.13916 0.97809 1.10810
 C401 C 1.13112 0.97041 1.08972
 C402 C 1.14293 0.95194 1.07764
 C403 C 1.16407 0.94415 1.08511
 H404 H 1.17228 0.95206 1.09945
 O405 O 1.08171 0.88759 1.02233
 O406 O 1.10797 0.86116 1.02231
 C407 C 1.08962 0.86920 1.03005
 C408 C 1.07761 0.85739 1.04859
 C409 C 1.08518 0.83630 1.05645
 H410 H 1.09954 0.82813 1.04854
 O411 O 0.91846 1.11272 1.02218
 O412 O 0.89223 1.13918 1.02230
 C413 C 0.91061 1.13112 1.02994
 C414 C 0.92272 1.14291 1.04839
 C415 C 0.91532 1.16410 1.05612
 H416 H 0.90101 1.17233 1.04818
 O417 O 0.91849 0.97829 1.11292
 O418 O 0.89223 0.97826 1.13939
 C419 C 0.91060 0.97057 1.13134
 C420 C 0.92265 0.95209 1.14316
 C421 C 0.91514 0.94430 1.16432
 H422 H 0.90080 0.95223 1.17251
 O423 O 1.08182 1.02222 1.11281
 O424 O 1.10811 1.02224 1.13922
 C425 C 1.08974 1.02994 1.13121
 C426 C 1.07771 1.04842 1.14305
 C427 C 1.08526 1.05623 1.16416
 H428 H 1.09963 1.04832 1.17232
 O429 O 0.97812 0.88779 1.08189
 O430 O 0.97804 0.86136 1.10817
 C431 C 0.97038 0.86939 1.08978
 C432 C 0.95194 0.85758 1.07768
 C433 C 0.94426 0.83637 1.08507
 H434 H 0.95223 0.82812 1.09936
 O435 O 1.02221 1.11267 1.08187
 O436 O 1.02224 1.13912 1.10812
 C437 C 1.02993 1.13108 1.08974
 C438 C 1.04838 1.14291 1.07765
 C439 C 1.05614 1.16406 1.08512
 H440 H 1.04821 1.17225 1.09947
 O441 O 0.88746 0.91880 1.02239
 O442 O 0.86105 0.89253 1.02245
 C443 C 0.86907 0.91089 1.03013
 C444 C 0.85724 0.92293 1.04863
 C445 C 0.83611 0.91541 1.05643
 H446 H 0.82793 0.90108 1.04850
 O447 O 1.11274 1.08174 1.02217
 O448 O 1.13914 1.10803 1.02215
 C449 C 1.13113 1.08966 1.02987
 C450 C 1.14298 1.07762 1.04836
 C451 C 1.16411 1.08514 1.05614
 H452 H 1.17228 1.09948 1.04821
 O453 O 1.02223 1.08176 1.11286
 O454 O 1.02227 1.10807 1.13926
 C455 C 1.02996 1.08969 1.13125
 C456 C 1.04846 1.07766 1.14308
 C457 C 1.05629 1.08521 1.16419
 H458 H 1.04839 1.09957 1.17237
 O459 O 0.97810 0.91867 1.11289
 O460 O 0.97802 0.89240 1.13933
 C461 C 0.97035 0.91078 1.13130
 C462 C 0.95188 0.92283 1.14314
 C463 C 0.94411 0.91532 1.16429
 H464 H 0.95202 0.90098 1.17247
 O465 O 1.11274 1.02220 1.08182
 O466 O 1.13918 1.02221 1.10808
 C467 C 1.13115 1.02991 1.08970
 C468 C 1.14298 1.04838 1.07763
 C469 C 1.16411 1.05616 1.08514
 H470 H 1.17228 1.04823 1.09949
 O471 O 0.88750 0.97831 1.08204
 O472 O 0.86109 0.97829 1.10836
 C473 C 0.86910 0.97060 1.08996
 C474 C 0.85726 0.95214 1.07791
 C475 C 0.83612 0.94437 1.08544
 H476 H 0.82795 0.95228 1.09980
 O477 O 1.08179 1.11266 1.02218
 O478 O 1.10803 1.13910 1.02216
 C479 C 1.08967 1.13107 1.02988
 C480 C 1.07762 1.14290 1.04836
 C481 C 1.08511 1.16405 1.05610
 H482 H 1.09944 1.17223 1.04815
 O483 O 0.91846 0.88793 1.02232
 O484 O 0.89219 0.86150 1.02237
 C485 C 0.91058 0.86952 1.03003
 C486 C 0.92268 0.85765 1.04845
 C487 C 0.91527 0.83643 1.05610
 H488 H 0.90096 0.82824 1.04813
 O489 O 1.08180 0.97816 1.11283
 O490 O 1.10808 0.97812 1.13925
 C491 C 1.08970 0.97044 1.13124
 C492 C 1.07763 0.95200 1.14310
 C493 C 1.08512 0.94423 1.16426
 H494 H 1.09947 0.95214 1.17244
 O495 O 0.91846 1.02235 1.11297
 O496 O 0.89220 1.02239 1.13944
 C497 C 0.91058 1.03007 1.13139
 C498 C 0.92265 1.04852 1.14322
 C499 C 0.91515 1.05632 1.16436
 H500 H 0.90078 1.04844 1.17256
 O501 O 0.97814 1.11261 1.08185
 O502 O 0.97812 1.13907 1.10809
 C503 C 0.97043 1.13102 1.08972
 C504 C 0.95199 1.14287 1.07764
 C505 C 0.94431 1.16405 1.08509
 H506 H 0.95227 1.17224 1.09940
 O507 O 1.02220 0.88768 1.08199
 O508 O 1.02217 0.86127 1.10829
 C509 C 1.02989 0.86927 1.08991
 C510 C 1.04838 0.85743 1.07788
 C511 C 1.05622 0.83635 1.08548
 H512 H 1.04832 0.82821 1.09988
 O513 O 1.11259 0.91857 1.02224
 O514 O 1.13900 0.89229 1.02221
 C515 C 1.13100 0.91067 1.02992
 C516 C 1.14287 0.92271 1.04837
 C517 C 1.16401 0.91519 1.05610
 H518 H 1.17217 0.90085 1.04815
 O519 O 0.88744 1.08187 1.02222
 O520 O 0.86106 1.10817 1.02235
 C521 C 0.86907 1.08978 1.03001
 C522 C 0.85726 1.07774 1.04852
 C523 C 0.83612 1.08522 1.05630
 H524 H 0.82791 1.09954 1.04834
 Cu525 Cu 1.00016 0.90583 1.09478
 Cu526 Cu 1.00008 0.87421 1.12643
 Cu527 Cu 1.00019 1.09457 1.09475
 Cu528 Cu 1.00019 1.12624 1.12634
 Cu529 Cu 0.90556 0.90601 1.00030
 Cu530 Cu 0.87394 0.87438 1.00034
 Cu531 Cu 1.09447 0.90572 1.00024
 Cu532 Cu 1.12608 0.87408 1.00017
 Cu533 Cu 0.90551 1.09471 1.00013
 Cu534 Cu 0.87393 1.12637 1.00026
 Cu535 Cu 1.09461 1.09455 1.00013
 Cu536 Cu 1.12621 1.12620 1.00007
 Cu537 Cu 0.90563 1.00033 1.09485
 Cu538 Cu 0.87402 1.00034 1.12653
 Cu539 Cu 1.09464 1.00018 1.09469
 Cu540 Cu 1.12628 1.00016 1.12631
 C541 C 1.05908 0.94130 1.13279
 H542 H 1.05341 0.94699 1.11634
 C543 C 1.07437 0.92599 1.17481
 C544 C 0.94121 1.05918 1.13288
 H545 H 0.94690 1.05347 1.11644
 C546 C 0.92590 1.07457 1.17488
 C547 C 0.86761 1.05924 1.05926
 H548 H 0.88405 1.05356 1.05357
 C549 C 0.82560 1.07452 1.07459
 C550 C 1.13257 0.94124 1.05912
 H551 H 1.11613 0.94694 1.05346
 C552 C 1.17457 0.92589 1.07435
 C553 C 1.05906 0.86770 1.05929
 H554 H 1.05332 0.88409 1.05353
 C555 C 1.07450 0.82582 1.07478
 C556 C 0.94122 1.13254 1.05913
 H557 H 0.94684 1.11607 1.05348
 C558 C 0.92609 1.17463 1.07434
 C559 C 0.94118 0.94137 1.13282
 H560 H 0.94687 0.94707 1.11637
 C561 C 0.92585 0.92604 1.17484
 C562 C 1.05915 1.05911 1.13276
 H563 H 1.05342 1.05339 1.11634
 C564 C 1.07457 1.07450 1.17470
 C565 C 0.94117 0.86797 1.05921
 H566 H 0.94679 0.88446 1.05361
 C567 C 0.92604 0.82583 1.07429
 C568 C 1.05910 1.13258 1.05911
 H569 H 1.05342 1.11613 1.05345
 C570 C 1.07438 1.17459 1.07436
 C571 C 0.86757 0.94145 1.05935
 H572 H 0.88400 0.94714 1.05364
 C573 C 0.82559 0.92612 1.07471
 C574 C 1.13266 1.05908 1.05908
 H575 H 1.11623 1.05338 1.05339
 C576 C 1.17463 1.07442 1.07441
 O577 O 1.08181 0.52167 0.61234
 O578 O 1.10801 0.52167 0.63884
 C579 C 1.08965 0.52936 0.63078
 C580 C 1.07755 0.54779 0.64263
 C581 C 1.08494 0.55545 0.66386
 H582 H 1.09922 0.54748 0.67209
 O583 O 0.91847 0.47754 0.61247
 O584 O 0.89215 0.47755 0.63887
 C585 C 0.91052 0.46983 0.63087
 C586 C 0.92250 0.45132 0.64272
 C587 C 0.91487 0.44346 0.66380
 H588 H 0.90048 0.45136 0.67194
 O589 O 1.02229 0.61229 0.58145
 O590 O 1.02230 0.63866 0.60778
 C591 C 1.03001 0.63067 0.58939
 C592 C 1.04852 0.64249 0.57737
 C593 C 1.05632 0.66360 0.58491
 H594 H 1.04840 0.67177 0.59927
 O595 O 0.97797 0.38709 0.58149
 O596 O 0.97799 0.36066 0.60777
 C597 C 0.97028 0.36868 0.58940
 C598 C 0.95181 0.35684 0.57736
 C599 C 0.94396 0.33576 0.58496
 H600 H 0.95184 0.32762 0.59936
 O601 O 1.11286 0.58133 0.52191
 O602 O 1.13930 0.60758 0.52192
 C603 C 1.13126 0.58922 0.52963
 C604 C 1.14308 0.57717 0.54813
 C605 C 1.16418 0.58471 0.55596
 H606 H 1.17235 0.59908 0.54805
 O607 O 0.88766 0.41800 0.52178
 O608 O 0.86121 0.39175 0.52180
 C609 C 0.86924 0.41012 0.52949
 C610 C 0.85739 0.42220 0.54795
 C611 C 0.83621 0.41476 0.55568
 H612 H 0.82801 0.40045 0.54773
 O613 O 0.97815 0.58131 0.61230
 O614 O 0.97809 0.60754 0.63877
 C615 C 0.97041 0.58918 0.63072
 C616 C 0.95195 0.57710 0.64256
 C617 C 0.94420 0.58457 0.66373
 H618 H 0.95212 0.59890 0.67192
 O619 O 1.02202 0.41810 0.61237
 O620 O 1.02209 0.39183 0.63881
 C621 C 1.02975 0.41021 0.63078
 C622 C 1.04821 0.42228 0.64261
 C623 C 1.05589 0.41484 0.66381
 H624 H 1.04790 0.40055 0.67204
 O625 O 1.11281 0.47763 0.58143
 O626 O 1.13917 0.47757 0.60777
 C627 C 1.13119 0.46990 0.58937
 C628 C 1.14303 0.45142 0.57733
 C629 C 1.16413 0.44361 0.58489
 H630 H 1.17228 0.45151 0.59926
 O631 O 0.88765 0.52165 0.58144
 O632 O 0.86119 0.52171 0.60771
 C633 C 0.86924 0.52938 0.58933
 C634 C 0.85744 0.54786 0.57725
 C635 C 0.83627 0.55560 0.58471
 H636 H 0.82805 0.54765 0.59903
 O637 O 0.91867 0.61228 0.52181
 O638 O 0.89239 0.63869 0.52183
 C639 C 0.91077 0.63068 0.52952
 C640 C 0.92283 0.64253 0.54797
 C641 C 0.91538 0.66371 0.55568
 H642 H 0.90107 0.67191 0.54772
 O643 O 1.08179 0.38725 0.52182
 O644 O 1.10804 0.36081 0.52186
 C645 C 1.08966 0.36884 0.52954
 C646 C 1.07755 0.35700 0.54799
 C647 C 1.08499 0.33581 0.55570
 H648 H 1.09931 0.32762 0.54775
 O649 O 0.91860 0.52162 0.61236
 O650 O 0.89230 0.52168 0.63878
 C651 C 0.91068 0.52935 0.63076
 C652 C 0.92274 0.54782 0.64259
 C653 C 0.91525 0.55557 0.66376
 H654 H 0.90093 0.54762 0.67197
 O655 O 1.08178 0.47762 0.61231
 O656 O 1.10799 0.47757 0.63881
 C657 C 1.08962 0.46990 0.63075
 C658 C 1.07751 0.45147 0.64259
 C659 C 1.08492 0.44376 0.66380
 H660 H 1.09923 0.45169 0.67201
 O661 O 1.02205 0.38717 0.58143
 O662 O 1.02212 0.36074 0.60771
 C663 C 1.02979 0.36878 0.58932
 C664 C 1.04826 0.35697 0.57723
 C665 C 1.05597 0.33578 0.58467
 H666 H 1.04800 0.32756 0.59898
 O667 O 0.97822 0.61229 0.58138
 O668 O 0.97817 0.63868 0.60770
 C669 C 0.97050 0.63068 0.58930
 C670 C 0.95207 0.64254 0.57722
 C671 C 0.94435 0.66371 0.58467
 H672 H 0.95230 0.67191 0.59899
 O673 O 0.88777 0.58132 0.52184
 O674 O 0.86134 0.60757 0.52187
 C675 C 0.86936 0.58920 0.52956
 C676 C 0.85751 0.57713 0.54802
 C677 C 0.83634 0.58460 0.55574
 H678 H 0.82816 0.59894 0.54780
 O679 O 1.11284 0.41808 0.52184
 O680 O 1.13923 0.39179 0.52188
 C681 C 1.13122 0.41016 0.52958
 C682 C 1.14304 0.42218 0.54807
 C683 C 1.16415 0.41463 0.55590
 H684 H 1.17232 0.40028 0.54799
 O685 O 0.97794 0.41797 0.61249
 O686 O 0.97795 0.39169 0.63892
 C687 C 0.97023 0.41005 0.63090
 C688 C 0.95172 0.42206 0.64274
 C689 C 0.94382 0.41446 0.66382
 H690 H 0.95168 0.40007 0.67198
 O691 O 1.02221 0.58127 0.61232
 O692 O 1.02221 0.60749 0.63880
 C693 C 1.02989 0.58913 0.63076
 C694 C 1.04831 0.57703 0.64262
 C695 C 1.05596 0.58442 0.66384
 H696 H 1.04798 0.59871 0.67206
 O697 O 0.88766 0.47758 0.58140
 O698 O 0.86119 0.47759 0.60766
 C699 C 0.86923 0.46989 0.58928
 C700 C 0.85739 0.45145 0.57721
 C701 C 0.83621 0.44374 0.58466
 H702 H 0.82800 0.45170 0.59898
 O703 O 1.11283 0.52170 0.58145
 O704 O 1.13918 0.52171 0.60779
 C705 C 1.13120 0.52942 0.58940
 C706 C 1.14305 0.54791 0.57738
 C707 C 1.16415 0.55572 0.58495
 H708 H 1.17230 0.54781 0.59932
 O709 O 0.91852 0.38700 0.52181
 O710 O 0.89224 0.36060 0.52184
 C711 C 0.91060 0.36862 0.52955
 C712 C 0.92261 0.35681 0.54807
 C713 C 0.91503 0.33573 0.55593
 H714 H 0.90066 0.32756 0.54803
 O715 O 1.08194 0.61226 0.52191
 O716 O 1.10822 0.63867 0.52193
 C717 C 1.08984 0.63065 0.52963
 C718 C 1.07779 0.64248 0.54812
 C719 C 1.08533 0.66359 0.55592
 H720 H 1.09969 0.67176 0.54801
 Cu721 Cu 1.09469 0.49966 0.59424
 Cu722 Cu 1.12623 0.49963 0.62595
 Cu723 Cu 0.90573 0.49959 0.59429
 Cu724 Cu 0.87405 0.49964 0.62590
 Cu725 Cu 1.00022 0.59417 0.59422
 Cu726 Cu 1.00019 0.62574 0.62592
 Cu727 Cu 0.99998 0.40522 0.59431
 Cu728 Cu 1.00005 0.37358 0.62595
 C729 C 1.05908 0.55855 0.63226
 H730 H 1.05348 0.55295 0.61575
 C731 C 1.07415 0.57365 0.67443
 C732 C 0.94108 0.44064 0.63244
 H733 H 0.94686 0.44641 0.61605
 C734 C 0.92551 0.42515 0.67431
 C735 C 1.05923 0.63219 0.55882
 H736 H 1.05352 0.61577 0.55310
 C737 C 1.07461 0.67411 0.57420
 C738 C 0.94115 0.36711 0.55876
 H739 H 0.94690 0.38351 0.55300
 C740 C 0.92569 0.32524 0.57426
 C741 C 1.13277 0.55861 0.55881
 H742 H 1.11636 0.55290 0.55308
 C743 C 1.17468 0.57401 0.57425
 C744 C 0.86774 0.44070 0.55869
 H745 H 0.88421 0.44634 0.55304
 C746 C 0.82566 0.42552 0.57391
 C747 C 0.94124 0.55857 0.63223
 H748 H 0.94692 0.55290 0.61577
 C749 C 0.92597 0.57382 0.67429
 C750 C 1.05899 0.44075 0.63224
 H751 H 1.05337 0.44639 0.61575
 C752 C 1.07412 0.42557 0.67437
 C753 C 1.13274 0.44073 0.55877
 H754 H 1.11633 0.44645 0.55304
 C755 C 1.17465 0.42533 0.57419
 C756 C 0.86781 0.55860 0.55875
 H757 H 0.88427 0.55294 0.55309
 C758 C 0.82576 0.57385 0.57397
 C759 C 0.94133 0.63220 0.55871
 H760 H 0.94698 0.61573 0.55307
 C761 C 0.92613 0.67426 0.57391
 C762 C 1.05903 0.36733 0.55874
 H763 H 1.05339 0.38380 0.55310
 C764 C 1.07421 0.32525 0.57392
 O765 O 1.08189 0.47775 0.38712
 O766 O 1.10819 0.47772 0.36070
 C767 C 1.08980 0.47003 0.36872
 C768 C 1.07776 0.45156 0.35688
 C769 C 1.08528 0.44380 0.33572
 H770 H 1.09962 0.45175 0.32753
 O771 O 0.91873 0.52167 0.38730
 O772 O 0.89249 0.52175 0.36084
 C773 C 0.91087 0.52941 0.36888
 C774 C 0.92297 0.54785 0.35704
 C775 C 0.91555 0.55554 0.33583
 H776 H 0.90124 0.54759 0.32762
 O777 O 0.97833 0.61229 0.41813
 O778 O 0.97829 0.63871 0.39183
 C779 C 0.97060 0.63068 0.41022
 C780 C 0.95212 0.64251 0.42227
 C781 C 0.94437 0.66365 0.41477
 H782 H 0.95231 0.67185 0.40043
 O783 O 1.02234 0.38715 0.41810
 O784 O 1.02240 0.36075 0.39180
 C785 C 1.03007 0.36877 0.41019
 C786 C 1.04854 0.35694 0.42225
 C787 C 1.05634 0.33582 0.41473
 H788 H 1.04843 0.32765 0.40038
 O789 O 1.11280 0.41815 0.47774
 O790 O 1.13922 0.39188 0.47772
 C791 C 1.13120 0.41025 0.47002
 C792 C 1.14305 0.42230 0.45153
 C793 C 1.16421 0.41482 0.44378
 H794 H 1.17240 0.40050 0.45172
 O795 O 0.88778 0.58131 0.47775
 O796 O 0.86134 0.60755 0.47772
 C797 C 0.86937 0.58918 0.47004
 C798 C 0.85752 0.57709 0.45161
 C799 C 0.83633 0.58453 0.44392
 H800 H 0.82813 0.59884 0.45188
 O801 O 1.02245 0.58140 0.38717
 O802 O 1.02246 0.60768 0.36073
 C803 C 1.03017 0.58932 0.36876
 C804 C 1.04866 0.57731 0.35690
 C805 C 1.05650 0.58491 0.33581
 H806 H 1.04860 0.59929 0.32767
 O807 O 0.97829 0.41808 0.38715
 O808 O 0.97828 0.39184 0.36069
 C809 C 0.97058 0.41020 0.36873
 C810 C 0.95213 0.42227 0.35690
 C811 C 0.94439 0.41482 0.33571
 H812 H 0.95234 0.40051 0.32750
 O813 O 1.11281 0.52178 0.41810
 O814 O 1.13927 0.52180 0.39184
 C815 C 1.13123 0.52948 0.41022
 C816 C 1.14307 0.54792 0.42231
 C817 C 1.16423 0.55567 0.41482
 H818 H 1.17243 0.54774 0.40047
 O819 O 0.88770 0.47758 0.41815
 O820 O 0.86132 0.47761 0.39184
 C821 C 0.86931 0.46988 0.41022
 C822 C 0.85746 0.45139 0.42223
 C823 C 0.83635 0.44360 0.41468
 H824 H 0.82819 0.45154 0.40032
 O825 O 1.08195 0.61228 0.47781
 O826 O 1.10823 0.63868 0.47777
 C827 C 1.08985 0.63067 0.47009
 C828 C 1.07779 0.64251 0.45162
 C829 C 1.08526 0.66368 0.44387
 H830 H 1.09958 0.67187 0.45182
 O831 O 0.91862 0.38706 0.47770
 O832 O 0.89235 0.36064 0.47766
 C833 C 0.91073 0.36867 0.46997
 C834 C 0.92280 0.35685 0.45148
 C835 C 0.91529 0.33573 0.44367
 H836 H 0.90094 0.32755 0.45159
 O837 O 0.91868 0.47762 0.38723
 O838 O 0.89245 0.47765 0.36077
 C839 C 0.91081 0.46994 0.36880
 C840 C 0.92288 0.45151 0.35693
 C841 C 0.91541 0.44380 0.33575
 H842 H 0.90109 0.45174 0.32757
 O843 O 1.08198 0.52182 0.38707
 O844 O 1.10828 0.52185 0.36065
 C845 C 1.08991 0.52956 0.36867
 C846 C 1.07790 0.54806 0.35685
 C847 C 1.08548 0.55594 0.33575
 H848 H 1.09985 0.54806 0.32757
 O849 O 0.97826 0.38713 0.41809
 O850 O 0.97826 0.36073 0.39179
 C851 C 0.97055 0.36874 0.41017
 C852 C 0.95207 0.35689 0.42222
 C853 C 0.94430 0.33577 0.41468
 H854 H 0.95223 0.32761 0.40032
 O855 O 1.02241 0.61226 0.41819
 O856 O 1.02242 0.63869 0.39191
 C857 C 1.03011 0.63067 0.41029
 C858 C 1.04855 0.64251 0.42236
 C859 C 1.05628 0.66367 0.41489
 H860 H 1.04834 0.67187 0.40055
 O861 O 0.88764 0.41794 0.47768
 O862 O 0.86121 0.39168 0.47764
 C863 C 0.86925 0.41005 0.46995
 C864 C 0.85743 0.42211 0.45146
 C865 C 0.83632 0.41459 0.44364
 H866 H 0.82814 0.40023 0.45154
 O867 O 1.11284 0.58131 0.47781
 O868 O 1.13928 0.60756 0.47776
 C869 C 1.13125 0.58919 0.47007
 C870 C 1.14308 0.57713 0.45159
 C871 C 1.16424 0.58461 0.44384
 H872 H 1.17244 0.59892 0.45179
 O873 O 1.02235 0.41809 0.38715
 O874 O 1.02241 0.39185 0.36069
 C875 C 1.03009 0.41021 0.36873
 C876 C 1.04855 0.42229 0.35688
 C877 C 1.05634 0.41480 0.33573
 H878 H 1.04843 0.40045 0.32754
 O879 O 0.97838 0.58128 0.38727
 O880 O 0.97833 0.60754 0.36082
 C881 C 0.97066 0.58916 0.36886
 C882 C 0.95222 0.57708 0.35702
 C883 C 0.94454 0.58450 0.33581
 H884 H 0.95250 0.59880 0.32759
 O885 O 0.88773 0.52165 0.41821
 O886 O 0.86134 0.52173 0.39190
 C887 C 0.86934 0.52939 0.41030
 C888 C 0.85750 0.54783 0.42238
 C889 C 0.83631 0.55553 0.41495
 H890 H 0.82810 0.54757 0.40064
 O891 O 1.11282 0.47772 0.41807
 O892 O 1.13927 0.47769 0.39179
 C893 C 1.13123 0.47000 0.41018
 C894 C 1.14305 0.45154 0.42225
 C895 C 1.16421 0.44379 0.41477
 H896 H 1.17241 0.45173 0.40042
 O897 O 1.08191 0.38719 0.47772
 O898 O 1.10817 0.36076 0.47771
 C899 C 1.08981 0.36878 0.47000
 C900 C 1.07777 0.35696 0.45152
 C901 C 1.08530 0.33583 0.44373
 H902 H 1.09964 0.32766 0.45166
 O903 O 0.91869 0.61226 0.47772
 O904 O 0.89240 0.63866 0.47768
 C905 C 0.91078 0.63065 0.46999
 C906 C 0.92284 0.64249 0.45151
 C907 C 0.91535 0.66363 0.44375
 H908 H 0.90101 0.67181 0.45168
 Cu909 Cu 1.09474 0.49977 0.40522
 Cu910 Cu 1.12640 0.49976 0.37359
 Cu911 Cu 0.90583 0.49963 0.40537
 Cu912 Cu 0.87425 0.49969 0.37369
 Cu913 Cu 1.09476 0.59416 0.49986
 Cu914 Cu 1.12641 0.62577 0.49984
 Cu915 Cu 1.09471 0.40530 0.49978
 Cu916 Cu 1.12631 0.37366 0.49979
 Cu917 Cu 0.90586 0.59416 0.49978
 Cu918 Cu 0.87422 0.62577 0.49977
 Cu919 Cu 0.90574 0.40513 0.49974
 Cu920 Cu 0.87411 0.37352 0.49974
 Cu921 Cu 1.00040 0.59418 0.40533
 Cu922 Cu 1.00037 0.62580 0.37367
 Cu923 Cu 1.00031 0.40524 0.40526
 Cu924 Cu 1.00034 0.37364 0.37359
 C925 C 1.05924 0.44082 0.36721
 H926 H 1.05354 0.44650 0.38366
 C927 C 1.07459 0.42554 0.32519
 C928 C 0.94146 0.55859 0.36739
 H929 H 0.94708 0.55296 0.38388
 C930 C 0.92632 0.57375 0.32526
 C931 C 0.94138 0.63218 0.44080
 H932 H 0.94706 0.61574 0.44648
 C933 C 0.92610 0.67418 0.42549
 C934 C 1.05923 0.36726 0.44080
 H935 H 1.05353 0.38369 0.44650
 C936 C 1.07460 0.32531 0.42546
 C937 C 1.13272 0.44082 0.44079
 H938 H 1.11627 0.44649 0.44647
 C939 C 1.17475 0.42556 0.42551
 C940 C 0.86786 0.55859 0.44087
 H941 H 0.88433 0.55296 0.44650
 C942 C 0.82577 0.57376 0.42571
 C943 C 1.05933 0.55873 0.36717
 H944 H 1.05359 0.55297 0.38358
 C945 C 1.07479 0.57425 0.32527
 C946 C 0.94139 0.44077 0.36726
 H947 H 0.94705 0.44641 0.38373
 C948 C 0.92616 0.42558 0.32518
 C949 C 1.13274 0.55863 0.44085
 H950 H 1.11629 0.55297 0.44652
 C951 C 1.17478 0.57389 0.42558
 C952 C 0.86775 0.44066 0.44078
 H953 H 0.88417 0.44636 0.44651
 C954 C 0.82582 0.42532 0.42536
 C955 C 1.05929 0.63218 0.44088
 H956 H 1.05363 0.61572 0.44655
 C957 C 1.07451 0.67422 0.42563
 C958 C 0.94134 0.36718 0.44078
 H959 H 0.94703 0.38361 0.44649
 C960 C 0.92603 0.32523 0.42539
 O961 O 0.47802 0.91892 0.38732
 O962 O 0.47800 0.89264 0.36090
 C963 C 0.47031 0.91101 0.36891
 C964 C 0.45185 0.92306 0.35707
 C965 C 0.44408 0.91553 0.33593
 H966 H 0.45202 0.90119 0.32776
 O967 O 0.52214 1.08206 0.38717
 O968 O 0.52217 1.10834 0.36074
 C969 C 0.52986 1.08996 0.36876
 C970 C 0.54832 1.07792 0.35690
 C971 C 0.55609 1.08543 0.33575
 H972 H 0.54816 1.09977 0.32756
 O973 O 0.38752 0.97850 0.41829
 O974 O 0.36110 0.97848 0.39202
 C975 C 0.36911 0.97079 0.41040
 C976 C 0.35726 0.95235 0.42249
 C977 C 0.33611 0.94461 0.41500
 H978 H 0.32793 0.95254 0.40065
 O979 O 0.61264 1.02251 0.41811
 O980 O 0.63908 1.02252 0.39183
 C981 C 0.63105 1.03021 0.41021
 C982 C 0.64290 1.04865 0.42229
 C983 C 0.66405 1.05642 0.41479
 H984 H 0.67223 1.04851 0.40042
 O985 O 0.41835 0.88798 0.47796
 O986 O 0.39207 0.86158 0.47791
 C987 C 0.41045 0.86960 0.47022
 C988 C 0.42252 0.85777 0.45174
 C989 C 0.41505 0.83662 0.44399
 H990 H 0.40072 0.82842 0.45192
 O991 O 0.58180 1.11294 0.47777
 O992 O 0.60805 1.13937 0.47774
 C993 C 0.58970 1.13134 0.47003
 C994 C 0.57767 1.14315 0.45153
 C995 C 0.58522 1.16426 0.44369
 H996 H 0.59958 1.17242 0.45160
 O997 O 0.41848 1.02253 0.38729
 O998 O 0.39221 1.02256 0.36086
 C999 C 0.41059 1.03025 0.36888
 C1000 C 0.42263 1.04871 0.35703
 C1001 C 0.41511 1.05648 0.33588
 H1002 H 0.40077 1.04854 0.32771
 O1003 O 0.58170 0.97845 0.38719
 O1004 O 0.60798 0.97839 0.36074
 C1005 C 0.58961 0.97071 0.36878
 C1006 C 0.57756 0.95223 0.35698
 C1007 C 0.58508 0.94441 0.33584
 H1008 H 0.59943 0.95230 0.32764
 O1009 O 0.52205 0.88799 0.41830
 O1010 O 0.52208 0.86154 0.39204
 C1011 C 0.52975 0.86957 0.41042
 C1012 C 0.54819 0.85773 0.42251
 C1013 C 0.55588 0.83654 0.41510
 H1014 H 0.54792 0.82832 0.40079
 O1015 O 0.47812 1.11300 0.41820
 O1016 O 0.47809 1.13944 0.39193
 C1017 C 0.47041 1.13141 0.41032
 C1018 C 0.45197 1.14326 0.42242
 C1019 C 0.44424 1.16442 0.41495
 H1020 H 0.45217 1.17261 0.40060
 O1021 O 0.38754 1.08216 0.47785
 O1022 O 0.36113 1.10844 0.47781
 C1023 C 0.36915 1.09008 0.47011
 C1024 C 0.35733 1.07804 0.45162
 C1025 C 0.33621 1.08558 0.44381
 H1026 H 0.32803 1.09993 0.45172
 O1027 O 0.61255 0.91894 0.47785
 O1028 O 0.63896 0.89266 0.47784
 C1029 C 0.63095 0.91102 0.47013
 C1030 C 0.64280 0.92305 0.45163
 C1031 C 0.66394 0.91554 0.44387
 H1032 H 0.67211 0.90121 0.45182
 O1033 O 0.47807 1.08210 0.38721
 O1034 O 0.47804 1.10838 0.36078
 C1035 C 0.47034 1.09001 0.36881
 C1036 C 0.45186 1.07797 0.35699
 C1037 C 0.44407 1.08547 0.33584
 H1038 H 0.45198 1.09982 0.32764
 O1039 O 0.52210 0.91889 0.38731
 O1040 O 0.52212 0.89260 0.36090
 C1041 C 0.52982 0.91097 0.36890
 C1042 C 0.54830 0.92300 0.35704
 C1043 C 0.55609 0.91544 0.33591
 H1044 H 0.54817 0.90109 0.32776
 O1045 O 0.61261 0.97845 0.41814
 O1046 O 0.63905 0.97840 0.39186
 C1047 C 0.63101 0.97073 0.41025
 C1048 C 0.64283 0.95226 0.42233
 C1049 C 0.66397 0.94448 0.41484
 H1050 H 0.67217 0.95239 0.40048
 O1051 O 0.38754 1.02256 0.41825
 O1052 O 0.36112 1.02259 0.39197
 C1053 C 0.36914 1.03029 0.41034
 C1054 C 0.35732 1.04878 0.42238
 C1055 C 0.33621 1.05658 0.41484
 H1056 H 0.32804 1.04865 0.40049
 O1057 O 0.41855 1.11302 0.47790
 O1058 O 0.39229 1.13945 0.47788
 C1059 C 0.41067 1.13143 0.47019
 C1060 C 0.42275 1.14327 0.45172
 C1061 C 0.41528 1.16443 0.44398
 H1062 H 0.40096 1.17262 0.45194
 O1063 O 0.58160 0.88802 0.47790
 O1064 O 0.60786 0.86159 0.47790
 C1065 C 0.58949 0.86961 0.47021
 C1066 C 0.57742 0.85775 0.45177
 C1067 C 0.58485 0.83656 0.44409
 H1068 H 0.59915 0.82835 0.45207
 O1069 O 0.58172 1.02251 0.38715
 O1070 O 0.60800 1.02252 0.36071
 C1071 C 0.58963 1.03022 0.36873
 C1072 C 0.57758 1.04869 0.35689
 C1073 C 0.58508 1.05647 0.33573
 H1074 H 0.59943 1.04855 0.32754
 O1075 O 0.41843 0.97847 0.38729
 O1076 O 0.39216 0.97844 0.36086
 C1077 C 0.41053 0.97075 0.36888
 C1078 C 0.42259 0.95228 0.35705
 C1079 C 0.41508 0.94448 0.33591
 H1080 H 0.40074 0.95239 0.32772
 O1081 O 0.52219 1.11296 0.41814
 O1082 O 0.52222 1.13940 0.39186
 C1083 C 0.52993 1.13136 0.41023
 C1084 C 0.54842 1.14316 0.42227
 C1085 C 0.55625 1.16426 0.41471
 H1086 H 0.54834 1.17243 0.40034
 O1087 O 0.47798 0.88802 0.41830
 O1088 O 0.47796 0.86158 0.39204
 C1089 C 0.47026 0.86961 0.41041
 C1090 C 0.45179 0.85779 0.42248
 C1091 C 0.44405 0.83663 0.41500
 H1092 H 0.45201 0.82845 0.40066
 O1093 O 0.61269 1.08197 0.47782
 O1094 O 0.63910 1.10825 0.47779
 C1095 C 0.63109 1.08988 0.47010
 C1096 C 0.64293 1.07784 0.45160
 C1097 C 0.66407 1.08534 0.44383
 H1098 H 0.67227 1.09965 0.45178
 O1099 O 0.38743 0.91893 0.47798
 O1100 O 0.36099 0.89268 0.47793
 C1101 C 0.36903 0.91105 0.47025
 C1102 C 0.35722 0.92312 0.45177
 C1103 C 0.33606 0.91565 0.44401
 H1104 H 0.32786 0.90133 0.45195
 Cu1105 Cu 0.50004 0.90609 0.40544
 Cu1106 Cu 0.50004 0.87444 0.37382
 Cu1107 Cu 0.50013 1.09490 0.40531
 Cu1108 Cu 0.50013 1.12654 0.37368
 Cu1109 Cu 0.40563 1.00051 0.40541
 Cu1110 Cu 0.37400 1.00052 0.37378
 Cu1111 Cu 0.59453 1.00049 0.40528
 Cu1112 Cu 0.62618 1.00046 0.37363
 C1113 C 0.44113 0.94159 0.36738
 H1114 H 0.44681 0.94729 0.38382
 C1115 C 0.42582 0.92622 0.32539
 C1116 C 0.55904 1.05939 0.36722
 H1117 H 0.55335 1.05370 0.38367
 C1118 C 0.57435 1.07472 0.32520
 C1119 C 0.36756 0.94163 0.44103
 H1120 H 0.38401 0.94729 0.44671
 C1121 C 0.32555 0.92638 0.42574
 C1122 C 0.63259 1.05934 0.44086
 H1123 H 0.61615 1.05366 0.44654
 C1124 C 0.67460 1.07464 0.42554
 C1125 C 0.44105 0.86811 0.44101
 H1126 H 0.44671 0.88455 0.44669
 C1127 C 0.42581 0.82609 0.42573
 C1128 C 0.55911 1.13286 0.44083
 H1129 H 0.55338 1.11645 0.44657
 C1130 C 0.57453 1.17477 0.42540
 C1131 C 0.44116 1.05943 0.36733
 H1132 H 0.44687 1.05374 0.38377
 C1133 C 0.42581 1.07474 0.32533
 C1134 C 0.55901 0.94154 0.36732
 H1135 H 0.55331 0.94727 0.38376
 C1136 C 0.57436 0.92613 0.32535
 C1137 C 0.55893 0.86809 0.44100
 H1138 H 0.55330 0.88457 0.44662
 C1139 C 0.57409 0.82599 0.42588
 C1140 C 0.44125 1.13293 0.44096
 H1141 H 0.44691 1.11647 0.44663
 C1142 C 0.42601 1.17496 0.42572
 C1143 C 0.36763 1.05949 0.44092
 H1144 H 0.38405 1.05378 0.44664
 C1145 C 0.32569 1.07485 0.42554
 C1146 C 0.63249 0.94157 0.44088
 H1147 H 0.61605 0.94727 0.44656
 C1148 C 0.67449 0.92624 0.42559
 O1149 O 0.52189 0.91892 0.61253
 O1150 O 0.52195 0.89266 0.63898
 C1151 C 0.52962 0.91104 0.63094
 C1152 C 0.54807 0.92311 0.64277
 C1153 C 0.55577 0.91567 0.66397
 H1154 H 0.54781 0.90136 0.67218
 O1155 O 0.47798 1.08203 0.61265
 O1156 O 0.47795 1.10832 0.63905
 C1157 C 0.47025 1.08995 0.63105
 C1158 C 0.45175 1.07793 0.64289
 C1159 C 0.44395 1.08548 0.66402
 H1160 H 0.45188 1.09982 0.67219
 O1161 O 0.38746 1.02249 0.58163
 O1162 O 0.36100 1.02255 0.60790
 C1163 C 0.36904 1.03021 0.58950
 C1164 C 0.35722 1.04864 0.57739
 C1165 C 0.33601 1.05633 0.58478
 H1166 H 0.32777 1.04838 0.59910
 O1167 O 0.61254 0.97856 0.58160
 O1168 O 0.63895 0.97847 0.60789
 C1169 C 0.63093 0.97082 0.58949
 C1170 C 0.64277 0.95238 0.57740
 C1171 C 0.66395 0.94466 0.58483
 H1172 H 0.67216 0.95260 0.59915
 O1173 O 0.58159 0.88806 0.52199
 O1174 O 0.60785 0.86163 0.52204
 C1175 C 0.58947 0.86966 0.52972
 C1176 C 0.57739 0.85781 0.54818
 C1177 C 0.58485 0.83664 0.55590
 H1178 H 0.59918 0.82845 0.54795
 O1179 O 0.41844 1.11303 0.52201
 O1180 O 0.39217 1.13945 0.52204
 C1181 C 0.41053 1.13142 0.52975
 C1182 C 0.42255 1.14322 0.54827
 C1183 C 0.41499 1.16432 0.55610
 H1184 H 0.40063 1.17250 0.54820
 O1185 O 0.41833 0.97846 0.61267
 O1186 O 0.39204 0.97846 0.63910
 C1187 C 0.41041 0.97075 0.63108
 C1188 C 0.42244 0.95227 0.64292
 C1189 C 0.41491 0.94448 0.66406
 H1190 H 0.40056 0.95240 0.67224
 O1191 O 0.58164 1.02261 0.61262
 O1192 O 0.60790 1.02257 0.63906
 C1193 C 0.58954 1.03029 0.63104
 C1194 C 0.57752 1.04877 0.64290
 C1195 C 0.58510 1.05658 0.66400
 H1196 H 0.59947 1.04867 0.67215
 O1197 O 0.47783 0.88792 0.58166
 O1198 O 0.47783 0.86150 0.60795
 C1199 C 0.47012 0.86952 0.58958
 C1200 C 0.45165 0.85768 0.57753
 C1201 C 0.44386 0.83656 0.58506
 H1202 H 0.45176 0.82838 0.59942
 O1203 O 0.52204 1.11290 0.58160
 O1204 O 0.52208 1.13936 0.60784
 C1205 C 0.52976 1.13132 0.58946
 C1206 C 0.54821 1.14314 0.57734
 C1207 C 0.55592 1.16432 0.58476
 H1208 H 0.54798 1.17254 0.59909
 O1209 O 0.38741 0.91889 0.52208
 O1210 O 0.36097 0.89263 0.52209
 C1211 C 0.36900 0.91099 0.52981
 C1212 C 0.35718 0.92301 0.54832
 C1213 C 0.33607 0.91546 0.55615
 H1214 H 0.32791 0.90111 0.54823
 O1215 O 0.61272 1.08208 0.52194
 O1216 O 0.63912 1.10837 0.52197
 C1217 C 0.63110 1.09001 0.52968
 C1218 C 0.64290 1.07800 0.54822
 C1219 C 0.66398 1.08557 0.55610
 H1220 H 0.67215 1.09993 0.54820
 O1221 O 0.52206 1.08211 0.61271
 O1222 O 0.52210 1.10842 0.63910
 C1223 C 0.52979 1.09004 0.63110
 C1224 C 0.54829 1.07802 0.64293
 C1225 C 0.55613 1.08557 0.66404
 H1226 H 0.54824 1.09994 0.67221
 O1227 O 0.47782 0.91886 0.61261
 O1228 O 0.47782 0.89259 0.63906
 C1229 C 0.47012 0.91096 0.63103
 C1230 C 0.45165 0.92300 0.64289
 C1231 C 0.44385 0.91547 0.66403
 H1232 H 0.45176 0.90111 0.67220
 O1233 O 0.61257 1.02262 0.58164
 O1234 O 0.63897 1.02258 0.60793
 C1235 C 0.63097 1.03031 0.58956
 C1236 C 0.64282 1.04879 0.57752
 C1237 C 0.66390 1.05662 0.58513
 H1238 H 0.67202 1.04873 0.59953
 O1239 O 0.38740 0.97843 0.58173
 O1240 O 0.36095 0.97843 0.60801
 C1241 C 0.36899 0.97072 0.58964
 C1242 C 0.35717 0.95224 0.57760
 C1243 C 0.33606 0.94441 0.58516
 H1244 H 0.32789 0.95230 0.59954
 O1245 O 0.58166 1.11288 0.52188
 O1246 O 0.60790 1.13932 0.52190
 C1247 C 0.58953 1.13129 0.52959
 C1248 C 0.57744 1.14313 0.54804
 C1249 C 0.58488 1.16431 0.55573
 H1250 H 0.59919 1.17250 0.54775
 O1251 O 0.41831 0.88794 0.52206
 O1252 O 0.39203 0.86153 0.52207
 C1253 C 0.41040 0.86954 0.52977
 C1254 C 0.42243 0.85770 0.54826
 C1255 C 0.41490 0.83657 0.55605
 H1256 H 0.40056 0.82840 0.54811
 O1257 O 0.58154 0.97854 0.61252
 O1258 O 0.60780 0.97845 0.63897
 C1259 C 0.58942 0.97079 0.63093
 C1260 C 0.57733 0.95235 0.64277
 C1261 C 0.58476 0.94463 0.66396
 H1262 H 0.59907 0.95257 0.67217
 O1263 O 0.41832 1.02253 0.61266
 O1264 O 0.39202 1.02259 0.63908
 C1265 C 0.41040 1.03027 0.63106
 C1266 C 0.42246 1.04874 0.64289
 C1267 C 0.41492 1.05655 0.66402
 H1268 H 0.40055 1.04866 0.67220
 O1269 O 0.47797 1.11297 0.58170
 O1270 O 0.47795 1.13942 0.60795
 C1271 C 0.47025 1.13138 0.58959
 C1272 C 0.45177 1.14320 0.57754
 C1273 C 0.44395 1.16430 0.58510
 H1274 H 0.45185 1.17245 0.59948
 O1275 O 0.52190 0.88797 0.58160
 O1276 O 0.52196 0.86156 0.60790
 C1277 C 0.52964 0.86958 0.58950
 C1278 C 0.54811 0.85777 0.57743
 C1279 C 0.55584 0.83660 0.58488
 H1280 H 0.54787 0.82838 0.59920
 O1281 O 0.61252 0.91899 0.52195
 O1282 O 0.63894 0.89272 0.52199
 C1283 C 0.63092 0.91110 0.52967
 C1284 C 0.64276 0.92316 0.54812
 C1285 C 0.66394 0.91571 0.55582
 H1286 H 0.67214 0.90141 0.54785
 O1287 O 0.38755 1.08206 0.52195
 O1288 O 0.36112 1.10832 0.52197
 C1289 C 0.36913 1.08994 0.52965
 C1290 C 0.35726 1.07786 0.54809
 C1291 C 0.33605 1.08528 0.55576
 H1292 H 0.32785 1.09958 0.54777
 Cu1293 Cu 0.49985 0.90605 0.59446
 Cu1294 Cu 0.49990 0.87443 0.62612
 Cu1295 Cu 0.50002 1.09487 0.59454
 Cu1296 Cu 0.50002 1.12653 0.62613
 Cu1297 Cu 0.40551 0.90607 0.50002
 Cu1298 Cu 0.37387 0.87446 0.50000
 Cu1299 Cu 0.59443 0.90614 0.49992
 Cu1300 Cu 0.62605 0.87450 0.49995
 Cu1301 Cu 0.40565 1.09494 0.49992
 Cu1302 Cu 0.37403 1.12657 0.49993
 Cu1303 Cu 0.59459 1.09483 0.49985
 Cu1304 Cu 0.62619 1.12648 0.49985
 Cu1305 Cu 0.40551 1.00048 0.59454
 Cu1306 Cu 0.37385 1.00052 0.62617
 Cu1307 Cu 0.59444 1.00059 0.59446
 Cu1308 Cu 0.62605 1.00050 0.62611
 C1309 C 0.55882 0.94161 0.63242
 H1310 H 0.55319 0.94726 0.61594
 C1311 C 0.57399 0.92641 0.67452
 C1312 C 0.44103 1.05941 0.63257
 H1313 H 0.44674 1.05369 0.61614
 C1314 C 0.42565 1.07480 0.67454
 C1315 C 0.36760 1.05938 0.55888
 H1316 H 0.38409 1.05376 0.55327
 C1317 C 0.32547 1.07453 0.57398
 C1318 C 0.63243 0.94166 0.55888
 H1319 H 0.61596 0.94730 0.55325
 C1320 C 0.67450 0.92645 0.57405
 C1321 C 0.55887 0.86813 0.55892
 H1322 H 0.55321 0.88459 0.55327
 C1323 C 0.57408 0.82607 0.57413
 C1324 C 0.44109 1.13291 0.55897
 H1325 H 0.44682 1.11651 0.55323
 C1326 C 0.42568 1.17482 0.57440
 C1327 C 0.44097 0.94156 0.63259
 H1328 H 0.44668 0.94727 0.61615
 C1329 C 0.42560 0.92620 0.67457
 C1330 C 0.55896 1.05946 0.63262
 H1331 H 0.55322 1.05373 0.61620
 C1332 C 0.57443 1.07487 0.67453
 C1333 C 0.44096 0.86800 0.55898
 H1334 H 0.44667 0.88443 0.55327
 C1335 C 0.42560 0.82604 0.57432
 C1336 C 0.55894 1.13279 0.55882
 H1337 H 0.55330 1.11632 0.55319
 C1338 C 0.57414 1.17486 0.57397
 C1339 C 0.36747 0.94156 0.55902
 H1340 H 0.38389 0.94729 0.55329
 C1341 C 0.32555 0.92614 0.57445
 C1342 C 0.63257 1.05945 0.55892
 H1343 H 0.61618 1.05371 0.55316
 C1344 C 0.67444 1.07490 0.57443
 O1345 O 0.47778 0.41787 0.88745
 O1346 O 0.47780 0.39162 0.86100
 C1347 C 0.47008 0.40997 0.86904
 C1348 C 0.45159 0.42200 0.85721
 C1349 C 0.44378 0.41446 0.83609
 H1350 H 0.45169 0.40010 0.82792
 O1351 O 0.52169 0.58123 0.88756
 O1352 O 0.52174 0.60748 0.86110
 C1353 C 0.52943 0.58912 0.86915
 C1354 C 0.54791 0.57707 0.85733
 C1355 C 0.55565 0.58454 0.83615
 H1356 H 0.54770 0.59885 0.82794
 O1357 O 0.38735 0.47746 0.91844
 O1358 O 0.36089 0.47743 0.89220
 C1359 C 0.36893 0.46975 0.91058
 C1360 C 0.35710 0.45131 0.92268
 C1361 C 0.33591 0.44361 0.91526
 H1362 H 0.32770 0.45156 0.90094
 O1363 O 0.61230 0.52164 0.91855
 O1364 O 0.63872 0.52173 0.89224
 C1365 C 0.63069 0.52939 0.91064
 C1366 C 0.64249 0.54786 0.92270
 C1367 C 0.66366 0.55561 0.91524
 H1368 H 0.67189 0.54765 0.90092
 O1369 O 0.41825 0.38691 0.97808
 O1370 O 0.39197 0.36050 0.97806
 C1371 C 0.41034 0.36852 0.97035
 C1372 C 0.42238 0.35670 0.95185
 C1373 C 0.41484 0.33559 0.94402
 H1374 H 0.40048 0.32742 0.95193
 O1375 O 0.58117 0.61223 0.97809
 O1376 O 0.60744 0.63865 0.97805
 C1377 C 0.58906 0.63063 0.97037
 C1378 C 0.57700 0.64247 0.95191
 C1379 C 0.58443 0.66366 0.94420
 H1380 H 0.59873 0.67187 0.95216
 O1381 O 0.41822 0.52154 0.88742
 O1382 O 0.39191 0.52157 0.86103
 C1383 C 0.41029 0.52927 0.86903
 C1384 C 0.42230 0.54776 0.85719
 C1385 C 0.41476 0.55556 0.83606
 H1386 H 0.40043 0.54762 0.82788
 O1387 O 0.58139 0.47760 0.88758
 O1388 O 0.60764 0.47764 0.86110
 C1389 C 0.58928 0.46993 0.86914
 C1390 C 0.57723 0.45149 0.85727
 C1391 C 0.58470 0.44382 0.83607
 H1392 H 0.59901 0.45181 0.82788
 O1393 O 0.52189 0.38697 0.91839
 O1394 O 0.52197 0.36058 0.89209
 C1395 C 0.52964 0.36859 0.91047
 C1396 C 0.54814 0.35678 0.92251
 C1397 C 0.55598 0.33569 0.91495
 H1398 H 0.54809 0.32753 0.90058
 O1399 O 0.47757 0.61217 0.91843
 O1400 O 0.47755 0.63858 0.89213
 C1401 C 0.46985 0.63056 0.91052
 C1402 C 0.45137 0.64239 0.92258
 C1403 C 0.44358 0.66352 0.91507
 H1404 H 0.45149 0.67170 0.90070
 O1405 O 0.38726 0.58112 0.97818
 O1406 O 0.36078 0.60733 0.97812
 C1407 C 0.36885 0.58896 0.97045
 C1408 C 0.35704 0.57686 0.95200
 C1409 C 0.33583 0.58425 0.94432
 H1410 H 0.32760 0.59854 0.95230
 O1411 O 0.61245 0.41791 0.97794
 O1412 O 0.63889 0.39167 0.97793
 C1413 C 0.63086 0.41002 0.97021
 C1414 C 0.64267 0.42206 0.95169
 C1415 C 0.66375 0.41448 0.94379
 H1416 H 0.67191 0.40009 0.95164
 O1417 O 0.47762 0.58125 0.88747
 O1418 O 0.47761 0.60751 0.86102
 C1419 C 0.46992 0.58914 0.86905
 C1420 C 0.45148 0.57707 0.85720
 C1421 C 0.44368 0.58459 0.83607
 H1422 H 0.45156 0.59897 0.82790
 O1423 O 0.52185 0.41796 0.88749
 O1424 O 0.52193 0.39172 0.86102
 C1425 C 0.52958 0.41010 0.86906
 C1426 C 0.54802 0.42221 0.85723
 C1427 C 0.55577 0.41480 0.83603
 H1428 H 0.54784 0.40049 0.82780
 O1429 O 0.61241 0.47756 0.91844
 O1430 O 0.63880 0.47760 0.89211
 C1431 C 0.63080 0.46986 0.91049
 C1432 C 0.64264 0.45135 0.92247
 C1433 C 0.66371 0.44351 0.91483
 H1434 H 0.67185 0.45142 0.90044
 O1435 O 0.38736 0.52152 0.91847
 O1436 O 0.36090 0.52154 0.89223
 C1437 C 0.36894 0.52922 0.91061
 C1438 C 0.35709 0.54764 0.92272
 C1439 C 0.33588 0.55530 0.91531
 H1440 H 0.32768 0.54734 0.90100
 O1441 O 0.41806 0.61218 0.97814
 O1442 O 0.39174 0.63854 0.97807
 C1443 C 0.41013 0.63055 0.97039
 C1444 C 0.42215 0.64238 0.95188
 C1445 C 0.41463 0.66351 0.94411
 H1446 H 0.40029 0.67169 0.95206
 O1447 O 0.58149 0.38702 0.97798
 O1448 O 0.60777 0.36062 0.97797
 C1449 C 0.58940 0.36863 0.97026
 C1450 C 0.57738 0.35679 0.95177
 C1451 C 0.58495 0.33570 0.94394
 H1452 H 0.59932 0.32755 0.95185
 O1453 O 0.58138 0.52166 0.88759
 O1454 O 0.60765 0.52175 0.86113
 C1455 C 0.58927 0.52940 0.86918
 C1456 C 0.57718 0.54785 0.85734
 C1457 C 0.58465 0.55559 0.83616
 H1458 H 0.59899 0.54767 0.82796
 O1459 O 0.41825 0.47746 0.88743
 O1460 O 0.39194 0.47743 0.86104
 C1461 C 0.41032 0.46974 0.86904
 C1462 C 0.42235 0.45125 0.85720
 C1463 C 0.41480 0.44343 0.83608
 H1464 H 0.40045 0.45134 0.82791
 O1465 O 0.52163 0.61221 0.91846
 O1466 O 0.52168 0.63862 0.89216
 C1467 C 0.52934 0.63061 0.91055
 C1468 C 0.54777 0.64246 0.92264
 C1469 C 0.55547 0.66365 0.91519
 H1470 H 0.54752 0.67185 0.90087
 O1471 O 0.47781 0.38695 0.91843
 O1472 O 0.47782 0.36055 0.89213
 C1473 C 0.47011 0.36856 0.91052
 C1474 C 0.45163 0.35672 0.92257
 C1475 C 0.44383 0.33562 0.91502
 H1476 H 0.45175 0.32746 0.90065
 O1477 O 0.61214 0.58133 0.97808
 O1478 O 0.63856 0.60759 0.97803
 C1479 C 0.63055 0.58922 0.97036
 C1480 C 0.64241 0.57714 0.95191
 C1481 C 0.66358 0.58462 0.94418
 H1482 H 0.67175 0.59896 0.95211
 O1483 O 0.38736 0.41789 0.97811
 O1484 O 0.36093 0.39164 0.97811
 C1485 C 0.36895 0.41001 0.97041
 C1486 C 0.35711 0.42208 0.95196
 C1487 C 0.33592 0.41464 0.94427
 H1488 H 0.32772 0.40034 0.95225
 Cu1489 Cu 0.49983 0.40507 0.90558
 Cu1490 Cu 0.49988 0.37347 0.87391
 Cu1491 Cu 0.49962 0.59408 0.90562
 Cu1492 Cu 0.49965 0.62569 0.87395
 Cu1493 Cu 0.40544 0.49949 0.90556
 Cu1494 Cu 0.37376 0.49949 0.87398
 Cu1495 Cu 0.59424 0.49960 0.90568
 Cu1496 Cu 0.62585 0.49969 0.87400
 C1497 C 0.44090 0.44056 0.86751
 H1498 H 0.44662 0.44628 0.88393
 C1499 C 0.42551 0.42515 0.82556
 C1500 C 0.55865 0.55857 0.86768
 H1501 H 0.55299 0.55290 0.88415
 C1502 C 0.57390 0.57381 0.82561
 C1503 C 0.36745 0.44057 0.94119
 H1504 H 0.38393 0.44621 0.94681
 C1505 C 0.32536 0.42539 0.92605
 C1506 C 0.63212 0.55861 0.94120
 H1507 H 0.61566 0.55294 0.94686
 C1508 C 0.67417 0.57387 0.92597
 C1509 C 0.44093 0.36701 0.94114
 H1510 H 0.44664 0.38342 0.94687
 C1511 C 0.42555 0.32509 0.92573
 C1512 C 0.55851 0.63212 0.94115
 H1513 H 0.55287 0.61565 0.94680
 C1514 C 0.57368 0.67421 0.92596
 C1515 C 0.44082 0.55850 0.86751
 H1516 H 0.44653 0.55279 0.88394
 C1517 C 0.42544 0.57385 0.82554
 C1518 C 0.55873 0.44071 0.86760
 H1519 H 0.55307 0.44632 0.88409
 C1520 C 0.57398 0.42560 0.82549
 C1521 C 0.55881 0.36708 0.94108
 H1522 H 0.55307 0.38348 0.94681
 C1523 C 0.57427 0.32519 0.92565
 C1524 C 0.44068 0.63207 0.94114
 H1525 H 0.44638 0.61564 0.94684
 C1526 C 0.42533 0.67404 0.92582
 C1527 C 0.36742 0.55840 0.94123
 H1528 H 0.38391 0.55279 0.94685
 C1529 C 0.32529 0.57349 0.92610
 C1530 C 0.63238 0.44064 0.94106
 H1531 H 0.61599 0.44639 0.94685
 C1532 C 0.67423 0.42519 0.92547
 O1533 O 0.52186 0.41790 1.11281
 O1534 O 0.52188 0.39162 1.13924
 C1535 C 0.52957 0.40999 1.13122
 C1536 C 0.54804 0.42203 1.14305
 C1537 C 0.55587 0.41448 1.16416
 H1538 H 0.54799 0.40010 1.17233
 O1539 O 0.47759 0.58127 1.11271
 O1540 O 0.47755 0.60750 1.13919
 C1541 C 0.46987 0.58914 1.13114
 C1542 C 0.45142 0.57706 1.14299
 C1543 C 0.44365 0.58455 1.16415
 H1544 H 0.45157 0.59889 1.17233
 O1545 O 0.38713 0.52161 1.08184
 O1546 O 0.36071 0.52159 1.10815
 C1547 C 0.36873 0.52931 1.08977
 C1548 C 0.35690 0.54781 1.07775
 C1549 C 0.33581 0.55565 1.08533
 H1550 H 0.32764 0.54775 1.09972
 O1551 O 0.61219 0.47756 1.08172
 O1552 O 0.63863 0.47758 1.10798
 C1553 C 0.63061 0.46988 1.08960
 C1554 C 0.64249 0.45146 1.07751
 C1555 C 0.66368 0.44379 1.08496
 H1556 H 0.67186 0.45176 1.09929
 O1557 O 0.58149 0.38702 1.02209
 O1558 O 0.60778 0.36063 1.02215
 C1559 C 0.58940 0.36864 1.02984
 C1560 C 0.57735 0.35682 1.04834
 C1561 C 0.58487 0.33570 1.05614
 H1562 H 0.59922 0.32752 1.04822
 O1563 O 0.41807 0.61220 1.02224
 O1564 O 0.39176 0.63857 1.02223
 C1565 C 0.41014 0.63059 1.02994
 C1566 C 0.42217 0.64244 1.04841
 C1567 C 0.41465 0.66358 1.05618
 H1568 H 0.40031 0.67175 1.04824
 O1569 O 0.41815 0.47755 1.11272
 O1570 O 0.39188 0.47747 1.13918
 C1571 C 0.41026 0.46981 1.13114
 C1572 C 0.42234 0.45136 1.14297
 C1573 C 0.41486 0.44362 1.16415
 H1574 H 0.40053 0.45156 1.17235
 O1575 O 0.58120 0.52157 1.11270
 O1576 O 0.60748 0.52164 1.13911
 C1577 C 0.58909 0.52930 1.13110
 C1578 C 0.57702 0.54775 1.14294
 C1579 C 0.58446 0.55546 1.16413
 H1580 H 0.59877 0.54750 1.17234
 O1581 O 0.47783 0.38697 1.08183
 O1582 O 0.47778 0.36055 1.10812
 C1583 C 0.47011 0.36856 1.08973
 C1584 C 0.45166 0.35672 1.07766
 C1585 C 0.44390 0.33558 1.08516
 H1586 H 0.45182 0.32740 1.09952
 O1587 O 0.52166 0.61226 1.08180
 O1588 O 0.52168 0.63864 1.10813
 C1589 C 0.52938 0.63064 1.08973
 C1590 C 0.54785 0.64249 1.07768
 C1591 C 0.55563 0.66361 1.08521
 H1592 H 0.54771 0.67177 1.09958
 O1593 O 0.38733 0.41785 1.02221
 O1594 O 0.36091 0.39159 1.02226
 C1595 C 0.36893 0.40996 1.02994
 C1596 C 0.35708 0.42202 1.04841
 C1597 C 0.33593 0.41453 1.05618
 H1598 H 0.32775 0.40018 1.04827
 O1599 O 0.61208 0.58128 1.02217
 O1600 O 0.63852 0.60753 1.02217
 C1601 C 0.63049 0.58916 1.02987
 C1602 C 0.64235 0.57707 1.04830
 C1603 C 0.66355 0.58450 1.05597
 H1604 H 0.67175 0.59881 1.04800
 O1605 O 0.52165 0.58124 1.11268
 O1606 O 0.52167 0.60746 1.13915
 C1607 C 0.52935 0.58910 1.13110
 C1608 C 0.54779 0.57701 1.14294
 C1609 C 0.55551 0.58445 1.16413
 H1610 H 0.54756 0.59877 1.17234
 O1611 O 0.47779 0.41795 1.11273
 O1612 O 0.47774 0.39168 1.13918
 C1613 C 0.47005 0.41005 1.13114
 C1614 C 0.45158 0.42211 1.14298
 C1615 C 0.44383 0.41464 1.16416
 H1616 H 0.45176 0.40032 1.17236
 O1617 O 0.61217 0.52161 1.08176
 O1618 O 0.63860 0.52168 1.10802
 C1619 C 0.63056 0.52935 1.08964
 C1620 C 0.64238 0.54781 1.07755
 C1621 C 0.66358 0.55550 1.08495
 H1622 H 0.67181 0.54753 1.09925
 O1623 O 0.38722 0.47754 1.08178
 O1624 O 0.36080 0.47746 1.10808
 C1625 C 0.36883 0.46979 1.08969
 C1626 C 0.35703 0.45131 1.07763
 C1627 C 0.33588 0.44354 1.08513
 H1628 H 0.32768 0.45149 1.09946
 O1629 O 0.58123 0.61229 1.02219
 O1630 O 0.60751 0.63869 1.02221
 C1631 C 0.58914 0.63068 1.02991
 C1632 C 0.57710 0.64251 1.04841
 C1633 C 0.58462 0.66363 1.05620
 H1634 H 0.59897 0.67181 1.04828
 O1635 O 0.41829 0.38694 1.02218
 O1636 O 0.39202 0.36052 1.02223
 C1637 C 0.41039 0.36854 1.02991
 C1638 C 0.42244 0.35671 1.04839
 C1639 C 0.41495 0.33557 1.05615
 H1640 H 0.40062 0.32738 1.04822
 O1641 O 0.58134 0.47750 1.11278
 O1642 O 0.60763 0.47752 1.13919
 C1643 C 0.58926 0.46979 1.13118
 C1644 C 0.57726 0.45130 1.14303
 C1645 C 0.58483 0.44348 1.16415
 H1646 H 0.59919 0.45139 1.17230
 O1647 O 0.41808 0.52162 1.11276
 O1648 O 0.39181 0.52159 1.13922
 C1649 C 0.41017 0.52931 1.13119
 C1650 C 0.42221 0.54779 1.14302
 C1651 C 0.41470 0.55555 1.16418
 H1652 H 0.40037 0.54761 1.17239
 O1653 O 0.47759 0.61224 1.08180
 O1654 O 0.47755 0.63862 1.10811
 C1655 C 0.46987 0.63062 1.08972
 C1656 C 0.45140 0.64246 1.07767
 C1657 C 0.44363 0.66360 1.08517
 H1658 H 0.45155 0.67178 1.09951
 O1659 O 0.52190 0.38704 1.08178
 O1660 O 0.52192 0.36062 1.10807
 C1661 C 0.52962 0.36865 1.08969
 C1662 C 0.54810 0.35683 1.07763
 C1663 C 0.55589 0.33571 1.08515
 H1664 H 0.54797 0.32753 1.09952
 O1665 O 0.61237 0.41801 1.02204
 O1666 O 0.63882 0.39178 1.02210
 C1667 C 0.63077 0.41014 1.02978
 C1668 C 0.64258 0.42223 1.04824
 C1669 C 0.66377 0.41483 1.05596
 H1670 H 0.67201 0.40054 1.04801
 O1671 O 0.38716 0.58123 1.02228
 O1672 O 0.36070 0.60746 1.02228
 C1673 C 0.36875 0.58911 1.03000
 C1674 C 0.35692 0.57707 1.04850
 C1675 C 0.33583 0.58464 1.05635
 H1676 H 0.32768 0.59901 1.04845
 Cu1677 Cu 0.49984 0.40510 1.09465
 Cu1678 Cu 0.49983 0.37347 1.12630
 Cu1679 Cu 0.49962 0.59413 1.09461
 Cu1680 Cu 0.49961 0.62570 1.12630
 Cu1681 Cu 0.40544 0.40502 1.00015
 Cu1682 Cu 0.37381 0.37341 1.00017
 Cu1683 Cu 0.59432 0.40512 1.00001
 Cu1684 Cu 0.62597 0.37352 1.00005
 Cu1685 Cu 0.40528 0.59406 1.00022
 Cu1686 Cu 0.37359 0.62562 1.00017
 Cu1687 Cu 0.59402 0.59416 1.00013
 Cu1688 Cu 0.62566 0.62577 1.00011
 Cu1689 Cu 0.40528 0.49959 1.09464
 Cu1690 Cu 0.37365 0.49952 1.12630
 Cu1691 Cu 0.59409 0.49955 1.09461
 Cu1692 Cu 0.62573 0.49961 1.12622
 C1693 C 0.55871 0.44060 1.13274
 H1694 H 0.55297 0.44632 1.11632
 C1695 C 0.57415 0.42518 1.17467
 C1696 C 0.44072 0.55852 1.13267
 H1697 H 0.44641 0.55285 1.11622
 C1698 C 0.42541 0.57381 1.17471
 C1699 C 0.36720 0.55850 1.05917
 H1700 H 0.38361 0.55276 1.05342
 C1701 C 0.32531 0.57395 1.07465
 C1702 C 0.63219 0.44071 1.05899
 H1703 H 0.61571 0.44632 1.05334
 C1704 C 0.67428 0.42560 1.07421
 C1705 C 0.55881 0.36714 1.05906
 H1706 H 0.55311 0.38356 1.05335
 C1707 C 0.57416 0.32518 1.07443
 C1708 C 0.44069 0.63214 1.05914
 H1709 H 0.44639 0.61570 1.05345
 C1710 C 0.42537 0.67412 1.07443
 C1711 C 0.44086 0.44063 1.13263
 H1712 H 0.44653 0.44629 1.11617
 C1713 C 0.42559 0.42539 1.17470
 C1714 C 0.55852 0.55850 1.13260
 H1715 H 0.55288 0.55286 1.11612
 C1716 C 0.57372 0.57369 1.17468
 C1717 C 0.44096 0.36704 1.05911
 H1718 H 0.44664 0.38348 1.05343
 C1719 C 0.42566 0.32504 1.07442
 C1720 C 0.55856 0.63219 1.05912
 H1721 H 0.55286 0.61577 1.05342
 C1722 C 0.57390 0.67414 1.07449
 C1723 C 0.36738 0.44057 1.05912
 H1724 H 0.38383 0.44625 1.05343
 C1725 C 0.32537 0.42528 1.07442
 C1726 C 0.63201 0.55857 1.05907
 H1727 H 0.61553 0.55294 1.05345
 C1728 C 0.67412 0.57372 1.07417
 C1729 C 1.09341 1.08987 1.25852
 C1730 C 1.11884 1.09050 1.26475
 C1731 C 1.11597 1.11503 1.27273
 C1732 C 1.09070 1.11455 1.26684
 C1733 C 1.09930 1.09881 1.23485
 C1734 C 1.09644 1.12334 1.24284
 C1735 C 1.12457 1.09930 1.24075
 C1736 C 1.12184 1.12396 1.24905
 C1737 C 1.12542 1.12427 1.29367
 C1738 C 1.13333 1.13208 1.31073
 C1739 C 1.09021 1.08995 1.21360
 C1740 C 1.08296 1.08283 1.19596
 H1741 H 1.08162 1.07576 1.26217
 H1742 H 1.12816 1.07711 1.27399
 H1743 H 1.07687 1.12093 1.27781
 H1744 H 1.08712 1.13674 1.23360
 H1745 H 1.13840 1.09293 1.22978
 H1746 H 1.13364 1.13807 1.24538
 C1747 C 1.08641 0.59531 0.75805
 C1748 C 1.10948 0.58891 0.76866
 C1749 C 1.11410 0.61406 0.77306
 C1750 C 1.09118 0.62061 0.76280
 C1751 C 1.09805 0.59777 0.73496
 C1752 C 1.10268 0.62292 0.73938
 C1753 C 1.12097 0.59122 0.74522
 C1754 C 1.12572 0.61651 0.74996
 C1755 C 1.12325 0.62332 0.79411
 C1756 C 1.13099 0.63112 0.81125
 C1757 C 1.08931 0.58891 0.71357
 C1758 C 1.08230 0.58184 0.69581
 H1759 H 1.07015 0.58649 0.76112
 H1760 H 1.11239 0.57503 0.78094
 H1761 H 1.07904 0.63280 0.77027
 H1762 H 1.09978 0.63681 0.72710
 H1763 H 1.13312 0.57904 0.73775
 H1764 H 1.14199 0.62532 0.74686
 C1765 C 0.62285 1.10974 0.73694
 C1766 C 0.61241 1.12925 0.75090
 C1767 C 0.61601 1.11532 0.77253
 C1768 C 0.62660 1.09595 0.75887
 C1769 C 0.59926 1.09916 0.73466
 C1770 C 0.60286 1.08521 0.75627
 C1771 C 0.58868 1.11853 0.74831
 C1772 C 0.59242 1.10474 0.77027
 C1773 C 0.62550 1.12453 0.79346
 C1774 C 0.63342 1.13232 0.81053
 C1775 C 0.59013 1.09032 0.71342
 C1776 C 0.58284 1.08320 0.69578
 H1777 H 0.63526 1.11170 0.72300
 H1778 H 0.61644 1.14745 0.74892
 H1779 H 0.64229 1.08676 0.76344
 H1780 H 0.59882 1.06701 0.75824
 H1781 H 0.57298 1.12772 0.74374
 H1782 H 0.58002 1.10279 0.78421
 C1783 C 0.61714 0.61529 1.23653
 C1784 C 0.60334 0.62862 1.25433
 C1785 C 0.61416 0.61427 1.27306
 C1786 C 0.62811 0.60108 1.25557
 C1787 C 0.59791 0.59793 1.23506
 C1788 C 0.60873 0.58357 1.25378
 C1789 C 0.58395 0.61112 1.25254
 C1790 C 0.59493 0.59690 1.27161
 C1791 C 0.62342 0.62355 1.29405
 C1792 C 0.63124 0.63138 1.31114
 C1793 C 0.58905 0.58904 1.21373
 C1794 C 0.58196 0.58193 1.19602
 H1795 H 0.62618 0.62276 1.22188
 H1796 H 0.60122 0.64724 1.25479
 H1797 H 0.64636 0.59705 1.25705
 H1798 H 0.61085 0.56494 1.25331
 H1799 H 0.56570 0.61515 1.25105
 H1800 H 0.58590 0.58945 1.28628
 C1801 C 0.89098 0.87796 1.23755
 C1802 C 0.90465 0.87447 1.25960
 C1803 C 0.88515 0.88510 1.27304
 C1804 C 0.87134 0.88845 1.25131
 C1805 C 0.90149 0.90157 1.23510
 C1806 C 0.88198 0.91219 1.24854
 C1807 C 0.91531 0.89822 1.25683
 C1808 C 0.89565 0.90871 1.27061
 C1809 C 0.87586 0.87574 1.29400
 C1810 C 0.86802 0.86787 1.31108
 C1811 C 0.91040 0.91054 1.21381
 C1812 C 0.91754 0.91771 1.19614
 H1813 H 0.88916 0.86542 1.22373
 H1814 H 0.91387 0.85886 1.26437
 H1815 H 0.85316 0.88433 1.24926
 H1816 H 0.87276 0.92781 1.24376
 H1817 H 0.93349 0.90235 1.25885
 H1818 H 0.89747 0.92124 1.28444
 C1819 C 0.88988 0.37715 0.73677
 C1820 C 0.90332 0.37363 0.75895
 C1821 C 0.88374 0.38440 0.77218
 C1822 C 0.87017 0.38778 0.75031
 C1823 C 0.90055 0.40068 0.73436
 C1824 C 0.88097 0.41145 0.74759
 C1825 C 0.91414 0.39732 0.75623
 C1826 C 0.89441 0.40794 0.76980
 C1827 C 0.87423 0.37514 0.79310
 C1828 C 0.86628 0.36733 0.81016
 C1829 C 0.90972 0.40959 0.71314
 C1830 C 0.91704 0.41676 0.69553
 H1831 H 0.88812 0.36458 0.72296
 H1832 H 0.91240 0.35798 0.76385
 H1833 H 0.85198 0.38376 0.74810
 H1834 H 0.87189 0.42711 0.74268
 H1835 H 0.93232 0.40134 0.75842
 H1836 H 0.89616 0.42051 0.78362
 C1837 C 0.39050 0.87818 0.73723
 C1838 C 0.40410 0.87469 0.75932
 C1839 C 0.38458 0.88537 0.77269
 C1840 C 0.37085 0.88873 0.75091
 C1841 C 0.40107 0.90176 0.73478
 C1842 C 0.38154 0.91245 0.74815
 C1843 C 0.41482 0.89841 0.75655
 C1844 C 0.39514 0.90896 0.77026
 C1845 C 0.37521 0.87605 0.79363
 C1846 C 0.36733 0.86820 0.81070
 C1847 C 0.41006 0.91070 0.71351
 C1848 C 0.41725 0.91786 0.69585
 H1849 H 0.38870 0.86563 0.72341
 H1850 H 0.41328 0.85906 0.76414
 H1851 H 0.35266 0.88464 0.74881
 H1852 H 0.37237 0.92807 0.74332
 H1853 H 0.43300 0.90250 0.75863
 H1854 H 0.39694 0.92150 0.78409
 C1855 C 0.40090 0.41419 1.25763
 C1856 C 0.37608 0.40671 1.26132
 C1857 C 0.38462 0.38522 1.27311
 C1858 C 0.40929 0.39255 1.26976
 C1859 C 0.40113 0.40131 1.23509
 C1860 C 0.40966 0.37981 1.24687
 C1861 C 0.37646 0.39397 1.23846
 C1862 C 0.38485 0.37235 1.25055
 C1863 C 0.37525 0.37605 1.29412
 C1864 C 0.36738 0.36829 1.31124
 C1865 C 0.41012 0.41009 1.21375
 C1866 C 0.41729 0.41714 1.19604
 H1867 H 0.40761 0.43150 1.26029
 H1868 H 0.36217 0.41767 1.26750
 H1869 H 0.42269 0.39186 1.28287
 H1870 H 0.42357 0.36885 1.24069
 H1871 H 0.36306 0.39465 1.22535
 H1872 H 0.37815 0.35504 1.24787
 C1873 C 0.91110 1.09553 0.74207
 C1874 C 0.88728 1.09018 0.73260
 C1875 C 0.88388 1.11544 0.72770
 C1876 C 0.90755 1.12093 0.73683
 C1877 C 0.90063 1.09920 0.76555
 C1878 C 0.89722 1.12446 0.76064
 C1879 C 0.87696 1.09372 0.75642
 C1880 C 0.87341 1.11911 0.75120
 C1881 C 0.87440 1.12468 0.70677
 C1882 C 0.86647 1.13249 0.68971
 C1883 C 0.90976 1.09032 0.78678
 C1884 C 0.91704 1.08317 0.80441
 H1885 H 0.92671 1.08573 0.73855
 H1886 H 0.88308 1.07619 0.72084
 H1887 H 0.92002 1.13223 0.72854
 H1888 H 0.90141 1.13846 0.77239
 H1889 H 0.86448 1.08243 0.76471
 H1890 H 0.85781 1.12890 0.75473
 C1891 C 0.87686 0.60065 0.25970
 C1892 C 0.88175 0.62453 0.25019
 C1893 C 0.88585 0.61407 0.22678
 C1894 C 0.88083 0.59032 0.23597
 C1895 C 0.90215 0.59786 0.26482
 C1896 C 0.90627 0.58738 0.24142
 C1897 C 0.90717 0.62161 0.25563
 C1898 C 0.91115 0.61128 0.23189
 C1899 C 0.87657 0.62330 0.20577
 C1900 C 0.86875 0.63111 0.18867
 C1901 C 0.91102 0.58903 0.28617
 C1902 C 0.91811 0.58196 0.30390
 H1903 H 0.86287 0.59619 0.27137
 H1904 H 0.87156 0.63991 0.25357
 H1905 H 0.86990 0.57756 0.22765
 H1906 H 0.91646 0.57199 0.23806
 H1907 H 0.91810 0.63437 0.26395
 H1908 H 0.92514 0.61575 0.22021
 C1909 C 0.41143 1.09474 0.24158
 C1910 C 0.38749 1.08963 0.23229
 C1911 C 0.38442 1.11487 0.22712
 C1912 C 0.40821 1.12013 0.23607
 C1913 C 0.40112 1.09883 0.26506
 C1914 C 0.39805 1.12408 0.25988
 C1915 C 0.37733 1.09358 0.25611
 C1916 C 0.37413 1.11895 0.25062
 C1917 C 0.37496 1.12402 0.20615
 C1918 C 0.36704 1.13177 0.18906
 C1919 C 0.41021 1.09007 0.28636
 C1920 C 0.41746 1.08301 0.30403
 H1921 H 0.42688 1.08469 0.23811
 H1922 H 0.38303 1.07556 0.22071
 H1923 H 0.42080 1.13115 0.22759
 H1924 H 0.40249 1.13814 0.27146
 H1925 H 0.36474 1.08256 0.26460
 H1926 H 0.35868 1.12901 0.25411
 C1927 C 0.37827 0.61082 0.76338
 C1928 C 0.38991 0.62893 0.74850
 C1929 C 0.38448 0.61474 0.72745
 C1930 C 0.37271 0.59675 0.74202
 C1931 C 0.40093 0.59831 0.76535
 C1932 C 0.39551 0.58410 0.74431
 C1933 C 0.41271 0.61630 0.75078
 C1934 C 0.40715 0.60224 0.72940
 C1935 C 0.37514 0.62407 0.70651
 C1936 C 0.36728 0.63193 0.68944
 C1937 C 0.40990 0.58936 0.78661
 C1938 C 0.41709 0.58219 0.80426
 H1939 H 0.36649 0.61425 0.77758
 H1940 H 0.38750 0.64747 0.75000
 H1941 H 0.35615 0.58882 0.73818
 H1942 H 0.39792 0.56557 0.74283
 H1943 H 0.42926 0.62423 0.75463
 H1944 H 0.41891 0.59882 0.71519
 C1945 C 1.12332 0.90507 0.75730
 C1946 C 1.12470 0.87967 0.75121
 C1947 C 1.11548 0.88513 0.72755
 C1948 C 1.11424 0.91041 0.73332
 C1949 C 1.09893 0.90149 0.76544
 C1950 C 1.08970 0.90697 0.74180
 C1951 C 1.10018 0.87622 0.75967
 C1952 C 1.09109 0.88155 0.73569
 C1953 C 1.12488 0.87584 0.70661
 C1954 C 1.13278 0.86801 0.68955
 C1955 C 1.08992 0.91042 0.78670
 C1956 C 1.08271 0.91758 0.80436
 H1957 H 1.13647 0.91484 0.76641
 H1958 H 1.13919 0.86834 0.75485
 H1959 H 1.12013 0.92436 0.72225
 H1960 H 1.07520 0.91830 0.73817
 H1961 H 1.09429 0.86226 0.77074
 H1962 H 1.07794 0.87177 0.72658
 C1963 C 1.11914 0.38488 0.26343
 C1964 C 1.10575 0.37056 0.24611
 C1965 C 1.11560 0.38506 0.22694
 C1966 C 1.12912 0.39924 0.24396
 C1967 C 1.09910 0.40130 0.26490
 C1968 C 1.10894 0.41581 0.24574
 C1969 C 1.08557 0.38711 0.24789
 C1970 C 1.09555 0.40148 0.22839
 C1971 C 1.12496 0.37581 0.20597
 C1972 C 1.13282 0.36800 0.18888
 C1973 C 1.09011 0.41016 0.28620
 C1974 C 1.08292 0.41726 0.30388
 H1975 H 1.12875 0.37814 0.27807
 H1976 H 1.10455 0.35184 0.24603
 H1977 H 1.14714 0.40413 0.24211
 H1978 H 1.11014 0.43453 0.24584
 H1979 H 1.06755 0.38223 0.24975
 H1980 H 1.08596 0.40821 0.21374
 C1981 C 0.59008 0.90774 0.24147
 C1982 C 0.61488 0.91013 0.23338
 C1983 C 0.61500 0.88491 0.22726
 C1984 C 0.59035 0.88237 0.23500
 C1985 C 0.59870 0.90149 0.26515
 C1986 C 0.59883 0.87628 0.25902
 C1987 C 0.62335 0.90402 0.25740
 C1988 C 0.62361 0.87867 0.25095
 C1989 C 0.62427 0.87550 0.20631
 C1990 C 0.63210 0.86760 0.18924
 C1991 C 0.58981 0.91053 0.28642
 C1992 C 0.58268 0.91776 0.30408
 H1993 H 0.57619 0.91980 0.23782
 H1994 H 0.62158 0.92394 0.22260
 H1995 H 0.57689 0.87336 0.22556
 H1996 H 0.59213 0.86246 0.26980
 H1997 H 0.63682 0.91303 0.26684
 H1998 H 0.63749 0.86662 0.25463
 C1999 C 0.61798 0.38471 0.76351
 C2000 C 0.60440 0.37119 0.74570
 C2001 C 0.61498 0.38577 0.72699
 C2002 C 0.62870 0.39916 0.74449
 C2003 C 0.59845 0.40173 0.76504
 C2004 C 0.60902 0.41632 0.74634
 C2005 C 0.58472 0.38834 0.74755
 C2006 C 0.59544 0.40279 0.72850
 C2007 C 0.62436 0.37666 0.70596
 C2008 C 0.63223 0.36893 0.68884
 C2009 C 0.58945 0.41043 0.78640
 C2010 C 0.58227 0.41743 0.80413
 H2011 H 0.62715 0.37737 0.77814
 H2012 H 0.60261 0.35253 0.74520
 H2013 H 0.64688 0.40350 0.74300
 H2014 H 0.61081 0.43498 0.74686
 H2015 H 0.56654 0.38400 0.74905
 H2016 H 0.58629 0.41012 0.71386
 C2017 C 1.25783 1.09744 1.08694
 C2018 C 1.26206 1.12250 1.09323
 C2019 C 1.27278 1.11477 1.11559
 C2020 C 1.26888 1.08986 1.10945
 C2021 C 1.23486 1.09862 1.09899
 C2022 C 1.24557 1.09090 1.12135
 C2023 C 1.23877 1.12353 1.10514
 C2024 C 1.24980 1.11594 1.12762
 C2025 C 1.29374 1.12396 1.12500
 C2026 C 1.31082 1.13174 1.13288
 C2027 C 1.21358 1.08980 1.08995
 C2028 C 1.19591 1.08271 1.08274
 H2029 H 1.26088 1.08973 1.07011
 H2030 H 1.26908 1.13559 1.08178
 H2031 H 1.28150 1.07611 1.11133
 H2032 H 1.23855 1.07780 1.13281
 H2033 H 1.22616 1.13728 1.10326
 H2034 H 1.24672 1.12364 1.14446
 C2035 C 1.24388 0.59373 0.62253
 C2036 C 1.26768 0.58988 0.61230
 C2037 C 1.27263 0.61521 0.61506
 C2038 C 1.24915 0.61919 0.62542
 C2039 C 1.23478 0.59863 0.59871
 C2040 C 1.23974 0.62395 0.60147
 C2041 C 1.25825 0.59463 0.58833
 C2042 C 1.26353 0.62011 0.59123
 C2043 C 1.29355 0.62461 0.62435
 C2044 C 1.31060 0.63250 0.63220
 C2045 C 1.21355 0.58959 0.58978
 C2046 C 1.19592 0.58237 0.58261
 H2047 H 1.23557 0.58277 0.63530
 H2048 H 1.27941 0.57597 0.61687
 H2049 H 1.24564 0.62938 0.64077
 H2050 H 1.22802 0.63786 0.59691
 H2051 H 1.26174 0.58443 0.57298
 H2052 H 1.27185 0.63107 0.57847
 C2053 C 0.74581 1.09066 0.62103
 C2054 C 0.76891 1.09083 0.60869
 C2055 C 0.77231 1.11548 0.61607
 C2056 C 0.74954 1.11544 0.62855
 C2057 C 0.73449 1.09926 0.59931
 C2058 C 0.73791 1.12391 0.60669
 C2059 C 0.75725 1.09930 0.58681
 C2060 C 0.76099 1.12409 0.59434
 C2061 C 0.79323 1.12471 0.62555
 C2062 C 0.81029 1.13251 0.63348
 C2063 C 0.71327 1.09039 0.59017
 C2064 C 0.69566 1.08325 0.58287
 H2065 H 0.73933 1.07681 0.63191
 H2066 H 0.78190 1.07734 0.60963
 H2067 H 0.74659 1.12217 0.64581
 H2068 H 0.72493 1.13741 0.60576
 H2069 H 0.76018 1.09256 0.56954
 H2070 H 0.76747 1.13794 0.58347
 C2071 C 0.73635 0.61353 1.11875
 C2072 C 0.75632 0.59914 1.12761
 C2073 C 0.77270 0.61415 1.11417
 C2074 C 0.75304 0.62867 1.10544
 C2075 C 0.73461 0.59788 1.09812
 C2076 C 0.75098 0.61288 1.08466
 C2077 C 0.75426 0.58334 1.10684
 C2078 C 0.77098 0.59849 1.09353
 C2079 C 0.79374 0.62341 1.12332
 C2080 C 0.81087 0.63120 1.13105
 C2081 C 0.71323 0.58901 1.08936
 C2082 C 0.69549 0.58193 1.08235
 H2083 H 0.72188 0.61962 1.12902
 H2084 H 0.75875 0.59359 1.14538
 H2085 H 0.75277 0.64742 1.10496
 H2086 H 0.74853 0.61843 1.06690
 H2087 H 0.75451 0.56459 1.10732
 H2088 H 0.78546 0.59242 1.08327
 C2089 C 1.24160 0.90249 0.87637
 C2090 C 1.26562 0.90982 0.88373
 C2091 C 1.27251 0.88483 0.88502
 C2092 C 1.24881 0.87738 0.87753
 C2093 C 1.23461 0.90132 0.90137
 C2094 C 1.24151 0.87634 0.90265
 C2095 C 1.25831 0.90879 0.90888
 C2096 C 1.26554 0.88365 0.91002
 C2097 C 1.29346 0.87547 0.87573
 C2098 C 1.31054 0.86761 0.86790
 C2099 C 1.21335 0.91031 0.91028
 C2100 C 1.19569 0.91750 0.91744
 H2101 H 1.23152 0.91034 0.86264
 H2102 H 1.27577 0.92348 0.87585
 H2103 H 1.24513 0.86436 0.86454
 H2104 H 1.23137 0.86267 0.91053
 H2105 H 1.26197 0.92181 0.92187
 H2106 H 1.27562 0.87580 0.92375
 C2107 C 1.25213 0.38733 0.41469
 C2108 C 1.25398 0.37071 0.39455
 C2109 C 1.27308 0.38525 0.38465
 C2110 C 1.27157 0.40173 0.40465
 C2111 C 1.23508 0.40140 0.40110
 C2112 C 1.25417 0.41596 0.39120
 C2113 C 1.23661 0.38492 0.38110
 C2114 C 1.25602 0.39932 0.37106
 C2115 C 1.29407 0.37605 0.37531
 C2116 C 1.31118 0.36828 0.36746
 C2117 C 1.21376 0.41022 0.41006
 C2118 C 1.19607 0.41730 0.41722
 H2119 H 1.25029 0.38250 0.43274
 H2120 H 1.25413 0.35200 0.39583
 H2121 H 1.28618 0.40854 0.41422
 H2122 H 1.25400 0.43466 0.38993
 H2123 H 1.22201 0.37810 0.37152
 H2124 H 1.25785 0.40416 0.35302
 C2125 C 0.75284 0.88979 0.41547
 C2126 C 0.75458 0.87132 0.39700
 C2127 C 0.77271 0.88546 0.38493
 C2128 C 0.77131 0.90380 0.40326
 C2129 C 0.73476 0.90184 0.40127
 C2130 C 0.75288 0.91599 0.38921
 C2131 C 0.73617 0.88350 0.38295
 C2132 C 0.75461 0.89751 0.37075
 C2133 C 0.79368 0.87616 0.37564
 C2134 C 0.81076 0.86833 0.36781
 C2135 C 0.71346 0.91077 0.41017
 C2136 C 0.69578 0.91792 0.41730
 H2137 H 0.75187 0.88672 0.43396
 H2138 H 0.75550 0.85285 0.40010
 H2139 H 0.78600 0.91204 0.41150
 H2140 H 0.75193 0.93446 0.38611
 H2141 H 0.72149 0.87526 0.37469
 H2142 H 0.75557 0.90058 0.35226
 C2143 C 0.75247 0.38863 0.91452
 C2144 C 0.75404 0.37024 0.89595
 C2145 C 0.77207 0.38443 0.88379
 C2146 C 0.77083 0.40269 0.90220
 C2147 C 0.73426 0.40074 0.90054
 C2148 C 0.75227 0.41494 0.88837
 C2149 C 0.73551 0.38248 0.88212
 C2150 C 0.75384 0.39654 0.86982
 C2151 C 0.79298 0.37516 0.87431
 C2152 C 0.81003 0.36733 0.86638
 C2153 C 0.71304 0.40965 0.90968
 C2154 C 0.69544 0.41682 0.91700
 H2155 H 0.75167 0.38548 0.93300
 H2156 H 0.75499 0.35176 0.89897
 H2157 H 0.78559 0.41090 0.91035
 H2158 H 0.75130 0.43343 0.88536
 H2159 H 0.72076 0.37427 0.87396
 H2160 H 0.75463 0.39969 0.85133
 C2161 C 0.76370 0.88679 1.12030
 C2162 C 0.74335 0.90109 1.12842
 C2163 C 0.72742 0.88525 1.11542
 C2164 C 0.74746 0.87081 1.10744
 C2165 C 0.76535 0.90168 1.09909
 C2166 C 0.74943 0.88584 1.08608
 C2167 C 0.74532 0.91613 1.10707
 C2168 C 0.72905 0.90014 1.09421
 C2169 C 0.70645 0.87592 1.12470
 C2170 C 0.68937 0.86807 1.13253
 C2171 C 0.78663 0.91064 1.09018
 C2172 C 0.80430 0.91780 1.08303
 H2173 H 0.77818 0.88139 1.13093
 H2174 H 0.74061 0.90726 1.14593
 H2175 H 0.74812 0.85207 1.10769
 H2176 H 0.75218 0.87967 1.06857
 H2177 H 0.74468 0.93487 1.10681
 H2178 H 0.71456 0.90552 1.08358
 C2179 C 0.74185 0.40563 0.58774
 C2180 C 0.73630 0.38022 0.59075
 C2181 C 0.72718 0.38531 0.61453
 C2182 C 0.73238 0.41057 0.61168
 C2183 C 0.76523 0.40145 0.59819
 C2184 C 0.75611 0.40653 0.62197
 C2185 C 0.76002 0.37619 0.60104
 C2186 C 0.75058 0.38114 0.62496
 C2187 C 0.70616 0.37612 0.62381
 C2188 C 0.68903 0.36836 0.63163
 C2189 C 0.78658 0.41025 0.58929
 C2190 C 0.80431 0.41730 0.58217
 H2191 H 0.73850 0.41581 0.57234
 H2192 H 0.72792 0.36930 0.57801
 H2193 H 0.72078 0.42461 0.61616
 H2194 H 0.76449 0.41745 0.63471
 H2195 H 0.77162 0.36214 0.59657
 H2196 H 0.75395 0.37096 0.64036
 C2197 C 0.26384 0.88655 0.62008
 C2198 C 0.24344 0.90076 0.62824
 C2199 C 0.22756 0.88488 0.61523
 C2200 C 0.24765 0.87053 0.60721
 C2201 C 0.26542 0.90148 0.59889
 C2202 C 0.24955 0.88559 0.58588
 C2203 C 0.24534 0.91584 0.60691
 C2204 C 0.22912 0.89981 0.59403
 C2205 C 0.20663 0.87546 0.62451
 C2206 C 0.18957 0.86755 0.63234
 C2207 C 0.28667 0.91053 0.58997
 C2208 C 0.30430 0.91776 0.58281
 H2209 H 0.27834 0.88119 0.63070
 H2210 H 0.24069 0.90690 0.64576
 H2211 H 0.24838 0.85179 0.60744
 H2212 H 0.25230 0.87946 0.56836
 H2213 H 0.24463 0.93458 0.60668
 H2214 H 0.21461 0.90515 0.58343
 C2215 C 0.25736 0.37642 1.09651
 C2216 C 0.25076 0.37634 1.12185
 C2217 C 0.22711 0.38490 1.11542
 C2218 C 0.23339 0.38484 1.09021
 C2219 C 0.26508 0.40108 1.09891
 C2220 C 0.24145 0.40966 1.09246
 C2221 C 0.25879 0.40113 1.12411
 C2222 C 0.23483 0.40956 1.11782
 C2223 C 0.20613 0.37569 1.12479
 C2224 C 0.18904 0.36792 1.13266
 C2225 C 0.28638 0.40991 1.08992
 C2226 C 0.30407 0.41700 1.08274
 H2227 H 0.26686 0.36289 1.08765
 H2228 H 0.25436 0.36254 1.13404
 H2229 H 0.22271 0.37804 1.07637
 H2230 H 0.23786 0.42346 1.08027
 H2231 H 0.26947 0.40793 1.13795
 H2232 H 0.22532 0.42309 1.12668
 C2233 C 0.75798 1.09649 0.87621
 C2234 C 0.73394 1.09017 0.88443
 C2235 C 0.72758 1.11533 0.88419
 C2236 C 0.75130 1.12178 0.87583
 C2237 C 0.76542 1.09914 0.90095
 C2238 C 0.75904 1.12429 0.90070
 C2239 C 0.74171 1.09267 0.90933
 C2240 C 0.73501 1.11798 0.90894
 C2241 C 0.70666 1.12454 0.87470
 C2242 C 0.68960 1.13233 0.86677
 C2243 C 0.78665 1.09028 0.91008
 C2244 C 0.80427 1.08315 0.91737
 H2245 H 0.76767 1.08755 0.86285
 H2246 H 0.72339 1.07624 0.87764
 H2247 H 0.75502 1.13384 0.86194
 H2248 H 0.76960 1.13823 0.90750
 H2249 H 0.73801 1.08061 0.92322
 H2250 H 0.72532 1.12692 0.92229
 C2251 C 0.74797 0.61124 0.41574
 C2252 C 0.74608 0.62868 0.39631
 C2253 C 0.72727 0.61433 0.38564
 C2254 C 0.72882 0.59702 0.40494
 C2255 C 0.76533 0.59798 0.40171
 C2256 C 0.74653 0.58362 0.39105
 C2257 C 0.76375 0.61529 0.38242
 C2258 C 0.74464 0.60107 0.37162
 C2259 C 0.70624 0.62362 0.37649
 C2260 C 0.68912 0.63144 0.36875
 C2261 C 0.78668 0.58909 0.41048
 C2262 C 0.80441 0.58199 0.41751
 H2263 H 0.74958 0.61532 0.43399
 H2264 H 0.74566 0.64732 0.39837
 H2265 H 0.71421 0.58962 0.41409
 H2266 H 0.74697 0.56499 0.38899
 H2267 H 0.77835 0.62270 0.37325
 H2268 H 0.74304 0.59699 0.35337
 C2269 C 0.25800 1.09644 0.37615
 C2270 C 0.23400 1.09007 0.38444
 C2271 C 0.22759 1.11522 0.38423
 C2272 C 0.25128 1.12171 0.37581
 C2273 C 0.26550 1.09908 0.40088
 C2274 C 0.25908 1.12422 0.40066
 C2275 C 0.24182 1.09257 0.40932
 C2276 C 0.23508 1.11787 0.40896
 C2277 C 0.20663 1.12441 0.37480
 C2278 C 0.18955 1.13218 0.36690
 C2279 C 0.28677 1.09026 0.40994
 C2280 C 0.30442 1.08316 0.41718
 H2281 H 0.26767 1.08752 0.36276
 H2282 H 0.22344 1.07613 0.37766
 H2283 H 0.25494 1.13379 0.36192
 H2284 H 0.26963 1.13817 0.40744
 H2285 H 0.23818 1.08049 0.42320
 H2286 H 0.22541 1.12678 0.42234
 C2287 C 0.25708 0.59522 0.87744
 C2288 C 0.23316 0.58882 0.88593
 C2289 C 0.22679 0.61398 0.88600
 C2290 C 0.25039 0.62050 0.87737
 C2291 C 0.26484 0.59765 0.90210
 C2292 C 0.25846 0.62280 0.90216
 C2293 C 0.24125 0.59111 0.91074
 C2294 C 0.23454 0.61642 0.91066
 C2295 C 0.20577 0.62326 0.87682
 C2296 C 0.18866 0.63108 0.86905
 C2297 C 0.28619 0.58877 0.91087
 C2298 C 0.30393 0.58169 0.91790
 H2299 H 0.26659 0.58640 0.86388
 H2300 H 0.22251 0.57495 0.87915
 H2301 H 0.25392 0.63269 0.86355
 H2302 H 0.26910 0.63668 0.90893
 H2303 H 0.23774 0.57892 0.92457
 H2304 H 0.22503 0.62524 0.92421
 C2305 C 1.09598 1.25807 1.08742
 C2306 C 1.08989 1.26830 1.11076
 C2307 C 1.11510 1.27277 1.11503
 C2308 C 1.12133 1.26288 1.09184
 C2309 C 1.09874 1.23484 1.09868
 C2310 C 1.12394 1.23933 1.10295
 C2311 C 1.09251 1.24474 1.12187
 C2312 C 1.11785 1.24954 1.12627
 C2313 C 1.12441 1.29373 1.12432
 C2314 C 1.13225 1.31080 1.13215
 C2315 C 1.08982 1.21356 1.08977
 C2316 C 1.08268 1.19588 1.08264
 H2317 H 1.08688 1.26133 1.07134
 H2318 H 1.07600 1.28045 1.11408
 H2319 H 1.13329 1.27057 1.07959
 H2320 H 1.13784 1.22718 1.09964
 H2321 H 1.08056 1.23704 1.13412
 H2322 H 1.12694 1.24626 1.14235
 C2323 C 1.09582 0.74251 0.62293
 C2324 C 1.12125 0.74859 0.62405
 C2325 C 1.11572 0.77219 0.61477
 C2326 C 1.09042 0.76644 0.61380
 C2327 C 1.09918 0.73429 0.59853
 C2328 C 1.09364 0.75789 0.58924
 C2329 C 1.12447 0.74005 0.59951
 C2330 C 1.11908 0.76398 0.59037
 C2331 C 1.12509 0.79315 0.62402
 C2332 C 1.13295 0.81023 0.63182
 C2333 C 1.09017 0.71303 0.58965
 C2334 C 1.08296 0.69538 0.58253
 H2335 H 1.08616 0.73345 0.63622
 H2336 H 1.13270 0.74499 0.63846
 H2337 H 1.07653 0.77753 0.61977
 H2338 H 1.08218 0.76146 0.57482
 H2339 H 1.13837 0.72896 0.59354
 H2340 H 1.12875 0.77304 0.57708
 C2341 C 0.61212 1.23717 0.62001
 C2342 C 0.62931 1.25255 0.60764
 C2343 C 0.61498 1.27321 0.61408
 C2344 C 0.59793 1.25814 0.62658
 C2345 C 0.59851 1.23522 0.59799
 C2346 C 0.58417 1.25587 0.60442
 C2347 C 0.61557 1.25028 0.58548
 C2348 C 0.60137 1.27128 0.59206
 C2349 C 0.62434 1.29419 0.62326
 C2350 C 0.63220 1.31128 0.63103
 C2351 C 0.58955 1.21390 0.58922
 C2352 C 0.58240 1.19620 0.58218
 H2353 H 0.61644 1.22291 0.63141
 H2354 H 0.64798 1.25141 0.60907
 H2355 H 0.59078 1.26161 0.64359
 H2356 H 0.56550 1.25699 0.60300
 H2357 H 0.62271 1.24681 0.56848
 H2358 H 0.59706 1.28555 0.58067
 C2359 C 0.60492 0.73792 1.12380
 C2360 C 0.62700 0.74950 1.11586
 C2361 C 0.61455 0.77226 1.11541
 C2362 C 0.59260 0.76100 1.12349
 C2363 C 0.59824 0.73435 1.09897
 C2364 C 0.58577 0.75710 1.09850
 C2365 C 0.62019 0.74561 1.09088
 C2366 C 0.60787 0.76870 1.09056
 C2367 C 0.62382 0.79323 1.12474
 C2368 C 0.63163 0.81031 1.13258
 C2369 C 0.58934 0.71307 1.09000
 C2370 C 0.58221 0.69541 1.08282
 H2371 H 0.60361 0.72503 1.13737
 H2372 H 0.64406 0.74660 1.12309
 H2373 H 0.58135 0.76756 1.13700
 H2374 H 0.56871 0.75998 1.09126
 H2375 H 0.63143 0.73904 1.07737
 H2376 H 0.60919 0.78160 1.07700
 C2377 C 0.87849 1.24546 0.90863
 C2378 C 0.89042 1.26875 0.90930
 C2379 C 0.88417 1.27234 0.88435
 C2380 C 0.87210 1.24938 0.88355
 C2381 C 0.90077 1.23460 0.90093
 C2382 C 0.89452 1.23821 0.87598
 C2383 C 0.91286 1.25755 0.90174
 C2384 C 0.90646 1.26148 0.87664
 C2385 C 0.87475 1.29321 0.87494
 C2386 C 0.86684 1.31022 0.86703
 C2387 C 0.90983 1.21342 0.90998
 C2388 C 0.91709 1.19584 0.91723
 H2389 H 0.86709 1.23864 0.92189
 H2390 H 0.88863 1.28155 0.92290
 H2391 H 0.85524 1.24624 0.87596
 H2392 H 0.89631 1.22542 0.86238
 H2393 H 0.92972 1.26067 0.90933
 H2394 H 0.91785 1.26830 0.86339
 C2395 C 0.91324 0.74856 0.38256
 C2396 C 0.89006 0.75114 0.37070
 C2397 C 0.88554 0.77245 0.38481
 C2398 C 0.90859 0.77020 0.39654
 C2399 C 0.90182 0.73447 0.40115
 C2400 C 0.89731 0.75577 0.41528
 C2401 C 0.87878 0.73674 0.38943
 C2402 C 0.87412 0.75836 0.40341
 C2403 C 0.87628 0.79344 0.37553
 C2404 C 0.86848 0.81054 0.36772
 C2405 C 0.91071 0.71316 0.41006
 C2406 C 0.91782 0.69548 0.41720
 H2407 H 0.92943 0.74428 0.37409
 H2408 H 0.88698 0.74946 0.35227
 H2409 H 0.92074 0.78420 0.39936
 H2410 H 0.90040 0.75743 0.43372
 H2411 H 0.86662 0.72274 0.38660
 H2412 H 0.85794 0.76262 0.41188
 C2413 C 0.37941 1.24615 0.40926
 C2414 C 0.39146 1.26937 0.41009
 C2415 C 0.38520 1.27317 0.38517
 C2416 C 0.37302 1.25027 0.38421
 C2417 C 0.40163 1.23524 0.40146
 C2418 C 0.39537 1.23905 0.37654
 C2419 C 0.41383 1.25812 0.40243
 C2420 C 0.40742 1.26226 0.37736
 C2421 C 0.37586 1.29412 0.37590
 C2422 C 0.36800 1.31119 0.36807
 C2423 C 0.41058 1.21395 0.41033
 C2424 C 0.41773 1.19627 0.41744
 H2425 H 0.36800 1.23928 0.42248
 H2426 H 0.38974 1.28208 0.42378
 H2427 H 0.35613 1.24727 0.37663
 H2428 H 0.39708 1.22634 0.36285
 H2429 H 0.43072 1.26110 0.41002
 H2430 H 0.41884 1.26912 0.36414
 C2431 C 0.37863 0.74519 0.90943
 C2432 C 0.39067 0.76842 0.91027
 C2433 C 0.38438 0.77224 0.88536
 C2434 C 0.37220 0.74934 0.88439
 C2435 C 0.40085 0.73429 0.90157
 C2436 C 0.39455 0.73814 0.87667
 C2437 C 0.41304 0.75718 0.90256
 C2438 C 0.40659 0.76135 0.87751
 C2439 C 0.37503 0.79322 0.87614
 C2440 C 0.36719 0.81032 0.86836
 C2441 C 0.40983 0.71300 0.91042
 C2442 C 0.41701 0.69533 0.91753
 H2443 H 0.36724 0.73830 0.92265
 H2444 H 0.38897 0.78110 0.92398
 H2445 H 0.35531 0.74635 0.87682
 H2446 H 0.39625 0.72545 0.86296
 H2447 H 0.42994 0.76016 0.91013
 H2448 H 0.41799 0.76823 0.86428
 C2449 C 1.11094 0.74770 0.91610
 C2450 C 1.09664 0.72870 0.90514
 C2451 C 1.11404 0.72710 0.88593
 C2452 C 1.12848 0.74576 0.89675
 C2453 C 1.09788 0.76521 0.90208
 C2454 C 1.11528 0.76358 0.88287
 C2455 C 1.08344 0.74656 0.89126
 C2456 C 1.10098 0.74462 0.87191
 C2457 C 1.12324 0.70605 0.87673
 C2458 C 1.13100 0.68891 0.86897
 C2459 C 1.08909 0.78659 0.91088
 C2460 C 1.08206 0.80434 0.91794
 H2461 H 1.11494 0.74921 0.93438
 H2462 H 1.08908 0.71411 0.91419
 H2463 H 1.14710 0.74519 0.89890
 H2464 H 1.12285 0.77816 0.87381
 H2465 H 1.06481 0.74714 0.88911
 H2466 H 1.09698 0.74312 0.85364
 C2467 C 1.11226 0.24763 0.41494
 C2468 C 1.09811 0.22861 0.40384
 C2469 C 1.11553 0.22726 0.38463
 C2470 C 1.12982 0.24595 0.39558
 C2471 C 1.09908 0.26514 0.40103
 C2472 C 1.11651 0.26377 0.38182
 C2473 C 1.08478 0.24646 0.39007
 C2474 C 1.10235 0.24478 0.37072
 C2475 C 1.12488 0.20633 0.37531
 C2476 C 1.13275 0.18927 0.36746
 C2477 C 1.09012 0.28639 0.40997
 C2478 C 1.08294 0.30404 0.41713
 H2479 H 1.11623 0.24905 0.43323
 H2480 H 1.09065 0.21390 0.41279
 H2481 H 1.14845 0.24551 0.39775
 H2482 H 1.12398 0.27847 0.37286
 H2483 H 1.06616 0.24691 0.38791
 H2484 H 1.09838 0.24337 0.35244
 C2485 C 0.59588 0.75785 0.37716
 C2486 C 0.62114 0.75103 0.37721
 C2487 C 0.61444 0.72744 0.38572
 C2488 C 0.58931 0.73393 0.38554
 C2489 C 0.59821 0.76552 0.40186
 C2490 C 0.59150 0.74194 0.41039
 C2491 C 0.62334 0.75901 0.40204
 C2492 C 0.61678 0.73510 0.41042
 C2493 C 0.62367 0.70639 0.37653
 C2494 C 0.63144 0.68926 0.36877
 C2495 C 0.58937 0.78689 0.41065
 C2496 C 0.58230 0.80462 0.41769
 H2497 H 0.58719 0.76744 0.36358
 H2498 H 0.63343 0.75453 0.36346
 H2499 H 0.57543 0.72338 0.37865
 H2500 H 0.57921 0.73846 0.42414
 H2501 H 0.63723 0.76956 0.40892
 H2502 H 0.62547 0.72551 0.42400
 C2503 C 0.61214 0.24764 0.91495
 C2504 C 0.59804 0.22860 0.90381
 C2505 C 0.61548 0.22734 0.88460
 C2506 C 0.62971 0.24605 0.89560
 C2507 C 0.59892 0.26514 0.90108
 C2508 C 0.61635 0.26386 0.88186
 C2509 C 0.58467 0.24645 0.89008
 C2510 C 0.60225 0.24485 0.87073
 C2511 C 0.62487 0.20645 0.87524
 C2512 C 0.63278 0.18942 0.86736
 C2513 C 0.58989 0.28636 0.91007
 C2514 C 0.58266 0.30397 0.91727
 H2515 H 0.61611 0.24903 0.93324
 H2516 H 0.59062 0.21386 0.91273
 H2517 H 0.64834 0.24565 0.89776
 H2518 H 0.62378 0.27860 0.87294
 H2519 H 0.56605 0.24686 0.88791
 H2520 H 0.59829 0.24348 0.85244
 C2521 C 0.87904 0.75510 1.09135
 C2522 C 0.89051 0.73168 1.08907
 C2523 C 0.88562 0.72719 1.11418
 C2524 C 0.87401 0.75028 1.11659
 C2525 C 0.90190 0.76531 1.09817
 C2526 C 0.89701 0.76080 1.12328
 C2527 C 0.91353 0.74223 1.09575
 C2528 C 0.90849 0.73740 1.12100
 C2529 C 0.87637 0.70613 1.12331
 C2530 C 0.86859 0.68899 1.13104
 C2531 C 0.91077 0.78670 1.08944
 C2532 C 0.91784 0.80445 1.08245
 H2533 H 0.86703 0.76262 1.07906
 H2534 H 0.88773 0.71947 1.07511
 H2535 H 0.85766 0.75336 1.12527
 H2536 H 0.89978 0.77301 1.13725
 H2537 H 0.92988 0.73918 1.08707
 H2538 H 0.92050 0.72988 1.13330
 C2539 C 0.90468 0.25701 0.62332
 C2540 C 0.87923 0.25113 0.62486
 C2541 C 0.88444 0.22748 0.61553
 C2542 C 0.90976 0.23303 0.61413
 C2543 C 0.90101 0.26524 0.59896
 C2544 C 0.90623 0.24160 0.58961
 C2545 C 0.87570 0.25967 0.60036
 C2546 C 0.88077 0.23570 0.59117
 C2547 C 0.87503 0.20660 0.62493
 C2548 C 0.86712 0.18959 0.63284
 C2549 C 0.91005 0.28643 0.58992
 C2550 C 0.91728 0.30403 0.58268
 H2551 H 0.91462 0.26601 0.63643
 H2552 H 0.86803 0.25483 0.63945
 H2553 H 0.92366 0.22184 0.61989
 H2554 H 0.91744 0.23792 0.57502
 H2555 H 0.86179 0.27086 0.59460
 H2556 H 0.87083 0.22670 0.57805
 C2557 C 0.40465 0.74247 0.58784
 C2558 C 0.40980 0.73268 0.61159
 C2559 C 0.38449 0.72788 0.61479
 C2560 C 0.37919 0.73733 0.59118
 C2561 C 0.40103 0.76581 0.59859
 C2562 C 0.37573 0.76100 0.60179
 C2563 C 0.40632 0.75636 0.62219
 C2564 C 0.38088 0.75124 0.62552
 C2565 C 0.37510 0.70691 0.62400
 C2566 C 0.36723 0.68982 0.63178
 C2567 C 0.41005 0.78710 0.58974
 C2568 C 0.41726 0.80476 0.58263
 H2569 H 0.41453 0.73911 0.57224
 H2570 H 0.42370 0.72080 0.61573
 H2571 H 0.36793 0.72927 0.57854
 H2572 H 0.36181 0.77288 0.59766
 H2573 H 0.41758 0.76442 0.63484
 H2574 H 0.37100 0.75462 0.64112
 C2575 C 0.38666 0.24812 1.08525
 C2576 C 0.40095 0.22837 1.09482
 C2577 C 0.38479 0.22690 1.11510
 C2578 C 0.37036 0.24631 1.10567
 C2579 C 0.40123 0.26481 1.09877
 C2580 C 0.38507 0.26331 1.11904
 C2581 C 0.41567 0.24541 1.10819
 C2582 C 0.39936 0.24359 1.12861
 C2583 C 0.37544 0.20595 1.12439
 C2584 C 0.36758 0.18888 1.13224
 C2585 C 0.41019 0.28609 1.08986
 C2586 C 0.41736 0.30375 1.08273
 H2587 H 0.38154 0.25023 1.06732
 H2588 H 0.40737 0.21376 1.08496
 H2589 H 0.35163 0.24645 1.10474
 H2590 H 0.37864 0.27791 1.12891
 H2591 H 0.43440 0.24528 1.10912
 H2592 H 0.40448 0.24150 1.14654
 C2593 C 1.12262 1.10595 0.76148
 C2594 C 1.12281 1.09334 0.73854
 C2595 C 1.11407 1.11487 0.72696
 C2596 C 1.11402 1.12761 0.74959
 C2597 C 1.09801 1.09850 0.76506
 C2598 C 1.08928 1.12002 0.75348
 C2599 C 1.09806 1.08574 0.74244
 C2600 C 1.08946 1.10742 0.73052
 C2601 C 1.12323 1.12417 0.70592
 C2602 C 1.13098 1.13200 0.68879
 C2603 C 1.08925 1.08959 0.78643
 C2604 C 1.08223 1.08249 0.80418
 H2605 H 1.13615 1.10524 0.77445
 H2606 H 1.13670 1.08247 0.73216
 H2607 H 1.12068 1.14492 0.75230
 H2608 H 1.07539 1.13089 0.75986
 H2609 H 1.09139 1.06842 0.73975
 H2610 H 1.07594 1.10813 0.71755
 C2611 C 1.08543 0.61348 0.24840
 C2612 C 1.10548 0.63023 0.24673
 C2613 C 1.11536 0.61605 0.22735
 C2614 C 1.09546 0.59944 0.22869
 C2615 C 1.09915 0.59920 0.26518
 C2616 C 1.10903 0.58500 0.24582
 C2617 C 1.11905 0.61581 0.26383
 C2618 C 1.12907 0.60176 0.24415
 C2619 C 1.12459 0.62558 0.20644
 C2620 C 1.13239 0.63355 0.18939
 C2621 C 1.09029 0.59002 0.28641
 C2622 C 1.08315 0.58270 0.30403
 H2623 H 1.06739 0.61819 0.25039
 H2624 H 1.10411 0.64893 0.24688
 H2625 H 1.08586 0.59282 0.21400
 H2626 H 1.11039 0.56630 0.24568
 H2627 H 1.12866 0.62244 0.27851
 H2628 H 1.14711 0.59705 0.24217
 C2629 C 0.58442 1.11129 0.24686
 C2630 C 0.60285 1.12980 0.24514
 C2631 C 0.61491 1.11572 0.22696
 C2632 C 0.59662 1.09735 0.22833
 C2633 C 0.59864 1.09922 0.26492
 C2634 C 0.61070 1.08513 0.24674
 C2635 C 0.61693 1.11759 0.26352
 C2636 C 0.62912 1.10365 0.24503
 C2637 C 0.62416 1.12508 0.20598
 C2638 C 0.63198 1.13295 0.18889
 C2639 C 0.58977 1.09023 0.28621
 C2640 C 0.58265 1.08305 0.30390
 H2641 H 0.56594 1.11433 0.24786
 H2642 H 0.59972 1.14826 0.24426
 H2643 H 0.58838 1.08913 0.21363
 H2644 H 0.61382 1.06666 0.24764
 H2645 H 0.62518 1.12581 0.27822
 H2646 H 0.64760 1.10061 0.24404
 C2647 C 0.62130 0.60964 0.76292
 C2648 C 0.62572 0.59574 0.74118
 C2649 C 0.61443 0.61450 0.72724
 C2650 C 0.61014 0.62853 0.74866
 C2651 C 0.59815 0.59813 0.76524
 C2652 C 0.58685 0.61689 0.75129
 C2653 C 0.60242 0.58408 0.74383
 C2654 C 0.59127 0.60299 0.72954
 C2655 C 0.62369 0.62380 0.70624
 C2656 C 0.63151 0.63164 0.68914
 C2657 C 0.58928 0.58921 0.78656
 C2658 C 0.58217 0.58209 0.80427
 H2659 H 0.63354 0.61228 0.77688
 H2660 H 0.64180 0.58715 0.73679
 H2661 H 0.61342 0.64691 0.75042
 H2662 H 0.57077 0.62548 0.75570
 H2663 H 0.59915 0.56570 0.74209
 H2664 H 0.57903 0.60036 0.71557
 C2665 C 0.88299 0.91322 0.75125
 C2666 C 0.89698 0.90899 0.72950
 C2667 C 0.88569 0.88574 0.72715
 C2668 C 0.87157 0.88984 0.74856
 C2669 C 0.90183 0.90207 0.76519
 C2670 C 0.89054 0.87883 0.76282
 C2671 C 0.91596 0.89798 0.74379
 C2672 C 0.90453 0.87459 0.74110
 C2673 C 0.87649 0.87645 0.70613
 C2674 C 0.86872 0.86863 0.68901
 C2675 C 0.91063 0.91097 0.78654
 C2676 C 0.91769 0.91808 0.80427
 H2677 H 0.87424 0.92921 0.75567
 H2678 H 0.89952 0.92128 0.71555
 H2679 H 0.85322 0.88639 0.75030
 H2680 H 0.88799 0.86653 0.77676
 H2681 H 0.93432 0.90143 0.74208
 H2682 H 0.91328 0.85860 0.73669
 C2683 C 0.89457 0.41603 0.24456
 C2684 C 0.90706 0.39948 0.22856
 C2685 C 0.88539 0.38531 0.22680
 C2686 C 0.87275 0.40172 0.24247
 C2687 C 0.90180 0.40147 0.26481
 C2688 C 0.88013 0.38731 0.26303
 C2689 C 0.91444 0.38507 0.24915
 C2690 C 0.89262 0.37077 0.24706
 C2691 C 0.87606 0.37611 0.20581
 C2692 C 0.86821 0.36832 0.18870
 C2693 C 0.91074 0.41028 0.28614
 C2694 C 0.91788 0.41735 0.30385
 H2695 H 0.89548 0.43474 0.24378
 H2696 H 0.91803 0.40438 0.21414
 H2697 H 0.85551 0.40846 0.23948
 H2698 H 0.86915 0.38240 0.27744
 H2699 H 0.93168 0.37832 0.25214
 H2700 H 0.89172 0.35205 0.24786
 C2701 C 0.40985 0.87950 0.25417
 C2702 C 0.38493 0.87259 0.25018
 C2703 C 0.38552 0.88483 0.22728
 C2704 C 0.41031 0.89160 0.23094
 C2705 C 0.40165 0.90153 0.26518
 C2706 C 0.40225 0.91379 0.24229
 C2707 C 0.37687 0.89475 0.26150
 C2708 C 0.37732 0.90686 0.23829
 C2709 C 0.37633 0.87536 0.20634
 C2710 C 0.36854 0.86743 0.18928
 C2711 C 0.41046 0.91062 0.28645
 C2712 C 0.41754 0.91786 0.30411
 H2713 H 0.42333 0.86835 0.26094
 H2714 H 0.37772 0.85555 0.25320
 H2715 H 0.42395 0.89020 0.21814
 H2716 H 0.40947 0.93083 0.23929
 H2717 H 0.36322 0.89615 0.27430
 H2718 H 0.36384 0.91800 0.23152
 C2719 C 0.37624 0.40223 0.75814
 C2720 C 0.38402 0.40912 0.73409
 C2721 C 0.38480 0.38403 0.72748
 C2722 C 0.37689 0.37701 0.75121
 C2723 C 0.40111 0.40056 0.76538
 C2724 C 0.40189 0.37548 0.75876
 C2725 C 0.40904 0.40760 0.74166
 C2726 C 0.40967 0.38236 0.73471
 C2727 C 0.37553 0.37466 0.70652
 C2728 C 0.36772 0.36679 0.68944
 C2729 C 0.41002 0.40958 0.78665
 C2730 C 0.41717 0.41679 0.80430
 H2731 H 0.36260 0.41050 0.76800
 H2732 H 0.37656 0.42284 0.72371
 H2733 H 0.36358 0.36433 0.75491
 H2734 H 0.40934 0.36175 0.76914
 H2735 H 0.42235 0.42028 0.73798
 H2736 H 0.42332 0.37409 0.72485
 C2737 C 1.10815 0.87759 1.23786
 C2738 C 1.12851 0.88745 1.25099
 C2739 C 1.11500 0.88520 1.27306
 C2740 C 1.09477 0.87520 1.26025
 C2741 C 1.09868 0.90160 1.23510
 C2742 C 1.08516 0.89936 1.25717
 C2743 C 1.11892 0.91160 1.24791
 C2744 C 1.10554 0.90921 1.27032
 C2745 C 1.12429 0.87589 1.29404
 C2746 C 1.13212 0.86805 1.31112
 C2747 C 1.08978 0.91053 1.21380
 C2748 C 1.08266 0.91769 1.19612
 H2749 H 1.10912 0.86468 1.22429
 H2750 H 1.14644 0.88245 1.24867
 H2751 H 1.08494 0.86013 1.26556
 H2752 H 1.06722 0.90435 1.25946
 H2753 H 1.12874 0.92666 1.24260
 H2754 H 1.10458 0.92211 1.28391
 C2755 C 1.08822 0.40632 0.75833
 C2756 C 1.09007 0.38087 0.76422
 C2757 C 1.11419 0.38493 0.77290
 C2758 C 1.11249 0.41023 0.76735
 C2759 C 1.09810 0.40130 0.73483
 C2760 C 1.12222 0.40536 0.74353
 C2761 C 1.09980 0.37601 0.74039
 C2762 C 1.12405 0.37993 0.74940
 C2763 C 1.12335 0.37563 0.79393
 C2764 C 1.13110 0.36781 0.81106
 C2765 C 1.08934 0.41021 0.71347
 C2766 C 1.08231 0.41733 0.69573
 H2767 H 1.07339 0.41728 0.76175
 H2768 H 1.07696 0.37070 0.77296
 H2769 H 1.11781 0.42420 0.77868
 H2770 H 1.13534 0.41553 0.73478
 H2771 H 1.09449 0.36204 0.72907
 H2772 H 1.13888 0.36898 0.74595
 C2773 C 0.61863 0.88639 0.73659
 C2774 C 0.62769 0.90075 0.75650
 C2775 C 0.61427 0.88584 0.77299
 C2776 C 0.60535 0.87135 0.75339
 C2777 C 0.59809 0.90217 0.73495
 C2778 C 0.58466 0.88726 0.75143
 C2779 C 0.60701 0.91668 0.75454
 C2780 C 0.59373 0.90162 0.77137
 C2781 C 0.62348 0.87656 0.79401
 C2782 C 0.63125 0.86872 0.81112
 C2783 C 0.58927 0.91106 0.71360
 C2784 C 0.58221 0.91816 0.69587
 H2785 H 0.62878 0.88023 0.72206
 H2786 H 0.64549 0.90620 0.75882
 H2787 H 0.60477 0.85261 0.75315
 H2788 H 0.56687 0.88181 0.74910
 H2789 H 0.60759 0.93542 0.75476
 H2790 H 0.58359 0.90777 0.78592
 C2791 C 0.58903 0.40548 1.25840
 C2792 C 0.59100 0.38002 1.26415
 C2793 C 0.61518 0.38411 1.27265
 C2794 C 0.61336 0.40943 1.26724
 C2795 C 0.59871 0.40061 1.23480
 C2796 C 0.62289 0.40469 1.24330
 C2797 C 0.60054 0.37529 1.24022
 C2798 C 0.62485 0.37924 1.24904
 C2799 C 0.62454 0.37474 1.29358
 C2800 C 0.63242 0.36687 1.31063
 C2801 C 0.58973 0.40961 1.21356
 C2802 C 0.58253 0.41681 1.19592
 H2803 H 0.57419 0.41638 1.26201
 H2804 H 0.57799 0.36976 1.27296
 H2805 H 0.61874 0.42336 1.27858
 H2806 H 0.63591 0.41494 1.23449
 H2807 H 0.59517 0.36135 1.22888
 H2808 H 0.63968 0.36835 1.24541
 C2809 C 0.88376 1.08732 1.24985
 C2810 C 0.89792 1.09309 1.27111
 C2811 C 0.88528 1.11567 1.27303
 C2812 C 0.87099 1.11005 1.25210
 C2813 C 0.90158 1.09914 1.23511
 C2814 C 0.88894 1.12172 1.23705
 C2815 C 0.91589 1.10476 1.25603
 C2816 C 0.90310 1.12749 1.25829
 C2817 C 0.87601 1.12506 1.29399
 C2818 C 0.86819 1.13294 1.31107
 C2819 C 0.91047 1.09013 1.21383
 C2820 C 0.91760 1.08292 1.19617
 H2821 H 0.87591 1.07070 1.24613
 H2822 H 0.90151 1.08142 1.28536
 H2823 H 0.85243 1.11232 1.25071
 H2824 H 0.88534 1.13340 1.22282
 H2825 H 0.93446 1.10248 1.25740
 H2826 H 0.91095 1.14411 1.26200
 C2827 C 0.87649 0.60203 0.73937
 C2828 C 0.87955 0.59119 0.76300
 C2829 C 0.88546 0.61455 0.77263
 C2830 C 0.88227 0.62552 0.74930
 C2831 C 0.90172 0.59816 0.73464
 C2832 C 0.90763 0.62152 0.74426
 C2833 C 0.90493 0.58717 0.75795
 C2834 C 0.91070 0.61069 0.76791
 C2835 C 0.87621 0.62387 0.79362
 C2836 C 0.86840 0.63170 0.81072
 C2837 C 0.91059 0.58923 0.71332
 C2838 C 0.91769 0.58209 0.69561
 H2839 H 0.86253 0.59837 0.72739
 H2840 H 0.86789 0.57882 0.77095
 H2841 H 0.87286 0.64140 0.74598
 H2842 H 0.91928 0.63389 0.73631
 H2843 H 0.91434 0.57129 0.76125
 H2844 H 0.92465 0.61435 0.77989
 C2845 C 0.37910 1.11271 0.73665
 C2846 C 0.37271 1.09857 0.75773
 C2847 C 0.38498 1.11586 0.77270
 C2848 C 0.39123 1.13014 0.75193
 C2849 C 0.40128 1.09936 0.73477
 C2850 C 0.41356 1.11665 0.74973
 C2851 C 0.39503 1.08507 0.75553
 C2852 C 0.40716 1.10251 0.77084
 C2853 C 0.37570 1.12522 0.79367
 C2854 C 0.36787 1.13307 0.81076
 C2855 C 0.41018 1.09036 0.71349
 C2856 C 0.41732 1.08316 0.69582
 H2857 H 0.36766 1.11681 0.72236
 H2858 H 0.35581 1.09123 0.76125
 H2859 H 0.38958 1.14877 0.75067
 H2860 H 0.43045 1.12399 0.74620
 H2861 H 0.39669 1.06643 0.75677
 H2862 H 0.41859 1.09842 0.78514
 C2863 C 0.38348 0.58662 1.24983
 C2864 C 0.39774 0.59237 1.27103
 C2865 C 0.38516 0.61499 1.27297
 C2866 C 0.37077 0.60938 1.25211
 C2867 C 0.40127 0.59837 1.23501
 C2868 C 0.38869 0.62099 1.23697
 C2869 C 0.41567 0.60398 1.25586
 C2870 C 0.40295 0.62675 1.25815
 C2871 C 0.37599 0.62442 1.29395
 C2872 C 0.36822 0.63232 1.31104
 C2873 C 0.41006 0.58933 1.21371
 C2874 C 0.41713 0.58213 1.19602
 H2875 H 0.37557 0.57001 1.24616
 H2876 H 0.40135 0.58071 1.28527
 H2877 H 0.35221 0.61170 1.25079
 H2878 H 0.38506 0.63266 1.22274
 H2879 H 0.43424 0.60166 1.25716
 H2880 H 0.41086 0.64335 1.26180
 C2881 C 1.11718 1.24887 0.91290
 C2882 C 1.12861 1.25157 0.88949
 C2883 C 1.11454 1.27300 0.88542
 C2884 C 1.10325 1.27063 0.90869
 C2885 C 1.09831 1.23498 0.90173
 C2886 C 1.08423 1.25640 0.89767
 C2887 C 1.10961 1.23737 0.87847
 C2888 C 1.09567 1.25911 0.87426
 C2889 C 1.12378 1.29400 0.87614
 C2890 C 1.13158 1.31110 0.86832
 C2891 C 1.08947 1.21365 0.91062
 C2892 C 1.08239 1.19594 0.91773
 H2893 H 1.12593 1.24441 0.92889
 H2894 H 1.14696 1.24981 0.88603
 H2895 H 1.10074 1.28455 0.92101
 H2896 H 1.06588 1.25814 0.90114
 H2897 H 1.11213 1.22347 0.86614
 H2898 H 1.08693 1.26356 0.85826
 C2899 C 1.12386 0.73948 0.39767
 C2900 C 1.11827 0.74930 0.37406
 C2901 C 1.11478 0.77261 0.38492
 C2902 C 1.12052 0.76311 0.40840
 C2903 C 1.09863 0.73459 0.40130
 C2904 C 1.09513 0.75789 0.41218
 C2905 C 1.09290 0.74409 0.37782
 C2906 C 1.08954 0.76773 0.38855
 C2907 C 1.12397 0.79362 0.37562
 C2908 C 1.13173 0.81074 0.36779
 C2909 C 1.08982 0.71326 0.41022
 C2910 C 1.08275 0.69555 0.41736
 H2911 H 1.13788 0.72763 0.40152
 H2912 H 1.12788 0.74599 0.35829
 H2913 H 1.13197 0.77117 0.42088
 H2914 H 1.08552 0.76117 0.42796
 H2915 H 1.08145 0.73603 0.36535
 H2916 H 1.07554 0.77959 0.38469
 C2917 C 0.62043 1.23651 0.38619
 C2918 C 0.60775 1.25250 0.36981
 C2919 C 0.61536 1.27273 0.38418
 C2920 C 0.62817 1.25705 0.40042
 C2921 C 0.59899 1.23488 0.40076
 C2922 C 0.60659 1.25511 0.41514
 C2923 C 0.58617 1.25056 0.38452
 C2924 C 0.59392 1.27113 0.39875
 C2925 C 0.62466 1.29366 0.37477
 C2926 C 0.63249 1.31071 0.36687
 C2927 C 0.59006 1.21365 0.40979
 C2928 C 0.58288 1.19601 0.41702
 H2929 H 0.63123 1.22204 0.38113
 H2930 H 0.60833 1.25165 0.35107
 H2931 H 0.64554 1.25995 0.40686
 H2932 H 0.60601 1.25594 0.43388
 H2933 H 0.56880 1.24765 0.37808
 H2934 H 0.58312 1.28561 0.40380
 C2935 C 0.62290 0.74143 0.90271
 C2936 C 0.62135 0.74909 0.87773
 C2937 C 0.61415 0.77270 0.88574
 C2938 C 0.61585 0.76536 0.91059
 C2939 C 0.59786 0.73464 0.90188
 C2940 C 0.59065 0.75825 0.90991
 C2941 C 0.59618 0.74199 0.87703
 C2942 C 0.58911 0.76593 0.88490
 C2943 C 0.62342 0.79373 0.87655
 C2944 C 0.63123 0.81086 0.86880
 C2945 C 0.58899 0.71329 0.91069
 C2946 C 0.58190 0.69556 0.91775
 H2947 H 0.63670 0.73111 0.91013
 H2948 H 0.63407 0.74555 0.86439
 H2949 H 0.62404 0.77521 0.92429
 H2950 H 0.57793 0.76176 0.92325
 H2951 H 0.58799 0.73214 0.86333
 H2952 H 0.57532 0.77624 0.87748
 C2953 C 0.91494 1.25750 1.09900
 C2954 C 0.89345 1.26968 1.09031
 C2955 C 0.88577 1.27302 1.11489
 C2956 C 0.90711 1.26118 1.12373
 C2957 C 0.90199 1.23501 1.09859
 C2958 C 0.89431 1.23837 1.12317
 C2959 C 0.88066 1.24685 1.08975
 C2960 C 0.87284 1.25053 1.11447
 C2961 C 0.87654 1.29402 1.12417
 C2962 C 0.86874 1.31112 1.13199
 C2963 C 0.91082 1.21368 1.08971
 C2964 C 0.91789 1.19597 1.08260
 H2965 H 0.93236 1.26011 1.09254
 H2966 H 0.89300 1.28280 1.07690
 H2967 H 0.91788 1.26731 1.13781
 H2968 H 0.89475 1.22526 1.13658
 H2969 H 0.86988 1.24072 1.07568
 H2970 H 0.85543 1.24789 1.12093
 C2971 C 0.88338 0.74874 0.58664
 C2972 C 0.87158 0.75140 0.60986
 C2973 C 0.88572 0.77271 0.61427
 C2974 C 0.89739 0.77038 0.59118
 C2975 C 0.90196 0.73467 0.59805
 C2976 C 0.91612 0.75596 0.60246
 C2977 C 0.89029 0.73702 0.62114
 C2978 C 0.90430 0.75864 0.62569
 C2979 C 0.87648 0.79373 0.62350
 C2980 C 0.86869 0.81085 0.63128
 C2981 C 0.91082 0.71332 0.58922
 C2982 C 0.91790 0.69560 0.58214
 H2983 H 0.87488 0.74442 0.57048
 H2984 H 0.85316 0.74975 0.61300
 H2985 H 0.90020 0.78434 0.57897
 H2986 H 0.93454 0.75759 0.59931
 H2987 H 0.88747 0.72306 0.63336
 H2988 H 0.91280 0.76294 0.64184
 C2989 C 0.41552 1.25589 0.60458
 C2990 C 0.39737 1.27084 0.59306
 C2991 C 0.38494 1.27273 0.61579
 C2992 C 0.40294 1.25812 0.62746
 C2993 C 0.40126 1.23490 0.59913
 C2994 C 0.38883 1.23681 0.62186
 C2995 C 0.38326 1.24952 0.58747
 C2996 C 0.37070 1.25174 0.61034
 C2997 C 0.37566 1.29364 0.62524
 C2998 C 0.36782 1.31069 0.63315
 C2999 C 0.41017 1.21368 0.59005
 C3000 C 0.41733 1.19605 0.58280
 H3001 H 0.43406 1.25736 0.60211
 H3002 H 0.40078 1.28508 0.58132
 H3003 H 0.41094 1.26188 0.64401
 H3004 H 0.38541 1.22259 0.63361
 H3005 H 0.37527 1.24574 0.57092
 H3006 H 0.35216 1.25025 0.61281
 C3007 C 0.37796 0.74438 1.09254
 C3008 C 0.37355 0.74921 1.11790
 C3009 C 0.38486 0.77241 1.11512
 C3010 C 0.38912 0.76791 1.08990
 C3011 C 0.40110 0.73442 1.09877
 C3012 C 0.41242 0.75761 1.09599
 C3013 C 0.39683 0.73894 1.12399
 C3014 C 0.40800 0.76245 1.12136
 C3015 C 0.37562 0.79341 1.12441
 C3016 C 0.36784 0.81053 1.13221
 C3017 C 0.40997 0.71311 1.08986
 C3018 C 0.41708 0.69542 1.08272
 H3019 H 0.36571 0.73671 1.08059
 H3020 H 0.35747 0.74598 1.12701
 H3021 H 0.38585 0.78006 1.07598
 H3022 H 0.42850 0.76082 1.08687
 H3023 H 0.40009 0.72679 1.13791
 H3024 H 0.42025 0.77012 1.13331
 C3025 C 0.88674 0.74904 0.91524
 C3026 C 0.87075 0.74710 0.89460
 C3027 C 0.88529 0.72762 0.88552
 C3028 C 0.90115 0.72921 0.90601
 C3029 C 0.90153 0.76562 0.90181
 C3030 C 0.91608 0.74615 0.89273
 C3031 C 0.88567 0.76401 0.88132
 C3032 C 0.90008 0.74421 0.87210
 C3033 C 0.87606 0.70661 0.87625
 C3034 C 0.86828 0.68950 0.86845
 C3035 C 0.91038 0.78695 0.91069
 C3036 C 0.91748 0.80465 0.91780
 H3037 H 0.88135 0.75126 0.93308
 H3038 H 0.85201 0.74727 0.89527
 H3039 H 0.90741 0.71466 0.91606
 H3040 H 0.93483 0.74600 0.89207
 H3041 H 0.87941 0.77855 0.87126
 H3042 H 0.90547 0.74200 0.85426
 C3043 C 0.88442 0.26366 0.38153
 C3044 C 0.89865 0.24462 0.37059
 C3045 C 0.88532 0.22715 0.38443
 C3046 C 0.87096 0.24588 0.39523
 C3047 C 0.90167 0.26505 0.40088
 C3048 C 0.88834 0.24758 0.41473
 C3049 C 0.91605 0.24633 0.39008
 C3050 C 0.90258 0.22852 0.40378
 C3051 C 0.87603 0.20621 0.37509
 C3052 C 0.86819 0.18914 0.36723
 C3053 C 0.91058 0.28631 0.40986
 C3054 C 0.91772 0.30396 0.41704
 H3055 H 0.87704 0.27834 0.37248
 H3056 H 0.90278 0.24318 0.35234
 H3057 H 0.85231 0.24547 0.39725
 H3058 H 0.88421 0.24904 0.43297
 H3059 H 0.93469 0.24676 0.38806
 H3060 H 0.90994 0.21383 0.41282
 C3061 C 0.40945 0.74212 0.40872
 C3062 C 0.38439 0.73462 0.40987
 C3063 C 0.38562 0.72777 0.38485
 C3064 C 0.41053 0.73493 0.38355
 C3065 C 0.40172 0.76577 0.40131
 C3066 C 0.40294 0.75891 0.37629
 C3067 C 0.37681 0.75860 0.40260
 C3068 C 0.37790 0.75142 0.37745
 C3069 C 0.37645 0.70677 0.37551
 C3070 C 0.36870 0.68966 0.36767
 C3071 C 0.41051 0.78708 0.41028
 C3072 C 0.41756 0.80478 0.41744
 H3073 H 0.42252 0.73855 0.42169
 H3074 H 0.37665 0.72440 0.42357
 H3075 H 0.42430 0.72496 0.37561
 H3076 H 0.41067 0.76913 0.36258
 H3077 H 0.36304 0.76856 0.41053
 H3078 H 0.36483 0.75502 0.36448
 C3079 C 0.41110 0.25248 0.88055
 C3080 C 0.40901 0.22993 0.89368
 C3081 C 0.38493 0.22712 0.88441
 C3082 C 0.38689 0.24935 0.87114
 C3083 C 0.40120 0.26497 0.90105
 C3084 C 0.37712 0.26215 0.89177
 C3085 C 0.39924 0.24276 0.91434
 C3086 C 0.37502 0.23962 0.90491
 C3087 C 0.37567 0.20620 0.87498
 C3088 C 0.36786 0.18915 0.86706
 C3089 C 0.41008 0.28621 0.91011
 C3090 C 0.41722 0.30385 0.91735
 H3091 H 0.42604 0.25801 0.87063
 H3092 H 0.42201 0.21643 0.89436
 H3093 H 0.38171 0.25184 0.85328
 H3094 H 0.36410 0.27564 0.89109
 H3095 H 0.40442 0.24029 0.93220
 H3096 H 0.36008 0.23409 0.91483
 C3097 C 1.10715 0.76269 1.12393
 C3098 C 1.09426 0.73995 1.12511
 C3099 C 1.11536 0.72787 1.11601
 C3100 C 1.12838 0.75029 1.11496
 C3101 C 1.09898 0.76573 1.09946
 C3102 C 1.12008 0.75364 1.09036
 C3103 C 1.08594 0.74331 1.10050
 C3104 C 1.10719 0.73089 1.09154
 C3105 C 1.12465 0.70693 1.12539
 C3106 C 1.13248 0.68986 1.13326
 C3107 C 1.09004 0.78696 1.09043
 C3108 C 1.08286 0.80459 1.08319
 H3109 H 1.10704 0.77600 1.13715
 H3110 H 1.08374 0.73409 1.13951
 H3111 H 1.14593 0.75294 1.12101
 H3112 H 1.13060 0.75951 1.07597
 H3113 H 1.06839 0.74068 1.09445
 H3114 H 1.10731 0.71758 1.07833
 C3115 C 1.10396 0.24397 0.58378
 C3116 C 1.12656 0.24154 0.59678
 C3117 C 1.11450 0.22681 0.61444
 C3118 C 1.09204 0.22890 0.60159
 C3119 C 1.09831 0.26484 0.59813
 C3120 C 1.08624 0.25012 0.61580
 C3121 C 1.12077 0.26274 0.61098
 C3122 C 1.10884 0.24770 0.62877
 C3123 C 1.12371 0.20581 0.62371
 C3124 C 1.13150 0.18870 0.63153
 C3125 C 1.08949 0.28618 0.58926
 C3126 C 1.08243 0.30390 0.58216
 H3127 H 1.10185 0.24268 0.56518
 H3128 H 1.14324 0.23778 0.58906
 H3129 H 1.08033 0.21474 0.59784
 H3130 H 1.06957 0.25389 0.62351
 H3131 H 1.13248 0.27689 0.61474
 H3132 H 1.11094 0.24901 0.64738
 C3133 C 0.62085 0.75508 0.59098
 C3134 C 0.62651 0.75062 0.61615
 C3135 C 0.61458 0.72764 0.61447
 C3136 C 0.60905 0.73177 0.58943
 C3137 C 0.59830 0.76568 0.59827
 C3138 C 0.58634 0.74271 0.59658
 C3139 C 0.60383 0.76153 0.62330
 C3140 C 0.59203 0.73823 0.62176
 C3141 C 0.62383 0.70662 0.62368
 C3142 C 0.63162 0.68950 0.63146
 C3143 C 0.58943 0.78702 0.58944
 C3144 C 0.58233 0.80473 0.58236
 H3145 H 0.63260 0.76225 0.57822
 H3146 H 0.64313 0.75365 0.62429
 H3147 H 0.61129 0.71929 0.57561
 H3148 H 0.56972 0.73970 0.58843
 H3149 H 0.60159 0.77401 0.63713
 H3150 H 0.58028 0.73107 0.63452
 C3151 C 0.60547 0.26152 1.12372
 C3152 C 0.59306 0.23849 1.12367
 C3153 C 0.61488 0.22710 1.11542
 C3154 C 0.62742 0.24982 1.11561
 C3155 C 0.59853 0.26499 1.09894
 C3156 C 0.62036 0.25361 1.09068
 C3157 C 0.58597 0.24228 1.09874
 C3158 C 0.60795 0.23056 1.09063
 C3159 C 0.62417 0.20616 1.12477
 C3160 C 0.63200 0.18909 1.13265
 C3161 C 0.58962 0.28626 1.08996
 C3162 C 0.58248 0.30391 1.08277
 H3163 H 0.60435 0.27448 1.13723
 H3164 H 0.58193 0.23203 1.13734
 H3165 H 0.64456 0.25269 1.12265
 H3166 H 0.63148 0.26007 1.07702
 H3167 H 0.56883 0.23943 1.09169
 H3168 H 0.60907 0.21759 1.07712
 C3169 C 1.23895 1.10381 0.87604
 C3170 C 1.24950 1.12682 0.88265
 C3171 C 1.27265 1.11526 0.88474
 C3172 C 1.26242 1.09239 0.87800
 C3173 C 1.23476 1.09886 0.90119
 C3174 C 1.25790 1.08728 0.90330
 C3175 C 1.24500 1.12173 0.90793
 C3176 C 1.26847 1.11031 0.90990
 C3177 C 1.29360 1.12459 0.87540
 C3178 C 1.31066 1.13244 0.86754
 C3179 C 1.21350 1.08991 0.91017
 C3180 C 1.19584 1.08275 0.91736
 H3181 H 1.22658 1.10104 0.86222
 H3182 H 1.24628 1.14317 0.87405
 H3183 H 1.26981 1.08043 0.86558
 H3184 H 1.26110 1.07093 0.91190
 H3185 H 1.23760 1.13369 0.92035
 H3186 H 1.28085 1.11309 0.92371
 C3187 C 1.25860 0.59318 0.41098
 C3188 C 1.26747 0.58935 0.38662
 C3189 C 1.27301 0.61465 0.38496
 C3190 C 1.26449 0.61863 0.40917
 C3191 C 1.23507 0.59825 0.40128
 C3192 C 1.24062 0.62354 0.39962
 C3193 C 1.24360 0.59427 0.37707
 C3194 C 1.24947 0.61970 0.37528
 C3195 C 1.29398 0.62397 0.37568
 C3196 C 1.31105 0.63182 0.36784
 C3197 C 1.21377 0.58931 0.41017
 C3198 C 1.19609 0.58217 0.41730
 H3199 H 1.26211 0.58217 0.42576
 H3200 H 1.27875 0.57540 0.38116
 H3201 H 1.27331 0.62875 0.42227
 H3202 H 1.22934 0.63750 0.40507
 H3203 H 1.23477 0.58416 0.36398
 H3204 H 1.24594 0.63071 0.36051
 C3205 C 0.75780 1.09773 0.41331
 C3206 C 0.76895 1.09040 0.39076
 C3207 C 0.77284 1.11538 0.38488
 C3208 C 0.76203 1.12286 0.40728
 C3209 C 0.73488 1.09901 0.40121
 C3210 C 0.73878 1.12399 0.39533
 C3211 C 0.74568 1.09153 0.37881
 C3212 C 0.74990 1.11665 0.37279
 C3213 C 0.79382 1.12468 0.37560
 C3214 C 0.81091 1.13251 0.36777
 C3215 C 0.71358 1.09008 0.41011
 C3216 C 0.69590 1.08294 0.41724
 H3217 H 0.76080 1.08985 0.43007
 H3218 H 0.78160 1.07670 0.38877
 H3219 H 0.76898 1.13585 0.41889
 H3220 H 0.72614 1.13770 0.39730
 H3221 H 0.73873 1.07855 0.36720
 H3222 H 0.74688 1.12452 0.35603
 C3223 C 0.75802 0.59309 0.91150
 C3224 C 0.76693 0.58927 0.88715
 C3225 C 0.77250 0.61456 0.88552
 C3226 C 0.76394 0.61854 0.90971
 C3227 C 0.73451 0.59819 0.90176
 C3228 C 0.74009 0.62348 0.90013
 C3229 C 0.74308 0.59422 0.87757
 C3230 C 0.74898 0.61965 0.87580
 C3231 C 0.79349 0.62386 0.87627
 C3232 C 0.81059 0.63170 0.86847
 C3233 C 0.71319 0.58927 0.91062
 C3234 C 0.69549 0.58214 0.91771
 H3235 H 0.76149 0.58207 0.92628
 H3236 H 0.77821 0.57530 0.88171
 H3237 H 0.77275 0.62864 0.92283
 H3238 H 0.72882 0.63745 0.90556
 H3239 H 0.73427 0.58412 0.86445
 H3240 H 0.74548 0.63066 0.86102
 C3241 C 1.25546 0.89511 1.08398
 C3242 C 1.27090 0.90701 1.10147
 C3243 C 1.27274 0.88469 1.11460
 C3244 C 1.25764 0.87265 1.09727
 C3245 C 1.23482 0.90129 1.09847
 C3246 C 1.23668 0.87898 1.11161
 C3247 C 1.24991 0.91334 1.11581
 C3248 C 1.25209 0.89089 1.12908
 C3249 C 1.29370 0.87528 1.12380
 C3250 C 1.31077 0.86738 1.13158
 C3251 C 1.21353 0.91033 1.08967
 C3252 C 1.19586 0.91755 1.08260
 H3253 H 1.25660 0.89695 1.06534
 H3254 H 1.28522 0.91843 1.09740
 H3255 H 1.26105 0.85581 1.08975
 H3256 H 1.22237 0.86756 1.11568
 H3257 H 1.24650 0.93018 1.12333
 H3258 H 1.25093 0.88905 1.14772
 C3259 C 1.23612 0.38128 0.61577
 C3260 C 1.25544 0.37075 0.60159
 C3261 C 1.27262 0.38451 0.61534
 C3262 C 1.25362 0.39490 0.62967
 C3263 C 1.23477 0.40088 0.59880
 C3264 C 1.25194 0.41464 0.61255
 C3265 C 1.25376 0.39049 0.58447
 C3266 C 1.27128 0.40411 0.59837
 C3267 C 1.29354 0.37520 0.62473
 C3268 C 1.31059 0.36736 0.63262
 C3269 C 1.21353 0.40981 0.58978
 C3270 C 1.19589 0.41698 0.58256
 H3271 H 1.22144 0.37199 0.62283
 H3272 H 1.25710 0.35260 0.59718
 H3273 H 1.25378 0.39661 0.64835
 H3274 H 1.25027 0.43279 0.61696
 H3275 H 1.25358 0.38878 0.56578
 H3276 H 1.28598 0.41339 0.59132
 C3277 C 0.75554 0.89605 0.58364
 C3278 C 0.77094 0.90807 0.60108
 C3279 C 0.77290 0.88579 0.61427
 C3280 C 0.75785 0.87363 0.59697
 C3281 C 0.73488 0.90216 0.59812
 C3282 C 0.73686 0.87989 0.61131
 C3283 C 0.74993 0.91433 0.61542
 C3284 C 0.75222 0.89191 0.62874
 C3285 C 0.79390 0.87649 0.62347
 C3286 C 0.81100 0.86866 0.63124
 C3287 C 0.71355 0.91108 0.58932
 C3288 C 0.69583 0.91820 0.58227
 H3289 H 0.75666 0.89785 0.56499
 H3290 H 0.78520 0.91955 0.59698
 H3291 H 0.76133 0.85679 0.58949
 H3292 H 0.72261 0.86840 0.61542
 H3293 H 0.74643 0.93116 0.62291
 H3294 H 0.75109 0.89011 0.64739
 C3295 C 0.75760 0.40286 1.08631
 C3296 C 0.76879 0.41053 1.10872
 C3297 C 0.77277 0.38564 1.11492
 C3298 C 0.76192 0.37783 1.09266
 C3299 C 0.73471 0.40167 1.09852
 C3300 C 0.73871 0.37679 1.10472
 C3301 C 0.74556 0.40948 1.12078
 C3302 C 0.74987 0.38446 1.12711
 C3303 C 0.79380 0.37650 1.12423
 C3304 C 0.81092 0.36877 1.13205
 C3305 C 0.71336 0.41041 1.08959
 C3306 C 0.69563 0.41742 1.08246
 H3307 H 0.76053 0.41053 1.06943
 H3308 H 0.78140 0.42430 1.11048
 H3309 H 0.76889 0.36471 1.08120
 H3310 H 0.72611 0.36301 1.10297
 H3311 H 0.73859 0.42259 1.13224
 H3312 H 0.74692 0.37680 1.14398
 C3313 C 0.76379 1.11544 1.11882
 C3314 C 0.74655 1.12970 1.10527
 C3315 C 0.72734 1.11529 1.11515
 C3316 C 0.74428 1.10116 1.12883
 C3317 C 0.76531 1.09889 1.09888
 C3318 C 0.74612 1.08446 1.10875
 C3319 C 0.74838 1.11301 1.08518
 C3320 C 0.72884 1.09873 1.09520
 C3321 C 0.70636 1.12460 1.12440
 C3322 C 0.68926 1.13244 1.13220
 C3323 C 0.78662 1.08995 1.09001
 C3324 C 0.80430 1.08281 1.08289
 H3325 H 0.77840 1.12221 1.12844
 H3326 H 0.74649 1.14840 1.10394
 H3327 H 0.74237 1.09639 1.14689
 H3328 H 0.74619 1.06576 1.11008
 H3329 H 0.75031 1.11778 1.06714
 H3330 H 0.71422 1.09197 1.08559
 C3331 C 0.75529 0.59178 0.62119
 C3332 C 0.75056 0.61709 0.62580
 C3333 C 0.72740 0.61455 0.61436
 C3334 C 0.73180 0.58936 0.60988
 C3335 C 0.76540 0.59817 0.59814
 C3336 C 0.74226 0.59562 0.58667
 C3337 C 0.76099 0.62335 0.60261
 C3338 C 0.73751 0.62095 0.59130
 C3339 C 0.70641 0.62385 0.62359
 C3340 C 0.68931 0.63168 0.63138
 C3341 C 0.78673 0.58925 0.58930
 C3342 C 0.80443 0.58212 0.58221
 H3343 H 0.76284 0.57968 0.63338
 H3344 H 0.75375 0.62602 0.64199
 H3345 H 0.71956 0.57550 0.61297
 H3346 H 0.73909 0.58668 0.57048
 H3347 H 0.77322 0.63722 0.59953
 H3348 H 0.72997 0.63305 0.57911
 C3349 C 0.26243 1.10975 0.62131
 C3350 C 0.24846 1.12896 0.61035
 C3351 C 0.22690 1.11498 0.61406
 C3352 C 0.24056 1.09591 0.62517
 C3353 C 0.26498 1.09870 0.59795
 C3354 C 0.24344 1.08470 0.60166
 C3355 C 0.25132 1.11777 0.58685
 C3356 C 0.22943 1.10393 0.59070
 C3357 C 0.20586 1.12424 0.62324
 C3358 C 0.18874 1.13204 0.63101
 C3359 C 0.28635 1.08983 0.58918
 C3360 C 0.30409 1.08275 0.58215
 H3361 H 0.27623 1.11204 0.63380
 H3362 H 0.25029 1.14725 0.61402
 H3363 H 0.23590 1.08702 0.64102
 H3364 H 0.24162 1.06641 0.59799
 H3365 H 0.25600 1.12666 0.57099
 H3366 H 0.21562 1.10164 0.57822
 C3367 C 0.26003 0.60131 1.12444
 C3368 C 0.25107 0.62545 1.11986
 C3369 C 0.22748 0.61555 1.11546
 C3370 C 0.23613 0.59153 1.12018
 C3371 C 0.26527 0.59878 1.09913
 C3372 C 0.24170 0.58885 1.09471
 C3373 C 0.25662 0.62279 1.09441
 C3374 C 0.23271 0.61302 1.09014
 C3375 C 0.20659 0.62504 1.12475
 C3376 C 0.18957 0.63300 1.13259
 C3377 C 0.28648 0.58965 1.09021
 C3378 C 0.30409 0.58236 1.08303
 H3379 H 0.27150 0.59639 1.13845
 H3380 H 0.25470 0.64060 1.13030
 H3381 H 0.22747 0.57879 1.13088
 H3382 H 0.23809 0.57370 1.08427
 H3383 H 0.26528 0.63554 1.08371
 H3384 H 0.22125 0.61795 1.07613
 C3385 C 0.74424 0.91638 0.89631
 C3386 C 0.74186 0.90325 0.87378
 C3387 C 0.72706 0.88572 0.88594
 C3388 C 0.72909 0.89871 0.90833
 C3389 C 0.76507 0.90204 0.90212
 C3390 C 0.75027 0.88451 0.91428
 C3391 C 0.76302 0.88905 0.87974
 C3392 C 0.74790 0.87139 0.89175
 C3393 C 0.70605 0.87644 0.87672
 C3394 C 0.68895 0.86863 0.86892
 C3395 C 0.78641 0.91094 0.91094
 C3396 C 0.80412 0.91805 0.91800
 H3397 H 0.74298 0.93499 0.89829
 H3398 H 0.73817 0.91085 0.85703
 H3399 H 0.71490 0.90257 0.91998
 H3400 H 0.75398 0.87691 0.93103
 H3401 H 0.77720 0.88518 0.86808
 H3402 H 0.74918 0.85279 0.88978
 C3403 C 0.75013 0.41357 0.38433
 C3404 C 0.74810 0.39176 0.37000
 C3405 C 0.72775 0.38454 0.38442
 C3406 C 0.72944 0.40620 0.39862
 C3407 C 0.76565 0.40092 0.40085
 C3408 C 0.74531 0.39370 0.41529
 C3409 C 0.76394 0.37925 0.38665
 C3410 C 0.74328 0.37189 0.40094
 C3411 C 0.70680 0.37523 0.37510
 C3412 C 0.68973 0.36739 0.36727
 C3413 C 0.78691 0.40985 0.40982
 C3414 C 0.80456 0.41700 0.41700
 H3415 H 0.75318 0.43081 0.37760
 H3416 H 0.74903 0.39087 0.35128
 H3417 H 0.71501 0.41718 0.40343
 H3418 H 0.74440 0.39459 0.43401
 H3419 H 0.77836 0.36827 0.38183
 H3420 H 0.74023 0.35465 0.40767
 C3421 C 0.24446 0.91642 0.39551
 C3422 C 0.24219 0.90333 0.37294
 C3423 C 0.22735 0.88576 0.38500
 C3424 C 0.22928 0.89870 0.40742
 C3425 C 0.26529 0.90209 0.40137
 C3426 C 0.25046 0.88452 0.41343
 C3427 C 0.26333 0.88915 0.37895
 C3428 C 0.24819 0.87144 0.39087
 C3429 C 0.20639 0.87647 0.37569
 C3430 C 0.18932 0.86863 0.36785
 C3431 C 0.28657 0.91099 0.41030
 C3432 C 0.30425 0.91811 0.41745
 H3433 H 0.24317 0.93502 0.39752
 H3434 H 0.23855 0.91096 0.35619
 H3435 H 0.21504 0.90253 0.41902
 H3436 H 0.25410 0.87689 0.43018
 H3437 H 0.27757 0.88531 0.36734
 H3438 H 0.24950 0.85285 0.38886
 C3439 C 0.24412 0.41553 0.89620
 C3440 C 0.24172 0.40240 0.87367
 C3441 C 0.22692 0.38487 0.88583
 C3442 C 0.22897 0.39786 0.90822
 C3443 C 0.26495 0.40118 0.90199
 C3444 C 0.25015 0.38366 0.91416
 C3445 C 0.26287 0.38819 0.87960
 C3446 C 0.24776 0.37054 0.89163
 C3447 C 0.20590 0.37560 0.87663
 C3448 C 0.18880 0.36779 0.86885
 C3449 C 0.28629 0.41006 0.91079
 C3450 C 0.30401 0.41716 0.91784
 H3451 H 0.24287 0.43414 0.89818
 H3452 H 0.23801 0.41000 0.85692
 H3453 H 0.21479 0.40172 0.91988
 H3454 H 0.25387 0.37605 0.93091
 H3455 H 0.27704 0.38432 0.86793
 H3456 H 0.24903 0.35193 0.88965
   
