data_POSCAR
  _audit_creation_date              2014-09-24
  _audit_creation_method            'ToBaCCo'
  _symmetry_space_group_name_H-M    'P1'
  _symmetry_Int_Tables_number       1
  _symmetry_cell_setting            triclinic
  loop_
  _symmetry_equiv_pos_as_xyz
 x,y,z
_cell_length_a 70.7557
_cell_length_b 68.5848
_cell_length_c 72.1539
_cell_angle_alpha 89.879500
_cell_angle_beta 89.927900
_cell_angle_gamma 89.630800
loop_
  _atom_site_label
  _atom_site_type_symbol
  _atom_site_fract_x
  _atom_site_fract_y
  _atom_site_fract_z
C1 C 0.41707 0.01743 0.27367
 H2 H 0.41691 0.02861 0.26307
 C3 C 0.42843 0.01961 0.28937
 H4 H 0.43703 0.03252 0.29090
 C5 C 0.40602 -0.01303 0.28474
 H6 H 0.39714 -0.02564 0.28303
 C7 C 0.41717 -0.01142 0.30062
 H8 H 0.41690 -0.02284 0.31101
 N9 N 0.40639 0.00115 0.27149
 C10 C 0.40019 -0.00583 0.21165
 H11 H 0.38501 -0.00727 0.21056
 C12 C 0.41136 -0.00612 0.19567
 H13 H 0.40479 -0.00781 0.18222
 C14 C 0.42731 -0.00157 0.23045
 H15 H 0.43352 0.00009 0.24400
 C16 C 0.43900 -0.00179 0.21482
 H17 H 0.45413 -0.00014 0.21639
 Zn18 Zn 0.39188 -0.00122 0.24945
 N19 N 0.40822 -0.00314 0.22858
 C20 C 0.37871 0.03367 0.23235
 N21 N 0.37646 0.02161 0.24721
 C22 C 0.36415 0.02622 0.26108
 C23 C 0.35328 0.04334 0.26013
 C24 C 0.36815 0.05089 0.23087
 C25 C 0.38661 -0.04167 0.25027
 C26 C 0.37683 -0.05929 0.25143
 C27 C 0.34749 -0.04106 0.25221
 C28 C 0.35785 -0.02376 0.25105
 N29 N 0.37708 -0.02436 0.25038
 H30 H 0.38893 0.03020 0.22172
 H31 H 0.36289 0.01665 0.27295
 H32 H 0.34355 0.04689 0.27123
 H33 H 0.37014 0.06038 0.21902
 H34 H 0.40188 -0.04176 0.24950
 H35 H 0.38466 -0.07293 0.25153
 H36 H 0.33219 -0.04036 0.25291
 H37 H 0.35049 -0.00992 0.25076
 C38 C 0.43093 -0.00384 0.19726
 C39 C 0.42858 0.00497 0.30289
 C40 C 0.35707 -0.05901 0.25254
 C41 C 0.35532 0.05579 0.24486
 C42 C 0.07987 0.01539 0.72390
 H43 H 0.07973 0.02675 0.73428
 C44 C 0.06820 0.01696 0.70833
 H45 H 0.05907 0.02958 0.70666
 C46 C 0.09190 -0.01496 0.71331
 H47 H 0.10125 -0.02730 0.71513
 C48 C 0.08048 -0.01396 0.69756
 H49 H 0.08101 -0.02558 0.68743
 N50 N 0.09112 -0.00061 0.72630
 C51 C 0.09773 -0.00753 0.78608
 H52 H 0.11288 -0.00952 0.78694
 C53 C 0.08688 -0.00692 0.80226
 H54 H 0.09368 -0.00853 0.81562
 C55 C 0.07039 -0.00230 0.76769
 H56 H 0.06399 -0.00047 0.75423
 C57 C 0.05903 -0.00160 0.78353
 H58 H 0.04396 0.00092 0.78221
 Zn59 Zn 0.10566 -0.00269 0.74837
 N60 N 0.08946 -0.00464 0.76927
 C61 C 0.11790 0.03210 0.76559
 N62 N 0.12059 0.02025 0.75067
 C63 C 0.13316 0.02500 0.73711
 C64 C 0.14399 0.04196 0.73855
 C65 C 0.12840 0.04913 0.76755
 C66 C 0.11179 -0.04304 0.74774
 C67 C 0.12195 -0.06052 0.74634
 C68 C 0.15086 -0.04198 0.74543
 C69 C 0.14014 -0.02482 0.74682
 N70 N 0.12093 -0.02563 0.74759
 H71 H 0.10746 0.02858 0.77595
 H72 H 0.13477 0.01560 0.72518
 H73 H 0.15403 0.04559 0.72776
 H74 H 0.12613 0.05841 0.77950
 H75 H 0.09653 -0.04330 0.74859
 H76 H 0.11452 -0.07427 0.74615
 H77 H 0.16612 -0.04121 0.74457
 H78 H 0.14720 -0.01092 0.74711
 C79 C 0.06741 -0.00356 0.80097
 C80 C 0.06837 0.00203 0.69515
 C81 C 0.14166 -0.05998 0.74500
 C82 C 0.14161 0.05409 0.75397
 C83 C 0.58066 0.51340 0.22428
 H84 H 0.58035 0.52478 0.23463
 C85 C 0.56912 0.51485 0.20860
 H86 H 0.55992 0.52740 0.20683
 C87 C 0.59297 0.48310 0.21385
 H88 H 0.60239 0.47083 0.21578
 C89 C 0.58169 0.48399 0.19801
 H90 H 0.58239 0.47234 0.18790
 N91 N 0.59198 0.49748 0.22681
 C92 C 0.59812 0.49092 0.28666
 H93 H 0.61327 0.48899 0.28764
 C94 C 0.58716 0.49162 0.30276
 H95 H 0.59386 0.49015 0.31618
 C96 C 0.57090 0.49590 0.26804
 H97 H 0.56459 0.49761 0.25453
 C98 C 0.55942 0.49670 0.28380
 H99 H 0.54435 0.49916 0.28236
 Zn100 Zn 0.60633 0.49556 0.24900
 N101 N 0.58996 0.49366 0.26978
 C102 C 0.61830 0.53047 0.26616
 N103 N 0.62117 0.51855 0.25133
 C104 C 0.63386 0.52328 0.23786
 C105 C 0.64463 0.54028 0.23933
 C106 C 0.62872 0.54755 0.26815
 C107 C 0.61254 0.45523 0.24855
 C108 C 0.62275 0.43777 0.24727
 C109 C 0.65162 0.45636 0.24656
 C110 C 0.64087 0.47350 0.24783
 N111 N 0.62165 0.47266 0.24844
 H112 H 0.60777 0.52697 0.27644
 H113 H 0.63562 0.51383 0.22599
 H114 H 0.65475 0.54389 0.22861
 H115 H 0.62631 0.55687 0.28003
 H116 H 0.59727 0.45495 0.24927
 H117 H 0.61533 0.42400 0.24704
 H118 H 0.66689 0.45716 0.24582
 H119 H 0.64790 0.48742 0.24815
 C120 C 0.56769 0.49491 0.30131
 C121 C 0.56951 0.49988 0.19546
 C122 C 0.64246 0.43834 0.24609
 C123 C 0.64205 0.55248 0.25467
 C124 C 0.91890 0.51848 0.77462
 H125 H 0.91884 0.52965 0.76401
 C126 C 0.93017 0.52064 0.79038
 H127 H 0.93878 0.53355 0.79191
 C128 C 0.90764 0.48810 0.78566
 H129 H 0.89871 0.47554 0.78392
 C130 C 0.91869 0.48968 0.80161
 H131 H 0.91826 0.47825 0.81200
 N132 N 0.90815 0.50225 0.77240
 C133 C 0.90171 0.49539 0.71257
 H134 H 0.88653 0.49393 0.71158
 C135 C 0.91277 0.49515 0.69651
 H136 H 0.90610 0.49347 0.68311
 C137 C 0.92896 0.49969 0.73118
 H138 H 0.93527 0.50138 0.74469
 C139 C 0.94054 0.49952 0.71546
 H140 H 0.95567 0.50122 0.71692
 Zn141 Zn 0.89361 0.50000 0.75036
 N142 N 0.90986 0.49809 0.72944
 C143 C 0.88060 0.53501 0.73338
 N144 N 0.87828 0.52291 0.74819
 C145 C 0.86596 0.52750 0.76206
 C146 C 0.85514 0.54465 0.76114
 C147 C 0.87009 0.55226 0.73193
 C148 C 0.88816 0.45958 0.75114
 C149 C 0.87828 0.44202 0.75226
 C150 C 0.84904 0.46037 0.75297
 C151 C 0.85947 0.47762 0.75185
 N152 N 0.87871 0.47694 0.75125
 H153 H 0.89082 0.53155 0.72276
 H154 H 0.86465 0.51790 0.77390
 H155 H 0.84539 0.54820 0.77223
 H156 H 0.87213 0.56179 0.72011
 H157 H 0.90343 0.45941 0.75042
 H158 H 0.88597 0.42831 0.75239
 H159 H 0.83376 0.46104 0.75363
 H160 H 0.85217 0.49149 0.75155
 C161 C 0.93233 0.49748 0.69795
 C162 C 0.93017 0.50603 0.80395
 C163 C 0.85855 0.44240 0.75331
 C164 C 0.85724 0.55715 0.74592
 C165 C 0.22232 0.39469 0.98396
 H166 H 0.23278 0.39419 0.97302
 C167 C 0.20595 0.40602 0.98174
 H168 H 0.20389 0.41438 0.96914
 C169 C 0.21187 0.38391 1.01345
 H170 H 0.21399 0.37495 1.02561
 C171 C 0.19531 0.39506 1.01179
 H172 H 0.18488 0.39481 1.02280
 N173 N 0.22500 0.38393 0.99963
 C174 C 0.28585 0.37133 1.00226
 H175 H 0.28535 0.35559 1.00313
 C176 C 0.30321 0.38086 1.00342
 H177 H 0.31611 0.37244 1.00504
 C178 C 0.26961 0.40155 0.99961
 H179 H 0.25647 0.40957 0.99848
 C180 C 0.28671 0.41168 1.00072
 H181 H 0.28668 0.42747 1.00024
 Zn182 Zn 0.24661 0.36722 1.00062
 N183 N 0.26949 0.38170 1.00034
 C184 C 0.25924 0.35005 0.96675
 N185 N 0.24523 0.35048 0.97971
 C186 C 0.22927 0.33972 0.97760
 C187 C 0.22702 0.32778 0.96208
 C188 C 0.25755 0.33830 0.95103
 C189 C 0.24898 0.36240 1.03906
 C190 C 0.25087 0.35243 1.05587
 C191 C 0.24862 0.32199 1.03927
 C192 C 0.24676 0.33253 1.02273
 N193 N 0.24694 0.35240 1.02292
 H194 H 0.27161 0.35901 0.96842
 H195 H 0.21823 0.34055 0.98795
 H196 H 0.21424 0.31933 0.96049
 H197 H 0.26872 0.33812 0.94075
 H198 H 0.24945 0.37816 1.03880
 H199 H 0.25262 0.36054 1.06862
 H200 H 0.24862 0.30619 1.03899
 H201 H 0.24560 0.32482 1.00975
 C202 C 0.30367 0.40123 1.00271
 C203 C 0.19225 0.40613 0.99574
 C204 C 0.25079 0.33204 1.05598
 C205 C 0.24128 0.32709 0.94865
 C206 C 0.77556 0.10669 0.98308
 H207 H 0.76530 0.10544 0.97204
 C208 C 0.79286 0.09675 0.98182
 H209 H 0.79580 0.08768 0.96987
 C210 C 0.78457 0.12066 1.01173
 H211 H 0.78155 0.13039 1.02312
 C212 C 0.80204 0.11100 1.01102
 H213 H 0.81221 0.11317 1.02203
 N214 N 0.77174 0.11839 0.99786
 C215 C 0.71027 0.12760 0.99857
 H216 H 0.71010 0.14337 0.99868
 C217 C 0.69331 0.11737 0.99998
 H218 H 0.68006 0.12529 1.00105
 C219 C 0.72779 0.09803 0.99762
 H220 H 0.74128 0.09058 0.99708
 C221 C 0.71110 0.08721 0.99902
 H222 H 0.71178 0.07143 0.99934
 Zn223 Zn 0.74912 0.13364 0.99751
 N224 N 0.72707 0.11788 0.99739
 C225 C 0.73678 0.14782 0.96237
 N226 N 0.75013 0.14947 0.97584
 C227 C 0.76531 0.16135 0.97358
 C228 C 0.76750 0.17218 0.95727
 C229 C 0.73843 0.15840 0.94586
 C230 C 0.74530 0.13927 1.03551
 C231 C 0.74272 0.14938 1.05210
 C232 C 0.74419 0.17967 1.03500
 C233 C 0.74674 0.16896 1.01867
 N234 N 0.74734 0.14912 1.01924
 H235 H 0.72507 0.13798 0.96419
 H236 H 0.77591 0.16212 0.98434
 H237 H 0.77974 0.18141 0.95550
 H238 H 0.72787 0.15678 0.93512
 H239 H 0.74551 0.12350 1.03552
 H240 H 0.74107 0.14138 1.06496
 H241 H 0.74368 0.19545 1.03446
 H242 H 0.74795 0.17651 1.00557
 C243 C 0.69370 0.09699 1.00030
 C244 C 0.80632 0.09905 0.99586
 C245 C 0.74210 0.16976 1.05186
 C246 C 0.75397 0.17061 0.94323
 C247 C 0.27513 0.60756 0.48232
 H248 H 0.26498 0.60637 0.47118
 C249 C 0.29243 0.59760 0.48119
 H250 H 0.29552 0.58858 0.46924
 C251 C 0.28389 0.62135 0.51113
 H252 H 0.28076 0.63102 0.52255
 C253 C 0.30134 0.61166 0.51053
 H254 H 0.31144 0.61371 0.52162
 N255 N 0.27118 0.61918 0.49713
 C256 C 0.20969 0.62799 0.49748
 H257 H 0.20938 0.64376 0.49757
 C258 C 0.19283 0.61759 0.49881
 H259 H 0.17949 0.62538 0.49979
 C260 C 0.22749 0.59859 0.49669
 H261 H 0.24105 0.59127 0.49625
 C262 C 0.21090 0.58761 0.49801
 H263 H 0.21172 0.57183 0.49837
 Zn264 Zn 0.24853 0.63435 0.49663
 N265 N 0.22658 0.61844 0.49642
 C266 C 0.23629 0.64850 0.46143
 N267 N 0.24962 0.65012 0.47493
 C268 C 0.26487 0.66190 0.47266
 C269 C 0.26715 0.67267 0.45632
 C270 C 0.23804 0.65901 0.44489
 C271 C 0.24448 0.64013 0.53461
 C272 C 0.24182 0.65033 0.55115
 C273 C 0.24337 0.68052 0.53391
 C274 C 0.24600 0.66974 0.51764
 N275 N 0.24659 0.64989 0.51830
 H276 H 0.22452 0.63873 0.46325
 H277 H 0.27545 0.66265 0.48345
 H278 H 0.27946 0.68180 0.45455
 H279 H 0.22750 0.65742 0.43413
 H280 H 0.24469 0.62436 0.53470
 H281 H 0.24013 0.64240 0.56404
 H282 H 0.24287 0.69630 0.53330
 H283 H 0.24728 0.67722 0.50451
 C284 C 0.19340 0.59722 0.49917
 C285 C 0.30572 0.59979 0.49536
 C286 C 0.24120 0.67071 0.55081
 C287 C 0.25366 0.67112 0.44226
 C288 C 0.72246 0.89417 0.48459
 H289 H 0.73296 0.89372 0.47368
 C290 C 0.70606 0.90545 0.48235
 H291 H 0.70401 0.91381 0.46975
 C292 C 0.71197 0.88333 0.51405
 H293 H 0.71408 0.87435 0.52620
 C294 C 0.69538 0.89441 0.51236
 H295 H 0.68491 0.89411 0.52333
 N296 N 0.72514 0.88341 0.50027
 C297 C 0.78605 0.87113 0.50289
 H298 H 0.78564 0.85539 0.50386
 C299 C 0.80336 0.88078 0.50395
 H300 H 0.81631 0.87244 0.50560
 C301 C 0.76965 0.90124 0.50006
 H302 H 0.75647 0.90918 0.49891
 C303 C 0.78670 0.91147 0.50106
 H304 H 0.78658 0.92726 0.50045
 Zn305 Zn 0.74682 0.86680 0.50128
 N306 N 0.76964 0.88140 0.50093
 C307 C 0.75942 0.84969 0.46738
 N308 N 0.74546 0.85004 0.48039
 C309 C 0.72952 0.83925 0.47832
 C310 C 0.72721 0.82737 0.46277
 C311 C 0.75768 0.83799 0.45163
 C312 C 0.74908 0.86205 0.53974
 C313 C 0.75095 0.85212 0.55657
 C314 C 0.74912 0.82163 0.53999
 C315 C 0.74725 0.83214 0.52343
 N316 N 0.74722 0.85201 0.52360
 H317 H 0.77178 0.85867 0.46903
 H318 H 0.71851 0.84003 0.48872
 H319 H 0.71444 0.81890 0.46121
 H320 H 0.76880 0.83788 0.44129
 H321 H 0.74938 0.87782 0.53947
 H322 H 0.75254 0.86026 0.56932
 H323 H 0.74930 0.80584 0.53972
 H324 H 0.74624 0.82440 0.51045
 C325 C 0.80371 0.90114 0.50309
 C326 C 0.69233 0.90550 0.49631
 C327 C 0.75108 0.83172 0.55670
 C328 C 0.74141 0.82677 0.44927
 C329 C 0.00470 0.27317 0.39263
 H330 H 0.01779 0.26498 0.39359
 C331 C 0.00125 0.28860 0.40467
 H332 H 0.01169 0.29239 0.41500
 C333 C -0.02451 0.27892 0.37731
 H334 H -0.03423 0.27540 0.36631
 C335 C -0.02850 0.29455 0.38907
 H336 H -0.04133 0.30303 0.38719
 N337 N -0.00810 0.26867 0.37931
 C338 C 0.00580 0.20936 0.36391
 H339 H 0.00736 0.21130 0.34911
 C340 C 0.00803 0.19092 0.37176
 H341 H 0.01131 0.17854 0.36299
 C342 C -0.00067 0.22314 0.39344
 H343 H -0.00434 0.23568 0.40175
 C344 C 0.00144 0.20495 0.40186
 H345 H -0.00048 0.20354 0.41671
 Zn346 Zn -0.00098 0.24902 0.36268
 N347 N 0.00178 0.22500 0.37482
 C348 C 0.03765 0.24514 0.35494
 N349 N 0.02208 0.25645 0.35207
 C350 C 0.02297 0.27331 0.34213
 C351 C 0.03989 0.27881 0.33369
 C352 C 0.05479 0.25012 0.34687
 C353 C -0.03641 0.23887 0.35063
 C354 C -0.05093 0.23539 0.33813
 C355 C -0.03013 0.24503 0.31313
 C356 C -0.01592 0.24828 0.32613
 N357 N -0.01945 0.24549 0.34450
 H358 H 0.03683 0.23219 0.36342
 H359 H 0.01041 0.28223 0.34046
 H360 H 0.04046 0.29190 0.32528
 H361 H 0.06704 0.24077 0.34882
 H362 H -0.03862 0.23643 0.36529
 H363 H -0.06455 0.23049 0.34313
 H364 H -0.02747 0.24763 0.29855
 H365 H -0.00216 0.25296 0.32153
 C366 C 0.00590 0.18877 0.39090
 C367 C -0.01541 0.29945 0.40275
 C368 C -0.04777 0.23862 0.31927
 C369 C 0.05583 0.26693 0.33599
 C370 C 0.00304 0.72507 0.11941
 H371 H 0.01577 0.73348 0.11739
 C372 C 0.00100 0.70716 0.11062
 H373 H 0.01215 0.70170 0.10169
 C374 C -0.02690 0.72165 0.13394
 H375 H -0.03755 0.72721 0.14330
 C376 C -0.02951 0.70363 0.12540
 H377 H -0.04224 0.69538 0.12804
 N378 N -0.01086 0.73198 0.13069
 C379 C -0.00345 0.79442 0.13279
 H380 H -0.00301 0.79632 0.14767
 C381 C -0.00221 0.81054 0.12114
 H382 H -0.00079 0.82500 0.12698
 C383 C -0.00591 0.77322 0.10693
 H384 H -0.00756 0.75867 0.10151
 C385 C -0.00471 0.78899 0.09475
 H386 H -0.00528 0.78660 0.07993
 Zn387 Zn -0.00623 0.75570 0.14271
 N388 N -0.00496 0.77622 0.12555
 C389 C 0.03151 0.76496 0.15033
 N390 N 0.01698 0.75306 0.15509
 C391 C 0.01940 0.73806 0.16725
 C392 C 0.03710 0.73456 0.17518
 C393 C 0.04934 0.76201 0.15793
 C394 C -0.04271 0.76630 0.15079
 C395 C -0.05850 0.77061 0.16153
 C396 C -0.03943 0.76611 0.18909
 C397 C -0.02390 0.76198 0.17775
 N398 N -0.02599 0.76174 0.15901
 H399 H 0.02950 0.77639 0.14022
 H400 H 0.00768 0.72855 0.17041
 H401 H 0.03909 0.72245 0.18465
 H402 H 0.06092 0.77138 0.15386
 H403 H -0.04380 0.76620 0.13584
 H404 H -0.07191 0.77363 0.15480
 H405 H -0.03789 0.76561 0.20403
 H406 H -0.01035 0.75867 0.18391
 C407 C -0.00273 0.80775 0.10199
 C408 C -0.01540 0.69638 0.11367
 C409 C -0.05691 0.77025 0.18084
 C410 C 0.05218 0.74661 0.17031
 C411 C 0.50412 0.22353 0.61821
 H412 H 0.51692 0.23177 0.61604
 C413 C 0.50176 0.20566 0.60942
 H414 H 0.51273 0.20007 0.60035
 C415 C 0.47432 0.22047 0.63307
 H416 H 0.46385 0.22615 0.64256
 C417 C 0.47139 0.20250 0.62454
 H418 H 0.45859 0.19441 0.62732
 N419 N 0.49044 0.23059 0.62966
 C420 C 0.49870 0.29287 0.63171
 H421 H 0.49942 0.29471 0.64658
 C422 C 0.49982 0.30902 0.62010
 H423 H 0.50145 0.32345 0.62596
 C424 C 0.49555 0.27179 0.60584
 H425 H 0.49364 0.25728 0.60041
 C426 C 0.49662 0.28760 0.59369
 H427 H 0.49569 0.28528 0.57887
 Zn428 Zn 0.49550 0.25424 0.64161
 N429 N 0.49687 0.27472 0.62444
 C430 C 0.53341 0.26297 0.64891
 N431 N 0.51875 0.25130 0.65382
 C432 C 0.52104 0.23640 0.66612
 C433 C 0.53871 0.23283 0.67409
 C434 C 0.55121 0.25994 0.65654
 C435 C 0.45923 0.26535 0.64993
 C436 C 0.44362 0.27006 0.66077
 C437 C 0.46286 0.26556 0.68818
 C438 C 0.47822 0.26103 0.67676
 N439 N 0.47596 0.26061 0.65804
 H440 H 0.53150 0.27431 0.63869
 H441 H 0.50922 0.22707 0.66941
 H442 H 0.54058 0.22084 0.68373
 H443 H 0.56287 0.26916 0.65240
 H444 H 0.45800 0.26512 0.63499
 H445 H 0.43017 0.27324 0.65422
 H446 H 0.46444 0.26523 0.70311
 H447 H 0.49178 0.25757 0.68285
 C448 C 0.49887 0.30631 0.60095
 C449 C 0.48526 0.19509 0.61265
 C450 C 0.44541 0.26993 0.68003
 C451 C 0.55389 0.24469 0.66911
 C452 C 0.50370 0.77419 0.88976
 H453 H 0.51643 0.76550 0.89119
 C454 C 0.50062 0.79010 0.90133
 H455 H 0.51100 0.79374 0.91177
 C456 C 0.47502 0.78068 0.87375
 H457 H 0.46538 0.77723 0.86265
 C458 C 0.47142 0.79680 0.88502
 H459 H 0.45896 0.80573 0.88269
 N460 N 0.49098 0.76982 0.87633
 C461 C 0.50305 0.70961 0.86277
 H462 H 0.50497 0.71105 0.84796
 C463 C 0.50465 0.69138 0.87117
 H464 H 0.50781 0.67863 0.86286
 C465 C 0.49645 0.72449 0.89178
 H466 H 0.49300 0.73739 0.89969
 C467 C 0.49791 0.70652 0.90074
 H468 H 0.49576 0.70558 0.91558
 Zn469 Zn 0.49770 0.74944 0.86036
 N470 N 0.49932 0.72570 0.87317
 C471 C 0.53636 0.74392 0.85365
 N472 N 0.52125 0.75568 0.85012
 C473 C 0.52299 0.77236 0.84000
 C474 C 0.54041 0.77731 0.83227
 C475 C 0.55396 0.74834 0.84626
 C476 C 0.46225 0.74024 0.84793
 C477 C 0.44785 0.73685 0.83528
 C478 C 0.46935 0.74508 0.81039
 C479 C 0.48343 0.74828 0.82355
 N480 N 0.47950 0.74611 0.84191
 H481 H 0.53485 0.73114 0.86225
 H482 H 0.51077 0.78165 0.83780
 H483 H 0.54171 0.79033 0.82386
 H484 H 0.56588 0.73871 0.84885
 H485 H 0.45972 0.73830 0.86260
 H486 H 0.43401 0.73250 0.84018
 H487 H 0.47233 0.74714 0.79579
 H488 H 0.49741 0.75240 0.81908
 C489 C 0.50216 0.68991 0.89031
 C490 C 0.48444 0.80155 0.89881
 C491 C 0.45143 0.73939 0.81641
 C492 C 0.55593 0.76505 0.83538
 C493 C -0.23844 0.66319 0.97905
 H494 H -0.22733 0.66385 0.98931
 C495 C -0.23747 0.67484 0.96311
 H496 H -0.22559 0.68451 0.96110
 C497 C -0.26738 0.64967 0.96892
 H498 H -0.27890 0.63966 0.97100
 C499 C -0.26695 0.66104 0.95285
 H500 H -0.27822 0.65983 0.94276
 N501 N -0.25340 0.65112 0.98180
 C502 C -0.25884 0.64279 1.04178
 H503 H -0.26020 0.62709 1.04228
 C504 C -0.25904 0.65355 1.05820
 H505 H -0.26063 0.64608 1.07137
 C506 C -0.25480 0.67161 1.02405
 H507 H -0.25318 0.67862 1.01074
 C508 C -0.25491 0.68294 1.04016
 H509 H -0.25328 0.69861 1.03914
 Zn510 Zn -0.25442 0.63567 1.00379
 N511 N -0.25634 0.65185 1.02516
 C512 C -0.21988 0.62303 1.01999
 N513 N -0.23165 0.62056 1.00525
 C514 C -0.22683 0.60838 0.99109
 C515 C -0.20975 0.59792 0.99159
 C516 C -0.20274 0.61287 1.02102
 C517 C -0.29339 0.62894 1.00408
 C518 C -0.31021 0.61850 1.00256
 C519 C -0.29186 0.58884 0.99975
 C520 C -0.27533 0.59986 1.00131
 N521 N -0.27637 0.61961 1.00309
 H522 H -0.22355 0.63313 1.03087
 H523 H -0.23618 0.60694 0.97933
 H524 H -0.20600 0.58832 0.98025
 H525 H -0.19349 0.61507 1.03278
 H526 H -0.29385 0.64463 1.00564
 H527 H -0.32365 0.62615 1.00302
 H528 H -0.29091 0.57318 0.99804
 H529 H -0.26173 0.59264 1.00082
 C530 C -0.25681 0.67380 1.05743
 C531 C -0.25193 0.67383 0.94994
 C532 C -0.30948 0.59828 1.00019
 C533 C -0.19757 0.60022 1.00671
 C534 C -0.23357 0.33652 0.52159
 H535 H -0.22180 0.33622 0.51200
 C536 C -0.23320 0.32536 0.53688
 H537 H -0.22111 0.31603 0.53963
 C538 C -0.26378 0.34996 0.52933
 H539 H -0.27551 0.35966 0.52663
 C540 C -0.26398 0.33793 0.54631
 H541 H -0.27598 0.33891 0.55563
 N542 N -0.24962 0.34892 0.51777
 C543 C -0.25179 0.35745 0.45763
 H544 H -0.25400 0.37306 0.45716
 C545 C -0.25007 0.34690 0.44116
 H546 H -0.25107 0.35441 0.42797
 C547 C -0.24720 0.32867 0.47538
 H548 H -0.24601 0.32161 0.48871
 C549 C -0.24539 0.31756 0.45921
 H550 H -0.24276 0.30202 0.46016
 Zn551 Zn -0.24977 0.36444 0.49579
 N552 N -0.24986 0.34833 0.47431
 C553 C -0.21478 0.37752 0.48137
 N554 N -0.22736 0.37992 0.49551
 C555 C -0.22363 0.39234 0.50974
 C556 C -0.20690 0.40320 0.50987
 C557 C -0.19795 0.38804 0.48097
 C558 C -0.28883 0.37056 0.49321
 C559 C -0.30601 0.38069 0.49404
 C560 C -0.28871 0.41058 0.49843
 C561 C -0.27180 0.39985 0.49752
 N562 N -0.27217 0.38014 0.49531
 H563 H -0.21754 0.36721 0.47045
 H564 H -0.23359 0.39372 0.52105
 H565 H -0.20404 0.41303 0.52124
 H566 H -0.18807 0.38592 0.46966
 H567 H -0.28875 0.35491 0.49135
 H568 H -0.31916 0.37279 0.49273
 H569 H -0.28826 0.42620 0.50055
 H570 H -0.25847 0.40727 0.49891
 C571 C -0.24654 0.32683 0.44194
 C572 C -0.24935 0.32602 0.54992
 C573 C -0.30600 0.40087 0.49689
 C574 C -0.19394 0.40102 0.49531
 C575 C 0.26612 -0.16298 0.02067
 H576 H 0.27789 -0.16345 0.01107
 C577 C 0.26638 -0.17414 0.03596
 H578 H 0.27835 -0.18363 0.03871
 C579 C 0.23610 -0.14913 0.02844
 H580 H 0.22449 -0.13927 0.02575
 C581 C 0.23577 -0.16114 0.04543
 H582 H 0.22379 -0.15999 0.05476
 N583 N 0.25023 -0.15037 0.01686
 C584 C 0.24815 -0.14176 -0.04328
 H585 H 0.24597 -0.12614 -0.04370
 C586 C 0.24984 -0.15225 -0.05978
 H587 H 0.24886 -0.14470 -0.07295
 C588 C 0.25267 -0.17061 -0.02562
 H589 H 0.25384 -0.17772 -0.01230
 C590 C 0.25445 -0.18166 -0.04182
 H591 H 0.25705 -0.19722 -0.04092
 Zn592 Zn 0.25021 -0.13485 -0.00513
 N593 N 0.25005 -0.15093 -0.02663
 C594 C 0.28530 -0.12201 -0.01951
 N595 N 0.27271 -0.11952 -0.00538
 C596 C 0.27648 -0.10708 0.00882
 C597 C 0.29325 -0.09628 0.00893
 C598 C 0.30216 -0.11155 -0.01992
 C599 C 0.21120 -0.12847 -0.00774
 C600 C 0.19408 -0.11823 -0.00689
 C601 C 0.21156 -0.08846 -0.00247
 C602 C 0.22841 -0.09929 -0.00340
 N603 N 0.22792 -0.11900 -0.00562
 H604 H 0.28251 -0.13233 -0.03041
 H605 H 0.26651 -0.10564 0.02013
 H606 H 0.29613 -0.08642 0.02027
 H607 H 0.31204 -0.11374 -0.03123
 H608 H 0.21119 -0.14412 -0.00961
 H609 H 0.18089 -0.12605 -0.00820
 H610 H 0.21210 -0.07284 -0.00032
 H611 H 0.24178 -0.09196 -0.00200
 C612 C 0.25332 -0.17233 -0.05906
 C613 C 0.25025 -0.17325 0.04903
 C614 C 0.19421 -0.09806 -0.00401
 C615 C 0.30620 -0.09854 -0.00562
 C616 C 0.26140 1.16245 0.47776
 H617 H 0.27257 1.16331 0.48795
 C618 C 0.26221 1.17393 0.46171
 H619 H 0.27400 1.18366 0.45953
 C620 C 0.23249 1.14861 0.46794
 H621 H 0.22104 1.13856 0.47019
 C622 C 0.23275 1.15981 0.45175
 H623 H 0.22143 1.15842 0.44175
 N624 N 0.24653 1.15031 0.48073
 C625 C 0.24153 1.14281 0.54085
 H626 H 0.24031 1.12711 0.54158
 C627 C 0.24135 1.15383 0.55712
 H628 H 0.23993 1.14661 0.57041
 C629 C 0.24520 1.17140 0.52270
 H630 H 0.24666 1.17823 0.50929
 C631 C 0.24510 1.18297 0.53865
 H632 H 0.24658 1.19863 0.53745
 Zn633 Zn 0.24570 1.13517 0.50292
 N634 N 0.24384 1.15164 0.52409
 C635 C 0.28040 1.12285 0.51904
 N636 N 0.26853 1.12017 0.50441
 C637 C 0.27325 1.10778 0.49039
 C638 C 0.29031 1.09730 0.49092
 C639 C 0.29754 1.11268 0.52010
 C640 C 0.20677 1.12823 0.50343
 C641 C 0.19001 1.11766 0.50208
 C642 C 0.20852 1.08807 0.49970
 C643 C 0.22499 1.09922 0.50107
 N644 N 0.22384 1.11899 0.50255
 H645 H 0.27681 1.13311 0.52981
 H646 H 0.26382 1.10618 0.47871
 H647 H 0.29396 1.08751 0.47969
 H648 H 0.30687 1.11502 0.53178
 H649 H 0.20622 1.14394 0.50475
 H650 H 0.17653 1.12524 0.50243
 H651 H 0.20956 1.07238 0.49822
 H652 H 0.23863 1.09207 0.50069
 C653 C 0.24339 1.17408 0.55604
 C654 C 0.24766 1.17267 0.44864
 C655 C 0.19086 1.09740 0.50000
 C656 C 0.30258 1.09979 0.50594
 C657 C 0.13339 0.47639 0.26527
 H658 H 0.13362 0.48759 0.27579
 C659 C 0.14409 0.45936 0.26761
 H660 H 0.15272 0.45751 0.27989
 C661 C 0.12135 0.46477 0.23672
 H662 H 0.11212 0.46671 0.22494
 C663 C 0.13182 0.44749 0.23854
 H664 H 0.13081 0.43631 0.22802
 N665 N 0.12232 0.47880 0.25000
 C666 C 0.11154 0.54177 0.24676
 H667 H 0.09625 0.54184 0.24686
 C668 C 0.12135 0.55928 0.24476
 H669 H 0.11360 0.57289 0.24346
 C670 C 0.14034 0.52391 0.24780
 H671 H 0.14768 0.51008 0.24858
 C672 C 0.15069 0.54111 0.24581
 H673 H 0.16598 0.54047 0.24531
 Zn674 Zn 0.10655 0.50135 0.24916
 N675 N 0.12110 0.52455 0.24830
 C676 C 0.09133 0.51500 0.28355
 N677 N 0.09126 0.50046 0.27073
 C678 C 0.08099 0.48397 0.27340
 C679 C 0.07010 0.48167 0.28940
 C680 C 0.08060 0.51327 0.29977
 C681 C 0.10010 0.50267 0.21093
 C682 C 0.08961 0.50389 0.19458
 C683 C 0.06095 0.50268 0.21284
 C684 C 0.07201 0.50149 0.22886
 N685 N 0.09122 0.50139 0.22762
 H686 H 0.09990 0.52778 0.28138
 H687 H 0.08144 0.47251 0.26313
 H688 H 0.06208 0.46843 0.29145
 H689 H 0.08083 0.52482 0.30999
 H690 H 0.11538 0.50293 0.21038
 H691 H 0.09690 0.50491 0.18138
 H692 H 0.04567 0.50278 0.21401
 H693 H 0.06520 0.50097 0.24225
 C694 C 0.14111 0.55895 0.24420
 C695 C 0.14321 0.44471 0.25419
 C696 C 0.06984 0.50393 0.19552
 C697 C 0.06994 0.49643 0.30273
 C698 C -0.13114 1.02025 0.26286
 H699 H -0.13201 1.00953 0.27383
 C700 C -0.14090 1.03797 0.26448
 H701 H -0.14946 1.04081 0.27665
 C702 C -0.11841 1.02999 0.23389
 H703 H -0.10927 1.02706 0.22221
 C704 C -0.12793 1.04790 0.23498
 H705 H -0.12628 1.05856 0.22401
 N706 N -0.12018 1.01658 0.24772
 C707 C -0.11219 0.95313 0.24623
 H708 H -0.09691 0.95257 0.24568
 C709 C -0.12256 0.93589 0.24537
 H710 H -0.11525 0.92200 0.24426
 C711 C -0.14038 0.97192 0.24796
 H712 H -0.14727 0.98601 0.24867
 C713 C -0.15130 0.95499 0.24712
 H714 H -0.16658 0.95608 0.24738
 Zn715 Zn -0.10559 0.99317 0.24759
 N716 N -0.12117 0.97068 0.24762
 C717 C -0.09107 0.97929 0.28204
 N718 N -0.09017 0.99370 0.26907
 C719 C -0.07887 1.00949 0.27149
 C720 C -0.06771 1.01112 0.28737
 C721 C -0.08012 0.98035 0.29811
 C722 C -0.09946 0.99010 0.20941
 C723 C -0.08915 0.98795 0.19301
 C724 C -0.06033 0.98874 0.21094
 C725 C -0.07119 0.99085 0.22702
 N726 N -0.09040 0.99164 0.22596
 H727 H -0.10043 0.96710 0.28010
 H728 H -0.07866 1.02088 0.26110
 H729 H -0.05882 1.02377 0.28923
 H730 H -0.08098 0.96888 0.30842
 H731 H -0.11475 0.99042 0.20901
 H732 H -0.09654 0.98680 0.17991
 H733 H -0.04505 0.98817 0.21193
 H734 H -0.06426 0.99161 0.24032
 C735 C -0.14230 0.93681 0.24580
 C736 C -0.13919 1.05198 0.25047
 C737 C -0.06940 0.98725 0.19378
 C738 C -0.06836 0.99642 0.30080
 C739 C 0.36763 0.52178 -0.23700
 H740 H 0.36667 0.51116 -0.22593
 C741 C 0.35787 0.53952 -0.23561
 H742 H 0.34923 0.54249 -0.22352
 C743 C 0.38056 0.53120 -0.26598
 H744 H 0.38976 0.52812 -0.27758
 C745 C 0.37105 0.54912 -0.26512
 H746 H 0.37277 0.55966 -0.27619
 N747 N 0.37867 0.51792 -0.25204
 C748 C 0.38706 0.45346 -0.25317
 H749 H 0.40235 0.45294 -0.25348
 C750 C 0.37716 0.43694 -0.25414
 H751 H 0.38445 0.42305 -0.25517
 C752 C 0.35913 0.47319 -0.25170
 H753 H 0.35221 0.48726 -0.25121
 C754 C 0.34761 0.45528 -0.25265
 H755 H 0.33232 0.45648 -0.25249
 Zn756 Zn 0.39317 0.49445 -0.25190
 N757 N 0.37753 0.47202 -0.25183
 C758 C 0.40742 0.48068 -0.21733
 N759 N 0.40845 0.49504 -0.23035
 C760 C 0.41981 0.51078 -0.22792
 C761 C 0.43092 0.51240 -0.21201
 C762 C 0.41831 0.48174 -0.20123
 C763 C 0.39954 0.49102 -0.29001
 C764 C 0.40996 0.48864 -0.30632
 C765 C 0.43865 0.48938 -0.28820
 C766 C 0.42769 0.49174 -0.27222
 N767 N 0.40850 0.49266 -0.27341
 H768 H 0.39801 0.46853 -0.21929
 H769 H 0.42013 0.52213 -0.23836
 H770 H 0.43987 0.52500 -0.21016
 H771 H 0.41736 0.47030 -0.19089
 H772 H 0.38427 0.49145 -0.29053
 H773 H 0.40271 0.48741 -0.31947
 H774 H 0.45391 0.48870 -0.28716
 H775 H 0.43454 0.49256 -0.25888
 C776 C 0.35628 0.43786 -0.25388
 C777 C 0.35968 0.55337 -0.24975
 C778 C 0.42969 0.48780 -0.30540
 C779 C 0.43014 0.49774 -0.19854
 C780 C 0.63594 -0.02335 -0.23353
 H781 H 0.63635 -0.01194 -0.22320
 C782 C 0.64608 -0.03971 -0.23112
 H783 H 0.65477 -0.04147 -0.21887
 C784 C 0.62325 -0.03447 -0.26228
 H785 H 0.61388 -0.03273 -0.27397
 C786 C 0.63429 -0.05273 -0.26023
 H787 H 0.63318 -0.06392 -0.27076
 N788 N 0.62421 -0.02091 -0.24967
 C789 C 0.61348 0.04201 -0.25332
 H790 H 0.59819 0.04210 -0.25329
 C791 C 0.62332 0.05950 -0.25536
 H792 H 0.61555 0.07310 -0.25675
 C793 C 0.64224 0.02412 -0.25206
 H794 H 0.64955 0.01027 -0.25115
 C795 C 0.65264 0.04128 -0.25407
 H796 H 0.66794 0.04056 -0.25446
 Zn797 Zn 0.60844 0.00162 -0.25059
 N798 N 0.62301 0.02479 -0.25164
 C799 C 0.59326 0.01564 -0.21631
 N800 N 0.59324 0.00092 -0.22895
 C801 C 0.58300 -0.01555 -0.22609
 C802 C 0.57205 -0.01763 -0.21010
 C803 C 0.58247 0.01415 -0.20012
 C804 C 0.60169 0.00269 -0.28882
 C805 C 0.59104 0.00375 -0.30509
 C806 C 0.56257 0.00271 -0.28659
 C807 C 0.57375 0.00166 -0.27065
 N808 N 0.59296 0.00154 -0.27204
 H809 H 0.60180 0.02842 -0.21864
 H810 H 0.58348 -0.02714 -0.23622
 H811 H 0.56402 -0.03083 -0.20791
 H812 H 0.58262 0.02585 -0.19006
 H813 H 0.61696 0.00293 -0.28951
 H814 H 0.59812 0.00466 -0.31838
 H815 H 0.54731 0.00282 -0.28537
 H816 H 0.56705 0.00125 -0.25720
 C817 C 0.64309 0.05915 -0.25580
 C818 C 0.64513 -0.05533 -0.24517
 C819 C 0.57130 0.00380 -0.30396
 C820 C 0.57180 -0.00266 -0.19698
 C821 C 0.02637 0.26304 0.85471
 H822 H 0.01824 0.27628 0.85260
 C823 C 0.04330 0.26024 0.84524
 H824 H 0.04830 0.27132 0.83573
 C825 C 0.03018 0.23273 0.87028
 H826 H 0.02519 0.22230 0.88037
 C827 C 0.04726 0.22936 0.86110
 H828 H 0.05540 0.21628 0.86402
 N829 N 0.02016 0.24935 0.86688
 C830 C -0.03978 0.26041 0.87173
 H831 H -0.04091 0.26222 0.88658
 C832 C -0.05592 0.26120 0.86074
 H833 H -0.06963 0.26361 0.86708
 C834 C -0.02058 0.25447 0.84529
 H835 H -0.00684 0.25144 0.83940
 C836 C -0.03638 0.25512 0.83378
 H837 H -0.03481 0.25274 0.81902
 Zn838 Zn -0.00191 0.25554 0.87999
 N839 N -0.02257 0.25725 0.86386
 C840 C -0.00863 0.29532 0.88678
 N841 N 0.00230 0.27966 0.89139
 C842 C 0.01766 0.28146 0.90257
 C843 C 0.02253 0.29966 0.90966
 C844 C -0.00428 0.31372 0.89356
 C845 C -0.01257 0.21858 0.88990
 C846 C -0.01673 0.20292 0.90143
 C847 C -0.01076 0.22346 0.92799
 C848 C -0.00679 0.23885 0.91591
 N849 N -0.00743 0.23598 0.89726
 H850 H -0.02039 0.29371 0.87741
 H851 H 0.02636 0.26882 0.90558
 H852 H 0.03486 0.30112 0.91842
 H853 H -0.01292 0.32618 0.88970
 H854 H -0.01316 0.21687 0.87501
 H855 H -0.02037 0.18895 0.89546
 H856 H -0.00973 0.22556 0.94283
 H857 H -0.00299 0.25293 0.92140
 C858 C -0.05415 0.25851 0.84164
 C859 C 0.05384 0.24332 0.84856
 C860 C -0.01563 0.20534 0.92060
 C861 C 0.01150 0.31589 0.90495
 C862 C 0.47450 0.25821 0.15236
 H863 H 0.48288 0.27132 0.15318
 C864 C 0.45745 0.25702 0.16189
 H865 H 0.45258 0.26923 0.17016
 C866 C 0.47027 0.22644 0.14005
 H867 H 0.47516 0.21477 0.13120
 C868 C 0.45307 0.22465 0.14935
 H869 H 0.44475 0.21155 0.14780
 N870 N 0.48057 0.24302 0.14180
 C871 C 0.54071 0.25134 0.13703
 H872 H 0.54205 0.25160 0.12209
 C873 C 0.55675 0.25231 0.14809
 H874 H 0.57059 0.25333 0.14172
 C875 C 0.52107 0.24887 0.16365
 H876 H 0.50719 0.24703 0.16959
 C877 C 0.53679 0.24976 0.17524
 H878 H 0.53503 0.24875 0.19013
 Zn879 Zn 0.50302 0.24685 0.12862
 N880 N 0.52335 0.24973 0.14493
 C881 C 0.51076 0.28527 0.11760
 N882 N 0.49966 0.26952 0.11443
 C883 C 0.48473 0.27040 0.10258
 C884 C 0.48043 0.28778 0.09336
 C885 C 0.50698 0.30286 0.10867
 C886 C 0.51282 0.20853 0.12331
 C887 C 0.51746 0.19158 0.11376
 C888 C 0.51390 0.20929 0.08491
 C889 C 0.50933 0.22600 0.09505
 N890 N 0.50862 0.22517 0.11388
 H891 H 0.52216 0.28447 0.12749
 H892 H 0.47590 0.25774 0.10070
 H893 H 0.46837 0.28856 0.08415
 H894 H 0.51568 0.31546 0.11148
 H895 H 0.51240 0.20847 0.13830
 H896 H 0.52044 0.17827 0.12136
 H897 H 0.51413 0.20981 0.06991
 H898 H 0.50633 0.23953 0.08791
 C899 C 0.55473 0.25141 0.16732
 C900 C 0.44666 0.24013 0.16030
 C901 C 0.51791 0.19197 0.09443
 C902 C 0.49160 0.30414 0.09663
 C903 C -0.02647 0.75982 0.65129
 H904 H -0.01806 0.77293 0.65182
 C905 C -0.04257 0.75873 0.66083
 H906 H -0.04727 0.77097 0.66915
 C907 C -0.03008 0.72770 0.63892
 H908 H -0.02543 0.71598 0.63002
 C909 C -0.04798 0.72584 0.64922
 H910 H -0.05622 0.71264 0.64792
 N911 N -0.02027 0.74365 0.64017
 C912 C 0.03968 0.75219 0.63401
 H913 H 0.04071 0.75231 0.61905
 C914 C 0.05595 0.75315 0.64475
 H915 H 0.06966 0.75405 0.63811
 C916 C 0.02057 0.75000 0.66102
 H917 H 0.00680 0.74824 0.66725
 C918 C 0.03652 0.75091 0.67230
 H919 H 0.03505 0.75001 0.68722
 Zn920 Zn 0.00182 0.74755 0.62643
 N921 N 0.02247 0.75070 0.64226
 C922 C 0.00904 0.78589 0.61496
 N923 N -0.00207 0.77006 0.61218
 C924 C -0.01737 0.77082 0.60079
 C925 C -0.02213 0.78818 0.59175
 C926 C 0.00482 0.80345 0.60619
 C927 C 0.01193 0.70936 0.62125
 C928 C 0.01669 0.69241 0.61177
 C929 C 0.01230 0.70979 0.58283
 C930 C 0.00763 0.72650 0.59291
 N931 N 0.00729 0.72583 0.61175
 H932 H 0.02077 0.78517 0.62449
 H933 H -0.02618 0.75809 0.59921
 H934 H -0.03453 0.78889 0.58297
 H935 H 0.01351 0.81612 0.60875
 H936 H 0.01181 0.70943 0.63624
 H937 H 0.02003 0.67922 0.61942
 H938 H 0.01225 0.71016 0.56782
 H939 H 0.00428 0.73992 0.58572
 C940 C 0.05431 0.75239 0.66402
 C941 C -0.05394 0.74081 0.65965
 C942 C 0.01679 0.69264 0.59243
 C943 C -0.01100 0.80463 0.59470
 C944 C 0.52557 0.76137 0.35444
 H945 H 0.51747 0.77458 0.35211
 C946 C 0.54273 0.75858 0.34537
 H947 H 0.54794 0.76964 0.33594
 C948 C 0.52911 0.73115 0.37023
 H949 H 0.52394 0.72077 0.38027
 C950 C 0.54641 0.72779 0.36145
 H951 H 0.55452 0.71475 0.36461
 N952 N 0.51914 0.74775 0.36657
 C953 C 0.45923 0.75944 0.37071
 H954 H 0.45798 0.76153 0.38552
 C955 C 0.44322 0.76028 0.35955
 H956 H 0.42949 0.76303 0.36571
 C957 C 0.47862 0.75274 0.34456
 H958 H 0.49238 0.74941 0.33886
 C959 C 0.46294 0.75342 0.33289
 H960 H 0.46462 0.75075 0.31818
 Zn961 Zn 0.49695 0.75414 0.37941
 N962 N 0.47647 0.75588 0.36306
 C963 C 0.49058 0.79406 0.38585
 N964 N 0.50124 0.77830 0.39072
 C965 C 0.51644 0.77997 0.40213
 C966 C 0.52140 0.79814 0.40922
 C967 C 0.49504 0.81245 0.39262
 C968 C 0.48611 0.71725 0.38948
 C969 C 0.48183 0.70169 0.40110
 C970 C 0.48735 0.72254 0.42754
 C971 C 0.49146 0.73781 0.41537
 N972 N 0.49112 0.73473 0.39675
 H973 H 0.47897 0.79256 0.37629
 H974 H 0.52493 0.76724 0.40535
 H975 H 0.53360 0.79948 0.41817
 H976 H 0.48662 0.82499 0.38855
 H977 H 0.48576 0.71537 0.37460
 H978 H 0.47835 0.68764 0.39521
 H979 H 0.48817 0.72479 0.44237
 H980 H 0.49513 0.75195 0.42079
 C981 C 0.44514 0.75722 0.34052
 C982 C 0.55326 0.74173 0.34903
 C983 C 0.48266 0.70432 0.42026
 C984 C 0.51065 0.81449 0.40426
 Zr985 Zr 0.01766 -0.01426 1.02200
 O986 O 0.03682 -0.00451 1.04246
 O987 O 0.01556 -0.04395 1.02833
 O988 O 0.00624 -0.01697 1.04895
 O989 O 0.05139 -0.01802 0.98724
 O990 O -0.02288 -0.00254 1.04668
 O991 O 0.04531 -0.02528 1.01758
 O992 O -0.00648 -0.05505 1.00784
 O993 O -0.01106 -0.01987 1.01763
 O994 O 0.01558 -0.02637 0.99553
 O995 O 0.00378 0.01278 1.02488
 O996 O 0.02976 0.00642 1.00389
 Zr997 Zr -0.01629 0.01613 0.97443
 Zr998 Zr -0.02471 0.00725 1.01909
 Zr999 Zr 0.02609 -0.00540 0.97735
 Zr1000 Zr -0.01302 -0.03093 0.99081
 O1001 O 0.04913 0.01234 0.96955
 O1002 O -0.03881 -0.04214 1.00122
 O1003 O -0.00239 -0.01101 0.97131
 O1004 O -0.02802 -0.00459 0.99257
 O1005 O -0.01430 0.02837 1.00090
 O1006 O 0.01240 0.02162 0.97890
 C1007 C 0.00491 -0.05723 1.02156
 C1008 C 0.05604 -0.02507 1.00313
 C1009 C -0.00977 -0.01145 1.05572
 O1010 O -0.04911 -0.00930 1.02509
 O1011 O -0.04884 0.02267 1.00992
 O1012 O -0.04329 0.02850 0.97922
 C1013 C -0.05349 0.02960 0.99398
 O1014 O 0.03580 0.03577 1.02608
 Zr1015 Zr 0.01444 0.03272 1.00562
 O1016 O -0.01515 0.04615 0.96894
 O1017 O -0.02937 0.03110 1.03711
 O1018 O 0.00440 0.05296 1.02558
 O1019 O 0.03836 0.04621 0.99348
 O1020 O 0.00442 0.05760 0.99153
 C1021 C -0.00685 0.05990 0.97776
 O1022 O -0.03634 0.00673 0.95465
 O1023 O 0.03236 -0.03022 0.96102
 O1024 O -0.00574 0.01686 0.94702
 O1025 O 0.02272 0.00104 0.94906
 O1026 O -0.00190 -0.05302 0.97332
 O1027 O -0.03112 -0.03489 0.96765
 C1028 C 0.00951 0.00968 0.93995
 H1029 H 0.02270 -0.03877 0.99426
 H1030 H -0.04149 -0.00691 0.98966
 H1031 H 0.01768 0.03088 0.96975
 H1032 H 0.00545 0.01806 1.03753
 H1033 H -0.03916 -0.05621 0.99815
 H1034 H -0.05626 -0.00205 1.03471
 H1035 H -0.04151 0.02867 1.04355
 H1036 H 0.01110 0.06542 1.02348
 H1037 H -0.00916 -0.06507 0.97576
 H1038 H 0.04442 -0.02755 0.95451
 H1039 H 0.05635 0.00500 0.96005
 H1040 H 0.03810 0.06011 0.99720
 H1041 H -0.03616 -0.04832 0.96780
 H1042 H -0.04008 0.01828 0.94717
 H1043 H 0.04065 -0.01606 1.04990
 H1044 H 0.03906 0.04971 1.02741
 Zr1045 Zr 0.51754 0.48513 0.52212
 O1046 O 0.53672 0.49485 0.54257
 O1047 O 0.51531 0.45546 0.52849
 O1048 O 0.50609 0.48253 0.54907
 O1049 O 0.55126 0.48112 0.48740
 O1050 O 0.47704 0.49709 0.54677
 O1051 O 0.54512 0.47396 0.51775
 O1052 O 0.49326 0.44442 0.50799
 O1053 O 0.48879 0.47964 0.51776
 O1054 O 0.51541 0.47298 0.49567
 O1055 O 0.50377 0.51225 0.52495
 O1056 O 0.52973 0.50572 0.50399
 Zr1057 Zr 0.48375 0.51557 0.47449
 Zr1058 Zr 0.47526 0.50683 0.51917
 Zr1059 Zr 0.52603 0.49386 0.47746
 Zr1060 Zr 0.48679 0.46855 0.49095
 O1061 O 0.54916 0.51147 0.46964
 O1062 O 0.46096 0.45748 0.50141
 O1063 O 0.49752 0.48836 0.47143
 O1064 O 0.47190 0.49495 0.49266
 O1065 O 0.48577 0.52785 0.50094
 O1066 O 0.51245 0.52094 0.47895
 C1067 C 0.50464 0.44221 0.52171
 C1068 C 0.55587 0.47407 0.50331
 C1069 C 0.49011 0.48814 0.55583
 O1070 O 0.45078 0.49042 0.52518
 O1071 O 0.45123 0.52237 0.50995
 O1072 O 0.45681 0.52808 0.47923
 C1073 C 0.44661 0.52928 0.49399
 O1074 O 0.53593 0.53507 0.52608
 Zr1075 Zr 0.51453 0.53209 0.50565
 O1076 O 0.48496 0.54557 0.46897
 O1077 O 0.47069 0.53074 0.53714
 O1078 O 0.50463 0.55241 0.52561
 O1079 O 0.53846 0.54548 0.49344
 O1080 O 0.50451 0.55701 0.49158
 C1081 C 0.49324 0.55931 0.47781
 O1082 O 0.46366 0.50620 0.45472
 O1083 O 0.53220 0.46897 0.46118
 O1084 O 0.49431 0.51619 0.44708
 O1085 O 0.52269 0.50024 0.44916
 O1086 O 0.49780 0.44637 0.47348
 O1087 O 0.46866 0.46463 0.46781
 C1088 C 0.50952 0.50892 0.44003
 H1089 H 0.52248 0.46055 0.49443
 H1090 H 0.45843 0.49270 0.48975
 H1091 H 0.51776 0.53017 0.46978
 H1092 H 0.50546 0.51754 0.53759
 H1093 H 0.46055 0.44340 0.49838
 H1094 H 0.44366 0.49772 0.53478
 H1095 H 0.45854 0.52838 0.54357
 H1096 H 0.51140 0.56483 0.52348
 H1097 H 0.49048 0.43437 0.47594
 H1098 H 0.54428 0.47157 0.45468
 H1099 H 0.55636 0.50406 0.46017
 H1100 H 0.53824 0.55939 0.49711
 H1101 H 0.46353 0.45123 0.46800
 H1102 H 0.45998 0.51775 0.44721
 H1103 H 0.54050 0.48330 0.55004
 H1104 H 0.53931 0.54900 0.52733
 Zr1105 Zr 0.48215 1.01785 0.52432
 O1106 O 0.46329 1.00244 0.54173
 O1107 O 0.48183 1.04561 0.53622
 O1108 O 0.49285 1.01573 0.55161
 O1109 O 0.44933 1.02760 0.48981
 O1110 O 0.52289 1.00403 0.54759
 O1111 O 0.45402 1.02796 0.52114
 O1112 O 0.50357 1.06236 0.51911
 O1113 O 0.51054 1.02606 0.52215
 O1114 O 0.48417 1.03563 0.50082
 O1115 O 0.49763 0.99164 0.52248
 O1116 O 0.47189 1.00089 0.50217
 Zr1117 Zr 0.51912 1.00074 0.47315
 Zr1118 Zr 0.52581 1.00006 0.51885
 Zr1119 Zr 0.47547 1.01854 0.47862
 Zr1120 Zr 0.51251 1.04288 0.49816
 O1121 O 0.45338 1.00174 0.46721
 O1122 O 0.53707 1.05304 0.51180
 O1123 O 0.50365 1.02713 0.47476
 O1124 O 0.52910 1.01765 0.49532
 O1125 O 0.51726 0.98280 0.49658
 O1126 O 0.49075 0.99266 0.47558
 C1127 C 0.49155 1.06082 0.53242
 C1128 C 0.44381 1.03061 0.50656
 C1129 C 0.50911 1.01012 0.55769
 O1130 O 0.54928 1.01619 0.52831
 O1131 O 0.55070 0.98770 0.50779
 O1132 O 0.54645 0.98852 0.47642
 C1133 C 0.55610 0.98440 0.49106
 O1134 O 0.46755 0.96656 0.51826
 Zr1135 Zr 0.48881 0.97572 0.49938
 O1136 O 0.51980 0.97286 0.46150
 O1137 O 0.53131 0.97334 0.53259
 O1138 O 0.50034 0.95224 0.51493
 O1139 O 0.46575 0.96376 0.48459
 O1140 O 0.50018 0.95542 0.48037
 C1141 C 0.51176 0.95707 0.46671
 O1142 O 0.53896 1.01586 0.45660
 O1143 O 0.46861 1.04596 0.46682
 O1144 O 0.50907 1.00454 0.44578
 O1145 O 0.47953 1.01758 0.44975
 O1146 O 0.50067 1.06763 0.48473
 O1147 O 0.53118 1.05304 0.47721
 C1148 C 0.49329 1.01143 0.43964
 H1149 H 0.47633 1.04760 0.50165
 H1150 H 0.54249 1.02125 0.49339
 H1151 H 0.48612 0.98524 0.46477
 H1152 H 0.49602 0.98366 0.53381
 H1153 H 0.53654 1.06748 0.51169
 H1154 H 0.55656 1.00747 0.53666
 H1155 H 0.54320 0.97503 0.53964
 H1156 H 0.49474 0.94006 0.51011
 H1157 H 0.50698 1.07931 0.48982
 H1158 H 0.45684 1.04416 0.45961
 H1159 H 0.44601 1.01055 0.45901
 H1160 H 0.46686 0.94937 0.48544
 H1161 H 0.53539 1.06639 0.48030
 H1162 H 0.54368 1.00655 0.44714
 H1163 H 0.45852 1.01180 0.55112
 H1164 H 0.46574 0.95230 0.51712
 Zr1165 Zr -0.01748 0.51927 1.02501
 O1166 O -0.03634 0.50388 1.04244
 O1167 O -0.01772 0.54700 1.03697
 O1168 O -0.00674 0.51703 1.05228
 O1169 O -0.05036 0.52912 0.99057
 O1170 O 0.02328 0.50529 1.04819
 O1171 O -0.04562 0.52940 1.02190
 O1172 O 0.00401 0.56375 1.01986
 O1173 O 0.01092 0.52742 1.02282
 O1174 O -0.01548 0.53709 1.00155
 O1175 O -0.00205 0.49303 1.02310
 O1176 O -0.02781 0.50237 1.00285
 Zr1177 Zr 0.01935 0.50220 0.97375
 Zr1178 Zr 0.02614 0.50141 1.01943
 Zr1179 Zr -0.02425 0.52006 0.97932
 Zr1180 Zr 0.01287 0.54430 0.99885
 O1181 O -0.04639 0.50333 0.96792
 O1182 O 0.03748 0.55436 1.01246
 O1183 O 0.00394 0.52861 0.97543
 O1184 O 0.02942 0.51904 0.99592
 O1185 O 0.01751 0.48421 0.99715
 O1186 O -0.00902 0.49416 0.97622
 C1187 C -0.00798 0.56220 1.03319
 C1188 C -0.05586 0.53207 1.00733
 C1189 C 0.00952 0.51137 1.05833
 O1190 O 0.04966 0.51748 1.02887
 O1191 O 0.05098 0.48900 1.00828
 O1192 O 0.04666 0.48991 0.97692
 C1193 C 0.05633 0.48571 0.99153
 O1194 O -0.03222 0.46805 1.01888
 Zr1195 Zr -0.01095 0.47718 0.99999
 O1196 O 0.01999 0.47433 0.96208
 O1197 O 0.03164 0.47465 1.03311
 O1198 O 0.00055 0.45365 1.01551
 O1199 O -0.03403 0.46525 0.98521
 O1200 O 0.00039 0.45688 0.98097
 C1201 C 0.01196 0.45853 0.96730
 O1202 O 0.03917 0.51733 0.95718
 O1203 O -0.03107 0.54751 0.96758
 O1204 O 0.00925 0.50601 0.94641
 O1205 O -0.02026 0.51911 0.95044
 O1206 O 0.00105 0.56911 0.98551
 O1207 O 0.03150 0.55447 0.97788
 C1208 C -0.00654 0.51293 0.94030
 H1209 H -0.02330 0.54907 1.00241
 H1210 H 0.04281 0.52262 0.99398
 H1211 H -0.01368 0.48675 0.96541
 H1212 H -0.00365 0.48503 1.03442
 H1213 H 0.03698 0.56880 1.01239
 H1214 H 0.05695 0.50872 1.03718
 H1215 H 0.04355 0.47631 1.04013
 H1216 H -0.00508 0.44149 1.01069
 H1217 H 0.00742 0.58076 0.99060
 H1218 H -0.04286 0.54576 0.96039
 H1219 H -0.05376 0.51217 0.95975
 H1220 H -0.03294 0.45087 0.98606
 H1221 H 0.03577 0.56778 0.98100
 H1222 H 0.04386 0.50803 0.94770
 H1223 H -0.04108 0.51324 1.05186
 H1224 H -0.03404 0.45380 1.01775
 Zr1225 Zr -0.01612 0.48298 0.47606
 O1226 O -0.03497 0.49588 0.45676
 O1227 O -0.01609 0.45374 0.46773
 O1228 O -0.00513 0.48201 0.44879
 O1229 O -0.04943 0.47784 0.51103
 O1230 O 0.02463 0.49436 0.45172
 O1231 O -0.04417 0.47337 0.48006
 O1232 O 0.00526 0.43933 0.48724
 O1233 O 0.01234 0.47511 0.47943
 O1234 O -0.01425 0.46846 0.50151
 O1235 O -0.00101 0.50929 0.47511
 O1236 O -0.02693 0.50269 0.49594
 Zr1237 Zr 0.01986 0.50656 0.52527
 Zr1238 Zr 0.02722 0.50141 0.47993
 Zr1239 Zr -0.02354 0.48825 0.52142
 Zr1240 Zr 0.01412 0.46159 0.50530
 O1241 O -0.04583 0.50656 0.53060
 O1242 O 0.03876 0.44967 0.49283
 O1243 O 0.00469 0.48020 0.52654
 O1244 O 0.03038 0.48697 0.50534
 O1245 O 0.01813 0.52137 0.49994
 O1246 O -0.00856 0.51432 0.52170
 C1247 C -0.00664 0.43904 0.47381
 C1248 C -0.05460 0.47263 0.49469
 C1249 C 0.01102 0.48720 0.44221
 O1250 O 0.05085 0.48407 0.47245
 O1251 O 0.05190 0.51492 0.48978
 O1252 O 0.04711 0.51820 0.52094
 C1253 C 0.05699 0.52033 0.50607
 O1254 O -0.03155 0.53467 0.47612
 Zr1255 Zr -0.01037 0.52806 0.49607
 O1256 O 0.02005 0.53575 0.53352
 O1257 O 0.03274 0.52637 0.46354
 O1258 O 0.00091 0.54940 0.47793
 O1259 O -0.03369 0.54178 0.50929
 O1260 O 0.00068 0.55073 0.51247
 C1261 C 0.01209 0.55080 0.52633
 O1262 O 0.03971 0.49382 0.54367
 O1263 O -0.03056 0.46257 0.53615
 O1264 O 0.00961 0.50587 0.55281
 O1265 O -0.01975 0.49248 0.55004
 O1266 O 0.00264 0.43889 0.52175
 O1267 O 0.03286 0.45433 0.52729
 C1268 C -0.00609 0.49958 0.55955
 H1269 H -0.02197 0.45649 0.50210
 H1270 H 0.04378 0.48363 0.50780
 H1271 H -0.01336 0.52304 0.53159
 H1272 H -0.00258 0.51582 0.46295
 H1273 H 0.03841 0.43536 0.49469
 H1274 H 0.05820 0.49172 0.46330
 H1275 H 0.04474 0.52382 0.45684
 H1276 H -0.00497 0.56209 0.48120
 H1277 H 0.00923 0.42663 0.51829
 H1278 H -0.04244 0.46536 0.54297
 H1279 H -0.05325 0.49891 0.53967
 H1280 H -0.03274 0.55596 0.50682
 H1281 H 0.03751 0.44079 0.52567
 H1282 H 0.04416 0.50431 0.55202
 H1283 H -0.03948 0.48534 0.44851
 H1284 H -0.03374 0.54894 0.47574
 Zr1285 Zr 0.48398 -0.01601 -0.02441
 O1286 O 0.46519 -0.00267 -0.04349
 O1287 O 0.48412 -0.04502 -0.03337
 O1288 O 0.49508 -0.01648 -0.05165
 O1289 O 0.45059 -0.02193 0.01036
 O1290 O 0.52485 -0.00424 -0.04837
 O1291 O 0.45594 -0.02577 -0.02067
 O1292 O 0.50546 -0.05984 -0.01413
 O1293 O 0.51243 -0.02394 -0.02108
 O1294 O 0.48578 -0.03108 0.00076
 O1295 O 0.49909 0.01031 -0.02482
 O1296 O 0.47311 0.00328 -0.00418
 Zr1297 Zr 0.51981 0.00652 0.02536
 Zr1298 Zr 0.52731 0.00233 -0.02005
 Zr1299 Zr 0.47643 -0.01171 0.02102
 Zr1300 Zr 0.51414 -0.03803 0.00451
 O1301 O 0.45409 0.00639 0.03046
 O1302 O 0.53889 -0.04964 -0.00799
 O1303 O 0.50464 -0.01986 0.02608
 O1304 O 0.53039 -0.01265 0.00510
 O1305 O 0.51816 0.02186 0.00031
 O1306 O 0.49140 0.01436 0.02185
 C1307 C 0.49364 -0.05983 -0.02764
 C1308 C 0.44547 -0.02683 -0.00608
 C1309 C 0.51128 -0.01124 -0.05806
 O1310 O 0.55099 -0.01482 -0.02776
 O1311 O 0.55195 0.01562 -0.00987
 O1312 O 0.54709 0.01821 0.02133
 C1313 C 0.55701 0.02066 0.00653
 O1314 O 0.46854 0.03566 -0.02340
 Zr1315 Zr 0.48968 0.02864 -0.00352
 O1316 O 0.52004 0.03555 0.03412
 O1317 O 0.53284 0.02761 -0.03597
 O1318 O 0.50094 0.05036 -0.02126
 O1319 O 0.46634 0.04207 0.00995
 O1320 O 0.50076 0.05098 0.01328
 C1321 C 0.51215 0.05077 0.02716
 O1322 O 0.53958 -0.00660 0.04361
 O1323 O 0.46940 -0.03769 0.03526
 O1324 O 0.50945 0.00530 0.05284
 O1325 O 0.48011 -0.00806 0.04973
 O1326 O 0.50255 -0.06113 0.02036
 O1327 O 0.53269 -0.04574 0.02652
 C1328 C 0.49373 -0.00113 0.05941
 H1329 H 0.47807 -0.04307 0.00107
 H1330 H 0.54378 -0.01605 0.00753
 H1331 H 0.48658 0.02288 0.03188
 H1332 H 0.49757 0.01708 -0.03686
 H1333 H 0.53853 -0.06399 -0.00642
 H1334 H 0.55836 -0.00699 -0.03675
 H1335 H 0.54486 0.02520 -0.04269
 H1336 H 0.49503 0.06297 -0.01776
 H1337 H 0.50920 -0.07329 0.01669
 H1338 H 0.45750 -0.03506 0.04208
 H1339 H 0.44664 -0.00146 0.03936
 H1340 H 0.46731 0.05630 0.00779
 H1341 H 0.53738 -0.05923 0.02466
 H1342 H 0.54400 0.00372 0.05216
 H1343 H 0.46071 -0.01302 -0.05197
 H1344 H 0.46625 0.04992 -0.02341
 Zr1345 Zr 0.51533 0.51045 -0.02508
 O1346 O 0.53499 0.49654 -0.04291
 O1347 O 0.51423 0.53867 -0.03606
 O1348 O 0.50488 0.50903 -0.05246
 O1349 O 0.54765 0.51971 0.00986
 O1350 O 0.47539 0.49611 -0.04902
 O1351 O 0.54296 0.52147 -0.02144
 O1352 O 0.49169 0.55381 -0.01842
 O1353 O 0.48659 0.51758 -0.02270
 O1354 O 0.51248 0.52709 -0.00098
 O1355 O 0.50100 0.48368 -0.02423
 O1356 O 0.52629 0.49285 -0.00354
 Zr1357 Zr 0.47902 0.48984 0.02529
 Zr1358 Zr 0.47246 0.49098 -0.02042
 Zr1359 Zr 0.52189 0.50931 0.02060
 Zr1360 Zr 0.48383 0.53323 0.00189
 O1361 O 0.54459 0.49269 0.03153
 O1362 O 0.45876 0.54321 -0.01121
 O1363 O 0.49334 0.51675 0.02469
 O1364 O 0.46837 0.50738 0.00372
 O1365 O 0.48169 0.47301 0.00124
 O1366 O 0.50773 0.48283 0.02269
 C1367 C 0.50370 0.55327 -0.03180
 C1368 C 0.55304 0.52375 -0.00673
 C1369 C 0.48894 0.50306 -0.05883
 O1370 O 0.44850 0.50686 -0.02961
 O1371 O 0.44787 0.47776 -0.00990
 O1372 O 0.45207 0.47725 0.02149
 C1373 C 0.44250 0.47373 0.00670
 O1374 O 0.53217 0.45948 -0.02083
 Zr1375 Zr 0.51046 0.46704 -0.00171
 O1376 O 0.47954 0.46141 0.03583
 O1377 O 0.46805 0.46460 -0.03489
 O1378 O 0.50006 0.44391 -0.01818
 O1379 O 0.53399 0.45523 0.01275
 O1380 O 0.49998 0.44550 0.01644
 C1381 C 0.48830 0.44614 0.03009
 O1382 O 0.45853 0.50341 0.04245
 O1383 O 0.52764 0.53639 0.03335
 O1384 O 0.48878 0.49296 0.05281
 O1385 O 0.51772 0.50717 0.04938
 O1386 O 0.49466 0.55778 0.01610
 O1387 O 0.46486 0.54175 0.02330
 C1388 C 0.50417 0.50026 0.05922
 H1389 H 0.51977 0.53935 -0.00137
 H1390 H 0.45484 0.51051 0.00572
 H1391 H 0.51263 0.47511 0.03327
 H1392 H 0.50300 0.47625 -0.03583
 H1393 H 0.45863 0.55764 -0.01048
 H1394 H 0.44159 0.49827 -0.03827
 H1395 H 0.45617 0.46624 -0.04200
 H1396 H 0.50621 0.43172 -0.01381
 H1397 H 0.48779 0.56943 0.01145
 H1398 H 0.53944 0.53463 0.04056
 H1399 H 0.55157 0.50135 0.04006
 H1400 H 0.53356 0.44087 0.01134
 H1401 H 0.46011 0.55511 0.02081
 H1402 H 0.45423 0.49349 0.05153
 H1403 H 0.53935 0.50647 -0.05195
 H1404 H 0.53465 0.44527 -0.02018
 Zr1405 Zr 0.01575 1.00984 0.47468
 O1406 O 0.03540 0.99517 0.45741
 O1407 O 0.01531 1.03782 0.46316
 O1408 O 0.00563 1.00806 0.44720
 O1409 O 0.04769 1.01940 0.50987
 O1410 O -0.02411 0.99572 0.45049
 O1411 O 0.04348 1.02049 0.47848
 O1412 O -0.00723 1.05373 0.48018
 O1413 O -0.01292 1.01747 0.47651
 O1414 O 0.01279 1.02705 0.49841
 O1415 O 0.00100 0.98332 0.47585
 O1416 O 0.02614 0.99256 0.49671
 Zr1417 Zr -0.02158 0.99094 0.52494
 Zr1418 Zr -0.02748 0.99116 0.47913
 Zr1419 Zr 0.02164 1.00961 0.52046
 Zr1420 Zr -0.01579 1.03371 0.50074
 O1421 O 0.04395 0.99289 0.53201
 O1422 O -0.04048 1.04375 0.48699
 O1423 O -0.00685 1.01761 0.52400
 O1424 O -0.03167 1.00816 0.50288
 O1425 O -0.01881 0.97356 0.50126
 O1426 O 0.00706 0.98341 0.52288
 C1427 C 0.00499 1.05271 0.46701
 C1428 C 0.05337 1.02298 0.49327
 C1429 C -0.01033 1.00226 0.44073
 O1430 O -0.05116 1.00713 0.46938
 O1431 O -0.05233 0.97840 0.48959
 O1432 O -0.04860 0.97859 0.52104
 C1433 C -0.05796 0.97478 0.50619
 O1434 O 0.03182 0.95876 0.48022
 Zr1435 Zr 0.00990 0.96705 0.49883
 O1436 O -0.02170 0.96274 0.53603
 O1437 O -0.03202 0.96457 0.46504
 O1438 O -0.00054 0.94373 0.48262
 O1439 O 0.03296 0.95514 0.51392
 O1440 O -0.00131 0.94608 0.51716
 C1441 C -0.01319 0.94720 0.53062
 O1442 O -0.04210 1.00526 0.54150
 O1443 O 0.02759 1.03687 0.53277
 O1444 O -0.01215 0.99447 0.55253
 O1445 O 0.01704 1.00815 0.54922
 O1446 O -0.00487 1.05841 0.51464
 O1447 O -0.03498 1.04303 0.52165
 C1448 C 0.00326 1.00165 0.55901
 H1449 H 0.02027 1.03918 0.49789
 H1450 H -0.04519 1.01152 0.50464
 H1451 H 0.01168 0.97584 0.53367
 H1452 H 0.00305 0.97562 0.46442
 H1453 H -0.04039 1.05819 0.48738
 H1454 H -0.05805 0.99846 0.46079
 H1455 H -0.04379 0.96623 0.45776
 H1456 H 0.00537 0.93155 0.48731
 H1457 H -0.01150 1.07006 0.50966
 H1458 H 0.03927 1.03510 0.54017
 H1459 H 0.05094 1.00164 0.54047
 H1460 H 0.03230 0.94076 0.51278
 H1461 H -0.03957 1.05636 0.51875
 H1462 H -0.04669 0.99563 0.55071
 H1463 H 0.04006 1.00482 0.44823
 H1464 H 0.03411 0.94454 0.48121
 Zr1465 Zr 0.73515 0.26030 0.22395
 O1466 O 0.74121 0.27913 0.20144
 O1467 O 0.70620 0.25545 0.22044
 O1468 O 0.73190 0.24631 0.19807
 O1469 O 0.73106 0.29734 0.25634
 O1470 O 0.74872 0.21794 0.20123
 O1471 O 0.72245 0.28807 0.22716
 O1472 O 0.69883 0.23408 0.24364
 O1473 O 0.73253 0.23072 0.23078
 O1474 O 0.72570 0.25931 0.25141
 O1475 O 0.76222 0.24814 0.22006
 O1476 O 0.75529 0.27591 0.23948
 Zr1477 Zr 0.77085 0.23195 0.27147
 Zr1478 Zr 0.75980 0.21895 0.22828
 Zr1479 Zr 0.74622 0.27333 0.26706
 Zr1480 Zr 0.72414 0.23000 0.25852
 O1481 O 0.76183 0.29909 0.27162
 O1482 O 0.71469 0.20204 0.25031
 O1483 O 0.74373 0.24417 0.27562
 O1484 O 0.75067 0.21671 0.25583
 O1485 O 0.78047 0.23285 0.24403
 O1486 O 0.77332 0.26144 0.26447
 C1487 C 0.69467 0.24463 0.22948
 C1488 C 0.72271 0.30022 0.24075
 C1489 C 0.73847 0.23000 0.19192
 O1490 O 0.74546 0.19218 0.22522
 O1491 O 0.77736 0.19623 0.23803
 O1492 O 0.78474 0.20486 0.26771
 C1493 C 0.78560 0.19331 0.25368
 O1494 O 0.78128 0.28294 0.21488
 Zr1495 Zr 0.78184 0.26229 0.23688
 O1496 O 0.80004 0.23595 0.27433
 O1497 O 0.78206 0.21455 0.20909
 O1498 O 0.80070 0.25220 0.21608
 O1499 O 0.79368 0.28882 0.24629
 O1500 O 0.80773 0.25498 0.24946
 C1501 C 0.81191 0.24468 0.26376
 O1502 O 0.76506 0.21228 0.29340
 O1503 O 0.72301 0.27910 0.28481
 O1504 O 0.77265 0.24520 0.29794
 O1505 O 0.75477 0.27289 0.29490
 O1506 O 0.70353 0.24075 0.27734
 O1507 O 0.72364 0.21246 0.28284
 C1508 C 0.76494 0.26090 0.30434
 H1509 H 0.71328 0.26575 0.25323
 H1510 H 0.74983 0.20293 0.25987
 H1511 H 0.78245 0.26835 0.27246
 H1512 H 0.76629 0.24931 0.20697
 H1513 H 0.70139 0.20077 0.25445
 H1514 H 0.75243 0.18463 0.21568
 H1515 H 0.78034 0.20138 0.20375
 H1516 H 0.81220 0.26035 0.21666
 H1517 H 0.69236 0.23214 0.27650
 H1518 H 0.72497 0.29226 0.29011
 H1519 H 0.75482 0.30672 0.28107
 H1520 H 0.80680 0.28939 0.24151
 H1521 H 0.71122 0.20598 0.28389
 H1522 H 0.77707 0.21005 0.30019
 H1523 H 0.72919 0.28149 0.19470
 H1524 H 0.79429 0.28740 0.21224
 Zr1525 Zr 0.76720 0.73743 0.72819
 O1526 O 0.75658 0.71837 0.70769
 O1527 O 0.79546 0.74026 0.72012
 O1528 O 0.76741 0.75060 0.70159
 O1529 O 0.77480 0.70140 0.76123
 O1530 O 0.75285 0.78001 0.70628
 O1531 O 0.77894 0.70909 0.73065
 O1532 O 0.80741 0.76197 0.74097
 O1533 O 0.77229 0.76699 0.73335
 O1534 O 0.78087 0.73877 0.75386
 O1535 O 0.74048 0.75101 0.72791
 O1536 O 0.74901 0.72354 0.74727
 Zr1537 Zr 0.74084 0.76934 0.77932
 Zr1538 Zr 0.74558 0.78023 0.73451
 Zr1539 Zr 0.76242 0.72648 0.77306
 Zr1540 Zr 0.78499 0.76814 0.75939
 O1541 O 0.74662 0.70165 0.78075
 O1542 O 0.79439 0.79517 0.74857
 O1543 O 0.76766 0.75571 0.77990
 O1544 O 0.75902 0.78289 0.76021
 O1545 O 0.72696 0.76808 0.75375
 O1546 O 0.73588 0.73983 0.77398
 C1547 C 0.80879 0.75068 0.72683
 C1548 C 0.78042 0.69751 0.74468
 C1549 C 0.76107 0.76726 0.69599
 O1550 O 0.76029 0.80628 0.72859
 O1551 O 0.73032 0.80389 0.74570
 O1552 O 0.72735 0.79678 0.77651
 C1553 C 0.72456 0.80770 0.76221
 O1554 O 0.71889 0.71743 0.72707
 Zr1555 Zr 0.72305 0.73860 0.74812
 O1556 O 0.71244 0.76704 0.78708
 O1557 O 0.72109 0.78512 0.71829
 O1558 O 0.70164 0.74945 0.73025
 O1559 O 0.71158 0.71297 0.76005
 O1560 O 0.69999 0.74756 0.76460
 C1561 C 0.69867 0.75845 0.77902
 O1562 O 0.75124 0.78940 0.79903
 O1563 O 0.78776 0.72025 0.78754
 O1564 O 0.74215 0.75701 0.80620
 O1565 O 0.75783 0.72814 0.80184
 O1566 O 0.80779 0.75690 0.77530
 O1567 O 0.79024 0.78647 0.78252
 C1568 C 0.74963 0.74098 0.81208
 H1569 H 0.79311 0.73171 0.75408
 H1570 H 0.76106 0.79673 0.76348
 H1571 H 0.72776 0.73366 0.78349
 H1572 H 0.73441 0.74971 0.71562
 H1573 H 0.80824 0.79576 0.75048
 H1574 H 0.75235 0.81383 0.71981
 H1575 H 0.72256 0.79804 0.71231
 H1576 H 0.68990 0.74219 0.73303
 H1577 H 0.81911 0.76476 0.77231
 H1578 H 0.78607 0.70740 0.79360
 H1579 H 0.75462 0.69399 0.78941
 H1580 H 0.69782 0.71309 0.75745
 H1581 H 0.80297 0.79226 0.78132
 H1582 H 0.74064 0.79263 0.80752
 H1583 H 0.76724 0.71508 0.69929
 H1584 H 0.70533 0.71398 0.72647
 Zr1585 Zr 0.23321 0.23109 0.77872
 O1586 O 0.24344 0.21148 0.79913
 O1587 O 0.20485 0.23417 0.78636
 O1588 O 0.23233 0.24369 0.80545
 O1589 O 0.22644 0.19584 0.74507
 O1590 O 0.24692 0.27306 0.80164
 O1591 O 0.22147 0.20303 0.77562
 O1592 O 0.19332 0.25658 0.76572
 O1593 O 0.22822 0.26083 0.77395
 O1594 O 0.22008 0.23316 0.75283
 O1595 O 0.25990 0.24433 0.77981
 O1596 O 0.25180 0.21732 0.75985
 Zr1597 Zr 0.26067 0.26368 0.72868
 Zr1598 Zr 0.25493 0.27378 0.77356
 Zr1599 Zr 0.23897 0.22102 0.73385
 Zr1600 Zr 0.21606 0.26270 0.74769
 O1601 O 0.25510 0.19632 0.72594
 O1602 O 0.20652 0.28971 0.75861
 O1603 O 0.23386 0.25046 0.72740
 O1604 O 0.24206 0.27711 0.74760
 O1605 O 0.27390 0.26170 0.75455
 O1606 O 0.26557 0.23402 0.73361
 C1607 C 0.19169 0.24505 0.77970
 C1608 C 0.22035 0.19175 0.76141
 C1609 C 0.23845 0.26015 0.81149
 O1610 O 0.24011 0.29992 0.77951
 O1611 O 0.27047 0.29746 0.76299
 O1612 O 0.27395 0.29092 0.73213
 C1613 C 0.27649 0.30152 0.74662
 O1614 O 0.28108 0.21003 0.78031
 Zr1615 Zr 0.27774 0.23205 0.75979
 O1616 O 0.28942 0.26144 0.72184
 O1617 O 0.27906 0.27794 0.79036
 O1618 O 0.29862 0.24166 0.77869
 O1619 O 0.28980 0.20692 0.74730
 O1620 O 0.30131 0.24172 0.74463
 C1621 C 0.30305 0.25304 0.73054
 O1622 O 0.25087 0.28431 0.70898
 O1623 O 0.21392 0.21517 0.71891
 O1624 O 0.25960 0.25208 0.70152
 O1625 O 0.24368 0.22345 0.70518
 O1626 O 0.19351 0.25209 0.73130
 O1627 O 0.21130 0.28143 0.72463
 C1628 C 0.25188 0.23645 0.69524
 H1629 H 0.20784 0.22629 0.75229
 H1630 H 0.24008 0.29103 0.74448
 H1631 H 0.27391 0.22805 0.72412
 H1632 H 0.26566 0.24268 0.79221
 H1633 H 0.19270 0.29053 0.75647
 H1634 H 0.24787 0.30719 0.78855
 H1635 H 0.27745 0.29076 0.79651
 H1636 H 0.31036 0.23418 0.77612
 H1637 H 0.18218 0.26011 0.73417
 H1638 H 0.21580 0.20244 0.71267
 H1639 H 0.24728 0.18890 0.71707
 H1640 H 0.30345 0.20682 0.75038
 H1641 H 0.19861 0.28748 0.72569
 H1642 H 0.26169 0.28755 0.70079
 H1643 H 0.23262 0.20813 0.80727
 H1644 H 0.29454 0.20605 0.78102
 Zr1645 Zr 0.26779 0.76347 0.26968
 O1646 O 0.25818 0.78283 0.29053
 O1647 O 0.29619 0.75945 0.27695
 O1648 O 0.26825 0.75020 0.29623
 O1649 O 0.27550 0.79937 0.23662
 O1650 O 0.25275 0.72146 0.29184
 O1651 O 0.28008 0.79137 0.26706
 O1652 O 0.30709 0.73735 0.25576
 O1653 O 0.27197 0.73373 0.26434
 O1654 O 0.28086 0.76165 0.24370
 O1655 O 0.24070 0.75105 0.27051
 O1656 O 0.24955 0.77814 0.25105
 Zr1657 Zr 0.23951 0.73283 0.21909
 Zr1658 Zr 0.24488 0.72164 0.26377
 Zr1659 Zr 0.26236 0.77477 0.22497
 Zr1660 Zr 0.28406 0.73213 0.23800
 O1661 O 0.24703 0.80021 0.21757
 O1662 O 0.29298 0.70473 0.24862
 O1663 O 0.26665 0.74536 0.21794
 O1664 O 0.25770 0.71848 0.23777
 O1665 O 0.22617 0.73458 0.24495
 O1666 O 0.23546 0.76251 0.22457
 C1667 C 0.30911 0.74857 0.26985
 C1668 C 0.28150 0.80299 0.25307
 C1669 C 0.26154 0.73382 0.30196
 O1670 O 0.25900 0.69498 0.26932
 O1671 O 0.22880 0.69864 0.25291
 O1672 O 0.22532 0.70595 0.22219
 C1673 C 0.22260 0.69510 0.23654
 O1674 O 0.21989 0.78534 0.27198
 Zr1675 Zr 0.22317 0.76420 0.25070
 O1676 O 0.21110 0.73652 0.21181
 O1677 O 0.22063 0.71775 0.28055
 O1678 O 0.20182 0.75400 0.26888
 O1679 O 0.21229 0.79045 0.23921
 O1680 O 0.19956 0.75651 0.23451
 C1681 C 0.19772 0.74578 0.22004
 O1682 O 0.24887 0.71231 0.19915
 O1683 O 0.28758 0.78008 0.21004
 O1684 O 0.24081 0.74508 0.19218
 O1685 O 0.25729 0.77329 0.19628
 O1686 O 0.30673 0.74244 0.22149
 O1687 O 0.28825 0.71360 0.21476
 C1688 C 0.24866 0.76078 0.18617
 H1689 H 0.29326 0.76824 0.24321
 H1690 H 0.25930 0.70457 0.23444
 H1691 H 0.22737 0.76907 0.21523
 H1692 H 0.23493 0.75256 0.28294
 H1693 H 0.30675 0.70354 0.24631
 H1694 H 0.25103 0.68773 0.27825
 H1695 H 0.22187 0.70475 0.28647
 H1696 H 0.19021 0.76172 0.26636
 H1697 H 0.31789 0.73409 0.22413
 H1698 H 0.28610 0.79300 0.20403
 H1699 H 0.25506 0.80755 0.20876
 H1700 H 0.19860 0.79095 0.24208
 H1701 H 0.30083 0.70726 0.21564
 H1702 H 0.23801 0.70959 0.19088
 H1703 H 0.26912 0.78565 0.29867
 H1704 H 0.20642 0.78923 0.27292
 Zr1705 Zr 0.23418 0.76189 0.72261
 O1706 O 0.24037 0.78071 0.70012
 O1707 O 0.20526 0.75711 0.71898
 O1708 O 0.23091 0.74791 0.69672
 O1709 O 0.23018 0.79896 0.75498
 O1710 O 0.24751 0.71942 0.69994
 O1711 O 0.22155 0.78970 0.72580
 O1712 O 0.19774 0.73575 0.74214
 O1713 O 0.23140 0.73234 0.72946
 O1714 O 0.22468 0.76098 0.75005
 O1715 O 0.26118 0.74957 0.71873
 O1716 O 0.25438 0.77742 0.73814
 Zr1717 Zr 0.26968 0.73339 0.77017
 Zr1718 Zr 0.25859 0.72039 0.72698
 Zr1719 Zr 0.24527 0.77490 0.76572
 Zr1720 Zr 0.22296 0.73168 0.75719
 O1721 O 0.26098 0.80060 0.77024
 O1722 O 0.21340 0.70371 0.74915
 O1723 O 0.24262 0.74576 0.77429
 O1724 O 0.24944 0.71824 0.75454
 O1725 O 0.27932 0.73421 0.74273
 O1726 O 0.27231 0.76286 0.76314
 C1727 C 0.19368 0.74626 0.72792
 C1728 C 0.22184 0.80186 0.73939
 C1729 C 0.23736 0.73154 0.69060
 O1730 O 0.24409 0.69371 0.72398
 O1731 O 0.27606 0.69761 0.73676
 O1732 O 0.28344 0.70622 0.76645
 C1733 C 0.28427 0.69466 0.75242
 O1734 O 0.28038 0.78430 0.71357
 Zr1735 Zr 0.28085 0.76363 0.73556
 O1736 O 0.29891 0.73717 0.77301
 O1737 O 0.28082 0.71582 0.70780
 O1738 O 0.29965 0.75346 0.71474
 O1739 O 0.29288 0.79006 0.74498
 O1740 O 0.30670 0.75612 0.74811
 C1741 C 0.31083 0.74579 0.76240
 O1742 O 0.26375 0.71380 0.79211
 O1743 O 0.22209 0.78078 0.78347
 O1744 O 0.27159 0.74667 0.79660
 O1745 O 0.25385 0.77445 0.79356
 O1746 O 0.20231 0.74262 0.77586
 O1747 O 0.22236 0.71429 0.78160
 C1748 C 0.26397 0.76242 0.80299
 H1749 H 0.21228 0.76746 0.75183
 H1750 H 0.24852 0.70447 0.75859
 H1751 H 0.28148 0.76971 0.77113
 H1752 H 0.26527 0.75070 0.70565
 H1753 H 0.20010 0.70253 0.75328
 H1754 H 0.25102 0.68610 0.71447
 H1755 H 0.27902 0.70265 0.70248
 H1756 H 0.31119 0.76154 0.71532
 H1757 H 0.19111 0.73407 0.77500
 H1758 H 0.22410 0.79392 0.78877
 H1759 H 0.25401 0.80827 0.77967
 H1760 H 0.30600 0.79054 0.74018
 H1761 H 0.20988 0.70793 0.78270
 H1762 H 0.27574 0.71148 0.79892
 H1763 H 0.22838 0.78311 0.69335
 H1764 H 0.29342 0.78869 0.71093
 Zr1765 Zr 0.26565 0.23625 0.22680
 O1766 O 0.25513 0.21734 0.20613
 O1767 O 0.29398 0.23902 0.21895
 O1768 O 0.26614 0.24957 0.20027
 O1769 O 0.27283 0.20004 0.25974
 O1770 O 0.25166 0.27902 0.20498
 O1771 O 0.27728 0.20786 0.22924
 O1772 O 0.30583 0.26060 0.23997
 O1773 O 0.27080 0.26577 0.23213
 O1774 O 0.27911 0.23742 0.25258
 O1775 O 0.23898 0.24994 0.22637
 O1776 O 0.24726 0.22234 0.24568
 Zr1777 Zr 0.23899 0.26802 0.27786
 Zr1778 Zr 0.24413 0.27911 0.23314
 Zr1779 Zr 0.26046 0.22512 0.27158
 Zr1780 Zr 0.28330 0.26675 0.25827
 O1781 O 0.24448 0.20035 0.27908
 O1782 O 0.29286 0.29380 0.24765
 O1783 O 0.26576 0.25429 0.27858
 O1784 O 0.25737 0.28160 0.25896
 O1785 O 0.22532 0.26693 0.25218
 O1786 O 0.23395 0.23857 0.27238
 C1787 C 0.30728 0.24937 0.22579
 C1788 C 0.27859 0.19621 0.24323
 C1789 C 0.25992 0.26630 0.19470
 O1790 O 0.25896 0.30515 0.22746
 O1791 O 0.22884 0.30277 0.24432
 O1792 O 0.22564 0.29554 0.27508
 C1793 C 0.22299 0.30652 0.26080
 O1794 O 0.21736 0.21633 0.22530
 Zr1795 Zr 0.22135 0.23749 0.24640
 O1796 O 0.21048 0.26588 0.28530
 O1797 O 0.21978 0.28414 0.21675
 O1798 O 0.20015 0.24834 0.22827
 O1799 O 0.20961 0.21196 0.25826
 O1800 O 0.19813 0.24668 0.26255
 C1801 C 0.19672 0.25755 0.27697
 O1802 O 0.24927 0.28794 0.29777
 O1803 O 0.28566 0.21868 0.28620
 O1804 O 0.24010 0.25558 0.30471
 O1805 O 0.25575 0.22669 0.30034
 O1806 O 0.30594 0.25534 0.27428
 O1807 O 0.28843 0.28493 0.28152
 C1808 C 0.24755 0.23952 0.31059
 H1809 H 0.29133 0.23032 0.25286
 H1810 H 0.25944 0.29541 0.26231
 H1811 H 0.22573 0.23241 0.28181
 H1812 H 0.23301 0.24872 0.21403
 H1813 H 0.30670 0.29433 0.24966
 H1814 H 0.25110 0.31277 0.21865
 H1815 H 0.22134 0.29708 0.21084
 H1816 H 0.18838 0.24109 0.23092
 H1817 H 0.31730 0.26318 0.27142
 H1818 H 0.28388 0.20581 0.29220
 H1819 H 0.25238 0.19261 0.28776
 H1820 H 0.19589 0.21216 0.25554
 H1821 H 0.30119 0.29069 0.28045
 H1822 H 0.23860 0.29118 0.30618
 H1823 H 0.26585 0.21405 0.19780
 H1824 H 0.20382 0.21282 0.22465
 Zr1825 Zr 0.73300 0.72993 0.27971
 O1826 O 0.74344 0.71038 0.30007
 O1827 O 0.70473 0.73301 0.28759
 O1828 O 0.73219 0.74262 0.30641
 O1829 O 0.72603 0.69462 0.24615
 O1830 O 0.74661 0.77205 0.30241
 O1831 O 0.72125 0.70185 0.27672
 O1832 O 0.69302 0.75541 0.26706
 O1833 O 0.72791 0.75964 0.27489
 O1834 O 0.71969 0.73191 0.25391
 O1835 O 0.75965 0.74326 0.28063
 O1836 O 0.75149 0.71616 0.26076
 Zr1837 Zr 0.76008 0.76247 0.22944
 Zr1838 Zr 0.75456 0.77267 0.27432
 Zr1839 Zr 0.73850 0.71978 0.23483
 Zr1840 Zr 0.71556 0.76142 0.24872
 O1841 O 0.75461 0.69506 0.22693
 O1842 O 0.70600 0.78849 0.25949
 O1843 O 0.73328 0.74919 0.22834
 O1844 O 0.74153 0.77589 0.24843
 O1845 O 0.77346 0.76058 0.25524
 O1846 O 0.76507 0.73283 0.23442
 C1847 C 0.69153 0.74392 0.28109
 C1848 C 0.72004 0.69055 0.26253
 C1849 C 0.73823 0.75916 0.31234
 O1850 O 0.73974 0.79882 0.28022
 O1851 O 0.77006 0.79632 0.26362
 O1852 O 0.77333 0.78973 0.23275
 C1853 C 0.77598 0.80035 0.24720
 O1854 O 0.78088 0.70897 0.28107
 Zr1855 Zr 0.77739 0.73096 0.26054
 O1856 O 0.78880 0.76030 0.22248
 O1857 O 0.77874 0.77693 0.29104
 O1858 O 0.79835 0.74065 0.27933
 O1859 O 0.78948 0.70585 0.24802
 O1860 O 0.80087 0.74068 0.24525
 C1861 C 0.80250 0.75197 0.23113
 O1862 O 0.75007 0.78300 0.20975
 O1863 O 0.71339 0.71388 0.21999
 O1864 O 0.75897 0.75076 0.20232
 O1865 O 0.74313 0.72210 0.20614
 O1866 O 0.69294 0.75057 0.23256
 O1867 O 0.71056 0.78004 0.22563
 C1868 C 0.75129 0.73508 0.19613
 H1869 H 0.70745 0.72502 0.25347
 H1870 H 0.73951 0.78981 0.24528
 H1871 H 0.77337 0.72686 0.22492
 H1872 H 0.76548 0.74166 0.29301
 H1873 H 0.69217 0.78924 0.25742
 H1874 H 0.74753 0.80613 0.28921
 H1875 H 0.77712 0.78975 0.29716
 H1876 H 0.81009 0.73318 0.27671
 H1877 H 0.68156 0.75847 0.23557
 H1878 H 0.71526 0.70115 0.21375
 H1879 H 0.74676 0.68761 0.21810
 H1880 H 0.80314 0.70579 0.25105
 H1881 H 0.69775 0.78583 0.22662
 H1882 H 0.76084 0.78626 0.20150
 H1883 H 0.73268 0.70703 0.30829
 H1884 H 0.79434 0.70502 0.28172
 Zr1885 Zr 0.76830 0.26328 0.77079
 O1886 O 0.75842 0.28267 0.79151
 O1887 O 0.79664 0.25942 0.77831
 O1888 O 0.76860 0.25009 0.79739
 O1889 O 0.77614 0.29909 0.73767
 O1890 O 0.75328 0.22126 0.79295
 O1891 O 0.78050 0.29123 0.76818
 O1892 O 0.80781 0.23730 0.75728
 O1893 O 0.77264 0.23354 0.76558
 O1894 O 0.78159 0.26144 0.74492
 O1895 O 0.74126 0.25073 0.77146
 O1896 O 0.75015 0.27781 0.75198
 Zr1897 Zr 0.74056 0.23235 0.72008
 Zr1898 Zr 0.74562 0.22132 0.76483
 Zr1899 Zr 0.76318 0.27441 0.72601
 Zr1900 Zr 0.78496 0.23191 0.73933
 O1901 O 0.74782 0.29977 0.71843
 O1902 O 0.79392 0.20459 0.75010
 O1903 O 0.76766 0.24499 0.71910
 O1904 O 0.75866 0.21814 0.73894
 O1905 O 0.72701 0.23412 0.74584
 O1906 O 0.73634 0.26203 0.72545
 C1907 C 0.80966 0.24858 0.77135
 C1908 C 0.78200 0.30279 0.75416
 C1909 C 0.76193 0.23370 0.80311
 O1910 O 0.75981 0.19473 0.77055
 O1911 O 0.72973 0.19821 0.75390
 O1912 O 0.72648 0.20542 0.72313
 C1913 C 0.72368 0.19459 0.73748
 O1914 O 0.72032 0.28494 0.77267
 Zr1915 Zr 0.72384 0.26374 0.75148
 O1916 O 0.71220 0.23587 0.71259
 O1917 O 0.72126 0.21737 0.78144
 O1918 O 0.70238 0.25352 0.76953
 O1919 O 0.71293 0.28990 0.73983
 O1920 O 0.70039 0.25588 0.73514
 C1921 C 0.69871 0.24508 0.72069
 O1922 O 0.75020 0.21183 0.70026
 O1923 O 0.78849 0.27975 0.71123
 O1924 O 0.74197 0.24453 0.69315
 O1925 O 0.75830 0.27283 0.69729
 O1926 O 0.80773 0.24228 0.72298
 O1927 O 0.78943 0.21332 0.71618
 C1928 C 0.74978 0.26026 0.68716
 H1929 H 0.79396 0.26808 0.74451
 H1930 H 0.76035 0.20422 0.73566
 H1931 H 0.72829 0.26852 0.71604
 H1932 H 0.73539 0.25225 0.78384
 H1933 H 0.80771 0.20346 0.74791
 H1934 H 0.75179 0.18747 0.77945
 H1935 H 0.72251 0.20440 0.78741
 H1936 H 0.69077 0.26119 0.76691
 H1937 H 0.81891 0.23399 0.72575
 H1938 H 0.78701 0.29265 0.70517
 H1939 H 0.75589 0.30711 0.70966
 H1940 H 0.69921 0.29035 0.74260
 H1941 H 0.80204 0.20707 0.71717
 H1942 H 0.73941 0.20901 0.69193
 H1943 H 0.76928 0.28556 0.79972
 H1944 H 0.70683 0.28879 0.77349
 C1945 C 0.47903 1.01164 0.38482
 C1946 C 0.46940 1.02822 0.37775
 C1947 C 0.46023 1.02727 0.36025
 C1948 C 0.46074 1.00975 0.34991
 C1949 C 0.47124 0.99352 0.35653
 C1950 C 0.48043 0.99448 0.37402
 C1951 C 0.49068 0.97802 0.38043
 C1952 C 0.49189 0.96110 0.36983
 C1953 C 0.48286 0.96012 0.35276
 C1954 C 0.47261 0.97610 0.34613
 C1955 C 0.45047 1.04395 0.35360
 C1956 C 0.44980 1.06109 0.36394
 C1957 C 0.45876 1.06201 0.38104
 C1958 C 0.46845 1.04580 0.38795
 C1959 C 0.44974 1.00816 0.33297
 C1960 C 0.44023 1.00678 0.31916
 C1961 C 0.48579 1.01166 0.40384
 C1962 C 0.49007 1.01160 0.42001
 H1963 H 0.49798 0.97812 0.39361
 H1964 H 0.49991 0.94869 0.37488
 H1965 H 0.48382 0.94693 0.34460
 H1966 H 0.46587 0.97467 0.33274
 H1967 H 0.44333 1.04396 0.34035
 H1968 H 0.44230 1.07372 0.35863
 H1969 H 0.45821 1.07536 0.38901
 H1970 H 0.47527 1.04725 0.40128
 C1971 C -0.02078 0.51294 0.88545
 C1972 C -0.01914 0.49580 0.87466
 C1973 C -0.02819 0.49475 0.85710
 C1974 C -0.03879 0.51088 0.85041
 C1975 C -0.03956 0.52839 0.86076
 C1976 C -0.03054 0.52941 0.87833
 C1977 C -0.03175 0.54698 0.88854
 C1978 C -0.04156 0.56308 0.88158
 C1979 C -0.05037 0.56208 0.86441
 C1980 C -0.04944 0.54497 0.85406
 C1981 C -0.02658 0.47735 0.84670
 C1982 C -0.01624 0.46147 0.85341
 C1983 C -0.00735 0.46252 0.87054
 C1984 C -0.00879 0.47943 0.88114
 C1985 C -0.04961 0.50921 0.83336
 C1986 C -0.05898 0.50777 0.81946
 C1987 C -0.01408 0.51305 0.90449
 C1988 C -0.00979 0.51306 0.92067
 H1989 H -0.02505 0.54849 0.90193
 H1990 H -0.04231 0.57641 0.88956
 H1991 H -0.05796 0.57463 0.85907
 H1992 H -0.05648 0.54491 0.84076
 H1993 H -0.03320 0.47587 0.83327
 H1994 H -0.01510 0.44829 0.84524
 H1995 H 0.00074 0.45019 0.87564
 H1996 H -0.00161 0.47959 0.89437
 C1997 C 0.02134 0.00973 0.88460
 C1998 C 0.03160 0.02513 0.87637
 C1999 C 0.03970 0.02266 0.85848
 C2000 C 0.03747 0.00479 0.84894
 C2001 C 0.02629 -0.01019 0.85673
 C2002 C 0.01818 -0.00770 0.87461
 C2003 C 0.00728 -0.02298 0.88223
 C2004 C 0.00444 -0.04022 0.87245
 C2005 C 0.01239 -0.04265 0.85497
 C2006 C 0.02322 -0.02786 0.84714
 C2007 C 0.05015 0.03816 0.85066
 C2008 C 0.05251 0.05561 0.86022
 C2009 C 0.04459 0.05801 0.87771
 C2010 C 0.03425 0.04298 0.88578
 C2011 C 0.04750 0.00149 0.83164
 C2012 C 0.05634 -0.00105 0.81754
 C2013 C 0.01579 0.01092 0.90396
 C2014 C 0.01226 0.01099 0.92031
 H2015 H 0.00074 -0.02173 0.89575
 H2016 H -0.00397 -0.05174 0.87847
 H2017 H 0.01015 -0.05606 0.84743
 H2018 H 0.02907 -0.03039 0.83348
 H2019 H 0.05655 0.03699 0.83707
 H2020 H 0.06052 0.06733 0.85401
 H2021 H 0.04645 0.07160 0.88507
 H2022 H 0.02828 0.04554 0.89938
 C2023 C 0.52133 0.50878 0.38468
 C2024 C 0.53176 0.52407 0.37647
 C2025 C 0.53988 0.52150 0.35860
 C2026 C 0.53750 0.50366 0.34907
 C2027 C 0.52614 0.48882 0.35682
 C2028 C 0.51801 0.49139 0.37468
 C2029 C 0.50693 0.47624 0.38228
 C2030 C 0.50393 0.45904 0.37249
 C2031 C 0.51188 0.45652 0.35503
 C2032 C 0.52289 0.47119 0.34722
 C2033 C 0.55051 0.53689 0.35079
 C2034 C 0.55301 0.55432 0.36035
 C2035 C 0.54507 0.55682 0.37782
 C2036 C 0.53457 0.54190 0.38587
 C2037 C 0.54759 0.50022 0.33183
 C2038 C 0.55651 0.49756 0.31779
 C2039 C 0.51579 0.51003 0.40403
 C2040 C 0.51227 0.51016 0.42038
 H2041 H 0.50038 0.47757 0.39579
 H2042 H 0.49538 0.44761 0.37849
 H2043 H 0.50951 0.44314 0.34748
 H2044 H 0.52875 0.46859 0.33358
 H2045 H 0.55691 0.53566 0.33722
 H2046 H 0.56115 0.56596 0.35416
 H2047 H 0.54705 0.57039 0.38519
 H2048 H 0.52859 0.54453 0.39946
 C2049 C 0.51786 0.50140 0.11411
 C2050 C 0.52530 0.51899 0.12119
 C2051 C 0.53461 0.51907 0.13863
 C2052 C 0.53643 0.50155 0.14889
 C2053 C 0.52804 0.48419 0.14230
 C2054 C 0.51869 0.48414 0.12486
 C2055 C 0.51057 0.46660 0.11846
 C2056 C 0.51159 0.44959 0.12903
 C2057 C 0.52079 0.44962 0.14604
 C2058 C 0.52897 0.46667 0.15266
 C2059 C 0.54219 0.53677 0.14528
 C2060 C 0.54058 0.55393 0.13501
 C2061 C 0.53147 0.55386 0.11795
 C2062 C 0.52391 0.53663 0.11104
 C2063 C 0.54774 0.50117 0.16569
 C2064 C 0.55753 0.50074 0.17937
 C2065 C 0.51123 0.50069 0.09508
 C2066 C 0.50711 0.50033 0.07887
 H2067 H 0.50324 0.46590 0.10533
 H2068 H 0.50517 0.43634 0.12400
 H2069 H 0.52156 0.43636 0.15418
 H2070 H 0.53592 0.46600 0.16600
 H2071 H 0.54936 0.53756 0.15850
 H2072 H 0.54643 0.56735 0.14031
 H2073 H 0.53025 0.56723 0.11003
 H2074 H 0.51687 0.53732 0.09775
 C2075 C 0.01644 1.00355 0.61400
 C2076 C 0.02427 1.02109 0.62080
 C2077 C 0.03358 1.02125 0.63825
 C2078 C 0.03498 1.00388 0.64880
 C2079 C 0.02614 0.98665 0.64251
 C2080 C 0.01681 0.98650 0.62506
 C2081 C 0.00825 0.96907 0.61896
 C2082 C 0.00881 0.95225 0.62983
 C2083 C 0.01798 0.95237 0.64686
 C2084 C 0.02660 0.96932 0.65319
 C2085 C 0.04157 1.03887 0.64461
 C2086 C 0.04036 1.05587 0.63405
 C2087 C 0.03126 1.05572 0.61699
 C2088 C 0.02330 1.03856 0.61036
 C2089 C 0.04638 1.00349 0.66554
 C2090 C 0.05626 1.00299 0.67915
 C2091 C 0.00993 1.00263 0.59493
 C2092 C 0.00597 1.00204 0.57869
 H2093 H 0.00091 0.96832 0.60583
 H2094 H 0.00206 0.93908 0.62503
 H2095 H 0.01840 0.93926 0.65524
 H2096 H 0.03350 0.96872 0.66655
 H2097 H 0.04874 1.03973 0.65782
 H2098 H 0.04652 1.06924 0.63914
 H2099 H 0.03035 1.06897 0.60885
 H2100 H 0.01629 1.03919 0.59705
 C2101 C -0.01912 0.50176 0.61469
 C2102 C -0.02799 0.51867 0.62194
 C2103 C -0.03663 0.51807 0.63974
 C2104 C -0.03633 0.50056 0.65020
 C2105 C -0.02650 0.48401 0.64340
 C2106 C -0.01787 0.48462 0.62560
 C2107 C -0.00834 0.46780 0.61899
 C2108 C -0.00733 0.45088 0.62968
 C2109 C -0.01577 0.45029 0.64708
 C2110 C -0.02528 0.46662 0.65392
 C2111 C -0.04567 0.53507 0.64656
 C2112 C -0.04613 0.55218 0.63612
 C2113 C -0.03769 0.55277 0.61873
 C2114 C -0.02870 0.53625 0.61165
 C2115 C -0.04694 0.49931 0.66743
 C2116 C -0.05620 0.49835 0.68147
 C2117 C -0.01299 0.50143 0.59545
 C2118 C -0.00909 0.50080 0.57918
 H2119 H -0.00149 0.46761 0.60557
 H2120 H 0.00006 0.43817 0.62444
 H2121 H -0.01493 0.43711 0.65533
 H2122 H -0.03159 0.46548 0.66755
 H2123 H -0.05240 0.53534 0.66004
 H2124 H -0.05309 0.56506 0.64156
 H2125 H -0.03812 0.56609 0.61067
 H2126 H -0.02223 0.53743 0.59809
 C2127 C 0.48037 0.00015 0.11450
 C2128 C 0.47270 0.01739 0.12230
 C2129 C 0.46389 0.01677 0.14002
 C2130 C 0.46280 -0.00110 0.14983
 C2131 C 0.47145 -0.01809 0.14249
 C2132 C 0.48026 -0.01746 0.12477
 C2133 C 0.48856 -0.03470 0.11761
 C2134 C 0.48823 -0.05205 0.12768
 C2135 C 0.47962 -0.05267 0.14500
 C2136 C 0.47128 -0.03593 0.15238
 C2137 C 0.45608 0.03414 0.14741
 C2138 C 0.45695 0.05163 0.13759
 C2139 C 0.46553 0.05223 0.12026
 C2140 C 0.47335 0.03536 0.11263
 C2141 C 0.45197 -0.00222 0.16694
 C2142 C 0.44255 -0.00307 0.18087
 C2143 C 0.48663 0.00009 0.09530
 C2144 C 0.49063 -0.00027 0.07904
 H2145 H 0.49549 -0.03490 0.10423
 H2146 H 0.49469 -0.06509 0.12202
 H2147 H 0.47941 -0.06618 0.15277
 H2148 H 0.46480 -0.03710 0.16593
 H2149 H 0.44930 0.03441 0.16086
 H2150 H 0.45092 0.06479 0.14345
 H2151 H 0.46612 0.06585 0.11267
 H2152 H 0.47998 0.03656 0.09916
 C2153 C 0.39039 0.44792 0.00940
 C2154 C 0.38802 0.42904 0.01702
 C2155 C 0.37014 0.41969 0.01597
 C2156 C 0.35465 0.42929 0.00738
 C2157 C 0.35691 0.44835 0.00015
 C2158 C 0.37480 0.45768 0.00116
 C2159 C 0.37667 0.47669 -0.00627
 C2160 C 0.36134 0.48624 -0.01441
 C2161 C 0.34387 0.47714 -0.01538
 C2162 C 0.34161 0.45842 -0.00821
 C2163 C 0.36822 0.40077 0.02357
 C2164 C 0.38346 0.39139 0.03206
 C2165 C 0.40088 0.40055 0.03316
 C2166 C 0.40324 0.41913 0.02569
 C2167 C 0.33648 0.41949 0.00577
 C2168 C 0.32147 0.41128 0.00435
 C2169 C 0.40897 0.45702 0.00935
 C2170 C 0.42433 0.46462 0.00862
 H2171 H 0.38995 0.48440 -0.00581
 H2172 H 0.36302 0.50079 -0.01999
 H2173 H 0.33201 0.48463 -0.02171
 H2174 H 0.32774 0.45196 -0.00928
 H2175 H 0.35493 0.39305 0.02309
 H2176 H 0.38172 0.37694 0.03786
 H2177 H 0.41262 0.39325 0.03988
 H2178 H 0.41707 0.42566 0.02689
 C2179 C -0.10996 0.94873 0.50893
 C2180 C -0.11235 0.93031 0.51749
 C2181 C -0.13015 0.92076 0.51662
 C2182 C -0.14552 0.92969 0.50722
 C2183 C -0.14323 0.94830 0.49899
 C2184 C -0.12543 0.95783 0.49983
 C2185 C -0.12353 0.97636 0.49139
 C2186 C -0.13874 0.98525 0.48241
 C2187 C -0.15611 0.97596 0.48159
 C2188 C -0.15841 0.95769 0.48976
 C2189 C -0.13209 0.90230 0.52519
 C2190 C -0.11697 0.89357 0.53445
 C2191 C -0.09963 0.90293 0.53537
 C2192 C -0.09725 0.92106 0.52697
 C2193 C -0.16359 0.91968 0.50582
 C2194 C -0.17854 0.91132 0.50456
 C2195 C -0.09147 0.95801 0.50881
 C2196 C -0.07616 0.96570 0.50806
 H2197 H -0.11032 0.98421 0.49169
 H2198 H -0.13703 0.99944 0.47605
 H2199 H -0.16788 0.98293 0.47460
 H2200 H -0.17221 0.95106 0.48876
 H2201 H -0.14531 0.89446 0.52488
 H2202 H -0.11872 0.87947 0.54098
 H2203 H -0.08797 0.89613 0.54268
 H2204 H -0.08349 0.92776 0.52805
 C2205 C -0.10581 0.05572 0.99158
 C2206 C -0.12202 0.04423 0.99505
 C2207 C -0.14028 0.05308 0.99549
 C2208 C -0.14229 0.07340 0.99246
 C2209 C -0.12611 0.08484 0.98869
 C2210 C -0.10784 0.07599 0.98825
 C2211 C -0.09193 0.08777 0.98454
 C2212 C -0.09395 0.10773 0.98139
 C2213 C -0.11177 0.11637 0.98178
 C2214 C -0.12771 0.10513 0.98539
 C2215 C -0.15620 0.04126 0.99905
 C2216 C -0.15419 0.02128 1.00208
 C2217 C -0.13638 0.01264 1.00166
 C2218 C -0.12044 0.02390 0.99820
 C2219 C -0.16093 0.08256 0.99353
 C2220 C -0.17636 0.09021 0.99457
 C2221 C -0.08707 0.04674 0.99194
 C2222 C -0.07165 0.03907 0.99262
 H2223 H -0.07777 0.08171 0.98402
 H2224 H -0.08162 0.11654 0.97864
 H2225 H -0.11325 0.13187 0.97930
 H2226 H -0.14126 0.11252 0.98555
 H2227 H -0.17036 0.04730 0.99950
 H2228 H -0.16653 0.01246 1.00477
 H2229 H -0.13490 -0.00289 1.00402
 H2230 H -0.10689 0.01649 0.99799
 C2231 C 0.39445 0.55568 0.49147
 C2232 C 0.37816 0.54420 0.49461
 C2233 C 0.35994 0.55312 0.49499
 C2234 C 0.35804 0.57350 0.49222
 C2235 C 0.37430 0.58493 0.48879
 C2236 C 0.39253 0.57601 0.48842
 C2237 C 0.40854 0.58779 0.48508
 C2238 C 0.40663 0.60781 0.48222
 C2239 C 0.38883 0.61651 0.48253
 C2240 C 0.37281 0.60528 0.48577
 C2241 C 0.34393 0.54132 0.49823
 C2242 C 0.34584 0.52129 0.50101
 C2243 C 0.36362 0.51258 0.50064
 C2244 C 0.37964 0.52383 0.49749
 C2245 C 0.33942 0.58271 0.49319
 C2246 C 0.32402 0.59039 0.49413
 C2247 C 0.41314 0.54662 0.49188
 C2248 C 0.42851 0.53886 0.49260
 H2249 H 0.42267 0.58168 0.48463
 H2250 H 0.41902 0.61662 0.47977
 H2251 H 0.38743 0.63206 0.48027
 H2252 H 0.35928 0.61272 0.48589
 H2253 H 0.32980 0.54741 0.49863
 H2254 H 0.33344 0.51248 0.50346
 H2255 H 0.36502 0.49701 0.50280
 H2256 H 0.39316 0.51636 0.49731
 C2257 C 0.10838 0.54765 0.50769
 C2258 C 0.10935 0.56786 0.51156
 C2259 C 0.12693 0.57776 0.51014
 C2260 C 0.14349 0.56740 0.50489
 C2261 C 0.14258 0.54711 0.50141
 C2262 C 0.12500 0.53722 0.50281
 C2263 C 0.12448 0.51696 0.49916
 C2264 C 0.14083 0.50675 0.49429
 C2265 C 0.15799 0.51640 0.49294
 C2266 C 0.15894 0.53634 0.49643
 C2267 C 0.12747 0.59798 0.51397
 C2268 C 0.11116 0.60813 0.51908
 C2269 C 0.09401 0.59846 0.52049
 C2270 C 0.09303 0.57857 0.51677
 C2271 C 0.16137 0.57766 0.50286
 C2272 C 0.17608 0.58638 0.50113
 C2273 C 0.09019 0.53779 0.50793
 C2274 C 0.07505 0.52972 0.50752
 H2275 H 0.11147 0.50880 0.50007
 H2276 H 0.14018 0.49125 0.49157
 H2277 H 0.17065 0.50839 0.48916
 H2278 H 0.17262 0.54320 0.49521
 H2279 H 0.14047 0.60614 0.51308
 H2280 H 0.11183 0.62359 0.52199
 H2281 H 0.08140 0.60641 0.52452
 H2282 H 0.07937 0.57169 0.51808
 C2283 C 0.60846 0.04779 0.00863
 C2284 C 0.62502 0.03740 0.00346
 C2285 C 0.64262 0.04725 0.00217
 C2286 C 0.64362 0.06746 0.00604
 C2287 C 0.62713 0.07777 0.01157
 C2288 C 0.60952 0.06791 0.01287
 C2289 C 0.59324 0.07857 0.01831
 C2290 C 0.59430 0.09839 0.02238
 C2291 C 0.61148 0.10801 0.02111
 C2292 C 0.62775 0.09790 0.01577
 C2293 C 0.65891 0.03654 -0.00312
 C2294 C 0.65787 0.01669 -0.00702
 C2295 C 0.64069 0.00707 -0.00577
 C2296 C 0.62441 0.01724 -0.00060
 C2297 C 0.66153 0.07769 0.00404
 C2298 C 0.67628 0.08632 0.00231
 C2299 C 0.59024 0.03799 0.00875
 C2300 C 0.57508 0.02998 0.00819
 H2301 H 0.57956 0.07172 0.01953
 H2302 H 0.58171 0.10631 0.02654
 H2303 H 0.61222 0.12340 0.02430
 H2304 H 0.64079 0.10602 0.01501
 H2305 H 0.67261 0.04337 -0.00428
 H2306 H 0.67048 0.00872 -0.01104
 H2307 H 0.63996 -0.00835 -0.00881
 H2308 H 0.61138 0.00910 0.00022
 C2309 C 0.60784 0.95723 0.48800
 C2310 C 0.61036 0.93952 0.47820
 C2311 C 0.62785 0.92919 0.47937
 C2312 C 0.64278 0.93661 0.49032
 C2313 C 0.64042 0.95458 0.49973
 C2314 C 0.62293 0.96489 0.49857
 C2315 C 0.62093 0.98275 0.50821
 C2316 C 0.63575 0.99021 0.51867
 C2317 C 0.65282 0.98014 0.51979
 C2318 C 0.65520 0.96253 0.51047
 C2319 C 0.62993 0.91147 0.46954
 C2320 C 0.61523 0.90420 0.45879
 C2321 C 0.59819 0.91432 0.45761
 C2322 C 0.59568 0.93175 0.46722
 C2323 C 0.66041 0.92563 0.49223
 C2324 C 0.67499 0.91651 0.49404
 C2325 C 0.58951 0.96707 0.48802
 C2326 C 0.57427 0.97511 0.48886
 H2327 H 0.60795 0.99115 0.50772
 H2328 H 0.63398 1.00390 0.52593
 H2329 H 0.66428 0.98601 0.52794
 H2330 H 0.66875 0.95525 0.51176
 H2331 H 0.64294 0.90310 0.46999
 H2332 H 0.61708 0.89065 0.45132
 H2333 H 0.58685 0.90866 0.44916
 H2334 H 0.58216 0.93910 0.46586
 C2335 C 0.10795 0.45830 0.98805
 C2336 C 0.12318 0.46588 0.99848
 C2337 C 0.14063 0.45548 0.99946
 C2338 C 0.14282 0.43751 0.99001
 C2339 C 0.12776 0.43020 0.97916
 C2340 C 0.11031 0.44063 0.97817
 C2341 C 0.09550 0.43298 0.96726
 C2342 C 0.09786 0.41559 0.95755
 C2343 C 0.11486 0.40537 0.95858
 C2344 C 0.12968 0.41252 0.96925
 C2345 C 0.15556 0.46335 1.01006
 C2346 C 0.15335 0.48098 1.01941
 C2347 C 0.13632 0.49112 1.01846
 C2348 C 0.12136 0.48373 1.00815
 C2349 C 0.16040 0.42642 0.99179
 C2350 C 0.17495 0.41722 0.99352
 C2351 C 0.08965 0.46824 0.98826
 C2352 C 0.07445 0.47634 0.98923
 H2353 H 0.08201 0.44039 0.96604
 H2354 H 0.08645 0.41002 0.94915
 H2355 H 0.11659 0.39185 0.95103
 H2356 H 0.14266 0.40409 0.96958
 H2357 H 0.16910 0.45602 1.01120
 H2358 H 0.16493 0.48679 1.02743
 H2359 H 0.13468 0.50481 1.02575
 H2360 H 0.10840 0.49220 1.00780
 C2361 C -0.01462 0.38581 0.45051
 C2362 C -0.03150 0.38109 0.44108
 C2363 C -0.03320 0.36265 0.43236
 C2364 C -0.01802 0.34916 0.43321
 C2365 C -0.00145 0.35360 0.44327
 C2366 C 0.00027 0.37203 0.45195
 C2367 C 0.01706 0.37629 0.46178
 C2368 C 0.03172 0.36269 0.46300
 C2369 C 0.03003 0.34462 0.45451
 C2370 C 0.01368 0.34005 0.44474
 C2371 C -0.05009 0.35823 0.42283
 C2372 C -0.06493 0.37168 0.42198
 C2373 C -0.06326 0.38974 0.43052
 C2374 C -0.04676 0.39447 0.44000
 C2375 C -0.01871 0.33128 0.42272
 C2376 C -0.01795 0.31660 0.41372
 C2377 C -0.01231 0.40493 0.45847
 C2378 C -0.00988 0.42066 0.46528
 H2379 H 0.01904 0.39014 0.46865
 H2380 H 0.04444 0.36619 0.47057
 H2381 H 0.04144 0.33409 0.45549
 H2382 H 0.01303 0.32577 0.43843
 H2383 H -0.05202 0.34434 0.41602
 H2384 H -0.07778 0.36806 0.41467
 H2385 H -0.07483 0.40012 0.42985
 H2386 H -0.04614 0.40867 0.44648
 C2387 C 0.48646 -0.11206 -0.05316
 C2388 C 0.46896 -0.11735 -0.06111
 C2389 C 0.46726 -0.13552 -0.07032
 C2390 C 0.48307 -0.14818 -0.07145
 C2391 C 0.50046 -0.14306 -0.06313
 C2392 C 0.50216 -0.12491 -0.05396
 C2393 C 0.51971 -0.11999 -0.04583
 C2394 C 0.53512 -0.13268 -0.04676
 C2395 C 0.53346 -0.15048 -0.05575
 C2396 C 0.51637 -0.15569 -0.06387
 C2397 C 0.44970 -0.14054 -0.07829
 C2398 C 0.43422 -0.12791 -0.07718
 C2399 C 0.43588 -0.11011 -0.06817
 C2400 C 0.45302 -0.10481 -0.06018
 C2401 C 0.48194 -0.16612 -0.08183
 C2402 C 0.48231 -0.18096 -0.09061
 C2403 C 0.48850 -0.09334 -0.04431
 C2404 C 0.49069 -0.07791 -0.03682
 H2405 H 0.52171 -0.10631 -0.03866
 H2406 H 0.54843 -0.12869 -0.04047
 H2407 H 0.54547 -0.16031 -0.05644
 H2408 H 0.51580 -0.16972 -0.07066
 H2409 H 0.44775 -0.15425 -0.08542
 H2410 H 0.42087 -0.13197 -0.08333
 H2411 H 0.42383 -0.10035 -0.06734
 H2412 H 0.45362 -0.09084 -0.05326
 C2413 C 0.00488 -0.10894 1.04910
 C2414 C 0.00552 -0.12713 1.03992
 C2415 C 0.00411 -0.14463 1.05034
 C2416 C 0.00207 -0.14372 1.06982
 C2417 C 0.00169 -0.12552 1.07903
 C2418 C 0.00316 -0.10804 1.06862
 C2419 C 0.00283 -0.08996 1.07809
 C2420 C 0.00112 -0.08922 1.09731
 C2421 C -0.00045 -0.10634 1.10751
 C2422 C -0.00017 -0.12432 1.09855
 C2423 C 0.00474 -0.16270 1.04093
 C2424 C 0.00672 -0.16344 1.02172
 C2425 C 0.00810 -0.14630 1.01151
 C2426 C 0.00750 -0.12830 1.02043
 C2427 C 0.00033 -0.16143 1.08051
 C2428 C -0.00112 -0.17576 1.08997
 C2429 C 0.00541 -0.09106 1.03854
 C2430 C 0.00542 -0.07580 1.03039
 H2431 H 0.00396 -0.07622 1.07079
 H2432 H 0.00102 -0.07529 1.10434
 H2433 H -0.00185 -0.10569 1.12244
 H2434 H -0.00139 -0.13723 1.10711
 H2435 H 0.00373 -0.17642 1.04830
 H2436 H 0.00719 -0.17738 1.01473
 H2437 H 0.00964 -0.14694 0.99659
 H2438 H 0.00866 -0.11535 1.01191
 C2439 C 0.50481 0.39026 0.54883
 C2440 C 0.50582 0.37220 0.53944
 C2441 C 0.50472 0.35455 0.54966
 C2442 C 0.50262 0.35518 0.56915
 C2443 C 0.50181 0.37326 0.57856
 C2444 C 0.50295 0.39089 0.56835
 C2445 C 0.50215 0.40885 0.57801
 C2446 C 0.50032 0.40931 0.59723
 C2447 C 0.49910 0.39203 0.60723
 C2448 C 0.49983 0.37417 0.59808
 C2449 C 0.50571 0.33661 0.54005
 C2450 C 0.50775 0.33615 0.52084
 C2451 C 0.50882 0.35345 0.51082
 C2452 C 0.50787 0.37132 0.51994
 C2453 C 0.50128 0.33730 0.57964
 C2454 C 0.50015 0.32287 0.58899
 C2455 C 0.50521 0.40828 0.53849
 C2456 C 0.50516 0.42361 0.53046
 H2457 H 0.50301 0.42270 0.57086
 H2458 H 0.49985 0.42315 0.60440
 H2459 H 0.49762 0.39247 0.62216
 H2460 H 0.49887 0.36113 0.60649
 H2461 H 0.50494 0.32278 0.54726
 H2462 H 0.50849 0.32231 0.51369
 H2463 H 0.51040 0.35302 0.49590
 H2464 H 0.50879 0.38439 0.51158
 C2465 C 0.48411 1.10792 0.56590
 C2466 C 0.49724 1.11110 0.58034
 C2467 C 0.49600 1.12836 0.59107
 C2468 C 0.48168 1.14228 0.58722
 C2469 C 0.46798 1.13863 0.57342
 C2470 C 0.46920 1.12134 0.56270
 C2471 C 0.45548 1.11801 0.54881
 C2472 C 0.44096 1.13142 0.54563
 C2473 C 0.43977 1.14836 0.55614
 C2474 C 0.45310 1.15201 0.56988
 C2475 C 0.50938 1.13139 0.60534
 C2476 C 0.52359 1.11771 0.60888
 C2477 C 0.52483 1.10082 0.59833
 C2478 C 0.51182 1.09745 0.58423
 C2479 C 0.48193 1.16089 0.59657
 C2480 C 0.48300 1.17648 0.60403
 C2481 C 0.48644 1.09123 0.55393
 C2482 C 0.48871 1.07739 0.54399
 H2483 H 0.45579 1.10501 0.54034
 H2484 H 0.43057 1.12866 0.53497
 H2485 H 0.42845 1.15872 0.55363
 H2486 H 0.45158 1.16535 0.57775
 H2487 H 0.50896 1.14428 0.61396
 H2488 H 0.53368 1.12023 0.61986
 H2489 H 0.53587 1.09023 0.60113
 H2490 H 0.51329 1.08403 0.57648
 C2491 C -0.01547 0.60924 1.06676
 C2492 C -0.00216 0.61269 1.08098
 C2493 C -0.00355 0.62993 1.09173
 C2494 C -0.01821 0.64355 1.08815
 C2495 C -0.03208 0.63960 1.07458
 C2496 C -0.03070 0.62235 1.06382
 C2497 C -0.04460 0.61874 1.05018
 C2498 C -0.05945 0.63183 1.04727
 C2499 C -0.06081 0.64872 1.05782
 C2500 C -0.04729 0.65265 1.07133
 C2501 C 0.01001 0.63323 1.10578
 C2502 C 0.02453 0.61983 1.10908
 C2503 C 0.02591 0.60297 1.09851
 C2504 C 0.01274 0.59935 1.08462
 C2505 C -0.01820 0.66214 1.09753
 C2506 C -0.01736 0.67774 1.10503
 C2507 C -0.01306 0.59258 1.05476
 C2508 C -0.01078 0.57875 1.04480
 H2509 H -0.04417 0.60575 1.04168
 H2510 H -0.06997 0.62884 1.03679
 H2511 H -0.07239 0.65883 1.05553
 H2512 H -0.04896 0.66594 1.07924
 H2513 H 0.00950 0.64611 1.11441
 H2514 H 0.03475 0.62256 1.11991
 H2515 H 0.03719 0.59259 1.10114
 H2516 H 0.01434 0.58596 1.07684
 C2517 C 0.50720 0.60198 -0.06372
 C2518 C 0.52051 0.61666 -0.05966
 C2519 C 0.52017 0.63438 -0.06981
 C2520 C 0.50655 0.63720 -0.08392
 C2521 C 0.49376 0.62220 -0.08849
 C2522 C 0.49408 0.60449 -0.07833
 C2523 C 0.48104 0.58969 -0.08295
 C2524 C 0.46804 0.59238 -0.09723
 C2525 C 0.46777 0.60972 -0.10724
 C2526 C 0.48044 0.62452 -0.10297
 C2527 C 0.53347 0.64900 -0.06544
 C2528 C 0.54675 0.64613 -0.05143
 C2529 C 0.54707 0.62876 -0.04148
 C2530 C 0.53414 0.61413 -0.04549
 C2531 C 0.50521 0.65580 -0.09323
 C2532 C 0.50387 0.67136 -0.10078
 C2533 C 0.50644 0.58466 -0.05240
 C2534 C 0.50538 0.57032 -0.04292
 H2535 H 0.48079 0.57590 -0.07565
 H2536 H 0.45818 0.58092 -0.10060
 H2537 H 0.45769 0.61171 -0.11837
 H2538 H 0.47971 0.63773 -0.11117
 H2539 H 0.53380 0.66275 -0.07283
 H2540 H 0.55683 0.65745 -0.04827
 H2541 H 0.55739 0.62661 -0.03058
 H2542 H 0.53497 0.60083 -0.03742
 C2543 C 0.01033 1.10093 0.43466
 C2544 C 0.02386 1.11531 0.43896
 C2545 C 0.02394 1.13312 0.42894
 C2546 C 0.01051 1.13631 0.41473
 C2547 C -0.00237 1.12151 0.40980
 C2548 C -0.00247 1.10372 0.41983
 C2549 C -0.01562 1.08916 0.41488
 C2550 C -0.02834 1.09215 0.40040
 C2551 C -0.02820 1.10957 0.39053
 C2552 C -0.01541 1.12415 0.39512
 C2553 C 0.03742 1.14747 0.43357
 C2554 C 0.05048 1.14425 0.44772
 C2555 C 0.05040 1.12679 0.45754
 C2556 C 0.03727 1.11243 0.45327
 C2557 C 0.00924 1.15516 0.40588
 C2558 C 0.00780 1.17094 0.39878
 C2559 C 0.00889 1.08371 0.44608
 C2560 C 0.00727 1.06953 0.45568
 H2561 H -0.01618 1.07531 0.42207
 H2562 H -0.03829 1.08086 0.39678
 H2563 H -0.03806 1.11180 0.37925
 H2564 H -0.01581 1.13744 0.38702
 H2565 H 0.03806 1.16125 0.42628
 H2566 H 0.06072 1.15536 0.45107
 H2567 H 0.06055 1.12437 0.46853
 H2568 H 0.03780 1.09905 0.46124
 C2569 C 0.74796 0.72447 0.86663
 C2570 C 0.76514 0.72236 0.87652
 C2571 C 0.76528 0.71315 0.89421
 C2572 C 0.74824 0.70609 0.90195
 C2573 C 0.73093 0.70902 0.89245
 C2574 C 0.73080 0.71824 0.87476
 C2575 C 0.71335 0.72081 0.86547
 C2576 C 0.69650 0.71449 0.87343
 C2577 C 0.69663 0.70548 0.89071
 C2578 C 0.71360 0.70272 0.90016
 C2579 C 0.78266 0.71104 0.90371
 C2580 C 0.79943 0.71786 0.89598
 C2581 C 0.79930 0.72686 0.87870
 C2582 C 0.78240 0.72910 0.86901
 C2583 C 0.74856 0.69512 0.91925
 C2584 C 0.74857 0.68560 0.93336
 C2585 C 0.74815 0.73163 0.84762
 C2586 C 0.74860 0.73656 0.83154
 H2587 H 0.71253 0.72780 0.85204
 H2588 H 0.68327 0.71662 0.86616
 H2589 H 0.68350 0.70061 0.89683
 H2590 H 0.71297 0.69568 0.91358
 H2591 H 0.78346 0.70418 0.91721
 H2592 H 0.81260 0.71617 0.90345
 H2593 H 0.81237 0.73214 0.87277
 H2594 H 0.78300 0.73626 0.85564
 C2595 C 0.24637 0.22296 0.36513
 C2596 C 0.26370 0.22090 0.37478
 C2597 C 0.26410 0.21170 0.39248
 C2598 C 0.24718 0.20461 0.40045
 C2599 C 0.22975 0.20745 0.39116
 C2600 C 0.22934 0.21665 0.37346
 C2601 C 0.21177 0.21913 0.36439
 C2602 C 0.19506 0.21273 0.37255
 C2603 C 0.19544 0.20373 0.38983
 C2604 C 0.21254 0.20107 0.39908
 C2605 C 0.28162 0.20962 0.40174
 C2606 C 0.29827 0.21646 0.39378
 C2607 C 0.29788 0.22544 0.37649
 C2608 C 0.28084 0.22766 0.36704
 C2609 C 0.24776 0.19373 0.41780
 C2610 C 0.24795 0.18431 0.43197
 C2611 C 0.24630 0.23015 0.34612
 C2612 C 0.24659 0.23509 0.33004
 H2613 H 0.21076 0.22611 0.35096
 H2614 H 0.18173 0.21478 0.36543
 H2615 H 0.18242 0.19879 0.39610
 H2616 H 0.21211 0.19402 0.41251
 H2617 H 0.28262 0.20277 0.41523
 H2618 H 0.31155 0.21478 0.40107
 H2619 H 0.31086 0.23073 0.37038
 H2620 H 0.28124 0.23480 0.35366
 C2621 C 0.76803 0.28060 0.35758
 C2622 C 0.76885 0.30116 0.35928
 C2623 C 0.76634 0.31007 0.37690
 C2624 C 0.76306 0.29840 0.39279
 C2625 C 0.76292 0.27782 0.39120
 C2626 C 0.76541 0.26890 0.37356
 C2627 C 0.76503 0.24834 0.37231
 C2628 C 0.76233 0.23687 0.38805
 C2629 C 0.75991 0.24557 0.40529
 C2630 C 0.76017 0.26582 0.40693
 C2631 C 0.76699 0.33066 0.37815
 C2632 C 0.77005 0.34211 0.36248
 C2633 C 0.77252 0.33341 0.34527
 C2634 C 0.77194 0.31319 0.34360
 C2635 C 0.75954 0.30771 0.41059
 C2636 C 0.75664 0.31608 0.42505
 C2637 C 0.76834 0.27185 0.33921
 C2638 C 0.76752 0.26592 0.32348
 H2639 H 0.76692 0.24094 0.35920
 H2640 H 0.76212 0.22114 0.38686
 H2641 H 0.75782 0.23660 0.41746
 H2642 H 0.75824 0.27193 0.42062
 H2643 H 0.76517 0.33814 0.39123
 H2644 H 0.77051 0.35783 0.36370
 H2645 H 0.77491 0.34237 0.33313
 H2646 H 0.77401 0.30713 0.32991
 C2647 C 0.26751 0.78186 0.85632
 C2648 C 0.26889 0.80236 0.85821
 C2649 C 0.26652 0.81117 0.87590
 C2650 C 0.26283 0.79944 0.89166
 C2651 C 0.26219 0.77889 0.88990
 C2652 C 0.26453 0.77008 0.87218
 C2653 C 0.26365 0.74955 0.87075
 C2654 C 0.26061 0.73801 0.88637
 C2655 C 0.25833 0.74660 0.90368
 C2656 C 0.25907 0.76681 0.90550
 C2657 C 0.26774 0.83171 0.87735
 C2658 C 0.27122 0.84322 0.86180
 C2659 C 0.27354 0.83462 0.84452
 C2660 C 0.27240 0.81445 0.84266
 C2661 C 0.25935 0.80867 0.90952
 C2662 C 0.25648 0.81698 0.92401
 C2663 C 0.26761 0.77328 0.83788
 C2664 C 0.26665 0.76743 0.82213
 H2665 H 0.26542 0.74223 0.85758
 H2666 H 0.26002 0.72230 0.88505
 H2667 H 0.25597 0.73756 0.91577
 H2668 H 0.25724 0.77284 0.91924
 H2669 H 0.26606 0.83910 0.89049
 H2670 H 0.27211 0.85890 0.86317
 H2671 H 0.27625 0.84363 0.83248
 H2672 H 0.27438 0.80846 0.82893
 C2673 C 0.24789 0.77702 0.13155
 C2674 C 0.26543 0.77960 0.12239
 C2675 C 0.26601 0.78871 0.10466
 C2676 C 0.24906 0.79519 0.09617
 C2677 C 0.23146 0.79178 0.10495
 C2678 C 0.23088 0.78266 0.12268
 C2679 C 0.21314 0.77960 0.13124
 C2680 C 0.19642 0.78533 0.12254
 C2681 C 0.19698 0.79424 0.10522
 C2682 C 0.21426 0.79748 0.09647
 C2683 C 0.28372 0.79131 0.09589
 C2684 C 0.30039 0.78508 0.10437
 C2685 C 0.29982 0.77619 0.12169
 C2686 C 0.28259 0.77346 0.13067
 C2687 C 0.24978 0.80613 0.07886
 C2688 C 0.25018 0.81563 0.06475
 C2689 C 0.24754 0.76998 0.15060
 C2690 C 0.24771 0.76513 0.16670
 H2691 H 0.21199 0.77267 0.14468
 H2692 H 0.18297 0.78282 0.12925
 H2693 H 0.18396 0.79865 0.09852
 H2694 H 0.21397 0.80442 0.08299
 H2695 H 0.28487 0.79810 0.08239
 H2696 H 0.31381 0.78715 0.09745
 H2697 H 0.31281 0.77137 0.12821
 H2698 H 0.28287 0.76641 0.14410
 C2699 C 0.74901 0.27639 0.63251
 C2700 C 0.76654 0.27965 0.62354
 C2701 C 0.76700 0.28872 0.60580
 C2702 C 0.74993 0.29450 0.59709
 C2703 C 0.73236 0.29040 0.60567
 C2704 C 0.73191 0.28133 0.62342
 C2705 C 0.71420 0.27758 0.63179
 C2706 C 0.69739 0.28260 0.62286
 C2707 C 0.69783 0.29147 0.60553
 C2708 C 0.71507 0.29538 0.59698
 C2709 C 0.78470 0.29200 0.59723
 C2710 C 0.80148 0.28646 0.60592
 C2711 C 0.80104 0.27761 0.62326
 C2712 C 0.78381 0.27422 0.63204
 C2713 C 0.75045 0.30542 0.57977
 C2714 C 0.75072 0.31492 0.56564
 C2715 C 0.74869 0.26939 0.65157
 C2716 C 0.74887 0.26457 0.66768
 H2717 H 0.71315 0.27064 0.64523
 H2718 H 0.68396 0.27956 0.62943
 H2719 H 0.68474 0.29533 0.59866
 H2720 H 0.71469 0.30227 0.58347
 H2721 H 0.78576 0.29879 0.58372
 H2722 H 0.81490 0.28905 0.59915
 H2723 H 0.81411 0.27333 0.62995
 H2724 H 0.78419 0.26723 0.64550
 C2725 C 0.24926 0.22205 0.64032
 C2726 C 0.23166 0.21477 0.63413
 C2727 C 0.23015 0.20624 0.61624
 C2728 C 0.24623 0.20505 0.60459
 C2729 C 0.26359 0.21319 0.61042
 C2730 C 0.26510 0.22170 0.62833
 C2731 C 0.28263 0.22954 0.63390
 C2732 C 0.29824 0.22905 0.62211
 C2733 C 0.29677 0.22074 0.60462
 C2734 C 0.27969 0.21285 0.59877
 C2735 C 0.21247 0.19887 0.61049
 C2736 C 0.19671 0.19991 0.62205
 C2737 C 0.19817 0.20824 0.63953
 C2738 C 0.21541 0.21559 0.64558
 C2739 C 0.24512 0.19464 0.58705
 C2740 C 0.24424 0.18550 0.57278
 C2741 C 0.25122 0.22857 0.65942
 C2742 C 0.25210 0.23289 0.67562
 H2743 H 0.28441 0.23622 0.64736
 H2744 H 0.31154 0.23517 0.62657
 H2745 H 0.30894 0.22041 0.59551
 H2746 H 0.27922 0.20659 0.58503
 H2747 H 0.21062 0.19230 0.59700
 H2748 H 0.18329 0.19423 0.61741
 H2749 H 0.18588 0.20903 0.64845
 H2750 H 0.21580 0.22199 0.65926
 C2751 C 0.74870 0.72031 0.14130
 C2752 C 0.73146 0.71188 0.13550
 C2753 C 0.73000 0.70345 0.11756
 C2754 C 0.74577 0.70350 0.10547
 C2755 C 0.76275 0.71268 0.11096
 C2756 C 0.76421 0.72110 0.12892
 C2757 C 0.78137 0.73000 0.13413
 C2758 C 0.79666 0.73063 0.12195
 C2759 C 0.79523 0.72242 0.10441
 C2760 C 0.77851 0.71351 0.09891
 C2761 C 0.71268 0.69493 0.11220
 C2762 C 0.69723 0.69476 0.12419
 C2763 C 0.69864 0.70299 0.14171
 C2764 C 0.71552 0.71146 0.14738
 C2765 C 0.74477 0.69332 0.08780
 C2766 C 0.74396 0.68437 0.07342
 C2767 C 0.75068 0.72697 0.16035
 C2768 C 0.75154 0.73140 0.17652
 H2769 H 0.78311 0.73663 0.14762
 H2770 H 0.80967 0.73755 0.12615
 H2771 H 0.80715 0.72297 0.09500
 H2772 H 0.77806 0.70736 0.08512
 H2773 H 0.71087 0.68839 0.09869
 H2774 H 0.68409 0.68820 0.11985
 H2775 H 0.68659 0.70283 0.15097
 H2776 H 0.71588 0.71773 0.16112
 C2777 C 0.19241 0.64442 0.23430
 C2778 C 0.17369 0.64366 0.22743
 C2779 C 0.16310 0.62615 0.22906
 C2780 C 0.17130 0.60946 0.23752
 C2781 C 0.19016 0.61011 0.24406
 C2782 C 0.20072 0.62762 0.24246
 C2783 C 0.21949 0.62790 0.24923
 C2784 C 0.22760 0.61140 0.25733
 C2785 C 0.21728 0.59430 0.25887
 C2786 C 0.19878 0.59358 0.25234
 C2787 C 0.14439 0.62582 0.22219
 C2788 C 0.13638 0.64227 0.21388
 C2789 C 0.14674 0.65934 0.21223
 C2790 C 0.16517 0.66014 0.21897
 C2791 C 0.16036 0.59167 0.23972
 C2792 C 0.15151 0.57680 0.24174
 C2793 C 0.20288 0.66263 0.23386
 C2794 C 0.21179 0.67758 0.23444
 H2795 H 0.22812 0.64083 0.24832
 H2796 H 0.24197 0.61188 0.26243
 H2797 H 0.22365 0.58151 0.26517
 H2798 H 0.19134 0.57993 0.25386
 H2799 H 0.13578 0.61287 0.22313
 H2800 H 0.12205 0.64176 0.20866
 H2801 H 0.14047 0.67203 0.20568
 H2802 H 0.17267 0.67375 0.21739
 C2803 C 0.69374 0.14377 0.73495
 C2804 C 0.67514 0.14292 0.72779
 C2805 C 0.66460 0.12536 0.72928
 C2806 C 0.67274 0.10872 0.73789
 C2807 C 0.69149 0.10947 0.74470
 C2808 C 0.70200 0.12702 0.74323
 C2809 C 0.72066 0.12739 0.75028
 C2810 C 0.72872 0.11093 0.75850
 C2811 C 0.71846 0.09379 0.75991
 C2812 C 0.70005 0.09298 0.75312
 C2813 C 0.64600 0.12493 0.72211
 C2814 C 0.63806 0.14132 0.71364
 C2815 C 0.64837 0.15843 0.71213
 C2816 C 0.66668 0.15933 0.71916
 C2817 C 0.66183 0.09091 0.73998
 C2818 C 0.65297 0.07603 0.74193
 C2819 C 0.70413 0.16203 0.73465
 C2820 C 0.71297 0.17702 0.73532
 H2821 H 0.72925 0.14037 0.74948
 H2822 H 0.74301 0.11148 0.76380
 H2823 H 0.72479 0.08103 0.76630
 H2824 H 0.69266 0.07929 0.75453
 H2825 H 0.63744 0.11194 0.72294
 H2826 H 0.62383 0.14073 0.70819
 H2827 H 0.64216 0.17108 0.70544
 H2828 H 0.67415 0.17297 0.71768
 C2829 C 0.81481 0.14159 0.25681
 C2830 C 0.83478 0.14086 0.25563
 C2831 C 0.84431 0.12254 0.25480
 C2832 C 0.83383 0.10500 0.25515
 C2833 C 0.81388 0.10573 0.25678
 C2834 C 0.80436 0.12405 0.25761
 C2835 C 0.78440 0.12435 0.25914
 C2836 C 0.77415 0.10708 0.25984
 C2837 C 0.78346 0.08920 0.25903
 C2838 C 0.80308 0.08844 0.25751
 C2839 C 0.86427 0.12223 0.25354
 C2840 C 0.87453 0.13951 0.25309
 C2841 C 0.86522 0.15740 0.25386
 C2842 C 0.84558 0.15816 0.25514
 C2843 C 0.84347 0.08623 0.25356
 C2844 C 0.85137 0.07062 0.25215
 C2845 C 0.80491 0.16028 0.25641
 C2846 C 0.79632 0.17553 0.25552
 H2847 H 0.77652 0.13790 0.25986
 H2848 H 0.75891 0.10759 0.26102
 H2849 H 0.77542 0.07583 0.25958
 H2850 H 0.80967 0.07417 0.25695
 H2851 H 0.87214 0.10867 0.25290
 H2852 H 0.88979 0.13901 0.25213
 H2853 H 0.87326 0.17077 0.25350
 H2854 H 0.83897 0.17242 0.25579
 C2855 C 0.31346 0.64294 0.75561
 C2856 C 0.33345 0.64225 0.75460
 C2857 C 0.34302 0.62394 0.75393
 C2858 C 0.33256 0.60638 0.75423
 C2859 C 0.31259 0.60708 0.75559
 C2860 C 0.30303 0.62538 0.75629
 C2861 C 0.28306 0.62565 0.75755
 C2862 C 0.27283 0.60836 0.75812
 C2863 C 0.28217 0.59049 0.75744
 C2864 C 0.30182 0.58977 0.75619
 C2865 C 0.36299 0.62367 0.75285
 C2866 C 0.37322 0.64096 0.75242
 C2867 C 0.36387 0.65884 0.75302
 C2868 C 0.34422 0.65956 0.75414
 C2869 C 0.34227 0.58763 0.75288
 C2870 C 0.35020 0.57202 0.75168
 C2871 C 0.30354 0.66161 0.75517
 C2872 C 0.29496 0.67687 0.75427
 H2873 H 0.27514 0.63918 0.75816
 H2874 H 0.25757 0.60884 0.75910
 H2875 H 0.27415 0.57711 0.75789
 H2876 H 0.30843 0.57551 0.75571
 H2877 H 0.37090 0.61012 0.75234
 H2878 H 0.38849 0.64049 0.75160
 H2879 H 0.37189 0.67222 0.75266
 H2880 H 0.33758 0.67381 0.75468
 C2881 C 0.30618 0.35248 0.74252
 C2882 C 0.29647 0.37051 0.74436
 C2883 C 0.30676 0.38827 0.74463
 C2884 C 0.32671 0.38795 0.74303
 C2885 C 0.33639 0.36995 0.74080
 C2886 C 0.32611 0.35218 0.74058
 C2887 C 0.33614 0.33438 0.73855
 C2888 C 0.35576 0.33413 0.73679
 C2889 C 0.36578 0.35149 0.73686
 C2890 C 0.35629 0.36923 0.73886
 C2891 C 0.29672 0.40607 0.74662
 C2892 C 0.27710 0.40633 0.74827
 C2893 C 0.26705 0.38899 0.74799
 C2894 C 0.27655 0.37125 0.74607
 C2895 C 0.33728 0.40607 0.74404
 C2896 C 0.34611 0.42106 0.74500
 C2897 C 0.29572 0.33429 0.74332
 C2898 C 0.28694 0.31928 0.74450
 H2899 H 0.32896 0.32050 0.73828
 H2900 H 0.36323 0.32040 0.73530
 H2901 H 0.38101 0.35121 0.73540
 H2902 H 0.36471 0.38235 0.73886
 H2903 H 0.30390 0.41994 0.74690
 H2904 H 0.26965 0.42007 0.74977
 H2905 H 0.25181 0.38928 0.74927
 H2906 H 0.26810 0.35815 0.74590
 C2907 C 0.80609 0.85103 0.24280
 C2908 C 0.79660 0.86920 0.24436
 C2909 C 0.80710 0.88683 0.24449
 C2910 C 0.82707 0.88622 0.24304
 C2911 C 0.83653 0.86806 0.24109
 C2912 C 0.82603 0.85043 0.24102
 C2913 C 0.83586 0.83248 0.23928
 C2914 C 0.85548 0.83194 0.23765
 C2915 C 0.86573 0.84916 0.23760
 C2916 C 0.85644 0.86706 0.23931
 C2917 C 0.79727 0.90478 0.24618
 C2918 C 0.77764 0.90532 0.24769
 C2919 C 0.76738 0.88811 0.24756
 C2920 C 0.77667 0.87022 0.24592
 C2921 C 0.83785 0.90422 0.24389
 C2922 C 0.84682 0.91913 0.24474
 C2923 C 0.79541 0.83298 0.24373
 C2924 C 0.78651 0.81806 0.24500
 H2925 H 0.82850 0.81869 0.23913
 H2926 H 0.86278 0.81809 0.23638
 H2927 H 0.88096 0.84866 0.23625
 H2928 H 0.86503 0.88006 0.23922
 H2929 H 0.80463 0.91856 0.24634
 H2930 H 0.77035 0.91918 0.24897
 H2931 H 0.75213 0.88862 0.24873
 H2932 H 0.76806 0.85724 0.24585
 C2933 C 0.69463 0.85890 0.76562
 C2934 C 0.70436 0.87687 0.76484
 C2935 C 0.69406 0.89468 0.76321
 C2936 C 0.67406 0.89445 0.76238
 C2937 C 0.66431 0.87652 0.76374
 C2938 C 0.67462 0.85871 0.76537
 C2939 C 0.66454 0.84099 0.76655
 C2940 C 0.64485 0.84084 0.76612
 C2941 C 0.63478 0.85823 0.76458
 C2942 C 0.64432 0.87591 0.76338
 C2943 C 0.70414 0.91241 0.76230
 C2944 C 0.72382 0.91257 0.76299
 C2945 C 0.73388 0.89518 0.76458
 C2946 C 0.72434 0.87749 0.76549
 C2947 C 0.66358 0.91260 0.75974
 C2948 C 0.65493 0.92767 0.75742
 C2949 C 0.70522 0.84062 0.76551
 C2950 C 0.71406 0.82553 0.76456
 H2951 H 0.67175 0.82709 0.76789
 H2952 H 0.63737 0.82715 0.76704
 H2953 H 0.61949 0.85803 0.76429
 H2954 H 0.63587 0.88906 0.76220
 H2955 H 0.69694 0.92632 0.76108
 H2956 H 0.73130 0.92627 0.76229
 H2957 H 0.74917 0.89539 0.76512
 H2958 H 0.73279 0.86435 0.76677
 C2959 C 0.19330 0.35787 0.26431
 C2960 C 0.20307 0.37573 0.26233
 C2961 C 0.19279 0.39356 0.26081
 C2962 C 0.17277 0.39348 0.26129
 C2963 C 0.16302 0.37568 0.26383
 C2964 C 0.17331 0.35784 0.26534
 C2965 C 0.16323 0.34025 0.26770
 C2966 C 0.14355 0.34026 0.26854
 C2967 C 0.13350 0.35768 0.26712
 C2968 C 0.14305 0.37523 0.26478
 C2969 C 0.20289 0.41117 0.25869
 C2970 C 0.22258 0.41118 0.25810
 C2971 C 0.23262 0.39377 0.25958
 C2972 C 0.22305 0.37620 0.26166
 C2973 C 0.16225 0.41164 0.25884
 C2974 C 0.15359 0.42672 0.25670
 C2975 C 0.20377 0.33952 0.26414
 C2976 C 0.21254 0.32439 0.26317
 H2977 H 0.17042 0.32635 0.26899
 H2978 H 0.13605 0.32668 0.27034
 H2979 H 0.11822 0.35760 0.26782
 H2980 H 0.13462 0.38840 0.26373
 H2981 H 0.19572 0.42509 0.25750
 H2982 H 0.23008 0.42479 0.25649
 H2983 H 0.24791 0.39386 0.25913
 H2984 H 0.23150 0.36304 0.26281
 C2985 C 0.14083 0.24207 0.80578
 C2986 C 0.13481 0.25797 0.81681
 C2987 C 0.11708 0.25721 0.82595
 C2988 C 0.10555 0.24055 0.82396
 C2989 C 0.11173 0.22450 0.81323
 C2990 C 0.12948 0.22525 0.80409
 C2991 C 0.13546 0.20903 0.79343
 C2992 C 0.12419 0.19252 0.79189
 C2993 C 0.10678 0.19181 0.80081
 C2994 C 0.10053 0.20759 0.81137
 C2995 C 0.11128 0.27330 0.83691
 C2996 C 0.12274 0.28963 0.83879
 C2997 C 0.14012 0.29035 0.82984
 C2998 C 0.14615 0.27476 0.81895
 C2999 C 0.08715 0.24031 0.83263
 C3000 C 0.07188 0.24108 0.83987
 C3001 C 0.15874 0.24306 0.79626
 C3002 C 0.17373 0.24403 0.78854
 H3003 H 0.14889 0.20891 0.78623
 H3004 H 0.12900 0.18021 0.78377
 H3005 H 0.09808 0.17896 0.79957
 H3006 H 0.08691 0.20636 0.81809
 H3007 H 0.09790 0.27342 0.84418
 H3008 H 0.11809 0.30177 0.84724
 H3009 H 0.14897 0.30307 0.83134
 H3010 H 0.15979 0.27602 0.81226
 C3011 C 0.64110 0.74074 0.30797
 C3012 C 0.63475 0.75679 0.31863
 C3013 C 0.61693 0.75596 0.32759
 C3014 C 0.60567 0.73907 0.32585
 C3015 C 0.61234 0.72276 0.31576
 C3016 C 0.63016 0.72359 0.30678
 C3017 C 0.63663 0.70711 0.29676
 C3018 C 0.62578 0.69026 0.29574
 C3019 C 0.60829 0.68948 0.30450
 C3020 C 0.60155 0.70552 0.31439
 C3021 C 0.61076 0.77222 0.33812
 C3022 C 0.62196 0.78876 0.33980
 C3023 C 0.63946 0.78953 0.33107
 C3024 C 0.64584 0.77378 0.32055
 C3025 C 0.58706 0.73883 0.33407
 C3026 C 0.57158 0.73957 0.34087
 C3027 C 0.65887 0.74195 0.29820
 C3028 C 0.67371 0.74298 0.29021
 H3029 H 0.65015 0.70702 0.28974
 H3030 H 0.63099 0.67773 0.28816
 H3031 H 0.59991 0.67636 0.30366
 H3032 H 0.58789 0.70421 0.32103
 H3033 H 0.59728 0.77231 0.34522
 H3034 H 0.61705 0.80102 0.34794
 H3035 H 0.64814 0.80238 0.33244
 H3036 H 0.65956 0.77507 0.31404
 C3037 C 0.64015 0.24553 0.21196
 C3038 C 0.62885 0.26226 0.21525
 C3039 C 0.61043 0.26345 0.20758
 C3040 C 0.60354 0.24788 0.19676
 C3041 C 0.61459 0.23083 0.19407
 C3042 C 0.63301 0.22967 0.20169
 C3043 C 0.64399 0.21264 0.19863
 C3044 C 0.63691 0.19718 0.18830
 C3045 C 0.61884 0.19830 0.18084
 C3046 C 0.60774 0.21489 0.18365
 C3047 C 0.59940 0.28040 0.21077
 C3048 C 0.60639 0.29574 0.22134
 C3049 C 0.62441 0.29455 0.22892
 C3050 C 0.63560 0.27806 0.22592
 C3051 C 0.58567 0.24976 0.18734
 C3052 C 0.57126 0.25084 0.17864
 C3053 C 0.65941 0.24497 0.21843
 C3054 C 0.67552 0.24466 0.22353
 H3055 H 0.65812 0.21107 0.20418
 H3056 H 0.64549 0.18427 0.18608
 H3057 H 0.61338 0.18625 0.17284
 H3058 H 0.59376 0.21505 0.17760
 H3059 H 0.58527 0.28194 0.20521
 H3060 H 0.59777 0.30860 0.22368
 H3061 H 0.62977 0.30647 0.23715
 H3062 H 0.64954 0.27781 0.23208
 C3063 C 0.13966 0.74678 0.70904
 C3064 C 0.12766 0.76277 0.71321
 C3065 C 0.10943 0.76389 0.70513
 C3066 C 0.10342 0.74900 0.69300
 C3067 C 0.11524 0.73275 0.68923
 C3068 C 0.13347 0.73165 0.69728
 C3069 C 0.14523 0.71544 0.69314
 C3070 C 0.13909 0.70072 0.68134
 C3071 C 0.12120 0.70178 0.67347
 C3072 C 0.10935 0.71757 0.67732
 C3073 C 0.09769 0.78010 0.70925
 C3074 C 0.10383 0.79479 0.72109
 C3075 C 0.12169 0.79367 0.72905
 C3076 C 0.13355 0.77789 0.72518
 C3077 C 0.08553 0.75077 0.68360
 C3078 C 0.07104 0.75182 0.67504
 C3079 C 0.15868 0.74633 0.71614
 C3080 C 0.17465 0.74614 0.72167
 H3081 H 0.15925 0.71395 0.69896
 H3082 H 0.14827 0.68844 0.67831
 H3083 H 0.11648 0.69031 0.66432
 H3084 H 0.09555 0.71771 0.67087
 H3085 H 0.08367 0.78156 0.70341
 H3086 H 0.09469 0.80710 0.72410
 H3087 H 0.12640 0.80511 0.73823
 H3088 H 0.14732 0.77767 0.73169
 C3089 C 0.86039 0.74565 0.70246
 C3090 C 0.87221 0.76214 0.70106
 C3091 C 0.89020 0.76034 0.69255
 C3092 C 0.89617 0.74205 0.68552
 C3093 C 0.88444 0.72552 0.68708
 C3094 C 0.86643 0.72732 0.69559
 C3095 C 0.85482 0.71064 0.69696
 C3096 C 0.86087 0.69269 0.69006
 C3097 C 0.87854 0.69091 0.68179
 C3098 C 0.89026 0.70709 0.68026
 C3099 C 0.90182 0.77703 0.69124
 C3100 C 0.89579 0.79498 0.69815
 C3101 C 0.87815 0.79674 0.70649
 C3102 C 0.86644 0.78056 0.70797
 C3103 C 0.91422 0.74053 0.67629
 C3104 C 0.92921 0.74018 0.66851
 C3105 C 0.84203 0.74757 0.71098
 C3106 C 0.82679 0.74914 0.71815
 H3107 H 0.84099 0.71128 0.70335
 H3108 H 0.85181 0.68008 0.69120
 H3109 H 0.88320 0.67692 0.67650
 H3110 H 0.90389 0.70502 0.67371
 H3111 H 0.91568 0.77641 0.68489
 H3112 H 0.90486 0.80758 0.69703
 H3113 H 0.87352 0.81071 0.71184
 H3114 H 0.85284 0.78266 0.71458
 C3115 C 0.35908 0.24455 0.20174
 C3116 C 0.37074 0.26115 0.20029
 C3117 C 0.38888 0.25942 0.19208
 C3118 C 0.39517 0.24110 0.18540
 C3119 C 0.38354 0.22447 0.18693
 C3120 C 0.36538 0.22621 0.19513
 C3121 C 0.35389 0.20943 0.19647
 C3122 C 0.36019 0.19147 0.18983
 C3123 C 0.37802 0.18975 0.18186
 C3124 C 0.38963 0.20603 0.18038
 C3125 C 0.40036 0.27622 0.19072
 C3126 C 0.39403 0.29420 0.19730
 C3127 C 0.37624 0.29589 0.20534
 C3128 C 0.36467 0.27960 0.20686
 C3129 C 0.41344 0.23961 0.17660
 C3130 C 0.42864 0.23930 0.16920
 C3131 C 0.34063 0.24636 0.21012
 C3132 C 0.32534 0.24786 0.21720
 H3133 H 0.33994 0.21002 0.20262
 H3134 H 0.35121 0.17879 0.19092
 H3135 H 0.38288 0.17575 0.17679
 H3136 H 0.40338 0.20400 0.17407
 H3137 H 0.41431 0.27566 0.18460
 H3138 H 0.40298 0.30689 0.19614
 H3139 H 0.37137 0.30989 0.21042
 H3140 H 0.35094 0.28165 0.21322
 C3141 C 0.36154 0.75251 0.29239
 C3142 C 0.36763 0.77077 0.29914
 C3143 C 0.38555 0.77229 0.30777
 C3144 C 0.39716 0.75552 0.30957
 C3145 C 0.39134 0.73742 0.30223
 C3146 C 0.37342 0.73590 0.29360
 C3147 C 0.36775 0.71763 0.28649
 C3148 C 0.37951 0.70132 0.28785
 C3149 C 0.39708 0.70280 0.29630
 C3150 C 0.40300 0.72061 0.30345
 C3151 C 0.39137 0.79064 0.31458
 C3152 C 0.37975 0.80704 0.31289
 C3153 C 0.36217 0.80554 0.30447
 C3154 C 0.35611 0.78767 0.29762
 C3155 C 0.41454 0.75659 0.31993
 C3156 C 0.42869 0.75708 0.32907
 C3157 C 0.34293 0.75077 0.28446
 C3158 C 0.32743 0.74954 0.27788
 H3159 H 0.35421 0.71576 0.27977
 H3160 H 0.37497 0.68746 0.28232
 H3161 H 0.40618 0.69010 0.29733
 H3162 H 0.41681 0.72105 0.30985
 H3163 H 0.40495 0.79251 0.32120
 H3164 H 0.38442 0.82097 0.31815
 H3165 H 0.35318 0.81831 0.30321
 H3166 H 0.34234 0.78726 0.29111
 C3167 C 0.86193 0.25293 0.79416
 C3168 C 0.86793 0.27130 0.80074
 C3169 C 0.88589 0.27301 0.80926
 C3170 C 0.89761 0.25634 0.81113
 C3171 C 0.89185 0.23812 0.80402
 C3172 C 0.87390 0.23640 0.79550
 C3173 C 0.86828 0.21801 0.78862
 C3174 C 0.88014 0.20178 0.79009
 C3175 C 0.89775 0.20347 0.79842
 C3176 C 0.90362 0.22139 0.80534
 C3177 C 0.89164 0.29147 0.81586
 C3178 C 0.87991 0.30777 0.81411
 C3179 C 0.86227 0.30608 0.80583
 C3180 C 0.85628 0.28809 0.79916
 C3181 C 0.91507 0.25763 0.82134
 C3182 C 0.92929 0.25826 0.83035
 C3183 C 0.84336 0.25103 0.78618
 C3184 C 0.82791 0.24968 0.77951
 H3185 H 0.85471 0.21598 0.78201
 H3186 H 0.87564 0.18783 0.78475
 H3187 H 0.90693 0.19083 0.79952
 H3188 H 0.91747 0.22199 0.81164
 H3189 H 0.90525 0.29350 0.82238
 H3190 H 0.88452 0.32178 0.81921
 H3191 H 0.85319 0.31877 0.80453
 H3192 H 0.84248 0.28753 0.79276
 C3193 C 0.52333 1.00843 0.61250
 C3194 C 0.52360 1.02514 0.62397
 C3195 C 0.53232 1.02419 0.64172
 C3196 C 0.54068 1.00651 0.64788
 C3197 C 0.53959 0.98956 0.63677
 C3198 C 0.53089 0.99052 0.61904
 C3199 C 0.53016 0.97342 0.60811
 C3200 C 0.53778 0.95588 0.61451
 C3201 C 0.54630 0.95495 0.63184
 C3202 C 0.54724 0.97154 0.64289
 C3203 C 0.53261 1.04114 0.65284
 C3204 C 0.52438 1.05850 0.64670
 C3205 C 0.51578 1.05940 0.62940
 C3206 C 0.51543 1.04298 0.61806
 C3207 C 0.55107 1.00584 0.66525
 C3208 C 0.56012 1.00500 0.67941
 C3209 C 0.51675 1.00987 0.59347
 C3210 C 0.51249 1.01040 0.57729
 H3211 H 0.52361 0.97338 0.59457
 H3212 H 0.53706 0.94294 0.60598
 H3213 H 0.55219 0.94128 0.63675
 H3214 H 0.55397 0.97006 0.65628
 H3215 H 0.53908 1.04112 0.66643
 H3216 H 0.52464 1.07132 0.65542
 H3217 H 0.50930 1.07288 0.62476
 H3218 H 0.50857 1.04436 0.60472
 C3219 C 0.02354 0.50935 1.11319
 C3220 C 0.02422 0.52611 1.12458
 C3221 C 0.03280 0.52497 1.14239
 C3222 C 0.04058 0.50708 1.14869
 C3223 C 0.03907 0.49012 1.13765
 C3224 C 0.03052 0.49126 1.11986
 C3225 C 0.02937 0.47413 1.10900
 C3226 C 0.03644 0.45640 1.11553
 C3227 C 0.04480 0.45529 1.13292
 C3228 C 0.04615 0.47191 1.14391
 C3229 C 0.03351 0.54197 1.15343
 C3230 C 0.02587 0.55955 1.14714
 C3231 C 0.01743 0.56063 1.12977
 C3232 C 0.01665 0.54416 1.11852
 C3233 C 0.05085 0.50619 1.16613
 C3234 C 0.05981 0.50517 1.18033
 C3235 C 0.01709 0.51089 1.09412
 C3236 C 0.01289 0.51152 1.07793
 H3237 H 0.02292 0.47423 1.09541
 H3238 H 0.03541 0.44345 1.10705
 H3239 H 0.05026 0.44148 1.13794
 H3240 H 0.05274 0.47029 1.15735
 H3241 H 0.03988 0.54181 1.16706
 H3242 H 0.02646 0.57240 1.15580
 H3243 H 0.01141 0.57429 1.12501
 H3244 H 0.00993 0.54569 1.10512
 C3245 C -0.02343 -0.01766 1.11040
 C3246 C -0.02142 -0.00109 1.12189
 C3247 C -0.02973 -0.00086 1.13984
 C3248 C -0.03997 -0.01723 1.14622
 C3249 C -0.04101 -0.03424 1.13516
 C3250 C -0.03273 -0.03443 1.11719
 C3251 C -0.03420 -0.05146 1.10627
 C3252 C -0.04343 -0.06793 1.11298
 C3253 C -0.05148 -0.06776 1.13057
 C3254 C -0.05037 -0.05112 1.14158
 C3255 C -0.02777 0.01599 1.15094
 C3256 C -0.01785 0.03215 1.14452
 C3257 C -0.00972 0.03192 1.12699
 C3258 C -0.01145 0.01555 1.11573
 C3259 C -0.05026 -0.01610 1.16364
 C3260 C -0.05912 -0.01468 1.17788
 C3261 C -0.01747 -0.01669 1.09115
 C3262 C -0.01341 -0.01489 1.07500
 H3263 H -0.02808 -0.05229 1.09253
 H3264 H -0.04430 -0.08089 1.10450
 H3265 H -0.05862 -0.08059 1.13572
 H3266 H -0.05683 -0.05167 1.15517
 H3267 H -0.03380 0.01684 1.16471
 H3268 H -0.01647 0.04490 1.15322
 H3269 H -0.00201 0.04451 1.12207
 H3270 H -0.00480 0.01604 1.10222
 C3271 C 0.47649 0.48205 0.61054
 C3272 C 0.47872 0.49857 0.62205
 C3273 C 0.47040 0.49888 0.63999
 C3274 C 0.45992 0.48266 0.64633
 C3275 C 0.45870 0.46568 0.63527
 C3276 C 0.46701 0.46538 0.61731
 C3277 C 0.46538 0.44837 0.60639
 C3278 C 0.45595 0.43202 0.61308
 C3279 C 0.44786 0.43229 0.63065
 C3280 C 0.44912 0.44891 0.64166
 C3281 C 0.47259 0.51568 0.65113
 C3282 C 0.48273 0.53170 0.64475
 C3283 C 0.49087 0.53140 0.62721
 C3284 C 0.48891 0.51507 0.61592
 C3285 C 0.44957 0.48394 0.66371
 C3286 C 0.44065 0.48551 0.67790
 C3287 C 0.48243 0.48299 0.59127
 C3288 C 0.48647 0.48475 0.57512
 H3289 H 0.47152 0.44747 0.59267
 H3290 H 0.45495 0.41907 0.60460
 H3291 H 0.44055 0.41955 0.63578
 H3292 H 0.44264 0.44843 0.65524
 H3293 H 0.46657 0.51658 0.66490
 H3294 H 0.48430 0.54441 0.65347
 H3295 H 0.49875 0.54387 0.62232
 H3296 H 0.49557 0.51549 0.60242
 C3297 C 0.47585 0.50250 -0.11392
 C3298 C 0.47509 0.51948 -0.12508
 C3299 C 0.46694 0.51866 -0.14308
 C3300 C 0.45966 0.50083 -0.14981
 C3301 C 0.46129 0.48365 -0.13900
 C3302 C 0.46941 0.48448 -0.12102
 C3303 C 0.47069 0.46713 -0.11040
 C3304 C 0.46417 0.44948 -0.11736
 C3305 C 0.45623 0.44867 -0.13494
 C3306 C 0.45476 0.46551 -0.14569
 C3307 C 0.46614 0.53586 -0.15390
 C3308 C 0.47332 0.55336 -0.14719
 C3309 C 0.48136 0.55414 -0.12964
 C3310 C 0.48218 0.53746 -0.11860
 C3311 C 0.44974 0.50022 -0.16743
 C3312 C 0.44101 0.49928 -0.18175
 C3313 C 0.48187 0.50366 -0.09471
 C3314 C 0.48578 0.50385 -0.07844
 H3315 H 0.47683 0.46699 -0.09667
 H3316 H 0.46530 0.43636 -0.10906
 H3317 H 0.45119 0.43492 -0.14029
 H3318 H 0.44852 0.46411 -0.15930
 H3319 H 0.46008 0.53594 -0.16766
 H3320 H 0.47268 0.56638 -0.15568
 H3321 H 0.48702 0.56774 -0.12456
 H3322 H 0.48856 0.53876 -0.10503
 C3323 C -0.02293 1.00121 0.38555
 C3324 C -0.02309 1.01802 0.37414
 C3325 C -0.03114 1.01717 0.35610
 C3326 C -0.03893 0.99949 0.34958
 C3327 C -0.03790 0.98244 0.36064
 C3328 C -0.02987 0.98330 0.37867
 C3329 C -0.02921 0.96610 0.38955
 C3330 C -0.03624 0.94857 0.38281
 C3331 C -0.04409 0.94773 0.36519
 C3332 C -0.04495 0.96442 0.35418
 C3333 C -0.03134 1.03421 0.34502
 C3334 C -0.02367 1.05158 0.35152
 C3335 C -0.01573 1.05238 0.36912
 C3336 C -0.01550 1.03586 0.38041
 C3337 C -0.04878 0.99891 0.33192
 C3338 C -0.05748 0.99798 0.31758
 C3339 C -0.01703 1.00248 0.40479
 C3340 C -0.01327 1.00282 0.42108
 H3341 H -0.02318 0.96598 0.40332
 H3342 H -0.03559 0.93556 0.39131
 H3343 H -0.04952 0.93407 0.36001
 H3344 H -0.05114 0.96301 0.34054
 H3345 H -0.03730 1.03426 0.33121
 H3346 H -0.02385 1.06447 0.34284
 H3347 H -0.00969 1.06586 0.37404
 H3348 H -0.00917 1.03717 0.39400
 C3349 C 0.02422 0.48601 0.38710
 C3350 C 0.02224 0.50362 0.37697
 C3351 C 0.03054 0.50537 0.35909
 C3352 C 0.04075 0.48950 0.35141
 C3353 C 0.04189 0.47157 0.36114
 C3354 C 0.03360 0.46983 0.37904
 C3355 C 0.03513 0.45185 0.38860
 C3356 C 0.04455 0.43601 0.38069
 C3357 C 0.05265 0.43771 0.36320
 C3358 C 0.05140 0.45525 0.35348
 C3359 C 0.02861 0.52321 0.34936
 C3360 C 0.01872 0.53887 0.35705
 C3361 C 0.01060 0.53715 0.37452
 C3362 C 0.01230 0.51977 0.38443
 C3363 C 0.05074 0.49190 0.33394
 C3364 C 0.05936 0.49400 0.31963
 C3365 C 0.01824 0.48526 0.40638
 C3366 C 0.01429 0.48554 0.42265
 H3367 H 0.02899 0.44983 0.40220
 H3368 H 0.04556 0.42235 0.38817
 H3369 H 0.05995 0.42536 0.35712
 H3370 H 0.05789 0.45586 0.33991
 H3371 H 0.03465 0.52524 0.33571
 H3372 H 0.01736 0.55240 0.34941
 H3373 H 0.00292 0.54935 0.38043
 H3374 H 0.00567 0.51911 0.39794
 C3375 C 0.52509 -0.01212 -0.11302
 C3376 C 0.52412 0.00575 -0.12285
 C3377 C 0.53266 0.00740 -0.14063
 C3378 C 0.54209 -0.00886 -0.14851
 C3379 C 0.54224 -0.02701 -0.13909
 C3380 C 0.53371 -0.02864 -0.12129
 C3381 C 0.53424 -0.04684 -0.11204
 C3382 C 0.54291 -0.06301 -0.12015
 C3383 C 0.55125 -0.06143 -0.13755
 C3384 C 0.55097 -0.04366 -0.14696
 C3385 C 0.53175 0.02551 -0.15004
 C3386 C 0.52262 0.04153 -0.14214
 C3387 C 0.51425 0.03992 -0.12477
 C3388 C 0.51496 0.02228 -0.11517
 C3389 C 0.55229 -0.00670 -0.16590
 C3390 C 0.56106 -0.00482 -0.18014
 C3391 C 0.51885 -0.01292 -0.09383
 C3392 C 0.51471 -0.01272 -0.07760
 H3393 H 0.52787 -0.04878 -0.09852
 H3394 H 0.54316 -0.07685 -0.11291
 H3395 H 0.55796 -0.07403 -0.14379
 H3396 H 0.55761 -0.04315 -0.16047
 H3397 H 0.53803 0.02746 -0.16360
 H3398 H 0.52204 0.05526 -0.14954
 H3399 H 0.50716 0.05240 -0.11870
 H3400 H 0.50818 0.02173 -0.10173
 C3401 C 0.60551 0.54882 -0.00912
 C3402 C 0.60786 0.56748 -0.01723
 C3403 C 0.62551 0.57724 -0.01576
 C3404 C 0.64078 0.56828 -0.00623
 C3405 C 0.63858 0.54940 0.00145
 C3406 C 0.62092 0.53966 0.00000
 C3407 C 0.61909 0.52088 0.00793
 C3408 C 0.63422 0.51194 0.01699
 C3409 C 0.65145 0.52144 0.01839
 C3410 C 0.65368 0.53995 0.01074
 C3411 C 0.62739 0.59594 -0.02386
 C3412 C 0.61233 0.60474 -0.03317
 C3413 C 0.59513 0.59520 -0.03463
 C3414 C 0.59283 0.57680 -0.02675
 C3415 C 0.65859 0.57864 -0.00400
 C3416 C 0.67324 0.58742 -0.00206
 C3417 C 0.58702 0.53952 -0.00927
 C3418 C 0.57156 0.53211 -0.00865
 H3419 H 0.60598 0.51288 0.00716
 H3420 H 0.63257 0.49755 0.02296
 H3421 H 0.66317 0.51442 0.02544
 H3422 H 0.66737 0.54675 0.01217
 H3423 H 0.64050 0.60393 -0.02312
 H3424 H 0.61403 0.61904 -0.03930
 H3425 H 0.58350 0.60208 -0.04193
 H3426 H 0.57918 0.56995 -0.02828
 C3427 C 0.10603 1.04760 0.49096
 C3428 C 0.10865 1.06581 0.48206
 C3429 C 0.12628 1.07559 0.48349
 C3430 C 0.14128 1.06710 0.49379
 C3431 C 0.13883 1.04863 0.50226
 C3432 C 0.12119 1.03887 0.50085
 C3433 C 0.11910 1.02051 0.50957
 C3434 C 0.13398 1.01200 0.51937
 C3435 C 0.15121 1.02152 0.52073
 C3436 C 0.15368 1.03963 0.51231
 C3437 C 0.12843 1.09385 0.47458
 C3438 C 0.11364 1.10219 0.46450
 C3439 C 0.09646 1.09262 0.46307
 C3440 C 0.09389 1.07466 0.47175
 C3441 C 0.15905 1.07754 0.49598
 C3442 C 0.17364 1.08641 0.49785
 C3443 C 0.08751 1.03837 0.49083
 C3444 C 0.07200 1.03109 0.49144
 H3445 H 0.10599 1.01251 0.50887
 H3446 H 0.13214 0.99794 0.52594
 H3447 H 0.16272 1.01484 0.52835
 H3448 H 0.16735 1.04645 0.51374
 H3449 H 0.14155 1.10184 0.47526
 H3450 H 0.11555 1.11615 0.45774
 H3451 H 0.08505 1.09912 0.45516
 H3452 H 0.08027 1.06776 0.47021
 C3453 C 0.10857 -0.05082 1.00443
 C3454 C 0.11041 -0.07088 1.00884
 C3455 C 0.12833 -0.08033 1.00735
 C3456 C 0.14437 -0.06969 1.00147
 C3457 C 0.14261 -0.04955 0.99741
 C3458 C 0.12468 -0.04010 0.99889
 C3459 C 0.12331 -0.01999 0.99465
 C3460 C 0.13915 -0.00949 0.98913
 C3461 C 0.15665 -0.01871 0.98771
 C3462 C 0.15843 -0.03850 0.99178
 C3463 C 0.12973 -0.10041 1.01175
 C3464 C 0.11392 -0.11086 1.01746
 C3465 C 0.09644 -0.10164 1.01891
 C3466 C 0.09462 -0.08189 1.01467
 C3467 C 0.16259 -0.07956 0.99941
 C3468 C 0.17753 -0.08805 0.99773
 C3469 C 0.09000 -0.04146 1.00480
 C3470 C 0.07452 -0.03388 1.00448
 H3471 H 0.11001 -0.01216 0.99559
 H3472 H 0.13785 0.00590 0.98596
 H3473 H 0.16891 -0.01047 0.98342
 H3474 H 0.17234 -0.04502 0.99047
 H3475 H 0.14302 -0.10825 1.01085
 H3476 H 0.11525 -0.12621 1.02078
 H3477 H 0.08421 -0.10983 1.02336
 H3478 H 0.08073 -0.07535 1.01605
 C3479 C 0.60828 0.44807 0.50481
 C3480 C 0.61003 0.42798 0.50914
 C3481 C 0.62795 0.41850 0.50778
 C3482 C 0.64407 0.42913 0.50210
 C3483 C 0.64238 0.44930 0.49812
 C3484 C 0.62447 0.45879 0.49947
 C3485 C 0.62318 0.47892 0.49530
 C3486 C 0.63910 0.48941 0.48999
 C3487 C 0.65659 0.48016 0.48869
 C3488 C 0.65829 0.46034 0.49269
 C3489 C 0.62926 0.39840 0.51209
 C3490 C 0.61337 0.38795 0.51760
 C3491 C 0.59589 0.39721 0.51893
 C3492 C 0.59416 0.41699 0.51476
 C3493 C 0.66229 0.41925 0.50016
 C3494 C 0.67727 0.41080 0.49856
 C3495 C 0.58973 0.45750 0.50508
 C3496 C 0.57429 0.46516 0.50471
 H3497 H 0.60989 0.48678 0.49615
 H3498 H 0.63786 0.50481 0.48687
 H3499 H 0.66891 0.48839 0.48456
 H3500 H 0.67220 0.45380 0.49149
 H3501 H 0.64254 0.39054 0.51129
 H3502 H 0.61464 0.37258 0.52086
 H3503 H 0.58360 0.38903 0.52321
 H3504 H 0.58027 0.42355 0.51603
 C3505 C -0.10737 0.44836 0.49193
 C3506 C -0.10929 0.42900 0.48542
 C3507 C -0.12721 0.41968 0.48612
 C3508 C -0.14315 0.42974 0.49335
 C3509 C -0.14128 0.44920 0.49958
 C3510 C -0.12337 0.45853 0.49885
 C3511 C -0.12190 0.47796 0.50522
 C3512 C -0.13764 0.48791 0.51210
 C3513 C -0.15511 0.47880 0.51282
 C3514 C -0.15700 0.45967 0.50665
 C3515 C -0.12870 0.40031 0.47957
 C3516 C -0.11298 0.39040 0.47260
 C3517 C -0.09548 0.39947 0.47199
 C3518 C -0.09358 0.41856 0.47827
 C3519 C -0.16138 0.41999 0.49443
 C3520 C -0.17634 0.41158 0.49508
 C3521 C -0.08881 0.45747 0.49222
 C3522 C -0.07327 0.46465 0.49297
 H3523 H -0.10861 0.48568 0.50492
 H3524 H -0.13626 0.50278 0.51691
 H3525 H -0.16729 0.48660 0.51818
 H3526 H -0.17088 0.45320 0.50748
 H3527 H -0.14200 0.39261 0.47976
 H3528 H -0.11437 0.37558 0.46768
 H3529 H -0.08331 0.39167 0.46665
 H3530 H -0.07969 0.42500 0.47744
 C3531 C 0.39278 -0.05124 -0.00914
 C3532 C 0.39107 -0.07094 -0.01471
 C3533 C 0.37316 -0.08027 -0.01400
 C3534 C 0.35702 -0.06988 -0.00766
 C3535 C 0.35869 -0.05009 -0.00237
 C3536 C 0.37659 -0.04075 -0.00313
 C3537 C 0.37786 -0.02099 0.00230
 C3538 C 0.36193 -0.01072 0.00829
 C3539 C 0.34446 -0.01985 0.00903
 C3540 C 0.34277 -0.03930 0.00378
 C3541 C 0.37187 -0.09998 -0.01961
 C3542 C 0.38779 -0.11022 -0.02567
 C3543 C 0.40528 -0.10114 -0.02629
 C3544 C 0.40698 -0.08172 -0.02094
 C3545 C 0.33878 -0.07961 -0.00656
 C3546 C 0.32381 -0.08800 -0.00589
 C3547 C 0.41132 -0.04208 -0.00880
 C3548 C 0.42683 -0.03485 -0.00797
 H3549 H 0.39114 -0.01325 0.00193
 H3550 H 0.36316 0.00439 0.01237
 H3551 H 0.33214 -0.01180 0.01370
 H3552 H 0.32888 -0.04576 0.00460
 H3553 H 0.35858 -0.10770 -0.01936
 H3554 H 0.38655 -0.12530 -0.02988
 H3555 H 0.41761 -0.10919 -0.03092
 H3556 H 0.42088 -0.07528 -0.02175
 C3557 C 0.39023 1.05349 0.51021
 C3558 C 0.37562 1.04524 0.49939
 C3559 C 0.35749 1.05435 0.49871
 C3560 C 0.35401 1.07167 0.50885
 C3561 C 0.36851 1.07970 0.51997
 C3562 C 0.38664 1.07058 0.52066
 C3563 C 0.40088 1.07896 0.53180
 C3564 C 0.39734 1.09581 0.54201
 C3565 C 0.37966 1.10473 0.54132
 C3566 C 0.36536 1.09683 0.53045
 C3567 C 0.34321 1.04586 0.48770
 C3568 C 0.34669 1.02888 0.47766
 C3569 C 0.36439 1.01999 0.47833
 C3570 C 0.37874 1.02801 0.48904
 C3571 C 0.33564 1.08136 0.50767
 C3572 C 0.32050 1.08959 0.50674
 C3573 C 0.40915 1.04494 0.50984
 C3574 C 0.42493 1.03817 0.50884
 H3575 H 0.41485 1.07254 0.53281
 H3576 H 0.40837 1.10197 0.55053
 H3577 H 0.37699 1.11783 0.54927
 H3578 H 0.35183 1.10429 0.53039
 H3579 H 0.32921 1.05224 0.48674
 H3580 H 0.33560 1.02258 0.46932
 H3581 H 0.36702 1.00679 0.47051
 H3582 H 0.39225 1.02053 0.48914
 C3583 C -0.10959 0.55459 1.01098
 C3584 C -0.12401 0.54641 0.99989
 C3585 C -0.14222 0.55535 0.99918
 C3586 C -0.14596 0.57244 1.00957
 C3587 C -0.13164 0.58041 1.02096
 C3588 C -0.11344 0.57146 1.02167
 C3589 C -0.09938 0.57976 1.03309
 C3590 C -0.10318 0.59639 1.04354
 C3591 C -0.12093 0.60515 1.04283
 C3592 C -0.13505 0.59732 1.03170
 C3593 C -0.15632 0.54693 0.98790
 C3594 C -0.15258 0.53016 0.97761
 C3595 C -0.13481 0.52144 0.97830
 C3596 C -0.12064 0.52940 0.98928
 C3597 C -0.16441 0.58198 1.00838
 C3598 C -0.17961 0.59011 1.00747
 C3599 C -0.09059 0.54622 1.01065
 C3600 C -0.07476 0.53956 1.00965
 H3601 H -0.08536 0.57346 1.03411
 H3602 H -0.09229 0.60250 1.05227
 H3603 H -0.12379 0.61808 1.05098
 H3604 H -0.14864 0.60464 1.03163
 H3605 H -0.17036 0.55318 0.98692
 H3606 H -0.16353 0.52392 0.96906
 H3607 H -0.13199 0.50841 0.97029
 H3608 H -0.10706 0.52205 0.98938
 C3609 C 0.02219 0.60278 0.55119
 C3610 C 0.01555 0.60530 0.56953
 C3611 C 0.01637 0.62395 0.57789
 C3612 C 0.02382 0.63988 0.56780
 C3613 C 0.03158 0.63707 0.54993
 C3614 C 0.03078 0.61838 0.54158
 C3615 C 0.03850 0.61582 0.52364
 C3616 C 0.04682 0.63133 0.51424
 C3617 C 0.04758 0.64966 0.52242
 C3618 C 0.04001 0.65259 0.54005
 C3619 C 0.00945 0.62625 0.59619
 C3620 C 0.00200 0.61051 0.60595
 C3621 C 0.00124 0.59221 0.59776
 C3622 C 0.00787 0.58956 0.57975
 C3623 C 0.02243 0.65921 0.57555
 C3624 C 0.02030 0.67483 0.58274
 C3625 C 0.01917 0.58443 0.54198
 C3626 C 0.01606 0.56911 0.53464
 H3627 H 0.03831 0.60180 0.51679
 H3628 H 0.05276 0.62911 0.50057
 H3629 H 0.05406 0.66166 0.51507
 H3630 H 0.04096 0.66706 0.54591
 H3631 H 0.00982 0.64017 0.60321
 H3632 H -0.00316 0.61251 0.61995
 H3633 H -0.00449 0.58000 0.60541
 H3634 H 0.00703 0.57503 0.57400
 C3635 C 0.52291 0.10242 0.05244
 C3636 C 0.53078 0.11827 0.04260
 C3637 C 0.53167 0.13689 0.05107
 C3638 C 0.52477 0.13938 0.06932
 C3639 C 0.51815 0.12320 0.07961
 C3640 C 0.51723 0.10462 0.07112
 C3641 C 0.51043 0.08861 0.08156
 C3642 C 0.50475 0.09095 0.09993
 C3643 C 0.50559 0.10918 0.10824
 C3644 C 0.51217 0.12518 0.09826
 C3645 C 0.53931 0.15267 0.04094
 C3646 C 0.54606 0.15004 0.02295
 C3647 C 0.54527 0.13177 0.01467
 C3648 C 0.53768 0.11601 0.02431
 C3649 C 0.52340 0.15863 0.07729
 C3650 C 0.52132 0.17419 0.08463
 C3651 C 0.51959 0.08416 0.04315
 C3652 C 0.51628 0.06894 0.03569
 H3653 H 0.50958 0.07413 0.07572
 H3654 H 0.49973 0.07853 0.10775
 H3655 H 0.50115 0.11093 0.12250
 H3656 H 0.51265 0.13904 0.10537
 H3657 H 0.54027 0.16712 0.04686
 H3658 H 0.55195 0.16224 0.01541
 H3659 H 0.55058 0.12979 0.00072
 H3660 H 0.53743 0.10205 0.01735
 C3661 C -0.01603 0.11652 0.96329
 C3662 C -0.00168 0.13008 0.96753
 C3663 C -0.00334 0.14961 0.96123
 C3664 C -0.01929 0.15536 0.95071
 C3665 C -0.03423 0.14216 0.94760
 C3666 C -0.03260 0.12262 0.95394
 C3667 C -0.04757 0.10954 0.95049
 C3668 C -0.06372 0.11564 0.94102
 C3669 C -0.06532 0.13478 0.93480
 C3670 C -0.05075 0.14795 0.93797
 C3671 C 0.01127 0.16292 0.96535
 C3672 C 0.02709 0.15705 0.97546
 C3673 C 0.02873 0.13790 0.98163
 C3674 C 0.01457 0.12450 0.97774
 C3675 C -0.01913 0.17391 0.94120
 C3676 C -0.01800 0.18869 0.93232
 C3677 C -0.01332 0.09622 0.96799
 C3678 C -0.01054 0.07947 0.97210
 H3679 H -0.04698 0.09454 0.95515
 H3680 H -0.07509 0.10547 0.93856
 H3681 H -0.07791 0.13945 0.92748
 H3682 H -0.05263 0.16272 0.93296
 H3683 H 0.01056 0.17799 0.96092
 H3684 H 0.03812 0.16742 0.97853
 H3685 H 0.04104 0.13341 0.98949
 H3686 H 0.01646 0.10979 0.98288
 C3687 C 0.48336 0.61587 0.46350
 C3688 C 0.49752 0.62967 0.46761
 C3689 C 0.49553 0.64915 0.46125
 C3690 C 0.47943 0.65460 0.45081
 C3691 C 0.46464 0.64118 0.44789
 C3692 C 0.46661 0.62169 0.45428
 C3693 C 0.45180 0.60837 0.45101
 C3694 C 0.43547 0.61420 0.44168
 C3695 C 0.43354 0.63330 0.43542
 C3696 C 0.44795 0.64670 0.43842
 C3697 C 0.50997 0.66269 0.46523
 C3698 C 0.52594 0.65711 0.47526
 C3699 C 0.52790 0.63802 0.48149
 C3700 C 0.51391 0.62438 0.47773
 C3701 C 0.47933 0.67306 0.44113
 C3702 C 0.48033 0.68775 0.43211
 C3703 C 0.48642 0.59561 0.46817
 C3704 C 0.48942 0.57889 0.47224
 H3705 H 0.45263 0.59339 0.45571
 H3706 H 0.42422 0.60386 0.43936
 H3707 H 0.42081 0.63777 0.42823
 H3708 H 0.44582 0.66143 0.43339
 H3709 H 0.50900 0.67774 0.46077
 H3710 H 0.53683 0.66767 0.47823
 H3711 H 0.54033 0.63374 0.48928
 H3712 H 0.51605 0.60971 0.48291
 C3713 C 0.52119 0.90720 0.43774
 C3714 C 0.50978 0.90344 0.42209
 C3715 C 0.50975 0.88455 0.41418
 C3716 C 0.52112 0.86963 0.42202
 C3717 C 0.53362 0.87381 0.43674
 C3718 C 0.53367 0.89273 0.44464
 C3719 C 0.54604 0.89661 0.45956
 C3720 C 0.55807 0.88214 0.46644
 C3721 C 0.55801 0.86359 0.45870
 C3722 C 0.54592 0.85937 0.44403
 C3723 C 0.49796 0.88094 0.39873
 C3724 C 0.48652 0.89563 0.39135
 C3725 C 0.48652 0.91414 0.39915
 C3726 C 0.49801 0.91810 0.41433
 C3727 C 0.51867 0.84977 0.41592
 C3728 C 0.51552 0.83347 0.41078
 C3729 C 0.51869 0.92522 0.44775
 C3730 C 0.51579 0.93990 0.45634
 H3731 H 0.54666 0.91087 0.46592
 H3732 H 0.56752 0.88537 0.47780
 H3733 H 0.56740 0.85242 0.46407
 H3734 H 0.54638 0.84477 0.43838
 H3735 H 0.49752 0.86678 0.39215
 H3736 H 0.47759 0.89263 0.37953
 H3737 H 0.47757 0.92550 0.39340
 H3738 H 0.49764 0.93276 0.41985
 C3739 C 0.02155 0.40865 0.93842
 C3740 C 0.01024 0.40487 0.92271
 C3741 C 0.01031 0.38598 0.91479
 C3742 C 0.02169 0.37109 0.92268
 C3743 C 0.03409 0.37531 0.93747
 C3744 C 0.03404 0.39422 0.94538
 C3745 C 0.04629 0.39812 0.96039
 C3746 C 0.05832 0.38369 0.96733
 C3747 C 0.05838 0.36515 0.95956
 C3748 C 0.04639 0.36091 0.94481
 C3749 C -0.00140 0.38233 0.89929
 C3750 C -0.01285 0.39699 0.89186
 C3751 C -0.01294 0.41550 0.89966
 C3752 C -0.00153 0.41950 0.91490
 C3753 C 0.01933 0.35123 0.91657
 C3754 C 0.01627 0.33491 0.91145
 C3755 C 0.01897 0.42668 0.94839
 C3756 C 0.01602 0.44136 0.95696
 H3757 H 0.04682 0.41238 0.96677
 H3758 H 0.06768 0.38694 0.97876
 H3759 H 0.06777 0.35401 0.96498
 H3760 H 0.04695 0.34631 0.93915
 H3761 H -0.00176 0.36818 0.89270
 H3762 H -0.02170 0.39396 0.88000
 H3763 H -0.02189 0.42683 0.89387
 H3764 H -0.00198 0.43415 0.92042
 C3765 C 0.48138 0.39521 0.05809
 C3766 C 0.46937 0.38042 0.05136
 C3767 C 0.46975 0.36168 0.05973
 C3768 C 0.48212 0.35799 0.07472
 C3769 C 0.49328 0.37314 0.08215
 C3770 C 0.49292 0.39184 0.07377
 C3771 C 0.50443 0.40674 0.08119
 C3772 C 0.51598 0.40320 0.09647
 C3773 C 0.51630 0.38488 0.10472
 C3774 C 0.50512 0.36996 0.09770
 C3775 C 0.45785 0.34696 0.05268
 C3776 C 0.44585 0.35071 0.03777
 C3777 C 0.44549 0.36906 0.02955
 C3778 C 0.45708 0.38382 0.03622
 C3779 C 0.48430 0.33846 0.08194
 C3780 C 0.48714 0.32253 0.08831
 C3781 C 0.48297 0.41341 0.04816
 C3782 C 0.48510 0.42843 0.03988
 H3783 H 0.50458 0.42127 0.07532
 H3784 H 0.52473 0.41473 0.10192
 H3785 H 0.52526 0.38220 0.11662
 H3786 H 0.50583 0.35597 0.10464
 H3787 H 0.45763 0.33249 0.05868
 H3788 H 0.43678 0.33931 0.03257
 H3789 H 0.43613 0.37190 0.01798
 H3790 H 0.45623 0.39791 0.02947
 C3791 C -0.02186 0.89648 0.55844
 C3792 C -0.03368 0.88186 0.55110
 C3793 C -0.03346 0.86291 0.55903
 C3794 C -0.02145 0.85887 0.57422
 C3795 C -0.01064 0.87388 0.58236
 C3796 C -0.01084 0.89279 0.57441
 C3797 C 0.00036 0.90755 0.58251
 C3798 C 0.01144 0.90367 0.59805
 C3799 C 0.01160 0.88515 0.60588
 C3800 C 0.00073 0.87036 0.59818
 C3801 C -0.04512 0.84835 0.55134
 C3802 C -0.05677 0.85246 0.53624
 C3803 C -0.05699 0.87103 0.52846
 C3804 C -0.04559 0.88563 0.53575
 C3805 C -0.01911 0.83912 0.58082
 C3806 C -0.01597 0.82307 0.58676
 C3807 C -0.01969 0.91473 0.54872
 C3808 C -0.01702 0.92968 0.54049
 H3809 H 0.00060 0.92222 0.57698
 H3810 H 0.01995 0.91510 0.60403
 H3811 H 0.02021 0.88220 0.61797
 H3812 H 0.00129 0.85620 0.60481
 H3813 H -0.04543 0.83372 0.55698
 H3814 H -0.06567 0.84118 0.53055
 H3815 H -0.06610 0.87416 0.51677
 H3816 H -0.04632 0.89990 0.52934
 C3817 C 0.26155 0.28672 0.14152
 C3818 C 0.26415 0.27541 0.12532
 C3819 C 0.26230 0.28425 0.10753
 C3820 C 0.25786 0.30437 0.10603
 C3821 C 0.25562 0.31576 0.12225
 C3822 C 0.25747 0.30693 0.14001
 C3823 C 0.25505 0.31866 0.15599
 C3824 C 0.25094 0.33849 0.15447
 C3825 C 0.24914 0.34710 0.13712
 C3826 C 0.25143 0.33595 0.12115
 C3827 C 0.26489 0.27261 0.09155
 C3828 C 0.26920 0.25281 0.09309
 C3829 C 0.27100 0.24419 0.11046
 C3830 C 0.26850 0.25529 0.12645
 C3831 C 0.25542 0.31345 0.08791
 C3832 C 0.25329 0.32161 0.07320
 C3833 C 0.26220 0.27770 0.15980
 C3834 C 0.26180 0.27155 0.17550
 H3835 H 0.25635 0.31269 0.16982
 H3836 H 0.24915 0.34722 0.16684
 H3837 H 0.24595 0.36252 0.13601
 H3838 H 0.24990 0.34335 0.10797
 H3839 H 0.26365 0.27868 0.07775
 H3840 H 0.27116 0.24412 0.08072
 H3841 H 0.27434 0.22881 0.11156
 H3842 H 0.27006 0.24797 0.13967
 C3843 C 0.76197 0.78719 0.64261
 C3844 C 0.76531 0.77590 0.62652
 C3845 C 0.76335 0.78453 0.60864
 C3846 C 0.75805 0.80441 0.60694
 C3847 C 0.75497 0.81577 0.62305
 C3848 C 0.75694 0.80716 0.64090
 C3849 C 0.75371 0.81887 0.65676
 C3850 C 0.74868 0.83846 0.65505
 C3851 C 0.74675 0.84686 0.63762
 C3852 C 0.74985 0.83572 0.62176
 C3853 C 0.76672 0.77291 0.59279
 C3854 C 0.77188 0.75335 0.59451
 C3855 C 0.77379 0.74493 0.61197
 C3856 C 0.77055 0.75602 0.62784
 C3857 C 0.75566 0.81331 0.58874
 C3858 C 0.75356 0.82136 0.57396
 C3859 C 0.76289 0.77837 0.66097
 C3860 C 0.76271 0.77237 0.67673
 H3861 H 0.75505 0.81306 0.67065
 H3862 H 0.74626 0.84717 0.66733
 H3863 H 0.74284 0.86209 0.63636
 H3864 H 0.74818 0.84296 0.60852
 H3865 H 0.76540 0.77883 0.57892
 H3866 H 0.77442 0.74467 0.58224
 H3867 H 0.77781 0.72973 0.61322
 H3868 H 0.77223 0.74887 0.64113
 C3869 C 0.23171 0.71559 0.63630
 C3870 C 0.21798 0.70203 0.63041
 C3871 C 0.21903 0.69396 0.61228
 C3872 C 0.23379 0.69952 0.60012
 C3873 C 0.24692 0.71386 0.60568
 C3874 C 0.24588 0.72191 0.62380
 C3875 C 0.25931 0.73605 0.62909
 C3876 C 0.27334 0.74210 0.61683
 C3877 C 0.27435 0.73423 0.59912
 C3878 C 0.26134 0.72026 0.59353
 C3879 C 0.20527 0.68025 0.60681
 C3880 C 0.19084 0.67473 0.61887
 C3881 C 0.18982 0.68263 0.63657
 C3882 C 0.20322 0.69610 0.64237
 C3883 C 0.23609 0.68980 0.58233
 C3884 C 0.23833 0.68134 0.56782
 C3885 C 0.23228 0.72186 0.65555
 C3886 C 0.23387 0.72657 0.67159
 H3887 H 0.25906 0.74266 0.64270
 H3888 H 0.28347 0.75296 0.62109
 H3889 H 0.28527 0.73899 0.58964
 H3890 H 0.26267 0.71461 0.57960
 H3891 H 0.20545 0.67375 0.59316
 H3892 H 0.18040 0.66426 0.61444
 H3893 H 0.17857 0.67830 0.64587
 H3894 H 0.20182 0.70191 0.65624
 C3895 C 0.73266 0.21406 0.13763
 C3896 C 0.71950 0.19978 0.13201
 C3897 C 0.72052 0.19182 0.11384
 C3898 C 0.73468 0.19819 0.10136
 C3899 C 0.74720 0.21320 0.10666
 C3900 C 0.74619 0.22116 0.12483
 C3901 C 0.75902 0.23598 0.12985
 C3902 C 0.77244 0.24278 0.11729
 C3903 C 0.77342 0.23501 0.09954
 C3904 C 0.76099 0.22038 0.09421
 C3905 C 0.70735 0.17739 0.10864
 C3906 C 0.69353 0.17105 0.12101
 C3907 C 0.69254 0.17885 0.13876
 C3908 C 0.70536 0.19303 0.14428
 C3909 C 0.73702 0.18864 0.08349
 C3910 C 0.73926 0.18029 0.06892
 C3911 C 0.73333 0.22032 0.15687
 C3912 C 0.73497 0.22503 0.17291
 H3913 H 0.75876 0.24254 0.14348
 H3914 H 0.78212 0.25416 0.12136
 H3915 H 0.78386 0.24036 0.08984
 H3916 H 0.76227 0.21483 0.08024
 H3917 H 0.70753 0.17094 0.09497
 H3918 H 0.68354 0.16004 0.11680
 H3919 H 0.68176 0.17389 0.14831
 H3920 H 0.70400 0.19873 0.15820
 C3921 C 0.76243 0.21436 0.85671
 C3922 C 0.77302 0.22209 0.87159
 C3923 C 0.77156 0.21366 0.88960
 C3924 C 0.75951 0.19754 0.89264
 C3925 C 0.74893 0.18981 0.87774
 C3926 C 0.75039 0.19821 0.85976
 C3927 C 0.73966 0.19014 0.84513
 C3928 C 0.72786 0.17426 0.84815
 C3929 C 0.72643 0.16607 0.86571
 C3930 C 0.73679 0.17369 0.88038
 C3931 C 0.78230 0.22165 0.90422
 C3932 C 0.79415 0.23749 0.90117
 C3933 C 0.79557 0.24572 0.88360
 C3934 C 0.78515 0.23816 0.86892
 C3935 C 0.75800 0.18869 0.91096
 C3936 C 0.75633 0.18076 0.92585
 C3937 C 0.76370 0.22279 0.83820
 C3938 C 0.76363 0.22860 0.82238
 H3939 H 0.74026 0.19595 0.83119
 H3940 H 0.71978 0.16829 0.83679
 H3941 H 0.71723 0.15374 0.86799
 H3942 H 0.73517 0.16678 0.89378
 H3943 H 0.78165 0.21573 0.91812
 H3944 H 0.80227 0.24343 0.91252
 H3945 H 0.80480 0.25802 0.88132
 H3946 H 0.78670 0.24502 0.85548
 C3947 C 0.26249 0.71430 0.35551
 C3948 C 0.27217 0.72282 0.37059
 C3949 C 0.27071 0.71446 0.38863
 C3950 C 0.25957 0.69763 0.39150
 C3951 C 0.24996 0.68906 0.37639
 C3952 C 0.25143 0.69739 0.35838
 C3953 C 0.24167 0.68848 0.34353
 C3954 C 0.23081 0.67187 0.34637
 C3955 C 0.22937 0.66375 0.36396
 C3956 C 0.23880 0.67217 0.37884
 C3957 C 0.28053 0.72325 0.40346
 C3958 C 0.29149 0.73980 0.40058
 C3959 C 0.29291 0.74795 0.38297
 C3960 C 0.28338 0.73962 0.36809
 C3961 C 0.25792 0.68896 0.40989
 C3962 C 0.25615 0.68115 0.42482
 C3963 C 0.26358 0.72279 0.33701
 C3964 C 0.26339 0.72865 0.32120
 H3965 H 0.24232 0.69419 0.32956
 H3966 H 0.22347 0.66526 0.33485
 H3967 H 0.22092 0.65084 0.36610
 H3968 H 0.23722 0.66529 0.39225
 H3969 H 0.27986 0.71742 0.41739
 H3970 H 0.29893 0.74634 0.41208
 H3971 H 0.30144 0.76081 0.38082
 H3972 H 0.28491 0.74644 0.35464
 C3973 C 0.73499 0.77591 0.36662
 C3974 C 0.71838 0.78418 0.37434
 C3975 C 0.71908 0.79347 0.39195
 C3976 C 0.73640 0.79442 0.40174
 C3977 C 0.75278 0.78530 0.39441
 C3978 C 0.75208 0.77601 0.37683
 C3979 C 0.76871 0.76720 0.36972
 C3980 C 0.78556 0.76754 0.37969
 C3981 C 0.78625 0.77663 0.39687
 C3982 C 0.77011 0.78543 0.40421
 C3983 C 0.70234 0.80182 0.39927
 C3984 C 0.68537 0.80099 0.38950
 C3985 C 0.68469 0.79192 0.37230
 C3986 C 0.70098 0.78361 0.36472
 C3987 C 0.73766 0.80553 0.41886
 C3988 C 0.73918 0.81507 0.43284
 C3989 C 0.73501 0.76877 0.34763
 C3990 C 0.73592 0.76378 0.33162
 H3991 H 0.76887 0.75989 0.35645
 H3992 H 0.79814 0.76071 0.37405
 H3993 H 0.79937 0.77685 0.40456
 H3994 H 0.77135 0.79227 0.41765
 H3995 H 0.70217 0.80898 0.41261
 H3996 H 0.67268 0.80741 0.39532
 H3997 H 0.67148 0.79130 0.36478
 H3998 H 0.69976 0.77664 0.35133
 C3999 C 0.23506 0.27641 0.86591
 C4000 C 0.21851 0.28499 0.87345
 C4001 C 0.21915 0.29414 0.89113
 C4002 C 0.23634 0.29466 0.90116
 C4003 C 0.25262 0.28515 0.89405
 C4004 C 0.25197 0.27600 0.87639
 C4005 C 0.26851 0.26680 0.86950
 C4006 C 0.28518 0.26661 0.87976
 C4007 C 0.28580 0.27554 0.89702
 C4008 C 0.26976 0.28474 0.90414
 C4009 C 0.20247 0.30279 0.89827
 C4010 C 0.18562 0.30237 0.88828
 C4011 C 0.18501 0.29344 0.87101
 C4012 C 0.20124 0.28485 0.86360
 C4013 C 0.23761 0.30577 0.91829
 C4014 C 0.23910 0.31533 0.93225
 C4015 C 0.23521 0.26948 0.84686
 C4016 C 0.23616 0.26464 0.83080
 H4017 H 0.26870 0.25958 0.85618
 H4018 H 0.29768 0.25947 0.87429
 H4019 H 0.29879 0.27534 0.90494
 H4020 H 0.27094 0.29144 0.91765
 H4021 H 0.20225 0.30985 0.91167
 H4022 H 0.17297 0.30901 0.89397
 H4023 H 0.17189 0.29315 0.86331
 H4024 H 0.20007 0.27800 0.85015
 C4025 C 0.80959 0.35497 0.75880
 C4026 C 0.79955 0.37272 0.75625
 C4027 C 0.80947 0.39070 0.75557
 C4028 C 0.82939 0.39090 0.75746
 C4029 C 0.83939 0.37319 0.76043
 C4030 C 0.82947 0.35520 0.76110
 C4031 C 0.83983 0.33772 0.76394
 C4032 C 0.85940 0.33797 0.76601
 C4033 C 0.86908 0.35553 0.76540
 C4034 C 0.85926 0.37298 0.76264
 C4035 C 0.79910 0.40819 0.75287
 C4036 C 0.77951 0.40795 0.75092
 C4037 C 0.76983 0.39040 0.75159
 C4038 C 0.77966 0.37294 0.75422
 C4039 C 0.83962 0.40924 0.75606
 C4040 C 0.84816 0.42440 0.75481
 C4041 C 0.79961 0.33646 0.75807
 C4042 C 0.79146 0.32109 0.75677
 H4043 H 0.83292 0.32370 0.76462
 H4044 H 0.86711 0.32446 0.76811
 H4045 H 0.88428 0.35564 0.76705
 H4046 H 0.86742 0.38627 0.76226
 H4047 H 0.80599 0.42222 0.75226
 H4048 H 0.77180 0.42147 0.74887
 H4049 H 0.75461 0.39029 0.75007
 H4050 H 0.77150 0.35966 0.75468
 C4051 C 0.30918 0.85513 0.25777
 C4052 C 0.29913 0.87288 0.25532
 C4053 C 0.30903 0.89088 0.25471
 C4054 C 0.32896 0.89107 0.25655
 C4055 C 0.33897 0.87336 0.25943
 C4056 C 0.32906 0.85536 0.26005
 C4057 C 0.33943 0.83787 0.26280
 C4058 C 0.35901 0.83813 0.26485
 C4059 C 0.36867 0.85570 0.26430
 C4060 C 0.35885 0.87315 0.26162
 C4061 C 0.29865 0.90837 0.25212
 C4062 C 0.27905 0.90813 0.25020
 C4063 C 0.26939 0.89057 0.25080
 C4064 C 0.27923 0.87310 0.25332
 C4065 C 0.33917 0.90942 0.25517
 C4066 C 0.34770 0.92461 0.25391
 C4067 C 0.29920 0.83661 0.25700
 C4068 C 0.29102 0.82126 0.25568
 H4069 H 0.33254 0.82385 0.26343
 H4070 H 0.36672 0.82462 0.26690
 H4071 H 0.38388 0.85581 0.26593
 H4072 H 0.36699 0.88645 0.26128
 H4073 H 0.30553 0.92241 0.25157
 H4074 H 0.27134 0.92166 0.24823
 H4075 H 0.25417 0.89047 0.24931
 H4076 H 0.27107 0.85982 0.25373
 C4077 C 0.19282 0.85365 0.73697
 C4078 C 0.20129 0.87037 0.74483
 C4079 C 0.19090 0.88815 0.74610
 C4080 C 0.17207 0.88915 0.73952
 C4081 C 0.16370 0.87252 0.73136
 C4082 C 0.17411 0.85474 0.73007
 C4083 C 0.16541 0.83833 0.72193
 C4084 C 0.14698 0.83945 0.71520
 C4085 C 0.13680 0.85680 0.71649
 C4086 C 0.14499 0.87319 0.72447
 C4087 C 0.19968 0.90460 0.75409
 C4088 C 0.21817 0.90353 0.76066
 C4089 C 0.22831 0.88616 0.75944
 C4090 C 0.22005 0.86973 0.75163
 C4091 C 0.16127 0.90718 0.74139
 C4092 C 0.15235 0.92216 0.74305
 C4093 C 0.20308 0.83519 0.73679
 C4094 C 0.21165 0.81992 0.73743
 H4095 H 0.17276 0.82452 0.72062
 H4096 H 0.14057 0.82679 0.70893
 H4097 H 0.12249 0.85757 0.71126
 H4098 H 0.13652 0.88636 0.72514
 H4099 H 0.19237 0.91844 0.75535
 H4100 H 0.22465 0.91626 0.76674
 H4101 H 0.24267 0.88541 0.76457
 H4102 H 0.22853 0.85657 0.75097
 C4103 C 0.69372 0.35203 0.23839
 C4104 C 0.70176 0.36842 0.24724
 C4105 C 0.69136 0.38619 0.24848
 C4106 C 0.67296 0.38751 0.24087
 C4107 C 0.66504 0.37122 0.23174
 C4108 C 0.67545 0.35344 0.23048
 C4109 C 0.66720 0.33736 0.22135
 C4110 C 0.64921 0.33880 0.21361
 C4111 C 0.63902 0.35614 0.21488
 C4112 C 0.64676 0.37221 0.22382
 C4113 C 0.69970 0.40232 0.25747
 C4114 C 0.71776 0.40093 0.26505
 C4115 C 0.72791 0.38357 0.26386
 C4116 C 0.72008 0.36745 0.25508
 C4117 C 0.66213 0.40554 0.24264
 C4118 C 0.65319 0.42051 0.24423
 C4119 C 0.70394 0.33355 0.23817
 C4120 C 0.71250 0.31827 0.23880
 H4121 H 0.67458 0.32356 0.22003
 H4122 H 0.64315 0.32640 0.20659
 H4123 H 0.62503 0.35716 0.20887
 H4124 H 0.63830 0.38539 0.22443
 H4125 H 0.69237 0.41615 0.25874
 H4126 H 0.72391 0.41341 0.27187
 H4127 H 0.74194 0.38257 0.26977
 H4128 H 0.72855 0.35428 0.25449
 C4129 C 0.69151 0.63890 0.26502
 C4130 C 0.67197 0.63923 0.26074
 C4131 C 0.66195 0.62144 0.25879
 C4132 C 0.67150 0.60338 0.26115
 C4133 C 0.69090 0.60307 0.26598
 C4134 C 0.70092 0.62087 0.26792
 C4135 C 0.72031 0.62017 0.27266
 C4136 C 0.72955 0.60240 0.27546
 C4137 C 0.71976 0.58501 0.27357
 C4138 C 0.70066 0.58525 0.26888
 C4139 C 0.64246 0.62218 0.25440
 C4140 C 0.63314 0.63997 0.25199
 C4141 C 0.64294 0.65734 0.25386
 C4142 C 0.66212 0.65707 0.25821
 C4143 C 0.66135 0.58519 0.25861
 C4144 C 0.65272 0.57020 0.25662
 C4145 C 0.70206 0.65704 0.26533
 C4146 C 0.71051 0.67226 0.26467
 H4147 H 0.72850 0.63332 0.27434
 H4148 H 0.74438 0.60213 0.27912
 H4149 H 0.72700 0.57125 0.27577
 H4150 H 0.69364 0.57135 0.26758
 H4151 H 0.63422 0.60905 0.25280
 H4152 H 0.61823 0.64026 0.24865
 H4153 H 0.63563 0.67112 0.25198
 H4154 H 0.66909 0.67099 0.25964
 C4155 C 0.19159 0.14024 0.76389
 C4156 C 0.17221 0.14067 0.75897
 C4157 C 0.16206 0.12294 0.75714
 C4158 C 0.17133 0.10485 0.76026
 C4159 C 0.19055 0.10447 0.76572
 C4160 C 0.20071 0.12220 0.76753
 C4161 C 0.21992 0.12142 0.77291
 C4162 C 0.22885 0.10364 0.77646
 C4163 C 0.21893 0.08631 0.77470
 C4164 C 0.20001 0.08663 0.76938
 C4165 C 0.14274 0.12377 0.75211
 C4166 C 0.13370 0.14159 0.74896
 C4167 C 0.14362 0.15890 0.75073
 C4168 C 0.16264 0.15854 0.75569
 C4169 C 0.16107 0.08671 0.75781
 C4170 C 0.15236 0.07176 0.75588
 C4171 C 0.20228 0.15829 0.76417
 C4172 C 0.21080 0.17347 0.76350
 H4173 H 0.22819 0.13453 0.77452
 H4174 H 0.24355 0.10330 0.78061
 H4175 H 0.22594 0.07254 0.77748
 H4176 H 0.19288 0.07277 0.76822
 H4177 H 0.13441 0.11070 0.75057
 H4178 H 0.11892 0.14195 0.74514
 H4179 H 0.13654 0.17270 0.74827
 H4180 H 0.16971 0.17241 0.75699
 C4181 C 0.30585 0.14349 0.23899
 C4182 C 0.32566 0.14292 0.23609
 C4183 C 0.33560 0.12484 0.23703
 C4184 C 0.32571 0.10738 0.24089
 C4185 C 0.30586 0.10791 0.24345
 C4186 C 0.29592 0.12599 0.24249
 C4187 C 0.27610 0.12612 0.24520
 C4188 C 0.26638 0.10891 0.24878
 C4189 C 0.27610 0.09126 0.24974
 C4190 C 0.29561 0.09068 0.24712
 C4191 C 0.35540 0.12470 0.23417
 C4192 C 0.36512 0.14191 0.23059
 C4193 C 0.35542 0.15958 0.22977
 C4194 C 0.33591 0.16016 0.23241
 C4195 C 0.33598 0.08896 0.24242
 C4196 C 0.34466 0.07377 0.24364
 C4197 C 0.29590 0.16215 0.23945
 C4198 C 0.28784 0.17768 0.24062
 H4199 H 0.26792 0.13949 0.24456
 H4200 H 0.25122 0.10928 0.25082
 H4201 H 0.26847 0.07793 0.25253
 H4202 H 0.30254 0.07660 0.24799
 H4203 H 0.36357 0.11132 0.23470
 H4204 H 0.38026 0.14155 0.22848
 H4205 H 0.36306 0.17291 0.22706
 H4206 H 0.32899 0.17425 0.23153
 C4207 C 0.80772 0.64483 0.74028
 C4208 C 0.82747 0.64426 0.73707
 C4209 C 0.83744 0.62618 0.73794
 C4210 C 0.82763 0.60874 0.74204
 C4211 C 0.80782 0.60927 0.74489
 C4212 C 0.79785 0.62734 0.74399
 C4213 C 0.77807 0.62746 0.74699
 C4214 C 0.76842 0.61026 0.75077
 C4215 C 0.77816 0.59262 0.75166
 C4216 C 0.79763 0.59204 0.74877
 C4217 C 0.85719 0.62605 0.73478
 C4218 C 0.86683 0.64325 0.73095
 C4219 C 0.85711 0.66090 0.73018
 C4220 C 0.83765 0.66149 0.73313
 C4221 C 0.83793 0.59034 0.74352
 C4222 C 0.84661 0.57515 0.74472
 C4223 C 0.79776 0.66348 0.74082
 C4224 C 0.78968 0.67900 0.74204
 H4225 H 0.76987 0.64082 0.74640
 H4226 H 0.75329 0.61062 0.75302
 H4227 H 0.77060 0.57930 0.75462
 H4228 H 0.80459 0.57797 0.74961
 H4229 H 0.86538 0.61268 0.73525
 H4230 H 0.88195 0.64288 0.72860
 H4231 H 0.86469 0.67422 0.72727
 H4232 H 0.83070 0.67556 0.73227
 C4233 C 0.85687 0.76453 0.21776
 C4234 C 0.86161 0.78182 0.20815
 C4235 C 0.88071 0.78529 0.20320
 C4236 C 0.89478 0.77138 0.20779
 C4237 C 0.89024 0.75486 0.21863
 C4238 C 0.87117 0.75139 0.22362
 C4239 C 0.86684 0.73458 0.23420
 C4240 C 0.88102 0.72161 0.23970
 C4241 C 0.89971 0.72503 0.23480
 C4242 C 0.90435 0.74143 0.22435
 C4243 C 0.88523 0.80257 0.19346
 C4244 C 0.87122 0.81609 0.18879
 C4245 C 0.85249 0.81265 0.19357
 C4246 C 0.84764 0.79570 0.20311
 C4247 C 0.91315 0.77241 0.19914
 C4248 C 0.92785 0.77192 0.19083
 C4249 C 0.83733 0.76013 0.22157
 C4250 C 0.82125 0.75629 0.22533
 H4251 H 0.85251 0.73131 0.23838
 H4252 H 0.87748 0.70885 0.24782
 H4253 H 0.91068 0.71493 0.23912
 H4254 H 0.91910 0.74357 0.22097
 H4255 H 0.89964 0.80586 0.18955
 H4256 H 0.87492 0.82931 0.18145
 H4257 H 0.84166 0.82320 0.18995
 H4258 H 0.83291 0.79370 0.20663
 C4259 C 0.35755 0.26531 0.71748
 C4260 C 0.36247 0.28258 0.70794
 C4261 C 0.38162 0.28593 0.70312
 C4262 C 0.39557 0.27192 0.70780
 C4263 C 0.39084 0.25540 0.71855
 C4264 C 0.37172 0.25204 0.72340
 C4265 C 0.36720 0.23522 0.73388
 C4266 C 0.38125 0.22213 0.73943
 C4267 C 0.40000 0.22543 0.73467
 C4268 C 0.40482 0.24185 0.72433
 C4269 C 0.38632 0.30319 0.69343
 C4270 C 0.37243 0.31680 0.68868
 C4271 C 0.35364 0.31348 0.69332
 C4272 C 0.34863 0.29656 0.70282
 C4273 C 0.41401 0.27283 0.69928
 C4274 C 0.42877 0.27220 0.69108
 C4275 C 0.33796 0.26103 0.72116
 C4276 C 0.32184 0.25728 0.72483
 H4277 H 0.35282 0.23203 0.73794
 H4278 H 0.37756 0.20936 0.74746
 H4279 H 0.41087 0.21524 0.73903
 H4280 H 0.41961 0.24389 0.72106
 H4281 H 0.40078 0.30639 0.68962
 H4282 H 0.37626 0.33000 0.68137
 H4283 H 0.34290 0.32411 0.68964
 H4284 H 0.33385 0.29466 0.70624
 C4285 C 0.36685 0.73838 0.77265
 C4286 C 0.37946 0.75376 0.76870
 C4287 C 0.39856 0.75229 0.77445
 C4288 C 0.40478 0.73549 0.78409
 C4289 C 0.39261 0.71942 0.78655
 C4290 C 0.37350 0.72088 0.78081
 C4291 C 0.36136 0.70484 0.78379
 C4292 C 0.36800 0.68782 0.79220
 C4293 C 0.38676 0.68637 0.79778
 C4294 C 0.39899 0.70198 0.79506
 C4295 C 0.41092 0.76798 0.77080
 C4296 C 0.40454 0.78466 0.76162
 C4297 C 0.38580 0.78611 0.75596
 C4298 C 0.37333 0.77089 0.75945
 C4299 C 0.42243 0.73604 0.79403
 C4300 C 0.43621 0.73725 0.80361
 C4301 C 0.34693 0.74098 0.76922
 C4302 C 0.33037 0.74327 0.76639
 H4303 H 0.34669 0.70526 0.77957
 H4304 H 0.35855 0.67566 0.79433
 H4305 H 0.39186 0.67309 0.80424
 H4306 H 0.41349 0.70020 0.79953
 H4307 H 0.42563 0.76742 0.77485
 H4308 H 0.41418 0.79652 0.75887
 H4309 H 0.38090 0.79909 0.74884
 H4310 H 0.35889 0.77265 0.75475
 C4311 C 0.86787 0.23775 0.27469
 C4312 C 0.88039 0.25335 0.27135
 C4313 C 0.89937 0.25194 0.27748
 C4314 C 0.90555 0.23498 0.28690
 C4315 C 0.89349 0.21874 0.28877
 C4316 C 0.87450 0.22013 0.28264
 C4317 C 0.86246 0.20390 0.28499
 C4318 C 0.86908 0.18676 0.29319
 C4319 C 0.88771 0.18538 0.29918
 C4320 C 0.89984 0.20118 0.29707
 C4321 C 0.91166 0.26783 0.27440
 C4322 C 0.90532 0.28465 0.26543
 C4323 C 0.88670 0.28604 0.25941
 C4324 C 0.87430 0.27062 0.26232
 C4325 C 0.92310 0.23540 0.29702
 C4326 C 0.93687 0.23653 0.30663
 C4327 C 0.84799 0.24023 0.27090
 C4328 C 0.83145 0.24237 0.26786
 H4329 H 0.84790 0.20426 0.28044
 H4330 H 0.85971 0.17446 0.29485
 H4331 H 0.89280 0.17201 0.30548
 H4332 H 0.91425 0.19945 0.30185
 H4333 H 0.92629 0.26733 0.27875
 H4334 H 0.91490 0.29666 0.26313
 H4335 H 0.88183 0.29913 0.25244
 H4336 H 0.85996 0.27234 0.25735
 C4337 C 0.14312 0.26645 0.29550
 C4338 C 0.13730 0.28453 0.30307
 C4339 C 0.11863 0.28675 0.30999
 C4340 C 0.10603 0.27086 0.30924
 C4341 C 0.11160 0.25307 0.30086
 C4342 C 0.13025 0.25084 0.29400
 C4343 C 0.13565 0.23284 0.28591
 C4344 C 0.12292 0.21750 0.28463
 C4345 C 0.10462 0.21968 0.29132
 C4346 C 0.09894 0.23722 0.29937
 C4347 C 0.11305 0.30485 0.31766
 C4348 C 0.12563 0.32039 0.31843
 C4349 C 0.14395 0.31822 0.31170
 C4350 C 0.14980 0.30052 0.30408
 C4351 C 0.08792 0.27191 0.31841
 C4352 C 0.07306 0.27078 0.32635
 C4353 C 0.16236 0.26368 0.28940
 C4354 C 0.17820 0.26092 0.28402
 H4355 H 0.14973 0.23043 0.28047
 H4356 H 0.12728 0.20385 0.27839
 H4357 H 0.09475 0.20774 0.29028
 H4358 H 0.08452 0.23821 0.30429
 H4359 H 0.09892 0.30719 0.32301
 H4360 H 0.12114 0.33419 0.32427
 H4361 H 0.15365 0.33034 0.31229
 H4362 H 0.16414 0.29954 0.29893
 C4363 C 0.64528 0.76540 0.79877
 C4364 C 0.63813 0.78380 0.80431
 C4365 C 0.61929 0.78542 0.81091
 C4366 C 0.60785 0.76862 0.81189
 C4367 C 0.61489 0.75030 0.80595
 C4368 C 0.63371 0.74867 0.79939
 C4369 C 0.64056 0.73018 0.79365
 C4370 C 0.62908 0.71377 0.79437
 C4371 C 0.61062 0.71535 0.80078
 C4372 C 0.60353 0.73335 0.80652
 C4373 C 0.61236 0.80390 0.81648
 C4374 C 0.62380 0.82035 0.81555
 C4375 C 0.64229 0.81876 0.80913
 C4376 C 0.64944 0.80073 0.80352
 C4377 C 0.58917 0.76965 0.81988
 C4378 C 0.57380 0.76863 0.82684
 C4379 C 0.66448 0.76351 0.79226
 C4380 C 0.68025 0.76135 0.78649
 H4381 H 0.65482 0.72818 0.78855
 H4382 H 0.63454 0.69976 0.78993
 H4383 H 0.60173 0.70258 0.80130
 H4384 H 0.58905 0.73380 0.81134
 H4385 H 0.59806 0.80580 0.82153
 H4386 H 0.61829 0.83439 0.81983
 H4387 H 0.65111 0.83157 0.80844
 H4388 H 0.66388 0.80021 0.79856
 C4389 C 0.64582 0.23957 0.69946
 C4390 C 0.64018 0.25158 0.68447
 C4391 C 0.62123 0.25106 0.67816
 C4392 C 0.60810 0.23855 0.68692
 C4393 C 0.61394 0.22592 0.70136
 C4394 C 0.63292 0.22643 0.70767
 C4395 C 0.63850 0.21379 0.72222
 C4396 C 0.62565 0.20100 0.73031
 C4397 C 0.60706 0.20049 0.72410
 C4398 C 0.60118 0.21281 0.70980
 C4399 C 0.61582 0.26331 0.66322
 C4400 C 0.62881 0.27569 0.65478
 C4401 C 0.64738 0.27620 0.66099
 C4402 C 0.65309 0.26431 0.67567
 C4403 C 0.58849 0.23938 0.68142
 C4404 C 0.57245 0.24120 0.67625
 C4405 C 0.66467 0.24131 0.70684
 C4406 C 0.68027 0.24306 0.71310
 H4407 H 0.65284 0.21357 0.72743
 H4408 H 0.63016 0.19137 0.74138
 H4409 H 0.59715 0.19048 0.73038
 H4410 H 0.58660 0.21188 0.70540
 H4411 H 0.60156 0.26341 0.65783
 H4412 H 0.62444 0.28493 0.64337
 H4413 H 0.65742 0.28585 0.65442
 H4414 H 0.66770 0.26518 0.67996
 C4415 C 0.14455 0.74066 0.19933
 C4416 C 0.13881 0.75270 0.18441
 C4417 C 0.11975 0.75241 0.17839
 C4418 C 0.10661 0.74008 0.18738
 C4419 C 0.11255 0.72740 0.20174
 C4420 C 0.13163 0.72768 0.20775
 C4421 C 0.13731 0.71497 0.22222
 C4422 C 0.12445 0.70233 0.23050
 C4423 C 0.10576 0.70204 0.22458
 C4424 C 0.09979 0.71443 0.21039
 C4425 C 0.11425 0.76469 0.16350
 C4426 C 0.12725 0.77687 0.15483
 C4427 C 0.14592 0.77715 0.16075
 C4428 C 0.15172 0.76524 0.17537
 C4429 C 0.08693 0.74112 0.18216
 C4430 C 0.07082 0.74306 0.17722
 C4431 C 0.16352 0.74225 0.20649
 C4432 C 0.17920 0.74387 0.21259
 H4433 H 0.15173 0.71458 0.22719
 H4434 H 0.12905 0.69264 0.24149
 H4435 H 0.09585 0.69215 0.23102
 H4436 H 0.08512 0.71368 0.20621
 H4437 H 0.09990 0.76496 0.15835
 H4438 H 0.12280 0.78613 0.14346
 H4439 H 0.15597 0.78665 0.15399
 H4440 H 0.16642 0.76593 0.17943
   
