data_POSCAR
  _audit_creation_date              2014-09-24
  _audit_creation_method            'ToBaCCo'
  _symmetry_space_group_name_H-M    'P1'
  _symmetry_Int_Tables_number       1
  _symmetry_cell_setting            triclinic
  loop_
  _symmetry_equiv_pos_as_xyz
 x,y,z
_cell_length_a 57.7553
_cell_length_b 57.7433
_cell_length_c 58.1909
_cell_angle_alpha 89.951000
_cell_angle_beta 89.938100
_cell_angle_gamma 89.871300
loop_
  _atom_site_label
  _atom_site_type_symbol
  _atom_site_fract_x
  _atom_site_fract_y
  _atom_site_fract_z
N1 N 0.37296 0.30702 0.32482
 N2 N 0.37148 0.32120 0.30720
 C3 C 0.38915 0.31690 0.29270
 C4 C 0.40222 0.29913 0.30182
 C5 C 0.39157 0.29324 0.32217
 H6 H 0.39216 0.32574 0.27658
 H7 H 0.39658 0.27952 0.33381
 Cu8 Cu 0.34659 0.34373 0.30473
 Cu9 Cu 0.34966 0.30590 0.34875
 Cu10 Cu 0.30205 0.34187 0.34211
 N11 N 0.32329 0.36802 0.30586
 N12 N 0.30574 0.36712 0.32025
 C13 C 0.29163 0.38529 0.31634
 C14 C 0.30100 0.39825 0.29870
 C15 C 0.32107 0.38690 0.29247
 H16 H 0.27559 0.38864 0.32537
 H17 H 0.33281 0.39172 0.27880
 N18 N 0.30553 0.32011 0.36799
 N19 N 0.32406 0.30701 0.37086
 C20 C 0.32141 0.29417 0.38998
 C21 C 0.30025 0.29946 0.39954
 C22 C 0.29058 0.31596 0.38530
 H23 H 0.33369 0.28148 0.39621
 H24 H 0.27384 0.32412 0.38732
 H25 H 0.32333 0.31648 0.32749
 H26 H 0.33718 0.33966 0.34514
 N27 N 0.36969 0.80550 -0.17690
 N28 N 0.36925 0.82124 -0.19326
 C29 C 0.38675 0.81705 -0.20807
 C30 C 0.39874 0.79781 -0.20038
 C31 C 0.38749 0.79089 -0.18062
 H32 H 0.39071 0.82732 -0.22312
 H33 H 0.39189 0.77633 -0.16977
 Cu34 Cu 0.34627 0.84604 -0.19281
 Cu35 Cu 0.34717 0.80488 -0.15197
 Cu36 Cu 0.30636 0.84896 -0.15088
 N37 N 0.32286 0.87044 -0.19238
 N38 N 0.30772 0.87167 -0.17552
 C39 C 0.29372 0.89000 -0.17890
 C40 C 0.30041 0.90078 -0.19898
 C41 C 0.31889 0.88798 -0.20720
 H42 H 0.27949 0.89485 -0.16781
 H43 H 0.32857 0.89122 -0.22279
 N44 N 0.30768 0.82432 -0.12756
 N45 N 0.32296 0.80727 -0.12819
 C46 C 0.31870 0.79267 -0.11063
 C47 C 0.29999 0.80102 -0.09845
 C48 C 0.29341 0.82106 -0.10953
 H49 H 0.32829 0.77698 -0.10701
 H50 H 0.27898 0.83213 -0.10505
 H51 H 0.32094 0.82196 -0.16932
 H52 H 0.34096 0.84001 -0.15168
 N53 N 0.87161 0.30754 -0.17778
 N54 N 0.87164 0.32464 -0.19273
 C55 C 0.88946 0.32177 -0.20741
 C56 C 0.90108 0.30181 -0.20131
 C57 C 0.88937 0.29316 -0.18250
 H58 H 0.89349 0.33304 -0.22170
 H59 H 0.89340 0.27750 -0.17311
 Cu60 Cu 0.84754 0.34810 -0.19202
 Cu61 Cu 0.84833 0.30504 -0.15355
 Cu62 Cu 0.80444 0.34642 -0.15355
 N63 N 0.82314 0.37125 -0.19228
 N64 N 0.80597 0.37021 -0.17744
 C65 C 0.79106 0.38766 -0.18168
 C66 C 0.79947 0.40026 -0.20005
 C67 C 0.81980 0.38944 -0.20641
 H68 H 0.77531 0.39098 -0.17214
 H69 H 0.83110 0.39428 -0.22043
 N70 N 0.80624 0.32103 -0.13082
 N71 N 0.82317 0.30559 -0.13056
 C72 C 0.81999 0.29116 -0.11262
 C73 C 0.80014 0.29781 -0.10120
 C74 C 0.79179 0.31669 -0.11314
 H75 H 0.83121 0.27684 -0.10818
 H76 H 0.77644 0.32662 -0.10902
 H77 H 0.82219 0.32131 -0.17169
 H78 H 0.83947 0.33970 -0.15180
 N79 N 0.87032 0.80578 0.32419
 N80 N 0.86950 0.82105 0.30741
 C81 C 0.88716 0.81697 0.29279
 C82 C 0.89967 0.79832 0.30099
 C83 C 0.88856 0.79161 0.32089
 H84 H 0.89084 0.82686 0.27742
 H85 H 0.89334 0.77742 0.33207
 Cu86 Cu 0.84581 0.84515 0.30683
 Cu87 Cu 0.84769 0.80525 0.34900
 Cu88 Cu 0.80586 0.84832 0.34880
 N89 N 0.82188 0.86901 0.30680
 N90 N 0.80669 0.87037 0.32361
 C91 C 0.79249 0.88847 0.31987
 C92 C 0.79909 0.89895 0.29962
 C93 C 0.81774 0.88624 0.29168
 H94 H 0.77831 0.89350 0.33096
 H95 H 0.82757 0.88944 0.27617
 N96 N 0.80770 0.82440 0.37277
 N97 N 0.82331 0.80765 0.37262
 C98 C 0.81925 0.79341 0.39053
 C99 C 0.80037 0.80176 0.40248
 C100 C 0.79346 0.82137 0.39085
 H101 H 0.82908 0.77796 0.39453
 H102 H 0.77878 0.83224 0.39498
 H103 H 0.82115 0.82122 0.33113
 H104 H 0.84075 0.84033 0.34815
 N105 N 0.62999 0.69489 0.32376
 N106 N 0.62921 0.67779 0.30886
 C107 C 0.61106 0.68100 0.29470
 C108 C 0.59997 0.70116 0.30107
 C109 C 0.61238 0.70962 0.31950
 H110 H 0.60637 0.66974 0.28064
 H111 H 0.60878 0.72526 0.32909
 Cu112 Cu 0.65260 0.65362 0.30909
 Cu113 Cu 0.65355 0.69642 0.34783
 Cu114 Cu 0.69526 0.65281 0.34789
 N115 N 0.67629 0.62975 0.30835
 N116 N 0.69323 0.62974 0.32345
 C117 C 0.70779 0.61214 0.31871
 C118 C 0.69942 0.60054 0.29974
 C119 C 0.67945 0.61208 0.29357
 H120 H 0.72337 0.60811 0.32822
 H121 H 0.66835 0.60811 0.27916
 N122 N 0.69425 0.67773 0.37106
 N123 N 0.67875 0.69461 0.37076
 C124 C 0.68292 0.70900 0.38850
 C125 C 0.70172 0.70064 0.40054
 C126 C 0.70851 0.68086 0.38910
 H127 H 0.67294 0.72433 0.39258
 H128 H 0.72288 0.66971 0.39355
 H129 H 0.67898 0.67899 0.32980
 H130 H 0.66052 0.66142 0.34943
 N131 N 0.62813 0.19263 -0.17616
 N132 N 0.63010 0.17792 -0.19330
 C133 C 0.61280 0.18178 -0.20836
 C134 C 0.59940 0.19977 -0.20010
 C135 C 0.60954 0.20626 -0.17967
 H136 H 0.61012 0.17236 -0.22418
 H137 H 0.60402 0.22010 -0.16842
 Cu138 Cu 0.65505 0.15515 -0.19427
 Cu139 Cu 0.65030 0.19392 -0.15115
 Cu140 Cu 0.69418 0.15306 -0.15137
 N141 N 0.67906 0.13141 -0.19312
 N142 N 0.69406 0.13052 -0.17615
 C143 C 0.70831 0.11232 -0.17927
 C144 C 0.70189 0.10128 -0.19929
 C145 C 0.68334 0.11379 -0.20772
 H146 H 0.72233 0.10754 -0.16791
 H147 H 0.67368 0.11019 -0.22321
 N148 N 0.69145 0.17724 -0.12773
 N149 N 0.67444 0.19255 -0.12740
 C150 C 0.67746 0.20688 -0.10941
 C151 C 0.69734 0.20031 -0.09806
 C152 C 0.70583 0.18154 -0.11003
 H153 H 0.66641 0.22141 -0.10519
 H154 H 0.72149 0.17200 -0.10625
 H155 H 0.67790 0.17981 -0.16893
 H156 H 0.65888 0.15927 -0.15278
 N157 N 0.12906 0.69389 -0.17506
 N158 N 0.12875 0.67803 -0.19127
 C159 C 0.11090 0.68236 -0.20554
 C160 C 0.09941 0.70178 -0.19768
 C161 C 0.11132 0.70869 -0.17835
 H162 H 0.10650 0.67223 -0.22053
 H163 H 0.10754 0.72355 -0.16768
 Cu164 Cu 0.15159 0.65320 -0.19203
 Cu165 Cu 0.15278 0.69454 -0.15132
 Cu166 Cu 0.19449 0.65130 -0.15301
 N167 N 0.17532 0.62922 -0.19292
 N168 N 0.19222 0.62881 -0.17779
 C169 C 0.20644 0.61095 -0.18252
 C170 C 0.19791 0.59952 -0.20148
 C171 C 0.17817 0.61148 -0.20772
 H172 H 0.22186 0.60653 -0.17292
 H173 H 0.16696 0.60767 -0.22209
 N174 N 0.19387 0.67559 -0.12925
 N175 N 0.17818 0.69226 -0.12881
 C176 C 0.18267 0.70639 -0.11097
 C177 C 0.20192 0.69808 -0.09963
 C178 C 0.20862 0.67858 -0.11157
 H179 H 0.17273 0.72161 -0.10645
 H180 H 0.22329 0.66757 -0.10777
 H181 H 0.17796 0.67787 -0.17043
 H182 H 0.15964 0.65942 -0.15135
 N183 N 0.12791 0.19276 0.32294
 N184 N 0.12706 0.17531 0.30847
 C185 C 0.10922 0.17854 0.29393
 C186 C 0.09845 0.19908 0.29969
 C187 C 0.11068 0.20770 0.31810
 H188 H 0.10453 0.16695 0.28013
 H189 H 0.10721 0.22361 0.32729
 Cu190 Cu 0.14914 0.14997 0.30987
 Cu191 Cu 0.15109 0.19464 0.34700
 Cu192 Cu 0.19473 0.15354 0.34597
 N193 N 0.17532 0.12897 0.30773
 N194 N 0.19316 0.13045 0.32167
 C195 C 0.20843 0.11358 0.31648
 C196 C 0.19960 0.10097 0.29839
 C197 C 0.17863 0.11115 0.29319
 H198 H 0.22459 0.11048 0.32534
 H199 H 0.16668 0.10593 0.27989
 N200 N 0.19300 0.17824 0.36928
 N201 N 0.17606 0.19362 0.36987
 C202 C 0.17921 0.20774 0.38798
 C203 C 0.19909 0.20096 0.39920
 C204 C 0.20748 0.18229 0.38697
 H205 H 0.16802 0.22203 0.39260
 H206 H 0.22291 0.17238 0.39082
 H207 H 0.17566 0.17736 0.32739
 H208 H 0.15969 0.15976 0.34928
 N209 N 0.62918 0.30540 0.67509
 N210 N 0.62907 0.32076 0.69177
 C211 C 0.61112 0.31635 0.70590
 C212 C 0.59938 0.29740 0.69749
 C213 C 0.61122 0.29084 0.67794
 H214 H 0.60684 0.32609 0.72120
 H215 H 0.60725 0.27639 0.66683
 Cu216 Cu 0.65245 0.34492 0.69332
 Cu217 Cu 0.65292 0.30507 0.65126
 Cu218 Cu 0.69455 0.34821 0.65352
 N219 N 0.67559 0.36935 0.69416
 N220 N 0.69223 0.37028 0.67874
 C221 C 0.70615 0.38829 0.68352
 C222 C 0.69766 0.39927 0.70282
 C223 C 0.67827 0.38690 0.70917
 H224 H 0.72132 0.39312 0.67373
 H225 H 0.66719 0.39031 0.72377
 N226 N 0.69393 0.32431 0.62935
 N227 N 0.67830 0.30765 0.62872
 C228 C 0.68283 0.29375 0.61068
 C229 C 0.70203 0.30221 0.59939
 C230 C 0.70867 0.32154 0.61158
 H231 H 0.67297 0.27858 0.60601
 H232 H 0.72334 0.33254 0.60791
 H233 H 0.67852 0.32106 0.67028
 H234 H 0.65974 0.34018 0.65232
 N235 N 0.62817 0.80749 1.17787
 N236 N 0.62906 0.82410 1.19330
 C237 C 0.61147 0.82138 1.20829
 C238 C 0.59909 0.80202 1.20190
 C239 C 0.61011 0.79358 1.18261
 H240 H 0.60808 0.83237 1.22295
 H241 H 0.60532 0.77842 1.17282
 Cu242 Cu 0.65354 0.84718 1.19263
 Cu243 Cu 0.65040 0.80510 1.15277
 Cu244 Cu 0.69391 0.84630 1.15103
 N245 N 0.67822 0.87005 1.19152
 N246 N 0.69373 0.86978 1.17495
 C247 C 0.70861 0.88741 1.17799
 C248 C 0.70215 0.89920 1.19756
 C249 C 0.68289 0.88778 1.20581
 H250 H 0.72320 0.89122 1.16697
 H251 H 0.67311 0.89213 1.22106
 N252 N 0.69124 0.82126 1.12832
 N253 N 0.67452 0.80569 1.12876
 C254 C 0.67734 0.79113 1.11088
 C255 C 0.69677 0.79786 1.09882
 C256 C 0.70520 0.81690 1.11029
 H257 H 0.66632 0.77653 1.10704
 H258 H 0.72044 0.82676 1.10577
 H259 H 0.67736 0.82078 1.17001
 H260 H 0.65869 0.83977 1.15174
 N261 N 0.12805 0.30738 1.17759
 N262 N 0.12690 0.32538 1.19137
 C263 C 0.10923 0.32245 1.20619
 C264 C 0.09885 0.30152 1.20136
 C265 C 0.11117 0.29236 1.18318
 H266 H 0.10431 0.33460 1.21947
 H267 H 0.10795 0.27607 1.17462
 Cu268 Cu 0.14842 0.35098 1.18867
 Cu269 Cu 0.15112 0.30501 1.15330
 Cu270 Cu 0.19470 0.34605 1.15369
 N271 N 0.17484 0.37147 1.19131
 N272 N 0.19300 0.36939 1.17781
 C273 C 0.20845 0.38594 1.18319
 C274 C 0.19940 0.39899 1.20093
 C275 C 0.17810 0.38937 1.20573
 H276 H 0.22490 0.38854 1.17468
 H277 H 0.16588 0.39503 1.21866
 N278 N 0.19299 0.32108 1.13066
 N279 N 0.17608 0.30572 1.13027
 C280 C 0.17919 0.29150 1.11221
 C281 C 0.19900 0.29821 1.10082
 C282 C 0.20741 0.31691 1.11292
 H283 H 0.16800 0.27723 1.10772
 H284 H 0.22278 0.32678 1.10892
 H285 H 0.17528 0.32290 1.17266
 H286 H 0.15974 0.33974 1.14987
 N287 N 0.12869 0.80735 0.67678
 N288 N 0.13053 0.82191 0.69404
 C289 C 0.11306 0.81802 0.70894
 C290 C 0.09971 0.80016 0.70043
 C291 C 0.11006 0.79380 0.68004
 H292 H 0.11026 0.82732 0.72483
 H293 H 0.10466 0.78006 0.66865
 Cu294 Cu 0.15560 0.84448 0.69537
 Cu295 Cu 0.15107 0.80607 0.65196
 Cu296 Cu 0.19491 0.84668 0.65234
 N297 N 0.17949 0.86830 0.69414
 N298 N 0.19451 0.86924 0.67715
 C299 C 0.20866 0.88744 0.68035
 C300 C 0.20222 0.89841 0.70041
 C301 C 0.18371 0.88587 0.70879
 H302 H 0.22270 0.89227 0.66903
 H303 H 0.17404 0.88941 0.72432
 N304 N 0.19236 0.82245 0.62867
 N305 N 0.17531 0.80727 0.62831
 C306 C 0.17824 0.79301 0.61025
 C307 C 0.19811 0.79947 0.59883
 C308 C 0.20670 0.81812 0.61089
 H309 H 0.16709 0.77864 0.60596
 H310 H 0.22234 0.82762 0.60704
 H311 H 0.17878 0.82008 0.66989
 H312 H 0.15977 0.84084 0.65388
 N313 N 0.37194 0.69230 0.67454
 N314 N 0.37149 0.67680 0.69110
 C315 C 0.38900 0.68107 0.70577
 C316 C 0.40099 0.70008 0.69777
 C317 C 0.38979 0.70680 0.67797
 H318 H 0.39270 0.67129 0.72120
 H319 H 0.39399 0.72147 0.66719
 Cu320 Cu 0.34791 0.65280 0.69191
 Cu321 Cu 0.34856 0.69358 0.65069
 Cu322 Cu 0.30453 0.65297 0.65322
 N323 N 0.32334 0.62985 0.69287
 N324 N 0.30620 0.63025 0.67800
 C325 C 0.29161 0.61270 0.68269
 C326 C 0.30019 0.60068 0.70134
 C327 C 0.32029 0.61196 0.70742
 H328 H 0.27606 0.60879 0.67313
 H329 H 0.33174 0.60747 0.72142
 N330 N 0.30616 0.67730 0.62940
 N331 N 0.32334 0.69230 0.62817
 C332 C 0.31992 0.70635 0.61003
 C333 C 0.29963 0.69996 0.59944
 C334 C 0.29126 0.68155 0.61207
 H335 H 0.33115 0.72044 0.60504
 H336 H 0.27552 0.67201 0.60879
 H337 H 0.32252 0.67854 0.67025
 H338 H 0.33959 0.65878 0.65125
 N339 N 0.37239 0.19380 1.17593
 N340 N 0.37152 0.17882 1.19296
 C341 C 0.38852 0.18367 1.20802
 C342 C 0.40062 0.20255 1.19986
 C343 C 0.38996 0.20860 1.17952
 H344 H 0.39233 0.17382 1.22338
 H345 H 0.39480 0.22250 1.16802
 Cu346 Cu 0.34934 0.15354 1.19268
 Cu347 Cu 0.35225 0.19140 1.14929
 Cu348 Cu 0.30347 0.15726 1.15730
 N349 N 0.32518 0.13015 1.19274
 N350 N 0.30725 0.13174 1.17888
 C351 C 0.29264 0.11415 1.18320
 C352 C 0.30197 0.10086 1.20059
 C353 C 0.32261 0.11140 1.20627
 H354 H 0.27628 0.11142 1.17458
 H355 H 0.33452 0.10610 1.21961
 N356 N 0.30659 0.17959 1.13187
 N357 N 0.32509 0.19267 1.12899
 C358 C 0.32198 0.20623 1.11042
 C359 C 0.30068 0.20117 1.10104
 C360 C 0.29134 0.18424 1.11497
 H361 H 0.33420 0.21899 1.10434
 H362 H 0.27478 0.17585 1.11282
 H363 H 0.32631 0.18166 1.17113
 H364 H 0.33790 0.15798 1.15255
 N365 N 0.87263 0.69388 1.17479
 N366 N 0.87189 0.67847 1.19143
 C367 C 0.88951 0.68245 1.20606
 C368 C 0.90186 0.70121 1.19802
 C369 C 0.89078 0.70805 1.17817
 H370 H 0.89302 0.67267 1.22153
 H371 H 0.89526 0.72257 1.16731
 Cu372 Cu 0.84770 0.65508 1.19239
 Cu373 Cu 0.84924 0.69535 1.15080
 Cu374 Cu 0.80523 0.65459 1.15287
 N375 N 0.82373 0.63147 1.19268
 N376 N 0.80685 0.63172 1.17752
 C377 C 0.79247 0.61390 1.18179
 C378 C 0.80090 0.60183 1.20047
 C379 C 0.82072 0.61337 1.20700
 H380 H 0.77712 0.60986 1.17196
 H381 H 0.83194 0.60896 1.22122
 N382 N 0.80692 0.67904 1.12921
 N383 N 0.82402 0.69416 1.12813
 C384 C 0.82065 0.70814 1.10989
 C385 C 0.80051 0.70153 1.09910
 C386 C 0.79217 0.68312 1.11172
 H387 H 0.83185 0.72226 1.10491
 H388 H 0.77656 0.67342 1.10829
 H389 H 0.82275 0.68052 1.16983
 H390 H 0.84030 0.66057 1.15152
 N391 N 0.87040 0.19398 0.67806
 N392 N 0.87044 0.17705 0.69321
 C393 C 0.88841 0.17996 0.70769
 C394 C 0.90010 0.19976 0.70125
 C395 C 0.88823 0.20828 0.68248
 H396 H 0.89265 0.16867 0.72190
 H397 H 0.89243 0.22364 0.67269
 Cu398 Cu 0.84691 0.15297 0.69256
 Cu399 Cu 0.84774 0.19576 0.65325
 Cu400 Cu 0.80630 0.15240 0.65132
 N401 N 0.82274 0.12951 0.69198
 N402 N 0.80722 0.12914 0.67546
 C403 C 0.79265 0.11132 0.67896
 C404 C 0.79934 0.10004 0.69877
 C405 C 0.81842 0.11197 0.70667
 H406 H 0.77802 0.10713 0.66817
 H407 H 0.82826 0.10816 0.72202
 N408 N 0.80804 0.17746 0.62848
 N409 N 0.82341 0.19433 0.62944
 C410 C 0.81955 0.20907 0.61185
 C411 C 0.80100 0.20093 0.59932
 C412 C 0.79412 0.18094 0.61026
 H413 H 0.82943 0.22455 0.60833
 H414 H 0.77979 0.16997 0.60545
 H415 H 0.82167 0.17848 0.67039
 H416 H 0.84117 0.16077 0.65176
 N417 N 0.30711 0.37116 0.67508
 N418 N 0.32244 0.36988 0.69173
 C419 C 0.31863 0.38737 0.70662
 C420 C 0.30006 0.40019 0.69868
 C421 C 0.29317 0.38948 0.67869
 H422 H 0.32848 0.39057 0.72208
 H423 H 0.27882 0.39442 0.66781
 Cu424 Cu 0.34589 0.34553 0.69198
 Cu425 Cu 0.30547 0.34846 0.65053
 Cu426 Cu 0.34641 0.30455 0.65081
 N427 N 0.36907 0.32094 0.69166
 N428 N 0.36936 0.30529 0.67524
 C429 C 0.38732 0.29080 0.67861
 C430 C 0.39881 0.29769 0.69819
 C431 C 0.38681 0.31678 0.70615
 H432 H 0.39163 0.27625 0.66773
 H433 H 0.39087 0.32689 0.72124
 N434 N 0.32177 0.30687 0.62755
 N435 N 0.30646 0.32389 0.62720
 C436 C 0.29199 0.32072 0.60935
 C437 C 0.29848 0.30074 0.59811
 C438 C 0.31734 0.29236 0.61000
 H439 H 0.27756 0.33184 0.60503
 H440 H 0.32699 0.27677 0.60613
 H441 H 0.32054 0.32138 0.66869
 H442 H 0.34030 0.33964 0.65087
 N443 N 0.30551 0.87066 0.17467
 N444 N 0.32131 0.87100 0.19092
 C445 C 0.31703 0.88896 0.20507
 C446 C 0.29772 0.90049 0.19708
 C447 C 0.29079 0.88851 0.17779
 H448 H 0.32713 0.89340 0.22005
 H449 H 0.27601 0.89232 0.16704
 Cu450 Cu 0.34602 0.84807 0.19195
 Cu451 Cu 0.30488 0.84680 0.15107
 Cu452 Cu 0.34790 0.80489 0.15319
 N453 N 0.36979 0.82419 0.19311
 N454 N 0.37025 0.80719 0.17809
 C455 C 0.38806 0.79297 0.18300
 C456 C 0.39938 0.80162 0.20198
 C457 C 0.38741 0.82140 0.20802
 H458 H 0.39253 0.77750 0.17349
 H459 H 0.39118 0.83273 0.22232
 N460 N 0.32376 0.80551 0.12931
 N461 N 0.30717 0.82128 0.12872
 C462 C 0.29309 0.81675 0.11085
 C463 C 0.30134 0.79739 0.09967
 C464 C 0.32076 0.79067 0.11171
 H465 H 0.27794 0.82674 0.10622
 H466 H 0.33169 0.77590 0.10804
 H467 H 0.32139 0.82165 0.17040
 H468 H 0.34000 0.83978 0.15128
 N469 N 0.80666 0.37121 0.17598
 N470 N 0.82489 0.37330 0.18933
 C471 C 0.82167 0.39124 0.20374
 C472 C 0.80029 0.40085 0.19915
 C473 C 0.79117 0.38778 0.18149
 H474 H 0.83398 0.39690 0.21654
 H475 H 0.77466 0.39037 0.17312
 Cu476 Cu 0.85128 0.35267 0.18682
 Cu477 Cu 0.80507 0.34786 0.15180
 Cu478 Cu 0.84834 0.30638 0.15183
 N479 N 0.87231 0.32666 0.18997
 N480 N 0.87098 0.30848 0.17645
 C481 C 0.88744 0.29312 0.18251
 C482 C 0.89965 0.30225 0.20071
 C483 C 0.88969 0.32353 0.20506
 H484 H 0.89046 0.27663 0.17423
 H485 H 0.89470 0.33580 0.21816
 N486 N 0.82379 0.30740 0.12847
 N487 N 0.80693 0.32289 0.12872
 C488 C 0.79270 0.31882 0.11083
 C489 C 0.80120 0.30006 0.09878
 C490 C 0.82086 0.29321 0.11036
 H491 H 0.77738 0.32878 0.10674
 H492 H 0.83203 0.27882 0.10602
 H493 H 0.82431 0.32472 0.17113
 H494 H 0.84005 0.34121 0.14817
 N495 N 0.80611 0.87180 0.67805
 N496 N 0.82361 0.87258 0.69245
 C497 C 0.82053 0.89044 0.70698
 C498 C 0.80004 0.90133 0.70137
 C499 C 0.79126 0.88912 0.68298
 H500 H 0.83219 0.89507 0.72074
 H501 H 0.77531 0.89264 0.67390
 Cu502 Cu 0.84879 0.85026 0.69137
 Cu503 Cu 0.80425 0.84864 0.65390
 Cu504 Cu 0.84588 0.80546 0.65419
 N505 N 0.87048 0.82456 0.69255
 N506 N 0.86921 0.80696 0.67830
 C507 C 0.88638 0.79188 0.68312
 C508 C 0.89898 0.80061 0.70129
 C509 C 0.88847 0.82130 0.70690
 H510 H 0.88962 0.77587 0.67403
 H511 H 0.89353 0.83305 0.72044
 N512 N 0.82093 0.80706 0.63111
 N513 N 0.80529 0.82378 0.63083
 C514 C 0.79100 0.82052 0.61285
 C515 C 0.79793 0.80080 0.60140
 C516 C 0.81686 0.79262 0.61338
 H517 H 0.77652 0.83155 0.60846
 H518 H 0.82696 0.77737 0.60932
 H519 H 0.82168 0.82388 0.67308
 H520 H 0.83918 0.84059 0.65166
 N521 N 0.69221 0.62814 0.67653
 N522 N 0.67717 0.62926 0.69348
 C523 C 0.68119 0.61165 0.70816
 C524 C 0.69962 0.59892 0.69984
 C525 C 0.70621 0.60977 0.67978
 H526 H 0.67165 0.60837 0.72382
 H527 H 0.72045 0.60495 0.66867
 Cu528 Cu 0.65412 0.65384 0.69479
 Cu529 Cu 0.69342 0.65129 0.65229
 Cu530 Cu 0.65322 0.69596 0.65472
 N531 N 0.63072 0.67810 0.69516
 N532 N 0.63077 0.69484 0.67981
 C533 C 0.61297 0.70931 0.68414
 C534 C 0.60113 0.70105 0.70306
 C535 C 0.61278 0.68127 0.70965
 H536 H 0.60869 0.72450 0.67411
 H537 H 0.60848 0.67008 0.72393
 N538 N 0.67725 0.69373 0.63062
 N539 N 0.69209 0.67634 0.62941
 C540 C 0.70592 0.67940 0.61101
 C541 C 0.69950 0.69965 0.60022
 C542 C 0.68135 0.70837 0.61302
 H543 H 0.71991 0.66801 0.60602
 H544 H 0.67193 0.72423 0.60972
 H545 H 0.67937 0.67821 0.67139
 H546 H 0.65878 0.66080 0.65376
 N547 N 0.69538 0.12879 0.17661
 N548 N 0.67806 0.12771 0.19128
 C549 C 0.68139 0.10966 0.20556
 C550 C 0.70184 0.09894 0.19950
 C551 C 0.71036 0.11146 0.18113
 H552 H 0.66998 0.10478 0.21948
 H553 H 0.72620 0.10813 0.17176
 Cu554 Cu 0.65352 0.15064 0.19051
 Cu555 Cu 0.69697 0.15247 0.15256
 Cu556 Cu 0.65300 0.19386 0.15246
 N557 N 0.62967 0.17429 0.19164
 N558 N 0.62980 0.19144 0.17676
 C559 C 0.61228 0.20603 0.18167
 C560 C 0.60064 0.19748 0.20055
 C561 C 0.61204 0.17735 0.20650
 H562 H 0.60838 0.22179 0.17236
 H563 H 0.60801 0.16610 0.22081
 N564 N 0.67808 0.19319 0.12945
 N565 N 0.69507 0.17780 0.12971
 C566 C 0.70949 0.18220 0.11202
 C567 C 0.70105 0.20105 0.10010
 C568 C 0.68119 0.20762 0.11152
 H569 H 0.72490 0.17236 0.10792
 H570 H 0.66995 0.22194 0.10712
 H571 H 0.67909 0.17747 0.17064
 H572 H 0.66204 0.15923 0.15044
 N573 N 0.19412 0.62836 0.17518
 N574 N 0.17839 0.62816 0.19154
 C575 C 0.18285 0.61041 0.20592
 C576 C 0.20223 0.59891 0.19799
 C577 C 0.20897 0.61067 0.17848
 H578 H 0.17283 0.60610 0.22104
 H579 H 0.22373 0.60681 0.16769
 Cu580 Cu 0.15362 0.65106 0.19243
 Cu581 Cu 0.19459 0.65184 0.15124
 Cu582 Cu 0.15173 0.69386 0.15310
 N583 N 0.13003 0.67517 0.19349
 N584 N 0.12961 0.69200 0.17826
 C585 C 0.11199 0.70647 0.18317
 C586 C 0.10074 0.69815 0.20237
 C587 C 0.11254 0.67830 0.20854
 H588 H 0.10759 0.72185 0.17350
 H589 H 0.10875 0.66715 0.22299
 N590 N 0.17567 0.69281 0.12898
 N591 N 0.19220 0.67699 0.12852
 C592 C 0.20624 0.68123 0.11052
 C593 C 0.19801 0.70046 0.09910
 C594 C 0.17865 0.70742 0.11115
 H595 H 0.22139 0.67119 0.10600
 H596 H 0.16783 0.72224 0.10738
 H597 H 0.17827 0.67730 0.17050
 H598 H 0.15955 0.65903 0.15168
 N599 N 0.19293 0.12763 0.67558
 N600 N 0.17779 0.12912 0.69241
 C601 C 0.18169 0.11173 0.70743
 C602 C 0.20012 0.09877 0.69939
 C603 C 0.20684 0.10928 0.67920
 H604 H 0.17198 0.10869 0.72303
 H605 H 0.22104 0.10418 0.66818
 Cu606 Cu 0.15434 0.15348 0.69265
 Cu607 Cu 0.19441 0.15011 0.65074
 Cu608 Cu 0.15344 0.19399 0.65103
 N609 N 0.13115 0.17808 0.69231
 N610 N 0.13066 0.19351 0.67568
 C611 C 0.11265 0.20796 0.67901
 C612 C 0.10135 0.20129 0.69880
 C613 C 0.11350 0.18235 0.70692
 H614 H 0.10817 0.22232 0.66793
 H615 H 0.10959 0.17240 0.72218
 N616 N 0.17789 0.19152 0.62753
 N617 N 0.19321 0.17451 0.62718
 C618 C 0.20755 0.17758 0.60917
 C619 C 0.20095 0.19746 0.59780
 C620 C 0.18218 0.20592 0.60981
 H621 H 0.22201 0.16649 0.60486
 H622 H 0.17253 0.22151 0.60594
 H623 H 0.17964 0.17723 0.66880
 H624 H 0.15971 0.15880 0.65141
 N625 N 0.30726 0.62731 0.32453
 N626 N 0.32301 0.62785 0.30822
 C627 C 0.31899 0.61038 0.29341
 C628 C 0.29985 0.59835 0.30104
 C629 C 0.29282 0.60947 0.32079
 H630 H 0.32909 0.60668 0.27818
 H631 H 0.27805 0.60516 0.33139
 Cu632 Cu 0.34711 0.65137 0.30797
 Cu633 Cu 0.30575 0.65043 0.34866
 Cu634 Cu 0.34643 0.69441 0.34709
 N635 N 0.37004 0.67600 0.30756
 N636 N 0.36939 0.69301 0.32257
 C637 C 0.38685 0.70778 0.31817
 C638 C 0.39911 0.69946 0.29957
 C639 C 0.38807 0.67931 0.29321
 H640 H 0.39052 0.72331 0.32787
 H641 H 0.39275 0.66805 0.27911
 N642 N 0.32188 0.69255 0.37062
 N643 N 0.30682 0.67540 0.37151
 C644 C 0.29263 0.67866 0.38959
 C645 C 0.29903 0.69880 0.40049
 C646 C 0.31755 0.70725 0.38810
 H647 H 0.27846 0.66742 0.39433
 H648 H 0.32710 0.72293 0.39164
 H649 H 0.32102 0.67668 0.32946
 H650 H 0.34049 0.65941 0.34857
 N651 N 0.30539 0.12976 0.82396
 N652 N 0.32037 0.13077 0.80695
 C653 C 0.31641 0.11301 0.79246
 C654 C 0.29811 0.10028 0.80097
 C655 C 0.29151 0.11132 0.82094
 H656 H 0.32608 0.10951 0.77692
 H657 H 0.27751 0.10643 0.83229
 Cu658 Cu 0.34388 0.15489 0.80542
 Cu659 Cu 0.30465 0.15261 0.84845
 Cu660 Cu 0.34801 0.19375 0.84852
 N661 N 0.36869 0.17769 0.80658
 N662 N 0.37048 0.19240 0.82373
 C663 C 0.38905 0.20600 0.82030
 C664 C 0.39937 0.19952 0.79993
 C665 C 0.38609 0.18154 0.79160
 H666 H 0.39442 0.21987 0.83156
 H667 H 0.38890 0.17212 0.77579
 N668 N 0.32365 0.19252 0.87212
 N669 N 0.30679 0.17714 0.87182
 C670 C 0.29230 0.18144 0.88948
 C671 C 0.30058 0.20029 0.90142
 C672 C 0.32044 0.20691 0.89006
 H673 H 0.27680 0.17172 0.89338
 H674 H 0.33143 0.22140 0.89432
 H675 H 0.32054 0.17933 0.83073
 H676 H 0.33979 0.15892 0.84688
 N677 N 0.80558 0.62910 0.82461
 N678 N 0.82118 0.62892 0.80813
 C679 C 0.81683 0.61103 0.79392
 C680 C 0.79763 0.59944 0.80210
 C681 C 0.79092 0.61129 0.82157
 H682 H 0.82676 0.60670 0.77876
 H683 H 0.77628 0.60741 0.83250
 Cu684 Cu 0.84547 0.65222 0.80691
 Cu685 Cu 0.80497 0.65273 0.84844
 Cu686 Cu 0.84831 0.69411 0.84694
 N687 N 0.87006 0.67524 0.80656
 N688 N 0.87077 0.69178 0.82207
 C689 C 0.88877 0.70581 0.81753
 C690 C 0.89998 0.69752 0.79830
 C691 C 0.88777 0.67811 0.79172
 H692 H 0.89337 0.72098 0.82739
 H693 H 0.89133 0.66721 0.77703
 N694 N 0.82401 0.69353 0.87070
 N695 N 0.80728 0.67799 0.87103
 C696 C 0.79308 0.68253 0.88884
 C697 C 0.80140 0.70165 0.90027
 C698 C 0.82099 0.70824 0.88843
 H699 H 0.77777 0.67272 0.89326
 H700 H 0.83200 0.72284 0.89229
 H701 H 0.82142 0.67834 0.82966
 H702 H 0.84015 0.65934 0.84784
 N703 N 0.80744 0.12724 0.32332
 N704 N 0.82427 0.12749 0.30809
 C705 C 0.82150 0.10963 0.29350
 C706 C 0.80190 0.09773 0.29990
 C707 C 0.79330 0.10929 0.31884
 H708 H 0.83257 0.10586 0.27899
 H709 H 0.77784 0.10504 0.32844
 Cu710 Cu 0.84729 0.15189 0.30794
 Cu711 Cu 0.80508 0.15040 0.34760
 Cu712 Cu 0.84583 0.19450 0.34710
 N713 N 0.87021 0.17640 0.30798
 N714 N 0.86922 0.19340 0.32295
 C715 C 0.88653 0.20839 0.31867
 C716 C 0.89897 0.20018 0.30012
 C717 C 0.88824 0.17991 0.29373
 H718 H 0.88992 0.22403 0.32830
 H719 H 0.89306 0.16876 0.27962
 N720 N 0.82092 0.19243 0.37018
 N721 N 0.80567 0.17541 0.37067
 C722 C 0.79141 0.17855 0.38876
 C723 C 0.79800 0.19848 0.40002
 C724 C 0.81665 0.20689 0.38784
 H725 H 0.77718 0.16733 0.39335
 H726 H 0.82639 0.22237 0.39172
 H727 H 0.82064 0.17671 0.32918
 H728 H 0.83972 0.15929 0.34843
 N729 N 0.69326 0.37283 0.32291
 N730 N 0.67640 0.37277 0.30773
 C731 C 0.67946 0.39047 0.29296
 C732 C 0.69930 0.40207 0.29924
 C733 C 0.70769 0.39050 0.31824
 H734 H 0.66844 0.39437 0.27846
 H735 H 0.72321 0.39455 0.32780
 Cu736 Cu 0.65316 0.34861 0.30824
 Cu737 Cu 0.69544 0.34976 0.34734
 Cu738 Cu 0.65443 0.30568 0.34681
 N739 N 0.63040 0.32401 0.30742
 N740 N 0.63129 0.30689 0.32233
 C741 C 0.61410 0.29187 0.31777
 C742 C 0.60187 0.30013 0.29911
 C743 C 0.61261 0.32049 0.29292
 H744 H 0.61064 0.27619 0.32734
 H745 H 0.60787 0.33175 0.27883
 N746 N 0.67921 0.30784 0.37009
 N747 N 0.69453 0.32480 0.37048
 C748 C 0.70871 0.32174 0.38859
 C749 C 0.70202 0.30194 0.40000
 C750 C 0.68337 0.29348 0.38789
 H751 H 0.72299 0.33292 0.39308
 H752 H 0.67359 0.27805 0.39187
 H753 H 0.67974 0.32348 0.32908
 H754 H 0.66085 0.34077 0.34862
 N755 N 0.69424 0.86900 0.82101
 N756 N 0.67626 0.87098 0.80730
 C757 C 0.67878 0.88999 0.79413
 C758 C 0.69948 0.90032 0.79982
 C759 C 0.70895 0.88660 0.81685
 H760 H 0.66668 0.89575 0.78115
 H761 H 0.72529 0.88921 0.82550
 Cu762 Cu 0.65165 0.84815 0.80746
 Cu763 Cu 0.69716 0.84368 0.84308
 Cu764 Cu 0.65014 0.80671 0.84802
 N765 N 0.62734 0.82507 0.80808
 N766 N 0.62683 0.80886 0.82396
 C767 C 0.60866 0.79485 0.82004
 C768 C 0.59723 0.80287 0.80082
 C769 C 0.60944 0.82202 0.79362
 H770 H 0.60427 0.77977 0.83016
 H771 H 0.60583 0.83253 0.77866
 N772 N 0.67571 0.80725 0.87035
 N773 N 0.69390 0.82092 0.86824
 C774 C 0.70858 0.81668 0.88575
 C775 C 0.69913 0.79955 0.89938
 C776 C 0.67834 0.79398 0.88921
 H777 H 0.72496 0.82529 0.88839
 H778 H 0.66621 0.78097 0.89497
 H779 H 0.67564 0.81943 0.82719
 H780 H 0.66187 0.84077 0.84719
 N781 N 0.19445 0.36992 0.82402
 N782 N 0.17947 0.36891 0.80703
 C783 C 0.18362 0.38651 0.79237
 C784 C 0.20202 0.39916 0.80075
 C785 C 0.20849 0.38822 0.82082
 H786 H 0.17400 0.38998 0.77681
 H787 H 0.22250 0.39310 0.83212
 Cu788 Cu 0.15578 0.34493 0.80583
 Cu789 Cu 0.19496 0.34730 0.84879
 Cu790 Cu 0.15151 0.30620 0.84903
 N791 N 0.13105 0.32199 0.80689
 N792 N 0.12925 0.30732 0.82409
 C793 C 0.11083 0.29355 0.82066
 C794 C 0.10058 0.29988 0.80022
 C795 C 0.11377 0.31795 0.79186
 H796 H 0.10550 0.27969 0.83198
 H797 H 0.11098 0.32730 0.77599
 N798 N 0.17565 0.30763 0.87277
 N799 N 0.19255 0.32298 0.87243
 C800 C 0.20694 0.31871 0.89017
 C801 C 0.19854 0.29993 0.90219
 C802 C 0.17873 0.29332 0.89080
 H803 H 0.22249 0.32834 0.89400
 H804 H 0.16773 0.27881 0.89506
 H805 H 0.17906 0.32059 0.83124
 H806 H 0.15982 0.34104 0.84734
 N807 N 0.19342 0.87254 0.32423
 N808 N 0.17798 0.87192 0.30763
 C809 C 0.18217 0.88943 0.29289
 C810 C 0.20108 0.90158 0.30083
 C811 C 0.20780 0.89049 0.32072
 H812 H 0.17238 0.89306 0.27746
 H813 H 0.22234 0.89490 0.33156
 Cu814 Cu 0.15412 0.84818 0.30684
 Cu815 Cu 0.19455 0.84938 0.34841
 Cu816 Cu 0.15362 0.80570 0.34663
 N817 N 0.13062 0.82411 0.30675
 N818 N 0.13084 0.80724 0.32199
 C819 C 0.11306 0.79283 0.31775
 C820 C 0.10106 0.80121 0.29900
 C821 C 0.11260 0.82102 0.29241
 H822 H 0.10901 0.77748 0.32763
 H823 H 0.10824 0.83220 0.27811
 N824 N 0.17797 0.80735 0.37032
 N825 N 0.19312 0.82442 0.37131
 C826 C 0.20711 0.82107 0.38950
 C827 C 0.20051 0.80094 0.40036
 C828 C 0.18205 0.79261 0.38784
 H829 H 0.22130 0.83221 0.39433
 H830 H 0.17237 0.77699 0.39131
 H831 H 0.17952 0.82314 0.32930
 H832 H 0.15969 0.84083 0.34770
 C833 C 0.25941 1.02224 0.24060
 C834 C 0.24120 1.02237 0.25708
 C835 C 0.23332 1.00102 0.26559
 C836 C 0.24169 0.97957 0.25776
 C837 C 0.25787 0.97946 0.23933
 C838 C 0.26676 1.00079 0.23174
 H839 H 0.27982 1.00068 0.21856
 H840 H 0.22027 1.00109 0.27877
 C841 C 0.25919 0.52134 0.74183
 C842 C 0.24031 0.52113 0.75758
 C843 C 0.23263 0.49963 0.76602
 C844 C 0.24193 0.47831 0.75880
 C845 C 0.25898 0.47849 0.74115
 C846 C 0.26761 0.49998 0.73372
 H847 H 0.28126 0.50007 0.72116
 H848 H 0.21903 0.49946 0.77865
 C849 C 0.76038 -0.02306 0.25749
 C850 C 0.74424 -0.02285 0.23905
 C851 C 0.73586 -0.00135 0.23131
 C852 C 0.74342 0.01996 0.24019
 C853 C 0.76135 0.01977 0.25691
 C854 C 0.76891 -0.00174 0.26544
 H855 H 0.78178 -0.00186 0.27876
 H856 H 0.72297 -0.00120 0.21801
 C857 C 0.75703 0.47786 0.76072
 C858 C 0.73863 0.47779 0.74449
 C859 C 0.73091 0.49915 0.73576
 C860 C 0.73968 0.52059 0.74312
 C861 C 0.75615 0.52070 0.76128
 C862 C 0.76477 0.49932 0.76913
 H863 H 0.77796 0.49940 0.78214
 H864 H 0.71772 0.49909 0.72274
 C865 C 0.26014 0.47738 0.25753
 C866 C 0.24193 0.47748 0.24109
 C867 C 0.23444 0.49893 0.23232
 C868 C 0.24317 0.52029 0.23995
 C869 C 0.25944 0.52020 0.25826
 C870 C 0.26796 0.49876 0.26602
 H871 H 0.28104 0.49870 0.27914
 H872 H 0.22137 0.49902 0.21919
 C873 C 0.75798 1.02253 0.74214
 C874 C 0.74128 1.02281 0.76011
 C875 C 0.73263 1.00150 0.76808
 C876 C 0.74074 0.97994 0.76016
 C877 C 0.75913 0.97972 0.74385
 C878 C 0.76686 1.00103 0.73502
 H879 H 0.78016 1.00089 0.72209
 H880 H 0.71915 1.00175 0.78082
 C881 C 0.75923 0.52269 0.24057
 C882 C 0.74113 0.52267 0.25716
 C883 C 0.73315 0.50125 0.26540
 C884 C 0.74089 0.47986 0.25682
 C885 C 0.75892 0.47982 0.24017
 C886 C 0.76709 0.50126 0.23206
 H887 H 0.77953 0.50131 0.21830
 H888 H 0.72099 0.50124 0.27940
 C889 C 0.25938 -0.02203 0.75949
 C890 C 0.24246 -0.02232 0.74173
 C891 C 0.23352 -0.00103 0.73399
 C892 C 0.24153 0.02054 0.74185
 C893 C 0.25843 0.02082 0.75963
 C894 C 0.26738 -0.00046 0.76737
 H895 H 0.28139 -0.00021 0.77952
 H896 H 0.21949 -0.00127 0.72186
 C897 C 0.24035 0.25737 1.02229
 C898 C 0.25850 0.24065 1.02219
 C899 C 0.26657 0.23249 1.00087
 C900 C 0.25860 0.24110 0.97966
 C901 C 0.24044 0.25779 0.97979
 C902 C 0.23241 0.26595 1.00111
 H903 H 0.22004 0.27990 1.00124
 H904 H 0.27905 0.21865 1.00079
 C905 C 0.23978 0.75753 0.52105
 C906 C 0.25801 0.74092 0.52113
 C907 C 0.26594 0.73238 0.49990
 C908 C 0.25757 0.74031 0.47862
 C909 C 0.24104 0.75861 0.47856
 C910 C 0.23222 0.76625 0.49977
 H911 H 0.21907 0.77944 0.49972
 H912 H 0.27906 0.71916 0.49995
 C913 C 0.25914 0.75775 -0.02105
 C914 C 0.24254 0.73960 -0.02125
 C915 C 0.23346 0.73205 -0.00010
 C916 C 0.24104 0.74061 0.02122
 C917 C 0.25974 0.75661 0.02142
 C918 C 0.26780 0.76518 0.00026
 H919 H 0.28117 0.77809 0.00038
 H920 H 0.22008 0.71913 -0.00026
 C921 C 0.25832 0.25860 0.47768
 C922 C 0.24042 0.24172 0.47756
 C923 C 0.23305 0.23255 0.49872
 C924 C 0.24161 0.24017 0.52001
 C925 C 0.25765 0.25882 0.52016
 C926 C 0.26599 0.26703 0.49898
 H927 H 0.27889 0.28039 0.49907
 H928 H 0.22024 0.21908 0.49861
 C929 C 0.73933 0.75758 1.02066
 C930 C 0.75821 0.74170 1.02067
 C931 C 0.76695 0.73415 0.99941
 C932 C 0.75901 0.74262 0.97817
 C933 C 0.74023 0.75863 0.97814
 C934 C 0.73137 0.76606 0.99942
 H935 H 0.71832 0.77935 0.99949
 H936 H 0.77991 0.72077 0.99937
 C937 C 0.74358 0.26106 0.52102
 C938 C 0.75981 0.24246 0.52097
 C939 C 0.76737 0.23378 0.49966
 C940 C 0.75879 0.24167 0.47845
 C941 C 0.74280 0.26045 0.47849
 C942 C 0.73516 0.26910 0.49978
 H943 H 0.72174 0.28203 0.49983
 H944 H 0.78081 0.22088 0.49952
 C945 C 0.75914 0.25828 -0.02176
 C946 C 0.74068 0.24202 -0.02132
 C947 C 0.73298 0.23385 0.00010
 C948 C 0.74140 0.24216 0.02117
 C949 C 0.75971 0.25863 0.02077
 C950 C 0.76762 0.26661 -0.00068
 H951 H 0.78035 0.28018 -0.00100
 H952 H 0.72046 0.22010 0.00036
 C953 C 0.75818 0.75987 0.47999
 C954 C 0.74165 0.74163 0.47968
 C955 C 0.73307 0.73348 0.50080
 C956 C 0.74099 0.74148 0.52222
 C957 C 0.75756 0.75969 0.52252
 C958 C 0.76615 0.76783 0.50140
 H959 H 0.77994 0.78031 0.50163
 H960 H 0.71935 0.72092 0.50056
 C961 C 1.02025 0.24189 0.25915
 C962 C 1.02032 0.26012 0.24273
 C963 C 0.99894 0.26827 0.23451
 C964 C 0.97750 0.26039 0.24286
 C965 C 0.97746 0.24224 0.25938
 C966 C 0.99884 0.23411 0.26761
 H967 H 0.99884 0.22176 0.28144
 H968 H 0.99899 0.28067 0.22072
 C969 C 0.52072 0.23942 0.75684
 C970 C 0.52070 0.25603 0.73877
 C971 C 0.49925 0.26445 0.73088
 C972 C 0.47784 0.25625 0.73902
 C973 C 0.47789 0.23953 0.75700
 C974 C 0.49932 0.23105 0.76478
 H975 H 0.49936 0.21712 0.77705
 H976 H 0.49925 0.27828 0.71849
 C977 C -0.02060 0.26012 0.75688
 C978 C -0.02059 0.24131 0.74108
 C979 C 0.00086 0.23330 0.73274
 C980 C 0.02227 0.24222 0.74010
 C981 C 0.02223 0.25922 0.75777
 C982 C 0.00081 0.26814 0.76513
 H983 H 0.00082 0.28168 0.77777
 H984 H 0.00092 0.21971 0.72012
 C985 C 0.48039 0.25782 0.25975
 C986 C 0.48019 0.24152 0.24146
 C987 C 0.50149 0.23261 0.23376
 C988 C 0.52297 0.23996 0.24247
 C989 C 0.52316 0.25825 0.25881
 C990 C 0.50185 0.26619 0.26742
 H991 H 0.50196 0.27933 0.28048
 H992 H 0.50134 0.21959 0.22056
 C993 C 1.02093 0.74250 0.75991
 C994 C 1.02091 0.75936 0.74208
 C995 C 0.99946 0.76771 0.73417
 C996 C 0.97807 0.75921 0.74203
 C997 C 0.97819 0.74045 0.75790
 C998 C 0.99960 0.73307 0.76682
 H999 H 0.99968 0.71957 0.77957
 H1000 H 0.99943 0.78120 0.72145
 C1001 C 0.52085 0.74259 0.26044
 C1002 C 0.52080 0.76116 0.24435
 C1003 C 0.49937 0.76929 0.23621
 C1004 C 0.47796 0.76087 0.24408
 C1005 C 0.47799 0.74221 0.26006
 C1006 C 0.49943 0.73414 0.26829
 H1007 H 0.49941 0.72128 0.28166
 H1008 H 0.49934 0.78206 0.22276
 C1009 C -0.02073 0.75860 0.25946
 C1010 C -0.02052 0.74180 0.24161
 C1011 C 0.00093 0.73270 0.23458
 C1012 C 0.02225 0.74046 0.24325
 C1013 C 0.02211 0.75924 0.25907
 C1014 C 0.00060 0.76735 0.26718
 H1015 H 0.00044 0.78084 0.27989
 H1016 H 0.00103 0.71920 0.22187
 C1017 C 0.47738 0.75870 0.75881
 C1018 C 0.47802 0.74201 0.74087
 C1019 C 0.49970 0.73351 0.73369
 C1020 C 0.52083 0.74170 0.74243
 C1021 C 0.52017 0.76024 0.75851
 C1022 C 0.49849 0.76778 0.76664
 H1023 H 0.49802 0.78110 0.77951
 H1024 H 0.50013 0.72012 0.72087
 C1025 C 0.45948 0.28104 0.29450
 C1026 C 0.44477 0.30062 0.28377
 C1027 C 0.42278 0.28780 0.29118
 C1028 C 0.43725 0.26841 0.30211
 C1029 C 0.42197 0.27469 0.26833
 C1030 C 0.44430 0.28744 0.26066
 C1031 C 0.45889 0.26780 0.27129
 C1032 C 0.43681 0.25506 0.27911
 H1033 H 0.47419 0.28379 0.30642
 H1034 H 0.44791 0.31946 0.28584
 H1035 H 0.43436 0.26066 0.31934
 H1036 H 0.40618 0.27228 0.25773
 H1037 H 0.44737 0.29571 0.24371
 H1038 H 0.43312 0.23630 0.27871
 C1039 C 0.45531 0.78126 0.79325
 C1040 C 0.44044 0.80071 0.78248
 C1041 C 0.41853 0.78745 0.78944
 C1042 C 0.43318 0.76819 0.80041
 C1043 C 0.41830 0.77454 0.76644
 C1044 C 0.44058 0.78770 0.75923
 C1045 C 0.45534 0.76821 0.76992
 C1046 C 0.43334 0.75505 0.77728
 H1047 H 0.46982 0.78413 0.80539
 H1048 H 0.44333 0.81957 0.78474
 H1049 H 0.43030 0.76016 0.81751
 H1050 H 0.40278 0.77192 0.75550
 H1051 H 0.44373 0.79606 0.74233
 H1052 H 0.42996 0.73624 0.77666
 C1053 C -0.04186 0.29511 0.77975
 C1054 C -0.06442 0.30239 0.76751
 C1055 C -0.07842 0.29128 0.78702
 C1056 C -0.05609 0.28419 0.79944
 C1057 C -0.07905 0.26815 0.77414
 C1058 C -0.06466 0.27912 0.75438
 C1059 C -0.04225 0.27163 0.76674
 C1060 C -0.05639 0.26083 0.78649
 H1061 H -0.02732 0.30739 0.78220
 H1062 H -0.06770 0.31966 0.75977
 H1063 H -0.05263 0.28644 0.81807
 H1064 H -0.09468 0.25721 0.77202
 H1065 H -0.06867 0.27861 0.73583
 H1066 H -0.05298 0.24379 0.79466
 C1067 C -0.04248 0.78147 0.29399
 C1068 C -0.05748 0.80083 0.28325
 C1069 C -0.07934 0.78754 0.29037
 C1070 C -0.06456 0.76836 0.30131
 C1071 C -0.07961 0.77456 0.26740
 C1072 C -0.05743 0.78777 0.26004
 C1073 C -0.04257 0.76835 0.27071
 C1074 C -0.06449 0.75516 0.27822
 H1075 H -0.02784 0.78443 0.30596
 H1076 H -0.05468 0.81971 0.28547
 H1077 H -0.06744 0.76044 0.31846
 H1078 H -0.09519 0.77188 0.25659
 H1079 H -0.05436 0.79613 0.24313
 H1080 H -0.06781 0.73634 0.27758
 C1081 C 0.55737 0.74246 0.28941
 C1082 C 0.55727 0.71939 0.30296
 C1083 C 0.57917 0.71181 0.29002
 C1084 C 0.57961 0.73463 0.27656
 C1085 C 0.56448 0.70040 0.27123
 C1086 C 0.54236 0.70816 0.28400
 C1087 C 0.54258 0.73131 0.27039
 C1088 C 0.56456 0.72334 0.25755
 H1089 H 0.55431 0.75971 0.29726
 H1090 H 0.55435 0.71761 0.32174
 H1091 H 0.59527 0.74535 0.27367
 H1092 H 0.56734 0.68292 0.26381
 H1093 H 0.52780 0.69609 0.28726
 H1094 H 0.56797 0.72351 0.23885
 C1095 C 0.55757 0.21039 0.75792
 C1096 C 0.57952 0.22363 0.76583
 C1097 C 0.57873 0.21050 0.78872
 C1098 C 0.55713 0.19717 0.78106
 C1099 C 0.56363 0.22955 0.79943
 C1100 C 0.56406 0.24290 0.77642
 C1101 C 0.54239 0.22968 0.76837
 C1102 C 0.54181 0.21640 0.79159
 H1103 H 0.55496 0.20211 0.74092
 H1104 H 0.59536 0.22643 0.75539
 H1105 H 0.55436 0.17827 0.78314
 H1106 H 0.56604 0.23738 0.81667
 H1107 H 0.56735 0.26174 0.77598
 H1108 H 0.52699 0.21328 0.80333
 C1109 C 1.04199 0.71977 0.79489
 C1110 C 1.05681 0.70021 0.78429
 C1111 C 1.07878 0.71313 0.79165
 C1112 C 1.06418 0.73251 0.80245
 C1113 C 1.07956 0.72615 0.76870
 C1114 C 1.05729 0.71330 0.76110
 C1115 C 1.04258 0.73292 0.77160
 C1116 C 1.06460 0.74577 0.77936
 H1117 H 1.02713 0.71709 0.80669
 H1118 H 1.05368 0.68137 0.78647
 H1119 H 1.06702 0.74032 0.81964
 H1120 H 1.09531 0.72862 0.75803
 H1121 H 1.05435 0.70506 0.74413
 H1122 H 1.06828 0.76452 0.77895
 C1123 C 1.06380 0.22218 0.25603
 C1124 C 1.07881 0.23297 0.27536
 C1125 C 1.07795 0.20993 0.28842
 C1126 C 1.06331 0.19901 0.26934
 C1127 C 1.05605 0.21759 0.30131
 C1128 C 1.05658 0.24087 0.28816
 C1129 C 1.04183 0.23022 0.26884
 C1130 C 1.04119 0.20685 0.28204
 H1131 H 1.06744 0.22255 0.23740
 H1132 H 1.09461 0.24357 0.27279
 H1133 H 1.06605 0.18161 0.26170
 H1134 H 1.05292 0.21553 0.32003
 H1135 H 1.05366 0.25803 0.29625
 H1136 H 1.02637 0.19499 0.28491
 C1137 C 0.55668 0.28573 0.73818
 C1138 C 0.57922 0.27302 0.73088
 C1139 C 0.57866 0.28602 0.70791
 C1140 C 0.55645 0.29882 0.71498
 C1141 C 0.56444 0.26655 0.69693
 C1142 C 0.56465 0.25331 0.72003
 C1143 C 0.54236 0.26601 0.72748
 C1144 C 0.54200 0.27915 0.70419
 H1145 H 0.55338 0.29399 0.75509
 H1146 H 0.59483 0.27068 0.74175
 H1147 H 0.55315 0.31763 0.71274
 H1148 H 0.56761 0.25874 0.67979
 H1149 H 0.56853 0.23458 0.72057
 H1150 H 0.52732 0.28177 0.69217
 C1151 C 0.55658 0.76137 0.21467
 C1152 C 0.55621 0.78456 0.20137
 C1153 C 0.57853 0.79179 0.21368
 C1154 C 0.57922 0.76882 0.22690
 C1155 C 0.56450 0.80317 0.23303
 C1156 C 0.54196 0.79576 0.22090
 C1157 C 0.54243 0.77246 0.23426
 C1158 C 0.56482 0.78008 0.24650
 H1159 H 0.55322 0.74421 0.20679
 H1160 H 0.55272 0.78656 0.18272
 H1161 H 0.59487 0.75787 0.22918
 H1162 H 0.56774 0.82056 0.24047
 H1163 H 0.52734 0.80798 0.21829
 H1164 H 0.56885 0.77983 0.26505
 C1165 C 1.06412 0.27911 0.24547
 C1166 C 1.07897 0.26799 0.22613
 C1167 C 1.07835 0.29098 0.21295
 C1168 C 1.06388 0.30223 0.23206
 C1169 C 1.05632 0.28362 0.20022
 C1170 C 1.05660 0.26040 0.21347
 C1171 C 1.04202 0.27137 0.23281
 C1172 C 1.04163 0.29469 0.21950
 H1173 H 1.06777 0.27868 0.26410
 H1174 H 1.09465 0.25715 0.22870
 H1175 H 1.06687 0.31960 0.23964
 H1176 H 1.05320 0.28565 0.18151
 H1177 H 1.05347 0.24327 0.20542
 H1178 H 1.02696 0.30678 0.21662
 C1179 C 1.04219 0.78302 0.70787
 C1180 C 1.05705 0.80231 0.71878
 C1181 C 1.07898 0.78928 0.71133
 C1182 C 1.06433 0.77016 0.70024
 C1183 C 1.07958 0.77595 0.73411
 C1184 C 1.05729 0.78889 0.74181
 C1185 C 1.04258 0.76954 0.73097
 C1186 C 1.06459 0.75661 0.72314
 H1187 H 1.02754 0.78610 0.69593
 H1188 H 1.05402 0.82120 0.71684
 H1189 H 1.06711 0.76248 0.68298
 H1190 H 1.09528 0.77322 0.74476
 H1191 H 1.05425 0.79698 0.75884
 H1192 H 1.06811 0.73780 0.72352
 C1193 C 0.45785 0.71878 0.70588
 C1194 C 0.44333 0.69897 0.71636
 C1195 C 0.42121 0.71158 0.70880
 C1196 C 0.43551 0.73120 0.69812
 C1197 C 0.41992 0.72455 0.73172
 C1198 C 0.44237 0.71203 0.73955
 C1199 C 0.45677 0.73188 0.72915
 C1200 C 0.43458 0.74441 0.72120
 H1201 H 0.47281 0.71630 0.69415
 H1202 H 0.44682 0.68019 0.71421
 H1203 H 0.43272 0.73903 0.68091
 H1204 H 0.40399 0.72675 0.74219
 H1205 H 0.44531 0.70383 0.75656
 H1206 H 0.43061 0.76312 0.72171
 C1207 C 0.45845 0.21913 0.20665
 C1208 C 0.44339 0.19985 0.21737
 C1209 C 0.42157 0.21333 0.21036
 C1210 C 0.43639 0.23240 0.19942
 C1211 C 0.42134 0.22622 0.23335
 C1212 C 0.44347 0.21282 0.24061
 C1213 C 0.45839 0.23217 0.22998
 C1214 C 0.43650 0.24554 0.22254
 H1215 H 0.47306 0.21610 0.19462
 H1216 H 0.44611 0.18096 0.21504
 H1217 H 0.43348 0.24041 0.18232
 H1218 H 0.40577 0.22896 0.24422
 H1219 H 0.44655 0.20433 0.25745
 H1220 H 0.43318 0.26437 0.22298
 C1221 C -0.06403 0.74496 0.22190
 C1222 C -0.06322 0.73197 0.19870
 C1223 C -0.07775 0.71240 0.20915
 C1224 C -0.07893 0.72516 0.23222
 C1225 C -0.05577 0.69949 0.21664
 C1226 C -0.04102 0.71925 0.20638
 C1227 C -0.04199 0.73214 0.22978
 C1228 C -0.05662 0.71232 0.23995
 H1229 H -0.06788 0.76370 0.22251
 H1230 H -0.06589 0.73998 0.18156
 H1231 H -0.09483 0.72742 0.24272
 H1232 H -0.05243 0.68070 0.21432
 H1233 H -0.02606 0.71676 0.19467
 H1234 H -0.05380 0.70390 0.25687
 C1235 C -0.05713 0.24062 0.71235
 C1236 C -0.05705 0.21735 0.69922
 C1237 C -0.07896 0.21009 0.71231
 C1238 C -0.07934 0.23313 0.72536
 C1239 C -0.06427 0.19889 0.73128
 C1240 C -0.04212 0.20636 0.71837
 C1241 C -0.04231 0.22973 0.73156
 C1242 C -0.06429 0.22208 0.74456
 H1243 H -0.05406 0.25772 0.70418
 H1244 H -0.05413 0.21525 0.68048
 H1245 H -0.09499 0.24399 0.72807
 H1246 H -0.06718 0.18155 0.73899
 H1247 H -0.02750 0.19424 0.71534
 H1248 H -0.06770 0.22254 0.76325
 C1249 C 0.29454 0.45589 0.28108
 C1250 C 0.28325 0.44124 0.30027
 C1251 C 0.29067 0.41917 0.28757
 C1252 C 0.30215 0.43358 0.26857
 C1253 C 0.26783 0.41874 0.27418
 C1254 C 0.26017 0.44115 0.28680
 C1255 C 0.27137 0.45566 0.26755
 C1256 C 0.27919 0.43350 0.25495
 H1257 H 0.30667 0.47045 0.28407
 H1258 H 0.28505 0.44436 0.31900
 H1259 H 0.31961 0.43053 0.26116
 H1260 H 0.25697 0.40314 0.27155
 H1261 H 0.24298 0.44442 0.29471
 H1262 H 0.27904 0.42981 0.23633
 C1263 C 0.28336 -0.04286 0.79376
 C1264 C 0.27070 -0.06497 0.80170
 C1265 C 0.28987 -0.07966 0.79063
 C1266 C 0.30275 -0.05778 0.78291
 C1267 C 0.27649 -0.08057 0.76793
 C1268 C 0.25708 -0.06551 0.77887
 C1269 C 0.26980 -0.04354 0.77074
 C1270 C 0.28924 -0.05831 0.75994
 H1271 H 0.28636 -0.02805 0.80551
 H1272 H 0.26305 -0.06751 0.81902
 H1273 H 0.32161 -0.05467 0.78473
 H1274 H 0.27384 -0.09637 0.75742
 H1275 H 0.23831 -0.06914 0.77871
 H1276 H 0.29723 -0.05542 0.74283
 C1277 C 0.77679 0.43439 0.75732
 C1278 C 0.79999 0.43474 0.77055
 C1279 C 0.78908 0.41987 0.78954
 C1280 C 0.76604 0.41912 0.77654
 C1281 C 0.78145 0.44161 0.80268
 C1282 C 0.79213 0.45673 0.78350
 C1283 C 0.76875 0.45622 0.77035
 C1284 C 0.75815 0.44123 0.78957
 H1285 H 0.77632 0.43104 0.73863
 H1286 H 0.81735 0.43221 0.76274
 H1287 H 0.75547 0.40333 0.77383
 H1288 H 0.78352 0.44453 0.82141
 H1289 H 0.80402 0.47148 0.78651
 H1290 H 0.74100 0.44403 0.79775
 C1291 C 0.78920 -0.05996 0.25854
 C1292 C 0.80226 -0.05975 0.28176
 C1293 C 0.78885 -0.08141 0.28914
 C1294 C 0.77589 -0.08200 0.26619
 C1295 C 0.76973 -0.06643 0.29990
 C1296 C 0.78296 -0.04454 0.29231
 C1297 C 0.76985 -0.04485 0.26902
 C1298 C 0.75655 -0.06661 0.27680
 H1299 H 0.79758 -0.05717 0.24160
 H1300 H 0.82114 -0.05700 0.28395
 H1301 H 0.77313 -0.09773 0.25559
 H1302 H 0.76171 -0.06892 0.31707
 H1303 H 0.78603 -0.02990 0.30426
 H1304 H 0.73771 -0.06987 0.27626
 C1305 C 0.29391 0.54310 0.71898
 C1306 C 0.28286 0.55774 0.69965
 C1307 C 0.28981 0.57983 0.71253
 C1308 C 0.30105 0.56543 0.73169
 C1309 C 0.26670 0.58010 0.72550
 C1310 C 0.25952 0.55767 0.71270
 C1311 C 0.27047 0.54315 0.73210
 C1312 C 0.27781 0.56532 0.74490
 H1313 H 0.30627 0.52865 0.71612
 H1314 H 0.28509 0.55469 0.68094
 H1315 H 0.31830 0.56858 0.73944
 H1316 H 0.25565 0.59564 0.72798
 H1317 H 0.24252 0.55434 0.70449
 H1318 H 0.27724 0.56889 0.76354
 C1319 C 0.29433 1.04327 0.21750
 C1320 C 0.28340 1.05852 0.19857
 C1321 C 0.29124 1.08018 0.21166
 C1322 C 0.30235 1.06516 0.23042
 C1323 C 0.26835 1.08095 0.22500
 C1324 C 0.26029 1.05897 0.21199
 C1325 C 0.27112 1.04384 0.23099
 C1326 C 0.27932 1.06557 0.24400
 H1327 H 0.30613 1.02845 0.21426
 H1328 H 0.28522 1.05574 0.17978
 H1329 H 0.31981 1.06772 0.23792
 H1330 H 0.25780 1.09678 0.22791
 H1331 H 0.24306 1.05627 0.20400
 H1332 H 0.27908 1.06891 0.26269
 C1333 C 0.75966 0.55941 0.21185
 C1334 C 0.76753 0.58148 0.22485
 C1335 C 0.79041 0.58095 0.21148
 C1336 C 0.78278 0.55919 0.19840
 C1337 C 0.80168 0.56604 0.23024
 C1338 C 0.77867 0.56621 0.24383
 C1339 C 0.77065 0.54440 0.23084
 C1340 C 0.79386 0.54405 0.21734
 H1341 H 0.74242 0.55657 0.20395
 H1342 H 0.75685 0.59721 0.22778
 H1343 H 0.78463 0.55636 0.17963
 H1344 H 0.81914 0.56872 0.23771
 H1345 H 0.77839 0.56950 0.26254
 H1346 H 0.80576 0.52930 0.21412
 C1347 C 0.75518 1.06617 0.72250
 C1348 C 0.77508 1.08085 0.73288
 C1349 C 0.78790 1.07971 0.70982
 C1350 C 0.76822 1.06540 0.69930
 C1351 C 0.80059 1.05756 0.71722
 C1352 C 0.78771 1.05839 0.74053
 C1353 C 0.76780 1.04397 0.73030
 C1354 C 0.78074 1.04304 0.70691
 H1355 H 0.73647 1.07012 0.72310
 H1356 H 0.77292 1.09671 0.74343
 H1357 H 0.76028 1.06824 0.68217
 H1358 H 0.81936 1.05408 0.71489
 H1359 H 0.79605 1.05540 0.75745
 H1360 H 0.78314 1.02813 0.69511
 C1361 C 0.74077 0.55837 0.28707
 C1362 C 0.73316 0.58105 0.27487
 C1363 C 0.71015 0.58018 0.28800
 C1364 C 0.71752 0.55784 0.30028
 C1365 C 0.69898 0.56619 0.26856
 C1366 C 0.72212 0.56669 0.25520
 C1367 C 0.72988 0.54427 0.26740
 C1368 C 0.70653 0.54364 0.28066
 H1369 H 0.75792 0.55505 0.29501
 H1370 H 0.74398 0.59676 0.27266
 H1371 H 0.71544 0.55426 0.31891
 H1372 H 0.68161 0.56935 0.26102
 H1373 H 0.72246 0.57077 0.23665
 H1374 H 0.69444 0.52894 0.28316
 C1375 C 0.74464 1.06665 0.77858
 C1376 C 0.72519 1.08171 0.76773
 C1377 C 0.71225 1.08143 0.79073
 C1378 C 0.73146 1.06675 0.80171
 C1379 C 0.69898 1.05954 0.78375
 C1380 C 0.71203 1.05945 0.76051
 C1381 C 0.73150 1.04467 0.77122
 C1382 C 0.71840 1.04463 0.79453
 H1383 H 0.76345 1.06999 0.77788
 H1384 H 0.72782 1.09727 0.75682
 H1385 H 0.73947 1.06961 0.81881
 H1386 H 0.68012 1.05667 0.78604
 H1387 H 0.70370 1.05632 0.74362
 H1388 H 0.71548 1.03005 0.80662
 C1389 C 0.20494 0.54220 0.78017
 C1390 C 0.21564 0.55674 0.79971
 C1391 C 0.20838 0.57890 0.78701
 C1392 C 0.19747 0.56459 0.76766
 C1393 C 0.23155 0.57960 0.77417
 C1394 C 0.23904 0.55714 0.78679
 C1395 C 0.22844 0.54270 0.76720
 C1396 C 0.22079 0.56493 0.75457
 H1397 H 0.19287 0.52750 0.78276
 H1398 H 0.21337 0.55343 0.81837
 H1399 H 0.18020 0.56768 0.75988
 H1400 H 0.24236 0.59531 0.77189
 H1401 H 0.25608 0.55395 0.79502
 H1402 H 0.22132 0.56875 0.73597
 C1403 C 0.20664 1.04373 0.28038
 C1404 C 0.21768 1.05827 0.29973
 C1405 C 0.21035 1.08041 0.28706
 C1406 C 0.19913 1.06608 0.26789
 C1407 C 0.23335 1.08099 0.27390
 C1408 C 0.24092 1.05850 0.28649
 C1409 C 0.22996 1.04408 0.26707
 C1410 C 0.22225 1.06631 0.25450
 H1411 H 0.19448 1.02916 0.28321
 H1412 H 0.21564 1.05502 0.31843
 H1413 H 0.18176 1.06911 0.26030
 H1414 H 0.24421 1.09663 0.27146
 H1415 H 0.25803 1.05524 0.29454
 H1416 H 0.22256 1.07013 0.23590
 C1417 C 0.70375 0.45643 0.72179
 C1418 C 0.71471 0.44227 0.70206
 C1419 C 0.70785 0.41987 0.71452
 C1420 C 0.69669 0.43380 0.73407
 C1421 C 0.73103 0.41933 0.72731
 C1422 C 0.73812 0.44204 0.71493
 C1423 C 0.72727 0.45609 0.73471
 C1424 C 0.72001 0.43363 0.74710
 H1425 H 0.69146 0.47103 0.71943
 H1426 H 0.71237 0.44577 0.68345
 H1427 H 0.67947 0.43043 0.74184
 H1428 H 0.74213 0.40376 0.72942
 H1429 H 0.75512 0.44552 0.70672
 H1430 H 0.72063 0.42960 0.76565
 C1431 C 0.74668 -0.06680 0.22019
 C1432 C 0.72675 -0.08114 0.23101
 C1433 C 0.71382 -0.08035 0.20804
 C1434 C 0.73351 -0.06638 0.19707
 C1435 C 0.70130 -0.05799 0.21508
 C1436 C 0.71431 -0.05846 0.23829
 C1437 C 0.73424 -0.04437 0.22761
 C1438 C 0.72118 -0.04380 0.20431
 H1439 H 0.76537 -0.07088 0.22079
 H1440 H 0.72885 -0.09683 0.24184
 H1441 H 0.74131 -0.06959 0.17992
 H1442 H 0.68254 -0.05443 0.21284
 H1443 H 0.70605 -0.05508 0.25519
 H1444 H 0.71875 -0.02914 0.19220
 C1445 C 0.22205 0.43410 0.24445
 C1446 C 0.19907 0.43453 0.23085
 C1447 C 0.21025 0.41954 0.21210
 C1448 C 0.23309 0.41875 0.22546
 C1449 C 0.21811 0.44123 0.19902
 C1450 C 0.20712 0.45644 0.21795
 C1451 C 0.23029 0.45587 0.23146
 C1452 C 0.24119 0.44077 0.21246
 H1453 H 0.22214 0.43071 0.26313
 H1454 H 0.18159 0.43199 0.23836
 H1455 H 0.24364 0.40292 0.22836
 H1456 H 0.21632 0.44407 0.18024
 H1457 H 0.19529 0.47124 0.21469
 H1458 H 0.25842 0.44349 0.20446
 C1459 C 0.21924 -0.04391 0.70749
 C1460 C 0.23221 -0.06600 0.69987
 C1461 C 0.21320 -0.08075 0.71105
 C1462 C 0.20005 -0.05887 0.71849
 C1463 C 0.22656 -0.08123 0.73381
 C1464 C 0.24579 -0.06612 0.72274
 C1465 C 0.23273 -0.04417 0.73056
 C1466 C 0.21348 -0.05902 0.74148
 H1467 H 0.21612 -0.02921 0.69558
 H1468 H 0.23985 -0.06880 0.68259
 H1469 H 0.18115 -0.05594 0.71661
 H1470 H 0.22940 -0.09688 0.74453
 H1471 H 0.26460 -0.06959 0.72295
 H1472 H 0.20541 -0.05604 0.75854
 C1473 C 0.25853 0.28783 0.44132
 C1474 C 0.28144 0.30167 0.44168
 C1475 C 0.28949 0.28856 0.42019
 C1476 C 0.26683 0.27481 0.41948
 C1477 C 0.30089 0.26979 0.43508
 C1478 C 0.29265 0.28271 0.45680
 C1479 C 0.26967 0.26880 0.45628
 C1480 C 0.27811 0.25582 0.43471
 H1481 H 0.24122 0.29574 0.44403
 H1482 H 0.28300 0.32061 0.44445
 H1483 H 0.25637 0.27179 0.40379
 H1484 H 0.31848 0.26241 0.43264
 H1485 H 0.30445 0.28620 0.47141
 H1486 H 0.27818 0.23699 0.43140
 C1487 C 0.28189 0.79306 -0.04166
 C1488 C 0.30160 0.78255 -0.05630
 C1489 C 0.28870 0.79003 -0.07812
 C1490 C 0.26917 0.80074 -0.06370
 C1491 C 0.27587 0.76685 -0.07907
 C1492 C 0.28870 0.75911 -0.05693
 C1493 C 0.26894 0.76953 -0.04240
 C1494 C 0.25612 0.77741 -0.06428
 H1495 H 0.28447 0.80495 -0.02692
 H1496 H 0.32040 0.78485 -0.05312
 H1497 H 0.26121 0.81803 -0.06646
 H1498 H 0.27356 0.75622 -0.09478
 H1499 H 0.29706 0.74203 -0.05404
 H1500 H 0.23736 0.77678 -0.06794
 C1501 C 0.79376 0.28099 -0.04375
 C1502 C 0.80093 0.26781 -0.06571
 C1503 C 0.78973 0.28693 -0.08030
 C1504 C 0.78274 0.30029 -0.05856
 C1505 C 0.76661 0.27396 -0.08031
 C1506 C 0.77769 0.25460 -0.06538
 C1507 C 0.77031 0.26787 -0.04357
 C1508 C 0.75938 0.28723 -0.05826
 H1509 H 0.80600 0.28402 -0.02939
 H1510 H 0.81819 0.25988 -0.06874
 H1511 H 0.78498 0.31918 -0.05584
 H1512 H 0.75557 0.27122 -0.09567
 H1513 H 0.77709 0.23577 -0.06863
 H1514 H 0.74237 0.29560 -0.05506
 C1515 C 0.75604 0.77931 0.43667
 C1516 C 0.76965 0.80231 0.43717
 C1517 C 0.78899 0.79106 0.42292
 C1518 C 0.77562 0.76818 0.42206
 C1519 C 0.80160 0.78343 0.44485
 C1520 C 0.78207 0.79449 0.45933
 C1521 C 0.76855 0.77128 0.45868
 C1522 C 0.78814 0.76030 0.44432
 H1523 H 0.73732 0.77919 0.43284
 H1524 H 0.76211 0.81977 0.43428
 H1525 H 0.77317 0.75750 0.40640
 H1526 H 0.82044 0.78529 0.44811
 H1527 H 0.78488 0.80645 0.47397
 H1528 H 0.79613 0.74308 0.44739
 C1529 C 0.74637 0.28026 0.56454
 C1530 C 0.73271 0.30331 0.56441
 C1531 C 0.71354 0.29195 0.57874
 C1532 C 0.72695 0.26902 0.57924
 C1533 C 0.70074 0.28458 0.55684
 C1534 C 0.72010 0.29576 0.54227
 C1535 C 0.73367 0.27250 0.54257
 C1536 C 0.71424 0.26142 0.55703
 H1537 H 0.76513 0.28006 0.56820
 H1538 H 0.74021 0.32073 0.56742
 H1539 H 0.72958 0.25814 0.59475
 H1540 H 0.68187 0.28651 0.55374
 H1541 H 0.71711 0.30787 0.52777
 H1542 H 0.70624 0.24426 0.55388
 C1543 C 0.70383 0.77991 1.04175
 C1544 C 0.69655 0.76709 1.06389
 C1545 C 0.70727 0.78660 1.07820
 C1546 C 0.71434 0.79962 1.05629
 C1547 C 0.73058 0.77388 1.07879
 C1548 C 0.72000 0.75412 1.06413
 C1549 C 0.72748 0.76706 1.04215
 C1550 C 0.73789 0.78682 1.05658
 H1551 H 0.69175 0.78248 1.02715
 H1552 H 0.67934 0.75909 1.06690
 H1553 H 0.71185 0.81841 1.05312
 H1554 H 0.74146 0.77160 1.09435
 H1555 H 0.72071 0.73538 1.06789
 H1556 H 0.75482 0.79531 1.05346
 C1557 C 0.20575 0.28084 1.04358
 C1558 C 0.19823 0.26808 1.06566
 C1559 C 0.20950 0.28721 1.08007
 C1560 C 0.21682 0.30019 1.05822
 C1561 C 0.23247 0.27390 1.08050
 C1562 C 0.22130 0.25452 1.06576
 C1563 C 0.22904 0.26736 1.04384
 C1564 C 0.24003 0.28677 1.05832
 H1565 H 0.19368 0.28382 1.02905
 H1566 H 0.18086 0.26046 1.06863
 H1567 H 0.21483 0.31907 1.05521
 H1568 H 0.24337 0.27127 1.09599
 H1569 H 0.22139 0.23575 1.06941
 H1570 H 0.25712 0.29492 1.05513
 C1571 C 0.23933 0.78715 0.55677
 C1572 C 0.21616 0.80063 0.55638
 C1573 C 0.20871 0.78800 0.57837
 C1574 C 0.23163 0.77459 0.57909
 C1575 C 0.19744 0.76868 0.56419
 C1576 C 0.20508 0.78114 0.54198
 C1577 C 0.22833 0.76759 0.54248
 C1578 C 0.22049 0.75504 0.56454
 H1579 H 0.25652 0.79509 0.55360
 H1580 H 0.21423 0.81947 0.55308
 H1581 H 0.24242 0.77210 0.59467
 H1582 H 0.18002 0.76117 0.56718
 H1583 H 0.19300 0.78395 0.52742
 H1584 H 0.22072 0.73630 0.56836
 C1585 C 0.29248 0.71730 0.54238
 C1586 C 0.30014 0.73010 0.56434
 C1587 C 0.28882 0.71105 0.57889
 C1588 C 0.28134 0.69807 0.55716
 C1589 C 0.26594 0.72453 0.57943
 C1590 C 0.27714 0.74380 0.56451
 C1591 C 0.26927 0.73092 0.54269
 C1592 C 0.25820 0.71164 0.55734
 H1593 H 0.30459 0.71415 0.52790
 H1594 H 0.31757 0.73766 0.56714
 H1595 H 0.28323 0.67917 0.55424
 H1596 H 0.25517 0.72731 0.59500
 H1597 H 0.27693 0.76261 0.56797
 H1598 H 0.24100 0.70367 0.55434
 C1599 C 0.27822 0.24411 1.06503
 C1600 C 0.26709 0.22537 1.08062
 C1601 C 0.28989 0.21177 1.08021
 C1602 C 0.30115 0.23028 1.06494
 C1603 C 0.28205 0.19820 1.05894
 C1604 C 0.25899 0.21188 1.05901
 C1605 C 0.26996 0.23069 1.04368
 C1606 C 0.29309 0.21691 1.04344
 H1607 H 0.27822 0.26301 1.06792
 H1608 H 0.25648 0.22865 1.09620
 H1609 H 0.31862 0.23785 1.06736
 H1610 H 0.28380 0.17920 1.05662
 H1611 H 0.24181 0.20376 1.05635
 H1612 H 0.30486 0.21319 1.02881
 C1613 C 0.77730 0.74483 1.06395
 C1614 C 0.76650 0.72538 1.07894
 C1615 C 0.78966 0.71238 1.07843
 C1616 C 0.80058 0.73159 1.06379
 C1617 C 0.78239 0.69918 1.05674
 C1618 C 0.75899 0.71227 1.05691
 C1619 C 0.76963 0.73174 1.04218
 C1620 C 0.79312 0.71857 1.04188
 H1621 H 0.77663 0.76364 1.06734
 H1622 H 0.75572 0.72799 1.09452
 H1623 H 0.81787 0.73945 1.06653
 H1624 H 0.78465 0.68031 1.05385
 H1625 H 0.74199 0.70388 1.05392
 H1626 H 0.80525 0.71554 1.02739
 C1627 C 0.78387 0.20814 0.54215
 C1628 C 0.80303 0.21934 0.55689
 C1629 C 0.79008 0.21178 0.57866
 C1630 C 0.77109 0.20040 0.56413
 C1631 C 0.77652 0.23462 0.57918
 C1632 C 0.78937 0.24243 0.55706
 C1633 C 0.77013 0.23130 0.54245
 C1634 C 0.75730 0.22335 0.56431
 H1635 H 0.78713 0.19604 0.52770
 H1636 H 0.82194 0.21756 0.55391
 H1637 H 0.76361 0.18293 0.56692
 H1638 H 0.77371 0.24538 0.59474
 H1639 H 0.79729 0.25965 0.55398
 H1640 H 0.73850 0.22349 0.56782
 C1641 C 0.71281 0.74159 0.44314
 C1642 C 0.72600 0.73395 0.42116
 C1643 C 0.71261 0.71107 0.42140
 C1644 C 0.69933 0.71847 0.44306
 C1645 C 0.73149 0.69964 0.43610
 C1646 C 0.74511 0.72264 0.43621
 C1647 C 0.73194 0.73044 0.45795
 C1648 C 0.71840 0.70723 0.45799
 H1649 H 0.70472 0.75878 0.44615
 H1650 H 0.72894 0.74482 0.40569
 H1651 H 0.68040 0.71661 0.44580
 H1652 H 0.73910 0.68221 0.43326
 H1653 H 0.76395 0.72281 0.43292
 H1654 H 0.71512 0.69514 0.47245
 C1655 C 0.73923 0.21212 -0.05682
 C1656 C 0.71583 0.19918 -0.05593
 C1657 C 0.70827 0.21182 -0.07787
 C1658 C 0.73142 0.22469 -0.07909
 C1659 C 0.69756 0.23149 -0.06366
 C1660 C 0.70532 0.21903 -0.04149
 C1661 C 0.72882 0.23203 -0.04250
 C1662 C 0.72085 0.24459 -0.06451
 H1663 H 0.75631 0.20380 -0.05389
 H1664 H 0.71359 0.18041 -0.05247
 H1665 H 0.74200 0.22684 -0.09487
 H1666 H 0.68023 0.23936 -0.06645
 H1667 H 0.69346 0.21659 -0.02668
 H1668 H 0.72136 0.26330 -0.06847
 C1669 C 0.22005 0.70461 -0.04263
 C1670 C 0.20035 0.71542 -0.05703
 C1671 C 0.21328 0.70848 -0.07904
 C1672 C 0.23281 0.69747 -0.06486
 C1673 C 0.22607 0.73171 -0.07947
 C1674 C 0.21320 0.73888 -0.05716
 C1675 C 0.23296 0.72817 -0.04286
 C1676 C 0.24583 0.72084 -0.06493
 H1677 H 0.21752 0.69244 -0.02808
 H1678 H 0.18155 0.71304 -0.05385
 H1679 H 0.24078 0.68025 -0.06804
 H1680 H 0.22839 0.74273 -0.09494
 H1681 H 0.20482 0.75588 -0.05389
 H1682 H 0.26458 0.72154 -0.06862
 C1683 C 0.22116 0.24474 0.43417
 C1684 C 0.23246 0.22546 0.41932
 C1685 C 0.20965 0.21197 0.41987
 C1686 C 0.19822 0.23101 0.43438
 C1687 C 0.21719 0.19901 0.44165
 C1688 C 0.24025 0.21258 0.44142
 C1689 C 0.22910 0.23188 0.45602
 C1690 C 0.20596 0.21824 0.45638
 H1691 H 0.22116 0.26351 0.43055
 H1692 H 0.24325 0.22821 0.40377
 H1693 H 0.18073 0.23849 0.43157
 H1694 H 0.21545 0.18011 0.44469
 H1695 H 0.25748 0.20463 0.44447
 H1696 H 0.19395 0.21518 0.47095
 C1697 C 0.28245 0.45758 0.70659
 C1698 C 0.30196 0.44273 0.71726
 C1699 C 0.28908 0.42079 0.70976
 C1700 C 0.26976 0.43544 0.69891
 C1701 C 0.27592 0.41993 0.73263
 C1702 C 0.28871 0.44222 0.74038
 C1703 C 0.26913 0.45693 0.72978
 C1704 C 0.25637 0.43492 0.72189
 H1705 H 0.28525 0.47240 0.69477
 H1706 H 0.32080 0.44587 0.71520
 H1707 H 0.26201 0.43275 0.68167
 H1708 H 0.27342 0.40414 0.74322
 H1709 H 0.29685 0.44514 0.75740
 H1710 H 0.23761 0.43125 0.72226
 C1711 C 0.28702 0.94309 0.23793
 C1712 C 0.27397 0.92077 0.23082
 C1713 C 0.28652 0.92127 0.20761
 C1714 C 0.29964 0.94328 0.21448
 C1715 C 0.26697 0.93578 0.19703
 C1716 C 0.25418 0.93566 0.22039
 C1717 C 0.26724 0.95773 0.22765
 C1718 C 0.27991 0.95803 0.20411
 H1719 H 0.29560 0.94620 0.25469
 H1720 H 0.27167 0.90512 0.24167
 H1721 H 0.31843 0.94634 0.21190
 H1722 H 0.25882 0.93277 0.18003
 H1723 H 0.23541 0.93210 0.22134
 H1724 H 0.28242 0.97274 0.19208
 C1725 C 0.75874 0.44305 0.21135
 C1726 C 0.78162 0.44323 0.19749
 C1727 C 0.78955 0.42147 0.21045
 C1728 C 0.76691 0.42094 0.22422
 C1729 C 0.80110 0.43637 0.22899
 C1730 C 0.79301 0.45835 0.21620
 C1731 C 0.77005 0.45806 0.23012
 C1732 C 0.77834 0.43621 0.24299
 H1733 H 0.74139 0.44593 0.20367
 H1734 H 0.78311 0.44602 0.17868
 H1735 H 0.75635 0.40522 0.22737
 H1736 H 0.81868 0.43366 0.23622
 H1737 H 0.80489 0.47299 0.21267
 H1738 H 0.77835 0.43291 0.26170
 C1739 C 0.77782 0.93536 0.74588
 C1740 C 0.76649 0.92123 0.72620
 C1741 C 0.78945 0.92184 0.71297
 C1742 C 0.80088 0.93561 0.73240
 C1743 C 0.78235 0.94433 0.70080
 C1744 C 0.75915 0.94407 0.71413
 C1745 C 0.77032 0.95796 0.73383
 C1746 C 0.79360 0.95832 0.72043
 H1747 H 0.77791 0.93086 0.76431
 H1748 H 0.75540 0.90570 0.72829
 H1749 H 0.81823 0.93219 0.73986
 H1750 H 0.78436 0.94800 0.68218
 H1751 H 0.74203 0.94768 0.70625
 H1752 H 0.80598 0.97278 0.71799
 C1753 C 0.71057 0.55716 0.74168
 C1754 C 0.72364 0.57924 0.73381
 C1755 C 0.71066 0.57833 0.71087
 C1756 C 0.69752 0.55658 0.71849
 C1757 C 0.72993 0.56346 0.70025
 C1758 C 0.74314 0.56400 0.72333
 C1759 C 0.73007 0.54217 0.73133
 C1760 C 0.71696 0.54148 0.70805
 H1761 H 0.70227 0.55445 0.75867
 H1762 H 0.72621 0.59510 0.74425
 H1763 H 0.67866 0.55362 0.71634
 H1764 H 0.73782 0.56603 0.68303
 H1765 H 0.76194 0.56746 0.72384
 H1766 H 0.71409 0.52664 0.69631
 C1767 C 0.74333 0.05664 0.21144
 C1768 C 0.72038 0.05643 0.19776
 C1769 C 0.71258 0.07826 0.21066
 C1770 C 0.73528 0.07880 0.22426
 C1771 C 0.70110 0.06347 0.22938
 C1772 C 0.70908 0.04143 0.21665
 C1773 C 0.73211 0.04174 0.23039
 C1774 C 0.72393 0.06364 0.24321
 H1775 H 0.76067 0.05369 0.20373
 H1776 H 0.71879 0.05353 0.17898
 H1777 H 0.74591 0.09451 0.22722
 H1778 H 0.68355 0.06621 0.23669
 H1779 H 0.69712 0.02680 0.21336
 H1780 H 0.72390 0.06700 0.26190
 C1781 C 0.21360 0.55638 0.23890
 C1782 C 0.22633 0.57890 0.23176
 C1783 C 0.21366 0.57832 0.20863
 C1784 C 0.20086 0.55612 0.21554
 C1785 C 0.23336 0.56408 0.19790
 C1786 C 0.24626 0.56428 0.22116
 C1787 C 0.23351 0.54201 0.22846
 C1788 C 0.22073 0.54166 0.20500
 H1789 H 0.20515 0.55311 0.25574
 H1790 H 0.22847 0.59454 0.24261
 H1791 H 0.18210 0.55284 0.21308
 H1792 H 0.24141 0.56726 0.18086
 H1793 H 0.26498 0.56808 0.22196
 H1794 H 0.21834 0.52701 0.19291
 C1795 C 0.24388 0.06403 0.72243
 C1796 C 0.23033 0.06345 0.69958
 C1797 C 0.21112 0.07817 0.71053
 C1798 C 0.22444 0.07908 0.73328
 C1799 C 0.19825 0.05628 0.71826
 C1800 C 0.21766 0.04135 0.70749
 C1801 C 0.23115 0.04206 0.73055
 C1802 C 0.21168 0.05684 0.74127
 H1803 H 0.26265 0.06768 0.72264
 H1804 H 0.23799 0.06606 0.68227
 H1805 H 0.22703 0.09491 0.74376
 H1806 H 0.17939 0.05318 0.71640
 H1807 H 0.21471 0.02652 0.69576
 H1808 H 0.20361 0.05399 0.75835
 C1809 C 0.28195 0.54121 0.29325
 C1810 C 0.30169 0.55585 0.28283
 C1811 C 0.28872 0.57791 0.28997
 C1812 C 0.26915 0.56349 0.30057
 C1813 C 0.27602 0.57874 0.26687
 C1814 C 0.28891 0.55634 0.25947
 C1815 C 0.26912 0.54180 0.26982
 C1816 C 0.25622 0.56394 0.27734
 H1817 H 0.28448 0.52649 0.30526
 H1818 H 0.32048 0.55261 0.28524
 H1819 H 0.26107 0.56640 0.31764
 H1820 H 0.27375 0.59451 0.25617
 H1821 H 0.29735 0.55327 0.24260
 H1822 H 0.23746 0.56767 0.27659
 C1823 C 0.28150 0.04245 0.79397
 C1824 C 0.30065 0.05752 0.78303
 C1825 C 0.28734 0.07933 0.79041
 C1826 C 0.26839 0.06448 0.80154
 C1827 C 0.27407 0.07973 0.76761
 C1828 C 0.28729 0.05759 0.76000
 C1829 C 0.26808 0.04266 0.77085
 C1830 C 0.25489 0.06454 0.77863
 H1831 H 0.28466 0.02776 0.80586
 H1832 H 0.31956 0.05471 0.78500
 H1833 H 0.26068 0.06726 0.81880
 H1834 H 0.27120 0.09537 0.75688
 H1835 H 0.29546 0.05465 0.74297
 H1836 H 0.23606 0.06792 0.77837
 C1837 C 0.78592 0.55660 0.76161
 C1838 C 0.77330 0.57926 0.76868
 C1839 C 0.78621 0.57879 0.79168
 C1840 C 0.79891 0.55646 0.78484
 C1841 C 0.76661 0.56475 0.80274
 C1842 C 0.75347 0.56485 0.77961
 C1843 C 0.76609 0.54244 0.77240
 C1844 C 0.77913 0.54220 0.79572
 H1845 H 0.79420 0.55314 0.74473
 H1846 H 0.77107 0.59482 0.75768
 H1847 H 0.81769 0.55309 0.78713
 H1848 H 0.75874 0.56807 0.81983
 H1849 H 0.73475 0.56878 0.77897
 H1850 H 0.78164 0.52764 0.80794
 C1851 C 0.76114 0.05536 0.28677
 C1852 C 0.78416 0.05490 0.30032
 C1853 C 0.79156 0.07726 0.28814
 C1854 C 0.76877 0.07806 0.27468
 C1855 C 0.80316 0.06330 0.26886
 C1856 C 0.79558 0.04071 0.28086
 C1857 C 0.77247 0.04130 0.26726
 C1858 C 0.78025 0.06373 0.25517
 H1859 H 0.74387 0.05200 0.29446
 H1860 H 0.78594 0.05135 0.31899
 H1861 H 0.75789 0.09375 0.27233
 H1862 H 0.82061 0.06651 0.26155
 H1863 H 0.80774 0.02606 0.28353
 H1864 H 0.78019 0.06781 0.23662
 C1865 C 0.72166 0.43599 0.25467
 C1866 C 0.73285 0.42142 0.27418
 C1867 C 0.70996 0.42238 0.28751
 C1868 C 0.69865 0.43656 0.26823
 C1869 C 0.71749 0.44459 0.29983
 C1870 C 0.74062 0.44397 0.28642
 C1871 C 0.72959 0.45827 0.26691
 C1872 C 0.70636 0.45899 0.28037
 H1873 H 0.72175 0.43194 0.23612
 H1874 H 0.74361 0.40565 0.27181
 H1875 H 0.68121 0.43355 0.26085
 H1876 H 0.71560 0.44804 0.31850
 H1877 H 0.75785 0.44711 0.29421
 H1878 H 0.69432 0.47375 0.28303
 C1879 C 0.74099 0.94242 0.78815
 C1880 C 0.71855 0.94252 0.80268
 C1881 C 0.70988 0.92144 0.78920
 C1882 C 0.73207 0.92100 0.77475
 C1883 C 0.69800 0.93727 0.77156
 C1884 C 0.70688 0.95860 0.78487
 C1885 C 0.72939 0.95833 0.77024
 C1886 C 0.72034 0.93717 0.75688
 H1887 H 0.75850 0.94472 0.79560
 H1888 H 0.71770 0.94459 0.82163
 H1889 H 0.74220 0.90515 0.77075
 H1890 H 0.68013 0.93529 0.76485
 H1891 H 0.69536 0.97327 0.78950
 H1892 H 0.71991 0.93468 0.73804
 C1893 C 0.21898 0.45687 0.79341
 C1894 C 0.19971 0.44187 0.78265
 C1895 C 0.21292 0.42001 0.79003
 C1896 C 0.23201 0.43478 0.80099
 C1897 C 0.22610 0.41949 0.76716
 C1898 C 0.21296 0.44168 0.75954
 C1899 C 0.23229 0.45654 0.77022
 C1900 C 0.24541 0.43461 0.77799
 H1901 H 0.21596 0.47162 0.80526
 H1902 H 0.18082 0.44479 0.78472
 H1903 H 0.23978 0.43200 0.81821
 H1904 H 0.22886 0.40382 0.75646
 H1905 H 0.20476 0.44463 0.74254
 H1906 H 0.26423 0.43116 0.77760
 C1907 C 0.21201 0.94360 0.25926
 C1908 C 0.22484 0.92113 0.26656
 C1909 C 0.21230 0.92200 0.28977
 C1910 C 0.19941 0.94414 0.28272
 C1911 C 0.23203 0.93630 0.30020
 C1912 C 0.24479 0.93580 0.27684
 C1913 C 0.23196 0.95801 0.26940
 C1914 C 0.21930 0.95866 0.29296
 H1915 H 0.20345 0.94672 0.24248
 H1916 H 0.22695 0.90536 0.25585
 H1917 H 0.18065 0.94749 0.28531
 H1918 H 0.24020 0.93335 0.31721
 H1919 H 0.26352 0.93197 0.27592
 H1920 H 0.21693 0.97338 0.30497
 C1921 C 0.44164 0.28604 0.73895
 C1922 C 0.44173 0.29937 0.71587
 C1923 C 0.41963 0.28656 0.70875
 C1924 C 0.41919 0.27333 0.73159
 C1925 C 0.43402 0.26725 0.69755
 C1926 C 0.45635 0.27987 0.70486
 C1927 C 0.45611 0.26648 0.72801
 C1928 C 0.43393 0.25378 0.72050
 H1929 H 0.44490 0.29415 0.75593
 H1930 H 0.44486 0.31822 0.71382
 H1931 H 0.40361 0.27083 0.74248
 H1932 H 0.43096 0.25957 0.68034
 H1933 H 0.47095 0.28271 0.69278
 H1934 H 0.43021 0.23503 0.72085
 C1935 C 0.44230 0.76109 0.21428
 C1936 C 0.41956 0.76826 0.22660
 C1937 C 0.42001 0.79136 0.21363
 C1938 C 0.44243 0.78443 0.20122
 C1939 C 0.43388 0.80264 0.23308
 C1940 C 0.43380 0.77941 0.24630
 C1941 C 0.45629 0.77208 0.23398
 C1942 C 0.45653 0.79552 0.22086
 H1943 H 0.44592 0.74407 0.20618
 H1944 H 0.40403 0.75718 0.22876
 H1945 H 0.44591 0.78665 0.18259
 H1946 H 0.43043 0.81992 0.24072
 H1947 H 0.42977 0.77889 0.26485
 H1948 H 0.47103 0.80784 0.21836
 C1949 C 0.94142 0.26072 0.21353
 C1950 C 0.91897 0.26862 0.22598
 C1951 C 0.91984 0.29150 0.21262
 C1952 C 0.94194 0.28383 0.20010
 C1953 C 0.93417 0.30277 0.23174
 C1954 C 0.93370 0.27976 0.24533
 C1955 C 0.95588 0.27173 0.23287
 C1956 C 0.95649 0.29494 0.21938
 H1957 H 0.94452 0.24349 0.20567
 H1958 H 0.90321 0.25796 0.22852
 H1959 H 0.94523 0.28565 0.18139
 H1960 H 0.93118 0.32023 0.23916
 H1961 H 0.92989 0.27950 0.26395
 H1962 H 0.97120 0.30692 0.21651
 C1963 C 0.94191 0.75959 0.71260
 C1964 C 0.91941 0.76681 0.72535
 C1965 C 0.91973 0.78996 0.71245
 C1966 C 0.94189 0.78298 0.69963
 C1967 C 0.93402 0.80109 0.73171
 C1968 C 0.93406 0.77781 0.74483
 C1969 C 0.95630 0.77045 0.73210
 C1970 C 0.95640 0.79393 0.71906
 H1971 H 0.94531 0.74259 0.70436
 H1972 H 0.90385 0.75582 0.72774
 H1973 H 0.94505 0.78528 0.68095
 H1974 H 0.93083 0.81834 0.73953
 H1975 H 0.93041 0.77712 0.76347
 H1976 H 0.97085 0.80626 0.71629
 C1977 C 0.56697 0.27718 0.25563
 C1978 C 0.56679 0.30041 0.26882
 C1979 C 0.58130 0.28931 0.28798
 C1980 C 0.58187 0.26622 0.27501
 C1981 C 0.55931 0.28208 0.30090
 C1982 C 0.54457 0.29300 0.28158
 C1983 C 0.54490 0.26958 0.26848
 C1984 C 0.55953 0.25875 0.28786
 H1985 H 0.57052 0.27664 0.23698
 H1986 H 0.56972 0.31772 0.26106
 H1987 H 0.59754 0.25535 0.27248
 H1988 H 0.55624 0.28427 0.31960
 H1989 H 0.52998 0.30520 0.28442
 H1990 H 0.55641 0.24165 0.29601
 C1991 C 0.56378 0.77981 0.75655
 C1992 C 0.56292 0.80305 0.76968
 C1993 C 0.57689 0.79212 0.78931
 C1994 C 0.57811 0.76903 0.77642
 C1995 C 0.55456 0.78472 0.80154
 C1996 C 0.54036 0.79545 0.78172
 C1997 C 0.54139 0.77201 0.76869
 C1998 C 0.55546 0.76137 0.78856
 H1999 H 0.56801 0.77940 0.73804
 H2000 H 0.56595 0.82039 0.76202
 H2001 H 0.59397 0.75833 0.77446
 H2002 H 0.55084 0.78690 0.82013
 H2003 H 0.52552 0.80747 0.78399
 H2004 H 0.55225 0.74425 0.79663
 C2005 C 0.05866 0.28856 0.75849
 C2006 C 0.05814 0.30191 0.78154
 C2007 C 0.08001 0.28890 0.78916
 C2008 C 0.08088 0.27563 0.76636
 C2009 C 0.06528 0.26973 0.80009
 C2010 C 0.04320 0.28256 0.79229
 C2011 C 0.04385 0.26914 0.76917
 C2012 C 0.06580 0.25624 0.77718
 H2013 H 0.05581 0.29668 0.74144
 H2014 H 0.05506 0.32079 0.78349
 H2015 H 0.09667 0.27296 0.75581
 H2016 H 0.06792 0.26200 0.81737
 H2017 H 0.02840 0.28553 0.80411
 H2018 H 0.06942 0.23745 0.77696
 C2019 C 0.05846 0.76008 0.28810
 C2020 C 0.08074 0.76752 0.27514
 C2021 C 0.08023 0.79067 0.28801
 C2022 C 0.05828 0.78346 0.30105
 C2023 C 0.06561 0.80168 0.26888
 C2024 C 0.06577 0.77840 0.25578
 C2025 C 0.04375 0.77081 0.26874
 C2026 C 0.04343 0.79428 0.28174
 H2027 H 0.05538 0.74304 0.29638
 H2028 H 0.09643 0.75668 0.27261
 H2029 H 0.05526 0.78568 0.31976
 H2030 H 0.06852 0.81896 0.26105
 H2031 H 0.06925 0.77773 0.23712
 H2032 H 0.02878 0.80639 0.28462
 C2033 C 0.56492 0.72317 0.74616
 C2034 C 0.56539 0.70000 0.73287
 C2035 C 0.58004 0.71137 0.71397
 C2036 C 0.57995 0.73441 0.72703
 C2037 C 0.55811 0.71835 0.70078
 C2038 C 0.54324 0.70717 0.71985
 C2039 C 0.54292 0.73054 0.73304
 C2040 C 0.55769 0.74163 0.71391
 H2041 H 0.56818 0.72365 0.76486
 H2042 H 0.56853 0.68270 0.74061
 H2043 H 0.59538 0.74547 0.72984
 H2044 H 0.55538 0.71623 0.68202
 H2045 H 0.52888 0.69483 0.71674
 H2046 H 0.55443 0.75869 0.70572
 C2047 C 0.56683 0.22056 0.24500
 C2048 C 0.56628 0.19729 0.23189
 C2049 C 0.58036 0.20823 0.21234
 C2050 C 0.58131 0.23135 0.22522
 C2051 C 0.55809 0.21559 0.19996
 C2052 C 0.54379 0.20483 0.21968
 C2053 C 0.54450 0.22829 0.23267
 C2054 C 0.55871 0.23895 0.21291
 H2055 H 0.57085 0.22110 0.26355
 H2056 H 0.56940 0.17998 0.23960
 H2057 H 0.59707 0.24210 0.22733
 H2058 H 0.55455 0.21340 0.18134
 H2059 H 0.52901 0.19282 0.21734
 H2060 H 0.55549 0.25607 0.20483
 C2061 C 0.06631 0.72142 0.24632
 C2062 C 0.06610 0.69795 0.23354
 C2063 C 0.08021 0.70874 0.21394
 C2064 C 0.08080 0.73207 0.22648
 C2065 C 0.05794 0.71568 0.20131
 C2066 C 0.04360 0.70508 0.22109
 C2067 C 0.04397 0.72875 0.23376
 C2068 C 0.05822 0.73924 0.21392
 H2069 H 0.07025 0.72214 0.26488
 H2070 H 0.06935 0.68079 0.24153
 H2071 H 0.09642 0.74305 0.22851
 H2072 H 0.05456 0.71316 0.18271
 H2073 H 0.02900 0.69285 0.21878
 H2074 H 0.05487 0.75617 0.20549
 C2075 C 0.04371 0.21876 0.70579
 C2076 C 0.06588 0.23154 0.69819
 C2077 C 0.08052 0.21241 0.70938
 C2078 C 0.05857 0.19944 0.71679
 C2079 C 0.08100 0.22576 0.73213
 C2080 C 0.06601 0.24512 0.72105
 C2081 C 0.04400 0.23225 0.72885
 C2082 C 0.05873 0.21287 0.73978
 H2083 H 0.02900 0.21577 0.69391
 H2084 H 0.06876 0.23915 0.68090
 H2085 H 0.05558 0.18055 0.71491
 H2086 H 0.09665 0.22846 0.74284
 H2087 H 0.06953 0.26391 0.72130
 H2088 H 0.05565 0.20483 0.75684
 C2089 C 0.45676 0.70707 0.28270
 C2090 C 0.44157 0.71780 0.30180
 C2091 C 0.41986 0.71027 0.28862
 C2092 C 0.43482 0.69934 0.26970
 C2093 C 0.41921 0.73334 0.27560
 C2094 C 0.44124 0.74112 0.28871
 C2095 C 0.45632 0.73048 0.26955
 C2096 C 0.43454 0.72256 0.25645
 H2097 H 0.47151 0.69513 0.28577
 H2098 H 0.44438 0.71568 0.32055
 H2099 H 0.43219 0.68200 0.26194
 H2100 H 0.40344 0.74400 0.27285
 H2101 H 0.44401 0.75824 0.29691
 H2102 H 0.43122 0.72298 0.23776
 C2103 C 0.45692 0.21622 0.79164
 C2104 C 0.43502 0.22928 0.79963
 C2105 C 0.42002 0.21031 0.78879
 C2106 C 0.44170 0.19706 0.78099
 C2107 C 0.41917 0.22363 0.76601
 C2108 C 0.43452 0.24283 0.77673
 C2109 C 0.45628 0.22970 0.76853
 C2110 C 0.44120 0.21047 0.75796
 H2111 H 0.47175 0.21302 0.80333
 H2112 H 0.43257 0.23697 0.81694
 H2113 H 0.44458 0.17815 0.78289
 H2114 H 0.40333 0.22649 0.75560
 H2115 H 0.43113 0.26166 0.77648
 H2116 H 0.44387 0.20234 0.74088
 C2117 C 0.93448 0.72085 0.75448
 C2118 C 0.93493 0.69741 0.76735
 C2119 C 0.92052 0.70810 0.78680
 C2120 C 0.91969 0.73139 0.77418
 C2121 C 0.94260 0.71529 0.79957
 C2122 C 0.95724 0.70480 0.77994
 C2123 C 0.95661 0.72844 0.76720
 C2124 C 0.94206 0.73882 0.78688
 H2125 H 0.93068 0.72154 0.73589
 H2126 H 0.93195 0.68019 0.75942
 H2127 H 0.90392 0.74220 0.77197
 H2128 H 0.94587 0.71286 0.81821
 H2129 H 0.97204 0.69277 0.78238
 H2130 H 0.94508 0.75581 0.79525
 C2131 C 0.95631 0.20769 0.28271
 C2132 C 0.94141 0.21870 0.30187
 C2133 C 0.91953 0.21111 0.28902
 C2134 C 0.93422 0.19993 0.27004
 C2135 C 0.91879 0.23405 0.27576
 C2136 C 0.94101 0.24188 0.28852
 C2137 C 0.95580 0.23095 0.26930
 C2138 C 0.93384 0.22299 0.25654
 H2139 H 0.97102 0.19568 0.28572
 H2140 H 0.94444 0.21676 0.32061
 H2141 H 0.93150 0.18250 0.26249
 H2142 H 0.90302 0.24473 0.27307
 H2143 H 0.94393 0.25910 0.29646
 H2144 H 0.93027 0.22323 0.23790
 C2145 C 0.28031 0.29375 0.54136
 C2146 C 0.26759 0.30095 0.56356
 C2147 C 0.28716 0.29002 0.57772
 C2148 C 0.30005 0.28299 0.55574
 C2149 C 0.27439 0.26678 0.57831
 C2150 C 0.25459 0.27758 0.56377
 C2151 C 0.26740 0.27018 0.54171
 C2152 C 0.28720 0.25952 0.55599
 H2153 H 0.28290 0.30604 0.52692
 H2154 H 0.25958 0.31817 0.56663
 H2155 H 0.31884 0.28539 0.55252
 H2156 H 0.27214 0.25584 0.59384
 H2157 H 0.23584 0.27687 0.56751
 H2158 H 0.29563 0.24253 0.55277
 C2159 C 0.29490 0.77887 0.04281
 C2160 C 0.28423 0.79880 0.05701
 C2161 C 0.29093 0.78596 0.07913
 C2162 C 0.30179 0.76621 0.06515
 C2163 C 0.26757 0.77342 0.07956
 C2164 C 0.26063 0.78620 0.05713
 C2165 C 0.27120 0.76622 0.04302
 C2166 C 0.27829 0.75343 0.06521
 H2167 H 0.30723 0.78121 0.02837
 H2168 H 0.28683 0.81755 0.05370
 H2169 H 0.31890 0.75808 0.06844
 H2170 H 0.25647 0.77136 0.09501
 H2171 H 0.24376 0.79477 0.05373
 H2172 H 0.27739 0.73471 0.06903
 C2173 C 0.79423 0.28265 0.04152
 C2174 C 0.78300 0.30184 0.05632
 C2175 C 0.79077 0.28895 0.07807
 C2176 C 0.80222 0.26996 0.06350
 C2177 C 0.76805 0.27534 0.07878
 C2178 C 0.76002 0.28813 0.05672
 C2179 C 0.77118 0.26887 0.04207
 C2180 C 0.77937 0.25611 0.06389
 H2181 H 0.80610 0.28583 0.02686
 H2182 H 0.78465 0.32074 0.05327
 H2183 H 0.81976 0.26257 0.06623
 H2184 H 0.75742 0.27254 0.09444
 H2185 H 0.74273 0.29600 0.05377
 H2186 H 0.77942 0.23731 0.06744
 C2187 C 0.78666 0.75974 0.55888
 C2188 C 0.80010 0.78289 0.55888
 C2189 C 0.78698 0.79026 0.58063
 C2190 C 0.77362 0.76735 0.58097
 C2191 C 0.76797 0.80165 0.56606
 C2192 C 0.78090 0.79409 0.54409
 C2193 C 0.76738 0.77086 0.54422
 C2194 C 0.75437 0.77864 0.56605
 H2195 H 0.79475 0.74257 0.55582
 H2196 H 0.81900 0.78478 0.55600
 H2197 H 0.77080 0.75646 0.59644
 H2198 H 0.76033 0.81907 0.56894
 H2199 H 0.78404 0.80621 0.52962
 H2200 H 0.73557 0.77852 0.56950
 C2201 C 0.28123 0.70572 0.45749
 C2202 C 0.26859 0.69821 0.43539
 C2203 C 0.28782 0.70948 0.42104
 C2204 C 0.30064 0.71681 0.44292
 C2205 C 0.27449 0.73245 0.42049
 C2206 C 0.25502 0.72130 0.43519
 C2207 C 0.26773 0.72901 0.45715
 C2208 C 0.28722 0.74002 0.44272
 H2209 H 0.28418 0.69356 0.47198
 H2210 H 0.26096 0.68084 0.43244
 H2211 H 0.31950 0.71479 0.44600
 H2212 H 0.27191 0.74333 0.40496
 H2213 H 0.23625 0.72160 0.43157
 H2214 H 0.29526 0.75716 0.44589
 C2215 C 0.27781 0.24422 0.93620
 C2216 C 0.30094 0.23071 0.93642
 C2217 C 0.28982 0.21155 0.92193
 C2218 C 0.26682 0.22483 0.92134
 C2219 C 0.28236 0.19854 0.94371
 C2220 C 0.29331 0.21788 0.95842
 C2221 C 0.26998 0.23130 0.95806
 C2222 C 0.25912 0.21191 0.94345
 H2223 H 0.27743 0.26301 0.93265
 H2224 H 0.31832 0.23837 0.93355
 H2225 H 0.25606 0.22752 0.90576
 H2226 H 0.28439 0.17967 0.94672
 H2227 H 0.30532 0.21491 0.97300
 H2228 H 0.24195 0.20385 0.94643
 C2229 C 0.77852 0.74577 0.93474
 C2230 C 0.80178 0.73247 0.93508
 C2231 C 0.79083 0.71309 0.92076
 C2232 C 0.76771 0.72614 0.92006
 C2233 C 0.78349 0.70021 0.94266
 C2234 C 0.79424 0.71978 0.95720
 C2235 C 0.77078 0.73297 0.95670
 C2236 C 0.76013 0.71334 0.94226
 H2237 H 0.77812 0.76451 0.93099
 H2238 H 0.81910 0.74023 0.93215
 H2239 H 0.75692 0.72857 0.90447
 H2240 H 0.78571 0.68138 0.94585
 H2241 H 0.80630 0.71704 0.97180
 H2242 H 0.74307 0.70510 0.94534
 C2243 C 0.78104 0.20610 0.45735
 C2244 C 0.76787 0.19857 0.43553
 C2245 C 0.78710 0.20922 0.42073
 C2246 C 0.80046 0.21653 0.44231
 C2247 C 0.77430 0.23249 0.42012
 C2248 C 0.75484 0.22198 0.43528
 C2249 C 0.76811 0.22972 0.45692
 C2250 C 0.78759 0.24005 0.44201
 H2251 H 0.78392 0.19416 0.47202
 H2252 H 0.75985 0.18133 0.43288
 H2253 H 0.81931 0.21413 0.44514
 H2254 H 0.77172 0.24322 0.40449
 H2255 H 0.73603 0.22262 0.43191
 H2256 H 0.79612 0.25701 0.44480
 C2257 C 0.71966 0.29531 0.45716
 C2258 C 0.73245 0.30245 0.43496
 C2259 C 0.71303 0.29142 0.42075
 C2260 C 0.70005 0.28449 0.44271
 C2261 C 0.72592 0.26821 0.42039
 C2262 C 0.74558 0.27911 0.43494
 C2263 C 0.73272 0.27177 0.45700
 C2264 C 0.71303 0.26103 0.44270
 H2265 H 0.71693 0.30757 0.47159
 H2266 H 0.74036 0.31966 0.43183
 H2267 H 0.68123 0.28687 0.44581
 H2268 H 0.72828 0.25720 0.40493
 H2269 H 0.76434 0.27843 0.43127
 H2270 H 0.70463 0.24409 0.44604
 C2271 C 0.72134 0.75592 0.93475
 C2272 C 0.69830 0.76958 0.93476
 C2273 C 0.70966 0.78861 0.92020
 C2274 C 0.73258 0.77517 0.91986
 C2275 C 0.71702 0.80166 0.94196
 C2276 C 0.70584 0.78245 0.95674
 C2277 C 0.72908 0.76885 0.95659
 C2278 C 0.74018 0.78813 0.94195
 H2279 H 0.72172 0.73710 0.93133
 H2280 H 0.68090 0.76200 0.93190
 H2281 H 0.74344 0.77240 0.90435
 H2282 H 0.71510 0.82056 0.94489
 H2283 H 0.69365 0.78566 0.97114
 H2284 H 0.75731 0.79619 0.94508
 C2285 C 0.20583 0.28157 0.95900
 C2286 C 0.21680 0.30111 0.94452
 C2287 C 0.20930 0.28847 0.92259
 C2288 C 0.19814 0.26911 0.93686
 C2289 C 0.23227 0.27514 0.92176
 C2290 C 0.24002 0.28769 0.94402
 C2291 C 0.22913 0.26809 0.95838
 C2292 C 0.22123 0.25554 0.93638
 H2293 H 0.19382 0.28438 0.97364
 H2294 H 0.21481 0.31995 0.94779
 H2295 H 0.18073 0.26155 0.93397
 H2296 H 0.24300 0.27267 0.90611
 H2297 H 0.25720 0.29568 0.94708
 H2298 H 0.22159 0.23680 0.93260
 C2299 C 0.24420 0.77808 0.43523
 C2300 C 0.22486 0.76710 0.42029
 C2301 C 0.21153 0.79007 0.42093
 C2302 C 0.23064 0.80118 0.43551
 C2303 C 0.19850 0.78253 0.44266
 C2304 C 0.21191 0.75931 0.44235
 C2305 C 0.23126 0.77015 0.45703
 C2306 C 0.21778 0.79345 0.45746
 H2307 H 0.26300 0.77782 0.43172
 H2308 H 0.22758 0.75640 0.40468
 H2309 H 0.23827 0.81860 0.43278
 H2310 H 0.17961 0.78450 0.44567
 H2311 H 0.20383 0.74215 0.44530
 H2312 H 0.21474 0.80546 0.47203
 C2313 C 0.71694 0.70699 0.54303
 C2314 C 0.72962 0.69901 0.56499
 C2315 C 0.71057 0.71036 0.57958
 C2316 C 0.69770 0.71815 0.55784
 C2317 C 0.72412 0.73314 0.58028
 C2318 C 0.74340 0.72191 0.56537
 C2319 C 0.73065 0.73009 0.54356
 C2320 C 0.71134 0.74118 0.55821
 H2321 H 0.71380 0.69512 0.52839
 H2322 H 0.73709 0.68149 0.56769
 H2323 H 0.67881 0.71644 0.55481
 H2324 H 0.72686 0.74377 0.59593
 H2325 H 0.76219 0.72194 0.56890
 H2326 H 0.70340 0.75844 0.55525
 C2327 C 0.70728 0.21849 0.04288
 C2328 C 0.71869 0.19926 0.05747
 C2329 C 0.71140 0.21220 0.07934
 C2330 C 0.69979 0.23124 0.06496
 C2331 C 0.73421 0.22569 0.07956
 C2332 C 0.74175 0.21284 0.05735
 C2333 C 0.73042 0.23215 0.04288
 C2334 C 0.72272 0.24497 0.06483
 H2335 H 0.69504 0.21535 0.02854
 H2336 H 0.71689 0.18036 0.05452
 H2337 H 0.68235 0.23874 0.06802
 H2338 H 0.74518 0.22845 0.09496
 H2339 H 0.75894 0.20486 0.05408
 H2340 H 0.72275 0.26377 0.06834
 C2341 C 0.20542 0.71839 0.04207
 C2342 C 0.21585 0.69865 0.05672
 C2343 C 0.20863 0.71171 0.07855
 C2344 C 0.19799 0.73127 0.06413
 C2345 C 0.23193 0.72432 0.07927
 C2346 C 0.23939 0.71133 0.05714
 C2347 C 0.22907 0.73112 0.04260
 C2348 C 0.22145 0.74412 0.06448
 H2349 H 0.19345 0.71585 0.02739
 H2350 H 0.21337 0.67985 0.05360
 H2351 H 0.18079 0.73936 0.06703
 H2352 H 0.24268 0.72660 0.09490
 H2353 H 0.25636 0.70280 0.05414
 H2354 H 0.22226 0.76288 0.06807
 C2355 C 0.21897 0.20483 0.54088
 C2356 C 0.23172 0.19732 0.56297
 C2357 C 0.21224 0.20819 0.57733
 C2358 C 0.19931 0.21550 0.55547
 C2359 C 0.22511 0.23135 0.57806
 C2360 C 0.24482 0.22064 0.56332
 C2361 C 0.23197 0.22834 0.54140
 C2362 C 0.21226 0.23891 0.55588
 H2363 H 0.21633 0.19280 0.52626
 H2364 H 0.23961 0.18002 0.56587
 H2365 H 0.18050 0.21324 0.55231
 H2366 H 0.22746 0.24212 0.59367
 H2367 H 0.26359 0.22127 0.56695
 H2368 H 0.20392 0.25596 0.55280
   
