data_POSCAR
  _audit_creation_date              2014-09-24
  _audit_creation_method            'ToBaCCo'
  _symmetry_space_group_name_H-M    'P1'
  _symmetry_Int_Tables_number       1
  _symmetry_cell_setting            triclinic
  loop_
  _symmetry_equiv_pos_as_xyz
 x,y,z
_cell_length_a 42.7554
_cell_length_b 42.3431
_cell_length_c 45.1074
_cell_angle_alpha 90.102100
_cell_angle_beta 89.851700
_cell_angle_gamma 90.030400
loop_
  _atom_site_label
  _atom_site_type_symbol
  _atom_site_fract_x
  _atom_site_fract_y
  _atom_site_fract_z
Zr1 Zr 0.24522 0.24783 0.30689
 O2 O 0.26485 0.27019 0.34456
 O3 O 0.21470 0.21548 0.32660
 O4 O 0.21137 0.27340 0.33104
 O5 O 0.30851 0.19788 0.29643
 O6 O 0.18904 0.30571 0.29656
 O7 O 0.27441 0.21724 0.33105
 O8 O 0.19069 0.19193 0.28724
 O9 O 0.20634 0.24969 0.27886
 O10 O 0.24955 0.20918 0.27829
 O11 O 0.24775 0.29205 0.28599
 O12 O 0.28918 0.25294 0.28612
 Zr13 Zr 0.25687 0.26079 0.20518
 Zr14 Zr 0.21022 0.29267 0.25613
 Zr15 Zr 0.29169 0.21540 0.25563
 Zr16 Zr 0.21195 0.21209 0.24937
 O17 O 0.34090 0.22043 0.25716
 O18 O 0.16298 0.21849 0.24511
 O19 O 0.25421 0.21600 0.22565
 O20 O 0.21332 0.25490 0.22626
 O21 O 0.25257 0.29959 0.23360
 O22 O 0.29529 0.25851 0.23362
 C23 C 0.19506 0.19605 0.31523
 C24 C 0.29831 0.20068 0.32324
 C25 C 0.19255 0.29559 0.32327
 O26 O 0.16129 0.28716 0.25164
 O27 O 0.19551 0.31323 0.21582
 O28 O 0.22967 0.29361 0.18147
 C29 C 0.20623 0.31084 0.18917
 O30 O 0.30624 0.30848 0.30605
 Zr31 Zr 0.29001 0.29597 0.26310
 O32 O 0.28792 0.29361 0.18619
 O33 O 0.21254 0.34233 0.26085
 O34 O 0.28099 0.34487 0.26876
 O35 O 0.33942 0.29169 0.26447
 O36 O 0.30803 0.31977 0.22607
 C37 C 0.30531 0.31494 0.19813
 O38 O 0.23606 0.24028 0.16716
 O39 O 0.28960 0.16550 0.25364
 O40 O 0.28855 0.23335 0.18047
 O41 O 0.30939 0.19940 0.21438
 O42 O 0.21950 0.16264 0.24710
 O43 O 0.19927 0.19478 0.20680
 C44 C 0.30592 0.20984 0.18773
 H45 H 0.24951 0.18868 0.28879
 H46 H 0.19600 0.25510 0.21175
 H47 H 0.31556 0.25985 0.22303
 H48 H 0.24646 0.30952 0.30056
 H49 H 0.15298 0.19756 0.24775
 H50 H 0.15201 0.30853 0.25334
 H51 H 0.19079 0.35027 0.25950
 H52 H 0.30121 0.35615 0.26689
 H53 H 0.19890 0.15219 0.24944
 H54 H 0.31143 0.15777 0.25487
 H55 H 0.34980 0.19890 0.25545
 H56 H 0.34830 0.31327 0.26314
 H57 H 0.18169 0.17968 0.20882
 H58 H 0.24555 0.25044 0.14948
 H59 H 0.25560 0.26007 0.36238
 H60 H 0.32043 0.32690 0.30456
 Zr61 Zr 0.74977 0.75462 0.29683
 O62 O 0.72909 0.73049 0.33302
 O63 O 0.78043 0.78561 0.31844
 O64 O 0.78304 0.72812 0.32034
 O65 O 0.68685 0.80517 0.28803
 O66 O 0.80578 0.69667 0.28521
 O67 O 0.72043 0.78416 0.32199
 O68 O 0.80614 0.80980 0.28039
 O69 O 0.78924 0.75351 0.26939
 O70 O 0.74667 0.79470 0.27008
 O71 O 0.74705 0.71144 0.27395
 O72 O 0.70628 0.75103 0.27511
 Zr73 Zr 0.74064 0.74697 0.19449
 Zr74 Zr 0.78540 0.71162 0.24491
 Zr75 Zr 0.70494 0.79015 0.24658
 Zr76 Zr 0.78487 0.79255 0.24154
 O77 O 0.65564 0.78573 0.24650
 O78 O 0.83384 0.78607 0.23711
 O79 O 0.74314 0.79057 0.21717
 O80 O 0.78367 0.75086 0.21667
 O81 O 0.74361 0.70668 0.22111
 O82 O 0.70143 0.74834 0.22224
 C83 C 0.80117 0.80459 0.30809
 C84 C 0.69657 0.80092 0.31479
 C85 C 0.80203 0.70623 0.31216
 O86 O 0.83447 0.71661 0.24117
 O87 O 0.80042 0.69249 0.20401
 O88 O 0.76806 0.71491 0.16979
 C89 C 0.79068 0.69653 0.17726
 O90 O 0.68778 0.69424 0.29165
 Zr91 Zr 0.70537 0.70931 0.24989
 O92 O 0.71030 0.71546 0.17298
 O93 O 0.78227 0.66186 0.24775
 O94 O 0.71371 0.66004 0.25273
 O95 O 0.65603 0.71435 0.25090
 O96 O 0.68771 0.68837 0.21107
 C97 C 0.69198 0.69408 0.18338
 O98 O 0.76294 0.76917 0.15808
 O99 O 0.70757 0.84006 0.24762
 O100 O 0.71003 0.77642 0.17065
 O101 O 0.68892 0.80886 0.20593
 O102 O 0.77818 0.84218 0.24207
 O103 O 0.79814 0.81177 0.19986
 C104 C 0.69295 0.79991 0.17883
 H105 H 0.74677 0.81461 0.28162
 H106 H 0.80138 0.75104 0.20249
 H107 H 0.68149 0.74787 0.21114
 H108 H 0.74780 0.69333 0.28778
 H109 H 0.84394 0.80682 0.24056
 H110 H 0.84342 0.69505 0.24210
 H111 H 0.80394 0.65367 0.24637
 H112 H 0.69348 0.64916 0.24949
 H113 H 0.79896 0.85208 0.24498
 H114 H 0.68579 0.84794 0.24882
 H115 H 0.64706 0.80745 0.24591
 H116 H 0.64683 0.69309 0.24793
 H117 H 0.81552 0.82693 0.20268
 H118 H 0.75379 0.76017 0.13971
 H119 H 0.73798 0.73957 0.35147
 H120 H 0.67364 0.67597 0.28877
 Zr121 Zr 0.76141 0.24508 -0.30507
 O122 O 0.74440 0.26669 -0.34417
 O123 O 0.79213 0.21143 -0.32264
 O124 O 0.79677 0.26959 -0.32815
 O125 O 0.69611 0.19746 -0.29659
 O126 O 0.81776 0.30266 -0.29342
 O127 O 0.73256 0.21473 -0.32996
 O128 O 0.81332 0.18800 -0.28188
 O129 O 0.79891 0.24689 -0.27538
 O130 O 0.75474 0.20732 -0.27598
 O131 O 0.75870 0.28986 -0.28510
 O132 O 0.71660 0.25168 -0.28639
 Zr133 Zr 0.74474 0.26111 -0.20408
 Zr134 Zr 0.79471 0.29053 -0.25363
 Zr135 Zr 0.71170 0.21508 -0.25534
 Zr136 Zr 0.79092 0.21020 -0.24545
 O137 O 0.66269 0.22111 -0.25856
 O138 O 0.83978 0.21583 -0.23944
 O139 O 0.74764 0.21579 -0.22372
 O140 O 0.78915 0.25363 -0.22319
 O141 O 0.75144 0.29893 -0.23314
 O142 O 0.70778 0.25879 -0.23420
 C143 C 0.81046 0.19153 -0.31011
 C144 C 0.70767 0.19932 -0.32298
 C145 C 0.81528 0.29197 -0.32008
 O146 O 0.84326 0.28404 -0.24716
 O147 O 0.80810 0.31164 -0.21310
 O148 O 0.77181 0.29384 -0.17986
 C149 C 0.79612 0.31021 -0.18688
 O150 O 0.70150 0.30665 -0.30813
 Zr151 Zr 0.71546 0.29525 -0.26424
 O152 O 0.71347 0.29540 -0.18726
 O153 O 0.79362 0.34014 -0.25898
 O154 O 0.72565 0.34376 -0.27091
 O155 O 0.66608 0.29182 -0.26738
 O156 O 0.69662 0.32093 -0.22873
 C157 C 0.69763 0.31703 -0.20059
 O158 O 0.76296 0.24153 -0.16453
 O159 O 0.71242 0.16516 -0.25296
 O160 O 0.71153 0.23429 -0.18038
 O161 O 0.69231 0.19969 -0.21470
 O162 O 0.78168 0.16112 -0.24212
 O163 O 0.80153 0.19391 -0.20208
 C164 C 0.69460 0.21050 -0.18805
 H165 H 0.75473 0.18656 -0.28611
 H166 H 0.80577 0.25383 -0.20795
 H167 H 0.68709 0.26080 -0.22448
 H168 H 0.76099 0.30694 -0.29990
 H169 H 0.84947 0.19466 -0.24125
 H170 H 0.85309 0.30517 -0.24884
 H171 H 0.81545 0.34769 -0.25692
 H172 H 0.70558 0.35546 -0.27037
 H173 H 0.80200 0.14994 -0.24347
 H174 H 0.69051 0.15792 -0.25517
 H175 H 0.65327 0.19979 -0.25701
 H176 H 0.65757 0.31358 -0.26686
 H177 H 0.81876 0.17832 -0.20316
 H178 H 0.75264 0.25242 -0.14763
 H179 H 0.75431 0.25581 -0.36129
 H180 H 0.68726 0.32507 -0.30767
 Zr181 Zr 0.24381 0.76170 -0.29596
 O182 O 0.26394 0.74449 -0.33581
 O183 O 0.21128 0.79450 -0.31217
 O184 O 0.21122 0.73702 -0.32234
 O185 O 0.30709 0.81014 -0.28183
 O186 O 0.19038 0.70049 -0.29083
 O187 O 0.27209 0.79543 -0.31732
 O188 O 0.18645 0.81246 -0.27073
 O189 O 0.20522 0.75520 -0.26813
 O190 O 0.24662 0.79748 -0.26416
 O191 O 0.24874 0.71576 -0.27904
 O192 O 0.28786 0.75610 -0.27558
 Zr193 Zr 0.25562 0.73914 -0.19512
 Zr194 Zr 0.21132 0.71032 -0.24960
 Zr195 Zr 0.28893 0.79054 -0.24217
 Zr196 Zr 0.20927 0.78990 -0.23538
 O197 O 0.33837 0.78783 -0.24231
 O198 O 0.16056 0.78149 -0.23108
 O199 O 0.25150 0.78546 -0.21219
 O200 O 0.21222 0.74502 -0.21639
 O201 O 0.25347 0.70316 -0.22702
 O202 O 0.29412 0.74584 -0.22325
 C203 C 0.19039 0.81141 -0.29897
 C204 C 0.29684 0.81015 -0.30877
 C205 C 0.19334 0.71335 -0.31654
 O206 O 0.16228 0.71277 -0.24366
 O207 O 0.19915 0.68339 -0.21229
 O208 O 0.22616 0.70544 -0.17396
 C209 C 0.20586 0.68583 -0.18461
 O210 O 0.30819 0.70295 -0.29949
 Zr211 Zr 0.29082 0.71133 -0.25598
 O212 O 0.28692 0.70467 -0.17917
 O213 O 0.21586 0.66179 -0.26006
 O214 O 0.28379 0.66278 -0.26553
 O215 O 0.33986 0.71890 -0.25696
 O216 O 0.30994 0.68513 -0.22105
 C217 C 0.30583 0.68593 -0.19289
 O218 O 0.23546 0.75481 -0.15473
 O219 O 0.28502 0.84016 -0.23772
 O220 O 0.28598 0.76671 -0.16852
 O221 O 0.30483 0.80449 -0.19997
 O222 O 0.21520 0.83919 -0.22908
 O223 O 0.19646 0.80200 -0.19123
 C224 C 0.30183 0.79197 -0.17410
 H225 H 0.24581 0.81885 -0.27302
 H226 H 0.19453 0.74260 -0.20238
 H227 H 0.31427 0.74439 -0.21258
 H228 H 0.24830 0.69980 -0.29510
 H229 H 0.14992 0.80228 -0.23101
 H230 H 0.15400 0.69131 -0.24756
 H231 H 0.19459 0.65249 -0.25916
 H232 H 0.30438 0.65213 -0.26428
 H233 H 0.19420 0.84902 -0.23008
 H234 H 0.30655 0.84876 -0.23868
 H235 H 0.34628 0.80965 -0.23963
 H236 H 0.35011 0.69791 -0.25678
 H237 H 0.17895 0.81729 -0.19161
 H238 H 0.24568 0.74303 -0.13839
 H239 H 0.25417 0.75612 -0.35248
 H240 H 0.32342 0.68535 -0.29905
 Zr241 Zr 1.25610 1.26057 0.79457
 O242 O 1.23811 1.23982 0.83379
 O243 O 1.28891 1.29297 0.81175
 O244 O 1.29028 1.23476 0.81774
 O245 O 1.19214 1.30985 0.78638
 O246 O 1.30983 1.20028 0.78345
 O247 O 1.22828 1.29190 0.81950
 O248 O 1.31049 1.31522 0.77045
 O249 O 1.29355 1.25708 0.76488
 O250 O 1.25121 1.29859 0.76552
 O251 O 1.25113 1.21594 0.77450
 O252 O 1.21121 1.25556 0.77558
 Zr253 Zr 1.24001 1.24581 0.69350
 Zr254 Zr 1.28758 1.21352 0.74349
 Zr255 Zr 1.20800 1.29265 0.74495
 Zr256 Zr 1.28730 1.29404 0.73478
 O257 O 1.15871 1.28872 0.74750
 O258 O 1.33598 1.28679 0.72863
 O259 O 1.24407 1.29078 0.71329
 O260 O 1.28436 1.25067 0.71292
 O261 O 1.24439 1.20732 0.72223
 O262 O 1.20260 1.24946 0.72323
 C263 C 1.30807 1.31186 0.79859
 C264 C 1.20356 1.30759 0.81273
 C265 C 1.30794 1.21157 0.80996
 O266 O 1.33645 1.21771 0.73725
 O267 O 1.30011 1.19183 0.70305
 O268 O 1.26577 1.21199 0.66932
 C269 C 1.28890 1.19424 0.67666
 O270 O 1.19306 1.19940 0.79612
 Zr271 Zr 1.20800 1.21229 0.75281
 O272 O 1.20806 1.21361 0.67559
 O273 O 1.28416 1.16405 0.74904
 O274 O 1.21640 1.16320 0.75752
 O275 O 1.15897 1.21854 0.75695
 O276 O 1.18706 1.18942 0.71616
 C277 C 1.18981 1.19346 0.68798
 O278 O 1.26013 1.26501 0.65452
 O279 O 1.21074 1.34254 0.74344
 O280 O 1.20852 1.27436 0.66971
 O281 O 1.19002 1.30919 0.70430
 O282 O 1.28040 1.34351 0.73155
 O283 O 1.29813 1.30943 0.69111
 C284 C 1.19244 1.29870 0.67754
 H285 H 1.25203 1.31928 0.77574
 H286 H 1.30121 1.24972 0.69785
 H287 H 1.18199 1.24860 0.71330
 H288 H 1.25251 1.19878 0.78931
 H289 H 1.34632 1.30771 0.72964
 H290 H 1.34522 1.19612 0.73877
 H291 H 1.30560 1.15546 0.74682
 H292 H 1.19598 1.15226 0.75582
 H293 H 1.30127 1.35369 0.73199
 H294 H 1.18907 1.35058 0.74541
 H295 H 1.15023 1.31043 0.74609
 H296 H 1.14911 1.19743 0.75524
 H297 H 1.31600 1.32429 0.69177
 H298 H 1.24964 1.25493 0.63732
 H299 H 1.24841 1.25030 0.85087
 H300 H 1.17854 1.18123 0.79482
 Zr301 Zr 0.73785 0.74067 0.80541
 O302 O 0.75433 0.75896 0.84625
 O303 O 0.70419 0.70780 0.82007
 O304 O 0.70337 0.76625 0.82892
 O305 O 0.80233 0.69198 0.79621
 O306 O 0.68485 0.80167 0.79515
 O307 O 0.76530 0.70824 0.82947
 O308 O 0.68380 0.68797 0.77722
 O309 O 0.70156 0.74566 0.77476
 O310 O 0.74387 0.70415 0.77469
 O311 O 0.74342 0.78623 0.78752
 O312 O 0.78336 0.74657 0.78784
 Zr313 Zr 0.75778 0.76084 0.70559
 Zr314 Zr 0.70827 0.79016 0.75545
 Zr315 Zr 0.78776 0.71119 0.75540
 Zr316 Zr 0.70896 0.71024 0.74318
 O317 O 0.83694 0.71466 0.75962
 O318 O 0.66063 0.71777 0.73536
 O319 O 0.75291 0.71480 0.72290
 O320 O 0.71275 0.75462 0.72337
 O321 O 0.75223 0.79772 0.73602
 O322 O 0.79394 0.75554 0.73626
 C323 C 0.68512 0.69000 0.80556
 C324 C 0.79036 0.69305 0.82245
 C325 C 0.68620 0.78989 0.82141
 O326 O 0.65961 0.78603 0.74800
 O327 O 0.69666 0.81351 0.71572
 O328 O 0.73266 0.79563 0.68223
 C329 C 0.70886 0.81253 0.68960
 O330 O 0.80041 0.80119 0.81198
 Zr331 Zr 0.78731 0.79101 0.76754
 O332 O 0.79071 0.79395 0.69066
 O333 O 0.71133 0.83938 0.76301
 O334 O 0.77867 0.83975 0.77474
 O335 O 0.83618 0.78455 0.77280
 O336 O 0.80962 0.81607 0.73311
 C337 C 0.80842 0.81340 0.70475
 O338 O 0.73957 0.74371 0.66498
 O339 O 0.78483 0.66149 0.75115
 O340 O 0.79047 0.73412 0.68141
 O341 O 0.80764 0.69721 0.71446
 O342 O 0.71612 0.66092 0.73840
 O343 O 0.70000 0.69662 0.69861
 C344 C 0.80641 0.70950 0.68833
 H345 H 0.74264 0.68300 0.78395
 H346 H 0.69651 0.75622 0.70785
 H347 H 0.81496 0.75695 0.72712
 H348 H 0.74156 0.80271 0.80301
 H349 H 0.65025 0.69683 0.73515
 H350 H 0.65067 0.80750 0.75016
 H351 H 0.68993 0.84801 0.76069
 H352 H 0.79914 0.85074 0.77454
 H353 H 0.69526 0.65071 0.73804
 H354 H 0.80637 0.65323 0.75331
 H355 H 0.84541 0.69303 0.75725
 H356 H 0.84603 0.80574 0.77281
 H357 H 0.68250 0.68131 0.69815
 H358 H 0.75069 0.75481 0.64870
 H359 H 0.74328 0.74755 0.86240
 H360 H 0.81497 0.81938 0.81222
 Zr361 Zr 1.26348 0.74453 0.19618
 O362 O 1.24430 0.76887 0.15948
 O363 O 1.29425 0.71280 0.17518
 O364 O 1.29734 0.77159 0.17376
 O365 O 1.20019 0.69423 0.20345
 O366 O 1.31847 0.80305 0.20969
 O367 O 1.23453 0.71542 0.17012
 O368 O 1.31788 0.68753 0.21369
 O369 O 1.30214 0.74537 0.22452
 O370 O 1.25927 0.70441 0.22272
 O371 O 1.25994 0.78745 0.21953
 O372 O 1.21932 0.74833 0.21699
 Zr373 Zr 1.25101 0.75122 0.29859
 Zr374 Zr 1.29740 0.78702 0.24938
 Zr375 Zr 1.21689 0.70907 0.24519
 Zr376 Zr 1.29665 0.70616 0.25207
 O377 O 1.16765 0.71389 0.24370
 O378 O 1.34556 0.71300 0.25642
 O379 O 1.25414 0.70800 0.27543
 O380 O 1.29473 0.74757 0.27731
 O381 O 1.25497 0.79176 0.27235
 O382 O 1.21264 0.75043 0.27002
 C383 C 1.31358 0.69255 0.18589
 C384 C 1.21048 0.69861 0.17689
 C385 C 1.31550 0.79392 0.18255
 O386 O 1.34636 0.78195 0.25398
 O387 O 1.31105 0.80584 0.29081
 O388 O 1.27747 0.78320 0.32403
 C389 C 1.30025 0.80170 0.31723
 O390 O 1.20111 0.80543 0.20091
 Zr391 Zr 1.21759 0.78968 0.24277
 O392 O 1.22007 0.78254 0.31972
 O393 O 1.29448 0.83683 0.24716
 O394 O 1.22629 0.83893 0.24039
 O395 O 1.16830 0.78451 0.24077
 O396 O 1.19914 0.81059 0.28149
 C397 C 1.20254 0.80449 0.30923
 O398 O 1.27240 0.72897 0.33536
 O399 O 1.21912 0.65914 0.24420
 O400 O 1.22033 0.72075 0.32157
 O401 O 1.19904 0.69038 0.28497
 O402 O 1.28963 0.65657 0.25230
 O403 O 1.30938 0.68714 0.29392
 C404 C 1.20286 0.69797 0.31239
 H405 H 1.25939 0.68448 0.21122
 H406 H 1.31204 0.74729 0.29184
 H407 H 1.19239 0.75080 0.28072
 H408 H 1.26104 0.80573 0.20592
 H409 H 1.35579 0.69229 0.25308
 H410 H 1.35532 0.80353 0.25351
 H411 H 1.31608 0.84503 0.24922
 H412 H 1.20605 0.84991 0.24336
 H413 H 1.31039 0.64643 0.25003
 H414 H 1.19735 0.65140 0.24217
 H415 H 1.15882 0.69225 0.24409
 H416 H 1.15898 0.80565 0.24410
 H417 H 1.32742 0.67272 0.29137
 H418 H 1.26268 0.73779 0.35358
 H419 H 1.25374 0.75974 0.14126
 H420 H 1.18662 0.82341 0.20382
 Zr421 Zr 0.74558 1.25894 0.20366
 O422 O 0.76684 1.23760 0.16618
 O423 O 0.71476 1.29140 0.18384
 O424 O 0.71312 1.23294 0.17828
 O425 O 0.80808 1.30933 0.21612
 O426 O 0.69061 1.19921 0.21149
 O427 O 0.77504 1.29027 0.18061
 O428 O 0.68854 1.31274 0.22315
 O429 O 0.70583 1.25581 0.23057
 O430 O 0.74807 1.29729 0.23276
 O431 O 0.74878 1.21456 0.22437
 O432 O 0.78879 1.25419 0.22591
 Zr433 Zr 0.75317 1.24555 0.30587
 Zr434 Zr 0.70999 1.21258 0.25268
 Zr435 Zr 0.78952 1.29165 0.25642
 Zr436 Zr 0.70956 1.29314 0.26074
 O437 O 0.83884 1.28743 0.25662
 O438 O 0.66056 1.28606 0.26420
 O439 O 0.75094 1.29027 0.28541
 O440 O 0.71061 1.25009 0.28310
 O441 O 0.75118 1.20669 0.27716
 O442 O 0.79290 1.24871 0.27886
 C443 C 0.69391 1.30969 0.19533
 C444 C 0.79871 1.30674 0.18904
 C445 C 0.69458 1.21009 0.18508
 O446 O 0.66079 1.21669 0.25583
 O447 O 0.69481 1.19085 0.29210
 O448 O 0.72443 1.21297 0.32867
 C449 C 0.70275 1.19427 0.31944
 O450 O 0.80864 1.19803 0.20732
 Zr451 Zr 0.78994 1.21121 0.24926
 O452 O 0.78275 1.21286 0.32630
 O453 O 0.71375 1.16309 0.24722
 O454 O 0.78184 1.16211 0.24393
 O455 O 0.83920 1.21716 0.24916
 O456 O 0.80724 1.18845 0.28756
 C457 C 0.80181 1.19247 0.31542
 O458 O 0.73050 1.26600 0.34305
 O459 O 0.78663 1.34152 0.25824
 O460 O 0.78344 1.27376 0.33155
 O461 O 0.80514 1.30789 0.29811
 O462 O 0.71590 1.34276 0.26315
 O463 O 0.69581 1.30947 0.30341
 C464 C 0.80074 1.29756 0.32468
 H465 H 0.74801 1.31789 0.22242
 H466 H 0.69253 1.24933 0.29684
 H467 H 0.81264 1.24776 0.29024
 H468 H 0.74852 1.19724 0.20961
 H469 H 0.65037 1.30697 0.26229
 H470 H 0.65216 1.19507 0.25380
 H471 H 0.69222 1.15448 0.24813
 H472 H 0.80198 1.15114 0.24730
 H473 H 0.69503 1.35269 0.26105
 H474 H 0.80838 1.34959 0.25767
 H475 H 0.84734 1.30910 0.25862
 H476 H 0.84871 1.19601 0.25174
 H477 H 0.67833 1.32464 0.30140
 H478 H 0.73937 1.25607 0.36109
 H479 H 0.75796 1.24777 0.14827
 H480 H 0.82297 1.17987 0.20981
 O481 O 0.54222 1.06510 0.05041
 O482 O 0.57720 1.03499 0.02390
 C483 C 0.57045 1.05655 0.04349
 O484 O 0.45571 0.95124 0.05157
 O485 O 0.42005 0.98108 0.02597
 C486 C 0.42732 0.95906 0.04480
 O487 O 0.54221 0.95388 0.05314
 O488 O 0.57721 0.98155 0.02450
 C489 C 0.57044 0.96137 0.04526
 O490 O 0.45536 1.06721 0.04896
 O491 O 0.41988 1.03611 0.02429
 C492 C 0.42700 1.05869 0.04262
 Zr493 Zr 0.49869 1.04887 0.03450
 O494 O 0.49588 1.05024 0.08137
 O495 O 0.50167 1.09877 0.03282
 Zr496 Zr 0.49873 0.96961 0.03687
 O497 O 0.49582 0.97267 0.08369
 O498 O 0.50155 0.91975 0.03904
 O499 O 0.52690 1.00942 0.04132
 O500 O 0.47137 1.00938 0.04148
 O501 O 0.45496 1.06553 -0.05281
 O502 O 0.41971 1.03499 -0.02720
 C503 C 0.42665 1.05725 -0.04597
 O504 O 0.54095 0.94963 -0.05339
 O505 O 0.57655 0.97943 -0.02743
 C506 C 0.56933 0.95757 -0.04652
 O507 O 0.45446 0.94669 -0.04922
 O508 O 0.41954 0.97921 -0.02536
 C509 C 0.42622 0.95552 -0.04263
 O510 O 0.54133 1.06216 -0.05676
 O511 O 0.57675 1.03430 -0.02897
 C512 C 0.56968 1.05456 -0.04953
 Zr513 Zr 0.49807 1.04591 -0.04006
 O514 O 0.49457 1.04024 -0.08663
 O515 O 0.49969 1.09538 -0.04604
 Zr516 Zr 0.49786 0.96705 -0.03768
 O517 O 0.49636 0.97113 -0.08433
 O518 O 0.49811 0.91719 -0.04097
 Zr519 Zr 0.54562 1.00785 -0.00196
 Zr520 Zr 0.45102 1.00788 -0.00097
 O521 O 0.47014 1.00630 -0.04399
 O522 O 0.52632 1.00620 -0.04496
 O523 O 0.47036 1.05377 -0.00264
 O524 O 0.52558 0.96246 -0.00050
 O525 O 0.52573 1.05331 -0.00317
 O526 O 0.47034 0.96205 0.00015
 H527 H 0.45763 1.00984 0.05919
 H528 H 0.53934 0.94366 0.00009
 H529 H 0.45565 1.00566 -0.06110
 H530 H 0.53966 1.07200 -0.00362
 H531 H 0.48594 0.91111 0.02502
 H532 H 0.50593 0.90889 -0.02194
 H533 H 0.49535 0.94926 -0.09209
 H534 H 0.51409 1.03015 -0.09372
 H535 H 0.50135 1.10489 -0.02612
 H536 H 0.48357 1.10654 0.02130
 H537 H 0.51342 1.03756 0.08923
 H538 H 0.51487 0.98352 0.09083
 O539 O 1.04204 0.56670 0.55061
 O540 O 1.07708 0.53718 0.52363
 C541 C 1.07028 0.55872 0.54317
 O542 O 0.95636 0.45013 0.55106
 O543 O 0.92049 0.48022 0.52598
 C544 C 0.92791 0.45781 0.54432
 O545 O 1.04289 0.45450 0.55384
 O546 O 1.07765 0.48268 0.52544
 C547 C 1.07105 0.46221 0.54593
 O548 O 0.95526 0.56814 0.54913
 O549 O 0.92008 0.53626 0.52500
 C550 C 0.92699 0.55927 0.54290
 Zr551 Zr 0.99865 0.54958 0.53533
 O552 O 0.99582 0.55043 0.58221
 O553 O 1.00156 0.59947 0.53402
 Zr554 Zr 0.99919 0.47061 0.53845
 O555 O 0.99594 0.47715 0.58496
 O556 O 1.00156 0.42137 0.54565
 O557 O 1.02730 0.51050 0.54245
 O558 O 0.97134 0.51002 0.54265
 O559 O 0.95448 0.56368 0.44652
 O560 O 0.91971 0.53407 0.47359
 C561 C 0.92632 0.55558 0.45403
 O562 O 1.04182 0.45024 0.44798
 O563 O 1.07706 0.48034 0.47403
 C564 C 1.07009 0.45851 0.45489
 O565 O 0.95485 0.44773 0.45113
 O566 O 0.91989 0.47941 0.47592
 C567 C 0.92663 0.45628 0.45808
 O568 O 1.04116 0.56030 0.44244
 O569 O 1.07678 0.53465 0.47177
 C570 C 1.06956 0.55327 0.44999
 Zr571 Zr 0.99802 0.54614 0.46077
 O572 O 0.99382 0.54386 0.41405
 O573 O 1.00161 0.59599 0.45885
 Zr574 Zr 0.99842 0.46700 0.46376
 O575 O 0.99474 0.46640 0.41693
 O576 O 1.00150 0.41709 0.46459
 Zr577 Zr 1.04576 0.50855 0.49905
 Zr578 Zr 0.95143 0.50800 0.50007
 O579 O 0.97078 0.50617 0.45713
 O580 O 1.02637 0.50642 0.45610
 O581 O 0.97022 0.55402 0.49810
 O582 O 1.02597 0.46302 0.50101
 O583 O 1.02560 0.55387 0.49748
 O584 O 0.97105 0.46228 0.50161
 H585 H 0.95710 0.51033 0.56002
 H586 H 1.03964 0.44414 0.50149
 H587 H 0.95666 0.50530 0.43976
 H588 H 1.03938 0.57266 0.49643
 H589 H 1.00163 0.41131 0.52588
 H590 H 0.98519 0.40929 0.47836
 H591 H 1.01391 0.47615 0.40870
 H592 H 1.01077 0.53007 0.40656
 H593 H 0.98428 0.60490 0.47077
 H594 H 0.98468 0.60712 0.52091
 H595 H 1.01425 0.53906 0.58999
 H596 H 1.01680 0.48364 0.59224
 O597 O 0.94476 0.54434 -0.05058
 O598 O 0.97594 0.57992 -0.02605
 C599 C 0.95333 0.57292 -0.04413
 O600 O 0.94615 0.45860 0.05543
 O601 O 0.97359 0.42210 0.02805
 C602 C 0.95342 0.42977 0.04848
 O603 O 0.94411 0.54602 0.05074
 O604 O 0.97458 0.58085 0.02442
 C605 C 0.95222 0.57438 0.04306
 O606 O 0.94646 0.45695 -0.05270
 O607 O 0.97373 0.42127 -0.02447
 C608 C 0.95349 0.42836 -0.04493
 Zr609 Zr 0.96299 0.50056 -0.03661
 O610 O 0.91362 0.49808 -0.03922
 O611 O 0.96767 0.50136 -0.08325
 Zr612 Zr 0.96253 0.50179 0.03810
 O613 O 0.91313 0.49886 0.03938
 O614 O 0.96403 0.50600 0.08487
 O615 O 0.95686 0.52945 0.00035
 O616 O 0.95650 0.47372 0.00110
 O617 O 1.05625 0.45531 -0.05251
 O618 O 1.02786 0.42045 -0.02421
 C619 C 1.04833 0.42695 -0.04471
 O620 O 1.06050 0.54451 0.05057
 O621 O 1.02988 0.58006 0.02551
 C622 C 1.05236 0.57308 0.04364
 O623 O 1.05649 0.45723 0.05505
 O624 O 1.02773 0.42139 0.02822
 C625 C 1.04847 0.42860 0.04821
 O626 O 1.06125 0.54236 -0.05006
 O627 O 1.03246 0.57901 -0.02430
 C628 C 1.05479 0.57121 -0.04261
 Zr629 Zr 1.04108 0.49942 -0.03640
 O630 O 1.09043 0.49560 -0.03725
 O631 O 1.03954 0.50199 -0.08326
 Zr632 Zr 1.04065 0.50075 0.03834
 O633 O 1.08991 0.50028 0.04296
 O634 O 1.03491 0.50267 0.08485
 Zr635 Zr 1.00254 0.54835 0.00022
 Zr636 Zr 1.00115 0.45278 0.00149
 O637 O 1.04636 0.47242 0.00132
 O638 O 1.04756 0.52804 0.00063
 O639 O 1.00161 0.47128 -0.04188
 O640 O 1.00196 0.52934 0.04330
 O641 O 1.00253 0.52794 -0.04231
 O642 O 1.00121 0.47275 0.04438
 H643 H 0.93763 0.46012 0.00125
 H644 H 1.00199 0.54405 0.06042
 H645 H 1.06465 0.45809 0.00134
 H646 H 1.00311 0.54214 -0.05975
 H647 H 0.97663 0.48819 0.09252
 H648 H 1.05627 0.50360 0.09325
 H649 H 1.09872 0.48951 0.02538
 H650 H 1.09866 0.50992 -0.02176
 H651 H 1.02585 0.48470 -0.09031
 H652 H 0.94611 0.50178 -0.09126
 H653 H 0.90507 0.51312 -0.02451
 H654 H 0.90487 0.51437 0.02505
 O655 O 0.44304 0.95280 0.45233
 O656 O 0.47116 0.91801 0.48078
 C657 C 0.45052 0.92447 0.46056
 O658 O 0.55616 1.03822 0.44833
 O659 O 0.52888 1.07563 0.47463
 C660 C 0.54943 1.06725 0.45483
 O661 O 0.55238 0.95111 0.44934
 O662 O 0.52494 0.91713 0.47934
 C663 C 0.54466 0.92300 0.45805
 O664 O 0.44193 1.04058 0.45168
 O665 O 0.47364 1.07659 0.47504
 C666 C 0.45095 1.06926 0.45723
 Zr667 Zr 0.45973 0.99694 0.46693
 O668 O 0.46191 0.99606 0.42012
 O669 O 0.41024 0.99509 0.46707
 Zr670 Zr 0.53800 0.99563 0.46496
 O671 O 0.53608 0.99621 0.41807
 O672 O 0.58739 0.99204 0.46383
 O673 O 0.49825 0.96755 0.46127
 O674 O 0.49917 1.02380 0.45939
 O675 O 0.44274 1.04469 0.55221
 O676 O 0.47329 1.07881 0.52517
 C677 C 0.45089 1.07283 0.54387
 O678 O 0.55627 0.95610 0.55666
 O679 O 0.52658 0.91957 0.53158
 C680 C 0.54806 0.92730 0.55064
 O681 O 0.56011 1.04317 0.55035
 O682 O 0.52898 1.07799 0.52496
 C683 C 0.55181 1.07154 0.54291
 O684 O 0.44523 0.95779 0.55981
 O685 O 0.47229 0.92044 0.53312
 C686 C 0.45232 0.92877 0.55350
 Zr687 Zr 0.46197 1.00033 0.54157
 O688 O 0.46913 1.00379 0.58780
 O689 O 0.41296 1.00001 0.54791
 Zr690 Zr 0.53983 0.99922 0.53961
 O691 O 0.53513 1.00226 0.58617
 O692 O 0.58914 0.99825 0.54315
 Zr693 Zr 0.49919 0.95025 0.50504
 Zr694 Zr 0.50066 1.04564 0.50130
 O695 O 0.50138 1.02817 0.54490
 O696 O 0.50065 0.97134 0.54746
 O697 O 0.45500 1.02680 0.50326
 O698 O 0.54441 0.96980 0.50317
 O699 O 0.45456 0.97118 0.50545
 O700 O 0.54572 1.02544 0.50097
 H701 H 0.49900 1.03709 0.44133
 H702 H 0.56276 0.95554 0.50298
 H703 H 0.50179 1.04354 0.56150
 H704 H 0.43574 0.95756 0.50635
 H705 H 0.59592 1.00950 0.47600
 H706 H 0.59739 0.99109 0.52381
 H707 H 0.55668 1.00338 0.59410
 H708 H 0.44805 1.00589 0.59676
 H709 H 0.40349 0.99609 0.52830
 H710 H 0.40270 1.01215 0.48030
 H711 H 0.43996 0.99637 0.41312
 H712 H 0.52020 0.98052 0.41192
 O713 O 0.95015 0.92937 0.53751
 O714 O 0.97595 0.95919 0.57220
 C715 C 0.95716 0.93652 0.56464
 O716 O 1.06087 0.94421 0.45484
 O717 O 1.02902 0.97208 0.42349
 C718 C 1.05219 0.95309 0.42861
 O719 O 1.05834 0.93558 0.53694
 O720 O 1.02963 0.96228 0.57193
 C721 C 1.05052 0.94162 0.56412
 O722 O 0.94713 0.93706 0.45521
 O723 O 0.97497 0.96902 0.42372
 C724 C 0.95463 0.94702 0.42895
 Zr725 Zr 0.96384 0.95049 0.49732
 O726 O 0.96665 0.90097 0.49128
 O727 O 0.91453 0.94741 0.50072
 Zr728 Zr 1.04248 0.95529 0.49701
 O729 O 1.04571 0.90583 0.49074
 O730 O 1.09178 0.95834 0.50038
 O731 O 1.00364 0.94498 0.52334
 O732 O 1.00339 0.94849 0.47113
 O733 O 0.94058 1.04599 0.46093
 O734 O 0.97192 1.02137 0.42658
 C735 C 0.94913 1.04003 0.43384
 O736 O 1.05135 1.05109 0.54362
 O737 O 1.02573 1.01715 0.57501
 C738 C 1.04409 1.04090 0.56988
 O739 O 1.05455 1.05240 0.46048
 O740 O 1.02591 1.02447 0.42637
 C741 C 1.04674 1.04533 0.43345
 O742 O 0.94347 1.04436 0.54392
 O743 O 0.97344 1.01428 0.57515
 C744 C 0.95206 1.03530 0.57014
 Zr745 Zr 0.95917 1.02984 0.50159
 O746 O 0.95646 1.07976 0.50090
 O747 O 0.90986 1.02674 0.50504
 Zr748 Zr 1.03780 1.03457 0.50135
 O749 O 1.03483 1.08448 0.50042
 O750 O 1.08710 1.03750 0.50476
 Zr751 Zr 1.00102 0.98975 0.54377
 Zr752 Zr 1.00060 0.99505 0.45523
 O753 O 0.99805 1.03953 0.47600
 O754 O 0.99824 1.03673 0.52832
 O755 O 0.95514 0.99133 0.47306
 O756 O 1.04601 0.99373 0.52502
 O757 O 0.95586 0.98829 0.52528
 O758 O 1.04623 0.99685 0.47276
 H759 H 1.00448 0.93078 0.45677
 H760 H 1.06445 0.99410 0.53827
 H761 H 0.99697 1.05877 0.46358
 H762 H 0.93748 0.98647 0.53860
 H763 H 1.09923 0.97239 0.48435
 H764 H 1.09611 1.02603 0.48764
 H765 H 1.02162 1.09111 0.51735
 H766 H 0.96848 1.08781 0.51803
 H767 H 0.90234 1.01434 0.48789
 H768 H 0.90552 0.96058 0.48480
 H769 H 0.97985 0.89241 0.50734
 H770 H 1.03294 0.89566 0.50635
 O771 O 0.56431 0.44068 0.03194
 O772 O 0.53371 0.46236 0.06854
 C773 C 0.55702 0.44513 0.05950
 O774 O 0.54618 0.55853 -0.04048
 O775 O 0.52109 0.52838 -0.07543
 C776 C 0.53867 0.55198 -0.06760
 O777 O 0.55268 0.54877 0.04092
 O778 O 0.52727 0.51534 0.07292
 C779 C 0.54648 0.53829 0.06728
 O780 O 0.55656 0.44224 -0.04949
 O781 O 0.52545 0.47219 -0.07991
 C782 C 0.54679 0.45086 -0.07538
 Zr783 Zr 0.54265 0.45643 -0.00697
 O784 O 0.59176 0.45955 -0.01215
 O785 O 0.54342 0.40653 -0.00887
 Zr786 Zr 0.53532 0.53510 -0.00079
 O787 O 0.58444 0.53894 -0.00597
 O788 O 0.53206 0.58440 0.00642
 O789 O 0.54638 0.49423 0.02240
 O790 O 0.54380 0.49847 -0.03003
 O791 O 0.45068 0.43216 -0.04603
 O792 O 0.47265 0.46807 -0.07800
 C793 C 0.45601 0.44309 -0.07236
 O794 O 0.44001 0.53720 0.04460
 O795 O 0.47374 0.50998 0.07467
 C796 C 0.44998 0.52850 0.07045
 O797 O 0.43844 0.54670 -0.03697
 O798 O 0.46750 0.52305 -0.07363
 C799 C 0.44551 0.54194 -0.06454
 O800 O 0.44964 0.42892 0.03558
 O801 O 0.47738 0.45681 0.07034
 C802 C 0.45731 0.43524 0.06268
 Zr803 Zr 0.46510 0.44855 -0.00444
 O804 O 0.41619 0.44118 -0.00614
 O805 O 0.47449 0.39960 -0.00700
 Zr806 Zr 0.45717 0.52715 0.00182
 O807 O 0.40792 0.52190 0.00021
 O808 O 0.45239 0.57637 0.00896
 Zr809 Zr 0.50192 0.48811 0.04194
 Zr810 Zr 0.49821 0.49575 -0.04722
 O811 O 0.45424 0.48939 -0.02695
 O812 O 0.45595 0.48502 0.02535
 O813 O 0.50330 0.44876 -0.03274
 O814 O 0.49677 0.53482 0.02668
 O815 O 0.50552 0.44449 0.02007
 O816 O 0.49448 0.53974 -0.02547
 H817 H 0.56152 0.50114 -0.04401
 H818 H 0.49548 0.55245 0.04111
 H819 H 0.43520 0.48839 -0.03940
 H820 H 0.50782 0.42511 0.03217
 H821 H 0.51578 0.59259 -0.00705
 H822 H 0.46313 0.58734 -0.00751
 H823 H 0.40156 0.50818 0.01690
 H824 H 0.40657 0.45569 0.00844
 H825 H 0.45390 0.38886 -0.00645
 H826 H 0.56575 0.40035 -0.00983
 H827 H 0.59933 0.47527 0.00238
 H828 H 0.59438 0.52806 0.01094
 C829 C 0.32323 1.19456 0.16343
 C830 C 0.33359 1.16336 0.16472
 C831 C 0.35091 1.14845 0.13990
 C832 C 0.34792 1.11588 0.13473
 C833 C 0.36498 1.10120 0.11198
 C834 C 0.38578 1.11887 0.09439
 C835 C 0.38876 1.15139 0.09966
 C836 C 0.37140 1.16610 0.12201
 C837 C 0.40722 1.10382 0.07281
 C838 C 0.40153 1.07510 0.05847
 H839 H 0.32740 1.14902 0.18373
 H840 H 0.33250 1.10175 0.14843
 H841 H 0.36278 1.07593 0.10902
 H842 H 0.40504 1.16539 0.08674
 H843 H 0.37489 1.19109 0.12588
 H844 H 0.42914 1.11586 0.06847
 H845 H 0.32610 1.20776 0.14306
 H846 H 0.37873 1.06406 0.05976
 C847 C 0.82452 0.69488 0.66428
 C848 C 0.83364 0.66329 0.66481
 C849 C 0.85111 0.64865 0.64001
 C850 C 0.84735 0.61633 0.63403
 C851 C 0.86436 0.60185 0.61119
 C852 C 0.88579 0.61948 0.59426
 C853 C 0.88955 0.65174 0.60034
 C854 C 0.87233 0.66626 0.62286
 C855 C 0.90708 0.60455 0.57255
 C856 C 0.90140 0.57579 0.55833
 H857 H 0.82618 0.64845 0.68305
 H858 H 0.83135 0.60225 0.64717
 H859 H 0.86156 0.57673 0.60764
 H860 H 0.90635 0.66567 0.58795
 H861 H 0.87647 0.69101 0.62740
 H862 H 0.92904 0.61654 0.56825
 H863 H 0.82872 0.70886 0.64459
 H864 H 0.87860 0.56475 0.55953
 C865 C 0.67663 0.81721 0.15519
 C866 C 0.66694 0.84852 0.15843
 C867 C 0.64942 0.86545 0.13502
 C868 C 0.65232 0.89838 0.13237
 C869 C 0.63456 0.91502 0.11148
 C870 C 0.61311 0.89895 0.09332
 C871 C 0.61036 0.86605 0.09594
 C872 C 0.62845 0.84941 0.11638
 C873 C 0.59082 0.91577 0.07394
 C874 C 0.59612 0.94526 0.06091
 H875 H 0.67333 0.86137 0.17831
 H876 H 0.66811 0.91128 0.14671
 H877 H 0.63665 0.94047 0.11047
 H878 H 0.59365 0.85321 0.08250
 H879 H 0.62503 0.82417 0.11833
 H880 H 0.56877 0.90401 0.06956
 H881 H 0.67364 0.80542 0.13407
 H882 H 0.61900 0.95617 0.06183
 C883 C 1.17564 0.31550 0.65396
 C884 C 1.16742 0.34728 0.65664
 C885 C 1.14993 0.36442 0.63343
 C886 C 1.15355 0.39726 0.63069
 C887 C 1.13580 0.41427 0.61012
 C888 C 1.11373 0.39866 0.59231
 C889 C 1.11031 0.36583 0.59495
 C890 C 1.12831 0.34882 0.61514
 C891 C 1.09151 0.41593 0.57329
 C892 C 1.09680 0.44577 0.56104
 H893 H 1.17506 0.36039 0.67597
 H894 H 1.16986 0.40982 0.64478
 H895 H 1.13844 0.43967 0.60912
 H896 H 1.09311 0.35336 0.58176
 H897 H 1.12431 0.32368 0.61718
 H898 H 1.06943 0.40432 0.56869
 H899 H 1.17144 0.30309 0.63334
 H900 H 1.11968 0.45667 0.56208
 C901 C 0.67652 1.19493 -0.16437
 C902 C 0.66749 1.16327 -0.16609
 C903 C 0.64928 1.14736 -0.14240
 C904 C 0.65260 1.11467 -0.13808
 C905 C 0.63443 1.09884 -0.11686
 C906 C 0.61215 1.11544 -0.09998
 C907 C 0.60891 1.14810 -0.10430
 C908 C 0.62739 1.16397 -0.12509
 C909 C 0.58972 1.09924 -0.08009
 C910 C 0.59522 1.07047 -0.06579
 H911 H 0.67527 1.14924 -0.18482
 H912 H 0.66909 1.10131 -0.15136
 H913 H 0.63696 1.07354 -0.11458
 H914 H 0.59158 1.16133 -0.09187
 H915 H 0.62365 1.18900 -0.12833
 H916 H 0.56746 1.11088 -0.07638
 H917 H 0.67210 1.20816 -0.14422
 H918 H 0.61823 1.05982 -0.06625
 C919 C 1.18605 0.67924 0.33490
 C920 C 1.16770 0.65332 0.32682
 C921 C 1.14897 0.63420 0.34777
 C922 C 1.15583 0.63203 0.37822
 C923 C 1.13694 0.61373 0.39701
 C924 C 1.11092 0.59749 0.38558
 C925 C 1.10452 0.59938 0.35518
 C926 C 1.12349 0.61723 0.33646
 C927 C 1.08837 0.58046 0.40458
 C928 C 1.09493 0.56774 0.43246
 H929 H 1.16541 0.64769 0.30348
 H930 H 1.17571 0.64426 0.38758
 H931 H 1.14222 0.61308 0.42045
 H932 H 1.08453 0.58717 0.34586
 H933 H 1.11782 0.61831 0.31309
 H934 H 1.06508 0.57721 0.39560
 H935 H 1.18788 0.68628 0.35790
 H936 H 1.11854 0.56773 0.44105
 C937 C 0.31784 0.80757 -0.14907
 C938 C 0.32617 0.83951 -0.15023
 C939 C 0.34396 0.85613 -0.12670
 C940 C 0.34131 0.88910 -0.12416
 C941 C 0.35989 0.90597 -0.10408
 C942 C 0.38192 0.89017 -0.08643
 C943 C 0.38428 0.85715 -0.08870
 C944 C 0.36536 0.84023 -0.10843
 C945 C 0.40495 0.90749 -0.06801
 C946 C 0.40022 0.93777 -0.05631
 H947 H 0.31874 0.85332 -0.16916
 H948 H 0.32523 0.90194 -0.13821
 H949 H 0.35796 0.93144 -0.10345
 H950 H 0.40137 0.84447 -0.07563
 H951 H 0.36855 0.81496 -0.11026
 H952 H 0.42706 0.89584 -0.06375
 H953 H 0.32192 0.79410 -0.12908
 H954 H 0.37737 0.94869 -0.05737
 C955 C 0.81695 0.31366 0.34914
 C956 C 0.82766 0.34468 0.34664
 C957 C 0.84548 0.36073 0.37036
 C958 C 0.84385 0.39373 0.37296
 C959 C 0.86215 0.40973 0.39384
 C960 C 0.88287 0.39294 0.41212
 C961 C 0.88436 0.35995 0.40960
 C962 C 0.86569 0.34393 0.38911
 C963 C 0.90556 0.40923 0.43151
 C964 C 0.90071 0.43908 0.44392
 H965 H 0.82196 0.35805 0.32692
 H966 H 0.82869 0.40719 0.35851
 H967 H 0.86106 0.43525 0.39470
 H968 H 0.90051 0.34658 0.42313
 H969 H 0.86810 0.31857 0.38716
 H970 H 0.92747 0.39723 0.43586
 H971 H 0.81933 0.30124 0.36998
 H972 H 0.87793 0.45016 0.44280
 C973 C 1.19064 0.32864 0.16539
 C974 C 1.15892 0.33650 0.16659
 C975 C 1.14268 0.35330 0.14223
 C976 C 1.11040 0.34882 0.13805
 C977 C 1.09427 0.36558 0.11607
 C978 C 1.11015 0.38756 0.09820
 C979 C 1.14241 0.39189 0.10235
 C980 C 1.15856 0.37488 0.12396
 C981 C 1.09366 0.40892 0.07751
 C982 C 1.06456 0.40304 0.06439
 H983 H 1.14512 0.32852 0.18533
 H984 H 1.09759 0.33252 0.15203
 H985 H 1.06929 0.36223 0.11394
 H986 H 1.15510 0.40904 0.08918
 H987 H 1.18323 0.37957 0.12700
 H988 H 1.10522 0.43108 0.07250
 H989 H 1.20382 0.33308 0.14529
 H990 H 1.05369 0.38002 0.06603
 C991 C 0.69400 0.83113 0.66603
 C992 C 0.66205 0.83800 0.66685
 C993 C 0.64543 0.85434 0.64257
 C994 C 0.61317 0.84932 0.63895
 C995 C 0.59645 0.86562 0.61715
 C996 C 0.61173 0.88759 0.59884
 C997 C 0.64400 0.89241 0.60235
 C998 C 0.66075 0.87590 0.62387
 C999 C 0.59454 0.90838 0.57825
 C1000 C 0.56489 0.90216 0.56653
 H1001 H 0.64822 0.82924 0.68526
 H1002 H 0.60081 0.83300 0.65327
 H1003 H 0.57147 0.86191 0.61553
 H1004 H 0.65621 0.90958 0.58880
 H1005 H 0.68539 0.88096 0.62649
 H1006 H 0.60586 0.93043 0.57235
 H1007 H 0.70759 0.83638 0.64636
 H1008 H 0.55415 0.87917 0.56898
 C1009 C 1.18948 0.66685 -0.16649
 C1010 C 1.18843 0.66911 -0.13551
 C1011 C 1.16680 0.64850 -0.11840
 C1012 C 1.14885 0.66071 -0.09485
 C1013 C 1.12660 0.64170 -0.08028
 C1014 C 1.12239 0.60998 -0.08884
 C1015 C 1.14121 0.59772 -0.11169
 C1016 C 1.16302 0.61665 -0.12630
 C1017 C 1.09987 0.58809 -0.07437
 C1018 C 1.07485 0.59630 -0.05562
 H1019 H 1.20052 0.68813 -0.12422
 H1020 H 1.15150 0.68517 -0.08823
 H1021 H 1.11303 0.65180 -0.06237
 H1022 H 1.13888 0.57328 -0.11851
 H1023 H 1.17698 0.60631 -0.14388
 H1024 H 1.10303 0.56331 -0.07961
 H1025 H 1.17381 0.64997 -0.17686
 H1026 H 1.07015 0.62074 -0.05023
 C1027 C 0.68501 1.17631 0.34190
 C1028 C 0.65959 1.15748 0.33377
 C1029 C 0.63953 1.13983 0.35475
 C1030 C 0.62269 1.11398 0.34374
 C1031 C 0.60328 1.09646 0.36230
 C1032 C 0.59965 1.10472 0.39223
 C1033 C 0.61590 1.13106 0.40336
 C1034 C 0.63582 1.14848 0.38473
 C1035 C 0.58076 1.08356 0.41112
 C1036 C 0.56619 1.09181 0.43785
 H1037 H 0.65451 1.15459 0.31039
 H1038 H 0.62492 1.10697 0.32072
 H1039 H 0.59112 1.07619 0.35323
 H1040 H 0.61390 1.13772 0.42646
 H1041 H 0.64795 1.16873 0.39377
 H1042 H 0.57741 1.05978 0.40275
 H1043 H 0.69159 1.17858 0.36495
 H1044 H 0.56631 1.11597 0.44571
 C1045 C 0.80657 0.67928 0.15317
 C1046 C 0.83783 0.66999 0.15529
 C1047 C 0.85453 0.65301 0.13124
 C1048 C 0.83879 0.63229 0.11201
 C1049 C 0.85544 0.61463 0.09106
 C1050 C 0.88805 0.61756 0.08854
 C1051 C 0.90377 0.63883 0.10725
 C1052 C 0.88713 0.65617 0.12858
 C1053 C 0.90504 0.59542 0.06881
 C1054 C 0.93495 0.60061 0.05712
 H1055 H 0.85103 0.67673 0.17479
 H1056 H 0.81380 0.62869 0.11389
 H1057 H 0.84287 0.59802 0.07720
 H1058 H 0.92897 0.64107 0.10640
 H1059 H 0.89981 0.67178 0.14333
 H1060 H 0.89346 0.57328 0.06374
 H1061 H 0.79414 0.67608 0.13250
 H1062 H 0.94587 0.62361 0.05873
 C1063 C 0.30401 1.17610 0.65282
 C1064 C 0.33562 1.16804 0.65427
 C1065 C 0.35226 1.15119 0.63021
 C1066 C 0.38474 1.15507 0.62723
 C1067 C 0.40148 1.13792 0.60592
 C1068 C 0.38598 1.11622 0.58749
 C1069 C 0.35347 1.11264 0.59027
 C1070 C 0.33670 1.13004 0.61128
 C1071 C 0.40317 1.09422 0.56793
 C1072 C 0.43334 1.09931 0.55695
 H1073 H 0.34918 1.17592 0.67316
 H1074 H 0.39726 1.17106 0.64175
 H1075 H 0.42663 1.14066 0.60488
 H1076 H 0.34110 1.09568 0.57662
 H1077 H 0.31183 1.12589 0.61343
 H1078 H 0.39172 1.07203 0.56275
 H1079 H 0.29091 1.17178 0.63271
 H1080 H 0.44427 1.12231 0.55851
 C1081 C 0.81129 0.32811 -0.16280
 C1082 C 0.84327 0.33502 -0.16310
 C1083 C 0.85927 0.35209 -0.13867
 C1084 C 0.89136 0.34709 -0.13377
 C1085 C 0.90741 0.36420 -0.11191
 C1086 C 0.89167 0.38705 -0.09486
 C1087 C 0.85958 0.39186 -0.09966
 C1088 C 0.84349 0.37449 -0.12115
 C1089 C 0.90829 0.40877 -0.07446
 C1090 C 0.93697 0.40266 -0.06066
 H1091 H 0.85746 0.32618 -0.18125
 H1092 H 0.90412 0.33016 -0.14716
 H1093 H 0.93228 0.36044 -0.10928
 H1094 H 0.84702 0.40967 -0.08713
 H1095 H 0.81899 0.37957 -0.12475
 H1096 H 0.89720 0.43138 -0.07030
 H1097 H 0.79750 0.33346 -0.14327
 H1098 H 0.94724 0.37932 -0.06145
 C1099 C 0.31479 0.81910 0.34182
 C1100 C 0.34588 0.82907 0.34088
 C1101 C 0.36071 0.84626 0.36575
 C1102 C 0.39301 0.84322 0.37053
 C1103 C 0.40779 0.86050 0.39300
 C1104 C 0.39049 0.88157 0.41071
 C1105 C 0.35820 0.88446 0.40597
 C1106 C 0.34338 0.86687 0.38388
 C1107 C 0.40567 0.90357 0.43167
 C1108 C 0.43441 0.89825 0.44547
 H1109 H 0.36024 0.82267 0.32197
 H1110 H 0.40687 0.82769 0.35664
 H1111 H 0.43286 0.85836 0.39559
 H1112 H 0.34448 0.90094 0.41901
 H1113 H 0.31861 0.87039 0.38031
 H1114 H 0.39375 0.92573 0.43590
 H1115 H 0.30136 0.82197 0.36203
 H1116 H 0.44536 0.87522 0.44463
 C1117 C 1.17698 1.17706 0.33624
 C1118 C 1.15554 1.15414 0.32741
 C1119 C 1.13869 1.13452 0.34922
 C1120 C 1.10882 1.12301 0.34238
 C1121 C 1.09190 1.10557 0.36326
 C1122 C 1.10491 1.09904 0.39121
 C1123 C 1.13508 1.10991 0.39769
 C1124 C 1.15195 1.12721 0.37686
 C1125 C 1.08764 1.08206 0.41460
 C1126 C 1.06249 1.06197 0.40915
 H1127 H 1.14995 1.15148 0.30412
 H1128 H 1.09825 1.12823 0.32114
 H1129 H 1.06846 1.09809 0.35767
 H1130 H 1.14568 1.10495 0.41897
 H1131 H 1.17541 1.13465 0.38248
 H1132 H 1.09604 1.08455 0.43714
 H1133 H 1.18081 1.18149 0.35959
 H1134 H 1.05488 1.05725 0.38673
 C1135 C 0.66291 0.67012 -0.17817
 C1136 C 0.65741 0.67331 -0.14792
 C1137 C 0.63333 0.65450 -0.13240
 C1138 C 0.61958 0.66681 -0.10666
 C1139 C 0.59693 0.64957 -0.09134
 C1140 C 0.58766 0.61958 -0.10134
 C1141 C 0.60148 0.60711 -0.12710
 C1142 C 0.62415 0.62438 -0.14245
 C1143 C 0.56610 0.60105 -0.08256
 C1144 C 0.55212 0.57243 -0.09065
 H1145 H 0.66952 0.69165 -0.13569
 H1146 H 0.62639 0.68984 -0.09837
 H1147 H 0.58695 0.65953 -0.07129
 H1148 H 0.59577 0.58369 -0.13498
 H1149 H 0.63505 0.61362 -0.16162
 H1150 H 0.56248 0.60968 -0.06017
 H1151 H 0.64896 0.65383 -0.19109
 H1152 H 0.55230 0.56427 -0.11338
 C1153 C 0.82849 1.17115 0.66982
 C1154 C 0.84785 1.14671 0.67937
 C1155 C 0.86320 1.12518 0.65794
 C1156 C 0.89234 1.11178 0.66465
 C1157 C 0.90790 1.09285 0.64379
 C1158 C 0.89422 1.08675 0.61600
 C1159 C 0.86456 1.09919 0.60989
 C1160 C 0.84910 1.11797 0.63064
 C1161 C 0.91043 1.06933 0.59203
 C1162 C 0.93647 1.04990 0.59588
 H1163 H 0.85265 1.14396 0.70279
 H1164 H 0.90351 1.11677 0.68568
 H1165 H 0.93090 1.08400 0.64919
 H1166 H 0.85337 1.09462 0.58879
 H1167 H 0.82609 1.12679 0.62516
 H1168 H 0.90097 1.07188 0.56989
 H1169 H 0.82581 1.17539 0.64630
 H1170 H 0.94536 1.04492 0.61780
 C1171 C 0.33099 0.67287 0.16469
 C1172 C 0.35081 0.64863 0.17402
 C1173 C 0.36473 0.62535 0.15344
 C1174 C 0.39221 0.60948 0.16158
 C1175 C 0.40591 0.58735 0.14247
 C1176 C 0.39196 0.58042 0.11500
 C1177 C 0.36396 0.59564 0.10739
 C1178 C 0.35043 0.61778 0.12636
 C1179 C 0.40645 0.55944 0.09262
 C1180 C 0.43382 0.54187 0.09645
 H1181 H 0.35639 0.64653 0.19736
 H1182 H 0.40341 0.61465 0.18255
 H1183 H 0.42757 0.57638 0.14915
 H1184 H 0.35261 0.59064 0.08644
 H1185 H 0.32860 0.62858 0.11981
 H1186 H 0.39564 0.55932 0.07090
 H1187 H 0.32700 0.67677 0.14130
 H1188 H 0.44445 0.53924 0.11802
 C1189 C 1.17120 0.82923 0.68475
 C1190 C 1.17199 0.82965 0.65379
 C1191 C 1.14955 0.84792 0.63590
 C1192 C 1.14322 0.83775 0.60699
 C1193 C 1.12232 0.85436 0.58925
 C1194 C 1.10740 0.88162 0.59996
 C1195 C 1.11391 0.89210 0.62888
 C1196 C 1.13486 0.87540 0.64669
 C1197 C 1.08698 0.89914 0.57946
 C1198 C 1.06706 0.92398 0.58734
 H1199 H 1.18820 0.81441 0.64201
 H1200 H 1.15441 0.81680 0.59812
 H1201 H 1.11796 0.84596 0.56694
 H1202 H 1.10364 0.91350 0.63763
 H1203 H 1.14004 0.88460 0.66851
 H1204 H 1.08800 0.89201 0.55638
 H1205 H 1.15365 0.84307 0.69626
 H1206 H 1.06355 0.93064 0.61025
 C1207 C 0.67455 0.32924 0.17603
 C1208 C 0.67921 0.33158 0.14563
 C1209 C 0.65945 0.35217 0.12717
 C1210 C 0.65482 0.34431 0.09737
 C1211 C 0.63526 0.36267 0.07972
 C1212 C 0.62002 0.38924 0.09156
 C1213 C 0.62545 0.39780 0.12115
 C1214 C 0.64512 0.37950 0.13877
 C1215 C 0.59972 0.40784 0.07192
 C1216 C 0.57654 0.42890 0.08148
 H1217 H 0.69662 0.31682 0.13493
 H1218 H 0.66592 0.32362 0.08787
 H1219 H 0.63175 0.35589 0.05679
 H1220 H 0.61509 0.41881 0.13065
 H1221 H 0.64936 0.38715 0.16130
 H1222 H 0.60244 0.40350 0.04837
 H1223 H 0.65581 0.34235 0.18652
 H1224 H 0.57183 0.43256 0.10480
 C1225 C 0.82058 0.82128 0.32971
 C1226 C 0.84386 0.84248 0.32115
 C1227 C 0.86449 0.85805 0.34281
 C1228 C 0.87731 0.88769 0.33610
 C1229 C 0.89605 0.90341 0.35675
 C1230 C 0.90255 0.88937 0.38429
 C1231 C 0.89044 0.85933 0.39052
 C1232 C 0.87177 0.84370 0.36997
 C1233 C 0.92032 0.90552 0.40780
 C1234 C 0.93912 0.93207 0.40356
 H1235 H 0.84630 0.84880 0.29798
 H1236 H 0.87216 0.89903 0.31517
 H1237 H 0.90455 0.92674 0.35130
 H1238 H 0.89532 0.84793 0.41150
 H1239 H 0.86329 0.82034 0.37541
 H1240 H 0.91868 0.89550 0.42985
 H1241 H 0.81631 0.81666 0.35297
 H1242 H 0.94315 0.94162 0.38167
 C1243 C 0.32901 0.33167 -0.18384
 C1244 C 0.33541 0.32613 -0.15416
 C1245 C 0.35969 0.34443 -0.13860
 C1246 C 0.37755 0.32964 -0.11673
 C1247 C 0.40147 0.34610 -0.10250
 C1248 C 0.40776 0.37775 -0.10967
 C1249 C 0.38955 0.39276 -0.13133
 C1250 C 0.36569 0.37624 -0.14563
 C1251 C 0.43124 0.39478 -0.09189
 C1252 C 0.44129 0.42578 -0.09684
 H1253 H 0.32490 0.30599 -0.14315
 H1254 H 0.37324 0.30520 -0.11090
 H1255 H 0.41487 0.33414 -0.08553
 H1256 H 0.39297 0.41736 -0.13680
 H1257 H 0.35159 0.38863 -0.16176
 H1258 H 0.43937 0.38287 -0.07209
 H1259 H 0.34195 0.34973 -0.19563
 H1260 H 0.43700 0.43777 -0.11757
 C1261 C 1.18774 0.32420 -0.16281
 C1262 C 1.15615 0.33246 -0.16374
 C1263 C 1.14043 0.34946 -0.13912
 C1264 C 1.15688 0.37084 -0.12110
 C1265 C 1.14129 0.38816 -0.09926
 C1266 C 1.10904 0.38437 -0.09466
 C1267 C 1.09257 0.36258 -0.11225
 C1268 C 1.10815 0.34548 -0.13447
 C1269 C 1.09314 0.40618 -0.07389
 C1270 C 1.06410 0.40084 -0.06043
 H1271 H 1.14219 0.32508 -0.18255
 H1272 H 1.18156 0.37517 -0.12456
 H1273 H 1.15440 0.40518 -0.08631
 H1274 H 1.06755 0.35970 -0.10976
 H1275 H 1.09492 0.32936 -0.14827
 H1276 H 1.10501 0.42828 -0.06927
 H1277 H 1.20094 0.32817 -0.14269
 H1278 H 1.05299 0.37790 -0.06160
 C1279 C 0.68010 0.81670 0.33935
 C1280 C 0.64917 0.82697 0.33756
 C1281 C 0.63383 0.84405 0.36234
 C1282 C 0.60141 0.84121 0.36684
 C1283 C 0.58645 0.85841 0.38940
 C1284 C 0.60370 0.87917 0.40741
 C1285 C 0.63606 0.88186 0.40290
 C1286 C 0.65102 0.86441 0.38077
 C1287 C 0.58859 0.90125 0.42842
 C1288 C 0.55973 0.89646 0.44236
 H1289 H 0.63556 0.82138 0.31800
 H1290 H 0.58765 0.82590 0.35271
 H1291 H 0.56133 0.85644 0.39184
 H1292 H 0.64975 0.89811 0.41616
 H1293 H 0.67586 0.86785 0.37743
 H1294 H 0.60095 0.92313 0.43285
 H1295 H 0.69248 0.81893 0.36017
 H1296 H 0.54820 0.87371 0.44145
 C1297 C 0.80634 0.67581 -0.15365
 C1298 C 0.83817 0.66846 -0.15524
 C1299 C 0.85505 0.65116 -0.13164
 C1300 C 0.83974 0.62934 -0.11320
 C1301 C 0.85668 0.61154 -0.09271
 C1302 C 0.88916 0.61534 -0.08993
 C1303 C 0.90445 0.63764 -0.10790
 C1304 C 0.88753 0.65519 -0.12872
 C1305 C 0.90646 0.59327 -0.07056
 C1306 C 0.93627 0.59874 -0.05889
 H1307 H 0.85161 0.67683 -0.17406
 H1308 H 0.81490 0.62499 -0.11532
 H1309 H 0.84443 0.59418 -0.07941
 H1310 H 0.92956 0.64062 -0.10685
 H1311 H 0.89991 0.67165 -0.14288
 H1312 H 0.89505 0.57104 -0.06549
 H1313 H 0.79328 0.67079 -0.13361
 H1314 H 0.94709 0.62178 -0.06061
 C1315 C 0.31439 1.18322 0.34690
 C1316 C 0.34474 1.17161 0.34366
 C1317 C 0.36012 1.15235 0.36676
 C1318 C 0.39276 1.15351 0.36982
 C1319 C 0.40794 1.13430 0.39053
 C1320 C 0.39069 1.11312 0.40813
 C1321 C 0.35808 1.11191 0.40495
 C1322 C 0.34288 1.13149 0.38468
 C1323 C 0.40607 1.08999 0.42780
 C1324 C 0.43494 1.09502 0.44145
 H1325 H 0.35804 1.17766 0.32399
 H1326 H 0.40655 1.16913 0.35600
 H1327 H 0.43320 1.13518 0.39188
 H1328 H 0.34435 1.09543 0.41794
 H1329 H 0.31777 1.12940 0.38232
 H1330 H 0.39392 1.06792 0.43180
 H1331 H 0.30225 1.18027 0.36782
 H1332 H 0.44603 1.11798 0.44042
 C1333 C 1.19411 0.68289 0.15234
 C1334 C 1.16333 0.67233 0.15505
 C1335 C 1.14728 0.65444 0.13138
 C1336 C 1.11461 0.65630 0.12894
 C1337 C 1.09865 0.63787 0.10810
 C1338 C 1.11514 0.61679 0.08972
 C1339 C 1.14780 0.61507 0.09208
 C1340 C 1.16379 0.63387 0.11253
 C1341 C 1.09888 0.59395 0.07037
 C1342 C 1.06943 0.59909 0.05800
 H1343 H 1.15022 0.67805 0.17495
 H1344 H 1.10139 0.67173 0.14348
 H1345 H 1.07338 0.63913 0.10735
 H1346 H 1.16094 0.59864 0.07847
 H1347 H 1.18889 0.63126 0.11437
 H1348 H 1.11061 0.57173 0.06596
 H1349 H 1.20626 0.68051 0.13137
 H1350 H 1.05865 0.62219 0.05917
 C1351 C 0.69186 1.18226 0.65290
 C1352 C 0.66069 1.17270 0.65487
 C1353 C 0.64515 1.15416 0.63128
 C1354 C 0.61269 1.15682 0.62739
 C1355 C 0.59718 1.13812 0.60643
 C1356 C 0.61390 1.11599 0.58937
 C1357 C 0.64634 1.11344 0.59322
 C1358 C 0.66189 1.13245 0.61379
 C1359 C 0.59797 1.09290 0.56996
 C1360 C 0.56895 1.09794 0.55663
 H1361 H 0.64690 1.17991 0.67391
 H1362 H 0.59926 1.17315 0.64086
 H1363 H 0.57202 1.14006 0.60457
 H1364 H 0.65963 1.09619 0.58067
 H1365 H 0.68679 1.12918 0.61676
 H1366 H 0.60954 1.07041 0.56649
 H1367 H 0.70480 1.17828 0.63257
 H1368 H 0.55833 1.12114 0.55696
 C1369 C 0.81538 0.32425 0.16563
 C1370 C 0.84654 0.33376 0.16802
 C1371 C 0.86244 0.35193 0.14424
 C1372 C 0.89469 0.34810 0.13933
 C1373 C 0.91022 0.36597 0.11763
 C1374 C 0.89377 0.38848 0.10091
 C1375 C 0.86159 0.39230 0.10593
 C1376 C 0.84602 0.37411 0.12716
 C1377 C 0.90965 0.41062 0.08041
 C1378 C 0.93756 0.40439 0.06521
 H1379 H 0.86002 0.32647 0.18713
 H1380 H 0.90790 0.33136 0.15242
 H1381 H 0.93519 0.36301 0.11479
 H1382 H 0.84849 0.40983 0.09366
 H1383 H 0.82133 0.37826 0.13086
 H1384 H 0.89842 0.43326 0.07696
 H1385 H 0.80306 0.32823 0.14502
 H1386 H 0.94776 0.38100 0.06558
 C1387 C 0.31265 0.82603 0.67026
 C1388 C 0.34210 0.83977 0.67461
 C1389 C 0.35873 0.85640 0.65036
 C1390 C 0.39142 0.85411 0.64788
 C1391 C 0.40750 0.87038 0.62546
 C1392 C 0.39113 0.88981 0.60560
 C1393 C 0.35850 0.89216 0.60823
 C1394 C 0.34241 0.87544 0.63016
 C1395 C 0.40736 0.91063 0.58421
 C1396 C 0.43620 0.90406 0.57083
 H1397 H 0.35429 0.83633 0.69540
 H1398 H 0.40450 0.83977 0.66336
 H1399 H 0.43275 0.86874 0.62444
 H1400 H 0.34543 0.90740 0.59349
 H1401 H 0.31730 0.87825 0.63190
 H1402 H 0.39573 0.93257 0.57862
 H1403 H 0.30277 0.82679 0.64814
 H1404 H 0.44685 0.88101 0.57309
 C1405 C 0.32679 1.19703 -0.16643
 C1406 C 0.33473 1.16502 -0.16664
 C1407 C 0.35171 1.14966 -0.14187
 C1408 C 0.34719 1.11731 -0.13632
 C1409 C 0.36387 1.10199 -0.11379
 C1410 C 0.38580 1.11873 -0.09670
 C1411 C 0.39021 1.15106 -0.10225
 C1412 C 0.37329 1.16642 -0.12443
 C1413 C 0.40700 1.10289 -0.07545
 C1414 C 0.40113 1.07397 -0.06144
 H1415 H 0.32639 1.15029 -0.18463
 H1416 H 0.33089 1.10381 -0.14962
 H1417 H 0.36046 1.07690 -0.11063
 H1418 H 0.40734 1.16438 -0.08973
 H1419 H 0.37799 1.19114 -0.12852
 H1420 H 0.42912 1.11452 -0.07113
 H1421 H 0.33165 1.21114 -0.14694
 H1422 H 0.37822 1.06316 -0.06259
 C1423 C 0.82054 0.69139 0.33574
 C1424 C 0.83104 0.66026 0.33399
 C1425 C 0.84871 0.64523 0.35838
 C1426 C 0.86935 0.66281 0.37613
 C1427 C 0.88697 0.64798 0.39808
 C1428 C 0.88410 0.61541 0.40309
 C1429 C 0.86314 0.59781 0.38566
 C1430 C 0.84582 0.61261 0.36330
 C1431 C 0.90585 0.60030 0.42416
 C1432 C 0.90053 0.57148 0.43839
 H1433 H 0.82447 0.64596 0.31505
 H1434 H 0.87273 0.68783 0.37243
 H1435 H 0.90336 0.66193 0.41088
 H1436 H 0.86102 0.57252 0.38844
 H1437 H 0.83026 0.59855 0.34971
 H1438 H 0.92774 0.61246 0.42829
 H1439 H 0.82366 0.70453 0.35614
 H1440 H 0.87778 0.56029 0.43751
 C1441 C 0.67697 1.19542 0.16060
 C1442 C 0.66699 1.16400 0.16162
 C1443 C 0.64956 1.14861 0.13713
 C1444 C 0.65197 1.11578 0.13307
 C1445 C 0.63432 1.10036 0.11122
 C1446 C 0.61347 1.11752 0.09340
 C1447 C 0.61121 1.15034 0.09740
 C1448 C 0.62920 1.16579 0.11884
 C1449 C 0.59130 1.10181 0.07294
 C1450 C 0.59622 1.07245 0.05937
 H1451 H 0.67349 1.14968 0.18051
 H1452 H 0.66728 1.10197 0.14708
 H1453 H 0.63606 1.07495 0.10922
 H1454 H 0.59496 1.16402 0.08425
 H1455 H 0.62617 1.19097 0.12181
 H1456 H 0.56957 1.11409 0.06850
 H1457 H 0.67392 1.20894 0.14046
 H1458 H 0.61883 1.06105 0.06056
 C1459 C 1.17557 0.69963 0.65870
 C1460 C 1.16684 0.66783 0.65877
 C1461 C 1.14946 0.65254 0.63432
 C1462 C 1.15251 0.61982 0.63000
 C1463 C 1.13472 0.60420 0.60850
 C1464 C 1.11313 0.62104 0.59122
 C1465 C 1.11030 0.65379 0.59536
 C1466 C 1.12842 0.66947 0.61653
 C1467 C 1.09085 0.60490 0.57126
 C1468 C 1.09604 0.57543 0.55812
 H1469 H 1.17434 0.65305 0.67702
 H1470 H 1.16838 0.60624 0.64365
 H1471 H 1.13691 0.57884 0.60640
 H1472 H 1.09348 0.66719 0.58260
 H1473 H 1.12494 0.69456 0.61974
 H1474 H 1.06882 0.61674 0.56711
 H1475 H 1.17157 0.71399 0.63924
 H1476 H 1.11890 0.56451 0.55893
 C1477 C 0.66777 0.80532 -0.15511
 C1478 C 0.66099 0.83757 -0.15660
 C1479 C 0.64441 0.85520 -0.13298
 C1480 C 0.64905 0.88795 -0.13053
 C1481 C 0.63223 0.90576 -0.10976
 C1482 C 0.61009 0.89109 -0.09130
 C1483 C 0.60571 0.85829 -0.09353
 C1484 C 0.62279 0.84045 -0.11402
 C1485 C 0.58874 0.90938 -0.07200
 C1486 C 0.59461 0.93982 -0.06124
 H1487 H 0.66981 0.85098 -0.17529
 H1488 H 0.66542 0.89988 -0.14508
 H1489 H 0.63564 0.93107 -0.10912
 H1490 H 0.58845 0.84652 -0.07982
 H1491 H 0.61808 0.81541 -0.11573
 H1492 H 0.56667 0.89829 -0.06631
 H1493 H 0.66247 0.79209 -0.13522
 H1494 H 0.61755 0.95041 -0.06336
 C1495 C 1.17440 0.31099 0.34686
 C1496 C 1.16505 0.34242 0.34426
 C1497 C 1.14785 0.35945 0.36779
 C1498 C 1.15077 0.39241 0.36984
 C1499 C 1.13332 0.40945 0.39068
 C1500 C 1.11225 0.39374 0.40952
 C1501 C 1.10952 0.36077 0.40760
 C1502 C 1.12728 0.34371 0.38708
 C1503 C 1.09037 0.41107 0.42894
 C1504 C 1.09564 0.44141 0.44007
 H1505 H 1.17210 0.35565 0.32481
 H1506 H 1.16629 0.40504 0.35499
 H1507 H 1.13537 0.43492 0.39109
 H1508 H 1.09307 0.34824 0.42161
 H1509 H 1.12391 0.31843 0.38560
 H1510 H 1.06857 0.39936 0.43447
 H1511 H 1.17091 0.29845 0.36750
 H1512 H 1.11838 0.45246 0.43809
 C1513 C 0.33351 0.81029 0.15943
 C1514 C 0.34110 0.84228 0.16157
 C1515 C 0.35681 0.85966 0.13725
 C1516 C 0.35165 0.89225 0.13398
 C1517 C 0.36711 0.90937 0.11176
 C1518 C 0.38839 0.89415 0.09271
 C1519 C 0.39340 0.86159 0.09596
 C1520 C 0.37774 0.84447 0.11787
 C1521 C 0.40851 0.91167 0.07170
 C1522 C 0.40222 0.94166 0.06019
 H1523 H 0.33329 0.85549 0.18082
 H1524 H 0.33581 0.90451 0.14882
 H1525 H 0.36331 0.93458 0.11034
 H1526 H 0.41008 0.84942 0.08188
 H1527 H 0.38293 0.81959 0.12019
 H1528 H 0.43034 0.90040 0.06548
 H1529 H 0.33767 0.79779 0.13884
 H1530 H 0.37944 0.95244 0.06289
 C1531 C 0.83391 0.30715 0.65656
 C1532 C 0.84153 0.33915 0.65824
 C1533 C 0.85715 0.35646 0.63391
 C1534 C 0.85224 0.38911 0.63115
 C1535 C 0.86783 0.40646 0.60924
 C1536 C 0.88896 0.39139 0.58996
 C1537 C 0.89365 0.35871 0.59261
 C1538 C 0.87782 0.34134 0.61424
 C1539 C 0.90923 0.40929 0.56943
 C1540 C 0.90285 0.43958 0.55875
 H1541 H 0.83365 0.35264 0.67730
 H1542 H 0.83658 0.40130 0.64622
 H1543 H 0.86429 0.43173 0.60832
 H1544 H 0.91021 0.34668 0.57830
 H1545 H 0.88271 0.31636 0.61617
 H1546 H 0.93117 0.39828 0.56315
 H1547 H 0.83819 0.29409 0.63630
 H1548 H 0.87994 0.45005 0.56146
 C1549 C 1.17035 1.17459 0.66795
 C1550 C 1.14821 1.15278 0.67779
 C1551 C 1.12750 1.13611 0.65676
 C1552 C 1.11719 1.10541 0.66313
 C1553 C 1.09914 1.08866 0.64255
 C1554 C 1.09078 1.10270 0.61544
 C1555 C 1.10010 1.13385 0.60973
 C1556 C 1.11806 1.15047 0.63019
 C1557 C 1.07418 1.08551 0.59170
 C1558 C 1.05793 1.05721 0.59549
 H1559 H 1.14684 1.14692 0.70113
 H1560 H 1.12397 1.09401 0.68362
 H1561 H 1.09274 1.06457 0.64762
 H1562 H 1.09374 1.14530 0.58915
 H1563 H 1.12453 1.17457 0.62508
 H1564 H 1.07475 1.09599 0.56979
 H1565 H 1.17342 1.17848 0.64440
 H1566 H 1.05482 1.04707 0.61728
 C1567 C 0.67419 0.67537 0.16192
 C1568 C 0.65350 0.65170 0.17086
 C1569 C 0.63375 0.63413 0.14978
 C1570 C 0.62307 0.60385 0.15734
 C1571 C 0.60475 0.58647 0.13752
 C1572 C 0.59656 0.59944 0.10994
 C1573 C 0.60663 0.63003 0.10281
 C1574 C 0.62485 0.64730 0.12254
 C1575 C 0.57901 0.58179 0.08726
 C1576 C 0.56206 0.55409 0.09222
 H1577 H 0.65226 0.64520 0.19406
 H1578 H 0.62945 0.59338 0.17837
 H1579 H 0.59780 0.56281 0.14363
 H1580 H 0.60043 0.64062 0.08178
 H1581 H 0.63159 0.67104 0.11642
 H1582 H 0.57919 0.59170 0.06512
 H1583 H 0.67751 0.68050 0.13863
 H1584 H 0.55946 0.54438 0.11424
 C1585 C 1.18530 0.82389 0.33075
 C1586 C 1.16487 0.84786 0.32204
 C1587 C 1.14810 0.86808 0.34355
 C1588 C 1.11957 0.88191 0.33542
 C1589 C 1.10270 0.90030 0.35570
 C1590 C 1.11443 0.90548 0.38442
 C1591 C 1.14345 0.89244 0.39211
 C1592 C 1.16020 0.87408 0.37193
 C1593 C 1.09680 0.92257 0.40766
 C1594 C 1.06959 0.94019 0.40313
 H1595 H 1.15994 0.85107 0.29869
 H1596 H 1.10994 0.87783 0.31355
 H1597 H 1.08030 0.90960 0.34895
 H1598 H 1.15314 0.89624 0.41401
 H1599 H 1.18266 0.86482 0.37863
 H1600 H 1.10574 0.92068 0.43006
 H1601 H 1.18863 0.81881 0.35403
 H1602 H 1.06080 0.94454 0.38107
 C1603 C 0.67835 0.33898 -0.18332
 C1604 C 0.66754 0.33216 -0.15498
 C1605 C 0.64264 0.35113 -0.14075
 C1606 C 0.62250 0.33634 -0.12059
 C1607 C 0.59826 0.35323 -0.10726
 C1608 C 0.59373 0.38536 -0.11364
 C1609 C 0.61394 0.40035 -0.13377
 C1610 C 0.63825 0.38339 -0.14715
 C1611 C 0.57021 0.40278 -0.09610
 C1612 C 0.56102 0.43412 -0.10054
 H1613 H 0.67466 0.31027 -0.14456
 H1614 H 0.62542 0.31158 -0.11525
 H1615 H 0.58327 0.34124 -0.09147
 H1616 H 0.61176 0.42527 -0.13851
 H1617 H 0.65395 0.39584 -0.16190
 H1618 H 0.56138 0.39083 -0.07652
 H1619 H 0.66908 0.35919 -0.19502
 H1620 H 0.56552 0.44641 -0.12112
 C1621 C 0.81865 1.17295 0.33693
 C1622 C 0.84165 1.15122 0.32881
 C1623 C 0.85956 1.13300 0.35097
 C1624 C 0.87317 1.10414 0.34272
 C1625 C 0.88979 1.08621 0.36341
 C1626 C 0.89330 1.09713 0.39269
 C1627 C 0.88006 1.12617 0.40076
 C1628 C 0.86364 1.14409 0.38012
 C1629 C 0.90983 1.07891 0.41571
 C1630 C 0.93226 1.05584 0.40971
 H1631 H 0.84604 1.14673 0.30551
 H1632 H 0.87049 1.09520 0.32035
 H1633 H 0.89918 1.06365 0.35651
 H1634 H 0.88265 1.13519 0.42311
 H1635 H 0.85462 1.16676 0.38712
 H1636 H 0.90528 1.08529 0.43860
 H1637 H 0.81252 1.17604 0.36004
 H1638 H 0.93876 1.05026 0.38712
 C1639 C 0.32487 0.66368 -0.17588
 C1640 C 0.32380 0.66149 -0.14515
 C1641 C 0.34380 0.63915 -0.12872
 C1642 C 0.33370 0.62817 -0.10106
 C1643 C 0.35201 0.60703 -0.08501
 C1644 C 0.38091 0.59655 -0.09619
 C1645 C 0.39132 0.60786 -0.12374
 C1646 C 0.37297 0.62904 -0.13982
 C1647 C 0.40003 0.57562 -0.07741
 C1648 C 0.42686 0.55927 -0.08655
 H1649 H 0.30687 0.67544 -0.13291
 H1650 H 0.31150 0.63584 -0.09193
 H1651 H 0.34363 0.59895 -0.06364
 H1652 H 0.41386 0.60119 -0.13266
 H1653 H 0.38212 0.63799 -0.16054
 H1654 H 0.39239 0.57316 -0.05460
 H1655 H 0.34007 0.64813 -0.18839
 H1656 H 0.43419 0.55901 -0.10950
 C1657 C 0.82967 0.83351 0.68750
 C1658 C 0.83423 0.82862 0.65723
 C1659 C 0.85722 0.84598 0.63893
 C1660 C 0.85547 0.84266 0.60808
 C1661 C 0.87680 0.85801 0.58971
 C1662 C 0.90042 0.87711 0.60172
 C1663 C 0.90263 0.88015 0.63268
 C1664 C 0.88125 0.86467 0.65114
 C1665 C 0.92173 0.89332 0.58090
 C1666 C 0.94167 0.91830 0.58822
 H1667 H 0.82016 0.81087 0.64616
 H1668 H 0.83743 0.82819 0.59808
 H1669 H 0.87464 0.85514 0.56593
 H1670 H 0.92091 0.89404 0.64284
 H1671 H 0.88411 0.86712 0.67481
 H1672 H 0.91986 0.88650 0.55780
 H1673 H 0.84261 0.85149 0.69928
 H1674 H 0.94447 0.92604 0.61090
 C1675 C 0.32462 0.33494 0.17910
 C1676 C 0.33149 0.32684 0.14994
 C1677 C 0.35510 0.34389 0.13226
 C1678 C 0.35359 0.34203 0.10134
 C1679 C 0.37569 0.35757 0.08391
 C1680 C 0.39978 0.37522 0.09708
 C1681 C 0.40182 0.37651 0.12809
 C1682 C 0.37974 0.36086 0.14554
 C1683 C 0.42199 0.39163 0.07743
 C1684 C 0.44140 0.41675 0.08578
 H1685 H 0.31932 0.30718 0.13973
 H1686 H 0.33511 0.32876 0.09063
 H1687 H 0.37374 0.35605 0.06001
 H1688 H 0.42060 0.38905 0.13899
 H1689 H 0.38254 0.36162 0.16935
 H1690 H 0.42109 0.38496 0.05424
 H1691 H 0.33544 0.35540 0.18918
 H1692 H 0.44336 0.42421 0.10863
   
