data_POSCAR
  _audit_creation_date              2014-09-24
  _audit_creation_method            'ToBaCCo'
  _symmetry_space_group_name_H-M    'P1'
  _symmetry_Int_Tables_number       1
  _symmetry_cell_setting            triclinic
  loop_
  _symmetry_equiv_pos_as_xyz
 x,y,z
_cell_length_a 67.6723
_cell_length_b 67.7712
_cell_length_c 67.6319
_cell_angle_alpha 89.985800
_cell_angle_beta 89.980700
_cell_angle_gamma 89.990800
loop_
  _atom_site_label
  _atom_site_type_symbol
  _atom_site_fract_x
  _atom_site_fract_y
  _atom_site_fract_z
C1 C 0.35909 1.35940 0.33417
 N2 N 0.34260 1.36726 0.34256
 C3 C 0.33426 1.35898 0.35887
 N4 N 0.34268 1.34256 0.36680
 C5 C 0.35917 1.33450 0.35867
 N6 N 0.36726 1.34300 0.34238
 C7 C 0.35789 0.85833 0.83398
 N8 N 0.36536 0.84135 0.84160
 C9 C 0.35737 0.83308 0.85805
 N10 N 0.34159 0.84187 0.86678
 C11 C 0.33381 0.85884 0.85934
 N12 N 0.34216 0.86700 0.84296
 C13 C 0.85705 1.35782 0.83250
 N14 N 0.84137 1.36652 0.84159
 C15 C 0.83301 1.35835 0.85796
 N16 N 0.84074 1.34134 0.86535
 C17 C 0.85647 1.33251 0.85657
 N18 N 0.86444 1.34078 0.84011
 C19 C 0.85804 0.85769 0.33275
 N20 N 0.86579 0.84104 0.34085
 C21 C 0.85813 0.83319 0.35768
 N22 N 0.84237 0.84209 0.36640
 C23 C 0.83431 0.85865 0.35843
 N24 N 0.84226 0.86634 0.34167
 C25 C 0.64069 0.64172 0.33487
 N26 N 0.65757 0.63414 0.34263
 C27 C 0.66580 0.64207 0.35911
 N28 N 0.65706 0.65790 0.36776
 C29 C 0.64020 0.66575 0.36017
 N30 N 0.63207 0.65754 0.34373
 C31 C 0.64333 0.14306 0.83248
 N32 N 0.65905 0.13437 0.84149
 C33 C 0.66685 0.14194 0.85841
 N34 N 0.65858 0.15841 0.86639
 C35 C 0.64292 0.16736 0.85757
 N36 N 0.63547 0.15963 0.84062
 C37 C 1.14002 0.64108 0.83512
 N38 N 1.13211 0.65755 0.84342
 C39 C 1.14038 0.66579 0.85975
 N40 N 1.15679 0.65742 0.86775
 C41 C 1.16489 0.64096 0.85962
 N42 N 1.15642 0.63291 0.84330
 C43 C 1.14326 0.14256 0.33268
 N44 N 1.15897 0.13387 0.34168
 C45 C 1.16678 0.14143 0.35860
 N46 N 1.15853 0.15792 0.36658
 C47 C 1.14287 0.16687 0.35776
 N48 N 1.13541 0.15914 0.34081
 C49 C 0.64118 1.35915 0.66488
 N50 N 0.65759 1.36728 0.65662
 C51 C 0.66660 1.35861 0.64086
 N52 N 0.65888 1.34165 0.63340
 C53 C 0.64238 1.33345 0.64135
 N54 N 0.63367 1.34226 0.65712
 C55 C 0.64170 0.85750 1.16672
 N56 N 0.65865 0.86498 1.15895
 C57 C 0.66689 0.85704 1.14247
 N58 N 0.65812 0.84125 1.13380
 C59 C 0.64123 0.83346 1.14136
 N60 N 0.63306 0.84172 1.15777
 C61 C 1.14160 1.35853 1.16571
 N62 N 1.15794 1.36670 1.15731
 C63 C 1.16703 1.35798 1.14164
 N64 N 1.15946 1.34090 1.13431
 C65 C 1.14303 1.33263 1.14232
 N66 N 1.13425 1.34149 1.15804
 C67 C 1.14136 0.85837 0.66504
 N68 N 1.13396 0.84140 0.65734
 C69 C 1.14277 0.83256 0.64163
 N70 N 1.15926 0.84081 0.63370
 C71 C 1.16686 0.85785 0.64111
 N72 N 1.15776 0.86654 0.65680
 C73 C 0.35739 0.64258 0.66623
 N74 N 0.36475 0.65960 0.65861
 C75 C 0.35670 0.66784 0.64218
 N76 N 0.34096 0.65896 0.63347
 C77 C 0.33329 0.64194 0.64091
 N78 N 0.34171 0.63382 0.65727
 C79 C 0.35900 0.14092 1.16603
 N80 N 0.34268 0.13269 1.15765
 C81 C 0.33363 0.14134 1.14191
 N82 N 0.34123 0.15838 1.13450
 C83 C 0.35763 0.16669 1.14250
 N84 N 0.36637 0.15791 1.15828
 C85 C 0.85976 0.64093 1.16488
 N86 N 0.86733 0.65773 1.15695
 C87 C 0.85858 0.66649 1.14115
 N88 N 0.84200 0.65832 1.13335
 C89 C 0.83428 0.64147 1.14103
 N90 N 0.84325 0.63285 1.15679
 C91 C 0.85810 0.14200 0.66709
 N92 N 0.84178 0.13380 0.65867
 C93 C 0.83274 0.14249 0.64295
 N94 N 0.84035 0.15954 0.63558
 C95 C 0.85675 0.16783 0.64361
 N96 N 0.86548 0.15901 0.65937
 C97 C 1.35912 0.35790 0.66658
 N98 N 1.36665 0.34094 0.65887
 C99 C 1.35796 0.33192 0.64316
 N100 N 1.34142 0.34009 0.63521
 C101 C 1.33373 0.35708 0.64257
 N102 N 1.34268 0.36590 0.65822
 C103 C 1.36005 0.85870 1.16499
 N104 N 1.36765 0.84186 1.15718
 C105 C 1.35889 0.83288 1.14149
 N106 N 1.34224 0.84099 1.13371
 C107 C 1.33450 0.85789 1.14124
 N108 N 1.34350 0.86667 1.15689
 C109 C 0.85965 0.35931 1.16557
 N110 N 0.84323 0.36737 1.15720
 C111 C 0.83431 0.35862 1.14148
 N112 N 0.84201 0.34166 1.13406
 C113 C 0.85849 0.33350 1.14206
 N114 N 0.86717 0.34237 1.15783
 C115 C 0.85983 0.85904 0.66499
 N116 N 0.86744 0.84218 0.65720
 C117 C 0.85881 0.83339 0.64136
 N118 N 0.84232 0.84157 0.63338
 C119 C 0.83456 0.85846 0.64091
 N120 N 0.84341 0.86712 0.65672
 C121 C 0.64084 0.64157 0.66488
 N122 N 0.63292 0.65801 0.65654
 C123 C 0.64121 0.66623 0.64019
 N124 N 0.65762 0.65784 0.63221
 C125 C 0.66572 0.64140 0.64038
 N126 N 0.65725 0.63338 0.65672
 C127 C 0.64077 1.14235 1.16582
 N128 N 0.65723 1.13427 1.15760
 C129 C 0.66576 1.14243 1.14136
 N130 N 0.65767 1.15892 1.13329
 C131 C 0.64118 1.16725 1.14122
 N132 N 0.63288 1.15884 1.15749
 C133 C 0.14195 0.64370 1.16682
 N134 N 0.13324 0.65944 1.15785
 C135 C 0.14144 0.66791 1.14154
 N136 N 0.15848 0.66025 1.13411
 C137 C 0.16731 0.64448 1.14277
 N138 N 0.15902 0.63640 1.15915
 C139 C 0.14012 1.14186 0.66463
 N140 N 0.13211 1.15821 0.65621
 C141 C 0.14043 1.16657 0.63993
 N142 N 0.15701 1.15830 0.63212
 C143 C 0.16519 1.14193 0.64034
 N144 N 0.15667 1.13382 0.65661
 C145 C 1.35954 0.64165 0.33375
 N146 N 1.36694 0.65867 0.34144
 C147 C 1.35824 0.66750 0.35722
 N148 N 1.34185 0.65922 0.36530
 C149 C 1.33427 0.64219 0.35793
 N150 N 1.34322 0.63349 0.34220
 C151 C 1.35988 1.14180 0.83384
 N152 N 1.34349 1.13371 0.84220
 C153 C 1.33447 1.14250 0.85784
 N154 N 1.34206 1.15953 0.86520
 C155 C 1.35856 1.16777 0.85725
 N156 N 1.36731 1.15880 0.84154
 C157 C 0.85955 0.64127 0.83434
 N158 N 0.86713 0.65813 0.84214
 C159 C 0.85849 0.66690 0.85799
 N160 N 0.84201 0.65869 0.86598
 C161 C 0.83428 0.64180 0.85844
 N162 N 0.84314 0.63316 0.84262
 C163 C 0.85947 1.14189 0.33335
 N164 N 0.84302 1.13387 0.34166
 C165 C 0.83402 1.14267 0.35731
 N166 N 0.84169 1.15965 0.36471
 C167 C 0.85824 1.16783 0.35680
 N168 N 0.86697 1.15884 0.34109
 C169 C 0.64095 0.35777 0.33370
 N170 N 0.65740 0.36591 0.34186
 C171 C 0.66600 0.35778 0.35807
 N172 N 0.65800 0.34127 0.36617
 C173 C 0.64152 0.33288 0.35830
 N174 N 0.63314 0.34126 0.34206
 C175 C 0.64049 0.85869 0.83499
 N176 N 0.65689 0.86691 0.84312
 C177 C 0.66539 0.85891 0.85946
 N178 N 0.65734 0.84246 0.86764
 C179 C 0.64094 0.83404 0.85970
 N180 N 0.63262 0.84223 0.84336
 C181 C 0.14153 0.35729 0.83415
 N182 N 0.13374 0.34073 0.84234
 C183 C 0.14136 0.33298 0.85926
 N184 N 0.15711 0.34202 0.86789
 C185 C 0.16520 0.35850 0.85977
 N186 N 0.15729 0.36604 0.84292
 C187 C 0.14074 0.85889 0.33395
 N188 N 0.13334 0.84188 0.34168
 C189 C 0.14211 0.83304 0.35742
 N190 N 0.15856 0.84129 0.36540
 C191 C 0.16613 0.85831 0.35798
 N192 N 0.15712 0.86703 0.34229
 O193 O 0.98087 0.92980 0.90111
 O194 O 0.98080 0.90686 0.87798
 C195 C 0.97409 0.92291 0.88502
 C196 C 0.95789 0.93342 0.87471
 C197 C 0.95129 0.92702 0.85612
 H198 H 0.95884 0.91495 0.84883
 O199 O 1.01958 1.07112 0.90142
 O200 O 1.01964 1.09415 0.87837
 C201 C 1.02634 1.07806 0.88532
 C202 C 1.04249 1.06760 0.87488
 C203 C 1.04904 1.07415 0.85631
 H204 H 1.04149 1.08629 0.84914
 O205 O 0.90148 0.98125 0.92874
 O206 O 0.87832 0.98125 0.90580
 C207 C 0.88538 0.97451 0.92186
 C208 C 0.87510 0.95832 0.93238
 C209 C 0.85657 0.95163 0.92591
 H210 H 0.84930 0.95908 0.91376
 O211 O 1.09912 1.01928 0.92806
 O212 O 1.12225 1.01931 0.90508
 C213 C 1.11524 1.02600 0.92117
 C214 C 1.12560 1.04207 0.93179
 C215 C 1.14400 1.04903 0.92515
 H216 H 1.15079 1.04239 0.91227
 O217 O 0.92909 0.90226 0.98053
 O218 O 0.90620 0.87910 0.98050
 C219 C 0.92223 0.88618 0.97375
 C220 C 0.93271 0.87595 0.95748
 C221 C 0.92608 0.85755 0.95064
 H222 H 0.91388 0.85033 0.95806
 O223 O 1.07205 1.09766 0.98058
 O224 O 1.09498 1.12078 0.98060
 C225 C 1.07894 1.11375 0.97383
 C226 C 1.06839 1.12412 0.95768
 C227 C 1.07504 1.14254 0.95083
 H228 H 1.08789 1.14926 0.95756
 O229 O 0.92838 1.01982 0.90166
 O230 O 0.90537 1.01991 0.87859
 C231 C 0.92145 1.02660 0.88558
 C232 C 0.93209 1.04266 0.87519
 C233 C 0.92557 1.04951 0.85670
 H234 H 0.91269 1.04285 0.84992
 O235 O 1.07198 0.98099 0.90089
 O236 O 1.09496 0.98092 0.87776
 C237 C 1.07885 0.97427 0.88476
 C238 C 1.06817 0.95827 0.87435
 C239 C 1.07462 0.95149 0.85581
 H240 H 1.08744 0.95818 0.84896
 O241 O 1.01944 0.90270 0.92806
 O242 O 1.01943 0.87963 0.90507
 C243 C 1.02619 0.88663 0.92114
 C244 C 1.04231 0.87626 0.93172
 C245 C 1.04912 0.85780 0.92515
 H246 H 1.04237 0.85101 0.91233
 O247 O 0.98105 1.09824 0.92854
 O248 O 0.98114 1.12133 0.90556
 C249 C 0.97436 1.11434 0.92162
 C250 C 0.95815 1.12471 0.93205
 C251 C 0.95127 1.14304 0.92523
 H252 H 0.95861 1.15011 0.91288
 O253 O 0.90157 1.07171 0.98067
 O254 O 0.87862 1.09481 0.98073
 C255 C 0.88550 1.07872 0.97397
 C256 C 0.87502 1.06821 0.95788
 C257 C 0.85652 1.07480 0.95112
 H258 H 0.84977 1.08760 0.95792
 O259 O 1.09857 0.92929 0.98064
 O260 O 1.12153 0.90619 0.98062
 C261 C 1.11465 0.92231 0.97391
 C262 C 1.12513 0.93276 0.95777
 C263 C 1.14378 0.92633 0.95135
 H264 H 1.15098 0.91428 0.95902
 O265 O 0.98101 1.07116 0.90150
 O266 O 0.98109 1.09416 0.87842
 C267 C 0.97429 1.07812 0.88540
 C268 C 0.95805 1.06773 0.87504
 C269 C 0.95150 1.07419 0.85644
 H270 H 0.95913 1.08622 0.84917
 O271 O 1.01941 0.92962 0.90085
 O272 O 1.01935 0.90667 0.87774
 C273 C 1.02610 0.92271 0.88472
 C274 C 1.04226 0.93316 0.87431
 C275 C 1.04877 0.92673 0.85568
 H276 H 1.04116 0.91467 0.84844
 O277 O 1.09886 0.98082 0.92809
 O278 O 1.12202 0.98073 0.90514
 C279 C 1.11494 0.97403 0.92121
 C280 C 1.12523 0.95792 0.93188
 C281 C 1.14378 0.95111 0.92549
 H282 H 1.15067 0.95781 0.91269
 O283 O 0.90133 1.01971 0.92877
 O284 O 0.87817 1.01976 0.90583
 C285 C 0.88519 1.02643 0.92192
 C286 C 0.87484 1.04253 0.93253
 C287 C 0.85624 1.04913 0.92616
 H288 H 0.84895 1.04161 0.91406
 O289 O 0.92880 1.09853 0.98052
 O290 O 0.90597 1.12175 0.98055
 C291 C 0.92195 1.11462 0.97374
 C292 C 0.93245 1.12482 0.95746
 C293 C 0.92566 1.14306 0.95029
 H294 H 0.91277 1.14983 0.95694
 O295 O 1.07127 0.90247 0.98054
 O296 O 1.09412 0.87927 0.98049
 C297 C 1.07810 0.88638 0.97376
 C298 C 1.06758 0.87611 0.95754
 C299 C 1.07403 0.85757 0.95090
 H300 H 1.08615 0.85031 0.95841
 O301 O 1.07199 1.01943 0.90113
 O302 O 1.09495 1.01948 0.87798
 C303 C 1.07889 1.02622 0.88505
 C304 C 1.06830 1.04237 0.87476
 C305 C 1.07480 1.04927 0.85628
 H306 H 1.08758 1.04257 0.84938
 O307 O 0.92835 0.98134 0.90148
 O308 O 0.90534 0.98136 0.87840
 C309 C 0.92143 0.97464 0.88536
 C310 C 0.93204 0.95861 0.87490
 C311 C 0.92550 0.95185 0.85638
 H312 H 0.91268 0.95859 0.84959
 O313 O 1.01962 1.09797 0.92870
 O314 O 1.01972 1.12110 0.90575
 C315 C 1.02641 1.11405 0.92183
 C316 C 1.04262 1.12431 0.93237
 C317 C 1.04932 1.14283 0.92589
 H318 H 1.04184 1.15009 0.91375
 O319 O 0.98087 0.90258 0.92800
 O320 O 0.98082 0.87953 0.90499
 C321 C 0.97410 0.88652 0.92108
 C322 C 0.95797 0.87615 0.93164
 C323 C 0.95099 0.85782 0.92488
 H324 H 0.95766 0.85112 0.91196
 O325 O 1.09916 1.07067 0.98062
 O326 O 1.12219 1.09369 0.98064
 C327 C 1.11524 1.07764 0.97389
 C328 C 1.12562 1.06723 0.95767
 C329 C 1.14410 1.07387 0.95095
 H330 H 1.15127 1.08604 0.95843
 O331 O 0.90180 0.92906 0.98059
 O332 O 0.87881 0.90601 0.98058
 C333 C 0.88574 0.92209 0.97385
 C334 C 0.87530 0.93261 0.95773
 C335 C 0.85685 0.92597 0.95090
 H336 H 0.85009 0.91315 0.95767
 Cu337 Cu 1.00016 0.91847 0.91682
 Cu338 Cu 1.00009 0.89086 0.88913
 Cu339 Cu 1.00031 1.08231 0.91734
 Cu340 Cu 1.00042 1.11000 0.88972
 Cu341 Cu 0.91719 1.00053 0.91746
 Cu342 Cu 0.88947 1.00058 0.88985
 Cu343 Cu 1.08319 1.00013 0.91684
 Cu344 Cu 1.11087 1.00010 0.88917
 C345 C 0.94832 0.94937 0.88387
 H346 H 0.95323 0.95426 0.89830
 C347 C 0.93505 0.93606 0.84684
 C348 C 1.05206 1.05156 0.88387
 H349 H 1.04719 1.04656 0.89828
 C350 C 1.06524 1.06516 0.84689
 C351 C 0.88422 0.94887 0.94845
 H352 H 0.89861 0.95384 0.95339
 C353 C 0.84732 0.93540 0.93501
 C354 C 1.11662 1.05118 0.94814
 H355 H 1.10227 1.04613 0.95312
 C356 C 1.15340 1.06493 0.93465
 C357 C 0.94880 0.88502 0.94803
 H358 H 0.95386 0.89931 0.95310
 C359 C 0.93505 0.84838 0.93429
 C360 C 1.05210 1.11520 0.94843
 H361 H 1.04712 1.10084 0.95339
 C362 C 1.06558 1.15206 0.93495
 C363 C 0.94841 1.05180 0.88417
 H364 H 0.95329 1.04685 0.89859
 C365 C 0.93520 1.06524 0.84714
 C366 C 1.05190 0.94910 0.88340
 H367 H 1.04707 0.95401 0.89785
 C368 C 1.06499 0.93572 0.84631
 C369 C 1.05156 0.88522 0.94800
 H370 H 1.04663 0.89961 0.95293
 C371 C 1.06497 0.84830 0.93466
 C372 C 0.94879 1.11584 0.94832
 H373 H 0.95388 1.10161 0.95352
 C374 C 0.93498 1.15232 0.93418
 C375 C 0.88398 1.05200 0.94855
 H376 H 0.89841 1.04708 0.95342
 C377 C 0.84695 1.06532 0.93528
 C378 C 1.11610 0.94872 0.94810
 H379 H 1.10164 0.95365 0.95288
 C380 C 1.15323 0.93533 0.93517
 O381 O 1.01936 0.92939 1.09882
 O382 O 1.01930 0.90641 1.12190
 C383 C 1.02603 0.92248 1.11495
 C384 C 1.04214 0.93296 1.12540
 C385 C 1.04856 0.92657 1.14408
 H386 H 1.04090 0.91455 1.15132
 O387 O 0.98111 1.07090 1.09855
 O388 O 0.98112 1.09389 1.12162
 C389 C 0.97437 1.07784 1.11464
 C390 C 0.95816 1.06739 1.12501
 C391 C 0.95164 1.07381 1.14363
 H392 H 0.95928 1.08581 1.15091
 O393 O 0.90149 1.01964 1.07120
 O394 O 0.87833 1.01967 1.09414
 C395 C 0.88539 1.02639 1.07808
 C396 C 0.87510 1.04260 1.06758
 C397 C 0.85661 1.04936 1.07414
 H398 H 0.84937 1.04193 1.08633
 O399 O 1.09881 0.98070 1.07174
 O400 O 1.12195 0.98055 1.09469
 C401 C 1.11487 0.97387 1.07863
 C402 C 1.12512 0.95770 1.06803
 C403 C 1.14351 0.95068 1.07461
 H404 H 1.15036 0.95734 1.08745
 O405 O 1.07126 0.90232 1.01914
 O406 O 1.09410 0.87910 1.01908
 C407 C 1.07807 0.88617 1.02584
 C408 C 1.06752 0.87584 1.04202
 C409 C 1.07391 0.85724 1.04857
 H410 H 1.08596 0.84996 1.04097
 O411 O 0.92911 1.09841 1.01911
 O412 O 0.90630 1.12166 1.01920
 C413 C 0.92233 1.11452 1.02589
 C414 C 0.93290 1.12472 1.04212
 C415 C 0.92630 1.14312 1.04902
 H416 H 0.91407 1.15034 1.04167
 O417 O 0.92838 0.98106 1.09834
 O418 O 0.90534 0.98105 1.12140
 C419 C 0.92141 0.97429 1.11441
 C420 C 0.93190 0.95812 1.12477
 C421 C 0.92506 0.95103 1.14306
 H422 H 0.91211 0.95763 1.14975
 O423 O 1.07199 1.01932 1.09877
 O424 O 1.09499 1.01931 1.12186
 C425 C 1.07894 1.02609 1.11484
 C426 C 1.06845 1.04229 1.12514
 C427 C 1.07526 1.04941 1.14342
 H428 H 1.08820 1.04282 1.15012
 O429 O 0.98091 0.90236 1.07160
 O430 O 0.98086 0.87924 1.09456
 C431 C 0.97415 0.88627 1.07849
 C432 C 0.95803 0.87592 1.06789
 C433 C 0.95107 0.85755 1.07459
 H434 H 0.95774 0.85080 1.08748
 O435 O 1.01976 1.09778 1.07144
 O436 O 1.01980 1.12090 1.09438
 C437 C 1.02657 1.11382 1.07834
 C438 C 1.04284 1.12405 1.06784
 C439 C 1.04994 1.14232 1.07462
 H440 H 1.04326 1.14909 1.08749
 O441 O 0.90186 0.92903 1.01918
 O442 O 0.87889 0.90596 1.01921
 C443 C 0.88582 0.92202 1.02596
 C444 C 0.87542 0.93246 1.04217
 C445 C 0.85714 0.92558 1.04922
 H446 H 0.85048 0.91267 1.04256
 O447 O 1.09914 1.07069 1.01920
 O448 O 1.12218 1.09369 1.01922
 C449 C 1.11522 1.07763 1.02595
 C450 C 1.12559 1.06717 1.04216
 C451 C 1.14411 1.07371 1.04883
 H452 H 1.15132 1.08585 1.04131
 O453 O 1.01966 1.07096 1.09872
 O454 O 1.01968 1.09399 1.12176
 C455 C 1.02641 1.07792 1.11480
 C456 C 1.04264 1.06752 1.12517
 C457 C 1.04949 1.07427 1.14357
 H458 H 1.04207 1.08650 1.15071
 O459 O 0.98082 0.92945 1.09859
 O460 O 0.98074 0.90645 1.12166
 C461 C 0.97401 0.92250 1.11464
 C462 C 0.95773 0.93291 1.12492
 C463 C 0.95085 0.92621 1.14332
 H464 H 0.95829 0.91402 1.15052
 O465 O 1.09902 1.01917 1.07173
 O466 O 1.12217 1.01913 1.09467
 C467 C 1.11514 1.02587 1.07861
 C468 C 1.12552 1.04195 1.06799
 C469 C 1.14394 1.04886 1.07461
 H470 H 1.15070 1.04218 1.08749
 O471 O 0.90152 0.98116 1.07111
 O472 O 0.87836 0.98112 1.09405
 C473 C 0.88543 0.97440 1.07799
 C474 C 0.87519 0.95816 1.06751
 C475 C 0.85682 0.95121 1.07422
 H476 H 0.84962 0.95853 1.08650
 O477 O 1.07191 1.09759 1.01919
 O478 O 1.09485 1.12069 1.01922
 C479 C 1.07879 1.11367 1.02595
 C480 C 1.06829 1.12399 1.04216
 C481 C 1.07503 1.14235 1.04903
 H482 H 1.08735 1.14945 1.04169
 O483 O 0.92911 0.90220 1.01911
 O484 O 0.90624 0.87902 1.01910
 C485 C 0.92227 0.88609 1.02585
 C486 C 0.93277 0.87580 1.04207
 C487 C 0.92616 0.85736 1.04884
 H488 H 0.91397 0.85017 1.04140
 O489 O 1.07186 0.98086 1.09889
 O490 O 1.09483 0.98075 1.12201
 C491 C 1.07873 0.97411 1.11500
 C492 C 1.06803 0.95809 1.12540
 C493 C 1.07442 0.95132 1.14396
 H494 H 1.08723 0.95803 1.15082
 O495 O 0.92849 1.01956 1.09834
 O496 O 0.90547 1.01961 1.12143
 C497 C 0.92157 1.02629 1.11445
 C498 C 0.93222 1.04231 1.12487
 C499 C 0.92572 1.04911 1.14340
 H500 H 0.91286 1.04243 1.15019
 O501 O 0.98115 1.09800 1.07151
 O502 O 0.98116 1.12110 1.09447
 C503 C 0.97441 1.11409 1.07841
 C504 C 0.95826 1.12448 1.06787
 C505 C 0.95129 1.14279 1.07469
 H506 H 0.95798 1.14948 1.08759
 O507 O 1.01947 0.90246 1.07163
 O508 O 1.01946 0.87935 1.09459
 C509 C 1.02621 0.88637 1.07852
 C510 C 1.04231 0.87599 1.06790
 C511 C 1.04908 0.85750 1.07442
 H512 H 1.04235 0.85072 1.08726
 O513 O 1.09852 0.92917 1.01923
 O514 O 1.12146 0.90605 1.01920
 C515 C 1.11456 0.92213 1.02597
 C516 C 1.12499 0.93248 1.04220
 C517 C 1.14346 0.92579 1.04887
 H518 H 1.15059 0.91359 1.04138
 O519 O 0.90168 1.07177 1.01924
 O520 O 0.87874 1.09489 1.01935
 C521 C 0.88566 1.07880 1.02606
 C522 C 0.87527 1.06832 1.04224
 C523 C 0.85687 1.07502 1.04916
 H524 H 0.85013 1.08786 1.04242
 Cu525 Cu 1.00016 0.91821 1.08285
 Cu526 Cu 1.00009 0.89055 1.11049
 Cu527 Cu 1.00041 1.08211 1.08275
 Cu528 Cu 1.00043 1.10979 1.11035
 Cu529 Cu 0.91775 0.91796 0.99985
 Cu530 Cu 0.89024 0.89019 0.99985
 Cu531 Cu 1.08262 0.91813 0.99989
 Cu532 Cu 1.11009 0.89033 0.99984
 Cu533 Cu 0.91757 1.08279 0.99987
 Cu534 Cu 0.89012 1.11062 0.99997
 Cu535 Cu 1.08327 1.08185 0.99990
 Cu536 Cu 1.11085 1.10954 0.99993
 Cu537 Cu 0.91728 1.00037 1.08245
 Cu538 Cu 0.88954 1.00037 1.11006
 Cu539 Cu 1.08312 1.00002 1.08298
 Cu540 Cu 1.11081 0.99992 1.11063
 C541 C 1.05181 0.94889 1.11631
 H542 H 1.04703 0.95377 1.10183
 C543 C 1.06475 0.93559 1.15348
 C544 C 0.94852 1.05149 1.11587
 H545 H 0.95338 1.04658 1.10143
 C546 C 0.93536 1.06484 1.15295
 C547 C 0.88419 1.05203 1.05148
 H548 H 0.89854 1.04701 1.04647
 C549 C 0.84738 1.06561 1.06509
 C550 C 1.11605 0.94858 1.05173
 H551 H 1.10171 0.95368 1.04679
 C552 C 1.15284 0.93475 1.06511
 C553 C 1.05156 0.88497 1.05162
 H554 H 1.04667 0.89940 1.04675
 C555 C 1.06486 0.84795 1.06483
 C556 C 0.94904 1.11564 1.05150
 H557 H 0.95408 1.10135 1.04640
 C558 C 0.93531 1.15225 1.06536
 C559 C 0.94831 0.94902 1.11589
 H560 H 0.95342 0.95414 1.10160
 C561 C 0.93446 0.93508 1.15250
 C562 C 1.05206 1.05137 1.11621
 H563 H 1.04697 1.04621 1.10194
 C564 C 1.06586 1.06539 1.15280
 C565 C 0.94886 0.88484 1.05154
 H566 H 0.95390 0.89916 1.04652
 C567 C 0.93514 0.84814 1.06516
 C568 C 1.05204 1.11508 1.05152
 H569 H 1.04690 1.10083 1.04643
 C570 C 1.06603 1.15161 1.06531
 C571 C 0.88424 0.94883 1.05133
 H572 H 0.89850 0.95399 1.04621
 C573 C 0.84770 0.93487 1.06525
 C574 C 1.11654 1.05113 1.05168
 H575 H 1.10217 1.04613 1.04673
 C576 C 1.15341 1.06472 1.06511
 O577 O 0.98090 0.42916 0.40076
 O578 O 0.98085 0.40620 0.37765
 C579 C 0.97418 0.42229 0.38464
 C580 C 0.95807 0.43285 0.37426
 C581 C 0.95155 0.42652 0.35561
 H582 H 0.95913 0.41447 0.34832
 O583 O 1.02001 0.57094 0.40094
 O584 O 1.02004 0.59398 0.37791
 C585 C 1.02677 0.57791 0.38486
 C586 C 1.04289 0.56741 0.37442
 C587 C 1.04978 0.57414 0.35601
 H588 H 1.04306 0.58701 0.34933
 O589 O 0.90169 0.48080 0.42815
 O590 O 0.87858 0.48093 0.40516
 C591 C 0.88558 0.47413 0.42122
 C592 C 0.87524 0.45794 0.43167
 C593 C 0.85674 0.45123 0.42510
 H594 H 0.84954 0.45869 0.41291
 O595 O 1.09883 0.51882 0.42768
 O596 O 1.12199 0.51886 0.40474
 C597 C 1.11493 0.52558 0.42080
 C598 C 1.12526 0.54169 0.43142
 C599 C 1.14365 0.54866 0.42478
 H600 H 1.15045 0.54203 0.41189
 O601 O 0.92892 0.40174 0.48011
 O602 O 0.90598 0.37863 0.48008
 C603 C 0.92204 0.38566 0.47335
 C604 C 0.93252 0.37539 0.45711
 C605 C 0.92586 0.35700 0.45024
 H606 H 0.91365 0.34981 0.45767
 O607 O 1.07193 0.59742 0.48052
 O608 O 1.09493 0.62047 0.48058
 C609 C 1.07885 0.61352 0.47383
 C610 C 1.06840 0.62392 0.45765
 C611 C 1.07508 0.64235 0.45090
 H612 H 1.08735 0.64946 0.45831
 O613 O 0.92884 0.51930 0.40119
 O614 O 0.90587 0.51949 0.37806
 C615 C 0.92197 0.52612 0.38510
 C616 C 0.93266 0.54216 0.37474
 C617 C 0.92625 0.54892 0.35617
 H618 H 0.91347 0.54219 0.34930
 O619 O 1.07190 0.48033 0.40059
 O620 O 1.09490 0.48027 0.37749
 C621 C 1.07882 0.47357 0.38450
 C622 C 1.06819 0.45752 0.37412
 C623 C 1.07465 0.45074 0.35558
 H624 H 1.08747 0.45745 0.34875
 O625 O 1.01932 0.40207 0.42794
 O626 O 1.01932 0.37898 0.40497
 C627 C 1.02604 0.38598 0.42105
 C628 C 1.04221 0.37564 0.43159
 C629 C 1.04896 0.35718 0.42501
 H630 H 1.04157 0.35001 0.41275
 O631 O 0.98150 0.59793 0.42820
 O632 O 0.98153 0.62105 0.40526
 C633 C 0.97480 0.61404 0.42133
 C634 C 0.95864 0.62442 0.43186
 C635 C 0.95191 0.64288 0.42525
 H636 H 0.95930 0.65002 0.41298
 O637 O 0.90208 0.57124 0.48032
 O638 O 0.87910 0.59433 0.48035
 C639 C 0.88602 0.57826 0.47359
 C640 C 0.87560 0.56782 0.45741
 C641 C 0.85722 0.57458 0.45053
 H642 H 0.85049 0.58741 0.45732
 O643 O 1.09870 0.42892 0.48029
 O644 O 1.12166 0.40583 0.48029
 C645 C 1.11479 0.42194 0.47358
 C646 C 1.12525 0.43238 0.45743
 C647 C 1.14383 0.42585 0.45090
 H648 H 1.15102 0.41377 0.45852
 O649 O 0.98145 0.57083 0.40117
 O650 O 0.98147 0.59383 0.37810
 C651 C 0.97472 0.57777 0.38508
 C652 C 0.95854 0.56731 0.37469
 C653 C 0.95207 0.57372 0.35604
 H654 H 0.95969 0.58576 0.34879
 O655 O 1.01943 0.42887 0.40061
 O656 O 1.01938 0.40590 0.37752
 C657 C 1.02614 0.42194 0.38449
 C658 C 1.04231 0.43238 0.37408
 C659 C 1.04880 0.42597 0.35544
 H660 H 1.04117 0.41394 0.34818
 O661 O 1.09886 0.48035 0.42771
 O662 O 1.12203 0.48028 0.40477
 C663 C 1.11497 0.47359 0.42084
 C664 C 1.12529 0.45751 0.43151
 C665 C 1.14377 0.45060 0.42501
 H666 H 1.15059 0.45725 0.41215
 O667 O 0.90177 0.51927 0.42826
 O668 O 0.87866 0.51946 0.40527
 C669 C 0.88570 0.52609 0.42138
 C670 C 0.87542 0.54224 0.43195
 C671 C 0.85695 0.54907 0.42541
 H672 H 0.84972 0.54174 0.41317
 O673 O 0.92928 0.59809 0.48028
 O674 O 0.90642 0.62129 0.48031
 C675 C 0.92243 0.61419 0.47352
 C676 C 0.93298 0.62446 0.45731
 C677 C 0.92633 0.64284 0.45036
 H678 H 0.91352 0.64965 0.45711
 O679 O 1.07153 0.40200 0.48005
 O680 O 1.09439 0.37881 0.48003
 C681 C 1.07839 0.38592 0.47325
 C682 C 1.06787 0.37566 0.45702
 C683 C 1.07453 0.35727 0.45010
 H684 H 1.08734 0.35047 0.45686
 O685 O 1.07182 0.51878 0.40059
 O686 O 1.09483 0.51881 0.37749
 C687 C 1.07874 0.52552 0.38450
 C688 C 1.06823 0.54171 0.37418
 C689 C 1.07475 0.54849 0.35567
 H690 H 1.08694 0.54107 0.34842
 O691 O 0.92864 0.48082 0.40097
 O692 O 0.90567 0.48095 0.37785
 C693 C 0.92172 0.47416 0.38484
 C694 C 0.93229 0.45810 0.37440
 C695 C 0.92579 0.45139 0.35585
 H696 H 0.91300 0.45817 0.34904
 O697 O 1.02006 0.59771 0.42824
 O698 O 1.02013 0.62086 0.40531
 C699 C 1.02686 0.61377 0.42136
 C700 C 1.04305 0.62402 0.43192
 C701 C 1.05008 0.64235 0.42525
 H702 H 1.04339 0.64916 0.41240
 O703 O 0.98074 0.40197 0.42768
 O704 O 0.98071 0.37890 0.40468
 C705 C 0.97396 0.38592 0.42074
 C706 C 0.95777 0.37558 0.43127
 C707 C 0.95072 0.35730 0.42445
 H708 H 0.95735 0.35065 0.41149
 O709 O 1.09889 0.57026 0.48036
 O710 O 1.12197 0.59323 0.48040
 C711 C 1.11496 0.57721 0.47361
 C712 C 1.12529 0.56683 0.45732
 C713 C 1.14377 0.57347 0.45060
 H714 H 1.15095 0.58562 0.45810
 O715 O 0.90173 0.42864 0.47997
 O716 O 0.87869 0.40563 0.47991
 C717 C 0.88568 0.42168 0.47317
 C718 C 0.87533 0.43219 0.45699
 C719 C 0.85692 0.42555 0.45006
 H720 H 0.85015 0.41271 0.45678
 Cu721 Cu 1.00010 0.41781 0.41655
 Cu722 Cu 1.00007 0.39017 0.38890
 Cu723 Cu 1.00075 0.58204 0.41694
 Cu724 Cu 1.00078 0.60975 0.38934
 Cu725 Cu 0.91754 0.50003 0.41694
 Cu726 Cu 0.88987 0.50023 0.38928
 Cu727 Cu 1.08305 0.49956 0.41644
 Cu728 Cu 1.11076 0.49956 0.38881
 C729 C 0.94850 0.44880 0.38341
 H730 H 0.95336 0.45365 0.39787
 C731 C 0.93536 0.43562 0.34628
 C732 C 1.05213 0.55111 0.38330
 H733 H 1.04714 0.54608 0.39766
 C734 C 1.06569 0.56476 0.34647
 C735 C 0.88428 0.44847 0.44777
 H736 H 0.89864 0.45345 0.45280
 C737 C 0.84746 0.43499 0.43414
 C738 C 1.11627 0.55079 0.44778
 H739 H 1.10193 0.54573 0.45276
 C740 C 1.15305 0.56455 0.43428
 C741 C 0.94865 0.38443 0.44768
 H742 H 0.95375 0.39869 0.45278
 C743 C 0.93478 0.34785 0.43385
 C744 C 1.05223 0.61500 0.44821
 H745 H 1.04712 0.60069 0.45321
 C746 C 1.06608 0.65168 0.43466
 C747 C 0.94889 0.55138 0.38380
 H748 H 0.95369 0.54648 0.39827
 C749 C 0.93589 0.56467 0.34666
 C750 C 1.05194 0.44831 0.38318
 H751 H 1.04711 0.45322 0.39763
 C752 C 1.06502 0.43499 0.34606
 C753 C 1.05162 0.38465 0.44775
 H754 H 1.04663 0.39898 0.45278
 C755 C 1.06516 0.34788 0.43411
 C756 C 0.94923 0.61545 0.44805
 H757 H 0.95421 0.60112 0.45309
 C758 C 0.93571 0.65220 0.43434
 C759 C 0.88450 0.55156 0.44811
 H760 H 0.89884 0.54650 0.45310
 C761 C 0.84775 0.56529 0.43455
 C762 C 1.11623 0.44837 0.44780
 H763 H 1.10182 0.45336 0.45266
 C764 C 1.15321 0.43479 0.43464
 O765 O 1.01931 0.42875 0.59831
 O766 O 1.01930 0.40567 0.62131
 C767 C 1.02605 0.42174 0.61437
 C768 C 1.04229 0.43210 0.62476
 C769 C 1.04901 0.42538 0.64321
 H770 H 1.04155 0.41316 0.65034
 O771 O 0.98103 0.57038 0.59828
 O772 O 0.98102 0.59332 0.62140
 C773 C 0.97427 0.57729 0.61437
 C774 C 0.95804 0.56684 0.62470
 C775 C 0.95144 0.57328 0.64329
 H776 H 0.95900 0.58535 0.65055
 O777 O 0.90167 0.51889 0.57080
 O778 O 0.87846 0.51897 0.59369
 C779 C 0.88557 0.52567 0.57764
 C780 C 0.87533 0.54188 0.56709
 C781 C 0.85680 0.54861 0.57356
 H782 H 0.84951 0.54115 0.58570
 O783 O 1.09885 0.48023 0.57141
 O784 O 1.12197 0.48008 0.59438
 C785 C 1.11491 0.47340 0.57830
 C786 C 1.12516 0.45724 0.56770
 C787 C 1.14354 0.45020 0.57433
 H788 H 1.15037 0.45685 0.58718
 O789 O 1.07124 0.40194 0.51866
 O790 O 1.09408 0.37872 0.51863
 C791 C 1.07802 0.38578 0.52535
 C792 C 1.06742 0.37541 0.54146
 C793 C 1.07383 0.35682 0.54800
 H794 H 1.08593 0.34959 0.54042
 O795 O 0.92940 0.59801 0.51887
 O796 O 0.90654 0.62120 0.51893
 C797 C 0.92257 0.61410 0.52565
 C798 C 0.93309 0.62432 0.54190
 C799 C 0.92649 0.64274 0.54875
 H800 H 0.91429 0.64997 0.54135
 O801 O 0.92845 0.48037 0.59811
 O802 O 0.90537 0.48040 0.62113
 C803 C 0.92146 0.47364 0.61418
 C804 C 0.93197 0.45752 0.62460
 C805 C 0.92522 0.45057 0.64298
 H806 H 0.91231 0.45723 0.64968
 O807 O 1.07195 0.51872 0.59856
 O808 O 1.09490 0.51868 0.62169
 C809 C 1.07885 0.52543 0.61467
 C810 C 1.06824 0.54152 0.62504
 C811 C 1.07478 0.54840 0.64352
 H812 H 1.08760 0.54170 0.65036
 O813 O 0.98065 0.40190 0.57118
 O814 O 0.98062 0.37875 0.59409
 C815 C 0.97385 0.38583 0.57807
 C816 C 0.95760 0.37557 0.56757
 C817 C 0.95044 0.35736 0.57445
 H818 H 0.95706 0.35066 0.58739
 O819 O 1.01979 0.59728 0.57136
 O820 O 1.01984 0.62034 0.59436
 C821 C 1.02662 0.61330 0.57832
 C822 C 1.04291 0.62353 0.56785
 C823 C 1.05001 0.64180 0.57464
 H824 H 1.04331 0.64857 0.58751
 O825 O 0.90162 0.42877 0.51854
 O826 O 0.87856 0.40578 0.51850
 C827 C 0.88551 0.42185 0.52524
 C828 C 0.87508 0.43232 0.54139
 C829 C 0.85653 0.42579 0.54802
 H830 H 0.84934 0.41365 0.54050
 O831 O 1.09905 0.57021 0.51897
 O832 O 1.12215 0.59315 0.51898
 C833 C 1.11517 0.57709 0.52569
 C834 C 1.12557 0.56660 0.54185
 C835 C 1.14415 0.57307 0.54840
 H836 H 1.15139 0.58513 0.54079
 O837 O 1.01957 0.57033 0.59850
 O838 O 1.01957 0.59328 0.62161
 C839 C 1.02627 0.57722 0.61463
 C840 C 1.04241 0.56673 0.62504
 C841 C 1.04900 0.57325 0.64360
 H842 H 1.04146 0.58537 0.65080
 O843 O 0.98076 0.42882 0.59835
 O844 O 0.98073 0.40577 0.62138
 C845 C 0.97401 0.42185 0.61443
 C846 C 0.95778 0.43229 0.62478
 C847 C 0.95099 0.42570 0.64325
 H848 H 0.95844 0.41353 0.65047
 O849 O 1.09901 0.51869 0.57150
 O850 O 1.12213 0.51866 0.59446
 C851 C 1.11512 0.52540 0.57839
 C852 C 1.12551 0.54146 0.56775
 C853 C 1.14399 0.54831 0.57428
 H854 H 1.15079 0.54163 0.58714
 O855 O 0.90151 0.48040 0.57094
 O856 O 0.87830 0.48042 0.59384
 C857 C 0.88539 0.47367 0.57780
 C858 C 0.87506 0.45756 0.56719
 C859 C 0.85662 0.45066 0.57378
 H860 H 0.84982 0.45735 0.58662
 O861 O 1.07186 0.59714 0.51912
 O862 O 1.09487 0.62018 0.51917
 C863 C 1.07880 0.61318 0.52591
 C864 C 1.06835 0.62348 0.54217
 C865 C 1.07509 0.64184 0.54904
 H866 H 1.08740 0.64894 0.54169
 O867 O 0.92879 0.40182 0.51871
 O868 O 0.90584 0.37872 0.51871
 C869 C 0.92187 0.38577 0.52549
 C870 C 0.93227 0.37551 0.54181
 C871 C 0.92546 0.35721 0.54878
 H872 H 0.91316 0.35009 0.54145
 O873 O 1.07185 0.48026 0.59848
 O874 O 1.09481 0.48011 0.62160
 C875 C 1.07873 0.47344 0.61455
 C876 C 1.06813 0.45730 0.62484
 C877 C 1.07478 0.45023 0.64320
 H878 H 1.08765 0.45684 0.65002
 O879 O 0.92850 0.51885 0.59808
 O880 O 0.90544 0.51895 0.62112
 C881 C 0.92155 0.52562 0.61416
 C882 C 0.93217 0.54167 0.62457
 C883 C 0.92563 0.54847 0.64308
 H884 H 0.91280 0.54176 0.64990
 O885 O 0.98119 0.59757 0.57134
 O886 O 0.98120 0.62061 0.59435
 C887 C 0.97447 0.61365 0.57826
 C888 C 0.95837 0.62408 0.56770
 C889 C 0.95142 0.64241 0.57448
 H890 H 0.95809 0.64910 0.58739
 O891 O 1.01925 0.40187 0.57109
 O892 O 1.01925 0.37868 0.59396
 C893 C 1.02599 0.38576 0.57791
 C894 C 1.04211 0.37543 0.56727
 C895 C 1.04893 0.35695 0.57377
 H896 H 1.04219 0.35013 0.58659
 O897 O 1.09863 0.42869 0.51887
 O898 O 1.12156 0.40557 0.51887
 C899 C 1.11466 0.42165 0.52564
 C900 C 1.12506 0.43199 0.54190
 C901 C 1.14351 0.42529 0.54861
 H902 H 1.15063 0.41307 0.54115
 O903 O 0.90210 0.57121 0.51890
 O904 O 0.87912 0.59429 0.51897
 C905 C 0.88605 0.57819 0.52568
 C906 C 0.87560 0.56766 0.54180
 C907 C 0.85716 0.57432 0.54864
 H908 H 0.85043 0.58717 0.54190
 Cu909 Cu 0.99999 0.41764 0.58243
 Cu910 Cu 0.99998 0.38989 0.60999
 Cu911 Cu 1.00039 0.58160 0.58255
 Cu912 Cu 1.00040 0.60920 0.61024
 Cu913 Cu 0.91757 0.41755 0.49933
 Cu914 Cu 0.88997 0.38986 0.49930
 Cu915 Cu 1.08274 0.41771 0.49947
 Cu916 Cu 1.11022 0.38990 0.49946
 Cu917 Cu 0.91800 0.58232 0.49959
 Cu918 Cu 0.89050 0.61011 0.49966
 Cu919 Cu 1.08313 0.58146 0.49974
 Cu920 Cu 1.11079 0.60907 0.49979
 Cu921 Cu 0.91735 0.49962 0.58219
 Cu922 Cu 0.88956 0.49970 0.60975
 Cu923 Cu 1.08311 0.49950 0.58269
 Cu924 Cu 1.11078 0.49938 0.61036
 C925 C 1.05179 0.44821 0.61582
 H926 H 1.04680 0.45334 0.60149
 C927 C 1.06530 0.43427 0.65253
 C928 C 0.94846 0.55088 0.61558
 H929 H 0.95336 0.54595 0.60115
 C930 C 0.93519 0.56426 0.65259
 C931 C 0.88449 0.55136 0.55105
 H932 H 0.89887 0.54636 0.54611
 C933 C 0.84760 0.56488 0.56450
 C934 C 1.11612 0.44811 0.55140
 H935 H 1.10180 0.45323 0.54642
 C936 C 1.15287 0.43425 0.56486
 C937 C 1.05139 0.38448 0.55103
 H938 H 1.04647 0.39890 0.54617
 C939 C 1.06478 0.34747 0.56421
 C940 C 0.94918 0.61523 0.55132
 H941 H 0.95422 0.60093 0.54624
 C942 C 0.93548 0.65188 0.56509
 C943 C 0.94833 0.44836 0.61571
 H944 H 0.95338 0.45340 0.60137
 C945 C 0.93465 0.43467 0.65247
 C946 C 1.05197 0.55071 0.61600
 H947 H 1.04708 0.54574 0.60159
 C948 C 1.06523 0.56426 0.65295
 C949 C 0.94849 0.38446 0.55116
 H950 H 0.95369 0.39867 0.54599
 C951 C 0.93437 0.34804 0.56515
 C952 C 1.05211 0.61457 0.55153
 H953 H 1.04696 0.60032 0.54643
 C954 C 1.06609 0.65110 0.56533
 C955 C 0.88409 0.44837 0.55092
 H956 H 0.89848 0.45337 0.54600
 C957 C 0.84718 0.43479 0.56426
 C958 C 1.11650 0.55063 0.55146
 H959 H 1.10208 0.54569 0.54658
 C960 C 1.15348 0.56411 0.56468
 O961 O 0.48106 0.92982 0.40102
 O962 O 0.48102 0.90686 0.37792
 C963 C 0.47436 0.92296 0.38489
 C964 C 0.45826 0.93352 0.37447
 C965 C 0.45174 0.92713 0.35584
 H966 H 0.45931 0.91505 0.34860
 O967 O 0.51950 1.07147 0.40109
 O968 O 0.51949 1.09454 0.37808
 C969 C 0.52618 1.07843 0.38498
 C970 C 0.54229 1.06797 0.37450
 C971 C 0.54885 1.07450 0.35592
 H972 H 0.54127 1.08661 0.34874
 O973 O 0.40161 0.98119 0.42819
 O974 O 0.37850 0.98122 0.40521
 C975 C 0.38554 0.97444 0.42125
 C976 C 0.37523 0.95826 0.43177
 C977 C 0.35684 0.95131 0.42510
 H978 H 0.35004 0.95801 0.41226
 O979 O 0.59869 1.01989 0.42803
 O980 O 0.62185 1.01992 0.40508
 C981 C 0.61480 1.02664 0.42114
 C982 C 0.62514 1.04273 0.43176
 C983 C 0.64352 1.04971 0.42511
 H984 H 0.65030 1.04309 0.41221
 O985 O 0.42882 0.90262 0.48058
 O986 O 0.40591 0.87948 0.48054
 C987 C 0.42195 0.88655 0.47380
 C988 C 0.43242 0.87630 0.45752
 C989 C 0.42574 0.85792 0.45064
 H990 H 0.41350 0.85074 0.45804
 O991 O 0.57160 1.09814 0.48077
 O992 O 0.59450 1.12130 0.48085
 C993 C 0.57846 1.11427 0.47408
 C994 C 0.56798 1.12463 0.45789
 C995 C 0.57453 1.14314 0.45125
 H996 H 0.58667 1.15033 0.45879
 O997 O 0.42853 1.01992 0.40134
 O998 O 0.40555 1.02003 0.37823
 C999 C 0.42161 1.02674 0.38528
 C1000 C 0.43220 1.04286 0.37494
 C1001 C 0.42576 1.04962 0.35639
 H1002 H 0.41297 1.04287 0.34955
 O1003 O 0.57165 0.98143 0.40096
 O1004 O 0.59468 0.98137 0.37788
 C1005 C 0.57858 0.97467 0.38487
 C1006 C 0.56807 0.95850 0.37455
 C1007 C 0.57464 0.95171 0.35606
 H1008 H 0.58686 0.95910 0.34884
 O1009 O 0.51930 0.90254 0.42823
 O1010 O 0.51927 0.87941 0.40531
 C1011 C 0.52598 0.88641 0.42139
 C1012 C 0.54201 0.87600 0.43205
 C1013 C 0.54864 0.85741 0.42568
 H1014 H 0.54179 0.85053 0.41296
 O1015 O 0.48116 1.09851 0.42851
 O1016 O 0.48118 1.12167 0.40560
 C1017 C 0.47447 1.11464 0.42168
 C1018 C 0.45837 1.12503 0.43227
 C1019 C 0.45177 1.14357 0.42577
 H1020 H 0.45925 1.15076 0.41358
 O1021 O 0.40174 1.07170 0.48057
 O1022 O 0.37874 1.09475 0.48056
 C1023 C 0.38567 1.07867 0.47382
 C1024 C 0.37524 1.06814 0.45771
 C1025 C 0.35671 1.07467 0.45098
 H1026 H 0.34992 1.08744 0.45779
 O1027 O 0.59846 0.92942 0.48027
 O1028 O 0.62146 0.90637 0.48020
 C1029 C 0.61450 0.92244 0.47347
 C1030 C 0.62490 0.93293 0.45730
 C1031 C 0.64341 0.92637 0.45055
 H1032 H 0.65021 0.91361 0.45739
 O1033 O 0.48097 1.07154 0.40134
 O1034 O 0.48095 1.09459 0.37832
 C1035 C 0.47421 1.07852 0.38528
 C1036 C 0.45802 1.06807 0.37490
 C1037 C 0.45154 1.07446 0.35624
 H1038 H 0.45916 1.08650 0.34898
 O1039 O 0.51961 0.92947 0.40108
 O1040 O 0.51961 0.90646 0.37803
 C1041 C 0.52641 0.92247 0.38503
 C1042 C 0.54265 0.93289 0.37468
 C1043 C 0.54959 0.92615 0.35630
 H1044 H 0.54283 0.91331 0.34958
 O1045 O 0.59862 0.98143 0.42812
 O1046 O 0.62180 0.98139 0.40519
 C1047 C 0.61474 0.97469 0.42127
 C1048 C 0.62505 0.95857 0.43187
 C1049 C 0.64365 0.95195 0.42549
 H1050 H 0.65093 0.95941 0.41334
 O1051 O 0.40159 1.01966 0.42854
 O1052 O 0.37845 1.01976 0.40558
 C1053 C 0.38546 1.02639 0.42170
 C1054 C 0.37509 1.04246 0.43234
 C1055 C 0.35645 1.04901 0.42601
 H1056 H 0.34917 1.04147 0.41392
 O1057 O 0.42889 1.09864 0.48055
 O1058 O 0.40602 1.12182 0.48055
 C1059 C 0.42205 1.11474 0.47380
 C1060 C 0.43265 1.12505 0.45765
 C1061 C 0.42611 1.14350 0.45078
 H1062 H 0.41332 1.15034 0.45755
 O1063 O 0.57122 0.90254 0.48049
 O1064 O 0.59412 0.87937 0.48045
 C1065 C 0.57803 0.88639 0.47379
 C1066 C 0.56738 0.87598 0.45776
 C1067 C 0.57366 0.85731 0.45133
 H1068 H 0.58575 0.85006 0.45890
 O1069 O 0.57175 1.01990 0.40089
 O1070 O 0.59476 1.01993 0.37779
 C1071 C 0.57869 1.02665 0.38480
 C1072 C 0.56811 1.04277 0.37444
 C1073 C 0.57466 1.04969 0.35598
 H1074 H 0.58750 1.04301 0.34915
 O1075 O 0.42867 0.98144 0.40113
 O1076 O 0.40570 0.98147 0.37801
 C1077 C 0.42179 0.97477 0.38499
 C1078 C 0.43245 0.95875 0.37454
 C1079 C 0.42598 0.95200 0.35599
 H1080 H 0.41319 0.95875 0.34915
 O1081 O 0.51973 1.09830 0.42835
 O1082 O 0.51978 1.12147 0.40545
 C1083 C 0.52654 1.11437 0.42147
 C1084 C 0.54273 1.12463 0.43205
 C1085 C 0.54968 1.14302 0.42545
 H1086 H 0.54300 1.14981 0.41258
 O1087 O 0.48075 0.90277 0.42808
 O1088 O 0.48067 0.87968 0.40511
 C1089 C 0.47392 0.88673 0.42116
 C1090 C 0.45770 0.87644 0.43169
 C1091 C 0.45066 0.85816 0.42490
 H1092 H 0.45731 0.85145 0.41198
 O1093 O 0.59876 1.07120 0.48069
 O1094 O 0.62176 1.09425 0.48073
 C1095 C 0.61482 1.07821 0.47394
 C1096 C 0.62518 1.06786 0.45766
 C1097 C 0.64364 1.07452 0.45093
 H1098 H 0.65082 1.08669 0.45842
 O1099 O 0.40161 0.92950 0.48054
 O1100 O 0.37860 0.90646 0.48048
 C1101 C 0.38556 0.92253 0.47376
 C1102 C 0.37521 0.93296 0.45753
 C1103 C 0.35674 0.92635 0.45078
 H1104 H 0.34957 0.91414 0.45822
 Cu1105 Cu 0.50019 0.91845 0.41690
 Cu1106 Cu 0.50013 0.89079 0.38927
 Cu1107 Cu 0.50034 1.08265 0.41712
 Cu1108 Cu 0.50034 1.11040 0.38956
 Cu1109 Cu 0.41741 1.00054 0.41710
 Cu1110 Cu 0.38973 1.00064 0.38945
 Cu1111 Cu 0.58286 1.00067 0.41679
 Cu1112 Cu 0.61060 1.00063 0.38917
 C1113 C 0.44868 0.94949 0.38358
 H1114 H 0.45352 0.95437 0.39804
 C1115 C 0.43555 0.93620 0.34649
 C1116 C 0.55185 1.05194 0.38350
 H1117 H 0.54696 1.04694 0.39791
 C1118 C 0.56510 1.06554 0.34655
 C1119 C 0.38421 0.94907 0.44807
 H1120 H 0.39855 0.95412 0.45308
 C1121 C 0.34745 0.93536 0.43453
 C1122 C 0.61617 1.05182 0.44813
 H1123 H 0.60183 1.04674 0.45312
 C1124 C 0.65293 1.06559 0.43461
 C1125 C 0.44856 0.88532 0.44808
 H1126 H 0.45367 0.89959 0.45318
 C1127 C 0.43469 0.84875 0.43429
 C1128 C 0.55191 1.11562 0.44835
 H1129 H 0.54689 1.10126 0.45329
 C1130 C 0.56556 1.15246 0.43497
 C1131 C 0.44841 1.05212 0.38401
 H1132 H 0.45323 1.04722 0.39847
 C1133 C 0.43537 1.06538 0.34686
 C1134 C 0.55192 0.94914 0.38361
 H1135 H 0.54689 0.95419 0.39795
 C1136 C 0.56555 0.93548 0.34681
 C1137 C 0.55139 0.88509 0.44818
 H1138 H 0.54660 0.89958 0.45295
 C1139 C 0.56446 0.84790 0.43525
 C1140 C 0.44887 1.11601 0.44836
 H1141 H 0.45376 1.10162 0.45333
 C1142 C 0.43559 1.15292 0.43486
 C1143 C 0.38423 1.05196 0.44836
 H1144 H 0.39869 1.04708 0.45321
 C1145 C 0.34714 1.06517 0.43515
 C1146 C 0.61592 0.94912 0.44793
 H1147 H 0.60149 0.95403 0.45282
 C1148 C 0.65295 0.93580 0.43467
 O1149 O 0.51934 0.92952 0.59853
 O1150 O 0.51930 0.90649 0.62157
 C1151 C 0.52604 0.92257 0.61463
 C1152 C 0.54219 0.93299 0.62507
 C1153 C 0.54876 0.92643 0.64363
 H1154 H 0.54119 0.91431 0.65081
 O1155 O 0.48088 1.07094 0.59876
 O1156 O 0.48089 1.09390 0.62187
 C1157 C 0.47416 1.07784 0.61487
 C1158 C 0.45796 1.06738 0.62524
 C1159 C 0.45146 1.07377 0.64388
 H1160 H 0.45913 1.08576 0.65117
 O1161 O 0.40146 1.01962 0.57120
 O1162 O 0.37829 1.01967 0.59414
 C1163 C 0.38535 1.02637 0.57806
 C1164 C 0.37507 1.04255 0.56751
 C1165 C 0.35654 1.04927 0.57399
 H1166 H 0.34929 1.04185 0.58618
 O1167 O 0.59876 0.98102 0.57151
 O1168 O 0.62191 0.98085 0.59445
 C1169 C 0.61484 0.97421 0.57836
 C1170 C 0.62514 0.95813 0.56768
 C1171 C 0.64359 0.95118 0.57420
 H1172 H 0.65043 0.95783 0.58705
 O1173 O 0.57139 0.90262 0.51904
 O1174 O 0.59430 0.87948 0.51900
 C1175 C 0.57827 0.88653 0.52577
 C1176 C 0.56778 0.87620 0.54198
 C1177 C 0.57431 0.85769 0.54863
 H1178 H 0.58649 0.85050 0.54114
 O1179 O 0.42903 1.09848 0.51915
 O1180 O 0.40616 1.12166 0.51920
 C1181 C 0.42218 1.11456 0.52595
 C1182 C 0.43265 1.12475 0.54226
 C1183 C 0.42598 1.14310 0.54920
 H1184 H 0.41377 1.15033 0.54180
 O1185 O 0.42838 0.98112 0.59836
 O1186 O 0.40537 0.98109 0.62145
 C1187 C 0.42145 0.97436 0.61444
 C1188 C 0.43200 0.95823 0.62479
 C1189 C 0.42534 0.95129 0.64320
 H1190 H 0.41249 0.95799 0.64999
 O1191 O 0.57188 1.01951 0.59871
 O1192 O 0.59489 1.01946 0.62179
 C1193 C 0.57883 1.02624 0.61479
 C1194 C 0.56833 1.04242 0.62513
 C1195 C 0.57519 1.04956 0.64339
 H1196 H 0.58817 1.04299 0.65005
 O1197 O 0.48089 0.90253 0.57126
 O1198 O 0.48086 0.87940 0.59420
 C1199 C 0.47414 0.88644 0.57813
 C1200 C 0.45792 0.87615 0.56763
 C1201 C 0.45102 0.85779 0.57435
 H1202 H 0.45834 0.85064 0.58666
 O1203 O 0.51944 1.09795 0.57167
 O1204 O 0.51945 1.12105 0.59463
 C1205 C 0.52622 1.11401 0.57858
 C1206 C 0.54245 1.12429 0.56806
 C1207 C 0.54948 1.14260 0.57482
 H1208 H 0.54277 1.14937 0.58768
 O1209 O 0.40148 0.92952 0.51910
 O1210 O 0.37847 0.90648 0.51904
 C1211 C 0.38538 0.92256 0.52579
 C1212 C 0.37493 0.93298 0.54196
 C1213 C 0.35644 0.92635 0.54864
 H1214 H 0.34931 0.91416 0.54114
 O1215 O 0.59885 1.07113 0.51928
 O1216 O 0.62185 1.09417 0.51932
 C1217 C 0.61492 1.07808 0.52603
 C1218 C 0.62533 1.06763 0.54221
 C1219 C 0.64381 1.07425 0.54894
 H1220 H 0.65097 1.08644 0.54147
 O1221 O 0.51944 1.07103 0.59885
 O1222 O 0.51945 1.09403 0.62191
 C1223 C 0.52620 1.07798 0.61492
 C1224 C 0.54248 1.06761 0.62525
 C1225 C 0.54939 1.07437 0.64361
 H1226 H 0.54197 1.08659 0.65077
 O1227 O 0.48079 0.92948 0.59842
 O1228 O 0.48074 0.90646 0.62147
 C1229 C 0.47401 0.92252 0.61449
 C1230 C 0.45778 0.93295 0.62484
 C1231 C 0.45103 0.92635 0.64333
 H1232 H 0.45847 0.91416 0.65052
 O1233 O 0.59890 1.01949 0.57166
 O1234 O 0.62206 1.01942 0.59459
 C1235 C 0.61501 1.02620 0.57855
 C1236 C 0.62534 1.04235 0.56799
 C1237 C 0.64371 1.04933 0.57467
 H1238 H 0.65047 1.04266 0.58755
 O1239 O 0.40124 0.98114 0.57143
 O1240 O 0.37809 0.98110 0.59438
 C1241 C 0.38515 0.97437 0.57833
 C1242 C 0.37485 0.95823 0.56775
 C1243 C 0.35647 0.95122 0.57439
 H1244 H 0.34966 0.95787 0.58726
 O1245 O 0.57152 1.09794 0.51937
 O1246 O 0.59443 1.12108 0.51943
 C1247 C 0.57838 1.11402 0.52615
 C1248 C 0.56787 1.12430 0.54238
 C1249 C 0.57454 1.14269 0.54921
 H1250 H 0.58682 1.14983 0.54184
 O1251 O 0.42865 0.90258 0.51921
 O1252 O 0.40574 0.87945 0.51919
 C1253 C 0.42175 0.88651 0.52598
 C1254 C 0.43224 0.87622 0.54222
 C1255 C 0.42542 0.85794 0.54929
 H1256 H 0.41253 0.85123 0.54261
 O1257 O 0.57182 0.98104 0.59870
 O1258 O 0.59481 0.98088 0.62180
 C1259 C 0.57871 0.97424 0.61478
 C1260 C 0.56806 0.95815 0.62512
 C1261 C 0.57457 0.95124 0.64360
 H1262 H 0.58739 0.95791 0.65046
 O1263 O 0.42825 1.01959 0.59854
 O1264 O 0.40524 1.01964 0.62163
 C1265 C 0.42134 1.02632 0.61465
 C1266 C 0.43199 1.04233 0.62509
 C1267 C 0.42552 1.04910 0.64363
 H1268 H 0.41267 1.04242 0.65043
 O1269 O 0.48084 1.09802 0.57172
 O1270 O 0.48081 1.12109 0.59471
 C1271 C 0.47406 1.11409 0.57865
 C1272 C 0.45789 1.12445 0.56812
 C1273 C 0.45082 1.14270 0.57501
 H1274 H 0.45742 1.14931 0.58800
 O1275 O 0.51947 0.90256 0.57140
 O1276 O 0.51947 0.87942 0.59433
 C1277 C 0.52624 0.88649 0.57829
 C1278 C 0.54243 0.87619 0.56773
 C1279 C 0.54932 0.85776 0.57432
 H1280 H 0.54257 0.85093 0.58712
 O1281 O 0.59857 0.92954 0.51889
 O1282 O 0.62159 0.90650 0.51882
 C1283 C 0.61466 0.92257 0.52558
 C1284 C 0.62509 0.93298 0.54178
 C1285 C 0.64362 0.92637 0.54838
 H1286 H 0.65078 0.91422 0.54085
 O1287 O 0.40171 1.07174 0.51916
 O1288 O 0.37871 1.09479 0.51920
 C1289 C 0.38566 1.07871 0.52594
 C1290 C 0.37524 1.06822 0.54210
 C1291 C 0.35681 1.07488 0.54895
 H1292 H 0.35005 1.08769 0.54217
 Cu1293 Cu 0.50013 0.91833 0.58260
 Cu1294 Cu 0.50008 0.89062 0.61020
 Cu1295 Cu 0.50015 1.08219 0.58294
 Cu1296 Cu 0.50014 1.10983 0.61058
 Cu1297 Cu 0.41744 0.91836 0.49987
 Cu1298 Cu 0.38989 0.89064 0.49981
 Cu1299 Cu 0.58263 0.91835 0.49967
 Cu1300 Cu 0.61018 0.89062 0.49961
 Cu1301 Cu 0.41763 1.08283 0.49985
 Cu1302 Cu 0.39011 1.11058 0.49988
 Cu1303 Cu 0.58289 1.08229 0.50003
 Cu1304 Cu 0.61043 1.11002 0.50009
 Cu1305 Cu 0.41714 1.00037 0.58258
 Cu1306 Cu 0.38942 1.00039 0.61021
 Cu1307 Cu 0.58303 1.00027 0.58285
 Cu1308 Cu 0.61074 1.00013 0.61047
 C1309 C 0.55179 0.94901 0.61606
 H1310 H 0.54692 0.95401 0.60165
 C1311 C 0.56499 0.93539 0.65301
 C1312 C 0.44829 1.05150 0.61609
 H1313 H 0.45314 1.04662 0.60163
 C1314 C 0.43519 1.06481 0.65320
 C1315 C 0.38418 1.05197 0.55140
 H1316 H 0.39855 1.04697 0.54644
 C1317 C 0.34730 1.06548 0.56488
 C1318 C 0.61610 0.94901 0.55137
 H1319 H 0.60171 0.95404 0.54648
 C1320 C 0.65298 0.93532 0.56464
 C1321 C 0.55169 0.88522 0.55148
 H1322 H 0.54669 0.89958 0.54654
 C1323 C 0.56525 0.84835 0.56484
 C1324 C 0.44877 1.11566 0.55167
 H1325 H 0.45388 1.10142 0.54652
 C1326 C 0.43487 1.15218 0.56564
 C1327 C 0.44831 0.94904 0.61581
 H1328 H 0.45331 0.95408 0.60145
 C1329 C 0.43477 0.93537 0.65262
 C1330 C 0.55190 1.05147 0.61626
 H1331 H 0.54677 1.04630 0.60201
 C1332 C 0.56580 1.06553 0.65279
 C1333 C 0.44858 0.88512 0.55141
 H1334 H 0.45369 0.89938 0.54628
 C1335 C 0.43472 0.84858 0.56535
 C1336 C 0.55167 1.11533 0.55175
 H1337 H 0.54658 1.10105 0.54668
 C1338 C 0.56552 1.15193 0.56549
 C1339 C 0.38388 0.94908 0.55145
 H1340 H 0.39823 0.95416 0.54649
 C1341 C 0.34710 0.93529 0.56491
 C1342 C 0.61635 1.05152 0.55168
 H1343 H 0.60201 1.04646 0.54669
 C1344 C 0.65311 1.06527 0.56522
 O1345 O 0.57094 0.51862 1.09909
 O1346 O 0.59389 0.51858 1.12223
 C1347 C 0.57783 0.52532 1.11521
 C1348 C 0.56733 0.54150 1.12553
 C1349 C 0.57382 0.54819 1.14407
 H1350 H 0.58597 0.54074 1.15134
 O1351 O 0.42851 0.48085 1.09852
 O1352 O 0.40545 0.48085 1.12158
 C1353 C 0.42156 0.47414 1.11462
 C1354 C 0.43204 0.45799 1.12502
 C1355 C 0.42558 0.45145 1.14363
 H1356 H 0.41349 0.45903 1.15087
 O1357 O 0.51925 0.59786 1.07164
 O1358 O 0.51929 0.62098 1.09458
 C1359 C 0.52601 0.61393 1.07852
 C1360 C 0.54214 0.62424 1.06790
 C1361 C 0.54890 0.64276 1.07434
 H1362 H 0.54207 0.64965 1.08707
 O1363 O 0.48036 0.40163 1.07144
 O1364 O 0.48027 0.37845 1.09433
 C1365 C 0.47357 0.38554 1.07828
 C1366 C 0.45741 0.37527 1.06768
 C1367 C 0.45036 0.35695 1.07439
 H1368 H 0.45701 0.35017 1.08726
 O1369 O 0.59827 0.57043 1.01963
 O1370 O 0.62136 0.59339 1.01973
 C1371 C 0.61433 0.57735 1.02645
 C1372 C 0.62461 0.56690 1.04272
 C1373 C 0.64307 0.57350 1.04950
 H1374 H 0.65027 0.58568 1.04206
 O1375 O 0.40158 0.42895 1.01908
 O1376 O 0.37849 0.40599 1.01905
 C1377 C 0.38548 0.42204 1.02581
 C1378 C 0.37511 0.43250 1.04202
 C1379 C 0.35661 0.42591 1.04872
 H1380 H 0.34944 0.41373 1.04124
 O1381 O 0.48071 0.57087 1.09873
 O1382 O 0.48073 0.59382 1.12184
 C1383 C 0.47399 0.57777 1.11484
 C1384 C 0.45781 0.56730 1.12521
 C1385 C 0.45126 0.57371 1.14382
 H1386 H 0.45887 0.58574 1.15109
 O1387 O 0.51876 0.42856 1.09880
 O1388 O 0.51867 0.40550 1.12181
 C1389 C 0.52541 0.42159 1.11492
 C1390 C 0.54154 0.43202 1.12540
 C1391 C 0.54807 0.42547 1.14397
 H1392 H 0.54048 0.41336 1.15114
 O1393 O 0.59805 0.48024 1.07195
 O1394 O 0.62115 0.48014 1.09493
 C1395 C 0.61414 0.47347 1.07883
 C1396 C 0.62449 0.45740 1.06819
 C1397 C 0.64294 0.45051 1.07476
 H1398 H 0.64976 0.45719 1.08760
 O1399 O 0.40149 0.51928 1.07128
 O1400 O 0.37832 0.51931 1.09421
 C1401 C 0.38539 0.52604 1.07816
 C1402 C 0.37515 0.54230 1.06768
 C1403 C 0.35682 0.54931 1.07444
 H1404 H 0.34964 0.54202 1.08675
 O1405 O 0.42897 0.59829 1.01917
 O1406 O 0.40612 0.62148 1.01915
 C1407 C 0.42214 0.61440 1.02590
 C1408 C 0.43263 0.62466 1.04215
 C1409 C 0.42605 0.64310 1.04893
 H1410 H 0.41391 0.65035 1.04144
 O1411 O 0.57094 0.40194 1.01906
 O1412 O 0.59383 0.37878 1.01905
 C1413 C 0.57776 0.38581 1.02577
 C1414 C 0.56721 0.37544 1.04193
 C1415 C 0.57375 0.35692 1.04857
 H1416 H 0.58589 0.34973 1.04104
 O1417 O 0.42831 0.51932 1.09859
 O1418 O 0.40526 0.51936 1.12165
 C1419 C 0.42135 0.52607 1.11467
 C1420 C 0.43194 0.54214 1.12509
 C1421 C 0.42541 0.54894 1.14360
 H1422 H 0.41258 0.54223 1.15040
 O1423 O 0.57108 0.48014 1.09909
 O1424 O 0.59404 0.48003 1.12223
 C1425 C 0.57798 0.47334 1.11518
 C1426 C 0.56737 0.45721 1.12548
 C1427 C 0.57389 0.45027 1.14394
 H1428 H 0.58673 0.45693 1.15078
 O1429 O 0.51894 0.40179 1.07148
 O1430 O 0.51891 0.37859 1.09436
 C1431 C 0.52571 0.38570 1.07834
 C1432 C 0.54191 0.37543 1.06775
 C1433 C 0.54885 0.35703 1.07435
 H1434 H 0.54216 0.35024 1.08721
 O1435 O 0.48069 0.59796 1.07172
 O1436 O 0.48067 0.62104 1.09470
 C1437 C 0.47393 0.61404 1.07863
 C1438 C 0.45781 0.62442 1.06805
 C1439 C 0.45084 0.64276 1.07479
 H1440 H 0.45748 0.64944 1.08773
 O1441 O 0.40177 0.57142 1.01928
 O1442 O 0.37880 0.59450 1.01932
 C1443 C 0.38574 0.57843 1.02608
 C1444 C 0.37537 0.56801 1.04232
 C1445 C 0.35713 0.57493 1.04942
 H1446 H 0.35049 0.58787 1.04277
 O1447 O 0.59817 0.42883 1.01928
 O1448 O 0.62116 0.40577 1.01931
 C1449 C 0.61420 0.42183 1.02607
 C1450 C 0.62454 0.43221 1.04233
 C1451 C 0.64307 0.42566 1.04898
 H1452 H 0.65028 0.41352 1.04146
 O1453 O 0.48023 0.42858 1.09856
 O1454 O 0.48010 0.40553 1.12158
 C1455 C 0.47341 0.42161 1.11460
 C1456 C 0.45727 0.43218 1.12496
 C1457 C 0.45041 0.42566 1.14345
 H1458 H 0.45712 0.41284 1.15026
 O1459 O 0.51923 0.57094 1.09882
 O1460 O 0.51929 0.59393 1.12189
 C1461 C 0.52599 0.57786 1.11491
 C1462 C 0.54207 0.56728 1.12533
 C1463 C 0.54890 0.57389 1.14379
 H1464 H 0.54217 0.58673 1.15055
 O1465 O 0.40146 0.48075 1.07145
 O1466 O 0.37828 0.48072 1.09437
 C1467 C 0.38537 0.47397 1.07834
 C1468 C 0.37508 0.45779 1.06778
 C1469 C 0.35669 0.45082 1.07443
 H1470 H 0.34989 0.45751 1.08729
 O1471 O 0.59809 0.51872 1.07212
 O1472 O 0.62119 0.51870 1.09512
 C1473 C 0.61417 0.52547 1.07906
 C1474 C 0.62452 0.54163 1.06852
 C1475 C 0.64290 0.54857 1.07521
 H1476 H 0.64967 0.54187 1.08808
 O1477 O 0.42856 0.40180 1.01903
 O1478 O 0.40557 0.37874 1.01898
 C1479 C 0.42163 0.38571 1.02574
 C1480 C 0.43208 0.37533 1.04193
 C1481 C 0.42537 0.35693 1.04872
 H1482 H 0.41310 0.34982 1.04132
 O1483 O 0.57129 0.59759 1.01945
 O1484 O 0.59428 0.62066 1.01951
 C1485 C 0.57817 0.61370 1.02617
 C1486 C 0.56756 0.62415 1.04223
 C1487 C 0.57396 0.64276 1.04872
 H1488 H 0.58612 0.64994 1.04120
 Cu1489 Cu 0.58224 0.49943 1.08326
 Cu1490 Cu 0.60989 0.49936 1.11095
 Cu1491 Cu 0.41724 0.50005 1.08266
 Cu1492 Cu 0.38949 0.50006 1.11025
 Cu1493 Cu 0.49997 0.58211 1.08292
 Cu1494 Cu 0.49999 0.60976 1.11057
 Cu1495 Cu 0.49958 0.41744 1.08277
 Cu1496 Cu 0.49949 0.38968 1.11032
 C1497 C 0.55130 0.55099 1.11640
 H1498 H 0.54634 0.54604 1.10201
 C1499 C 0.56475 0.56443 1.15332
 C1500 C 0.44805 0.44842 1.11594
 H1501 H 0.45301 0.45330 1.10151
 C1502 C 0.43459 0.43523 1.15297
 C1503 C 0.55149 0.61513 1.05176
 H1504 H 0.54660 0.60069 1.04695
 C1505 C 0.56479 0.65219 1.06482
 C1506 C 0.44826 0.38426 1.05136
 H1507 H 0.45338 0.39856 1.04634
 C1508 C 0.43434 0.34764 1.06499
 C1509 C 0.61557 0.55081 1.05219
 H1510 H 0.60123 0.54578 1.04716
 C1511 C 0.65233 0.56450 1.06579
 C1512 C 0.38410 0.44859 1.05149
 H1513 H 0.39846 0.45364 1.04651
 C1514 C 0.34728 0.43490 1.06498
 C1515 C 0.44822 0.55135 1.11609
 H1516 H 0.45310 0.54645 1.10165
 C1517 C 0.43501 0.56470 1.15314
 C1518 C 0.55112 0.44805 1.11640
 H1519 H 0.54625 0.45307 1.10200
 C1520 C 0.56431 0.43442 1.15336
 C1521 C 0.61549 0.44823 1.05189
 H1522 H 0.60111 0.45324 1.04696
 C1523 C 0.65239 0.43466 1.06523
 C1524 C 0.38418 0.55161 1.05147
 H1525 H 0.39842 0.54641 1.04631
 C1526 C 0.34771 0.56567 1.06547
 C1527 C 0.44868 0.61556 1.05165
 H1528 H 0.45371 0.60124 1.04662
 C1529 C 0.43497 0.65226 1.06531
 C1530 C 0.55112 0.38445 1.05146
 H1531 H 0.54611 0.39881 1.04653
 C1532 C 0.56476 0.34761 1.06484
 O1533 O 0.57173 0.48070 0.90121
 O1534 O 0.59476 0.48064 0.87813
 C1535 C 0.57865 0.47396 0.88511
 C1536 C 0.56800 0.45795 0.87470
 C1537 C 0.57447 0.45121 0.85614
 H1538 H 0.58727 0.45795 0.84931
 O1539 O 0.42837 0.51944 0.90146
 O1540 O 0.40533 0.51957 0.87840
 C1541 C 0.42143 0.52625 0.88540
 C1542 C 0.43201 0.54237 0.87505
 C1543 C 0.42533 0.54936 0.85667
 H1544 H 0.41244 0.54272 0.84990
 O1545 O 0.48107 0.59790 0.92847
 O1546 O 0.48117 0.62103 0.90553
 C1547 C 0.47441 0.61403 0.92160
 C1548 C 0.45826 0.62442 0.93211
 C1549 C 0.45148 0.64284 0.92542
 H1550 H 0.45885 0.64995 0.91312
 O1551 O 0.51906 0.40228 0.92828
 O1552 O 0.51909 0.37923 0.90527
 C1553 C 0.52580 0.38621 0.92137
 C1554 C 0.54196 0.37584 0.93190
 C1555 C 0.54874 0.35740 0.92527
 H1556 H 0.54137 0.35027 0.91298
 O1557 O 0.59841 0.42898 0.98070
 O1558 O 0.62142 0.40593 0.98074
 C1559 C 0.61453 0.42204 0.97403
 C1560 C 0.62504 0.43253 0.95794
 C1561 C 0.64368 0.42609 0.95148
 H1562 H 0.65087 0.41400 0.95910
 O1563 O 0.40164 0.57141 0.98069
 O1564 O 0.37864 0.59446 0.98069
 C1565 C 0.38556 0.57838 0.97396
 C1566 C 0.37513 0.56788 0.95783
 C1567 C 0.35665 0.57450 0.95105
 H1568 H 0.34986 0.58727 0.95787
 O1569 O 0.51946 0.57074 0.90123
 O1570 O 0.51953 0.59378 0.87819
 C1571 C 0.52621 0.57768 0.88514
 C1572 C 0.54237 0.56721 0.87473
 C1573 C 0.54900 0.57376 0.85619
 H1574 H 0.54148 0.58590 0.84899
 O1575 O 0.48065 0.42941 0.90109
 O1576 O 0.48065 0.40648 0.87796
 C1577 C 0.47393 0.42253 0.88497
 C1578 C 0.45777 0.43303 0.87461
 C1579 C 0.45118 0.42660 0.85601
 H1580 H 0.45878 0.41455 0.84874
 O1581 O 0.59872 0.51906 0.92840
 O1582 O 0.62191 0.51912 0.90549
 C1583 C 0.61484 0.52581 0.92156
 C1584 C 0.62516 0.54188 0.93223
 C1585 C 0.64359 0.54882 0.92567
 H1586 H 0.65042 0.54218 0.91281
 O1587 O 0.40135 0.48096 0.92855
 O1588 O 0.37817 0.48102 0.90564
 C1589 C 0.38520 0.47429 0.92170
 C1590 C 0.37483 0.45820 0.93229
 C1591 C 0.35616 0.45171 0.92598
 H1592 H 0.34889 0.45923 0.91387
 O1593 O 0.57140 0.59744 0.98088
 O1594 O 0.59439 0.62050 0.98096
 C1595 C 0.57835 0.61351 0.97417
 C1596 C 0.56791 0.62389 0.95795
 C1597 C 0.57446 0.64242 0.95137
 H1598 H 0.58660 0.64959 0.95892
 O1599 O 0.42867 0.40198 0.98045
 O1600 O 0.40567 0.37892 0.98038
 C1601 C 0.42174 0.38594 0.97365
 C1602 C 0.43219 0.37569 0.95736
 C1603 C 0.42553 0.35731 0.95048
 H1604 H 0.41332 0.35011 0.95789
 O1605 O 0.42825 0.48095 0.90131
 O1606 O 0.40522 0.48100 0.87825
 C1607 C 0.42130 0.47425 0.88520
 C1608 C 0.43189 0.45819 0.87476
 C1609 C 0.42532 0.45136 0.85627
 H1610 H 0.41246 0.45806 0.84950
 O1611 O 0.57185 0.51914 0.90119
 O1612 O 0.59488 0.51920 0.87811
 C1613 C 0.57879 0.52591 0.88511
 C1614 C 0.56820 0.54201 0.87475
 C1615 C 0.57478 0.54892 0.85629
 H1616 H 0.58761 0.54223 0.84946
 O1617 O 0.48048 0.40226 0.92804
 O1618 O 0.48048 0.37922 0.90502
 C1619 C 0.47370 0.38622 0.92107
 C1620 C 0.45749 0.37588 0.93156
 C1621 C 0.45045 0.35761 0.92472
 H1622 H 0.45710 0.35096 0.91178
 O1623 O 0.51964 0.59766 0.92841
 O1624 O 0.51976 0.62080 0.90549
 C1625 C 0.52647 0.61371 0.92153
 C1626 C 0.54264 0.62396 0.93214
 C1627 C 0.54954 0.64241 0.92563
 H1628 H 0.54282 0.64928 0.91283
 O1629 O 0.40145 0.42885 0.98050
 O1630 O 0.37834 0.40590 0.98046
 C1631 C 0.38534 0.42195 0.97375
 C1632 C 0.37493 0.43254 0.95767
 C1633 C 0.35635 0.42610 0.95101
 H1634 H 0.34951 0.41337 0.95786
 O1635 O 0.59858 0.57051 0.98102
 O1636 O 0.62167 0.59347 0.98112
 C1637 C 0.61471 0.57743 0.97434
 C1638 C 0.62513 0.56702 0.95814
 C1639 C 0.64365 0.57362 0.95150
 H1640 H 0.65081 0.58578 0.95902
 O1641 O 0.51919 0.42923 0.90108
 O1642 O 0.51920 0.40629 0.87795
 C1643 C 0.52594 0.42232 0.88497
 C1644 C 0.54213 0.43279 0.87460
 C1645 C 0.54865 0.42641 0.85596
 H1646 H 0.54106 0.41436 0.84869
 O1647 O 0.48090 0.57091 0.90135
 O1648 O 0.48096 0.59394 0.87830
 C1649 C 0.47415 0.57790 0.88529
 C1650 C 0.45787 0.56755 0.87496
 C1651 C 0.45111 0.57421 0.85650
 H1652 H 0.45857 0.58639 0.84931
 O1653 O 0.40141 0.51940 0.92863
 O1654 O 0.37823 0.51951 0.90570
 C1655 C 0.38529 0.52616 0.92179
 C1656 C 0.37498 0.54227 0.93240
 C1657 C 0.35642 0.54894 0.92598
 H1658 H 0.34916 0.54152 0.91380
 O1659 O 0.59873 0.48060 0.92829
 O1660 O 0.62193 0.48056 0.90538
 C1661 C 0.61484 0.47384 0.92144
 C1662 C 0.62515 0.45774 0.93209
 C1663 C 0.64367 0.45092 0.92567
 H1664 H 0.65055 0.45764 0.91287
 O1665 O 0.57119 0.40210 0.98043
 O1666 O 0.59409 0.37895 0.98042
 C1667 C 0.57809 0.38604 0.97362
 C1668 C 0.56759 0.37580 0.95736
 C1669 C 0.57428 0.35745 0.95038
 H1670 H 0.58709 0.35064 0.95714
 O1671 O 0.42890 0.59820 0.98058
 O1672 O 0.40602 0.62137 0.98053
 C1673 C 0.42203 0.61427 0.97377
 C1674 C 0.43258 0.62450 0.95753
 C1675 C 0.42589 0.64283 0.95049
 H1676 H 0.41304 0.64963 0.95720
 Cu1677 Cu 0.58295 0.49988 0.91707
 Cu1678 Cu 0.61070 0.49988 0.88947
 Cu1679 Cu 0.41716 0.50017 0.91727
 Cu1680 Cu 0.38942 0.50028 0.88968
 Cu1681 Cu 0.58259 0.58168 1.00024
 Cu1682 Cu 0.61025 0.60930 1.00035
 Cu1683 Cu 0.58238 0.41777 0.99986
 Cu1684 Cu 0.60992 0.39003 0.99989
 Cu1685 Cu 0.41761 0.58251 0.99993
 Cu1686 Cu 0.39009 0.61028 0.99993
 Cu1687 Cu 0.41737 0.41769 0.99977
 Cu1688 Cu 0.38971 0.39007 0.99972
 Cu1689 Cu 0.50026 0.58199 0.91717
 Cu1690 Cu 0.50036 0.60970 0.88957
 Cu1691 Cu 0.49985 0.41809 0.91693
 Cu1692 Cu 0.49987 0.39049 0.88924
 C1693 C 0.55175 0.44872 0.88373
 H1694 H 0.54691 0.45359 0.89819
 C1695 C 0.56486 0.43546 0.84661
 C1696 C 0.44836 0.55148 0.88399
 H1697 H 0.45338 0.54640 0.89833
 C1698 C 0.43480 0.56526 0.84724
 C1699 C 0.44885 0.61549 0.94832
 H1700 H 0.45387 0.60119 0.95343
 C1701 C 0.43525 0.65215 0.93445
 C1702 C 0.55135 0.38480 0.94810
 H1703 H 0.54633 0.39911 0.95316
 C1704 C 0.56494 0.34810 0.93435
 C1705 C 0.61603 0.44853 0.94831
 H1706 H 0.60158 0.45346 0.95311
 C1707 C 0.65313 0.43512 0.93530
 C1708 C 0.38409 0.55168 0.94849
 H1709 H 0.39850 0.54673 0.95339
 C1710 C 0.34714 0.56511 0.93514
 C1711 C 0.55191 0.55118 0.88377
 H1712 H 0.54699 0.54619 0.89816
 C1713 C 0.56525 0.56479 0.84685
 C1714 C 0.44818 0.44899 0.88373
 H1715 H 0.45309 0.45391 0.89815
 C1716 C 0.43490 0.43558 0.84673
 C1717 C 0.61613 0.55099 0.94856
 H1718 H 0.60175 0.54596 0.95347
 C1719 C 0.65299 0.56468 0.93522
 C1720 C 0.38396 0.44868 0.94830
 H1721 H 0.39844 0.45350 0.95313
 C1722 C 0.34680 0.43562 0.93519
 C1723 C 0.55186 0.61489 0.94839
 H1724 H 0.54685 0.60051 0.95328
 C1725 C 0.56543 0.65180 0.93518
 C1726 C 0.44833 0.38473 0.94796
 H1727 H 0.45344 0.39899 0.95308
 C1728 C 0.43448 0.34816 0.93410
 C1729 C 1.11950 1.11887 1.27970
 C1730 C 1.13487 1.10912 1.28966
 C1731 C 1.14277 1.11694 1.30708
 C1732 C 1.13534 1.13464 1.31513
 C1733 C 1.11978 1.14425 1.30515
 C1734 C 1.11207 1.13653 1.28763
 C1735 C 1.11132 1.11077 1.26108
 N1736 N 1.09991 1.12213 1.24911
 N1737 N 1.09267 1.11495 1.23228
 C1738 C 1.09646 1.09606 1.22674
 N1739 N 1.10781 1.08466 1.23874
 N1740 N 1.11513 1.09188 1.25553
 C1741 C 1.08849 1.08815 1.20795
 C1742 C 1.08841 1.06775 1.20424
 C1743 C 1.08091 1.06034 1.18646
 C1744 C 1.07351 1.07319 1.17189
 C1745 C 1.07368 1.09360 1.17562
 C1746 C 1.08097 1.10098 1.19346
 H1747 H 1.14097 1.09551 1.28390
 H1748 H 1.15469 1.10900 1.31421
 H1749 H 1.11356 1.15788 1.31074
 H1750 H 1.10017 1.14436 1.28036
 H1751 H 1.09396 1.05746 1.21515
 H1752 H 1.08072 1.04453 1.18422
 H1753 H 1.06849 1.10396 1.16459
 H1754 H 1.08098 1.11679 1.19578
 C1755 C 1.11536 0.61658 0.78176
 C1756 C 1.12941 0.60596 0.79276
 C1757 C 1.13732 0.61386 0.81014
 C1758 C 1.13122 0.63246 0.81701
 C1759 C 1.11691 0.64292 0.80619
 C1760 C 1.10915 0.63512 0.78872
 C1761 C 1.10750 0.60856 0.76296
 N1762 N 1.09714 0.62026 0.75037
 N1763 N 1.09040 0.61320 0.73329
 C1764 C 1.09367 0.59412 0.72807
 N1765 N 1.10394 0.58238 0.74070
 N1766 N 1.11075 0.58947 0.75776
 C1767 C 1.08635 0.58640 0.70893
 C1768 C 1.08630 0.56602 0.70503
 C1769 C 1.07938 0.55881 0.68693
 C1770 C 1.07251 0.57183 0.67227
 C1771 C 1.07271 0.59221 0.67616
 C1772 C 1.07944 0.59939 0.69429
 H1773 H 1.13454 0.59166 0.78781
 H1774 H 1.14826 0.60537 0.81815
 H1775 H 1.11190 0.65730 0.81104
 H1776 H 1.09828 0.64365 0.78065
 H1777 H 1.09142 0.55560 0.71603
 H1778 H 1.07919 0.54302 0.68453
 H1779 H 1.06792 0.60269 0.66506
 H1780 H 1.07945 0.61518 0.69673
 C1781 C 0.61959 1.11930 0.77952
 C1782 C 0.63498 1.10958 0.78949
 C1783 C 0.64288 1.11743 0.80689
 C1784 C 0.63542 1.13512 0.81493
 C1785 C 0.61986 1.14471 0.80495
 C1786 C 0.61215 1.13696 0.78744
 C1787 C 0.61141 1.11116 0.76091
 N1788 N 0.59996 1.12248 0.74894
 N1789 N 0.59272 1.11526 0.73213
 C1790 C 0.59653 1.09637 0.72661
 N1791 N 0.60792 1.08501 0.73862
 N1792 N 0.61525 1.09227 0.75539
 C1793 C 0.58856 1.08842 0.70784
 C1794 C 0.58851 1.06801 0.70416
 C1795 C 0.58098 1.06056 0.68641
 C1796 C 0.57351 1.07337 0.67185
 C1797 C 0.57365 1.09379 0.67554
 C1798 C 0.58097 1.10121 0.69336
 H1799 H 0.64109 1.09597 0.78374
 H1800 H 0.65481 1.10950 0.81403
 H1801 H 0.61362 1.15834 0.81053
 H1802 H 0.60024 1.14477 0.78016
 H1803 H 0.59412 1.05774 0.71507
 H1804 H 0.58083 1.04474 0.68419
 H1805 H 0.56840 1.10412 0.66452
 H1806 H 0.58094 1.11702 0.69566
 C1807 C 0.61646 0.61714 1.28134
 C1808 C 0.63522 0.61141 1.28811
 C1809 C 0.64294 0.61923 1.30557
 C1810 C 0.63215 0.63311 1.31662
 C1811 C 0.61334 0.63881 1.30990
 C1812 C 0.60553 0.63084 1.29250
 C1813 C 0.60852 0.60903 1.26260
 N1814 N 0.58932 0.61180 1.25744
 N1815 N 0.58232 0.60460 1.24050
 C1816 C 0.59425 0.59438 1.22799
 N1817 N 0.61343 0.59162 1.23316
 N1818 N 0.62041 0.59875 1.25012
 C1819 C 0.58661 0.58656 1.20901
 C1820 C 0.59972 0.57947 1.19454
 C1821 C 0.59262 0.57231 1.17653
 C1822 C 0.57223 0.57188 1.17260
 C1823 C 0.55910 0.57886 1.18714
 C1824 C 0.56621 0.58618 1.20510
 H1825 H 0.64401 0.60084 1.27994
 H1826 H 0.65749 0.61452 1.31027
 H1827 H 0.60462 0.64943 1.31809
 H1828 H 0.59104 0.63559 1.28767
 H1829 H 0.61552 0.57969 1.19699
 H1830 H 0.60317 0.56742 1.16553
 H1831 H 0.54329 0.57848 1.18471
 H1832 H 0.55571 0.59142 1.21598
 C1833 C 0.88187 0.88159 1.27988
 C1834 C 0.88934 0.86393 1.28778
 C1835 C 0.88164 0.85615 1.30529
 C1836 C 0.86606 0.86570 1.31528
 C1837 C 0.85862 0.88343 1.30728
 C1838 C 0.86651 0.89131 1.28989
 C1839 C 0.88994 0.88972 1.26121
 N1840 N 0.88601 0.90859 1.25567
 N1841 N 0.89315 0.91582 1.23880
 C1842 C 0.90443 0.90445 1.22671
 N1843 N 0.90835 0.88558 1.23225
 N1844 N 0.90130 0.87839 1.24916
 C1845 C 0.91217 0.91235 1.20781
 C1846 C 0.91959 0.89952 1.19329
 C1847 C 0.92672 0.90689 1.17537
 C1848 C 0.92682 0.92730 1.17161
 C1849 C 0.91947 0.94015 1.18619
 C1850 C 0.91213 0.93275 1.20405
 H1851 H 0.90125 0.85613 1.28047
 H1852 H 0.88786 0.84250 1.31085
 H1853 H 0.84668 0.89134 1.31443
 H1854 H 0.86038 0.90491 1.28416
 H1855 H 0.91966 0.88372 1.19564
 H1856 H 0.93187 0.89653 1.16433
 H1857 H 0.91959 0.95596 1.18391
 H1858 H 0.90663 0.94304 1.21499
 C1859 C 0.88152 0.38216 0.78009
 C1860 C 0.88868 0.36430 0.78781
 C1861 C 0.88080 0.35643 0.80519
 C1862 C 0.86534 0.36610 0.81527
 C1863 C 0.85827 0.38409 0.80752
 C1864 C 0.86634 0.39205 0.79023
 C1865 C 0.88970 0.39022 0.76143
 N1866 N 0.88599 0.40911 0.75585
 N1867 N 0.89324 0.41623 0.73897
 C1868 C 0.90443 0.40471 0.72692
 N1869 N 0.90813 0.38582 0.73251
 N1870 N 0.90096 0.37874 0.74942
 C1871 C 0.91229 0.41246 0.70800
 C1872 C 0.91972 0.39949 0.69359
 C1873 C 0.92692 0.40669 0.67563
 C1874 C 0.92709 0.42707 0.67169
 C1875 C 0.91976 0.44005 0.68618
 C1876 C 0.91236 0.43282 0.70408
 H1877 H 0.90044 0.35635 0.78043
 H1878 H 0.88677 0.34259 0.81055
 H1879 H 0.84646 0.39210 0.81476
 H1880 H 0.86047 0.40583 0.78465
 H1881 H 0.91973 0.38370 0.69606
 H1882 H 0.93205 0.39623 0.66468
 H1883 H 0.91994 0.45585 0.68377
 H1884 H 0.90686 0.44322 0.71492
 C1885 C 0.38246 0.88284 0.78054
 C1886 C 0.38813 0.86401 0.78715
 C1887 C 0.38034 0.85620 0.80459
 C1888 C 0.36654 0.86695 0.81579
 C1889 C 0.36092 0.88583 0.80925
 C1890 C 0.36886 0.89372 0.79186
 C1891 C 0.39051 0.89088 0.76182
 N1892 N 0.38774 0.91010 0.75681
 N1893 N 0.39487 0.91721 0.73987
 C1894 C 0.40499 0.90538 0.72720
 N1895 N 0.40775 0.88617 0.73222
 N1896 N 0.40070 0.87909 0.74918
 C1897 C 0.41272 0.91314 0.70822
 C1898 C 0.41974 0.90015 0.69362
 C1899 C 0.42685 0.90737 0.67564
 C1900 C 0.42729 0.92776 0.67185
 C1901 C 0.42036 0.94076 0.68650
 C1902 C 0.41308 0.93353 0.70445
 H1903 H 0.39863 0.85525 0.77884
 H1904 H 0.38498 0.84160 0.80915
 H1905 H 0.35036 0.89453 0.81755
 H1906 H 0.36415 0.90826 0.78718
 H1907 H 0.41952 0.88435 0.69597
 H1908 H 0.43170 0.89691 0.66455
 H1909 H 0.42074 0.95657 0.68418
 H1910 H 0.40789 0.94394 0.71543
 C1911 C 0.38319 0.38413 1.28181
 C1912 C 0.39267 0.36833 1.29132
 C1913 C 0.38479 0.36021 1.30862
 C1914 C 0.36732 0.36786 1.31700
 C1915 C 0.35810 0.38399 1.30760
 C1916 C 0.36587 0.39191 1.29018
 C1917 C 0.39111 0.39223 1.26306
 N1918 N 0.37969 0.40379 1.25130
 N1919 N 0.38662 0.41073 1.23423
 C1920 C 0.40530 0.40649 1.22824
 N1921 N 0.41678 0.39503 1.24006
 N1922 N 0.40980 0.38799 1.25709
 C1923 C 0.41287 0.41400 1.20912
 C1924 C 0.43321 0.41380 1.20493
 C1925 C 0.44028 0.42082 1.18682
 C1926 C 0.42715 0.42800 1.17238
 C1927 C 0.40679 0.42809 1.17658
 C1928 C 0.39976 0.42129 1.19477
 H1929 H 0.40603 0.36197 1.28522
 H1930 H 0.39246 0.34788 1.31532
 H1931 H 0.34467 0.39041 1.31349
 H1932 H 0.35827 0.40417 1.28327
 H1933 H 0.44371 0.40840 1.21573
 H1934 H 0.45607 0.42083 1.18421
 H1935 H 0.39621 0.43312 1.16569
 H1936 H 0.38398 0.42148 1.19745
 C1937 C 0.88362 1.11693 0.71860
 C1938 C 0.86798 1.10738 0.70887
 C1939 C 0.85966 1.11551 0.69179
 C1940 C 0.86691 1.13334 0.68386
 C1941 C 0.88294 1.14258 0.69342
 C1942 C 0.89108 1.13454 0.71060
 C1943 C 0.89183 1.10889 0.73725
 N1944 N 0.90334 1.12029 0.74908
 N1945 N 0.91035 1.11330 0.76609
 C1946 C 0.90624 1.09458 0.77197
 N1947 N 0.89483 1.08312 0.76008
 N1948 N 0.88772 1.09015 0.74310
 C1949 C 0.91381 1.08698 0.79106
 C1950 C 0.91359 1.06667 0.79524
 C1951 C 0.92068 1.05959 0.81333
 C1952 C 0.92795 1.07268 0.82774
 C1953 C 0.92806 1.09301 0.82354
 C1954 C 0.92120 1.10005 0.80539
 H1955 H 0.86189 1.09378 0.71467
 H1956 H 0.84742 1.10781 0.68493
 H1957 H 0.88909 1.15626 0.68787
 H1958 H 0.90322 1.14221 0.71765
 H1959 H 0.90812 1.05620 0.78446
 H1960 H 0.92065 1.04383 0.81593
 H1961 H 0.93315 1.10356 0.83441
 H1962 H 0.92140 1.11581 0.80272
 C1963 C 0.88540 0.61593 0.21756
 C1964 C 0.87113 0.60539 0.20676
 C1965 C 0.86294 0.61338 0.18954
 C1966 C 0.86898 0.63200 0.18264
 C1967 C 0.88357 0.64233 0.19322
 C1968 C 0.89161 0.63443 0.21051
 C1969 C 0.89343 0.60797 0.23631
 N1970 N 0.90396 0.61972 0.24870
 N1971 N 0.91082 0.61279 0.26579
 C1972 C 0.90751 0.59378 0.27121
 N1973 N 0.89708 0.58198 0.25878
 N1974 N 0.89014 0.58894 0.24171
 C1975 C 0.91491 0.58623 0.29039
 C1976 C 0.91497 0.56590 0.29450
 C1977 C 0.92189 0.55888 0.31268
 C1978 C 0.92875 0.57204 0.32721
 C1979 C 0.92859 0.59238 0.32309
 C1980 C 0.92185 0.59937 0.30488
 H1981 H 0.86601 0.59111 0.21179
 H1982 H 0.85179 0.60501 0.18171
 H1983 H 0.88857 0.65671 0.18835
 H1984 H 0.90264 0.64289 0.21840
 H1985 H 0.90982 0.55538 0.28362
 H1986 H 0.92207 0.54312 0.31525
 H1987 H 0.93338 0.60297 0.33407
 H1988 H 0.92185 0.61514 0.30227
 C1989 C 0.38445 1.11612 0.21771
 C1990 C 0.39193 1.13368 0.20962
 C1991 C 0.38382 1.14162 0.19238
 C1992 C 0.36781 1.13233 0.18284
 C1993 C 0.36056 1.11453 0.19084
 C1994 C 0.36885 1.10649 0.20799
 C1995 C 0.39259 1.10821 0.23643
 N1996 N 0.38851 1.08950 0.24238
 N1997 N 0.39554 1.08260 0.25943
 C1998 C 0.40684 1.09416 0.27132
 N1999 N 0.41093 1.11286 0.26535
 N2000 N 0.40400 1.11972 0.24826
 C2001 C 0.41431 1.08671 0.29050
 C2002 C 0.42150 1.09990 0.30482
 C2003 C 0.42826 1.09299 0.32306
 C2004 C 0.42822 1.07269 0.32736
 C2005 C 0.42116 1.05948 0.31296
 C2006 C 0.41418 1.06642 0.29478
 H2007 H 0.40404 1.14139 0.21666
 H2008 H 0.38998 1.15528 0.18678
 H2009 H 0.34834 1.10679 0.18400
 H2010 H 0.36275 1.09293 0.21385
 H2011 H 0.42163 1.11564 0.30207
 H2012 H 0.43320 1.10363 0.33393
 H2013 H 0.42121 1.04373 0.31564
 H2014 H 0.40886 1.05587 0.28401
 C2015 C 0.38217 0.61806 0.71957
 C2016 C 0.36860 0.60715 0.70826
 C2017 C 0.36059 0.61505 0.69091
 C2018 C 0.36611 0.63397 0.68440
 C2019 C 0.37988 0.64475 0.69559
 C2020 C 0.38774 0.63693 0.71300
 C2021 C 0.39030 0.60999 0.73825
 N2022 N 0.40050 0.62176 0.75088
 N2023 N 0.40761 0.61465 0.76780
 C2024 C 0.40488 0.59543 0.77279
 N2025 N 0.39475 0.58362 0.76012
 N2026 N 0.38757 0.59075 0.74323
 C2027 C 0.41267 0.58763 0.79172
 C2028 C 0.41299 0.56723 0.79547
 C2029 C 0.42029 0.55996 0.81339
 C2030 C 0.42730 0.57292 0.82803
 C2031 C 0.42690 0.59332 0.82427
 C2032 C 0.41977 0.60058 0.80632
 H2033 H 0.36396 0.59258 0.71291
 H2034 H 0.35006 0.60632 0.68262
 H2035 H 0.38445 0.65938 0.69104
 H2036 H 0.39822 0.64571 0.72130
 H2037 H 0.40774 0.55685 0.78451
 H2038 H 0.42064 0.54415 0.81570
 H2039 H 0.43182 0.60375 0.83535
 H2040 H 0.41959 0.61638 0.80399
 C2041 C 1.11565 0.88371 0.71754
 C2042 C 1.12985 0.89423 0.70661
 C2043 C 1.13805 0.88613 0.68944
 C2044 C 1.13210 0.86741 0.68273
 C2045 C 1.11758 0.85712 0.69343
 C2046 C 1.10952 0.86513 0.71066
 C2047 C 1.10760 0.89179 0.73624
 N2048 N 1.09708 0.88012 0.74872
 N2049 N 1.09022 0.88716 0.76576
 C2050 C 1.09352 0.90620 0.77106
 N2051 N 1.10395 0.91793 0.75854
 N2052 N 1.11089 0.91086 0.74151
 C2053 C 1.08612 0.91386 0.79020
 C2054 C 1.08610 0.93421 0.79421
 C2055 C 1.07915 0.94133 0.81234
 C2056 C 1.07221 0.92825 0.82692
 C2057 C 1.07234 0.90790 0.82290
 C2058 C 1.07911 0.90081 0.80474
 H2059 H 1.13490 0.90857 0.71150
 H2060 H 1.14915 0.89449 0.68152
 H2061 H 1.11264 0.84267 0.68871
 H2062 H 1.09853 0.85668 0.71865
 H2063 H 1.09131 0.94468 0.78329
 H2064 H 1.07901 0.95711 0.81484
 H2065 H 1.06749 0.89737 0.83392
 H2066 H 1.07908 0.88503 0.80221
 C2067 C 1.11604 0.38362 0.21719
 C2068 C 1.13167 0.39318 0.20744
 C2069 C 1.13999 0.38505 0.19035
 C2070 C 1.13275 0.36721 0.18245
 C2071 C 1.11671 0.35798 0.19201
 C2072 C 1.10858 0.36602 0.20920
 C2073 C 1.10788 0.39164 0.23587
 N2074 N 1.09643 0.38021 0.24774
 N2075 N 1.08948 0.38716 0.26479
 C2076 C 1.09361 0.40587 0.27067
 N2077 N 1.10496 0.41736 0.25874
 N2078 N 1.11200 0.41037 0.24172
 C2079 C 1.08614 0.41341 0.28982
 C2080 C 1.08633 0.43372 0.29403
 C2081 C 1.07934 0.44074 0.31217
 C2082 C 1.07220 0.42761 0.32661
 C2083 C 1.07212 0.40729 0.32238
 C2084 C 1.07888 0.40030 0.30418
 H2085 H 1.13777 0.40678 0.21322
 H2086 H 1.15223 0.39274 0.18348
 H2087 H 1.11056 0.34430 0.18649
 H2088 H 1.09644 0.35835 0.21627
 H2089 H 1.09171 0.44422 0.28322
 H2090 H 1.07934 0.45650 0.31480
 H2091 H 1.06712 0.39670 0.33328
 H2092 H 1.07870 0.38455 0.30149
 C2093 C 0.61756 0.88201 0.21917
 C2094 C 0.60767 0.86675 0.20920
 C2095 C 0.61557 0.85865 0.19189
 C2096 C 0.63348 0.86578 0.18397
 C2097 C 0.64314 0.88133 0.19389
 C2098 C 0.63534 0.88923 0.21129
 C2099 C 0.60958 0.89024 0.23784
 N2100 N 0.62113 0.90151 0.24975
 N2101 N 0.61413 0.90874 0.26666
 C2102 C 0.59523 0.90509 0.27235
 N2103 N 0.58363 0.89389 0.26040
 N2104 N 0.59068 0.88657 0.24353
 C2105 C 0.58756 0.91303 0.29126
 C2106 C 0.56717 0.91324 0.29521
 C2107 C 0.56001 0.92070 0.31311
 C2108 C 0.57309 0.92792 0.32757
 C2109 C 0.59349 0.92763 0.32360
 C2110 C 0.60062 0.92039 0.30563
 H2111 H 0.59395 0.86083 0.21492
 H2112 H 0.60757 0.84677 0.18477
 H2113 H 0.65691 0.88735 0.18840
 H2114 H 0.64327 0.90106 0.21854
 H2115 H 0.55671 0.90782 0.28440
 H2116 H 0.54420 0.92098 0.31554
 H2117 H 0.60402 0.93269 0.33452
 H2118 H 0.61643 0.92028 0.30313
 C2119 C 0.61564 0.38423 0.71758
 C2120 C 0.62990 0.39475 0.70675
 C2121 C 0.63807 0.38674 0.68951
 C2122 C 0.63200 0.36812 0.68265
 C2123 C 0.61742 0.35782 0.69327
 C2124 C 0.60941 0.36574 0.71056
 C2125 C 0.60761 0.39219 0.73634
 N2126 N 0.59705 0.38045 0.74872
 N2127 N 0.59017 0.38738 0.76580
 C2128 C 0.59349 0.40638 0.77123
 N2129 N 0.60395 0.41819 0.75880
 N2130 N 0.61091 0.41122 0.74174
 C2131 C 0.58604 0.41393 0.79040
 C2132 C 0.58597 0.43426 0.79451
 C2133 C 0.57899 0.44127 0.81266
 C2134 C 0.57207 0.42810 0.82718
 C2135 C 0.57224 0.40777 0.82305
 C2136 C 0.57904 0.40078 0.80486
 H2137 H 0.63504 0.40903 0.71176
 H2138 H 0.64922 0.39510 0.68166
 H2139 H 0.61240 0.34344 0.68843
 H2140 H 0.59837 0.35728 0.71847
 H2141 H 0.59116 0.44479 0.78364
 H2142 H 0.57880 0.45703 0.81524
 H2143 H 0.56741 0.39718 0.83402
 H2144 H 0.57905 0.38502 0.80226
 C2145 C 1.28129 1.11696 1.11749
 C2146 C 1.29141 1.10710 1.13270
 C2147 C 1.30870 1.11506 1.14074
 C2148 C 1.31644 1.13303 1.13362
 C2149 C 1.30639 1.14266 1.11812
 C2150 C 1.28901 1.13479 1.11027
 C2151 C 1.26261 1.10893 1.10938
 N2152 N 1.25059 1.12041 1.09815
 N2153 N 1.23365 1.11337 1.09107
 C2154 C 1.22803 1.09450 1.09484
 N2155 N 1.24009 1.08297 1.10599
 N2156 N 1.25701 1.09005 1.11316
 C2157 C 1.20907 1.08680 1.08709
 C2158 C 1.20512 1.06644 1.08705
 C2159 C 1.18717 1.05925 1.07976
 C2160 C 1.17267 1.07227 1.07254
 C2161 C 1.17664 1.09264 1.07268
 C2162 C 1.19465 1.09980 1.07976
 H2163 H 1.28582 1.09334 1.13862
 H2164 H 1.31593 1.10708 1.15258
 H2165 H 1.31175 1.15648 1.11210
 H2166 H 1.28164 1.14271 1.09848
 H2167 H 1.21597 1.05602 1.09247
 H2168 H 1.18473 1.04346 1.07960
 H2169 H 1.16569 1.10313 1.06762
 H2170 H 1.19715 1.11558 1.07974
 C2171 C 1.28189 0.61656 0.61555
 C2172 C 1.28976 0.63420 0.60802
 C2173 C 1.30692 0.64235 0.61609
 C2174 C 1.31656 0.63320 0.63214
 C2175 C 1.30876 0.61534 0.63946
 C2176 C 1.29171 0.60710 0.63120
 C2177 C 1.26327 0.60839 0.60745
 N2178 N 1.25756 0.58963 0.61165
 N2179 N 1.24059 0.58249 0.60467
 C2180 C 1.22856 0.59386 0.59331
 N2181 N 1.23429 0.61260 0.58910
 N2182 N 1.25130 0.61970 0.59598
 C2183 C 1.20947 0.58614 0.58590
 C2184 C 1.19502 0.59913 0.57860
 C2185 C 1.17689 0.59199 0.57184
 C2186 C 1.17283 0.57164 0.57195
 C2187 C 1.18733 0.55863 0.57917
 C2188 C 1.20541 0.56581 0.58616
 H2189 H 1.28263 0.64179 0.59587
 H2190 H 1.31237 0.65604 0.60988
 H2191 H 1.31569 0.60770 0.65170
 H2192 H 1.28602 0.59349 0.63735
 H2193 H 1.19759 0.61490 0.57838
 H2194 H 1.16594 0.60249 0.56680
 H2195 H 1.18482 0.54285 0.57920
 H2196 H 1.21627 0.55540 0.59157
 C2197 C 0.78050 1.11805 0.61832
 C2198 C 0.79061 1.10818 0.63353
 C2199 C 0.80785 1.11618 0.64165
 C2200 C 0.81556 1.13418 0.63460
 C2201 C 0.80552 1.14384 0.61911
 C2202 C 0.78819 1.13593 0.61119
 C2203 C 0.76190 1.10996 0.61010
 N2204 N 0.74987 1.12141 0.59885
 N2205 N 0.73300 1.11430 0.59166
 C2206 C 0.72747 1.09539 0.59534
 N2207 N 0.73953 1.08389 0.60652
 N2208 N 0.75637 1.09104 0.61380
 C2209 C 0.70858 1.08760 0.58747
 C2210 C 0.70473 1.06723 0.58737
 C2211 C 0.68686 1.05996 0.57999
 C2212 C 0.67232 1.07291 0.57273
 C2213 C 0.67619 1.09330 0.57292
 C2214 C 0.69413 1.10054 0.58009
 H2215 H 0.78505 1.09439 0.63939
 H2216 H 0.81507 1.10818 0.65349
 H2217 H 0.81086 1.15768 0.61315
 H2218 H 0.78083 1.14387 0.59940
 H2219 H 0.71561 1.05685 0.59283
 H2220 H 0.68451 1.04416 0.57979
 H2221 H 0.66520 1.10375 0.56783
 H2222 H 0.69654 1.11634 0.58011
 C2223 C 0.78053 0.61709 1.11709
 C2224 C 0.79194 0.60622 1.13062
 C2225 C 0.80941 0.61408 1.13836
 C2226 C 0.81596 0.63292 1.13259
 C2227 C 0.80468 0.64366 1.11886
 C2228 C 0.78714 0.63588 1.11127
 C2229 C 0.76173 0.60906 1.10925
 N2230 N 0.74901 0.62083 1.09915
 N2231 N 0.73199 0.61374 1.09229
 C2232 C 0.72698 0.59456 1.09518
 N2233 N 0.73972 0.58274 1.10522
 N2234 N 0.75672 0.58986 1.11215
 C2235 C 0.70795 0.58678 1.08764
 C2236 C 0.70417 0.56638 1.08737
 C2237 C 0.68620 0.55913 1.08020
 C2238 C 0.67153 0.57212 1.07327
 C2239 C 0.67531 0.59252 1.07367
 C2240 C 0.69331 0.59975 1.08067
 H2241 H 0.78726 0.59172 1.13545
 H2242 H 0.81778 0.60539 1.14887
 H2243 H 0.80925 0.65822 1.11411
 H2244 H 0.77876 0.64462 1.10081
 H2245 H 0.71517 0.55598 1.09253
 H2246 H 0.68388 0.54333 1.07986
 H2247 H 0.66421 0.60297 1.06883
 H2248 H 0.69566 0.61555 1.08082
 C2249 C 1.28223 0.88385 0.88473
 C2250 C 1.29024 0.86628 0.89226
 C2251 C 1.30746 0.85826 0.88419
 C2252 C 1.31702 0.86748 0.86813
 C2253 C 1.30909 0.88528 0.86081
 C2254 C 1.29198 0.89339 0.86908
 C2255 C 1.26353 0.89187 0.89283
 N2256 N 1.25770 0.91060 0.88866
 N2257 N 1.24066 0.91760 0.89563
 C2258 C 1.22870 0.90612 0.90695
 N2259 N 1.23455 0.88742 0.91113
 N2260 N 1.25163 0.88045 0.90426
 C2261 C 1.20953 0.91369 0.91433
 C2262 C 1.19513 0.90059 0.92152
 C2263 C 1.17690 0.90760 0.92819
 C2264 C 1.17269 0.92793 0.92808
 C2265 C 1.18717 0.94105 0.92100
 C2266 C 1.20534 0.93400 0.91411
 H2267 H 1.28316 0.85863 0.90441
 H2268 H 1.31301 0.84461 0.89039
 H2269 H 1.31596 0.89296 0.84857
 H2270 H 1.28617 0.90696 0.86292
 H2271 H 1.19780 0.88484 0.92171
 H2272 H 1.16597 0.89703 0.93313
 H2273 H 1.18456 0.95681 0.92099
 H2274 H 1.21617 0.94449 0.90878
 C2275 C 1.28172 0.38290 0.38336
 C2276 C 1.29003 0.36556 0.39114
 C2277 C 1.30749 0.35782 0.38327
 C2278 C 1.31699 0.36709 0.36720
 C2279 C 1.30863 0.38454 0.35953
 C2280 C 1.29131 0.39239 0.36759
 C2281 C 1.26300 0.39085 0.39146
 N2282 N 1.25712 0.40955 0.38724
 N2283 N 1.24014 0.41658 0.39431
 C2284 C 1.22827 0.40516 0.40578
 N2285 N 1.23417 0.38647 0.41000
 N2286 N 1.25119 0.37948 0.40303
 C2287 C 1.20921 0.41281 0.41333
 C2288 C 1.19481 0.39980 0.42068
 C2289 C 1.17668 0.40692 0.42751
 C2290 C 1.17258 0.42727 0.42740
 C2291 C 1.18706 0.44030 0.42017
 C2292 C 1.20512 0.43314 0.41312
 H2293 H 1.28306 0.35795 0.40337
 H2294 H 1.31334 0.34441 0.38971
 H2295 H 1.31541 0.39224 0.34724
 H2296 H 1.28526 0.40575 0.36122
 H2297 H 1.19742 0.38403 0.42088
 H2298 H 1.16575 0.39641 0.43257
 H2299 H 1.18453 0.45607 0.42016
 H2300 H 1.21595 0.44357 0.40768
 C2301 C 0.78165 0.88425 0.38348
 C2302 C 0.78879 0.89055 0.36502
 C2303 C 0.80606 0.88250 0.35711
 C2304 C 0.81655 0.86782 0.36739
 C2305 C 0.80955 0.86167 0.38598
 C2306 C 0.79234 0.86987 0.39398
 C2307 C 0.76292 0.89235 0.39143
 N2308 N 0.75748 0.88909 0.41050
 N2309 N 0.74045 0.89614 0.41746
 C2310 C 0.72812 0.90666 0.40561
 N2311 N 0.73359 0.90993 0.38657
 N2312 N 0.75063 0.90296 0.37965
 C2313 C 0.70900 0.91423 0.41315
 C2314 C 0.69457 0.92122 0.39995
 C2315 C 0.67643 0.92814 0.40694
 C2316 C 0.67233 0.92847 0.42731
 C2317 C 0.68682 0.92157 0.44053
 C2318 C 0.70491 0.91445 0.43352
 H2319 H 0.78099 0.90167 0.35658
 H2320 H 0.81099 0.88759 0.34275
 H2321 H 0.81731 0.85044 0.39431
 H2322 H 0.78723 0.86469 0.40824
 H2323 H 0.69716 0.92109 0.38415
 H2324 H 0.66549 0.93296 0.39630
 H2325 H 0.68426 0.92187 0.45633
 H2326 H 0.71576 0.90928 0.44409
 C2327 C 0.78160 0.38344 0.88366
 C2328 C 0.78962 0.36583 0.89111
 C2329 C 0.80677 0.35778 0.88292
 C2330 C 0.81628 0.36701 0.86683
 C2331 C 0.80834 0.38484 0.85959
 C2332 C 0.79129 0.39298 0.86798
 C2333 C 0.76299 0.39148 0.89193
 N2334 N 0.75716 0.41024 0.88787
 N2335 N 0.74021 0.41727 0.89502
 C2336 C 0.72832 0.40579 0.90642
 N2337 N 0.73417 0.38706 0.91050
 N2338 N 0.75116 0.38007 0.90344
 C2339 C 0.70924 0.41339 0.91402
 C2340 C 0.69488 0.40031 0.92132
 C2341 C 0.67672 0.40735 0.92816
 C2342 C 0.67256 0.42768 0.92812
 C2343 C 0.68702 0.44079 0.92096
 C2344 C 0.70510 0.43371 0.91390
 H2345 H 0.78260 0.35817 0.90329
 H2346 H 0.81232 0.34411 0.88907
 H2347 H 0.81516 0.39253 0.84732
 H2348 H 0.78548 0.40658 0.86188
 H2349 H 0.69752 0.38455 0.92145
 H2350 H 0.66582 0.39679 0.93317
 H2351 H 0.68444 0.45655 0.92100
 H2352 H 0.71591 0.44419 0.90850
 C2353 C 0.72078 0.88116 1.11858
 C2354 C 0.71395 0.88696 1.13732
 C2355 C 0.69642 0.87924 1.14500
 C2356 C 0.68538 0.86538 1.13420
 C2357 C 0.69221 0.85953 1.11546
 C2358 C 0.70967 0.86741 1.10770
 C2359 C 0.73943 0.88931 1.11051
 N2360 N 0.74443 0.88655 1.09125
 N2361 N 0.76124 0.89384 1.08406
 C2362 C 0.77381 0.90413 1.09584
 N2363 N 0.76881 0.90688 1.11510
 N2364 N 0.75197 0.89966 1.12226
 C2365 C 0.79262 0.91209 1.08794
 C2366 C 0.80720 0.91929 1.10085
 C2367 C 0.82503 0.92662 1.09348
 C2368 C 0.82865 0.92713 1.07301
 C2369 C 0.81402 0.92001 1.06010
 C2370 C 0.79624 0.91251 1.06748
 H2371 H 0.72211 0.89757 1.14608
 H2372 H 0.69161 0.88404 1.15950
 H2373 H 0.68404 0.84893 1.10672
 H2374 H 0.71453 0.86258 1.09323
 H2375 H 0.80497 0.91904 1.11670
 H2376 H 0.83611 0.93162 1.10388
 H2377 H 0.81621 0.92043 1.04424
 H2378 H 0.78526 0.90718 1.05712
 C2379 C 0.71912 0.38275 0.61652
 C2380 C 0.70902 0.39263 0.63174
 C2381 C 0.69169 0.38474 0.63976
 C2382 C 0.68387 0.36682 0.63261
 C2383 C 0.69389 0.35717 0.61710
 C2384 C 0.71132 0.36497 0.60928
 C2385 C 0.73782 0.39074 0.60841
 N2386 N 0.74983 0.37923 0.59719
 N2387 N 0.76680 0.38624 0.59011
 C2388 C 0.77244 0.40510 0.59387
 N2389 N 0.76040 0.41665 0.60502
 N2390 N 0.74346 0.40960 0.61219
 C2391 C 0.79143 0.41278 0.58614
 C2392 C 0.79540 0.43313 0.58608
 C2393 C 0.81338 0.44029 0.57882
 C2394 C 0.82788 0.42726 0.57165
 C2395 C 0.82389 0.40689 0.57179
 C2396 C 0.80585 0.39976 0.57884
 H2397 H 0.71467 0.40635 0.63768
 H2398 H 0.68449 0.39273 0.65161
 H2399 H 0.68847 0.34339 0.61107
 H2400 H 0.71867 0.35704 0.59748
 H2401 H 0.78455 0.44356 0.59148
 H2402 H 0.81583 0.45608 0.57865
 H2403 H 0.83485 0.39639 0.56677
 H2404 H 0.80334 0.38398 0.57883
 C2405 C 0.21930 0.88228 0.61690
 C2406 C 0.21167 0.86441 0.60968
 C2407 C 0.19427 0.85650 0.61747
 C2408 C 0.18411 0.86614 0.63289
 C2409 C 0.19177 0.88413 0.64001
 C2410 C 0.20907 0.89213 0.63204
 C2411 C 0.23798 0.89040 0.60885
 N2412 N 0.24346 0.90931 0.61264
 N2413 N 0.26037 0.91649 0.60554
 C2414 C 0.27255 0.90503 0.59445
 N2415 N 0.26706 0.88612 0.59067
 N2416 N 0.25012 0.87898 0.59768
 C2417 C 0.29151 0.91285 0.58679
 C2418 C 0.30604 0.89994 0.57950
 C2419 C 0.32403 0.90722 0.57248
 C2420 C 0.32787 0.92761 0.57235
 C2421 C 0.31328 0.94054 0.57955
 C2422 C 0.29534 0.93323 0.58677
 H2423 H 0.21914 0.85649 0.59795
 H2424 H 0.18897 0.84266 0.61147
 H2425 H 0.18446 0.89212 0.65180
 H2426 H 0.21459 0.90592 0.63796
 H2427 H 0.30364 0.88415 0.57947
 H2428 H 0.33506 0.89680 0.56745
 H2429 H 0.31562 0.95634 0.57940
 H2430 H 0.28441 0.94358 0.59217
 C2431 C 0.21942 0.38235 1.11724
 C2432 C 0.20921 0.39225 1.13236
 C2433 C 0.19192 0.38429 1.14039
 C2434 C 0.18424 0.36627 1.13335
 C2435 C 0.19437 0.35658 1.11793
 C2436 C 0.21176 0.36446 1.11009
 C2437 C 0.23810 0.39041 1.10914
 N2438 N 0.25020 0.37893 1.09799
 N2439 N 0.26715 0.38601 1.09094
 C2440 C 0.27268 0.40491 1.09465
 N2441 N 0.26054 0.41644 1.10572
 N2442 N 0.24362 0.40932 1.11287
 C2443 C 0.29165 0.41267 1.08694
 C2444 C 0.29554 0.43304 1.08686
 C2445 C 0.31348 0.44027 1.07960
 C2446 C 0.32804 0.42729 1.07243
 C2447 C 0.32414 0.40691 1.07261
 C2448 C 0.30613 0.39970 1.07967
 H2449 H 0.21474 0.40605 1.13823
 H2450 H 0.18463 0.39231 1.15217
 H2451 H 0.18907 0.34273 1.11198
 H2452 H 0.21920 0.35650 1.09837
 H2453 H 0.28463 0.44343 1.09224
 H2454 H 0.31586 0.45607 1.07941
 H2455 H 0.33514 0.39644 1.06760
 H2456 H 0.30369 0.38391 1.07968
 C2457 C 0.71831 1.11656 0.88368
 C2458 C 0.70866 1.13232 0.89310
 C2459 C 0.69159 1.14059 0.88490
 C2460 C 0.68359 1.13316 0.86715
 C2461 C 0.69305 1.11699 0.85808
 C2462 C 0.71023 1.10891 0.86617
 C2463 C 0.73698 1.10844 0.89174
 N2464 N 0.74880 1.09690 0.88035
 N2465 N 0.76584 1.08998 0.88734
 C2466 C 0.77175 1.09422 0.90605
 N2467 N 0.75987 1.10565 0.91750
 N2468 N 0.74286 1.11267 0.91047
 C2469 C 0.79087 1.08674 0.91363
 C2470 C 0.79506 1.08690 0.93398
 C2471 C 0.81316 1.07984 0.94104
 C2472 C 0.82757 1.07265 0.92788
 C2473 C 0.82338 1.07264 0.90751
 C2474 C 0.80522 1.07948 0.90050
 H2475 H 0.71452 1.13856 0.90661
 H2476 H 0.68479 1.15293 0.89248
 H2477 H 0.68745 1.11069 0.84447
 H2478 H 0.71722 1.09667 0.85862
 H2479 H 0.78427 1.09229 0.94450
 H2480 H 0.81576 1.07980 0.95683
 H2481 H 0.83426 1.06764 0.89690
 H2482 H 0.80255 1.07933 0.88471
 C2483 C 0.71988 0.61808 0.38268
 C2484 C 0.70877 0.63177 0.39365
 C2485 C 0.69123 0.63958 0.38602
 C2486 C 0.68432 0.63374 0.36732
 C2487 C 0.69534 0.61991 0.35643
 C2488 C 0.71295 0.61225 0.36398
 C2489 C 0.73865 0.61004 0.39055
 N2490 N 0.75116 0.59982 0.37865
 N2491 N 0.76813 0.59272 0.38563
 C2492 C 0.77328 0.59546 0.40483
 N2493 N 0.76075 0.60563 0.41677
 N2494 N 0.74381 0.61280 0.40977
 C2495 C 0.79224 0.58764 0.41251
 C2496 C 0.79605 0.58716 0.43293
 C2497 C 0.81397 0.57979 0.44010
 C2498 C 0.82855 0.57288 0.42700
 C2499 C 0.82473 0.57344 0.40658
 C2500 C 0.80677 0.58064 0.39943
 H2501 H 0.71371 0.63661 0.40808
 H2502 H 0.68307 0.65016 0.39481
 H2503 H 0.69047 0.61511 0.34196
 H2504 H 0.72110 0.60169 0.35516
 H2505 H 0.78512 0.59233 0.44342
 H2506 H 0.81631 0.57931 0.45593
 H2507 H 0.83577 0.56860 0.39605
 H2508 H 0.80439 0.58094 0.38360
 C2509 C 0.21827 1.11607 0.38382
 C2510 C 0.20862 1.13183 0.39324
 C2511 C 0.19154 1.14009 0.38507
 C2512 C 0.18352 1.13265 0.36733
 C2513 C 0.19297 1.11648 0.35825
 C2514 C 0.21016 1.10841 0.36632
 C2515 C 0.23696 1.10798 0.39185
 N2516 N 0.24878 1.09647 0.38044
 N2517 N 0.26585 1.08958 0.38739
 C2518 C 0.27179 1.09383 0.40609
 N2519 N 0.25991 1.10524 0.41757
 N2520 N 0.24287 1.11222 0.41057
 C2521 C 0.29095 1.08641 0.41363
 C2522 C 0.29517 1.08657 0.43397
 C2523 C 0.31331 1.07956 0.44099
 C2524 C 0.32772 1.07244 0.42780
 C2525 C 0.32349 1.07242 0.40744
 C2526 C 0.30529 1.07919 0.40046
 H2527 H 0.21450 1.13809 0.40675
 H2528 H 0.18475 1.15243 0.39265
 H2529 H 0.18736 1.11017 0.34465
 H2530 H 0.21715 1.09617 0.35877
 H2531 H 0.28438 1.09192 0.44451
 H2532 H 0.31594 1.07952 0.45677
 H2533 H 0.33436 1.06746 0.39680
 H2534 H 0.30259 1.07905 0.38468
 C2535 C 0.21841 0.61629 0.88375
 C2536 C 0.21121 0.61001 0.86530
 C2537 C 0.19371 0.61780 0.85763
 C2538 C 0.18308 0.63222 0.86812
 C2539 C 0.19020 0.63842 0.88663
 C2540 C 0.20761 0.63047 0.89441
 C2541 C 0.23722 0.60833 0.89163
 N2542 N 0.24259 0.61153 0.91072
 N2543 N 0.25964 0.60456 0.91768
 C2544 C 0.27207 0.59419 0.90582
 N2545 N 0.26668 0.59099 0.88674
 N2546 N 0.24961 0.59788 0.87981
 C2547 C 0.29119 0.58668 0.91340
 C2548 C 0.30569 0.57975 0.90025
 C2549 C 0.32381 0.57284 0.90730
 C2550 C 0.32781 0.57249 0.92770
 C2551 C 0.31326 0.57935 0.94087
 C2552 C 0.29519 0.58644 0.93379
 H2553 H 0.21911 0.59905 0.85675
 H2554 H 0.18868 0.61270 0.84332
 H2555 H 0.18233 0.64945 0.89514
 H2556 H 0.21276 0.63566 0.90864
 H2557 H 0.30317 0.57989 0.88445
 H2558 H 0.33481 0.56806 0.89671
 H2559 H 0.31575 0.57903 0.95668
 H2560 H 0.28428 0.59157 0.94433
 C2561 C 1.11939 1.27856 1.11852
 C2562 C 1.10844 1.28976 1.13217
 C2563 C 1.11614 1.30725 1.13995
 C2564 C 1.13488 1.31406 1.13412
 C2565 C 1.14577 1.30292 1.12038
 C2566 C 1.13816 1.28534 1.11274
 C2567 C 1.11135 1.25990 1.11043
 N2568 N 1.12313 1.24729 1.10019
 N2569 N 1.11596 1.23044 1.09303
 C2570 C 1.09670 1.22551 1.09573
 N2571 N 1.08489 1.23815 1.10591
 N2572 N 1.09208 1.25496 1.11315
 C2573 C 1.08879 1.20670 1.08784
 C2574 C 1.06833 1.20315 1.08737
 C2575 C 1.06093 1.18537 1.07994
 C2576 C 1.07383 1.17067 1.07295
 C2577 C 1.09429 1.17423 1.07350
 C2578 C 1.10167 1.19205 1.08076
 H2579 H 1.09396 1.28494 1.13698
 H2580 H 1.10733 1.31549 1.15046
 H2581 H 1.16027 1.30771 1.11559
 H2582 H 1.14696 1.27711 1.10222
 H2583 H 1.05799 1.21417 1.09259
 H2584 H 1.04508 1.18323 1.07948
 H2585 H 1.10467 1.16309 1.06860
 H2586 H 1.11752 1.19423 1.08104
 C2587 C 1.11918 0.77845 0.61787
 C2588 C 1.10820 0.78967 0.63147
 C2589 C 1.11587 0.80719 0.63922
 C2590 C 1.13462 0.81400 0.63340
 C2591 C 1.14553 0.80285 0.61968
 C2592 C 1.13794 0.78524 0.61208
 C2593 C 1.11118 0.75972 0.60987
 N2594 N 1.12298 0.74709 0.59969
 N2595 N 1.11586 0.73018 0.59264
 C2596 C 1.09661 0.72521 0.59539
 N2597 N 1.08478 0.73788 0.60551
 N2598 N 1.09193 0.75475 0.61263
 C2599 C 1.08874 0.70633 0.58761
 C2600 C 1.06829 0.70272 0.58721
 C2601 C 1.06093 0.68488 0.57988
 C2602 C 1.07385 0.67019 0.57293
 C2603 C 1.09431 0.67380 0.57343
 C2604 C 1.10165 0.69168 0.58059
 H2605 H 1.09373 0.78485 0.63629
 H2606 H 1.10705 0.81544 0.64971
 H2607 H 1.16003 0.80764 0.61490
 H2608 H 1.14676 0.77699 0.60158
 H2609 H 1.05793 0.71374 0.59239
 H2610 H 1.04509 0.68270 0.57945
 H2611 H 1.10471 0.66267 0.56856
 H2612 H 1.11750 0.69391 0.58084
 C2613 C 0.61860 1.27943 0.61761
 C2614 C 0.63734 1.28620 0.61174
 C2615 C 0.64499 1.30379 0.61932
 C2616 C 0.63415 1.31494 0.63309
 C2617 C 0.61541 1.30817 0.63896
 C2618 C 0.60768 1.29066 0.63124
 C2619 C 0.61058 1.26069 0.60967
 N2620 N 0.59133 1.25572 0.61250
 N2621 N 0.58417 1.23882 0.60544
 C2622 C 0.59598 1.22613 0.59533
 N2623 N 0.61522 1.23110 0.59251
 N2624 N 0.62235 1.24804 0.59949
 C2625 C 0.58812 1.20723 0.58765
 C2626 C 0.60104 1.19256 0.58067
 C2627 C 0.59371 1.17466 0.57356
 C2628 C 0.57326 1.17103 0.57307
 C2629 C 0.56032 1.18573 0.57999
 C2630 C 0.56767 1.20359 0.58727
 H2631 H 0.64612 1.27794 0.60122
 H2632 H 0.65949 1.30855 0.61450
 H2633 H 0.60664 1.31642 0.64950
 H2634 H 0.59322 1.28585 0.63611
 H2635 H 0.61688 1.19480 0.58090
 H2636 H 0.60412 1.16353 0.56872
 H2637 H 0.54448 1.18353 0.57957
 H2638 H 0.55731 1.21462 0.59243
 C2639 C 0.61620 0.78081 1.11586
 C2640 C 0.60562 0.79165 1.13008
 C2641 C 0.61362 0.80885 1.13824
 C2642 C 0.63229 0.81569 1.13222
 C2643 C 0.64266 0.80506 1.11769
 C2644 C 0.63475 0.78780 1.10968
 C2645 C 0.60822 0.76210 1.10779
 N2646 N 0.62001 0.74971 1.09731
 N2647 N 0.61306 0.73269 1.09039
 C2648 C 0.59399 0.72734 1.09358
 N2649 N 0.58214 0.73977 1.10398
 N2650 N 0.58913 0.75677 1.11099
 C2651 C 0.58642 0.70823 1.08608
 C2652 C 0.56604 0.70421 1.08586
 C2653 C 0.55900 0.68612 1.07883
 C2654 C 0.57218 0.67157 1.07203
 C2655 C 0.59256 0.67561 1.07235
 C2656 C 0.59958 0.69374 1.07919
 H2657 H 0.59129 0.78666 1.13518
 H2658 H 0.60521 0.81671 1.14936
 H2659 H 0.65708 0.80988 1.11270
 H2660 H 0.64325 0.77988 1.09867
 H2661 H 0.55550 0.71510 1.09096
 H2662 H 0.54320 0.68361 1.07853
 H2663 H 0.60316 0.66462 1.06761
 H2664 H 0.61537 0.69628 1.07931
 C2665 C 0.88066 1.27866 0.88035
 C2666 C 0.86694 1.28978 0.89129
 C2667 C 0.85902 1.30719 0.88354
 C2668 C 0.86477 1.31399 0.86476
 C2669 C 0.87857 1.30292 0.85388
 C2670 C 0.88635 1.28542 0.86154
 C2671 C 0.88894 1.26009 0.88845
 N2672 N 0.89930 1.24755 0.87670
 N2673 N 0.90665 1.23080 0.88393
 C2674 C 0.90404 1.22592 0.90323
 N2675 N 0.89374 1.23849 0.91500
 N2676 N 0.88632 1.25521 0.90776
 C2677 C 0.91214 1.20722 0.91120
 C2678 C 0.91265 1.20374 0.93169
 C2679 C 0.92021 1.18604 0.93916
 C2680 C 0.92729 1.17134 0.92631
 C2681 C 0.92674 1.17484 0.90582
 C2682 C 0.91935 1.19259 0.89837
 H2683 H 0.86220 1.28496 0.90580
 H2684 H 0.84846 1.31538 0.89234
 H2685 H 0.88330 1.30770 0.83934
 H2686 H 0.89692 1.27725 0.85274
 H2687 H 0.90734 1.21475 0.94200
 H2688 H 0.92068 1.18395 0.95502
 H2689 H 0.93172 1.16370 0.89547
 H2690 H 0.91904 1.19471 0.88250
 C2691 C 0.88260 0.77961 0.38183
 C2692 C 0.88823 0.78630 0.36298
 C2693 C 0.88043 0.80376 0.35527
 C2694 C 0.86666 0.81488 0.36613
 C2695 C 0.86103 0.80822 0.38500
 C2696 C 0.86898 0.79083 0.39280
 C2697 C 0.89075 0.76094 0.38983
 N2698 N 0.88809 0.75592 0.40910
 N2699 N 0.89535 0.73907 0.41620
 C2700 C 0.90551 0.72648 0.40430
 N2701 N 0.90815 0.73151 0.38504
 N2702 N 0.90096 0.74839 0.37797
 C2703 C 0.91340 0.70761 0.41207
 C2704 C 0.92044 0.69305 0.39905
 C2705 C 0.92766 0.67514 0.40627
 C2706 C 0.92820 0.67139 0.42672
 C2707 C 0.92127 0.68600 0.43975
 C2708 C 0.91388 0.70387 0.43251
 H2709 H 0.89874 0.77807 0.35416
 H2710 H 0.88508 0.80842 0.34067
 H2711 H 0.85049 0.81646 0.39378
 H2712 H 0.86429 0.78607 0.40735
 H2713 H 0.92015 0.69537 0.38321
 H2714 H 0.93251 0.66408 0.39579
 H2715 H 0.92173 0.68372 0.45559
 H2716 H 0.90868 0.71482 0.44295
 C2717 C 0.38403 1.28115 0.38289
 C2718 C 0.39026 1.28829 0.36439
 C2719 C 0.38239 1.30573 0.35668
 C2720 C 0.36796 1.31635 0.36718
 C2721 C 0.36180 1.30927 0.38573
 C2722 C 0.36982 1.29193 0.39354
 C2723 C 0.39209 1.26243 0.39084
 N2724 N 0.38893 1.25713 0.40996
 N2725 N 0.39599 1.24017 0.41699
 C2726 C 0.40642 1.22775 0.40517
 N2727 N 0.40958 1.23306 0.38606
 N2728 N 0.40260 1.25005 0.37906
 C2729 C 0.41401 1.20872 0.41285
 C2730 C 0.42101 1.19420 0.39977
 C2731 C 0.42794 1.17614 0.40691
 C2732 C 0.42825 1.17221 0.42733
 C2733 C 0.42134 1.18679 0.44042
 C2734 C 0.41423 1.20480 0.43326
 H2735 H 0.40124 1.28041 0.35584
 H2736 H 0.38745 1.31074 0.34234
 H2737 H 0.35076 1.31713 0.39424
 H2738 H 0.36466 1.28682 0.40781
 H2739 H 0.42089 1.19666 0.38395
 H2740 H 0.43277 1.16512 0.39637
 H2741 H 0.42163 1.18437 0.45624
 H2742 H 0.40905 1.21571 0.44374
 C2743 C 0.38149 0.77912 0.88164
 C2744 C 0.36780 0.79022 0.89263
 C2745 C 0.35990 0.80768 0.88496
 C2746 C 0.36567 0.81455 0.86621
 C2747 C 0.37946 0.80351 0.85529
 C2748 C 0.38721 0.78596 0.86287
 C2749 C 0.38971 0.76048 0.88962
 N2750 N 0.40000 0.74798 0.87777
 N2751 N 0.40729 0.73115 0.88486
 C2752 C 0.40468 0.72614 0.90413
 N2753 N 0.39444 0.73866 0.91601
 N2754 N 0.38707 0.75546 0.90889
 C2755 C 0.41270 0.70734 0.91195
 C2756 C 0.41323 0.70371 0.93240
 C2757 C 0.42071 0.68591 0.93972
 C2758 C 0.42768 0.67127 0.92674
 C2759 C 0.42712 0.67493 0.90628
 C2760 C 0.41981 0.69277 0.89898
 H2761 H 0.36304 0.78534 0.90711
 H2762 H 0.34935 0.81586 0.89379
 H2763 H 0.38420 0.80833 0.84077
 H2764 H 0.39776 0.77781 0.85403
 H2765 H 0.40799 0.71467 0.94280
 H2766 H 0.42119 0.68370 0.95556
 H2767 H 0.43201 0.66384 0.89584
 H2768 H 0.41948 0.69502 0.88313
 C2769 C 1.11638 0.71944 0.88415
 C2770 C 1.10565 0.70852 0.87013
 C2771 C 1.11338 0.69107 0.86228
 C2772 C 1.13194 0.68403 0.86842
 C2773 C 1.14252 0.69479 0.88268
 C2774 C 1.13488 0.71234 0.89038
 C2775 C 1.10852 0.73829 0.89201
 N2776 N 1.12034 0.75074 0.90237
 N2777 N 1.11341 0.76784 0.90916
 C2778 C 1.09434 0.77319 0.90595
 N2779 N 1.08248 0.76070 0.89566
 N2780 N 1.08943 0.74363 0.88880
 C2781 C 1.08675 0.79233 0.91335
 C2782 C 1.06637 0.79636 0.91347
 C2783 C 1.05928 0.81444 0.92046
 C2784 C 1.07242 0.82898 0.92734
 C2785 C 1.09281 0.82495 0.92710
 C2786 C 1.09987 0.80682 0.92028
 H2787 H 1.09138 0.71359 0.86498
 H2788 H 1.10481 0.68311 0.85137
 H2789 H 1.15687 0.68982 0.88772
 H2790 H 1.14350 0.72033 0.90122
 H2791 H 1.05585 0.78547 0.90833
 H2792 H 1.04348 0.81695 0.92070
 H2793 H 1.10338 0.83594 0.93191
 H2794 H 1.11567 0.80428 0.92023
 C2795 C 1.11824 0.22037 0.38190
 C2796 C 1.13180 0.20913 0.39292
 C2797 C 1.13980 0.19175 0.38513
 C2798 C 1.13427 0.18513 0.36622
 C2799 C 1.12053 0.19627 0.35532
 C2800 C 1.11269 0.21370 0.36302
 C2801 C 1.11008 0.23904 0.38987
 N2802 N 1.09991 0.25160 0.37797
 N2803 N 1.09273 0.26849 0.38500
 C2804 C 1.09533 0.27353 0.40426
 N2805 N 1.10543 0.26094 0.41619
 N2806 N 1.11269 0.24407 0.40914
 C2807 C 1.08745 0.29243 0.41197
 C2808 C 1.08694 0.29619 0.43240
 C2809 C 1.07957 0.31408 0.43960
 C2810 C 1.07267 0.32868 0.42653
 C2811 C 1.07323 0.32490 0.40610
 C2812 C 1.08044 0.30697 0.39892
 H2813 H 1.13642 0.21387 0.40749
 H2814 H 1.15029 0.18351 0.39394
 H2815 H 1.11596 0.19164 0.34070
 H2816 H 1.10223 0.22195 0.35416
 H2817 H 1.09211 0.28526 0.44287
 H2818 H 1.07909 0.31640 0.45543
 H2819 H 1.06840 0.33594 0.39559
 H2820 H 1.08075 0.30462 0.38308
 C2821 C 0.61530 0.71859 0.38540
 C2822 C 0.60470 0.70771 0.37123
 C2823 C 0.61266 0.69043 0.36318
 C2824 C 0.63130 0.68356 0.36925
 C2825 C 0.64168 0.69423 0.38374
 C2826 C 0.63381 0.71156 0.39165
 C2827 C 0.60739 0.73740 0.39329
 N2828 N 0.61921 0.74981 0.40369
 N2829 N 0.61232 0.76694 0.41043
 C2830 C 0.59329 0.77238 0.40712
 N2831 N 0.58142 0.75991 0.39681
 N2832 N 0.58833 0.74280 0.38999
 C2833 C 0.58581 0.79159 0.41440
 C2834 C 0.56546 0.79575 0.41453
 C2835 C 0.55850 0.81394 0.42139
 C2836 C 0.57175 0.82845 0.42812
 C2837 C 0.59210 0.82429 0.42786
 C2838 C 0.59903 0.80607 0.42119
 H2839 H 0.59041 0.71271 0.36609
 H2840 H 0.60424 0.68254 0.35210
 H2841 H 0.65608 0.68939 0.38877
 H2842 H 0.64232 0.71952 0.40261
 H2843 H 0.55487 0.78488 0.40950
 H2844 H 0.54272 0.81655 0.42164
 H2845 H 0.60276 0.83525 0.43254
 H2846 H 0.61481 0.80343 0.42112
 C2847 C 0.61822 0.22079 0.88179
 C2848 C 0.63178 0.20954 0.89280
 C2849 C 0.63980 0.19219 0.88498
 C2850 C 0.63429 0.18560 0.86606
 C2851 C 0.62056 0.19675 0.85516
 C2852 C 0.61270 0.21417 0.86290
 C2853 C 0.61002 0.23944 0.88981
 N2854 N 0.59986 0.25202 0.87794
 N2855 N 0.59265 0.26888 0.88501
 C2856 C 0.59522 0.27386 0.90429
 N2857 N 0.60533 0.26125 0.91620
 N2858 N 0.61261 0.24441 0.90910
 C2859 C 0.58732 0.29273 0.91206
 C2860 C 0.58680 0.29644 0.93250
 C2861 C 0.57939 0.31430 0.93975
 C2862 C 0.57248 0.32893 0.92672
 C2863 C 0.57305 0.32520 0.90628
 C2864 C 0.58029 0.30730 0.89904
 H2865 H 0.63638 0.21425 0.90739
 H2866 H 0.65029 0.18393 0.89379
 H2867 H 0.61601 0.19215 0.84053
 H2868 H 0.60224 0.22242 0.85404
 H2869 H 0.59197 0.28548 0.94294
 H2870 H 0.57891 0.31656 0.95559
 H2871 H 0.56822 0.33627 0.89580
 H2872 H 0.58061 0.30501 0.88320
 C2873 C 0.88239 0.72040 1.11712
 C2874 C 0.89333 0.70917 1.13074
 C2875 C 0.88561 0.69169 1.13854
 C2876 C 0.86684 0.68493 1.13276
 C2877 C 0.85599 0.69605 1.11898
 C2878 C 0.86363 0.71362 1.11132
 C2879 C 0.89038 0.73914 1.10915
 N2880 N 0.87858 0.75176 1.09895
 N2881 N 0.88568 0.76871 1.09197
 C2882 C 0.90490 0.77375 1.09482
 N2883 N 0.91672 0.76109 1.10495
 N2884 N 0.90961 0.74416 1.11200
 C2885 C 0.91271 0.79269 1.08716
 C2886 C 0.93314 0.79643 1.08688
 C2887 C 0.94044 0.81434 1.07965
 C2888 C 0.92746 0.82898 1.07268
 C2889 C 0.90703 0.82525 1.07306
 C2890 C 0.89975 0.80730 1.08012
 H2891 H 0.90781 0.71398 1.13556
 H2892 H 0.89440 0.68346 1.14908
 H2893 H 0.84147 0.69130 1.11423
 H2894 H 0.85483 0.72187 1.10081
 H2895 H 0.94353 0.78546 1.09209
 H2896 H 0.95627 0.81663 1.07932
 H2897 H 0.89659 0.83633 1.06818
 H2898 H 0.88392 0.80498 1.08028
 C2899 C 0.88053 0.22172 0.61951
 C2900 C 0.89142 0.21060 0.63326
 C2901 C 0.88367 0.19318 0.64116
 C2902 C 0.86494 0.18636 0.63533
 C2903 C 0.85410 0.19743 0.62149
 C2904 C 0.86177 0.21494 0.61375
 C2905 C 0.88864 0.24030 0.61126
 N2906 N 0.87692 0.25284 0.60087
 N2907 N 0.88415 0.26959 0.59354
 C2908 C 0.90342 0.27450 0.59622
 N2909 N 0.91516 0.26193 0.60656
 N2910 N 0.90792 0.24521 0.61396
 C2911 C 0.91140 0.29320 0.58813
 C2912 C 0.93187 0.29670 0.58768
 C2913 C 0.93934 0.31439 0.58009
 C2914 C 0.92650 0.32906 0.57292
 C2915 C 0.90603 0.32555 0.57344
 C2916 C 0.89858 0.30781 0.58086
 H2917 H 0.90590 0.21543 0.63806
 H2918 H 0.89244 0.18499 0.65175
 H2919 H 0.83961 0.19264 0.61671
 H2920 H 0.85301 0.22311 0.60314
 H2921 H 0.94217 0.28570 0.59305
 H2922 H 0.95519 0.31649 0.57965
 H2923 H 0.89570 0.33666 0.56840
 H2924 H 0.88272 0.30567 0.58113
 C2925 C 0.38062 0.72187 0.61851
 C2926 C 0.36694 0.71073 0.60756
 C2927 C 0.35910 0.69324 0.61526
 C2928 C 0.36491 0.68641 0.63400
 C2929 C 0.37867 0.69750 0.64490
 C2930 C 0.38636 0.71506 0.63728
 C2931 C 0.38881 0.74051 0.61049
 N2932 N 0.39912 0.75302 0.62229
 N2933 N 0.40642 0.76983 0.61515
 C2934 C 0.40379 0.77481 0.59588
 N2935 N 0.39352 0.76227 0.58405
 N2936 N 0.38615 0.74549 0.59121
 C2937 C 0.41185 0.79357 0.58801
 C2938 C 0.41236 0.79716 0.56754
 C2939 C 0.41993 0.81491 0.56018
 C2940 C 0.42701 0.82953 0.57311
 C2941 C 0.42645 0.82592 0.59358
 C2942 C 0.41905 0.80812 0.60093
 H2943 H 0.36216 0.71558 0.59307
 H2944 H 0.34857 0.68504 0.60645
 H2945 H 0.38344 0.69270 0.65941
 H2946 H 0.39690 0.72324 0.64610
 H2947 H 0.40706 0.78621 0.55717
 H2948 H 0.42040 0.81709 0.54432
 H2949 H 0.43142 0.83699 0.60398
 H2950 H 0.41874 0.80591 0.61678
 C2951 C 0.38124 0.22066 1.11843
 C2952 C 0.39218 0.20956 1.13216
 C2953 C 0.38450 0.19209 1.14003
 C2954 C 0.36578 0.18523 1.13421
 C2955 C 0.35490 0.19627 1.12038
 C2956 C 0.36250 0.21382 1.11266
 C2957 C 0.38925 0.23931 1.11026
 N2958 N 0.37746 0.25184 1.09994
 N2959 N 0.38459 0.26867 1.09271
 C2960 C 0.40384 0.27366 1.09541
 N2961 N 0.41566 0.26110 1.10566
 N2962 N 0.40850 0.24429 1.11297
 C2963 C 0.41171 0.29246 1.08746
 C2964 C 0.43216 0.29607 1.08701
 C2965 C 0.43952 0.31387 1.07958
 C2966 C 0.42659 0.32854 1.07257
 C2967 C 0.40614 0.32491 1.07306
 C2968 C 0.39879 0.30707 1.08033
 H2969 H 0.40664 0.21443 1.13697
 H2970 H 0.39329 0.18392 1.15060
 H2971 H 0.34042 0.19144 1.11560
 H2972 H 0.35371 0.22198 1.10207
 H2973 H 0.44252 0.28509 1.09227
 H2974 H 0.45536 0.31606 1.07915
 H2975 H 0.39574 0.33601 1.06814
 H2976 H 0.38295 0.30484 1.08059
 C2977 C 1.11531 1.11734 0.71794
 C2978 C 1.12947 1.10677 0.70703
 C2979 C 1.13742 1.11466 0.68967
 C2980 C 1.13125 1.13322 0.68271
 C2981 C 1.11682 1.14362 0.69343
 C2982 C 1.10902 1.13582 0.71089
 C2983 C 1.10742 1.10934 0.73675
 N2984 N 1.09700 1.12104 0.74929
 N2985 N 1.09025 1.11401 0.76639
 C2986 C 1.09355 1.09495 0.77166
 N2987 N 1.10387 1.08321 0.75907
 N2988 N 1.11070 1.09027 0.74200
 C2989 C 1.08624 1.08725 0.79082
 C2990 C 1.08617 1.06687 0.79474
 C2991 C 1.07928 1.05969 0.81286
 C2992 C 1.07246 1.07271 0.82754
 C2993 C 1.07265 1.09309 0.82362
 C2994 C 1.07935 1.10026 0.80545
 H2995 H 1.13466 1.09251 0.71206
 H2996 H 1.14845 1.10622 0.68173
 H2997 H 1.11175 1.15796 0.68851
 H2998 H 1.09807 1.14431 0.71889
 H2999 H 1.09128 1.05644 0.78374
 H3000 H 1.07908 1.04389 0.81529
 H3001 H 1.06788 1.10358 0.83471
 H3002 H 1.07937 1.11604 0.80300
 C3003 C 1.11769 0.61879 0.21904
 C3004 C 1.10774 0.63403 0.20907
 C3005 C 1.11567 0.64225 0.19182
 C3006 C 1.13368 0.63528 0.18398
 C3007 C 1.14339 0.61976 0.19390
 C3008 C 1.13556 0.61173 0.21122
 C3009 C 1.10969 0.61044 0.23765
 N3010 N 1.12125 0.59913 0.24953
 N3011 N 1.11424 0.59181 0.26639
 C3012 C 1.09533 0.59539 0.27207
 N3013 N 1.08372 0.60663 0.26016
 N3014 N 1.09077 0.61404 0.24332
 C3015 C 1.08766 0.58736 0.29096
 C3016 C 1.06728 0.58716 0.29493
 C3017 C 1.06013 0.57965 0.31281
 C3018 C 1.07321 0.57234 0.32723
 C3019 C 1.09360 0.57260 0.32322
 C3020 C 1.10072 0.57991 0.30528
 H3021 H 1.09395 0.63982 0.21474
 H3022 H 1.10763 0.65411 0.18470
 H3023 H 1.15724 0.61385 0.18846
 H3024 H 1.14354 0.59992 0.21847
 H3025 H 1.05681 0.59266 0.28415
 H3026 H 1.04432 0.57939 0.31526
 H3027 H 1.10414 0.56747 0.33412
 H3028 H 1.11653 0.57999 0.30276
 C3029 C 0.61603 1.11788 0.21801
 C3030 C 0.63188 1.10852 0.20843
 C3031 C 0.64000 1.11652 0.19120
 C3032 C 0.63230 1.13401 0.18292
 C3033 C 0.61612 1.14311 0.19238
 C3034 C 0.60821 1.13522 0.20975
 C3035 C 0.60796 1.10982 0.23670
 N3036 N 0.59637 1.12111 0.24857
 N3037 N 0.58947 1.11405 0.26560
 C3038 C 0.59378 1.09536 0.27145
 N3039 N 0.60526 1.08402 0.25952
 N3040 N 0.61226 1.09112 0.24253
 C3041 C 0.58633 1.08766 0.29054
 C3042 C 0.58657 1.06732 0.29459
 C3043 C 0.57957 1.06012 0.31266
 C3044 C 0.57237 1.07311 0.32720
 C3045 C 0.57226 1.09347 0.32314
 C3046 C 0.57903 1.10063 0.30500
 H3047 H 0.63829 1.09516 0.21444
 H3048 H 0.65236 1.10894 0.18444
 H3049 H 0.60966 1.15654 0.18658
 H3050 H 0.59591 1.14272 0.21672
 H3051 H 0.59198 1.05692 0.28371
 H3052 H 0.57959 1.04434 0.31516
 H3053 H 0.56723 1.10396 0.33411
 H3054 H 0.57882 1.11641 0.30243
 C3055 C 0.61602 0.61713 0.71823
 C3056 C 0.60984 0.63566 0.71123
 C3057 C 0.61766 0.64345 0.69377
 C3058 C 0.63200 0.63298 0.68300
 C3059 C 0.63809 0.61438 0.68993
 C3060 C 0.63011 0.60651 0.70729
 C3061 C 0.60806 0.60912 0.73701
 N3062 N 0.61127 0.59002 0.74222
 N3063 N 0.60435 0.58294 0.75925
 C3064 C 0.59402 0.59468 0.77183
 N3065 N 0.59080 0.61376 0.76660
 N3066 N 0.59764 0.62082 0.74954
 C3067 C 0.58659 0.58695 0.79093
 C3068 C 0.57961 0.59994 0.80554
 C3069 C 0.57279 0.59275 0.82365
 C3070 C 0.57257 0.57237 0.82754
 C3071 C 0.57950 0.55936 0.81290
 C3072 C 0.58650 0.56657 0.79483
 H3073 H 0.59894 0.64420 0.71925
 H3074 H 0.61266 0.65783 0.68889
 H3075 H 0.64905 0.60589 0.68196
 H3076 H 0.63522 0.59221 0.71228
 H3077 H 0.57963 0.61573 0.80310
 H3078 H 0.56795 0.60322 0.83473
 H3079 H 0.57929 0.54356 0.81530
 H3080 H 0.59167 0.55616 0.78385
 C3081 C 0.88498 0.88424 0.71779
 C3082 C 0.89124 0.86570 0.71090
 C3083 C 0.88336 0.85773 0.69357
 C3084 C 0.86889 0.86802 0.68279
 C3085 C 0.86281 0.88669 0.68954
 C3086 C 0.87084 0.89475 0.70680
 C3087 C 0.89285 0.89229 0.73659
 N3088 N 0.88948 0.91134 0.74187
 N3089 N 0.89628 0.91838 0.75896
 C3090 C 0.90663 0.90664 0.77153
 N3091 N 0.91000 0.88761 0.76622
 N3092 N 0.90329 0.88060 0.74911
 C3093 C 0.91391 0.91428 0.79072
 C3094 C 0.92085 0.90120 0.80527
 C3095 C 0.92758 0.90827 0.82345
 C3096 C 0.92776 0.92862 0.82747
 C3097 C 0.92085 0.94172 0.81290
 C3098 C 0.91393 0.93462 0.79475
 H3099 H 0.90219 0.85726 0.71894
 H3100 H 0.88839 0.84332 0.68883
 H3101 H 0.85175 0.89505 0.68155
 H3102 H 0.86568 0.90906 0.71170
 H3103 H 0.92087 0.88542 0.80273
 H3104 H 0.93240 0.89773 0.83447
 H3105 H 0.92102 0.95750 0.81541
 H3106 H 0.90877 0.94510 0.78382
 C3107 C 0.88486 0.38443 0.21718
 C3108 C 0.89250 0.36692 0.20914
 C3109 C 0.88448 0.35887 0.19191
 C3110 C 0.86838 0.36801 0.18235
 C3111 C 0.86096 0.38576 0.19031
 C3112 C 0.86918 0.39390 0.20743
 C3113 C 0.89289 0.39244 0.23591
 N3114 N 0.88866 0.41113 0.24180
 N3115 N 0.89558 0.41811 0.25886
 C3116 C 0.90692 0.40663 0.27081
 N3117 N 0.91117 0.38796 0.26489
 N3118 N 0.90434 0.38103 0.24779
 C3119 C 0.91428 0.41415 0.29000
 C3120 C 0.92146 0.40101 0.30437
 C3121 C 0.92818 0.40797 0.32260
 C3122 C 0.92814 0.42828 0.32683
 C3123 C 0.92104 0.44145 0.31240
 C3124 C 0.91409 0.43445 0.29423
 H3125 H 0.90468 0.35933 0.21621
 H3126 H 0.89076 0.34526 0.18635
 H3127 H 0.84868 0.39338 0.18344
 H3128 H 0.86295 0.40742 0.21326
 H3129 H 0.92162 0.38526 0.30166
 H3130 H 0.93312 0.39735 0.33349
 H3131 H 0.92107 0.45720 0.31504
 H3132 H 0.90877 0.44497 0.28342
 C3133 C 0.38554 0.88416 0.21751
 C3134 C 0.37130 0.89460 0.20658
 C3135 C 0.36318 0.88646 0.18940
 C3136 C 0.36926 0.86779 0.18267
 C3137 C 0.38385 0.85758 0.19337
 C3138 C 0.39182 0.86563 0.21062
 C3139 C 0.39347 0.89226 0.23626
 N3140 N 0.40396 0.88061 0.24877
 N3141 N 0.41069 0.88766 0.26586
 C3142 C 0.40728 0.90669 0.27115
 N3143 N 0.39688 0.91839 0.25859
 N3144 N 0.39007 0.91131 0.24152
 C3145 C 0.41455 0.91435 0.29034
 C3146 C 0.41456 0.93470 0.29435
 C3147 C 0.42144 0.94182 0.31250
 C3148 C 0.42832 0.92874 0.32711
 C3149 C 0.42815 0.90838 0.32310
 C3150 C 0.42146 0.90129 0.30492
 H3151 H 0.36613 0.90890 0.21148
 H3152 H 0.35203 0.89476 0.18147
 H3153 H 0.38888 0.84317 0.18863
 H3154 H 0.40285 0.85724 0.21861
 H3155 H 0.40943 0.94517 0.28339
 H3156 H 0.42161 0.95760 0.31499
 H3157 H 0.43294 0.89785 0.33414
 H3158 H 0.42148 0.88551 0.30240
 C3159 C 0.38435 0.38334 0.71803
 C3160 C 0.36866 0.39273 0.70823
 C3161 C 0.36045 0.38448 0.69116
 C3162 C 0.36787 0.36668 0.68331
 C3163 C 0.38398 0.35762 0.69291
 C3164 C 0.39200 0.36578 0.71010
 C3165 C 0.39238 0.39149 0.73670
 N3166 N 0.40388 0.38020 0.74866
 N3167 N 0.41069 0.38727 0.76571
 C3168 C 0.40638 0.40597 0.77150
 N3169 N 0.39499 0.41733 0.75949
 N3170 N 0.38809 0.41021 0.74247
 C3171 C 0.41372 0.41365 0.79065
 C3172 C 0.41342 0.43398 0.79477
 C3173 C 0.42038 0.44112 0.81288
 C3174 C 0.42760 0.42809 0.82736
 C3175 C 0.42773 0.40774 0.82325
 C3176 C 0.42100 0.40064 0.80508
 H3177 H 0.36242 0.40629 0.71397
 H3178 H 0.34816 0.39205 0.68425
 H3179 H 0.39026 0.34398 0.68743
 H3180 H 0.40419 0.35824 0.71721
 H3181 H 0.40800 0.44440 0.78391
 H3182 H 0.42032 0.45689 0.81543
 H3183 H 0.43277 0.39722 0.83419
 H3184 H 0.42125 0.38487 0.80247
 C3185 C 1.11527 0.88403 1.28246
 C3186 C 1.10776 0.86644 1.29045
 C3187 C 1.11586 0.85838 1.30764
 C3188 C 1.13192 0.86757 1.31720
 C3189 C 1.13920 0.88540 1.30929
 C3190 C 1.13091 0.89355 1.29221
 C3191 C 1.10715 0.89208 1.26378
 N3192 N 1.11132 0.91081 1.25794
 N3193 N 1.10435 0.91783 1.24091
 C3194 C 1.09302 0.90637 1.22895
 N3195 N 1.08883 0.88767 1.23481
 N3196 N 1.09571 0.88069 1.25188
 C3197 C 1.08564 0.91395 1.20978
 C3198 C 1.07843 0.90085 1.19539
 C3199 C 1.07175 0.90787 1.17716
 C3200 C 1.07187 0.92819 1.17294
 C3201 C 1.07898 0.94130 1.18741
 C3202 C 1.08588 0.93425 1.20557
 H3203 H 1.09561 0.85880 1.28338
 H3204 H 1.10968 0.84471 1.31318
 H3205 H 1.15145 0.89307 1.31616
 H3206 H 1.13704 0.90713 1.28642
 H3207 H 1.07822 0.88510 1.19807
 H3208 H 1.06679 0.89729 1.16625
 H3209 H 1.07901 0.95706 1.18478
 H3210 H 1.09123 0.94474 1.21640
 C3211 C 1.11740 0.38113 0.78023
 C3212 C 1.11164 0.36238 0.78700
 C3213 C 1.11933 0.35472 0.80457
 C3214 C 1.13312 0.36555 0.81569
 C3215 C 1.13888 0.38430 0.80892
 C3216 C 1.13104 0.39204 0.79145
 C3217 C 1.10936 0.38917 0.76151
 N3218 N 1.11217 0.40838 0.75653
 N3219 N 1.10507 0.41555 0.73962
 C3220 C 1.09492 0.40377 0.72694
 N3221 N 1.09212 0.38456 0.73192
 N3222 N 1.09915 0.37742 0.74886
 C3223 C 1.08722 0.41164 0.70800
 C3224 C 1.08019 0.39876 0.69333
 C3225 C 1.07313 0.40610 0.67537
 C3226 C 1.07276 0.42652 0.67171
 C3227 C 1.07970 0.43942 0.68643
 C3228 C 1.08692 0.43206 0.70434
 H3229 H 1.10111 0.35361 0.77876
 H3230 H 1.11460 0.34021 0.80932
 H3231 H 1.14942 0.39307 0.81716
 H3232 H 1.13584 0.40651 0.78664
 H3233 H 1.08035 0.38294 0.69559
 H3234 H 1.06826 0.39573 0.66422
 H3235 H 1.07936 0.45523 0.68420
 H3236 H 1.09212 0.44239 0.71538
 C3237 C 0.61558 0.88309 0.78168
 C3238 C 0.60944 0.86454 0.78868
 C3239 C 0.61729 0.85677 0.80613
 C3240 C 0.63162 0.86726 0.81689
 C3241 C 0.63766 0.88587 0.80996
 C3242 C 0.62966 0.89374 0.79261
 C3243 C 0.60761 0.89109 0.76291
 N3244 N 0.61080 0.91019 0.75769
 N3245 N 0.60388 0.91727 0.74066
 C3246 C 0.59357 0.90551 0.72809
 N3247 N 0.59037 0.88643 0.73333
 N3248 N 0.59721 0.87938 0.75038
 C3249 C 0.58616 0.91324 0.70898
 C3250 C 0.57919 0.90024 0.69437
 C3251 C 0.57242 0.90743 0.67625
 C3252 C 0.57223 0.92781 0.67234
 C3253 C 0.57913 0.94082 0.68699
 C3254 C 0.58608 0.93361 0.70507
 H3255 H 0.59856 0.85599 0.78067
 H3256 H 0.61233 0.84238 0.81103
 H3257 H 0.64861 0.89439 0.81792
 H3258 H 0.63474 0.90805 0.78762
 H3259 H 0.57921 0.88445 0.69682
 H3260 H 0.56760 0.89696 0.66517
 H3261 H 0.57893 0.95661 0.68458
 H3262 H 0.59124 0.94403 0.71605
 C3263 C 0.61588 0.38215 1.28164
 C3264 C 0.60816 0.36478 1.28993
 C3265 C 0.61619 0.35691 1.30726
 C3266 C 0.63238 0.36607 1.31663
 C3267 C 0.63997 0.38358 1.30832
 C3268 C 0.63174 0.39156 1.29113
 C3269 C 0.60767 0.39019 1.26300
 N3270 N 0.61186 0.40891 1.25715
 N3271 N 0.60474 0.41600 1.24022
 C3272 C 0.59323 0.40462 1.22836
 N3273 N 0.58902 0.38591 1.23422
 N3274 N 0.59605 0.37887 1.25121
 C3275 C 0.58565 0.41232 1.20932
 C3276 C 0.57831 0.39933 1.19489
 C3277 C 0.57148 0.40649 1.17678
 C3278 C 0.57156 0.42685 1.17272
 C3279 C 0.57877 0.43985 1.18723
 C3280 C 0.58583 0.43266 1.20528
 H3281 H 0.59586 0.35723 1.28304
 H3282 H 0.60981 0.34346 1.31309
 H3283 H 0.65234 0.39121 1.31501
 H3284 H 0.63806 0.40495 1.28509
 H3285 H 0.57814 0.38356 1.19746
 H3286 H 0.56643 0.39600 1.16582
 H3287 H 0.57876 0.45563 1.18474
 H3288 H 0.59126 0.44306 1.21614
 C3289 C 0.88484 1.11659 1.28187
 C3290 C 0.86913 1.10717 1.29162
 C3291 C 0.86087 1.11537 1.30870
 C3292 C 0.86827 1.13314 1.31661
 C3293 C 0.88440 1.14223 1.30706
 C3294 C 0.89246 1.13413 1.28987
 C3295 C 0.89291 1.10851 1.26318
 N3296 N 0.90442 1.11985 1.25128
 N3297 N 0.91126 1.11284 1.23421
 C3298 C 0.90696 1.09417 1.22834
 N3299 N 0.89556 1.08277 1.24030
 N3300 N 0.88862 1.08981 1.25734
 C3301 C 0.91432 1.08656 1.20917
 C3302 C 0.91400 1.06626 1.20497
 C3303 C 0.92093 1.05918 1.18682
 C3304 C 0.92815 1.07227 1.17237
 C3305 C 0.92832 1.09259 1.17658
 C3306 C 0.92161 1.09963 1.19478
 H3307 H 0.86290 1.09363 1.28583
 H3308 H 0.84857 1.10778 1.31557
 H3309 H 0.89066 1.15586 1.31260
 H3310 H 0.90466 1.14169 1.28280
 H3311 H 0.90858 1.05579 1.21579
 H3312 H 0.92086 1.04342 1.18421
 H3313 H 0.93336 1.10315 1.16567
 H3314 H 0.92187 1.11538 1.19746
 C3315 C 0.88482 0.61611 0.78155
 C3316 C 0.87067 0.60559 0.79253
 C3317 C 0.86260 0.61363 0.80978
 C3318 C 0.86864 0.63230 0.81653
 C3319 C 0.88311 0.64262 0.80577
 C3320 C 0.89103 0.63466 0.78845
 C3321 C 0.89274 0.60807 0.76277
 N3322 N 0.90321 0.61977 0.75027
 N3323 N 0.90998 0.61276 0.73318
 C3324 C 0.90666 0.59372 0.72787
 N3325 N 0.89628 0.58197 0.74042
 N3326 N 0.88943 0.58901 0.75749
 C3327 C 0.91400 0.58608 0.70870
 C3328 C 0.91404 0.56573 0.70468
 C3329 C 0.92099 0.55863 0.68654
 C3330 C 0.92791 0.57172 0.67197
 C3331 C 0.92774 0.59207 0.67599
 C3332 C 0.92097 0.59915 0.69415
 H3333 H 0.86555 0.59127 0.78761
 H3334 H 0.85154 0.60526 0.81775
 H3335 H 0.88811 0.65703 0.81052
 H3336 H 0.90198 0.64312 0.78042
 H3337 H 0.90887 0.55526 0.71561
 H3338 H 0.92117 0.54285 0.68404
 H3339 H 0.93257 0.60261 0.66497
 H3340 H 0.92098 0.61493 0.69668
 C3341 C 0.38518 1.11651 0.78233
 C3342 C 0.39277 1.13410 0.79028
 C3343 C 0.38473 1.14220 0.80748
 C3344 C 0.36868 1.13306 0.81711
 C3345 C 0.36133 1.11524 0.80926
 C3346 C 0.36955 1.10704 0.79216
 C3347 C 0.39319 1.10843 0.76362
 N3348 N 0.38891 1.08973 0.75780
 N3349 N 0.39576 1.08269 0.74073
 C3350 C 0.40708 1.09410 0.72871
 N3351 N 0.41138 1.11278 0.73455
 N3352 N 0.40462 1.11978 0.75166
 C3353 C 0.41434 1.08650 0.70950
 C3354 C 0.42158 1.09958 0.69509
 C3355 C 0.42820 1.09254 0.67685
 C3356 C 0.42801 1.07222 0.67263
 C3357 C 0.42084 1.05913 0.68710
 C3358 C 0.41399 1.06620 0.70528
 H3359 H 0.40491 1.14169 0.78314
 H3360 H 0.39096 1.15586 0.81297
 H3361 H 0.34909 1.10760 0.81618
 H3362 H 0.36336 1.09347 0.78642
 H3363 H 0.42186 1.11532 0.69778
 H3364 H 0.43321 1.10311 0.66593
 H3365 H 0.42074 1.04337 0.68447
 H3366 H 0.40860 1.05573 0.71611
 C3367 C 0.38474 0.61648 1.28214
 C3368 C 0.39227 0.63409 1.29005
 C3369 C 0.38426 0.64217 1.30728
 C3370 C 0.36828 0.63297 1.31696
 C3371 C 0.36097 0.61512 1.30913
 C3372 C 0.36917 0.60695 1.29201
 C3373 C 0.39275 0.60840 1.26343
 N3374 N 0.38854 0.58967 1.25765
 N3375 N 0.39542 0.58262 1.24059
 C3376 C 0.40669 0.59406 1.22854
 N3377 N 0.41091 0.61277 1.23434
 N3378 N 0.40413 0.61978 1.25144
 C3379 C 0.41400 0.58645 1.20935
 C3380 C 0.42119 0.59952 1.19492
 C3381 C 0.42787 0.59247 1.17671
 C3382 C 0.42777 0.57214 1.17255
 C3383 C 0.42064 0.55905 1.18703
 C3384 C 0.41373 0.56613 1.20519
 H3385 H 0.40437 0.64173 1.28288
 H3386 H 0.39046 0.65585 1.31275
 H3387 H 0.34877 0.60744 1.31610
 H3388 H 0.36301 0.59335 1.28629
 H3389 H 0.42141 0.61527 1.19757
 H3390 H 0.43285 0.60302 1.16577
 H3391 H 0.42061 0.54329 1.18445
 H3392 H 0.40839 0.55567 1.21604
 C3393 C 1.11749 1.28027 0.88329
 C3394 C 1.11010 1.28812 0.86556
 C3395 C 1.11778 1.30561 0.85780
 C3396 C 1.13327 1.31565 0.86745
 C3397 C 1.14057 1.30776 0.88531
 C3398 C 1.13269 1.29036 0.89316
 C3399 C 1.10952 1.26150 0.89122
 N3400 N 1.11338 1.25578 0.91009
 N3401 N 1.10631 1.23880 0.91709
 C3402 C 1.09518 1.22679 0.90548
 N3403 N 1.09135 1.23252 0.88663
 N3404 N 1.09832 1.24953 0.87967
 C3405 C 1.08752 1.20778 0.91310
 C3406 C 1.08023 1.19344 0.90000
 C3407 C 1.07319 1.17540 0.90708
 C3408 C 1.07303 1.17133 0.92747
 C3409 C 1.08021 1.18575 0.94059
 C3410 C 1.08747 1.20372 0.93348
 H3411 H 1.09831 1.28078 0.85764
 H3412 H 1.11163 1.31108 0.84406
 H3413 H 1.15241 1.31497 0.89329
 H3414 H 1.13874 1.28467 0.90685
 H3415 H 1.08022 1.19601 0.88420
 H3416 H 1.06816 1.16451 0.89651
 H3417 H 1.08004 1.18324 0.95640
 H3418 H 1.09286 1.21452 0.94398
 C3419 C 1.11865 0.77894 0.38137
 C3420 C 1.13740 0.78579 0.38710
 C3421 C 1.14494 0.80339 0.37942
 C3422 C 1.13400 0.81447 0.36567
 C3423 C 1.11527 0.80760 0.35989
 C3424 C 1.10764 0.79008 0.36773
 C3425 C 1.11072 0.76025 0.38951
 N3426 N 1.09147 0.75521 0.38685
 N3427 N 1.08439 0.73837 0.39414
 C3428 C 1.09628 0.72582 0.40434
 N3429 N 1.11552 0.73086 0.40699
 N3430 N 1.12258 0.74773 0.39977
 C3431 C 1.08849 0.70698 0.41229
 C3432 C 1.10147 0.69241 0.41937
 C3433 C 1.09420 0.67453 0.42662
 C3434 C 1.07376 0.67083 0.42714
 C3435 C 1.06077 0.68547 0.42018
 C3436 C 1.06806 0.70330 0.41277
 H3437 H 1.14625 0.77761 0.39762
 H3438 H 1.15944 0.80821 0.38416
 H3439 H 1.10642 0.81580 0.34938
 H3440 H 1.09317 0.78521 0.36296
 H3441 H 1.11730 0.69469 0.41908
 H3442 H 1.10465 0.66345 0.43151
 H3443 H 1.04494 0.68322 0.42064
 H3444 H 1.05765 0.71426 0.40755
 C3445 C 0.61768 1.28040 0.38287
 C3446 C 0.63509 1.28867 0.39054
 C3447 C 0.64281 1.30610 0.38264
 C3448 C 0.63345 1.31561 0.36664
 C3449 C 0.61593 1.30727 0.35905
 C3450 C 0.60811 1.28998 0.36714
 C3451 C 0.60971 1.26174 0.39105
 N3452 N 0.59095 1.25590 0.38695
 N3453 N 0.58389 1.23899 0.39411
 C3454 C 0.59535 1.22716 0.40558
 N3455 N 0.61411 1.23300 0.40967
 N3456 N 0.62112 1.24995 0.40260
 C3457 C 0.58766 1.20818 0.41327
 C3458 C 0.60068 1.19381 0.42065
 C3459 C 0.59352 1.17577 0.42761
 C3460 C 0.57313 1.17173 0.42761
 C3461 C 0.56010 1.18620 0.42035
 C3462 C 0.56729 1.20416 0.41317
 H3463 H 0.64276 1.28170 0.40273
 H3464 H 0.65628 1.31193 0.38901
 H3465 H 0.60817 1.31406 0.34681
 H3466 H 0.59469 1.28396 0.36086
 H3467 H 0.61648 1.19636 0.42077
 H3468 H 0.60403 1.16485 0.43270
 H3469 H 0.54429 1.18372 0.42041
 H3470 H 0.55686 1.21498 0.40770
 C3471 C 0.61699 0.78048 0.88436
 C3472 C 0.63552 0.78759 0.89050
 C3473 C 0.64315 0.80510 0.88271
 C3474 C 0.63253 0.81583 0.86844
 C3475 C 0.61395 0.80879 0.86239
 C3476 C 0.60623 0.79137 0.87033
 C3477 C 0.60912 0.76169 0.89233
 N3478 N 0.59002 0.75638 0.88921
 N3479 N 0.58305 0.73935 0.89616
 C3480 C 0.59492 0.72686 0.90645
 N3481 N 0.61402 0.73218 0.90958
 N3482 N 0.62096 0.74924 0.90270
 C3483 C 0.58731 0.70776 0.91393
 C3484 C 0.60041 0.69324 0.92086
 C3485 C 0.59331 0.67512 0.92768
 C3486 C 0.57292 0.67114 0.92794
 C3487 C 0.55981 0.68572 0.92110
 C3488 C 0.56692 0.70379 0.91410
 H3489 H 0.64417 0.77961 0.90134
 H3490 H 0.65752 0.81007 0.88769
 H3491 H 0.60534 0.81672 0.85148
 H3492 H 0.59193 0.78630 0.86525
 H3493 H 0.61621 0.69574 0.92078
 H3494 H 0.60386 0.66410 0.93247
 H3495 H 0.54400 0.68326 0.92136
 H3496 H 0.55642 0.71471 0.90897
 C3497 C 0.88232 1.27947 1.11833
 C3498 C 0.89322 1.29069 1.13199
 C3499 C 0.88548 1.30819 1.13973
 C3500 C 0.86675 1.31497 1.13385
 C3501 C 0.85592 1.30383 1.12007
 C3502 C 0.86358 1.28625 1.11248
 C3503 C 0.89035 1.26076 1.11032
 N3504 N 0.87858 1.24818 1.10006
 N3505 N 0.88570 1.23129 1.09297
 C3506 C 0.90494 1.22628 1.09576
 N3507 N 0.91674 1.23889 1.10596
 N3508 N 0.90959 1.25576 1.11313
 C3509 C 0.91279 1.20743 1.08792
 C3510 C 0.93323 1.20375 1.08754
 C3511 C 0.94056 1.18593 1.08012
 C3512 C 0.92761 1.17132 1.07305
 C3513 C 0.90716 1.17499 1.07355
 C3514 C 0.89985 1.19285 1.08080
 H3515 H 0.90768 1.28587 1.13685
 H3516 H 0.89424 1.31644 1.15027
 H3517 H 0.84143 1.30859 1.11525
 H3518 H 0.85481 1.27801 1.10194
 H3519 H 0.94361 1.21471 1.09281
 H3520 H 0.95640 1.18369 1.07970
 H3521 H 0.89674 1.16393 1.06860
 H3522 H 0.88402 1.19512 1.08103
 C3523 C 0.88266 0.77940 0.61755
 C3524 C 0.89354 0.79059 0.63126
 C3525 C 0.88580 0.80808 0.63901
 C3526 C 0.86709 0.81490 0.63308
 C3527 C 0.85630 0.80380 0.61924
 C3528 C 0.86396 0.78622 0.61164
 C3529 C 0.89067 0.76067 0.60958
 N3530 N 0.87890 0.74810 0.59930
 N3531 N 0.88601 0.73117 0.59228
 C3532 C 0.90521 0.72611 0.59516
 N3533 N 0.91702 0.73870 0.60538
 N3534 N 0.90989 0.75561 0.61248
 C3535 C 0.91303 0.70720 0.58742
 C3536 C 0.93347 0.70346 0.58712
 C3537 C 0.94077 0.68559 0.57979
 C3538 C 0.92780 0.67100 0.57272
 C3539 C 0.90736 0.67473 0.57313
 C3540 C 0.90008 0.69264 0.58029
 H3541 H 0.90797 0.78573 0.63617
 H3542 H 0.89453 0.81630 0.64960
 H3543 H 0.84183 0.80859 0.61437
 H3544 H 0.85521 0.77801 0.60106
 H3545 H 0.94386 0.71440 0.59240
 H3546 H 0.95660 0.68330 0.57944
 H3547 H 0.89693 0.66368 0.56818
 H3548 H 0.88425 0.69496 0.58046
 C3549 C 0.38155 1.27888 0.61959
 C3550 C 0.36392 1.28685 0.61210
 C3551 C 0.35623 1.30438 0.61975
 C3552 C 0.36584 1.31434 0.63532
 C3553 C 0.38350 1.30624 0.64284
 C3554 C 0.39130 1.28881 0.63498
 C3555 C 0.38963 1.26025 0.61144
 N3556 N 0.40852 1.25465 0.61529
 N3557 N 0.41572 1.23787 0.60796
 C3558 C 0.40430 1.22595 0.59655
 N3559 N 0.38541 1.23155 0.59273
 N3560 N 0.37825 1.24836 0.59997
 C3561 C 0.41219 1.20719 0.58855
 C3562 C 0.39932 1.19281 0.58093
 C3563 C 0.40667 1.17501 0.57356
 C3564 C 0.42711 1.17123 0.57340
 C3565 C 0.43999 1.18568 0.58091
 C3566 C 0.43261 1.20341 0.58849
 H3567 H 0.35609 1.27961 0.60018
 H3568 H 0.34262 1.31000 0.61348
 H3569 H 0.39145 1.31335 0.65477
 H3570 H 0.40489 1.28301 0.64113
 H3571 H 0.38349 1.19518 0.58091
 H3572 H 0.39628 1.16407 0.56829
 H3573 H 0.45583 1.18339 0.58074
 H3574 H 0.44294 1.21424 0.59412
 C3575 C 0.38241 0.77982 1.11787
 C3576 C 0.39224 0.78981 1.13317
 C3577 C 0.38449 0.80726 1.14100
 C3578 C 0.36678 0.81533 1.13357
 C3579 C 0.35710 0.80535 1.11807
 C3580 C 0.36475 0.78779 1.11042
 C3581 C 0.39039 0.76112 1.10983
 N3582 N 0.37894 0.74917 1.09850
 N3583 N 0.38601 0.73225 1.09143
 C3584 C 0.40487 0.72658 1.09530
 N3585 N 0.41636 0.73857 1.10657
 N3586 N 0.40926 0.75545 1.11373
 C3587 C 0.41264 0.70768 1.08753
 C3588 C 0.43304 0.70376 1.08756
 C3589 C 0.44030 0.68588 1.08022
 C3590 C 0.42733 0.67143 1.07286
 C3591 C 0.40692 0.67536 1.07295
 C3592 C 0.39968 0.69329 1.08008
 H3593 H 0.40585 0.78403 1.13928
 H3594 H 0.39250 0.81440 1.15288
 H3595 H 0.34346 0.81095 1.11185
 H3596 H 0.35685 0.78050 1.09858
 H3597 H 0.44343 0.71459 1.09307
 H3598 H 0.45612 0.68348 1.08010
 H3599 H 0.39646 0.66443 1.06779
 H3600 H 0.38387 0.69577 1.08001
 C3601 C 0.88228 0.72088 0.88183
 C3602 C 0.86358 0.71405 0.88774
 C3603 C 0.85594 0.69647 0.88013
 C3604 C 0.86674 0.68539 0.86628
 C3605 C 0.88545 0.69222 0.86035
 C3606 C 0.89317 0.70971 0.86811
 C3607 C 0.89027 0.73961 0.88981
 N3608 N 0.90949 0.74467 0.88692
 N3609 N 0.91661 0.76157 0.89403
 C3610 C 0.90479 0.77416 0.90426
 N3611 N 0.88559 0.76909 0.90714
 N3612 N 0.87849 0.75217 0.90011
 C3613 C 0.91261 0.79306 0.91201
 C3614 C 0.89965 0.80762 0.91915
 C3615 C 0.90693 0.82553 0.92631
 C3616 C 0.92737 0.82926 0.92669
 C3617 C 0.94034 0.81466 0.91963
 C3618 C 0.93304 0.79680 0.91230
 H3619 H 0.85482 0.72225 0.89833
 H3620 H 0.84147 0.69167 0.88499
 H3621 H 0.89419 0.68402 0.84975
 H3622 H 0.90760 0.71458 0.86320
 H3623 H 0.88382 0.80531 0.91899
 H3624 H 0.89650 0.83658 0.93126
 H3625 H 0.95617 0.81694 0.91996
 H3626 H 0.94343 0.78585 0.90702
 C3627 C 0.88173 0.22090 0.38037
 C3628 C 0.89152 0.21096 0.36500
 C3629 C 0.88376 0.19352 0.35715
 C3630 C 0.86609 0.18541 0.36465
 C3631 C 0.85644 0.19537 0.38020
 C3632 C 0.86410 0.21292 0.38785
 C3633 C 0.88976 0.23955 0.38849
 N3634 N 0.87834 0.25146 0.39991
 N3635 N 0.88547 0.26831 0.40710
 C3636 C 0.90436 0.27391 0.40327
 N3637 N 0.91581 0.26197 0.39191
 N3638 N 0.90865 0.24516 0.38463
 C3639 C 0.91220 0.29272 0.41121
 C3640 C 0.93262 0.29652 0.41126
 C3641 C 0.93996 0.31429 0.41875
 C3642 C 0.92705 0.32877 0.42618
 C3643 C 0.90662 0.32496 0.42603
 C3644 C 0.89930 0.30711 0.41874
 H3645 H 0.90511 0.21676 0.35886
 H3646 H 0.89174 0.18640 0.34524
 H3647 H 0.84282 0.18974 0.38646
 H3648 H 0.85623 0.22017 0.39975
 H3649 H 0.94297 0.28567 0.40569
 H3650 H 0.95579 0.31660 0.41892
 H3651 H 0.89620 0.33591 0.43124
 H3652 H 0.88348 0.30473 0.41876
 C3653 C 0.38181 0.72162 0.38099
 C3654 C 0.36310 0.71476 0.38684
 C3655 C 0.35552 0.69716 0.37922
 C3656 C 0.36639 0.68608 0.36541
 C3657 C 0.38508 0.69296 0.35951
 C3658 C 0.39275 0.71048 0.36729
 C3659 C 0.38979 0.74032 0.38907
 N3660 N 0.40902 0.74536 0.38628
 N3661 N 0.41615 0.76220 0.39353
 C3662 C 0.40432 0.77475 0.40380
 N3663 N 0.38509 0.76970 0.40657
 N3664 N 0.37799 0.75284 0.39940
 C3665 C 0.41215 0.79358 0.41172
 C3666 C 0.39922 0.80812 0.41893
 C3667 C 0.40652 0.82597 0.42621
 C3668 C 0.42697 0.82966 0.42665
 C3669 C 0.43992 0.81506 0.41954
 C3670 C 0.43259 0.79726 0.41209
 H3671 H 0.35430 0.72294 0.39741
 H3672 H 0.34105 0.69233 0.38405
 H3673 H 0.39387 0.68476 0.34895
 H3674 H 0.40719 0.71536 0.36242
 H3675 H 0.38338 0.80584 0.41872
 H3676 H 0.39610 0.83702 0.43120
 H3677 H 0.45575 0.81730 0.41992
 H3678 H 0.44297 0.78632 0.40677
 C3679 C 0.38182 0.22100 0.88071
 C3680 C 0.36424 0.21295 0.88822
 C3681 C 0.35665 0.19535 0.88061
 C3682 C 0.36633 0.18541 0.86506
 C3683 C 0.38396 0.19359 0.85753
 C3684 C 0.39164 0.21108 0.86535
 C3685 C 0.38979 0.23969 0.88880
 N3686 N 0.40865 0.24536 0.88495
 N3687 N 0.41576 0.26220 0.89221
 C3688 C 0.40426 0.27412 0.90355
 N3689 N 0.38539 0.26845 0.90738
 N3690 N 0.37832 0.25158 0.90020
 C3691 C 0.41205 0.29295 0.91148
 C3692 C 0.39911 0.30733 0.91899
 C3693 C 0.40638 0.32520 0.92627
 C3694 C 0.42680 0.32905 0.92644
 C3695 C 0.43975 0.31460 0.91904
 C3696 C 0.43246 0.29680 0.91156
 H3697 H 0.35635 0.22018 0.90012
 H3698 H 0.34307 0.18967 0.88689
 H3699 H 0.39195 0.18649 0.84562
 H3700 H 0.40520 0.21694 0.85918
 H3701 H 0.38329 0.30491 0.91899
 H3702 H 0.39593 0.33613 0.93146
 H3703 H 0.45558 0.31693 0.91923
 H3704 H 0.44284 0.28597 0.90601
 C3705 C 1.11637 0.71945 1.11622
 C3706 C 1.10680 0.70969 1.13184
 C3707 C 1.11493 0.69259 1.14010
 C3708 C 1.13278 0.68469 1.13280
 C3709 C 1.14202 0.69429 1.11678
 C3710 C 1.13399 0.71148 1.10871
 C3711 C 1.10834 0.73811 1.10807
 N3712 N 1.11978 0.74995 1.09660
 N3713 N 1.11281 0.76696 1.08963
 C3714 C 1.09407 0.77283 1.09376
 N3715 N 1.08257 0.76094 1.10514
 N3716 N 1.08958 0.74396 1.11220
 C3717 C 1.08650 0.79191 1.08623
 C3718 C 1.06616 0.79611 1.08641
 C3719 C 1.05911 0.81419 1.07933
 C3720 C 1.07226 0.82857 1.07210
 C3721 C 1.09261 0.82435 1.07204
 C3722 C 1.09962 0.80622 1.07890
 H3723 H 1.09319 0.71546 1.13797
 H3724 H 1.10722 0.68570 1.15232
 H3725 H 1.15571 0.68877 1.11058
 H3726 H 1.14167 0.71856 1.09658
 H3727 H 1.05565 0.78535 1.09184
 H3728 H 1.04333 0.81680 1.07932
 H3729 H 1.10321 0.83520 1.06699
 H3730 H 1.11540 0.80354 1.07873
 C3731 C 1.11639 0.21895 0.61535
 C3732 C 1.13381 0.21072 0.60764
 C3733 C 1.14158 0.19330 0.61552
 C3734 C 1.13225 0.18377 0.63154
 C3735 C 1.11469 0.19203 0.63912
 C3736 C 1.10682 0.20932 0.63104
 C3737 C 1.10844 0.23766 0.60727
 N3738 N 1.08970 0.24354 0.61143
 N3739 N 1.08270 0.26052 0.60441
 C3740 C 1.09419 0.27241 0.59302
 N3741 N 1.11292 0.26652 0.58886
 N3742 N 1.11989 0.24949 0.59579
 C3743 C 1.08659 0.29149 0.58552
 C3744 C 1.09968 0.30586 0.57827
 C3745 C 1.09261 0.32399 0.57145
 C3746 C 1.07224 0.32812 0.57147
 C3747 C 1.05913 0.31367 0.57862
 C3748 C 1.06623 0.29561 0.58566
 H3749 H 1.14148 0.21772 0.59547
 H3750 H 1.15507 0.18752 0.60915
 H3751 H 1.10694 0.18522 0.65136
 H3752 H 1.09338 0.21530 0.63734
 H3753 H 1.11546 0.30323 0.57813
 H3754 H 1.10318 0.33489 0.56646
 H3755 H 1.04334 0.31622 0.57857
 H3756 H 1.05575 0.28479 0.59103
 C3757 C 0.61711 0.71976 0.61562
 C3758 C 0.63564 0.71271 0.60945
 C3759 C 0.64333 0.69520 0.61720
 C3760 C 0.63274 0.68443 0.63147
 C3761 C 0.61415 0.69142 0.63756
 C3762 C 0.60638 0.70883 0.62966
 C3763 C 0.60919 0.73856 0.60770
 N3764 N 0.59007 0.74382 0.61086
 N3765 N 0.58306 0.76085 0.60394
 C3766 C 0.59490 0.77338 0.59366
 N3767 N 0.61401 0.76811 0.59051
 N3768 N 0.62099 0.75105 0.59735
 C3769 C 0.58724 0.79248 0.58622
 C3770 C 0.60031 0.80703 0.57930
 C3771 C 0.59318 0.82513 0.57246
 C3772 C 0.57278 0.82906 0.57217
 C3773 C 0.55969 0.81446 0.57902
 C3774 C 0.56684 0.79641 0.58604
 H3775 H 0.64426 0.72072 0.59860
 H3776 H 0.65770 0.69027 0.61220
 H3777 H 0.60557 0.68345 0.64847
 H3778 H 0.59207 0.71386 0.63476
 H3779 H 0.61612 0.80457 0.57939
 H3780 H 0.60371 0.83617 0.56767
 H3781 H 0.54388 0.81689 0.57874
 H3782 H 0.55637 0.78547 0.59116
 C3783 C 0.61713 0.21969 1.11678
 C3784 C 0.63453 0.21146 1.10904
 C3785 C 0.64232 0.19405 1.11690
 C3786 C 0.63304 0.18450 1.13293
 C3787 C 0.61551 0.19279 1.14058
 C3788 C 0.60762 0.21007 1.13252
 C3789 C 0.60911 0.23835 1.10865
 N3790 N 0.59034 0.24416 1.11280
 N3791 N 0.58325 0.26107 1.10567
 C3792 C 0.59466 0.27293 1.09420
 N3793 N 0.61342 0.26712 1.09005
 N3794 N 0.62047 0.25017 1.09708
 C3795 C 0.58694 0.29191 1.08655
 C3796 C 0.59993 0.30631 1.07917
 C3797 C 0.59275 0.32434 1.07222
 C3798 C 0.57235 0.32834 1.07222
 C3799 C 0.55934 0.31386 1.07948
 C3800 C 0.56656 0.29590 1.08666
 H3801 H 0.64216 0.21846 1.09683
 H3802 H 0.65579 0.18825 1.11048
 H3803 H 0.60780 0.18598 1.15284
 H3804 H 0.59420 0.21606 1.13886
 H3805 H 0.61573 0.30378 1.07905
 H3806 H 0.60324 0.33527 1.06714
 H3807 H 0.54353 0.31631 1.07942
 H3808 H 0.55614 0.28506 1.09212
 C3809 C 1.28111 1.11794 0.88247
 C3810 C 1.29248 1.10704 0.86893
 C3811 C 1.30984 1.11496 0.86097
 C3812 C 1.31629 1.13389 0.86651
 C3813 C 1.30504 1.14466 0.88025
 C3814 C 1.28762 1.13682 0.88806
 C3815 C 1.26242 1.10983 0.89053
 N3816 N 1.24973 1.12158 0.90070
 N3817 N 1.23280 1.11443 0.90774
 C3818 C 1.22786 1.09521 0.90497
 N3819 N 1.24059 1.08342 0.89487
 N3820 N 1.25750 1.09059 0.88776
 C3821 C 1.20892 1.08738 0.91267
 C3822 C 1.20520 1.06697 0.91296
 C3823 C 1.18727 1.05966 0.92020
 C3824 C 1.17260 1.07260 0.92718
 C3825 C 1.17632 1.09301 0.92681
 C3826 C 1.19428 1.10030 0.91973
 H3827 H 1.28788 1.09246 0.86428
 H3828 H 1.31818 1.10623 0.85047
 H3829 H 1.30954 1.15930 0.88483
 H3830 H 1.27926 1.14559 0.89851
 H3831 H 1.21620 1.05660 0.90773
 H3832 H 1.18499 1.04386 0.92052
 H3833 H 1.16521 1.10342 0.93170
 H3834 H 1.19658 1.11611 0.91958
 C3835 C 1.28095 0.61752 0.38255
 C3836 C 1.28747 0.63638 0.38821
 C3837 C 1.30489 0.64425 0.38041
 C3838 C 1.31613 0.63352 0.36663
 C3839 C 1.30969 0.61460 0.36105
 C3840 C 1.29234 0.60666 0.36899
 C3841 C 1.26225 0.60941 0.39055
 N3842 N 1.25730 0.59019 0.38772
 N3843 N 1.24036 0.58302 0.39475
 C3844 C 1.22762 0.59480 0.40484
 N3845 N 1.23258 0.61401 0.40768
 N3846 N 1.24954 0.62115 0.40072
 C3847 C 1.20864 0.58697 0.41246
 C3848 C 1.19399 0.59990 0.41949
 C3849 C 1.17601 0.59262 0.42650
 C3850 C 1.17226 0.57222 0.42684
 C3851 C 1.18694 0.55927 0.41987
 C3852 C 1.20489 0.56657 0.41269
 H3853 H 1.27912 0.64512 0.39868
 H3854 H 1.30939 0.65888 0.38503
 H3855 H 1.31802 0.60591 0.35052
 H3856 H 1.28773 0.59210 0.36429
 H3857 H 1.19631 0.61571 0.41937
 H3858 H 1.16490 0.60304 0.43138
 H3859 H 1.18464 0.54347 0.42017
 H3860 H 1.21590 0.55620 0.40748
 C3861 C 0.78057 1.11832 0.38197
 C3862 C 0.78717 1.13718 0.38755
 C3863 C 0.80460 1.14496 0.37971
 C3864 C 0.81580 1.13414 0.36596
 C3865 C 0.80926 1.11524 0.36042
 C3866 C 0.79189 1.10738 0.36841
 C3867 C 0.76189 1.11028 0.39010
 N3868 N 0.75691 1.09105 0.38737
 N3869 N 0.74002 1.08392 0.39457
 C3870 C 0.72736 1.09575 0.40471
 N3871 N 0.73236 1.11496 0.40743
 N3872 N 0.74927 1.12206 0.40031
 C3873 C 0.70844 1.08795 0.41251
 C3874 C 0.69385 1.10090 0.41963
 C3875 C 0.67590 1.09365 0.42677
 C3876 C 0.67214 1.07325 0.42714
 C3877 C 0.68677 1.06028 0.42012
 C3878 C 0.70468 1.06756 0.41282
 H3879 H 0.77886 1.14598 0.39802
 H3880 H 0.80917 1.15957 0.38429
 H3881 H 0.81755 1.10648 0.34991
 H3882 H 0.78722 1.09282 0.36377
 H3883 H 0.69618 1.11671 0.41947
 H3884 H 0.66483 1.10408 0.43169
 H3885 H 0.68447 1.04448 0.42045
 H3886 H 0.71565 1.05717 0.40756
 C3887 C 0.78086 0.61734 0.88307
 C3888 C 0.78749 0.63615 0.88876
 C3889 C 0.80492 0.64395 0.88094
 C3890 C 0.81607 0.63321 0.86710
 C3891 C 0.80950 0.61436 0.86145
 C3892 C 0.79213 0.60647 0.86942
 C3893 C 0.76216 0.60929 0.89115
 N3894 N 0.75714 0.59008 0.88833
 N3895 N 0.74023 0.58296 0.89546
 C3896 C 0.72758 0.59476 0.90564
 N3897 N 0.73261 0.61396 0.90845
 N3898 N 0.74954 0.62105 0.90139
 C3899 C 0.70862 0.58698 0.91335
 C3900 C 0.69402 0.59994 0.92043
 C3901 C 0.67603 0.59270 0.92749
 C3902 C 0.67224 0.57231 0.92783
 C3903 C 0.68688 0.55933 0.92085
 C3904 C 0.70484 0.56659 0.91363
 H3905 H 0.77922 0.64489 0.89930
 H3906 H 0.80952 0.65853 0.88561
 H3907 H 0.81777 0.60566 0.85086
 H3908 H 0.78743 0.59195 0.86468
 H3909 H 0.69637 0.61574 0.92029
 H3910 H 0.66495 0.60315 0.93238
 H3911 H 0.68456 0.54353 0.92116
 H3912 H 0.71580 0.55619 0.90839
 C3913 C 1.28082 0.88210 1.11697
 C3914 C 1.28742 0.86325 1.11134
 C3915 C 1.30493 0.85552 1.11906
 C3916 C 1.31618 0.86636 1.13273
 C3917 C 1.30962 0.88524 1.13832
 C3918 C 1.29218 0.89306 1.13046
 C3919 C 1.26207 0.89012 1.10897
 N3920 N 1.25709 0.90934 1.11170
 N3921 N 1.24015 0.91645 1.10462
 C3922 C 1.22744 0.90461 1.09458
 N3923 N 1.23243 0.88539 1.09185
 N3924 N 1.24939 0.87831 1.09886
 C3925 C 1.20846 0.91239 1.08691
 C3926 C 1.19383 0.89944 1.07992
 C3927 C 1.17583 0.90669 1.07289
 C3928 C 1.17208 0.92709 1.07249
 C3929 C 1.18677 0.94006 1.07937
 C3930 C 1.20472 0.93279 1.08657
 H3931 H 1.27908 0.85444 1.10093
 H3932 H 1.30951 0.84092 1.11444
 H3933 H 1.31796 0.89402 1.14878
 H3934 H 1.28750 0.90760 1.13514
 H3935 H 1.19615 0.88363 1.08011
 H3936 H 1.16472 0.89626 1.06807
 H3937 H 1.18447 0.95587 1.07901
 H3938 H 1.21572 0.94319 1.09172
 C3939 C 1.28036 0.38141 0.61774
 C3940 C 1.28694 0.36253 0.61223
 C3941 C 1.30435 0.35475 0.62013
 C3942 C 1.31553 0.36560 0.63387
 C3943 C 1.30899 0.38452 0.63934
 C3944 C 1.29165 0.39238 0.63129
 C3945 C 1.26171 0.38946 0.60955
 N3946 N 1.25676 0.40872 0.61218
 N3947 N 1.23990 0.41585 0.60494
 C3948 C 1.22724 0.40401 0.59482
 N3949 N 1.23220 0.38477 0.59219
 N3950 N 1.24908 0.37766 0.59936
 C3951 C 1.20834 0.41182 0.58697
 C3952 C 1.19373 0.39888 0.57991
 C3953 C 1.17579 0.40616 0.57276
 C3954 C 1.17207 0.42657 0.57231
 C3955 C 1.18675 0.43952 0.57925
 C3956 C 1.20464 0.43223 0.58657
 H3957 H 1.27866 0.35370 0.60178
 H3958 H 1.30892 0.34012 0.61561
 H3959 H 1.31727 0.39330 0.64983
 H3960 H 1.28698 0.40696 0.63588
 H3961 H 1.19602 0.38307 0.58015
 H3962 H 1.16469 0.39574 0.56789
 H3963 H 1.18449 0.45533 0.57886
 H3964 H 1.21563 0.44261 0.59178
 C3965 C 0.78107 0.88284 0.61637
 C3966 C 0.78773 0.86404 0.61066
 C3967 C 0.80519 0.85626 0.61845
 C3968 C 0.81634 0.86702 0.63227
 C3969 C 0.80974 0.88587 0.63792
 C3970 C 0.79235 0.89373 0.62999
 C3971 C 0.76234 0.89086 0.60834
 N3972 N 0.75730 0.91006 0.61117
 N3973 N 0.74035 0.91716 0.60410
 C3974 C 0.72769 0.90533 0.59396
 N3975 N 0.73275 0.88615 0.59114
 N3976 N 0.74972 0.87907 0.59814
 C3977 C 0.70870 0.91309 0.58632
 C3978 C 0.69410 0.90011 0.57929
 C3979 C 0.67608 0.90732 0.57230
 C3980 C 0.67226 0.92771 0.57197
 C3981 C 0.68690 0.94071 0.57890
 C3982 C 0.70488 0.93348 0.58606
 H3983 H 0.77945 0.85527 0.60015
 H3984 H 0.80980 0.84169 0.61378
 H3985 H 0.81801 0.89458 0.64848
 H3986 H 0.78763 0.90824 0.63473
 H3987 H 0.69648 0.88431 0.57942
 H3988 H 0.66500 0.89687 0.56745
 H3989 H 0.68455 0.95651 0.57860
 H3990 H 0.71585 0.94389 0.59125
 C3991 C 0.78074 0.38281 1.11696
 C3992 C 0.79202 0.39377 1.13052
 C3993 C 0.80945 0.38598 1.13844
 C3994 C 0.81608 0.36713 1.13284
 C3995 C 0.80493 0.35630 1.11907
 C3996 C 0.78744 0.36401 1.11129
 C3997 C 0.76196 0.39074 1.10895
 N3998 N 0.74937 0.37888 1.09879
 N3999 N 0.73237 0.38587 1.09180
 C4000 C 0.72724 0.40504 1.09459
 N4001 N 0.73986 0.41694 1.10468
 N4002 N 0.75685 0.40993 1.11174
 C4003 C 0.70820 0.41270 1.08694
 C4004 C 0.70430 0.43307 1.08665
 C4005 C 0.68629 0.44021 1.07948
 C4006 C 0.67170 0.42714 1.07258
 C4007 C 0.67561 0.40677 1.07294
 C4008 C 0.69366 0.39965 1.07995
 H4009 H 0.78726 0.40828 1.13523
 H4010 H 0.81770 0.39474 1.14897
 H4011 H 0.80956 0.34173 1.11443
 H4012 H 0.77917 0.35520 1.10082
 H4013 H 0.71523 0.44354 1.09181
 H4014 H 0.68387 0.45600 1.07915
 H4015 H 0.66457 0.39626 1.06811
 H4016 H 0.69610 0.38386 1.08011
 C4017 C 0.71924 1.11772 1.11716
 C4018 C 0.71205 1.11143 1.13561
 C4019 C 0.69458 1.11926 1.14332
 C4020 C 0.68397 1.13372 1.13286
 C4021 C 0.69110 1.13995 1.11436
 C4022 C 0.70849 1.13197 1.10655
 C4023 C 0.73798 1.10965 1.10920
 N4024 N 0.74331 1.11284 1.09009
 N4025 N 0.76028 1.10574 1.08305
 C4026 C 0.77267 1.09523 1.09485
 N4027 N 0.76732 1.09205 1.11394
 N4028 N 0.75033 1.09907 1.12095
 C4029 C 0.79168 1.08756 1.08715
 C4030 C 0.80617 1.08044 1.10021
 C4031 C 0.82420 1.07340 1.09306
 C4032 C 0.82812 1.07309 1.07264
 C4033 C 0.81358 1.08012 1.05956
 C4034 C 0.79560 1.08735 1.06674
 H4035 H 0.71992 1.10042 1.14414
 H4036 H 0.68953 1.11415 1.15763
 H4037 H 0.68326 1.15102 1.10588
 H4038 H 0.71364 1.13716 1.09231
 H4039 H 0.80371 1.08055 1.11603
 H4040 H 0.83520 1.06847 1.10358
 H4041 H 0.81600 1.07983 1.04374
 H4042 H 0.78470 1.09261 1.05627
 C4043 C 0.71917 0.61660 0.61621
 C4044 C 0.71198 0.61035 0.63468
 C4045 C 0.69451 0.61820 0.64238
 C4046 C 0.68390 0.63263 0.63188
 C4047 C 0.69102 0.63880 0.61335
 C4048 C 0.70841 0.63080 0.60556
 C4049 C 0.73794 0.60855 0.60829
 N4050 N 0.74331 0.61175 0.58920
 N4051 N 0.76031 0.60471 0.58220
 C4052 C 0.77270 0.59424 0.59403
 N4053 N 0.76732 0.59104 0.61311
 N4054 N 0.75029 0.59801 0.62008
 C4055 C 0.79177 0.58664 0.58639
 C4056 C 0.80624 0.57956 0.59949
 C4057 C 0.82431 0.57258 0.59239
 C4058 C 0.82831 0.57231 0.57199
 C4059 C 0.81380 0.57933 0.55887
 C4060 C 0.79577 0.58649 0.56599
 H4061 H 0.71986 0.59937 0.64324
 H4062 H 0.68947 0.61312 0.65670
 H4063 H 0.68318 0.64984 0.60484
 H4064 H 0.71355 0.63596 0.59131
 H4065 H 0.80372 0.57963 0.61531
 H4066 H 0.83528 0.56767 0.60295
 H4067 H 0.81628 0.57907 0.54306
 H4068 H 0.78489 0.59173 0.55549
 C4069 C 0.21887 1.11737 0.61643
 C4070 C 0.21167 1.11115 0.63491
 C4071 C 0.19414 1.11894 0.64253
 C4072 C 0.18348 1.13328 0.63195
 C4073 C 0.19063 1.13944 0.61344
 C4074 C 0.20808 1.13150 0.60572
 C4075 C 0.23766 1.10933 0.60856
 N4076 N 0.24302 1.11245 0.58945
 N4077 N 0.26003 1.10538 0.58248
 C4078 C 0.27243 1.09497 0.59435
 N4079 N 0.26706 1.09186 0.61345
 N4080 N 0.25003 1.09886 0.62039
 C4081 C 0.29148 1.08733 0.58673
 C4082 C 0.30596 1.08030 0.59985
 C4083 C 0.32403 1.07328 0.59276
 C4084 C 0.32800 1.07292 0.57236
 C4085 C 0.31347 1.07987 0.55922
 C4086 C 0.29545 1.08706 0.56633
 H4087 H 0.21957 1.10023 0.64351
 H4088 H 0.18908 1.11387 0.65685
 H4089 H 0.18276 1.15041 0.60487
 H4090 H 0.21323 1.13664 0.59146
 H4091 H 0.30346 1.08045 0.61567
 H4092 H 0.33502 1.06843 0.60333
 H4093 H 0.31593 1.07954 0.54341
 H4094 H 0.28457 1.09226 0.55582
 C4095 C 0.22130 0.62044 1.11900
 C4096 C 0.21022 0.63421 1.10811
 C4097 C 0.19276 0.64211 1.11585
 C4098 C 0.18588 0.63625 1.13458
 C4099 C 0.19692 0.62240 1.14541
 C4100 C 0.21446 0.61466 1.13776
 C4101 C 0.23990 0.61217 1.11093
 N4102 N 0.25239 0.60175 1.12268
 N4103 N 0.26915 0.59437 1.11549
 C4104 C 0.27412 0.59702 1.09622
 N4105 N 0.26161 0.60740 1.08444
 N4106 N 0.24488 0.61485 1.09165
 C4107 C 0.29283 0.58887 1.08829
 C4108 C 0.29639 0.58837 1.06781
 C4109 C 0.31409 0.58071 1.06040
 C4110 C 0.32871 0.57350 1.07329
 C4111 C 0.32514 0.57404 1.09376
 C4112 C 0.30739 0.58155 1.10116
 H4113 H 0.21509 0.63903 1.09364
 H4114 H 0.18459 0.65270 1.10709
 H4115 H 0.19209 0.61760 1.15990
 H4116 H 0.22260 0.60404 1.14652
 H4117 H 0.28543 0.59377 1.05748
 H4118 H 0.31623 0.58025 1.04454
 H4119 H 0.33621 0.56898 1.10414
 H4120 H 0.30521 0.58184 1.11702
 C4121 C 0.71883 0.88379 0.88352
 C4122 C 0.71163 0.89001 0.86505
 C4123 C 0.69415 0.88214 0.85739
 C4124 C 0.68356 0.86772 0.86792
 C4125 C 0.69070 0.86158 0.88645
 C4126 C 0.70808 0.86959 0.89421
 C4127 C 0.73760 0.89184 0.89141
 N4128 N 0.74297 0.88867 0.91050
 N4129 N 0.75998 0.89571 0.91747
 C4130 C 0.77238 0.90614 0.90561
 N4131 N 0.76699 0.90931 0.88652
 N4132 N 0.74995 0.90234 0.87959
 C4133 C 0.79145 0.91373 0.91321
 C4134 C 0.80593 0.92075 0.90008
 C4135 C 0.82402 0.92770 0.90715
 C4136 C 0.82802 0.92800 0.92755
 C4137 C 0.81349 0.92106 0.94070
 C4138 C 0.79545 0.91392 0.93360
 H4139 H 0.71949 0.90098 0.85647
 H4140 H 0.68910 0.88719 0.84306
 H4141 H 0.68287 0.85054 0.89498
 H4142 H 0.71324 0.86445 0.90846
 H4143 H 0.80341 0.92065 0.88427
 H4144 H 0.83500 0.93256 0.89658
 H4145 H 0.81597 0.92134 0.95651
 H4146 H 0.78456 0.90873 0.94412
 C4147 C 0.71942 0.38271 0.38215
 C4148 C 0.71220 0.38894 0.36370
 C4149 C 0.69474 0.38104 0.35602
 C4150 C 0.68419 0.36656 0.36652
 C4151 C 0.69136 0.36038 0.38502
 C4152 C 0.70872 0.36844 0.39280
 C4153 C 0.73813 0.39085 0.39009
 N4154 N 0.74346 0.38771 0.40919
 N4155 N 0.76040 0.39487 0.41622
 C4156 C 0.77276 0.40539 0.40440
 N4157 N 0.76742 0.40853 0.38531
 N4158 N 0.75045 0.40145 0.37831
 C4159 C 0.79176 0.41311 0.41208
 C4160 C 0.80625 0.42023 0.39902
 C4161 C 0.82427 0.42727 0.40617
 C4162 C 0.82820 0.42757 0.42658
 C4163 C 0.81364 0.42055 0.43966
 C4164 C 0.79567 0.41332 0.43249
 H4165 H 0.72002 0.39996 0.35514
 H4166 H 0.68967 0.38611 0.34171
 H4167 H 0.68357 0.34931 0.39353
 H4168 H 0.71389 0.36328 0.40704
 H4169 H 0.80379 0.42013 0.38320
 H4170 H 0.83528 0.43220 0.39564
 H4171 H 0.81606 0.42083 0.45548
 H4172 H 0.78477 0.40806 0.44297
 C4173 C 0.21956 0.88281 0.38246
 C4174 C 0.21300 0.86395 0.38811
 C4175 C 0.19556 0.85615 0.38034
 C4176 C 0.18432 0.86692 0.36660
 C4177 C 0.19081 0.88583 0.36101
 C4178 C 0.20820 0.89372 0.36892
 C4179 C 0.23828 0.89085 0.39047
 N4180 N 0.24326 0.91008 0.38771
 N4181 N 0.26020 0.91719 0.39479
 C4182 C 0.27291 0.90535 0.40486
 N4183 N 0.26792 0.88613 0.40760
 N4184 N 0.25096 0.87905 0.40060
 C4185 C 0.29188 0.91311 0.41254
 C4186 C 0.30650 0.90013 0.41952
 C4187 C 0.32448 0.90735 0.42659
 C4188 C 0.32823 0.92775 0.42705
 C4189 C 0.31357 0.94075 0.42015
 C4190 C 0.29563 0.93351 0.41291
 H4191 H 0.22135 0.85518 0.39856
 H4192 H 0.19103 0.84153 0.38496
 H4193 H 0.18248 0.89455 0.35050
 H4194 H 0.21284 0.90827 0.36423
 H4195 H 0.30417 0.88433 0.41930
 H4196 H 0.33557 0.89690 0.43142
 H4197 H 0.31588 0.95655 0.42055
 H4198 H 0.28464 0.94392 0.40775
 C4199 C 0.21785 0.38428 0.88461
 C4200 C 0.20720 0.36993 0.89519
 C4201 C 0.18998 0.36168 0.88726
 C4202 C 0.18295 0.36774 0.86866
 C4203 C 0.19340 0.38240 0.85830
 C4204 C 0.21067 0.39050 0.86614
 C4205 C 0.23659 0.39241 0.89248
 N4206 N 0.24884 0.40300 0.88063
 N4207 N 0.26590 0.40998 0.88747
 C4208 C 0.27143 0.40675 0.90649
 N4209 N 0.25913 0.39626 0.91841
 N4210 N 0.24209 0.38919 0.91153
 C4211 C 0.29057 0.41430 0.91394
 C4212 C 0.29475 0.41452 0.93429
 C4213 C 0.31289 0.42157 0.94121
 C4214 C 0.32735 0.42841 0.92793
 C4215 C 0.32316 0.42812 0.90757
 C4216 C 0.30497 0.42125 0.90067
 H4217 H 0.21233 0.36480 0.90945
 H4218 H 0.18226 0.35047 0.89566
 H4219 H 0.18844 0.38742 0.84394
 H4220 H 0.21844 0.40160 0.85764
 H4221 H 0.28393 0.40938 0.94491
 H4222 H 0.31551 0.42186 0.95700
 H4223 H 0.33407 0.43289 0.89688
 H4224 H 0.30231 0.42114 0.88489
   
