data_POSCAR
  _audit_creation_date              2014-09-24
  _audit_creation_method            'ToBaCCo'
  _symmetry_space_group_name_H-M    'P1'
  _symmetry_Int_Tables_number       1
  _symmetry_cell_setting            triclinic
  loop_
  _symmetry_equiv_pos_as_xyz
 x,y,z
_cell_length_a 51.6692
_cell_length_b 56.5056
_cell_length_c 55.5276
_cell_angle_alpha 90.118000
_cell_angle_beta 89.524100
_cell_angle_gamma 88.280900
loop_
  _atom_site_label
  _atom_site_type_symbol
  _atom_site_fract_x
  _atom_site_fract_y
  _atom_site_fract_z
N1 N 0.18182 0.19572 0.19206
 N2 N 0.72863 0.73617 0.72874
 N3 N 0.27928 0.79550 0.71178
 N4 N 0.77877 0.28024 0.20724
 N5 N 0.80363 0.67070 0.30487
 N6 N 0.27963 0.22486 -0.23305
 N7 N 0.72606 0.30815 -0.20225
 N8 N 0.19404 0.79870 0.28986
 N9 N 0.45539 0.44675 0.46731
 N10 N -0.04494 -0.05154 0.95886
 N11 N 1.02943 0.51463 0.97647
 N12 N 0.53669 0.02181 0.47876
 N13 N -0.03206 0.03383 0.51936
 N14 N 0.45653 0.54672 0.02281
 N15 N 0.55884 -0.05252 0.07165
 N16 N 1.04334 0.47856 0.52097
 C17 C 0.40648 0.01823 0.23561
 H18 H 0.40598 0.03316 0.24786
 C19 C 0.42436 0.01730 0.21665
 H20 H 0.43774 0.03155 0.21456
 C21 C 0.39016 -0.01886 0.22418
 H22 H 0.37694 -0.03300 0.22730
 C23 C 0.40768 -0.02047 0.20491
 H24 H 0.40741 -0.03574 0.19311
 N25 N 0.38973 0.00040 0.23892
 C26 C 0.32175 0.03002 0.27639
 H27 H 0.32067 0.01819 0.29164
 C28 C 0.30313 0.04822 0.27360
 H29 H 0.28756 0.05010 0.28670
 C30 C 0.34320 0.04155 0.24061
 H31 H 0.35879 0.03890 0.22774
 C32 C 0.32508 0.06003 0.23718
 H33 H 0.32729 0.07164 0.22186
 Zn34 Zn 0.36681 0.00293 0.26557
 N35 N 0.34151 0.02726 0.26020
 C36 C 0.38129 0.02996 0.30623
 N37 N 0.38696 0.01032 0.29275
 C38 C 0.40808 -0.00379 0.29747
 C39 C 0.42423 0.00138 0.31669
 C40 C 0.39696 0.03583 0.32557
 C41 C 0.33143 -0.03198 0.25410
 C42 C 0.31833 -0.05311 0.25669
 C43 C 0.34292 -0.06134 0.29269
 C44 C 0.35529 -0.03993 0.28959
 N45 N 0.34968 -0.02591 0.27032
 H46 H 0.36476 0.04125 0.30192
 H47 H 0.41249 -0.01899 0.28612
 H48 H 0.44111 -0.00992 0.32001
 H49 H 0.39200 0.05140 0.33624
 H50 H 0.32716 -0.02040 0.23906
 H51 H 0.30408 -0.05784 0.24347
 H52 H 0.34767 -0.07235 0.30807
 H53 H 0.36941 -0.03462 0.30259
 C54 C 0.30480 0.06370 0.25391
 C55 C 0.42510 -0.00222 0.20094
 C56 C 0.32423 -0.06817 0.27608
 C57 C 0.41877 0.02146 0.33100
 C58 C 0.07780 -0.00292 0.71723
 H59 H 0.07684 -0.01669 0.73069
 C60 C 0.06077 -0.00278 0.69789
 H61 H 0.04688 -0.01668 0.69641
 C62 C 0.09690 0.03212 0.70312
 H63 H 0.11069 0.04592 0.70552
 C64 C 0.08035 0.03280 0.68329
 H65 H 0.08152 0.04718 0.67051
 N66 N 0.09534 0.01439 0.71956
 C67 C 0.15686 -0.01511 0.76476
 H68 H 0.15697 -0.00189 0.77888
 C69 C 0.17387 -0.03474 0.76575
 H70 H 0.18726 -0.03639 0.78059
 C71 C 0.13917 -0.02891 0.72827
 H72 H 0.12555 -0.02663 0.71375
 C73 C 0.15588 -0.04880 0.72852
 H74 H 0.15464 -0.06182 0.71428
 Zn75 Zn 0.11560 0.01313 0.74779
 N76 N 0.13958 -0.01283 0.74651
 C77 C 0.09540 -0.00949 0.78922
 N78 N 0.09241 0.00920 0.77400
 C79 C 0.07261 0.02539 0.77694
 C80 C 0.05552 0.02372 0.79644
 C81 C 0.07872 -0.01189 0.80888
 C82 C 0.15379 0.04636 0.73656
 C83 C 0.16972 0.06547 0.74105
 C84 C 0.14555 0.07336 0.77775
 C85 C 0.13021 0.05416 0.77261
 N86 N 0.13455 0.04103 0.75235
 H87 H 0.11081 -0.02251 0.78632
 H88 H 0.07039 0.03984 0.76430
 H89 H 0.04000 0.03688 0.79864
 H90 H 0.08188 -0.02653 0.82117
 H91 H 0.15724 0.03534 0.72083
 H92 H 0.18540 0.06906 0.72866
 H93 H 0.14170 0.08350 0.79402
 H94 H 0.11532 0.04945 0.78529
 C95 C 0.17326 -0.05209 0.74764
 C96 C 0.06180 0.01531 0.68068
 C97 C 0.16590 0.07903 0.76210
 C98 C 0.05863 0.00499 0.81283
 C99 C 0.55777 0.50537 0.22521
 H100 H 0.55123 0.50626 0.24370
 C101 C 0.54008 0.50998 0.20679
 H102 H 0.52032 0.51494 0.21160
 C103 C 0.59146 0.49841 0.19670
 H104 H 0.61155 0.49374 0.19292
 C105 C 0.57430 0.50233 0.17771
 H106 H 0.58147 0.50024 0.15944
 N107 N 0.58297 0.49980 0.21993
 C108 C 0.64617 0.45682 0.25017
 H109 H 0.65421 0.46862 0.26319
 C110 C 0.65869 0.43501 0.24568
 H111 H 0.67613 0.43036 0.25550
 C112 C 0.61329 0.44797 0.22242
 H113 H 0.59531 0.45284 0.21369
 C114 C 0.62523 0.42599 0.21733
 H115 H 0.61657 0.41446 0.20426
 Zn116 Zn 0.60711 0.49292 0.24490
 N117 N 0.62401 0.46305 0.23841
 C118 C 0.58903 0.47084 0.28724
 N119 N 0.58988 0.49164 0.27505
 C120 C 0.57902 0.51192 0.28436
 C121 C 0.56613 0.51166 0.30656
 C122 C 0.57662 0.46983 0.30963
 C123 C 0.64766 0.51742 0.26609
 C124 C 0.66635 0.53461 0.26820
 C125 C 0.65090 0.55212 0.23121
 C126 C 0.63277 0.53433 0.22960
 N127 N 0.63175 0.51717 0.24670
 H128 H 0.59802 0.45497 0.27963
 H129 H 0.58018 0.52827 0.27436
 H130 H 0.55702 0.52789 0.31327
 H131 H 0.57657 0.45314 0.31916
 H132 H 0.64572 0.50435 0.28011
 H133 H 0.67931 0.53382 0.28340
 H134 H 0.65107 0.56572 0.21752
 H135 H 0.61946 0.53440 0.21473
 C136 C 0.64833 0.41929 0.22897
 C137 C 0.54814 0.50826 0.18256
 C138 C 0.66830 0.55229 0.25056
 C139 C 0.56476 0.49039 0.31955
 C140 C 0.92896 0.53072 0.71596
 H141 H 0.92882 0.54505 0.72892
 C142 C 0.94716 0.53008 0.69718
 H143 H 0.96090 0.54410 0.69560
 C144 C 0.91140 0.49483 0.70242
 H145 H 0.89782 0.48086 0.70473
 C146 C 0.92902 0.49365 0.68324
 H147 H 0.92877 0.47874 0.67096
 N148 N 0.91151 0.51328 0.71819
 C149 C 0.84323 0.54007 0.75712
 H150 H 0.84228 0.52672 0.77100
 C151 C 0.82421 0.55805 0.75603
 H152 H 0.80879 0.55857 0.76936
 C153 C 0.86496 0.55575 0.72323
 H154 H 0.88080 0.55466 0.71040
 C155 C 0.84635 0.57413 0.72151
 H156 H 0.84797 0.58703 0.70723
 Zn157 Zn 0.88808 0.51443 0.74464
 N158 N 0.86325 0.53940 0.74106
 C159 C 0.90157 0.53845 0.78719
 N160 N 0.90727 0.51923 0.77311
 C161 C 0.92707 0.50385 0.77869
 C162 C 0.94158 0.50719 0.79950
 C163 C 0.91558 0.54249 0.80807
 C164 C 0.85187 0.48240 0.72889
 C165 C 0.83681 0.46233 0.72935
 C166 C 0.85815 0.45020 0.76605
 C167 C 0.87274 0.47059 0.76494
 N168 N 0.86954 0.48608 0.74641
 H169 H 0.88619 0.55080 0.78227
 H170 H 0.93156 0.48897 0.76693
 H171 H 0.95734 0.49483 0.80363
 H172 H 0.91038 0.55767 0.81921
 H173 H 0.84937 0.49525 0.71461
 H174 H 0.82258 0.45997 0.71541
 H175 H 0.86128 0.43790 0.78074
 H176 H 0.88650 0.47401 0.77895
 C177 C 0.82570 0.57549 0.73815
 C178 C 0.94723 0.51139 0.68048
 C179 C 0.83985 0.44587 0.74811
 C180 C 0.93586 0.52674 0.81451
 C181 C 0.22798 0.39457 0.00633
 H182 H 0.23874 0.39657 0.02281
 C183 C 0.20713 0.41007 0.00131
 H184 H 0.20205 0.42404 0.01401
 C185 C 0.22246 0.37463 -0.03075
 H186 H 0.22867 0.36110 -0.04344
 C187 C 0.20147 0.38963 -0.03643
 H188 H 0.19147 0.38700 -0.05323
 N189 N 0.23519 0.37723 -0.00961
 C190 C 0.27653 0.32009 0.02804
 H191 H 0.29349 0.31818 0.01655
 C192 C 0.27316 0.30456 0.04726
 H193 H 0.28755 0.29058 0.05024
 C194 C 0.23686 0.34024 0.03743
 H195 H 0.22268 0.35408 0.03348
 C196 C 0.23278 0.32518 0.05696
 H197 H 0.21564 0.32795 0.06806
 Zn198 Zn 0.26486 0.35786 -0.00283
 N199 N 0.25863 0.33763 0.02363
 C200 C 0.30746 0.37476 0.02381
 N201 N 0.29240 0.37813 0.00406
 C202 C 0.29651 0.39625 -0.01145
 C203 C 0.31681 0.41156 -0.00771
 C204 C 0.32811 0.38955 0.02815
 C205 C 0.25745 0.32128 -0.03633
 C206 C 0.26280 0.30732 -0.05668
 C207 C 0.30197 0.32884 -0.06299
 C208 C 0.29586 0.34238 -0.04257
 N209 N 0.27367 0.33869 -0.02995
 H210 H 0.30365 0.36051 0.03615
 H211 H 0.28413 0.39862 -0.02694
 H212 H 0.32009 0.42559 -0.02052
 H213 H 0.33999 0.38658 0.04390
 H214 H 0.24014 0.31846 -0.02575
 H215 H 0.24960 0.29361 -0.06154
 H216 H 0.31936 0.33252 -0.07315
 H217 H 0.30876 0.35600 -0.03703
 C218 C 0.25113 0.30707 0.06216
 C219 C 0.19365 0.40778 -0.02041
 C220 C 0.28522 0.31117 -0.07044
 C221 C 0.33306 0.40817 0.01221
 C222 C 0.70979 0.09250 -0.01921
 H223 H 0.72078 0.09262 -0.03587
 C224 C 0.69059 0.07598 -0.01585
 H225 H 0.68710 0.06330 -0.03001
 C226 C 0.70212 0.10821 0.01988
 H227 H 0.70701 0.12045 0.03396
 C228 C 0.68261 0.09206 0.02396
 H229 H 0.67226 0.09251 0.04100
 N230 N 0.71504 0.10831 -0.00156
 C231 C 0.75063 0.16730 -0.03799
 H232 H 0.76829 0.16827 -0.02775
 C233 C 0.74512 0.18410 -0.05574
 H234 H 0.75860 0.19809 -0.05885
 C235 C 0.71112 0.14844 -0.04537
 H236 H 0.69773 0.13475 -0.04104
 C237 C 0.70492 0.16477 -0.06343
 H238 H 0.68700 0.16308 -0.07316
 Zn239 Zn 0.74248 0.12888 -0.00791
 N240 N 0.73377 0.14988 -0.03322
 C241 C 0.78355 0.11162 -0.03826
 N242 N 0.77146 0.10941 -0.01657
 C243 C 0.77825 0.09173 -0.00110
 C244 C 0.79762 0.07505 -0.00739
 C245 C 0.80319 0.09543 -0.04520
 C246 C 0.73084 0.16237 0.02822
 C247 C 0.73606 0.17812 0.04685
 C248 C 0.78075 0.16418 0.04587
 C249 C 0.77455 0.14828 0.02766
 N250 N 0.74994 0.14774 0.01918
 H251 H 0.77762 0.12559 -0.05045
 H252 H 0.76800 0.09019 0.01587
 H253 H 0.80201 0.06063 0.00486
 H254 H 0.81259 0.09752 -0.06253
 H255 H 0.71164 0.16210 0.02063
 H256 H 0.72078 0.18984 0.05378
 H257 H 0.80050 0.16485 0.05217
 H258 H 0.78958 0.13696 0.01977
 C259 C 0.72200 0.18297 -0.06880
 C260 C 0.67664 0.07562 0.00596
 C261 C 0.76135 0.17931 0.05557
 C262 C 0.81020 0.07660 -0.02984
 C263 C 0.22183 0.61075 0.48512
 H264 H 0.23410 0.60718 0.46957
 C265 C 0.19914 0.59828 0.48836
 H266 H 0.19389 0.58522 0.47511
 C267 C 0.21381 0.63212 0.52133
 H268 H 0.21972 0.64508 0.53432
 C269 C 0.19081 0.62027 0.52512
 H270 H 0.17924 0.62420 0.54106
 N271 N 0.22866 0.62737 0.50145
 C272 C 0.27406 0.68244 0.46872
 H273 H 0.29073 0.68206 0.48039
 C274 C 0.27110 0.70030 0.45152
 H275 H 0.28568 0.71358 0.44983
 C276 C 0.23451 0.66577 0.45700
 H277 H 0.22008 0.65254 0.45945
 C278 C 0.23098 0.68309 0.43935
 H279 H 0.21377 0.68305 0.42835
 Zn280 Zn 0.26002 0.64318 0.49612
 N281 N 0.25583 0.66571 0.47120
 C282 C 0.30003 0.62264 0.46698
 N283 N 0.28585 0.62022 0.48752
 C284 C 0.28885 0.60077 0.50172
 C285 C 0.30681 0.58279 0.49550
 C286 C 0.31823 0.60510 0.46009
 C287 C 0.25515 0.67945 0.53007
 C288 C 0.26115 0.69270 0.55038
 C289 C 0.29672 0.66514 0.55824
 C290 C 0.29010 0.65246 0.53768
 N291 N 0.26943 0.65964 0.52424
 H292 H 0.29715 0.63810 0.45580
 H293 H 0.27699 0.59912 0.51774
 H294 H 0.30855 0.56725 0.50681
 H295 H 0.32950 0.60745 0.44379
 H296 H 0.23909 0.68499 0.51882
 H297 H 0.24971 0.70858 0.55447
 H298 H 0.31292 0.65889 0.56898
 H299 H 0.30146 0.63688 0.53255
 C300 C 0.24932 0.70072 0.43659
 C301 C 0.18328 0.60307 0.50854
 C302 C 0.28210 0.68552 0.56487
 C303 C 0.32174 0.58478 0.47438
 C304 C 0.74101 0.89497 0.47097
 H305 H 0.75906 0.89510 0.46096
 C306 C 0.72114 0.91134 0.46555
 H307 H 0.72417 0.92423 0.45148
 C308 C 0.71537 0.87810 0.50168
 H309 H 0.71318 0.86511 0.51573
 C310 C 0.69499 0.89412 0.49684
 H311 H 0.67712 0.89300 0.50705
 N312 N 0.73765 0.87855 0.48850
 C313 C 0.77195 0.84111 0.54236
 H314 H 0.78701 0.85392 0.54302
 C315 C 0.76708 0.82721 0.56257
 H316 H 0.77850 0.82944 0.57864
 C317 C 0.73938 0.82191 0.52050
 H318 H 0.72876 0.81993 0.50394
 C319 C 0.73409 0.80746 0.54018
 H320 H 0.71922 0.79444 0.53876
 Zn321 Zn 0.76493 0.85616 0.49388
 N322 N 0.75804 0.83832 0.52190
 C323 C 0.79507 0.89151 0.51320
 N324 N 0.79581 0.87298 0.49754
 C325 C 0.81757 0.86735 0.48453
 C326 C 0.83989 0.88045 0.48733
 C327 C 0.81686 0.90512 0.51648
 C328 C 0.75156 0.83779 0.44834
 C329 C 0.75120 0.82086 0.43005
 C330 C 0.78335 0.79760 0.45163
 C331 C 0.78321 0.81510 0.46949
 N332 N 0.76734 0.83464 0.46762
 H333 H 0.77743 0.89573 0.52315
 H334 H 0.81763 0.85279 0.47188
 H335 H 0.85697 0.87589 0.47668
 H336 H 0.81593 0.91965 0.52923
 H337 H 0.73874 0.85318 0.44728
 H338 H 0.73852 0.82381 0.41485
 H339 H 0.79553 0.78185 0.45382
 H340 H 0.79519 0.81278 0.48525
 C341 C 0.74806 0.81003 0.56155
 C342 C 0.69763 0.91088 0.47839
 C343 C 0.76693 0.80023 0.43169
 C344 C 0.83967 0.89967 0.50344
 C345 C 0.01165 0.22774 0.41836
 H346 H 0.02765 0.23965 0.41770
 C347 C 0.01236 0.20852 0.43413
 H348 H 0.02914 0.20555 0.44541
 C349 C -0.02981 0.21734 0.40461
 H350 H -0.04650 0.22114 0.39357
 C351 C -0.02981 0.19781 0.41998
 H352 H -0.04652 0.18670 0.42050
 N353 N -0.00916 0.23172 0.40392
 C354 C 0.01914 0.27412 0.34418
 H355 H 0.00591 0.28929 0.34543
 C356 C 0.03763 0.27279 0.32570
 H357 H 0.03844 0.28700 0.31269
 C358 C 0.03339 0.23676 0.35918
 H359 H 0.03146 0.22261 0.37205
 C360 C 0.05213 0.23468 0.34096
 H361 H 0.06480 0.21908 0.34032
 Zn362 Zn -0.00900 0.25903 0.38421
 N363 N 0.01748 0.25634 0.36054
 C364 C 0.01687 0.29937 0.40170
 N365 N -0.00367 0.28514 0.40476
 C366 C -0.02058 0.28845 0.42344
 C367 C -0.01743 0.30691 0.43978
 C368 C 0.02074 0.31807 0.41763
 C369 C -0.04731 0.24592 0.35186
 C370 C -0.07010 0.24827 0.33864
 C371 C -0.07861 0.28619 0.35774
 C372 C -0.05577 0.28302 0.37075
 N373 N -0.04075 0.26303 0.36774
 H374 H 0.03047 0.29609 0.38712
 H375 H -0.03655 0.27667 0.42560
 H376 H -0.03132 0.30944 0.45434
 H377 H 0.03738 0.32904 0.41510
 H378 H -0.03478 0.23040 0.34950
 H379 H -0.07517 0.23420 0.32646
 H380 H -0.08997 0.30246 0.36004
 H381 H -0.04985 0.29675 0.38288
 C382 C 0.05440 0.25284 0.32388
 C383 C -0.00856 0.19326 0.43504
 C384 C -0.08609 0.26868 0.34141
 C385 C 0.00347 0.32202 0.43700
 C386 C -0.01558 0.70174 0.08169
 H387 H -0.03442 0.71025 0.07929
 C388 C -0.00853 0.68162 0.06816
 H389 H -0.02205 0.67490 0.05522
 C390 C 0.02528 0.70094 0.10071
 H391 H 0.03862 0.70861 0.11313
 C392 C 0.03302 0.68072 0.08778
 H393 H 0.05205 0.67287 0.09095
 N394 N 0.00127 0.71093 0.09763
 C395 C -0.03964 0.75025 0.15439
 H396 H -0.02868 0.76626 0.15384
 C397 C -0.05875 0.74760 0.17194
 H398 H -0.06212 0.76159 0.18505
 C399 C -0.04784 0.71238 0.13823
 H400 H -0.04344 0.69870 0.12508
 C401 C -0.06729 0.70903 0.15545
 H402 H -0.07797 0.69284 0.15513
 Zn403 Zn -0.00854 0.73884 0.11486
 N404 N -0.03473 0.73290 0.13785
 C405 C -0.04411 0.77315 0.09637
 N406 N -0.02070 0.76201 0.09274
 C407 C -0.00546 0.76745 0.07357
 C408 C -0.01311 0.78546 0.05773
 C409 C -0.05249 0.79128 0.08102
 C410 C 0.02876 0.73726 0.15103
 C411 C 0.04955 0.74482 0.16462
 C412 C 0.05195 0.77927 0.13910
 C413 C 0.03105 0.77108 0.12601
 N414 N 0.02013 0.75025 0.13197
 H415 H -0.05618 0.76835 0.11144
 H416 H 0.01291 0.75807 0.07089
 H417 H -0.00062 0.78968 0.04269
 H418 H -0.07077 0.80048 0.08478
 H419 H 0.01949 0.72093 0.15558
 H420 H 0.05644 0.73399 0.17945
 H421 H 0.06032 0.79595 0.13420
 H422 H 0.02355 0.78148 0.11121
 C423 C -0.07309 0.72687 0.17252
 C424 C 0.01612 0.67083 0.07110
 C425 C 0.06148 0.76606 0.15867
 C426 C -0.03677 0.79790 0.06158
 C427 C 0.51686 0.21120 0.58450
 H428 H 0.49989 0.22243 0.58141
 C429 C 0.52232 0.19192 0.56935
 H430 H 0.50953 0.18846 0.55448
 C431 C 0.55431 0.20229 0.60750
 H432 H 0.56682 0.20642 0.62231
 C433 C 0.56057 0.18290 0.59274
 H434 H 0.57764 0.17204 0.59665
 N435 N 0.53248 0.21569 0.60346
 C436 C 0.48422 0.25008 0.65895
 H437 H 0.49520 0.26562 0.66281
 C438 C 0.46220 0.24528 0.67270
 H439 H 0.45644 0.25721 0.68718
 C440 C 0.47923 0.21505 0.63618
 H441 H 0.48608 0.20302 0.62227
 C442 C 0.45708 0.20965 0.64934
 H443 H 0.44688 0.19379 0.64488
 Zn444 Zn 0.52321 0.24147 0.62397
 N445 N 0.49223 0.23507 0.64102
 C446 C 0.49824 0.28381 0.60677
 N447 N 0.51911 0.26872 0.60447
 C448 C 0.53781 0.27234 0.58763
 C449 C 0.53607 0.29188 0.57234
 C450 C 0.49588 0.30377 0.59203
 C451 C 0.55315 0.22912 0.66406
 C452 C 0.57275 0.23123 0.68102
 C453 C 0.58416 0.26825 0.66264
 C454 C 0.56434 0.26544 0.64603
 N455 N 0.54957 0.24593 0.64682
 H456 H 0.48346 0.28053 0.62011
 H457 H 0.55406 0.25990 0.58601
 H458 H 0.55097 0.29409 0.55879
 H459 H 0.47944 0.31586 0.59460
 H460 H 0.54089 0.21394 0.66445
 H461 H 0.57529 0.21766 0.69461
 H462 H 0.59614 0.28360 0.66134
 H463 H 0.56099 0.27873 0.63237
 C464 C 0.44835 0.22476 0.66800
 C465 C 0.54429 0.17733 0.57356
 C466 C 0.58871 0.25091 0.68033
 C467 C 0.51496 0.30805 0.57449
 C468 C 0.51177 0.73671 0.92017
 H469 H 0.52778 0.74855 0.92151
 C470 C 0.51009 0.71763 0.93593
 H471 H 0.52510 0.71463 0.94916
 C472 C 0.47235 0.72675 0.90170
 H473 H 0.45733 0.73078 0.88880
 C474 C 0.47001 0.70728 0.91700
 H475 H 0.45319 0.69639 0.91567
 N476 N 0.49298 0.74103 0.90362
 C477 C 0.52677 0.78615 0.84887
 H478 H 0.51326 0.80113 0.84979
 C479 C 0.54637 0.78551 0.83141
 H480 H 0.54807 0.80025 0.81913
 C481 C 0.54063 0.74856 0.86360
 H482 H 0.53796 0.73398 0.87583
 C483 C 0.56063 0.74726 0.84650
 H484 H 0.57322 0.73160 0.84574
 Zn485 Zn 0.49554 0.76940 0.88586
 N486 N 0.52423 0.76784 0.86448
 C487 C 0.51915 0.80897 0.90792
 N488 N 0.49910 0.79392 0.90867
 C489 C 0.48094 0.79532 0.92650
 C490 C 0.48220 0.81264 0.94433
 C491 C 0.52113 0.82664 0.92539
 C492 C 0.46038 0.76057 0.84869
 C493 C 0.44027 0.76600 0.83276
 C494 C 0.43145 0.80223 0.85489
 C495 C 0.45162 0.79609 0.87042
 N496 N 0.46572 0.77561 0.86702
 H497 H 0.53360 0.80732 0.89380
 H498 H 0.46544 0.78287 0.92684
 H499 H 0.46768 0.81326 0.95850
 H500 H 0.53695 0.83873 0.92429
 H501 H 0.47227 0.74467 0.84605
 H502 H 0.43675 0.75414 0.81787
 H503 H 0.42061 0.81871 0.85778
 H504 H 0.45647 0.80811 0.88471
 C505 C 0.56352 0.76580 0.82997
 C506 C 0.48885 0.70278 0.93464
 C507 C 0.42578 0.78727 0.83556
 C508 C 0.50244 0.82867 0.94389
 C509 C 0.15506 0.22066 0.21981
 C510 C 0.13554 0.22306 0.23748
 C511 C 0.12114 0.20316 0.24412
 C512 C 0.12632 0.18129 0.23284
 C513 C 0.14593 0.17903 0.21547
 C514 C 0.16058 0.19858 0.20896
 C515 C 0.10204 0.20532 0.26214
 C516 C 0.09730 0.22707 0.27381
 C517 C 0.11156 0.24702 0.26709
 C518 C 0.13053 0.24492 0.24891
 C519 C 0.10674 0.26871 0.27884
 C520 C 0.08812 0.27060 0.29720
 C521 C 0.07396 0.25084 0.30417
 C522 C 0.07862 0.22913 0.29225
 H523 H 0.16648 0.23573 0.21494
 H524 H 0.11545 0.16588 0.23766
 H525 H 0.14987 0.16193 0.20716
 H526 H 0.09110 0.19001 0.26728
 H527 H 0.14156 0.26019 0.24385
 H528 H 0.11750 0.28418 0.27396
 H529 H 0.08508 0.28747 0.30624
 H530 H 0.06755 0.21386 0.29719
 C531 C 0.68433 0.74779 0.74261
 C532 C 0.66556 0.75016 0.76096
 C533 C 0.67197 0.74377 0.78483
 C534 C 0.69712 0.73539 0.78998
 C535 C 0.71570 0.73316 0.77164
 C536 C 0.70950 0.73916 0.74776
 C537 C 0.65314 0.74575 0.80314
 C538 C 0.62796 0.75408 0.79789
 C539 C 0.62165 0.76072 0.77406
 C540 C 0.64046 0.75868 0.75575
 C541 C 0.59655 0.76922 0.76890
 C542 C 0.57781 0.77102 0.78713
 C543 C 0.58376 0.76429 0.81086
 C544 C 0.60896 0.75584 0.81610
 H545 H 0.67926 0.75229 0.72426
 H546 H 0.70242 0.73051 0.80819
 H547 H 0.73501 0.72674 0.77611
 H548 H 0.65805 0.74074 0.82143
 H549 H 0.63554 0.76366 0.73745
 H550 H 0.59136 0.77437 0.75074
 H551 H 0.55846 0.77731 0.78258
 H552 H 0.61383 0.75085 0.83439
 C553 C 0.31478 0.80528 0.73944
 C554 C 0.33293 0.79860 0.75702
 C555 C 0.33399 0.77504 0.76556
 C556 C 0.31669 0.75863 0.75655
 C557 C 0.29864 0.76544 0.73911
 C558 C 0.29755 0.78876 0.73030
 C559 C 0.35238 0.76822 0.78286
 C560 C 0.36974 0.78468 0.79176
 C561 C 0.36849 0.80831 0.78336
 C562 C 0.35013 0.81511 0.76604
 C563 C 0.38572 0.82476 0.79237
 C564 C 0.40413 0.81789 0.80944
 C565 C 0.40572 0.79442 0.81782
 C566 C 0.38839 0.77789 0.80887
 H567 H 0.31428 0.82323 0.73259
 H568 H 0.31716 0.74052 0.76294
 H569 H 0.28543 0.75247 0.73249
 H570 H 0.35326 0.75011 0.78932
 H571 H 0.34929 0.83320 0.75955
 H572 H 0.38507 0.84292 0.78611
 H573 H 0.41749 0.83087 0.81578
 H574 H 0.38929 0.75981 0.81538
 C575 C -0.19910 0.28120 0.24652
 C576 C -0.17733 0.27648 0.26087
 C577 C -0.15535 0.26455 0.25078
 C578 C -0.15574 0.25713 0.22670
 C579 C -0.17749 0.26187 0.21257
 C580 C -0.19924 0.27424 0.22219
 C581 C -0.13326 0.26040 0.26484
 C582 C -0.13287 0.26798 0.28889
 C583 C -0.15500 0.27954 0.29912
 C584 C -0.17709 0.28372 0.28505
 C585 C -0.15456 0.28690 0.32323
 C586 C -0.13232 0.28311 0.33701
 C587 C -0.11002 0.27198 0.32694
 C588 C -0.11057 0.26437 0.30281
 H589 H -0.21593 0.29043 0.25417
 H590 H -0.13910 0.24788 0.21871
 H591 H -0.17700 0.25630 0.19392
 H592 H -0.11634 0.25143 0.25701
 H593 H -0.19398 0.29278 0.29284
 H594 H -0.17139 0.29564 0.33142
 H595 H -0.13265 0.28879 0.35564
 H596 H -0.09345 0.25610 0.29464
 C597 C -0.17364 0.69416 0.27444
 C598 C -0.15505 0.69609 0.25608
 C599 C -0.13982 0.67597 0.24911
 C600 C -0.14378 0.65417 0.26043
 C601 C -0.16253 0.65239 0.27860
 C602 C -0.17743 0.67237 0.28579
 C603 C -0.12086 0.67801 0.23104
 C604 C -0.11707 0.69987 0.21977
 C605 C -0.13263 0.71985 0.22654
 C606 C -0.15147 0.71785 0.24466
 C607 C -0.12903 0.74160 0.21514
 C608 C -0.10996 0.74369 0.19741
 C609 C -0.09397 0.72412 0.19079
 C610 C -0.09783 0.70215 0.20197
 H611 H -0.18533 0.70952 0.27992
 H612 H -0.13235 0.63855 0.25530
 H613 H -0.16527 0.63551 0.28729
 H614 H -0.10903 0.66263 0.22581
 H615 H -0.16326 0.73323 0.24993
 H616 H -0.14093 0.75703 0.21997
 H617 H -0.10782 0.76069 0.18877
 H618 H -0.08551 0.68697 0.19722
 C619 C 0.31935 0.21307 0.74443
 C620 C 0.34134 0.21888 0.73095
 C621 C 0.34575 0.24283 0.72529
 C622 C 0.32818 0.26055 0.73342
 C623 C 0.30649 0.25461 0.74706
 C624 C 0.30186 0.23087 0.75260
 C625 C 0.36768 0.24867 0.71173
 C626 C 0.38540 0.23089 0.70396
 C627 C 0.38108 0.20699 0.70985
 C628 C 0.35905 0.20112 0.72322
 C629 C 0.39892 0.18930 0.70231
 C630 C 0.42079 0.19515 0.68893
 C631 C 0.42522 0.21882 0.68266
 C632 C 0.40738 0.23663 0.69036
 H633 H 0.31597 0.19476 0.74894
 H634 H 0.33126 0.27900 0.72930
 H635 H 0.29314 0.26851 0.75322
 H636 H 0.37101 0.26703 0.70732
 H637 H 0.35573 0.18277 0.72766
 H638 H 0.39601 0.17091 0.70681
 H639 H 0.43441 0.18111 0.68369
 H640 H 0.41038 0.25491 0.68548
 C641 C 0.69894 0.28381 0.77150
 C642 C 0.67811 0.28157 0.75570
 C643 C 0.66269 0.30177 0.74967
 C644 C 0.66837 0.32382 0.75960
 C645 C 0.68912 0.32588 0.77535
 C646 C 0.70460 0.30594 0.78145
 C647 C 0.64191 0.29960 0.73380
 C648 C 0.63637 0.27750 0.72384
 C649 C 0.65175 0.25730 0.72993
 C650 C 0.67251 0.25946 0.74581
 C651 C 0.64616 0.23526 0.71995
 C652 C 0.62560 0.23322 0.70398
 C653 C 0.61021 0.25316 0.69769
 C654 C 0.61572 0.27528 0.70780
 H655 H 0.71093 0.26839 0.77593
 H656 H 0.65674 0.33948 0.75523
 H657 H 0.69301 0.34305 0.78297
 H658 H 0.63011 0.31510 0.72916
 H659 H 0.68432 0.24397 0.75045
 H660 H 0.65778 0.21961 0.72437
 H661 H 0.62203 0.21604 0.69621
 H662 H 0.60379 0.29074 0.70335
 C663 C 0.17051 0.79788 0.25134
 C664 C 0.14859 0.79221 0.23798
 C665 C 0.12672 0.78310 0.24990
 C666 C 0.12703 0.78011 0.27494
 C667 C 0.14898 0.78564 0.28804
 C668 C 0.17092 0.79436 0.27635
 C669 C 0.10505 0.77680 0.23658
 C670 C 0.10502 0.77926 0.21146
 C671 C 0.12674 0.78859 0.19955
 C672 C 0.14836 0.79509 0.21290
 C673 C 0.12657 0.79101 0.17443
 C674 C 0.10525 0.78393 0.16119
 C675 C 0.08372 0.77432 0.17282
 C676 C 0.08369 0.77225 0.19804
 H677 H 0.18752 0.80444 0.24230
 H678 H 0.11044 0.77321 0.28436
 H679 H 0.14902 0.78295 0.30734
 H680 H 0.08837 0.76967 0.24572
 H681 H 0.16510 0.80209 0.20374
 H682 H 0.14304 0.79812 0.16499
 H683 H 0.10584 0.78552 0.14176
 H684 H 0.06701 0.76521 0.20724
 C685 C 0.20856 0.16901 0.21758
 C686 C 0.22566 0.14947 0.22028
 C687 C 0.23440 0.13665 0.19973
 C688 C 0.22592 0.14368 0.17683
 C689 C 0.20883 0.16314 0.17432
 C690 C 0.19995 0.17593 0.19464
 C691 C 0.25143 0.11703 0.20239
 C692 C 0.25991 0.11014 0.22535
 C693 C 0.25119 0.12300 0.24588
 C694 C 0.23411 0.14255 0.24323
 C695 C 0.25978 0.11613 0.26877
 C696 C 0.27700 0.09679 0.27133
 C697 C 0.28590 0.08385 0.25108
 C698 C 0.27709 0.09062 0.22810
 H699 H 0.20194 0.17893 0.23330
 H700 H 0.23239 0.13406 0.16088
 H701 H 0.20226 0.16809 0.15651
 H702 H 0.25813 0.10720 0.18662
 H703 H 0.22741 0.15240 0.25899
 H704 H 0.25336 0.12583 0.28468
 H705 H 0.28375 0.09225 0.28918
 H706 H 0.28348 0.08063 0.21235
 C707 C 0.73987 0.69368 0.73381
 C708 C 0.75819 0.67482 0.73359
 C709 C 0.78458 0.67932 0.72910
 C710 C 0.79217 0.70256 0.72483
 C711 C 0.77379 0.72117 0.72491
 C712 C 0.74756 0.71690 0.72942
 C713 C 0.80295 0.66055 0.72884
 C714 C 0.79528 0.63729 0.73294
 C715 C 0.76889 0.63277 0.73733
 C716 C 0.75051 0.65156 0.73764
 C717 C 0.76133 0.60950 0.74142
 C718 C 0.77975 0.59089 0.74140
 C719 C 0.80607 0.59519 0.73725
 C720 C 0.81366 0.61849 0.73289
 H721 H 0.71958 0.69035 0.73700
 H722 H 0.81229 0.70633 0.72134
 H723 H 0.77997 0.73900 0.72150
 H724 H 0.82319 0.66403 0.72545
 H725 H 0.73027 0.64808 0.74104
 H726 H 0.74118 0.60568 0.74472
 H727 H 0.77337 0.57307 0.74452
 H728 H 0.83394 0.62207 0.72998
 C729 C 0.75135 0.33686 0.77461
 C730 C 0.76707 0.35666 0.77365
 C731 C 0.77332 0.36855 0.79519
 C732 C 0.76390 0.36031 0.81729
 C733 C 0.74844 0.34048 0.81807
 C734 C 0.74197 0.32867 0.79679
 C735 C 0.78890 0.38843 0.79431
 C736 C 0.79849 0.39649 0.77218
 C737 C 0.79243 0.38448 0.75068
 C738 C 0.77671 0.36468 0.75154
 C739 C 0.80221 0.39250 0.72864
 C740 C 0.81774 0.41230 0.72787
 C741 C 0.82374 0.42453 0.74909
 C742 C 0.81402 0.41642 0.77123
 H743 H 0.74658 0.32759 0.75819
 H744 H 0.76852 0.36918 0.83397
 H745 H 0.74128 0.33439 0.83529
 H746 H 0.79360 0.39759 0.81082
 H747 H 0.77201 0.35552 0.73503
 H748 H 0.79788 0.38344 0.71200
 H749 H 0.82527 0.41791 0.71061
 H750 H 0.81816 0.42586 0.78771
 C751 C 0.23414 -0.17825 0.28853
 C752 C 0.24669 -0.15672 0.28575
 C753 C 0.23196 -0.13573 0.28120
 C754 C 0.20494 -0.13658 0.27985
 C755 C 0.19260 -0.15802 0.28291
 C756 C 0.20700 -0.17909 0.28718
 C757 C 0.24444 -0.11423 0.27811
 C758 C 0.27147 -0.11338 0.27978
 C759 C 0.28618 -0.13431 0.28468
 C760 C 0.27372 -0.15586 0.28748
 C761 C 0.31315 -0.13329 0.28679
 C762 C 0.32544 -0.11177 0.28409
 C763 C 0.31104 -0.09092 0.27898
 C764 C 0.28402 -0.09187 0.27677
 H765 H 0.24546 -0.19441 0.29157
 H766 H 0.19334 -0.12065 0.27650
 H767 H 0.17168 -0.15814 0.28203
 H768 H 0.23313 -0.09816 0.27451
 H769 H 0.28503 -0.17193 0.29111
 H770 H 0.32472 -0.14914 0.29057
 H771 H 0.34630 -0.11143 0.28570
 H772 H 0.27276 -0.07580 0.27312
 C773 C 0.25698 -0.17075 0.73249
 C774 C 0.24394 -0.14860 0.73173
 C775 C 0.24127 -0.13661 0.70950
 C776 C 0.25200 -0.14679 0.68852
 C777 C 0.26481 -0.16885 0.68943
 C778 C 0.26724 -0.18112 0.71132
 C779 C 0.22760 -0.11483 0.70850
 C780 C 0.21630 -0.10495 0.72940
 C781 C 0.21925 -0.11675 0.75169
 C782 C 0.23313 -0.13845 0.75273
 C783 C 0.20791 -0.10680 0.77252
 C784 C 0.19337 -0.08559 0.77123
 C785 C 0.18994 -0.07390 0.74910
 C786 C 0.20176 -0.08361 0.72827
 H787 H 0.25863 -0.18024 0.74938
 H788 H 0.25022 -0.13782 0.67135
 H789 H 0.27277 -0.17649 0.67297
 H790 H 0.22539 -0.10576 0.69140
 H791 H 0.23519 -0.14760 0.76980
 H792 H 0.20994 -0.11559 0.78976
 H793 H 0.18424 -0.07865 0.78749
 H794 H 0.19955 -0.07460 0.71117
 C795 C 0.73863 0.30521 0.20882
 C796 C 0.72601 0.32740 0.21173
 C797 C 0.74080 0.34786 0.21465
 C798 C 0.76790 0.34580 0.21447
 C799 C 0.78027 0.32363 0.21179
 C800 C 0.76580 0.30314 0.20916
 C801 C 0.72830 0.37001 0.21799
 C802 C 0.70118 0.37195 0.21874
 C803 C 0.68637 0.35153 0.21575
 C804 C 0.69887 0.32940 0.21214
 C805 C 0.65927 0.35357 0.21666
 C806 C 0.64694 0.37558 0.22077
 C807 C 0.66145 0.39600 0.22395
 C808 C 0.68864 0.39400 0.22270
 H809 H 0.72734 0.28948 0.20690
 H810 H 0.77953 0.36129 0.21660
 H811 H 0.80122 0.32241 0.21180
 H812 H 0.73967 0.38567 0.22030
 H813 H 0.68750 0.31372 0.20994
 H814 H 0.64761 0.33810 0.21446
 H815 H 0.62600 0.37652 0.22193
 H816 H 0.70007 0.40964 0.22473
 C817 C 0.77433 0.64612 0.28083
 C818 C 0.75488 0.62940 0.27927
 C819 C 0.74389 0.62020 0.30055
 C820 C 0.75288 0.62761 0.32301
 C821 C 0.77257 0.64397 0.32440
 C822 C 0.78341 0.65355 0.30338
 C823 C 0.72423 0.60367 0.29902
 C824 C 0.71577 0.59587 0.27647
 C825 C 0.72708 0.60480 0.25522
 C826 C 0.74638 0.62165 0.25674
 C827 C 0.71902 0.59658 0.23276
 C828 C 0.70003 0.57957 0.23131
 C829 C 0.68836 0.57065 0.25227
 C830 C 0.69632 0.57912 0.27485
 H831 H 0.78233 0.65343 0.26446
 H832 H 0.74481 0.62062 0.33951
 H833 H 0.77943 0.64908 0.34197
 H834 H 0.71571 0.59670 0.31536
 H835 H 0.75495 0.62858 0.24040
 H836 H 0.72764 0.60309 0.21629
 H837 H 0.69483 0.57313 0.21368
 H838 H 0.68732 0.57282 0.29122
 C839 C 0.25542 0.18918 0.77728
 C840 C 0.23999 0.17028 0.77065
 C841 C 0.23282 0.16746 0.74631
 C842 C 0.24147 0.18352 0.72900
 C843 C 0.25693 0.20226 0.73577
 C844 C 0.26390 0.20534 0.75995
 C845 C 0.21708 0.14870 0.73972
 C846 C 0.20846 0.13273 0.75717
 C847 C 0.21589 0.13551 0.78146
 C848 C 0.23159 0.15423 0.78803
 C849 C 0.20740 0.11957 0.79887
 C850 C 0.19142 0.10118 0.79242
 C851 C 0.18352 0.09835 0.76843
 C852 C 0.19236 0.11413 0.75080
 H853 H 0.26102 0.19130 0.79591
 H854 H 0.23622 0.18163 0.71026
 H855 H 0.26324 0.21458 0.72218
 H856 H 0.21148 0.14660 0.72107
 H857 H 0.23716 0.15636 0.80668
 H858 H 0.21306 0.12135 0.81752
 H859 H 0.18537 0.08902 0.80626
 H860 H 0.18630 0.11222 0.73228
 C861 C 0.20969 0.22058 0.16678
 C862 C 0.21295 0.23645 0.14766
 C863 C 0.19119 0.24442 0.13432
 C864 C 0.16652 0.23661 0.14056
 C865 C 0.16345 0.22086 0.15968
 C866 C 0.18498 0.21257 0.17281
 C867 C 0.19446 0.25997 0.11492
 C868 C 0.21920 0.26774 0.10876
 C869 C 0.24089 0.25998 0.12230
 C870 C 0.23764 0.24437 0.14163
 C871 C 0.26553 0.26791 0.11624
 C872 C 0.26874 0.28328 0.09685
 C873 C 0.24742 0.29095 0.08301
 C874 C 0.22262 0.28310 0.08919
 H875 H 0.22632 0.21443 0.17704
 H876 H 0.14962 0.24256 0.13058
 H877 H 0.14429 0.21481 0.16401
 H878 H 0.17779 0.26598 0.10461
 H879 H 0.25432 0.23833 0.15192
 H880 H 0.28233 0.26226 0.12652
 H881 H 0.28798 0.28936 0.09285
 H882 H 0.20602 0.28860 0.07855
 C883 C 0.73038 0.74288 0.68495
 C884 C 0.73227 0.75806 0.66512
 C885 C 0.73281 0.78281 0.66884
 C886 C 0.73081 0.79193 0.69234
 C887 C 0.72882 0.77664 0.71199
 C888 C 0.72891 0.75204 0.70845
 C889 C 0.73563 0.79797 0.64906
 C890 C 0.73782 0.78868 0.62563
 C891 C 0.73664 0.76396 0.62194
 C892 C 0.73393 0.74882 0.64170
 C893 C 0.73844 0.75473 0.59852
 C894 C 0.74172 0.76980 0.57891
 C895 C 0.74346 0.79433 0.58238
 C896 C 0.74136 0.80369 0.60582
 H897 H 0.73026 0.72388 0.68222
 H898 H 0.73110 0.81084 0.69553
 H899 H 0.72780 0.78390 0.73004
 H900 H 0.73634 0.81694 0.65191
 H901 H 0.73334 0.72984 0.63887
 H902 H 0.73752 0.73585 0.59537
 H903 H 0.74350 0.76222 0.56102
 H904 H 0.74240 0.82263 0.60860
 C905 C 0.78210 0.69941 0.33283
 C906 C 0.78339 0.71640 0.35125
 C907 C 0.80756 0.72136 0.36161
 C908 C 0.82996 0.70906 0.35357
 C909 C 0.82850 0.69220 0.33525
 C910 C 0.80464 0.68726 0.32467
 C911 C 0.80900 0.73868 0.37966
 C912 C 0.78658 0.75114 0.38750
 C913 C 0.76239 0.74600 0.37729
 C914 C 0.76094 0.72868 0.35925
 C915 C 0.74002 0.75839 0.38522
 C916 C 0.74157 0.77583 0.40294
 C917 C 0.76553 0.78136 0.41306
 C918 C 0.78799 0.76877 0.40528
 H919 H 0.76372 0.69592 0.32449
 H920 H 0.84863 0.71260 0.36131
 H921 H 0.84605 0.68300 0.32919
 H922 H 0.82757 0.74255 0.38749
 H923 H 0.74238 0.72486 0.35136
 H924 H 0.72130 0.75458 0.37772
 H925 H 0.72388 0.78486 0.40891
 H926 H 0.80663 0.77297 0.41274
 C927 C 0.29374 0.24292 -0.19497
 C928 C 0.28815 0.25504 -0.17337
 C929 C 0.26231 0.26223 -0.16787
 C930 C 0.24252 0.25705 -0.18402
 C931 C 0.24825 0.24484 -0.20540
 C932 C 0.27385 0.23772 -0.21107
 C933 C 0.25668 0.27445 -0.14634
 C934 C 0.27654 0.27949 -0.13020
 C935 C 0.30233 0.27214 -0.13564
 C936 C 0.30798 0.25998 -0.15719
 C937 C 0.32211 0.27717 -0.11945
 C938 C 0.31647 0.28958 -0.09818
 C939 C 0.29095 0.29720 -0.09265
 C940 C 0.27103 0.29193 -0.10875
 H941 H 0.31348 0.23723 -0.19918
 H942 H 0.22261 0.26241 -0.18010
 H943 H 0.23273 0.24103 -0.21766
 H944 H 0.23687 0.28004 -0.14218
 H945 H 0.32779 0.25441 -0.16137
 H946 H 0.34196 0.27157 -0.12328
 H947 H 0.33211 0.29311 -0.08595
 H948 H 0.25132 0.29797 -0.10487
 C949 C 0.71200 0.28023 -0.17092
 C950 C 0.71764 0.26250 -0.15394
 C951 C 0.74350 0.25408 -0.15110
 C952 C 0.76324 0.26362 -0.16519
 C953 C 0.75747 0.28138 -0.18190
 C954 C 0.73186 0.28978 -0.18495
 C955 C 0.74923 0.23639 -0.13413
 C956 C 0.72949 0.22721 -0.11974
 C957 C 0.70368 0.23571 -0.12248
 C958 C 0.69788 0.25321 -0.13965
 C959 C 0.68409 0.22666 -0.10785
 C960 C 0.69003 0.20949 -0.09052
 C961 C 0.71564 0.20088 -0.08760
 C962 C 0.73525 0.20977 -0.10249
 H963 H 0.69226 0.28686 -0.17310
 H964 H 0.78315 0.25739 -0.16324
 H965 H 0.77296 0.28850 -0.19267
 H966 H 0.76905 0.22993 -0.13198
 H967 H 0.67807 0.25972 -0.14176
 H968 H 0.66422 0.23305 -0.10962
 H969 H 0.67459 0.20328 -0.07910
 H970 H 0.75501 0.20306 -0.10075
 C971 C 0.21242 0.78630 0.32912
 C972 C 0.21997 0.76839 0.34535
 C973 C 0.21872 0.74437 0.33833
 C974 C 0.21072 0.73868 0.31504
 C975 C 0.20337 0.75658 0.29902
 C976 C 0.20375 0.78050 0.30597
 C977 C 0.22505 0.72639 0.35479
 C978 C 0.23262 0.73207 0.37822
 C979 C 0.23462 0.75606 0.38508
 C980 C 0.22825 0.77409 0.36861
 C981 C 0.24262 0.76160 0.40845
 C982 C 0.24801 0.74356 0.42502
 C983 C 0.24531 0.71972 0.41856
 C984 C 0.23788 0.71410 0.39502
 H985 H 0.21258 0.80470 0.33466
 H986 H 0.20983 0.72039 0.30931
 H987 H 0.19700 0.75176 0.28119
 H988 H 0.22372 0.70798 0.34947
 H989 H 0.22941 0.79249 0.37398
 H990 H 0.24437 0.77987 0.41401
 H991 H 0.25362 0.74826 0.44313
 H992 H 0.23608 0.69571 0.38984
 C993 C 0.29312 0.76740 0.67977
 C994 C 0.28723 0.75236 0.66056
 C995 C 0.26104 0.74857 0.65482
 C996 C 0.24124 0.75979 0.66843
 C997 C 0.24731 0.77495 0.68729
 C998 C 0.27321 0.77893 0.69302
 C999 C 0.25505 0.73396 0.63535
 C1000 C 0.27488 0.72341 0.62126
 C1001 C 0.30105 0.72713 0.62700
 C1002 C 0.30708 0.74145 0.64673
 C1003 C 0.32077 0.71670 0.61269
 C1004 C 0.31463 0.70302 0.59265
 C1005 C 0.28866 0.69938 0.58664
 C1006 C 0.26889 0.70945 0.60128
 H1007 H 0.31312 0.77068 0.68407
 H1008 H 0.22109 0.75708 0.66428
 H1009 H 0.23180 0.78371 0.69744
 H1010 H 0.23496 0.73115 0.63091
 H1011 H 0.32716 0.74439 0.65107
 H1012 H 0.34094 0.71941 0.61678
 H1013 H 0.33025 0.69571 0.58156
 H1014 H 0.24879 0.70646 0.59712
 C1015 C 0.78050 0.26546 0.16564
 C1016 C 0.77415 0.24857 0.14828
 C1017 C 0.75690 0.23048 0.15434
 C1018 C 0.74679 0.22934 0.17784
 C1019 C 0.75400 0.24575 0.19522
 C1020 C 0.77076 0.26386 0.18917
 C1021 C 0.75040 0.21365 0.13697
 C1022 C 0.76161 0.21419 0.11387
 C1023 C 0.77945 0.23188 0.10808
 C1024 C 0.78527 0.24917 0.12518
 C1025 C 0.79141 0.23182 0.08532
 C1026 C 0.78577 0.21442 0.06843
 C1027 C 0.76771 0.19713 0.07385
 C1028 C 0.75555 0.19713 0.09654
 H1029 H 0.79367 0.27941 0.16121
 H1030 H 0.73369 0.21553 0.18286
 H1031 H 0.74652 0.24442 0.21343
 H1032 H 0.73701 0.19990 0.14155
 H1033 H 0.79879 0.26283 0.12066
 H1034 H 0.80522 0.24515 0.08063
 H1035 H 0.79519 0.21465 0.05093
 H1036 H 0.74173 0.18364 0.10075
 C1037 C 0.48156 0.41708 0.48964
 C1038 C 0.48344 0.39726 0.50478
 C1039 C 0.46068 0.38604 0.51241
 C1040 C 0.43644 0.39505 0.50503
 C1041 C 0.43475 0.41503 0.49030
 C1042 C 0.45724 0.42612 0.48246
 C1043 C 0.46250 0.36611 0.52739
 C1044 C 0.48676 0.35748 0.53519
 C1045 C 0.50946 0.36894 0.52787
 C1046 C 0.50768 0.38864 0.51257
 C1047 C 0.53360 0.36056 0.53606
 C1048 C 0.53530 0.34097 0.55132
 C1049 C 0.51293 0.32915 0.55851
 C1050 C 0.48866 0.33760 0.55028
 H1051 H 0.49889 0.42580 0.48372
 H1052 H 0.41880 0.38672 0.51074
 H1053 H 0.41589 0.42182 0.48479
 H1054 H 0.44505 0.35743 0.53313
 H1055 H 0.52513 0.39734 0.50687
 H1056 H 0.55118 0.36924 0.53079
 H1057 H 0.55420 0.33525 0.55771
 H1058 H 0.47124 0.32856 0.55533
 C1059 C -0.05633 0.91347 -0.01727
 C1060 C -0.04897 0.89373 -0.00333
 C1061 C -0.02261 0.88984 0.00267
 C1062 C -0.00409 0.90565 -0.00549
 C1063 C -0.01154 0.92498 -0.01969
 C1064 C -0.03762 0.92901 -0.02568
 C1065 C -0.01515 0.87013 0.01655
 C1066 C -0.03362 0.85407 0.02427
 C1067 C -0.05992 0.85779 0.01809
 C1068 C -0.06746 0.87766 0.00442
 C1069 C -0.07826 0.84156 0.02570
 C1070 C -0.07068 0.82193 0.03949
 C1071 C -0.04462 0.81817 0.04599
 C1072 C -0.02618 0.83435 0.03817
 H1073 H -0.07642 0.91652 -0.02213
 H1074 H 0.01618 0.90292 -0.00110
 H1075 H 0.00302 0.93690 -0.02609
 H1076 H 0.00504 0.86723 0.02121
 H1077 H -0.08764 0.88055 -0.00027
 H1078 H -0.09847 0.84406 0.02102
 H1079 H -0.08523 0.80961 0.04499
 H1080 H -0.00610 0.83189 0.04335
 C1081 C 0.03933 0.55147 -0.00208
 C1082 C 0.03130 0.57151 0.01130
 C1083 C 0.00507 0.57438 0.01855
 C1084 C -0.01271 0.55726 0.01204
 C1085 C -0.00463 0.53761 -0.00169
 C1086 C 0.02139 0.53455 -0.00876
 C1087 C -0.00299 0.59440 0.03195
 C1088 C 0.01473 0.61180 0.03783
 C1089 C 0.04085 0.60907 0.03025
 C1090 C 0.04901 0.58888 0.01721
 C1091 C 0.05839 0.62666 0.03575
 C1092 C 0.05024 0.64674 0.04873
 C1093 C 0.02442 0.64958 0.05675
 C1094 C 0.00673 0.63195 0.05113
 H1095 H 0.05935 0.54922 -0.00784
 H1096 H -0.03289 0.55919 0.01735
 H1097 H -0.01863 0.52467 -0.00679
 H1098 H -0.02308 0.59653 0.03760
 H1099 H 0.06908 0.58678 0.01149
 H1100 H 0.07843 0.62496 0.02990
 H1101 H 0.06419 0.66020 0.05228
 H1102 H -0.01316 0.63370 0.05737
 C1103 C 0.55125 0.05824 0.49852
 C1104 C 0.54598 0.07904 0.51171
 C1105 C 0.52025 0.08485 0.51896
 C1106 C 0.50027 0.06975 0.51286
 C1107 C 0.50571 0.04908 0.49971
 C1108 C 0.53119 0.04314 0.49245
 C1109 C 0.51492 0.10558 0.53223
 C1110 C 0.53498 0.12059 0.53839
 C1111 C 0.56069 0.11481 0.53110
 C1112 C 0.56603 0.09411 0.51777
 C1113 C 0.58069 0.12980 0.53742
 C1114 C 0.57532 0.15022 0.55102
 C1115 C 0.54986 0.15607 0.55846
 C1116 C 0.52974 0.14118 0.55193
 H1117 H 0.57090 0.05380 0.49277
 H1118 H 0.48046 0.07390 0.51829
 H1119 H 0.49005 0.03756 0.49530
 H1120 H 0.49519 0.11000 0.53783
 H1121 H 0.58576 0.08966 0.51221
 H1122 H 0.60050 0.12569 0.53193
 H1123 H 0.59110 0.16153 0.55561
 H1124 H 0.51009 0.14535 0.55787
 C1125 C -0.02099 0.07515 0.50983
 C1126 C -0.01943 0.09395 0.49346
 C1127 C -0.02679 0.09062 0.46924
 C1128 C -0.03521 0.06845 0.46175
 C1129 C -0.03658 0.04981 0.47814
 C1130 C -0.02962 0.05297 0.50232
 C1131 C -0.02580 0.10952 0.45295
 C1132 C -0.01749 0.13171 0.46055
 C1133 C -0.00975 0.13494 0.48467
 C1134 C -0.01082 0.11607 0.50099
 C1135 C -0.00118 0.15708 0.49212
 C1136 C -0.00051 0.17591 0.47590
 C1137 C -0.00852 0.17300 0.45197
 C1138 C -0.01690 0.15077 0.44440
 H1139 H -0.01590 0.07784 0.52851
 H1140 H -0.04085 0.06556 0.44325
 H1141 H -0.04313 0.03284 0.47196
 H1142 H -0.03163 0.10699 0.43442
 H1143 H -0.00506 0.11861 0.51953
 H1144 H 0.00484 0.15987 0.51053
 H1145 H 0.00579 0.19294 0.48219
 H1146 H -0.02280 0.14828 0.42590
 C1147 C 0.46669 0.58813 1.01282
 C1148 C 0.46980 0.60628 0.99590
 C1149 C 0.46578 0.60171 0.97118
 C1150 C 0.45900 0.57900 0.96380
 C1151 C 0.45619 0.56099 0.98073
 C1152 C 0.45995 0.56536 1.00536
 C1153 C 0.46860 0.61989 0.95425
 C1154 C 0.47560 0.64255 0.96171
 C1155 C 0.47993 0.64701 0.98641
 C1156 C 0.47688 0.62890 1.00335
 C1157 C 0.48727 0.66954 0.99378
 C1158 C 0.49030 0.68753 0.97689
 C1159 C 0.48587 0.68339 0.95232
 C1160 C 0.47844 0.66082 0.94485
 H1161 H 0.46936 0.59168 1.03181
 H1162 H 0.45592 0.57515 0.94493
 H1163 H 0.45112 0.54353 0.97462
 H1164 H 0.46539 0.61639 0.93531
 H1165 H 0.48008 0.63239 1.02229
 H1166 H 0.49065 0.67328 1.01263
 H1167 H 0.49574 0.70485 0.98309
 H1168 H 0.47521 0.65742 0.92590
 C1169 C 0.53330 0.92265 1.04465
 C1170 C 0.53188 0.90521 1.02674
 C1171 C 0.55482 0.89361 1.01821
 C1172 C 0.57878 0.89975 1.02770
 C1173 C 0.58003 0.91731 1.04534
 C1174 C 0.55735 0.92887 1.05396
 C1175 C 0.55347 0.87622 1.00024
 C1176 C 0.52948 0.87042 0.99054
 C1177 C 0.50658 0.88212 0.99898
 C1178 C 0.50791 0.89937 1.01708
 C1179 C 0.48268 0.87639 0.98915
 C1180 C 0.48142 0.85917 0.97117
 C1181 C 0.50402 0.84728 0.96271
 C1182 C 0.52804 0.85308 0.97250
 H1183 H 0.51581 0.93177 1.05105
 H1184 H 0.59656 0.89108 1.02137
 H1185 H 0.59870 0.92192 1.05238
 H1186 H 0.57106 0.86731 0.99374
 H1187 H 0.49032 0.90832 1.02356
 H1188 H 0.46495 0.88526 0.99532
 H1189 H 0.46272 0.85531 0.96370
 H1190 H 0.54558 0.84385 0.96637
 C1191 C 0.03065 0.43763 0.51216
 C1192 C 0.02660 0.41921 0.49577
 C1193 C 0.03064 0.42298 0.47086
 C1194 C 0.03861 0.44513 0.46280
 C1195 C 0.04264 0.46335 0.47925
 C1196 C 0.03872 0.45976 0.50402
 C1197 C 0.02675 0.40456 0.45443
 C1198 C 0.01895 0.38238 0.46258
 C1199 C 0.01487 0.37863 0.48748
 C1200 C 0.01870 0.39706 0.50391
 C1201 C 0.00705 0.35645 0.49555
 C1202 C 0.00334 0.33813 0.47914
 C1203 C 0.00736 0.34161 0.45434
 C1204 C 0.01518 0.36387 0.44621
 H1205 H 0.02784 0.43478 0.53129
 H1206 H 0.04178 0.44835 0.44378
 H1207 H 0.04876 0.48035 0.47271
 H1208 H 0.02988 0.40747 0.43533
 H1209 H 0.01560 0.39416 0.52301
 H1210 H 0.00390 0.35324 0.51457
 H1211 H -0.00235 0.32108 0.48591
 H1212 H 0.01802 0.36687 0.42711
 C1213 C 0.42379 0.47879 0.45681
 C1214 C 0.40702 0.49770 0.46354
 C1215 C 0.40499 0.50452 0.48803
 C1216 C 0.41984 0.49236 0.50531
 C1217 C 0.43642 0.47353 0.49846
 C1218 C 0.43854 0.46653 0.47420
 C1219 C 0.38806 0.52325 0.49486
 C1220 C 0.37300 0.53519 0.47754
 C1221 C 0.37510 0.52842 0.45305
 C1222 C 0.39212 0.50975 0.44620
 C1223 C 0.35999 0.54036 0.43581
 C1224 C 0.34282 0.55873 0.44275
 C1225 C 0.34045 0.56556 0.46706
 C1226 C 0.35575 0.55371 0.48435
 H1227 H 0.42511 0.47334 0.43811
 H1228 H 0.41857 0.49737 0.52414
 H1229 H 0.44775 0.46443 0.51211
 H1230 H 0.38647 0.52843 0.51365
 H1231 H 0.39367 0.50453 0.42742
 H1232 H 0.36130 0.53537 0.41698
 H1233 H 0.33103 0.56731 0.42911
 H1234 H 0.35437 0.55901 0.50310
 C1235 C 0.91822 -0.02403 -0.04994
 C1236 C 0.90022 -0.00628 -0.04271
 C1237 C 0.89936 0.00126 -0.01841
 C1238 C 0.91636 -0.00926 -0.00174
 C1239 C 0.93432 -0.02683 -0.00914
 C1240 C 0.93562 -0.03421 -0.03332
 C1241 C 0.88163 0.01925 -0.01119
 C1242 C 0.86471 0.02976 -0.02797
 C1243 C 0.86549 0.02210 -0.05223
 C1244 C 0.88323 0.00415 -0.05945
 C1245 C 0.84845 0.03252 -0.06890
 C1246 C 0.83070 0.05029 -0.06162
 C1247 C 0.82971 0.05814 -0.03756
 C1248 C 0.84695 0.04778 -0.02084
 H1249 H 0.91889 -0.02984 -0.06856
 H1250 H 0.91596 -0.00374 0.01696
 H1251 H 0.94760 -0.03435 0.00395
 H1252 H 0.88103 0.02506 0.00744
 H1253 H 0.88386 -0.00166 -0.07809
 H1254 H 0.84870 0.02679 -0.08753
 H1255 H 0.81737 0.05755 -0.07481
 H1256 H 0.84668 0.05383 -0.00230
 C1257 C 0.58023 -0.02335 0.04588
 C1258 C 0.59824 -0.00555 0.04259
 C1259 C 0.61383 0.00133 0.06206
 C1260 C 0.61081 -0.00948 0.08459
 C1261 C 0.59262 -0.02704 0.08776
 C1262 C 0.57738 -0.03421 0.06842
 C1263 C 0.63216 0.01886 0.05869
 C1264 C 0.63495 0.02971 0.03614
 C1265 C 0.61905 0.02307 0.01680
 C1266 C 0.60085 0.00544 0.02013
 C1267 C 0.62170 0.03410 -0.00561
 C1268 C 0.64013 0.05138 -0.00897
 C1269 C 0.65639 0.05788 0.00996
 C1270 C 0.65354 0.04700 0.03257
 H1271 H 0.56822 -0.02869 0.03103
 H1272 H 0.62252 -0.00438 0.09973
 H1273 H 0.59060 -0.03530 0.10523
 H1274 H 0.64425 0.02402 0.07357
 H1275 H 0.58878 0.00025 0.00524
 H1276 H 0.60954 0.02935 -0.02056
 H1277 H 0.64155 0.05975 -0.02644
 H1278 H 0.66613 0.05160 0.04726
 C1279 C 0.06706 0.51601 0.52221
 C1280 C 0.09005 0.52842 0.51948
 C1281 C 0.11338 0.51596 0.51347
 C1282 C 0.11342 0.49131 0.51069
 C1283 C 0.09053 0.47912 0.51355
 C1284 C 0.06712 0.49130 0.51914
 C1285 C 0.13627 0.52831 0.51018
 C1286 C 0.13620 0.55297 0.51292
 C1287 C 0.11300 0.56543 0.51931
 C1288 C 0.09004 0.55309 0.52247
 C1289 C 0.11316 0.59007 0.52238
 C1290 C 0.13605 0.60226 0.51904
 C1291 C 0.15911 0.59007 0.51236
 C1292 C 0.15903 0.56538 0.50936
 H1293 H 0.04905 0.52553 0.52633
 H1294 H 0.13114 0.48147 0.50621
 H1295 H 0.09103 0.46007 0.51133
 H1296 H 0.15410 0.51873 0.50541
 H1297 H 0.07221 0.56267 0.52721
 H1298 H 0.09558 0.59991 0.52732
 H1299 H 0.13566 0.62131 0.52132
 H1300 H 0.17684 0.55582 0.50454
 C1301 C 0.06977 0.49234 -0.03429
 C1302 C 0.09103 0.47771 -0.02794
 C1303 C 0.09418 0.47056 -0.00373
 C1304 C 0.07616 0.47847 0.01376
 C1305 C 0.05509 0.49312 0.00728
 C1306 C 0.05158 0.50000 -0.01679
 C1307 C 0.11519 0.45556 0.00257
 C1308 C 0.13313 0.44769 -0.01504
 C1309 C 0.13010 0.45513 -0.03919
 C1310 C 0.10909 0.47007 -0.04548
 C1311 C 0.14810 0.44742 -0.05671
 C1312 C 0.16879 0.43227 -0.05049
 C1313 C 0.17187 0.42441 -0.02664
 C1314 C 0.15397 0.43237 -0.00894
 H1315 H 0.06735 0.49787 -0.05284
 H1316 H 0.07828 0.47323 0.03242
 H1317 H 0.04123 0.49882 0.02099
 H1318 H 0.11751 0.44995 0.02112
 H1319 H 0.10673 0.47564 -0.06404
 H1320 H 0.14618 0.45309 -0.07526
 H1321 H 0.18254 0.42685 -0.06440
 H1322 H 0.15594 0.42630 0.00947
 C1323 C 0.57485 0.99701 0.46666
 C1324 C 0.59626 0.98235 0.47251
 C1325 C 0.60171 0.97741 0.49694
 C1326 C 0.58569 0.98727 0.51507
 C1327 C 0.56440 1.00182 0.50907
 C1328 C 0.55875 1.00677 0.48486
 C1329 C 0.62301 0.96264 0.50285
 C1330 C 0.63888 0.95267 0.48465
 C1331 C 0.63347 0.95769 0.46023
 C1332 C 0.61223 0.97252 0.45431
 C1333 C 0.64935 0.94767 0.44209
 C1334 C 0.67027 0.93265 0.44805
 C1335 C 0.67579 0.92741 0.47225
 C1336 C 0.66001 0.93764 0.49048
 H1337 H 0.57072 1.00099 0.44797
 H1338 H 0.58956 0.98367 0.53388
 H1339 H 0.55213 1.00910 0.52332
 H1340 H 0.62715 0.95882 0.52159
 H1341 H 0.60806 0.97632 0.43557
 H1342 H 0.64545 0.95127 0.42329
 H1343 H 0.68186 0.92475 0.43364
 H1344 H 0.66425 0.93401 0.50922
 C1345 C 0.94817 0.99455 0.51823
 C1346 C 0.92631 0.98051 0.51605
 C1347 C 0.90139 0.99150 0.51454
 C1348 C 0.89877 1.01625 0.51525
 C1349 C 0.92062 1.03004 0.51708
 C1350 C 0.94544 1.01936 0.51845
 C1351 C 0.87952 0.97762 0.51209
 C1352 C 0.88220 0.95288 0.51083
 C1353 C 0.90707 0.94186 0.51222
 C1354 C 0.92896 0.95573 0.51497
 C1355 C 0.90961 0.91711 0.51067
 C1356 C 0.88775 0.90343 0.50772
 C1357 C 0.86292 0.91421 0.50642
 C1358 C 0.86035 0.93901 0.50801
 H1359 H 0.96736 0.98633 0.51915
 H1360 H 0.87984 1.02495 0.51414
 H1361 H 0.91825 1.04915 0.51738
 H1362 H 0.86045 0.98609 0.51094
 H1363 H 0.94804 0.94727 0.51602
 H1364 H 0.92851 0.90834 0.51171
 H1365 H 0.89022 0.88435 0.50678
 H1366 H 0.84135 0.94755 0.50666
 C1367 C 0.43757 0.50697 0.02375
 C1368 C 0.41630 0.49227 0.02139
 C1369 C 0.39174 0.50230 0.01553
 C1370 C 0.38882 0.52684 0.01244
 C1371 C 0.41003 0.54134 0.01503
 C1372 C 0.43459 0.53158 0.02061
 C1373 C 0.37052 0.48765 0.01277
 C1374 C 0.37348 0.46310 0.01591
 C1375 C 0.39794 0.45310 0.02211
 C1376 C 0.41921 0.46773 0.02474
 C1377 C 0.40073 0.42858 0.02550
 C1378 C 0.37956 0.41406 0.02257
 C1379 C 0.35525 0.42376 0.01608
 C1380 C 0.35235 0.44837 0.01287
 H1381 H 0.45651 0.49932 0.02786
 H1382 H 0.37014 0.53483 0.00803
 H1383 H 0.40732 0.56027 0.01271
 H1384 H 0.35174 0.49535 0.00813
 H1385 H 0.43800 0.46004 0.02936
 H1386 H 0.41931 0.42061 0.03028
 H1387 H 0.38232 0.39513 0.02492
 H1388 H 0.33360 0.45606 0.00817
 C1389 C 0.48348 0.46730 0.43837
 C1390 C 0.49713 0.46788 0.41643
 C1391 C 0.49693 0.44810 0.40078
 C1392 C 0.48346 0.42795 0.40755
 C1393 C 0.47014 0.42746 0.42951
 C1394 C 0.46984 0.44715 0.44498
 C1395 C 0.51014 0.44877 0.37864
 C1396 C 0.52381 0.46886 0.37202
 C1397 C 0.52437 0.48848 0.38783
 C1398 C 0.51094 0.48792 0.40988
 C1399 C 0.53838 0.50836 0.38129
 C1400 C 0.55162 0.50888 0.35926
 C1401 C 0.55095 0.48962 0.34319
 C1402 C 0.53691 0.46963 0.34980
 H1403 H 0.48348 0.48242 0.45042
 H1404 H 0.48317 0.41261 0.39582
 H1405 H 0.45964 0.41183 0.43431
 H1406 H 0.50982 0.43365 0.36658
 H1407 H 0.51124 0.50304 0.42193
 H1408 H 0.53919 0.52349 0.39326
 H1409 H 0.56264 0.52433 0.35495
 H1410 H 0.53581 0.45477 0.33753
 C1411 C -0.02409 -0.02683 0.92794
 C1412 C -0.01058 -0.02462 0.90608
 C1413 C -0.00458 -0.04503 0.89209
 C1414 C -0.01249 -0.06722 0.90003
 C1415 C -0.02596 -0.06924 0.92177
 C1416 C -0.03179 -0.04914 0.93598
 C1417 C 0.00949 -0.04299 0.87054
 C1418 C 0.01779 -0.02082 0.86287
 C1419 C 0.01148 -0.00036 0.87667
 C1420 C -0.00271 -0.00238 0.89817
 C1421 C 0.01979 0.02176 0.86887
 C1422 C 0.03467 0.02354 0.84786
 C1423 C 0.04147 0.00325 0.83426
 C1424 C 0.03264 -0.01886 0.84176
 H1425 H -0.02825 -0.01129 0.93895
 H1426 H -0.00812 -0.08302 0.88950
 H1427 H -0.03187 -0.08655 0.92759
 H1428 H 0.01426 -0.05868 0.85992
 H1429 H -0.00737 0.01329 0.90886
 H1430 H 0.01513 0.03763 0.87920
 H1431 H 0.04144 0.04074 0.84259
 H1432 H 0.03745 -0.03458 0.83121
 C1433 C -0.02121 0.02524 0.56184
 C1434 C -0.00310 0.02348 0.58051
 C1435 C 0.02345 0.02665 0.57548
 C1436 C 0.03146 0.03107 0.55177
 C1437 C 0.01330 0.03285 0.53331
 C1438 C -0.01320 0.03028 0.53819
 C1439 C 0.04149 0.02560 0.59424
 C1440 C 0.03333 0.02142 0.61799
 C1441 C 0.00681 0.01790 0.62292
 C1442 C -0.01122 0.01897 0.60418
 C1443 C -0.00129 0.01346 0.64658
 C1444 C 0.01665 0.01256 0.66523
 C1445 C 0.04302 0.01624 0.66063
 C1446 C 0.05123 0.02071 0.63691
 H1447 H -0.04162 0.02337 0.56578
 H1448 H 0.05173 0.03341 0.54754
 H1449 H 0.01987 0.03650 0.51517
 H1450 H 0.06183 0.02819 0.59039
 H1451 H -0.03157 0.01646 0.60803
 H1452 H -0.02152 0.01073 0.65068
 H1453 H 0.00985 0.00932 0.68339
 H1454 H 0.07157 0.02333 0.63318
 C1455 C 0.46638 0.53542 0.06502
 C1456 C 0.48403 0.53191 0.08385
 C1457 C 0.51039 0.53705 0.08024
 C1458 C 0.51872 0.54506 0.05768
 C1459 C 0.50115 0.54794 0.03886
 C1460 C 0.47475 0.54336 0.04231
 C1461 C 0.52800 0.53395 0.09916
 C1462 C 0.51972 0.52521 0.12149
 C1463 C 0.49349 0.51951 0.12488
 C1464 C 0.47576 0.52316 0.10616
 C1465 C 0.48546 0.51008 0.14692
 C1466 C 0.50321 0.50628 0.16545
 C1467 C 0.52932 0.51227 0.16259
 C1468 C 0.53732 0.52187 0.14042
 H1469 H 0.44609 0.53198 0.06802
 H1470 H 0.53889 0.54889 0.05452
 H1471 H 0.50821 0.55372 0.02150
 H1472 H 0.54818 0.53809 0.09643
 H1473 H 0.45559 0.51896 0.10887
 H1474 H 0.46549 0.50537 0.14974
 H1475 H 0.49642 0.49829 0.18194
 H1476 H 0.55720 0.52697 0.13785
 C1477 C 0.52870 -0.02961 0.09813
 C1478 C 0.51071 -0.02842 0.11717
 C1479 C 0.50485 -0.04920 0.13003
 C1480 C 0.51701 -0.07082 0.12350
 C1481 C 0.53474 -0.07186 0.10437
 C1482 C 0.54076 -0.05131 0.09158
 C1483 C 0.48689 -0.04805 0.14911
 C1484 C 0.47454 -0.02642 0.15536
 C1485 C 0.48028 -0.00569 0.14238
 C1486 C 0.49837 -0.00680 0.12343
 C1487 C 0.46778 0.01585 0.14857
 C1488 C 0.44980 0.01690 0.16747
 C1489 C 0.44402 -0.00354 0.18064
 C1490 C 0.45652 -0.02519 0.17441
 H1491 H 0.53306 -0.01376 0.08811
 H1492 H 0.51275 -0.08692 0.13313
 H1493 H 0.54394 -0.08870 0.09958
 H1494 H 0.48245 -0.06397 0.15900
 H1495 H 0.50280 0.00912 0.11351
 H1496 H 0.47185 0.03188 0.13874
 H1497 H 0.44018 0.03372 0.17162
 H1498 H 0.45253 -0.04102 0.18460
 C1499 C 1.03232 0.49052 0.56294
 C1500 C 1.01396 0.49480 0.58136
 C1501 C 0.98733 0.49239 0.57653
 C1502 C 0.97949 0.48636 0.55328
 C1503 C 0.99784 0.48233 0.53505
 C1504 C 1.02444 0.48406 0.53969
 C1505 C 0.96897 0.49579 0.59505
 C1506 C 0.97686 0.50163 0.61836
 C1507 C 1.00342 0.50464 0.62310
 C1508 C 1.02181 0.50115 0.60458
 C1509 C 1.01113 0.51084 0.64638
 C1510 C 0.99278 0.51358 0.66490
 C1511 C 0.96644 0.50999 0.66052
 C1512 C 0.95861 0.50424 0.63710
 H1513 H 1.05277 0.49174 0.56678
 H1514 H 0.95916 0.48461 0.54922
 H1515 H 0.99128 0.47768 0.51723
 H1516 H 0.94859 0.49365 0.59138
 H1517 H 1.04221 0.50318 0.60828
 H1518 H 1.03137 0.51331 0.65033
 H1519 H 0.99925 0.51789 0.68285
 H1520 H 0.93827 0.50176 0.63351
 C1521 C 1.00929 0.52899 0.93886
 C1522 C 0.99661 0.52476 0.91711
 C1523 C 0.99034 0.50138 0.91075
 C1524 C 0.99703 0.48263 0.92624
 C1525 C 1.00982 0.48701 0.94780
 C1526 C 1.01601 0.51018 0.95430
 C1527 C 0.97750 0.49714 0.88906
 C1528 C 0.97092 0.51598 0.87362
 C1529 C 0.97741 0.53932 0.87994
 C1530 C 0.99020 0.54355 0.90162
 C1531 C 0.97087 0.55810 0.86450
 C1532 C 0.95771 0.55390 0.84314
 C1533 C 0.95084 0.53084 0.83676
 C1534 C 0.95774 0.51189 0.85205
 H1535 H 1.01428 0.54687 0.94371
 H1536 H 0.99240 0.46461 0.92167
 H1537 H 1.01479 0.47233 0.95956
 H1538 H 0.97259 0.47922 0.88423
 H1539 H 0.99508 0.56148 0.90647
 H1540 H 0.97582 0.57606 0.86900
 H1541 H 0.95299 0.56874 0.83151
 H1542 H 0.95232 0.49407 0.84745
 C1543 C 0.51070 0.03333 0.44325
 C1544 C 0.49452 0.02754 0.42410
 C1545 C 0.48787 0.00372 0.42042
 C1546 C 0.49750 -0.01388 0.43601
 C1547 C 0.51350 -0.00793 0.45511
 C1548 C 0.52024 0.01569 0.45892
 C1549 C 0.47169 -0.00212 0.40128
 C1550 C 0.46201 0.01558 0.38581
 C1551 C 0.46861 0.03941 0.38955
 C1552 C 0.48486 0.04523 0.40863
 C1553 C 0.45879 0.05706 0.37415
 C1554 C 0.44257 0.05120 0.35520
 C1555 C 0.43591 0.02757 0.35124
 C1556 C 0.44576 0.00983 0.36667
 H1557 H 0.51601 0.05155 0.44596
 H1558 H 0.49256 -0.03222 0.43350
 H1559 H 0.52049 -0.02174 0.46710
 H1560 H 0.46661 -0.02040 0.39845
 H1561 H 0.48993 0.06351 0.41148
 H1562 H 0.46369 0.07540 0.37673
 H1563 H 0.43550 0.06514 0.34339
 H1564 H 0.44050 -0.00841 0.36396
   
