data_POSCAR
  _audit_creation_date              2014-09-24
  _audit_creation_method            'ToBaCCo'
  _symmetry_space_group_name_H-M    'P1'
  _symmetry_Int_Tables_number       1
  _symmetry_cell_setting            triclinic
  loop_
  _symmetry_equiv_pos_as_xyz
 x,y,z
_cell_length_a 65.9908
_cell_length_b 65.9580
_cell_length_c 65.8591
_cell_angle_alpha 90.036900
_cell_angle_beta 90.019100
_cell_angle_gamma 90.042300
loop_
  _atom_site_label
  _atom_site_type_symbol
  _atom_site_fract_x
  _atom_site_fract_y
  _atom_site_fract_z
O1 O 0.34660 0.37455 0.01981
 O2 O 0.37441 0.34698 -0.02003
 O3 O 0.34636 0.37482 -0.01967
 O4 O 0.37461 0.34671 0.01949
 O5 O 0.35104 0.32299 0.01942
 O6 O 0.32283 0.35110 -0.01972
 O7 O 0.35084 0.32326 -0.02008
 O8 O 0.32305 0.35081 0.01975
 Cu9 Cu 0.36286 0.36314 -0.00010
 Cu10 Cu 0.33459 0.33466 -0.00017
 C11 C 0.33003 0.36743 0.02656
 C12 C 0.36742 0.33036 -0.02683
 C13 C 0.32967 0.36785 -0.02638
 C14 C 0.36767 0.33001 0.02614
 O15 O 0.65291 0.62515 0.01959
 O16 O 0.62482 0.65304 -0.01981
 O17 O 0.65277 0.62513 -0.01991
 O18 O 0.62490 0.65303 0.01967
 O19 O 0.64850 0.67672 0.01962
 O20 O 0.67634 0.64881 -0.01995
 O21 O 0.64843 0.67672 -0.01984
 O22 O 0.67649 0.64885 0.01953
 Cu23 Cu 0.63649 0.63671 -0.00011
 Cu24 Cu 0.66481 0.66514 -0.00016
 C25 C 0.66956 0.63219 0.02625
 C26 C 0.63178 0.66970 -0.02652
 C27 C 0.66940 0.63213 -0.02671
 C28 C 0.63188 0.66970 0.02637
 O29 O 0.65242 0.37688 0.98050
 O30 O 0.62444 0.34903 1.02003
 O31 O 0.65231 0.37706 1.02004
 O32 O 0.62447 0.34892 0.98053
 O33 O 0.64814 0.32534 0.98067
 O34 O 0.67593 0.35348 1.02014
 O35 O 0.64812 0.32546 1.02013
 O36 O 0.67605 0.35326 0.98065
 Cu37 Cu 0.63604 0.36535 1.00026
 Cu38 Cu 0.66443 0.33703 1.00041
 C39 C 0.66906 0.36985 0.97383
 C40 C 0.63147 0.33244 1.02681
 C41 C 0.66894 0.37013 1.02688
 C42 C 0.63151 0.33227 0.97388
 O43 O 0.37660 0.65070 1.02026
 O44 O 0.34895 0.62292 0.98039
 O45 O 0.37686 0.65089 0.98070
 O46 O 0.34859 0.62278 1.01991
 O47 O 0.32502 0.64643 1.01981
 O48 O 0.35323 0.67451 0.98066
 O49 O 0.32535 0.64658 0.98033
 O50 O 0.35297 0.67432 1.02017
 Cu51 Cu 0.36512 0.63446 1.00033
 Cu52 Cu 0.33679 0.66283 1.00024
 C53 C 0.36953 0.66730 1.02702
 C54 C 0.33239 0.62997 0.97356
 C55 C 0.36988 0.66753 0.97397
 C56 C 0.33189 0.62974 1.02657
 O57 O -0.01997 0.37519 0.34731
 O58 O 0.01950 0.34757 0.37547
 O59 O 0.01945 0.37538 0.34738
 O60 O -0.01995 0.34719 0.37527
 O61 O -0.01972 0.32356 0.35162
 O62 O 0.01964 0.35167 0.32376
 O63 O 0.01970 0.32388 0.35182
 O64 O -0.01975 0.35150 0.32365
 Cu65 Cu -0.00028 0.36370 0.36373
 Cu66 Cu -0.00002 0.33528 0.33535
 C67 C -0.02656 0.36813 0.33061
 C68 C 0.02635 0.33098 0.36848
 C69 C 0.02625 0.36836 0.33075
 C70 C -0.02658 0.33048 0.36828
 O71 O 0.02032 0.65305 0.62480
 O72 O -0.01951 0.62540 0.65243
 O73 O -0.01909 0.65347 0.62461
 O74 O 0.01991 0.62504 0.65275
 O75 O 0.02000 0.64864 0.67649
 O76 O -0.01897 0.67701 0.64836
 O77 O -0.01940 0.64898 0.67619
 O78 O 0.02041 0.67663 0.64856
 Cu79 Cu 0.00041 0.63688 0.63627
 Cu80 Cu 0.00053 0.66517 0.66478
 C81 C 0.02712 0.66963 0.63189
 C82 C -0.02624 0.63242 0.66908
 C83 C -0.02570 0.67017 0.63161
 C84 C 0.02658 0.63194 0.66949
 O85 O 1.02006 0.62341 0.34919
 O86 O 0.98076 0.65124 0.37747
 O87 O 0.98061 0.62334 0.34942
 O88 O 1.02023 0.65129 0.37727
 O89 O 1.02007 0.67495 0.35366
 O90 O 0.98049 0.64705 0.32583
 O91 O 0.98064 0.67491 0.35383
 O92 O 1.01989 0.64713 0.32561
 Cu93 Cu 1.00044 0.63495 0.36571
 Cu94 Cu 1.00026 0.66338 0.33738
 C95 C 1.02668 0.63049 0.33252
 C96 C 0.97398 0.66786 0.37049
 C97 C 0.97379 0.63040 0.33282
 C98 C 1.02696 0.66796 0.37027
 O99 O 0.97957 0.34779 0.62458
 O100 O 1.01942 0.37552 0.65220
 O101 O 1.01897 0.34740 0.62436
 O102 O 0.97996 0.37577 0.65256
 O103 O 0.97996 0.35219 0.67628
 O104 O 1.01892 0.32388 0.64811
 O105 O 1.01939 0.35195 0.67593
 O106 O 0.97955 0.32423 0.64833
 Cu107 Cu 0.99948 0.36399 0.63606
 Cu108 Cu 0.99945 0.33572 0.66455
 C109 C 0.97279 0.33121 0.63168
 C110 C 1.02621 0.36850 0.66882
 C111 C 1.02561 0.33070 0.63135
 C112 C 0.97329 0.36884 0.66928
 O113 O 0.34680 -0.01898 0.37471
 O114 O 0.37450 0.02089 0.34715
 O115 O 0.34654 0.02044 0.37510
 O116 O 0.37477 -0.01855 0.34676
 O117 O 0.35116 -0.01850 0.32306
 O118 O 0.32294 0.02047 0.35138
 O119 O 0.35089 0.02092 0.32345
 O120 O 0.32320 -0.01892 0.35099
 Cu121 Cu 0.36302 0.00094 0.36331
 Cu122 Cu 0.33469 0.00100 0.33484
 C123 C 0.33020 -0.02572 0.36761
 C124 C 0.36747 0.02769 0.33054
 C125 C 0.32986 0.02708 0.36814
 C126 C 0.36783 -0.02516 0.33002
 O127 O 0.65108 -0.01999 0.62315
 O128 O 0.62340 0.01978 0.65096
 O129 O 0.65138 0.01948 0.62297
 O130 O 0.62310 -0.01970 0.65106
 O131 O 0.64672 -0.01973 0.67477
 O132 O 0.67497 0.01940 0.64669
 O133 O 0.64704 0.01970 0.67465
 O134 O 0.67465 -0.02002 0.64689
 Cu135 Cu 0.63487 -0.00009 0.63466
 Cu136 Cu 0.66320 -0.00016 0.66312
 C137 C 0.66763 -0.02680 0.63026
 C138 C 0.63046 0.02650 0.66761
 C139 C 0.66806 0.02610 0.62999
 C140 C 0.63007 -0.02641 0.66774
 O141 O 0.34791 1.02015 0.62401
 O142 O 0.37575 0.98074 0.65213
 O143 O 0.34804 0.98065 0.62389
 O144 O 0.37567 1.02017 0.65216
 O145 O 0.35188 1.02005 0.67567
 O146 O 0.32426 0.98055 0.64740
 O147 O 0.35193 0.98065 0.67561
 O148 O 0.32415 1.02001 0.64755
 Cu149 Cu 0.36422 1.00043 0.63568
 Cu150 Cu 0.33566 1.00030 0.66390
 C151 C 0.33125 1.02683 0.63098
 C152 C 0.36864 0.97401 0.66874
 C153 C 0.33140 0.97385 0.63079
 C154 C 0.36854 1.02684 0.66879
 O155 O 0.65314 1.01994 0.37534
 O156 O 0.62500 0.97997 0.34826
 O157 O 0.65328 0.98050 0.37592
 O158 O 0.62487 1.01944 0.34769
 O159 O 0.64824 1.01917 0.32376
 O160 O 0.67662 0.98026 0.35197
 O161 O 0.64837 0.97973 0.32433
 O162 O 0.67646 1.01967 0.35141
 Cu163 Cu 0.63673 0.99999 0.36420
 Cu164 Cu 0.66475 0.99968 0.33547
 C165 C 0.66969 1.02664 0.36808
 C166 C 0.63185 0.97304 0.33162
 C167 C 0.66986 0.97376 0.36881
 C168 C 0.63168 1.02596 0.33087
 C169 C 0.82238 0.79572 0.48983
 C170 C 0.82264 0.79574 0.51132
 C171 C 0.80938 0.80856 0.52191
 C172 C 0.79619 0.82169 0.51161
 C173 C 0.79627 0.82201 0.49011
 C174 C 0.80920 0.80886 0.47953
 H175 H 0.80920 0.80903 0.46306
 H176 H 0.80951 0.80851 0.53838
 C177 C 0.17732 0.20439 0.48983
 C178 C 0.17699 0.20449 0.51133
 C179 C 0.19021 0.19172 0.52202
 C180 C 0.20345 0.17856 0.51183
 C181 C 0.20350 0.17818 0.49034
 C182 C 0.19058 0.19124 0.47965
 H183 H 0.19066 0.19099 0.46318
 H184 H 0.19001 0.19184 0.53849
 C185 C 0.17866 0.79531 0.50993
 C186 C 0.17886 0.79527 0.48843
 C187 C 0.19199 0.80846 0.47813
 C188 C 0.20485 0.82173 0.48871
 C189 C 0.20487 0.82154 0.51021
 C190 C 0.19180 0.80829 0.52051
 H191 H 0.19164 0.80828 0.53697
 H192 H 0.19201 0.80860 0.46166
 C193 C 0.82327 0.20277 0.50995
 C194 C 0.82260 0.20367 0.48848
 C195 C 0.80896 0.19118 0.47793
 C196 C 0.79641 0.17741 0.48822
 C197 C 0.79710 0.17650 0.50968
 C198 C 0.81057 0.18916 0.52023
 H199 H 0.81088 0.18869 0.53669
 H200 H 0.80875 0.19154 0.46147
 C201 C 0.48892 0.82209 0.79564
 C202 C 0.51037 0.82187 0.79562
 C203 C 0.52064 0.80866 0.80875
 C204 C 0.51007 0.79572 0.82192
 C205 C 0.48862 0.79569 0.82170
 C206 C 0.47834 0.80887 0.80853
 H207 H 0.46191 0.80903 0.80850
 H208 H 0.53708 0.80863 0.80891
 C209 C 0.48985 0.17834 0.20424
 C210 C 0.51127 0.17744 0.20338
 C211 C 0.52168 0.19011 0.18983
 C212 C 0.51129 0.20370 0.17718
 C213 C 0.48987 0.20452 0.17798
 C214 C 0.47947 0.19205 0.19172
 H215 H 0.46304 0.19237 0.19204
 H216 H 0.53810 0.18967 0.18940
 C217 C 0.51127 0.17773 0.79633
 C218 C 0.48985 0.17850 0.79556
 C219 C 0.47947 0.19220 0.80809
 C220 C 0.48988 0.20473 0.82182
 C221 C 0.51131 0.20392 0.82263
 C222 C 0.52169 0.19040 0.80991
 H223 H 0.53811 0.18999 0.81031
 H224 H 0.46304 0.19248 0.80782
 C225 C 0.51065 0.82195 0.20455
 C226 C 0.48920 0.82231 0.20450
 C227 C 0.47858 0.80908 0.19165
 C228 C 0.48880 0.79579 0.17852
 C229 C 0.51025 0.79574 0.17827
 C230 C 0.52087 0.80866 0.19144
 H231 H 0.53730 0.80856 0.19129
 H232 H 0.46214 0.80930 0.19166
 C233 C 0.79572 0.49055 0.82205
 C234 C 0.79655 0.51198 0.82289
 C235 C 0.81010 0.52238 0.81021
 C236 C 0.82278 0.51196 0.79668
 C237 C 0.82197 0.49053 0.79585
 C238 C 0.80824 0.48014 0.80834
 H239 H 0.80793 0.46370 0.80804
 H240 H 0.81053 0.53881 0.81064
 C241 C 0.20422 0.48949 0.17802
 C242 C 0.20355 0.51092 0.17717
 C243 C 0.19010 0.52143 0.18986
 C244 C 0.17738 0.51111 0.20345
 C245 C 0.17802 0.48967 0.20427
 C246 C 0.19165 0.47918 0.19176
 H247 H 0.19183 0.46274 0.19207
 H248 H 0.18979 0.53786 0.18943
 C249 C 0.79584 0.51103 0.17807
 C250 C 0.79581 0.48956 0.17824
 C251 C 0.80893 0.47927 0.19145
 C252 C 0.82210 0.48983 0.20442
 C253 C 0.82188 0.51129 0.20450
 C254 C 0.80872 0.52158 0.19133
 H255 H 0.80869 0.53803 0.19121
 H256 H 0.80909 0.46283 0.19143
 C257 C 0.20412 0.51041 0.82215
 C258 C 0.20405 0.48895 0.82254
 C259 C 0.19111 0.47832 0.80941
 C260 C 0.17793 0.48854 0.79619
 C261 C 0.17771 0.51000 0.79609
 C262 C 0.19095 0.52063 0.80892
 H263 H 0.19083 0.53707 0.80880
 H264 H 0.19110 0.46188 0.80966
 C265 C 0.28921 0.38195 0.06436
 C266 C 0.29656 0.40049 0.07162
 C267 C 0.31500 0.40808 0.06440
 C268 C 0.32600 0.39725 0.04986
 C269 C 0.31866 0.37867 0.04234
 C270 C 0.30018 0.37109 0.04982
 C271 C 0.28496 0.41191 0.08617
 C272 C 0.27510 0.42154 0.09817
 C273 C 0.26339 0.43289 0.11202
 C274 C 0.25325 0.44266 0.12367
 C275 C 0.24098 0.45440 0.13736
 C276 C 0.24275 0.45172 0.15838
 C277 C 0.23075 0.46312 0.17163
 C278 C 0.21695 0.47740 0.16398
 C279 C 0.21510 0.47987 0.14287
 C280 C 0.22712 0.46849 0.12964
 H281 H 0.27493 0.37595 0.06983
 H282 H 0.32081 0.42244 0.06990
 H283 H 0.34017 0.40351 0.04442
 H284 H 0.29411 0.35684 0.04435
 H285 H 0.25340 0.44082 0.16451
 H286 H 0.23234 0.46096 0.18786
 H287 H 0.20431 0.49056 0.13665
 H288 H 0.22555 0.47061 0.11341
 C289 C 0.71073 0.61737 0.06355
 C290 C 0.70346 0.59876 0.07070
 C291 C 0.68496 0.59122 0.06356
 C292 C 0.67381 0.60216 0.04922
 C293 C 0.68107 0.62081 0.04182
 C294 C 0.69962 0.62834 0.04921
 C295 C 0.71515 0.58730 0.08511
 C296 C 0.72509 0.57768 0.09706
 C297 C 0.73686 0.56641 0.11091
 C298 C 0.74702 0.55678 0.12266
 C299 C 0.75926 0.54528 0.13658
 C300 C 0.77285 0.53075 0.12919
 C301 C 0.78482 0.51962 0.14268
 C302 C 0.78321 0.52283 0.16371
 C303 C 0.76968 0.53755 0.17101
 C304 C 0.75773 0.54869 0.15751
 H305 H 0.72504 0.62334 0.06897
 H306 H 0.67920 0.57682 0.06898
 H307 H 0.65960 0.59594 0.04383
 H308 H 0.70563 0.64264 0.04383
 H309 H 0.77423 0.52806 0.11302
 H310 H 0.79539 0.50856 0.13673
 H311 H 0.76827 0.54027 0.18717
 H312 H 0.74729 0.55993 0.16337
 C313 C 0.68414 0.41045 0.93597
 C314 C 0.70258 0.40285 0.92877
 C315 C 0.70993 0.38436 0.93609
 C316 C 0.69896 0.37354 0.95066
 C317 C 0.68046 0.38112 0.95810
 C318 C 0.67313 0.39967 0.95054
 C319 C 0.71417 0.41417 0.91416
 C320 C 0.72407 0.42368 0.90209
 C321 C 0.73587 0.43485 0.88817
 C322 C 0.74612 0.44444 0.87648
 C323 C 0.75855 0.45598 0.86275
 C324 C 0.75677 0.45321 0.84175
 C325 C 0.76893 0.46443 0.82847
 C326 C 0.78289 0.47860 0.83610
 C327 C 0.78475 0.48113 0.85721
 C328 C 0.77259 0.46993 0.87045
 H329 H 0.67833 0.42478 0.93042
 H330 H 0.72420 0.37835 0.93064
 H331 H 0.70503 0.35932 0.95616
 H332 H 0.65895 0.40591 0.95595
 H333 H 0.74599 0.44241 0.83564
 H334 H 0.76732 0.46223 0.81225
 H335 H 0.79566 0.49173 0.86341
 H336 H 0.77416 0.47211 0.88668
 C337 C 0.29188 0.61555 0.93535
 C338 C 0.29926 0.59704 0.92808
 C339 C 0.31761 0.58940 0.93547
 C340 C 0.32849 0.60017 0.95018
 C341 C 0.32112 0.61873 0.95769
 C342 C 0.30272 0.62634 0.95005
 C343 C 0.28777 0.58576 0.91333
 C344 C 0.27790 0.57634 0.90115
 C345 C 0.26603 0.56536 0.88711
 C346 C 0.25562 0.55602 0.87532
 C347 C 0.24286 0.54490 0.86152
 C348 C 0.22193 0.54835 0.86144
 C349 C 0.20938 0.53727 0.84843
 C350 C 0.21763 0.52255 0.83543
 C351 C 0.23869 0.51938 0.83534
 C352 C 0.25123 0.53046 0.84839
 H353 H 0.27767 0.62159 0.92975
 H354 H 0.32344 0.57506 0.92996
 H355 H 0.34260 0.59389 0.95574
 H356 H 0.29662 0.64058 0.95550
 H357 H 0.21530 0.55949 0.87154
 H358 H 0.19319 0.53992 0.84874
 H359 H 0.24537 0.50827 0.82526
 H360 H 0.26742 0.52771 0.84831
 C361 C 0.06437 0.29057 0.38334
 C362 C 0.07152 0.29809 0.40187
 C363 C 0.06409 0.31649 0.40939
 C364 C 0.04948 0.32728 0.39848
 C365 C 0.04210 0.31978 0.37988
 C366 C 0.04976 0.30132 0.37239
 C367 C 0.08620 0.28673 0.41332
 C368 C 0.09832 0.27698 0.42290
 C369 C 0.11230 0.26530 0.43410
 C370 C 0.12404 0.25506 0.44362
 C371 C 0.13781 0.24250 0.45495
 C372 C 0.15084 0.25113 0.46935
 C373 C 0.16391 0.23878 0.48059
 C374 C 0.16394 0.21768 0.47762
 C375 C 0.15101 0.20918 0.46295
 C376 C 0.13799 0.22153 0.45172
 H377 H 0.07001 0.27632 0.37740
 H378 H 0.06951 0.32243 0.42375
 H379 H 0.04390 0.34143 0.40466
 H380 H 0.04441 0.29513 0.35814
 H381 H 0.15085 0.26735 0.47194
 H382 H 0.17394 0.24566 0.49165
 H383 H 0.15079 0.19295 0.46045
 H384 H 0.12796 0.21471 0.44062
 C385 C 0.06469 0.71052 0.61707
 C386 C 0.07177 0.70319 0.59844
 C387 C 0.06454 0.68471 0.59091
 C388 C 0.05015 0.67366 0.60188
 C389 C 0.04280 0.68100 0.62055
 C390 C 0.05030 0.69951 0.62807
 C391 C 0.08617 0.71482 0.58690
 C392 C 0.09808 0.72469 0.57719
 C393 C 0.11188 0.73640 0.56579
 C394 C 0.12356 0.74651 0.55604
 C395 C 0.13741 0.75869 0.54440
 C396 C 0.15830 0.75720 0.54776
 C397 C 0.17174 0.76915 0.53653
 C398 C 0.16439 0.78262 0.52176
 C399 C 0.14339 0.78417 0.51858
 C400 C 0.12998 0.77220 0.52980
 H401 H 0.07018 0.72483 0.62303
 H402 H 0.06991 0.67891 0.57649
 H403 H 0.04468 0.65948 0.59566
 H404 H 0.04496 0.70558 0.64238
 H405 H 0.16420 0.74683 0.55905
 H406 H 0.18787 0.76779 0.53922
 H407 H 0.13741 0.79470 0.50748
 H408 H 0.11383 0.77354 0.52715
 C409 C 0.93604 0.70843 0.38514
 C410 C 0.92881 0.70100 0.40367
 C411 C 0.93619 0.68263 0.41129
 C412 C 0.95082 0.67176 0.40046
 C413 C 0.95827 0.67916 0.38186
 C414 C 0.95067 0.69760 0.37430
 C415 C 0.91406 0.71244 0.41496
 C416 C 0.90186 0.72228 0.42435
 C417 C 0.88777 0.73410 0.43527
 C418 C 0.87593 0.74447 0.44454
 C419 C 0.86205 0.75717 0.45557
 C420 C 0.84886 0.74872 0.46991
 C421 C 0.83571 0.76120 0.48091
 C422 C 0.83575 0.78228 0.47775
 C423 C 0.84881 0.79060 0.46312
 C424 C 0.86191 0.77811 0.45213
 H425 H 0.93045 0.72265 0.37912
 H426 H 0.93071 0.67676 0.42563
 H427 H 0.95636 0.65762 0.40670
 H428 H 0.95607 0.70372 0.36003
 H429 H 0.84881 0.73253 0.47266
 H430 H 0.82559 0.75447 0.49195
 H431 H 0.84909 0.80681 0.46048
 H432 H 0.87206 0.78480 0.44107
 C433 C 0.93513 0.29033 0.61698
 C434 C 0.92799 0.29763 0.59836
 C435 C 0.93522 0.31608 0.59079
 C436 C 0.94966 0.32714 0.60171
 C437 C 0.95707 0.31984 0.62037
 C438 C 0.94957 0.30135 0.62793
 C439 C 0.91358 0.28595 0.58686
 C440 C 0.90168 0.27597 0.57721
 C441 C 0.88797 0.26403 0.56591
 C442 C 0.87642 0.25363 0.55628
 C443 C 0.86283 0.24097 0.54482
 C444 C 0.84933 0.24960 0.53088
 C445 C 0.83632 0.23721 0.51960
 C446 C 0.83679 0.21605 0.52207
 C447 C 0.85022 0.20752 0.53624
 C448 C 0.86320 0.21992 0.54751
 H449 H 0.92965 0.27604 0.62296
 H450 H 0.92981 0.32185 0.57638
 H451 H 0.95513 0.34131 0.59547
 H452 H 0.95495 0.29530 0.64223
 H453 H 0.84889 0.26588 0.52873
 H454 H 0.82589 0.24410 0.50896
 H455 H 0.85082 0.19125 0.53835
 H456 H 0.87359 0.21310 0.55826
 C457 C 0.40827 0.06539 0.31570
 C458 C 0.40077 0.07264 0.29721
 C459 C 0.38223 0.06548 0.28979
 C460 C 0.37129 0.05099 0.30072
 C461 C 0.37878 0.04346 0.31924
 C462 C 0.39735 0.05089 0.32667
 C463 C 0.41229 0.08710 0.28563
 C464 C 0.42198 0.09903 0.27575
 C465 C 0.43339 0.11278 0.26399
 C466 C 0.44319 0.12435 0.25379
 C467 C 0.45494 0.13795 0.24143
 C468 C 0.46886 0.13015 0.22742
 C469 C 0.48020 0.14329 0.21527
 C470 C 0.47785 0.16438 0.21713
 C471 C 0.46374 0.17211 0.23110
 C472 C 0.45238 0.15894 0.24323
 H473 H 0.42263 0.07081 0.32157
 H474 H 0.37631 0.07098 0.27547
 H475 H 0.35705 0.04558 0.29458
 H476 H 0.40354 0.04541 0.34087
 H477 H 0.47088 0.11393 0.22583
 H478 H 0.49076 0.13702 0.20436
 H479 H 0.46167 0.18832 0.23270
 H480 H 0.44160 0.16512 0.25398
 C481 C 0.61602 0.06428 0.70853
 C482 C 0.59750 0.07153 0.70120
 C483 C 0.58986 0.06430 0.68274
 C484 C 0.60065 0.04976 0.67169
 C485 C 0.61922 0.04225 0.67901
 C486 C 0.62683 0.04975 0.69752
 C487 C 0.58619 0.08612 0.71285
 C488 C 0.57677 0.09818 0.72285
 C489 C 0.56580 0.11211 0.73481
 C490 C 0.55646 0.12385 0.74525
 C491 C 0.54534 0.13767 0.75797
 C492 C 0.53152 0.15129 0.74938
 C493 C 0.52054 0.16450 0.76182
 C494 C 0.52319 0.16409 0.78299
 C495 C 0.53726 0.15056 0.79147
 C496 C 0.54824 0.13739 0.77902
 H497 H 0.62206 0.06976 0.72282
 H498 H 0.57551 0.06980 0.67695
 H499 H 0.59437 0.04431 0.65751
 H500 H 0.64108 0.04430 0.70358
 H501 H 0.52921 0.15168 0.73310
 H502 H 0.50997 0.17500 0.75495
 H503 H 0.53951 0.15000 0.80776
 H504 H 0.55890 0.12691 0.78582
 C505 C 0.40957 0.93677 0.68429
 C506 C 0.40191 0.92955 0.70274
 C507 C 0.38326 0.93663 0.70991
 C508 C 0.37234 0.95097 0.69877
 C509 C 0.37998 0.95845 0.68028
 C510 C 0.39869 0.95113 0.67312
 C511 C 0.41330 0.91512 0.71448
 C512 C 0.42283 0.90316 0.72447
 C513 C 0.43398 0.88929 0.73633
 C514 C 0.44351 0.87754 0.74658
 C515 C 0.45489 0.86361 0.75891
 C516 C 0.46939 0.87095 0.77260
 C517 C 0.48042 0.85745 0.78464
 C518 C 0.47715 0.83646 0.78300
 C519 C 0.46245 0.82921 0.76938
 C520 C 0.45141 0.84273 0.75736
 H521 H 0.42401 0.93140 0.67861
 H522 H 0.37719 0.93115 0.72418
 H523 H 0.35800 0.95629 0.70471
 H524 H 0.40498 0.95657 0.65895
 H525 H 0.47213 0.88709 0.77399
 H526 H 0.49147 0.86336 0.79527
 H527 H 0.45969 0.81308 0.76794
 H528 H 0.44019 0.83690 0.74685
 C529 C 0.59096 0.93511 0.31744
 C530 C 0.59836 0.92763 0.29899
 C531 C 0.61682 0.93476 0.29136
 C532 C 0.62780 0.94942 0.30205
 C533 C 0.62044 0.95716 0.32055
 C534 C 0.60193 0.94978 0.32817
 C535 C 0.58685 0.91295 0.28764
 C536 C 0.57725 0.90084 0.27787
 C537 C 0.56607 0.88687 0.26610
 C538 C 0.55657 0.87515 0.25576
 C539 C 0.54531 0.86141 0.24307
 C540 C 0.54870 0.86119 0.22210
 C541 C 0.53755 0.84818 0.20962
 C542 C 0.52279 0.83531 0.21798
 C543 C 0.51964 0.83538 0.23909
 C544 C 0.53081 0.84843 0.25157
 H545 H 0.57667 0.92972 0.32347
 H546 H 0.62266 0.92909 0.27708
 H547 H 0.64199 0.95477 0.29576
 H548 H 0.59584 0.95542 0.34236
 H549 H 0.55988 0.87118 0.21537
 H550 H 0.54018 0.84838 0.19339
 H551 H 0.50851 0.82539 0.24587
 H552 H 0.52809 0.84844 0.26779
 C553 C 0.40826 0.31559 0.93545
 C554 C 0.40081 0.29709 0.92818
 C555 C 0.38230 0.28962 0.93536
 C556 C 0.37133 0.30053 0.94986
 C557 C 0.37877 0.31907 0.95740
 C558 C 0.39732 0.32653 0.94996
 C559 C 0.41234 0.28555 0.91367
 C560 C 0.42204 0.27573 0.90169
 C561 C 0.43346 0.26405 0.88787
 C562 C 0.44326 0.25392 0.87622
 C563 C 0.45501 0.24166 0.86252
 C564 C 0.45230 0.24344 0.84151
 C565 C 0.46366 0.23140 0.82824
 C566 C 0.47791 0.21755 0.83588
 C567 C 0.48042 0.21573 0.85699
 C568 C 0.46908 0.22778 0.87022
 H569 H 0.42259 0.32149 0.93001
 H570 H 0.37641 0.27530 0.92985
 H571 H 0.35711 0.29436 0.95527
 H572 H 0.40346 0.34074 0.95545
 H573 H 0.44142 0.25410 0.83539
 H574 H 0.46147 0.23298 0.81202
 H575 H 0.49108 0.20490 0.86320
 H576 H 0.47122 0.22621 0.88646
 C577 C 0.59065 0.68488 0.93625
 C578 C 0.59811 0.70341 0.92908
 C579 C 0.61670 0.71076 0.93618
 C580 C 0.62775 0.69972 0.95050
 C581 C 0.62032 0.68114 0.95792
 C582 C 0.60168 0.67380 0.95057
 C583 C 0.58655 0.71505 0.91469
 C584 C 0.57687 0.72495 0.90277
 C585 C 0.56554 0.73670 0.88895
 C586 C 0.55586 0.74684 0.87723
 C587 C 0.54432 0.75907 0.86334
 C588 C 0.54772 0.75757 0.84241
 C589 C 0.53658 0.76954 0.82893
 C590 C 0.52186 0.78306 0.83626
 C591 C 0.51865 0.78463 0.85729
 C592 C 0.52979 0.77264 0.87075
 H593 H 0.57626 0.67906 0.93086
 H594 H 0.62259 0.72510 0.93074
 H595 H 0.64204 0.70580 0.95584
 H596 H 0.59554 0.65956 0.95598
 H597 H 0.55897 0.74716 0.83652
 H598 H 0.53930 0.76816 0.81277
 H599 H 0.50759 0.79518 0.86326
 H600 H 0.52711 0.77399 0.88692
 C601 C 0.38385 0.70794 0.06515
 C602 C 0.40232 0.70057 0.07250
 C603 C 0.40997 0.68218 0.06519
 C604 C 0.39925 0.67125 0.05048
 C605 C 0.38072 0.67861 0.04289
 C606 C 0.37311 0.69706 0.05045
 C607 C 0.41357 0.71209 0.08726
 C608 C 0.42296 0.72200 0.09944
 C609 C 0.43391 0.73389 0.11348
 C610 C 0.44324 0.74431 0.12527
 C611 C 0.45435 0.75707 0.13908
 C612 C 0.46868 0.74867 0.15230
 C613 C 0.47975 0.76121 0.16537
 C614 C 0.47667 0.78229 0.16521
 C615 C 0.46206 0.79057 0.15212
 C616 C 0.45100 0.77803 0.13909
 H617 H 0.37781 0.72218 0.07069
 H618 H 0.42427 0.67634 0.07076
 H619 H 0.40553 0.65711 0.04498
 H620 H 0.35890 0.70315 0.04493
 H621 H 0.47136 0.73247 0.15244
 H622 H 0.49077 0.75450 0.17553
 H623 H 0.45949 0.80678 0.15175
 H624 H 0.43995 0.78468 0.12891
 C625 C 0.59057 0.31723 0.06428
 C626 C 0.59818 0.29882 0.07158
 C627 C 0.61679 0.29156 0.06447
 C628 C 0.62771 0.30258 0.05003
 C629 C 0.62012 0.32103 0.04247
 C630 C 0.60146 0.32828 0.04983
 C631 C 0.58677 0.28716 0.08607
 C632 C 0.57726 0.27716 0.09804
 C633 C 0.56617 0.26519 0.11187
 C634 C 0.55675 0.25475 0.12354
 C635 C 0.54553 0.24204 0.13727
 C636 C 0.54837 0.22101 0.13691
 C637 C 0.53732 0.20856 0.15002
 C638 C 0.52324 0.21702 0.16357
 C639 C 0.52064 0.23817 0.16405
 C640 C 0.53169 0.25060 0.15090
 H641 H 0.57616 0.32297 0.06967
 H642 H 0.62281 0.27732 0.07001
 H643 H 0.64201 0.29657 0.04469
 H644 H 0.59521 0.34242 0.04432
 H645 H 0.55905 0.21423 0.12642
 H646 H 0.53954 0.19230 0.14941
 H647 H 0.51005 0.24501 0.17457
 H648 H 0.52942 0.26686 0.15135
 C649 C 0.31657 0.06493 0.59044
 C650 C 0.29815 0.07221 0.59804
 C651 C 0.29066 0.06480 0.61647
 C652 C 0.30148 0.05011 0.62724
 C653 C 0.31996 0.04261 0.61969
 C654 C 0.32742 0.05023 0.60118
 C655 C 0.28673 0.08702 0.58681
 C656 C 0.27691 0.09926 0.57747
 C657 C 0.26509 0.11338 0.56659
 C658 C 0.25473 0.12524 0.55733
 C659 C 0.24203 0.13912 0.54629
 C660 C 0.22109 0.13919 0.54968
 C661 C 0.20860 0.15225 0.53864
 C662 C 0.21692 0.16531 0.52401
 C663 C 0.23799 0.16542 0.52091
 C664 C 0.25048 0.15232 0.53196
 H665 H 0.32248 0.07055 0.57616
 H666 H 0.27641 0.07032 0.62248
 H667 H 0.29531 0.04458 0.64143
 H668 H 0.34159 0.04478 0.59496
 H669 H 0.21441 0.12903 0.56074
 H670 H 0.19239 0.15191 0.54123
 H671 H 0.24472 0.17554 0.50987
 H672 H 0.26667 0.15242 0.52925
 C673 C 0.68461 0.06404 0.40783
 C674 C 0.70300 0.07114 0.40004
 C675 C 0.71017 0.06372 0.38149
 C676 C 0.69909 0.04912 0.37081
 C677 C 0.68061 0.04167 0.37857
 C678 C 0.67347 0.04944 0.39720
 C679 C 0.71475 0.08572 0.41127
 C680 C 0.72474 0.09774 0.42075
 C681 C 0.73663 0.11160 0.43194
 C682 C 0.74692 0.12323 0.44158
 C683 C 0.75937 0.13689 0.45321
 C684 C 0.75764 0.15788 0.45052
 C685 C 0.76976 0.17109 0.46187
 C686 C 0.78364 0.16342 0.47610
 C687 C 0.78546 0.14233 0.47854
 C688 C 0.77332 0.12915 0.46721
 H689 H 0.67893 0.06968 0.42220
 H690 H 0.72442 0.06911 0.37534
 H691 H 0.70514 0.04361 0.35656
 H692 H 0.65934 0.04417 0.40371
 H693 H 0.74692 0.16402 0.43969
 H694 H 0.76819 0.18729 0.45973
 H695 H 0.79630 0.13610 0.48919
 H696 H 0.77485 0.11294 0.46933
 C697 C 0.70810 0.93500 0.61602
 C698 C 0.70076 0.92772 0.59747
 C699 C 0.68245 0.93511 0.58972
 C700 C 0.67157 0.94982 0.60044
 C701 C 0.67890 0.95735 0.61905
 C702 C 0.69726 0.94971 0.62676
 C703 C 0.71225 0.91294 0.58626
 C704 C 0.72215 0.90074 0.57693
 C705 C 0.73406 0.88668 0.56607
 C706 C 0.74450 0.87487 0.55683
 C707 C 0.75731 0.86105 0.54584
 C708 C 0.77823 0.86103 0.54938
 C709 C 0.79083 0.84801 0.53840
 C710 C 0.78263 0.83494 0.52368
 C711 C 0.76158 0.83479 0.52044
 C712 C 0.74899 0.84784 0.53142
 H713 H 0.72228 0.92941 0.62214
 H714 H 0.67665 0.92959 0.57535
 H715 H 0.65749 0.95538 0.59409
 H716 H 0.70333 0.95517 0.64103
 H717 H 0.78482 0.87120 0.56050
 H718 H 0.80701 0.84838 0.54111
 H719 H 0.75494 0.82465 0.50933
 H720 H 0.73282 0.84771 0.52860
 C721 C 0.31512 0.93662 0.40839
 C722 C 0.29664 0.92944 0.40082
 C723 C 0.28930 0.93664 0.38225
 C724 C 0.30031 0.95110 0.37134
 C725 C 0.31883 0.95855 0.37889
 C726 C 0.32616 0.95108 0.39750
 C727 C 0.28503 0.91494 0.41226
 C728 C 0.27517 0.90294 0.42188
 C729 C 0.26348 0.88903 0.43317
 C730 C 0.25339 0.87726 0.44283
 C731 C 0.24123 0.86331 0.45437
 C732 C 0.24286 0.84241 0.45097
 C733 C 0.23097 0.82888 0.46214
 C734 C 0.21742 0.83611 0.47690
 C735 C 0.21571 0.85711 0.48010
 C736 C 0.22762 0.87062 0.46894
 H737 H 0.32092 0.93115 0.42277
 H738 H 0.27500 0.93119 0.37627
 H739 H 0.29424 0.95654 0.35707
 H740 H 0.34035 0.95651 0.40374
 H741 H 0.25331 0.83660 0.43970
 H742 H 0.23246 0.81275 0.45943
 H743 H 0.20513 0.86300 0.49119
 H744 H 0.22617 0.88676 0.47162
 C745 C 0.06440 0.38301 0.70933
 C746 C 0.07172 0.40145 0.70182
 C747 C 0.06437 0.40901 0.68339
 C748 C 0.04966 0.39823 0.67255
 C749 C 0.04209 0.37974 0.68005
 C750 C 0.04969 0.37221 0.69853
 C751 C 0.08648 0.41277 0.71325
 C752 C 0.09866 0.42224 0.72306
 C753 C 0.11271 0.43329 0.73483
 C754 C 0.12451 0.44271 0.74515
 C755 C 0.13833 0.45392 0.75780
 C756 C 0.15147 0.46823 0.74924
 C757 C 0.16458 0.47937 0.76167
 C758 C 0.16454 0.47639 0.78280
 C759 C 0.15151 0.46181 0.79124
 C760 C 0.13845 0.45067 0.77880
 H761 H 0.06996 0.37704 0.72360
 H762 H 0.06992 0.42329 0.67745
 H763 H 0.04413 0.40444 0.65838
 H764 H 0.04419 0.35803 0.70472
 H765 H 0.15153 0.47083 0.73300
 H766 H 0.17468 0.49037 0.75485
 H767 H 0.15123 0.45930 0.80749
 H768 H 0.12834 0.43964 0.78558
 C769 C 0.06428 0.58984 0.31705
 C770 C 0.07142 0.59753 0.29859
 C771 C 0.06414 0.61608 0.29135
 C772 C 0.04968 0.62688 0.30245
 C773 C 0.04229 0.61923 0.32097
 C774 C 0.04981 0.60061 0.32819
 C775 C 0.08597 0.58626 0.28687
 C776 C 0.09801 0.57687 0.27684
 C777 C 0.11193 0.56591 0.26485
 C778 C 0.12366 0.55657 0.25442
 C779 C 0.13748 0.54543 0.24173
 C780 C 0.13720 0.54828 0.22067
 C781 C 0.15034 0.53724 0.20825
 C782 C 0.16383 0.52314 0.21676
 C783 C 0.16424 0.52056 0.23794
 C784 C 0.15107 0.53161 0.25035
 H785 H 0.06980 0.57548 0.32278
 H786 H 0.06955 0.62215 0.27706
 H787 H 0.04421 0.64115 0.29647
 H788 H 0.04444 0.59431 0.34239
 H789 H 0.12674 0.55894 0.21385
 H790 H 0.14978 0.53944 0.19196
 H791 H 0.17472 0.50997 0.24483
 H792 H 0.15145 0.52933 0.26664
 C793 C 0.93632 0.38297 0.28926
 C794 C 0.92909 0.40151 0.29660
 C795 C 0.93610 0.40900 0.31521
 C796 C 0.95040 0.39805 0.32639
 C797 C 0.95789 0.37946 0.31906
 C798 C 0.95062 0.37199 0.30041
 C799 C 0.91474 0.41301 0.28487
 C800 C 0.90285 0.42269 0.27495
 C801 C 0.88906 0.43405 0.26321
 C802 C 0.87736 0.44378 0.25309
 C803 C 0.86348 0.45539 0.24092
 C804 C 0.84259 0.45199 0.24244
 C805 C 0.82912 0.46320 0.23053
 C806 C 0.83642 0.47801 0.21706
 C807 C 0.85741 0.48123 0.21549
 C808 C 0.87086 0.47003 0.22742
 H809 H 0.93101 0.37705 0.27486
 H810 H 0.93061 0.42335 0.32102
 H811 H 0.95568 0.40423 0.34068
 H812 H 0.95608 0.35775 0.29434
 H813 H 0.83673 0.44067 0.25281
 H814 H 0.81299 0.46047 0.23191
 H815 H 0.86336 0.49236 0.20497
 H816 H 0.88700 0.47272 0.22607
 C817 C 0.93589 0.59177 0.68386
 C818 C 0.92868 0.59929 0.70236
 C819 C 0.93595 0.61778 0.70983
 C820 C 0.95050 0.62866 0.69892
 C821 C 0.95797 0.62116 0.68037
 C822 C 0.95044 0.60263 0.67291
 C823 C 0.91412 0.58787 0.71391
 C824 C 0.90210 0.57831 0.72381
 C825 C 0.88823 0.56714 0.73565
 C826 C 0.87655 0.55763 0.74598
 C827 C 0.86281 0.54634 0.75859
 C828 C 0.86309 0.54910 0.77967
 C829 C 0.84995 0.53799 0.79203
 C830 C 0.83646 0.52392 0.78343
 C831 C 0.83608 0.52138 0.76224
 C832 C 0.84925 0.53249 0.74990
 H833 H 0.93037 0.57745 0.67796
 H834 H 0.93048 0.62371 0.72416
 H835 H 0.95597 0.64287 0.70508
 H836 H 0.95588 0.59644 0.65869
 H837 H 0.87352 0.55978 0.78655
 H838 H 0.85049 0.54016 0.80832
 H839 H 0.82560 0.51080 0.75530
 H840 H 0.84887 0.53028 0.73360
 C841 C 0.70972 0.61786 0.93634
 C842 C 0.70235 0.59932 0.92913
 C843 C 0.68389 0.59180 0.93636
 C844 C 0.67288 0.60270 0.95085
 C845 C 0.68021 0.62135 0.95839
 C846 C 0.69877 0.62881 0.95083
 C847 C 0.71394 0.58788 0.91459
 C848 C 0.72384 0.57831 0.90256
 C849 C 0.73568 0.56714 0.88865
 C850 C 0.74599 0.55764 0.87692
 C851 C 0.75857 0.54634 0.86311
 C852 C 0.74988 0.53252 0.84951
 C853 C 0.76219 0.52142 0.83627
 C854 C 0.78334 0.52394 0.83662
 C855 C 0.79193 0.53800 0.85015
 C856 C 0.77961 0.54910 0.86335
 H857 H 0.72401 0.62382 0.93086
 H858 H 0.67806 0.57745 0.93088
 H859 H 0.65870 0.59640 0.95621
 H860 H 0.70497 0.64306 0.95617
 H861 H 0.73361 0.53030 0.84915
 H862 H 0.75524 0.51085 0.82577
 H863 H 0.80819 0.54017 0.85067
 H864 H 0.78649 0.55976 0.87381
 C865 C 0.28892 0.38242 0.93725
 C866 C 0.29619 0.40104 0.93016
 C867 C 0.31472 0.40851 0.93728
 C868 C 0.32590 0.39749 0.95154
 C869 C 0.31868 0.37876 0.95895
 C870 C 0.30004 0.37135 0.95151
 C871 C 0.28449 0.41258 0.91579
 C872 C 0.27458 0.42226 0.90386
 C873 C 0.26285 0.43360 0.88999
 C874 C 0.25274 0.44327 0.87822
 C875 C 0.24058 0.45480 0.86423
 C876 C 0.22717 0.46955 0.87152
 C877 C 0.21523 0.48066 0.85798
 C878 C 0.21670 0.47723 0.83697
 C879 C 0.23008 0.46231 0.82976
 C880 C 0.24199 0.45119 0.84333
 H881 H 0.27458 0.37650 0.93184
 H882 H 0.32048 0.42292 0.93189
 H883 H 0.34014 0.40376 0.95682
 H884 H 0.29392 0.35704 0.95675
 H885 H 0.22588 0.47240 0.88767
 H886 H 0.20479 0.49187 0.86387
 H887 H 0.23139 0.45941 0.81362
 H888 H 0.25228 0.43979 0.83752
 C889 C 0.31702 0.58942 0.06336
 C890 C 0.29853 0.59697 0.07047
 C891 C 0.29124 0.61550 0.06318
 C892 C 0.30231 0.62641 0.04876
 C893 C 0.32092 0.61893 0.04134
 C894 C 0.32815 0.60029 0.04893
 C895 C 0.28684 0.58562 0.08502
 C896 C 0.27684 0.57619 0.09708
 C897 C 0.26488 0.56520 0.11105
 C898 C 0.25447 0.55588 0.12284
 C899 C 0.24180 0.54479 0.13675
 C900 C 0.22079 0.54775 0.13657
 C901 C 0.20839 0.53684 0.14985
 C902 C 0.21686 0.52276 0.16341
 C903 C 0.23798 0.52005 0.16371
 C904 C 0.25038 0.53097 0.15040
 H905 H 0.32279 0.57508 0.06890
 H906 H 0.27693 0.62148 0.06857
 H907 H 0.29618 0.64065 0.04338
 H908 H 0.34237 0.59398 0.04368
 H909 H 0.21399 0.55842 0.12608
 H910 H 0.19215 0.53915 0.14936
 H911 H 0.24485 0.50947 0.17423
 H912 H 0.26662 0.52860 0.15072
 C913 C 0.70901 0.38440 0.06415
 C914 C 0.70154 0.40286 0.07142
 C915 C 0.68313 0.41037 0.06407
 C916 C 0.67225 0.39952 0.04941
 C917 C 0.67967 0.38094 0.04184
 C918 C 0.69820 0.37350 0.04950
 C919 C 0.71296 0.41422 0.08619
 C920 C 0.72276 0.42369 0.09840
 C921 C 0.73452 0.43472 0.11252
 C922 C 0.74482 0.44409 0.12438
 C923 C 0.75746 0.45522 0.13831
 C924 C 0.74894 0.46955 0.15148
 C925 C 0.76135 0.48059 0.16469
 C926 C 0.78243 0.47750 0.16475
 C927 C 0.79082 0.46290 0.15169
 C928 C 0.77840 0.45186 0.13851
 H929 H 0.72327 0.37846 0.06973
 H930 H 0.67722 0.42467 0.06959
 H931 H 0.65809 0.40580 0.04398
 H932 H 0.70447 0.35930 0.04414
 H933 H 0.73275 0.47223 0.15148
 H934 H 0.75456 0.49160 0.17482
 H935 H 0.80702 0.46031 0.15147
 H936 H 0.78515 0.44082 0.12839
 C937 C 0.93792 0.71094 0.61727
 C938 C 0.93069 0.70367 0.59868
 C939 C 0.93776 0.68516 0.59112
 C940 C 0.95208 0.67398 0.60204
 C941 C 0.95962 0.68119 0.62076
 C942 C 0.95225 0.69983 0.62825
 C943 C 0.91622 0.71536 0.58725
 C944 C 0.90421 0.72527 0.57769
 C945 C 0.89026 0.73702 0.56649
 C946 C 0.87844 0.74715 0.55692
 C947 C 0.86441 0.75935 0.54548
 C948 C 0.84355 0.75777 0.54904
 C949 C 0.82995 0.76966 0.53795
 C950 C 0.83709 0.78319 0.52312
 C951 C 0.85806 0.78486 0.51977
 C952 C 0.87163 0.77294 0.53084
 H953 H 0.93256 0.72527 0.62326
 H954 H 0.93226 0.67939 0.57673
 H955 H 0.95730 0.65974 0.59572
 H956 H 0.95759 0.70594 0.64255
 H957 H 0.83780 0.74733 0.56036
 H958 H 0.81385 0.76820 0.54078
 H959 H 0.86389 0.79542 0.50862
 H960 H 0.88775 0.77436 0.52803
 C961 C 0.93644 0.31572 0.40847
 C962 C 0.92939 0.29718 0.40092
 C963 C 0.93675 0.28985 0.38241
 C964 C 0.95120 0.30090 0.37153
 C965 C 0.95858 0.31954 0.37902
 C966 C 0.95090 0.32684 0.39764
 C967 C 0.91486 0.28550 0.41230
 C968 C 0.90284 0.27554 0.42183
 C969 C 0.88895 0.26368 0.43302
 C970 C 0.87725 0.25341 0.44261
 C971 C 0.86348 0.24096 0.45412
 C972 C 0.84253 0.24262 0.45115
 C973 C 0.82921 0.23044 0.46231
 C974 C 0.83672 0.21657 0.47663
 C975 C 0.85777 0.21485 0.47938
 C976 C 0.87106 0.22703 0.46824
 H977 H 0.93086 0.32153 0.42280
 H978 H 0.93140 0.27550 0.37643
 H979 H 0.95664 0.29472 0.35730
 H980 H 0.95612 0.34108 0.40396
 H981 H 0.83650 0.25331 0.44023
 H982 H 0.81304 0.23196 0.45992
 H983 H 0.86390 0.20402 0.49009
 H984 H 0.88724 0.22555 0.47059
 C985 C 0.06203 0.31565 0.59077
 C986 C 0.06910 0.29714 0.59831
 C987 C 0.06192 0.28990 0.61693
 C988 C 0.04765 0.30104 0.62793
 C989 C 0.04026 0.31967 0.62046
 C990 C 0.04775 0.32686 0.60173
 C991 C 0.08352 0.28542 0.58686
 C992 C 0.09550 0.27546 0.57729
 C993 C 0.10941 0.26364 0.56611
 C994 C 0.12121 0.25345 0.55658
 C995 C 0.13523 0.24117 0.54520
 C996 C 0.12800 0.22752 0.53060
 C997 C 0.14157 0.21551 0.51961
 C998 C 0.16254 0.21715 0.52301
 C999 C 0.16968 0.23075 0.53780
 C1000 C 0.15608 0.24274 0.54880
 H1001 H 0.06749 0.32139 0.57637
 H1002 H 0.06730 0.27558 0.62290
 H1003 H 0.04234 0.29495 0.64225
 H1004 H 0.04252 0.34109 0.59542
 H1005 H 0.11189 0.22611 0.52776
 H1006 H 0.13574 0.20489 0.50850
 H1007 H 0.18578 0.23220 0.54067
 H1008 H 0.16183 0.25322 0.56009
 C1009 C 0.06423 0.70813 0.38417
 C1010 C 0.07171 0.70066 0.40258
 C1011 C 0.06447 0.68223 0.41018
 C1012 C 0.04974 0.67132 0.39947
 C1013 C 0.04198 0.67873 0.38095
 C1014 C 0.04951 0.69729 0.37342
 C1015 C 0.08656 0.71212 0.41378
 C1016 C 0.09885 0.72195 0.42311
 C1017 C 0.11304 0.73375 0.43398
 C1018 C 0.12497 0.74409 0.44322
 C1019 C 0.13896 0.75676 0.45422
 C1020 C 0.15218 0.74829 0.46853
 C1021 C 0.16541 0.76074 0.47950
 C1022 C 0.16543 0.78182 0.47636
 C1023 C 0.15235 0.79017 0.46177
 C1024 C 0.13916 0.77770 0.45080
 H1025 H 0.06971 0.72240 0.37816
 H1026 H 0.07015 0.67632 0.42443
 H1027 H 0.04441 0.65714 0.40581
 H1028 H 0.04400 0.70355 0.35926
 H1029 H 0.15219 0.73209 0.47127
 H1030 H 0.17555 0.75398 0.49051
 H1031 H 0.15211 0.80637 0.45914
 H1032 H 0.12900 0.78442 0.43977
 C1033 C 0.61531 0.93583 0.70857
 C1034 C 0.59681 0.92857 0.70114
 C1035 C 0.58924 0.93589 0.68269
 C1036 C 0.60009 0.95047 0.67175
 C1037 C 0.61867 0.95793 0.67915
 C1038 C 0.62618 0.95040 0.69766
 C1039 C 0.58549 0.91385 0.71263
 C1040 C 0.57606 0.90166 0.72247
 C1041 C 0.56509 0.88756 0.73427
 C1042 C 0.55576 0.87569 0.74459
 C1043 C 0.54467 0.86176 0.75724
 C1044 C 0.53035 0.84860 0.74869
 C1045 C 0.51933 0.83539 0.76110
 C1046 C 0.52244 0.83533 0.78222
 C1047 C 0.53705 0.84836 0.79064
 C1048 C 0.54806 0.86153 0.77822
 H1049 H 0.62130 0.93029 0.72285
 H1050 H 0.57492 0.93040 0.67681
 H1051 H 0.59389 0.95595 0.65755
 H1052 H 0.64043 0.95581 0.70379
 H1053 H 0.52764 0.84862 0.73246
 H1054 H 0.50832 0.82529 0.75428
 H1055 H 0.53966 0.84857 0.80688
 H1056 H 0.55910 0.87164 0.78500
 C1057 C 0.40895 0.93772 0.31464
 C1058 C 0.40152 0.93060 0.29605
 C1059 C 0.38296 0.93776 0.28868
 C1060 C 0.37192 0.95205 0.29979
 C1061 C 0.37932 0.95939 0.31845
 C1062 C 0.39794 0.95201 0.32578
 C1063 C 0.41302 0.91615 0.28441
 C1064 C 0.42266 0.90415 0.27455
 C1065 C 0.43395 0.89019 0.26290
 C1066 C 0.44359 0.87834 0.25286
 C1067 C 0.45510 0.86426 0.24077
 C1068 C 0.45147 0.84340 0.24236
 C1069 C 0.46257 0.82974 0.23053
 C1070 C 0.47748 0.83682 0.21706
 C1071 C 0.48092 0.85778 0.21541
 C1072 C 0.46983 0.87142 0.22726
 H1073 H 0.42331 0.93229 0.32048
 H1074 H 0.37707 0.93237 0.27430
 H1075 H 0.35766 0.95742 0.29370
 H1076 H 0.40406 0.95735 0.34008
 H1077 H 0.44007 0.83770 0.25272
 H1078 H 0.45966 0.81365 0.23198
 H1079 H 0.49213 0.86357 0.20490
 H1080 H 0.47270 0.88753 0.22584
 C1081 C 0.59075 0.06344 0.31583
 C1082 C 0.59811 0.07050 0.29721
 C1083 C 0.61653 0.06316 0.28969
 C1084 C 0.62751 0.04875 0.30068
 C1085 C 0.62020 0.04147 0.31938
 C1086 C 0.60171 0.04903 0.32687
 C1087 C 0.58668 0.08507 0.28565
 C1088 C 0.57716 0.09715 0.27577
 C1089 C 0.56606 0.11114 0.26398
 C1090 C 0.55663 0.12296 0.25370
 C1091 C 0.54543 0.13690 0.24118
 C1092 C 0.54813 0.13675 0.22010
 C1093 C 0.53712 0.15006 0.20784
 C1094 C 0.52319 0.16362 0.21654
 C1095 C 0.52072 0.16388 0.23774
 C1096 C 0.53174 0.15053 0.24999
 H1097 H 0.57649 0.06901 0.32179
 H1098 H 0.62237 0.06850 0.27528
 H1099 H 0.64168 0.04325 0.29449
 H1100 H 0.59565 0.04374 0.34120
 H1101 H 0.55869 0.12627 0.21313
 H1102 H 0.53924 0.14961 0.19154
 H1103 H 0.51026 0.17440 0.24477
 H1104 H 0.52957 0.15082 0.26629
 C1105 C 0.40919 0.06454 0.68420
 C1106 C 0.40155 0.07171 0.70267
 C1107 C 0.38300 0.06442 0.70994
 C1108 C 0.37218 0.04993 0.69885
 C1109 C 0.37979 0.04252 0.68032
 C1110 C 0.39839 0.05005 0.67307
 C1111 C 0.41290 0.08626 0.71436
 C1112 C 0.42246 0.09829 0.72428
 C1113 C 0.43373 0.11219 0.73606
 C1114 C 0.44341 0.12390 0.74626
 C1115 C 0.45506 0.13766 0.75859
 C1116 C 0.46917 0.13005 0.77251
 C1117 C 0.48045 0.14333 0.78459
 C1118 C 0.47786 0.16440 0.78275
 C1119 C 0.46355 0.17194 0.76889
 C1120 C 0.45225 0.15863 0.75683
 H1121 H 0.42355 0.07006 0.67844
 H1122 H 0.37696 0.06985 0.72424
 H1123 H 0.35791 0.04446 0.70486
 H1124 H 0.40467 0.04466 0.65888
 H1125 H 0.47140 0.11385 0.77408
 H1126 H 0.49116 0.13719 0.79542
 H1127 H 0.46129 0.18813 0.76731
 H1128 H 0.44133 0.16467 0.74614
 C1129 C 0.61687 0.71082 0.06372
 C1130 C 0.59831 0.70345 0.07088
 C1131 C 0.59087 0.68490 0.06374
 C1132 C 0.60187 0.67380 0.04939
 C1133 C 0.62047 0.68116 0.04197
 C1134 C 0.62789 0.69976 0.04937
 C1135 C 0.58677 0.71510 0.08530
 C1136 C 0.57708 0.72499 0.09725
 C1137 C 0.56573 0.73671 0.11111
 C1138 C 0.55603 0.74683 0.12285
 C1139 C 0.54446 0.75903 0.13678
 C1140 C 0.52981 0.77250 0.12940
 C1141 C 0.51868 0.78448 0.14289
 C1142 C 0.52198 0.78301 0.16392
 C1143 C 0.53679 0.76957 0.17121
 C1144 C 0.54794 0.75760 0.15770
 H1145 H 0.62276 0.72517 0.06914
 H1146 H 0.57651 0.67906 0.06917
 H1147 H 0.59572 0.65955 0.04400
 H1148 H 0.64215 0.70585 0.04398
 H1149 H 0.52706 0.77379 0.11324
 H1150 H 0.50755 0.79498 0.13693
 H1151 H 0.53959 0.76825 0.18736
 H1152 H 0.55926 0.74726 0.16357
 C1153 C 0.40863 0.31501 0.06368
 C1154 C 0.40118 0.29648 0.07087
 C1155 C 0.38268 0.28904 0.06362
 C1156 C 0.37170 0.29999 0.04916
 C1157 C 0.37912 0.31858 0.04174
 C1158 C 0.39768 0.32600 0.04921
 C1159 C 0.41265 0.28496 0.08544
 C1160 C 0.42230 0.27516 0.09750
 C1161 C 0.43364 0.26353 0.11144
 C1162 C 0.44338 0.25346 0.12318
 C1163 C 0.45508 0.24126 0.13699
 C1164 C 0.46923 0.22739 0.12941
 C1165 C 0.48053 0.21541 0.14273
 C1166 C 0.47791 0.21728 0.16383
 C1167 C 0.46357 0.23110 0.17135
 C1168 C 0.45225 0.24307 0.15799
 H1169 H 0.42295 0.32090 0.06917
 H1170 H 0.37678 0.27470 0.06907
 H1171 H 0.35748 0.29385 0.04373
 H1172 H 0.40381 0.34024 0.04382
 H1173 H 0.47148 0.22578 0.11319
 H1174 H 0.49126 0.20460 0.13660
 H1175 H 0.46128 0.23272 0.18756
 H1176 H 0.44130 0.25372 0.16402
 C1177 C 0.61683 0.29116 0.93635
 C1178 C 0.59829 0.29845 0.92908
 C1179 C 0.59072 0.31693 0.93625
 C1180 C 0.60158 0.32804 0.95072
 C1181 C 0.62018 0.32077 0.95822
 C1182 C 0.62772 0.30223 0.95081
 C1183 C 0.58691 0.28678 0.91453
 C1184 C 0.57741 0.27681 0.90248
 C1185 C 0.56630 0.26492 0.88854
 C1186 C 0.55685 0.25456 0.87679
 C1187 C 0.54561 0.24196 0.86293
 C1188 C 0.53179 0.25064 0.84934
 C1189 C 0.52072 0.23831 0.83607
 C1190 C 0.52326 0.21716 0.83638
 C1191 C 0.53732 0.20858 0.84989
 C1192 C 0.54839 0.22092 0.86312
 H1193 H 0.62282 0.27686 0.93092
 H1194 H 0.57637 0.32270 0.93074
 H1195 H 0.59536 0.34224 0.95611
 H1196 H 0.64198 0.29620 0.95627
 H1197 H 0.52956 0.26691 0.84902
 H1198 H 0.51016 0.24525 0.82559
 H1199 H 0.53951 0.19232 0.85038
 H1200 H 0.55905 0.21405 0.87357
 C1201 C 0.38446 0.70831 0.93610
 C1202 C 0.40295 0.70094 0.92880
 C1203 C 0.41059 0.68256 0.93614
 C1204 C 0.39981 0.67161 0.95078
 C1205 C 0.38123 0.67894 0.95828
 C1206 C 0.37365 0.69740 0.95073
 C1207 C 0.41418 0.71243 0.91400
 C1208 C 0.42350 0.72229 0.90174
 C1209 C 0.43434 0.73413 0.88756
 C1210 C 0.44355 0.74449 0.87563
 C1211 C 0.45451 0.75717 0.86162
 C1212 C 0.46877 0.74871 0.84836
 C1213 C 0.47970 0.76117 0.83512
 C1214 C 0.47656 0.78225 0.83512
 C1215 C 0.46200 0.79058 0.84825
 C1216 C 0.45108 0.77811 0.86145
 H1217 H 0.37841 0.72253 0.93055
 H1218 H 0.42491 0.67673 0.93062
 H1219 H 0.40606 0.65747 0.95627
 H1220 H 0.35941 0.70348 0.95617
 H1221 H 0.47151 0.73251 0.84833
 H1222 H 0.49068 0.75441 0.82495
 H1223 H 0.45938 0.80679 0.84851
 H1224 H 0.44008 0.78483 0.87165
 C1225 C 0.68558 0.93689 0.41011
 C1226 C 0.70398 0.92963 0.40246
 C1227 C 0.71110 0.93661 0.38371
 C1228 C 0.69994 0.95086 0.37268
 C1229 C 0.68148 0.95835 0.38029
 C1230 C 0.67438 0.95115 0.39911
 C1231 C 0.71570 0.91523 0.41394
 C1232 C 0.72564 0.90328 0.42355
 C1233 C 0.73740 0.88939 0.43481
 C1234 C 0.74755 0.87761 0.44442
 C1235 C 0.75976 0.86364 0.45591
 C1236 C 0.75833 0.84277 0.45228
 C1237 C 0.77025 0.82921 0.46339
 C1238 C 0.78366 0.83641 0.47832
 C1239 C 0.78517 0.85739 0.48175
 C1240 C 0.77323 0.87092 0.47065
 H1241 H 0.67993 0.93161 0.42462
 H1242 H 0.72534 0.93110 0.37765
 H1243 H 0.70584 0.95608 0.35826
 H1244 H 0.66024 0.95661 0.40540
 H1245 H 0.74799 0.83697 0.44088
 H1246 H 0.76891 0.81310 0.46050
 H1247 H 0.79564 0.86327 0.49297
 H1248 H 0.77454 0.88704 0.47351
 C1249 C 0.29092 0.93581 0.61582
 C1250 C 0.29848 0.92857 0.59734
 C1251 C 0.31691 0.93596 0.58988
 C1252 C 0.32770 0.95062 0.60081
 C1253 C 0.32017 0.95808 0.61935
 C1254 C 0.30167 0.95046 0.62677
 C1255 C 0.28713 0.91380 0.58592
 C1256 C 0.27740 0.90157 0.57640
 C1257 C 0.26574 0.88745 0.56530
 C1258 C 0.25551 0.87556 0.55587
 C1259 C 0.24297 0.86161 0.54468
 C1260 C 0.25157 0.84853 0.53031
 C1261 C 0.23925 0.83527 0.51922
 C1262 C 0.21817 0.83509 0.52230
 C1263 C 0.20969 0.84806 0.53693
 C1264 C 0.22203 0.86127 0.54802
 H1265 H 0.27665 0.93021 0.62173
 H1266 H 0.32289 0.93048 0.57558
 H1267 H 0.34188 0.95616 0.59467
 H1268 H 0.29545 0.95587 0.64098
 H1269 H 0.26777 0.84863 0.52763
 H1270 H 0.24611 0.82522 0.50818
 H1271 H 0.19349 0.84817 0.53952
 H1272 H 0.21521 0.87132 0.55909
 C1273 C 0.28856 0.06400 0.38344
 C1274 C 0.29584 0.07104 0.40212
 C1275 C 0.31439 0.06393 0.40956
 C1276 C 0.32556 0.04974 0.39844
 C1277 C 0.31829 0.04247 0.37971
 C1278 C 0.29969 0.04982 0.37230
 C1279 C 0.28415 0.08534 0.41375
 C1280 C 0.27423 0.09721 0.42349
 C1281 C 0.26250 0.11101 0.43489
 C1282 C 0.25238 0.12273 0.44461
 C1283 C 0.24019 0.13666 0.45618
 C1284 C 0.22672 0.12933 0.47087
 C1285 C 0.21474 0.14282 0.48199
 C1286 C 0.21622 0.16381 0.47863
 C1287 C 0.22966 0.17105 0.46377
 C1288 C 0.24162 0.15754 0.45264
 H1289 H 0.27421 0.06939 0.37754
 H1290 H 0.32016 0.06927 0.42401
 H1291 H 0.33981 0.04439 0.40458
 H1292 H 0.29367 0.04453 0.35794
 H1293 H 0.22541 0.11320 0.47367
 H1294 H 0.20424 0.13691 0.49316
 H1295 H 0.23099 0.18717 0.46092
 H1296 H 0.25196 0.16337 0.44127
 C1297 C 0.70931 0.06331 0.61512
 C1298 C 0.70207 0.07048 0.59649
 C1299 C 0.68356 0.06335 0.58892
 C1300 C 0.67240 0.04902 0.59987
 C1301 C 0.67963 0.04161 0.61856
 C1302 C 0.69819 0.04898 0.62609
 C1303 C 0.71380 0.08491 0.58504
 C1304 C 0.72382 0.09687 0.57549
 C1305 C 0.73578 0.11071 0.56437
 C1306 C 0.74619 0.12241 0.55492
 C1307 C 0.75887 0.13621 0.54371
 C1308 C 0.77989 0.13597 0.54660
 C1309 C 0.79229 0.14919 0.53561
 C1310 C 0.78380 0.16273 0.52152
 C1311 C 0.76267 0.16306 0.51886
 C1312 C 0.75028 0.14981 0.52985
 H1313 H 0.72363 0.06871 0.62111
 H1314 H 0.67782 0.06879 0.57451
 H1315 H 0.65818 0.04366 0.59365
 H1316 H 0.70419 0.04360 0.64041
 H1317 H 0.78670 0.12552 0.55729
 H1318 H 0.80854 0.14868 0.53789
 H1319 H 0.75579 0.17357 0.50828
 H1320 H 0.73403 0.15017 0.52754
 C1321 C 0.93591 0.58972 0.31787
 C1322 C 0.92850 0.59739 0.29950
 C1323 C 0.93574 0.61592 0.29214
 C1324 C 0.95038 0.62673 0.30304
 C1325 C 0.95802 0.61911 0.32147
 C1326 C 0.95056 0.60050 0.32881
 C1327 C 0.91374 0.58612 0.28799
 C1328 C 0.90153 0.57674 0.27811
 C1329 C 0.88743 0.56581 0.26626
 C1330 C 0.87556 0.55653 0.25587
 C1331 C 0.86165 0.54550 0.24314
 C1332 C 0.86147 0.54895 0.22217
 C1333 C 0.84833 0.53797 0.20966
 C1334 C 0.83529 0.52333 0.21798
 C1335 C 0.83530 0.52016 0.23909
 C1336 C 0.84848 0.53114 0.25159
 H1337 H 0.93043 0.57537 0.32370
 H1338 H 0.93013 0.62199 0.27792
 H1339 H 0.95579 0.64099 0.29696
 H1340 H 0.95612 0.59422 0.34293
 H1341 H 0.87160 0.56002 0.21547
 H1342 H 0.84858 0.54063 0.19344
 H1343 H 0.82519 0.50912 0.24584
 H1344 H 0.84846 0.52838 0.26781
 C1345 C 0.93592 0.38381 0.71038
 C1346 C 0.92873 0.40235 0.70300
 C1347 C 0.93593 0.40985 0.68448
 C1348 C 0.95035 0.39891 0.67342
 C1349 C 0.95776 0.38030 0.68077
 C1350 C 0.95033 0.37284 0.69936
 C1351 C 0.91421 0.41379 0.71461
 C1352 C 0.90219 0.42338 0.72450
 C1353 C 0.88829 0.43463 0.73627
 C1354 C 0.87659 0.44428 0.74647
 C1355 C 0.86282 0.45588 0.75884
 C1356 C 0.84186 0.45303 0.75704
 C1357 C 0.82855 0.46428 0.76913
 C1358 C 0.83608 0.47856 0.78305
 C1359 C 0.85714 0.48118 0.78493
 C1360 C 0.87042 0.46995 0.77283
 H1361 H 0.93046 0.37787 0.72471
 H1362 H 0.93049 0.42420 0.67864
 H1363 H 0.95575 0.40507 0.65918
 H1364 H 0.95571 0.35858 0.70545
 H1365 H 0.83582 0.44214 0.74630
 H1366 H 0.81237 0.46200 0.76751
 H1367 H 0.86327 0.49186 0.79581
 H1368 H 0.88661 0.47220 0.77442
 C1369 C 0.06342 0.59056 0.68489
 C1370 C 0.07057 0.59797 0.70348
 C1371 C 0.06356 0.61660 0.71082
 C1372 C 0.04937 0.62774 0.69969
 C1373 C 0.04197 0.62036 0.68104
 C1374 C 0.04922 0.60167 0.67373
 C1375 C 0.08488 0.58636 0.71518
 C1376 C 0.09677 0.57665 0.72512
 C1377 C 0.11057 0.56530 0.73690
 C1378 C 0.12229 0.55564 0.74707
 C1379 C 0.13621 0.54412 0.75932
 C1380 C 0.15710 0.54759 0.75782
 C1381 C 0.17060 0.53649 0.76982
 C1382 C 0.16335 0.52173 0.78337
 C1383 C 0.14236 0.51845 0.78493
 C1384 C 0.12888 0.52954 0.77291
 H1385 H 0.06874 0.57614 0.67907
 H1386 H 0.06898 0.62248 0.72519
 H1387 H 0.04410 0.64206 0.70576
 H1388 H 0.04384 0.59556 0.65944
 H1389 H 0.16293 0.55887 0.74739
 H1390 H 0.18672 0.53927 0.76843
 H1391 H 0.13644 0.50737 0.79550
 H1392 H 0.11275 0.52680 0.77427
 C1393 C 0.06368 0.40938 0.31564
 C1394 C 0.07102 0.40179 0.29720
 C1395 C 0.06392 0.38318 0.28987
 C1396 C 0.04947 0.37223 0.30085
 C1397 C 0.04189 0.37978 0.31934
 C1398 C 0.04922 0.39845 0.32666
 C1399 C 0.08557 0.41324 0.28561
 C1400 C 0.09760 0.42282 0.27572
 C1401 C 0.11152 0.43406 0.26395
 C1402 C 0.12324 0.44369 0.25375
 C1403 C 0.13705 0.45524 0.24138
 C1404 C 0.15799 0.45230 0.24312
 C1405 C 0.17135 0.46349 0.23101
 C1406 C 0.16387 0.47780 0.21712
 C1407 C 0.14282 0.48052 0.21531
 C1408 C 0.12950 0.46935 0.22743
 H1409 H 0.06905 0.42379 0.32144
 H1410 H 0.06948 0.37717 0.27560
 H1411 H 0.04415 0.35791 0.29479
 H1412 H 0.04370 0.40469 0.34082
 H1413 H 0.16399 0.44138 0.25383
 H1414 H 0.18751 0.46113 0.23258
 H1415 H 0.13673 0.49123 0.20445
 H1416 H 0.11332 0.47168 0.22588
   
