data_POSCAR
  _audit_creation_date              2014-09-24
  _audit_creation_method            'ToBaCCo'
  _symmetry_space_group_name_H-M    'P1'
  _symmetry_Int_Tables_number       1
  _symmetry_cell_setting            triclinic
  loop_
  _symmetry_equiv_pos_as_xyz
 x,y,z
_cell_length_a 66.0814
_cell_length_b 64.0563
_cell_length_c 68.4561
_cell_angle_alpha 89.592800
_cell_angle_beta 89.513100
_cell_angle_gamma 90.740700
loop_
  _atom_site_label
  _atom_site_type_symbol
  _atom_site_fract_x
  _atom_site_fract_y
  _atom_site_fract_z
C1 C 0.39766 0.00344 0.25407
 C2 C 0.10292 -0.00372 0.74804
 C3 C 0.60156 0.49718 0.24722
 C4 C 0.89610 0.50130 0.75482
 C5 C 0.24954 0.36488 1.00026
 C6 C 0.75006 0.14402 0.99532
 C7 C 0.24321 0.63893 0.50205
 C8 C 0.74981 0.85870 0.50193
 C9 C 0.00029 0.24519 0.36154
 C10 C -0.00060 0.74947 0.13380
 C11 C 0.50224 0.24536 0.63504
 C12 C 0.50625 0.75289 0.86421
 C13 C -0.24883 0.64455 1.00114
 C14 C -0.26012 0.35624 0.49140
 C15 C 0.24659 -0.13974 -0.00072
 C16 C 0.25273 1.13889 0.49995
 C17 C 0.10034 0.50154 0.25157
 C18 C -0.10213 1.00110 0.24895
 C19 C 0.39926 0.50053 -0.25158
 C20 C 0.60238 0.00066 -0.24914
 C21 C -0.00339 0.25860 0.87172
 C22 C 0.49739 0.25902 0.13379
 C23 C 0.00084 0.74847 0.63493
 C24 C 0.50279 0.75515 0.37584
 Zr25 Zr 0.01647 -0.01344 1.02301
 O26 O 0.03699 -0.00313 1.04460
 O27 O 0.01354 -0.04524 1.02974
 O28 O 0.00378 -0.01565 1.05151
 O29 O 0.05273 -0.01771 0.98655
 O30 O -0.02775 -0.00209 1.04785
 O31 O 0.04605 -0.02531 1.01855
 O32 O -0.00996 -0.05712 1.00811
 O33 O -0.01427 -0.01972 1.01797
 O34 O 0.01447 -0.02645 0.99515
 O35 O 0.00179 0.01539 1.02562
 O36 O 0.02991 0.00889 1.00396
 Zr37 Zr -0.01874 0.01862 0.97197
 Zr38 Zr -0.02858 0.00915 1.01906
 Zr39 Zr 0.02628 -0.00388 0.97608
 Zr40 Zr -0.01608 -0.03155 0.98974
 O41 O 0.05178 0.01499 0.96869
 O42 O -0.04412 -0.04366 1.00040
 O43 O -0.00403 -0.01027 0.96910
 O44 O -0.03191 -0.00355 0.99116
 O45 O -0.01698 0.03182 0.99984
 O46 O 0.01190 0.02485 0.97729
 C47 C 0.00199 -0.05956 1.02267
 C48 C 0.05764 -0.02540 1.00323
 C49 C -0.01387 -0.01068 1.05807
 O50 O -0.05544 -0.00832 1.02457
 O51 O -0.05335 0.02652 1.00942
 O52 O -0.04775 0.03166 0.97679
 C53 C -0.05840 0.03368 0.99258
 O54 O 0.03603 0.04075 1.02716
 Zr55 Zr 0.01365 0.03688 1.00532
 O56 O -0.01690 0.05058 0.96594
 O57 O -0.03348 0.03410 1.03857
 O58 O 0.00224 0.05836 1.02598
 O59 O 0.03968 0.05164 0.99288
 O60 O 0.00344 0.06329 0.98995
 C61 C -0.00813 0.06558 0.97507
 O62 O -0.03973 0.00833 0.95081
 O63 O 0.03256 -0.03014 0.95855
 O64 O -0.00639 0.01992 0.94319
 O65 O 0.02415 0.00412 0.94653
 O66 O -0.00406 -0.05534 0.97181
 O67 O -0.03490 -0.03609 0.96506
 C68 C 0.01069 0.01342 0.93636
 H69 H 0.02192 -0.03968 0.99391
 H70 H -0.04633 -0.00607 0.98799
 H71 H 0.01799 0.03486 0.96778
 H72 H 0.00330 0.02110 1.03894
 H73 H -0.04464 -0.05874 0.99728
 H74 H -0.06315 -0.00069 1.03467
 H75 H -0.04672 0.03140 1.04507
 H76 H 0.00938 0.07188 1.02374
 H77 H -0.01208 -0.06825 0.97444
 H78 H 0.04572 -0.02731 0.95193
 H79 H 0.05967 0.00726 0.95879
 H80 H 0.03932 0.06657 0.99658
 H81 H -0.04049 -0.05051 0.96529
 H82 H -0.04342 0.02071 0.94288
 H83 H 0.04065 -0.01552 1.05254
 H84 H 0.03924 0.05579 1.02866
 Zr85 Zr 0.51038 0.48329 0.51903
 O86 O 0.53196 0.49711 0.53779
 O87 O 0.50865 0.45275 0.52973
 O88 O 0.49944 0.48330 0.54829
 O89 O 0.54427 0.47551 0.48095
 O90 O 0.46781 0.49670 0.54527
 O91 O 0.53967 0.47111 0.51381
 O92 O 0.48492 0.43712 0.51043
 O93 O 0.47948 0.47606 0.51693
 O94 O 0.50655 0.46662 0.49312
 O95 O 0.49554 0.51214 0.51943
 O96 O 0.52193 0.50298 0.49659
 Zr97 Zr 0.47072 0.50805 0.46764
 Zr98 Zr 0.46486 0.50477 0.51581
 Zr99 Zr 0.51638 0.48651 0.47075
 Zr100 Zr 0.47573 0.46044 0.49062
 O101 O 0.54022 0.50474 0.45838
 O102 O 0.44940 0.44935 0.50549
 O103 O 0.48562 0.47907 0.46697
 O104 O 0.45953 0.48836 0.49002
 O105 O 0.47451 0.52494 0.49344
 O106 O 0.50167 0.51506 0.46977
 C107 C 0.49766 0.43710 0.52456
 C108 C 0.55037 0.46981 0.49797
 C109 C 0.48207 0.48861 0.55535
 O110 O 0.43845 0.48824 0.52494
 O111 O 0.43929 0.52082 0.50629
 O112 O 0.44223 0.52208 0.47310
 C113 C 0.43288 0.52608 0.48929
 O114 O 0.52914 0.53812 0.51563
 Zr115 Zr 0.50543 0.53085 0.49593
 O116 O 0.47204 0.53869 0.45713
 O117 O 0.46141 0.53184 0.53301
 O118 O 0.49493 0.55494 0.51438
 O119 O 0.53051 0.54383 0.48034
 O120 O 0.49409 0.55475 0.47784
 C121 C 0.48164 0.55479 0.46345
 O122 O 0.44803 0.49463 0.44985
 O123 O 0.52259 0.45790 0.45676
 O124 O 0.48060 0.50583 0.43826
 O125 O 0.51067 0.48880 0.44072
 O126 O 0.48647 0.43516 0.47378
 O127 O 0.45433 0.45231 0.46887
 C128 C 0.49638 0.49716 0.43085
 H129 H 0.51424 0.45346 0.49282
 H130 H 0.44492 0.48537 0.48826
 H131 H 0.50687 0.52361 0.45867
 H132 H 0.49796 0.51945 0.53191
 H133 H 0.44904 0.43395 0.50430
 H134 H 0.43154 0.49704 0.53473
 H135 H 0.44870 0.52994 0.54065
 H136 H 0.50151 0.56815 0.50995
 H137 H 0.47935 0.42234 0.47850
 H138 H 0.53497 0.46018 0.44870
 H139 H 0.54733 0.49571 0.44893
 H140 H 0.53023 0.55916 0.48214
 H141 H 0.44917 0.43794 0.47136
 H142 H 0.44347 0.50574 0.44080
 H143 H 0.53659 0.48596 0.54676
 H144 H 0.53200 0.55333 0.51522
 Zr145 Zr 0.48154 1.01149 0.52886
 O146 O 0.46231 1.00165 0.55214
 O147 O 0.48295 1.04376 0.53305
 O148 O 0.49528 1.01568 0.55654
 O149 O 0.44333 1.01179 0.49458
 O150 O 0.52683 1.00243 0.55214
 O151 O 0.45157 1.02233 0.52529
 O152 O 0.50462 1.05542 0.50908
 O153 O 0.51172 1.01896 0.52165
 O154 O 0.48166 1.02260 0.50006
 O155 O 0.49759 0.98357 0.53235
 O156 O 0.46817 0.98740 0.51221
 Zr157 Zr 0.51579 0.97782 0.47799
 Zr158 Zr 0.52733 0.99085 0.52364
 Zr159 Zr 0.46989 0.99839 0.48334
 Zr160 Zr 0.51164 1.02887 0.49253
 O161 O 0.44519 0.97768 0.47888
 O162 O 0.53938 1.04299 0.50101
 O163 O 0.49960 1.00574 0.47420
 O164 O 0.52879 1.00179 0.49479
 O165 O 0.51587 0.96654 0.50676
 O166 O 0.48571 0.97046 0.48541
 C167 C 0.49302 1.05820 0.52400
 C168 C 0.43917 1.02087 0.51084
 C169 C 0.51306 1.01088 0.56273
 O170 O 0.55306 1.01045 0.52702
 O171 O 0.55290 0.97505 0.51330
 O172 O 0.54543 0.96610 0.48198
 C173 C 0.55730 0.96643 0.49690
 O174 O 0.46406 0.95716 0.53727
 Zr175 Zr 0.48576 0.96034 0.51431
 O176 O 0.51554 0.94540 0.47455
 O177 O 0.53473 0.96681 0.54361
 O178 O 0.49811 0.94085 0.53625
 O179 O 0.46047 0.94324 0.50377
 O180 O 0.49767 0.93354 0.50110
 C181 C 0.50881 0.93072 0.48585
 O182 O 0.53552 0.98753 0.45505
 O183 O 0.46121 1.02305 0.46456
 O184 O 0.50240 0.97478 0.44997
 O185 O 0.47124 0.98913 0.45413
 O186 O 0.49791 1.05062 0.47344
 O187 O 0.52934 1.03268 0.46665
 C188 C 0.48489 0.98037 0.44364
 H189 H 0.47358 1.03536 0.49826
 H190 H 0.54291 1.00481 0.49058
 H191 H 0.47986 0.95958 0.47686
 H192 H 0.49688 0.97852 0.54604
 H193 H 0.53902 1.05786 0.49694
 H194 H 0.56169 1.00373 0.53695
 H195 H 0.54802 0.97060 0.54929
 H196 H 0.49130 0.92701 0.53537
 H197 H 0.50540 1.06405 0.47462
 H198 H 0.44790 1.01908 0.45904
 H199 H 0.43645 0.98430 0.46898
 H200 H 0.46183 0.92865 0.50843
 H201 H 0.53451 1.04723 0.46577
 H202 H 0.53936 0.97482 0.44775
 H203 H 0.45846 1.01432 0.55948
 H204 H 0.46083 0.94219 0.53948
 Zr205 Zr -0.01764 0.52199 1.02733
 O206 O -0.03716 0.51348 1.05083
 O207 O -0.01565 0.55444 1.03047
 O208 O -0.00406 0.52666 1.05503
 O209 O -0.05559 0.52169 0.99273
 O210 O 0.02738 0.51294 1.05114
 O211 O -0.04751 0.53288 1.02327
 O212 O 0.00570 0.56488 1.00585
 O213 O 0.01273 0.52855 1.02018
 O214 O -0.01710 0.53210 0.99819
 O215 O -0.00225 0.49381 1.03176
 O216 O -0.03134 0.49767 1.01119
 Zr217 Zr 0.01634 0.48585 0.97789
 Zr218 Zr 0.02771 0.50012 1.02314
 Zr219 Zr -0.02916 0.50764 0.98199
 Zr220 Zr 0.01307 0.53748 0.99079
 O221 O -0.05423 0.48736 0.97766
 O222 O 0.04070 0.55153 0.99966
 O223 O 0.00080 0.51398 0.97306
 O224 O 0.02966 0.51011 0.99404
 O225 O 0.01592 0.47537 1.00691
 O226 O -0.01399 0.47951 0.98512
 C227 C -0.00581 0.56849 1.02065
 C228 C -0.05982 0.53111 1.00880
 C229 C 0.01369 0.52193 1.06138
 O230 O 0.05386 0.51921 1.02610
 O231 O 0.05313 0.48358 1.01357
 O232 O 0.04542 0.47314 0.98273
 C233 C 0.05732 0.47405 0.99759
 O234 O -0.03562 0.46805 1.03778
 Zr235 Zr -0.01444 0.47027 1.01429
 O236 O 0.01434 0.45345 0.97466
 O237 O 0.03436 0.47670 1.04399
 O238 O -0.00170 0.45085 1.03606
 O239 O -0.04083 0.45427 1.00479
 O240 O -0.00475 0.44269 1.00081
 C241 C 0.00603 0.43921 0.98548
 O242 O 0.03705 0.49398 0.95522
 O243 O -0.03706 0.53199 0.96255
 O244 O 0.00367 0.48316 0.94965
 O245 O -0.02766 0.49742 0.95297
 O246 O 0.00022 0.55851 0.97044
 O247 O 0.03151 0.54003 0.96527
 C248 C -0.01366 0.48867 0.94290
 H249 H -0.02499 0.54490 0.99592
 H250 H 0.04387 0.51266 0.98989
 H251 H -0.02016 0.46865 0.97676
 H252 H -0.00314 0.48922 1.04558
 H253 H 0.04065 0.56626 0.99513
 H254 H 0.06224 0.51272 1.03637
 H255 H 0.04770 0.48036 1.04963
 H256 H -0.00874 0.43712 1.03553
 H257 H 0.00792 0.57186 0.97119
 H258 H -0.05042 0.52820 0.95703
 H259 H -0.06268 0.49390 0.96748
 H260 H -0.04017 0.43975 1.00983
 H261 H 0.03717 0.55438 0.96421
 H262 H 0.04043 0.48093 0.94825
 H263 H -0.04081 0.52652 1.05770
 H264 H -0.03860 0.45316 1.04073
 Zr265 Zr -0.02462 0.47977 0.47521
 O266 O -0.04505 0.49127 0.45418
 O267 O -0.02183 0.44858 0.46672
 O268 O -0.01173 0.47966 0.44662
 O269 O -0.06053 0.47126 0.51167
 O270 O 0.01889 0.49574 0.45081
 O271 O -0.05421 0.46701 0.47915
 O272 O 0.00223 0.43596 0.48719
 O273 O 0.00630 0.47468 0.47942
 O274 O -0.02194 0.46434 0.50210
 O275 O -0.01079 0.50955 0.47445
 O276 O -0.03816 0.49948 0.49607
 Zr277 Zr 0.01076 0.50899 0.52775
 Zr278 Zr 0.01980 0.50436 0.48017
 Zr279 Zr -0.03378 0.48436 0.52297
 Zr280 Zr 0.00883 0.46034 0.50667
 O281 O -0.05901 0.50135 0.53306
 O282 O 0.03661 0.45058 0.49421
 O283 O -0.00314 0.47910 0.52884
 O284 O 0.02396 0.48925 0.50697
 O285 O 0.00811 0.52471 0.50100
 O286 O -0.02018 0.51386 0.52352
 C287 C -0.01015 0.43408 0.47288
 C288 C -0.06573 0.46536 0.49446
 C289 C 0.00567 0.48636 0.44026
 O290 O 0.04696 0.48893 0.47292
 O291 O 0.04461 0.52153 0.49055
 O292 O 0.03920 0.52435 0.52333
 C293 C 0.04980 0.52774 0.50763
 O294 O -0.04523 0.53344 0.47491
 Zr295 Zr -0.02278 0.52842 0.49643
 O296 O 0.00750 0.53993 0.53664
 O297 O 0.02366 0.53138 0.46249
 O298 O -0.01186 0.55260 0.47766
 O299 O -0.04943 0.53996 0.50980
 O300 O -0.01391 0.55369 0.51413
 C301 C -0.00243 0.55511 0.52918
 O302 O 0.03280 0.49813 0.54752
 O303 O -0.03978 0.45585 0.53789
 O304 O -0.00064 0.50640 0.55668
 O305 O -0.03024 0.48811 0.55319
 O306 O -0.00222 0.43479 0.52371
 O307 O 0.02878 0.45438 0.53020
 C308 C -0.01663 0.49713 0.56364
 H309 H -0.02926 0.45076 0.50256
 H310 H 0.03849 0.48719 0.50971
 H311 H -0.02637 0.52236 0.53395
 H312 H -0.01262 0.51632 0.46154
 H313 H 0.03747 0.43527 0.49618
 H314 H 0.05430 0.49789 0.46327
 H315 H 0.03683 0.53005 0.45562
 H316 H -0.01926 0.56546 0.48101
 H317 H 0.00572 0.42238 0.52002
 H318 H -0.05277 0.45750 0.54502
 H319 H -0.06639 0.49218 0.54249
 H320 H -0.04971 0.55522 0.50733
 H321 H 0.03452 0.44026 0.52879
 H322 H 0.03620 0.50989 0.55632
 H323 H -0.04873 0.47941 0.44560
 H324 H -0.04868 0.54843 0.47449
 Zr325 Zr 0.47971 -0.01037 -0.02479
 O326 O 0.45769 0.00041 -0.04461
 O327 O 0.48385 -0.04104 -0.03430
 O328 O 0.49125 -0.00838 -0.05391
 O329 O 0.44615 -0.02258 0.01295
 O330 O 0.52089 0.00971 -0.05042
 O331 O 0.45097 -0.02495 -0.02002
 O332 O 0.50904 -0.05302 -0.01480
 O333 O 0.51104 -0.01396 -0.02186
 O334 O 0.48426 -0.02631 0.00159
 O335 O 0.49207 0.02009 -0.02516
 O336 O 0.46607 0.00801 -0.00292
 Zr337 Zr 0.51576 0.01924 0.02734
 Zr338 Zr 0.52310 0.01634 -0.02069
 Zr339 Zr 0.47229 -0.00755 0.02339
 Zr340 Zr 0.51533 -0.02884 0.00496
 O341 O 0.44633 0.00767 0.03426
 O342 O 0.54302 -0.03681 -0.00881
 O343 O 0.50337 -0.01136 0.02809
 O344 O 0.52901 0.00075 0.00554
 O345 O 0.51133 0.03547 0.00109
 O346 O 0.48446 0.02260 0.02426
 C347 C 0.49629 -0.05514 -0.02877
 C348 C 0.44053 -0.02823 -0.00420
 C349 C 0.50761 0.00028 -0.06086
 O350 O 0.55021 0.00207 -0.02999
 O351 O 0.54799 0.03361 -0.01066
 O352 O 0.54377 0.03534 0.02235
 C353 C 0.55380 0.03926 0.00639
 O354 O 0.45635 0.04190 -0.02268
 Zr355 Zr 0.48008 0.03767 -0.00231
 O356 O 0.51178 0.04995 0.03671
 O357 O 0.52537 0.04448 -0.03699
 O358 O 0.48881 0.06278 -0.02103
 O359 O 0.45362 0.04760 0.01251
 O360 O 0.48874 0.06297 0.01536
 C361 C 0.50093 0.06475 0.02984
 O362 O 0.53861 0.00879 0.04643
 O363 O 0.46869 -0.03650 0.03822
 O364 O 0.50514 0.01593 0.05658
 O365 O 0.47640 -0.00386 0.05350
 O366 O 0.50619 -0.05530 0.02179
 O367 O 0.53656 -0.03446 0.02749
 C368 C 0.48969 0.00586 0.06375
 H369 H 0.47771 -0.04029 0.00199
 H370 H 0.54371 -0.00078 0.00767
 H371 H 0.47825 0.03060 0.03503
 H372 H 0.48936 0.02723 -0.03772
 H373 H 0.54466 -0.05209 -0.00734
 H374 H 0.55682 0.01173 -0.03953
 H375 H 0.53824 0.04401 -0.04451
 H376 H 0.48088 0.07513 -0.01712
 H377 H 0.51450 -0.06721 0.01748
 H378 H 0.45589 -0.03582 0.04583
 H379 H 0.43981 -0.00200 0.04383
 H380 H 0.45254 0.06286 0.01039
 H381 H 0.54286 -0.04822 0.02548
 H382 H 0.54190 0.02053 0.05529
 H383 H 0.45433 -0.01139 -0.05338
 H384 H 0.45206 0.05665 -0.02256
 Zr385 Zr 0.52096 0.51604 -0.02935
 O386 O 0.54112 0.50198 -0.04938
 O387 O 0.52167 0.54719 -0.03870
 O388 O 0.50950 0.51666 -0.05824
 O389 O 0.55636 0.52048 0.00738
 O390 O 0.47736 0.50370 -0.05450
 O391 O 0.55123 0.52651 -0.02506
 O392 O 0.50051 0.56341 -0.01726
 O393 O 0.49080 0.52518 -0.02573
 O394 O 0.51931 0.53156 -0.00262
 O395 O 0.50368 0.48821 -0.02981
 O396 O 0.53152 0.49462 -0.00823
 Zr397 Zr 0.48098 0.49148 0.02313
 Zr398 Zr 0.47381 0.49737 -0.02465
 Zr399 Zr 0.52817 0.51012 0.01845
 Zr400 Zr 0.48926 0.53962 0.00147
 O401 O 0.55085 0.48976 0.02852
 O402 O 0.46384 0.55308 -0.01221
 O403 O 0.49832 0.51938 0.02395
 O404 O 0.47079 0.51283 0.00200
 O405 O 0.48245 0.47572 -0.00349
 O406 O 0.51110 0.48252 0.01935
 C407 C 0.51290 0.56340 -0.03187
 C408 C 0.56236 0.52685 -0.00961
 C409 C 0.49221 0.51064 -0.06500
 O410 O 0.44982 0.51687 -0.03323
 O411 O 0.44642 0.48445 -0.01413
 O412 O 0.45136 0.47939 0.01849
 C413 C 0.44054 0.47813 0.00290
 O414 O 0.53560 0.46032 -0.02824
 Zr415 Zr 0.51268 0.46788 -0.00760
 O416 O 0.47939 0.46018 0.03193
 O417 O 0.46644 0.47045 -0.04100
 O418 O 0.50052 0.44535 -0.02696
 O419 O 0.53643 0.45243 0.00703
 O420 O 0.49878 0.44386 0.00913
 C421 C 0.48656 0.44376 0.02389
 O422 O 0.46002 0.50535 0.04249
 O423 O 0.53732 0.53738 0.03352
 O424 O 0.49191 0.49225 0.05219
 O425 O 0.52341 0.50688 0.04858
 O426 O 0.50233 0.56315 0.01920
 O427 O 0.46894 0.54817 0.02420
 C428 C 0.50867 0.49962 0.05906
 H429 H 0.52807 0.54418 -0.00203
 H430 H 0.45658 0.51678 0.00455
 H431 H 0.51571 0.47313 0.02992
 H432 H 0.50518 0.48102 -0.04248
 H433 H 0.46493 0.56840 -0.01054
 H434 H 0.44161 0.50885 -0.04270
 H435 H 0.45386 0.47352 -0.04821
 H436 H 0.50626 0.43164 -0.02338
 H437 H 0.49625 0.57663 0.01540
 H438 H 0.54981 0.53393 0.04072
 H439 H 0.55905 0.49775 0.03801
 H440 H 0.53463 0.43727 0.00470
 H441 H 0.46478 0.56282 0.02224
 H442 H 0.45482 0.49411 0.05130
 H443 H 0.54637 0.51322 -0.05817
 H444 H 0.53782 0.44506 -0.02804
 Zr445 Zr 0.02253 1.00891 0.47027
 O446 O 0.04304 0.99501 0.45047
 O447 O 0.02215 1.03977 0.46008
 O448 O 0.01089 1.00835 0.44145
 O449 O 0.05797 1.01553 0.50673
 O450 O -0.02071 0.99412 0.44556
 O451 O 0.05251 1.02040 0.47416
 O452 O 0.00048 1.05583 0.48115
 O453 O -0.00792 1.01702 0.47377
 O454 O 0.02047 1.02518 0.49658
 O455 O 0.00623 0.98046 0.47057
 O456 O 0.03386 0.98856 0.49191
 Zr457 Zr -0.01650 0.98450 0.52352
 Zr458 Zr -0.02393 0.98864 0.47560
 Zr459 Zr 0.03009 1.00471 0.51819
 Zr460 Zr -0.00984 1.03224 0.50057
 O461 O 0.05350 0.98557 0.52877
 O462 O -0.03578 1.04437 0.48670
 O463 O -0.00008 1.01303 0.52355
 O464 O -0.02739 1.00482 0.50183
 O465 O -0.01455 0.96797 0.49732
 O466 O 0.01393 0.97657 0.51982
 C467 C 0.01280 1.05583 0.46648
 C468 C 0.06374 1.02143 0.48951
 C469 C -0.00618 1.00147 0.43487
 O470 O -0.04862 1.00696 0.46659
 O471 O -0.05078 0.97500 0.48660
 O472 O -0.04600 0.97176 0.51941
 C473 C -0.05671 0.96943 0.50384
 O474 O 0.03897 0.95378 0.47267
 Zr475 Zr 0.01596 0.96119 0.49327
 O476 O -0.01701 0.95339 0.53306
 O477 O -0.03043 0.96099 0.45998
 O478 O 0.00430 0.93765 0.47469
 O479 O 0.04046 0.94718 0.50803
 O480 O 0.00328 0.93724 0.51088
 C481 C -0.00895 0.93708 0.52562
 O482 O -0.03768 0.99823 0.54274
 O483 O 0.03824 1.03278 0.53245
 O484 O -0.00540 0.98637 0.55247
 O485 O 0.02559 1.00203 0.54842
 O486 O 0.00253 1.05674 0.51761
 O487 O -0.03038 1.04071 0.52314
 C488 C 0.01117 0.99442 0.55912
 H489 H 0.02884 1.03810 0.49678
 H490 H -0.04172 1.00837 0.50430
 H491 H 0.01893 0.96766 0.53058
 H492 H 0.00794 0.97296 0.45809
 H493 H -0.03520 1.05977 0.48799
 H494 H -0.05661 0.99832 0.45742
 H495 H -0.04316 0.96336 0.45279
 H496 H 0.01051 0.92426 0.47859
 H497 H -0.00400 1.06988 0.51347
 H498 H 0.05089 1.03006 0.53968
 H499 H 0.06146 0.99417 0.53799
 H500 H 0.03924 0.93190 0.50610
 H501 H -0.03496 1.05518 0.52088
 H502 H -0.04247 0.98710 0.55188
 H503 H 0.04786 1.00617 0.44138
 H504 H 0.04155 0.93859 0.47313
 Zr505 Zr 0.74042 0.27005 0.21652
 O506 O 0.75409 0.29423 0.19957
 O507 O 0.71271 0.26599 0.20251
 O508 O 0.74624 0.25984 0.18763
 O509 O 0.72337 0.30224 0.25326
 O510 O 0.76441 0.23017 0.19202
 O511 O 0.72515 0.29872 0.22014
 O512 O 0.69870 0.23768 0.21817
 O513 O 0.73698 0.23751 0.21737
 O514 O 0.72086 0.26311 0.23993
 O515 O 0.76978 0.25835 0.21995
 O516 O 0.75421 0.28316 0.24138
 Zr517 Zr 0.76060 0.23029 0.27063
 Zr518 Zr 0.76594 0.22597 0.22237
 Zr519 Zr 0.73509 0.27448 0.26475
 Zr520 Zr 0.71836 0.23077 0.24137
 O521 O 0.74736 0.30062 0.27949
 O522 O 0.71343 0.20281 0.22559
 O523 O 0.73105 0.24202 0.26739
 O524 O 0.74678 0.21760 0.24571
 O525 O 0.78042 0.23715 0.24731
 O526 O 0.76391 0.26282 0.26946
 C527 C 0.69868 0.25215 0.20501
 C528 C 0.72037 0.30884 0.23573
 C529 C 0.75601 0.24395 0.18114
 O530 O 0.75427 0.19825 0.20986
 O531 O 0.78111 0.20018 0.23385
 O532 O 0.77733 0.20241 0.26688
 C533 C 0.78382 0.19327 0.25129
 O534 O 0.79009 0.29534 0.22707
 Zr535 Zr 0.78263 0.26963 0.24569
 O536 O 0.78838 0.23442 0.28462
 O537 O 0.79555 0.22567 0.21034
 O538 O 0.80996 0.26225 0.23097
 O539 O 0.78911 0.29650 0.26257
 O540 O 0.80358 0.26073 0.26709
 C541 C 0.80324 0.24700 0.28092
 O542 O 0.74758 0.20517 0.28682
 O543 O 0.70479 0.27658 0.27474
 O544 O 0.75287 0.23939 0.29951
 O545 O 0.73357 0.26826 0.29483
 O546 O 0.69003 0.23827 0.25412
 O547 O 0.70953 0.20728 0.26193
 C548 C 0.74184 0.25449 0.30583
 H549 H 0.70739 0.26950 0.23853
 H550 H 0.74518 0.20225 0.24694
 H551 H 0.76968 0.26876 0.28153
 H552 H 0.77855 0.26225 0.20867
 H553 H 0.69860 0.20058 0.22465
 H554 H 0.76518 0.19243 0.20159
 H555 H 0.79652 0.21290 0.20232
 H556 H 0.82100 0.27038 0.23716
 H557 H 0.67956 0.22963 0.24762
 H558 H 0.70401 0.28933 0.28281
 H559 H 0.73628 0.30652 0.28750
 H560 H 0.80403 0.29823 0.26297
 H561 H 0.69671 0.20060 0.25772
 H562 H 0.75732 0.20150 0.29721
 H563 H 0.74431 0.29803 0.18926
 H564 H 0.80421 0.29994 0.22949
 Zr565 Zr 0.77505 0.74021 0.72761
 O566 O 0.77089 0.72051 0.70321
 O567 O 0.80628 0.74607 0.72605
 O568 O 0.77975 0.75581 0.70040
 O569 O 0.77798 0.70057 0.76236
 O570 O 0.76209 0.78594 0.70383
 O571 O 0.78786 0.71025 0.73150
 O572 O 0.81232 0.76876 0.75093
 O573 O 0.77728 0.77178 0.73535
 O574 O 0.78311 0.74099 0.75711
 O575 O 0.74634 0.75269 0.72220
 O576 O 0.75249 0.72270 0.74273
 Zr577 Zr 0.73316 0.76876 0.77600
 Zr578 Zr 0.74827 0.78376 0.73144
 Zr579 Zr 0.76010 0.72525 0.77232
 Zr580 Zr 0.78416 0.77220 0.76506
 O581 O 0.74363 0.69686 0.77541
 O582 O 0.79470 0.80253 0.75713
 O583 O 0.76195 0.75630 0.78179
 O584 O 0.75593 0.78582 0.76095
 O585 O 0.72498 0.76807 0.74652
 O586 O 0.73126 0.73728 0.76814
 C587 C 0.81805 0.75767 0.73635
 C588 C 0.78749 0.69748 0.74619
 C589 C 0.77333 0.77354 0.69396
 O590 O 0.76382 0.81278 0.72922
 O591 O 0.72925 0.80776 0.74093
 O592 O 0.71862 0.79771 0.77139
 C593 C 0.71912 0.81061 0.75680
 O594 O 0.72655 0.71543 0.71497
 Zr595 Zr 0.72426 0.73663 0.73860
 O596 O 0.70170 0.76403 0.77651
 O597 O 0.72576 0.78850 0.71012
 O598 O 0.70529 0.74781 0.71608
 O599 O 0.71163 0.70735 0.74724
 O600 O 0.69561 0.74247 0.75070
 C601 C 0.68991 0.75379 0.76507
 O602 O 0.73726 0.78935 0.79975
 O603 O 0.78326 0.71979 0.79285
 O604 O 0.72936 0.75381 0.80369
 O605 O 0.74832 0.72445 0.80080
 O606 O 0.80473 0.76067 0.78603
 O607 O 0.78307 0.79055 0.79079
 C608 C 0.73680 0.73669 0.81054
 H609 H 0.79626 0.73437 0.75977
 H610 H 0.75655 0.80049 0.76538
 H611 H 0.72096 0.72940 0.77589
 H612 H 0.74285 0.75173 0.70820
 H613 H 0.80864 0.80415 0.76218
 H614 H 0.75707 0.82096 0.71886
 H615 H 0.72803 0.80272 0.70466
 H616 H 0.69309 0.73866 0.71578
 H617 H 0.81680 0.77002 0.78583
 H618 H 0.78100 0.70552 0.79819
 H619 H 0.75029 0.68876 0.78587
 H620 H 0.69800 0.70622 0.74137
 H621 H 0.79631 0.79766 0.79263
 H622 H 0.72382 0.79121 0.80603
 H623 H 0.78438 0.71851 0.69706
 H624 H 0.71284 0.71055 0.71124
 Zr625 Zr 0.23378 0.23165 0.77861
 O626 O 0.24164 0.21059 0.80120
 O627 O 0.20331 0.23705 0.78519
 O628 O 0.23340 0.24578 0.80672
 O629 O 0.22698 0.19325 0.74386
 O630 O 0.25179 0.27581 0.80194
 O631 O 0.21974 0.20180 0.77541
 O632 O 0.19368 0.26033 0.76180
 O633 O 0.23072 0.26355 0.77231
 O634 O 0.22136 0.23372 0.75064
 O635 O 0.26321 0.24446 0.78016
 O636 O 0.25380 0.21564 0.75986
 Zr637 Zr 0.26817 0.26386 0.72564
 Zr638 Zr 0.26018 0.27593 0.77240
 Zr639 Zr 0.24182 0.21951 0.73184
 Zr640 Zr 0.21937 0.26530 0.74396
 O641 O 0.25787 0.19223 0.72454
 O642 O 0.21022 0.29489 0.75428
 O643 O 0.23868 0.25093 0.72372
 O644 O 0.24806 0.27943 0.74444
 O645 O 0.28075 0.26178 0.75357
 O646 O 0.27109 0.23204 0.73209
 C647 C 0.19021 0.24882 0.77697
 C648 C 0.21917 0.18918 0.76076
 C649 C 0.24191 0.26279 0.81287
 O650 O 0.24509 0.30419 0.77810
 O651 O 0.27784 0.30075 0.76120
 O652 O 0.28342 0.29303 0.72917
 C653 C 0.28545 0.30492 0.74424
 O654 O 0.28381 0.20695 0.78263
 Zr655 Zr 0.28250 0.23005 0.76024
 O656 O 0.29912 0.25988 0.72011
 O657 O 0.28602 0.28027 0.79004
 O658 O 0.30452 0.23989 0.78071
 O659 O 0.29406 0.20214 0.74824
 O660 O 0.30904 0.23878 0.74511
 C661 C 0.31267 0.25041 0.73008
 O662 O 0.26035 0.28550 0.70353
 O663 O 0.21527 0.21371 0.71552
 O664 O 0.26775 0.25021 0.69729
 O665 O 0.24803 0.22109 0.70185
 O666 O 0.19585 0.25417 0.72573
 O667 O 0.21650 0.28515 0.71915
 C668 C 0.25836 0.23377 0.69094
 H669 H 0.20791 0.22682 0.74972
 H670 H 0.24686 0.29433 0.74073
 H671 H 0.28004 0.22492 0.72264
 H672 H 0.26888 0.24273 0.79339
 H673 H 0.19564 0.29633 0.75137
 H674 H 0.25354 0.31204 0.78750
 H675 H 0.28480 0.29414 0.79625
 H676 H 0.31667 0.23121 0.77877
 H677 H 0.18387 0.26300 0.72803
 H678 H 0.21677 0.19980 0.70946
 H679 H 0.24947 0.18446 0.71505
 H680 H 0.30855 0.20149 0.75175
 H681 H 0.20300 0.29168 0.71934
 H682 H 0.27268 0.28808 0.69545
 H683 H 0.22927 0.20798 0.80922
 H684 H 0.29786 0.20194 0.78381
 Zr685 Zr 0.26544 0.76798 0.27936
 O686 O 0.25330 0.78863 0.30030
 O687 O 0.29519 0.76508 0.28889
 O688 O 0.26381 0.75410 0.30764
 O689 O 0.27504 0.80611 0.24434
 O690 O 0.24899 0.72238 0.30196
 O691 O 0.27837 0.79842 0.27672
 O692 O 0.30857 0.74097 0.26823
 O693 O 0.27086 0.73624 0.27446
 O694 O 0.28148 0.76612 0.25295
 O695 O 0.23674 0.75343 0.27864
 O696 O 0.24719 0.78261 0.25828
 Zr697 Zr 0.23948 0.73320 0.22462
 Zr698 Zr 0.24230 0.72212 0.27213
 Zr699 Zr 0.26290 0.77895 0.23180
 Zr700 Zr 0.28582 0.73460 0.24761
 O701 O 0.24670 0.80525 0.22196
 O702 O 0.29485 0.70558 0.25959
 O703 O 0.26844 0.74761 0.22513
 O704 O 0.25793 0.71895 0.24566
 O705 O 0.22334 0.73489 0.25102
 O706 O 0.23442 0.76490 0.22974
 C707 C 0.30963 0.75352 0.28280
 C708 C 0.28044 0.81079 0.26181
 C709 C 0.25705 0.73601 0.31329
 O710 O 0.25748 0.69427 0.27945
 O711 O 0.22710 0.69633 0.26019
 O712 O 0.22455 0.70373 0.22767
 C713 C 0.22148 0.69183 0.24277
 O714 O 0.21364 0.78895 0.27856
 Zr715 Zr 0.21937 0.76658 0.25647
 O716 O 0.20958 0.73623 0.21520
 O717 O 0.21514 0.71707 0.28818
 O718 O 0.19517 0.75474 0.27403
 O719 O 0.20853 0.79442 0.24354
 O720 O 0.19574 0.75791 0.23779
 C721 C 0.19468 0.74626 0.22260
 O722 O 0.25101 0.71136 0.20444
 O723 O 0.29105 0.78577 0.21802
 O724 O 0.24286 0.74624 0.19609
 O725 O 0.26052 0.77647 0.20142
 O726 O 0.31117 0.74670 0.23182
 O727 O 0.29290 0.71481 0.22378
 C728 C 0.25215 0.76302 0.19010
 H729 H 0.29462 0.77370 0.25314
 H730 H 0.26021 0.70410 0.24249
 H731 H 0.22651 0.77159 0.21926
 H732 H 0.22956 0.75485 0.29130
 H733 H 0.30978 0.70490 0.25835
 H734 H 0.24851 0.68631 0.28856
 H735 H 0.21636 0.70336 0.29484
 H736 H 0.18287 0.76257 0.27053
 H737 H 0.32313 0.73859 0.23582
 H738 H 0.28969 0.79943 0.21131
 H739 H 0.25592 0.81326 0.21312
 H740 H 0.19367 0.79460 0.24557
 H741 H 0.30655 0.70895 0.22561
 H742 H 0.23995 0.70807 0.19520
 H743 H 0.26435 0.79221 0.30946
 H744 H 0.19912 0.79260 0.27852
 Zr745 Zr 0.24072 0.76697 0.72388
 O746 O 0.25324 0.79036 0.70524
 O747 O 0.21272 0.76128 0.71097
 O748 O 0.24577 0.75510 0.69534
 O749 O 0.22460 0.80109 0.75952
 O750 O 0.26458 0.72607 0.70083
 O751 O 0.22501 0.79555 0.72662
 O752 O 0.19985 0.73371 0.72856
 O753 O 0.23785 0.73447 0.72667
 O754 O 0.22218 0.76119 0.74831
 O755 O 0.27039 0.75592 0.72688
 O756 O 0.25524 0.78180 0.74749
 Zr757 Zr 0.26378 0.73095 0.77924
 Zr758 Zr 0.26714 0.72367 0.73122
 Zr759 Zr 0.23720 0.77425 0.77197
 Zr760 Zr 0.22027 0.72896 0.75163
 O761 O 0.24961 0.80139 0.78495
 O762 O 0.21518 0.69978 0.73793
 O763 O 0.23388 0.74195 0.77649
 O764 O 0.24906 0.71654 0.75565
 O765 O 0.28251 0.73665 0.75487
 O766 O 0.26642 0.76342 0.77621
 C767 C 0.19919 0.74716 0.71451
 C768 C 0.22072 0.80656 0.74183
 C769 C 0.25562 0.73898 0.68946
 O770 O 0.25520 0.69529 0.72029
 O771 O 0.28240 0.69835 0.74343
 O772 O 0.28081 0.70313 0.77641
 C773 C 0.28607 0.69273 0.76110
 O774 O 0.29023 0.79367 0.73119
 Zr775 Zr 0.28405 0.76904 0.75143
 O776 O 0.29211 0.73642 0.79182
 O777 O 0.29645 0.72287 0.71857
 O778 O 0.31092 0.76132 0.73609
 O779 O 0.29070 0.79703 0.76660
 O780 O 0.30607 0.76188 0.77235
 C781 C 0.30658 0.74901 0.78685
 O782 O 0.25186 0.70670 0.79726
 O783 O 0.20723 0.77654 0.78284
 O784 O 0.25711 0.74170 0.80783
 O785 O 0.23676 0.76965 0.80235
 O786 O 0.19228 0.73705 0.76474
 O787 O 0.21247 0.70690 0.77388
 C788 C 0.24580 0.75677 0.81372
 H789 H 0.20854 0.76723 0.74699
 H790 H 0.24766 0.70129 0.75780
 H791 H 0.27257 0.77019 0.78772
 H792 H 0.27868 0.75923 0.71512
 H793 H 0.20036 0.69726 0.73765
 H794 H 0.26587 0.68907 0.71198
 H795 H 0.29725 0.70971 0.71110
 H796 H 0.32204 0.77009 0.74136
 H797 H 0.18169 0.72791 0.75904
 H798 H 0.20658 0.78970 0.79033
 H799 H 0.23876 0.80754 0.79306
 H800 H 0.30560 0.79908 0.76629
 H801 H 0.19950 0.69991 0.77062
 H802 H 0.26208 0.70385 0.80744
 H803 H 0.24298 0.79331 0.69512
 H804 H 0.30432 0.79876 0.73285
 Zr805 Zr 0.26979 0.23810 0.22564
 O806 O 0.26531 0.21885 0.20098
 O807 O 0.30097 0.24443 0.22371
 O808 O 0.27373 0.25444 0.19863
 O809 O 0.27168 0.19671 0.25835
 O810 O 0.25620 0.28443 0.20336
 O811 O 0.28341 0.20837 0.22875
 O812 O 0.30720 0.26596 0.24942
 O813 O 0.27213 0.26936 0.23438
 O814 O 0.27808 0.23774 0.25508
 O815 O 0.24097 0.25080 0.22105
 O816 O 0.24718 0.22020 0.24037
 Zr817 Zr 0.22843 0.26504 0.27546
 Zr818 Zr 0.24310 0.28151 0.23120
 Zr819 Zr 0.25510 0.22154 0.26993
 Zr820 Zr 0.27927 0.26865 0.26405
 O821 O 0.23817 0.19340 0.27284
 O822 O 0.28976 0.29930 0.25727
 O823 O 0.25722 0.25218 0.28044
 O824 O 0.25106 0.28254 0.26069
 O825 O 0.21989 0.26548 0.24608
 O826 O 0.22628 0.23387 0.26664
 C827 C 0.31279 0.25569 0.23429
 C828 C 0.28199 0.19444 0.24249
 C829 C 0.26705 0.27232 0.19281
 O830 O 0.25897 0.31038 0.22959
 O831 O 0.22446 0.30534 0.24159
 O832 O 0.21333 0.29389 0.27150
 C833 C 0.21405 0.30742 0.25739
 O834 O 0.22054 0.21386 0.21297
 Zr835 Zr 0.21891 0.23440 0.23717
 O836 O 0.19716 0.25944 0.27703
 O837 O 0.22023 0.28720 0.21044
 O838 O 0.19989 0.24631 0.21502
 O839 O 0.20601 0.20509 0.24532
 O840 O 0.19046 0.24070 0.24960
 C841 C 0.18496 0.25054 0.26503
 O842 O 0.23266 0.28526 0.29947
 O843 O 0.27884 0.21472 0.28945
 O844 O 0.22579 0.24945 0.30299
 O845 O 0.24422 0.21993 0.29871
 O846 O 0.30015 0.25619 0.28426
 O847 O 0.27842 0.28578 0.29052
 C848 C 0.23330 0.23207 0.30917
 H849 H 0.29125 0.23097 0.25734
 H850 H 0.25174 0.29704 0.26556
 H851 H 0.21612 0.22577 0.27435
 H852 H 0.23723 0.25030 0.20709
 H853 H 0.30372 0.30070 0.26232
 H854 H 0.25214 0.31900 0.21960
 H855 H 0.22252 0.30157 0.20535
 H856 H 0.18754 0.23738 0.21470
 H857 H 0.31219 0.26558 0.28430
 H858 H 0.27650 0.20026 0.29427
 H859 H 0.24507 0.18478 0.28278
 H860 H 0.19217 0.20447 0.23987
 H861 H 0.29169 0.29276 0.29254
 H862 H 0.21930 0.28672 0.30601
 H863 H 0.27869 0.21719 0.19451
 H864 H 0.20674 0.20897 0.20957
 Zr865 Zr 0.73274 0.73207 0.27963
 O866 O 0.73717 0.71154 0.30355
 O867 O 0.70218 0.73938 0.28297
 O868 O 0.72990 0.74747 0.30693
 O869 O 0.72636 0.69335 0.24524
 O870 O 0.74966 0.77665 0.30290
 O871 O 0.71740 0.70297 0.27608
 O872 O 0.69661 0.76367 0.25915
 O873 O 0.73256 0.76393 0.27239
 O874 O 0.72308 0.73426 0.25066
 O875 O 0.76260 0.74286 0.28375
 O876 O 0.75321 0.71411 0.26314
 Zr877 Zr 0.77391 0.76021 0.22939
 Zr878 Zr 0.76258 0.77422 0.27498
 Zr879 Zr 0.74413 0.71805 0.23409
 Zr880 Zr 0.72396 0.76577 0.24319
 O881 O 0.75857 0.68927 0.22896
 O882 O 0.71622 0.79641 0.25182
 O883 O 0.74396 0.74940 0.22505
 O884 O 0.75336 0.77779 0.24598
 O885 O 0.78380 0.75805 0.25835
 O886 O 0.77395 0.72845 0.23682
 C887 C 0.69090 0.75233 0.27382
 C888 C 0.71712 0.69011 0.26161
 C889 C 0.73760 0.76487 0.31303
 O890 O 0.75006 0.80432 0.27776
 O891 O 0.78390 0.79664 0.26538
 O892 O 0.79031 0.78856 0.23353
 C893 C 0.79258 0.80011 0.24878
 O894 O 0.78056 0.70473 0.28949
 Zr895 Zr 0.78260 0.72645 0.26591
 O896 O 0.80476 0.75341 0.22664
 O897 O 0.78585 0.77669 0.29593
 O898 O 0.80368 0.73633 0.28725
 O899 O 0.79236 0.69674 0.25646
 O900 O 0.81074 0.73100 0.25195
 C901 C 0.81644 0.74202 0.23710
 O902 O 0.77007 0.78170 0.20611
 O903 O 0.71903 0.71406 0.21540
 O904 O 0.77497 0.74597 0.20134
 O905 O 0.75372 0.71787 0.20490
 O906 O 0.70121 0.75590 0.22350
 O907 O 0.72493 0.78477 0.21761
 C908 C 0.76571 0.72961 0.19468
 H909 H 0.70936 0.72830 0.24870
 H910 H 0.75362 0.79264 0.24187
 H911 H 0.78310 0.72028 0.22839
 H912 H 0.76664 0.74130 0.29757
 H913 H 0.70219 0.79893 0.24748
 H914 H 0.75787 0.81164 0.28800
 H915 H 0.78509 0.79089 0.30152
 H916 H 0.81537 0.72681 0.28665
 H917 H 0.68989 0.76584 0.22455
 H918 H 0.72000 0.69988 0.20979
 H919 H 0.75050 0.68181 0.21899
 H920 H 0.80629 0.69478 0.26135
 H921 H 0.71205 0.79238 0.21641
 H922 H 0.78327 0.78303 0.19915
 H923 H 0.72397 0.70996 0.31046
 H924 H 0.79421 0.69941 0.29245
 Zr925 Zr 0.77024 0.26503 0.76885
 O926 O 0.75887 0.28355 0.79188
 O927 O 0.80135 0.26568 0.77449
 O928 O 0.77320 0.25064 0.79670
 O929 O 0.77189 0.30478 0.73415
 O930 O 0.76236 0.21718 0.79159
 O931 O 0.77889 0.29692 0.76597
 O932 O 0.81486 0.24579 0.75025
 O933 O 0.77899 0.23453 0.76204
 O934 O 0.78255 0.26610 0.74058
 O935 O 0.74364 0.24672 0.77100
 O936 O 0.74748 0.27765 0.75093
 Zr937 Zr 0.74169 0.22876 0.71644
 Zr938 Zr 0.75222 0.21668 0.76267
 Zr939 Zr 0.75979 0.27705 0.72258
 Zr940 Zr 0.79011 0.23573 0.73341
 O941 O 0.73942 0.30165 0.71744
 O942 O 0.80453 0.20844 0.74367
 O943 O 0.76838 0.24704 0.71388
 O944 O 0.76436 0.21637 0.73435
 O945 O 0.72921 0.22743 0.74462
 O946 O 0.73324 0.25919 0.72349
 C947 C 0.81637 0.25749 0.76540
 C948 C 0.77871 0.30949 0.75114
 C949 C 0.76927 0.23179 0.80256
 O950 O 0.77170 0.19106 0.76660
 O951 O 0.73798 0.18971 0.75172
 O952 O 0.72963 0.19817 0.72039
 C953 C 0.72966 0.18561 0.73523
 O954 O 0.71657 0.27923 0.77492
 Zr955 Zr 0.72179 0.25791 0.75183
 O956 O 0.71079 0.22827 0.71039
 O957 O 0.72842 0.20735 0.78183
 O958 O 0.70207 0.24294 0.77230
 O959 O 0.70516 0.28356 0.74104
 O960 O 0.69709 0.24509 0.73651
 C961 C 0.69571 0.23449 0.72065
 O962 O 0.75315 0.20877 0.69461
 O963 O 0.78427 0.28738 0.70468
 O964 O 0.73990 0.24262 0.68824
 O965 O 0.75205 0.27569 0.69300
 O966 O 0.81117 0.25105 0.71445
 O967 O 0.79602 0.21723 0.70839
 C968 C 0.74464 0.26121 0.68217
 H969 H 0.79463 0.27531 0.73929
 H970 H 0.76786 0.20204 0.73031
 H971 H 0.72306 0.26493 0.71445
 H972 H 0.73799 0.24686 0.78444
 H973 H 0.81913 0.20991 0.74045
 H974 H 0.76507 0.18163 0.77632
 H975 H 0.73223 0.19373 0.78758
 H976 H 0.68846 0.24901 0.77066
 H977 H 0.82447 0.24433 0.71622
 H978 H 0.78037 0.30097 0.69891
 H979 H 0.74599 0.31107 0.70767
 H980 H 0.69084 0.28124 0.74497
 H981 H 0.81027 0.21264 0.70858
 H982 H 0.74147 0.20426 0.68660
 H983 H 0.77062 0.28826 0.79972
 H984 H 0.70182 0.28105 0.77678
 C985 C 0.43168 0.99321 0.30799
 C986 C 0.41123 0.99876 0.30848
 C987 C 0.40091 1.00304 0.29122
 C988 C 0.41066 1.00190 0.27282
 C989 C 0.43131 0.99620 0.27256
 C990 C 0.44172 0.99233 0.28992
 C991 C 0.44207 0.98738 0.32631
 C992 C 0.46060 0.99674 0.33146
 C993 C 0.46928 0.99249 0.34967
 C994 C 0.45969 0.97860 0.36295
 C995 C 0.44181 0.96829 0.35712
 C996 C 0.43302 0.97279 0.33913
 C997 C 0.46688 0.97651 0.38346
 C998 C 0.45261 0.97546 0.39876
 C999 C 0.45874 0.97555 0.41815
 C1000 C 0.47935 0.97685 0.42297
 C1001 C 0.49382 0.97696 0.40780
 C1002 C 0.48763 0.97690 0.38818
 H1003 H 0.40313 0.99954 0.32227
 H1004 H 0.38498 1.00670 0.29217
 H1005 H 0.43943 0.99375 0.25904
 H1006 H 0.45741 0.98768 0.28918
 H1007 H 0.46788 1.00801 0.32175
 H1008 H 0.48294 1.00084 0.35371
 H1009 H 0.43429 0.95708 0.36671
 H1010 H 0.41895 0.96503 0.33530
 H1011 H 0.43654 0.97552 0.39584
 H1012 H 0.44717 0.97532 0.42946
 H1013 H 0.50980 0.97802 0.41107
 H1014 H 0.49902 0.97753 0.37673
 C1015 C -0.06450 0.49674 0.80604
 C1016 C -0.07514 0.51523 0.80261
 C1017 C -0.08730 0.51736 0.78606
 C1018 C -0.08942 0.50084 0.77262
 C1019 C -0.07710 0.48317 0.77537
 C1020 C -0.06516 0.48100 0.79196
 C1021 C -0.05384 0.49327 0.82478
 C1022 C -0.05674 0.47439 0.83508
 C1023 C -0.04822 0.47153 0.85350
 C1024 C -0.03638 0.48738 0.86193
 C1025 C -0.03279 0.50596 0.85134
 C1026 C -0.04158 0.50895 0.83300
 C1027 C -0.02951 0.48531 0.88242
 C1028 C -0.00951 0.49031 0.88773
 C1029 C -0.00382 0.49002 0.90743
 C1030 C -0.01819 0.48524 0.92208
 C1031 C -0.03797 0.47966 0.91668
 C1032 C -0.04351 0.47949 0.89706
 H1033 H -0.07463 0.52779 0.81311
 H1034 H -0.09506 0.53194 0.78416
 H1035 H -0.07757 0.47045 0.76504
 H1036 H -0.05670 0.46678 0.79396
 H1037 H -0.06626 0.46210 0.82920
 H1038 H -0.05120 0.45707 0.86137
 H1039 H -0.02388 0.51849 0.85762
 H1040 H -0.03901 0.52360 0.82532
 H1041 H 0.00156 0.49479 0.87667
 H1042 H 0.01146 0.49460 0.91129
 H1043 H -0.04933 0.47598 0.92772
 H1044 H -0.05905 0.47574 0.89339
 C1045 C 0.06637 0.00497 0.80101
 C1046 C 0.05725 0.00657 0.78270
 C1047 C 0.06851 0.00324 0.76562
 C1048 C 0.08908 -0.00269 0.76642
 C1049 C 0.09791 -0.00449 0.78507
 C1050 C 0.08675 -0.00072 0.80205
 C1051 C 0.05514 0.01030 0.81904
 C1052 C 0.06333 0.02504 0.83188
 C1053 C 0.05391 0.02890 0.84978
 C1054 C 0.03630 0.01777 0.85546
 C1055 C 0.02747 0.00384 0.84210
 C1056 C 0.03677 0.00023 0.82396
 C1057 C 0.02887 0.01885 0.87602
 C1058 C 0.00810 0.01800 0.88092
 C1059 C 0.00178 0.01722 0.90060
 C1060 C 0.01619 0.01699 0.91558
 C1061 C 0.03682 0.01858 0.91057
 C1062 C 0.04305 0.01944 0.89116
 H1063 H 0.04164 0.01137 0.78157
 H1064 H 0.06111 0.00628 0.75191
 H1065 H 0.11375 -0.00828 0.78643
 H1066 H 0.09413 -0.00197 0.81607
 H1067 H 0.07726 0.03331 0.82819
 H1068 H 0.06083 0.04014 0.85949
 H1069 H 0.01401 -0.00509 0.84606
 H1070 H 0.03017 -0.01115 0.81418
 H1071 H -0.00320 0.01764 0.86956
 H1072 H -0.01421 0.01598 0.90407
 H1073 H 0.04832 0.01862 0.92175
 H1074 H 0.05914 0.01969 0.88804
 C1075 C 0.56315 0.49778 0.29990
 C1076 C 0.55481 0.50228 0.28159
 C1077 C 0.56683 0.50218 0.26470
 C1078 C 0.58751 0.49679 0.26547
 C1079 C 0.59592 0.49332 0.28407
 C1080 C 0.58394 0.49364 0.30095
 C1081 C 0.55029 0.49738 0.31786
 C1082 C 0.55387 0.48266 0.33270
 C1083 C 0.54221 0.48239 0.34977
 C1084 C 0.52641 0.49663 0.35243
 C1085 C 0.52261 0.51121 0.33750
 C1086 C 0.53445 0.51161 0.32043
 C1087 C 0.51476 0.49669 0.37116
 C1088 C 0.50899 0.51557 0.37994
 C1089 C 0.50108 0.51565 0.39900
 C1090 C 0.49909 0.49692 0.40957
 C1091 C 0.50353 0.47801 0.40043
 C1092 C 0.51098 0.47786 0.38132
 H1093 H 0.53889 0.50575 0.28023
 H1094 H 0.55976 0.50666 0.25116
 H1095 H 0.61192 0.49025 0.28550
 H1096 H 0.59107 0.49086 0.31490
 H1097 H 0.56570 0.47125 0.33113
 H1098 H 0.54594 0.47123 0.36108
 H1099 H 0.51050 0.52233 0.33899
 H1100 H 0.53140 0.52333 0.30940
 H1101 H 0.51179 0.53037 0.37263
 H1102 H 0.49802 0.53042 0.40597
 H1103 H 0.50209 0.46340 0.40843
 H1104 H 0.51462 0.46299 0.37483
 C1105 C 0.56603 0.49642 0.19334
 C1106 C 0.56309 0.48114 0.20786
 C1107 C 0.57469 0.48149 0.22482
 C1108 C 0.58933 0.49738 0.22800
 C1109 C 0.59314 0.51176 0.21264
 C1110 C 0.58139 0.51151 0.19576
 C1111 C 0.55331 0.49661 0.17558
 C1112 C 0.54574 0.51552 0.16840
 C1113 C 0.53500 0.51609 0.15094
 C1114 C 0.53174 0.49779 0.14012
 C1115 C 0.53846 0.47869 0.14777
 C1116 C 0.54911 0.47810 0.16536
 C1117 C 0.52352 0.49908 0.12000
 C1118 C 0.51022 0.48373 0.11260
 C1119 C 0.50432 0.48431 0.09293
 C1120 C 0.51191 0.50005 0.08038
 C1121 C 0.52455 0.51571 0.08804
 C1122 C 0.53025 0.51525 0.10754
 H1123 H 0.55153 0.46914 0.20629
 H1124 H 0.57189 0.46954 0.23581
 H1125 H 0.60529 0.52317 0.21338
 H1126 H 0.58453 0.52298 0.18439
 H1127 H 0.54836 0.52994 0.17621
 H1128 H 0.52967 0.53099 0.14564
 H1129 H 0.53639 0.46437 0.13968
 H1130 H 0.55481 0.46331 0.17055
 H1131 H 0.50469 0.47114 0.12192
 H1132 H 0.49461 0.47201 0.08734
 H1133 H 0.53055 0.52812 0.07875
 H1134 H 0.54072 0.52713 0.11261
 C1135 C 0.06725 0.99414 0.69423
 C1136 C 0.08289 1.00901 0.69616
 C1137 C 0.09462 1.00970 0.71304
 C1138 C 0.09055 0.99602 0.72890
 C1139 C 0.07557 0.98033 0.72628
 C1140 C 0.06398 0.97953 0.70930
 C1141 C 0.05465 0.99388 0.67637
 C1142 C 0.05028 0.97509 0.66668
 C1143 C 0.03998 0.97526 0.64886
 C1144 C 0.03379 0.99422 0.64048
 C1145 C 0.03717 1.01283 0.65081
 C1146 C 0.04756 1.01267 0.66847
 C1147 C 0.02594 0.99499 0.62019
 C1148 C 0.03313 1.01064 0.60737
 C1149 C 0.02755 1.01073 0.58783
 C1150 C 0.01459 0.99518 0.58044
 C1151 C 0.00665 0.97991 0.59331
 C1152 C 0.01241 0.97972 0.61303
 H1153 H 0.08629 1.01993 0.68440
 H1154 H 0.10699 1.02087 0.71335
 H1155 H 0.07255 0.96890 0.73769
 H1156 H 0.05220 0.96770 0.70811
 H1157 H 0.05562 0.96038 0.67242
 H1158 H 0.03778 0.96070 0.64119
 H1159 H 0.03223 1.02764 0.64495
 H1160 H 0.05032 1.02732 0.67586
 H1161 H 0.04379 1.02244 0.61225
 H1162 H 0.03384 1.02280 0.57832
 H1163 H -0.00331 0.96770 0.58797
 H1164 H 0.00654 0.96751 0.62261
 C1165 C -0.06435 0.49656 0.70306
 C1166 C -0.06152 0.51240 0.71684
 C1167 C -0.07378 0.51323 0.73354
 C1168 C -0.08972 0.49861 0.73677
 C1169 C -0.09131 0.48178 0.72361
 C1170 C -0.07902 0.48097 0.70692
 C1171 C -0.05283 0.49677 0.68428
 C1172 C -0.04637 0.47804 0.67582
 C1173 C -0.03773 0.47802 0.65712
 C1174 C -0.03531 0.49672 0.64643
 C1175 C -0.04074 0.51558 0.65527
 C1176 C -0.04945 0.51561 0.67398
 C1177 C -0.02906 0.49628 0.62553
 C1178 C -0.01558 0.51129 0.61752
 C1179 C -0.01096 0.51135 0.59746
 C1180 C -0.02003 0.49661 0.58506
 C1181 C -0.03324 0.48146 0.59322
 C1182 C -0.03763 0.48126 0.61316
 H1183 H -0.04995 0.52433 0.71460
 H1184 H -0.07141 0.52593 0.74367
 H1185 H -0.10203 0.46914 0.72585
 H1186 H -0.08147 0.46838 0.69670
 H1187 H -0.04835 0.46333 0.68353
 H1188 H -0.03336 0.46328 0.65080
 H1189 H -0.03926 0.53021 0.64732
 H1190 H -0.05443 0.53028 0.67997
 H1191 H -0.00870 0.52302 0.62675
 H1192 H -0.00076 0.52323 0.59159
 H1193 H -0.04040 0.46978 0.58413
 H1194 H -0.04830 0.46969 0.61881
 C1195 C 0.43473 0.00572 0.20044
 C1196 C 0.41917 -0.00926 0.20254
 C1197 C 0.40715 -0.01010 0.21941
 C1198 C 0.41080 0.00356 0.23515
 C1199 C 0.42589 0.01921 0.23246
 C1200 C 0.43775 0.02020 0.21543
 C1201 C 0.44733 0.00632 0.18237
 C1202 C 0.45106 0.02517 0.17224
 C1203 C 0.46104 0.02520 0.15408
 C1204 C 0.46758 0.00639 0.14578
 C1205 C 0.46491 -0.01224 0.15657
 C1206 C 0.45481 -0.01228 0.17456
 C1207 C 0.47515 0.00573 0.12524
 C1208 C 0.46850 -0.01041 0.11300
 C1209 C 0.47395 -0.01059 0.09332
 C1210 C 0.48623 0.00537 0.08519
 C1211 C 0.49355 0.02122 0.09747
 C1212 C 0.48794 0.02146 0.11732
 H1213 H 0.41599 -0.02011 0.19086
 H1214 H 0.39479 -0.02129 0.21972
 H1215 H 0.42863 0.03060 0.24378
 H1216 H 0.44946 0.03212 0.21409
 H1217 H 0.44540 0.03974 0.17791
 H1218 H 0.46270 0.03978 0.14610
 H1219 H 0.47017 -0.02693 0.15082
 H1220 H 0.45251 -0.02697 0.18226
 H1221 H 0.45837 -0.02258 0.11844
 H1222 H 0.46811 -0.02310 0.08432
 H1223 H 0.50296 0.03377 0.09159
 H1224 H 0.49341 0.03405 0.12642
 C1225 C 0.30489 0.40362 -0.00309
 C1226 C 0.30303 0.38558 -0.01450
 C1227 C 0.28492 0.37395 -0.01465
 C1228 C 0.26798 0.37998 -0.00333
 C1229 C 0.27007 0.39839 0.00790
 C1230 C 0.28806 0.41013 0.00776
 C1231 C 0.32460 0.41500 -0.00155
 C1232 C 0.32544 0.43693 -0.00227
 C1233 C 0.34393 0.44764 -0.00042
 C1234 C 0.36199 0.43668 0.00246
 C1235 C 0.36112 0.41476 0.00341
 C1236 C 0.34266 0.40404 0.00129
 C1237 C 0.38173 0.44806 0.00361
 C1238 C 0.39623 0.44276 0.01771
 C1239 C 0.41511 0.45307 0.01810
 C1240 C 0.41997 0.46860 0.00416
 C1241 C 0.40533 0.47405 -0.00971
 C1242 C 0.38643 0.46403 -0.00990
 H1243 H 0.31578 0.38021 -0.02305
 H1244 H 0.28469 0.35967 -0.02295
 H1245 H 0.25814 0.40309 0.01780
 H1246 H 0.28915 0.42371 0.01704
 H1247 H 0.31179 0.44580 -0.00446
 H1248 H 0.34411 0.46453 -0.00113
 H1249 H 0.37480 0.40589 0.00542
 H1250 H 0.34245 0.38715 0.00216
 H1251 H 0.39296 0.43060 0.02838
 H1252 H 0.42613 0.44842 0.02886
 H1253 H 0.40858 0.48597 -0.02064
 H1254 H 0.37568 0.46835 -0.02103
 C1255 C -0.19293 0.89437 0.50368
 C1256 C -0.21084 0.90305 0.51107
 C1257 C -0.22933 0.89211 0.50999
 C1258 C -0.23059 0.87230 0.50108
 C1259 C -0.21234 0.86346 0.49439
 C1260 C -0.19395 0.87440 0.49541
 C1261 C -0.17316 0.90588 0.50464
 C1262 C -0.15944 0.90515 0.48886
 C1263 C -0.14081 0.91568 0.48961
 C1264 C -0.13530 0.92730 0.50614
 C1265 C -0.14890 0.92792 0.52204
 C1266 C -0.16766 0.91740 0.52126
 C1267 C -0.11561 0.93900 0.50636
 C1268 C -0.10328 0.93948 0.52306
 C1269 C -0.08428 0.94965 0.52255
 C1270 C -0.07726 0.95959 0.50534
 C1271 C -0.08993 0.95956 0.48890
 C1272 C -0.10876 0.94946 0.48942
 H1273 H -0.21058 0.91834 0.51770
 H1274 H -0.24256 0.89905 0.51655
 H1275 H -0.21223 0.84779 0.48860
 H1276 H -0.18038 0.86692 0.49014
 H1277 H -0.16321 0.89660 0.47577
 H1278 H -0.13061 0.91461 0.47720
 H1279 H -0.14519 0.93681 0.53494
 H1280 H -0.17777 0.91810 0.53377
 H1281 H -0.10809 0.93149 0.53633
 H1282 H -0.07494 0.94934 0.53547
 H1283 H -0.08526 0.96723 0.47542
 H1284 H -0.11802 0.94985 0.47644
 C1285 C -0.19335 0.10808 0.99500
 C1286 C -0.20947 0.10249 1.00769
 C1287 C -0.22736 0.11412 1.00810
 C1288 C -0.23022 0.13098 0.99505
 C1289 C -0.21332 0.13734 0.98353
 C1290 C -0.19542 0.12604 0.98337
 C1291 C -0.17419 0.09583 0.99408
 C1292 C -0.16303 0.09455 0.97650
 C1293 C -0.14443 0.08434 0.97578
 C1294 C -0.13652 0.07474 0.99255
 C1295 C -0.14805 0.07534 1.00996
 C1296 C -0.16650 0.08586 1.01076
 C1297 C -0.11619 0.06461 0.99206
 C1298 C -0.10381 0.06490 1.00867
 C1299 C -0.08505 0.05509 1.00859
 C1300 C -0.07785 0.04501 0.99179
 C1301 C -0.08978 0.04520 0.97492
 C1302 C -0.10882 0.05473 0.97510
 H1303 H -0.20842 0.08901 1.01722
 H1304 H -0.23917 0.10968 1.01842
 H1305 H -0.21363 0.15136 0.97465
 H1306 H -0.18302 0.13172 0.97429
 H1307 H -0.16859 0.10154 0.96318
 H1308 H -0.13607 0.08443 0.96212
 H1309 H -0.14283 0.06773 1.02311
 H1310 H -0.17446 0.08654 1.02461
 H1311 H -0.10849 0.07285 1.02182
 H1312 H -0.07609 0.05548 1.02177
 H1313 H -0.08468 0.03744 0.96180
 H1314 H -0.11791 0.05391 0.96205
 C1315 C 0.29938 0.60258 0.49779
 C1316 C 0.28384 0.59671 0.51102
 C1317 C 0.26617 0.60853 0.51265
 C1318 C 0.26292 0.62597 0.50040
 C1319 C 0.27929 0.63256 0.48829
 C1320 C 0.29699 0.62097 0.48684
 C1321 C 0.31830 0.59010 0.49571
 C1322 C 0.32846 0.58881 0.47757
 C1323 C 0.34678 0.57817 0.47581
 C1324 C 0.35542 0.56832 0.49209
 C1325 C 0.34489 0.56899 0.51007
 C1326 C 0.32670 0.57982 0.51188
 C1327 C 0.37557 0.55798 0.49064
 C1328 C 0.38896 0.55880 0.50647
 C1329 C 0.40752 0.54871 0.50570
 C1330 C 0.41354 0.53768 0.48898
 C1331 C 0.40059 0.53738 0.47280
 C1332 C 0.38175 0.54732 0.47366
 H1333 H 0.28517 0.58284 0.52000
 H1334 H 0.25475 0.60373 0.52325
 H1335 H 0.27871 0.64693 0.47994
 H1336 H 0.30901 0.62674 0.47732
 H1337 H 0.32230 0.59612 0.46466
 H1338 H 0.35440 0.57813 0.46175
 H1339 H 0.35074 0.56121 0.52287
 H1340 H 0.31953 0.58052 0.52612
 H1341 H 0.38517 0.56737 0.51954
 H1342 H 0.41726 0.54960 0.51833
 H1343 H 0.40477 0.52897 0.45974
 H1344 H 0.37184 0.54624 0.46119
 C1345 C 0.18597 0.60289 0.50498
 C1346 C 0.20394 0.59302 0.49923
 C1347 C 0.22226 0.60426 0.49775
 C1348 C 0.22333 0.62563 0.50263
 C1349 C 0.20492 0.63564 0.50704
 C1350 C 0.18667 0.62445 0.50849
 C1351 C 0.16642 0.59101 0.50683
 C1352 C 0.15231 0.59570 0.52166
 C1353 C 0.13357 0.58521 0.52284
 C1354 C 0.12843 0.56979 0.50918
 C1355 C 0.14278 0.56471 0.49470
 C1356 C 0.16147 0.57518 0.49351
 C1357 C 0.10795 0.55963 0.50933
 C1358 C 0.09819 0.55563 0.49159
 C1359 C 0.07931 0.54567 0.49128
 C1360 C 0.06943 0.53939 0.50870
 C1361 C 0.07888 0.54384 0.52657
 C1362 C 0.09796 0.55387 0.52688
 H1363 H 0.20394 0.57650 0.49603
 H1364 H 0.23542 0.59605 0.49260
 H1365 H 0.20480 0.65226 0.50985
 H1366 H 0.17303 0.63279 0.51217
 H1367 H 0.15573 0.60756 0.53238
 H1368 H 0.12289 0.58960 0.53411
 H1369 H 0.13950 0.55267 0.48412
 H1370 H 0.17182 0.57122 0.48181
 H1371 H 0.10511 0.56033 0.47783
 H1372 H 0.07249 0.54283 0.47720
 H1373 H 0.07174 0.53924 0.54026
 H1374 H 0.10507 0.55668 0.54082
 C1375 C 0.69225 0.10919 -0.00013
 C1376 C 0.71011 0.09852 -0.00483
 C1377 C 0.72865 0.10930 -0.00691
 C1378 C 0.72998 0.13105 -0.00376
 C1379 C 0.71165 0.14172 -0.00066
 C1380 C 0.69323 0.13099 0.00148
 C1381 C 0.67250 0.09790 0.00261
 C1382 C 0.65871 0.10398 0.01726
 C1383 C 0.63966 0.09423 0.01911
 C1384 C 0.63387 0.07825 0.00629
 C1385 C 0.64790 0.07175 -0.00796
 C1386 C 0.66695 0.08142 -0.00976
 C1387 C 0.61298 0.06909 0.00691
 C1388 C 0.60278 0.06533 -0.01062
 C1389 C 0.58349 0.05625 -0.01054
 C1390 C 0.57367 0.05055 0.00710
 C1391 C 0.58359 0.05482 0.02477
 C1392 C 0.60304 0.06407 0.02467
 H1393 H 0.70982 0.08175 -0.00668
 H1394 H 0.74177 0.10045 -0.01111
 H1395 H 0.71173 0.15856 0.00074
 H1396 H 0.67967 0.13985 0.00427
 H1397 H 0.66261 0.11641 0.02723
 H1398 H 0.62921 0.09966 0.03018
 H1399 H 0.64405 0.05927 -0.01790
 H1400 H 0.67710 0.07639 -0.02124
 H1401 H 0.60971 0.06947 -0.02453
 H1402 H 0.57637 0.05350 -0.02449
 H1403 H 0.57653 0.05064 0.03861
 H1404 H 0.61051 0.06679 0.03845
 C1405 C 0.69210 0.89205 0.49909
 C1406 C 0.69393 0.87380 0.51040
 C1407 C 0.71243 0.86354 0.51175
 C1408 C 0.73003 0.87150 0.50232
 C1409 C 0.72789 0.88944 0.49041
 C1410 C 0.70931 0.89967 0.48901
 C1411 C 0.67226 0.90291 0.49781
 C1412 C 0.66550 0.91149 0.48006
 C1413 C 0.64683 0.92165 0.47905
 C1414 C 0.63455 0.92363 0.49581
 C1415 C 0.64127 0.91488 0.51348
 C1416 C 0.65983 0.90468 0.51446
 C1417 C 0.61508 0.93521 0.49523
 C1418 C 0.60981 0.94837 0.51073
 C1419 C 0.59132 0.95865 0.51094
 C1420 C 0.57741 0.95617 0.49563
 C1421 C 0.58281 0.94339 0.47981
 C1422 C 0.60147 0.93305 0.47960
 H1423 H 0.68085 0.86706 0.51785
 H1424 H 0.71279 0.84903 0.51990
 H1425 H 0.74057 0.89547 0.48191
 H1426 H 0.70846 0.91362 0.48005
 H1427 H 0.67457 0.91019 0.46689
 H1428 H 0.64217 0.92831 0.46524
 H1429 H 0.63211 0.91584 0.52662
 H1430 H 0.66458 0.89844 0.52840
 H1431 H 0.62007 0.95078 0.52278
 H1432 H 0.58790 0.96850 0.52330
 H1433 H 0.57247 0.94106 0.46781
 H1434 H 0.60502 0.92295 0.46747
 C1435 C 0.19192 0.39989 1.00177
 C1436 C 0.19381 0.38133 1.01252
 C1437 C 0.21221 0.37066 1.01305
 C1438 C 0.22957 0.37797 1.00262
 C1439 C 0.22735 0.39716 0.99232
 C1440 C 0.20905 0.40785 0.99197
 C1441 C 0.17215 0.41078 1.00045
 C1442 C 0.17131 0.43267 1.00152
 C1443 C 0.15281 0.44295 1.00010
 C1444 C 0.13466 0.43166 0.99744
 C1445 C 0.13549 0.40978 0.99614
 C1446 C 0.15400 0.39946 0.99773
 C1447 C 0.11492 0.44268 0.99684
 C1448 C 0.09982 0.43720 0.98333
 C1449 C 0.08123 0.44761 0.98315
 C1450 C 0.07726 0.46352 0.99667
 C1451 C 0.09244 0.46897 1.01008
 C1452 C 0.11098 0.45876 1.01012
 H1453 H 0.18095 0.37497 1.02061
 H1454 H 0.21212 0.35668 1.02168
 H1455 H 0.23960 0.40374 0.98360
 H1456 H 0.20814 0.42204 0.98335
 H1457 H 0.18496 0.44185 1.00371
 H1458 H 0.15273 0.45982 1.00101
 H1459 H 0.12177 0.40063 0.99426
 H1460 H 0.15416 0.38261 0.99661
 H1461 H 0.10245 0.42495 0.97283
 H1462 H 0.06984 0.44297 0.97269
 H1463 H 0.08998 0.48115 1.02070
 H1464 H 0.12214 0.46321 1.02086
 C1465 C -0.00707 0.30155 0.39629
 C1466 C 0.00295 0.30271 0.37822
 C1467 C 0.00523 0.28493 0.36693
 C1468 C -0.00170 0.26523 0.37380
 C1469 C -0.01308 0.26461 0.39137
 C1470 C -0.01552 0.28249 0.40260
 C1471 C -0.00833 0.32024 0.40857
 C1472 C -0.02677 0.32610 0.41709
 C1473 C -0.02780 0.34418 0.42830
 C1474 C -0.01034 0.35641 0.43130
 C1475 C 0.00811 0.35037 0.42295
 C1476 C 0.00910 0.33247 0.41163
 C1477 C -0.01123 0.37568 0.44283
 C1478 C 0.00361 0.37983 0.45684
 C1479 C 0.00373 0.39867 0.46683
 C1480 C -0.01094 0.41379 0.46289
 C1481 C -0.02606 0.40943 0.44913
 C1482 C -0.02625 0.39047 0.43923
 H1483 H 0.00883 0.31750 0.37272
 H1484 H 0.01221 0.28692 0.35270
 H1485 H -0.01980 0.25007 0.39658
 H1486 H -0.02362 0.28134 0.41639
 H1487 H -0.04040 0.31689 0.41480
 H1488 H -0.04216 0.34856 0.43471
 H1489 H 0.02172 0.35971 0.42493
 H1490 H 0.02351 0.32811 0.40530
 H1491 H 0.01521 0.36852 0.45996
 H1492 H 0.01554 0.40150 0.47739
 H1493 H -0.03763 0.42072 0.44587
 H1494 H -0.03775 0.38760 0.42836
 C1495 C 0.49947 -0.18947 -0.10281
 C1496 C 0.48998 -0.20799 -0.09644
 C1497 C 0.49224 -0.22629 -0.10710
 C1498 C 0.50447 -0.22665 -0.12412
 C1499 C 0.51264 -0.20747 -0.13107
 C1500 C 0.51046 -0.18927 -0.12037
 C1501 C 0.49829 -0.17032 -0.09115
 C1502 C 0.51591 -0.15845 -0.08788
 C1503 C 0.51500 -0.14010 -0.07722
 C1504 C 0.49645 -0.13325 -0.06969
 C1505 C 0.47880 -0.14513 -0.07289
 C1506 C 0.47973 -0.16364 -0.08347
 C1507 C 0.49570 -0.11365 -0.05866
 C1508 C 0.48093 -0.09874 -0.06276
 C1509 C 0.48105 -0.07968 -0.05303
 C1510 C 0.49587 -0.07531 -0.03897
 C1511 C 0.51039 -0.09048 -0.03467
 C1512 C 0.51031 -0.10943 -0.04445
 H1513 H 0.48116 -0.20840 -0.08304
 H1514 H 0.48472 -0.24040 -0.10186
 H1515 H 0.52048 -0.20615 -0.14493
 H1516 H 0.51721 -0.17490 -0.12596
 H1517 H 0.53041 -0.16345 -0.09353
 H1518 H 0.52877 -0.13107 -0.07509
 H1519 H 0.46436 -0.14015 -0.06709
 H1520 H 0.46595 -0.17254 -0.08594
 H1521 H 0.46962 -0.10164 -0.07381
 H1522 H 0.46961 -0.06835 -0.05661
 H1523 H 0.52196 -0.08767 -0.02386
 H1524 H 0.52171 -0.12083 -0.04092
 C1525 C -0.00079 -0.19277 1.09962
 C1526 C 0.01686 -0.19874 1.10924
 C1527 C 0.01709 -0.21682 1.12058
 C1528 C -0.00062 -0.22914 1.12326
 C1529 C -0.01829 -0.22296 1.11342
 C1530 C -0.01841 -0.20499 1.10188
 C1531 C -0.00060 -0.17412 1.08686
 C1532 C -0.01719 -0.16065 1.08664
 C1533 C -0.01671 -0.14277 1.07495
 C1534 C 0.00042 -0.13802 1.06345
 C1535 C 0.01690 -0.15155 1.06344
 C1536 C 0.01634 -0.16955 1.07495
 C1537 C 0.00137 -0.11855 1.05205
 C1538 C 0.01815 -0.10509 1.05371
 C1539 C 0.01852 -0.08597 1.04389
 C1540 C 0.00221 -0.08020 1.03210
 C1541 C -0.01431 -0.09401 1.03001
 C1542 C -0.01479 -0.11299 1.04004
 H1543 H 0.03068 -0.18957 1.10779
 H1544 H 0.03150 -0.22128 1.12649
 H1545 H -0.03197 -0.23242 1.11442
 H1546 H -0.03214 -0.20100 1.09427
 H1547 H -0.03032 -0.16367 1.09585
 H1548 H -0.02948 -0.13234 1.07527
 H1549 H 0.03015 -0.14821 1.05448
 H1550 H 0.02915 -0.17991 1.07448
 H1551 H 0.03070 -0.10911 1.06303
 H1552 H 0.03148 -0.07564 1.04566
 H1553 H -0.02711 -0.08990 1.02106
 H1554 H -0.02780 -0.12329 1.03853
 C1555 C 0.50415 0.30494 0.60351
 C1556 C 0.48651 0.29256 0.60431
 C1557 C 0.48623 0.27376 0.61451
 C1558 C 0.50353 0.26668 0.62440
 C1559 C 0.52066 0.28007 0.62486
 C1560 C 0.52110 0.29868 0.61418
 C1561 C 0.50475 0.32418 0.59143
 C1562 C 0.51571 0.34190 0.59743
 C1563 C 0.51585 0.36006 0.58608
 C1564 C 0.50468 0.36102 0.56872
 C1565 C 0.49386 0.34322 0.56268
 C1566 C 0.49413 0.32495 0.57375
 C1567 C 0.50373 0.38063 0.55723
 C1568 C 0.50205 0.38011 0.53676
 C1569 C 0.49985 0.39853 0.52610
 C1570 C 0.49991 0.41776 0.53566
 C1571 C 0.50213 0.41846 0.55597
 C1572 C 0.50376 0.40004 0.56671
 H1573 H 0.47286 0.29732 0.59697
 H1574 H 0.47248 0.26436 0.61437
 H1575 H 0.53387 0.27647 0.63332
 H1576 H 0.53489 0.30798 0.61406
 H1577 H 0.52391 0.34192 0.61105
 H1578 H 0.52467 0.37335 0.59099
 H1579 H 0.48482 0.34345 0.54957
 H1580 H 0.48592 0.31144 0.56843
 H1581 H 0.50247 0.36550 0.52893
 H1582 H 0.49841 0.39779 0.51036
 H1583 H 0.50204 0.43325 0.56358
 H1584 H 0.50456 0.40103 0.58246
 C1585 C 0.49388 1.19293 0.59522
 C1586 C 0.49594 1.21322 0.58763
 C1587 C 0.49901 1.23009 0.60001
 C1588 C 0.49921 1.22725 0.62051
 C1589 C 0.49791 1.20665 0.62788
 C1590 C 0.49526 1.18978 0.61546
 C1591 C 0.49092 1.17494 0.58212
 C1592 C 0.47867 1.15796 0.58807
 C1593 C 0.47736 1.14014 0.57664
 C1594 C 0.48794 1.13909 0.55879
 C1595 C 0.49928 1.15654 0.55232
 C1596 C 0.50091 1.17422 0.56395
 C1597 C 0.48846 1.11927 0.54789
 C1598 C 0.50650 1.11291 0.53881
 C1599 C 0.50774 1.09325 0.53038
 C1600 C 0.49113 1.07948 0.53129
 C1601 C 0.47291 1.08595 0.53979
 C1602 C 0.47150 1.10579 0.54782
 H1603 H 0.49512 1.21614 0.57206
 H1604 H 0.50135 1.24516 0.59318
 H1605 H 0.49873 1.20366 0.64344
 H1606 H 0.49450 1.17424 0.62175
 H1607 H 0.47039 1.15824 0.60178
 H1608 H 0.46868 1.12691 0.58221
 H1609 H 0.50729 1.15637 0.53846
 H1610 H 0.51058 1.18699 0.55899
 H1611 H 0.51996 1.12272 0.53891
 H1612 H 0.52196 1.08848 0.52393
 H1613 H 0.45980 1.07561 0.54031
 H1614 H 0.45725 1.11041 0.55429
 C1615 C -0.00849 0.70565 1.08580
 C1616 C 0.00809 0.71948 1.08628
 C1617 C 0.01028 0.73332 1.10167
 C1618 C -0.00401 0.73379 1.11711
 C1619 C -0.02159 0.72119 1.11551
 C1620 C -0.02357 0.70701 1.10027
 C1621 C -0.00906 0.68863 1.07136
 C1622 C -0.02750 0.68139 1.06369
 C1623 C -0.02810 0.66334 1.05240
 C1624 C -0.01024 0.65249 1.04844
 C1625 C 0.00829 0.66039 1.05513
 C1626 C 0.00888 0.67822 1.06656
 C1627 C -0.01091 0.63179 1.03934
 C1628 C 0.00354 0.62646 1.02517
 C1629 C 0.00493 0.60594 1.01880
 C1630 C -0.00804 0.59038 1.02660
 C1631 C -0.02303 0.59592 1.04021
 C1632 C -0.02448 0.61649 1.04648
 H1633 H 0.01964 0.71931 1.07497
 H1634 H 0.02352 0.74346 1.10181
 H1635 H -0.03391 0.72199 1.12592
 H1636 H -0.03665 0.69666 1.10022
 H1637 H -0.04150 0.68932 1.06686
 H1638 H -0.04253 0.65753 1.04721
 H1639 H 0.02222 0.65207 1.05253
 H1640 H 0.02328 0.68311 1.07254
 H1641 H 0.01410 0.63809 1.01944
 H1642 H 0.01653 0.60219 1.00816
 H1643 H -0.03340 0.58432 1.04628
 H1644 H -0.03559 0.62023 1.05760
 C1645 C 0.52636 0.69960 -0.10145
 C1646 C 0.52047 0.69720 -0.12090
 C1647 C 0.51442 0.71445 -0.13175
 C1648 C 0.51380 0.73448 -0.12332
 C1649 C 0.52170 0.73692 -0.10434
 C1650 C 0.52745 0.71960 -0.09340
 C1651 C 0.52914 0.68106 -0.08908
 C1652 C 0.51783 0.67893 -0.07177
 C1653 C 0.51759 0.66011 -0.06152
 C1654 C 0.52894 0.64314 -0.06822
 C1655 C 0.54124 0.64576 -0.08496
 C1656 C 0.54117 0.66453 -0.09543
 C1657 C 0.52656 0.62245 -0.05866
 C1658 C 0.52620 0.60415 -0.06991
 C1659 C 0.52208 0.58483 -0.06115
 C1660 C 0.51782 0.58356 -0.04108
 C1661 C 0.51853 0.60168 -0.02974
 C1662 C 0.52310 0.62091 -0.03840
 H1663 H 0.51962 0.68186 -0.12742
 H1664 H 0.50944 0.71209 -0.14661
 H1665 H 0.52345 0.75207 -0.09770
 H1666 H 0.53249 0.72175 -0.07852
 H1667 H 0.50820 0.69143 -0.06682
 H1668 H 0.50765 0.65857 -0.04893
 H1669 H 0.55050 0.63315 -0.09026
 H1670 H 0.55009 0.66599 -0.10873
 H1671 H 0.52841 0.60478 -0.08559
 H1672 H 0.52160 0.57098 -0.07013
 H1673 H 0.51569 0.60093 -0.01414
 H1674 H 0.52373 0.63461 -0.02924
 C1675 C 0.02147 1.19136 0.39443
 C1676 C 0.01462 1.18918 0.37526
 C1677 C 0.00830 1.20659 0.36479
 C1678 C 0.00835 1.22657 0.37337
 C1679 C 0.01733 1.22879 0.39191
 C1680 C 0.02333 1.21130 0.40249
 C1681 C 0.02449 1.17272 0.40662
 C1682 C 0.01381 1.17067 0.42430
 C1683 C 0.01405 1.15194 0.43469
 C1684 C 0.02529 1.13498 0.42777
 C1685 C 0.03682 1.13748 0.41051
 C1686 C 0.03625 1.15615 0.39990
 C1687 C 0.02374 1.11447 0.43785
 C1688 C 0.02347 1.09586 0.42705
 C1689 C 0.02029 1.07667 0.43641
 C1690 C 0.01685 1.07583 0.45663
 C1691 C 0.01745 1.09428 0.46750
 C1692 C 0.02114 1.11339 0.45824
 H1693 H 0.01321 1.17388 0.36873
 H1694 H 0.00254 1.20440 0.35018
 H1695 H 0.01964 1.24390 0.39850
 H1696 H 0.02915 1.21328 0.41712
 H1697 H 0.00439 1.18321 0.42953
 H1698 H 0.00463 1.15050 0.44765
 H1699 H 0.04597 1.12489 0.40499
 H1700 H 0.04465 1.15755 0.38629
 H1701 H 0.02505 1.09611 0.41130
 H1702 H 0.01987 1.06256 0.42779
 H1703 H 0.01524 1.09388 0.48320
 H1704 H 0.02177 1.12733 0.46707
 C1705 C 0.74058 0.67984 0.94705
 C1706 C 0.74840 0.65961 0.94668
 C1707 C 0.75253 0.64893 0.96401
 C1708 C 0.74923 0.65816 0.98242
 C1709 C 0.74090 0.67840 0.98264
 C1710 C 0.73709 0.68926 0.96520
 C1711 C 0.73547 0.69053 0.92842
 C1712 C 0.74256 0.71086 0.92419
 C1713 C 0.73965 0.71973 0.90562
 C1714 C 0.72942 0.70850 0.89101
 C1715 C 0.72118 0.68873 0.89583
 C1716 C 0.72431 0.67981 0.91421
 C1717 C 0.72912 0.71614 0.87034
 C1718 C 0.73225 0.70190 0.85514
 C1719 C 0.73374 0.70868 0.83580
 C1720 C 0.73222 0.72996 0.83094
 C1721 C 0.72831 0.74428 0.84594
 C1722 C 0.72690 0.73743 0.86552
 H1723 H 0.75118 0.65192 0.93289
 H1724 H 0.75797 0.63310 0.96301
 H1725 H 0.73663 0.68571 0.99622
 H1726 H 0.73062 0.70469 0.96587
 H1727 H 0.75120 0.71945 0.93492
 H1728 H 0.74631 0.73492 0.90240
 H1729 H 0.71276 0.67985 0.88515
 H1730 H 0.71831 0.66430 0.91723
 H1731 H 0.73441 0.68548 0.85821
 H1732 H 0.73666 0.69719 0.82463
 H1733 H 0.72716 0.76078 0.84266
 H1734 H 0.72434 0.74880 0.87687
 C1735 C 0.24332 0.17384 0.44535
 C1736 C 0.24939 0.15293 0.44529
 C1737 C 0.25328 0.14238 0.46275
 C1738 C 0.25144 0.15234 0.48102
 C1739 C 0.24525 0.17342 0.48093
 C1740 C 0.24160 0.18408 0.46334
 C1741 C 0.23805 0.18443 0.42666
 C1742 C 0.24542 0.20459 0.42208
 C1743 C 0.24179 0.21358 0.40367
 C1744 C 0.23058 0.20265 0.38953
 C1745 C 0.22228 0.18299 0.39465
 C1746 C 0.22606 0.17398 0.41289
 C1747 C 0.22907 0.21060 0.36901
 C1748 C 0.23091 0.19656 0.35344
 C1749 C 0.23121 0.20364 0.33414
 C1750 C 0.22973 0.22502 0.32967
 C1751 C 0.22706 0.23914 0.34510
 C1752 C 0.22686 0.23200 0.36461
 H1753 H 0.25092 0.14461 0.43165
 H1754 H 0.25728 0.12606 0.46205
 H1755 H 0.24231 0.18161 0.49438
 H1756 H 0.23657 0.20009 0.46385
 H1757 H 0.25469 0.21302 0.43242
 H1758 H 0.24855 0.22866 0.40021
 H1759 H 0.21314 0.17433 0.38437
 H1760 H 0.21977 0.15864 0.41617
 H1761 H 0.23299 0.18006 0.35614
 H1762 H 0.23323 0.19229 0.32265
 H1763 H 0.22601 0.25571 0.34213
 H1764 H 0.22524 0.24322 0.37625
 C1765 C 0.73643 0.31710 0.43883
 C1766 C 0.74965 0.33440 0.43939
 C1767 C 0.75044 0.34724 0.45576
 C1768 C 0.73847 0.34288 0.47256
 C1769 C 0.72385 0.32667 0.47112
 C1770 C 0.72311 0.31372 0.45470
 C1771 C 0.73645 0.30308 0.42151
 C1772 C 0.71829 0.29500 0.41392
 C1773 C 0.71835 0.28336 0.39667
 C1774 C 0.73657 0.27954 0.38654
 C1775 C 0.75479 0.28678 0.39466
 C1776 C 0.75474 0.29835 0.41191
 C1777 C 0.73644 0.27002 0.36670
 C1778 C 0.75213 0.25695 0.36029
 C1779 C 0.75332 0.25061 0.34071
 C1780 C 0.73890 0.25735 0.32717
 C1781 C 0.72261 0.26936 0.33388
 C1782 C 0.72140 0.27559 0.35333
 H1783 H 0.75932 0.33822 0.42699
 H1784 H 0.76051 0.36065 0.45499
 H1785 H 0.71344 0.32355 0.48312
 H1786 H 0.71240 0.30079 0.45465
 H1787 H 0.70393 0.29834 0.42087
 H1788 H 0.70405 0.27776 0.39100
 H1789 H 0.76908 0.28434 0.38723
 H1790 H 0.76905 0.30394 0.41757
 H1791 H 0.76383 0.25212 0.37028
 H1792 H 0.76606 0.24140 0.33598
 H1793 H 0.71116 0.27473 0.32386
 H1794 H 0.70923 0.28581 0.35759
 C1795 C 0.24085 0.82224 0.94628
 C1796 C 0.23743 0.81298 0.96469
 C1797 C 0.23869 0.82488 0.98177
 C1798 C 0.24422 0.84627 0.98097
 C1799 C 0.24634 0.85560 0.96230
 C1800 C 0.24501 0.84377 0.94531
 C1801 C 0.23995 0.80971 0.92804
 C1802 C 0.23096 0.81799 0.91120
 C1803 C 0.23102 0.80691 0.89372
 C1804 C 0.23997 0.78714 0.89253
 C1805 C 0.24874 0.77867 0.90943
 C1806 C 0.24865 0.78980 0.92702
 C1807 C 0.24052 0.77599 0.87347
 C1808 C 0.25799 0.76555 0.86709
 C1809 C 0.25934 0.75782 0.84797
 C1810 C 0.24329 0.76056 0.83491
 C1811 C 0.22539 0.76973 0.84173
 C1812 C 0.22398 0.77721 0.86077
 H1813 H 0.23342 0.79657 0.96587
 H1814 H 0.23505 0.81719 0.99547
 H1815 H 0.24962 0.87216 0.96092
 H1816 H 0.24763 0.85149 0.93138
 H1817 H 0.22391 0.83315 0.91151
 H1818 H 0.22441 0.81411 0.88096
 H1819 H 0.25566 0.76345 0.90905
 H1820 H 0.25584 0.78306 0.93970
 H1821 H 0.27104 0.76439 0.87648
 H1822 H 0.27335 0.75093 0.84304
 H1823 H 0.21268 0.77183 0.83205
 H1824 H 0.21009 0.78459 0.86535
 C1825 C 0.25024 0.82571 0.05494
 C1826 C 0.23824 0.84351 0.05336
 C1827 C 0.23713 0.85455 0.03577
 C1828 C 0.24752 0.84783 0.01883
 C1829 C 0.26066 0.83073 0.02097
 C1830 C 0.26158 0.81948 0.03860
 C1831 C 0.25143 0.81440 0.07393
 C1832 C 0.24964 0.79251 0.07505
 C1833 C 0.25000 0.78220 0.09323
 C1834 C 0.25253 0.79361 0.11052
 C1835 C 0.25440 0.81547 0.10929
 C1836 C 0.25382 0.82572 0.09126
 C1837 C 0.25365 0.78317 0.12995
 C1838 C 0.26859 0.78959 0.14310
 C1839 C 0.26849 0.78214 0.16225
 C1840 C 0.25342 0.76802 0.16890
 C1841 C 0.23912 0.76051 0.15546
 C1842 C 0.23925 0.76804 0.13609
 H1843 H 0.22963 0.84896 0.06581
 H1844 H 0.22821 0.86857 0.03572
 H1845 H 0.27004 0.82587 0.00883
 H1846 H 0.27150 0.80620 0.03961
 H1847 H 0.24764 0.78343 0.06190
 H1848 H 0.24860 0.76534 0.09376
 H1849 H 0.25617 0.82470 0.12237
 H1850 H 0.25537 0.84257 0.09087
 H1851 H 0.28014 0.80086 0.13868
 H1852 H 0.28000 0.78796 0.17206
 H1853 H 0.22735 0.74962 0.16013
 H1854 H 0.22755 0.76282 0.12620
 C1855 C 0.74250 0.31988 0.54595
 C1856 C 0.74122 0.34173 0.54600
 C1857 C 0.74139 0.35304 0.52853
 C1858 C 0.74207 0.34287 0.51030
 C1859 C 0.74548 0.32110 0.51046
 C1860 C 0.74541 0.30975 0.52805
 C1861 C 0.74030 0.30797 0.56459
 C1862 C 0.75326 0.29146 0.56927
 C1863 C 0.75200 0.28165 0.58766
 C1864 C 0.73771 0.28818 0.60162
 C1865 C 0.72406 0.30387 0.59644
 C1866 C 0.72536 0.31365 0.57819
 C1867 C 0.73824 0.28039 0.62212
 C1868 C 0.73686 0.29476 0.63743
 C1869 C 0.73839 0.28823 0.65678
 C1870 C 0.74126 0.26709 0.66149
 C1871 C 0.74208 0.25247 0.64628
 C1872 C 0.74078 0.25911 0.62670
 H1873 H 0.73981 0.35010 0.55963
 H1874 H 0.73995 0.36985 0.52916
 H1875 H 0.74810 0.31260 0.49713
 H1876 H 0.74706 0.29296 0.52760
 H1877 H 0.76491 0.28674 0.55906
 H1878 H 0.76280 0.26970 0.59129
 H1879 H 0.71263 0.30895 0.60673
 H1880 H 0.71481 0.32594 0.57481
 H1881 H 0.73521 0.31127 0.63443
 H1882 H 0.73758 0.29990 0.66813
 H1883 H 0.74437 0.23610 0.64949
 H1884 H 0.74181 0.24769 0.61517
 C1885 C 0.25812 0.17353 0.55504
 C1886 C 0.24366 0.15741 0.55315
 C1887 C 0.24141 0.14672 0.53556
 C1888 C 0.25316 0.15213 0.51890
 C1889 C 0.26785 0.16822 0.52100
 C1890 C 0.27008 0.17895 0.53867
 C1891 C 0.26107 0.18388 0.57432
 C1892 C 0.26425 0.20562 0.57581
 C1893 C 0.26534 0.21522 0.59421
 C1894 C 0.26321 0.20325 0.61142
 C1895 C 0.26108 0.18146 0.60985
 C1896 C 0.26005 0.17193 0.59161
 C1897 C 0.26153 0.21309 0.63102
 C1898 C 0.24600 0.20633 0.64372
 C1899 C 0.24479 0.21377 0.66273
 C1900 C 0.25912 0.22825 0.66982
 C1901 C 0.27419 0.23591 0.65688
 C1902 C 0.27535 0.22841 0.63757
 H1903 H 0.23415 0.15281 0.56544
 H1904 H 0.23086 0.13371 0.53546
 H1905 H 0.27788 0.17225 0.50894
 H1906 H 0.28165 0.19100 0.53972
 H1907 H 0.26512 0.21528 0.56278
 H1908 H 0.26696 0.23203 0.59498
 H1909 H 0.25983 0.17177 0.62284
 H1910 H 0.25824 0.15512 0.59105
 H1911 H 0.23483 0.19497 0.63898
 H1912 H 0.23268 0.20778 0.67202
 H1913 H 0.28540 0.24710 0.66184
 H1914 H 0.28743 0.23398 0.62802
 C1915 C 0.76082 0.67713 0.05654
 C1916 C 0.74844 0.65921 0.05577
 C1917 C 0.74453 0.64941 0.03800
 C1918 C 0.75264 0.65736 0.02024
 C1919 C 0.76550 0.67515 0.02128
 C1920 C 0.76911 0.68519 0.03909
 C1921 C 0.76580 0.68647 0.07576
 C1922 C 0.76301 0.70783 0.07939
 C1923 C 0.76566 0.71585 0.09828
 C1924 C 0.77135 0.70266 0.11379
 C1925 C 0.77542 0.68162 0.10968
 C1926 C 0.77251 0.67361 0.09099
 C1927 C 0.77113 0.70997 0.13448
 C1928 C 0.76328 0.69663 0.14910
 C1929 C 0.76214 0.70303 0.16845
 C1930 C 0.76867 0.72313 0.17399
 C1931 C 0.77684 0.73655 0.15949
 C1932 C 0.77796 0.73006 0.13987
 H1933 H 0.74203 0.65252 0.06905
 H1934 H 0.73573 0.63506 0.03841
 H1935 H 0.77318 0.68104 0.00831
 H1936 H 0.77909 0.69873 0.03935
 H1937 H 0.75788 0.71807 0.06785
 H1938 H 0.76232 0.73209 0.10092
 H1939 H 0.78038 0.67113 0.12110
 H1940 H 0.77519 0.65719 0.08848
 H1941 H 0.75745 0.68125 0.14555
 H1942 H 0.75580 0.69213 0.17908
 H1943 H 0.78195 0.75213 0.16323
 H1944 H 0.78415 0.74071 0.12896
 C1945 C 0.14053 0.55703 0.24707
 C1946 C 0.12229 0.55777 0.25763
 C1947 C 0.11003 0.53994 0.25990
 C1948 C 0.11555 0.52048 0.25178
 C1949 C 0.13411 0.51999 0.24133
 C1950 C 0.14644 0.53785 0.23921
 C1951 C 0.15307 0.57632 0.24392
 C1952 C 0.17425 0.57579 0.24555
 C1953 C 0.18593 0.59408 0.24340
 C1954 C 0.17676 0.61334 0.23941
 C1955 C 0.15564 0.61376 0.23716
 C1956 C 0.14394 0.59549 0.23947
 C1957 C 0.18900 0.63306 0.23904
 C1958 C 0.18568 0.64891 0.22508
 C1959 C 0.19669 0.66784 0.22569
 C1960 C 0.21093 0.67137 0.24048
 C1961 C 0.21441 0.65535 0.25416
 C1962 C 0.20369 0.63647 0.25340
 H1963 H 0.11728 0.57229 0.26394
 H1964 H 0.09553 0.54183 0.26707
 H1965 H 0.13909 0.50602 0.23416
 H1966 H 0.16030 0.53680 0.23075
 H1967 H 0.18176 0.56132 0.24901
 H1968 H 0.20218 0.59319 0.24506
 H1969 H 0.14810 0.62835 0.23425
 H1970 H 0.12769 0.59637 0.23781
 H1971 H 0.17453 0.64669 0.21377
 H1972 H 0.19362 0.67992 0.21500
 H1973 H 0.22534 0.65748 0.26570
 H1974 H 0.20645 0.62474 0.26450
 C1975 C 0.64489 0.05402 0.74724
 C1976 C 0.64495 0.03819 0.73322
 C1977 C 0.63172 0.02108 0.73498
 C1978 C 0.61786 0.01921 0.75078
 C1979 C 0.61904 0.03443 0.76560
 C1980 C 0.63206 0.05180 0.76361
 C1981 C 0.65788 0.07296 0.74452
 C1982 C 0.64967 0.09297 0.74651
 C1983 C 0.66170 0.11085 0.74326
 C1984 C 0.68229 0.10909 0.73831
 C1985 C 0.69054 0.08908 0.73647
 C1986 C 0.67842 0.07120 0.73934
 C1987 C 0.69528 0.12808 0.73590
 C1988 C 0.71376 0.12964 0.74579
 C1989 C 0.72528 0.14810 0.74495
 C1990 C 0.71880 0.16529 0.73386
 C1991 C 0.70076 0.16345 0.72325
 C1992 C 0.68899 0.14509 0.72444
 H1993 H 0.65477 0.03941 0.72051
 H1994 H 0.63172 0.00954 0.72350
 H1995 H 0.60997 0.03326 0.77874
 H1996 H 0.63218 0.06351 0.77494
 H1997 H 0.63384 0.09476 0.75030
 H1998 H 0.65501 0.12608 0.74498
 H1999 H 0.70636 0.08729 0.73266
 H2000 H 0.68514 0.05597 0.73775
 H2001 H 0.71891 0.11684 0.75481
 H2002 H 0.73909 0.14910 0.75332
 H2003 H 0.69528 0.17654 0.71479
 H2004 H 0.67484 0.14424 0.71659
 C2005 C 0.85974 0.05692 0.25096
 C2006 C 0.88085 0.05826 0.25278
 C2007 C 0.89268 0.04042 0.25146
 C2008 C 0.88384 0.02041 0.24903
 C2009 C 0.86281 0.01942 0.24556
 C2010 C 0.85091 0.03735 0.24685
 C2011 C 0.84722 0.07603 0.25287
 C2012 C 0.83095 0.07957 0.24024
 C2013 C 0.82003 0.09811 0.24126
 C2014 C 0.82506 0.11361 0.25494
 C2015 C 0.84085 0.10977 0.26804
 C2016 C 0.85183 0.09123 0.26699
 C2017 C 0.81468 0.13414 0.25457
 C2018 C 0.80907 0.14450 0.27185
 C2019 C 0.79917 0.16381 0.27103
 C2020 C 0.79486 0.17318 0.25291
 C2021 C 0.80084 0.16284 0.23574
 C2022 C 0.81055 0.14369 0.23657
 H2023 H 0.88828 0.07319 0.25510
 H2024 H 0.90892 0.04214 0.25297
 H2025 H 0.85536 0.00494 0.24172
 H2026 H 0.83473 0.03583 0.24484
 H2027 H 0.82704 0.06830 0.22914
 H2028 H 0.80776 0.10044 0.23113
 H2029 H 0.84517 0.12140 0.27868
 H2030 H 0.86407 0.08885 0.27715
 H2031 H 0.81203 0.13752 0.28597
 H2032 H 0.79481 0.17129 0.28453
 H2033 H 0.79795 0.16948 0.22146
 H2034 H 0.81505 0.13642 0.22300
 C2035 C 0.36554 0.55890 0.75532
 C2036 C 0.36180 0.54160 0.76763
 C2037 C 0.37234 0.52298 0.76502
 C2038 C 0.38658 0.52074 0.74968
 C2039 C 0.39070 0.53845 0.73781
 C2040 C 0.38026 0.55708 0.74050
 C2041 C 0.35408 0.57871 0.75770
 C2042 C 0.34846 0.59034 0.74117
 C2043 C 0.33751 0.60871 0.74311
 C2044 C 0.33157 0.61597 0.76162
 C2045 C 0.33742 0.60459 0.77824
 C2046 C 0.34852 0.58615 0.77630
 C2047 C 0.31883 0.63500 0.76319
 C2048 C 0.32190 0.65007 0.77785
 C2049 C 0.31073 0.66866 0.77792
 C2050 C 0.29648 0.67248 0.76323
 C2051 C 0.29286 0.65697 0.74923
 C2052 C 0.30374 0.63851 0.74928
 H2053 H 0.35059 0.54236 0.77921
 H2054 H 0.36938 0.51015 0.77507
 H2055 H 0.40246 0.53837 0.72675
 H2056 H 0.38412 0.57029 0.73119
 H2057 H 0.35222 0.58506 0.72661
 H2058 H 0.33364 0.61725 0.72999
 H2059 H 0.33307 0.60968 0.79270
 H2060 H 0.35283 0.57778 0.78938
 H2061 H 0.33341 0.64784 0.78880
 H2062 H 0.31382 0.68036 0.78888
 H2063 H 0.28167 0.65924 0.73795
 H2064 H 0.30044 0.62702 0.73818
 C2065 C 0.36343 0.44236 0.74314
 C2066 C 0.35400 0.46183 0.74147
 C2067 C 0.36507 0.48047 0.74357
 C2068 C 0.38595 0.48032 0.74791
 C2069 C 0.39537 0.46065 0.74888
 C2070 C 0.38430 0.44204 0.74679
 C2071 C 0.35152 0.42249 0.74122
 C2072 C 0.35975 0.40499 0.73184
 C2073 C 0.34882 0.38609 0.73091
 C2074 C 0.32944 0.38422 0.73943
 C2075 C 0.32102 0.40190 0.74830
 C2076 C 0.33190 0.42073 0.74921
 C2077 C 0.31840 0.36374 0.74016
 C2078 C 0.30808 0.35769 0.75732
 C2079 C 0.29758 0.33870 0.75845
 C2080 C 0.29701 0.32501 0.74244
 C2081 C 0.30747 0.33090 0.72522
 C2082 C 0.31813 0.35005 0.72413
 H2083 H 0.33807 0.46271 0.73802
 H2084 H 0.35719 0.49491 0.74111
 H2085 H 0.41152 0.45971 0.75125
 H2086 H 0.39212 0.42737 0.74821
 H2087 H 0.37469 0.40586 0.72525
 H2088 H 0.35579 0.37278 0.72405
 H2089 H 0.30601 0.40112 0.75475
 H2090 H 0.32512 0.43378 0.75666
 H2091 H 0.30830 0.36757 0.77009
 H2092 H 0.28984 0.33481 0.77202
 H2093 H 0.30742 0.32075 0.71264
 H2094 H 0.32591 0.35428 0.71066
 C2095 C 0.86663 0.93978 0.25036
 C2096 C 0.86018 0.95608 0.26256
 C2097 C 0.87043 0.97544 0.26254
 C2098 C 0.88667 0.97956 0.24949
 C2099 C 0.89404 0.96245 0.23867
 C2100 C 0.88411 0.94312 0.23894
 C2101 C 0.85560 0.91923 0.24959
 C2102 C 0.85499 0.90775 0.23211
 C2103 C 0.84553 0.88809 0.23143
 C2104 C 0.83606 0.87941 0.24812
 C2105 C 0.83619 0.89115 0.26547
 C2106 C 0.84592 0.91068 0.26623
 C2107 C 0.82619 0.85824 0.24754
 C2108 C 0.82608 0.84525 0.26420
 C2109 C 0.81577 0.82607 0.26423
 C2110 C 0.80561 0.81908 0.24751
 C2111 C 0.80648 0.83144 0.23051
 C2112 C 0.81651 0.85090 0.23056
 H2113 H 0.84703 0.95406 0.27194
 H2114 H 0.86529 0.98742 0.27241
 H2115 H 0.90772 0.96378 0.22995
 H2116 H 0.89039 0.93066 0.23029
 H2117 H 0.86183 0.91393 0.21883
 H2118 H 0.84596 0.87959 0.21783
 H2119 H 0.82868 0.88531 0.27855
 H2120 H 0.84614 0.91886 0.28000
 H2121 H 0.83385 0.84991 0.27734
 H2122 H 0.81552 0.81677 0.27751
 H2123 H 0.79860 0.82653 0.21749
 H2124 H 0.81604 0.86046 0.21749
 C2125 C 0.63965 0.94422 0.75312
 C2126 C 0.62717 0.94770 0.73698
 C2127 C 0.61580 0.96595 0.73550
 C2128 C 0.61581 0.98083 0.75068
 C2129 C 0.62941 0.97765 0.76625
 C2130 C 0.64106 0.95963 0.76748
 C2131 C 0.65123 0.92459 0.75496
 C2132 C 0.67205 0.92521 0.75894
 C2133 C 0.68302 0.90672 0.76034
 C2134 C 0.67331 0.88722 0.75823
 C2135 C 0.65241 0.88657 0.75470
 C2136 C 0.64151 0.90509 0.75287
 C2137 C 0.68521 0.86772 0.75864
 C2138 C 0.67941 0.85067 0.77058
 C2139 C 0.69069 0.83224 0.77053
 C2140 C 0.70760 0.83033 0.75808
 C2141 C 0.71334 0.84749 0.74622
 C2142 C 0.70240 0.86599 0.74664
 H2143 H 0.62641 0.93635 0.72534
 H2144 H 0.60721 0.96814 0.72234
 H2145 H 0.63049 0.98896 0.77789
 H2146 H 0.65078 0.95747 0.77998
 H2147 H 0.67990 0.94003 0.76057
 H2148 H 0.69913 0.90762 0.76309
 H2149 H 0.64463 0.87173 0.75286
 H2150 H 0.62544 0.90421 0.74996
 H2151 H 0.66625 0.85170 0.78004
 H2152 H 0.68597 0.81938 0.77992
 H2153 H 0.72638 0.84665 0.73658
 H2154 H 0.70713 0.87885 0.73723
 C2155 C 0.13448 0.44212 0.25269
 C2156 C 0.12941 0.45248 0.26999
 C2157 C 0.11893 0.47127 0.26961
 C2158 C 0.11272 0.48069 0.25189
 C2159 C 0.11929 0.47086 0.23449
 C2160 C 0.12953 0.45179 0.23487
 C2161 C 0.14531 0.42167 0.25346
 C2162 C 0.15943 0.41626 0.23892
 C2163 C 0.17004 0.39751 0.24008
 C2164 C 0.16719 0.38366 0.25601
 C2165 C 0.15282 0.38889 0.27039
 C2166 C 0.14196 0.40750 0.26905
 C2167 C 0.17942 0.36415 0.25767
 C2168 C 0.17144 0.34572 0.26640
 C2169 C 0.18291 0.32739 0.26720
 C2170 C 0.20245 0.32701 0.25900
 C2171 C 0.21057 0.34547 0.25075
 C2172 C 0.19935 0.36378 0.25029
 H2173 H 0.13382 0.44624 0.28404
 H2174 H 0.11602 0.47810 0.28360
 H2175 H 0.11656 0.47791 0.22037
 H2176 H 0.13336 0.44458 0.22111
 H2177 H 0.16267 0.42669 0.22676
 H2178 H 0.18053 0.39392 0.22840
 H2179 H 0.15019 0.37883 0.28294
 H2180 H 0.13091 0.41074 0.28034
 H2181 H 0.15612 0.34522 0.27210
 H2182 H 0.17622 0.31332 0.27349
 H2183 H 0.22569 0.34571 0.24451
 H2184 H 0.20639 0.37768 0.24407
 C2185 C 0.05152 0.25753 0.83619
 C2186 C 0.03722 0.24127 0.83502
 C2187 C 0.01936 0.24206 0.84594
 C2188 C 0.01576 0.25879 0.85877
 C2189 C 0.02921 0.27608 0.85803
 C2190 C 0.04705 0.27526 0.84717
 C2191 C 0.07158 0.25560 0.82698
 C2192 C 0.08894 0.26052 0.83775
 C2193 C 0.10806 0.25844 0.82943
 C2194 C 0.11013 0.25148 0.81016
 C2195 C 0.09278 0.24653 0.79933
 C2196 C 0.07360 0.24847 0.80774
 C2197 C 0.13040 0.24992 0.80132
 C2198 C 0.13426 0.25835 0.78270
 C2199 C 0.15372 0.25796 0.77477
 C2200 C 0.16962 0.24898 0.78531
 C2201 C 0.16564 0.24021 0.80382
 C2202 C 0.14619 0.24074 0.81179
 H2203 H 0.04022 0.22757 0.82633
 H2204 H 0.00873 0.22910 0.84513
 H2205 H 0.02625 0.29024 0.86600
 H2206 H 0.05752 0.28840 0.84755
 H2207 H 0.08772 0.26577 0.85272
 H2208 H 0.12124 0.26254 0.83796
 H2209 H 0.09410 0.24104 0.78446
 H2210 H 0.06037 0.24462 0.79919
 H2211 H 0.12232 0.26568 0.77447
 H2212 H 0.15630 0.26474 0.76042
 H2213 H 0.17757 0.23316 0.81226
 H2214 H 0.14346 0.23400 0.82614
 C2215 C 0.55550 0.75864 0.33712
 C2216 C 0.54313 0.77599 0.33979
 C2217 C 0.52654 0.77473 0.35244
 C2218 C 0.52150 0.75588 0.36228
 C2219 C 0.53488 0.73902 0.36046
 C2220 C 0.55146 0.74032 0.34785
 C2221 C 0.57310 0.75965 0.32380
 C2222 C 0.57767 0.74246 0.31203
 C2223 C 0.59570 0.74211 0.30142
 C2224 C 0.60936 0.75900 0.30232
 C2225 C 0.60422 0.77678 0.31303
 C2226 C 0.58619 0.77709 0.32375
 C2227 C 0.62978 0.75709 0.29396
 C2228 C 0.63857 0.77336 0.28286
 C2229 C 0.65843 0.77175 0.27601
 C2230 C 0.66981 0.75399 0.28049
 C2231 C 0.66090 0.73770 0.29150
 C2232 C 0.64104 0.73921 0.29810
 H2233 H 0.54613 0.79043 0.33191
 H2234 H 0.51718 0.78836 0.35421
 H2235 H 0.53297 0.72482 0.36891
 H2236 H 0.56140 0.72705 0.34676
 H2237 H 0.56757 0.72903 0.31150
 H2238 H 0.59932 0.72838 0.29300
 H2239 H 0.61466 0.78989 0.31402
 H2240 H 0.58303 0.79048 0.33281
 H2241 H 0.63007 0.78728 0.27955
 H2242 H 0.66499 0.78452 0.26755
 H2243 H 0.66928 0.72377 0.29504
 H2244 H 0.63461 0.72661 0.30689
 C2245 C 0.56104 0.26169 0.14993
 C2246 C 0.55519 0.26375 0.13047
 C2247 C 0.53479 0.26334 0.12571
 C2248 C 0.51963 0.26092 0.14030
 C2249 C 0.52584 0.25817 0.15982
 C2250 C 0.54630 0.25897 0.16459
 C2251 C 0.58259 0.26156 0.15489
 C2252 C 0.59002 0.27487 0.16939
 C2253 C 0.61029 0.27407 0.17470
 C2254 C 0.62324 0.25971 0.16580
 C2255 C 0.61588 0.24662 0.15109
 C2256 C 0.59568 0.24768 0.14552
 C2257 C 0.64387 0.25730 0.17315
 C2258 C 0.65021 0.23769 0.17972
 C2259 C 0.66850 0.23582 0.18950
 C2260 C 0.68080 0.25351 0.19253
 C2261 C 0.67499 0.27291 0.18489
 C2262 C 0.65652 0.27483 0.17542
 H2263 H 0.56642 0.26570 0.11896
 H2264 H 0.53072 0.26483 0.11048
 H2265 H 0.51517 0.25480 0.17148
 H2266 H 0.55070 0.25678 0.17967
 H2267 H 0.58009 0.28572 0.17667
 H2268 H 0.61570 0.28411 0.18626
 H2269 H 0.62570 0.23542 0.14413
 H2270 H 0.59010 0.23724 0.13435
 H2271 H 0.64053 0.22403 0.17820
 H2272 H 0.67275 0.22069 0.19517
 H2273 H 0.68420 0.28679 0.18711
 H2274 H 0.65182 0.29006 0.17037
 C2275 C 0.06391 0.74707 0.65301
 C2276 C 0.05891 0.74832 0.63326
 C2277 C 0.03870 0.74877 0.62777
 C2278 C 0.02297 0.74810 0.64193
 C2279 C 0.02834 0.74541 0.66170
 C2280 C 0.04858 0.74538 0.66717
 C2281 C 0.08512 0.74774 0.65899
 C2282 C 0.09154 0.76277 0.67244
 C2283 C 0.11144 0.76299 0.67888
 C2284 C 0.12505 0.74798 0.67218
 C2285 C 0.11873 0.73311 0.65850
 C2286 C 0.09887 0.73314 0.65176
 C2287 C 0.14529 0.74705 0.68071
 C2288 C 0.15170 0.72857 0.68966
 C2289 C 0.16955 0.72844 0.70033
 C2290 C 0.18134 0.74673 0.70192
 C2291 C 0.17540 0.76494 0.69209
 C2292 C 0.15739 0.76514 0.68169
 H2293 H 0.07065 0.74939 0.62214
 H2294 H 0.03522 0.75002 0.61238
 H2295 H 0.01715 0.74306 0.67311
 H2296 H 0.05231 0.74376 0.68248
 H2297 H 0.08107 0.77419 0.67805
 H2298 H 0.11603 0.77442 0.68961
 H2299 H 0.12909 0.72141 0.65324
 H2300 H 0.09405 0.72143 0.64138
 H2301 H 0.14242 0.71452 0.68916
 H2302 H 0.17393 0.71416 0.70765
 H2303 H 0.18423 0.77925 0.69310
 H2304 H 0.15261 0.77952 0.67483
 C2305 C 0.95620 0.75224 0.68212
 C2306 C 0.95507 0.73587 0.66869
 C2307 C 0.96925 0.73434 0.65367
 C2308 C 0.98546 0.74882 0.65200
 C2309 C 0.98614 0.76554 0.66536
 C2310 C 0.97179 0.76714 0.68031
 C2311 C 0.93978 0.75466 0.69656
 C2312 C 0.92995 0.77387 0.69829
 C2313 C 0.91152 0.77499 0.70829
 C2314 C 0.90276 0.75690 0.71661
 C2315 C 0.91355 0.73819 0.71646
 C2316 C 0.93195 0.73708 0.70651
 C2317 C 0.88136 0.75680 0.72274
 C2318 C 0.86830 0.74120 0.71569
 C2319 C 0.84771 0.74165 0.71996
 C2320 C 0.83978 0.75766 0.73151
 C2321 C 0.85289 0.77319 0.73877
 C2322 C 0.87353 0.77284 0.73428
 H2323 H 0.94263 0.72470 0.66928
 H2324 H 0.96683 0.72214 0.64312
 H2325 H 0.99786 0.77746 0.66411
 H2326 H 0.97274 0.78013 0.69031
 H2327 H 0.93566 0.78761 0.69064
 H2328 H 0.90339 0.78956 0.70817
 H2329 H 0.90718 0.72415 0.72310
 H2330 H 0.93949 0.72219 0.70561
 H2331 H 0.87395 0.72889 0.70642
 H2332 H 0.83803 0.72938 0.71429
 H2333 H 0.84717 0.78570 0.74774
 H2334 H 0.88337 0.78506 0.73979
 C2335 C 0.45220 0.25804 0.18068
 C2336 C 0.45246 0.24203 0.16687
 C2337 C 0.46699 0.24194 0.15210
 C2338 C 0.48222 0.25758 0.15100
 C2339 C 0.48160 0.27384 0.16482
 C2340 C 0.46689 0.27398 0.17958
 C2341 C 0.43511 0.25904 0.19462
 C2342 C 0.42435 0.27766 0.19672
 C2343 C 0.40556 0.27750 0.20616
 C2344 C 0.39731 0.25871 0.21354
 C2345 C 0.40885 0.24051 0.21292
 C2346 C 0.42766 0.24068 0.20358
 C2347 C 0.37592 0.25759 0.21968
 C2348 C 0.36328 0.24182 0.21222
 C2349 C 0.34271 0.24134 0.21679
 C2350 C 0.33443 0.25654 0.22904
 C2351 C 0.34714 0.27222 0.23667
 C2352 C 0.36770 0.27282 0.23191
 H2353 H 0.44073 0.23006 0.16686
 H2354 H 0.46549 0.22997 0.14116
 H2355 H 0.49246 0.28664 0.16399
 H2356 H 0.46678 0.28671 0.18990
 H2357 H 0.42970 0.29197 0.18980
 H2358 H 0.39685 0.29170 0.20642
 H2359 H 0.40289 0.22594 0.21885
 H2360 H 0.43588 0.22622 0.20242
 H2361 H 0.36925 0.23011 0.20247
 H2362 H 0.33333 0.22899 0.21082
 H2363 H 0.34115 0.28415 0.24617
 H2364 H 0.37720 0.28513 0.23778
 C2365 C 0.44554 0.76524 0.34613
 C2366 C 0.46359 0.76500 0.33524
 C2367 C 0.48207 0.76233 0.34445
 C2368 C 0.48317 0.76078 0.36501
 C2369 C 0.46488 0.76146 0.37580
 C2370 C 0.44639 0.76369 0.36653
 C2371 C 0.42578 0.76527 0.33620
 C2372 C 0.40919 0.77562 0.34443
 C2373 C 0.39015 0.77397 0.33595
 C2374 C 0.38741 0.76220 0.31892
 C2375 C 0.40415 0.75247 0.31033
 C2376 C 0.42308 0.75382 0.31898
 C2377 C 0.36714 0.75977 0.31025
 C2378 C 0.36124 0.74068 0.30187
 C2379 C 0.34242 0.73856 0.29306
 C2380 C 0.32904 0.75535 0.29284
 C2381 C 0.33466 0.77425 0.30163
 C2382 C 0.35362 0.77650 0.31012
 H2383 H 0.46341 0.76623 0.31946
 H2384 H 0.49518 0.76060 0.33513
 H2385 H 0.46491 0.75958 0.39154
 H2386 H 0.43271 0.76325 0.37534
 H2387 H 0.41086 0.78478 0.35756
 H2388 H 0.37750 0.78152 0.34301
 H2389 H 0.40262 0.74365 0.29698
 H2390 H 0.43546 0.74537 0.31243
 H2391 H 0.37113 0.72734 0.30216
 H2392 H 0.33829 0.72378 0.28651
 H2393 H 0.32464 0.78750 0.30140
 H2394 H 0.35785 0.79149 0.31618
 C2395 C 0.94994 0.26870 0.82817
 C2396 C 0.96253 0.28524 0.83399
 C2397 C 0.97741 0.28192 0.84799
 C2398 C 0.97942 0.26223 0.85712
 C2399 C 0.96736 0.24552 0.85029
 C2400 C 0.95266 0.24880 0.83627
 C2401 C 0.93325 0.27201 0.81442
 C2402 C 0.92914 0.25709 0.80004
 C2403 C 0.91104 0.25760 0.78983
 C2404 C 0.89679 0.27313 0.79374
 C2405 C 0.90169 0.28908 0.80695
 C2406 C 0.91981 0.28852 0.81723
 C2407 C 0.87617 0.27118 0.78576
 C2408 C 0.85927 0.27471 0.79784
 C2409 C 0.83979 0.27043 0.79119
 C2410 C 0.83687 0.26234 0.77241
 C2411 C 0.85372 0.25931 0.76016
 C2412 C 0.87318 0.26379 0.76674
 H2413 H 0.96094 0.30064 0.82761
 H2414 H 0.98729 0.29482 0.85187
 H2415 H 0.96931 0.22971 0.85549
 H2416 H 0.94318 0.23573 0.83197
 H2417 H 0.93946 0.24439 0.79743
 H2418 H 0.90768 0.24503 0.77983
 H2419 H 0.89112 0.30145 0.80995
 H2420 H 0.92268 0.30019 0.82827
 H2421 H 0.86112 0.28002 0.81271
 H2422 H 0.82706 0.27297 0.80093
 H2423 H 0.85191 0.25348 0.74546
 H2424 H 0.88591 0.26120 0.75703
 C2425 C 0.56126 1.00511 0.70075
 C2426 C 0.56109 0.98734 0.71288
 C2427 C 0.57393 0.98621 0.72903
 C2428 C 0.58811 1.00233 0.73294
 C2429 C 0.58700 1.02070 0.72136
 C2430 C 0.57398 1.02193 0.70548
 C2431 C 0.54945 1.00575 0.68239
 C2432 C 0.53924 1.02394 0.67668
 C2433 C 0.53094 1.02562 0.65797
 C2434 C 0.53300 1.00927 0.64461
 C2435 C 0.54224 0.99071 0.65068
 C2436 C 0.55026 0.98891 0.66941
 C2437 C 0.52778 1.01214 0.62379
 C2438 C 0.54270 1.00872 0.60957
 C2439 C 0.53805 1.00970 0.58981
 C2440 C 0.51821 1.01384 0.58364
 C2441 C 0.50341 1.01833 0.59788
 C2442 C 0.50822 1.01762 0.61785
 H2443 H 0.55106 0.97428 0.70981
 H2444 H 0.57322 0.97241 0.73825
 H2445 H 0.59600 1.03446 0.72442
 H2446 H 0.57430 1.03595 0.69653
 H2447 H 0.53827 1.03710 0.68647
 H2448 H 0.52392 1.04008 0.65356
 H2449 H 0.54393 0.97787 0.64060
 H2450 H 0.55817 0.97480 0.67334
 H2451 H 0.55798 1.00490 0.61381
 H2452 H 0.54997 1.00641 0.57937
 H2453 H 0.48801 1.02155 0.59365
 H2454 H 0.49652 1.02047 0.62864
 C2455 C 0.06320 0.50750 1.19837
 C2456 C 0.07097 0.52520 1.20765
 C2457 C 0.08256 0.52334 1.22449
 C2458 C 0.08714 0.50360 1.23273
 C2459 C 0.07800 0.48594 1.22385
 C2460 C 0.06661 0.48782 1.20677
 C2461 C 0.05268 0.50968 1.17939
 C2462 C 0.05817 0.49700 1.16362
 C2463 C 0.05038 0.50073 1.14504
 C2464 C 0.03675 0.51704 1.14183
 C2465 C 0.03040 0.52907 1.15774
 C2466 C 0.03844 0.52554 1.17635
 C2467 C 0.03033 0.52199 1.12164
 C2468 C 0.00978 0.52348 1.11666
 C2469 C 0.00410 0.52519 1.09697
 C2470 C 0.01894 0.52557 1.08210
 C2471 C 0.03947 0.52584 1.08740
 C2472 C 0.04507 0.52398 1.10689
 H2473 H 0.06856 0.54061 1.20155
 H2474 H 0.08790 0.53775 1.23069
 H2475 H 0.07959 0.47053 1.23017
 H2476 H 0.06036 0.47388 1.20016
 H2477 H 0.06920 0.48481 1.16548
 H2478 H 0.05534 0.49110 1.13301
 H2479 H 0.01990 0.54171 1.15562
 H2480 H 0.03385 0.53544 1.18830
 H2481 H -0.00184 0.52211 1.12785
 H2482 H -0.01181 0.52484 1.09333
 H2483 H 0.05130 0.52638 1.07635
 H2484 H 0.06100 0.52335 1.11040
 C2485 C -0.06882 0.00125 1.19348
 C2486 C -0.05875 0.00745 1.21050
 C2487 C -0.06934 0.00897 1.22826
 C2488 C -0.09013 0.00360 1.22947
 C2489 C -0.10045 0.00017 1.21179
 C2490 C -0.08992 -0.00137 1.19416
 C2491 C -0.05756 -0.00342 1.17519
 C2492 C -0.06285 -0.02120 1.16437
 C2493 C -0.05351 -0.02515 1.14645
 C2494 C -0.03866 -0.01139 1.13886
 C2495 C -0.03259 0.00585 1.15012
 C2496 C -0.04194 0.00978 1.16816
 C2497 C -0.03127 -0.01386 1.11846
 C2498 C -0.01082 -0.01040 1.11329
 C2499 C -0.00466 -0.01081 1.09362
 C2500 C -0.01895 -0.01430 1.07887
 C2501 C -0.03915 -0.01858 1.08416
 C2502 C -0.04522 -0.01845 1.10369
 H2503 H -0.04256 0.01029 1.21026
 H2504 H -0.06099 0.01380 1.24099
 H2505 H -0.11663 -0.00276 1.21187
 H2506 H -0.09825 -0.00522 1.18108
 H2507 H -0.07444 -0.03198 1.16967
 H2508 H -0.05824 -0.03876 1.13829
 H2509 H -0.02132 0.01683 1.14455
 H2510 H -0.03755 0.02358 1.17622
 H2511 H 0.00026 -0.00696 1.12441
 H2512 H 0.01097 -0.00727 1.08987
 H2513 H -0.05047 -0.02131 1.07308
 H2514 H -0.06110 -0.02093 1.10713
 C2515 C 0.43254 0.49229 0.69339
 C2516 C 0.44289 0.49121 0.71112
 C2517 C 0.43264 0.49424 0.72882
 C2518 C 0.41183 0.49932 0.72923
 C2519 C 0.40168 0.50038 0.71119
 C2520 C 0.41187 0.49697 0.69358
 C2521 C 0.44294 0.48778 0.67468
 C2522 C 0.43419 0.47362 0.66160
 C2523 C 0.44274 0.47070 0.64315
 C2524 C 0.46005 0.48216 0.63719
 C2525 C 0.46950 0.49544 0.65071
 C2526 C 0.46105 0.49815 0.66937
 C2527 C 0.46649 0.48210 0.61632
 C2528 C 0.48702 0.48268 0.61056
 C2529 C 0.49243 0.48406 0.59066
 C2530 C 0.47736 0.48520 0.57634
 C2531 C 0.45694 0.48409 0.58222
 C2532 C 0.45160 0.48261 0.60185
 H2533 H 0.45876 0.48718 0.71132
 H2534 H 0.44105 0.49178 0.74207
 H2535 H 0.38563 0.50351 0.71080
 H2536 H 0.40354 0.49785 0.68005
 H2537 H 0.42047 0.46511 0.66555
 H2538 H 0.43537 0.45997 0.63325
 H2539 H 0.48276 0.50458 0.64653
 H2540 H 0.46809 0.50910 0.67929
 H2541 H 0.49883 0.48223 0.62142
 H2542 H 0.50828 0.48486 0.58655
 H2543 H 0.44490 0.48471 0.57161
 H2544 H 0.43568 0.48260 0.60570
 C2545 C 0.43795 0.50598 -0.20002
 C2546 C 0.42293 0.49032 -0.20074
 C2547 C 0.41036 0.48845 -0.21695
 C2548 C 0.41295 0.50175 -0.23334
 C2549 C 0.42751 0.51806 -0.23203
 C2550 C 0.43990 0.52006 -0.21569
 C2551 C 0.45113 0.50772 -0.18267
 C2552 C 0.45439 0.52704 -0.17349
 C2553 C 0.46469 0.52804 -0.15570
 C2554 C 0.47194 0.50975 -0.14690
 C2555 C 0.46994 0.49073 -0.15687
 C2556 C 0.45957 0.48971 -0.17449
 C2557 C 0.47888 0.50980 -0.12633
 C2558 C 0.47122 0.49442 -0.11350
 C2559 C 0.47608 0.49473 -0.09382
 C2560 C 0.48882 0.51039 -0.08630
 C2561 C 0.49710 0.52554 -0.09910
 C2562 C 0.49196 0.52538 -0.11900
 H2563 H 0.42060 0.47974 -0.18849
 H2564 H 0.39846 0.47674 -0.21628
 H2565 H 0.42945 0.52917 -0.24391
 H2566 H 0.45119 0.53246 -0.21541
 H2567 H 0.44802 0.54116 -0.17952
 H2568 H 0.46588 0.54287 -0.14828
 H2569 H 0.47571 0.47645 -0.15059
 H2570 H 0.45766 0.47472 -0.18150
 H2571 H 0.46085 0.48243 -0.11857
 H2572 H 0.46962 0.48271 -0.08437
 H2573 H 0.50694 0.53777 -0.09362
 H2574 H 0.49807 0.53743 -0.12863
 C2575 C -0.06296 1.00044 0.30055
 C2576 C -0.05877 0.98772 0.28443
 C2577 C -0.07159 0.98756 0.26825
 C2578 C -0.08852 1.00077 0.26732
 C2579 C -0.09351 1.01199 0.28438
 C2580 C -0.08074 1.01216 0.30050
 C2581 C -0.04948 1.00093 0.31784
 C2582 C -0.04583 1.01975 0.32778
 C2583 C -0.03516 1.01988 0.34534
 C2584 C -0.02795 1.00119 0.35335
 C2585 C -0.03051 0.98259 0.34279
 C2586 C -0.04116 0.98246 0.32523
 C2587 C -0.02024 1.00060 0.37367
 C2588 C -0.02744 0.98494 0.38645
 C2589 C -0.02230 0.98517 0.40610
 C2590 C -0.00970 1.00099 0.41358
 C2591 C -0.00173 1.01627 0.40075
 C2592 C -0.00715 1.01620 0.38094
 H2593 H -0.04543 0.97808 0.28419
 H2594 H -0.06790 0.97751 0.25612
 H2595 H -0.10737 1.02069 0.28551
 H2596 H -0.08502 1.02121 0.31314
 H2597 H -0.05173 1.03431 0.32225
 H2598 H -0.03353 1.03443 0.35318
 H2599 H -0.02491 0.96797 0.34850
 H2600 H -0.04372 0.96771 0.31798
 H2601 H -0.03778 0.97291 0.38144
 H2602 H -0.02851 0.97304 0.41558
 H2603 H 0.00801 1.02862 0.40617
 H2604 H -0.00135 1.02845 0.37136
 C2605 C 0.06219 0.49597 0.30453
 C2606 C 0.05407 0.49112 0.28630
 C2607 C 0.06579 0.49364 0.26928
 C2608 C 0.08594 0.50153 0.26989
 C2609 C 0.09330 0.50750 0.28845
 C2610 C 0.08173 0.50455 0.30542
 C2611 C 0.05112 0.49064 0.32281
 C2612 C 0.06012 0.47743 0.33652
 C2613 C 0.05083 0.47356 0.35456
 C2614 C 0.03249 0.48321 0.35955
 C2615 C 0.02292 0.49558 0.34537
 C2616 C 0.03212 0.49917 0.32706
 C2617 C 0.02488 0.48217 0.38010
 C2618 C 0.00407 0.48107 0.38480
 C2619 C -0.00250 0.48153 0.40442
 C2620 C 0.01166 0.48336 0.41955
 C2621 C 0.03238 0.48385 0.41472
 C2622 C 0.03886 0.48335 0.39538
 H2623 H 0.03898 0.48443 0.28532
 H2624 H 0.05888 0.48873 0.25587
 H2625 H 0.10865 0.51328 0.29009
 H2626 H 0.08830 0.50846 0.31940
 H2627 H 0.07459 0.47037 0.33335
 H2628 H 0.05836 0.46348 0.36490
 H2629 H 0.00887 0.50333 0.34875
 H2630 H 0.02489 0.50933 0.31660
 H2631 H -0.00708 0.48004 0.37334
 H2632 H -0.01856 0.48116 0.40769
 H2633 H 0.04376 0.48510 0.42597
 H2634 H 0.05495 0.48466 0.39241
 C2635 C 0.55999 0.00033 -0.19896
 C2636 C 0.56127 0.01742 -0.21195
 C2637 C 0.57481 0.01736 -0.22781
 C2638 C 0.58785 0.00040 -0.23110
 C2639 C 0.58535 -0.01725 -0.21870
 C2640 C 0.57201 -0.01710 -0.20278
 C2641 C 0.54715 0.00100 -0.18091
 C2642 C 0.53804 -0.01727 -0.17304
 C2643 C 0.52867 -0.01712 -0.15458
 C2644 C 0.52811 0.00133 -0.14363
 C2645 C 0.53581 0.01987 -0.15216
 C2646 C 0.54531 0.01970 -0.17046
 C2647 C 0.52186 0.00098 -0.12267
 C2648 C 0.53351 0.01221 -0.10922
 C2649 C 0.52866 0.01183 -0.08944
 C2650 C 0.51197 0.00012 -0.08224
 C2651 C 0.50018 -0.01123 -0.09562
 C2652 C 0.50516 -0.01089 -0.11568
 H2653 H 0.55181 0.03090 -0.20988
 H2654 H 0.57530 0.03080 -0.23750
 H2655 H 0.59347 -0.03153 -0.22110
 H2656 H 0.57149 -0.03061 -0.19320
 H2657 H 0.53867 -0.03187 -0.18087
 H2658 H 0.52286 -0.03165 -0.14846
 H2659 H 0.53524 0.03446 -0.14429
 H2660 H 0.55215 0.03407 -0.17590
 H2661 H 0.54677 0.02106 -0.11393
 H2662 H 0.53822 0.02081 -0.07975
 H2663 H 0.48726 -0.02042 -0.09060
 H2664 H 0.49591 -0.01976 -0.12571
 C2665 C 0.69514 0.60722 -0.00416
 C2666 C 0.69494 0.62733 0.00389
 C2667 C 0.71288 0.63894 0.00584
 C2668 C 0.73180 0.63058 0.00050
 C2669 C 0.73174 0.61063 -0.00823
 C2670 C 0.71374 0.59909 -0.01034
 C2671 C 0.67598 0.59485 -0.00608
 C2672 C 0.67183 0.58335 -0.02307
 C2673 C 0.65380 0.57168 -0.02467
 C2674 C 0.63965 0.57103 -0.00922
 C2675 C 0.64379 0.58263 0.00770
 C2676 C 0.66167 0.59442 0.00922
 C2677 C 0.62073 0.55817 -0.01037
 C2678 C 0.61420 0.54635 0.00590
 C2679 C 0.59575 0.53550 0.00568
 C2680 C 0.58314 0.53617 -0.01079
 C2681 C 0.59002 0.54730 -0.02743
 C2682 C 0.60867 0.55813 -0.02723
 H2683 H 0.68079 0.63431 0.00829
 H2684 H 0.71197 0.65466 0.01145
 H2685 H 0.74554 0.60397 -0.01385
 H2686 H 0.71440 0.58372 -0.01678
 H2687 H 0.68246 0.58353 -0.03520
 H2688 H 0.65108 0.56286 -0.03785
 H2689 H 0.63310 0.58269 0.01977
 H2690 H 0.66444 0.60297 0.02254
 H2691 H 0.62331 0.54569 0.01896
 H2692 H 0.59114 0.52698 0.01874
 H2693 H 0.58072 0.54823 -0.04034
 H2694 H 0.61328 0.56713 -0.04000
 C2695 C 0.19738 1.10050 0.49324
 C2696 C 0.21653 1.09157 0.49070
 C2697 C 0.23426 1.10345 0.49315
 C2698 C 0.23351 1.12464 0.49876
 C2699 C 0.21416 1.13362 0.50060
 C2700 C 0.19645 1.12173 0.49814
 C2701 C 0.17847 1.08775 0.49072
 C2702 C 0.16123 1.09633 0.48195
 C2703 C 0.14330 1.08455 0.48025
 C2704 C 0.14211 1.06389 0.48731
 C2705 C 0.15948 1.05518 0.49568
 C2706 C 0.17739 1.06693 0.49737
 C2707 C 0.12258 1.05186 0.48695
 C2708 C 0.11673 1.03942 0.50307
 C2709 C 0.09798 1.02907 0.50350
 C2710 C 0.08446 1.03079 0.48781
 C2711 C 0.09048 1.04275 0.47140
 C2712 C 0.10930 1.05323 0.47101
 H2713 H 0.21783 1.07544 0.48627
 H2714 H 0.24848 1.09599 0.49001
 H2715 H 0.21278 1.15003 0.50398
 H2716 H 0.18200 1.12919 0.50023
 H2717 H 0.16158 1.11219 0.47638
 H2718 H 0.13020 1.09185 0.47388
 H2719 H 0.15921 1.03925 0.50107
 H2720 H 0.19027 1.05983 0.50432
 H2721 H 0.12637 1.03821 0.51573
 H2722 H 0.09393 1.02003 0.51641
 H2723 H 0.08044 1.04449 0.45909
 H2724 H 0.11341 1.06250 0.45826
 C2725 C 0.19125 -0.10204 1.00014
 C2726 C 0.19062 -0.12376 1.00304
 C2727 C 0.20828 -0.13548 1.00215
 C2728 C 0.22740 -0.12592 0.99873
 C2729 C 0.22770 -0.10439 0.99414
 C2730 C 0.20999 -0.09258 0.99524
 C2731 C 0.17237 -0.08949 1.00197
 C2732 C 0.16912 -0.07208 0.98982
 C2733 C 0.15115 -0.06081 0.99115
 C2734 C 0.13575 -0.06672 1.00451
 C2735 C 0.13917 -0.08384 1.01697
 C2736 C 0.15724 -0.09500 1.01577
 C2737 C 0.11591 -0.05570 1.00470
 C2738 C 0.10478 -0.05276 1.02212
 C2739 C 0.08591 -0.04285 1.02187
 C2740 C 0.07781 -0.03553 1.00419
 C2741 C 0.08904 -0.03843 0.98687
 C2742 C 0.10768 -0.04840 0.98711
 H2743 H 0.17641 -0.13183 1.00597
 H2744 H 0.20713 -0.15215 1.00473
 H2745 H 0.24150 -0.09642 0.98969
 H2746 H 0.21111 -0.07594 0.99253
 H2747 H 0.18025 -0.06739 0.97891
 H2748 H 0.14931 -0.04748 0.98155
 H2749 H 0.12767 -0.08900 1.02734
 H2750 H 0.15930 -0.10802 1.02569
 H2751 H 0.11069 -0.05799 1.03599
 H2752 H 0.07770 -0.04090 1.03548
 H2753 H 0.08331 -0.03327 0.97290
 H2754 H 0.11543 -0.05079 0.97333
 C2755 C 0.68277 0.39152 0.49223
 C2756 C 0.68597 0.37517 0.50555
 C2757 C 0.70382 0.36376 0.50513
 C2758 C 0.71981 0.36882 0.49194
 C2759 C 0.71597 0.38440 0.47779
 C2760 C 0.69793 0.39580 0.47812
 C2761 C 0.66364 0.40382 0.49316
 C2762 C 0.66370 0.42539 0.48908
 C2763 C 0.64587 0.43695 0.49068
 C2764 C 0.62754 0.42728 0.49655
 C2765 C 0.62744 0.40574 0.50053
 C2766 C 0.64517 0.39416 0.49874
 C2767 C 0.60843 0.43940 0.49790
 C2768 C 0.59465 0.43618 0.51348
 C2769 C 0.57614 0.44670 0.51404
 C2770 C 0.57086 0.46044 0.49886
 C2771 C 0.58488 0.46400 0.48354
 C2772 C 0.60344 0.45372 0.48313
 H2773 H 0.67470 0.37118 0.51656
 H2774 H 0.70473 0.35077 0.51522
 H2775 H 0.72716 0.38796 0.46656
 H2776 H 0.69577 0.40779 0.46714
 H2777 H 0.67761 0.43348 0.48502
 H2778 H 0.64648 0.45355 0.48761
 H2779 H 0.61350 0.39773 0.50467
 H2780 H 0.64431 0.37752 0.50154
 H2781 H 0.59814 0.42539 0.52519
 H2782 H 0.56568 0.44353 0.52599
 H2783 H 0.58136 0.47451 0.47162
 H2784 H 0.61360 0.45644 0.47086
 C2785 C -0.20348 0.39348 0.49026
 C2786 C -0.20354 0.37164 0.48866
 C2787 C -0.22166 0.36020 0.48931
 C2788 C -0.24057 0.37009 0.49116
 C2789 C -0.24035 0.39193 0.49392
 C2790 C -0.22212 0.40344 0.49320
 C2791 C -0.18396 0.40555 0.48931
 C2792 C -0.18061 0.42287 0.50142
 C2793 C -0.16190 0.43342 0.50125
 C2794 C -0.14595 0.42691 0.48904
 C2795 C -0.14949 0.40994 0.47655
 C2796 C -0.16822 0.39944 0.47666
 C2797 C -0.12552 0.43716 0.49002
 C2798 C -0.11333 0.44010 0.47320
 C2799 C -0.09396 0.44930 0.47447
 C2800 C -0.08632 0.45579 0.49260
 C2801 C -0.09859 0.45286 0.50935
 C2802 C -0.11782 0.44367 0.50808
 H2803 H -0.18949 0.36328 0.48712
 H2804 H -0.22098 0.34338 0.48800
 H2805 H -0.25408 0.40034 0.49687
 H2806 H -0.22267 0.42022 0.49479
 H2807 H -0.19226 0.42798 0.51145
 H2808 H -0.15989 0.44663 0.51084
 H2809 H -0.13758 0.40436 0.46704
 H2810 H -0.17034 0.38641 0.46687
 H2811 H -0.11881 0.43546 0.45900
 H2812 H -0.08499 0.45132 0.46127
 H2813 H -0.09330 0.45749 0.52362
 H2814 H -0.12650 0.44129 0.52141
 C2815 C 0.30459 -0.10465 -0.00222
 C2816 C 0.30188 -0.12271 -0.01347
 C2817 C 0.28358 -0.13391 -0.01297
 C2818 C 0.26696 -0.12724 -0.00153
 C2819 C 0.27042 -0.11018 0.01100
 C2820 C 0.28866 -0.09873 0.01028
 C2821 C 0.32414 -0.09251 -0.00325
 C2822 C 0.33188 -0.08241 0.01332
 C2823 C 0.35043 -0.07160 0.01247
 C2824 C 0.36205 -0.07081 -0.00489
 C2825 C 0.35418 -0.08062 -0.02155
 C2826 C 0.33547 -0.09119 -0.02077
 C2827 C 0.38245 -0.06028 -0.00532
 C2828 C 0.38994 -0.04983 -0.02217
 C2829 C 0.40900 -0.03977 -0.02215
 C2830 C 0.42084 -0.03969 -0.00520
 C2831 C 0.41350 -0.05041 0.01146
 C2832 C 0.39473 -0.06066 0.01135
 H2833 H 0.31408 -0.12855 -0.02246
 H2834 H 0.28275 -0.14807 -0.02144
 H2835 H 0.25873 -0.10536 0.02112
 H2836 H 0.29012 -0.08510 0.01942
 H2837 H 0.32385 -0.08315 0.02715
 H2838 H 0.35564 -0.06387 0.02553
 H2839 H 0.36264 -0.08054 -0.03516
 H2840 H 0.32991 -0.09836 -0.03399
 H2841 H 0.38092 -0.04901 -0.03526
 H2842 H 0.41421 -0.03162 -0.03520
 H2843 H 0.42236 -0.05100 0.02468
 H2844 H 0.38995 -0.06904 0.02441
 C2845 C 0.30926 1.10354 0.50550
 C2846 C 0.29247 1.09938 0.51772
 C2847 C 0.27458 1.11065 0.51570
 C2848 C 0.27257 1.12614 0.50106
 C2849 C 0.28984 1.13088 0.48946
 C2850 C 0.30774 1.11959 0.49148
 C2851 C 0.32822 1.09117 0.50729
 C2852 C 0.33917 1.08542 0.49051
 C2853 C 0.35673 1.07355 0.49202
 C2854 C 0.36391 1.06703 0.51036
 C2855 C 0.35310 1.07295 0.52718
 C2856 C 0.33546 1.08482 0.52566
 C2857 C 0.38253 1.05407 0.51172
 C2858 C 0.39695 1.05741 0.52645
 C2859 C 0.41502 1.04608 0.52674
 C2860 C 0.41909 1.03114 0.51230
 C2861 C 0.40429 1.02730 0.49805
 C2862 C 0.38630 1.03854 0.49779
 H2863 H 0.29304 1.08719 0.52872
 H2864 H 0.26207 1.10709 0.52553
 H2865 H 0.28986 1.14358 0.47899
 H2866 H 0.32059 1.12374 0.48228
 H2867 H 0.33399 1.08982 0.47612
 H2868 H 0.36481 1.06960 0.47875
 H2869 H 0.35809 1.06813 0.54152
 H2870 H 0.32757 1.08916 0.53892
 H2871 H 0.39461 1.06932 0.53736
 H2872 H 0.42610 1.04955 0.53787
 H2873 H 0.40675 1.01581 0.48677
 H2874 H 0.37537 1.03516 0.48651
 C2875 C -0.19187 0.60998 1.00499
 C2876 C -0.20914 0.60348 1.01559
 C2877 C -0.22733 0.61431 1.01398
 C2878 C -0.22907 0.63172 1.00133
 C2879 C -0.21136 0.63866 0.99141
 C2880 C -0.19320 0.62778 0.99297
 C2881 C -0.17252 0.59830 1.00646
 C2882 C -0.16056 0.59495 0.98973
 C2883 C -0.14258 0.58374 0.99092
 C2884 C -0.13600 0.57557 1.00888
 C2885 C -0.14781 0.57913 1.02569
 C2886 C -0.16590 0.59028 1.02448
 C2887 C -0.11703 0.56322 1.00985
 C2888 C -0.10319 0.56583 1.02520
 C2889 C -0.08484 0.55498 1.02528
 C2890 C -0.07997 0.54123 1.01005
 C2891 C -0.09418 0.53818 0.99509
 C2892 C -0.11240 0.54899 0.99500
 H2893 H -0.20867 0.58990 1.02507
 H2894 H -0.24015 0.60903 1.02272
 H2895 H -0.21132 0.65279 0.98267
 H2896 H -0.18000 0.63363 0.98510
 H2897 H -0.16526 0.60073 0.97560
 H2898 H -0.13372 0.58156 0.97773
 H2899 H -0.14325 0.57298 1.03973
 H2900 H -0.17462 0.59278 1.03770
 H2901 H -0.10624 0.57675 1.03682
 H2902 H -0.07425 0.55781 1.03699
 H2903 H -0.09112 0.52762 0.98317
 H2904 H -0.12288 0.54626 0.98319
 C2905 C -0.00052 0.69120 0.60075
 C2906 C -0.00311 0.71042 0.59132
 C2907 C -0.00301 0.72887 0.60198
 C2908 C -0.00109 0.72849 0.62253
 C2909 C 0.00184 0.70896 0.63173
 C2910 C 0.00201 0.69059 0.62102
 C2911 C 0.00008 0.67182 0.58940
 C2912 C 0.01572 0.65758 0.59230
 C2913 C 0.01615 0.63904 0.58180
 C2914 C 0.00079 0.63432 0.56840
 C2915 C -0.01476 0.64874 0.56540
 C2916 C -0.01504 0.66740 0.57574
 C2917 C 0.00066 0.61416 0.55803
 C2918 C -0.00558 0.61299 0.53849
 C2919 C -0.00647 0.59380 0.52903
 C2920 C -0.00091 0.57548 0.53887
 C2921 C 0.00568 0.57669 0.55828
 C2922 C 0.00634 0.59582 0.56779
 H2923 H -0.00452 0.71120 0.57558
 H2924 H -0.00372 0.74329 0.59378
 H2925 H 0.00416 0.70802 0.64736
 H2926 H 0.00413 0.67587 0.62857
 H2927 H 0.02769 0.66089 0.60258
 H2928 H 0.02853 0.62843 0.58414
 H2929 H -0.02697 0.64539 0.55541
 H2930 H -0.02731 0.67817 0.57343
 H2931 H -0.00973 0.62692 0.53050
 H2932 H -0.01145 0.59333 0.51401
 H2933 H 0.00986 0.56277 0.56629
 H2934 H 0.01086 0.59615 0.58296
 C2935 C 0.50043 0.20176 0.09973
 C2936 C 0.49648 0.22068 0.09024
 C2937 C 0.49531 0.23913 0.10083
 C2938 C 0.49729 0.23897 0.12137
 C2939 C 0.50188 0.21982 0.13060
 C2940 C 0.50329 0.20148 0.11995
 C2941 C 0.50165 0.18230 0.08855
 C2942 C 0.51783 0.16869 0.09136
 C2943 C 0.51865 0.14996 0.08117
 C2944 C 0.50318 0.14445 0.06816
 C2945 C 0.48708 0.15824 0.06526
 C2946 C 0.48639 0.17706 0.07529
 C2947 C 0.50349 0.12416 0.05803
 C2948 C 0.49683 0.12258 0.03866
 C2949 C 0.49612 0.10327 0.02946
 C2950 C 0.50230 0.08521 0.03936
 C2951 C 0.50941 0.08682 0.05856
 C2952 C 0.50989 0.10611 0.06785
 H2953 H 0.49482 0.22126 0.07451
 H2954 H 0.49348 0.25341 0.09262
 H2955 H 0.50435 0.21915 0.14621
 H2956 H 0.50646 0.18701 0.12756
 H2957 H 0.52988 0.17262 0.10137
 H2958 H 0.53142 0.13983 0.08344
 H2959 H 0.47475 0.15426 0.05560
 H2960 H 0.47368 0.18729 0.07308
 H2961 H 0.49217 0.13628 0.03060
 H2962 H 0.49079 0.10249 0.01456
 H2963 H 0.51412 0.07311 0.06658
 H2964 H 0.51479 0.10678 0.08289
 C2965 C -0.01138 0.20381 0.90916
 C2966 C 0.00713 0.20731 0.89946
 C2967 C 0.00975 0.22439 0.88700
 C2968 C -0.00633 0.23813 0.88341
 C2969 C -0.02477 0.23462 0.89357
 C2970 C -0.02734 0.21756 0.90608
 C2971 C -0.01388 0.18573 0.92241
 C2972 C -0.03149 0.17328 0.92178
 C2973 C -0.03282 0.15486 0.93268
 C2974 C -0.01653 0.14861 0.94430
 C2975 C 0.00058 0.16169 0.94575
 C2976 C 0.00186 0.18013 0.93495
 C2977 C -0.01636 0.12761 0.95323
 C2978 C -0.00776 0.12442 0.97167
 C2979 C -0.00528 0.10424 0.97892
 C2980 C -0.01149 0.08693 0.96788
 C2981 C -0.02080 0.09020 0.94977
 C2982 C -0.02314 0.11034 0.94249
 H2983 H 0.01971 0.19689 0.90160
 H2984 H 0.02468 0.22704 0.88086
 H2985 H -0.03715 0.24541 0.89201
 H2986 H -0.04164 0.21541 0.91372
 H2987 H -0.04383 0.17729 0.91221
 H2988 H -0.04630 0.14516 0.93155
 H2989 H 0.01343 0.15719 0.95447
 H2990 H 0.01542 0.18973 0.93597
 H2991 H -0.00264 0.13751 0.98034
 H2992 H 0.00167 0.10221 0.99306
 H2993 H -0.02576 0.07718 0.94093
 H2994 H -0.02951 0.11232 0.92808
 C2995 C 0.48589 0.69293 0.39744
 C2996 C 0.48843 0.69684 0.37740
 C2997 C 0.49432 0.71663 0.37076
 C2998 C 0.49820 0.73302 0.38398
 C2999 C 0.49485 0.72900 0.40407
 C3000 C 0.48916 0.70920 0.41067
 C3001 C 0.48049 0.67184 0.40476
 C3002 C 0.46751 0.66934 0.42101
 C3003 C 0.46477 0.64979 0.42971
 C3004 C 0.47471 0.63241 0.42212
 C3005 C 0.48658 0.63457 0.40513
 C3006 C 0.48952 0.65418 0.39655
 C3007 C 0.47455 0.61258 0.43301
 C3008 C 0.47084 0.59367 0.42344
 C3009 C 0.47260 0.57481 0.43353
 C3010 C 0.47847 0.57466 0.45321
 C3011 C 0.48183 0.59362 0.46284
 C3012 C 0.47974 0.61246 0.45284
 H3013 H 0.48560 0.68467 0.36683
 H3014 H 0.49576 0.71928 0.35517
 H3015 H 0.49603 0.74110 0.41492
 H3016 H 0.48738 0.70664 0.42625
 H3017 H 0.45994 0.68261 0.42733
 H3018 H 0.45538 0.64831 0.44271
 H3019 H 0.49451 0.62133 0.39918
 H3020 H 0.49974 0.65566 0.38415
 H3021 H 0.46685 0.59352 0.40812
 H3022 H 0.47000 0.56035 0.42577
 H3023 H 0.48624 0.59388 0.47804
 H3024 H 0.48290 0.62693 0.46040
 C3025 C 0.51744 0.79746 0.42333
 C3026 C 0.50185 0.80240 0.41045
 C3027 C 0.49743 0.78946 0.39484
 C3028 C 0.50798 0.77069 0.39219
 C3029 C 0.52466 0.76671 0.40444
 C3030 C 0.52928 0.77992 0.41994
 C3031 C 0.52138 0.81140 0.43977
 C3032 C 0.53989 0.82218 0.44102
 C3033 C 0.54153 0.83965 0.45300
 C3034 C 0.52465 0.84636 0.46381
 C3035 C 0.50694 0.83402 0.46416
 C3036 C 0.50531 0.81669 0.45216
 C3037 C 0.52385 0.86781 0.47143
 C3038 C 0.51324 0.87204 0.48876
 C3039 C 0.50857 0.89252 0.49360
 C3040 C 0.51450 0.90914 0.48121
 C3041 C 0.52616 0.90497 0.46448
 C3042 C 0.53076 0.88450 0.45963
 H3043 H 0.49319 0.81650 0.41239
 H3044 H 0.48575 0.79444 0.38497
 H3045 H 0.53372 0.75293 0.40230
 H3046 H 0.54174 0.77625 0.42949
 H3047 H 0.55244 0.81822 0.43151
 H3048 H 0.55543 0.84879 0.45273
 H3049 H 0.49364 0.83885 0.47221
 H3050 H 0.49095 0.80837 0.45139
 H3051 H 0.50790 0.85944 0.49818
 H3052 H 0.49993 0.89526 0.50683
 H3053 H 0.53123 0.91744 0.45479
 H3054 H 0.53868 0.88170 0.44600
 C3055 C 0.00134 0.30317 0.91939
 C3056 C 0.01648 0.28854 0.91595
 C3057 C 0.01474 0.27462 0.90060
 C3058 C -0.00210 0.27498 0.88803
 C3059 C -0.01799 0.28865 0.89254
 C3060 C -0.01610 0.30284 0.90779
 C3061 C 0.00438 0.31964 0.93408
 C3062 C -0.01197 0.32698 0.94518
 C3063 C -0.00963 0.34465 0.95673
 C3064 C 0.00914 0.35516 0.95744
 C3065 C 0.02583 0.34686 0.94755
 C3066 C 0.02346 0.32934 0.93587
 C3067 C 0.01057 0.37604 0.96626
 C3068 C 0.02081 0.39220 0.95614
 C3069 C 0.01989 0.41263 0.96277
 C3070 C 0.00862 0.41734 0.97961
 C3071 C -0.00084 0.40103 0.99025
 C3072 C 0.00013 0.38054 0.98362
 H3073 H 0.02979 0.28796 0.92504
 H3074 H 0.02680 0.26359 0.89831
 H3075 H -0.03199 0.28846 0.88450
 H3076 H -0.02812 0.31388 0.91019
 H3077 H -0.02674 0.31953 0.94437
 H3078 H -0.02279 0.35079 0.96414
 H3079 H 0.04053 0.35451 0.94811
 H3080 H 0.03633 0.32414 0.92741
 H3081 H 0.02872 0.38924 0.94254
 H3082 H 0.02748 0.42480 0.95431
 H3083 H -0.00946 0.40413 1.00341
 H3084 H -0.00769 0.36829 0.99178
 C3085 C 0.47926 0.31240 0.09857
 C3086 C 0.46619 0.29519 0.10086
 C3087 C 0.47178 0.27847 0.11277
 C3088 C 0.49077 0.27845 0.12214
 C3089 C 0.50250 0.29702 0.12147
 C3090 C 0.49700 0.31355 0.10952
 C3091 C 0.47543 0.32878 0.08404
 C3092 C 0.49054 0.33359 0.07021
 C3093 C 0.48875 0.35092 0.05810
 C3094 C 0.47182 0.36383 0.05963
 C3095 C 0.45611 0.35835 0.07277
 C3096 C 0.45786 0.34079 0.08486
 C3097 C 0.47206 0.38407 0.04920
 C3098 C 0.46719 0.40241 0.05922
 C3099 C 0.47131 0.42190 0.05075
 C3100 C 0.48048 0.42332 0.03219
 C3101 C 0.48418 0.40496 0.02172
 C3102 C 0.47992 0.38553 0.03012
 H3103 H 0.45216 0.29432 0.09282
 H3104 H 0.46175 0.26500 0.11391
 H3105 H 0.51614 0.29893 0.12989
 H3106 H 0.50683 0.32720 0.10852
 H3107 H 0.50414 0.32436 0.06934
 H3108 H 0.50123 0.35490 0.04834
 H3109 H 0.44286 0.36802 0.07411
 H3110 H 0.44607 0.33721 0.09550
 H3111 H 0.46133 0.40173 0.07403
 H3112 H 0.46812 0.43579 0.05909
 H3113 H 0.49081 0.40558 0.00720
 H3114 H 0.48350 0.37159 0.02198
 C3115 C -0.01245 0.80420 0.60059
 C3116 C -0.02691 0.78816 0.60266
 C3117 C -0.02265 0.77058 0.61400
 C3118 C -0.00366 0.76847 0.62312
 C3119 C 0.00986 0.78571 0.62238
 C3120 C 0.00564 0.80312 0.61099
 C3121 C -0.01561 0.82185 0.58717
 C3122 C -0.00010 0.82763 0.57406
 C3123 C -0.00190 0.84535 0.56244
 C3124 C -0.01928 0.85765 0.56370
 C3125 C -0.03516 0.85149 0.57634
 C3126 C -0.03339 0.83356 0.58794
 C3127 C -0.01976 0.87764 0.55292
 C3128 C -0.02560 0.89598 0.56244
 C3129 C -0.02271 0.91537 0.55334
 C3130 C -0.01384 0.91667 0.53463
 C3131 C -0.00910 0.89822 0.52473
 C3132 C -0.01210 0.87889 0.53377
 H3133 H -0.04117 0.78892 0.59502
 H3134 H -0.03391 0.75819 0.61513
 H3135 H 0.02377 0.78606 0.63054
 H3136 H 0.01662 0.81582 0.61024
 H3137 H 0.01365 0.81864 0.57313
 H3138 H 0.01069 0.84989 0.55304
 H3139 H -0.04874 0.86071 0.57746
 H3140 H -0.04551 0.82930 0.59801
 H3141 H -0.03137 0.89542 0.57729
 H3142 H -0.02663 0.92934 0.56127
 H3143 H -0.00265 0.89869 0.51014
 H3144 H -0.00782 0.86492 0.52601
 C3145 C 0.26172 0.32874 0.05467
 C3146 C 0.24526 0.32344 0.04270
 C3147 C 0.24190 0.33428 0.02508
 C3148 C 0.25420 0.35154 0.01918
 C3149 C 0.27155 0.35542 0.03082
 C3150 C 0.27522 0.34425 0.04791
 C3151 C 0.26480 0.31896 0.07438
 C3152 C 0.27361 0.33079 0.08941
 C3153 C 0.27656 0.32224 0.10793
 C3154 C 0.27021 0.30173 0.11241
 C3155 C 0.26161 0.28965 0.09741
 C3156 C 0.25899 0.29815 0.07860
 C3157 C 0.27126 0.29387 0.13300
 C3158 C 0.27534 0.27284 0.13757
 C3159 C 0.27517 0.26578 0.15711
 C3160 C 0.27085 0.27963 0.17242
 C3161 C 0.26752 0.30073 0.16777
 C3162 C 0.26757 0.30767 0.14846
 H3163 H 0.23470 0.31119 0.04704
 H3164 H 0.22955 0.32902 0.01600
 H3165 H 0.28291 0.36701 0.02712
 H3166 H 0.28883 0.34799 0.05591
 H3167 H 0.27791 0.34698 0.08711
 H3168 H 0.28361 0.33195 0.11889
 H3169 H 0.25639 0.27384 0.10032
 H3170 H 0.25239 0.28840 0.06742
 H3171 H 0.27844 0.26181 0.12606
 H3172 H 0.27763 0.24941 0.16017
 H3173 H 0.26413 0.31190 0.17910
 H3174 H 0.26394 0.32384 0.14568
 C3175 C 0.76354 0.82619 0.55673
 C3176 C 0.76720 0.81637 0.53881
 C3177 C 0.76228 0.82629 0.52117
 C3178 C 0.75265 0.84589 0.52099
 C3179 C 0.74919 0.85555 0.53918
 C3180 C 0.75443 0.84583 0.55670
 C3181 C 0.76982 0.81658 0.57549
 C3182 C 0.78091 0.82842 0.58897
 C3183 C 0.78521 0.82036 0.60746
 C3184 C 0.77821 0.80035 0.61313
 C3185 C 0.76798 0.78808 0.59925
 C3186 C 0.76394 0.79608 0.58056
 C3187 C 0.77979 0.79334 0.63393
 C3188 C 0.78269 0.77224 0.63906
 C3189 C 0.78193 0.76576 0.65873
 C3190 C 0.77808 0.78025 0.67360
 C3191 C 0.77617 0.80142 0.66847
 C3192 C 0.77696 0.80785 0.64899
 H3193 H 0.77464 0.80141 0.53844
 H3194 H 0.76669 0.81884 0.50769
 H3195 H 0.74288 0.87104 0.53986
 H3196 H 0.75155 0.85382 0.57032
 H3197 H 0.78597 0.84412 0.58527
 H3198 H 0.79360 0.83006 0.61753
 H3199 H 0.76221 0.77269 0.60312
 H3200 H 0.75537 0.78665 0.57041
 H3201 H 0.78514 0.76068 0.62785
 H3202 H 0.78336 0.74933 0.66220
 H3203 H 0.77325 0.81304 0.67953
 H3204 H 0.77433 0.82414 0.64572
 C3205 C 0.25086 0.67393 0.55661
 C3206 C 0.23832 0.65614 0.55606
 C3207 C 0.23603 0.64489 0.53884
 C3208 C 0.24577 0.65138 0.52129
 C3209 C 0.25971 0.66824 0.52247
 C3210 C 0.26175 0.67976 0.53971
 C3211 C 0.25294 0.68575 0.57508
 C3212 C 0.25096 0.70758 0.57546
 C3213 C 0.25187 0.71838 0.59322
 C3214 C 0.25520 0.70753 0.61079
 C3215 C 0.25737 0.68574 0.61028
 C3216 C 0.25618 0.67498 0.59268
 C3217 C 0.25663 0.71850 0.62978
 C3218 C 0.27221 0.71335 0.64265
 C3219 C 0.27234 0.72107 0.66161
 C3220 C 0.25685 0.73415 0.66831
 C3221 C 0.24191 0.74048 0.65508
 C3222 C 0.24182 0.73271 0.63591
 H3223 H 0.23012 0.65096 0.56902
 H3224 H 0.22665 0.63095 0.53950
 H3225 H 0.26877 0.67280 0.50986
 H3226 H 0.27211 0.69299 0.53995
 H3227 H 0.24829 0.71621 0.56208
 H3228 H 0.25021 0.73518 0.59322
 H3229 H 0.25975 0.67695 0.62362
 H3230 H 0.25784 0.65818 0.59280
 H3231 H 0.28403 0.70278 0.63820
 H3232 H 0.28429 0.71616 0.67128
 H3233 H 0.22978 0.75051 0.65982
 H3234 H 0.22963 0.73691 0.62623
 C3235 C 0.75554 0.18387 0.04716
 C3236 C 0.74283 0.16618 0.04744
 C3237 C 0.74147 0.15322 0.03123
 C3238 C 0.75214 0.15794 0.01371
 C3239 C 0.76637 0.17459 0.01425
 C3240 C 0.76777 0.18762 0.03057
 C3241 C 0.75624 0.19779 0.06446
 C3242 C 0.77475 0.20549 0.07157
 C3243 C 0.77542 0.21661 0.08909
 C3244 C 0.75760 0.22033 0.09987
 C3245 C 0.73900 0.21362 0.09217
 C3246 C 0.73834 0.20250 0.07469
 C3247 C 0.75853 0.22903 0.11996
 C3248 C 0.74360 0.24261 0.12705
 C3249 C 0.74324 0.24846 0.14678
 C3250 C 0.75768 0.24063 0.15978
 C3251 C 0.77309 0.22785 0.15243
 C3252 C 0.77352 0.22217 0.13282
 H3253 H 0.73408 0.16214 0.06041
 H3254 H 0.73196 0.13942 0.03263
 H3255 H 0.77605 0.17791 0.00175
 H3256 H 0.77815 0.20082 0.03008
 H3257 H 0.78881 0.20212 0.06405
 H3258 H 0.78998 0.22181 0.09450
 H3259 H 0.72501 0.21605 0.10014
 H3260 H 0.72379 0.19711 0.06940
 H3261 H 0.73193 0.24832 0.11745
 H3262 H 0.73118 0.25831 0.15201
 H3263 H 0.78454 0.22167 0.16202
 H3264 H 0.78508 0.21150 0.12797
 C3265 C 0.74901 0.17744 0.93914
 C3266 C 0.75023 0.15561 0.94019
 C3267 C 0.74953 0.14528 0.95817
 C3268 C 0.74822 0.15641 0.97585
 C3269 C 0.74509 0.17817 0.97460
 C3270 C 0.74593 0.18858 0.95650
 C3271 C 0.75158 0.18829 0.91995
 C3272 C 0.76371 0.20644 0.91805
 C3273 C 0.76806 0.21505 0.89955
 C3274 C 0.76043 0.20557 0.88263
 C3275 C 0.74754 0.18805 0.88467
 C3276 C 0.74315 0.17955 0.90305
 C3277 C 0.76615 0.21323 0.86276
 C3278 C 0.77094 0.19877 0.84818
 C3279 C 0.77354 0.20518 0.82882
 C3280 C 0.77147 0.22627 0.82348
 C3281 C 0.76828 0.24106 0.83825
 C3282 C 0.76564 0.23457 0.85778
 H3283 H 0.75252 0.14647 0.92713
 H3284 H 0.75108 0.12847 0.95838
 H3285 H 0.74213 0.18733 0.98747
 H3286 H 0.74415 0.20536 0.95607
 H3287 H 0.77053 0.21346 0.93079
 H3288 H 0.77799 0.22858 0.89841
 H3289 H 0.74098 0.18075 0.87193
 H3290 H 0.73337 0.16588 0.90403
 H3291 H 0.77199 0.18229 0.85165
 H3292 H 0.77625 0.19343 0.81783
 H3293 H 0.76649 0.25739 0.83456
 H3294 H 0.76206 0.24607 0.86875
 C3295 C 0.23911 0.67657 0.44839
 C3296 C 0.24076 0.65477 0.44787
 C3297 C 0.24125 0.64309 0.46511
 C3298 C 0.24065 0.65279 0.48355
 C3299 C 0.23711 0.67452 0.48393
 C3300 C 0.23688 0.68630 0.46657
 C3301 C 0.24026 0.68881 0.42987
 C3302 C 0.25280 0.70668 0.42814
 C3303 C 0.25612 0.71626 0.40985
 C3304 C 0.24697 0.70809 0.39305
 C3305 C 0.23347 0.69106 0.39509
 C3306 C 0.23018 0.68153 0.41324
 C3307 C 0.25223 0.71609 0.37318
 C3308 C 0.25579 0.70176 0.35817
 C3309 C 0.25856 0.70855 0.33897
 C3310 C 0.25792 0.72989 0.33417
 C3311 C 0.25576 0.74446 0.34930
 C3312 C 0.25292 0.73759 0.36871
 H3313 H 0.24238 0.64673 0.43409
 H3314 H 0.24302 0.62635 0.46407
 H3315 H 0.23456 0.68262 0.49749
 H3316 H 0.23484 0.70303 0.46735
 H3317 H 0.26083 0.71257 0.44071
 H3318 H 0.26657 0.72938 0.40870
 H3319 H 0.22578 0.68475 0.38248
 H3320 H 0.22010 0.66809 0.41419
 H3321 H 0.25595 0.68515 0.36123
 H3322 H 0.26055 0.69694 0.32771
 H3323 H 0.25516 0.76100 0.34599
 H3324 H 0.25034 0.74898 0.38005
 C3325 C 0.73812 0.82375 0.44820
 C3326 C 0.73181 0.81555 0.46633
 C3327 C 0.73587 0.82643 0.48362
 C3328 C 0.74733 0.84524 0.48334
 C3329 C 0.75323 0.85341 0.46490
 C3330 C 0.74883 0.84278 0.44769
 C3331 C 0.73307 0.81313 0.42962
 C3332 C 0.72435 0.82451 0.41433
 C3333 C 0.72169 0.81552 0.39600
 C3334 C 0.72804 0.79502 0.39232
 C3335 C 0.73573 0.78321 0.40796
 C3336 C 0.73813 0.79217 0.42648
 C3337 C 0.72857 0.78703 0.37188
 C3338 C 0.72435 0.76597 0.36742
 C3339 C 0.72638 0.75868 0.34815
 C3340 C 0.73289 0.77229 0.33308
 C3341 C 0.73652 0.79340 0.33757
 C3342 C 0.73445 0.80061 0.35661
 H3343 H 0.72309 0.80113 0.46706
 H3344 H 0.72971 0.82026 0.49720
 H3345 H 0.76087 0.86840 0.46364
 H3346 H 0.75370 0.84956 0.43386
 H3347 H 0.71998 0.84057 0.41649
 H3348 H 0.71520 0.82490 0.38448
 H3349 H 0.74087 0.76743 0.40565
 H3350 H 0.74489 0.78308 0.43806
 H3351 H 0.71967 0.75511 0.37883
 H3352 H 0.72353 0.74233 0.34518
 H3353 H 0.74147 0.80440 0.32638
 H3354 H 0.73821 0.81680 0.35944
 C3355 C 0.24322 0.32682 0.94689
 C3356 C 0.23747 0.34777 0.94734
 C3357 C 0.23953 0.35955 0.96425
 C3358 C 0.24683 0.35083 0.98184
 C3359 C 0.25303 0.32971 0.98110
 C3360 C 0.25094 0.31785 0.96400
 C3361 C 0.24244 0.31518 0.92812
 C3362 C 0.23534 0.29438 0.92718
 C3363 C 0.23445 0.28395 0.90917
 C3364 C 0.24094 0.29407 0.89187
 C3365 C 0.24790 0.31485 0.89293
 C3366 C 0.24869 0.32521 0.91074
 C3367 C 0.24147 0.28323 0.87269
 C3368 C 0.25855 0.28593 0.86060
 C3369 C 0.25863 0.27848 0.84158
 C3370 C 0.24169 0.26792 0.83398
 C3371 C 0.22499 0.26388 0.84636
 C3372 C 0.22486 0.27155 0.86563
 H3373 H 0.23154 0.35526 0.93440
 H3374 H 0.23567 0.37575 0.96306
 H3375 H 0.26021 0.32232 0.99340
 H3376 H 0.25612 0.30188 0.96396
 H3377 H 0.23030 0.28629 0.94032
 H3378 H 0.22910 0.26791 0.90880
 H3379 H 0.25281 0.32317 0.87986
 H3380 H 0.25448 0.34110 0.91092
 H3381 H 0.27178 0.29433 0.86575
 H3382 H 0.27196 0.28140 0.83259
 H3383 H 0.21178 0.25570 0.84090
 H3384 H 0.21149 0.26919 0.87468
 C3385 C 0.85079 0.44995 0.75752
 C3386 C 0.85080 0.46488 0.74230
 C3387 C 0.86500 0.48133 0.74180
 C3388 C 0.87977 0.48352 0.75647
 C3389 C 0.87822 0.46971 0.77266
 C3390 C 0.86449 0.45297 0.77286
 C3391 C 0.83735 0.43088 0.75708
 C3392 C 0.83145 0.42036 0.77442
 C3393 C 0.82103 0.40120 0.77385
 C3394 C 0.81558 0.39219 0.75593
 C3395 C 0.82030 0.40341 0.73866
 C3396 C 0.83127 0.42220 0.73920
 C3397 C 0.80585 0.37092 0.75508
 C3398 C 0.80914 0.35807 0.73878
 C3399 C 0.80009 0.33833 0.73764
 C3400 C 0.78800 0.33047 0.75301
 C3401 C 0.78503 0.34281 0.76960
 C3402 C 0.79361 0.36296 0.77052
 H3403 H 0.83998 0.46385 0.73057
 H3404 H 0.86485 0.49213 0.72956
 H3405 H 0.88762 0.47136 0.78537
 H3406 H 0.86514 0.44211 0.78500
 H3407 H 0.83510 0.42668 0.78859
 H3408 H 0.81783 0.39323 0.78753
 H3409 H 0.81581 0.39758 0.72453
 H3410 H 0.83551 0.42948 0.72544
 H3411 H 0.81899 0.36301 0.72688
 H3412 H 0.80291 0.32896 0.72481
 H3413 H 0.77569 0.33708 0.78161
 H3414 H 0.79039 0.37231 0.78323
 C3415 C 0.35921 0.94719 0.26191
 C3416 C 0.38000 0.94578 0.25779
 C3417 C 0.39192 0.96377 0.25504
 C3418 C 0.38345 0.98391 0.25568
 C3419 C 0.36265 0.98518 0.26051
 C3420 C 0.35075 0.96715 0.26336
 C3421 C 0.34639 0.92796 0.26449
 C3422 C 0.32651 0.92725 0.25734
 C3423 C 0.31482 0.90893 0.25876
 C3424 C 0.32269 0.89071 0.26725
 C3425 C 0.34234 0.89157 0.27496
 C3426 C 0.35403 0.90996 0.27361
 C3427 C 0.31095 0.87065 0.26679
 C3428 C 0.31138 0.85618 0.28239
 C3429 C 0.30102 0.83693 0.28119
 C3430 C 0.29013 0.83170 0.26431
 C3431 C 0.28945 0.84639 0.24894
 C3432 C 0.29970 0.86550 0.25015
 H3433 H 0.38711 0.93072 0.25649
 H3434 H 0.40797 0.96199 0.25230
 H3435 H 0.35546 1.00003 0.26275
 H3436 H 0.33493 0.96889 0.26718
 H3437 H 0.32012 0.94069 0.25010
 H3438 H 0.29963 0.90897 0.25294
 H3439 H 0.34895 0.87784 0.28148
 H3440 H 0.36913 0.91001 0.27962
 H3441 H 0.31977 0.85972 0.29550
 H3442 H 0.30192 0.82597 0.29327
 H3443 H 0.28124 0.84301 0.23568
 H3444 H 0.29928 0.87601 0.23771
 C3445 C 0.13737 0.93815 0.74280
 C3446 C 0.14169 0.95556 0.73080
 C3447 C 0.13066 0.97395 0.73270
 C3448 C 0.11531 0.97587 0.74705
 C3449 C 0.11046 0.95798 0.75842
 C3450 C 0.12142 0.93955 0.75644
 C3451 C 0.14959 0.91873 0.74135
 C3452 C 0.15428 0.90728 0.75827
 C3453 C 0.16608 0.88937 0.75718
 C3454 C 0.17376 0.88241 0.73916
 C3455 C 0.16886 0.89364 0.72215
 C3456 C 0.15694 0.91159 0.72323
 C3457 C 0.18704 0.86372 0.73844
 C3458 C 0.18557 0.84893 0.72334
 C3459 C 0.19715 0.83065 0.72380
 C3460 C 0.21028 0.82680 0.73943
 C3461 C 0.21233 0.84203 0.75400
 C3462 C 0.20099 0.86023 0.75345
 H3463 H 0.15384 0.95512 0.72011
 H3464 H 0.13429 0.98695 0.72304
 H3465 H 0.09791 0.95787 0.76864
 H3466 H 0.11712 0.92622 0.76543
 H3467 H 0.14912 0.91235 0.77250
 H3468 H 0.16917 0.88093 0.77056
 H3469 H 0.17455 0.88880 0.70804
 H3470 H 0.15341 0.91982 0.70985
 H3471 H 0.17495 0.85108 0.71157
 H3472 H 0.19519 0.81916 0.71241
 H3473 H 0.22255 0.83973 0.76609
 H3474 H 0.20302 0.87152 0.76499
 C3475 C 0.63745 0.44031 0.23997
 C3476 C 0.64187 0.45850 0.22908
 C3477 C 0.63037 0.47651 0.23157
 C3478 C 0.61447 0.47720 0.24548
 C3479 C 0.60949 0.45849 0.25557
 C3480 C 0.62090 0.44048 0.25299
 C3481 C 0.65011 0.42129 0.23803
 C3482 C 0.65431 0.40902 0.25457
 C3483 C 0.66627 0.39129 0.25304
 C3484 C 0.67458 0.38534 0.23496
 C3485 C 0.67028 0.39747 0.21833
 C3486 C 0.65820 0.41525 0.21985
 C3487 C 0.68776 0.36664 0.23379
 C3488 C 0.68664 0.35266 0.21800
 C3489 C 0.69792 0.33421 0.21804
 C3490 C 0.71038 0.32935 0.23393
 C3491 C 0.71214 0.34377 0.24922
 C3492 C 0.70111 0.36218 0.24908
 H3493 H 0.65443 0.45897 0.21883
 H3494 H 0.63405 0.49015 0.22274
 H3495 H 0.59648 0.45740 0.26521
 H3496 H 0.61649 0.42650 0.26102
 H3497 H 0.64859 0.41328 0.26884
 H3498 H 0.66891 0.38214 0.26611
 H3499 H 0.67650 0.39340 0.20420
 H3500 H 0.65508 0.42418 0.20676
 H3501 H 0.67646 0.35557 0.20601
 H3502 H 0.69621 0.32334 0.20610
 H3503 H 0.72186 0.34066 0.26153
 H3504 H 0.70286 0.37284 0.26118
 C3505 C 0.63696 0.55450 0.25845
 C3506 C 0.64583 0.53480 0.26064
 C3507 C 0.63486 0.51650 0.25678
 C3508 C 0.61467 0.51720 0.25016
 C3509 C 0.60556 0.53702 0.24914
 C3510 C 0.61658 0.55534 0.25285
 C3511 C 0.64908 0.57401 0.26159
 C3512 C 0.64034 0.59188 0.26988
 C3513 C 0.65158 0.61050 0.27165
 C3514 C 0.67179 0.61168 0.26514
 C3515 C 0.68070 0.59360 0.25754
 C3516 C 0.66950 0.57509 0.25571
 C3517 C 0.68327 0.63187 0.26486
 C3518 C 0.69542 0.63702 0.24859
 C3519 C 0.70631 0.65576 0.24780
 C3520 C 0.70539 0.67014 0.26325
 C3521 C 0.69315 0.66514 0.27959
 C3522 C 0.68212 0.64620 0.28035
 H3523 H 0.66124 0.53348 0.26570
 H3524 H 0.64223 0.50183 0.25958
 H3525 H 0.58977 0.53831 0.24526
 H3526 H 0.60916 0.57019 0.25107
 H3527 H 0.62475 0.59153 0.27488
 H3528 H 0.64424 0.62415 0.27749
 H3529 H 0.69634 0.59385 0.25268
 H3530 H 0.67674 0.56179 0.24911
 H3531 H 0.69632 0.62664 0.23620
 H3532 H 0.71544 0.65894 0.23489
 H3533 H 0.69203 0.67586 0.29170
 H3534 H 0.67290 0.64265 0.29313
 C3535 C 0.13982 0.05308 0.75733
 C3536 C 0.11943 0.05423 0.75184
 C3537 C 0.10799 0.03606 0.74858
 C3538 C 0.11666 0.01605 0.74999
 C3539 C 0.13698 0.01508 0.75622
 C3540 C 0.14836 0.03324 0.75962
 C3541 C 0.15220 0.07245 0.76047
 C3542 C 0.17270 0.07326 0.75479
 C3543 C 0.18414 0.09162 0.75679
 C3544 C 0.17540 0.10981 0.76436
 C3545 C 0.15509 0.10888 0.77062
 C3546 C 0.14363 0.09043 0.76871
 C3547 C 0.18711 0.12990 0.76436
 C3548 C 0.18538 0.14441 0.77965
 C3549 C 0.19608 0.16354 0.77891
 C3550 C 0.20859 0.16858 0.76278
 C3551 C 0.21041 0.15388 0.74768
 C3552 C 0.19983 0.13493 0.74844
 H3553 H 0.11226 0.06919 0.74991
 H3554 H 0.09218 0.03762 0.74488
 H3555 H 0.14412 0.00032 0.75918
 H3556 H 0.16380 0.03169 0.76454
 H3557 H 0.17982 0.05986 0.74825
 H3558 H 0.19983 0.09163 0.75211
 H3559 H 0.14784 0.12260 0.77641
 H3560 H 0.12801 0.09031 0.77359
 H3561 H 0.17579 0.14096 0.79220
 H3562 H 0.19428 0.17450 0.79076
 H3563 H 0.21986 0.15708 0.73498
 H3564 H 0.20127 0.12441 0.73622
 C3565 C 0.36481 0.06249 0.24775
 C3566 C 0.36120 0.04560 0.23523
 C3567 C 0.37161 0.02687 0.23756
 C3568 C 0.38573 0.02415 0.25274
 C3569 C 0.38987 0.04154 0.26473
 C3570 C 0.37941 0.06025 0.26240
 C3571 C 0.35321 0.08224 0.24577
 C3572 C 0.34646 0.09276 0.26250
 C3573 C 0.33504 0.11090 0.26085
 C3574 C 0.33001 0.11909 0.24241
 C3575 C 0.33708 0.10886 0.22563
 C3576 C 0.34848 0.09059 0.22729
 C3577 C 0.31695 0.13787 0.24098
 C3578 C 0.32106 0.15406 0.22741
 C3579 C 0.30935 0.17225 0.22728
 C3580 C 0.29329 0.17456 0.24070
 C3581 C 0.28878 0.15795 0.25366
 C3582 C 0.30040 0.13992 0.25378
 H3583 H 0.35007 0.04674 0.22376
 H3584 H 0.36853 0.01425 0.22752
 H3585 H 0.40149 0.04107 0.27572
 H3586 H 0.38305 0.07318 0.27191
 H3587 H 0.34964 0.08672 0.27695
 H3588 H 0.33011 0.11854 0.27408
 H3589 H 0.33342 0.11471 0.21123
 H3590 H 0.35364 0.08303 0.21410
 H3591 H 0.33373 0.15296 0.21736
 H3592 H 0.31328 0.18475 0.21715
 H3593 H 0.27638 0.15896 0.26405
 H3594 H 0.29647 0.12758 0.26407
 C3595 C 0.86039 0.55908 0.75077
 C3596 C 0.87392 0.55369 0.73576
 C3597 C 0.88503 0.53535 0.73672
 C3598 C 0.88401 0.52201 0.75329
 C3599 C 0.86992 0.52718 0.76807
 C3600 C 0.85835 0.54534 0.76685
 C3601 C 0.84874 0.57899 0.74960
 C3602 C 0.84329 0.58984 0.76661
 C3603 C 0.83322 0.60889 0.76546
 C3604 C 0.82872 0.61807 0.74725
 C3605 C 0.83391 0.60708 0.73024
 C3606 C 0.84349 0.58775 0.73141
 C3607 C 0.81889 0.63903 0.74610
 C3608 C 0.80615 0.64445 0.73043
 C3609 C 0.79663 0.66391 0.72984
 C3610 C 0.79923 0.67810 0.74512
 C3611 C 0.81209 0.67296 0.76055
 C3612 C 0.82205 0.65387 0.76089
 H3613 H 0.87618 0.56372 0.72314
 H3614 H 0.89418 0.53186 0.72407
 H3615 H 0.86790 0.51703 0.78068
 H3616 H 0.84764 0.54842 0.77849
 H3617 H 0.84713 0.58389 0.78091
 H3618 H 0.82901 0.61638 0.77898
 H3619 H 0.83094 0.61351 0.71591
 H3620 H 0.84680 0.57976 0.71791
 H3621 H 0.80301 0.63349 0.71887
 H3622 H 0.78657 0.66750 0.71790
 H3623 H 0.81441 0.68379 0.77244
 H3624 H 0.83221 0.65083 0.77285
 C3625 C 0.95432 0.74357 0.18058
 C3626 C 0.96620 0.72655 0.17519
 C3627 C 0.98055 0.72868 0.16026
 C3628 C 0.98314 0.74776 0.15002
 C3629 C 0.97216 0.76514 0.15661
 C3630 C 0.95773 0.76295 0.17140
 C3631 C 0.93721 0.74092 0.19442
 C3632 C 0.93193 0.75716 0.20711
 C3633 C 0.91342 0.75656 0.21700
 C3634 C 0.90014 0.73956 0.21461
 C3635 C 0.90614 0.72251 0.20334
 C3636 C 0.92451 0.72321 0.19323
 C3637 C 0.87917 0.74069 0.22172
 C3638 C 0.87025 0.72386 0.23191
 C3639 C 0.84982 0.72437 0.23710
 C3640 C 0.83799 0.74156 0.23180
 C3641 C 0.84700 0.75844 0.22171
 C3642 C 0.86748 0.75806 0.21682
 H3643 H 0.96425 0.71154 0.18237
 H3644 H 0.98948 0.71525 0.15635
 H3645 H 0.97455 0.78059 0.15057
 H3646 H 0.94883 0.77642 0.17524
 H3647 H 0.94167 0.77076 0.20866
 H3648 H 0.90909 0.76974 0.22587
 H3649 H 0.89599 0.70931 0.20124
 H3650 H 0.92807 0.71055 0.18344
 H3651 H 0.87906 0.71030 0.23571
 H3652 H 0.84319 0.71117 0.24490
 H3653 H 0.83823 0.77195 0.21765
 H3654 H 0.87407 0.77107 0.20869
 C3655 C 0.45104 0.25315 0.67479
 C3656 C 0.45016 0.23778 0.66041
 C3657 C 0.46625 0.23515 0.64755
 C3658 C 0.48407 0.24738 0.64919
 C3659 C 0.48441 0.26338 0.66335
 C3660 C 0.46808 0.26620 0.67603
 C3661 C 0.43358 0.25577 0.68780
 C3662 C 0.42363 0.27493 0.68861
 C3663 C 0.40482 0.27619 0.69791
 C3664 C 0.39599 0.25833 0.70661
 C3665 C 0.40670 0.23955 0.70689
 C3666 C 0.42535 0.23828 0.69751
 C3667 C 0.37491 0.25841 0.71366
 C3668 C 0.36958 0.24771 0.73090
 C3669 C 0.34935 0.24516 0.73617
 C3670 C 0.33403 0.25333 0.72433
 C3671 C 0.33942 0.26472 0.70742
 C3672 C 0.35972 0.26721 0.70211
 H3673 H 0.43672 0.22810 0.65882
 H3674 H 0.46419 0.22378 0.63617
 H3675 H 0.49751 0.27360 0.66461
 H3676 H 0.46879 0.27840 0.68688
 H3677 H 0.42981 0.28854 0.68107
 H3678 H 0.39685 0.29086 0.69770
 H3679 H 0.40012 0.22551 0.71333
 H3680 H 0.43293 0.22339 0.69701
 H3681 H 0.38108 0.24098 0.74011
 H3682 H 0.34575 0.23662 0.74949
 H3683 H 0.32796 0.27137 0.69811
 H3684 H 0.36350 0.27529 0.68859
 C3685 C 0.44332 0.74714 0.84649
 C3686 C 0.45600 0.76277 0.83859
 C3687 C 0.47629 0.76383 0.84371
 C3688 C 0.48462 0.74909 0.85667
 C3689 C 0.47157 0.73347 0.86462
 C3690 C 0.45128 0.73234 0.85932
 C3691 C 0.42168 0.74674 0.84167
 C3692 C 0.41215 0.72811 0.83590
 C3693 C 0.39217 0.72829 0.82949
 C3694 C 0.38149 0.74710 0.82889
 C3695 C 0.39069 0.76546 0.83578
 C3696 C 0.41065 0.76529 0.84206
 C3697 C 0.36165 0.74804 0.81930
 C3698 C 0.35790 0.76424 0.80597
 C3699 C 0.33988 0.76465 0.79569
 C3700 C 0.32519 0.74886 0.79852
 C3701 C 0.32873 0.73284 0.81216
 C3702 C 0.34689 0.73240 0.82243
 H3703 H 0.45013 0.77434 0.82858
 H3704 H 0.48551 0.77656 0.83789
 H3705 H 0.47655 0.72258 0.87564
 H3706 H 0.44159 0.72041 0.86588
 H3707 H 0.42045 0.71365 0.83550
 H3708 H 0.38544 0.71398 0.82409
 H3709 H 0.38261 0.78006 0.83579
 H3710 H 0.41761 0.77974 0.84689
 H3711 H 0.36919 0.77629 0.80304
 H3712 H 0.33760 0.77725 0.78534
 H3713 H 0.31768 0.72046 0.81463
 H3714 H 0.34946 0.71980 0.83271
 C3715 C 0.93715 0.23979 0.34469
 C3716 C 0.94513 0.22504 0.35756
 C3717 C 0.96552 0.22602 0.36257
 C3718 C 0.97859 0.24139 0.35424
 C3719 C 0.97026 0.25600 0.34117
 C3720 C 0.94989 0.25513 0.33638
 C3721 C 0.91547 0.23973 0.34017
 C3722 C 0.90470 0.25841 0.34107
 C3723 C 0.88492 0.25919 0.33438
 C3724 C 0.87567 0.24132 0.32652
 C3725 C 0.88598 0.22228 0.32683
 C3726 C 0.90578 0.22148 0.33368
 C3727 C 0.85641 0.24318 0.31600
 C3728 C 0.84117 0.22782 0.31782
 C3729 C 0.82364 0.22916 0.30665
 C3730 C 0.82123 0.24581 0.29340
 C3731 C 0.83641 0.26128 0.29186
 C3732 C 0.85379 0.25997 0.30304
 H3733 H 0.93538 0.21330 0.36435
 H3734 H 0.97062 0.21525 0.37365
 H3735 H 0.97952 0.26852 0.33505
 H3736 H 0.94399 0.26664 0.32634
 H3737 H 0.91183 0.27256 0.34643
 H3738 H 0.87711 0.27394 0.33465
 H3739 H 0.87919 0.20833 0.32072
 H3740 H 0.91390 0.20692 0.33291
 H3741 H 0.84287 0.21476 0.32777
 H3742 H 0.81218 0.21700 0.30814
 H3743 H 0.83500 0.27434 0.28185
 H3744 H 0.86549 0.27182 0.30109
 C3745 C 0.04584 0.25216 0.31554
 C3746 C 0.02686 0.24374 0.31090
 C3747 C 0.01197 0.24150 0.32540
 C3748 C 0.01582 0.24782 0.34479
 C3749 C 0.03552 0.25483 0.34935
 C3750 C 0.05013 0.25746 0.33486
 C3751 C 0.06205 0.25408 0.30088
 C3752 C 0.06951 0.23616 0.29186
 C3753 C 0.08829 0.23688 0.28240
 C3754 C 0.09967 0.25558 0.28183
 C3755 C 0.09108 0.27394 0.28907
 C3756 C 0.07245 0.27316 0.29866
 C3757 C 0.12133 0.25528 0.27650
 C3758 C 0.13543 0.26566 0.28835
 C3759 C 0.15607 0.26406 0.28465
 C3760 C 0.16308 0.25197 0.26904
 C3761 C 0.14896 0.24178 0.25700
 C3762 C 0.12826 0.24339 0.26073
 H3763 H 0.02362 0.23887 0.29612
 H3764 H -0.00233 0.23443 0.32137
 H3765 H 0.03945 0.25865 0.36425
 H3766 H 0.06503 0.26322 0.33881
 H3767 H 0.06168 0.22129 0.29359
 H3768 H 0.09461 0.22249 0.27701
 H3769 H 0.09938 0.28863 0.28841
 H3770 H 0.06675 0.28715 0.30547
 H3771 H 0.13053 0.27456 0.30088
 H3772 H 0.16652 0.27221 0.29413
 H3773 H 0.15388 0.23246 0.24475
 H3774 H 0.11767 0.23528 0.25138
 C3775 C 0.55291 0.75927 0.81907
 C3776 C 0.53346 0.75257 0.81377
 C3777 C 0.51828 0.75014 0.82797
 C3778 C 0.52219 0.75489 0.84773
 C3779 C 0.54216 0.76030 0.85291
 C3780 C 0.55719 0.76267 0.83881
 C3781 C 0.56932 0.76177 0.80452
 C3782 C 0.58316 0.77842 0.80627
 C3783 C 0.60126 0.77844 0.79581
 C3784 C 0.60572 0.76199 0.78307
 C3785 C 0.59087 0.74651 0.77976
 C3786 C 0.57282 0.74633 0.79051
 C3787 C 0.62665 0.75968 0.77559
 C3788 C 0.63545 0.73979 0.77482
 C3789 C 0.65607 0.73779 0.77092
 C3790 C 0.66821 0.75563 0.76828
 C3791 C 0.65949 0.77540 0.76824
 C3792 C 0.63880 0.77742 0.77158
 H3793 H 0.52998 0.74928 0.79866
 H3794 H 0.50369 0.74434 0.82333
 H3795 H 0.54601 0.76310 0.86802
 H3796 H 0.57232 0.76694 0.84343
 H3797 H 0.58055 0.79077 0.81669
 H3798 H 0.61229 0.79058 0.79888
 H3799 H 0.59364 0.73393 0.76964
 H3800 H 0.56230 0.73338 0.78882
 H3801 H 0.62668 0.72581 0.77814
 H3802 H 0.66270 0.72240 0.77075
 H3803 H 0.66870 0.78924 0.76556
 H3804 H 0.63244 0.79291 0.77152
 C3805 C 0.55796 0.22839 0.66467
 C3806 C 0.53992 0.22962 0.67538
 C3807 C 0.52203 0.23498 0.66618
 C3808 C 0.52183 0.23995 0.64601
 C3809 C 0.53993 0.23737 0.63523
 C3810 C 0.55780 0.23187 0.64446
 C3811 C 0.57713 0.22485 0.67479
 C3812 C 0.59131 0.21078 0.66741
 C3813 C 0.61021 0.20905 0.67615
 C3814 C 0.61522 0.22156 0.69223
 C3815 C 0.60069 0.23508 0.69995
 C3816 C 0.58179 0.23664 0.69136
 C3817 C 0.63602 0.22210 0.69989
 C3818 C 0.63940 0.22501 0.71992
 C3819 C 0.65889 0.22875 0.72673
 C3820 C 0.67536 0.22931 0.71366
 C3821 C 0.67216 0.22524 0.69381
 C3822 C 0.65263 0.22181 0.68695
 H3823 H 0.53966 0.22637 0.69093
 H3824 H 0.50849 0.23478 0.67510
 H3825 H 0.54023 0.24001 0.61958
 H3826 H 0.57161 0.23092 0.63589
 H3827 H 0.58787 0.20139 0.65474
 H3828 H 0.62104 0.19827 0.67009
 H3829 H 0.60422 0.24525 0.71206
 H3830 H 0.57114 0.24779 0.69712
 H3831 H 0.62692 0.22487 0.73027
 H3832 H 0.66106 0.23141 0.74219
 H3833 H 0.68465 0.22555 0.68345
 H3834 H 0.65049 0.21992 0.67140
 C3835 C 0.05692 0.74137 0.16332
 C3836 C 0.05021 0.72602 0.15035
 C3837 C 0.03151 0.72789 0.14130
 C3838 C 0.01941 0.74559 0.14455
 C3839 C 0.02547 0.75973 0.15915
 C3840 C 0.04407 0.75779 0.16822
 C3841 C 0.07766 0.74103 0.17093
 C3842 C 0.08909 0.75962 0.17134
 C3843 C 0.10855 0.75974 0.17882
 C3844 C 0.11696 0.74126 0.18597
 C3845 C 0.10586 0.72248 0.18502
 C3846 C 0.08628 0.72236 0.17756
 C3847 C 0.13686 0.74202 0.19534
 C3848 C 0.15185 0.72755 0.19063
 C3849 C 0.17083 0.72892 0.19938
 C3850 C 0.17489 0.74464 0.21307
 C3851 C 0.15970 0.75890 0.21787
 C3852 C 0.14090 0.75761 0.20907
 H3853 H 0.05969 0.71293 0.14668
 H3854 H 0.02689 0.71549 0.13165
 H3855 H 0.01610 0.77290 0.16284
 H3856 H 0.04863 0.76942 0.17878
 H3857 H 0.08298 0.77410 0.16582
 H3858 H 0.11703 0.77432 0.17913
 H3859 H 0.11210 0.70809 0.19061
 H3860 H 0.07770 0.70785 0.17739
 H3861 H 0.14897 0.71544 0.18001
 H3862 H 0.18224 0.71765 0.19552
 H3863 H 0.16234 0.77118 0.22837
 H3864 H 0.12942 0.76875 0.21309
   
