data_POSCAR
  _audit_creation_date              2014-09-24
  _audit_creation_method            'ToBaCCo'
  _symmetry_space_group_name_H-M    'P1'
  _symmetry_Int_Tables_number       1
  _symmetry_cell_setting            triclinic
  loop_
  _symmetry_equiv_pos_as_xyz
 x,y,z
_cell_length_a 31.0207
_cell_length_b 31.1551
_cell_length_c 40.7751
_cell_angle_alpha 89.969900
_cell_angle_beta 89.634600
_cell_angle_gamma 90.038100
loop_
  _atom_site_label
  _atom_site_type_symbol
  _atom_site_fract_x
  _atom_site_fract_y
  _atom_site_fract_z
B1 B 0.26568 0.23292 0.28073
 B2 B 0.21350 0.22193 0.27437
 B3 B 0.22777 0.27218 0.28400
 B4 B 0.27644 0.28259 0.26648
 B5 B 0.29058 0.23768 0.24457
 B6 B 0.25111 0.20032 0.24971
 B7 B 0.21573 0.26933 0.21850
 B8 B 0.26827 0.28032 0.22578
 B9 B 0.25289 0.23003 0.21527
 B10 B 0.20462 0.21939 0.23323
 B11 B 0.19064 0.26377 0.25467
 B12 B 0.23004 0.30191 0.24997
 B13 B 0.72181 0.77752 0.21858
 B14 B 0.70462 0.72714 0.22556
 B15 B 0.75528 0.73539 0.21233
 B16 B 0.77431 0.78117 0.22958
 B17 B 0.73439 0.80038 0.25425
 B18 B 0.69090 0.76677 0.25187
 B19 B 0.75805 0.72097 0.27737
 B20 B 0.77520 0.77131 0.27049
 B21 B 0.72452 0.76349 0.28371
 B22 B 0.70546 0.71755 0.26655
 B23 B 0.74542 0.69832 0.24171
 B24 B 0.78871 0.73214 0.24396
 B25 B 0.73554 0.23206 -0.28071
 B26 B 0.78784 0.22147 -0.27449
 B27 B 0.77314 0.27164 -0.28391
 B28 B 0.72442 0.28151 -0.26627
 B29 B 0.71072 0.23631 -0.24449
 B30 B 0.75047 0.19933 -0.24986
 B31 B 0.78537 0.26843 -0.21846
 B32 B 0.73274 0.27899 -0.22559
 B33 B 0.74858 0.22879 -0.21531
 B34 B 0.79686 0.21870 -0.23337
 B35 B 0.81043 0.26340 -0.25465
 B36 B 0.77070 0.30110 -0.24980
 B37 B 0.27364 0.76257 -0.28276
 B38 B 0.22283 0.77037 -0.26984
 B39 B 0.23971 0.72008 -0.27713
 B40 B 0.29215 0.71617 -0.26596
 B41 B 0.30682 0.76501 -0.25064
 B42 B 0.26359 0.79889 -0.25296
 B43 B 0.24173 0.73315 -0.21188
 B44 B 0.29250 0.72492 -0.22486
 B45 B 0.27560 0.77526 -0.21744
 B46 B 0.22323 0.77942 -0.22878
 B47 B 0.20872 0.73075 -0.24380
 B48 B 0.25175 0.69666 -0.24163
 B49 B 1.22436 1.27230 0.71632
 B50 B 1.20721 1.22208 0.72529
 B51 B 1.25814 1.23044 0.71181
 B52 B 1.27620 1.27748 0.72823
 B53 B 1.23541 1.29709 0.75208
 B54 B 1.19237 1.26300 0.74948
 B55 B 1.25979 1.21956 0.77745
 B56 B 1.27600 1.26972 0.76959
 B57 B 1.22493 1.26127 0.78209
 B58 B 1.20765 1.21468 0.76604
 B59 B 1.24870 1.19510 0.74251
 B60 B 1.29111 1.22967 0.74408
 B61 B 0.76846 0.73010 0.78129
 B62 B 0.71604 0.71950 0.77570
 B63 B 0.73078 0.76955 0.78571
 B64 B 0.77912 0.77993 0.76747
 B65 B 0.79226 0.73532 0.74482
 B66 B 0.75256 0.69822 0.75017
 B67 B 0.71719 0.76784 0.72029
 B68 B 0.76993 0.77837 0.72687
 B69 B 0.75382 0.72843 0.71612
 B70 B 0.70591 0.71787 0.73469
 B71 B 0.69279 0.76202 0.75679
 B72 B 0.73242 0.79988 0.75188
 B73 B 1.23387 0.72974 0.21882
 B74 B 1.28624 0.71947 0.22472
 B75 B 1.27130 0.76948 0.21487
 B76 B 1.22270 0.77938 0.23279
 B77 B 1.20948 0.73448 0.25511
 B78 B 1.24940 0.69767 0.24989
 B79 B 1.28412 0.76726 0.28034
 B80 B 1.23139 0.77752 0.27343
 B81 B 1.24762 0.72760 0.28407
 B82 B 1.29581 0.71747 0.26580
 B83 B 1.30899 0.76193 0.24400
 B84 B 1.26909 0.79948 0.24878
 B85 B 0.77526 1.27119 0.28274
 B86 B 0.79305 1.22117 0.27396
 B87 B 0.74198 1.22888 0.28733
 B88 B 0.72338 1.27557 0.27075
 B89 B 0.76393 1.29570 0.24688
 B90 B 0.80743 1.26224 0.24964
 B91 B 0.74072 1.21766 0.22171
 B92 B 0.72370 1.26760 0.22943
 B93 B 0.77495 1.25994 0.21695
 B94 B 0.79285 1.21365 0.23321
 B95 B 0.75199 1.19357 0.25677
 B96 B 0.70912 1.22751 0.25501
 O97 O 0.45426 1.09063 0.02782
 O98 O 0.54663 0.93369 0.02669
 O99 O 0.41505 0.95977 0.01860
 O100 O 0.58467 1.06471 0.01488
 O101 O 0.47296 0.93845 0.03910
 O102 O 0.52789 1.08390 0.03855
 O103 O 0.57646 0.99384 0.03946
 O104 O 0.42698 1.03066 0.04328
 C105 C 0.43191 1.06966 0.04803
 C106 C 0.56960 0.95549 0.04580
 C107 C 0.43335 0.93993 0.04071
 C108 C 0.56754 1.08194 0.03887
 O109 O 0.54524 1.09080 -0.02873
 O110 O 0.45348 0.93338 -0.02751
 O111 O 0.41489 1.06425 -0.01591
 O112 O 0.58495 0.96018 -0.01933
 O113 O 0.52721 0.93880 -0.04004
 O114 O 0.47175 1.08400 -0.03931
 O115 O 0.57230 1.03079 -0.04417
 O116 O 0.42300 0.99321 -0.04028
 Co117 Co 0.49980 1.08057 -0.00040
 Co118 Co 0.50007 0.94291 -0.00045
 Co119 Co 0.42852 1.01203 0.00132
 Co120 Co 0.57102 1.01239 -0.00219
 O121 O 0.49983 1.01188 -0.00043
 C122 C 0.56749 1.06979 -0.04894
 C123 C 0.43002 0.95485 -0.04650
 C124 C 0.43213 1.08169 -0.03981
 C125 C 0.56684 0.94029 -0.04150
 O126 O 0.95118 0.59158 0.52477
 O127 O 1.04790 0.42980 0.52329
 O128 O 0.91612 0.46006 0.52040
 O129 O 1.08282 0.56124 0.51895
 O130 O 0.97503 0.43825 0.53986
 O131 O 1.02509 0.58467 0.53965
 O132 O 1.07312 0.48904 0.54071
 O133 O 0.92503 0.53165 0.54092
 C134 C 0.92874 0.57086 0.54496
 C135 C 1.06927 0.44972 0.54419
 C136 C 0.93549 0.44113 0.54259
 C137 C 1.06458 0.58007 0.54185
 O138 O 1.04757 0.59164 0.47422
 O139 O 0.95085 0.42977 0.47563
 O140 O 0.91590 0.56117 0.48007
 O141 O 1.08260 0.46022 0.47861
 O142 O 1.02377 0.43840 0.45901
 O143 O 0.97361 0.58475 0.45933
 O144 O 1.07353 0.53170 0.45811
 O145 O 0.92541 0.48896 0.45830
 Co146 Co 0.99937 0.58076 0.49949
 Co147 Co 0.99938 0.44155 0.49944
 Co148 Co 0.92874 0.51040 0.49975
 Co149 Co 1.06988 0.51049 0.49926
 O150 O 0.99934 0.51084 0.49948
 C151 C 1.06997 0.57090 0.45406
 C152 C 0.92935 0.44966 0.45479
 C153 C 0.93412 0.58007 0.45718
 C154 C 1.06333 0.44132 0.45636
 O155 O 1.02137 0.46765 0.06375
 O156 O 1.07018 0.53188 -0.04124
 O157 O 1.02209 0.39837 -0.02451
 O158 O 1.04274 0.58519 0.03055
 O159 O 1.05658 0.45605 -0.03935
 O160 O 1.01096 0.54569 0.06854
 O161 O 1.03792 0.59030 -0.03082
 O162 O 1.05431 0.44282 0.02057
 C163 C 1.05324 0.44816 0.05107
 C164 C 1.07009 0.57159 -0.04184
 C165 C 1.05023 0.41613 -0.04395
 C166 C 1.03881 0.57372 0.05986
 O167 O 0.92815 0.53445 0.04427
 O168 O 0.97583 0.46915 -0.06262
 O169 O 0.98070 0.41021 0.03249
 O170 O 0.95576 0.58495 -0.02693
 O171 O 0.98812 0.54674 -0.06524
 O172 O 0.93819 0.46102 0.03994
 O173 O 0.96150 0.59203 0.03420
 O174 O 0.95015 0.43811 -0.02021
 Co175 Co 0.97659 0.50254 0.05027
 Co176 Co 1.02053 0.50164 -0.04760
 Co177 Co 1.00262 0.44371 -0.00091
 Co178 Co 0.99930 0.58014 0.00171
 O179 O 0.99828 0.50927 0.00215
 C180 C 0.92891 0.57402 0.04486
 C181 C 0.94767 0.44548 -0.05004
 C182 C 0.94672 0.42279 0.04538
 C183 C 0.96003 0.57440 -0.05639
 O184 O 0.52599 0.96127 0.56275
 O185 O 0.54648 1.05137 0.44390
 O186 O 0.52711 0.92116 0.46304
 O187 O 0.51650 1.09155 0.54199
 O188 O 0.56057 0.97718 0.45079
 O189 O 0.54080 1.03371 0.56060
 O190 O 0.55712 1.08325 0.49001
 O191 O 0.55274 0.93328 0.51911
 C192 C 0.55522 0.93971 0.54915
 C193 C 0.56885 1.07597 0.46131
 C194 C 0.55927 0.93758 0.45032
 C195 C 0.54333 1.07306 0.55927
 O196 O 0.45339 1.05200 0.55658
 O197 O 0.47335 0.96095 0.43838
 O198 O 0.47205 0.92150 0.53827
 O199 O 0.48377 1.09133 0.45831
 O200 O 0.45890 1.03351 0.44011
 O201 O 0.43882 0.97768 0.55026
 O202 O 0.44318 1.08367 0.51028
 O203 O 0.44649 0.93334 0.48216
 Co204 Co 0.49046 1.00622 0.55238
 Co205 Co 0.50911 1.00583 0.44846
 Co206 Co 0.49962 0.93649 0.50062
 Co207 Co 0.50011 1.07895 0.50018
 O208 O 0.49982 1.00713 0.50041
 C209 C 0.43127 1.07658 0.53897
 C210 C 0.44402 0.93960 0.45210
 C211 C 0.43999 0.93806 0.55100
 C212 C 0.45674 1.07290 0.44116
 O213 O 1.07677 1.04101 0.48226
 O214 O 0.92493 1.04228 0.51708
 O215 O 0.99071 1.04447 0.44213
 O216 O 1.01140 1.04516 0.55666
 O217 O 0.92731 1.02846 0.46070
 O218 O 1.07451 1.02784 0.53853
 O219 O 0.94041 1.00955 0.55938
 O220 O 1.06132 1.00800 0.44011
 C221 C 1.07545 1.04101 0.45206
 C222 C 0.92650 1.04256 0.54727
 C223 C 0.95153 1.05240 0.44376
 C224 C 1.05066 1.05248 0.55508
 O225 O 1.07089 0.93821 0.52708
 O226 O 0.92902 0.93904 0.47272
 O227 O 1.02445 0.93339 0.44539
 O228 O 0.97612 0.93454 0.55461
 O229 O 0.91824 0.95206 0.52856
 O230 O 1.08238 0.95059 0.47139
 O231 O 1.04523 0.97062 0.56697
 O232 O 0.95593 0.97039 0.43271
 Co233 Co 1.06964 0.98945 0.50432
 Co234 Co 0.93144 0.99043 0.49527
 Co235 Co 1.00734 0.98895 0.44619
 Co236 Co 0.99410 0.98980 0.55330
 O237 O 1.00065 0.98971 0.49977
 C238 C 1.06469 0.93917 0.55697
 C239 C 0.93548 0.93959 0.44284
 C240 C 1.06292 0.92597 0.45184
 C241 C 0.93756 0.92742 0.54821
 O242 O 0.57714 0.54021 -0.01578
 O243 O 0.42422 0.54017 0.01602
 O244 O 0.49387 0.54201 -0.05844
 O245 O 0.50755 0.54170 0.05833
 O246 O 0.42942 0.52808 -0.04084
 O247 O 0.57202 0.52785 0.04093
 O248 O 0.43719 0.50585 0.05815
 O249 O 0.56430 0.50619 -0.05806
 C250 C 0.57765 0.53953 -0.04602
 C251 C 0.42381 0.53929 0.04626
 C252 C 0.45500 0.55119 -0.05743
 C253 C 0.54640 0.55095 0.05743
 O254 O 0.57029 0.43758 0.02891
 O255 O 0.43066 0.43795 -0.02920
 O256 O 0.52711 0.43155 -0.05339
 O257 O 0.47430 0.43128 0.05314
 O258 O 0.41736 0.44928 0.02594
 O259 O 0.58396 0.44937 -0.02603
 O260 O 0.54242 0.46866 0.06841
 O261 O 0.45908 0.46900 -0.06861
 Co262 Co 0.56943 0.48880 0.00642
 Co263 Co 0.43188 0.48892 -0.00642
 Co264 Co 0.51001 0.48701 -0.05347
 Co265 Co 0.49147 0.48672 0.05337
 O266 O 0.50071 0.48825 -0.00003
 C267 C 0.56304 0.43790 0.05859
 C268 C 0.43800 0.43843 -0.05887
 C269 C 0.56530 0.42435 -0.04587
 C270 C 0.43605 0.42417 0.04570
 C271 C 0.31908 1.15966 0.13674
 C272 C 0.31550 1.20440 0.13424
 C273 C 0.28913 1.22652 0.15654
 C274 C 0.26869 1.20485 0.18272
 C275 C 0.26980 1.15938 0.18287
 C276 C 0.29531 1.13675 0.16025
 C277 C 0.34897 1.13647 0.11479
 C278 C 0.35243 1.09160 0.11720
 C279 C 0.38080 1.06969 0.09609
 C280 C 0.40585 1.09251 0.07299
 C281 C 0.40248 1.13762 0.07145
 C282 C 0.37376 1.15969 0.09200
 C283 C 0.29922 1.09183 0.16174
 C284 C 0.32716 1.06961 0.14048
 C285 C 0.33997 1.22641 0.11048
 C286 C 0.36887 1.20446 0.08987
 H287 H 0.28097 1.07373 0.17980
 H288 H 0.32933 1.03500 0.14253
 H289 H 0.33749 1.26097 0.10827
 H290 H 0.38761 1.22270 0.07220
 H291 H 0.28608 1.26069 0.15385
 H292 H 0.25303 1.14140 0.20178
 H293 H 0.38290 1.03498 0.09727
 H294 H 0.42113 1.15551 0.05350
 C295 C 0.81695 0.65952 0.63538
 C296 C 0.79452 0.63620 0.65941
 C297 C 0.77001 0.65837 0.68287
 C298 C 0.76858 0.70381 0.68308
 C299 C 0.78749 0.72598 0.65646
 C300 C 0.81295 0.70428 0.63328
 C301 C 0.84599 0.63675 0.61252
 C302 C 0.86959 0.66033 0.58922
 C303 C 0.89782 0.63863 0.56799
 C304 C 0.90201 0.59359 0.56958
 C305 C 0.87796 0.57044 0.59308
 C306 C 0.85004 0.59192 0.61473
 C307 C 0.83619 0.72667 0.60901
 C308 C 0.86425 0.70509 0.58748
 C309 C 0.79883 0.59131 0.66057
 C310 C 0.82601 0.56952 0.63852
 H311 H 0.83348 0.76126 0.60715
 H312 H 0.88209 0.72363 0.56946
 H313 H 0.78159 0.57291 0.67901
 H314 H 0.82865 0.53492 0.64040
 H315 H 0.75428 0.64002 0.70208
 H316 H 0.78392 0.76019 0.65413
 H317 H 0.91576 0.65673 0.54973
 H318 H 0.88074 0.53578 0.59435
 C319 C 0.65709 0.85939 0.14526
 C320 C 0.63288 0.83243 0.16573
 C321 C 0.65400 0.80764 0.18908
 C322 C 0.69952 0.80756 0.19144
 C323 C 0.72350 0.83483 0.17054
 C324 C 0.70227 0.86123 0.14759
 C325 C 0.63455 0.88596 0.12080
 C326 C 0.65841 0.91387 0.10064
 C327 C 0.63665 0.93864 0.07710
 C328 C 0.59176 0.93418 0.07310
 C329 C 0.56846 0.90616 0.09350
 C330 C 0.58956 0.88240 0.11771
 C331 C 0.72507 0.88947 0.12687
 C332 C 0.70352 0.91553 0.10399
 C333 C 0.58787 0.83039 0.16239
 C334 C 0.56660 0.85470 0.13857
 H335 H 0.75987 0.89148 0.12837
 H336 H 0.72238 0.93679 0.08851
 H337 H 0.56897 0.80942 0.17809
 H338 H 0.53191 0.85181 0.13649
 H339 H 0.63451 0.78744 0.20491
 H340 H 0.75832 0.83576 0.17226
 H341 H 0.65469 0.95983 0.06097
 H342 H 0.53397 0.90282 0.09037
 C343 C 1.16535 0.35209 0.63898
 C344 C 1.17724 0.30962 0.63167
 C345 C 1.19900 0.28513 0.65536
 C346 C 1.20631 0.30184 0.68700
 C347 C 1.19506 0.34514 0.69330
 C348 C 1.17496 0.37034 0.66942
 C349 C 1.14140 0.37764 0.61461
 C350 C 1.13003 0.42036 0.62179
 C351 C 1.10696 0.44444 0.59857
 C352 C 1.09419 0.42546 0.56887
 C353 C 1.10571 0.38247 0.56225
 C354 C 1.12971 0.35859 0.58484
 C355 C 1.16323 0.41317 0.67576
 C356 C 1.14148 0.43786 0.65226
 C357 C 1.16574 0.29204 0.60123
 C358 C 1.14210 0.31599 0.57832
 H359 H 1.17070 0.42768 0.69919
 H360 H 1.13296 0.47068 0.65819
 H361 H 1.17435 0.25923 0.59531
 H362 H 1.13336 0.30099 0.55534
 H363 H 1.20766 0.25229 0.64977
 H364 H 1.20080 0.35942 0.71706
 H365 H 1.09816 0.47741 0.60381
 H366 H 1.09646 0.36775 0.53925
 C367 C 0.68212 1.15870 -0.13694
 C368 C 0.70514 1.13565 -0.16076
 C369 C 0.73095 1.15806 -0.18331
 C370 C 0.73306 1.20347 -0.18279
 C371 C 0.71362 1.22518 -0.15622
 C372 C 0.68687 1.20330 -0.13401
 C373 C 0.65171 1.13585 -0.11518
 C374 C 0.62755 1.15925 -0.09215
 C375 C 0.59830 1.13751 -0.07180
 C376 C 0.59382 1.09253 -0.07379
 C377 C 0.61823 1.06953 -0.09712
 C378 C 0.64709 1.09113 -0.11804
 C379 C 0.66306 1.22545 -0.10999
 C380 C 0.63363 1.20384 -0.08957
 C381 C 0.70012 1.09086 -0.16268
 C382 C 0.67172 1.06895 -0.14156
 H383 H 0.66643 1.25991 -0.10746
 H384 H 0.61539 1.22221 -0.07170
 H385 H 0.71780 1.07267 -0.18097
 H386 H 0.66865 1.03444 -0.14394
 H387 H 0.74706 1.14002 -0.20248
 H388 H 0.71756 1.25927 -0.15331
 H389 H 0.58015 1.15548 -0.05363
 H390 H 0.61527 1.03491 -0.09863
 C391 C 1.18336 0.65882 0.36434
 C392 C 1.20548 0.63540 0.34022
 C393 C 1.23040 0.65745 0.31692
 C394 C 1.23254 0.70285 0.31697
 C395 C 1.21398 0.72503 0.34369
 C396 C 1.18809 0.70348 0.36670
 C397 C 1.15383 0.63626 0.38698
 C398 C 1.13050 0.65996 0.41034
 C399 C 1.10182 0.63847 0.43138
 C400 C 1.09696 0.59352 0.42955
 C401 C 1.12072 0.57025 0.40599
 C402 C 1.14906 0.59152 0.38452
 C403 C 1.16513 0.72597 0.39102
 C404 C 1.13659 0.70461 0.41234
 C405 C 1.20045 0.59060 0.33881
 C406 C 1.17283 0.56900 0.36068
 H407 H 1.16843 0.76049 0.39308
 H408 H 1.11897 0.72323 0.43042
 H409 H 1.21745 0.57214 0.32031
 H410 H 1.16962 0.53447 0.35862
 H411 H 1.24586 0.63907 0.29763
 H412 H 1.21805 0.75918 0.34616
 H413 H 1.08412 0.65663 0.44970
 H414 H 1.11740 0.53565 0.40455
 C415 C 0.34115 0.85692 -0.14430
 C416 C 0.36494 0.82875 -0.16402
 C417 C 0.34354 0.80384 -0.18714
 C418 C 0.29807 0.80477 -0.18997
 C419 C 0.27449 0.83317 -0.16974
 C420 C 0.29607 0.85975 -0.14706
 C421 C 0.36407 0.88389 -0.12028
 C422 C 0.34070 0.91314 -0.10098
 C423 C 0.36283 0.93837 -0.07790
 C424 C 0.40757 0.93308 -0.07350
 C425 C 0.43036 0.90369 -0.09306
 C426 C 0.40892 0.87945 -0.11681
 C427 C 0.27375 0.88927 -0.12715
 C428 C 0.29568 0.91569 -0.10470
 C429 C 0.40983 0.82577 -0.16029
 C430 C 0.43143 0.85043 -0.13685
 H431 H 0.23904 0.89208 -0.12898
 H432 H 0.27718 0.93797 -0.08987
 H433 H 0.42840 0.80383 -0.17539
 H434 H 0.46601 0.84682 -0.13445
 H435 H 0.36281 0.78298 -0.20258
 H436 H 0.23974 0.83499 -0.17188
 H437 H 0.34514 0.96058 -0.06241
 H438 H 0.46473 0.89965 -0.08962
 C439 C 0.83357 0.35153 0.36006
 C440 C 0.82193 0.30898 0.36739
 C441 C 0.80035 0.28433 0.34370
 C442 C 0.79296 0.30097 0.31205
 C443 C 0.80394 0.34435 0.30571
 C444 C 0.82388 0.36971 0.32959
 C445 C 0.85738 0.37724 0.38442
 C446 C 0.86855 0.42003 0.37721
 C447 C 0.89153 0.44424 0.40042
 C448 C 0.90441 0.42533 0.43013
 C449 C 0.89308 0.38227 0.43678
 C450 C 0.86918 0.35826 0.41420
 C451 C 0.83540 0.41262 0.32323
 C452 C 0.85702 0.43744 0.34672
 C453 C 0.83353 0.29147 0.39784
 C454 C 0.85702 0.31558 0.42074
 H455 H 0.82788 0.42707 0.29978
 H456 H 0.86539 0.47031 0.34076
 H457 H 0.82512 0.25860 0.40377
 H458 H 0.86586 0.30061 0.44372
 H459 H 0.79195 0.25141 0.34932
 H460 H 0.79814 0.35854 0.28192
 H461 H 0.90019 0.47726 0.39515
 H462 H 0.90241 0.36758 0.45977
 C463 C 1.14831 0.34632 0.14319
 C464 C 1.14257 0.35494 0.17659
 C465 C 1.16143 0.32794 0.19969
 C466 C 1.18781 0.29286 0.19020
 C467 C 1.19169 0.28358 0.15637
 C468 C 1.17220 0.31050 0.13273
 C469 C 1.12818 0.37509 0.11881
 C470 C 1.13218 0.36589 0.08524
 C471 C 1.11033 0.39194 0.06233
 C472 C 1.08454 0.42668 0.07314
 C473 C 1.08294 0.43635 0.10686
 C474 C 1.10409 0.41051 0.12972
 C475 C 1.17633 0.30282 0.09883
 C476 C 1.15655 0.32986 0.07555
 C477 C 1.11868 0.39100 0.18650
 C478 C 1.09992 0.41843 0.16345
 H479 H 1.19476 0.27551 0.09019
 H480 H 1.16008 0.32225 0.04975
 H481 H 1.11439 0.39809 0.21233
 H482 H 1.08140 0.44568 0.17214
 H483 H 1.15673 0.33579 0.22533
 H484 H 1.20996 0.25608 0.14831
 H485 H 1.11143 0.38380 0.03650
 H486 H 1.06309 0.46264 0.11559
 C487 C 0.65044 0.84134 0.64294
 C488 C 0.64920 0.85497 0.67564
 C489 C 0.66738 0.82921 0.69985
 C490 C 0.68950 0.79087 0.69184
 C491 C 0.68892 0.77671 0.65891
 C492 C 0.66942 0.80199 0.63431
 C493 C 0.63059 0.86851 0.61745
 C494 C 0.62938 0.85417 0.58481
 C495 C 0.60736 0.87898 0.56117
 C496 C 0.58692 0.91768 0.57043
 C497 C 0.59103 0.93246 0.60290
 C498 C 0.61188 0.90777 0.62654
 C499 C 0.66864 0.78913 0.60121
 C500 C 0.64874 0.81457 0.57698
 C501 C 0.63048 0.89464 0.68366
 C502 C 0.61246 0.92079 0.65946
 H503 H 0.68319 0.75894 0.59401
 H504 H 0.64825 0.80296 0.55195
 H505 H 0.62980 0.90562 0.70887
 H506 H 0.59805 0.95104 0.66670
 H507 H 0.66586 0.84053 0.72493
 H508 H 0.70356 0.74650 0.65228
 H509 H 0.60414 0.86714 0.53632
 H510 H 0.57566 0.96219 0.61032
 C511 C 1.18151 0.66886 -0.12671
 C512 C 1.21209 0.64713 -0.14575
 C513 C 1.23280 0.66894 -0.17120
 C514 C 1.22337 0.71250 -0.17833
 C515 C 1.19377 0.73439 -0.15801
 C516 C 1.17253 0.71255 -0.13225
 C517 C 1.15659 0.64463 -0.10189
 C518 C 1.12436 0.66573 -0.08393
 C519 C 1.09830 0.64184 -0.06243
 C520 C 1.10342 0.59689 -0.05951
 C521 C 1.13716 0.57655 -0.07666
 C522 C 1.16377 0.60029 -0.09798
 C523 C 1.14104 0.73285 -0.11281
 C524 C 1.11743 0.70987 -0.08903
 C525 C 1.21993 0.60330 -0.14012
 C526 C 1.19608 0.58024 -0.11669
 H527 H 1.13381 0.76651 -0.11655
 H528 H 1.09268 0.72654 -0.07517
 H529 H 1.24382 0.58637 -0.15465
 H530 H 1.20220 0.54620 -0.11384
 H531 H 1.25530 0.65099 -0.18625
 H532 H 1.18581 0.76758 -0.16312
 H533 H 1.07249 0.65799 -0.04932
 H534 H 1.14135 0.54210 -0.07465
 C535 C 0.68281 1.16675 0.37484
 C536 C 0.70767 1.14277 0.35278
 C537 C 0.72769 1.16346 0.32640
 C538 C 0.72389 1.20826 0.32135
 C539 C 0.69969 1.23222 0.34449
 C540 C 0.67882 1.21146 0.37119
 C541 C 0.65822 1.14406 0.40087
 C542 C 0.63111 1.16748 0.42196
 C543 C 0.60473 1.14515 0.44466
 C544 C 0.60465 1.09980 0.44539
 C545 C 0.63323 1.07717 0.42488
 C546 C 0.66007 1.09902 0.40266
 C547 C 0.65255 1.23398 0.39358
 C548 C 0.62919 1.21244 0.41847
 C549 C 0.71034 1.09797 0.35638
 C550 C 0.68688 1.07646 0.38085
 H551 H 0.64913 1.26846 0.39137
 H552 H 0.60851 1.23106 0.43455
 H553 H 0.72980 1.07919 0.33952
 H554 H 0.68879 1.04176 0.38208
 H555 H 0.74400 1.14347 0.30878
 H556 H 0.69570 1.26647 0.34104
 H557 H 0.58194 1.16272 0.45978
 H558 H 0.63273 1.04237 0.42498
 C559 C 0.81559 0.67228 0.12708
 C560 C 0.82532 0.71565 0.13328
 C561 C 0.80372 0.73734 0.15888
 C562 C 0.77316 0.71555 0.17845
 C563 C 0.76294 0.67241 0.17062
 C564 C 0.78388 0.65079 0.14524
 C565 C 0.84108 0.64798 0.10273
 C566 C 0.83320 0.60384 0.09832
 C567 C 0.86038 0.57988 0.07767
 C568 C 0.89542 0.59978 0.06176
 C569 C 0.90131 0.64457 0.06506
 C570 C 0.87463 0.66869 0.08588
 C571 C 0.77531 0.60725 0.13900
 C572 C 0.79963 0.58412 0.11596
 C573 C 0.85803 0.73566 0.11483
 C574 C 0.88223 0.71260 0.09150
 H575 H 0.75050 0.59054 0.15282
 H576 H 0.79296 0.55026 0.11265
 H577 H 0.86583 0.76909 0.11910
 H578 H 0.90797 0.72897 0.07847
 H579 H 0.81237 0.77018 0.16461
 H580 H 0.73990 0.65448 0.18523
 H581 H 0.85558 0.54555 0.07528
 H582 H 0.92813 0.66033 0.05285
 C583 C 0.31715 1.16801 0.62452
 C584 C 0.32122 1.21274 0.62799
 C585 C 0.30037 1.23365 0.65460
 C586 C 0.27623 1.20977 0.67786
 C587 C 0.27246 1.16495 0.67301
 C588 C 0.29230 1.14414 0.64668
 C589 C 0.34174 1.14514 0.59863
 C590 C 0.33979 1.10008 0.59705
 C591 C 0.36669 1.07807 0.57504
 C592 C 0.39546 1.10056 0.55457
 C593 C 0.39546 1.14591 0.55504
 C594 C 0.36898 1.16841 0.57751
 C595 C 0.28950 1.09932 0.64328
 C596 C 0.31290 1.07766 0.61892
 C597 C 0.34757 1.23511 0.60552
 C598 C 0.37097 1.21339 0.58079
 H599 H 0.27002 1.08067 0.66023
 H600 H 0.31092 1.04296 0.61783
 H601 H 0.35105 1.26960 0.60759
 H602 H 0.39176 1.23189 0.56467
 H603 H 0.30437 1.26792 0.65792
 H604 H 0.25640 1.14497 0.69077
 H605 H 0.36711 1.04327 0.57511
 H606 H 0.41838 1.16334 0.53991
 C607 C 0.85225 0.34450 -0.14237
 C608 C 0.83066 0.30695 -0.13250
 C609 C 0.81118 0.28054 -0.15648
 C610 C 0.81309 0.29189 -0.19004
 C611 C 0.83753 0.32857 -0.19904
 C612 C 0.85596 0.35527 -0.17557
 C613 C 0.87225 0.37279 -0.11763
 C614 C 0.89380 0.41010 -0.12798
 C615 C 0.91483 0.43564 -0.10491
 C616 C 0.91595 0.42374 -0.07161
 C617 C 0.89274 0.38700 -0.06124
 C618 C 0.87075 0.36132 -0.08434
 C619 C 0.87742 0.39309 -0.18490
 C620 C 0.89578 0.42020 -0.16148
 C621 C 0.82886 0.29702 -0.09882
 C622 C 0.84874 0.32353 -0.07523
 H623 H 0.88007 0.40184 -0.21056
 H624 H 0.91237 0.44891 -0.16973
 H625 H 0.81227 0.26832 -0.09062
 H626 H 0.84714 0.31416 -0.04967
 H627 H 0.79460 0.25172 -0.14891
 H628 H 0.84094 0.33790 -0.22451
 H629 H 0.93268 0.46350 -0.11333
 H630 H 0.89374 0.37719 -0.03576
 C631 C 0.34968 0.84098 0.35813
 C632 C 0.33118 0.80131 0.36659
 C633 C 0.31206 0.77594 0.34186
 C634 C 0.31143 0.79034 0.30897
 C635 C 0.33323 0.82898 0.30115
 C636 C 0.35092 0.85483 0.32547
 C637 C 0.36910 0.86825 0.38373
 C638 C 0.38732 0.90783 0.37480
 C639 C 0.40787 0.93259 0.39853
 C640 C 0.41224 0.91757 0.43091
 C641 C 0.39223 0.87855 0.44004
 C642 C 0.37047 0.85366 0.41632
 C643 C 0.36913 0.89482 0.31762
 C644 C 0.38669 0.92107 0.34193
 C645 C 0.33204 0.78821 0.39964
 C646 C 0.35160 0.81373 0.42398
 H647 H 0.36978 0.90597 0.29244
 H648 H 0.40073 0.95157 0.33482
 H649 H 0.31787 0.75777 0.40671
 H650 H 0.35222 0.80194 0.44897
 H651 H 0.29778 0.74548 0.34833
 H652 H 0.33483 0.84048 0.27611
 H653 H 0.42295 0.96255 0.39122
 H654 H 0.39568 0.86653 0.46483
 C655 C 1.14640 1.15067 0.35353
 C656 C 1.18173 1.17642 0.36082
 C657 C 1.20174 1.19884 0.33558
 C658 C 1.18886 1.19446 0.30238
 C659 C 1.15299 1.16842 0.29547
 C660 C 1.13127 1.14685 0.32112
 C661 C 1.12517 1.12700 0.38037
 C662 C 1.08943 1.10158 0.37319
 C663 C 1.07106 1.07709 0.39820
 C664 C 1.08929 1.07589 0.42987
 C665 C 1.12371 1.10331 0.43732
 C666 C 1.14182 1.12914 0.41247
 C667 C 1.09475 1.12149 0.31519
 C668 C 1.07396 1.09947 0.34085
 C669 C 1.19667 1.17939 0.39326
 C670 C 1.17731 1.15574 0.41863
 H671 H 1.08232 1.11840 0.29053
 H672 H 1.04617 1.07979 0.33521
 H673 H 1.22416 1.19948 0.39895
 H674 H 1.19046 1.15800 0.44312
 H675 H 1.22700 1.22069 0.34258
 H676 H 1.14169 1.16545 0.27048
 H677 H 1.04372 1.05727 0.39232
 H678 H 1.13779 1.10267 0.46158
 C679 C 0.65032 0.64740 -0.14504
 C680 C 0.68675 0.67179 -0.13812
 C681 C 0.70684 0.69391 -0.16351
 C682 C 0.69246 0.69104 -0.19642
 C683 C 0.65566 0.66616 -0.20298
 C684 C 0.63417 0.64460 -0.17722
 C685 C 0.62886 0.62426 -0.11802
 C686 C 0.59227 0.59993 -0.12490
 C687 C 0.57375 0.57572 -0.09982
 C688 C 0.59211 0.57419 -0.06822
 C689 C 0.62742 0.60061 -0.06103
 C690 C 0.64607 0.62579 -0.08607
 C691 C 0.59674 0.62043 -0.18281
 C692 C 0.57600 0.59861 -0.15703
 C693 C 0.70241 0.67406 -0.10584
 C694 C 0.68262 0.65111 -0.08028
 H695 H 0.58355 0.61814 -0.20728
 H696 H 0.54750 0.57983 -0.16242
 H697 H 0.73070 0.69317 -0.10042
 H698 H 0.69625 0.65287 -0.05592
 H699 H 0.73250 0.71524 -0.15668
 H700 H 0.64331 0.66430 -0.22774
 H701 H 0.54617 0.55629 -0.10562
 H702 H 0.64179 0.59955 -0.03688
 C703 C 0.85545 1.15154 0.64594
 C704 C 0.81962 1.17667 0.63885
 C705 C 0.79949 1.19870 0.66420
 C706 C 0.81267 1.19442 0.69735
 C707 C 0.84904 1.16900 0.70405
 C708 C 0.87093 1.14792 0.67826
 C709 C 0.87682 1.12829 0.61896
 C710 C 0.91308 1.10353 0.62592
 C711 C 0.93156 1.07932 0.60081
 C712 C 0.91287 1.07765 0.56931
 C713 C 0.87795 1.10450 0.56205
 C714 C 0.85978 1.13011 0.58697
 C715 C 0.90797 1.12325 0.68396
 C716 C 0.92892 1.10169 0.65816
 C717 C 0.80433 1.17942 0.60650
 C718 C 0.82379 1.15610 0.58103
 H719 H 0.92069 1.12035 0.70855
 H720 H 0.95711 1.08253 0.66365
 H721 H 0.77646 1.19903 0.60097
 H722 H 0.81033 1.15811 0.55662
 H723 H 0.77394 1.22025 0.65733
 H724 H 0.86061 1.16618 0.72897
 H725 H 0.95930 1.05995 0.60649
 H726 H 0.86350 1.10348 0.53793
 C727 C 0.35228 0.64788 0.14531
 C728 C 0.31634 0.67289 0.13829
 C729 C 0.29633 0.69507 0.16366
 C730 C 0.31027 0.69161 0.19668
 C731 C 0.34668 0.66624 0.20331
 C732 C 0.36810 0.64461 0.17757
 C733 C 0.37347 0.62444 0.11835
 C734 C 0.40954 0.59943 0.12533
 C735 C 0.42776 0.57498 0.10028
 C736 C 0.40958 0.57386 0.06860
 C737 C 0.37481 0.60093 0.06133
 C738 C 0.35649 0.62636 0.08633
 C739 C 0.40504 0.61979 0.18326
 C740 C 0.42556 0.59773 0.15753
 C741 C 0.30095 0.67555 0.10595
 C742 C 0.32049 0.65235 0.08043
 H743 H 0.41799 0.61713 0.20779
 H744 H 0.45368 0.57844 0.16300
 H745 H 0.27305 0.69513 0.10044
 H746 H 0.30704 0.65443 0.05602
 H747 H 0.27069 0.71650 0.15682
 H748 H 0.35867 0.66387 0.22815
 H749 H 0.45502 0.55515 0.10614
 H750 H 0.36062 0.60025 0.03711
 C751 C 1.14132 0.83362 0.65603
 C752 C 1.16940 0.80092 0.64673
 C753 C 1.19295 0.78015 0.67076
 C754 C 1.18951 0.79122 0.70441
 C755 C 1.15990 0.82336 0.71351
 C756 C 1.13585 0.84488 0.68928
 C757 C 1.11923 0.85812 0.63023
 C758 C 1.09240 0.89207 0.63938
 C759 C 1.07353 0.91684 0.61488
 C760 C 1.08198 0.90870 0.58129
 C761 C 1.10811 0.87385 0.57239
 C762 C 1.12693 0.84840 0.59690
 C763 C 1.10765 0.87851 0.69735
 C764 C 1.08617 0.90164 0.67281
 C765 C 1.17534 0.79089 0.61337
 C766 C 1.15446 0.81429 0.58883
 H767 H 1.10279 0.88757 0.72276
 H768 H 1.06529 0.92790 0.68004
 H769 H 1.19710 0.76533 0.60615
 H770 H 1.16059 0.80620 0.56339
 H771 H 1.21677 0.75776 0.66220
 H772 H 1.15686 0.83278 0.73899
 H773 H 1.05341 0.94360 0.62222
 H774 H 1.11469 0.86740 0.54672
 C775 C 0.64166 0.33173 0.15619
 C776 C 0.67073 0.30010 0.14640
 C777 C 0.69466 0.27916 0.17012
 C778 C 0.69069 0.28908 0.20389
 C779 C 0.66019 0.32015 0.21349
 C780 C 0.63567 0.34177 0.18960
 C781 C 0.61894 0.35634 0.13079
 C782 C 0.59101 0.38922 0.14044
 C783 C 0.57156 0.41423 0.11629
 C784 C 0.58060 0.40733 0.08265
 C785 C 0.60773 0.37347 0.07327
 C786 C 0.62711 0.34783 0.09735
 C787 C 0.60638 0.37426 0.19820
 C788 C 0.58430 0.39751 0.17402
 C789 C 0.67709 0.29125 0.11290
 C790 C 0.65565 0.31479 0.08874
 H791 H 0.60109 0.38234 0.22375
 H792 H 0.56258 0.42288 0.18165
 H793 H 0.69960 0.26653 0.10528
 H794 H 0.66212 0.30766 0.06317
 H795 H 0.71894 0.25744 0.16133
 H796 H 0.65663 0.32855 0.23915
 H797 H 0.55057 0.44021 0.12390
 H798 H 0.61470 0.36796 0.04752
 C799 C 0.85741 0.83447 0.34409
 C800 C 0.83009 0.80112 0.35348
 C801 C 0.80644 0.78016 0.32957
 C802 C 0.80905 0.79176 0.29598
 C803 C 0.83798 0.82450 0.28678
 C804 C 0.86208 0.84618 0.31086
 C805 C 0.87949 0.85915 0.36978
 C806 C 0.90554 0.89370 0.36053
 C807 C 0.92460 0.91844 0.38493
 C808 C 0.91720 0.90964 0.41858
 C809 C 0.89164 0.87437 0.42758
 C810 C 0.87261 0.84893 0.40314
 C811 C 0.88947 0.88046 0.30267
 C812 C 0.91096 0.90376 0.32710
 C813 C 0.82491 0.79068 0.38685
 C814 C 0.84583 0.81423 0.41130
 H815 H 0.89368 0.88989 0.27727
 H816 H 0.93123 0.93049 0.31980
 H817 H 0.80373 0.76464 0.39417
 H818 H 0.84032 0.80575 0.43676
 H819 H 0.78301 0.75742 0.33823
 H820 H 0.84034 0.83435 0.26134
 H821 H 0.94418 0.94559 0.37750
 H822 H 0.88586 0.86741 0.45329
 C823 C 0.35735 0.33429 -0.15682
 C824 C 0.32798 0.30286 -0.14709
 C825 C 0.30408 0.28200 -0.17087
 C826 C 0.30842 0.29180 -0.20468
 C827 C 0.33906 0.32282 -0.21419
 C828 C 0.36356 0.34434 -0.19022
 C829 C 0.38040 0.35849 -0.13136
 C830 C 0.40880 0.39106 -0.14093
 C831 C 0.42875 0.41556 -0.11671
 C832 C 0.41979 0.40842 -0.08307
 C833 C 0.39212 0.37490 -0.07379
 C834 C 0.37224 0.34979 -0.09794
 C835 C 0.39322 0.37659 -0.19873
 C836 C 0.41556 0.39949 -0.17449
 C837 C 0.32153 0.29387 -0.11362
 C838 C 0.34328 0.31703 -0.08941
 H839 H 0.39867 0.38470 -0.22426
 H840 H 0.43763 0.42464 -0.18206
 H841 H 0.29879 0.26929 -0.10606
 H842 H 0.33679 0.30977 -0.06386
 H843 H 0.28003 0.25986 -0.16214
 H844 H 0.34292 0.33109 -0.23986
 H845 H 0.45014 0.44130 -0.12423
 H846 H 0.38520 0.36922 -0.04805
 C847 C 1.15808 0.32231 -0.13435
 C848 C 1.14850 0.27941 -0.14196
 C849 C 1.17193 0.25860 -0.16703
 C850 C 1.20439 0.28069 -0.18472
 C851 C 1.21383 0.32357 -0.17591
 C852 C 1.19110 0.34432 -0.15086
 C853 C 1.13168 0.34539 -0.10978
 C854 C 1.14042 0.38879 -0.10330
 C855 C 1.11407 0.41123 -0.08122
 C856 C 1.07896 0.39080 -0.06567
 C857 C 1.07103 0.34698 -0.07194
 C858 C 1.09728 0.32414 -0.09417
 C859 C 1.19963 0.38739 -0.14302
 C860 C 1.17473 0.40925 -0.11961
 C861 C 1.11447 0.25886 -0.12522
 C862 C 1.08933 0.28081 -0.10176
 H863 H 1.22525 0.40460 -0.15555
 H864 H 1.18188 0.44267 -0.11469
 H865 H 1.10667 0.22575 -0.13074
 H866 H 1.06300 0.26391 -0.08986
 H867 H 1.16339 0.22607 -0.17374
 H868 H 1.23783 0.34175 -0.18943
 H869 H 1.12054 0.44488 -0.07657
 H870 H 1.04400 0.33104 -0.06015
 C871 C 0.66562 0.83192 0.36734
 C872 C 0.65316 0.78919 0.36129
 C873 C 0.67412 0.76559 0.33632
 C874 C 0.70709 0.78474 0.31739
 C875 C 0.71980 0.82733 0.32511
 C876 C 0.69935 0.85086 0.34972
 C877 C 0.64112 0.85831 0.39104
 C878 C 0.65188 0.90190 0.39532
 C879 C 0.62620 0.92780 0.41579
 C880 C 0.59007 0.91027 0.43187
 C881 C 0.58098 0.86601 0.42836
 C882 C 0.60599 0.84007 0.40764
 C883 C 0.71056 0.89391 0.35566
 C884 C 0.68713 0.91904 0.37802
 C885 C 0.61855 0.77177 0.37928
 C886 C 0.59548 0.79672 0.40213
 H887 H 0.73689 0.90867 0.34218
 H888 H 0.69605 0.95241 0.38119
 H889 H 0.60858 0.73890 0.37512
 H890 H 0.56842 0.78227 0.41494
 H891 H 0.66321 0.73345 0.33052
 H892 H 0.74423 0.84368 0.31076
 H893 H 0.63348 0.96165 0.41838
 H894 H 0.55323 0.85203 0.44063
 C895 C 0.85185 0.66350 -0.14748
 C896 C 0.83372 0.64072 -0.17347
 C897 C 0.80650 0.66203 -0.19505
 C898 C 0.79792 0.70654 -0.19180
 C899 C 0.81670 0.72908 -0.16554
 C900 C 0.84324 0.70747 -0.14299
 C901 C 0.88040 0.64074 -0.12456
 C902 C 0.89755 0.66303 -0.09782
 C903 C 0.92383 0.64091 -0.07568
 C904 C 0.93371 0.59718 -0.08067
 C905 C 0.91718 0.57556 -0.10799
 C906 C 0.88982 0.59703 -0.12975
 C907 C 0.86148 0.72875 -0.11606
 C908 C 0.88793 0.70684 -0.09373
 C909 C 0.84335 0.59697 -0.17772
 C910 C 0.87121 0.57555 -0.15635
 H911 H 0.85510 0.76255 -0.11212
 H912 H 0.90110 0.72438 -0.07316
 H913 H 0.82944 0.57918 -0.19789
 H914 H 0.87798 0.54186 -0.16053
 H915 H 0.79262 0.64326 -0.21461
 H916 H 0.81040 0.76307 -0.16256
 H917 H 0.93687 0.65772 -0.05468
 H918 H 0.92452 0.54191 -0.11166
 C919 C 0.34390 1.16599 0.35514
 C920 C 0.31564 1.14283 0.33526
 C921 C 0.29074 1.16474 0.31242
 C922 C 0.29327 1.20993 0.30905
 C923 C 0.32129 1.23292 0.32975
 C924 C 0.34691 1.21094 0.35278
 C925 C 0.37155 1.14246 0.37833
 C926 C 0.40077 1.16527 0.39780
 C927 C 0.42806 1.14246 0.41898
 C928 C 0.42632 1.09719 0.42043
 C929 C 0.39620 1.07504 0.40115
 C930 C 0.36887 1.09745 0.38001
 C931 C 0.37606 1.23272 0.37315
 C932 C 0.40253 1.21030 0.39523
 C933 C 0.31320 1.09794 0.33808
 C934 C 0.33941 1.07561 0.36009
 H935 H 0.37879 1.26734 0.37176
 H936 H 0.42488 1.22834 0.41020
 H937 H 0.29121 1.07986 0.32284
 H938 H 0.33696 1.04094 0.36124
 H939 H 0.26919 1.14604 0.29730
 H940 H 0.32369 1.26750 0.32759
 H941 H 0.45112 1.15982 0.43381
 H942 H 0.39446 1.04031 0.40221
 C943 C 1.15041 0.66273 0.14821
 C944 C 1.15372 0.70774 0.14653
 C945 C 1.18110 0.72945 0.16840
 C946 C 1.20542 0.70619 0.19141
 C947 C 1.20270 0.66076 0.19145
 C948 C 1.17487 0.63911 0.17051
 C949 C 1.12066 0.63978 0.12632
 C950 C 1.11664 0.59484 0.12874
 C951 C 1.08821 0.57316 0.10788
 C952 C 1.06523 0.59610 0.08415
 C953 C 1.06963 0.64104 0.08195
 C954 C 1.09699 0.66317 0.10326
 C955 C 1.17060 0.59421 0.17195
 C956 C 1.14170 0.57246 0.15157
 C957 C 1.12913 0.73001 0.12325
 C958 C 1.10146 0.70807 0.10183
 H959 H 1.18944 0.57576 0.18924
 H960 H 1.13914 0.53786 0.15357
 H961 H 1.13134 0.76464 0.12152
 H962 H 1.08325 0.72642 0.08409
 H963 H 1.18309 0.76417 0.16776
 H964 H 1.22168 0.64162 0.20813
 H965 H 1.08522 0.53855 0.10917
 H966 H 1.05172 0.65867 0.06358
 C967 C 0.65705 1.16560 0.64489
 C968 C 0.68543 1.14231 0.66460
 C969 C 0.71049 1.16408 0.68740
 C970 C 0.70795 1.20923 0.69095
 C971 C 0.67984 1.23234 0.67041
 C972 C 0.65409 1.21053 0.64739
 C973 C 0.62919 1.14222 0.62177
 C974 C 0.59987 1.16516 0.60248
 C975 C 0.57237 1.14249 0.58138
 C976 C 0.57398 1.09723 0.57986
 C977 C 0.60420 1.07494 0.59896
 C978 C 0.63177 1.09722 0.61999
 C979 C 0.62484 1.23245 0.62720
 C980 C 0.59820 1.21017 0.60516
 C981 C 0.68777 1.09744 0.66165
 C982 C 0.66135 1.07525 0.63972
 H983 H 0.62217 1.26706 0.62871
 H984 H 0.57577 1.22830 0.59034
 H985 H 0.70985 1.07926 0.67675
 H986 H 0.66371 1.04058 0.63848
 H987 H 0.73214 1.14531 0.70240
 H988 H 0.67745 1.26691 0.67270
 H989 H 0.54923 1.15993 0.56670
 H990 H 0.60583 1.04021 0.59783
 C991 C 0.84056 0.32303 0.13342
 C992 C 0.80573 0.34330 0.14900
 C993 C 0.78379 0.32193 0.17420
 C994 C 0.79529 0.27982 0.18372
 C995 C 0.82956 0.25937 0.16690
 C996 C 0.85261 0.28108 0.14197
 C997 C 0.86629 0.34718 0.10896
 C998 C 0.90285 0.32806 0.09467
 C999 C 0.92870 0.35228 0.07292
 C1000 C 0.91804 0.39527 0.06568
 C1001 C 0.88053 0.41330 0.07961
 C1002 C 0.85482 0.38963 0.10141
 C1003 C 0.88862 0.26250 0.12637
 C1004 C 0.91333 0.28559 0.10322
 C1005 C 0.79460 0.38542 0.14015
 C1006 C 0.81864 0.40815 0.11666
 H1007 H 0.89838 0.23015 0.13262
 H1008 H 0.94131 0.27028 0.09234
 H1009 H 0.76753 0.40125 0.15192
 H1010 H 0.80941 0.44084 0.11095
 H1011 H 0.75873 0.33917 0.18726
 H1012 H 0.83979 0.22756 0.17423
 H1013 H 0.95754 0.33815 0.06237
 H1014 H 0.87202 0.44632 0.07428
 C1015 C 0.33366 0.83233 0.63440
 C1016 C 0.30022 0.85127 0.65230
 C1017 C 0.27952 0.82745 0.67669
 C1018 C 0.29171 0.78455 0.68394
 C1019 C 0.32447 0.76548 0.66478
 C1020 C 0.34565 0.78936 0.64001
 C1021 C 0.35823 0.85886 0.61075
 C1022 C 0.39295 0.84052 0.59378
 C1023 C 0.41792 0.86649 0.57298
 C1024 C 0.40921 0.91087 0.56971
 C1025 C 0.37349 0.92852 0.58624
 C1026 C 0.34786 0.90259 0.60681
 C1027 C 0.37992 0.77192 0.62170
 C1028 C 0.40305 0.79700 0.59892
 C1029 C 0.28946 0.89452 0.64677
 C1030 C 0.31296 0.91979 0.62447
 H1031 H 0.38955 0.73888 0.62551
 H1032 H 0.42981 0.78248 0.58582
 H1033 H 0.26338 0.90932 0.66047
 H1034 H 0.30434 0.95327 0.62158
 H1035 H 0.25516 0.84368 0.69115
 H1036 H 0.33495 0.73309 0.67017
 H1037 H 0.44533 0.85239 0.56038
 H1038 H 0.36650 0.96245 0.58389
 C1039 C 0.33117 1.15263 -0.14433
 C1040 C 0.35229 1.16551 -0.17303
 C1041 C 0.32856 1.18408 -0.19803
 C1042 C 0.28359 1.19139 -0.19482
 C1043 C 0.26244 1.17679 -0.16616
 C1044 C 0.28631 1.15759 -0.14067
 C1045 C 0.35686 1.13430 -0.11747
 C1046 C 0.33609 1.12129 -0.08851
 C1047 C 0.36089 1.10394 -0.06304
 C1048 C 0.40612 1.10026 -0.06641
 C1049 C 0.42629 1.11369 -0.09554
 C1050 C 0.40183 1.13050 -0.12119
 C1051 C 0.26666 1.14409 -0.11125
 C1052 C 0.29109 1.12612 -0.08568
 C1053 C 0.39718 1.16077 -0.17606
 C1054 C 0.42158 1.14363 -0.15052
 H1055 H 0.23218 1.14764 -0.10789
 H1056 H 0.27464 1.11621 -0.06341
 H1057 H 0.41369 1.17085 -0.19828
 H1058 H 0.45617 1.14079 -0.15370
 H1059 H 0.34645 1.19436 -0.21945
 H1060 H 0.22811 1.18179 -0.16320
 H1061 H 0.34512 1.09363 -0.04058
 H1062 H 0.46094 1.11069 -0.09836
 C1063 C 0.83094 0.65123 0.35352
 C1064 C 0.85090 0.66243 0.32396
 C1065 C 0.82643 0.68126 0.29935
 C1066 C 0.78205 0.69085 0.30400
 C1067 C 0.76192 0.67738 0.33340
 C1068 C 0.78646 0.65786 0.35841
 C1069 C 0.85747 0.63300 0.38005
 C1070 C 0.83775 0.62166 0.40979
 C1071 C 0.86319 0.60438 0.43490
 C1072 C 0.90817 0.59913 0.43057
 C1073 C 0.92743 0.61109 0.40068
 C1074 C 0.90215 0.62770 0.37524
 C1075 C 0.76794 0.64598 0.38864
 C1076 C 0.79308 0.62803 0.41380
 C1077 C 0.89546 0.65602 0.31977
 C1078 C 0.92069 0.63909 0.34502
 H1079 H 0.73380 0.65084 0.39297
 H1080 H 0.77747 0.61942 0.43672
 H1081 H 0.91112 0.66475 0.29689
 H1082 H 0.95499 0.63505 0.34089
 H1083 H 0.84339 0.69013 0.27714
 H1084 H 0.72806 0.68406 0.33746
 H1085 H 0.84804 0.59536 0.45792
 H1086 H 0.96183 0.60685 0.39710
 C1087 C 0.66997 1.15004 0.14364
 C1088 C 0.71414 1.15839 0.13879
 C1089 C 0.73818 1.17724 0.16435
 C1090 C 0.71772 1.18851 0.19414
 C1091 C 0.67382 1.17706 0.19868
 C1092 C 0.64988 1.15882 0.17363
 C1093 C 0.64386 1.13254 0.11668
 C1094 C 0.59945 1.12552 0.12159
 C1095 C 0.57451 1.10970 0.09583
 C1096 C 0.59374 1.10021 0.06547
 C1097 C 0.63843 1.10703 0.06092
 C1098 C 0.66362 1.12361 0.08647
 C1099 C 0.60564 1.15064 0.17787
 C1100 C 0.58078 1.13440 0.15222
 C1101 C 0.73280 1.14889 0.10814
 C1102 C 0.70802 1.13164 0.08248
 H1103 H 0.58992 1.15747 0.20110
 H1104 H 0.54667 1.12895 0.15635
 H1105 H 0.76673 1.15513 0.10385
 H1106 H 0.72368 1.12490 0.05922
 H1107 H 0.77180 1.18518 0.16044
 H1108 H 0.65676 1.18387 0.22126
 H1109 H 0.54030 1.10415 0.09953
 H1110 H 0.65344 1.09975 0.03750
 C1111 C 1.16703 0.65134 0.64592
 C1112 C 1.21166 0.65743 0.64144
 C1113 C 1.23605 0.67682 0.66662
 C1114 C 1.21564 0.69060 0.69582
 C1115 C 1.17101 0.68173 0.69998
 C1116 C 1.14671 0.66305 0.67521
 C1117 C 1.14072 0.63308 0.61928
 C1118 C 1.09591 0.62827 0.62371
 C1119 C 1.07086 0.61158 0.59817
 C1120 C 1.09043 0.59907 0.56855
 C1121 C 1.13553 0.60383 0.56460
 C1122 C 1.16078 0.62118 0.58981
 C1123 C 1.10200 0.65720 0.67901
 C1124 C 1.07700 0.64024 0.65364
 C1125 C 1.23052 0.64503 0.61147
 C1126 C 1.20558 0.62706 0.58619
 H1127 H 1.08607 0.66636 0.70167
 H1128 H 1.04259 0.63662 0.65747
 H1129 H 1.26479 0.64946 0.60744
 H1130 H 1.22147 0.61802 0.56349
 H1131 H 1.27009 0.68302 0.66290
 H1132 H 1.15373 0.69101 0.72193
 H1133 H 1.03636 0.60774 0.60147
 H1134 H 1.15094 0.59438 0.54179
 C1135 C 0.66510 0.83984 -0.13394
 C1136 C 0.64430 0.80648 -0.15026
 C1137 C 0.66675 0.78340 -0.17389
 C1138 C 0.71050 0.79225 -0.18186
 C1139 C 0.73140 0.82552 -0.16459
 C1140 C 0.70863 0.84954 -0.14055
 C1141 C 0.64011 0.86600 -0.11037
 C1142 C 0.66030 0.90009 -0.09414
 C1143 C 0.63609 0.92482 -0.07175
 C1144 C 0.59197 0.91579 -0.06609
 C1145 C 0.57234 0.88182 -0.08295
 C1146 C 0.59623 0.85670 -0.10490
 C1147 C 0.72778 0.88390 -0.12363
 C1148 C 0.70411 0.90861 -0.10078
 C1149 C 0.60064 0.79762 -0.14377
 C1150 C 0.57698 0.82235 -0.12146
 H1151 H 0.76123 0.89202 -0.12826
 H1152 H 0.72016 0.93486 -0.08843
 H1153 H 0.58445 0.77164 -0.15638
 H1154 H 0.54329 0.81472 -0.11733
 H1155 H 0.64853 0.75966 -0.18722
 H1156 H 0.76440 0.83383 -0.17073
 H1157 H 0.65144 0.95106 -0.05884
 H1158 H 0.53870 0.87432 -0.07846
 C1159 C 1.16080 0.34332 0.36277
 C1160 C 1.13977 0.31072 0.34575
 C1161 C 1.16252 0.28740 0.32256
 C1162 C 1.20673 0.29534 0.31569
 C1163 C 1.22788 0.32774 0.33363
 C1164 C 1.20482 0.35200 0.35726
 C1165 C 1.13568 0.36952 0.38608
 C1166 C 1.15620 0.40265 0.40316
 C1167 C 1.13202 0.42706 0.42564
 C1168 C 1.08771 0.41848 0.43068
 C1169 C 1.06760 0.38583 0.41274
 C1170 C 1.09146 0.36102 0.39066
 C1171 C 1.22423 0.38553 0.37492
 C1172 C 1.20038 0.41033 0.39753
 C1173 C 1.09573 0.30273 0.35123
 C1174 C 1.07192 0.32754 0.37333
 H1175 H 1.25804 0.39285 0.37110
 H1176 H 1.21662 0.43587 0.41059
 H1177 H 1.07942 0.27733 0.33804
 H1178 H 1.03796 0.32056 0.37678
 H1179 H 1.14434 0.26394 0.30888
 H1180 H 1.26137 0.33508 0.32840
 H1181 H 1.14767 0.45236 0.43939
 H1182 H 1.03369 0.37891 0.41667
 C1183 C 0.33644 0.83992 0.13429
 C1184 C 0.29268 0.84888 0.14059
 C1185 C 0.27018 0.82491 0.16483
 C1186 C 0.29163 0.79251 0.18264
 C1187 C 0.33562 0.78445 0.17506
 C1188 C 0.35777 0.80739 0.15118
 C1189 C 0.36103 0.86591 0.11036
 C1190 C 0.40505 0.85720 0.10506
 C1191 C 0.42855 0.88214 0.08275
 C1192 C 0.40847 0.91544 0.06545
 C1193 C 0.36420 0.92389 0.07093
 C1194 C 0.34033 0.89923 0.09361
 C1195 C 0.40157 0.79912 0.14488
 C1196 C 0.42483 0.82363 0.12216
 C1197 C 0.27299 0.88245 0.12311
 C1198 C 0.29635 0.90709 0.10001
 H1199 H 0.41815 0.77376 0.15791
 H1200 H 0.45863 0.81645 0.11815
 H1201 H 0.23937 0.88999 0.12751
 H1202 H 0.27990 0.93274 0.08723
 H1203 H 0.23692 0.83250 0.17061
 H1204 H 0.35412 0.76120 0.18869
 H1205 H 0.46229 0.87505 0.07837
 H1206 H 0.34850 0.94959 0.05766
 C1207 C 0.83917 0.34304 0.63691
 C1208 C 0.79508 0.35126 0.64243
 C1209 C 0.77234 0.32699 0.66627
 C1210 C 0.79390 0.29504 0.68438
 C1211 C 0.83818 0.28759 0.67753
 C1212 C 0.86060 0.31090 0.65413
 C1213 C 0.86393 0.36923 0.61335
 C1214 C 0.90823 0.36117 0.60875
 C1215 C 0.93176 0.38598 0.58647
 C1216 C 0.91129 0.41821 0.56834
 C1217 C 0.86691 0.42635 0.57337
 C1218 C 0.84304 0.40192 0.59605
 C1219 C 0.90469 0.30332 0.64864
 C1220 C 0.92816 0.32812 0.62630
 C1221 C 0.77526 0.38435 0.62455
 C1222 C 0.79879 0.40916 0.60170
 H1223 H 0.92130 0.27826 0.66199
 H1224 H 0.96218 0.32149 0.62283
 H1225 H 0.74139 0.39130 0.62836
 H1226 H 0.78225 0.43434 0.58847
 H1227 H 0.73877 0.33393 0.67147
 H1228 H 0.85665 0.26445 0.69129
 H1229 H 0.96574 0.37940 0.58256
 H1230 H 0.85099 0.45134 0.55946
 C1231 C 1.12563 1.14884 0.65899
 C1232 C 1.15357 1.12737 0.68032
 C1233 C 1.17491 1.15068 0.70431
 C1234 C 1.17235 1.19577 0.70490
 C1235 C 1.14026 1.21617 0.68615
 C1236 C 1.11742 1.19289 0.66243
 C1237 C 1.10562 1.12489 0.63209
 C1238 C 1.07696 1.14590 0.61084
 C1239 C 1.05836 1.12257 0.58500
 C1240 C 1.07035 1.07956 0.57996
 C1241 C 1.09917 1.05934 0.60133
 C1242 C 1.11629 1.08150 0.62776
 C1243 C 1.08819 1.21288 0.64107
 C1244 C 1.06800 1.18967 0.61585
 C1245 C 1.16179 1.08346 0.67610
 C1246 C 1.14379 1.06094 0.64994
 H1247 H 1.08150 1.24687 0.64348
 H1248 H 1.04596 1.20631 0.59974
 H1249 H 1.18350 1.06675 0.69245
 H1250 H 1.15170 1.02729 0.64690
 H1251 H 1.19594 1.13362 0.72091
 H1252 H 1.13441 1.25021 0.68886
 H1253 H 1.03539 1.13767 0.56873
 H1254 H 1.10723 1.02573 0.59791
 C1255 C 0.62310 0.66049 0.15327
 C1256 C 0.61672 0.65162 0.18681
 C1257 C 0.64109 0.67407 0.21035
 C1258 C 0.67113 0.70550 0.20034
 C1259 C 0.67455 0.71523 0.16647
 C1260 C 0.65179 0.69236 0.14302
 C1261 C 0.60088 0.63465 0.12829
 C1262 C 0.61020 0.64142 0.09481
 C1263 C 0.59159 0.61454 0.07125
 C1264 C 0.56293 0.58218 0.08107
 C1265 C 0.55265 0.57677 0.11455
 C1266 C 0.57220 0.60245 0.13839
 C1267 C 0.65895 0.69958 0.10939
 C1268 C 0.63879 0.67423 0.08566
 C1269 C 0.58716 0.61947 0.19589
 C1270 C 0.56499 0.59556 0.17209
 H1271 H 0.68130 0.72426 0.10137
 H1272 H 0.64603 0.68001 0.06000
 H1273 H 0.58154 0.61235 0.22157
 H1274 H 0.54284 0.57073 0.18013
 H1275 H 0.63765 0.66616 0.23611
 H1276 H 0.69725 0.73881 0.15757
 H1277 H 0.59959 0.61837 0.04548
 H1278 H 0.53130 0.55103 0.12213
 C1279 C 1.15631 0.84210 0.34982
 C1280 C 1.13555 0.81243 0.32947
 C1281 C 1.15844 0.79447 0.30313
 C1282 C 1.20191 0.80601 0.29716
 C1283 C 1.22036 0.83911 0.31587
 C1284 C 1.19854 0.85585 0.34307
 C1285 C 1.13341 0.85922 0.37868
 C1286 C 1.15469 0.88814 0.39936
 C1287 C 1.13227 0.90591 0.42586
 C1288 C 1.08816 0.89690 0.43070
 C1289 C 1.06757 0.86668 0.41045
 C1290 C 1.09030 0.84736 0.38449
 C1291 C 1.21874 0.88492 0.36431
 C1292 C 1.19729 0.90051 0.39220
 C1293 C 1.09284 0.80027 0.33655
 C1294 C 1.07042 0.81783 0.36340
 H1295 H 1.25154 0.89531 0.35955
 H1296 H 1.21391 0.92299 0.40796
 H1297 H 1.07652 0.77722 0.32108
 H1298 H 1.03725 0.80827 0.36763
 H1299 H 1.14298 0.76992 0.28855
 H1300 H 1.25238 0.85057 0.31044
 H1301 H 1.14828 0.92960 0.44099
 H1302 H 1.03356 0.85987 0.41391
 C1303 C 0.65854 0.34227 -0.14832
 C1304 C 0.63747 0.31329 -0.16908
 C1305 C 0.66000 0.29609 -0.19588
 C1306 C 0.70350 0.30747 -0.20174
 C1307 C 0.72227 0.34003 -0.18263
 C1308 C 0.70071 0.35614 -0.15508
 C1309 C 0.63601 0.35846 -0.11898
 C1310 C 0.65742 0.38697 -0.09801
 C1311 C 0.63511 0.40428 -0.07124
 C1312 C 0.59107 0.39503 -0.06639
 C1313 C 0.57057 0.36483 -0.08671
 C1314 C 0.59305 0.34625 -0.11304
 C1315 C 0.72114 0.38461 -0.13348
 C1316 C 0.69994 0.39954 -0.10526
 C1317 C 0.59491 0.30080 -0.16188
 C1318 C 0.57291 0.31734 -0.13449
 H1319 H 0.75391 0.39509 -0.13826
 H1320 H 0.71669 0.42167 -0.08928
 H1321 H 0.57840 0.27823 -0.17764
 H1322 H 0.53983 0.30758 -0.13014
 H1323 H 0.64436 0.27198 -0.21077
 H1324 H 0.75441 0.35137 -0.18797
 H1325 H 0.65099 0.42795 -0.05602
 H1326 H 0.53660 0.35783 -0.08321
 C1327 C 0.87561 1.14850 0.34007
 C1328 C 0.88319 1.19271 0.33683
 C1329 C 0.85997 1.21588 0.31324
 C1330 C 0.82806 1.19521 0.29448
 C1331 C 0.82589 1.15008 0.29503
 C1332 C 0.84778 1.12685 0.31877
 C1333 C 0.89617 1.12456 0.36674
 C1334 C 0.88620 1.08094 0.37082
 C1335 C 0.90370 1.05877 0.39710
 C1336 C 0.93211 1.07927 0.41863
 C1337 C 0.94348 1.12251 0.41382
 C1338 C 0.92456 1.14580 0.38807
 C1339 C 0.84025 1.08276 0.32273
 C1340 C 0.85886 1.06020 0.34863
 C1341 C 0.91223 1.21292 0.35822
 C1342 C 0.93283 1.18976 0.38329
 H1343 H 0.81866 1.06590 0.30638
 H1344 H 0.85149 1.02638 0.35148
 H1345 H 0.91843 1.24703 0.35598
 H1346 H 0.95465 1.20659 0.39947
 H1347 H 0.86544 1.25001 0.31062
 H1348 H 0.80491 1.13284 0.27850
 H1349 H 0.89607 1.02503 0.40040
 H1350 H 0.96609 1.13785 0.43025
 C1351 C 0.37493 0.65886 -0.15274
 C1352 C 0.38173 0.65065 -0.18632
 C1353 C 0.35670 0.67255 -0.20977
 C1354 C 0.32559 0.70279 -0.19960
 C1355 C 0.32153 0.71174 -0.16566
 C1356 C 0.34499 0.68943 -0.14233
 C1357 C 0.39825 0.63382 -0.12788
 C1358 C 0.38872 0.63996 -0.09437
 C1359 C 0.40837 0.61367 -0.07094
 C1360 C 0.43820 0.58251 -0.08088
 C1361 C 0.44874 0.57782 -0.11438
 C1362 C 0.42821 0.60292 -0.13811
 C1363 C 0.33757 0.69610 -0.10868
 C1364 C 0.35880 0.67144 -0.08507
 C1365 C 0.41257 0.61984 -0.19555
 C1366 C 0.43566 0.59661 -0.17185
 H1367 H 0.31427 0.71978 -0.10054
 H1368 H 0.35137 0.67672 -0.05938
 H1369 H 0.41852 0.61324 -0.22126
 H1370 H 0.45878 0.57278 -0.18000
 H1371 H 0.36070 0.66534 -0.23560
 H1372 H 0.29834 0.73476 -0.15668
 H1373 H 0.40010 0.61688 -0.04517
 H1374 H 0.47092 0.55289 -0.12208
 C1375 C 0.84443 0.84348 0.65039
 C1376 C 0.80212 0.85693 0.65710
 C1377 C 0.78038 0.84004 0.68432
 C1378 C 0.79910 0.80718 0.70312
 C1379 C 0.84267 0.79606 0.69723
 C1380 C 0.86540 0.81406 0.67082
 C1381 C 0.86722 0.86064 0.62147
 C1382 C 0.91034 0.84896 0.61565
 C1383 C 0.93294 0.86825 0.58962
 C1384 C 0.91227 0.89839 0.56937
 C1385 C 0.86817 0.90730 0.57423
 C1386 C 0.84580 0.88943 0.60075
 C1387 C 0.90815 0.80213 0.66376
 C1388 C 0.93042 0.81964 0.63681
 C1389 C 0.78177 0.88583 0.63580
 C1390 C 0.80316 0.90155 0.60791
 H1391 H 0.92461 0.77927 0.67930
 H1392 H 0.96362 0.81026 0.63257
 H1393 H 0.74890 0.89601 0.64055
 H1394 H 0.78642 0.92393 0.59211
 H1395 H 0.74825 0.85120 0.68970
 H1396 H 0.85836 0.77175 0.71190
 H1397 H 0.96696 0.86152 0.58613
 H1398 H 0.85212 0.93094 0.55907
 C1399 C 0.34265 0.34362 0.14874
 C1400 C 0.30023 0.35707 0.15502
 C1401 C 0.27852 0.34123 0.18263
 C1402 C 0.29746 0.30925 0.20222
 C1403 C 0.34125 0.29858 0.19694
 C1404 C 0.36386 0.31548 0.17008
 C1405 C 0.36525 0.35926 0.11925
 C1406 C 0.40837 0.34736 0.11371
 C1407 C 0.43086 0.36541 0.08716
 C1408 C 0.41028 0.39489 0.06629
 C1409 C 0.36610 0.40374 0.07075
 C1410 C 0.34372 0.38690 0.09769
 C1411 C 0.40663 0.30335 0.16333
 C1412 C 0.42866 0.31934 0.13575
 C1413 C 0.27969 0.38469 0.13285
 C1414 C 0.30100 0.39914 0.10450
 H1415 H 0.42324 0.28142 0.17955
 H1416 H 0.46188 0.30986 0.13173
 H1417 H 0.24674 0.39483 0.13725
 H1418 H 0.28415 0.42061 0.08807
 H1419 H 0.24612 0.35214 0.18757
 H1420 H 0.35704 0.27504 0.21227
 H1421 H 0.46493 0.35869 0.08396
 H1422 H 0.35012 0.42684 0.05507
   
