data_POSCAR
  _audit_creation_date              2014-09-24
  _audit_creation_method            'ToBaCCo'
  _symmetry_space_group_name_H-M    'P1'
  _symmetry_Int_Tables_number       1
  _symmetry_cell_setting            triclinic
  loop_
  _symmetry_equiv_pos_as_xyz
 x,y,z
_cell_length_a 68.1992
_cell_length_b 68.4703
_cell_length_c 68.0480
_cell_angle_alpha 90.026700
_cell_angle_beta 89.955600
_cell_angle_gamma 90.011700
loop_
  _atom_site_label
  _atom_site_type_symbol
  _atom_site_fract_x
  _atom_site_fract_y
  _atom_site_fract_z
N1 N 0.16676 0.21458 0.21626
 N2 N 0.17116 0.19927 0.22707
 C3 C 0.15793 0.19768 0.24173
 C4 C 0.14472 0.21281 0.23988
 C5 C 0.15065 0.22327 0.22366
 H6 H 0.15788 0.18644 0.25289
 H7 H 0.14378 0.23621 0.21771
 Cu8 Cu 0.19372 0.18303 0.22075
 Cu9 Cu 0.18221 0.22218 0.19344
 Cu10 Cu 0.22252 0.19332 0.18205
 N11 N 0.21632 0.16689 0.21430
 N12 N 0.22752 0.17104 0.19911
 C13 C 0.24202 0.15775 0.19788
 C14 C 0.23969 0.14467 0.21307
 C15 C 0.22332 0.15077 0.22325
 H16 H 0.25341 0.15761 0.18681
 H17 H 0.21705 0.14397 0.23614
 N18 N 0.21500 0.21650 0.16662
 N19 N 0.19965 0.22747 0.17096
 C20 C 0.19832 0.24204 0.15774
 C21 C 0.21351 0.24006 0.14458
 C22 C 0.22384 0.22383 0.15050
 H23 H 0.18716 0.25325 0.15762
 H24 H 0.23677 0.21784 0.14356
 H25 H 0.19263 0.19459 0.18685
 H26 H 0.20838 0.21022 0.20280
 N27 N 0.66713 0.71481 0.71622
 N28 N 0.67146 0.69945 0.72699
 C29 C 0.65824 0.69790 0.74165
 C30 C 0.64508 0.71307 0.73983
 C31 C 0.65105 0.72354 0.72363
 H32 H 0.65816 0.68665 0.75280
 H33 H 0.64421 0.73651 0.71769
 Cu34 Cu 0.69399 0.68312 0.72075
 Cu35 Cu 0.68261 0.72240 0.69344
 Cu36 Cu 0.72283 0.69353 0.68202
 N37 N 0.71660 0.66704 0.71419
 N38 N 0.72783 0.67124 0.69903
 C39 C 0.74235 0.65797 0.69779
 C40 C 0.74003 0.64488 0.71297
 C41 C 0.72364 0.65094 0.72314
 H42 H 0.75373 0.65785 0.68672
 H43 H 0.71739 0.64414 0.73604
 N44 N 0.71535 0.71671 0.66660
 N45 N 0.70002 0.72769 0.67098
 C46 C 0.69870 0.74227 0.65776
 C47 C 0.71387 0.74027 0.64457
 C48 C 0.72418 0.72402 0.65048
 H49 H 0.68755 0.75349 0.65765
 H50 H 0.73709 0.71801 0.64351
 H51 H 0.69294 0.69473 0.68688
 H52 H 0.70873 0.71029 0.70292
 N53 N 0.33262 0.78558 0.71643
 N54 N 0.32831 0.80097 0.72719
 C55 C 0.34151 0.80250 0.74186
 C56 C 0.35463 0.78726 0.74005
 C57 C 0.34865 0.77681 0.72384
 H58 H 0.34158 0.81373 0.75303
 H59 H 0.35546 0.76381 0.71791
 Cu60 Cu 0.30571 0.81721 0.72080
 Cu61 Cu 0.31716 0.77794 0.69364
 Cu62 Cu 0.27692 0.80686 0.68220
 N63 N 0.28310 0.83345 0.71442
 N64 N 0.27188 0.82923 0.69926
 C65 C 0.25731 0.84247 0.69807
 C66 C 0.25961 0.85557 0.71327
 C67 C 0.27604 0.84954 0.72341
 H68 H 0.24593 0.84255 0.68701
 H69 H 0.28228 0.85631 0.73633
 N70 N 0.28447 0.78361 0.66675
 N71 N 0.29978 0.77262 0.67115
 C72 C 0.30113 0.75800 0.65796
 C73 C 0.28599 0.75995 0.64476
 C74 C 0.27568 0.77624 0.65063
 H75 H 0.31227 0.74677 0.65788
 H76 H 0.26278 0.78223 0.64364
 H77 H 0.30680 0.80550 0.68696
 H78 H 0.29100 0.79000 0.70300
 N79 N 0.83352 0.28520 0.21674
 N80 N 0.82911 0.30055 0.22754
 C81 C 0.84229 0.30216 0.24221
 C82 C 0.85546 0.28700 0.24037
 C83 C 0.84959 0.27650 0.22416
 H84 H 0.84233 0.31344 0.25335
 H85 H 0.85646 0.26353 0.21822
 Cu86 Cu 0.80660 0.31677 0.22109
 Cu87 Cu 0.81817 0.27759 0.19386
 Cu88 Cu 0.77804 0.30659 0.18229
 N89 N 0.78411 0.33300 0.21463
 N90 N 0.77302 0.32890 0.19936
 C91 C 0.75854 0.34220 0.19809
 C92 C 0.76077 0.35524 0.21334
 C93 C 0.77707 0.34910 0.22359
 H94 H 0.74722 0.34236 0.18697
 H95 H 0.78324 0.35586 0.23655
 N96 N 0.78558 0.28338 0.16688
 N97 N 0.80084 0.27233 0.17132
 C98 C 0.80213 0.25769 0.15815
 C99 C 0.78702 0.25972 0.14493
 C100 C 0.77678 0.27605 0.15076
 H101 H 0.81321 0.24640 0.15812
 H102 H 0.76391 0.28209 0.14376
 H103 H 0.80791 0.30521 0.18723
 H104 H 0.79198 0.28964 0.20309
 N105 N 0.83306 0.71478 0.28374
 N106 N 0.82872 0.69941 0.27297
 C107 C 0.84195 0.69781 0.25834
 C108 C 0.85512 0.71297 0.26017
 C109 C 0.84915 0.72348 0.27635
 H110 H 0.84202 0.68657 0.24717
 H111 H 0.85598 0.73647 0.28226
 Cu112 Cu 0.80608 0.68323 0.27915
 Cu113 Cu 0.81760 0.72239 0.30653
 Cu114 Cu 0.77752 0.69340 0.31813
 N115 N 0.78371 0.66692 0.28589
 N116 N 0.77257 0.67105 0.30114
 C117 C 0.75809 0.65774 0.30243
 C118 C 0.76037 0.64468 0.28720
 C119 C 0.77668 0.65081 0.27695
 H120 H 0.74674 0.65760 0.31353
 H121 H 0.78285 0.64407 0.26397
 N122 N 0.78498 0.71665 0.33348
 N123 N 0.80024 0.72770 0.32902
 C124 C 0.80152 0.74236 0.34217
 C125 C 0.78641 0.74034 0.35540
 C126 C 0.77617 0.72399 0.34961
 H127 H 0.81261 0.75364 0.34219
 H128 H 0.76331 0.71794 0.35664
 H129 H 0.80731 0.69471 0.31303
 H130 H 0.79137 0.71031 0.29721
 N131 N 0.33327 0.21471 -0.21672
 N132 N 0.32892 0.19934 -0.22749
 C133 C 0.34209 0.19779 -0.24221
 C134 C 0.35528 0.21297 -0.24040
 C135 C 0.34935 0.22345 -0.22416
 H136 H 0.34213 0.18653 -0.25337
 H137 H 0.35618 0.23643 -0.21821
 Cu138 Cu 0.30629 0.18312 -0.22105
 Cu139 Cu 0.31777 0.22231 -0.19384
 Cu140 Cu 0.27743 0.19346 -0.18242
 N141 N 0.28367 0.16693 -0.21466
 N142 N 0.27243 0.17115 -0.19951
 C143 C 0.25787 0.15793 -0.19830
 C144 C 0.26015 0.14482 -0.21348
 C145 C 0.27658 0.15085 -0.22364
 H146 H 0.24647 0.15785 -0.18725
 H147 H 0.28282 0.14402 -0.23654
 N148 N 0.28499 0.21664 -0.16696
 N149 N 0.30034 0.22761 -0.17129
 C150 C 0.30163 0.24220 -0.15805
 C151 C 0.28642 0.24021 -0.14489
 C152 C 0.27612 0.22396 -0.15085
 H153 H 0.31278 0.25343 -0.15792
 H154 H 0.26318 0.21797 -0.14393
 H155 H 0.30725 0.19471 -0.18715
 H156 H 0.29153 0.21027 -0.20317
 N157 N 0.66694 0.28510 -0.21651
 N158 N 0.67126 0.30048 -0.22728
 C159 C 0.65805 0.30203 -0.24195
 C160 C 0.64490 0.28682 -0.24014
 C161 C 0.65087 0.27635 -0.22392
 H162 H 0.65799 0.31329 -0.25310
 H163 H 0.64404 0.26337 -0.21796
 Cu164 Cu 0.69387 0.31676 -0.22095
 Cu165 Cu 0.68246 0.27757 -0.19365
 Cu166 Cu 0.72259 0.30662 -0.18216
 N167 N 0.71637 0.33306 -0.21442
 N168 N 0.72753 0.32893 -0.19921
 C169 C 0.74204 0.34221 -0.19797
 C170 C 0.73980 0.35525 -0.21319
 C171 C 0.72344 0.34915 -0.22339
 H172 H 0.75338 0.34236 -0.18687
 H173 H 0.71726 0.35591 -0.23634
 N174 N 0.71514 0.28341 -0.16673
 N175 N 0.69988 0.27233 -0.17111
 C176 C 0.69863 0.25775 -0.15787
 C177 C 0.71377 0.25983 -0.14467
 C178 C 0.72398 0.27615 -0.15059
 H179 H 0.68754 0.24646 -0.15777
 H180 H 0.73685 0.28225 -0.14363
 H181 H 0.69280 0.30525 -0.18702
 H182 H 0.70867 0.28971 -0.20295
 N183 N 0.16716 0.78559 0.28362
 N184 N 0.17152 0.80095 0.27284
 C185 C 0.15836 0.80248 0.25814
 C186 C 0.14520 0.78728 0.25994
 C187 C 0.15113 0.77683 0.27617
 H188 H 0.15829 0.81371 0.24698
 H189 H 0.14429 0.76385 0.28210
 Cu190 Cu 0.19407 0.81722 0.27930
 Cu191 Cu 0.18257 0.77797 0.30646
 Cu192 Cu 0.22284 0.80690 0.31788
 N193 N 0.21666 0.83346 0.28568
 N194 N 0.22787 0.82927 0.30085
 C195 C 0.24240 0.84254 0.30208
 C196 C 0.24008 0.85565 0.28690
 C197 C 0.22369 0.84958 0.27672
 H198 H 0.25377 0.84264 0.31315
 H199 H 0.21743 0.85638 0.26383
 N200 N 0.21530 0.78367 0.33333
 N201 N 0.19995 0.77270 0.32896
 C202 C 0.19859 0.75813 0.34219
 C203 C 0.21374 0.76009 0.35538
 C204 C 0.22409 0.77634 0.34946
 H205 H 0.18741 0.74692 0.34229
 H206 H 0.23700 0.78234 0.35643
 H207 H 0.19290 0.80553 0.31314
 H208 H 0.20867 0.78999 0.29710
 N209 N 0.46462 0.41646 0.46655
 N210 N 0.44921 0.42079 0.47735
 C211 C 0.44762 0.40760 0.49198
 C212 C 0.46281 0.39446 0.49009
 C213 C 0.47334 0.40041 0.47389
 H214 H 0.43633 0.40752 0.50316
 H215 H 0.48636 0.39360 0.46793
 Cu216 Cu 0.43290 0.44329 0.47117
 Cu217 Cu 0.47227 0.43186 0.44376
 Cu218 Cu 0.44329 0.47199 0.43250
 N219 N 0.41675 0.46586 0.46477
 N220 N 0.42096 0.47701 0.44961
 C221 C 0.40770 0.49152 0.44843
 C222 C 0.39458 0.48928 0.46365
 C223 C 0.40063 0.47293 0.47379
 H224 H 0.40761 0.50286 0.43737
 H225 H 0.39379 0.46673 0.48670
 N226 N 0.46650 0.46448 0.41697
 N227 N 0.47754 0.44922 0.42128
 C228 C 0.49214 0.44790 0.40799
 C229 C 0.49009 0.46301 0.39483
 C230 C 0.47379 0.47327 0.40083
 H231 H 0.50341 0.43680 0.40783
 H232 H 0.46774 0.48614 0.39390
 H233 H 0.46024 0.45789 0.45322
 H234 H 0.44457 0.44219 0.43724
 N235 N -0.03536 -0.08327 0.96649
 N236 N -0.05073 -0.07891 0.97734
 C237 C -0.05227 -0.09202 0.99201
 C238 C -0.03710 -0.10516 0.99010
 C239 C -0.02662 -0.09929 0.97385
 H240 H -0.06355 -0.09209 1.00320
 H241 H -0.01366 -0.10617 0.96784
 Cu242 Cu -0.06727 -0.05666 0.97104
 Cu243 Cu -0.02784 -0.06796 0.94362
 Cu244 Cu -0.05669 -0.02783 0.93244
 N245 N -0.08304 -0.03385 0.96484
 N246 N -0.07882 -0.02272 0.94966
 C247 C -0.09199 -0.00815 0.94851
 C248 C -0.10504 -0.01035 0.96377
 C249 C -0.09908 -0.02671 0.97390
 H250 H -0.09212 0.00315 0.93742
 H251 H -0.10595 -0.03290 0.98680
 N252 N -0.03366 -0.03543 0.91681
 N253 N -0.02263 -0.05070 0.92108
 C254 C -0.00808 -0.05201 0.90774
 C255 C -0.01019 -0.03688 0.89460
 C256 C -0.02644 -0.02663 0.90065
 H257 H 0.00321 -0.06310 0.90755
 H258 H -0.03251 -0.01373 0.89379
 H259 H -0.04000 -0.04197 0.95328
 H260 H -0.05566 -0.05760 0.93714
 N261 N 1.03586 0.58368 0.96609
 N262 N 1.05103 0.57911 0.97709
 C263 C 1.05246 0.59208 0.99192
 C264 C 1.03740 0.60534 0.98995
 C265 C 1.02712 0.59969 0.97351
 H266 H 1.06353 0.59192 1.00329
 H267 H 1.01422 0.60664 0.96747
 Cu268 Cu 1.06716 0.55654 0.97093
 Cu269 Cu 1.02831 0.56838 0.94321
 Cu270 Cu 1.05670 0.52770 0.93240
 N271 N 1.08320 0.53395 0.96464
 N272 N 1.07891 0.52269 0.94957
 C273 C 1.09210 0.50813 0.94843
 C274 C 1.10521 0.51045 0.96359
 C275 C 1.09928 0.52688 0.97366
 H276 H 1.09220 0.49675 0.93740
 H277 H 1.10616 0.53314 0.98651
 N278 N 1.03368 0.53538 0.91679
 N279 N 1.02297 0.55096 0.92079
 C280 C 1.00841 0.55230 0.90749
 C281 C 1.01019 0.53690 0.89463
 C282 C 1.02626 0.52643 0.90081
 H283 H 0.99730 0.56356 0.90719
 H284 H 1.03208 0.51334 0.89411
 H285 H 1.03981 0.54215 0.95298
 H286 H 1.05592 0.55733 0.93695
 N287 N 0.53566 0.08319 0.46660
 N288 N 0.55107 0.07884 0.47736
 C289 C 0.55266 0.09194 0.49206
 C290 C 0.53747 0.10506 0.49025
 C291 C 0.52693 0.09919 0.47405
 H292 H 0.56394 0.09196 0.50323
 H293 H 0.51391 0.10603 0.46815
 Cu294 Cu 0.56724 0.05634 0.47105
 Cu295 Cu 0.52801 0.06784 0.44375
 Cu296 Cu 0.55692 0.02764 0.43244
 N297 N 0.58341 0.03388 0.46469
 N298 N 0.57919 0.02269 0.44954
 C299 C 0.59244 0.00819 0.44835
 C300 C 0.60553 0.01049 0.46354
 C301 C 0.59951 0.02684 0.47369
 H302 H 0.59255 -0.00317 0.43730
 H303 H 0.60635 0.03304 0.48660
 N304 N 0.53376 0.03518 0.41695
 N305 N 0.52275 0.05049 0.42125
 C306 C 0.50819 0.05181 0.40795
 C307 C 0.51024 0.03666 0.39481
 C308 C 0.52649 0.02638 0.40082
 H309 H 0.49694 0.06293 0.40777
 H310 H 0.53255 0.01349 0.39391
 H311 H 0.54000 0.04176 0.45319
 H312 H 0.55572 0.05740 0.43717
 N313 N -0.03583 0.08353 0.53344
 N314 N -0.05122 0.07916 0.52264
 C315 C -0.05285 0.09234 0.50804
 C316 C -0.03770 0.10551 0.50992
 C317 C -0.02715 0.09960 0.52610
 H318 H -0.06411 0.09237 0.49685
 H319 H -0.01413 0.10644 0.53202
 Cu320 Cu -0.06731 0.05652 0.52862
 Cu321 Cu -0.02818 0.06809 0.55619
 Cu322 Cu -0.05707 0.02795 0.56744
 N323 N -0.08354 0.03415 0.53521
 N324 N -0.07934 0.02301 0.55038
 C325 C -0.09260 0.00851 0.55160
 C326 C -0.10569 0.01079 0.53642
 C327 C -0.09967 0.02711 0.52625
 H328 H -0.09269 -0.00285 0.56264
 H329 H -0.10649 0.03328 0.51332
 N330 N -0.03390 0.03543 0.58290
 N331 N -0.02287 0.05071 0.57861
 C332 C -0.00828 0.05200 0.59189
 C333 C -0.01035 0.03684 0.60501
 C334 C -0.02663 0.02660 0.59901
 H335 H 0.00298 0.06311 0.59208
 H336 H -0.03271 0.01372 0.60591
 H337 H -0.04014 0.04193 0.54663
 H338 H -0.05598 0.05764 0.56252
 N339 N 0.46457 0.58332 0.03368
 N340 N 0.44917 0.57899 0.02288
 C341 C 0.44753 0.59224 0.00832
 C342 C 0.46270 0.60540 0.01023
 C343 C 0.47325 0.59943 0.02639
 H344 H 0.43626 0.59231 -0.00285
 H345 H 0.48627 0.60624 0.03233
 Cu346 Cu 0.43303 0.55632 0.02885
 Cu347 Cu 0.47225 0.56786 0.05639
 Cu348 Cu 0.44329 0.52775 0.06765
 N349 N 0.41674 0.53392 0.03544
 N350 N 0.42093 0.52277 0.05061
 C351 C 0.40763 0.50829 0.05184
 C352 C 0.39450 0.51057 0.03666
 C353 C 0.40058 0.52690 0.02650
 H354 H 0.40754 0.49694 0.06289
 H355 H 0.39376 0.53309 0.01358
 N356 N 0.46652 0.53519 0.08313
 N357 N 0.47757 0.55045 0.07881
 C358 C 0.49215 0.55178 0.09210
 C359 C 0.49009 0.53667 0.10527
 C360 C 0.47379 0.52641 0.09927
 H361 H 0.50340 0.56291 0.09227
 H362 H 0.46771 0.51356 0.10621
 H363 H 0.46027 0.54179 0.04686
 H364 H 0.44448 0.55754 0.06275
 N365 N 0.53567 -0.08328 0.03352
 N366 N 0.55107 -0.07892 0.02271
 C367 C 0.55266 -0.09207 0.00805
 C368 C 0.53747 -0.10521 0.00991
 C369 C 0.52695 -0.09931 0.02613
 H370 H 0.56396 -0.09213 -0.00311
 H371 H 0.51397 -0.10618 0.03210
 Cu372 Cu 0.56747 -0.05654 0.02906
 Cu373 Cu 0.52805 -0.06796 0.05639
 Cu374 Cu 0.55695 -0.02782 0.06769
 N375 N 0.58343 -0.03384 0.03534
 N376 N 0.57922 -0.02271 0.05054
 C377 C 0.59247 -0.00819 0.05174
 C378 C 0.60557 -0.01042 0.03651
 C379 C 0.59953 -0.02675 0.02634
 H380 H 0.59260 0.00310 0.06286
 H381 H 0.60639 -0.03295 0.01343
 N382 N 0.53380 -0.03539 0.08325
 N383 N 0.52277 -0.05066 0.07893
 C384 C 0.50816 -0.05199 0.09220
 C385 C 0.51020 -0.03687 0.10538
 C386 C 0.52650 -0.02660 0.09940
 H387 H 0.49689 -0.06309 0.09233
 H388 H 0.53253 -0.01371 0.10632
 H389 H 0.54014 -0.04198 0.04687
 H390 H 0.55579 -0.05764 0.06293
 N391 N 1.03549 0.41659 0.53334
 N392 N 1.05087 0.42095 0.52251
 C393 C 1.05250 0.40777 0.50789
 C394 C 1.03733 0.39462 0.50979
 C395 C 1.02680 0.40052 0.52600
 H396 H 1.06375 0.40774 0.49668
 H397 H 1.01378 0.39369 0.53193
 Cu398 Cu 1.06696 0.44360 0.52844
 Cu399 Cu 1.02783 0.43201 0.55611
 Cu400 Cu 1.05673 0.47213 0.56736
 N401 N 1.08319 0.46595 0.53508
 N402 N 1.07900 0.47707 0.55028
 C403 C 1.09228 0.49155 0.55152
 C404 C 1.10536 0.48928 0.53632
 C405 C 1.09933 0.47299 0.52611
 H406 H 1.09238 0.50288 0.56259
 H407 H 1.10615 0.46683 0.51316
 N408 N 1.03356 0.46465 0.58284
 N409 N 1.02252 0.44938 0.57855
 C410 C 1.00794 0.44809 0.59186
 C411 C 1.01003 0.46324 0.60499
 C412 C 1.02631 0.47348 0.59898
 H413 H 0.99667 0.43699 0.59205
 H414 H 1.03240 0.48635 0.60588
 H415 H 1.03978 0.45816 0.54655
 H416 H 1.05564 0.44243 0.56237
 C417 C 0.35304 -0.01740 0.25459
 C418 C 0.36340 -0.00018 0.25024
 C419 C 0.35304 0.01703 0.24587
 C420 C 0.33248 0.01697 0.24585
 C421 C 0.32228 -0.00020 0.25020
 C422 C 0.33247 -0.01737 0.25457
 C423 C 0.38503 -0.00013 0.25024
 C424 C 0.39542 -0.00444 0.23291
 C425 C 0.41598 -0.00430 0.23294
 C426 C 0.42614 0.00011 0.25020
 C427 C 0.41594 0.00440 0.26748
 C428 C 0.39537 0.00431 0.26755
 H429 H 0.36096 -0.03070 0.25797
 H430 H 0.36095 0.03035 0.24251
 H431 H 0.38752 -0.00787 0.21953
 H432 H 0.38745 0.00767 0.28094
 H433 H 0.30636 -0.00021 0.25018
 H434 H 0.44206 0.00019 0.25018
 C435 C 0.14661 -0.01736 0.74543
 C436 C 0.13624 -0.00013 0.74978
 C437 C 0.14661 0.01707 0.75416
 C438 C 0.16717 0.01703 0.75417
 C439 C 0.17737 -0.00015 0.74983
 C440 C 0.16719 -0.01734 0.74546
 C441 C 0.11461 -0.00007 0.74971
 C442 C 0.10416 -0.00427 0.76703
 C443 C 0.08359 -0.00407 0.76694
 C444 C 0.07349 0.00028 0.74964
 C445 C 0.08375 0.00447 0.73238
 C446 C 0.10432 0.00433 0.73237
 H447 H 0.13869 -0.03067 0.74204
 H448 H 0.13870 0.03040 0.75751
 H449 H 0.11200 -0.00765 0.78046
 H450 H 0.11229 0.00764 0.71899
 H451 H 0.19329 -0.00014 0.74985
 H452 H 0.05757 0.00040 0.74961
 C453 C 0.64711 0.48266 0.24572
 C454 C 0.63673 0.49988 0.25000
 C455 C 0.64706 0.51711 0.25436
 C456 C 0.66762 0.51707 0.25443
 C457 C 0.67784 0.49991 0.25014
 C458 C 0.66767 0.48273 0.24579
 C459 C 0.61511 0.49987 0.24999
 C460 C 0.60475 0.49534 0.26726
 C461 C 0.58419 0.49536 0.26723
 C462 C 0.57401 0.49986 0.25000
 C463 C 0.58421 0.50437 0.23277
 C464 C 0.60477 0.50441 0.23273
 H465 H 0.63922 0.46933 0.24236
 H466 H 0.63913 0.53043 0.25769
 H467 H 0.61266 0.49184 0.28062
 H468 H 0.61270 0.50793 0.21937
 H469 H 0.69376 0.49992 0.25020
 H470 H 0.55810 0.49986 0.25001
 C471 C 0.85339 0.48289 0.75439
 C472 C 0.86373 0.50012 0.75003
 C473 C 0.85336 0.51731 0.74566
 C474 C 0.83280 0.51723 0.74564
 C475 C 0.82262 0.50006 0.74998
 C476 C 0.83282 0.48291 0.75435
 C477 C 0.88535 0.50016 0.74997
 C478 C 0.89567 0.49580 0.73262
 C479 C 0.91623 0.49599 0.73257
 C480 C 0.92645 0.50049 0.74976
 C481 C 0.91631 0.50482 0.76705
 C482 C 0.89575 0.50468 0.76722
 H483 H 0.86131 0.46959 0.75777
 H484 H 0.86126 0.53063 0.74227
 H485 H 0.88773 0.49231 0.71928
 H486 H 0.88787 0.50805 0.78064
 H487 H 0.80670 0.50003 0.74994
 H488 H 0.94237 0.50060 0.74968
 C489 C 0.25392 0.35456 -0.01742
 C490 C 0.24960 0.36490 -0.00009
 C491 C 0.24499 0.35462 0.01718
 C492 C 0.24474 0.33414 0.01708
 C493 C 0.24904 0.32397 -0.00019
 C494 C 0.25363 0.33408 -0.01741
 C495 C 0.24971 0.38643 -0.00008
 C496 C 0.23246 0.39676 -0.00444
 C497 C 0.23256 0.41723 -0.00444
 C498 C 0.24978 0.42737 -0.00010
 C499 C 0.26698 0.41721 0.00426
 C500 C 0.26701 0.39672 0.00429
 H501 H 0.25746 0.36242 -0.03078
 H502 H 0.24164 0.36251 0.03058
 H503 H 0.21907 0.38891 -0.00781
 H504 H 0.28036 0.38883 0.00768
 H505 H 0.24884 0.30812 -0.00022
 H506 H 0.24979 0.44323 -0.00011
 C507 C 0.74573 0.14549 -0.01713
 C508 C 0.75033 0.13522 0.00015
 C509 C 0.75493 0.14558 0.01738
 C510 C 0.75486 0.16606 0.01730
 C511 C 0.75027 0.17616 0.00008
 C512 C 0.74572 0.16597 -0.01711
 C513 C 0.75036 0.11369 0.00019
 C514 C 0.76767 0.10340 -0.00414
 C515 C 0.76763 0.08293 -0.00410
 C516 C 0.75043 0.07275 0.00026
 C517 C 0.73320 0.08287 0.00460
 C518 C 0.73309 0.10335 0.00458
 H519 H 0.74221 0.13757 -0.03047
 H520 H 0.75851 0.13773 0.03074
 H521 H 0.78103 0.11129 -0.00753
 H522 H 0.71971 0.11120 0.00795
 H523 H 0.75024 0.19201 0.00006
 H524 H 0.75046 0.05690 0.00027
 C525 C 0.24503 0.64534 0.48278
 C526 C 0.24966 0.63507 0.50006
 C527 C 0.25399 0.64543 0.51736
 C528 C 0.25372 0.66591 0.51733
 C529 C 0.24913 0.67601 0.50011
 C530 C 0.24480 0.66582 0.48286
 C531 C 0.24974 0.61354 0.50010
 C532 C 0.26703 0.60321 0.49575
 C533 C 0.26699 0.58272 0.49591
 C534 C 0.24978 0.57260 0.50038
 C535 C 0.23257 0.58278 0.50470
 C536 C 0.23249 0.60325 0.50458
 H537 H 0.24164 0.63742 0.46941
 H538 H 0.25752 0.63758 0.53073
 H539 H 0.28038 0.61108 0.49228
 H540 H 0.21911 0.61112 0.50795
 H541 H 0.24895 0.69186 0.50013
 H542 H 0.24977 0.55675 0.50048
 C543 C 0.75429 0.85478 0.48267
 C544 C 0.74993 0.86511 0.49997
 C545 C 0.74538 0.85485 0.51727
 C546 C 0.74519 0.83438 0.51718
 C547 C 0.74951 0.82420 0.49993
 C548 C 0.75407 0.83431 0.48270
 C549 C 0.74999 0.88661 0.49994
 C550 C 0.73275 0.89692 0.49549
 C551 C 0.73286 0.91739 0.49541
 C552 C 0.75006 0.92754 0.49976
 C553 C 0.76723 0.91738 0.50421
 C554 C 0.76727 0.89691 0.50432
 H555 H 0.75782 0.86264 0.46930
 H556 H 0.74202 0.86276 0.53066
 H557 H 0.71937 0.88906 0.49210
 H558 H 0.78062 0.88904 0.50777
 H559 H 0.74936 0.80835 0.49991
 H560 H 0.75008 0.94339 0.49970
 C561 C -0.01779 0.25456 0.35385
 C562 C -0.00057 0.25008 0.36423
 C563 C 0.01670 0.24562 0.35387
 C564 C 0.01670 0.24564 0.33326
 C565 C -0.00049 0.25011 0.32303
 C566 C -0.01772 0.25456 0.33324
 C567 C -0.00059 0.25009 0.38590
 C568 C -0.00498 0.23291 0.39629
 C569 C -0.00490 0.23296 0.41690
 C570 C -0.00045 0.25010 0.42711
 C571 C 0.00395 0.26723 0.41687
 C572 C 0.00388 0.26728 0.39626
 H573 H -0.03114 0.25802 0.36178
 H574 H 0.03003 0.24217 0.36181
 H575 H -0.00842 0.21960 0.38838
 H576 H 0.00730 0.28058 0.38833
 H577 H -0.00047 0.25012 0.30709
 H578 H -0.00038 0.25010 0.44306
 C579 C -0.01723 0.74577 0.14591
 C580 C 0.00004 0.75011 0.13550
 C581 C 0.01733 0.75448 0.14584
 C582 C 0.01732 0.75447 0.16646
 C583 C 0.00009 0.75015 0.17670
 C584 C -0.01716 0.74582 0.16653
 C585 C 0.00001 0.75009 0.11382
 C586 C -0.00444 0.76727 0.10344
 C587 C -0.00441 0.76721 0.08283
 C588 C 0.00001 0.75007 0.07261
 C589 C 0.00443 0.73294 0.08282
 C590 C 0.00445 0.73290 0.10343
 H591 H -0.03060 0.74237 0.13801
 H592 H 0.03068 0.75786 0.13788
 H593 H -0.00788 0.78058 0.11136
 H594 H 0.00790 0.71961 0.11135
 H595 H 0.00010 0.75017 0.19265
 H596 H 0.00001 0.75006 0.05665
 C597 C 0.48296 0.24546 0.64643
 C598 C 0.50023 0.24990 0.63603
 C599 C 0.51750 0.25429 0.64642
 C600 C 0.51748 0.25424 0.66705
 C601 C 0.50023 0.24984 0.67726
 C602 C 0.48298 0.24545 0.66705
 C603 C 0.50024 0.24987 0.61432
 C604 C 0.49583 0.26705 0.60388
 C605 C 0.49587 0.26696 0.58325
 C606 C 0.50025 0.24977 0.57308
 C607 C 0.50463 0.23264 0.58333
 C608 C 0.50464 0.23265 0.60395
 H609 H 0.46962 0.24203 0.63849
 H610 H 0.53085 0.25769 0.63847
 H611 H 0.49241 0.28037 0.61178
 H612 H 0.50806 0.21936 0.61189
 H613 H 0.50022 0.24982 0.69320
 H614 H 0.50025 0.24973 0.55712
 C615 C 0.48257 0.75439 0.85399
 C616 C 0.49983 0.75001 0.86437
 C617 C 0.51712 0.74564 0.85400
 C618 C 0.51711 0.74566 0.83338
 C619 C 0.49988 0.75001 0.82316
 C620 C 0.48263 0.75436 0.83337
 C621 C 0.49983 0.75002 0.88605
 C622 C 0.49548 0.73281 0.89645
 C623 C 0.49558 0.73286 0.91706
 C624 C 0.49999 0.75001 0.92727
 C625 C 0.50434 0.76716 0.91704
 C626 C 0.50426 0.76721 0.89643
 H627 H 0.46921 0.75779 0.86192
 H628 H 0.53046 0.74225 0.86193
 H629 H 0.49208 0.71950 0.88853
 H630 H 0.50765 0.78052 0.88850
 H631 H 0.49990 0.75001 0.80722
 H632 H 0.50005 0.75001 0.94322
 C633 C 0.06507 0.23320 0.29978
 C634 C 0.07873 0.24809 0.29520
 C635 C 0.09505 0.24390 0.28288
 C636 C 0.09759 0.22486 0.27517
 C637 C 0.08376 0.21004 0.27950
 C638 C 0.06743 0.21423 0.29180
 C639 C 0.05372 0.19921 0.29576
 C640 C 0.05609 0.18059 0.28783
 C641 C 0.07210 0.17649 0.27587
 C642 C 0.08582 0.19098 0.27170
 C643 C 0.10851 0.25904 0.27850
 C644 C 0.10588 0.27779 0.28601
 C645 C 0.08988 0.28191 0.29799
 C646 C 0.07643 0.26729 0.30259
 C647 C 0.11434 0.22053 0.26270
 C648 C 0.12822 0.21695 0.25232
 C649 C 0.04834 0.23749 0.31231
 C650 C 0.03417 0.24114 0.32227
 H651 H 0.04101 0.20170 0.30495
 H652 H 0.04545 0.16929 0.29098
 H653 H 0.07389 0.16199 0.26975
 H654 H 0.09799 0.18709 0.26227
 H655 H 0.12115 0.25657 0.26921
 H656 H 0.11630 0.28920 0.28250
 H657 H 0.08788 0.29652 0.30374
 H658 H 0.06420 0.27121 0.31193
 C659 C 0.56552 0.73338 0.79988
 C660 C 0.57563 0.74879 0.79038
 C661 C 0.59193 0.74460 0.77803
 C662 C 0.59797 0.72501 0.77518
 C663 C 0.58770 0.70959 0.78446
 C664 C 0.57140 0.71378 0.79681
 C665 C 0.56126 0.69809 0.80576
 C666 C 0.56708 0.67882 0.80266
 C667 C 0.58306 0.67474 0.79066
 C668 C 0.59331 0.68989 0.78163
 C669 C 0.60182 0.76024 0.76871
 C670 C 0.59573 0.77948 0.77143
 C671 C 0.57975 0.78358 0.78343
 C672 C 0.56977 0.76848 0.79284
 C673 C 0.61469 0.72073 0.76266
 C674 C 0.62857 0.71719 0.75226
 C675 C 0.54879 0.73766 0.81242
 C676 C 0.53460 0.74125 0.82239
 H677 H 0.54871 0.70053 0.81519
 H678 H 0.55913 0.66700 0.80959
 H679 H 0.58754 0.65975 0.78830
 H680 H 0.60561 0.68597 0.77238
 H681 H 0.61429 0.75778 0.75919
 H682 H 0.60345 0.79126 0.76417
 H683 H 0.57506 0.79855 0.78545
 H684 H 0.55740 0.77240 0.80199
 C685 C 0.43430 0.76667 0.79983
 C686 C 0.42665 0.78587 0.79904
 C687 C 0.41036 0.79010 0.78672
 C688 C 0.40183 0.77512 0.77521
 C689 C 0.40965 0.75597 0.77577
 C690 C 0.42595 0.75173 0.78809
 C691 C 0.43360 0.73251 0.78827
 C692 C 0.42535 0.71788 0.77668
 C693 C 0.40938 0.72200 0.76470
 C694 C 0.40157 0.74080 0.76419
 C695 C 0.40298 0.80942 0.78620
 C696 C 0.41149 0.82415 0.79746
 C697 C 0.42745 0.82003 0.80944
 C698 C 0.43500 0.80114 0.81029
 C699 C 0.38506 0.77944 0.76276
 C700 C 0.37115 0.78306 0.75244
 C701 C 0.45100 0.76236 0.81237
 C702 C 0.46516 0.75877 0.82235
 H703 H 0.44603 0.72860 0.79732
 H704 H 0.43140 0.70327 0.77698
 H705 H 0.40303 0.71058 0.75573
 H706 H 0.38917 0.74330 0.75459
 H707 H 0.39062 0.81335 0.77707
 H708 H 0.40567 0.83884 0.79686
 H709 H 0.43404 0.83154 0.81812
 H710 H 0.44746 0.79867 0.81980
 C711 C -0.06597 0.26698 0.29971
 C712 C -0.08009 0.25231 0.29582
 C713 C -0.09637 0.25648 0.28348
 C714 C -0.09840 0.27526 0.27504
 C715 C -0.08413 0.28984 0.27866
 C716 C -0.06784 0.28568 0.29100
 C717 C -0.05367 0.30044 0.29424
 C718 C -0.05556 0.31879 0.28559
 C719 C -0.07153 0.32287 0.27360
 C720 C -0.08569 0.30862 0.27012
 C721 C -0.11028 0.24157 0.27980
 C722 C -0.10813 0.22306 0.28802
 C723 C -0.09218 0.21897 0.30003
 C724 C -0.07828 0.23337 0.30395
 C725 C -0.11511 0.27957 0.26255
 C726 C -0.12895 0.28311 0.25215
 C727 C -0.04929 0.26271 0.31226
 C728 C -0.03515 0.25907 0.32223
 H729 H -0.04097 0.29795 0.30342
 H730 H -0.04457 0.32990 0.28820
 H731 H -0.07294 0.33715 0.26692
 H732 H -0.09781 0.31247 0.26063
 H733 H -0.12290 0.24403 0.27050
 H734 H -0.11890 0.21183 0.28503
 H735 H -0.09056 0.20455 0.30634
 H736 H -0.06610 0.22947 0.31334
 C737 C -0.06546 0.73356 0.20013
 C738 C -0.06953 0.74560 0.21658
 C739 C -0.08582 0.74134 0.22891
 C740 C -0.09790 0.72503 0.22476
 C741 C -0.09373 0.71290 0.20843
 C742 C -0.07745 0.71715 0.19610
 C743 C -0.07349 0.70473 0.17995
 C744 C -0.08532 0.68859 0.17606
 C745 C -0.10128 0.68447 0.18807
 C746 C -0.10551 0.69643 0.20410
 C747 C -0.08963 0.75359 0.24524
 C748 C -0.07764 0.76956 0.24933
 C749 C -0.06166 0.77368 0.23734
 C750 C -0.05759 0.76190 0.22113
 C751 C -0.11456 0.72069 0.23731
 C752 C -0.12841 0.71712 0.24773
 C753 C -0.04877 0.73786 0.18758
 C754 C -0.03462 0.74144 0.17757
 H755 H -0.06123 0.70733 0.17020
 H756 H -0.08207 0.67923 0.16366
 H757 H -0.11044 0.67193 0.18498
 H758 H -0.11806 0.69260 0.21303
 H759 H -0.10186 0.75095 0.25502
 H760 H -0.08076 0.77876 0.26188
 H761 H -0.05237 0.78608 0.24061
 H762 H -0.04498 0.76569 0.21226
 C763 C 0.43436 0.23308 0.70042
 C764 C 0.42351 0.24853 0.70902
 C765 C 0.40715 0.24433 0.72131
 C766 C 0.40172 0.22470 0.72499
 C767 C 0.41272 0.20926 0.71661
 C768 C 0.42908 0.21345 0.70432
 C769 C 0.43990 0.19773 0.69625
 C770 C 0.43471 0.17844 0.70017
 C771 C 0.41870 0.17435 0.71212
 C772 C 0.40778 0.18952 0.72029
 C773 C 0.39659 0.26004 0.72975
 C774 C 0.40204 0.27933 0.72620
 C775 C 0.41804 0.28344 0.71424
 C776 C 0.42871 0.26828 0.70571
 C777 C 0.38489 0.22040 0.73745
 C778 C 0.37096 0.21686 0.74782
 C779 C 0.45120 0.23738 0.68797
 C780 C 0.46545 0.24100 0.67805
 H781 H 0.45249 0.20018 0.68688
 H782 H 0.44317 0.16660 0.69389
 H783 H 0.41472 0.15933 0.71512
 H784 H 0.39548 0.18559 0.72954
 H785 H 0.38406 0.25758 0.73920
 H786 H 0.39380 0.29116 0.73279
 H787 H 0.42224 0.29845 0.71157
 H788 H 0.44106 0.27221 0.69654
 C789 C 0.56602 0.26663 0.70049
 C790 C 0.57113 0.28627 0.70459
 C791 C 0.58745 0.29049 0.71691
 C792 C 0.59857 0.27506 0.72514
 C793 C 0.59331 0.25542 0.72124
 C794 C 0.57699 0.25120 0.70892
 C795 C 0.57196 0.23144 0.70541
 C796 C 0.58274 0.21630 0.71378
 C797 C 0.59872 0.22042 0.72575
 C798 C 0.60400 0.23972 0.72950
 C799 C 0.59223 0.31023 0.72078
 C800 C 0.58118 0.32539 0.71279
 C801 C 0.56521 0.32127 0.70082
 C802 C 0.56018 0.30197 0.69670
 C803 C 0.61533 0.27938 0.73768
 C804 C 0.62923 0.28292 0.74808
 C805 C 0.54923 0.26232 0.68800
 C806 C 0.53500 0.25869 0.67806
 H807 H 0.55963 0.22749 0.69623
 H808 H 0.57867 0.20127 0.71096
 H809 H 0.60705 0.20860 0.73221
 H810 H 0.61651 0.24219 0.73895
 H811 H 0.60450 0.31418 0.73005
 H812 H 0.58503 0.34041 0.71593
 H813 H 0.55664 0.33310 0.69469
 H814 H 0.54760 0.29951 0.68734
 C815 C 0.06562 0.76675 0.20003
 C816 C 0.07583 0.75134 0.20942
 C817 C 0.09210 0.75556 0.22177
 C818 C 0.09805 0.77517 0.22472
 C819 C 0.08764 0.79058 0.21559
 C820 C 0.07136 0.78637 0.20325
 C821 C 0.06110 0.80204 0.19443
 C822 C 0.06679 0.82133 0.19767
 C823 C 0.08274 0.82544 0.20967
 C824 C 0.09310 0.81031 0.21857
 C825 C 0.10207 0.73992 0.23098
 C826 C 0.09609 0.72066 0.22813
 C827 C 0.08014 0.71654 0.21613
 C828 C 0.07007 0.73164 0.20684
 C829 C 0.11480 0.77950 0.23718
 C830 C 0.12869 0.78310 0.24753
 C831 C 0.04895 0.76245 0.18745
 C832 C 0.03480 0.75887 0.17745
 H833 H 0.04857 0.79959 0.18501
 H834 H 0.05876 0.83314 0.19082
 H835 H 0.08711 0.84045 0.21213
 H836 H 0.10537 0.81425 0.22784
 H837 H 0.11452 0.74239 0.24051
 H838 H 0.10388 0.70888 0.23530
 H839 H 0.07553 0.70156 0.21400
 H840 H 0.05773 0.72771 0.19767
 C841 C 0.29919 0.06524 0.23362
 C842 C 0.30743 0.08252 0.22573
 C843 C 0.29519 0.09882 0.22156
 C844 C 0.27479 0.09773 0.22531
 C845 C 0.26654 0.08044 0.23316
 C846 C 0.27877 0.06414 0.23732
 C847 C 0.27015 0.04700 0.24513
 C848 C 0.25005 0.04600 0.24873
 C849 C 0.23812 0.06194 0.24467
 C850 C 0.24619 0.07900 0.23698
 C851 C 0.30377 0.11593 0.21367
 C852 C 0.32385 0.11691 0.20999
 C853 C 0.33580 0.10098 0.21406
 C854 C 0.32776 0.08394 0.22184
 C855 C 0.26229 0.11437 0.22103
 C856 C 0.25194 0.12818 0.21744
 C857 C 0.31164 0.04855 0.23785
 C858 C 0.32154 0.03440 0.24143
 H859 H 0.27882 0.03420 0.24853
 H860 H 0.24371 0.03278 0.25470
 H861 H 0.22252 0.06110 0.24750
 H862 H 0.23629 0.09101 0.23406
 H863 H 0.29508 0.12870 0.21025
 H864 H 0.33016 0.13011 0.20394
 H865 H 0.35139 0.10182 0.21117
 H866 H 0.33765 0.07193 0.22476
 C867 C 0.79941 0.56538 0.73338
 C868 C 0.80784 0.58319 0.72706
 C869 C 0.79562 0.59949 0.72291
 C870 C 0.77504 0.59787 0.72511
 C871 C 0.76659 0.58005 0.73140
 C872 C 0.77881 0.56375 0.73555
 C873 C 0.77001 0.54607 0.74179
 C874 C 0.74973 0.54456 0.74389
 C875 C 0.73780 0.56051 0.73985
 C876 C 0.74605 0.57809 0.73368
 C877 C 0.80440 0.61714 0.71660
 C878 C 0.82467 0.61864 0.71445
 C879 C 0.83661 0.60270 0.71850
 C880 C 0.82838 0.58514 0.72474
 C881 C 0.76256 0.61453 0.72086
 C882 C 0.75224 0.62837 0.71729
 C883 C 0.81188 0.54872 0.73762
 C884 C 0.82182 0.53461 0.74121
 H885 H 0.77867 0.53325 0.74510
 H886 H 0.74324 0.53093 0.74867
 H887 H 0.72206 0.55927 0.74150
 H888 H 0.73615 0.59008 0.73071
 H889 H 0.79572 0.62994 0.71326
 H890 H 0.83114 0.63225 0.70960
 H891 H 0.85234 0.60393 0.71680
 H892 H 0.83826 0.57314 0.72771
 C893 C 0.79941 0.43471 0.76649
 C894 C 0.77883 0.43625 0.76405
 C895 C 0.76660 0.41994 0.76818
 C896 C 0.77500 0.40220 0.77473
 C897 C 0.79556 0.40068 0.77722
 C898 C 0.80779 0.41698 0.77308
 C899 C 0.82829 0.41513 0.77569
 C900 C 0.83649 0.39766 0.78220
 C901 C 0.82454 0.38172 0.78626
 C902 C 0.80430 0.38312 0.78382
 C903 C 0.74609 0.42183 0.76564
 C904 C 0.73788 0.43932 0.75921
 C905 C 0.74983 0.45527 0.75517
 C906 C 0.77007 0.45384 0.75754
 C907 C 0.76248 0.38554 0.77895
 C908 C 0.75209 0.37173 0.78248
 C909 C 0.81189 0.45138 0.76229
 C910 C 0.82185 0.46550 0.75874
 H911 H 0.83819 0.42713 0.77274
 H912 H 0.85220 0.39650 0.78412
 H913 H 0.83098 0.36818 0.79133
 H914 H 0.79561 0.37032 0.78718
 H915 H 0.73618 0.40983 0.76859
 H916 H 0.72216 0.44051 0.75736
 H917 H 0.74337 0.46884 0.75019
 H918 H 0.77875 0.46666 0.75422
 C919 C 0.29910 -0.06563 0.26698
 C920 C 0.28172 -0.06308 0.27812
 C921 C 0.26945 -0.07938 0.28221
 C922 C 0.27456 -0.09814 0.27508
 C923 C 0.29189 -0.10067 0.26387
 C924 C 0.30418 -0.08437 0.25980
 C925 C 0.32135 -0.08725 0.24849
 C926 C 0.32630 -0.10571 0.24143
 C927 C 0.31433 -0.12165 0.24545
 C928 C 0.29731 -0.11924 0.25654
 C929 C 0.25219 -0.07647 0.29340
 C930 C 0.24716 -0.05798 0.30032
 C931 C 0.25911 -0.04203 0.29627
 C932 C 0.27621 -0.04447 0.28531
 C933 C 0.26202 -0.11482 0.27927
 C934 C 0.25166 -0.12868 0.28281
 C935 C 0.31156 -0.04893 0.26269
 C936 C 0.32149 -0.03479 0.25905
 H937 H 0.33112 -0.07529 0.24496
 H938 H 0.33949 -0.10764 0.23278
 H939 H 0.31824 -0.13596 0.23995
 H940 H 0.28846 -0.13208 0.25926
 H941 H 0.24241 -0.08841 0.29692
 H942 H 0.23391 -0.05601 0.30886
 H943 H 0.25512 -0.02769 0.30166
 H944 H 0.28502 -0.03161 0.28254
 C945 C 0.20069 -0.06558 0.73327
 C946 C 0.22135 -0.06366 0.73439
 C947 C 0.23359 -0.07999 0.73029
 C948 C 0.22513 -0.09817 0.72509
 C949 C 0.20448 -0.10006 0.72393
 C950 C 0.19224 -0.08374 0.72804
 C951 C 0.17165 -0.08601 0.72680
 C952 C 0.16337 -0.10389 0.72163
 C953 C 0.17532 -0.11984 0.71760
 C954 C 0.19565 -0.11803 0.71871
 C955 C 0.25418 -0.07769 0.73149
 C956 C 0.26247 -0.05979 0.73661
 C957 C 0.25052 -0.04384 0.74062
 C958 C 0.23019 -0.04566 0.73955
 C959 C 0.23765 -0.11488 0.72091
 C960 C 0.24801 -0.12876 0.71738
 C961 C 0.18818 -0.04888 0.73749
 C962 C 0.17820 -0.03476 0.74106
 H963 H 0.16175 -0.07402 0.72979
 H964 H 0.14759 -0.10536 0.72075
 H965 H 0.16881 -0.13369 0.71358
 H966 H 0.20433 -0.13085 0.71543
 H967 H 0.26410 -0.08967 0.72850
 H968 H 0.27825 -0.05830 0.73745
 H969 H 0.25703 -0.02997 0.74459
 H970 H 0.22152 -0.03283 0.74281
 C971 C 0.70116 0.43460 0.23371
 C972 C 0.69271 0.41640 0.22864
 C973 C 0.70497 0.40012 0.22453
 C974 C 0.72561 0.40212 0.22552
 C975 C 0.73407 0.42032 0.23058
 C976 C 0.72182 0.43662 0.23468
 C977 C 0.73064 0.45467 0.23968
 C978 C 0.75097 0.45656 0.24060
 C979 C 0.76294 0.44063 0.23658
 C980 C 0.75467 0.42268 0.23163
 C981 C 0.69617 0.38208 0.21949
 C982 C 0.67584 0.38019 0.21852
 C983 C 0.66387 0.39612 0.22254
 C984 C 0.67212 0.41406 0.22755
 C985 C 0.73813 0.38550 0.22127
 C986 C 0.74851 0.37170 0.21769
 C987 C 0.68866 0.45125 0.23789
 C988 C 0.67867 0.46534 0.24143
 H989 H 0.72195 0.46750 0.24293
 H990 H 0.75747 0.47047 0.24444
 H991 H 0.77872 0.44216 0.23731
 H992 H 0.76460 0.41071 0.22863
 H993 H 0.70487 0.36926 0.21623
 H994 H 0.66936 0.36629 0.21464
 H995 H 0.64809 0.39459 0.22178
 H996 H 0.66220 0.42603 0.23055
 C997 C 0.70092 0.56524 0.26681
 C998 C 0.69394 0.58440 0.26339
 C999 C 0.70616 0.60071 0.26749
 C1000 C 0.72531 0.59776 0.27495
 C1001 C 0.73233 0.57859 0.27830
 C1002 C 0.72011 0.56227 0.27420
 C1003 C 0.72748 0.54324 0.27761
 C1004 C 0.74637 0.54043 0.28490
 C1005 C 0.75829 0.55639 0.28894
 C1006 C 0.75144 0.57528 0.28571
 C1007 C 0.69885 0.61973 0.26396
 C1008 C 0.68001 0.62255 0.25657
 C1009 C 0.66807 0.60659 0.25254
 C1010 C 0.67488 0.58770 0.25589
 C1011 C 0.73777 0.61441 0.27922
 C1012 C 0.74811 0.62822 0.28282
 C1013 C 0.68848 0.54857 0.26254
 C1014 C 0.67856 0.53446 0.25890
 H1015 H 0.71877 0.53036 0.27468
 H1016 H 0.75178 0.52578 0.28742
 H1017 H 0.77295 0.55413 0.29461
 H1018 H 0.76127 0.58723 0.28906
 H1019 H 0.70760 0.63261 0.26685
 H1020 H 0.67465 0.63720 0.25396
 H1021 H 0.65346 0.60885 0.24679
 H1022 H 0.66505 0.57575 0.25252
 C1023 C 0.20052 0.06528 0.76641
 C1024 C 0.19206 0.08346 0.77153
 C1025 C 0.20430 0.09977 0.77565
 C1026 C 0.22495 0.09781 0.77459
 C1027 C 0.23342 0.07962 0.76952
 C1028 C 0.22118 0.06331 0.76541
 C1029 C 0.23002 0.04528 0.76035
 C1030 C 0.25035 0.04341 0.75940
 C1031 C 0.26230 0.05935 0.76344
 C1032 C 0.25402 0.07728 0.76845
 C1033 C 0.19549 0.11778 0.78077
 C1034 C 0.17516 0.11963 0.78177
 C1035 C 0.16320 0.10369 0.77772
 C1036 C 0.17147 0.08578 0.77266
 C1037 C 0.23747 0.11449 0.77873
 C1038 C 0.24786 0.12832 0.78222
 C1039 C 0.18804 0.04860 0.76218
 C1040 C 0.17812 0.03445 0.75859
 H1041 H 0.22134 0.03245 0.75709
 H1042 H 0.25686 0.02952 0.75551
 H1043 H 0.27809 0.05783 0.76269
 H1044 H 0.26394 0.08925 0.77146
 H1045 H 0.20418 0.13059 0.78406
 H1046 H 0.16866 0.13352 0.78571
 H1047 H 0.14742 0.10521 0.77851
 H1048 H 0.16156 0.07380 0.76964
 C1049 C 0.23266 0.30042 0.06522
 C1050 C 0.22330 0.28219 0.06217
 C1051 C 0.21937 0.26975 0.07842
 C1052 C 0.22493 0.27555 0.09759
 C1053 C 0.23442 0.29369 0.10062
 C1054 C 0.23835 0.30614 0.08438
 C1055 C 0.24803 0.32412 0.08774
 C1056 C 0.25361 0.32967 0.10662
 C1057 C 0.24967 0.31755 0.12252
 C1058 C 0.24019 0.29975 0.11964
 C1059 C 0.20994 0.25163 0.07503
 C1060 C 0.20464 0.24592 0.05611
 C1061 C 0.20858 0.25803 0.04020
 C1062 C 0.21779 0.27598 0.04311
 C1063 C 0.22095 0.26284 0.11419
 C1064 C 0.21761 0.25239 0.12804
 C1065 C 0.23671 0.31311 0.04862
 C1066 C 0.24025 0.32317 0.03453
 H1067 H 0.25142 0.33404 0.07583
 H1068 H 0.26103 0.34346 0.10893
 H1069 H 0.25401 0.32194 0.13717
 H1070 H 0.23748 0.29082 0.13247
 H1071 H 0.20658 0.24170 0.08693
 H1072 H 0.19745 0.23201 0.05378
 H1073 H 0.20449 0.25349 0.02552
 H1074 H 0.22056 0.28487 0.03026
 C1075 C 0.73310 0.80070 0.56531
 C1076 C 0.72377 0.78246 0.56223
 C1077 C 0.71983 0.77000 0.57846
 C1078 C 0.72534 0.77580 0.59765
 C1079 C 0.73480 0.79396 0.60070
 C1080 C 0.73874 0.80642 0.58448
 C1081 C 0.74838 0.82441 0.58786
 C1082 C 0.75392 0.82997 0.60676
 C1083 C 0.74996 0.81784 0.62264
 C1084 C 0.74051 0.80003 0.61974
 C1085 C 0.71042 0.75188 0.57504
 C1086 C 0.70517 0.74617 0.55611
 C1087 C 0.70914 0.75829 0.54021
 C1088 C 0.71831 0.77625 0.54315
 C1089 C 0.72134 0.76309 0.61423
 C1090 C 0.71798 0.75262 0.62805
 C1091 C 0.73717 0.81338 0.54873
 C1092 C 0.74072 0.82343 0.53463
 H1093 H 0.75179 0.83434 0.57596
 H1094 H 0.76131 0.84377 0.60908
 H1095 H 0.75426 0.82223 0.63730
 H1096 H 0.73778 0.79108 0.63256
 H1097 H 0.70706 0.74194 0.58693
 H1098 H 0.69801 0.73225 0.55376
 H1099 H 0.70508 0.75375 0.52552
 H1100 H 0.72109 0.78515 0.53031
 C1101 C 0.76639 0.80060 0.43463
 C1102 C 0.77740 0.80778 0.41855
 C1103 C 0.78157 0.79536 0.40233
 C1104 C 0.77471 0.77584 0.40231
 C1105 C 0.76385 0.76860 0.41848
 C1106 C 0.75969 0.78101 0.43470
 C1107 C 0.74886 0.77341 0.45073
 C1108 C 0.74233 0.75412 0.45072
 C1109 C 0.74637 0.74200 0.43483
 C1110 C 0.75700 0.74908 0.41885
 C1111 C 0.79262 0.80286 0.38641
 C1112 C 0.79938 0.82207 0.38654
 C1113 C 0.79532 0.83420 0.40241
 C1114 C 0.78446 0.82721 0.41827
 C1115 C 0.77883 0.76321 0.38569
 C1116 C 0.78226 0.75274 0.37188
 C1117 C 0.76211 0.81326 0.45119
 C1118 C 0.75851 0.82332 0.46527
 H1119 H 0.74536 0.78225 0.46345
 H1120 H 0.73408 0.74853 0.46310
 H1121 H 0.74126 0.72703 0.43488
 H1122 H 0.75980 0.73909 0.40685
 H1123 H 0.79617 0.79398 0.37375
 H1124 H 0.80782 0.82756 0.37425
 H1125 H 0.80062 0.84910 0.40245
 H1126 H 0.78169 0.83719 0.43030
 C1127 C 0.26600 0.30032 -0.06551
 C1128 C 0.27707 0.30751 -0.08156
 C1129 C 0.28128 0.29511 -0.09778
 C1130 C 0.27444 0.27558 -0.09786
 C1131 C 0.26351 0.26833 -0.08174
 C1132 C 0.25930 0.28073 -0.06550
 C1133 C 0.24843 0.27310 -0.04951
 C1134 C 0.24189 0.25381 -0.04958
 C1135 C 0.24597 0.24172 -0.06547
 C1136 C 0.25665 0.24882 -0.08141
 C1137 C 0.29238 0.30264 -0.11365
 C1138 C 0.29914 0.32185 -0.11347
 C1139 C 0.29504 0.33395 -0.09759
 C1140 C 0.28413 0.32694 -0.08177
 C1141 C 0.27865 0.26297 -0.11451
 C1142 C 0.28218 0.25256 -0.12837
 C1143 C 0.26168 0.31298 -0.04894
 C1144 C 0.25806 0.32306 -0.03486
 H1145 H 0.24490 0.28192 -0.03679
 H1146 H 0.23361 0.24822 -0.03722
 H1147 H 0.24086 0.22675 -0.06546
 H1148 H 0.25948 0.23884 -0.09342
 H1149 H 0.29597 0.29379 -0.12633
 H1150 H 0.30762 0.32736 -0.12573
 H1151 H 0.30035 0.34885 -0.09751
 H1152 H 0.28134 0.33690 -0.06974
 C1153 C 0.73353 0.19965 -0.06527
 C1154 C 0.73970 0.19420 -0.08436
 C1155 C 0.73571 0.20662 -0.10060
 C1156 C 0.72563 0.22447 -0.09765
 C1157 C 0.71963 0.23002 -0.07853
 C1158 C 0.72364 0.21760 -0.06227
 C1159 C 0.71765 0.22357 -0.04327
 C1160 C 0.70792 0.24125 -0.04041
 C1161 C 0.70392 0.25333 -0.05632
 C1162 C 0.70967 0.24786 -0.07519
 C1163 C 0.74199 0.20082 -0.11955
 C1164 C 0.75202 0.18331 -0.12236
 C1165 C 0.75601 0.17122 -0.10646
 C1166 C 0.74994 0.17652 -0.08764
 C1167 C 0.72148 0.23710 -0.11429
 C1168 C 0.71799 0.24752 -0.12813
 C1169 C 0.73763 0.18698 -0.04866
 C1170 C 0.74120 0.17693 -0.03456
 H1171 H 0.72044 0.21468 -0.03043
 H1172 H 0.70347 0.24559 -0.02578
 H1173 H 0.69633 0.26703 -0.05403
 H1174 H 0.70625 0.25777 -0.08709
 H1175 H 0.73926 0.20975 -0.13238
 H1176 H 0.75673 0.17912 -0.13696
 H1177 H 0.76385 0.15766 -0.10871
 H1178 H 0.75340 0.16664 -0.07573
 C1179 C 0.23270 0.69954 0.43470
 C1180 C 0.22330 0.71774 0.43776
 C1181 C 0.21939 0.73021 0.42152
 C1182 C 0.22502 0.72445 0.40234
 C1183 C 0.23454 0.70632 0.39931
 C1184 C 0.23844 0.69386 0.41555
 C1185 C 0.24816 0.67590 0.41218
 C1186 C 0.25379 0.67037 0.39330
 C1187 C 0.24988 0.68250 0.37740
 C1188 C 0.24036 0.70028 0.38029
 C1189 C 0.20991 0.74829 0.42492
 C1190 C 0.20455 0.75396 0.44385
 C1191 C 0.20848 0.74184 0.45974
 C1192 C 0.21773 0.72392 0.45682
 C1193 C 0.22110 0.73720 0.38573
 C1194 C 0.21781 0.74771 0.37191
 C1195 C 0.23676 0.68684 0.45131
 C1196 C 0.24030 0.67678 0.46540
 H1197 H 0.25154 0.66598 0.42408
 H1198 H 0.26124 0.65660 0.39099
 H1199 H 0.25425 0.67812 0.36276
 H1200 H 0.23766 0.70922 0.36747
 H1201 H 0.20656 0.75822 0.41303
 H1202 H 0.19733 0.76785 0.44618
 H1203 H 0.20434 0.74635 0.47442
 H1204 H 0.22048 0.71502 0.46966
 C1205 C 0.26606 0.69963 0.56545
 C1206 C 0.27565 0.69202 0.58221
 C1207 C 0.27982 0.70442 0.59844
 C1208 C 0.27437 0.72437 0.59781
 C1209 C 0.26491 0.73203 0.58098
 C1210 C 0.26075 0.71963 0.56474
 C1211 C 0.25132 0.72765 0.54807
 C1212 C 0.24615 0.74734 0.54746
 C1213 C 0.25021 0.75944 0.56335
 C1214 C 0.25948 0.75196 0.57995
 C1215 C 0.28944 0.69647 0.61503
 C1216 C 0.29480 0.67683 0.61555
 C1217 C 0.29073 0.66472 0.59967
 C1218 C 0.28126 0.67215 0.58315
 C1219 C 0.27847 0.73701 0.61446
 C1220 C 0.28187 0.74751 0.62828
 C1221 C 0.26177 0.68698 0.54886
 C1222 C 0.25816 0.67692 0.53477
 H1223 H 0.24787 0.71884 0.53533
 H1224 H 0.23896 0.75324 0.53459
 H1225 H 0.24617 0.77472 0.56281
 H1226 H 0.26234 0.76196 0.59193
 H1227 H 0.29294 0.70531 0.62773
 H1228 H 0.30216 0.67099 0.62835
 H1229 H 0.29493 0.64948 0.60014
 H1230 H 0.27843 0.66216 0.57115
 C1231 C 0.76728 0.19971 0.06542
 C1232 C 0.76727 0.22027 0.06299
 C1233 C 0.77135 0.23261 0.07929
 C1234 C 0.77539 0.22433 0.09791
 C1235 C 0.77543 0.20379 0.10032
 C1236 C 0.77135 0.19145 0.08404
 C1237 C 0.77143 0.17097 0.08681
 C1238 C 0.77545 0.16290 0.10517
 C1239 C 0.77947 0.17497 0.12109
 C1240 C 0.77948 0.19519 0.11879
 C1241 C 0.77128 0.25310 0.07652
 C1242 C 0.76727 0.26119 0.05817
 C1243 C 0.76325 0.24913 0.04224
 C1244 C 0.76323 0.22890 0.04453
 C1245 C 0.77946 0.23693 0.11457
 C1246 C 0.78287 0.24736 0.12842
 C1247 C 0.76305 0.18711 0.04879
 C1248 C 0.75941 0.17707 0.03470
 H1249 H 0.76840 0.16098 0.07486
 H1250 H 0.77545 0.14721 0.10704
 H1251 H 0.78260 0.16864 0.13532
 H1252 H 0.78270 0.20397 0.13161
 H1253 H 0.77432 0.26309 0.08847
 H1254 H 0.76728 0.27689 0.05632
 H1255 H 0.76013 0.25549 0.02801
 H1256 H 0.76003 0.22014 0.03169
 C1257 C 0.48356 0.31510 0.54970
 C1258 C 0.49290 0.31698 0.53119
 C1259 C 0.48861 0.33326 0.51895
 C1260 C 0.47496 0.34753 0.52527
 C1261 C 0.46556 0.34560 0.54372
 C1262 C 0.46985 0.32934 0.55596
 C1263 C 0.46020 0.32769 0.57430
 C1264 C 0.44672 0.34174 0.58040
 C1265 C 0.44257 0.35767 0.56846
 C1266 C 0.45183 0.35966 0.55031
 C1267 C 0.49816 0.33485 0.50054
 C1268 C 0.51153 0.32074 0.49436
 C1269 C 0.51568 0.30479 0.50627
 C1270 C 0.50652 0.30285 0.52449
 C1271 C 0.47058 0.36417 0.51279
 C1272 C 0.46697 0.37800 0.50245
 C1273 C 0.48788 0.29843 0.56219
 C1274 C 0.49146 0.28433 0.57219
 H1275 H 0.46294 0.31556 0.58410
 H1276 H 0.43947 0.34025 0.59447
 H1277 H 0.43211 0.36856 0.57327
 H1278 H 0.44810 0.37229 0.54154
 H1279 H 0.49540 0.34699 0.49074
 H1280 H 0.51870 0.32220 0.48023
 H1281 H 0.52605 0.29386 0.50137
 H1282 H 0.51022 0.29018 0.53322
 C1283 C -0.01675 0.81534 0.04944
 C1284 C -0.00852 0.81651 0.03034
 C1285 C -0.01279 0.83282 0.01817
 C1286 C -0.02527 0.84782 0.02514
 C1287 C -0.03357 0.84660 0.04417
 C1288 C -0.02930 0.83030 0.05635
 C1289 C -0.03780 0.82936 0.07531
 C1290 C -0.05014 0.84413 0.08205
 C1291 C -0.05430 0.86009 0.07015
 C1292 C -0.04615 0.86138 0.05141
 C1293 C -0.00438 0.83372 -0.00084
 C1294 C 0.00788 0.81891 -0.00765
 C1295 C 0.01201 0.80293 0.00423
 C1296 C 0.00395 0.80166 0.02302
 C1297 C -0.02955 0.86451 0.01274
 C1298 C -0.03304 0.87837 0.00243
 C1299 C -0.01243 0.79867 0.06187
 C1300 C -0.00883 0.78457 0.07183
 H1301 H -0.03501 0.81723 0.08510
 H1302 H -0.05651 0.84318 0.09659
 H1303 H -0.06388 0.87154 0.07546
 H1304 H -0.04984 0.87407 0.04268
 H1305 H -0.00718 0.84585 -0.01064
 H1306 H 0.01418 0.81985 -0.02222
 H1307 H 0.02153 0.79145 -0.00114
 H1308 H 0.00760 0.78893 0.03170
 C1309 C 0.01696 0.68483 0.04941
 C1310 C 0.01995 0.66622 0.05794
 C1311 C 0.02420 0.64989 0.04578
 C1312 C 0.02543 0.65226 0.02515
 C1313 C 0.02240 0.67086 0.01659
 C1314 C 0.01815 0.68720 0.02876
 C1315 C 0.01516 0.70565 0.01985
 C1316 C 0.01633 0.70787 -0.00048
 C1317 C 0.02048 0.69188 -0.01236
 C1318 C 0.02350 0.67355 -0.00401
 C1319 C 0.02712 0.63142 0.05465
 C1320 C 0.02585 0.62916 0.07496
 C1321 C 0.02169 0.64514 0.08685
 C1322 C 0.01876 0.66350 0.07852
 C1323 C 0.02975 0.63558 0.01274
 C1324 C 0.03329 0.62174 0.00239
 C1325 C 0.01262 0.70151 0.06184
 C1326 C 0.00895 0.71559 0.07181
 H1327 H 0.01188 0.71853 0.02846
 H1328 H 0.01399 0.72207 -0.00706
 H1329 H 0.02138 0.69367 -0.02815
 H1330 H 0.02669 0.66156 -0.01386
 H1331 H 0.03039 0.61856 0.04601
 H1332 H 0.02811 0.61494 0.08150
 H1333 H 0.02071 0.64332 0.10262
 H1334 H 0.01556 0.67549 0.08838
 C1335 C 0.51711 0.18437 0.55002
 C1336 C 0.53681 0.17971 0.54541
 C1337 C 0.54105 0.16343 0.53315
 C1338 C 0.52555 0.15195 0.52552
 C1339 C 0.50584 0.15674 0.52993
 C1340 C 0.50160 0.17301 0.54219
 C1341 C 0.48177 0.17759 0.54626
 C1342 C 0.46657 0.16637 0.53850
 C1343 C 0.47073 0.15042 0.52657
 C1344 C 0.49011 0.14560 0.52227
 C1345 C 0.56085 0.15903 0.52875
 C1346 C 0.57605 0.17044 0.53619
 C1347 C 0.57191 0.18640 0.54812
 C1348 C 0.55255 0.19105 0.55273
 C1349 C 0.52987 0.13530 0.51306
 C1350 C 0.53339 0.12148 0.50268
 C1351 C 0.51277 0.20107 0.56246
 C1352 C 0.50911 0.21522 0.57237
 H1353 H 0.47779 0.18988 0.55544
 H1354 H 0.45149 0.17008 0.54175
 H1355 H 0.45889 0.14174 0.52058
 H1356 H 0.49261 0.13308 0.51288
 H1357 H 0.56480 0.14679 0.51949
 H1358 H 0.59111 0.16687 0.53267
 H1359 H 0.58378 0.19524 0.55383
 H1360 H 0.55008 0.20362 0.56204
 C1361 C -0.01713 0.18474 0.45024
 C1362 C -0.03040 0.17024 0.44373
 C1363 C -0.03468 0.15394 0.45593
 C1364 C -0.02568 0.15229 0.47459
 C1365 C -0.01244 0.16682 0.48115
 C1366 C -0.00817 0.18312 0.46896
 C1367 C 0.00504 0.19751 0.47589
 C1368 C 0.01380 0.19581 0.49431
 C1369 C 0.00966 0.17984 0.50620
 C1370 C -0.00331 0.16547 0.49978
 C1371 C -0.04800 0.13962 0.44910
 C1372 C -0.05686 0.14136 0.43074
 C1373 C -0.05271 0.15731 0.41882
 C1374 C -0.03964 0.17163 0.42516
 C1375 C -0.03004 0.13567 0.48706
 C1376 C -0.03359 0.12189 0.49747
 C1377 C -0.01285 0.20144 0.43783
 C1378 C -0.00928 0.21557 0.42790
 H1379 H 0.00872 0.21022 0.46718
 H1380 H 0.02386 0.20695 0.49939
 H1381 H 0.01651 0.17857 0.52049
 H1382 H -0.00608 0.15333 0.50957
 H1383 H -0.05171 0.12695 0.45785
 H1384 H -0.06701 0.13027 0.42574
 H1385 H -0.05965 0.15862 0.40458
 H1386 H -0.03688 0.18378 0.41538
 C1387 C 0.48343 0.68464 0.95048
 C1388 C 0.49237 0.68305 0.96921
 C1389 C 0.48810 0.66677 0.98144
 C1390 C 0.47487 0.65221 0.97491
 C1391 C 0.46590 0.65383 0.95623
 C1392 C 0.47017 0.67010 0.94399
 C1393 C 0.46095 0.67145 0.92542
 C1394 C 0.44791 0.65710 0.91909
 C1395 C 0.44377 0.64116 0.93103
 C1396 C 0.45261 0.63946 0.94940
 C1397 C 0.49724 0.66547 1.00006
 C1398 C 0.51018 0.67987 1.00646
 C1399 C 0.51431 0.69583 0.99454
 C1400 C 0.50555 0.69748 0.97611
 C1401 C 0.47046 0.63561 0.98742
 C1402 C 0.46686 0.62182 0.99782
 C1403 C 0.48768 0.70133 0.93803
 C1404 C 0.49123 0.71546 0.92807
 H1405 H 0.46369 0.68358 0.91561
 H1406 H 0.44098 0.65837 0.90484
 H1407 H 0.43364 0.63004 0.92604
 H1408 H 0.44891 0.62680 0.95817
 H1409 H 0.49448 0.65334 1.00988
 H1410 H 0.51704 0.67864 1.02075
 H1411 H 0.52435 0.70699 0.99960
 H1412 H 0.50922 0.71018 0.96738
 C1413 C 0.51705 0.81531 0.95036
 C1414 C 0.53098 0.81353 0.96570
 C1415 C 0.53519 0.82983 0.97792
 C1416 C 0.52543 0.84781 0.97477
 C1417 C 0.51135 0.84953 0.95960
 C1418 C 0.50714 0.83323 0.94736
 C1419 C 0.49294 0.83527 0.93235
 C1420 C 0.48319 0.85292 0.92948
 C1421 C 0.48732 0.86886 0.94143
 C1422 C 0.50123 0.86727 0.95633
 C1423 C 0.54915 0.82771 0.99316
 C1424 C 0.55866 0.80997 0.99626
 C1425 C 0.55451 0.79401 0.98434
 C1426 C 0.54085 0.79568 0.96921
 C1427 C 0.52980 0.86449 0.98719
 C1428 C 0.53337 0.87833 0.99753
 C1429 C 0.51267 0.79863 0.93794
 C1430 C 0.50893 0.78453 0.92801
 H1431 H 0.48920 0.82327 0.92270
 H1432 H 0.47236 0.85422 0.91794
 H1433 H 0.47970 0.88254 0.93914
 H1434 H 0.50390 0.88008 0.96527
 H1435 H 0.55284 0.83969 1.00285
 H1436 H 0.56928 0.80861 1.00799
 H1437 H 0.56192 0.78025 0.98684
 H1438 H 0.53810 0.78284 0.96036
 C1439 C 0.01680 0.31538 0.45010
 C1440 C 0.03079 0.31359 0.46538
 C1441 C 0.03504 0.32990 0.47758
 C1442 C 0.02524 0.34785 0.47447
 C1443 C 0.01113 0.34959 0.45933
 C1444 C 0.00688 0.33329 0.44711
 C1445 C -0.00737 0.33533 0.43215
 C1446 C -0.01713 0.35298 0.42931
 C1447 C -0.01294 0.36893 0.44122
 C1448 C 0.00101 0.36734 0.45608
 C1449 C 0.04906 0.32779 0.49276
 C1450 C 0.05859 0.31006 0.49583
 C1451 C 0.05440 0.29409 0.48395
 C1452 C 0.04067 0.29575 0.46887
 C1453 C 0.02959 0.36448 0.48693
 C1454 C 0.03318 0.37825 0.49733
 C1455 C 0.01237 0.29869 0.43771
 C1456 C 0.00858 0.28459 0.42782
 H1457 H -0.01115 0.32332 0.42252
 H1458 H -0.02800 0.35427 0.41780
 H1459 H -0.02056 0.38262 0.43896
 H1460 H 0.00373 0.38015 0.46500
 H1461 H 0.05280 0.33979 0.50242
 H1462 H 0.06926 0.30871 0.50752
 H1463 H 0.06182 0.28034 0.48642
 H1464 H 0.03790 0.28290 0.46003
 C1465 C 0.31504 0.54901 0.48368
 C1466 C 0.31400 0.52879 0.48800
 C1467 C 0.33029 0.51649 0.48389
 C1468 C 0.34751 0.52447 0.47548
 C1469 C 0.34848 0.54466 0.47103
 C1470 C 0.33220 0.55695 0.47514
 C1471 C 0.33350 0.57707 0.47055
 C1472 C 0.35041 0.58483 0.46212
 C1473 C 0.36634 0.57282 0.45810
 C1474 C 0.36547 0.55295 0.46246
 C1475 C 0.32892 0.49633 0.48831
 C1476 C 0.31194 0.48853 0.49655
 C1477 C 0.29600 0.50053 0.50057
 C1478 C 0.29693 0.52044 0.49637
 C1479 C 0.36420 0.51193 0.47140
 C1480 C 0.37804 0.50153 0.46794
 C1481 C 0.29843 0.56160 0.48794
 C1482 C 0.28439 0.57168 0.49151
 H1483 H 0.32148 0.58700 0.47340
 H1484 H 0.35114 0.60025 0.45870
 H1485 H 0.37944 0.57892 0.45154
 H1486 H 0.37823 0.54419 0.45904
 H1487 H 0.34093 0.48640 0.48543
 H1488 H 0.31115 0.47308 0.49983
 H1489 H 0.28284 0.49439 0.50697
 H1490 H 0.28414 0.52917 0.49975
 C1491 C 0.81565 0.04935 -0.01635
 C1492 C 0.81399 0.02890 -0.01355
 C1493 C 0.83025 0.01659 -0.01765
 C1494 C 0.84802 0.02479 -0.02451
 C1495 C 0.84963 0.04519 -0.02746
 C1496 C 0.83339 0.05751 -0.02335
 C1497 C 0.83532 0.07787 -0.02637
 C1498 C 0.85282 0.08582 -0.03329
 C1499 C 0.86871 0.07376 -0.03733
 C1500 C 0.86722 0.05367 -0.03448
 C1501 C 0.82829 -0.00380 -0.01477
 C1502 C 0.81075 -0.01180 -0.00802
 C1503 C 0.79484 0.00024 -0.00399
 C1504 C 0.79635 0.02037 -0.00669
 C1505 C 0.86464 0.01224 -0.02855
 C1506 C 0.87847 0.00187 -0.03197
 C1507 C 0.79909 0.06193 -0.01210
 C1508 C 0.78503 0.07197 -0.00852
 H1509 H 0.82336 0.08784 -0.02345
 H1510 H 0.85405 0.10143 -0.03553
 H1511 H 0.88228 0.08000 -0.04271
 H1512 H 0.87998 0.04489 -0.03785
 H1513 H 0.84025 -0.01377 -0.01772
 H1514 H 0.80951 -0.02743 -0.00591
 H1515 H 0.78125 -0.00606 0.00126
 H1516 H 0.78357 0.02911 -0.00336
 C1517 C 0.68514 0.04920 0.01671
 C1518 C 0.68759 0.02865 0.01692
 C1519 C 0.67129 0.01635 0.02097
 C1520 C 0.65266 0.02467 0.02475
 C1521 C 0.65024 0.04521 0.02458
 C1522 C 0.66654 0.05751 0.02053
 C1523 C 0.66377 0.07799 0.02041
 C1524 C 0.64543 0.08611 0.02421
 C1525 C 0.62949 0.07409 0.02821
 C1526 C 0.63179 0.05386 0.02841
 C1527 C 0.67406 -0.00414 0.02115
 C1528 C 0.69242 -0.01226 0.01741
 C1529 C 0.70837 -0.00025 0.01342
 C1530 C 0.70607 0.01998 0.01315
 C1531 C 0.63600 0.01212 0.02881
 C1532 C 0.62213 0.00178 0.03225
 C1533 C 0.70176 0.06177 0.01254
 C1534 C 0.71581 0.07184 0.00900
 H1535 H 0.67573 0.08795 0.01738
 H1536 H 0.64358 0.10181 0.02406
 H1537 H 0.61527 0.08046 0.03117
 H1538 H 0.61895 0.04512 0.03160
 H1539 H 0.66211 -0.01409 0.02418
 H1540 H 0.69428 -0.02796 0.01761
 H1541 H 0.72259 -0.00664 0.01051
 H1542 H 0.71891 0.02871 0.00998
 C1543 C 0.18447 0.54929 0.51678
 C1544 C 0.16531 0.55538 0.51166
 C1545 C 0.14907 0.54300 0.51560
 C1546 C 0.15212 0.52459 0.52453
 C1547 C 0.17127 0.51845 0.52958
 C1548 C 0.18752 0.53081 0.52564
 C1549 C 0.20657 0.52429 0.53066
 C1550 C 0.20945 0.50610 0.53940
 C1551 C 0.19352 0.49406 0.54334
 C1552 C 0.17462 0.50008 0.53852
 C1553 C 0.13003 0.54940 0.51043
 C1554 C 0.12714 0.56750 0.50153
 C1555 C 0.14305 0.57957 0.49759
 C1556 C 0.16195 0.57366 0.50258
 C1557 C 0.13556 0.51197 0.52855
 C1558 C 0.12179 0.50154 0.53200
 C1559 C 0.20107 0.56187 0.51269
 C1560 C 0.21516 0.57186 0.50914
 H1561 H 0.21943 0.53313 0.52788
 H1562 H 0.22411 0.50133 0.54313
 H1563 H 0.19581 0.47996 0.55016
 H1564 H 0.16270 0.49018 0.54186
 H1565 H 0.11719 0.54052 0.51318
 H1566 H 0.11248 0.57216 0.49765
 H1567 H 0.14074 0.59359 0.49063
 H1568 H 0.17387 0.58355 0.49922
 C1569 C 0.18451 0.45076 -0.01659
 C1570 C 0.18680 0.47133 -0.01597
 C1571 C 0.17054 0.48363 -0.02002
 C1572 C 0.15211 0.47530 -0.02463
 C1573 C 0.14985 0.45476 -0.02534
 C1574 C 0.16611 0.44245 -0.02128
 C1575 C 0.16351 0.42195 -0.02203
 C1576 C 0.14535 0.41386 -0.02669
 C1577 C 0.12945 0.42590 -0.03070
 C1578 C 0.13159 0.44613 -0.03005
 C1579 C 0.17314 0.50414 -0.01937
 C1580 C 0.19130 0.51227 -0.01481
 C1581 C 0.20722 0.50024 -0.01081
 C1582 C 0.20508 0.47999 -0.01137
 C1583 C 0.13550 0.48786 -0.02866
 C1584 C 0.12169 0.49824 -0.03210
 C1585 C 0.20110 0.43821 -0.01241
 C1586 C 0.21517 0.42820 -0.00885
 H1587 H 0.17545 0.41199 -0.01904
 H1588 H 0.14362 0.39815 -0.02720
 H1589 H 0.11538 0.41955 -0.03433
 H1590 H 0.11879 0.45490 -0.03330
 H1591 H 0.16119 0.51411 -0.02238
 H1592 H 0.19303 0.52798 -0.01438
 H1593 H 0.22130 0.50663 -0.00727
 H1594 H 0.21790 0.47126 -0.00816
 C1595 C 0.68487 0.95092 0.48327
 C1596 C 0.66571 0.94301 0.48303
 C1597 C 0.64944 0.95529 0.47901
 C1598 C 0.65244 0.97542 0.47534
 C1599 C 0.67160 0.98335 0.47559
 C1600 C 0.68789 0.97107 0.47961
 C1601 C 0.70692 0.97934 0.47989
 C1602 C 0.70976 0.99918 0.47625
 C1603 C 0.69382 1.01118 0.47225
 C1604 C 0.67493 1.00344 0.47191
 C1605 C 0.63040 0.94706 0.47878
 C1606 C 0.62754 0.92724 0.48249
 C1607 C 0.64347 0.91523 0.48648
 C1608 C 0.66238 0.92294 0.48676
 C1609 C 0.63583 0.98795 0.47128
 C1610 C 0.62202 0.99831 0.46783
 C1611 C 0.70146 0.93838 0.48740
 C1612 C 0.71551 0.92835 0.49096
 H1613 H 0.71979 0.97061 0.48293
 H1614 H 0.72440 1.00527 0.47653
 H1615 H 0.69609 1.02657 0.46941
 H1616 H 0.66299 1.01336 0.46874
 H1617 H 0.61754 0.95581 0.47575
 H1618 H 0.61288 0.92119 0.48226
 H1619 H 0.64118 0.89986 0.48938
 H1620 H 0.67431 0.91302 0.48994
 C1621 C 0.81517 0.95102 0.51636
 C1622 C 0.81338 0.97150 0.51397
 C1623 C 0.82964 0.98381 0.51806
 C1624 C 0.84754 0.97556 0.52449
 C1625 C 0.84929 0.95511 0.52697
 C1626 C 0.83304 0.94279 0.52288
 C1627 C 0.83509 0.92239 0.52547
 C1628 C 0.85272 0.91438 0.53193
 C1629 C 0.86863 0.92642 0.53594
 C1630 C 0.86702 0.94657 0.53352
 C1631 C 0.82756 1.00424 0.51561
 C1632 C 0.80990 1.01229 0.50930
 C1633 C 0.79398 1.00026 0.50530
 C1634 C 0.79561 0.98009 0.50758
 C1635 C 0.86412 0.98811 0.52860
 C1636 C 0.87789 0.99852 0.53209
 C1637 C 0.79862 0.93844 0.51215
 C1638 C 0.78459 0.92837 0.50860
 H1639 H 0.82312 0.91242 0.52255
 H1640 H 0.85403 0.89874 0.53383
 H1641 H 0.88229 0.92013 0.54097
 H1642 H 0.87980 0.95534 0.53684
 H1643 H 0.83953 1.01421 0.51855
 H1644 H 0.80857 1.02795 0.50752
 H1645 H 0.78029 1.00660 0.50040
 H1646 H 0.78281 0.97135 0.50429
 C1647 C 0.31506 0.45085 0.01645
 C1648 C 0.33297 0.44260 0.02284
 C1649 C 0.34925 0.45489 0.02696
 C1650 C 0.34752 0.47537 0.02466
 C1651 C 0.32958 0.48364 0.01834
 C1652 C 0.31329 0.47135 0.01423
 C1653 C 0.29549 0.47998 0.00796
 C1654 C 0.29385 0.50017 0.00582
 C1655 C 0.30979 0.51217 0.00985
 C1656 C 0.32748 0.50409 0.01603
 C1657 C 0.36700 0.44629 0.03336
 C1658 C 0.36861 0.42612 0.03563
 C1659 C 0.35268 0.41411 0.03159
 C1660 C 0.33503 0.42217 0.02526
 C1661 C 0.36417 0.48792 0.02882
 C1662 C 0.37799 0.49831 0.03233
 C1663 C 0.29845 0.43828 0.01222
 C1664 C 0.28439 0.42821 0.00866
 H1665 H 0.28268 0.47126 0.00466
 H1666 H 0.28014 0.50653 0.00103
 H1667 H 0.30844 0.52784 0.00817
 H1668 H 0.33946 0.51403 0.01899
 H1669 H 0.37979 0.45503 0.03670
 H1670 H 0.38229 0.41979 0.04054
 H1671 H 0.35400 0.39846 0.03337
 H1672 H 0.32305 0.41223 0.02232
 C1673 C 0.55044 0.48305 0.31545
 C1674 C 0.54248 0.46408 0.31782
 C1675 C 0.53000 0.45998 0.33405
 C1676 C 0.52546 0.47489 0.34774
 C1677 C 0.53317 0.49392 0.34520
 C1678 C 0.54565 0.49803 0.32898
 C1679 C 0.55300 0.51722 0.32665
 C1680 C 0.54821 0.53192 0.34000
 C1681 C 0.53610 0.52786 0.35592
 C1682 C 0.52862 0.50911 0.35856
 C1683 C 0.52226 0.44091 0.33615
 C1684 C 0.52662 0.42633 0.32254
 C1685 C 0.53872 0.43037 0.30661
 C1686 C 0.54662 0.44899 0.30421
 C1687 C 0.51285 0.47067 0.36440
 C1688 C 0.50243 0.46719 0.37828
 C1689 C 0.56313 0.48726 0.29883
 C1690 C 0.57318 0.49087 0.28470
 H1691 H 0.56245 0.52110 0.31448
 H1692 H 0.55393 0.54653 0.33798
 H1693 H 0.53244 0.53931 0.36627
 H1694 H 0.51921 0.50670 0.37114
 H1695 H 0.51272 0.43707 0.34827
 H1696 H 0.52054 0.41183 0.32435
 H1697 H 0.54201 0.41901 0.29604
 H1698 H 0.55593 0.45143 0.29156
 C1699 C 0.04969 -0.01622 0.81510
 C1700 C 0.05597 -0.02951 0.82972
 C1701 C 0.04361 -0.03374 0.84599
 C1702 C 0.02500 -0.02471 0.84750
 C1703 C 0.01861 -0.01155 0.83281
 C1704 C 0.03097 -0.00732 0.81652
 C1705 C 0.02420 0.00579 0.80195
 C1706 C 0.00578 0.01450 0.80345
 C1707 C -0.00626 0.01041 0.81942
 C1708 C 0.00001 -0.00246 0.83397
 C1709 C 0.05022 -0.04705 0.86045
 C1710 C 0.06851 -0.05596 0.85885
 C1711 C 0.08058 -0.05188 0.84290
 C1712 C 0.07447 -0.03880 0.82847
 C1713 C 0.01244 -0.02901 0.86416
 C1714 C 0.00208 -0.03261 0.87804
 C1715 C 0.06233 -0.01191 0.79847
 C1716 C 0.07246 -0.00837 0.78438
 H1717 H 0.03302 0.00942 0.78924
 H1718 H 0.00082 0.02448 0.79217
 H1719 H -0.02054 0.01722 0.82054
 H1720 H -0.00990 -0.00520 0.84610
 H1721 H 0.04135 -0.05072 0.87311
 H1722 H 0.07333 -0.06611 0.87004
 H1723 H 0.09476 -0.05887 0.84171
 H1724 H 0.08436 -0.03611 0.81633
 C1725 C 0.04987 0.01663 0.68429
 C1726 C 0.04589 0.03625 0.67905
 C1727 C 0.03339 0.04037 0.66287
 C1728 C 0.02485 0.02486 0.65211
 C1729 C 0.02851 0.00525 0.65757
 C1730 C 0.04101 0.00112 0.67374
 C1731 C 0.04427 -0.01860 0.67905
 C1732 C 0.03552 -0.03380 0.66862
 C1733 C 0.02339 -0.02975 0.65273
 C1734 C 0.01987 -0.01048 0.64720
 C1735 C 0.02968 0.06009 0.65786
 C1736 C 0.03800 0.07531 0.66860
 C1737 C 0.05012 0.07128 0.68450
 C1738 C 0.05408 0.05200 0.68972
 C1739 C 0.01230 0.02908 0.63543
 C1740 C 0.00193 0.03261 0.62156
 C1741 C 0.06266 0.01241 0.70080
 C1742 C 0.07277 0.00886 0.71489
 H1743 H 0.05355 -0.02249 0.69134
 H1744 H 0.03815 -0.04880 0.67289
 H1745 H 0.01665 -0.04160 0.64465
 H1746 H 0.01028 -0.00807 0.63477
 H1747 H 0.02030 0.06396 0.64565
 H1748 H 0.03498 0.09030 0.66457
 H1749 H 0.05648 0.08316 0.69284
 H1750 H 0.06357 0.04961 0.70223
 C1751 C 0.55043 0.51670 0.18462
 C1752 C 0.54231 0.53560 0.18236
 C1753 C 0.52982 0.53970 0.16615
 C1754 C 0.52543 0.52484 0.15237
 C1755 C 0.53329 0.50586 0.15479
 C1756 C 0.54578 0.50176 0.17099
 C1757 C 0.55328 0.48261 0.17321
 C1758 C 0.54864 0.46796 0.15977
 C1759 C 0.53653 0.47201 0.14387
 C1760 C 0.52890 0.49071 0.14134
 C1761 C 0.52193 0.55872 0.16417
 C1762 C 0.52615 0.57325 0.17787
 C1763 C 0.53825 0.56921 0.19379
 C1764 C 0.54629 0.55064 0.19607
 C1765 C 0.51281 0.52905 0.13572
 C1766 C 0.50240 0.53252 0.12184
 C1767 C 0.56314 0.51249 0.20121
 C1768 C 0.57320 0.50888 0.21532
 H1769 H 0.56273 0.47874 0.18537
 H1770 H 0.55448 0.45339 0.16171
 H1771 H 0.53300 0.46059 0.13345
 H1772 H 0.51950 0.49312 0.12877
 H1773 H 0.51240 0.56255 0.15207
 H1774 H 0.51997 0.58770 0.17615
 H1775 H 0.54143 0.58053 0.20443
 H1776 H 0.55560 0.54821 0.20871
 C1777 C 0.44985 -0.01652 0.18474
 C1778 C 0.46173 -0.00159 0.17659
 C1779 C 0.47420 -0.00578 0.16038
 C1780 C 0.47480 -0.02490 0.15246
 C1781 C 0.46316 -0.03989 0.16078
 C1782 C 0.45069 -0.03570 0.17700
 C1783 C 0.43935 -0.05098 0.18519
 C1784 C 0.44024 -0.06984 0.17754
 C1785 C 0.45234 -0.07391 0.16162
 C1786 C 0.46371 -0.05917 0.15328
 C1787 C 0.48589 0.00938 0.15245
 C1788 C 0.48537 0.02813 0.16038
 C1789 C 0.47327 0.03222 0.17630
 C1790 C 0.46155 0.01760 0.18437
 C1791 C 0.48740 -0.02914 0.13579
 C1792 C 0.49783 -0.03266 0.12192
 C1793 C 0.43713 -0.01224 0.20133
 C1794 C 0.42704 -0.00868 0.21545
 H1795 H 0.42973 -0.04854 0.19761
 H1796 H 0.43148 -0.08136 0.18400
 H1797 H 0.45297 -0.08858 0.15571
 H1798 H 0.47294 -0.06306 0.14094
 H1799 H 0.49559 0.00690 0.14010
 H1800 H 0.49443 0.03954 0.15415
 H1801 H 0.47297 0.04680 0.18244
 H1802 H 0.45241 0.02148 0.19677
 C1803 C 0.95003 0.48370 0.68443
 C1804 C 0.96448 0.49739 0.67858
 C1805 C 0.97692 0.49317 0.66236
 C1806 C 0.97490 0.47526 0.65216
 C1807 C 0.96067 0.46145 0.65819
 C1808 C 0.94823 0.46566 0.67441
 C1809 C 0.93423 0.45156 0.68029
 C1810 C 0.93253 0.43382 0.67038
 C1811 C 0.94464 0.42975 0.65445
 C1812 C 0.95857 0.44335 0.64837
 C1813 C 0.99122 0.50708 0.65673
 C1814 C 0.99325 0.52463 0.66690
 C1815 C 0.98116 0.52872 0.68284
 C1816 C 0.96691 0.51532 0.68867
 C1817 C 0.98743 0.47103 0.63547
 C1818 C 0.99777 0.46748 0.62156
 C1819 C 0.93731 0.48800 0.70099
 C1820 C 0.92722 0.49159 0.71509
 H1821 H 0.92451 0.45405 0.69261
 H1822 H 0.92177 0.42319 0.67508
 H1823 H 0.94325 0.41597 0.64678
 H1824 H 0.96768 0.43949 0.63593
 H1825 H 1.00101 0.50454 0.64446
 H1826 H 1.00427 0.53509 0.66241
 H1827 H 0.98284 0.54235 0.69072
 H1828 H 0.95789 0.51915 0.70118
 C1829 C 0.95018 0.51692 0.81515
 C1830 C 0.96754 0.52800 0.81244
 C1831 C 0.97992 0.53201 0.82874
 C1832 C 0.97493 0.52487 0.84761
 C1833 C 0.95775 0.51358 0.85026
 C1834 C 0.94535 0.50957 0.83398
 C1835 C 0.92832 0.49813 0.83696
 C1836 C 0.92364 0.49091 0.85552
 C1837 C 0.93572 0.49490 0.87147
 C1838 C 0.95260 0.50610 0.86895
 C1839 C 0.99716 0.54314 0.82571
 C1840 C 1.00207 0.55005 0.80709
 C1841 C 0.99001 0.54605 0.79113
 C1842 C 0.97292 0.53517 0.79369
 C1843 C 0.98748 0.52911 0.86427
 C1844 C 0.99786 0.53266 0.87813
 C1845 C 0.93750 0.51285 0.79853
 C1846 C 0.92738 0.50930 0.78446
 H1847 H 0.91848 0.49461 0.82501
 H1848 H 0.91057 0.48216 0.85754
 H1849 H 0.93202 0.48928 0.88586
 H1850 H 0.96155 0.50878 0.88180
 H1851 H 1.00704 0.54659 0.83766
 H1852 H 1.01532 0.55852 0.80505
 H1853 H 0.99393 0.55141 0.77669
 H1854 H 0.96404 0.53242 0.78082
 C1855 C 0.44986 0.01656 0.31559
 C1856 C 0.45621 0.03595 0.31911
 C1857 C 0.46873 0.04003 0.33529
 C1858 C 0.47493 0.02470 0.34777
 C1859 C 0.46888 0.00528 0.34406
 C1860 C 0.45635 0.00118 0.32788
 C1861 C 0.45068 -0.01840 0.32435
 C1862 C 0.45712 -0.03347 0.33649
 C1863 C 0.46927 -0.02944 0.35238
 C1864 C 0.47513 -0.01032 0.35618
 C1865 C 0.47484 0.05953 0.33857
 C1866 C 0.46884 0.07455 0.32615
 C1867 C 0.45670 0.07054 0.31025
 C1868 C 0.45040 0.05149 0.30671
 C1869 C 0.48753 0.02892 0.36442
 C1870 C 0.49793 0.03244 0.37828
 C1871 C 0.43707 0.01238 0.29904
 C1872 C 0.42696 0.00882 0.28495
 H1873 H 0.44128 -0.02227 0.31215
 H1874 H 0.45267 -0.04837 0.33356
 H1875 H 0.47421 -0.04119 0.36179
 H1876 H 0.48464 -0.00792 0.36868
 H1877 H 0.48433 0.06337 0.35071
 H1878 H 0.47367 0.08936 0.32885
 H1879 H 0.45214 0.08225 0.30060
 H1880 H 0.44100 0.04910 0.29413
   
