data_POSCAR
  _audit_creation_date              2014-09-24
  _audit_creation_method            'ToBaCCo'
  _symmetry_space_group_name_H-M    'P1'
  _symmetry_Int_Tables_number       1
  _symmetry_cell_setting            triclinic
  loop_
  _symmetry_equiv_pos_as_xyz
 x,y,z
_cell_length_a 62.9602
_cell_length_b 62.9651
_cell_length_c 63.0460
_cell_angle_alpha 90.031400
_cell_angle_beta 89.995900
_cell_angle_gamma 90.015300
loop_
  _atom_site_label
  _atom_site_type_symbol
  _atom_site_fract_x
  _atom_site_fract_y
  _atom_site_fract_z
C1 C 0.19197 0.21174 0.22203
 N2 N 0.19533 0.22495 0.20533
 C3 C 0.21190 0.22175 0.19189
 N4 N 0.22519 0.20510 0.19532
 C5 C 0.22207 0.19173 0.21194
 N6 N 0.20542 0.19517 0.22522
 C7 C 0.69174 0.71215 0.72187
 N8 N 0.70512 0.69551 0.72497
 C9 C 0.72176 0.69207 0.71168
 N10 N 0.72496 0.70552 0.69514
 C11 C 0.71174 0.72224 0.69179
 N12 N 0.69518 0.72544 0.70524
 C13 C 0.30766 0.78856 0.72219
 N14 N 0.30427 0.77528 0.70554
 C15 C 0.28770 0.77845 0.69211
 N16 N 0.27445 0.79515 0.69548
 C17 C 0.27757 0.80863 0.71206
 N18 N 0.29425 0.80517 0.72532
 C19 C 0.80863 0.28798 0.22228
 N20 N 0.80522 0.27471 0.20559
 C21 C 0.78865 0.27784 0.19214
 N22 N 0.77535 0.29449 0.19551
 C23 C 0.77847 0.30793 0.21208
 N24 N 0.79513 0.30456 0.22537
 C25 C 0.80837 0.71217 0.27801
 N26 N 0.79492 0.69557 0.27490
 C27 C 0.77827 0.69220 0.28819
 N28 N 0.77514 0.70567 0.30474
 C29 C 0.78843 0.72234 0.30810
 N30 N 0.80501 0.72547 0.29465
 C31 C 0.30817 0.21166 -0.22247
 N32 N 0.29468 0.19507 -0.22561
 C33 C 0.27796 0.19161 -0.21239
 N34 N 0.27483 0.20508 -0.19581
 C35 C 0.28810 0.22174 -0.19239
 N36 N 0.30471 0.22491 -0.20578
 C37 C 0.69204 0.28814 -0.22172
 N38 N 0.70545 0.30475 -0.22489
 C39 C 0.72218 0.30822 -0.21168
 N40 N 0.72533 0.29474 -0.19511
 C41 C 0.71208 0.27805 -0.19170
 N42 N 0.69547 0.27487 -0.20509
 C43 C 0.19223 0.78823 0.27769
 N44 N 0.20568 0.80483 0.27458
 C45 C 0.22232 0.80831 0.28788
 N46 N 0.22537 0.79487 0.30449
 C47 C 0.21209 0.77820 0.30785
 N48 N 0.19556 0.77500 0.29438
 C49 C 0.46175 0.44180 0.47230
 N50 N 0.44519 0.45527 0.47545
 C51 C 0.44182 0.47193 0.46218
 N52 N 0.45525 0.47505 0.44561
 C53 C 0.47190 0.46174 0.44221
 N54 N 0.47503 0.44516 0.45564
 C55 C -0.03794 -0.05782 0.97175
 N56 N -0.05453 -0.04440 0.97492
 C57 C -0.05799 -0.02768 0.96171
 N58 N -0.04451 -0.02454 0.94514
 C59 C -0.02783 -0.03780 0.94173
 N60 N -0.02466 -0.05440 0.95511
 C61 C 1.03780 0.55833 0.97205
 N62 N 1.05436 0.54483 0.97517
 C63 C 1.05774 0.52814 0.96192
 N64 N 1.04431 0.52500 0.94534
 C65 C 1.02767 0.53830 0.94195
 N66 N 1.02454 0.55490 0.95537
 C67 C 0.53836 0.05770 0.47228
 N68 N 0.55499 0.04432 0.47541
 C69 C 0.55849 0.02764 0.46214
 N70 N 0.54503 0.02450 0.44557
 C71 C 0.52831 0.03772 0.44219
 N72 N 0.52510 0.05428 0.45563
 C73 C -0.03838 0.05828 0.52799
 N74 N -0.05498 0.04485 0.52487
 C75 C -0.05841 0.02815 0.53810
 N76 N -0.04491 0.02503 0.55464
 C77 C -0.02822 0.03829 0.55801
 N78 N -0.02507 0.05488 0.54461
 C79 C 0.46191 0.55816 0.02811
 N80 N 0.44533 0.54470 0.02492
 C81 C 0.44193 0.52802 0.03815
 N82 N 0.45535 0.52487 0.05473
 C83 C 0.47201 0.53816 0.05816
 N84 N 0.47517 0.55476 0.04477
 C85 C 0.53818 -0.05839 0.02781
 N86 N 0.55479 -0.04492 0.02472
 C87 C 0.55824 -0.02830 0.03802
 N88 N 0.54485 -0.02517 0.05463
 C89 C 0.52817 -0.03843 0.05801
 N90 N 0.52496 -0.05497 0.04453
 C91 C 1.03767 0.44156 0.52767
 N92 N 1.05424 0.45507 0.52456
 C93 C 1.05765 0.47171 0.53787
 N94 N 1.04425 0.47480 0.55448
 C95 C 1.02761 0.46149 0.55786
 N96 N 1.02445 0.44493 0.54439
 C97 C 0.40766 0.00946 0.22162
 H98 H 0.40852 0.02386 0.23096
 C99 C 0.42152 0.00647 0.20459
 H100 H 0.43306 0.01862 0.20070
 C101 C 0.39177 -0.02414 0.21543
 H102 H 0.38041 -0.03618 0.21989
 C103 C 0.40534 -0.02777 0.19828
 H104 H 0.40424 -0.04250 0.18945
 N105 N 0.39300 -0.00564 0.22656
 C106 C 0.34272 0.02818 0.26016
 H107 H 0.34185 0.01886 0.27454
 C108 C 0.32888 0.04525 0.25717
 H109 H 0.31735 0.04918 0.26931
 C110 C 0.35857 0.03431 0.22658
 H111 H 0.36991 0.02981 0.21454
 C112 C 0.34503 0.05150 0.22296
 H113 H 0.34613 0.06031 0.20824
 Zn114 Zn 0.37515 -0.00048 0.25018
 N115 N 0.35735 0.02320 0.24506
 C116 C 0.39183 0.02314 0.28493
 N117 N 0.39300 0.00463 0.27382
 C118 C 0.40760 -0.01051 0.27877
 C119 C 0.42147 -0.00755 0.29581
 C120 C 0.40540 0.02674 0.30208
 C121 C 0.34263 -0.02905 0.24018
 C122 C 0.32874 -0.04608 0.24314
 C123 C 0.34483 -0.05240 0.27736
 C124 C 0.35844 -0.03525 0.27376
 N125 N 0.35727 -0.02412 0.25529
 H126 H 0.38051 0.03521 0.28045
 H127 H 0.40842 -0.02492 0.26945
 H128 H 0.43297 -0.01972 0.29970
 H129 H 0.40435 0.04149 0.31089
 H130 H 0.34181 -0.01971 0.22580
 H131 H 0.31721 -0.04996 0.23098
 H132 H 0.34589 -0.06123 0.29206
 H133 H 0.36978 -0.03079 0.28581
 C134 C 0.33010 0.05704 0.23842
 C135 C 0.42030 -0.01230 0.19278
 C136 C 0.32990 -0.05789 0.26188
 C137 C 0.42031 0.01124 0.30759
 C138 C 0.09280 -0.00976 0.72117
 H139 H 0.09196 -0.02415 0.73051
 C140 C 0.07892 -0.00680 0.70416
 H141 H 0.06737 -0.01896 0.70029
 C142 C 0.10865 0.02385 0.71495
 H143 H 0.12001 0.03591 0.71939
 C144 C 0.09505 0.02745 0.69781
 H145 H 0.09614 0.04217 0.68899
 N146 N 0.10745 0.00536 0.72608
 C147 C 0.15778 -0.02834 0.75968
 H148 H 0.15865 -0.01898 0.77405
 C149 C 0.17162 -0.04542 0.75671
 H150 H 0.18316 -0.04930 0.76885
 C151 C 0.14191 -0.03457 0.72612
 H152 H 0.13056 -0.03010 0.71409
 C153 C 0.15547 -0.05176 0.72252
 H154 H 0.15436 -0.06061 0.70781
 Zn155 Zn 0.12532 0.00027 0.74970
 N156 N 0.14314 -0.02341 0.74458
 C157 C 0.10868 -0.02332 0.78447
 N158 N 0.10749 -0.00482 0.77335
 C159 C 0.09287 0.01031 0.77830
 C160 C 0.07901 0.00735 0.79534
 C161 C 0.09511 -0.02691 0.80163
 C162 C 0.15780 0.02885 0.73966
 C163 C 0.17168 0.04591 0.74262
 C164 C 0.15559 0.05225 0.77684
 C165 C 0.14200 0.03508 0.77326
 N166 N 0.14318 0.02393 0.75478
 H167 H 0.12001 -0.03538 0.78000
 H168 H 0.09203 0.02470 0.76897
 H169 H 0.06749 0.01952 0.79924
 H170 H 0.09619 -0.04163 0.81045
 H171 H 0.15863 0.01950 0.72529
 H172 H 0.18320 0.04979 0.73046
 H173 H 0.15453 0.06109 0.79155
 H174 H 0.13067 0.03062 0.78531
 C175 C 0.17041 -0.05725 0.73798
 C176 C 0.08010 0.01196 0.69235
 C177 C 0.17052 0.05774 0.76136
 C178 C 0.08019 -0.01141 0.80714
 C179 C 0.59258 0.48996 0.22160
 H180 H 0.59174 0.47554 0.23089
 C181 C 0.57873 0.49295 0.20456
 H182 H 0.56722 0.48078 0.20063
 C183 C 0.60838 0.52361 0.21553
 H184 H 0.61971 0.53567 0.22004
 C185 C 0.59482 0.52724 0.19837
 H186 H 0.59590 0.54199 0.18960
 N187 N 0.60719 0.50509 0.22659
 C188 C 0.65754 0.47135 0.26013
 H189 H 0.65838 0.48066 0.27453
 C190 C 0.67142 0.45431 0.25712
 H191 H 0.68296 0.45041 0.26925
 C192 C 0.64172 0.46520 0.22653
 H193 H 0.63037 0.46969 0.21450
 C194 C 0.65531 0.44805 0.22288
 H195 H 0.65423 0.43925 0.20815
 Zn196 Zn 0.62504 0.49993 0.25021
 N197 N 0.64291 0.47630 0.24504
 C198 C 0.60842 0.47621 0.28489
 N199 N 0.60720 0.49474 0.27383
 C200 C 0.59256 0.50984 0.27883
 C201 C 0.57871 0.50681 0.29586
 C202 C 0.59486 0.47255 0.30205
 C203 C 0.65749 0.52858 0.24029
 C204 C 0.67134 0.54566 0.24328
 C205 C 0.65521 0.55190 0.27751
 C206 C 0.64166 0.53471 0.27388
 N207 N 0.64287 0.52361 0.25538
 H208 H 0.61977 0.46418 0.28039
 H209 H 0.59170 0.52426 0.26954
 H210 H 0.56717 0.51895 0.29980
 H211 H 0.59595 0.45780 0.31082
 H212 H 0.65835 0.51926 0.22589
 H213 H 0.68286 0.54958 0.23114
 H214 H 0.65412 0.56071 0.29224
 H215 H 0.63032 0.53021 0.28591
 C216 C 0.67025 0.44254 0.23834
 C217 C 0.57991 0.51174 0.19282
 C218 C 0.67014 0.55744 0.26204
 C219 C 0.57992 0.48801 0.30760
 C220 C 0.90706 0.50952 0.72138
 H221 H 0.90790 0.52396 0.73065
 C222 C 0.92092 0.50648 0.70435
 H223 H 0.93244 0.51863 0.70040
 C224 C 0.89123 0.47586 0.71534
 H225 H 0.87989 0.46382 0.71985
 C226 C 0.90480 0.47218 0.69819
 H227 H 0.90371 0.45742 0.68943
 N228 N 0.89243 0.49441 0.72638
 C229 C 0.84210 0.52830 0.75983
 H230 H 0.84124 0.51903 0.77425
 C231 C 0.82825 0.54536 0.75678
 H232 H 0.81673 0.54933 0.76891
 C233 C 0.85795 0.53432 0.72623
 H234 H 0.86929 0.52978 0.71421
 C235 C 0.84440 0.55149 0.72255
 H236 H 0.84550 0.56025 0.70780
 Zn237 Zn 0.87457 0.49964 0.74998
 N238 N 0.85673 0.52328 0.74475
 C239 C 0.89119 0.52345 0.78463
 N240 N 0.89240 0.50489 0.77360
 C241 C 0.90702 0.48979 0.77863
 C242 C 0.92086 0.49286 0.79567
 C243 C 0.90474 0.52715 0.80179
 C244 C 0.84210 0.47098 0.74009
 C245 C 0.82825 0.45392 0.74312
 C246 C 0.84434 0.44778 0.77737
 C247 C 0.85791 0.46495 0.77371
 N248 N 0.85672 0.47600 0.75519
 H249 H 0.87985 0.53548 0.78010
 H250 H 0.90787 0.47535 0.76937
 H251 H 0.93238 0.48071 0.79963
 H252 H 0.90365 0.54192 0.81053
 H253 H 0.84127 0.48025 0.72567
 H254 H 0.81674 0.44996 0.73097
 H255 H 0.84542 0.43902 0.79212
 H256 H 0.86924 0.46949 0.78574
 C257 C 0.82947 0.55708 0.73799
 C258 C 0.91972 0.48766 0.69262
 C259 C 0.82943 0.44219 0.76191
 C260 C 0.91966 0.51168 0.80738
 C261 C 0.22116 0.40718 0.00983
 H262 H 0.23050 0.40801 0.02421
 C263 C 0.20411 0.42105 0.00688
 H264 H 0.20021 0.43256 0.01905
 C265 C 0.21499 0.39140 -0.02379
 H266 H 0.21947 0.38008 -0.03585
 C267 C 0.19782 0.40498 -0.02737
 H268 H 0.18900 0.40392 -0.04209
 N269 N 0.22612 0.39258 -0.00531
 C270 C 0.25978 0.34223 0.02830
 H271 H 0.27418 0.34140 0.01897
 C272 C 0.25681 0.32835 0.04532
 H273 H 0.26898 0.31683 0.04920
 C274 C 0.22615 0.35804 0.03449
 H275 H 0.21409 0.36937 0.03004
 C276 C 0.22254 0.34445 0.05163
 H277 H 0.20781 0.34552 0.06045
 Zn278 Zn 0.24978 0.37473 -0.00022
 N279 N 0.24465 0.35685 0.02338
 C280 C 0.28457 0.39136 0.02342
 N281 N 0.27344 0.39258 0.00494
 C282 C 0.27839 0.40723 -0.01013
 C283 C 0.29545 0.42110 -0.00713
 C284 C 0.30174 0.40493 0.02705
 C285 C 0.23981 0.34230 -0.02887
 C286 C 0.24280 0.32846 -0.04593
 C287 C 0.27707 0.34460 -0.05216
 C288 C 0.27344 0.35815 -0.03498
 N289 N 0.25492 0.35693 -0.02388
 H290 H 0.28009 0.38000 0.03543
 H291 H 0.26905 0.40809 -0.02451
 H292 H 0.29935 0.43264 -0.01926
 H293 H 0.31057 0.40383 0.04176
 H294 H 0.22540 0.34144 -0.01956
 H295 H 0.23064 0.31694 -0.04985
 H296 H 0.29181 0.34570 -0.06095
 H297 H 0.28549 0.36949 -0.03048
 C298 C 0.23804 0.32953 0.05712
 C299 C 0.19231 0.41989 -0.01187
 C300 C 0.26158 0.32967 -0.05770
 C301 C 0.30725 0.41989 0.01161
 C302 C 0.72199 0.09228 -0.00999
 H303 H 0.73131 0.09145 -0.02439
 C304 C 0.70492 0.07843 -0.00702
 H305 H 0.70099 0.06692 -0.01918
 C306 C 0.71588 0.10808 0.02363
 H307 H 0.72038 0.11940 0.03568
 C308 C 0.69869 0.09451 0.02724
 H309 H 0.68989 0.09559 0.04196
 N310 N 0.72698 0.10689 0.00513
 C311 C 0.76059 0.15725 -0.02856
 H312 H 0.77501 0.15808 -0.01927
 C313 C 0.75758 0.17112 -0.04556
 H314 H 0.76974 0.18265 -0.04947
 C315 C 0.72694 0.14143 -0.03467
 H316 H 0.71489 0.13008 -0.03019
 C317 C 0.72329 0.15502 -0.05179
 H318 H 0.70853 0.15394 -0.06057
 Zn319 Zn 0.75064 0.12474 -0.00001
 N320 N 0.74547 0.14261 -0.02360
 C321 C 0.78538 0.10813 -0.02371
 N322 N 0.77429 0.10690 -0.00521
 C323 C 0.77927 0.09225 0.00986
 C324 C 0.79632 0.07840 0.00683
 C325 C 0.80255 0.09456 -0.02737
 C326 C 0.74070 0.15718 0.02864
 C327 C 0.74370 0.17101 0.04570
 C328 C 0.77796 0.15488 0.05191
 C329 C 0.77433 0.14134 0.03473
 N330 N 0.75581 0.14255 0.02364
 H331 H 0.78088 0.11948 -0.03571
 H332 H 0.76996 0.09139 0.02426
 H333 H 0.80024 0.06685 0.01895
 H334 H 0.81134 0.09566 -0.04210
 H335 H 0.72628 0.15803 0.01933
 H336 H 0.73154 0.18253 0.04963
 H337 H 0.79271 0.15379 0.06070
 H338 H 0.78637 0.13000 0.03022
 C339 C 0.73877 0.16995 -0.05731
 C340 C 0.69314 0.07961 0.01175
 C341 C 0.76248 0.16980 0.05746
 C342 C 0.80808 0.07961 -0.01194
 C343 C 0.22109 0.59277 0.48999
 H344 H 0.23044 0.59193 0.47562
 C345 C 0.20403 0.57889 0.49293
 H346 H 0.20016 0.56735 0.48078
 C347 C 0.21485 0.60859 0.52357
 H348 H 0.21930 0.61994 0.53562
 C349 C 0.19768 0.59500 0.52715
 H350 H 0.18883 0.59607 0.54186
 N351 N 0.22600 0.60740 0.50511
 C352 C 0.25971 0.65773 0.47149
 H353 H 0.27410 0.65858 0.48084
 C354 C 0.25676 0.67159 0.45445
 H355 H 0.26893 0.68312 0.45058
 C356 C 0.22609 0.64189 0.46526
 H357 H 0.21403 0.63054 0.46971
 C358 C 0.22251 0.65545 0.44811
 H359 H 0.20779 0.65436 0.43927
 Zn360 Zn 0.24967 0.62526 0.50003
 N361 N 0.24458 0.64310 0.47641
 C362 C 0.28450 0.60863 0.47647
 N363 N 0.27334 0.60742 0.49494
 C364 C 0.27827 0.59279 0.51004
 C365 C 0.29533 0.57893 0.50708
 C366 C 0.30168 0.59506 0.47288
 C367 C 0.23964 0.65772 0.52863
 C368 C 0.24260 0.67158 0.54568
 C369 C 0.27686 0.65547 0.55198
 C370 C 0.27327 0.64190 0.53481
 N371 N 0.25477 0.64310 0.52368
 H372 H 0.28005 0.61997 0.46444
 H373 H 0.26891 0.59194 0.52440
 H374 H 0.29921 0.56740 0.51922
 H375 H 0.31053 0.59614 0.45818
 H376 H 0.22525 0.65856 0.51929
 H377 H 0.23043 0.68310 0.54957
 H378 H 0.29159 0.65439 0.56080
 H379 H 0.28533 0.63057 0.53034
 C380 C 0.23801 0.67039 0.44263
 C381 C 0.19220 0.58006 0.51167
 C382 C 0.26137 0.67040 0.55748
 C383 C 0.30716 0.58012 0.48835
 C384 C 0.72152 0.90802 0.51003
 H385 H 0.73083 0.90888 0.52443
 C386 C 0.70445 0.92186 0.50704
 H387 H 0.70051 0.93337 0.51919
 C388 C 0.71543 0.89219 0.47643
 H389 H 0.71995 0.88086 0.46439
 C390 C 0.69824 0.90573 0.47280
 H391 H 0.68945 0.90464 0.45807
 N392 N 0.72652 0.89340 0.49493
 C393 C 0.76016 0.84312 0.52866
 H394 H 0.77458 0.84229 0.51937
 C395 C 0.75715 0.82925 0.54567
 H396 H 0.76931 0.81773 0.54959
 C397 C 0.72650 0.85890 0.53476
 H398 H 0.71444 0.87023 0.53027
 C399 C 0.72285 0.84532 0.55189
 H400 H 0.70809 0.84638 0.56066
 Zn401 Zn 0.75019 0.87559 0.50008
 N402 N 0.74503 0.85773 0.52369
 C403 C 0.78493 0.89226 0.52376
 N404 N 0.77383 0.89345 0.50526
 C405 C 0.77880 0.90809 0.49018
 C406 C 0.79585 0.92196 0.49318
 C407 C 0.80210 0.90584 0.52740
 C408 C 0.74028 0.84311 0.47146
 C409 C 0.74330 0.82926 0.45442
 C410 C 0.77756 0.84543 0.44820
 C411 C 0.77391 0.85898 0.46536
 N412 N 0.75538 0.85776 0.47645
 H413 H 0.78045 0.88091 0.53578
 H414 H 0.76948 0.90893 0.47578
 H415 H 0.79976 0.93349 0.48105
 H416 H 0.81091 0.90476 0.54212
 H417 H 0.72587 0.84225 0.48076
 H418 H 0.73115 0.81773 0.45049
 H419 H 0.79230 0.84653 0.43941
 H420 H 0.78594 0.87034 0.46986
 C421 C 0.73834 0.83041 0.55742
 C422 C 0.69268 0.92065 0.48827
 C423 C 0.76209 0.83048 0.44265
 C424 C 0.80763 0.92078 0.51194
 C425 C 0.00968 0.22182 0.40744
 H426 H 0.02409 0.23116 0.40830
 C427 C 0.00667 0.20478 0.42129
 H428 H 0.01881 0.20090 0.43283
 C429 C -0.02391 0.21562 0.39157
 H430 H -0.03594 0.22008 0.38021
 C431 C -0.02756 0.19847 0.40513
 H432 H -0.04229 0.18964 0.40402
 N433 N -0.00541 0.22675 0.39279
 C434 C 0.02846 0.26031 0.34257
 H435 H 0.01915 0.27472 0.34170
 C436 C 0.04554 0.25728 0.32876
 H437 H 0.04948 0.26942 0.31724
 C438 C 0.03456 0.22670 0.35842
 H439 H 0.03004 0.21466 0.36975
 C440 C 0.05175 0.22304 0.34490
 H441 H 0.06054 0.20829 0.34601
 Zn442 Zn -0.00023 0.25038 0.37496
 N443 N 0.02346 0.24521 0.35719
 C444 C 0.02339 0.28518 0.39161
 N445 N 0.00487 0.27407 0.39277
 C446 C -0.01028 0.27904 0.40735
 C447 C -0.00732 0.29610 0.42120
 C448 C 0.02699 0.30236 0.40517
 C449 C -0.02877 0.24034 0.34248
 C450 C -0.04581 0.24328 0.32860
 C451 C -0.05215 0.27756 0.34466
 C452 C -0.03499 0.27398 0.35825
 N453 N -0.02386 0.25548 0.35708
 H454 H 0.03546 0.28069 0.38030
 H455 H -0.02469 0.26971 0.40816
 H456 H -0.01950 0.30001 0.43269
 H457 H 0.04174 0.31117 0.40413
 H458 H -0.01943 0.22594 0.34167
 H459 H -0.04969 0.23110 0.31710
 H460 H -0.06098 0.29229 0.34571
 H461 H -0.03054 0.28605 0.36957
 C462 C 0.05731 0.23850 0.32998
 C463 C -0.01210 0.19298 0.42007
 C464 C -0.05763 0.26205 0.32975
 C465 C 0.01147 0.30789 0.42006
 C466 C -0.00985 0.72118 0.09205
 H467 H -0.02425 0.73052 0.09125
 C468 C -0.00692 0.70411 0.07821
 H469 H -0.01911 0.70020 0.06673
 C470 C 0.02382 0.71501 0.10778
 H471 H 0.03590 0.71950 0.11907
 C472 C 0.02739 0.69782 0.09422
 H473 H 0.04212 0.68900 0.09526
 N474 N 0.00532 0.72614 0.10662
 C475 C -0.02825 0.75988 0.15696
 H476 H -0.01889 0.77427 0.15777
 C477 C -0.04527 0.75693 0.17086
 H478 H -0.04912 0.76911 0.18238
 C479 C -0.03453 0.72625 0.14118
 H480 H -0.03011 0.71418 0.12984
 C481 C -0.05167 0.72267 0.15479
 H482 H -0.06052 0.70795 0.15374
 Zn483 Zn 0.00025 0.74983 0.12445
 N484 N -0.02337 0.74474 0.14234
 C485 C -0.02340 0.78462 0.10789
 N486 N -0.00490 0.77348 0.10663
 C487 C 0.01019 0.77842 0.09198
 C488 C 0.00719 0.79548 0.07816
 C489 C -0.02703 0.80180 0.09435
 C490 C 0.02893 0.73985 0.15682
 C491 C 0.04600 0.74285 0.17064
 C492 C 0.05228 0.77710 0.15452
 C493 C 0.03509 0.77346 0.14099
 N494 N 0.02396 0.75496 0.14221
 H495 H -0.03542 0.78015 0.11925
 H496 H 0.02458 0.76907 0.09110
 H497 H 0.01933 0.79937 0.06662
 H498 H -0.04175 0.81063 0.09548
 H499 H 0.01959 0.72545 0.15768
 H500 H 0.04991 0.73070 0.18216
 H501 H 0.06109 0.79183 0.15343
 H502 H 0.03060 0.78551 0.12966
 C503 C -0.05711 0.73818 0.16972
 C504 C 0.01186 0.69230 0.07935
 C505 C 0.05780 0.76162 0.16944
 C506 C -0.01157 0.80730 0.07941
 C507 C 0.48979 0.22112 0.59299
 H508 H 0.47537 0.23043 0.59214
 C509 C 0.49281 0.20406 0.57915
 H510 H 0.48066 0.20013 0.56762
 C511 C 0.52341 0.21501 0.60883
 H512 H 0.53545 0.21951 0.62016
 C513 C 0.52707 0.19784 0.59527
 H514 H 0.54182 0.18904 0.59636
 N515 N 0.50489 0.22610 0.60762
 C516 C 0.47105 0.25973 0.65784
 H517 H 0.48036 0.27415 0.65869
 C518 C 0.45398 0.25672 0.67167
 H519 H 0.45005 0.26889 0.68317
 C520 C 0.46495 0.22608 0.64202
 H521 H 0.46946 0.21403 0.63070
 C522 C 0.44776 0.22244 0.65556
 H523 H 0.43896 0.20769 0.65447
 Zn524 Zn 0.49972 0.24976 0.62543
 N525 N 0.47604 0.24461 0.64323
 C526 C 0.47605 0.28450 0.60878
 N527 N 0.49457 0.27340 0.60760
 C528 C 0.50970 0.27836 0.59300
 C529 C 0.50670 0.29540 0.57914
 C530 C 0.47242 0.30165 0.59522
 C531 C 0.52832 0.23984 0.65788
 C532 C 0.54538 0.24284 0.67172
 C533 C 0.55165 0.27710 0.65561
 C534 C 0.53447 0.27346 0.64206
 N535 N 0.52336 0.25494 0.64327
 H536 H 0.46399 0.28002 0.62011
 H537 H 0.52411 0.26905 0.59217
 H538 H 0.51887 0.29931 0.56763
 H539 H 0.45767 0.31045 0.59628
 H540 H 0.51900 0.22543 0.65873
 H541 H 0.54930 0.23069 0.68323
 H542 H 0.56046 0.29184 0.65452
 H543 H 0.52999 0.28550 0.63073
 C544 C 0.44221 0.23793 0.67047
 C545 C 0.51160 0.19229 0.58035
 C546 C 0.55718 0.26162 0.67053
 C547 C 0.48791 0.30717 0.58031
 C548 C 0.50987 0.72184 0.90763
 H549 H 0.52427 0.73118 0.90846
 C550 C 0.50692 0.70478 0.92148
 H551 H 0.51910 0.70089 0.93297
 C552 C 0.47622 0.71564 0.89187
 H553 H 0.46415 0.72011 0.88057
 C554 C 0.47263 0.69846 0.90543
 H555 H 0.45790 0.68963 0.90437
 N556 N 0.49472 0.72678 0.89305
 C557 C 0.52838 0.76043 0.84274
 H558 H 0.51904 0.77482 0.84192
 C559 C 0.54541 0.75745 0.82887
 H560 H 0.54929 0.76961 0.81735
 C561 C 0.53458 0.72681 0.85854
 H562 H 0.53012 0.71476 0.86987
 C563 C 0.55174 0.72319 0.84495
 H564 H 0.56056 0.70846 0.84601
 Zn565 Zn 0.49982 0.75044 0.87522
 N566 N 0.52345 0.74531 0.85736
 C567 C 0.52349 0.78523 0.89182
 N568 N 0.50498 0.77410 0.89304
 C569 C 0.48988 0.77906 0.90768
 C570 C 0.49289 0.79612 0.92153
 C571 C 0.52713 0.80240 0.90537
 C572 C 0.47116 0.74042 0.84283
 C573 C 0.45409 0.74339 0.82901
 C574 C 0.44782 0.77766 0.84512
 C575 C 0.46501 0.77405 0.85866
 N576 N 0.47613 0.75555 0.85744
 H577 H 0.53552 0.78075 0.88047
 H578 H 0.47548 0.76972 0.90854
 H579 H 0.48074 0.80002 0.93306
 H580 H 0.54186 0.81122 0.90427
 H581 H 0.48049 0.72602 0.84198
 H582 H 0.45018 0.73123 0.81750
 H583 H 0.43900 0.79239 0.84621
 H584 H 0.46950 0.78611 0.86998
 C585 C 0.55722 0.73868 0.83003
 C586 C 0.48814 0.69296 0.92031
 C587 C 0.44229 0.76217 0.83021
 C588 C 0.51166 0.80792 0.92032
 C589 C 0.14275 0.23590 0.24710
 C590 C 0.13938 0.22224 0.26428
 C591 C 0.15318 0.20517 0.26767
 C592 C 0.17029 0.20173 0.25395
 C593 C 0.17383 0.21537 0.23661
 C594 C 0.15984 0.23251 0.23336
 C595 C 0.12176 0.22575 0.27841
 C596 C 0.10700 0.22868 0.29023
 C597 C 0.08972 0.23210 0.30406
 C598 C 0.07495 0.23502 0.31587
 H599 H 0.13215 0.24917 0.24433
 H600 H 0.15072 0.19450 0.28093
 H601 H 0.18071 0.18840 0.25696
 H602 H 0.16206 0.24332 0.22019
 C603 C 0.64263 0.73638 0.74708
 C604 C 0.63918 0.72261 0.76415
 C605 C 0.65288 0.70544 0.76742
 C606 C 0.66998 0.70201 0.75369
 C607 C 0.67361 0.71577 0.73645
 C608 C 0.65972 0.73301 0.73332
 C609 C 0.62157 0.72610 0.77829
 C610 C 0.60683 0.72900 0.79014
 C611 C 0.58956 0.73238 0.80401
 C612 C 0.57482 0.73526 0.81587
 H613 H 0.63212 0.74974 0.74441
 H614 H 0.65034 0.69468 0.78058
 H615 H 0.68032 0.68859 0.75659
 H616 H 0.66202 0.74391 0.72025
 C617 C 0.35684 0.76443 0.74734
 C618 C 0.36025 0.77818 0.76445
 C619 C 0.34649 0.79530 0.76777
 C620 C 0.32938 0.79870 0.75405
 C621 C 0.32580 0.78497 0.73677
 C622 C 0.33975 0.76779 0.73359
 C623 C 0.37786 0.77471 0.77858
 C624 C 0.39262 0.77182 0.79041
 C625 C 0.40990 0.76845 0.80426
 C626 C 0.42466 0.76558 0.81609
 H627 H 0.36740 0.75112 0.74462
 H628 H 0.34899 0.80604 0.78097
 H629 H 0.31899 0.81208 0.75700
 H630 H 0.33749 0.75690 0.72047
 C631 C -0.14298 0.26415 0.24677
 C632 C -0.13961 0.27788 0.26388
 C633 C -0.15340 0.29497 0.26719
 C634 C -0.17052 0.29834 0.25348
 C635 C -0.17414 0.28461 0.23613
 C636 C -0.16007 0.26744 0.23301
 C637 C -0.12200 0.27446 0.27802
 C638 C -0.10725 0.27160 0.28987
 C639 C -0.08998 0.26826 0.30374
 C640 C -0.07523 0.26542 0.31560
 H641 H -0.13238 0.25086 0.24406
 H642 H -0.15093 0.30570 0.28040
 H643 H -0.18086 0.31173 0.25655
 H644 H -0.16217 0.25647 0.21993
 C645 C -0.14240 0.73618 0.25280
 C646 C -0.13904 0.72240 0.23570
 C647 C -0.15283 0.70529 0.23242
 C648 C -0.16994 0.70195 0.24616
 C649 C -0.17348 0.71570 0.26341
 C650 C -0.15950 0.73287 0.26657
 C651 C -0.12143 0.72582 0.22154
 C652 C -0.10669 0.72866 0.20968
 C653 C -0.08943 0.73197 0.19578
 C654 C -0.07470 0.73479 0.18390
 H655 H -0.13182 0.74948 0.25549
 H656 H -0.15037 0.69453 0.21923
 H657 H -0.18036 0.68858 0.24323
 H658 H -0.16172 0.74378 0.27966
 C659 C 0.35662 0.23558 0.75319
 C660 C 0.36004 0.22186 0.73608
 C661 C 0.34626 0.20477 0.73270
 C662 C 0.32911 0.20136 0.74637
 C663 C 0.32543 0.21506 0.76372
 C664 C 0.33949 0.23225 0.76690
 C665 C 0.37769 0.22532 0.72199
 C666 C 0.39248 0.22821 0.71019
 C667 C 0.40979 0.23160 0.69638
 C668 C 0.42457 0.23449 0.68457
 H669 H 0.36720 0.24887 0.75594
 H670 H 0.34878 0.19405 0.71949
 H671 H 0.31879 0.18796 0.74326
 H672 H 0.33734 0.24320 0.77999
 C673 C 0.64277 0.26399 0.75326
 C674 C 0.63933 0.27772 0.73616
 C675 C 0.65309 0.29484 0.73280
 C676 C 0.67023 0.29825 0.74648
 C677 C 0.67386 0.28454 0.76375
 C678 C 0.65990 0.26736 0.76697
 C679 C 0.62168 0.27424 0.72207
 C680 C 0.60690 0.27133 0.71027
 C681 C 0.58959 0.26794 0.69644
 C682 C 0.57482 0.26506 0.68463
 H683 H 0.63221 0.25068 0.75601
 H684 H 0.65056 0.30557 0.71961
 H685 H 0.68062 0.31163 0.74351
 H686 H 0.66219 0.25649 0.78007
 C687 C 0.14310 0.76406 0.25244
 C688 C 0.13975 0.77777 0.23531
 C689 C 0.15353 0.79489 0.23200
 C690 C 0.17061 0.79831 0.24576
 C691 C 0.17413 0.78462 0.26307
 C692 C 0.16016 0.76744 0.26624
 C693 C 0.12216 0.77429 0.22114
 C694 C 0.10743 0.77138 0.20929
 C695 C 0.09017 0.76797 0.19541
 C696 C 0.07542 0.76507 0.18357
 H697 H 0.13252 0.75076 0.25515
 H698 H 0.15108 0.80560 0.21878
 H699 H 0.18102 0.81167 0.24283
 H700 H 0.16238 0.75659 0.27936
 C701 C 0.26765 0.15284 0.20523
 C702 C 0.26433 0.13913 0.22237
 C703 C 0.24723 0.14259 0.23611
 C704 C 0.23348 0.15969 0.23275
 C705 C 0.23665 0.17359 0.21555
 C706 C 0.25392 0.16995 0.20182
 C707 C 0.27846 0.12150 0.22584
 C708 C 0.29030 0.10674 0.22874
 C709 C 0.30415 0.08945 0.23212
 C710 C 0.31598 0.07468 0.23500
 H711 H 0.28084 0.15030 0.19449
 H712 H 0.24452 0.13206 0.24943
 H713 H 0.22037 0.16198 0.24363
 H714 H 0.25687 0.18030 0.18844
 C715 C 0.76722 0.65305 0.70484
 C716 C 0.76384 0.63927 0.72191
 C717 C 0.74673 0.64272 0.73564
 C718 C 0.73303 0.65987 0.73233
 C719 C 0.73628 0.67385 0.71521
 C720 C 0.75356 0.67022 0.70149
 C721 C 0.77793 0.62160 0.72534
 C722 C 0.78973 0.60681 0.72823
 C723 C 0.80355 0.58950 0.73162
 C724 C 0.81536 0.57472 0.73452
 H725 H 0.78043 0.65053 0.69411
 H726 H 0.74396 0.63214 0.74891
 H727 H 0.71991 0.66216 0.74321
 H728 H 0.75655 0.68063 0.68816
 C729 C 0.76708 0.34632 0.79514
 C730 C 0.76370 0.36007 0.77807
 C731 C 0.74655 0.35664 0.76440
 C732 C 0.73281 0.33952 0.76775
 C733 C 0.73600 0.32548 0.78491
 C734 C 0.75339 0.32917 0.79857
 C735 C 0.77782 0.37771 0.77458
 C736 C 0.78964 0.39248 0.77166
 C737 C 0.80348 0.40978 0.76826
 C738 C 0.81530 0.42456 0.76536
 H739 H 0.78032 0.34884 0.80583
 H740 H 0.74379 0.36720 0.75113
 H741 H 0.71970 0.33737 0.75683
 H742 H 0.75651 0.31886 0.81195
 C743 C 0.24687 -0.14333 0.26401
 C744 C 0.26394 -0.13988 0.27778
 C745 C 0.26721 -0.15360 0.29490
 C746 C 0.25349 -0.17073 0.29827
 C747 C 0.23618 -0.17444 0.28452
 C748 C 0.23310 -0.16043 0.26731
 C749 C 0.27810 -0.12227 0.27434
 C750 C 0.28996 -0.10751 0.27147
 C751 C 0.30385 -0.09025 0.26812
 C752 C 0.31572 -0.07550 0.26527
 H753 H 0.24420 -0.13279 0.25070
 H754 H 0.28039 -0.15107 0.30566
 H755 H 0.25652 -0.18102 0.31170
 H756 H 0.22006 -0.16260 0.25632
 C757 C 0.25318 -0.14289 0.73588
 C758 C 0.23609 -0.13946 0.72214
 C759 C 0.23274 -0.15325 0.70507
 C760 C 0.24641 -0.17041 0.70170
 C761 C 0.26375 -0.17409 0.71542
 C762 C 0.26690 -0.16003 0.73259
 C763 C 0.22199 -0.12179 0.72555
 C764 C 0.21019 -0.10700 0.72840
 C765 C 0.19635 -0.08968 0.73173
 C766 C 0.18453 -0.07490 0.73458
 H767 H 0.25591 -0.13230 0.74915
 H768 H 0.21954 -0.15073 0.69433
 H769 H 0.24332 -0.18074 0.68832
 H770 H 0.27997 -0.16218 0.74355
 C771 C 0.73285 0.34676 0.20527
 C772 C 0.73617 0.36055 0.22235
 C773 C 0.75328 0.35717 0.23610
 C774 C 0.76705 0.34006 0.23278
 C775 C 0.76387 0.32608 0.21563
 C776 C 0.74659 0.32964 0.20191
 C777 C 0.72202 0.37817 0.22578
 C778 C 0.71016 0.39292 0.22864
 C779 C 0.69627 0.41019 0.23200
 C780 C 0.68441 0.42494 0.23489
 H781 H 0.71965 0.34923 0.19453
 H782 H 0.75599 0.36775 0.24938
 H783 H 0.78016 0.33782 0.24366
 H784 H 0.74365 0.31922 0.18856
 C785 C 0.73264 0.65337 0.29503
 C786 C 0.73596 0.63955 0.27796
 C787 C 0.75309 0.64293 0.26423
 C788 C 0.76686 0.66004 0.26753
 C789 C 0.76367 0.67404 0.28466
 C790 C 0.74638 0.67049 0.29838
 C791 C 0.72181 0.62193 0.27454
 C792 C 0.70996 0.60717 0.27168
 C793 C 0.69610 0.58987 0.26833
 C794 C 0.68426 0.57509 0.26547
 H795 H 0.71943 0.65090 0.30577
 H796 H 0.75581 0.63232 0.25096
 H797 H 0.77998 0.66227 0.25665
 H798 H 0.74343 0.68093 0.31171
 C799 C 0.25352 0.14322 0.76365
 C800 C 0.23639 0.13980 0.77734
 C801 C 0.23303 0.15356 0.79442
 C802 C 0.24674 0.17069 0.79785
 C803 C 0.26412 0.17436 0.78418
 C804 C 0.26728 0.16033 0.76700
 C805 C 0.22225 0.12217 0.77386
 C806 C 0.21041 0.10740 0.77097
 C807 C 0.19653 0.09012 0.76761
 C808 C 0.18468 0.07536 0.76475
 H809 H 0.25626 0.13265 0.75036
 H810 H 0.21980 0.15105 0.80513
 H811 H 0.24364 0.18100 0.81125
 H812 H 0.28038 0.16247 0.75607
 C813 C 0.20505 0.26719 0.15293
 C814 C 0.22216 0.26382 0.13917
 C815 C 0.23591 0.24672 0.14261
 C816 C 0.23260 0.23302 0.15974
 C817 C 0.21544 0.23626 0.17370
 C818 C 0.20170 0.25352 0.17008
 C819 C 0.22559 0.27791 0.12153
 C820 C 0.22845 0.28972 0.10676
 C821 C 0.23180 0.30356 0.08948
 C822 C 0.23465 0.31539 0.07472
 H823 H 0.19430 0.28039 0.15041
 H824 H 0.24921 0.24397 0.13205
 H825 H 0.24350 0.21992 0.16203
 H826 H 0.18834 0.25651 0.18047
 C827 C 0.73585 0.74733 0.64262
 C828 C 0.72219 0.76453 0.63928
 C829 C 0.70513 0.76793 0.65308
 C830 C 0.70171 0.75420 0.67016
 C831 C 0.71535 0.73683 0.67368
 C832 C 0.73248 0.73357 0.65969
 C833 C 0.72567 0.77867 0.62169
 C834 C 0.72858 0.79051 0.60696
 C835 C 0.73199 0.80439 0.58972
 C836 C 0.73489 0.81624 0.57499
 H837 H 0.74912 0.74455 0.63202
 H838 H 0.69445 0.78120 0.65064
 H839 H 0.68838 0.75721 0.68059
 H840 H 0.74330 0.72039 0.66189
 C841 C 0.79526 0.76799 0.34689
 C842 C 0.77816 0.76466 0.36066
 C843 C 0.76441 0.74754 0.35728
 C844 C 0.76773 0.73377 0.34020
 C845 C 0.78489 0.73695 0.32623
 C846 C 0.79862 0.75424 0.32979
 C847 C 0.77472 0.77882 0.37826
 C848 C 0.77183 0.79067 0.39301
 C849 C 0.76843 0.80453 0.41028
 C850 C 0.76554 0.81636 0.42503
 H851 H 0.80601 0.78120 0.34936
 H852 H 0.75111 0.74482 0.36785
 H853 H 0.75684 0.72064 0.33796
 H854 H 0.81198 0.75719 0.31938
 C855 C 0.26396 0.24681 -0.14320
 C856 C 0.27769 0.26394 -0.13976
 C857 C 0.29482 0.26731 -0.15349
 C858 C 0.29823 0.25360 -0.17061
 C859 C 0.28451 0.23630 -0.17423
 C860 C 0.26732 0.23308 -0.16031
 C861 C 0.27420 0.27807 -0.12214
 C862 C 0.27130 0.28989 -0.10738
 C863 C 0.26790 0.30373 -0.09009
 C864 C 0.26502 0.31555 -0.07533
 H865 H 0.25064 0.24407 -0.13266
 H866 H 0.30555 0.28052 -0.15096
 H867 H 0.31161 0.25658 -0.18098
 H868 H 0.25644 0.21995 -0.16259
 C869 C 0.70545 0.23245 -0.15289
 C870 C 0.72258 0.23582 -0.13916
 C871 C 0.73629 0.25297 -0.14258
 C872 C 0.73290 0.26672 -0.15965
 C873 C 0.71571 0.26348 -0.17358
 C874 C 0.70202 0.24616 -0.16998
 C875 C 0.72609 0.22168 -0.12158
 C876 C 0.72901 0.20983 -0.10685
 C877 C 0.73242 0.19596 -0.08961
 C878 C 0.73532 0.18411 -0.07489
 H879 H 0.69474 0.21921 -0.15039
 H880 H 0.74960 0.25573 -0.13204
 H881 H 0.74375 0.27986 -0.16192
 H882 H 0.68864 0.24318 -0.18035
 C883 C 0.20520 0.73268 0.34673
 C884 C 0.22224 0.73608 0.36056
 C885 C 0.23598 0.75323 0.35719
 C886 C 0.23270 0.76693 0.34006
 C887 C 0.21560 0.76367 0.32603
 C888 C 0.20188 0.74636 0.32958
 C889 C 0.22563 0.72199 0.37821
 C890 C 0.22847 0.71018 0.39298
 C891 C 0.23179 0.69635 0.41026
 C892 C 0.23462 0.68452 0.42502
 H893 H 0.19447 0.71946 0.34919
 H894 H 0.24922 0.75600 0.36781
 H895 H 0.24357 0.78007 0.33783
 H896 H 0.18857 0.74335 0.31913
 C897 C 0.26362 0.75335 0.64290
 C898 C 0.27734 0.73620 0.63950
 C899 C 0.29443 0.73284 0.65327
 C900 C 0.29782 0.74656 0.67039
 C901 C 0.28412 0.76387 0.67396
 C902 C 0.26697 0.76710 0.66000
 C903 C 0.27388 0.72207 0.62188
 C904 C 0.27100 0.71024 0.60713
 C905 C 0.26763 0.69638 0.58985
 C906 C 0.26477 0.68454 0.57510
 H907 H 0.25033 0.75610 0.63233
 H908 H 0.30515 0.71961 0.65078
 H909 H 0.31117 0.74358 0.68079
 H910 H 0.25610 0.78024 0.66225
 C911 C 0.76468 0.25268 0.14291
 C912 C 0.77843 0.23556 0.13953
 C913 C 0.79552 0.23224 0.15332
 C914 C 0.79886 0.24597 0.17043
 C915 C 0.78512 0.26325 0.17399
 C916 C 0.76798 0.26644 0.16001
 C917 C 0.77501 0.22142 0.12191
 C918 C 0.77214 0.20959 0.10715
 C919 C 0.76878 0.19574 0.08987
 C920 C 0.76591 0.18392 0.07510
 H921 H 0.75139 0.25540 0.13233
 H922 H 0.80627 0.21903 0.15084
 H923 H 0.81221 0.24302 0.18085
 H924 H 0.75709 0.27955 0.16225
 C925 C 0.48572 0.39252 0.49739
 C926 C 0.47199 0.38917 0.51451
 C927 C 0.45492 0.40299 0.51786
 C928 C 0.45157 0.42011 0.50415
 C929 C 0.46529 0.42365 0.48686
 C930 C 0.48242 0.40963 0.48365
 C931 C 0.47540 0.37154 0.52863
 C932 C 0.47826 0.35678 0.54046
 C933 C 0.48161 0.33952 0.55432
 C934 C 0.48447 0.32477 0.56616
 H935 H 0.49899 0.38191 0.49465
 H936 H 0.44419 0.40054 0.53107
 H937 H 0.43824 0.43056 0.50712
 H938 H 0.49329 0.41185 0.47053
 C939 C -0.01384 0.89292 -0.00324
 C940 C -0.02760 0.88947 0.01385
 C941 C -0.04472 0.90322 0.01720
 C942 C -0.04810 0.92037 0.00353
 C943 C -0.03436 0.92400 -0.01372
 C944 C -0.01718 0.91006 -0.01693
 C945 C -0.02415 0.87181 0.02792
 C946 C -0.02126 0.85702 0.03971
 C947 C -0.01788 0.83972 0.05351
 C948 C -0.01500 0.82494 0.06531
 H949 H -0.00053 0.88237 -0.00598
 H950 H -0.05547 0.90069 0.03038
 H951 H -0.06148 0.93076 0.00650
 H952 H -0.00628 0.91235 -0.03002
 C953 C 0.01397 0.60679 -0.00352
 C954 C 0.02769 0.61018 0.01358
 C955 C 0.04476 0.59639 0.01692
 C956 C 0.04814 0.57924 0.00323
 C957 C 0.03443 0.57560 -0.01412
 C958 C 0.01727 0.58967 -0.01727
 C959 C 0.02426 0.62782 0.02770
 C960 C 0.02140 0.64260 0.03953
 C961 C 0.01807 0.65989 0.05338
 C962 C 0.01523 0.67467 0.06522
 H963 H 0.00069 0.61739 -0.00625
 H964 H 0.05549 0.59888 0.03013
 H965 H 0.06152 0.56890 0.00632
 H966 H 0.00631 0.58755 -0.03034
 C967 C 0.54499 0.09656 0.51787
 C968 C 0.52784 0.11028 0.51455
 C969 C 0.51411 0.10684 0.49744
 C970 C 0.51751 0.08975 0.48368
 C971 C 0.53472 0.07584 0.48687
 C972 C 0.54843 0.07946 0.50414
 C973 C 0.52432 0.12789 0.52869
 C974 C 0.52139 0.14264 0.54052
 C975 C 0.51797 0.15992 0.55438
 C976 C 0.51506 0.17467 0.56621
 H977 H 0.55572 0.09909 0.53107
 H978 H 0.50078 0.11737 0.49472
 H979 H 0.50664 0.08746 0.47057
 H980 H 0.56183 0.06910 0.50709
 C981 C -0.01431 0.10751 0.50287
 C982 C -0.02810 0.11094 0.48581
 C983 C -0.04523 0.09717 0.48251
 C984 C -0.04859 0.08004 0.49620
 C985 C -0.03482 0.07644 0.51343
 C986 C -0.01763 0.09040 0.51660
 C987 C -0.02467 0.12857 0.47170
 C988 C -0.02180 0.14334 0.45988
 C989 C -0.01843 0.16062 0.44604
 C990 C -0.01555 0.17537 0.43421
 H991 H -0.00100 0.11808 0.50558
 H992 H -0.05600 0.09968 0.46934
 H993 H -0.06197 0.06965 0.49327
 H994 H -0.00672 0.08813 0.52967
 C995 C 0.48597 0.60745 1.00310
 C996 C 0.47225 0.61085 0.98598
 C997 C 0.45516 0.59705 0.98261
 C998 C 0.45178 0.57991 0.99629
 C999 C 0.46548 0.57633 1.01357
 C1000 C 0.48263 0.59032 1.01681
 C1001 C 0.47569 0.62849 0.97189
 C1002 C 0.47856 0.64327 0.96008
 C1003 C 0.48191 0.66056 0.94625
 C1004 C 0.48476 0.67533 0.93443
 H1005 H 0.49925 0.61804 1.00586
 H1006 H 0.44444 0.59953 0.96940
 H1007 H 0.43843 0.56948 0.99330
 H1008 H 0.49349 0.58807 1.02994
 C1009 C 0.51415 0.89330 1.00329
 C1010 C 0.52784 0.88991 0.98616
 C1011 C 0.54495 0.90367 0.98282
 C1012 C 0.54840 0.92077 0.99655
 C1013 C 0.53473 0.92440 1.01393
 C1014 C 0.51752 0.91037 1.01707
 C1015 C 0.52434 0.87231 0.97200
 C1016 C 0.52142 0.85756 0.96016
 C1017 C 0.51801 0.84029 0.94629
 C1018 C 0.51511 0.82554 0.93445
 H1019 H 0.50084 0.88273 1.00601
 H1020 H 0.55565 0.90119 0.96959
 H1021 H 0.56181 0.93108 0.99347
 H1022 H 0.50659 0.91248 1.03017
 C1023 C 0.01377 0.39318 0.50313
 C1024 C 0.02746 0.38985 0.48598
 C1025 C 0.04453 0.40366 0.48265
 C1026 C 0.04794 0.42076 0.49640
 C1027 C 0.03427 0.42434 0.51378
 C1028 C 0.01710 0.41025 0.51692
 C1029 C 0.02400 0.37225 0.47182
 C1030 C 0.02112 0.35751 0.45995
 C1031 C 0.01775 0.34025 0.44607
 C1032 C 0.01488 0.32550 0.43421
 H1033 H 0.00050 0.38257 0.50585
 H1034 H 0.05523 0.40122 0.46941
 H1035 H 0.06132 0.43111 0.49331
 H1036 H 0.00617 0.41233 0.53003
 C1037 C 0.40301 0.51757 0.45541
 C1038 C 0.38922 0.51425 0.47249
 C1039 C 0.39260 0.49714 0.48622
 C1040 C 0.40970 0.48337 0.48289
 C1041 C 0.42368 0.48654 0.46575
 C1042 C 0.42012 0.50383 0.45204
 C1043 C 0.37160 0.52840 0.47592
 C1044 C 0.35684 0.54025 0.47877
 C1045 C 0.33956 0.55413 0.48210
 C1046 C 0.32479 0.56597 0.48495
 H1047 H 0.40054 0.53078 0.44468
 H1048 H 0.38201 0.49443 0.49949
 H1049 H 0.41193 0.47025 0.49376
 H1050 H 0.43054 0.50677 0.43869
 C1051 C 0.90394 0.01721 -0.04513
 C1052 C 0.89017 0.01384 -0.02806
 C1053 C 0.89358 -0.00329 -0.01438
 C1054 C 0.91070 -0.01703 -0.01772
 C1055 C 0.92475 -0.01385 -0.03488
 C1056 C 0.92108 0.00352 -0.04855
 C1057 C 0.87252 0.02795 -0.02460
 C1058 C 0.85775 0.03977 -0.02171
 C1059 C 0.84046 0.05363 -0.01832
 C1060 C 0.82570 0.06547 -0.01541
 H1061 H 0.90143 0.03043 -0.05583
 H1062 H 0.88300 -0.00604 -0.00111
 H1063 H 0.91284 -0.03013 -0.00679
 H1064 H 0.93141 0.00663 -0.06193
 C1065 C 0.59724 0.01720 0.04484
 C1066 C 0.61096 0.01389 0.02770
 C1067 C 0.60748 -0.00319 0.01393
 C1068 C 0.59035 -0.01692 0.01726
 C1069 C 0.57643 -0.01374 0.03446
 C1070 C 0.58009 0.00350 0.04822
 C1071 C 0.62861 0.02800 0.02425
 C1072 C 0.64340 0.03982 0.02137
 C1073 C 0.66071 0.05366 0.01801
 C1074 C 0.67549 0.06548 0.01515
 H1075 H 0.59979 0.03038 0.05561
 H1076 H 0.61801 -0.00590 0.00061
 H1077 H 0.58803 -0.03000 0.00636
 H1078 H 0.56973 0.00644 0.06161
 C1079 C 0.10680 0.49699 0.51378
 C1080 C 0.11022 0.51408 0.52755
 C1081 C 0.09648 0.51735 0.54468
 C1082 C 0.07938 0.50359 0.54806
 C1083 C 0.07578 0.48633 0.53430
 C1084 C 0.08971 0.48320 0.51711
 C1085 C 0.12782 0.52825 0.52411
 C1086 C 0.14257 0.54012 0.52124
 C1087 C 0.15984 0.55402 0.51790
 C1088 C 0.17459 0.56589 0.51505
 H1089 H 0.11734 0.49431 0.50046
 H1090 H 0.09898 0.53054 0.55544
 H1091 H 0.06900 0.50650 0.56144
 H1092 H 0.08744 0.47010 0.50620
 C1093 C 0.10694 0.50296 -0.01402
 C1094 C 0.11032 0.48582 -0.02774
 C1095 C 0.09654 0.48249 -0.04483
 C1096 C 0.07944 0.49623 -0.04821
 C1097 C 0.07588 0.51354 -0.03451
 C1098 C 0.08985 0.51674 -0.01736
 C1099 C 0.12793 0.47167 -0.02430
 C1100 C 0.14268 0.45981 -0.02143
 C1101 C 0.15995 0.44591 -0.01810
 C1102 C 0.17469 0.43405 -0.01527
 H1103 H 0.11751 0.50569 -0.00074
 H1104 H 0.09902 0.46927 -0.05555
 H1105 H 0.06903 0.49328 -0.06156
 H1106 H 0.08761 0.52987 -0.00649
 C1107 C 0.59670 0.98287 0.45518
 C1108 C 0.61045 0.98625 0.47226
 C1109 C 0.60698 1.00334 0.48599
 C1110 C 0.58983 1.01704 0.48269
 C1111 C 0.57579 1.01386 0.46552
 C1112 C 0.57952 0.99652 0.45180
 C1113 C 0.62813 0.97217 0.47569
 C1114 C 0.64293 0.96038 0.47857
 C1115 C 0.66025 0.94656 0.48195
 C1116 C 0.67503 0.93476 0.48484
 H1117 H 0.59924 0.96967 0.44444
 H1118 H 0.61755 1.00609 0.49928
 H1119 H 0.58764 1.03010 0.49366
 H1120 H 0.56920 0.99341 0.43840
 C1121 C 0.89313 1.00371 0.51428
 C1122 C 0.88973 0.98659 0.52797
 C1123 C 0.90352 0.98324 0.54503
 C1124 C 0.92067 0.99694 0.54841
 C1125 C 0.92432 1.01431 0.53473
 C1126 C 0.91024 1.01747 0.51759
 C1127 C 0.87210 0.97245 0.52452
 C1128 C 0.85733 0.96061 0.52162
 C1129 C 0.84003 0.94676 0.51825
 C1130 C 0.82526 0.93492 0.51537
 H1131 H 0.88253 1.00645 0.50101
 H1132 H 0.90103 0.97001 0.55573
 H1133 H 0.93101 0.99385 0.56178
 H1134 H 0.91237 1.03056 0.50665
 C1135 C 0.39273 0.50287 0.01402
 C1136 C 0.38931 0.48573 0.02771
 C1137 C 0.40307 0.48239 0.04481
 C1138 C 0.42019 0.49612 0.04823
 C1139 C 0.42378 0.51343 0.03455
 C1140 C 0.40983 0.51663 0.01739
 C1141 C 0.37169 0.47159 0.02423
 C1142 C 0.35693 0.45974 0.02132
 C1143 C 0.33965 0.44587 0.01793
 C1144 C 0.32488 0.43403 0.01504
 H1145 H 0.38217 0.50560 0.00073
 H1146 H 0.40057 0.46916 0.05552
 H1147 H 0.43058 0.49316 0.06158
 H1148 H 0.41210 0.52977 0.00654
 C1149 C 0.51745 0.45486 0.40335
 C1150 C 0.51415 0.47197 0.38960
 C1151 C 0.49706 0.48575 0.39303
 C1152 C 0.48331 0.48245 0.41013
 C1153 C 0.48648 0.46527 0.42407
 C1154 C 0.50373 0.45151 0.42047
 C1155 C 0.52828 0.47540 0.37199
 C1156 C 0.54011 0.47827 0.35723
 C1157 C 0.55396 0.48165 0.33996
 C1158 C 0.56579 0.48455 0.32521
 H1159 H 0.53064 0.44409 0.40084
 H1160 H 0.49435 0.49906 0.38248
 H1161 H 0.47021 0.49336 0.41240
 H1162 H 0.50667 0.43814 0.43085
 C1163 C 0.01776 -0.04449 0.90288
 C1164 C 0.01440 -0.02739 0.88913
 C1165 C -0.00275 -0.01367 0.89255
 C1166 C -0.01649 -0.01703 0.90965
 C1167 C -0.01326 -0.03420 0.92359
 C1168 C 0.00405 -0.04790 0.91999
 C1169 C 0.02852 -0.02392 0.87152
 C1170 C 0.04035 -0.02103 0.85677
 C1171 C 0.05421 -0.01767 0.83950
 C1172 C 0.06605 -0.01481 0.82475
 H1173 H 0.03099 -0.05521 0.90037
 H1174 H -0.00550 -0.00038 0.88201
 H1175 H -0.02962 -0.00617 0.91192
 H1176 H 0.00704 -0.06126 0.93037
 C1177 C -0.00303 0.01420 0.60714
 C1178 C 0.01412 0.02792 0.61051
 C1179 C 0.01747 0.04502 0.59675
 C1180 C 0.00372 0.04841 0.57967
 C1181 C -0.01361 0.03471 0.57612
 C1182 C -0.01681 0.01755 0.59008
 C1183 C 0.02829 0.02447 0.62809
 C1184 C 0.04016 0.02158 0.64281
 C1185 C 0.05405 0.01822 0.66005
 C1186 C 0.06593 0.01536 0.67477
 H1187 H -0.00576 0.00091 0.61771
 H1188 H 0.03070 0.05574 0.59922
 H1189 H 0.00668 0.06177 0.56928
 H1190 H -0.02996 0.00668 0.58785
 C1191 C 0.49708 0.51405 0.10734
 C1192 C 0.51420 0.52779 0.11079
 C1193 C 0.51755 0.54492 0.09706
 C1194 C 0.50385 0.54831 0.07994
 C1195 C 0.48657 0.53458 0.07632
 C1196 C 0.48335 0.51739 0.09023
 C1197 C 0.52831 0.52432 0.12840
 C1198 C 0.54013 0.52143 0.14316
 C1199 C 0.55396 0.51805 0.16045
 C1200 C 0.56579 0.51517 0.17520
 H1201 H 0.49434 0.50073 0.11787
 H1202 H 0.53076 0.55566 0.09959
 H1203 H 0.50682 0.56169 0.06957
 H1204 H 0.47023 0.50651 0.08795
 C1205 C 0.50318 -0.01448 0.10733
 C1206 C 0.48603 -0.02820 0.11071
 C1207 C 0.48263 -0.04526 0.09689
 C1208 C 0.49631 -0.04860 0.07974
 C1209 C 0.51363 -0.03490 0.07619
 C1210 C 0.51689 -0.01778 0.09020
 C1211 C 0.47193 -0.02479 0.12836
 C1212 C 0.46011 -0.02194 0.14313
 C1213 C 0.44627 -0.01859 0.16042
 C1214 C 0.43443 -0.01572 0.17517
 H1215 H 0.50596 -0.00123 0.11794
 H1216 H 0.46940 -0.05598 0.09936
 H1217 H 0.49331 -0.06192 0.06930
 H1218 H 0.53004 -0.00692 0.08797
 C1219 C 1.00255 0.48541 0.60716
 C1220 C 0.98544 0.47164 0.61056
 C1221 C 0.98209 0.45456 0.59676
 C1222 C 0.99579 0.45123 0.57962
 C1223 C 1.01306 0.46499 0.57604
 C1224 C 1.01627 0.48213 0.59004
 C1225 C 0.97132 0.47506 0.62819
 C1226 C 0.95950 0.47793 0.64296
 C1227 C 0.94566 0.48130 0.66024
 C1228 C 0.93384 0.48419 0.67500
 H1229 H 1.00528 0.49870 0.61775
 H1230 H 0.96889 0.44380 0.59925
 H1231 H 0.99283 0.43788 0.56920
 H1232 H 1.02938 0.49304 0.58779
 C1233 C 0.98210 0.54509 0.90309
 C1234 C 0.98542 0.52795 0.88935
 C1235 C 1.00252 0.51419 0.89278
 C1236 C 1.01627 0.51754 0.90987
 C1237 C 1.01309 0.53473 0.92380
 C1238 C 0.99583 0.54848 0.92020
 C1239 C 0.97128 0.52448 0.87175
 C1240 C 0.95945 0.52156 0.85701
 C1241 C 0.94560 0.51812 0.83974
 C1242 C 0.93378 0.51518 0.82499
 H1243 H 0.96891 0.55584 0.90059
 H1244 H 1.00523 0.50087 0.88223
 H1245 H 1.02937 0.50664 0.91214
 H1246 H 0.99288 0.56186 0.93058
 C1247 C 0.48270 0.04435 0.40336
 C1248 C 0.48611 0.02728 0.38957
 C1249 C 0.50329 0.01360 0.39295
 C1250 C 0.51703 0.01697 0.41006
 C1251 C 0.51375 0.03411 0.42404
 C1252 C 0.49641 0.04777 0.42048
 C1253 C 0.47199 0.02380 0.37196
 C1254 C 0.46016 0.02090 0.35721
 C1255 C 0.44630 0.01752 0.33994
 C1256 C 0.43446 0.01465 0.32519
 H1257 H 0.46945 0.05504 0.40089
 H1258 H 0.50608 0.00033 0.38237
 H1259 H 0.53019 0.00614 0.41229
 H1260 H 0.49339 0.06111 0.43090
   
