data_POSCAR
  _audit_creation_date              2014-09-24
  _audit_creation_method            'ToBaCCo'
  _symmetry_space_group_name_H-M    'P1'
  _symmetry_Int_Tables_number       1
  _symmetry_cell_setting            triclinic
  loop_
  _symmetry_equiv_pos_as_xyz
 x,y,z
_cell_length_a 76.2445
_cell_length_b 76.0648
_cell_length_c 76.2527
_cell_angle_alpha 90.037700
_cell_angle_beta 90.073200
_cell_angle_gamma 90.039700
loop_
  _atom_site_label
  _atom_site_type_symbol
  _atom_site_fract_x
  _atom_site_fract_y
  _atom_site_fract_z
C1 C 0.30791 0.44158 0.92193
 N2 N 0.32278 0.44876 0.92867
 C3 C 0.33093 0.44146 0.94276
 N4 N 0.32395 0.42674 0.95010
 C5 C 0.30905 0.41941 0.94356
 N6 N 0.30114 0.42688 0.92944
 C7 C 0.44348 0.82853 0.44232
 N8 N 0.42931 0.82045 0.44957
 C9 C 0.42146 0.80662 0.44145
 N10 N 0.42796 0.80078 0.42593
 C11 C 0.44225 0.80849 0.41861
 N12 N 0.44987 0.82239 0.42683
 C13 C 0.94230 0.92034 0.80945
 N14 N 0.94906 0.92701 0.82455
 C15 C 0.94135 0.94089 0.83273
 N16 N 0.92661 0.94799 0.82560
 C17 C 0.91979 0.94161 0.81042
 N18 N 0.92771 0.92778 0.80241
 C19 C 0.43979 -0.08119 0.30785
 N20 N 0.44748 -0.07408 0.32232
 C21 C 0.44073 -0.05950 0.33007
 N22 N 0.42604 -0.05203 0.32329
 C23 C 0.41816 -0.05893 0.30886
 N24 N 0.42512 -0.07348 0.30123
 C25 C 0.80643 0.30603 0.32779
 N26 N 0.82097 0.29883 0.32043
 C27 C 0.82831 0.30605 0.30589
 N28 N 0.82099 0.32067 0.29875
 C29 C 0.80645 0.32803 0.30594
 N30 N 0.79927 0.32066 0.32049
 C31 C -0.19213 0.83091 0.80791
 N32 N -0.17746 0.82361 0.80089
 C33 C -0.16996 0.80920 0.80824
 N34 N -0.17728 0.80201 0.82281
 C35 C -0.19203 0.80903 0.83000
 N36 N -0.19930 0.82349 0.82245
 C37 C 0.94364 0.32881 0.44225
 N38 N 0.92924 0.32119 0.44945
 C39 C 0.92226 0.30633 0.44239
 N40 N 0.92981 0.29915 0.42793
 C41 C 0.94424 0.30662 0.42059
 N42 N 0.95104 0.32146 0.42781
 C43 C 0.44172 0.44106 0.83082
 N44 N 0.42714 0.44850 0.82368
 C45 C 0.41968 0.44172 0.80896
 N46 N 0.42687 0.42726 0.80139
 C47 C 0.44141 0.41964 0.80831
 N48 N 0.44874 0.42662 0.82300
 C49 C 0.80886 0.92047 0.94205
 N50 N 0.82302 0.92844 0.94943
 C51 C 0.83015 0.94316 0.94229
 N52 N 0.82275 0.95005 0.92757
 C53 C 0.80865 0.94223 0.91992
 N54 N 0.80186 0.92740 0.92718
 C55 C 0.30836 0.83077 0.30788
 N56 N 0.32285 0.82328 0.30065
 C57 C 0.33000 0.80850 0.30763
 N58 N 0.32251 0.80114 0.32202
 C59 C 0.30800 0.80838 0.32938
 N60 N 0.30105 0.82320 0.32228
 C61 C 0.80677 0.42157 0.44403
 N62 N 0.82166 0.42865 0.45083
 C63 C 0.82908 0.44312 0.44350
 N64 N 0.82148 0.45050 0.42916
 C65 C 0.80657 0.44357 0.42219
 N66 N 0.79933 0.42908 0.42968
 C67 C 0.94255 0.83130 -0.05896
 N68 N 0.92843 0.82319 -0.05165
 C69 C 0.92082 0.80911 -0.05955
 N70 N 0.92751 0.80305 -0.07489
 C71 C 0.94179 0.81073 -0.08230
 N72 N 0.94917 0.82490 -0.07425
 C73 C 0.30646 0.32824 0.80688
 N74 N 0.29966 0.32116 0.82175
 C75 C 0.30734 0.30707 0.82952
 N76 N 0.32210 0.30014 0.82235
 C77 C 0.32903 0.30697 0.80743
 N78 N 0.32113 0.32102 0.79975
 C79 C 0.17056 0.55818 0.55938
 N80 N 0.17716 0.55185 0.57467
 C81 C 0.19155 0.55928 0.58215
 N82 N 0.19919 0.57335 0.57431
 C83 C 0.19270 0.57992 0.55906
 N84 N 0.17841 0.57222 0.55164
 C85 C 0.58001 0.69314 0.05595
 N86 N 0.57239 0.70045 0.07032
 C87 C 0.55750 0.69348 0.07722
 N88 N 0.55029 0.67901 0.06964
 C89 C 0.55774 0.67155 0.05528
 N90 N 0.57262 0.67868 0.04853
 C91 C 0.69335 0.19339 0.67057
 N92 N 0.67836 0.20026 0.67734
 C93 C 0.67074 0.19300 0.69173
 N94 N 0.67819 0.17864 0.69925
 C95 C 0.69324 0.17170 0.69272
 N96 N 0.70074 0.17915 0.67838
 C97 C 1.07815 0.05675 0.19359
 N98 N 1.07024 0.04930 0.17941
 C99 C 1.05568 0.05659 0.17210
 N100 N 1.04904 0.07157 0.17921
 C101 C 1.05677 0.07926 0.19331
 N102 N 1.07132 0.07180 0.20040
 C103 C 0.05879 0.17026 1.05841
 N104 N 0.05099 0.17837 1.07225
 C105 C 0.05863 0.19240 1.08028
 N106 N 0.07418 0.19852 1.07402
 C107 C 0.08208 0.19074 1.06008
 N108 N 0.07440 0.17652 1.05248
 C109 C 0.17003 0.69213 0.69126
 N110 N 0.17756 0.67803 0.69918
 C111 C 0.19187 0.67014 0.69205
 N112 N 0.19872 0.67661 0.67692
 C113 C 0.19138 0.69075 0.66889
 N114 N 0.17696 0.69835 0.67608
 C115 C 1.19110 0.16930 0.19177
 N116 N 1.19847 0.17589 0.17694
 C117 C 1.19142 0.19003 0.16860
 N118 N 1.17670 0.19756 0.17531
 C119 C 1.16915 0.19118 0.19013
 N120 N 1.17644 0.17708 0.19826
 C121 C 0.67085 1.05733 0.55717
 N122 N 0.67843 1.05009 0.57157
 C123 C 0.69298 1.05738 0.57884
 N124 N 0.69988 1.07217 0.57163
 C125 C 0.69248 1.07964 0.55720
 N126 N 0.67795 1.07209 0.55007
 C127 C 0.55704 0.55697 0.17100
 N128 N 0.54976 0.57145 0.17846
 C129 C 0.55706 0.57891 0.19293
 N130 N 0.57184 0.57178 0.19989
 C131 C 0.57929 0.55731 0.19258
 N132 N 0.57182 0.55000 0.17812
 C133 C 0.66991 0.69263 0.19111
 N134 N 0.67731 0.69944 0.17641
 C135 C 0.69160 0.69178 0.16905
 N136 N 0.69847 0.67710 0.17652
 C137 C 0.69121 0.67011 0.19122
 N138 N 0.67691 0.67794 0.19841
 C139 C 0.17043 0.05636 1.05866
 N140 N 0.17848 0.07020 1.05071
 C141 C 0.19318 0.07750 1.05771
 N142 N 0.19999 0.07066 1.07269
 C143 C 0.19224 0.05678 1.08081
 N144 N 0.17737 0.04985 1.07376
 C145 C 0.58107 0.19139 0.55742
 N146 N 0.57321 0.19893 0.57151
 C147 C 0.55840 0.19188 0.57848
 N148 N 0.55152 0.17707 0.57126
 C149 C 0.55923 0.16936 0.55716
 N150 N 0.57402 0.17659 0.55034
 C151 C 0.07806 0.55656 0.69394
 N152 N 0.07073 0.57104 0.70136
 C153 C 0.05595 0.57828 0.69451
 N154 N 0.04853 0.57094 0.68004
 C155 C 0.05569 0.55645 0.67248
 N156 N 0.07048 0.54936 0.67947
 C157 C 0.67041 0.55853 0.05867
 N158 N 0.67755 0.57323 0.05148
 C159 C 0.69179 0.58102 0.05890
 N160 N 0.69884 0.57400 0.07370
 C161 C 0.69184 0.55932 0.08105
 N162 N 0.67761 0.55169 0.07347
 C163 C 0.05669 0.69428 0.57789
 N164 N 0.07198 0.70071 0.57134
 C165 C 0.07987 0.69290 0.55741
 N166 N 0.07239 0.67842 0.55012
 C167 C 0.05708 0.67188 0.55642
 N168 N 0.04929 0.67989 0.57032
 C169 C 0.55799 1.05739 0.66925
 N170 N 0.57268 1.05039 0.67663
 C171 C 0.57971 1.05743 0.69145
 N172 N 0.57197 1.07169 0.69888
 C173 C 0.55730 1.07884 0.69171
 N174 N 0.55043 1.07162 0.67694
 C175 C 0.44130 0.33087 0.94037
 N176 N 0.44821 0.32412 0.92537
 C177 C 0.44196 0.30891 0.91840
 N178 N 0.42849 0.30048 0.92647
 C179 C 0.42127 0.30711 0.94135
 N180 N 0.42779 0.32226 0.94822
 C181 C 0.94281 0.44335 0.33033
 N182 N 0.92821 0.45066 0.32312
 C183 C 0.92102 0.44397 0.30823
 N184 N 0.92849 0.42971 0.30057
 C185 C 0.94307 0.42221 0.30756
 N186 N 0.95014 0.42910 0.32242
 C187 C 0.30666 0.94374 0.42211
 N188 N 0.29962 0.92925 0.42978
 C189 C 0.30746 0.92173 0.44391
 N190 N 0.32249 0.92884 0.45036
 C191 C 0.32962 0.94347 0.44302
 N192 N 0.32161 0.95079 0.42885
 O193 O 0.29501 0.49909 0.77586
 O194 O 0.28841 0.52991 0.77500
 O195 O 0.24932 0.47655 0.79830
 O196 O 0.22046 0.47638 0.79291
 O197 O 0.27229 0.45399 0.75249
 O198 O 0.27108 0.46113 0.72194
 O199 O 0.20286 0.52265 0.75043
 O200 O 0.20713 0.51885 0.78095
 O201 O 0.24770 0.54709 0.73134
 O202 O 0.27906 0.54117 0.73253
 O203 O 0.22726 0.50253 0.70602
 O204 O 0.22872 0.47078 0.71135
 O205 O 0.20334 0.50180 0.72909
 O206 O 0.21028 0.46965 0.73014
 O207 O 0.24750 0.52443 0.70725
 O208 O 0.27995 0.52228 0.71403
 O209 O 0.22555 0.54602 0.75121
 O210 O 0.22752 0.53943 0.78307
 O211 O 0.29612 0.47922 0.75357
 O212 O 0.28993 0.48131 0.72258
 O213 O 0.25045 0.45276 0.77275
 O214 O 0.21899 0.45934 0.76967
 O215 O 0.26971 0.49837 0.79958
 O216 O 0.26821 0.52943 0.79372
 Zr217 Zr 0.26950 0.50957 0.77435
 O218 O 0.25428 0.52670 0.75893
 Zr219 Zr 0.23929 0.47813 0.77264
 O220 O 0.22247 0.49408 0.75749
 Zr221 Zr 0.27079 0.47973 0.74255
 O222 O 0.25526 0.49533 0.72584
 Zr223 Zr 0.22760 0.52078 0.76236
 O224 O 0.24275 0.50483 0.77938
 Zr225 Zr 0.25900 0.52193 0.73223
 O226 O 0.27605 0.50640 0.74770
 Zr227 Zr 0.22855 0.49061 0.73084
 O228 O 0.24416 0.47324 0.74592
 O229 O 0.26583 0.48305 0.76911
 O230 O 0.23231 0.51729 0.73570
 C231 C 0.30304 0.48749 0.76658
 C232 C 0.26110 0.48555 0.80642
 C233 C 0.26320 0.44584 0.76413
 C234 C 0.19580 0.51427 0.73760
 C235 C 0.23455 0.55392 0.73935
 C236 C 0.23537 0.51574 0.69936
 H237 H 0.25703 0.53898 0.76213
 H238 H 0.25835 0.49284 0.71351
 H239 H 0.27327 0.47547 0.77657
 H240 H 0.21010 0.49119 0.76009
 H241 H 0.21209 0.51287 0.79136
 H242 H 0.21025 0.48354 0.78931
 H243 H 0.27778 0.51298 0.70522
 H244 H 0.29551 0.49301 0.72372
 H245 H 0.23746 0.54761 0.78134
 H246 H 0.25642 0.52857 0.79907
 H247 H 0.23970 0.47202 0.70458
 H248 H 0.25949 0.45525 0.72208
 H249 H 0.29444 0.52968 0.76351
 H250 H 0.27828 0.54753 0.74382
 H251 H 0.22124 0.45297 0.75857
 H252 H 0.20206 0.47122 0.74004
 O253 O 0.24647 0.04776 0.23128
 O254 O 0.27721 0.04203 0.23263
 O255 O 0.22785 0.00134 0.20415
 O256 O 0.22804 -0.02766 0.20853
 O257 O 0.20065 0.02060 0.25022
 O258 O 0.20662 0.01883 0.28099
 O259 O 0.27298 -0.04466 0.25283
 O260 O 0.26994 -0.03924 0.22207
 O261 O 0.29342 -0.00074 0.27573
 O262 O 0.28620 0.03153 0.27441
 O263 O 0.24964 -0.02385 0.29679
 O264 O 0.21769 -0.02314 0.28978
 O265 O 0.25068 -0.04650 0.27251
 O266 O 0.21875 -0.04117 0.27050
 O267 O 0.26919 -0.00135 0.29831
 O268 O 0.26730 0.03032 0.29272
 O269 O 0.29507 -0.02044 0.25339
 O270 O 0.28985 -0.01811 0.22207
 O271 O 0.22413 0.04614 0.25098
 O272 O 0.22552 0.03904 0.28190
 O273 O 0.20231 0.00091 0.22782
 O274 O 0.20971 -0.03055 0.23054
 O275 O 0.24714 0.02413 0.20580
 O276 O 0.27808 0.02302 0.21270
 Zr277 Zr 0.25756 0.02245 0.23132
 O278 O 0.27458 0.00721 0.24682
 Zr279 Zr 0.22786 -0.00947 0.22954
 O280 O 0.24368 -0.02627 0.24483
 Zr281 Zr 0.22598 0.02049 0.26124
 O282 O 0.24155 0.00502 0.27804
 Zr283 Zr 0.27019 -0.01957 0.24168
 O284 O 0.25457 -0.00426 0.22456
 Zr285 Zr 0.26819 0.01035 0.27340
 O286 O 0.25254 0.02740 0.25802
 Zr287 Zr 0.23856 -0.02169 0.27155
 O288 O 0.22124 -0.00629 0.25616
 O289 O 0.23109 0.01712 0.23473
 O290 O 0.26516 -0.01639 0.26834
 C291 C 0.23338 0.05443 0.23955
 C292 C 0.23586 0.01465 0.19751
 C293 C 0.19401 0.01234 0.23708
 C294 C 0.26414 -0.05286 0.26461
 C295 C 0.30158 -0.01247 0.26674
 C296 C 0.26130 -0.01472 0.30490
 H297 H 0.28683 0.01069 0.24445
 H298 H 0.23824 0.00741 0.29033
 H299 H 0.22358 0.02461 0.22723
 H300 H 0.24158 -0.03866 0.24149
 H301 H 0.26440 -0.03396 0.21156
 H302 H 0.23524 -0.03782 0.21220
 H303 H 0.25625 0.02888 0.29934
 H304 H 0.23675 0.04555 0.28133
 H305 H 0.29617 -0.00685 0.22349
 H306 H 0.27756 0.01171 0.20627
 H307 H 0.21882 -0.01307 0.29793
 H308 H 0.20162 0.00683 0.28023
 H309 H 0.27673 0.04694 0.24464
 H310 H 0.29482 0.02991 0.26487
 H311 H 0.20260 -0.02891 0.24127
 H312 H 0.22059 -0.04815 0.25971
 O313 O 0.54692 0.73047 0.24665
 O314 O 0.54098 0.73210 0.27733
 O315 O 0.50100 0.70315 0.22771
 O316 O 0.47214 0.70737 0.22724
 O317 O 0.52037 0.74946 0.20061
 O318 O 0.51843 0.78021 0.20642
 O319 O 0.45428 0.75169 0.27198
 O320 O 0.45999 0.72097 0.26938
 O321 O 0.49788 0.77513 0.29291
 O322 O 0.52999 0.77414 0.28618
 O323 O 0.47484 0.79571 0.24900
 O324 O 0.47621 0.78888 0.21701
 O325 O 0.45266 0.77140 0.24967
 O326 O 0.45846 0.76920 0.21771
 O327 O 0.49720 0.79763 0.26865
 O328 O 0.52908 0.79215 0.26692
 O329 O 0.47814 0.75280 0.29440
 O330 O 0.48099 0.72116 0.28937
 O331 O 0.54556 0.75038 0.22444
 O332 O 0.53823 0.78135 0.22567
 O333 O 0.50077 0.72696 0.20196
 O334 O 0.46923 0.72940 0.20913
 O335 O 0.52336 0.70488 0.24741
 O336 O 0.52202 0.71210 0.27825
 Zr337 Zr 0.52159 0.73057 0.25755
 O338 O 0.50611 0.74612 0.27431
 Zr339 Zr 0.49013 0.72855 0.22743
 O340 O 0.47308 0.74376 0.24303
 Zr341 Zr 0.51988 0.76050 0.22589
 O342 O 0.50410 0.77729 0.24113
 Zr343 Zr 0.47948 0.74077 0.26964
 O344 O 0.49502 0.72366 0.25423
 Zr345 Zr 0.50916 0.77277 0.26783
 O346 O 0.52645 0.75736 0.25252
 Zr347 Zr 0.47755 0.77054 0.23785
 O348 O 0.49326 0.75522 0.22079
 O349 O 0.51659 0.73389 0.23099
 O350 O 0.48257 0.76747 0.26450
 C351 C 0.55373 0.73886 0.23370
 C352 C 0.51408 0.69650 0.23605
 C353 C 0.51221 0.73632 0.19381
 C354 C 0.44617 0.76347 0.26304
 C355 C 0.48603 0.76622 0.30093
 C356 C 0.48373 0.80395 0.26075
 H357 H 0.50946 0.74382 0.28661
 H358 H 0.50641 0.78963 0.23781
 H359 H 0.52416 0.72636 0.22360
 H360 H 0.46078 0.74031 0.24079
 H361 H 0.46534 0.71048 0.26386
 H362 H 0.46208 0.71079 0.23467
 H363 H 0.52738 0.79907 0.25607
 H364 H 0.54461 0.78081 0.23697
 H365 H 0.49184 0.72310 0.29622
 H366 H 0.51072 0.70570 0.27775
 H367 H 0.48607 0.79723 0.21837
 H368 H 0.50643 0.77959 0.20148
 H369 H 0.54582 0.74417 0.27681
 H370 H 0.52860 0.76431 0.29456
 H371 H 0.47092 0.74009 0.20193
 H372 H 0.45132 0.75853 0.21969
 O373 O 0.04624 0.72831 0.74755
 O374 O 0.04056 0.73027 0.77828
 O375 O 0.00021 0.70369 0.72753
 O376 O -0.02873 0.70856 0.72795
 O377 O 0.02106 0.74941 0.70196
 O378 O 0.02022 0.78003 0.70807
 O379 O -0.04549 0.75284 0.77294
 O380 O -0.04088 0.72218 0.77014
 O381 O -0.00132 0.77481 0.79428
 O382 O 0.03061 0.77280 0.78808
 O383 O -0.02317 0.79664 0.75048
 O384 O -0.02219 0.79016 0.71864
 O385 O -0.04631 0.77303 0.75100
 O386 O -0.04035 0.77091 0.71887
 O387 O -0.00105 0.79745 0.77044
 O388 O 0.03090 0.79063 0.76856
 O389 O -0.02177 0.75309 0.79549
 O390 O -0.01974 0.72118 0.78993
 O391 O 0.04617 0.74931 0.72632
 O392 O 0.03963 0.78047 0.72758
 O393 O 0.00036 0.72788 0.70269
 O394 O -0.03101 0.73106 0.70988
 O395 O 0.02157 0.70388 0.74840
 O396 O 0.02072 0.71110 0.77925
 Zr397 Zr 0.02104 0.72963 0.75859
 O398 O 0.00610 0.74558 0.77547
 Zr399 Zr -0.01019 0.72926 0.72820
 O400 O -0.02679 0.74479 0.74398
 Zr401 Zr 0.02072 0.76012 0.72739
 O402 O 0.00536 0.77725 0.74269
 Zr403 Zr -0.02065 0.74121 0.77060
 O404 O -0.00572 0.72376 0.75496
 Zr405 Zr 0.01010 0.77220 0.76934
 O406 O 0.02693 0.75631 0.75400
 Zr407 Zr -0.02140 0.77147 0.73918
 O408 O -0.00605 0.75590 0.72201
 O409 O 0.01641 0.73359 0.73205
 O410 O -0.01664 0.76786 0.76580
 C411 C 0.05366 0.73698 0.73513
 C412 C 0.01256 0.69625 0.73630
 C413 C 0.01230 0.73685 0.69482
 C414 C -0.05316 0.76504 0.76418
 C415 C -0.01355 0.76626 0.80213
 C416 C -0.01415 0.80441 0.76244
 H417 H 0.00927 0.74302 0.78777
 H418 H 0.00812 0.78954 0.73954
 H419 H 0.02376 0.72593 0.72456
 H420 H -0.03919 0.74180 0.74163
 H421 H -0.03600 0.71163 0.76431
 H422 H -0.03887 0.71238 0.73506
 H423 H 0.02908 0.79826 0.75822
 H424 H 0.04593 0.77958 0.73891
 H425 H -0.00930 0.72314 0.79738
 H426 H 0.00918 0.70514 0.77870
 H427 H -0.01173 0.79779 0.71978
 H428 H 0.00822 0.78000 0.70310
 H429 H 0.04577 0.74219 0.77790
 H430 H 0.02914 0.76258 0.79595
 H431 H -0.02903 0.74186 0.70292
 H432 H -0.04812 0.76070 0.72094
 O433 O 0.00042 0.04749 0.02330
 O434 O -0.03035 0.04138 0.02117
 O435 O 0.02015 0.00150 0.04878
 O436 O 0.02112 -0.02726 0.04400
 O437 O 0.04603 0.02301 0.00321
 O438 O 0.04048 0.02083 -0.02758
 O439 O -0.02419 -0.04506 -0.00043
 O440 O -0.02146 -0.04014 0.03026
 O441 O -0.04584 -0.00110 -0.02253
 O442 O -0.03978 0.03068 -0.02137
 O443 O -0.00166 -0.02335 -0.04382
 O444 O 0.03014 -0.02167 -0.03743
 O445 O -0.00177 -0.04603 -0.02001
 O446 O 0.03027 -0.03941 -0.01778
 O447 O -0.02183 -0.00142 -0.04512
 O448 O -0.02000 0.03092 -0.03886
 O449 O -0.04701 -0.02132 -0.00063
 O450 O -0.04147 -0.01918 0.03100
 O451 O 0.02157 0.04742 0.00227
 O452 O 0.02072 0.04020 -0.02867
 O453 O 0.04571 0.00199 0.02443
 O454 O 0.03860 -0.02973 0.02168
 O455 O -0.00010 0.02343 0.04777
 O456 O -0.03106 0.02169 0.04070
 Zr457 Zr -0.01043 0.02209 0.02220
 O458 O -0.02708 0.00668 0.00641
 Zr459 Zr 0.02024 -0.00890 0.02320
 O460 O 0.00467 -0.02594 0.00786
 Zr461 Zr 0.02089 0.02168 -0.00800
 O462 O 0.00585 0.00583 -0.02497
 Zr463 Zr -0.02204 -0.02004 0.01112
 O464 O -0.00662 -0.00463 0.02842
 Zr465 Zr -0.02086 0.01036 -0.02017
 O466 O -0.00580 0.02768 -0.00446
 Zr467 Zr 0.00961 -0.02085 -0.01877
 O468 O 0.02655 -0.00502 -0.00337
 O469 O 0.01616 0.01765 0.01850
 O470 O -0.01710 -0.01634 -0.01546
 C471 C 0.01277 0.05494 0.01455
 C472 C 0.01160 0.01427 0.05577
 C473 C 0.05330 0.01430 0.01569
 C474 C -0.01508 -0.05287 -0.01227
 C475 C -0.05371 -0.01317 -0.01379
 C476 C -0.01374 -0.01466 -0.05173
 H477 H -0.03940 0.00981 0.00887
 H478 H 0.00903 0.00842 -0.03726
 H479 H 0.02349 0.02520 0.02612
 H480 H 0.00711 -0.03830 0.01103
 H481 H -0.01578 -0.03506 0.04079
 H482 H 0.01342 -0.03719 0.04071
 H483 H -0.00986 0.02879 -0.04665
 H484 H 0.00930 0.04635 -0.02807
 H485 H -0.04858 -0.00845 0.02929
 H486 H -0.03019 0.01033 0.04697
 H487 H 0.02901 -0.01122 -0.04505
 H488 H 0.04571 0.00893 -0.02700
 H489 H -0.02972 0.04670 0.00934
 H490 H -0.04721 0.02981 -0.01079
 H491 H 0.04587 -0.02762 0.01113
 H492 H 0.02817 -0.04719 -0.00760
 O493 O 0.00124 0.54664 0.52290
 O494 O -0.02938 0.54031 0.52139
 O495 O 0.02248 0.50093 0.54717
 O496 O 0.02263 0.47196 0.54237
 O497 O 0.04680 0.52280 0.50167
 O498 O 0.04071 0.52106 0.47101
 O499 O -0.02284 0.45416 0.49869
 O500 O -0.01973 0.45882 0.52923
 O501 O -0.04535 0.49825 0.47733
 O502 O -0.03961 0.52998 0.47868
 O503 O -0.00127 0.47674 0.45486
 O504 O 0.03049 0.47838 0.46075
 O505 O -0.00105 0.45370 0.47841
 O506 O 0.03108 0.46046 0.48023
 O507 O -0.02166 0.49850 0.45421
 O508 O -0.02005 0.53078 0.46104
 O509 O -0.04583 0.47758 0.49884
 O510 O -0.03981 0.47967 0.53056
 O511 O 0.02194 0.54702 0.50145
 O512 O 0.02074 0.54013 0.47045
 O513 O 0.04704 0.50145 0.52252
 O514 O 0.04020 0.46984 0.51968
 O515 O 0.00118 0.52187 0.54730
 O516 O -0.02976 0.52038 0.54045
 Zr517 Zr -0.00934 0.52113 0.52173
 O518 O -0.02613 0.50582 0.50600
 Zr519 Zr 0.02164 0.49045 0.52168
 O520 O 0.00593 0.47346 0.50644
 Zr521 Zr 0.02144 0.52140 0.49091
 O522 O 0.00623 0.50563 0.47402
 Zr523 Zr -0.02076 0.47910 0.51030
 O524 O -0.00513 0.49439 0.52751
 Zr525 Zr -0.02042 0.50988 0.47936
 O526 O -0.00523 0.52709 0.49505
 Zr527 Zr 0.01030 0.47890 0.47979
 O528 O 0.02741 0.49469 0.49505
 O529 O 0.01722 0.51703 0.51744
 O530 O -0.01638 0.48315 0.48366
 C531 C 0.01325 0.55435 0.51392
 C532 C 0.01355 0.51310 0.55474
 C533 C 0.05439 0.51395 0.51386
 C534 C -0.01404 0.44661 0.48648
 C535 C -0.05290 0.48589 0.48597
 C536 C -0.01349 0.48549 0.44724
 H537 H -0.03844 0.50879 0.50872
 H538 H 0.00917 0.50842 0.46171
 H539 H 0.02462 0.52459 0.52500
 H540 H 0.00853 0.46109 0.50942
 H541 H -0.01383 0.46380 0.53968
 H542 H 0.01542 0.46175 0.53880
 H543 H -0.01009 0.52882 0.45297
 H544 H 0.00930 0.54621 0.47134
 H545 H -0.04741 0.49004 0.52875
 H546 H -0.02887 0.50888 0.54645
 H547 H 0.02937 0.48910 0.45350
 H548 H 0.04605 0.50920 0.47129
 H549 H -0.02915 0.54567 0.50956
 H550 H -0.04671 0.52903 0.48948
 H551 H 0.04707 0.47196 0.50888
 H552 H 0.02912 0.45245 0.49025
 O553 O 0.47681 -0.04732 0.49913
 O554 O 0.47781 -0.04021 0.52978
 O555 O 0.45477 -0.00169 0.47594
 O556 O 0.46034 0.02726 0.47561
 O557 O 0.50002 -0.02551 0.45382
 O558 O 0.53074 -0.02432 0.46077
 O559 O 0.50257 0.04546 0.52081
 O560 O 0.47222 0.04090 0.51771
 O561 O 0.52190 0.00049 0.54632
 O562 O 0.52042 -0.03101 0.54088
 O563 O 0.54737 0.01976 0.50125
 O564 O 0.54172 0.01822 0.46982
 O565 O 0.52479 0.04390 0.50104
 O566 O 0.52303 0.03692 0.46869
 O567 O 0.54598 0.00007 0.52359
 O568 O 0.53882 -0.03243 0.52203
 O569 O 0.50248 0.02309 0.54471
 O570 O 0.47043 0.02095 0.53856
 O571 O 0.49915 -0.04897 0.47944
 O572 O 0.53012 -0.04293 0.48111
 O573 O 0.48016 -0.00327 0.45235
 O574 O 0.48352 0.02826 0.45843
 O575 O 0.45327 -0.02170 0.49807
 O576 O 0.45927 -0.01980 0.52904
 Zr577 Zr 0.47856 -0.02159 0.50923
 O578 O 0.49418 -0.00619 0.52607
 Zr579 Zr 0.48047 0.00822 0.47747
 O580 O 0.49581 0.02518 0.49308
 Zr581 Zr 0.51026 -0.02363 0.47942
 O582 O 0.52715 -0.00800 0.49476
 Zr583 Zr 0.49093 0.02049 0.51976
 O584 O 0.47373 0.00520 0.50412
 Zr585 Zr 0.52084 -0.01123 0.52137
 O586 O 0.50516 -0.02842 0.50612
 Zr587 Zr 0.52240 0.01874 0.48970
 O588 O 0.50712 0.00300 0.47260
 O589 O 0.48376 -0.01835 0.48272
 O590 O 0.51755 0.01547 0.51636
 C591 C 0.48610 -0.05565 0.48777
 C592 C 0.44654 -0.01325 0.48509
 C593 C 0.48847 -0.01633 0.44562
 C594 C 0.51591 0.05200 0.51286
 C595 C 0.51419 0.01403 0.55279
 C596 C 0.55400 0.01186 0.51456
 H597 H 0.49100 -0.00871 0.53837
 H598 H 0.53944 -0.01127 0.49228
 H599 H 0.47621 -0.02588 0.47529
 H600 H 0.49332 0.03755 0.49000
 H601 H 0.46180 0.03583 0.51181
 H602 H 0.46411 0.03759 0.48253
 H603 H 0.54763 -0.03050 0.51271
 H604 H 0.52914 -0.04823 0.49292
 H605 H 0.47239 0.01135 0.54707
 H606 H 0.45414 -0.00789 0.52811
 H607 H 0.54810 0.00695 0.47084
 H608 H 0.53044 -0.01290 0.45454
 H609 H 0.48926 -0.04634 0.52964
 H610 H 0.50914 -0.03004 0.54719
 H611 H 0.49470 0.02594 0.45226
 H612 H 0.51359 0.04562 0.47060
 O613 O 0.54803 0.52025 0.00118
 O614 O 0.54219 0.51846 -0.02961
 O615 O 0.50199 0.54729 0.01980
 O616 O 0.47312 0.54295 0.02003
 O617 O 0.52135 0.50103 0.04701
 O618 O 0.51959 0.47026 0.04112
 O619 O 0.45554 0.49838 -0.02475
 O620 O 0.46108 0.52925 -0.02197
 O621 O 0.49919 0.47531 -0.04542
 O622 O 0.53136 0.47654 -0.03853
 O623 O 0.47614 0.45464 -0.00174
 O624 O 0.47756 0.46140 0.03036
 O625 O 0.45388 0.47891 -0.00221
 O626 O 0.45970 0.48091 0.02964
 O627 O 0.49854 0.45285 -0.02128
 O628 O 0.53038 0.45839 -0.01934
 O629 O 0.47953 0.49769 -0.04709
 O630 O 0.48202 0.52917 -0.04199
 O631 O 0.54665 0.50031 0.02336
 O632 O 0.53950 0.46931 0.02202
 O633 O 0.50171 0.52347 0.04552
 O634 O 0.47025 0.52093 0.03821
 O635 O 0.52441 0.54567 0.00021
 O636 O 0.52323 0.53846 -0.03061
 Zr637 Zr 0.52275 0.51997 -0.00994
 O638 O 0.50733 0.50437 -0.02677
 Zr639 Zr 0.49118 0.52184 0.02000
 O640 O 0.47423 0.50653 0.00434
 Zr641 Zr 0.52104 0.49003 0.02171
 O642 O 0.50537 0.47316 0.00636
 Zr643 Zr 0.48066 0.50957 -0.02225
 O644 O 0.49613 0.52675 -0.00677
 Zr645 Zr 0.51046 0.47773 -0.02031
 O646 O 0.52767 0.49320 -0.00489
 Zr647 Zr 0.47880 0.47977 0.00954
 O648 O 0.49439 0.49519 0.02667
 O649 O 0.51767 0.51662 0.01659
 O650 O 0.48384 0.48289 -0.01709
 C651 C 0.55482 0.51190 0.01419
 C652 C 0.51507 0.55400 0.01153
 C653 C 0.51313 0.51414 0.05376
 C654 C 0.44741 0.48670 -0.01568
 C655 C 0.48741 0.48425 -0.05354
 C656 C 0.48503 0.44647 -0.01350
 H657 H 0.51070 0.50670 -0.03906
 H658 H 0.50771 0.46082 0.00967
 H659 H 0.52517 0.52418 0.02404
 H660 H 0.46191 0.50991 0.00653
 H661 H 0.46641 0.53979 -0.01651
 H662 H 0.46304 0.53942 0.01266
 H663 H 0.52872 0.45150 -0.00848
 H664 H 0.54586 0.46986 0.01072
 H665 H 0.49310 0.52757 -0.04851
 H666 H 0.51192 0.54484 -0.03017
 H667 H 0.48731 0.45297 0.02888
 H668 H 0.50758 0.47081 0.04600
 H669 H 0.54712 0.50644 -0.02898
 H670 H 0.52987 0.48628 -0.04699
 H671 H 0.47194 0.51025 0.04542
 H672 H 0.45266 0.49167 0.02779
 O673 O 0.77490 0.29534 0.49884
 O674 O 0.77401 0.28845 0.52955
 O675 O 0.79739 0.24951 0.47620
 O676 O 0.79187 0.22053 0.47602
 O677 O 0.75189 0.27283 0.45357
 O678 O 0.72120 0.27160 0.46047
 O679 O 0.74950 0.20264 0.52127
 O680 O 0.77990 0.20722 0.51810
 O681 O 0.73020 0.24788 0.54625
 O682 O 0.73161 0.27942 0.54039
 O683 O 0.70473 0.22803 0.50134
 O684 O 0.71055 0.22937 0.46973
 O685 O 0.72729 0.20401 0.50141
 O686 O 0.72904 0.21044 0.46912
 O687 O 0.70610 0.24793 0.52353
 O688 O 0.71299 0.28033 0.52172
 O689 O 0.74984 0.22545 0.54509
 O690 O 0.78169 0.22731 0.53883
 O691 O 0.75268 0.29661 0.47894
 O692 O 0.72180 0.29052 0.48056
 O693 O 0.77197 0.25077 0.45236
 O694 O 0.76873 0.21932 0.45872
 O695 O 0.79863 0.26989 0.49802
 O696 O 0.79272 0.26823 0.52892
 Zr697 Zr 0.77337 0.26968 0.50910
 O698 O 0.75784 0.25438 0.52603
 Zr699 Zr 0.77168 0.23954 0.47762
 O700 O 0.75634 0.22269 0.49333
 Zr701 Zr 0.74171 0.27124 0.47916
 O702 O 0.72485 0.25576 0.49462
 Zr703 Zr 0.76117 0.22763 0.52000
 O704 O 0.77832 0.24286 0.50429
 Zr705 Zr 0.73117 0.25930 0.52120
 O706 O 0.74676 0.27637 0.50582
 Zr707 Zr 0.72972 0.22899 0.48983
 O708 O 0.74499 0.24456 0.47262
 O709 O 0.76823 0.26614 0.48260
 O710 O 0.73453 0.23255 0.51647
 C711 C 0.76561 0.30349 0.48734
 C712 C 0.80551 0.26127 0.48524
 C713 C 0.76351 0.26365 0.44547
 C714 C 0.73615 0.19604 0.51335
 C715 C 0.73809 0.23459 0.55302
 C716 C 0.69810 0.23602 0.51461
 H717 H 0.76101 0.25706 0.53830
 H718 H 0.71255 0.25895 0.49208
 H719 H 0.77576 0.27364 0.47513
 H720 H 0.75886 0.21029 0.49039
 H721 H 0.79031 0.21226 0.51220
 H722 H 0.78807 0.21022 0.48295
 H723 H 0.70432 0.27837 0.51226
 H724 H 0.72265 0.29585 0.49237
 H725 H 0.78004 0.23733 0.54693
 H726 H 0.79792 0.25633 0.52812
 H727 H 0.70381 0.24041 0.47093
 H728 H 0.72154 0.26011 0.45438
 H729 H 0.76255 0.29457 0.52930
 H730 H 0.74274 0.27835 0.54698
 H731 H 0.75747 0.22145 0.45261
 H732 H 0.73869 0.20196 0.47100
 O733 O 0.75215 0.77446 -0.04609
 O734 O 0.72132 0.77304 -0.03953
 O735 O 0.77429 0.79700 -0.00032
 O736 O 0.77415 0.79148 0.02868
 O737 O 0.79751 0.75149 -0.02319
 O738 O 0.79054 0.72071 -0.02241
 O739 O 0.72929 0.74871 0.04610
 O740 O 0.73240 0.77924 0.04159
 O741 O 0.70463 0.72914 0.00097
 O742 O 0.71070 0.73072 -0.03062
 O743 O 0.74942 0.70401 0.02102
 O744 O 0.78109 0.70992 0.01968
 O745 O 0.74942 0.72671 0.04496
 O746 O 0.78170 0.72854 0.03851
 O747 O 0.72742 0.70520 0.00094
 O748 O 0.72935 0.71202 -0.03132
 O749 O 0.70568 0.74886 0.02334
 O750 O 0.71165 0.78081 0.02152
 O751 O 0.77228 0.75240 -0.04733
 O752 O 0.77058 0.72135 -0.04143
 O753 O 0.79808 0.77216 -0.00162
 O754 O 0.79191 0.76842 0.02975
 O755 O 0.75256 0.79812 -0.02077
 O756 O 0.72165 0.79191 -0.01932
 Zr757 Zr 0.74163 0.77270 -0.02064
 O758 O 0.72472 0.75701 -0.00547
 Zr759 Zr 0.77294 0.77126 0.00963
 O760 O 0.75729 0.75574 0.02633
 Zr761 Zr 0.77184 0.74121 -0.02206
 O762 O 0.75635 0.72420 -0.00673
 Zr763 Zr 0.73064 0.76043 0.02123
 O764 O 0.74628 0.77775 0.00614
 Zr765 Zr 0.72973 0.73032 -0.01039
 O766 O 0.74515 0.74605 -0.02731
 Zr767 Zr 0.76097 0.72908 0.02001
 O768 O 0.77817 0.74456 0.00461
 O769 O 0.76813 0.76774 -0.01693
 O770 O 0.73433 0.73375 0.01632
 C771 C 0.76387 0.76538 -0.05415
 C772 C 0.76533 0.80504 -0.01215
 C773 C 0.80526 0.76358 -0.01425
 C774 C 0.73733 0.73548 0.05280
 C775 C 0.69783 0.73699 0.01425
 C776 C 0.73622 0.69729 0.01296
 H777 H 0.71243 0.76010 -0.00819
 H778 H 0.75895 0.71188 -0.00990
 H779 H 0.77561 0.77535 -0.02434
 H780 H 0.76017 0.75829 0.03871
 H781 H 0.73824 0.78973 0.03657
 H782 H 0.76754 0.78741 0.03906
 H783 H 0.73897 0.70352 -0.02942
 H784 H 0.75878 0.72217 -0.04679
 H785 H 0.70363 0.77911 0.01146
 H786 H 0.72235 0.79714 -0.00745
 H787 H 0.77984 0.70306 0.00873
 H788 H 0.79646 0.72093 -0.01085
 H789 H 0.72180 0.76159 -0.04570
 H790 H 0.70390 0.74172 -0.02942
 H791 H 0.79818 0.75725 0.02749
 H792 H 0.77986 0.73830 0.04688
 O793 O 0.95425 0.25181 0.27250
 O794 O 0.96128 0.22106 0.27125
 O795 O 0.99993 0.27464 0.29496
 O796 O 1.02881 0.27510 0.28931
 O797 O 0.97628 0.29744 0.24967
 O798 O 0.97739 0.29058 0.21889
 O799 O 1.04672 0.23011 0.24672
 O800 O 1.04227 0.23328 0.27718
 O801 O 1.00185 0.20471 0.22745
 O802 O 0.97021 0.21041 0.22900
 O803 O 1.02107 0.24998 0.20204
 O804 O 1.01951 0.28163 0.20802
 O805 O 1.04521 0.25008 0.22461
 O806 O 1.03846 0.28239 0.22648
 O807 O 1.00146 0.22753 0.20343
 O808 O 0.96922 0.22900 0.21029
 O809 O 1.02428 0.20611 0.24706
 O810 O 1.02251 0.21220 0.27885
 O811 O 0.95271 0.27185 0.25042
 O812 O 0.95861 0.27032 0.21950
 O813 O 0.99837 0.29866 0.26970
 O814 O 1.02970 0.29262 0.26633
 O815 O 0.97979 0.25258 0.29611
 O816 O 0.98150 0.22169 0.28996
 Zr817 Zr 0.97988 0.24167 0.27076
 O818 O 0.99524 0.22488 0.25515
 Zr819 Zr 1.00974 0.27346 0.26919
 O820 O 1.02660 0.25793 0.25370
 Zr821 Zr 0.97797 0.27181 0.23932
 O822 O 0.99345 0.25645 0.22234
 Zr823 Zr 1.02187 0.23117 0.25847
 O824 O 1.00662 0.24670 0.27572
 Zr825 Zr 0.99019 0.22974 0.22852
 O826 O 0.97309 0.24501 0.24419
 Zr827 Zr 1.02016 0.26145 0.22711
 O828 O 1.00456 0.27853 0.24254
 O829 O 0.98321 0.26829 0.26580
 O830 O 1.01685 0.23470 0.23185
 C831 C 0.94599 0.26335 0.26335
 C832 C 0.98835 0.26540 0.30305
 C833 C 0.98545 0.30555 0.26133
 C834 C 1.05325 0.23814 0.23342
 C835 C 1.01522 0.19807 0.23531
 C836 C 1.01320 0.23660 0.19541
 H837 H 0.99270 0.21254 0.25828
 H838 H 0.99019 0.25900 0.21006
 H839 H 0.97574 0.27569 0.27341
 H840 H 1.03895 0.26098 0.25621
 H841 H 1.03717 0.23902 0.28766
 H842 H 1.03917 0.26836 0.28539
 H843 H 0.97094 0.23868 0.20181
 H844 H 0.95346 0.25840 0.22026
 H845 H 1.01252 0.20406 0.27725
 H846 H 0.99340 0.22250 0.29511
 H847 H 1.00844 0.28039 0.20137
 H848 H 0.98879 0.29681 0.21926
 H849 H 0.95511 0.22136 0.25982
 H850 H 0.97152 0.20365 0.24000
 H851 H 1.02753 0.29871 0.25506
 H852 H 1.04697 0.28058 0.23610
 O853 O 0.70412 1.02262 0.74793
 O854 O 0.71027 1.02132 0.77879
 O855 O 0.75024 1.04746 0.72757
 O856 O 0.77924 1.04264 0.72810
 O857 O 0.72946 1.00138 0.70246
 O858 O 0.73063 0.97060 0.70914
 O859 O 0.79668 0.99946 0.77274
 O860 O 0.79137 1.03005 0.76986
 O861 O 0.75200 0.97793 0.79551
 O862 O 0.72003 0.97945 0.78874
 O863 O 0.77380 0.95486 0.75151
 O864 O 0.77245 0.96103 0.71943
 O865 O 0.79678 0.97814 0.75187
 O866 O 0.79107 0.97993 0.71975
 O867 O 0.75201 0.95438 0.77180
 O868 O 0.72028 0.96078 0.77014
 O869 O 0.77341 0.99872 0.79556
 O870 O 0.77080 1.03063 0.79019
 O871 O 0.70461 1.00178 0.72651
 O872 O 0.71090 0.97073 0.72847
 O873 O 0.75000 1.02307 0.70303
 O874 O 0.78131 1.02004 0.70994
 O875 O 0.72885 1.04743 0.74837
 O876 O 0.72974 1.04078 0.77916
 Zr877 Zr 0.72953 1.02183 0.75888
 O878 O 0.74480 1.00631 0.77591
 Zr879 Zr 0.76070 1.02193 0.72845
 O880 O 0.77745 1.00659 0.74424
 Zr881 Zr 0.72994 0.99094 0.72803
 O882 O 0.74530 0.97410 0.74366
 Zr883 Zr 0.77154 1.01062 0.77080
 O884 O 0.75628 1.02775 0.75512
 Zr885 Zr 0.74076 0.97959 0.77029
 O886 O 0.72379 0.99507 0.75463
 Zr887 Zr 0.77199 0.97985 0.73990
 O888 O 0.75664 0.99520 0.72255
 O889 O 0.73413 1.01755 0.73240
 O890 O 0.76747 0.98389 0.76650
 C891 C 0.69690 1.01395 0.73533
 C892 C 0.73785 1.05495 0.73623
 C893 C 0.73805 1.01401 0.69526
 C894 C 0.80401 0.98669 0.76449
 C895 C 0.76478 0.98619 0.80283
 C896 C 0.76498 0.94731 0.76371
 H897 H 0.74172 1.00908 0.78819
 H898 H 0.74253 0.96175 0.74072
 H899 H 0.72673 1.02510 0.72486
 H900 H 0.78983 1.00954 0.74175
 H901 H 0.78613 1.04052 0.76418
 H902 H 0.78956 1.03875 0.73494
 H903 H 0.72163 0.95349 0.75948
 H904 H 0.70482 0.97165 0.73990
 H905 H 0.76050 1.02859 0.79779
 H906 H 0.74149 1.04631 0.77895
 H907 H 0.76225 0.95315 0.72098
 H908 H 0.74244 0.97099 0.70378
 H909 H 0.70475 1.00955 0.77826
 H910 H 0.72156 0.98974 0.79654
 H911 H 0.77951 1.00894 0.70338
 H912 H 0.79871 0.99030 0.72154
 O913 O 0.79577 0.49990 0.27481
 O914 O 0.78878 0.53067 0.27373
 O915 O 0.75020 0.47699 0.29713
 O916 O 0.72130 0.47655 0.29152
 O917 O 0.77363 0.45440 0.25161
 O918 O 0.77250 0.46142 0.22094
 O919 O 0.70322 0.52179 0.24923
 O920 O 0.70781 0.51865 0.27962
 O921 O 0.74807 0.54716 0.22987
 O922 O 0.77967 0.54156 0.23146
 O923 O 0.72861 0.50220 0.20445
 O924 O 0.73028 0.47046 0.21015
 O925 O 0.70462 0.50182 0.22710
 O926 O 0.71145 0.46954 0.22865
 O927 O 0.74842 0.52448 0.20585
 O928 O 0.78074 0.52287 0.21278
 O929 O 0.72566 0.54573 0.24943
 O930 O 0.72773 0.53959 0.28138
 O931 O 0.79722 0.47995 0.25262
 O932 O 0.79124 0.48171 0.22166
 O933 O 0.75164 0.45308 0.27168
 O934 O 0.72026 0.45922 0.26844
 O935 O 0.77034 0.49903 0.29840
 O936 O 0.76857 0.52999 0.29242
 Zr937 Zr 0.77015 0.51008 0.27312
 O938 O 0.75477 0.52696 0.25758
 Zr939 Zr 0.74029 0.47831 0.27138
 O940 O 0.72339 0.49394 0.25601
 Zr941 Zr 0.77195 0.48009 0.24148
 O942 O 0.75640 0.49550 0.22460
 Zr943 Zr 0.72814 0.52069 0.26089
 O944 O 0.74342 0.50505 0.27805
 Zr945 Zr 0.75974 0.52217 0.23093
 O946 O 0.77687 0.50685 0.24653
 Zr947 Zr 0.72972 0.49051 0.22940
 O948 O 0.74537 0.47336 0.24470
 O949 O 0.76679 0.48349 0.26799
 O950 O 0.73309 0.51722 0.23426
 C951 C 0.80398 0.48836 0.26561
 C952 C 0.76183 0.48617 0.30527
 C953 C 0.76451 0.44623 0.26320
 C954 C 0.69661 0.51374 0.23596
 C955 C 0.73466 0.55376 0.23765
 C956 C 0.73653 0.51555 0.19785
 H957 H 0.75733 0.53929 0.26075
 H958 H 0.75962 0.49300 0.21230
 H959 H 0.77428 0.47603 0.27554
 H960 H 0.71104 0.49088 0.25853
 H961 H 0.71290 0.51280 0.29005
 H962 H 0.71099 0.48346 0.28773
 H963 H 0.77889 0.51333 0.20415
 H964 H 0.79651 0.49357 0.22261
 H965 H 0.73747 0.54796 0.27954
 H966 H 0.75667 0.52917 0.29755
 H967 H 0.74126 0.47182 0.20339
 H968 H 0.76104 0.45531 0.22116
 H969 H 0.79489 0.53042 0.26228
 H970 H 0.77845 0.54821 0.24253
 H971 H 0.72242 0.45311 0.25718
 H972 H 0.70302 0.47125 0.23835
 O973 O 0.50050 0.20276 0.72701
 O974 O 0.46966 0.20904 0.72827
 O975 O 0.52026 0.24898 0.70099
 O976 O 0.52052 0.27796 0.70569
 O977 O 0.54628 0.22854 0.74712
 O978 O 0.53995 0.23038 0.77794
 O979 O 0.47577 0.29571 0.74922
 O980 O 0.47881 0.29020 0.71850
 O981 O 0.45334 0.25115 0.77087
 O982 O 0.46038 0.21920 0.77002
 O983 O 0.49792 0.27345 0.79366
 O984 O 0.52982 0.27222 0.78697
 O985 O 0.49746 0.29650 0.76968
 O986 O 0.52929 0.29059 0.76805
 O987 O 0.47686 0.25232 0.79402
 O988 O 0.47907 0.22015 0.78863
 O989 O 0.45308 0.27236 0.74991
 O990 O 0.45824 0.26966 0.71831
 O991 O 0.52218 0.20363 0.74753
 O992 O 0.52069 0.21050 0.77832
 O993 O 0.54544 0.24870 0.72512
 O994 O 0.53866 0.28023 0.72798
 O995 O 0.50025 0.22681 0.70192
 O996 O 0.46941 0.22822 0.70843
 Zr997 Zr 0.48969 0.22825 0.72736
 O998 O 0.47277 0.24377 0.74271
 Zr999 Zr 0.52008 0.25956 0.72649
 O1000 O 0.50446 0.27654 0.74175
 Zr1001 Zr 0.52084 0.22923 0.75786
 O1002 O 0.50533 0.24482 0.77458
 Zr1003 Zr 0.47785 0.27052 0.73806
 O1004 O 0.49335 0.25499 0.72102
 Zr1005 Zr 0.47865 0.24016 0.76935
 O1006 O 0.49419 0.22294 0.75408
 Zr1007 Zr 0.50909 0.27149 0.76848
 O1008 O 0.52628 0.25593 0.75316
 O1009 O 0.51621 0.23299 0.73129
 O1010 O 0.48243 0.26688 0.76473
 C1011 C 0.51317 0.19568 0.73565
 C1012 C 0.51192 0.23605 0.69397
 C1013 C 0.55333 0.23690 0.73427
 C1014 C 0.48449 0.30344 0.76144
 C1015 C 0.44590 0.26379 0.76252
 C1016 C 0.48531 0.26509 0.80112
 H1017 H 0.46049 0.24059 0.74009
 H1018 H 0.50836 0.24225 0.78692
 H1019 H 0.52365 0.22543 0.72381
 H1020 H 0.50692 0.28890 0.73861
 H1021 H 0.48422 0.28475 0.70802
 H1022 H 0.51346 0.28821 0.70938
 H1023 H 0.48949 0.22206 0.79614
 H1024 H 0.50907 0.20469 0.77792
 H1025 H 0.45118 0.25889 0.71999
 H1026 H 0.46979 0.23984 0.70261
 H1027 H 0.52847 0.26200 0.79487
 H1028 H 0.54550 0.24212 0.77711
 H1029 H 0.47034 0.20356 0.74002
 H1030 H 0.45250 0.22045 0.75978
 H1031 H 0.54550 0.27842 0.73887
 H1032 H 0.52775 0.29776 0.75734
 O1033 O 0.29705 0.75093 0.47681
 O1034 O 0.29036 0.72009 0.47760
 O1035 O 0.25091 0.77270 0.45327
 O1036 O 0.22193 0.77236 0.45857
 O1037 O 0.27302 0.79658 0.49910
 O1038 O 0.27218 0.78946 0.52978
 O1039 O 0.20456 0.72736 0.50128
 O1040 O 0.20932 0.73064 0.47069
 O1041 O 0.24966 0.70320 0.52110
 O1042 O 0.28144 0.70975 0.51959
 O1043 O 0.22908 0.74783 0.54590
 O1044 O 0.23042 0.77981 0.53988
 O1045 O 0.20536 0.74774 0.52307
 O1046 O 0.21141 0.77992 0.52149
 O1047 O 0.24941 0.72604 0.54493
 O1048 O 0.28155 0.72815 0.53856
 O1049 O 0.22754 0.70393 0.50112
 O1050 O 0.22940 0.70983 0.46943
 O1051 O 0.29741 0.77189 0.49811
 O1052 O 0.29157 0.76977 0.52904
 O1053 O 0.25188 0.79676 0.47804
 O1054 O 0.22057 0.79029 0.48145
 O1055 O 0.27187 0.75143 0.45252
 O1056 O 0.27053 0.72048 0.45855
 Zr1057 Zr 0.27147 0.74042 0.47785
 O1058 O 0.25625 0.72334 0.49332
 Zr1059 Zr 0.24084 0.77144 0.47889
 O1060 O 0.22415 0.75565 0.49428
 Zr1061 Zr 0.27220 0.77081 0.50921
 O1062 O 0.25694 0.75510 0.52605
 Zr1063 Zr 0.22950 0.72898 0.48968
 O1064 O 0.24468 0.74473 0.47254
 Zr1065 Zr 0.26089 0.72845 0.51998
 O1066 O 0.27781 0.74411 0.50449
 Zr1067 Zr 0.23023 0.75947 0.52092
 O1068 O 0.24553 0.77684 0.50557
 O1069 O 0.26743 0.76696 0.48268
 O1070 O 0.23418 0.73279 0.51632
 C1071 C 0.30470 0.76315 0.48566
 C1072 C 0.26301 0.76394 0.44542
 C1073 C 0.26420 0.80418 0.48687
 C1074 C 0.19769 0.73546 0.51437
 C1075 C 0.23654 0.69621 0.51311
 C1076 C 0.23721 0.73470 0.55268
 H1077 H 0.25909 0.71105 0.49027
 H1078 H 0.25999 0.75777 0.53837
 H1079 H 0.27484 0.77452 0.47516
 H1080 H 0.21176 0.75840 0.49163
 H1081 H 0.21448 0.73636 0.46023
 H1082 H 0.21154 0.76570 0.46259
 H1083 H 0.27978 0.73812 0.54670
 H1084 H 0.29704 0.75800 0.52822
 H1085 H 0.23981 0.70222 0.47091
 H1086 H 0.25868 0.72101 0.45328
 H1087 H 0.24099 0.77828 0.54725
 H1088 H 0.26057 0.79528 0.52946
 H1089 H 0.29628 0.72042 0.48916
 H1090 H 0.27995 0.70241 0.50898
 H1091 H 0.22260 0.79656 0.49265
 H1092 H 0.20346 0.77829 0.51136
 O1093 O 0.27624 0.29374 0.99993
 O1094 O 0.27536 0.28658 1.03065
 O1095 O 0.29814 0.24808 0.97668
 O1096 O 0.29239 0.21917 0.97605
 O1097 O 0.25250 0.27200 0.95474
 O1098 O 0.22190 0.27087 0.96193
 O1099 O 0.25058 0.20085 1.02133
 O1100 O 0.28092 0.20549 1.01820
 O1101 O 0.23160 0.24595 1.04727
 O1102 O 0.23306 0.27749 1.04184
 O1103 O 0.20568 0.22653 1.00261
 O1104 O 0.21094 0.22856 0.97086
 O1105 O 0.22827 0.20247 1.00160
 O1106 O 0.22945 0.20969 0.96949
 O1107 O 0.20735 0.24629 1.02489
 O1108 O 0.21434 0.27880 1.02323
 O1109 O 0.25074 0.22314 1.04542
 O1110 O 0.28280 0.22530 1.03918
 O1111 O 0.25379 0.29541 0.98031
 O1112 O 0.22280 0.28949 0.98234
 O1113 O 0.27255 0.24994 0.95309
 O1114 O 0.26913 0.21838 0.95898
 O1115 O 0.29972 0.26810 0.99880
 O1116 O 0.29397 0.26624 1.02971
 Zr1117 Zr 0.27451 0.26801 1.01002
 O1118 O 0.25907 0.25254 1.02689
 Zr1119 Zr 0.27236 0.23829 0.97814
 O1120 O 0.25709 0.22130 0.99376
 Zr1121 Zr 0.24258 0.27012 0.98040
 O1122 O 0.22578 0.25449 0.99581
 Zr1123 Zr 0.26220 0.22586 1.02045
 O1124 O 0.27927 0.24122 1.00479
 Zr1125 Zr 0.23239 0.25767 1.02236
 O1126 O 0.24791 0.27488 1.00708
 Zr1127 Zr 0.23046 0.22776 0.99060
 O1128 O 0.24565 0.24351 0.97347
 O1129 O 0.26911 0.26483 0.98353
 O1130 O 0.23557 0.23096 1.01723
 C1131 C 0.26693 0.30208 0.98857
 C1132 C 0.30642 0.25962 0.98585
 C1133 C 0.26408 0.26295 0.94644
 C1134 C 0.23726 0.19430 1.01332
 C1135 C 0.23920 0.23230 1.05362
 C1136 C 0.19926 0.23439 1.01606
 H1137 H 0.26235 0.25502 1.03917
 H1138 H 0.21346 0.25777 0.99346
 H1139 H 0.27663 0.27235 0.97609
 H1140 H 0.25955 0.20895 0.99059
 H1141 H 0.29129 0.21060 1.01227
 H1142 H 0.28866 0.20885 0.98299
 H1143 H 0.20542 0.27684 1.01400
 H1144 H 0.22391 0.29474 0.99417
 H1145 H 0.28085 0.23482 1.04780
 H1146 H 0.29893 0.25424 1.02889
 H1147 H 0.20421 0.23956 0.97241
 H1148 H 0.22199 0.25939 0.95580
 H1149 H 0.26399 0.29285 1.03043
 H1150 H 0.24435 0.27643 1.04815
 H1151 H 0.25791 0.22075 0.95289
 H1152 H 0.23920 0.20125 0.97097
 C1153 C 0.28517 0.37617 0.78553
 C1154 C 0.28009 0.37018 0.80222
 C1155 C 0.28663 0.35440 0.80891
 C1156 C 0.29858 0.34428 0.79917
 C1157 C 0.30342 0.35005 0.78236
 C1158 C 0.29673 0.36576 0.77558
 C1159 C 0.27901 0.39353 0.77893
 C1160 C 0.29031 0.40443 0.76922
 C1161 C 0.28497 0.42119 0.76397
 C1162 C 0.26826 0.42756 0.76846
 C1163 C 0.25682 0.41657 0.77786
 C1164 C 0.26209 0.39972 0.78293
 H1165 H 0.28269 0.35040 0.82195
 H1166 H 0.31249 0.34248 0.77446
 H1167 H 0.29416 0.42938 0.75688
 H1168 H 0.24381 0.42103 0.78140
 H1169 H 0.30067 0.36978 0.76255
 H1170 H 0.30353 0.40027 0.76616
 H1171 H 0.27148 0.37796 0.81040
 H1172 H 0.25291 0.39157 0.79008
 C1173 C 0.28826 -0.12132 0.28756
 C1174 C 0.30177 -0.13034 0.27883
 C1175 C 0.30834 -0.14616 0.28545
 C1176 C 0.30139 -0.15358 0.30088
 C1177 C 0.28754 -0.14475 0.30935
 C1178 C 0.28119 -0.12879 0.30287
 C1179 C 0.28187 -0.10402 0.28099
 C1180 C 0.26416 -0.09915 0.28289
 C1181 C 0.25837 -0.08259 0.27745
 C1182 C 0.27006 -0.07064 0.26969
 C1183 C 0.28765 -0.07560 0.26742
 C1184 C 0.29351 -0.09203 0.27313
 H1185 H 0.31887 -0.15254 0.27836
 H1186 H 0.28180 -0.14989 0.32128
 H1187 H 0.24470 -0.07917 0.27925
 H1188 H 0.29701 -0.06656 0.26169
 H1189 H 0.27100 -0.12211 0.31015
 H1190 H 0.25472 -0.10813 0.28854
 H1191 H 0.30729 -0.12523 0.26680
 H1192 H 0.30730 -0.09512 0.27176
 C1193 C 0.78755 0.87844 0.78701
 C1194 C 0.80083 0.86916 0.77820
 C1195 C 0.80741 0.85343 0.78498
 C1196 C 0.80065 0.84631 0.80063
 C1197 C 0.78687 0.85527 0.80908
 C1198 C 0.78054 0.87118 0.80246
 C1199 C 0.78146 0.89585 0.78045
 C1200 C 0.76395 0.90127 0.78265
 C1201 C 0.75853 0.91795 0.77715
 C1202 C 0.77042 0.92945 0.76903
 C1203 C 0.78781 0.92396 0.76650
 C1204 C 0.79330 0.90745 0.77228
 H1205 H 0.81783 0.84691 0.77787
 H1206 H 0.78126 0.85032 0.82115
 H1207 H 0.74501 0.92181 0.77916
 H1208 H 0.79732 0.93263 0.76047
 H1209 H 0.77050 0.87803 0.80978
 H1210 H 0.75436 0.89262 0.78857
 H1211 H 0.80624 0.87405 0.76603
 H1212 H 0.80698 0.90398 0.77071
 C1213 C 0.45962 0.87177 0.28538
 C1214 C 0.46704 0.87876 0.30078
 C1215 C 0.46075 0.89442 0.30798
 C1216 C 0.44662 0.90343 0.30016
 C1217 C 0.43929 0.89647 0.28466
 C1218 C 0.44579 0.88094 0.27732
 C1219 C 0.46602 0.85477 0.27807
 C1220 C 0.45430 0.84285 0.27016
 C1221 C 0.46016 0.82657 0.26402
 C1222 C 0.47783 0.82172 0.26590
 C1223 C 0.48962 0.83366 0.27356
 C1224 C 0.48382 0.85006 0.27943
 H1225 H 0.46679 0.89920 0.31993
 H1226 H 0.42852 0.90300 0.27808
 H1227 H 0.45074 0.81753 0.25835
 H1228 H 0.50334 0.83031 0.27505
 H1229 H 0.43998 0.87617 0.26527
 H1230 H 0.44046 0.84585 0.26916
 H1231 H 0.47748 0.87193 0.30757
 H1232 H 0.49331 0.85902 0.28507
 C1233 C -0.03658 0.87298 0.78675
 C1234 C -0.03146 0.87846 0.80362
 C1235 C -0.03793 0.89407 0.81077
 C1236 C -0.04984 0.90451 0.80131
 C1237 C -0.05472 0.89923 0.78432
 C1238 C -0.04810 0.88370 0.77709
 C1239 C -0.03041 0.85585 0.77958
 C1240 C -0.04171 0.84523 0.76953
 C1241 C -0.03626 0.82874 0.76357
 C1242 C -0.01944 0.82239 0.76766
 C1243 C -0.00804 0.83309 0.77747
 C1244 C -0.01342 0.84966 0.78327
 H1245 H -0.03398 0.89768 0.82393
 H1246 H -0.06376 0.90705 0.77662
 H1247 H -0.04543 0.82074 0.75618
 H1248 H 0.00505 0.82863 0.78075
 H1249 H -0.05206 0.88007 0.76394
 H1250 H -0.05498 0.84940 0.76669
 H1251 H -0.02286 0.87042 0.81157
 H1252 H -0.00425 0.85761 0.79069
 C1253 C -0.03743 -0.12154 -0.03673
 C1254 C -0.05029 -0.13142 -0.02792
 C1255 C -0.05671 -0.14707 -0.03510
 C1256 C -0.05030 -0.15345 -0.05122
 C1257 C -0.03698 -0.14384 -0.05971
 C1258 C -0.03076 -0.12806 -0.05264
 C1259 C -0.03142 -0.10427 -0.02966
 C1260 C -0.01399 -0.09862 -0.03200
 C1261 C -0.00864 -0.08202 -0.02619
 C1262 C -0.02049 -0.07078 -0.01765
 C1263 C -0.03777 -0.07654 -0.01492
 C1264 C -0.04321 -0.09302 -0.02096
 H1265 H -0.06680 -0.15409 -0.02796
 H1266 H -0.03163 -0.14818 -0.07214
 H1267 H 0.00481 -0.07799 -0.02838
 H1268 H -0.04727 -0.06809 -0.00856
 H1269 H -0.02106 -0.12072 -0.05996
 H1270 H -0.00445 -0.10702 -0.03832
 H1271 H -0.05545 -0.12706 -0.01544
 H1272 H -0.05680 -0.09672 -0.01921
 C1273 C -0.03660 0.37774 0.46291
 C1274 C -0.04796 0.36719 0.47293
 C1275 C -0.05428 0.35125 0.46630
 C1276 C -0.04922 0.34539 0.44958
 C1277 C -0.03760 0.35575 0.43970
 C1278 C -0.03145 0.37177 0.44624
 C1279 C -0.03050 0.39510 0.46959
 C1280 C -0.01355 0.40131 0.46573
 C1281 C -0.00813 0.41795 0.47133
 C1282 C -0.01946 0.42870 0.48112
 C1283 C -0.03627 0.42239 0.48528
 C1284 C -0.04176 0.40585 0.47950
 H1285 H -0.06310 0.34351 0.47430
 H1286 H -0.03354 0.35168 0.42671
 H1287 H 0.00495 0.42239 0.46801
 H1288 H -0.04539 0.43044 0.49264
 H1289 H -0.02299 0.37966 0.43801
 H1290 H -0.00441 0.39328 0.45840
 H1291 H -0.05194 0.37120 0.48595
 H1292 H -0.05501 0.40168 0.48245
 C1293 C 0.46418 -0.12496 0.46515
 C1294 C 0.47075 -0.13135 0.44914
 C1295 C 0.46432 -0.14695 0.44190
 C1296 C 0.45090 -0.15649 0.45030
 C1297 C 0.44465 -0.15029 0.46655
 C1298 C 0.45128 -0.13481 0.47390
 C1299 C 0.47023 -0.10772 0.47222
 C1300 C 0.45841 -0.09639 0.48076
 C1301 C 0.46374 -0.07973 0.48637
 C1302 C 0.48096 -0.07389 0.48335
 C1303 C 0.49289 -0.08530 0.47517
 C1304 C 0.48763 -0.10206 0.46980
 H1305 H 0.46957 -0.15117 0.42939
 H1306 H 0.43451 -0.15728 0.47363
 H1307 H 0.45419 -0.07116 0.49248
 H1308 H 0.50630 -0.08122 0.47281
 H1309 H 0.44619 -0.13051 0.48644
 H1310 H 0.44483 -0.10012 0.48260
 H1311 H 0.48048 -0.12401 0.44186
 H1312 H 0.49720 -0.11055 0.46362
 C1313 C 0.46065 0.37873 -0.03836
 C1314 C 0.44777 0.36898 -0.02946
 C1315 C 0.44136 0.35324 -0.03646
 C1316 C 0.44783 0.34666 -0.05249
 C1317 C 0.46091 0.35636 -0.06126
 C1318 C 0.46712 0.37220 -0.05435
 C1319 C 0.46713 0.39575 -0.03117
 C1320 C 0.48472 0.40085 -0.03343
 C1321 C 0.49060 0.41719 -0.02745
 C1322 C 0.47910 0.42873 -0.01882
 C1323 C 0.46164 0.42350 -0.01614
 C1324 C 0.45569 0.40725 -0.02234
 H1325 H 0.43140 0.34621 -0.02917
 H1326 H 0.46623 0.35190 -0.07365
 H1327 H 0.50417 0.42081 -0.02960
 H1328 H 0.45241 0.43220 -0.00972
 H1329 H 0.47678 0.37950 -0.06176
 H1330 H 0.49400 0.39221 -0.03982
 H1331 H 0.44270 0.37342 -0.01697
 H1332 H 0.44199 0.40394 -0.02062
 C1333 C 0.78667 0.37319 0.46537
 C1334 C 0.79837 0.38365 0.47511
 C1335 C 0.80469 0.39948 0.46830
 C1336 C 0.79931 0.40533 0.45167
 C1337 C 0.78723 0.39515 0.44212
 C1338 C 0.78107 0.37922 0.44884
 C1339 C 0.78084 0.35578 0.47206
 C1340 C 0.76381 0.34956 0.46861
 C1341 C 0.75875 0.33272 0.47387
 C1342 C 0.77053 0.32177 0.48289
 C1343 C 0.78738 0.32815 0.48683
 C1344 C 0.79250 0.34492 0.48139
 H1345 H 0.81385 0.40711 0.47606
 H1346 H 0.78291 0.39922 0.42922
 H1347 H 0.74562 0.32823 0.47077
 H1348 H 0.79681 0.31997 0.49362
 H1349 H 0.77231 0.37139 0.44083
 H1350 H 0.75437 0.35769 0.46177
 H1351 H 0.80269 0.37959 0.48802
 H1352 H 0.80581 0.34913 0.48403
 C1353 C 0.78845 0.87348 -0.03592
 C1354 C 0.80157 0.88310 -0.02720
 C1355 C 0.80827 0.89857 -0.03442
 C1356 C 0.80182 0.90508 -0.05048
 C1357 C 0.78831 0.89568 -0.05896
 C1358 C 0.78185 0.88004 -0.05186
 C1359 C 0.78210 0.85641 -0.02876
 C1360 C 0.76458 0.85104 -0.03111
 C1361 C 0.75899 0.83451 -0.02538
 C1362 C 0.77070 0.82309 -0.01688
 C1363 C 0.78804 0.82864 -0.01399
 C1364 C 0.79371 0.84502 -0.01998
 H1365 H 0.81849 0.90543 -0.02730
 H1366 H 0.78296 0.90013 -0.07135
 H1367 H 0.74552 0.83061 -0.02769
 H1368 H 0.79744 0.82002 -0.00770
 H1369 H 0.77197 0.87287 -0.05914
 H1370 H 0.75517 0.85957 -0.03747
 H1371 H 0.80671 0.87870 -0.01471
 H1372 H 0.80737 0.84849 -0.01822
 C1373 C 0.78547 0.28556 0.37613
 C1374 C 0.77552 0.29710 0.36570
 C1375 C 0.78222 0.30358 0.34991
 C1376 C 0.79896 0.29853 0.34408
 C1377 C 0.80873 0.28665 0.35426
 C1378 C 0.80212 0.28033 0.37014
 C1379 C 0.77884 0.27949 0.39346
 C1380 C 0.78268 0.26249 0.39964
 C1381 C 0.77743 0.25723 0.41639
 C1382 C 0.76802 0.26875 0.42729
 C1383 C 0.76373 0.28555 0.42095
 C1384 C 0.76916 0.29089 0.40428
 H1385 H 0.77429 0.31259 0.34230
 H1386 H 0.82171 0.28258 0.35021
 H1387 H 0.78082 0.24414 0.42084
 H1388 H 0.75664 0.29481 0.42908
 H1389 H 0.81029 0.27172 0.37794
 H1390 H 0.78980 0.25324 0.39155
 H1391 H 0.76253 0.30115 0.36972
 H1392 H 0.76622 0.30417 0.40012
 C1393 C 0.78670 0.78837 -0.12286
 C1394 C 0.77788 0.80164 -0.13220
 C1395 C 0.78482 0.80836 -0.14776
 C1396 C 0.80065 0.80179 -0.15465
 C1397 C 0.80916 0.78808 -0.14560
 C1398 C 0.80236 0.78159 -0.12986
 C1399 C 0.77993 0.78210 -0.10563
 C1400 C 0.78225 0.76453 -0.10030
 C1401 C 0.77681 0.75899 -0.08369
 C1402 C 0.76863 0.77080 -0.07214
 C1403 C 0.76586 0.78821 -0.07760
 C1404 C 0.77157 0.79382 -0.09407
 H1405 H 0.77767 0.81873 -0.15436
 H1406 H 0.82137 0.78261 -0.15035
 H1407 H 0.77901 0.74546 -0.07987
 H1408 H 0.75981 0.79769 -0.06890
 H1409 H 0.80970 0.77158 -0.12294
 H1410 H 0.78831 0.75502 -0.10895
 H1411 H 0.76557 0.80690 -0.12748
 H1412 H 0.76987 0.80752 -0.09748
 C1413 C 0.28471 0.46272 0.87488
 C1414 C 0.30152 0.46806 0.88035
 C1415 C 0.30885 0.46149 0.89580
 C1416 C 0.29966 0.44925 0.90609
 C1417 C 0.28277 0.44405 0.90077
 C1418 C 0.27535 0.45078 0.88540
 C1419 C 0.27735 0.46910 0.85794
 C1420 C 0.26749 0.45779 0.84714
 C1421 C 0.26165 0.46337 0.83068
 C1422 C 0.26569 0.48031 0.82454
 C1423 C 0.27514 0.49177 0.83550
 C1424 C 0.28080 0.48627 0.85204
 H1425 H 0.32193 0.46569 0.89944
 H1426 H 0.27528 0.43475 0.90848
 H1427 H 0.25452 0.45416 0.82249
 H1428 H 0.27834 0.50496 0.83121
 H1429 H 0.26227 0.44661 0.88176
 H1430 H 0.26480 0.44440 0.85111
 H1431 H 0.30927 0.47696 0.87244
 H1432 H 0.28802 0.49546 0.86015
 C1433 C 0.28467 -0.03657 0.37386
 C1434 C 0.30121 -0.03083 0.37973
 C1435 C 0.30811 -0.03685 0.39561
 C1436 C 0.29874 -0.04891 0.40593
 C1437 C 0.28210 -0.05447 0.40022
 C1438 C 0.27512 -0.04832 0.38440
 C1439 C 0.27772 -0.03067 0.35658
 C1440 C 0.26834 -0.04232 0.34570
 C1441 C 0.26260 -0.03702 0.32910
 C1442 C 0.26626 -0.02001 0.32292
 C1443 C 0.27537 -0.00828 0.33389
 C1444 C 0.28093 -0.01351 0.35055
 H1445 H 0.32103 -0.03239 0.39953
 H1446 H 0.27448 -0.06367 0.40792
 H1447 H 0.25574 -0.04642 0.32090
 H1448 H 0.27826 0.00498 0.32959
 H1449 H 0.26222 -0.05277 0.38044
 H1450 H 0.26586 -0.05572 0.34979
 H1451 H 0.30909 -0.02203 0.37184
 H1452 H 0.28779 -0.00407 0.35869
 C1453 C -0.03793 -0.03923 -0.11949
 C1454 C -0.05376 -0.03269 -0.12635
 C1455 C -0.06046 -0.03906 -0.14218
 C1456 C -0.05167 -0.05239 -0.15152
 C1457 C -0.03580 -0.05892 -0.14463
 C1458 C -0.02898 -0.05233 -0.12893
 C1459 C -0.03100 -0.03267 -0.10242
 C1460 C -0.02231 -0.04411 -0.09082
 C1461 C -0.01627 -0.03811 -0.07457
 C1462 C -0.01902 -0.02060 -0.06943
 C1463 C -0.02758 -0.00910 -0.08101
 C1464 C -0.03337 -0.01502 -0.09738
 H1465 H -0.07275 -0.03368 -0.14689
 H1466 H -0.02849 -0.06906 -0.15140
 H1467 H -0.00993 -0.04734 -0.06581
 H1468 H -0.02979 0.00450 -0.07743
 H1469 H -0.01658 -0.05745 -0.12426
 H1470 H -0.02054 -0.05785 -0.09405
 H1471 H -0.06122 -0.02286 -0.11931
 H1472 H -0.03967 -0.00574 -0.10609
 C1473 C -0.03674 0.46271 0.37846
 C1474 C -0.05226 0.46968 0.37132
 C1475 C -0.05878 0.46359 0.35529
 C1476 C -0.05015 0.45008 0.34606
 C1477 C -0.03451 0.44323 0.35315
 C1478 C -0.02784 0.44956 0.36904
 C1479 C -0.03015 0.46880 0.39586
 C1480 C -0.02185 0.45699 0.40740
 C1481 C -0.01610 0.46254 0.42390
 C1482 C -0.01875 0.47996 0.42940
 C1483 C -0.02698 0.49181 0.41793
 C1484 C -0.03246 0.48634 0.40129
 H1485 H -0.07087 0.46925 0.35042
 H1486 H -0.02729 0.43297 0.34646
 H1487 H -0.01001 0.45305 0.43256
 H1488 H -0.02908 0.50535 0.42179
 H1489 H -0.01565 0.44414 0.37389
 H1490 H -0.02017 0.44331 0.40389
 H1491 H -0.05968 0.47958 0.37830
 H1492 H -0.03845 0.49592 0.39267
 C1493 C 0.46409 -0.03912 0.37741
 C1494 C 0.44735 -0.03354 0.37199
 C1495 C 0.43993 -0.03991 0.35648
 C1496 C 0.44897 -0.05218 0.34610
 C1497 C 0.46576 -0.05766 0.35140
 C1498 C 0.47327 -0.05114 0.36683
 C1499 C 0.47161 -0.03282 0.39430
 C1500 C 0.48130 -0.04425 0.40510
 C1501 C 0.48735 -0.03869 0.42150
 C1502 C 0.48370 -0.02163 0.42755
 C1503 C 0.47444 -0.01005 0.41658
 C1504 C 0.46856 -0.01555 0.40011
 H1505 H 0.42692 -0.03549 0.35285
 H1506 H 0.47313 -0.06699 0.34362
 H1507 H 0.49432 -0.04797 0.42971
 H1508 H 0.47155 0.00323 0.42081
 H1509 H 0.48629 -0.05551 0.37045
 H1510 H 0.48368 -0.05772 0.40117
 H1511 H 0.43975 -0.02456 0.37995
 H1512 H 0.46149 -0.00628 0.39199
 C1513 C 0.46329 0.46067 -0.12167
 C1514 C 0.44782 0.46789 -0.12869
 C1515 C 0.44092 0.46169 -0.14451
 C1516 C 0.44911 0.44785 -0.15365
 C1517 C 0.46469 0.44075 -0.14667
 C1518 C 0.47173 0.44715 -0.13098
 C1519 C 0.47032 0.46693 -0.10452
 C1520 C 0.47835 0.45513 -0.09278
 C1521 C 0.48436 0.46088 -0.07643
 C1522 C 0.48224 0.47848 -0.07132
 C1523 C 0.47439 0.49033 -0.08305
 C1524 C 0.46864 0.48466 -0.09952
 H1525 H 0.42889 0.46755 -0.14930
 H1526 H 0.47157 0.43021 -0.15330
 H1527 H 0.49017 0.45140 -0.06756
 H1528 H 0.47271 0.50402 -0.07951
 H1529 H 0.48385 0.44151 -0.12620
 H1530 H 0.47958 0.44133 -0.09599
 H1531 H 0.44076 0.47808 -0.12176
 H1532 H 0.46288 0.49421 -0.10832
 C1533 C 0.46232 0.78987 0.36914
 C1534 C 0.44569 0.78457 0.37513
 C1535 C 0.43926 0.79051 0.39122
 C1536 C 0.44920 0.80205 0.40165
 C1537 C 0.46579 0.80742 0.39567
 C1538 C 0.47230 0.80134 0.37964
 C1539 C 0.46907 0.78358 0.35195
 C1540 C 0.47886 0.79479 0.34103
 C1541 C 0.48473 0.78903 0.32464
 C1542 C 0.48079 0.77197 0.31872
 C1543 C 0.47118 0.76070 0.32969
 C1544 C 0.46548 0.76640 0.34614
 H1545 H 0.42637 0.78622 0.39537
 H1546 H 0.47384 0.81621 0.40344
 H1547 H 0.49195 0.79810 0.31642
 H1548 H 0.46804 0.74744 0.32557
 H1549 H 0.48526 0.80548 0.37558
 H1550 H 0.48164 0.80819 0.34494
 H1551 H 0.43749 0.77604 0.36725
 H1552 H 0.45829 0.75729 0.35434
 C1553 C -0.03770 0.79120 0.86973
 C1554 C -0.05326 0.78430 0.87681
 C1555 C -0.05989 0.79059 0.89268
 C1556 C -0.05133 0.80423 0.90183
 C1557 C -0.03577 0.81119 0.89468
 C1558 C -0.02899 0.80466 0.87894
 C1559 C -0.03078 0.78458 0.85268
 C1560 C -0.02236 0.79603 0.84089
 C1561 C -0.01634 0.78994 0.82469
 C1562 C -0.01885 0.77233 0.81975
 C1563 C -0.02714 0.76082 0.83151
 C1564 C -0.03288 0.76683 0.84784
 H1565 H -0.07195 0.78488 0.89757
 H1566 H -0.02865 0.82159 0.90129
 H1567 H -0.01021 0.79918 0.81579
 H1568 H -0.02914 0.74714 0.82808
 H1569 H -0.01680 0.81009 0.87409
 H1570 H -0.02080 0.80984 0.84395
 H1571 H -0.06056 0.77421 0.86995
 H1572 H -0.03894 0.75752 0.85669
 C1573 C 0.37800 0.78711 0.28680
 C1574 C 0.37209 0.80384 0.28164
 C1575 C 0.35635 0.81062 0.28813
 C1576 C 0.34622 0.80091 0.30008
 C1577 C 0.35200 0.78411 0.30511
 C1578 C 0.36766 0.77726 0.29849
 C1579 C 0.39509 0.78021 0.28037
 C1580 C 0.40608 0.77043 0.29152
 C1581 C 0.42247 0.76460 0.28574
 C1582 C 0.42832 0.76856 0.26873
 C1583 C 0.41726 0.77813 0.25749
 C1584 C 0.40080 0.78379 0.26321
 H1585 H 0.35235 0.82365 0.28407
 H1586 H 0.34443 0.77623 0.31419
 H1587 H 0.43075 0.75742 0.29479
 H1588 H 0.42134 0.78130 0.24427
 H1589 H 0.37164 0.76421 0.30250
 H1590 H 0.40226 0.76768 0.30491
 H1591 H 0.37984 0.81193 0.27292
 H1592 H 0.39255 0.79100 0.25416
 C1593 C -0.12146 0.78860 0.78776
 C1594 C -0.12759 0.80526 0.78261
 C1595 C -0.14347 0.81177 0.78900
 C1596 C -0.15354 0.80189 0.80087
 C1597 C -0.14754 0.78518 0.80592
 C1598 C -0.13174 0.77857 0.79936
 C1599 C -0.10423 0.78196 0.78141
 C1600 C -0.09328 0.77214 0.79255
 C1601 C -0.07687 0.76637 0.78682
 C1602 C -0.07091 0.77044 0.76987
 C1603 C -0.08186 0.78017 0.75867
 C1604 C -0.09837 0.78576 0.76433
 H1605 H -0.14765 0.82475 0.78494
 H1606 H -0.15506 0.77717 0.81492
 H1607 H -0.06866 0.75907 0.79585
 H1608 H -0.07769 0.78343 0.74549
 H1609 H -0.12761 0.76556 0.80335
 H1610 H -0.09717 0.76925 0.80589
 H1611 H -0.11990 0.81350 0.77397
 H1612 H -0.10657 0.79302 0.75528
 C1613 C 0.87443 0.28423 0.46300
 C1614 C 0.88500 0.27450 0.45141
 C1615 C 0.90061 0.28158 0.44487
 C1616 C 0.90613 0.29848 0.44990
 C1617 C 0.89580 0.30805 0.46180
 C1618 C 0.88011 0.30106 0.46819
 C1619 C 0.85729 0.27719 0.46920
 C1620 C 0.85120 0.28092 0.48620
 C1621 C 0.83456 0.27540 0.49156
 C1622 C 0.82369 0.26582 0.48012
 C1623 C 0.82999 0.26155 0.46334
 C1624 C 0.84655 0.26724 0.45791
 H1625 H 0.90833 0.27380 0.43584
 H1626 H 0.89960 0.32116 0.46586
 H1627 H 0.83014 0.27879 0.50462
 H1628 H 0.82188 0.25433 0.45415
 H1629 H 0.87219 0.30908 0.47683
 H1630 H 0.85924 0.28822 0.49537
 H1631 H 0.88122 0.26139 0.44738
 H1632 H 0.85066 0.26435 0.44464
 C1633 C 0.87373 0.78652 -0.03792
 C1634 C 0.88478 0.79708 -0.02751
 C1635 C 0.90015 0.80426 -0.03446
 C1636 C 0.90497 0.80087 -0.05191
 C1637 C 0.89423 0.78990 -0.06217
 C1638 C 0.87875 0.78290 -0.05529
 C1639 C 0.85668 0.77999 -0.03097
 C1640 C 0.84998 0.76350 -0.03606
 C1641 C 0.83342 0.75797 -0.03039
 C1642 C 0.82329 0.76870 -0.01935
 C1643 C 0.83019 0.78495 -0.01389
 C1644 C 0.84661 0.79056 -0.01971
 H1645 H 0.90824 0.81250 -0.02615
 H1646 H 0.89751 0.78710 -0.07569
 H1647 H 0.82851 0.74533 -0.03475
 H1648 H 0.82266 0.79365 -0.00554
 H1649 H 0.87045 0.77509 -0.06380
 H1650 H 0.85749 0.75488 -0.04448
 H1651 H 0.88153 0.79985 -0.01397
 H1652 H 0.85115 0.80347 -0.01579
 C1653 C -0.12254 -0.03568 -0.03715
 C1654 C -0.13165 -0.02695 -0.05063
 C1655 C -0.14736 -0.03375 -0.05727
 C1656 C -0.15456 -0.04937 -0.05043
 C1657 C -0.14573 -0.05772 -0.03649
 C1658 C -0.12989 -0.05107 -0.03008
 C1659 C -0.10518 -0.02915 -0.03089
 C1660 C -0.10001 -0.03129 -0.01328
 C1661 C -0.08333 -0.02606 -0.00769
 C1662 C -0.07156 -0.01824 -0.01948
 C1663 C -0.07680 -0.01571 -0.03696
 C1664 C -0.09334 -0.02123 -0.04263
 H1665 H -0.15377 -0.02675 -0.06785
 H1666 H -0.15072 -0.06977 -0.03079
 H1667 H -0.07969 -0.02803 0.00590
 H1668 H -0.06791 -0.00991 -0.04640
 H1669 H -0.12317 -0.05835 -0.01991
 H1670 H -0.10886 -0.03700 -0.00376
 H1671 H -0.12664 -0.01484 -0.05613
 H1672 H -0.09663 -0.01969 -0.05635
 C1673 C -0.12184 0.46314 0.46329
 C1674 C -0.12796 0.44644 0.46830
 C1675 C -0.14403 0.44012 0.46214
 C1676 C -0.15429 0.45024 0.45063
 C1677 C -0.14828 0.46698 0.44570
 C1678 C -0.13230 0.47340 0.45204
 C1679 C -0.10444 0.46959 0.46942
 C1680 C -0.09364 0.47951 0.45823
 C1681 C -0.07707 0.48508 0.46374
 C1682 C -0.07079 0.48068 0.48051
 C1683 C -0.08159 0.47086 0.49176
 C1684 C -0.09826 0.46548 0.48632
 H1685 H -0.14820 0.42710 0.46610
 H1686 H -0.15595 0.47516 0.43696
 H1687 H -0.06899 0.49247 0.45468
 H1688 H -0.07717 0.46737 0.50481
 H1689 H -0.12817 0.48645 0.44815
 H1690 H -0.09780 0.48264 0.44501
 H1691 H -0.12015 0.43803 0.47667
 H1692 H -0.10633 0.45814 0.49541
 C1693 C 0.37745 -0.03553 0.46253
 C1694 C 0.36802 -0.02674 0.44932
 C1695 C 0.35226 -0.03361 0.44290
 C1696 C 0.34530 -0.04936 0.44972
 C1697 C 0.35456 -0.05790 0.46326
 C1698 C 0.37045 -0.05116 0.46945
 C1699 C 0.39475 -0.02878 0.46868
 C1700 C 0.40013 -0.03103 0.48621
 C1701 C 0.41684 -0.02572 0.49164
 C1702 C 0.42844 -0.01775 0.47977
 C1703 C 0.42291 -0.01498 0.46241
 C1704 C 0.40633 -0.02055 0.45690
 H1705 H 0.34553 -0.02647 0.43262
 H1706 H 0.34979 -0.07006 0.46889
 H1707 H 0.42071 -0.02791 0.50514
 H1708 H 0.43164 -0.00907 0.45289
 H1709 H 0.37746 -0.05851 0.47938
 H1710 H 0.39146 -0.03695 0.49576
 H1711 H 0.37278 -0.01448 0.44392
 H1712 H 0.40285 -0.01889 0.44324
 C1713 C 0.37892 0.46271 -0.03844
 C1714 C 0.36935 0.47134 -0.05164
 C1715 C 0.35351 0.46441 -0.05777
 C1716 C 0.34664 0.44873 -0.05071
 C1717 C 0.35607 0.44032 -0.03721
 C1718 C 0.37203 0.44714 -0.03128
 C1719 C 0.39618 0.46968 -0.03241
 C1720 C 0.40143 0.46789 -0.01481
 C1721 C 0.41797 0.47363 -0.00934
 C1722 C 0.42955 0.48156 -0.02127
 C1723 C 0.42419 0.48379 -0.03875
 C1724 C 0.40774 0.47781 -0.04429
 H1725 H 0.34668 0.47144 -0.06806
 H1726 H 0.35137 0.42821 -0.03141
 H1727 H 0.42169 0.47185 0.00426
 H1728 H 0.43292 0.48967 -0.04829
 H1729 H 0.37916 0.43994 -0.02132
 H1730 H 0.39276 0.46207 -0.00520
 H1731 H 0.37405 0.48354 -0.05722
 H1732 H 0.40432 0.47914 -0.05800
 C1733 C 0.37181 0.46399 0.78871
 C1734 C 0.37752 0.44730 0.78321
 C1735 C 0.39321 0.44024 0.78951
 C1736 C 0.40350 0.44961 0.80164
 C1737 C 0.39793 0.46637 0.80701
 C1738 C 0.38232 0.47352 0.80055
 C1739 C 0.35468 0.47111 0.78258
 C1740 C 0.34392 0.48079 0.79402
 C1741 C 0.32739 0.48660 0.78862
 C1742 C 0.32115 0.48271 0.77171
 C1743 C 0.33202 0.47336 0.76014
 C1744 C 0.34863 0.46773 0.76547
 H1745 H 0.39706 0.42724 0.78519
 H1746 H 0.40563 0.47400 0.81622
 H1747 H 0.31927 0.49363 0.79792
 H1748 H 0.32764 0.47027 0.74697
 H1749 H 0.37851 0.48654 0.80483
 H1750 H 0.34799 0.48340 0.80738
 H1751 H 0.36963 0.43943 0.77437
 H1752 H 0.35670 0.46063 0.75619
 C1753 C 0.36983 -0.03673 0.28961
 C1754 C 0.37562 -0.05327 0.28375
 C1755 C 0.39143 -0.06031 0.28976
 C1756 C 0.40178 -0.05108 0.30194
 C1757 C 0.39607 -0.03450 0.30775
 C1758 C 0.38032 -0.02737 0.30160
 C1759 C 0.35276 -0.02949 0.28348
 C1760 C 0.34180 -0.02010 0.29498
 C1761 C 0.32537 -0.01410 0.28941
 C1762 C 0.31949 -0.01751 0.27228
 C1763 C 0.33057 -0.02659 0.26069
 C1764 C 0.34704 -0.03241 0.26618
 H1765 H 0.39536 -0.07318 0.28512
 H1766 H 0.40379 -0.02699 0.31704
 H1767 H 0.31707 -0.00727 0.29870
 H1768 H 0.32648 -0.02928 0.24735
 H1769 H 0.37641 -0.01449 0.30618
 H1770 H 0.34566 -0.01783 0.30846
 H1771 H 0.36774 -0.06101 0.27479
 H1772 H 0.35528 -0.03925 0.25686
 C1773 C 0.12695 0.53646 0.71406
 C1774 C 0.12106 0.53177 0.69719
 C1775 C 0.10502 0.53797 0.69083
 C1776 C 0.09457 0.54919 0.70107
 C1777 C 0.10032 0.55373 0.71799
 C1778 C 0.11625 0.54734 0.72445
 C1779 C 0.14437 0.53045 0.72057
 C1780 C 0.15480 0.54156 0.73103
 C1781 C 0.17132 0.53615 0.73681
 C1782 C 0.17795 0.51958 0.73210
 C1783 C 0.16756 0.50842 0.72169
 C1784 C 0.15092 0.51374 0.71609
 H1785 H 0.10102 0.53432 0.67768
 H1786 H 0.09249 0.56221 0.72627
 H1787 H 0.17907 0.54514 0.74465
 H1788 H 0.17226 0.49553 0.71794
 H1789 H 0.12016 0.55093 0.73763
 H1790 H 0.15039 0.55464 0.73444
 H1791 H 0.12905 0.52367 0.68869
 H1792 H 0.14315 0.50471 0.70833
 C1793 C 0.12523 0.03513 0.21411
 C1794 C 0.11847 0.05099 0.22072
 C1795 C 0.10277 0.05792 0.21426
 C1796 C 0.09349 0.04932 0.20075
 C1797 C 0.10016 0.03329 0.19433
 C1798 C 0.11571 0.02624 0.20101
 C1799 C 0.14242 0.02823 0.22039
 C1800 C 0.15392 0.01971 0.20873
 C1801 C 0.17041 0.01403 0.21434
 C1802 C 0.17594 0.01695 0.23167
 C1803 C 0.16442 0.02521 0.24343
 C1804 C 0.14780 0.03065 0.23790
 H1805 H 0.09820 0.07028 0.21962
 H1806 H 0.09340 0.02608 0.18409
 H1807 H 0.17908 0.00789 0.20490
 H1808 H 0.16828 0.02753 0.25691
 H1809 H 0.12028 0.01380 0.19586
 H1810 H 0.15043 0.01791 0.19508
 H1811 H 0.12554 0.05838 0.23059
 H1812 H 0.13919 0.03682 0.24735
 C1813 C 0.62248 0.71543 0.21171
 C1814 C 0.62807 0.69869 0.21719
 C1815 C 0.64365 0.69147 0.21081
 C1816 C 0.65393 0.70073 0.19864
 C1817 C 0.64850 0.71756 0.19333
 C1818 C 0.63301 0.72486 0.19985
 C1819 C 0.60542 0.72268 0.21783
 C1820 C 0.59464 0.73233 0.20636
 C1821 C 0.57811 0.73814 0.21173
 C1822 C 0.57190 0.73428 0.22864
 C1823 C 0.58282 0.72503 0.24026
 C1824 C 0.59943 0.71939 0.23496
 H1825 H 0.64740 0.67843 0.21509
 H1826 H 0.65621 0.72511 0.18408
 H1827 H 0.56995 0.74511 0.20241
 H1828 H 0.57847 0.72197 0.25342
 H1829 H 0.62928 0.73791 0.19559
 H1830 H 0.59869 0.73488 0.19300
 H1831 H 0.62016 0.69091 0.22605
 H1832 H 0.60752 0.71232 0.24426
 C1833 C 0.12242 0.71421 0.71222
 C1834 C 0.12775 0.71802 0.69498
 C1835 C 0.14339 0.71118 0.68833
 C1836 C 0.15399 0.70019 0.69868
 C1837 C 0.14885 0.69659 0.71599
 C1838 C 0.13331 0.70361 0.72272
 C1839 C 0.10525 0.72063 0.71893
 C1840 C 0.09497 0.70992 0.72989
 C1841 C 0.07847 0.71548 0.73551
 C1842 C 0.07170 0.73181 0.73016
 C1843 C 0.08203 0.74266 0.71942
 C1844 C 0.09866 0.73717 0.71395
 H1845 H 0.14692 0.71413 0.67490
 H1846 H 0.15682 0.68832 0.72436
 H1847 H 0.07078 0.70671 0.74364
 H1848 H 0.07724 0.75536 0.71516
 H1849 H 0.12982 0.70068 0.73616
 H1850 H 0.09943 0.69698 0.73372
 H1851 H 0.11958 0.72588 0.68641
 H1852 H 0.10633 0.74589 0.70577
 C1853 C 0.62967 0.21242 0.53763
 C1854 C 0.61914 0.22238 0.54904
 C1855 C 0.60330 0.21563 0.55536
 C1856 C 0.59755 0.19882 0.55028
 C1857 C 0.60791 0.18898 0.53864
 C1858 C 0.62382 0.19566 0.53247
 C1859 C 0.64686 0.21927 0.53142
 C1860 C 0.65279 0.21558 0.51436
 C1861 C 0.66931 0.22123 0.50882
 C1862 C 0.68023 0.23089 0.52015
 C1863 C 0.67416 0.23495 0.53706
 C1864 C 0.65770 0.22914 0.54267
 H1865 H 0.59556 0.22361 0.56421
 H1866 H 0.60394 0.17593 0.53456
 H1867 H 0.67355 0.21799 0.49566
 H1868 H 0.68233 0.24222 0.54617
 H1869 H 0.63172 0.18748 0.52396
 H1870 H 0.64465 0.20831 0.50524
 H1871 H 0.62308 0.23546 0.55305
 H1872 H 0.65370 0.23198 0.55598
 C1873 C 0.62900 0.71366 0.03654
 C1874 C 0.62288 0.69706 0.03114
 C1875 C 0.60684 0.69057 0.03717
 C1876 C 0.59660 0.70042 0.04892
 C1877 C 0.60261 0.71707 0.05422
 C1878 C 0.61857 0.72365 0.04803
 C1879 C 0.64636 0.72030 0.03054
 C1880 C 0.65721 0.72995 0.04196
 C1881 C 0.67376 0.73569 0.03654
 C1882 C 0.67993 0.73175 0.01963
 C1883 C 0.66905 0.72223 0.00815
 C1884 C 0.65242 0.71667 0.01351
 H1885 H 0.60267 0.67764 0.03292
 H1886 H 0.59497 0.72505 0.06315
 H1887 H 0.68189 0.74283 0.04577
 H1888 H 0.67337 0.71909 -0.00501
 H1889 H 0.62270 0.73661 0.05222
 H1890 H 0.65313 0.73272 0.05527
 H1891 H 0.63068 0.68886 0.02256
 H1892 H 0.64430 0.70955 0.00425
 C1893 C 0.12255 0.03620 0.03841
 C1894 C 0.13234 0.04864 0.02890
 C1895 C 0.14815 0.05520 0.03550
 C1896 C 0.15483 0.04927 0.05168
 C1897 C 0.14531 0.03635 0.06088
 C1898 C 0.12934 0.03004 0.05442
 C1899 C 0.10507 0.03019 0.03196
 C1900 C 0.09907 0.01298 0.03520
 C1901 C 0.08231 0.00771 0.02983
 C1902 C 0.07131 0.01944 0.02082
 C1903 C 0.07740 0.03649 0.01727
 C1904 C 0.09399 0.04185 0.02289
 H1905 H 0.15510 0.06494 0.02782
 H1906 H 0.14990 0.03138 0.07339
 H1907 H 0.07799 -0.00555 0.03265
 H1908 H 0.06912 0.04592 0.01057
 H1909 H 0.12209 0.02068 0.06227
 H1910 H 0.10733 0.00352 0.04185
 H1911 H 0.12780 0.05338 0.01631
 H1912 H 0.09790 0.05531 0.02050
 C1913 C 0.12304 0.53660 0.53748
 C1914 C 0.13402 0.54740 0.52731
 C1915 C 0.14953 0.55426 0.53434
 C1916 C 0.15453 0.55033 0.55163
 C1917 C 0.14380 0.53917 0.56166
 C1918 C 0.12821 0.53248 0.55471
 C1919 C 0.10595 0.53022 0.53045
 C1920 C 0.09941 0.51355 0.53508
 C1921 C 0.08282 0.50810 0.52942
 C1922 C 0.07247 0.51909 0.51883
 C1923 C 0.07921 0.53553 0.51378
 C1924 C 0.09570 0.54105 0.51959
 H1925 H 0.15759 0.56268 0.52621
 H1926 H 0.14721 0.53596 0.57507
 H1927 H 0.07805 0.49531 0.53345
 H1928 H 0.07151 0.54440 0.50577
 H1929 H 0.11996 0.52447 0.56305
 H1930 H 0.10707 0.50472 0.54315
 H1931 H 0.13064 0.55059 0.51389
 H1932 H 0.10014 0.55408 0.51600
 C1933 C 0.62254 0.03573 0.53717
 C1934 C 0.62837 0.05243 0.53177
 C1935 C 0.64423 0.05927 0.53795
 C1936 C 0.65456 0.04966 0.54982
 C1937 C 0.64886 0.03289 0.55506
 C1938 C 0.63308 0.02598 0.54875
 C1939 C 0.60534 0.02877 0.53107
 C1940 C 0.59452 0.01910 0.54248
 C1941 C 0.57804 0.01321 0.53698
 C1942 C 0.57192 0.01699 0.52001
 C1943 C 0.58283 0.02642 0.50852
 C1944 C 0.59937 0.03215 0.51395
 H1945 H 0.64817 0.07228 0.53374
 H1946 H 0.65658 0.02509 0.56409
 H1947 H 0.56988 0.00612 0.54621
 H1948 H 0.57856 0.02943 0.49531
 H1949 H 0.62917 0.01296 0.55293
 H1950 H 0.59856 0.01650 0.55584
 H1951 H 0.62046 0.06044 0.52310
 H1952 H 0.60749 0.03925 0.50471
 C1953 C 0.62323 0.53573 0.03724
 C1954 C 0.62883 0.55255 0.03200
 C1955 C 0.64433 0.55978 0.03865
 C1956 C 0.65451 0.55046 0.05087
 C1957 C 0.64908 0.53355 0.05594
 C1958 C 0.63368 0.52624 0.04914
 C1959 C 0.60625 0.52846 0.03083
 C1960 C 0.59544 0.51856 0.04205
 C1961 C 0.57902 0.51265 0.03642
 C1962 C 0.57290 0.51664 0.01950
 C1963 C 0.58384 0.52618 0.00813
 C1964 C 0.60035 0.53193 0.01369
 H1965 H 0.64808 0.57288 0.03454
 H1966 H 0.65671 0.52595 0.06521
 H1967 H 0.57085 0.50547 0.04557
 H1968 H 0.57956 0.52937 -0.00504
 H1969 H 0.62996 0.51313 0.05322
 H1970 H 0.59939 0.51587 0.05543
 H1971 H 0.62099 0.56039 0.02311
 H1972 H 0.60846 0.53919 0.00457
 C1973 C 0.03380 0.03597 0.12517
 C1974 C 0.02528 0.04948 0.13443
 C1975 C 0.03235 0.05613 0.14999
 C1976 C 0.04802 0.04922 0.15697
 C1977 C 0.05612 0.03515 0.14809
 C1978 C 0.04921 0.02876 0.13233
 C1979 C 0.02708 0.03000 0.10778
 C1980 C 0.02915 0.01245 0.10225
 C1981 C 0.02389 0.00723 0.08546
 C1982 C 0.01612 0.01934 0.07394
 C1983 C 0.01354 0.03671 0.07960
 C1984 C 0.01910 0.04202 0.09624
 H1985 H 0.02549 0.06676 0.15648
 H1986 H 0.06818 0.02940 0.15293
 H1987 H 0.02593 -0.00628 0.08147
 H1988 H 0.00780 0.04640 0.07092
 H1989 H 0.05632 0.01854 0.12550
 H1990 H 0.03490 0.00273 0.11087
 H1991 H 0.01313 0.05506 0.12963
 H1992 H 0.01761 0.05571 0.09979
 C1993 C 0.03482 0.53547 0.62425
 C1994 C 0.04596 0.52528 0.63489
 C1995 C 0.05256 0.53200 0.65064
 C1996 C 0.04798 0.54897 0.65627
 C1997 C 0.03642 0.55897 0.64595
 C1998 C 0.03001 0.55235 0.63008
 C1999 C 0.02884 0.52885 0.60685
 C2000 C 0.01214 0.53318 0.60026
 C2001 C 0.00703 0.52784 0.58346
 C2002 C 0.01840 0.51785 0.57295
 C2003 C 0.03489 0.51312 0.57969
 C2004 C 0.04009 0.51864 0.59637
 H2005 H 0.06129 0.52389 0.65839
 H2006 H 0.03271 0.57214 0.64986
 H2007 H -0.00581 0.53160 0.57868
 H2008 H 0.04405 0.50560 0.57185
 H2009 H 0.02171 0.56070 0.62214
 H2010 H 0.00301 0.54074 0.60807
 H2011 H 0.04966 0.51210 0.63103
 H2012 H 0.05316 0.51533 0.60082
 C2013 C 0.53769 0.03749 0.62128
 C2014 C 0.52873 0.05066 0.63059
 C2015 C 0.53535 0.05712 0.64643
 C2016 C 0.55103 0.05041 0.65359
 C2017 C 0.55973 0.03687 0.64448
 C2018 C 0.55323 0.03061 0.62849
 C2019 C 0.53108 0.03126 0.60394
 C2020 C 0.53321 0.01363 0.59874
 C2021 C 0.52759 0.00799 0.58221
 C2022 C 0.51945 0.01977 0.57058
 C2023 C 0.51700 0.03729 0.57585
 C2024 C 0.52286 0.04299 0.59227
 H2025 H 0.52806 0.06739 0.65302
 H2026 H 0.57184 0.03132 0.64943
 H2027 H 0.52957 -0.00562 0.57854
 H2028 H 0.51098 0.04673 0.56709
 H2029 H 0.56066 0.02067 0.62159
 H2030 H 0.53916 0.00413 0.60747
 H2031 H 0.51652 0.05599 0.62568
 H2032 H 0.52130 0.05673 0.59562
 C2033 C 0.53558 0.53628 0.12292
 C2034 C 0.52573 0.54785 0.13340
 C2035 C 0.53259 0.55439 0.14911
 C2036 C 0.54940 0.54938 0.15481
 C2037 C 0.55907 0.53747 0.14458
 C2038 C 0.55228 0.53108 0.12878
 C2039 C 0.52877 0.53015 0.10566
 C2040 C 0.53246 0.51309 0.09956
 C2041 C 0.52708 0.50776 0.08285
 C2042 C 0.51770 0.51929 0.07192
 C2043 C 0.51354 0.53615 0.07821
 C2044 C 0.51909 0.54154 0.09483
 H2045 H 0.52473 0.56342 0.15676
 H2046 H 0.57210 0.53342 0.14852
 H2047 H 0.53038 0.49464 0.07845
 H2048 H 0.50647 0.54541 0.07005
 H2049 H 0.56037 0.52244 0.12093
 H2050 H 0.53959 0.50385 0.10767
 H2051 H 0.51269 0.55188 0.12946
 H2052 H 0.51625 0.55486 0.09896
 C2053 C 0.21171 0.53968 0.63122
 C2054 C 0.19502 0.53458 0.62518
 C2055 C 0.18858 0.54078 0.60918
 C2056 C 0.19857 0.55238 0.59891
 C2057 C 0.21526 0.55748 0.60491
 C2058 C 0.22178 0.55113 0.62083
 C2059 C 0.21842 0.53328 0.64840
 C2060 C 0.22833 0.54439 0.65935
 C2061 C 0.23418 0.53855 0.67572
 C2062 C 0.23011 0.52153 0.68160
 C2063 C 0.22036 0.51035 0.67061
 C2064 C 0.21468 0.51612 0.65416
 H2065 H 0.17562 0.53670 0.60501
 H2066 H 0.22335 0.56629 0.59725
 H2067 H 0.24150 0.54755 0.68396
 H2068 H 0.21711 0.49712 0.67471
 H2069 H 0.23480 0.55509 0.62492
 H2070 H 0.23121 0.55777 0.65548
 H2071 H 0.18676 0.52605 0.63297
 H2072 H 0.20738 0.50710 0.64594
 C2073 C 0.21303 0.03712 0.12860
 C2074 C 0.19720 0.03049 0.12179
 C2075 C 0.19050 0.03672 0.10590
 C2076 C 0.19930 0.05000 0.09648
 C2077 C 0.21525 0.05648 0.10326
 C2078 C 0.22206 0.05004 0.11901
 C2079 C 0.21979 0.03099 0.14589
 C2080 C 0.22829 0.04278 0.15732
 C2081 C 0.23402 0.03729 0.17383
 C2082 C 0.23116 0.01994 0.17945
 C2083 C 0.22287 0.00807 0.16800
 C2084 C 0.21738 0.01349 0.15136
 H2085 H 0.17818 0.03135 0.10124
 H2086 H 0.22260 0.06654 0.09642
 H2087 H 0.24015 0.04682 0.18243
 H2088 H 0.22058 -0.00542 0.17193
 H2089 H 0.23447 0.05519 0.12363
 H2090 H 0.23009 0.05643 0.15375
 H2091 H 0.18971 0.02076 0.12893
 H2092 H 0.21121 0.00395 0.14280
 C2093 C 0.71474 0.21296 0.62203
 C2094 C 0.69808 0.21836 0.62782
 C2095 C 0.69134 0.21237 0.64377
 C2096 C 0.70102 0.20068 0.65426
 C2097 C 0.71778 0.19547 0.64862
 C2098 C 0.72458 0.20159 0.63274
 C2099 C 0.72156 0.21880 0.60470
 C2100 C 0.73124 0.20725 0.59402
 C2101 C 0.73698 0.21250 0.57741
 C2102 C 0.73302 0.22936 0.57102
 C2103 C 0.72356 0.24099 0.58177
 C2104 C 0.71799 0.23581 0.59843
 H2105 H 0.67834 0.21656 0.64764
 H2106 H 0.72564 0.18658 0.65645
 H2107 H 0.74411 0.20318 0.56940
 H2108 H 0.72042 0.25413 0.57730
 H2109 H 0.73758 0.19742 0.62886
 H2110 H 0.73400 0.19397 0.59828
 H2111 H 0.68999 0.22685 0.61980
 H2112 H 0.71087 0.24517 0.60641
 C2113 C 0.71312 0.71182 0.12079
 C2114 C 0.72273 0.69992 0.13114
 C2115 C 0.71581 0.69350 0.14685
 C2116 C 0.69920 0.69896 0.15268
 C2117 C 0.68972 0.71107 0.14250
 C2118 C 0.69654 0.71734 0.12671
 C2119 C 0.72012 0.71818 0.10372
 C2120 C 0.71680 0.73544 0.09801
 C2121 C 0.72258 0.74112 0.08158
 C2122 C 0.73204 0.72977 0.07057
 C2123 C 0.73575 0.71265 0.07641
 C2124 C 0.72979 0.70689 0.09275
 H2125 H 0.72351 0.68428 0.15446
 H2126 H 0.67683 0.71544 0.14654
 H2127 H 0.71962 0.75443 0.07751
 H2128 H 0.74285 0.70352 0.06814
 H2129 H 0.68862 0.72621 0.11894
 H2130 H 0.70971 0.74460 0.10623
 H2131 H 0.73565 0.69563 0.12716
 H2132 H 0.73234 0.69343 0.09657
 C2133 C 0.53544 0.71415 0.12498
 C2134 C 0.52574 0.70253 0.11437
 C2135 C 0.53280 0.69600 0.09877
 C2136 C 0.54966 0.70106 0.09330
 C2137 C 0.55919 0.71301 0.10366
 C2138 C 0.55220 0.71940 0.11935
 C2139 C 0.52841 0.72029 0.14213
 C2140 C 0.53198 0.73737 0.14824
 C2141 C 0.52639 0.74271 0.16486
 C2142 C 0.51693 0.73116 0.17569
 C2143 C 0.51287 0.71428 0.16938
 C2144 C 0.51861 0.70888 0.15284
 H2145 H 0.52505 0.68694 0.09101
 H2146 H 0.57226 0.71711 0.09989
 H2147 H 0.52962 0.75585 0.16928
 H2148 H 0.50574 0.70501 0.17746
 H2149 H 0.56018 0.72808 0.12731
 H2150 H 0.53918 0.74662 0.14022
 H2151 H 0.51267 0.69846 0.11813
 H2152 H 0.51585 0.69555 0.14870
 C2153 C 0.03466 0.71538 0.62548
 C2154 C 0.02475 0.70407 0.61473
 C2155 C 0.03175 0.69749 0.59911
 C2156 C 0.04876 0.70219 0.59378
 C2157 C 0.05846 0.71391 0.60424
 C2158 C 0.05154 0.72035 0.61993
 C2159 C 0.02778 0.72141 0.64274
 C2160 C 0.03178 0.73829 0.64914
 C2161 C 0.02645 0.74344 0.66590
 C2162 C 0.01681 0.73191 0.67659
 C2163 C 0.01231 0.71525 0.67000
 C2164 C 0.01781 0.71002 0.65331
 H2165 H 0.02387 0.68859 0.59129
 H2166 H 0.07164 0.71773 0.60059
 H2167 H 0.02999 0.75643 0.67054
 H2168 H 0.00504 0.70599 0.67796
 H2169 H 0.05967 0.72879 0.62798
 H2170 H 0.03912 0.74753 0.64123
 H2171 H 0.01159 0.70023 0.61842
 H2172 H 0.01473 0.69683 0.64896
 C2173 C 0.53630 0.62708 0.21424
 C2174 C 0.54815 0.61681 0.22400
 C2175 C 0.55472 0.60108 0.21719
 C2176 C 0.54946 0.59513 0.20054
 C2177 C 0.53728 0.60514 0.19097
 C2178 C 0.53087 0.62096 0.19769
 C2179 C 0.53015 0.64439 0.22094
 C2180 C 0.51304 0.65032 0.21739
 C2181 C 0.50769 0.66710 0.22261
 C2182 C 0.51925 0.67826 0.23170
 C2183 C 0.53616 0.67214 0.23575
 C2184 C 0.54158 0.65545 0.23036
 H2185 H 0.56397 0.59359 0.22497
 H2186 H 0.53304 0.60100 0.17805
 H2187 H 0.49452 0.67137 0.21941
 H2188 H 0.54544 0.68048 0.24259
 H2189 H 0.52202 0.62864 0.18966
 H2190 H 0.50377 0.64204 0.21049
 H2191 H 0.55237 0.62094 0.23692
 H2192 H 0.55493 0.65147 0.23308
 C2193 C 0.03495 0.62657 0.71530
 C2194 C 0.02467 0.61570 0.70445
 C2195 C 0.03139 0.59992 0.69789
 C2196 C 0.04847 0.59451 0.70221
 C2197 C 0.05857 0.60509 0.71347
 C2198 C 0.05193 0.62098 0.71985
 C2199 C 0.02828 0.64399 0.72124
 C2200 C 0.03285 0.65076 0.73781
 C2201 C 0.02750 0.66760 0.74287
 C2202 C 0.01726 0.67797 0.73156
 C2203 C 0.01228 0.67104 0.71521
 C2204 C 0.01781 0.65431 0.71007
 H2205 H 0.02321 0.59198 0.68938
 H2206 H 0.07183 0.60136 0.71697
 H2207 H 0.03145 0.67254 0.75560
 H2208 H 0.00457 0.67876 0.70610
 H2209 H 0.06035 0.62911 0.72792
 H2210 H 0.04062 0.64308 0.74689
 H2211 H 0.01141 0.61938 0.70096
 H2212 H 0.01431 0.64972 0.69709
 C2213 C 0.03658 0.12377 0.03692
 C2214 C 0.02728 0.13387 0.04925
 C2215 C 0.03450 0.14926 0.05620
 C2216 C 0.05113 0.15522 0.05078
 C2217 C 0.06012 0.14546 0.03790
 C2218 C 0.05302 0.12989 0.03120
 C2219 C 0.02953 0.10658 0.03065
 C2220 C 0.03294 0.10052 0.01354
 C2221 C 0.02726 0.08387 0.00815
 C2222 C 0.01778 0.07303 0.01965
 C2223 C 0.01393 0.07926 0.03655
 C2224 C 0.01985 0.09574 0.04204
 H2225 H 0.02696 0.15644 0.06587
 H2226 H 0.07295 0.14950 0.03331
 H2227 H 0.03034 0.07946 -0.00499
 H2228 H 0.00685 0.07112 0.04581
 H2229 H 0.06072 0.12238 0.02194
 H2230 H 0.04005 0.10861 0.00428
 H2231 H 0.01439 0.12985 0.05364
 H2232 H 0.01728 0.09970 0.05542
 C2233 C 0.03565 0.62383 0.53546
 C2234 C 0.02538 0.63481 0.54618
 C2235 C 0.03224 0.65052 0.55283
 C2236 C 0.04945 0.65570 0.54876
 C2237 C 0.05955 0.64496 0.53768
 C2238 C 0.05278 0.62919 0.53120
 C2239 C 0.02887 0.60653 0.52935
 C2240 C 0.03347 0.59988 0.51276
 C2241 C 0.02814 0.58307 0.50759
 C2242 C 0.01790 0.57261 0.51879
 C2243 C 0.01284 0.57946 0.53515
 C2244 C 0.01833 0.59617 0.54039
 H2245 H 0.02406 0.65857 0.56120
 H2246 H 0.07290 0.64850 0.53437
 H2247 H 0.03214 0.57822 0.49485
 H2248 H 0.00509 0.57169 0.54416
 H2249 H 0.06118 0.62094 0.52325
 H2250 H 0.04129 0.60762 0.50379
 H2251 H 0.01204 0.63126 0.54947
 H2252 H 0.01478 0.60072 0.55337
 C2253 C 0.53928 0.12062 0.53626
 C2254 C 0.55123 0.13082 0.52659
 C2255 C 0.55760 0.14670 0.53330
 C2256 C 0.55202 0.15286 0.54976
 C2257 C 0.53983 0.14284 0.55929
 C2258 C 0.53362 0.12687 0.55267
 C2259 C 0.53302 0.10336 0.52948
 C2260 C 0.51577 0.09766 0.53272
 C2261 C 0.51015 0.08110 0.52713
 C2262 C 0.52157 0.06990 0.51795
 C2263 C 0.53868 0.07572 0.51434
 C2264 C 0.54437 0.09221 0.52012
 H2265 H 0.56688 0.15418 0.52556
 H2266 H 0.53537 0.14713 0.57207
 H2267 H 0.49685 0.07705 0.53001
 H2268 H 0.54786 0.06732 0.50746
 H2269 H 0.52468 0.11924 0.56064
 H2270 H 0.50656 0.10602 0.53958
 H2271 H 0.55563 0.12659 0.51378
 H2272 H 0.55782 0.09601 0.51764
 C2273 C 0.53712 0.62343 0.03364
 C2274 C 0.54906 0.63371 0.02403
 C2275 C 0.55559 0.64944 0.03095
 C2276 C 0.55020 0.65535 0.04755
 C2277 C 0.53793 0.64532 0.05697
 C2278 C 0.53155 0.62950 0.05014
 C2279 C 0.53101 0.60612 0.02684
 C2280 C 0.51387 0.60016 0.03021
 C2281 C 0.50856 0.58338 0.02492
 C2282 C 0.52019 0.57225 0.01594
 C2283 C 0.53713 0.57840 0.01205
 C2284 C 0.54250 0.59509 0.01752
 H2285 H 0.56491 0.65694 0.02329
 H2286 H 0.53358 0.64943 0.06984
 H2287 H 0.49538 0.57908 0.02799
 H2288 H 0.54646 0.57008 0.00529
 H2289 H 0.52263 0.62180 0.05807
 H2290 H 0.50455 0.60842 0.03704
 H2291 H 0.55339 0.62962 0.01115
 H2292 H 0.55588 0.59909 0.01494
 C2293 C 0.71242 0.12753 0.53665
 C2294 C 0.69892 0.11840 0.52795
 C2295 C 0.69241 0.10259 0.53464
 C2296 C 0.69941 0.09528 0.55012
 C2297 C 0.71327 0.10420 0.55854
 C2298 C 0.71955 0.12016 0.55199
 C2299 C 0.71873 0.14485 0.53002
 C2300 C 0.73640 0.14988 0.53198
 C2301 C 0.74210 0.16645 0.52647
 C2302 C 0.73035 0.17826 0.51857
 C2303 C 0.71280 0.17315 0.51625
 C2304 C 0.70702 0.15671 0.52204
 H2305 H 0.68188 0.09613 0.52759
 H2306 H 0.71905 0.09915 0.57049
 H2307 H 0.75574 0.17000 0.52831
 H2308 H 0.70338 0.18207 0.51042
 H2309 H 0.72973 0.12692 0.55925
 H2310 H 0.74589 0.14101 0.53772
 H2311 H 0.69337 0.12343 0.51588
 H2312 H 0.69326 0.15351 0.52063
 C2313 C 0.71234 0.62919 0.03729
 C2314 C 0.71737 0.62351 0.05411
 C2315 C 0.71094 0.60775 0.06098
 C2316 C 0.69916 0.59736 0.05129
 C2317 C 0.69421 0.60294 0.03442
 C2318 C 0.70079 0.61861 0.02747
 C2319 C 0.71881 0.64625 0.03023
 C2320 C 0.70776 0.65705 0.02011
 C2321 C 0.71358 0.67341 0.01410
 C2322 C 0.73052 0.67943 0.01822
 C2323 C 0.74166 0.66856 0.02811
 C2324 C 0.73591 0.65213 0.03395
 H2325 H 0.71494 0.60391 0.07406
 H2326 H 0.68527 0.59517 0.02655
 H2327 H 0.70461 0.68155 0.00666
 H2328 H 0.75483 0.67277 0.03141
 H2329 H 0.69687 0.62241 0.01436
 H2330 H 0.69442 0.65311 0.01722
 H2331 H 0.72598 0.63144 0.06218
 H2332 H 0.74489 0.64403 0.04141
 C2333 C 0.21215 0.62243 0.71485
 C2334 C 0.21741 0.62783 0.69802
 C2335 C 0.21117 0.64351 0.69082
 C2336 C 0.19935 0.65411 0.70019
 C2337 C 0.19425 0.64887 0.71711
 C2338 C 0.20064 0.63325 0.72438
 C2339 C 0.21827 0.60534 0.72215
 C2340 C 0.20694 0.59473 0.73214
 C2341 C 0.21239 0.57825 0.73817
 C2342 C 0.22924 0.57192 0.73420
 C2343 C 0.24068 0.58265 0.72451
 C2344 C 0.23531 0.59919 0.71865
 H2345 H 0.21528 0.64708 0.67771
 H2346 H 0.18526 0.65679 0.72473
 H2347 H 0.20321 0.57025 0.74549
 H2348 H 0.25380 0.57823 0.72135
 H2349 H 0.19655 0.62967 0.73749
 H2350 H 0.19365 0.59890 0.73486
 H2351 H 0.22601 0.61970 0.69016
 H2352 H 0.24451 0.60714 0.71131
 C2353 C 0.21114 0.12300 0.21547
 C2354 C 0.21845 0.12951 0.19984
 C2355 C 0.21217 0.14500 0.19228
 C2356 C 0.19815 0.15428 0.19995
 C2357 C 0.19106 0.14790 0.21578
 C2358 C 0.19756 0.13256 0.22348
 C2359 C 0.21720 0.10596 0.22296
 C2360 C 0.20523 0.09444 0.23104
 C2361 C 0.21066 0.07798 0.23707
 C2362 C 0.22811 0.07253 0.23491
 C2363 C 0.24018 0.08413 0.22721
 C2364 C 0.23483 0.10071 0.22144
 H2365 H 0.21804 0.14937 0.18010
 H2366 H 0.18042 0.15469 0.22230
 H2367 H 0.20102 0.06923 0.24278
 H2368 H 0.25376 0.08032 0.22550
 H2369 H 0.19187 0.12818 0.23572
 H2370 H 0.19150 0.09785 0.23218
 H2371 H 0.22871 0.12238 0.19311
 H2372 H 0.24451 0.10936 0.21567
 C2373 C 0.71490 1.12407 0.71427
 C2374 C 0.72509 1.13497 0.70340
 C2375 C 0.71814 1.15054 0.69658
 C2376 C 0.70093 1.15569 0.70064
 C2377 C 0.69091 1.14508 0.71191
 C2378 C 0.69778 1.12941 0.71856
 C2379 C 0.72179 1.10686 0.72049
 C2380 C 0.71725 1.10029 0.73713
 C2381 C 0.72274 1.08358 0.74242
 C2382 C 0.73308 1.07314 0.73128
 C2383 C 0.73806 1.07991 0.71488
 C2384 C 0.73241 1.09651 0.70951
 H2385 H 0.72626 1.15851 0.68807
 H2386 H 0.67756 1.14861 0.71522
 H2387 H 0.71879 1.07878 0.75518
 H2388 H 0.74586 1.07213 0.70590
 H2389 H 0.68944 1.12123 0.72664
 H2390 H 0.70937 1.10803 0.74606
 H2391 H 0.73844 1.13146 0.70009
 H2392 H 0.73590 1.10097 0.69650
 C2393 C 0.71123 0.62188 0.21311
 C2394 C 0.71662 0.62761 0.19643
 C2395 C 0.71036 0.64340 0.18947
 C2396 C 0.69841 0.65376 0.19894
 C2397 C 0.69310 0.64811 0.21566
 C2398 C 0.69950 0.63240 0.22270
 C2399 C 0.71754 0.60480 0.22024
 C2400 C 0.70627 0.59390 0.22999
 C2401 C 0.71197 0.57753 0.23605
 C2402 C 0.72902 0.57160 0.23235
 C2403 C 0.74038 0.58258 0.22284
 C2404 C 0.73474 0.59902 0.21695
 H2405 H 0.71463 0.64728 0.17650
 H2406 H 0.68401 0.65585 0.22336
 H2407 H 0.70284 0.56931 0.24319
 H2408 H 0.75364 0.57844 0.21988
 H2409 H 0.69530 0.62855 0.23569
 H2410 H 0.69286 0.59779 0.23254
 H2411 H 0.72538 0.61971 0.18853
 H2412 H 0.74388 0.60720 0.20979
 C2413 C 0.53566 0.12650 0.71327
 C2414 C 0.53086 0.12074 0.69640
 C2415 C 0.53755 0.10506 0.68960
 C2416 C 0.54938 0.09486 0.69941
 C2417 C 0.55396 0.10042 0.71638
 C2418 C 0.54710 0.11600 0.72327
 C2419 C 0.52934 0.14373 0.72006
 C2420 C 0.54045 0.15448 0.73017
 C2421 C 0.53497 0.17110 0.73568
 C2422 C 0.51830 0.17749 0.73105
 C2423 C 0.50704 0.16665 0.72123
 C2424 C 0.51245 0.14993 0.71589
 H2425 H 0.53383 0.10121 0.67644
 H2426 H 0.56291 0.09277 0.72434
 H2427 H 0.54404 0.17918 0.74309
 H2428 H 0.49407 0.17115 0.71755
 H2429 H 0.55081 0.11983 0.73644
 H2430 H 0.55365 0.15032 0.73337
 H2431 H 0.52234 0.12860 0.68819
 H2432 H 0.50341 0.14189 0.70841
 C2433 C 1.03764 0.12877 0.21306
 C2434 C 1.04938 0.11858 0.22303
 C2435 C 1.05548 0.10245 0.21671
 C2436 C 1.04986 0.09603 0.20036
 C2437 C 1.03789 0.10605 0.19053
 C2438 C 1.03194 0.12226 0.19675
 C2439 C 1.03165 0.14628 0.21941
 C2440 C 1.01451 0.15219 0.21593
 C2441 C 1.00914 0.16893 0.22120
 C2442 C 1.02069 0.18010 0.23028
 C2443 C 1.03771 0.17411 0.23407
 C2444 C 1.04315 0.15744 0.22861
 H2445 H 1.06460 0.09499 0.22466
 H2446 H 1.03339 0.10157 0.17781
 H2447 H 0.99589 0.17311 0.21821
 H2448 H 1.04699 0.18247 0.24088
 H2449 H 1.02317 0.12986 0.18856
 H2450 H 1.00519 0.14384 0.20918
 H2451 H 1.05381 0.12303 0.23578
 H2452 H 1.05653 0.15348 0.23125
 C2453 C 0.21386 0.62758 0.53701
 C2454 C 0.21871 0.62207 0.55394
 C2455 C 0.21219 0.60639 0.56089
 C2456 C 0.20052 0.59590 0.55117
 C2457 C 0.19588 0.60122 0.53414
 C2458 C 0.20255 0.61683 0.52711
 C2459 C 0.22009 0.64475 0.53003
 C2460 C 0.20891 0.65536 0.51986
 C2461 C 0.21442 0.67187 0.51402
 C2462 C 0.23118 0.67826 0.51834
 C2463 C 0.24246 0.66758 0.52830
 C2464 C 0.23702 0.65099 0.53398
 H2465 H 0.21595 0.60275 0.57410
 H2466 H 0.18703 0.59337 0.52624
 H2467 H 0.20534 0.67983 0.50652
 H2468 H 0.25549 0.67207 0.53175
 H2469 H 0.19879 0.62049 0.51391
 H2470 H 0.19569 0.65114 0.51682
 H2471 H 0.22714 0.63013 0.56207
 H2472 H 0.24609 0.64306 0.54151
 C2473 C 0.21427 0.12532 1.03593
 C2474 C 0.21977 0.11925 1.05246
 C2475 C 0.21331 0.10349 1.05926
 C2476 C 0.20102 0.09347 1.04980
 C2477 C 0.19572 0.09934 1.03315
 C2478 C 0.20233 0.11505 1.02625
 C2479 C 0.22051 0.14259 1.02916
 C2480 C 0.20914 0.15371 1.01978
 C2481 C 0.21471 0.17032 1.01426
 C2482 C 0.23173 0.17628 1.01815
 C2483 C 0.24319 0.16509 1.02728
 C2484 C 0.23769 0.14840 1.03262
 H2485 H 0.21759 0.09943 1.07218
 H2486 H 0.18636 0.09188 1.02547
 H2487 H 0.20550 0.17870 1.00739
 H2488 H 0.25644 0.16923 1.03035
 H2489 H 0.19804 0.11915 1.01335
 H2490 H 0.19574 0.14981 1.01714
 H2491 H 0.22869 0.12693 1.06043
 H2492 H 0.24692 0.14007 1.03950
 C2493 C 0.21259 0.71047 0.62035
 C2494 C 0.19577 0.71550 0.62600
 C2495 C 0.18898 0.70923 0.64181
 C2496 C 0.19875 0.69760 0.65228
 C2497 C 0.21555 0.69253 0.64665
 C2498 C 0.22242 0.69896 0.63092
 C2499 C 0.21966 0.71700 0.60336
 C2500 C 0.22985 0.70600 0.59260
 C2501 C 0.23594 0.71191 0.57635
 C2502 C 0.23184 0.72891 0.57041
 C2503 C 0.22185 0.73999 0.58124
 C2504 C 0.21593 0.73415 0.59756
 H2505 H 0.17594 0.71329 0.64568
 H2506 H 0.22347 0.68369 0.65448
 H2507 H 0.24344 0.70298 0.56823
 H2508 H 0.21856 0.75320 0.57708
 H2509 H 0.23552 0.69503 0.62713
 H2510 H 0.23274 0.69262 0.59648
 H2511 H 0.18767 0.72405 0.61805
 H2512 H 0.20843 0.74310 0.60564
 C2513 C 0.21385 0.20891 1.12127
 C2514 C 0.19821 0.21617 1.12782
 C2515 C 0.19098 0.21016 1.14353
 C2516 C 0.19902 0.19649 1.15306
 C2517 C 0.21473 0.18929 1.14649
 C2518 C 0.22208 0.19549 1.13089
 C2519 C 0.22131 0.21510 1.10431
 C2520 C 0.22953 0.20326 1.09275
 C2521 C 0.23585 0.20895 1.07651
 C2522 C 0.23389 0.22657 1.07136
 C2523 C 0.22594 0.23847 1.08298
 C2524 C 0.21985 0.23284 1.09930
 H2525 H 0.17885 0.21608 1.14799
 H2526 H 0.22149 0.17886 1.15341
 H2527 H 0.24175 0.19943 1.06775
 H2528 H 0.22437 0.25216 1.07942
 H2529 H 0.23430 0.18980 1.12644
 H2530 H 0.23063 0.18945 1.09600
 H2531 H 0.19130 0.22629 1.12062
 H2532 H 0.21397 0.24242 1.10799
 C2533 C 0.71283 0.53916 0.12957
 C2534 C 0.69631 0.53365 0.12342
 C2535 C 0.68966 0.53995 0.10754
 C2536 C 0.69926 0.55209 0.09751
 C2537 C 0.71581 0.55754 0.10356
 C2538 C 0.72256 0.55108 0.11935
 C2539 C 0.71965 0.53282 0.14674
 C2540 C 0.72924 0.54411 0.15780
 C2541 C 0.73509 0.53836 0.17421
 C2542 C 0.73133 0.52124 0.18003
 C2543 C 0.72193 0.50988 0.16893
 C2544 C 0.71626 0.51556 0.15244
 H2545 H 0.67681 0.53558 0.10333
 H2546 H 0.72360 0.56677 0.09608
 H2547 H 0.74214 0.54750 0.18253
 H2548 H 0.71892 0.49657 0.17298
 H2549 H 0.73545 0.55537 0.12351
 H2550 H 0.73184 0.55757 0.15401
 H2551 H 0.68830 0.52475 0.13106
 H2552 H 0.70922 0.50639 0.14415
 C2553 C 0.71495 1.03624 0.62642
 C2554 C 0.72475 1.04781 0.61589
 C2555 C 0.71770 1.05455 0.60036
 C2556 C 0.70077 1.04971 0.59489
 C2557 C 0.69115 1.03779 0.60515
 C2558 C 0.69811 1.03122 0.62078
 C2559 C 0.72192 1.03000 0.64356
 C2560 C 0.71802 1.01301 0.64975
 C2561 C 0.72355 1.00765 0.66640
 C2562 C 0.73329 1.01907 0.67714
 C2563 C 0.73765 1.03584 0.67076
 C2564 C 0.73195 1.04127 0.65423
 H2565 H 0.72552 1.06357 0.59265
 H2566 H 0.67802 1.03387 0.60136
 H2567 H 0.72008 0.99461 0.67091
 H2568 H 0.74497 1.04503 0.67879
 H2569 H 0.69004 1.02261 0.62868
 H2570 H 0.71062 1.00386 0.64177
 H2571 H 0.73789 1.05169 0.61964
 H2572 H 0.73493 1.05454 0.65006
 C2573 C 0.53561 0.21352 0.62545
 C2574 C 0.52600 0.20182 0.61483
 C2575 C 0.53330 0.19496 0.59948
 C2576 C 0.55031 0.19979 0.59427
 C2577 C 0.55973 0.21185 0.60459
 C2578 C 0.55251 0.21855 0.62005
 C2579 C 0.52838 0.21985 0.64244
 C2580 C 0.53211 0.23690 0.64858
 C2581 C 0.52643 0.24233 0.66514
 C2582 C 0.51669 0.23093 0.67587
 C2583 C 0.51245 0.21411 0.66951
 C2584 C 0.51830 0.20860 0.65305
 H2585 H 0.52563 0.18583 0.59172
 H2586 H 0.57290 0.21577 0.60101
 H2587 H 0.52981 0.25542 0.66961
 H2588 H 0.50511 0.20493 0.67751
 H2589 H 0.56043 0.22727 0.62802
 H2590 H 0.53954 0.24603 0.64064
 H2591 H 0.51283 0.19792 0.61840
 H2592 H 0.51542 0.19529 0.64892
 C2593 C 1.03670 0.21347 0.12693
 C2594 C 1.02760 0.20071 0.11714
 C2595 C 1.03466 0.19397 0.10163
 C2596 C 1.05098 0.19995 0.09532
 C2597 C 1.05975 0.21321 0.10481
 C2598 C 1.05278 0.21975 0.12045
 C2599 C 1.02980 0.21973 0.14411
 C2600 C 1.03249 0.23718 0.14963
 C2601 C 1.02691 0.24273 0.16619
 C2602 C 1.01828 0.23104 0.17753
 C2603 C 1.01518 0.21373 0.17188
 C2604 C 1.02097 0.20811 0.15543
 H2605 H 1.02731 0.18395 0.09469
 H2606 H 1.07233 0.21824 0.10051
 H2607 H 1.02938 0.25619 0.17012
 H2608 H 1.00874 0.20435 0.18040
 H2609 H 1.06031 0.22938 0.12772
 H2610 H 1.03892 0.24660 0.14116
 H2611 H 1.01499 0.19584 0.12150
 H2612 H 1.01896 0.19450 0.15181
 C2613 C 0.62218 0.21387 0.71179
 C2614 C 0.63270 0.22390 0.70041
 C2615 C 0.64847 0.21716 0.69393
 C2616 C 0.65421 0.20032 0.69885
 C2617 C 0.64388 0.19042 0.71047
 C2618 C 0.62802 0.19706 0.71677
 C2619 C 0.60495 0.22065 0.71801
 C2620 C 0.59878 0.21666 0.73493
 C2621 C 0.58215 0.22218 0.74036
 C2622 C 0.57140 0.23203 0.72907
 C2623 C 0.57773 0.23643 0.71234
 C2624 C 0.59425 0.23073 0.70684
 H2625 H 0.65621 0.22519 0.68513
 H2626 H 0.64787 0.17734 0.71443
 H2627 H 0.57770 0.21867 0.75337
 H2628 H 0.56971 0.24383 0.70324
 H2629 H 0.62014 0.18882 0.72524
 H2630 H 0.60678 0.20922 0.74401
 H2631 H 0.62879 0.23701 0.69653
 H2632 H 0.59839 0.23380 0.69362
 C2633 C 1.12107 0.21356 0.20970
 C2634 C 1.12698 0.19710 0.21565
 C2635 C 1.14269 0.19000 0.20949
 C2636 C 1.15281 0.19908 0.19705
 C2637 C 1.14697 0.21555 0.19109
 C2638 C 1.13132 0.22275 0.19741
 C2639 C 1.10412 0.22086 0.21606
 C2640 C 1.09298 0.23022 0.20469
 C2641 C 1.07667 0.23628 0.21047
 C2642 C 1.07104 0.23295 0.22769
 C2643 C 1.08227 0.22388 0.23915
 C2644 C 1.09865 0.21802 0.23345
 H2645 H 1.14672 0.17721 0.21425
 H2646 H 1.15452 0.22293 0.18159
 H2647 H 1.06823 0.24309 0.20127
 H2648 H 1.07837 0.22124 0.25255
 H2649 H 1.12732 0.23557 0.19274
 H2650 H 1.09662 0.23242 0.19115
 H2651 H 1.11928 0.18946 0.22482
 H2652 H 1.10703 0.21121 0.24268
 C2653 C 0.12922 0.71236 0.53789
 C2654 C 0.12311 0.69557 0.53312
 C2655 C 0.10702 0.68936 0.53929
 C2656 C 0.09671 0.69971 0.55055
 C2657 C 0.10276 0.71650 0.55531
 C2658 C 0.11878 0.72279 0.54898
 C2659 C 0.14654 0.71878 0.53159
 C2660 C 0.15738 0.72890 0.54260
 C2661 C 0.17383 0.73457 0.53687
 C2662 C 0.17992 0.73011 0.52006
 C2663 C 0.16908 0.72007 0.50900
 C2664 C 0.15254 0.71456 0.51466
 H2665 H 0.10282 0.67631 0.53548
 H2666 H 0.09506 0.72485 0.56385
 H2667 H 0.18195 0.74212 0.54579
 H2668 H 0.17336 0.71650 0.49594
 H2669 H 0.12291 0.73590 0.55268
 H2670 H 0.15335 0.73212 0.55582
 H2671 H 0.13093 0.68704 0.52489
 H2672 H 0.14442 0.70706 0.50572
 C2673 C 0.13139 0.21050 1.04064
 C2674 C 0.12113 0.22062 1.05218
 C2675 C 0.10519 0.21418 1.05854
 C2676 C 0.09901 0.19754 1.05337
 C2677 C 0.10918 0.18748 1.04175
 C2678 C 0.12520 0.19384 1.03553
 C2679 C 0.14853 0.21720 1.03410
 C2680 C 0.15411 0.21349 1.01691
 C2681 C 0.17047 0.21926 1.01098
 C2682 C 0.18156 0.22905 1.02201
 C2683 C 0.17587 0.23305 1.03908
 C2684 C 0.15959 0.22713 1.04508
 H2685 H 0.09762 0.22233 1.06737
 H2686 H 0.10487 0.17456 1.03760
 H2687 H 0.17442 0.21604 0.99773
 H2688 H 0.18419 0.24039 1.04799
 H2689 H 0.13289 0.18554 1.02694
 H2690 H 0.14581 0.20618 1.00798
 H2691 H 0.12533 0.23362 1.05616
 H2692 H 0.15588 0.22998 1.05848
 C2693 C 0.62801 0.53678 0.21265
 C2694 C 0.62187 0.55338 0.21796
 C2695 C 0.60591 0.55988 0.21172
 C2696 C 0.59579 0.55003 0.19984
 C2697 C 0.60182 0.53337 0.19463
 C2698 C 0.61770 0.52679 0.20102
 C2699 C 0.64528 0.53014 0.21892
 C2700 C 0.65628 0.52049 0.20767
 C2701 C 0.67277 0.51481 0.21334
 C2702 C 0.67873 0.51881 0.23032
 C2703 C 0.66769 0.52829 0.24164
 C2704 C 0.65113 0.53378 0.23604
 H2705 H 0.60172 0.57281 0.21591
 H2706 H 0.59427 0.52539 0.18560
 H2707 H 0.68104 0.50770 0.20424
 H2708 H 0.67185 0.53147 0.25485
 H2709 H 0.62186 0.51383 0.19690
 H2710 H 0.65236 0.51770 0.19430
 H2711 H 0.62959 0.56159 0.22664
 H2712 H 0.64288 0.54088 0.24517
 C2713 C 0.62796 1.03664 0.71249
 C2714 C 0.62195 1.05341 0.71744
 C2715 C 0.60613 1.05998 0.71090
 C2716 C 0.59602 1.05007 0.69905
 C2717 C 0.60189 1.03324 0.69423
 C2718 C 0.61760 1.02656 0.70096
 C2719 C 0.64524 1.03000 0.71881
 C2720 C 0.65600 1.01990 0.70773
 C2721 C 0.67253 1.01430 0.71331
 C2722 C 0.67885 1.01882 0.73004
 C2723 C 0.66806 1.02872 0.74124
 C2724 C 0.65140 1.03414 0.73573
 H2725 H 0.60204 1.07304 0.71480
 H2726 H 0.59432 1.02520 0.68526
 H2727 H 0.68059 1.00686 0.70428
 H2728 H 0.67251 1.03233 0.75425
 H2729 H 0.62161 1.01347 0.69711
 H2730 H 0.65189 1.01673 0.69451
 H2731 H 0.62968 1.06169 0.72603
 H2732 H 0.64337 1.04160 0.74476
 C2733 C 0.87298 0.46576 0.28787
 C2734 C 0.88329 0.47533 0.29985
 C2735 C 0.89896 0.46834 0.30634
 C2736 C 0.90479 0.45171 0.30085
 C2737 C 0.89472 0.44231 0.28858
 C2738 C 0.87896 0.44920 0.28225
 C2739 C 0.85579 0.47268 0.28172
 C2740 C 0.84987 0.46935 0.26456
 C2741 C 0.83320 0.47477 0.25919
 C2742 C 0.82213 0.48385 0.27080
 C2743 C 0.82823 0.48770 0.28777
 C2744 C 0.84482 0.48209 0.29320
 H2745 H 0.90651 0.47599 0.31567
 H2746 H 0.89877 0.42940 0.28416
 H2747 H 0.82893 0.47173 0.24598
 H2748 H 0.81995 0.49452 0.29708
 H2749 H 0.87123 0.44130 0.27330
 H2750 H 0.85810 0.46247 0.25525
 H2751 H 0.87927 0.48825 0.30423
 H2752 H 0.84879 0.48465 0.30659
 C2753 C 0.87188 0.96294 0.78927
 C2754 C 0.88301 0.95261 0.77878
 C2755 C 0.89860 0.94576 0.78560
 C2756 C 0.90355 0.94928 0.80300
 C2757 C 0.89264 0.95991 0.81339
 C2758 C 0.87695 0.96657 0.80664
 C2759 C 0.85483 0.96947 0.78232
 C2760 C 0.84820 0.98596 0.78741
 C2761 C 0.83181 0.99167 0.78148
 C2762 C 0.82175 0.98113 0.77014
 C2763 C 0.82854 0.96482 0.76475
 C2764 C 0.84480 0.95902 0.77085
 H2765 H 0.90680 0.93776 0.77720
 H2766 H 0.89602 0.96277 0.82689
 H2767 H 0.82700 1.00435 0.78580
 H2768 H 0.82108 0.95630 0.75614
 H2769 H 0.86859 0.97421 0.81521
 H2770 H 0.85569 0.99449 0.79597
 H2771 H 0.87972 0.94983 0.76525
 H2772 H 0.84930 0.94612 0.76690
 C2773 C 0.37746 0.28658 0.78657
 C2774 C 0.36650 0.29725 0.77622
 C2775 C 0.35074 0.30379 0.78292
 C2776 C 0.34544 0.29962 0.80006
 C2777 C 0.35619 0.28866 0.81029
 C2778 C 0.37204 0.28231 0.80367
 C2779 C 0.39468 0.28033 0.77979
 C2780 C 0.40127 0.26370 0.78447
 C2781 C 0.41781 0.25823 0.77875
 C2782 C 0.42806 0.26916 0.76800
 C2783 C 0.42134 0.28562 0.76303
 C2784 C 0.40492 0.29118 0.76892
 H2785 H 0.34268 0.31207 0.77465
 H2786 H 0.35256 0.28530 0.82360
 H2787 H 0.42257 0.24542 0.78273
 H2788 H 0.42897 0.29445 0.75491
 H2789 H 0.38025 0.27440 0.81215
 H2790 H 0.39364 0.25486 0.79256
 H2791 H 0.37007 0.30054 0.76288
 H2792 H 0.40047 0.30419 0.76531
 C2793 C 0.87664 0.28506 0.28542
 C2794 C 0.86629 0.27512 0.29703
 C2795 C 0.85051 0.28183 0.30351
 C2796 C 0.84460 0.29856 0.29840
 C2797 C 0.85471 0.30832 0.28648
 C2798 C 0.87057 0.30170 0.28015
 C2799 C 0.89395 0.27843 0.27932
 C2800 C 0.89999 0.28219 0.26230
 C2801 C 0.91675 0.27700 0.25699
 C2802 C 0.92779 0.26774 0.26850
 C2803 C 0.92158 0.26349 0.28531
 C2804 C 0.90490 0.26886 0.29069
 H2805 H 0.84295 0.27390 0.31257
 H2806 H 0.85060 0.32130 0.28235
 H2807 H 0.92109 0.28034 0.24390
 H2808 H 0.92982 0.25651 0.29455
 H2809 H 0.87831 0.30987 0.27149
 H2810 H 0.89180 0.28922 0.25307
 H2811 H 0.87038 0.26213 0.30112
 H2812 H 0.90083 0.26597 0.30398
 C2813 C 0.37379 0.78489 0.46266
 C2814 C 0.38495 0.79521 0.47318
 C2815 C 0.40054 0.80205 0.46639
 C2816 C 0.40545 0.79858 0.44898
 C2817 C 0.39459 0.78783 0.43862
 C2818 C 0.37890 0.78115 0.44534
 C2819 C 0.35655 0.77872 0.46943
 C2820 C 0.34964 0.76232 0.46435
 C2821 C 0.33293 0.75710 0.46984
 C2822 C 0.32283 0.76806 0.48070
 C2823 C 0.32992 0.78423 0.48615
 C2824 C 0.34651 0.78953 0.48052
 H2825 H 0.40871 0.81014 0.47477
 H2826 H 0.39793 0.78498 0.42512
 H2827 H 0.32789 0.74450 0.46551
 H2828 H 0.32242 0.79307 0.49437
 H2829 H 0.37053 0.77351 0.43676
 H2830 H 0.35712 0.75353 0.45608
 H2831 H 0.38161 0.79807 0.48668
 H2832 H 0.35123 0.80237 0.48443
 C2833 C 0.37495 0.28316 0.96320
 C2834 C 0.38538 0.27395 0.95109
 C2835 C 0.40060 0.28156 0.94423
 C2836 C 0.40583 0.29851 0.94944
 C2837 C 0.39569 0.30750 0.96193
 C2838 C 0.38040 0.29997 0.96865
 C2839 C 0.35804 0.27571 0.96955
 C2840 C 0.35221 0.27898 0.98674
 C2841 C 0.33564 0.27335 0.99219
 C2842 C 0.32458 0.26411 0.98066
 C2843 C 0.33067 0.26020 0.96371
 C2844 C 0.34716 0.26601 0.95819
 H2845 H 0.40819 0.27421 0.93473
 H2846 H 0.39926 0.32062 0.96616
 H2847 H 0.33140 0.27643 1.00539
 H2848 H 0.32241 0.25323 0.95445
 H2849 H 0.37256 0.30761 0.97770
 H2850 H 0.36038 0.28607 0.99597
 H2851 H 0.38176 0.26086 0.94684
 H2852 H 0.35107 0.26346 0.94479
 C2853 C 0.78459 0.46428 0.37437
 C2854 C 0.80139 0.46944 0.38003
 C2855 C 0.80834 0.46306 0.39574
 C2856 C 0.79875 0.45120 0.40610
 C2857 C 0.78185 0.44624 0.40061
 C2858 C 0.77482 0.45277 0.38498
 C2859 C 0.77760 0.47039 0.35718
 C2860 C 0.76771 0.45901 0.34648
 C2861 C 0.76207 0.46435 0.32987
 C2862 C 0.76633 0.48113 0.32348
 C2863 C 0.77586 0.49267 0.33430
 C2864 C 0.78134 0.48740 0.35099
 H2865 H 0.82144 0.46707 0.39953
 H2866 H 0.77405 0.43724 0.40837
 H2867 H 0.75488 0.45508 0.32180
 H2868 H 0.77924 0.50574 0.32982
 H2869 H 0.76172 0.44877 0.38121
 H2870 H 0.76482 0.44573 0.35068
 H2871 H 0.80942 0.47804 0.37207
 H2872 H 0.78861 0.49664 0.35899
 C2873 C 0.78790 0.96251 0.87134
 C2874 C 0.79887 0.97293 0.88197
 C2875 C 0.80550 0.96641 0.89779
 C2876 C 0.80115 0.94940 0.90347
 C2877 C 0.78987 0.93912 0.89307
 C2878 C 0.78341 0.94556 0.87716
 C2879 C 0.78162 0.96909 0.85405
 C2880 C 0.76483 0.96466 0.84772
 C2881 C 0.75927 0.97030 0.83116
 C2882 C 0.77028 0.98069 0.82064
 C2883 C 0.78693 0.98534 0.82706
 C2884 C 0.79256 0.97955 0.84350
 H2885 H 0.81401 0.97473 0.90557
 H2886 H 0.78634 0.92591 0.89701
 H2887 H 0.74633 0.96656 0.82662
 H2888 H 0.79584 0.99315 0.81919
 H2889 H 0.77525 0.93704 0.86921
 H2890 H 0.75594 0.95687 0.85559
 H2891 H 0.80234 0.98617 0.87810
 H2892 H 0.80569 0.98293 0.84774
 C2893 C 0.28605 0.78691 0.37683
 C2894 C 0.27628 0.79859 0.36638
 C2895 C 0.28333 0.80543 0.35090
 C2896 C 0.30023 0.80060 0.34539
 C2897 C 0.30983 0.78859 0.35558
 C2898 C 0.30288 0.78192 0.37116
 C2899 C 0.27905 0.78049 0.39389
 C2900 C 0.28291 0.76344 0.39990
 C2901 C 0.27738 0.75790 0.41648
 C2902 C 0.26765 0.76919 0.42732
 C2903 C 0.26329 0.78602 0.42111
 C2904 C 0.26901 0.79164 0.40464
 H2905 H 0.27552 0.81453 0.34326
 H2906 H 0.32294 0.78467 0.35176
 H2907 H 0.28084 0.74481 0.42085
 H2908 H 0.25598 0.79511 0.42923
 H2909 H 0.31092 0.77321 0.37899
 H2910 H 0.29031 0.75438 0.39185
 H2911 H 0.26316 0.80247 0.37014
 H2912 H 0.26603 0.80495 0.40061
 C2913 C 0.28649 0.28634 0.87778
 C2914 C 0.27643 0.29774 0.86732
 C2915 C 0.28315 0.30440 0.85162
 C2916 C 0.30003 0.29968 0.84593
 C2917 C 0.30998 0.28805 0.85622
 C2918 C 0.30333 0.28154 0.87199
 C2919 C 0.27972 0.27989 0.89491
 C2920 C 0.28370 0.26283 0.90081
 C2921 C 0.27829 0.25719 0.91738
 C2922 C 0.26861 0.26839 0.92837
 C2923 C 0.26415 0.28524 0.92227
 C2924 C 0.26972 0.29095 0.90578
 H2925 H 0.27508 0.31322 0.84392
 H2926 H 0.32307 0.28423 0.85228
 H2927 H 0.28183 0.24408 0.92164
 H2928 H 0.25685 0.29426 0.93048
 H2929 H 0.31158 0.27305 0.87985
 H2930 H 0.29107 0.25384 0.89265
 H2931 H 0.26330 0.30149 0.87121
 H2932 H 0.26664 0.30426 0.90180
 C2933 C 0.46244 0.28897 0.86961
 C2934 C 0.46634 0.30617 0.87516
 C2935 C 0.45996 0.31253 0.89113
 C2936 C 0.44937 0.30191 0.90185
 C2937 C 0.44561 0.28465 0.89642
 C2938 C 0.45215 0.27823 0.88054
 C2939 C 0.46865 0.28242 0.85228
 C2940 C 0.45791 0.27143 0.84203
 C2941 C 0.46348 0.26558 0.82560
 C2942 C 0.47987 0.27072 0.81889
 C2943 C 0.49066 0.28166 0.82912
 C2944 C 0.48515 0.28737 0.84567
 H2945 H 0.46302 0.32592 0.89487
 H2946 H 0.43763 0.27607 0.90445
 H2947 H 0.45475 0.25734 0.81797
 H2948 H 0.50339 0.28578 0.82437
 H2949 H 0.44917 0.26481 0.87687
 H2950 H 0.44499 0.26764 0.84651
 H2951 H 0.47398 0.31491 0.86697
 H2952 H 0.49388 0.29559 0.85331
 C2953 C 0.96601 0.28652 0.37247
 C2954 C 0.94942 0.28093 0.37831
 C2955 C 0.94254 0.28711 0.39414
 C2956 C 0.95200 0.29919 0.40441
 C2957 C 0.96869 0.30457 0.39874
 C2958 C 0.97565 0.29824 0.38301
 C2959 C 0.97289 0.28064 0.35517
 C2960 C 0.98238 0.29228 0.34443
 C2961 C 0.98793 0.28713 0.32774
 C2962 C 0.98395 0.27028 0.32132
 C2963 C 0.97481 0.25850 0.33217
 C2964 C 0.96944 0.26358 0.34893
 H2965 H 0.92960 0.28278 0.39807
 H2966 H 0.97639 0.31374 0.40643
 H2967 H 0.99481 0.29657 0.31964
 H2968 H 0.97166 0.24536 0.32764
 H2969 H 0.98860 0.30256 0.37910
 H2970 H 0.98504 0.30561 0.34866
 H2971 H 0.94147 0.27217 0.37042
 H2972 H 0.96248 0.25415 0.35697
 C2973 C 0.46161 0.37173 0.78595
 C2974 C 0.44995 0.38238 0.77639
 C2975 C 0.44352 0.39801 0.78356
 C2976 C 0.44874 0.40346 0.80039
 C2977 C 0.46067 0.39302 0.80981
 C2978 C 0.46694 0.37730 0.80273
 C2979 C 0.46784 0.35466 0.77873
 C2980 C 0.48494 0.34867 0.78221
 C2981 C 0.49044 0.33217 0.77635
 C2982 C 0.47904 0.32135 0.76667
 C2983 C 0.46212 0.32751 0.76273
 C2984 C 0.45655 0.34392 0.76878
 H2985 H 0.43446 0.40583 0.77590
 H2986 H 0.46486 0.39676 0.82287
 H2987 H 0.50361 0.32786 0.77947
 H2988 H 0.45299 0.31941 0.75542
 H2989 H 0.47564 0.36930 0.81062
 H2990 H 0.49411 0.35672 0.78951
 H2991 H 0.44581 0.37866 0.76332
 H2992 H 0.44320 0.34796 0.76608
 C2993 C 0.96354 0.37449 0.28497
 C2994 C 0.95187 0.38516 0.27544
 C2995 C 0.94543 0.40076 0.28266
 C2996 C 0.95063 0.40617 0.29952
 C2997 C 0.96264 0.39576 0.30887
 C2998 C 0.96894 0.38007 0.30172
 C2999 C 0.96960 0.35733 0.27777
 C3000 C 0.98666 0.35120 0.28120
 C3001 C 0.99193 0.33456 0.27552
 C3002 C 0.98034 0.32372 0.26608
 C3003 C 0.96349 0.33005 0.26212
 C3004 C 0.95815 0.34662 0.26797
 H3005 H 0.93630 0.40855 0.27504
 H3006 H 0.96683 0.39948 0.32193
 H3007 H 1.00506 0.33012 0.27865
 H3008 H 0.95419 0.32196 0.25500
 H3009 H 0.97767 0.37207 0.30957
 H3010 H 0.99595 0.35922 0.28839
 H3011 H 0.94768 0.38145 0.26238
 H3012 H 0.94484 0.35078 0.26531
 C3013 C 0.28675 0.87358 0.46524
 C3014 C 0.30390 0.87907 0.46930
 C3015 C 0.31047 0.89490 0.46271
 C3016 C 0.30012 0.90551 0.45174
 C3017 C 0.28288 0.90021 0.44792
 C3018 C 0.27624 0.88450 0.45468
 C3019 C 0.28015 0.85622 0.47136
 C3020 C 0.26940 0.84593 0.46042
 C3021 C 0.26385 0.82927 0.46570
 C3022 C 0.26907 0.82237 0.48199
 C3023 C 0.27963 0.83270 0.49306
 C3024 C 0.28502 0.84948 0.48785
 H3025 H 0.32384 0.89856 0.46583
 H3026 H 0.27451 0.90820 0.43966
 H3027 H 0.25589 0.82158 0.45676
 H3028 H 0.28379 0.82779 0.50572
 H3029 H 0.26285 0.88088 0.45158
 H3030 H 0.26567 0.85051 0.44751
 H3031 H 0.31248 0.87090 0.47714
 H3032 H 0.29304 0.85716 0.49673
 C3033 C 0.28920 0.37113 0.96556
 C3034 C 0.28327 0.37715 0.94915
 C3035 C 0.28946 0.39296 0.94218
 C3036 C 0.30189 0.40306 0.95135
 C3037 C 0.30771 0.39717 0.96783
 C3038 C 0.30137 0.38144 0.97489
 C3039 C 0.28308 0.35393 0.97261
 C3040 C 0.29465 0.34288 0.98186
 C3041 C 0.28921 0.32629 0.98758
 C3042 C 0.27215 0.32027 0.98402
 C3043 C 0.26046 0.33143 0.97512
 C3044 C 0.26583 0.34809 0.96959
 H3045 H 0.28479 0.39705 0.92941
 H3046 H 0.31718 0.40472 0.97530
 H3047 H 0.29859 0.31795 0.99426
 H3048 H 0.24718 0.32722 0.97230
 H3049 H 0.30600 0.37739 0.98769
 H3050 H 0.30810 0.34679 0.98420
 H3051 H 0.27417 0.36943 0.94143
 H3052 H 0.25645 0.35637 0.96285
 C3053 C 0.78626 0.37665 0.28508
 C3054 C 0.78096 0.37059 0.30168
 C3055 C 0.78719 0.35463 0.30826
 C3056 C 0.79903 0.34442 0.29850
 C3057 C 0.80416 0.35032 0.28181
 C3058 C 0.79778 0.36620 0.27514
 C3059 C 0.78026 0.39405 0.27847
 C3060 C 0.79168 0.40494 0.26888
 C3061 C 0.78638 0.42166 0.26347
 C3062 C 0.76960 0.42799 0.26768
 C3063 C 0.75805 0.41703 0.27698
 C3064 C 0.76328 0.40022 0.28221
 H3065 H 0.78306 0.35052 0.32121
 H3066 H 0.81315 0.34269 0.27389
 H3067 H 0.79565 0.42985 0.25647
 H3068 H 0.74498 0.42146 0.28030
 H3069 H 0.80188 0.37027 0.26218
 H3070 H 0.80494 0.40077 0.26601
 H3071 H 0.77236 0.37840 0.30984
 H3072 H 0.75401 0.39208 0.28926
   
