data_POSCAR
  _audit_creation_date              2014-09-24
  _audit_creation_method            'ToBaCCo'
  _symmetry_space_group_name_H-M    'P1'
  _symmetry_Int_Tables_number       1
  _symmetry_cell_setting            triclinic
  loop_
  _symmetry_equiv_pos_as_xyz
 x,y,z
_cell_length_a 90.6933
_cell_length_b 91.0536
_cell_length_c 91.3422
_cell_angle_alpha 90.025500
_cell_angle_beta 89.933300
_cell_angle_gamma 89.949100
loop_
  _atom_site_label
  _atom_site_type_symbol
  _atom_site_fract_x
  _atom_site_fract_y
  _atom_site_fract_z
N1 N 0.35483 0.31545 0.32533
 N2 N 0.35473 0.32582 0.31533
 C3 C 0.36629 0.32395 0.30630
 C4 C 0.37416 0.31173 0.31081
 C5 C 0.36652 0.30660 0.32296
 H6 H 0.36871 0.33094 0.29707
 H7 H 0.36926 0.29721 0.32966
 Cu8 Cu 0.33957 0.34080 0.31495
 Cu9 Cu 0.33979 0.31443 0.34064
 Cu10 Cu 0.31257 0.34137 0.33996
 N11 N 0.32433 0.35572 0.31457
 N12 N 0.31373 0.35592 0.32437
 C13 C 0.30458 0.36719 0.32145
 C14 C 0.30972 0.37447 0.30911
 C15 C 0.32231 0.36685 0.30510
 H16 H 0.29483 0.36975 0.32777
 H17 H 0.32949 0.36919 0.29596
 N18 N 0.31330 0.32571 0.35483
 N19 N 0.32357 0.31543 0.35512
 C20 C 0.32090 0.30639 0.36649
 C21 C 0.30832 0.31118 0.37373
 C22 C 0.30386 0.32348 0.36598
 H23 H 0.32756 0.29694 0.36921
 H24 H 0.29444 0.33036 0.36828
 H25 H 0.32338 0.32467 0.32888
 H26 H 0.33494 0.33656 0.34090
 N27 N 0.35531 0.81625 -0.17594
 N28 N 0.35440 0.82647 -0.18605
 C29 C 0.36565 0.82484 -0.19554
 C30 C 0.37412 0.81285 -0.19122
 C31 C 0.36710 0.80771 -0.17869
 H32 H 0.36760 0.83202 -0.20475
 H33 H 0.37033 0.79856 -0.17189
 Cu34 Cu 0.33880 0.84112 -0.18509
 Cu35 Cu 0.34153 0.81510 -0.15954
 Cu36 Cu 0.31515 0.84279 -0.15709
 N37 N 0.32435 0.85687 -0.18387
 N38 N 0.31557 0.85780 -0.17244
 C39 C 0.30724 0.86999 -0.17364
 C40 C 0.31081 0.87705 -0.18666
 C41 C 0.32174 0.86831 -0.19285
 H42 H 0.29895 0.87320 -0.16576
 H43 H 0.32770 0.87036 -0.20289
 N44 N 0.31660 0.82649 -0.14283
 N45 N 0.32657 0.81597 -0.14384
 C46 C 0.32464 0.80647 -0.13273
 C47 C 0.31289 0.81117 -0.12423
 C48 C 0.30805 0.82391 -0.13102
 H49 H 0.33126 0.79676 -0.13103
 H50 H 0.29900 0.83083 -0.12761
 H51 H 0.32389 0.82570 -0.16915
 H52 H 0.33717 0.83733 -0.15879
 N53 N 0.85434 0.31524 -0.17560
 N54 N 0.85449 0.32568 -0.18552
 C55 C 0.86587 0.32346 -0.19469
 C56 C 0.87341 0.31098 -0.19032
 C57 C 0.86571 0.30602 -0.17813
 H58 H 0.86841 0.33043 -0.20390
 H59 H 0.86826 0.29655 -0.17147
 Cu60 Cu 0.83988 0.34123 -0.18583
 Cu61 Cu 0.83958 0.31479 -0.16002
 Cu62 Cu 0.81502 0.34409 -0.15879
 N63 N 0.82442 0.35598 -0.18626
 N64 N 0.81461 0.35704 -0.17574
 C65 C 0.80544 0.36829 -0.17868
 C66 C 0.80973 0.37472 -0.19184
 C67 C 0.82184 0.36649 -0.19627
 H68 H 0.79647 0.37159 -0.17161
 H69 H 0.82839 0.36798 -0.20603
 N70 N 0.81468 0.32782 -0.14459
 N71 N 0.82388 0.31659 -0.14511
 C72 C 0.82078 0.30741 -0.13395
 C73 C 0.80904 0.31310 -0.12601
 C74 C 0.80547 0.32604 -0.13317
 H75 H 0.82677 0.29740 -0.13171
 H76 H 0.79678 0.33365 -0.13033
 H77 H 0.82329 0.32666 -0.17080
 H78 H 0.83697 0.33699 -0.15954
 N79 N 0.85415 0.81652 0.32458
 N80 N 0.85387 0.82700 0.31469
 C81 C 0.86521 0.82511 0.30537
 C82 C 0.87312 0.81279 0.30960
 C83 C 0.86571 0.80762 0.32187
 H84 H 0.86751 0.83221 0.29619
 H85 H 0.86853 0.79817 0.32844
 Cu86 Cu 0.83889 0.84228 0.31505
 Cu87 Cu 0.83954 0.81525 0.34025
 Cu88 Cu 0.81261 0.84230 0.34079
 N89 N 0.82355 0.85725 0.31536
 N90 N 0.81337 0.85713 0.32557
 C91 C 0.80413 0.86846 0.32351
 C92 C 0.80868 0.87628 0.31127
 C93 C 0.82112 0.86876 0.30639
 H94 H 0.79481 0.87074 0.33051
 H95 H 0.82791 0.87139 0.29703
 N96 N 0.81356 0.82643 0.35527
 N97 N 0.82370 0.81605 0.35514
 C98 C 0.82105 0.80672 0.36630
 C99 C 0.80860 0.81147 0.37379
 C100 C 0.80423 0.82403 0.36646
 H101 H 0.82758 0.79708 0.36867
 H102 H 0.79491 0.83094 0.36903
 H103 H 0.82305 0.82580 0.32896
 H104 H 0.83497 0.83735 0.34099
 N105 N 0.64641 0.68426 0.32422
 N106 N 0.64683 0.67382 0.31428
 C107 C 0.63567 0.67580 0.30479
 C108 C 0.62778 0.68818 0.30893
 C109 C 0.63496 0.69323 0.32137
 H110 H 0.63349 0.66875 0.29554
 H111 H 0.63223 0.70282 0.32778
 Cu112 Cu 0.66213 0.65882 0.31443
 Cu113 Cu 0.66095 0.68566 0.33992
 Cu114 Cu 0.68816 0.65894 0.34044
 N115 N 0.67758 0.64396 0.31489
 N116 N 0.68766 0.64412 0.32519
 C117 C 0.69712 0.63297 0.32301
 C118 C 0.69283 0.62533 0.31062
 C119 C 0.68032 0.63264 0.30576
 H120 H 0.70647 0.63068 0.32996
 H121 H 0.67381 0.63005 0.29621
 N122 N 0.68697 0.67476 0.35498
 N123 N 0.67672 0.68504 0.35487
 C124 C 0.67929 0.69442 0.36602
 C125 C 0.69182 0.68982 0.37347
 C126 C 0.69627 0.67728 0.36614
 H127 H 0.67268 0.70401 0.36839
 H128 H 0.70567 0.67047 0.36868
 H129 H 0.67761 0.67539 0.32864
 H130 H 0.66569 0.66359 0.34046
 N131 N 0.64456 0.18476 -0.17521
 N132 N 0.64459 0.17422 -0.18504
 C133 C 0.63298 0.17617 -0.19407
 C134 C 0.62526 0.18857 -0.18959
 C135 C 0.63303 0.19369 -0.17759
 H136 H 0.63030 0.16904 -0.20315
 H137 H 0.63060 0.20328 -0.17107
 Cu138 Cu 0.65990 0.15910 -0.18489
 Cu139 Cu 0.65929 0.18633 -0.15990
 Cu140 Cu 0.68704 0.16033 -0.15966
 N141 N 0.67612 0.14496 -0.18493
 N142 N 0.68654 0.14550 -0.17497
 C143 C 0.69628 0.13464 -0.17741
 C144 C 0.69186 0.12673 -0.18964
 C145 C 0.67894 0.13370 -0.19411
 H146 H 0.70593 0.13280 -0.17073
 H147 H 0.67206 0.13083 -0.20332
 N148 N 0.68570 0.17621 -0.14507
 N149 N 0.67513 0.18616 -0.14523
 C150 C 0.67725 0.19559 -0.13407
 C151 C 0.68978 0.19143 -0.12648
 C152 C 0.69483 0.17906 -0.13380
 H153 H 0.67013 0.20480 -0.13167
 H154 H 0.70450 0.17265 -0.13122
 H155 H 0.67586 0.17603 -0.17165
 H156 H 0.66463 0.16429 -0.15909
 N157 N 0.14572 0.68540 -0.17411
 N158 N 0.14535 0.67504 -0.18412
 C159 C 0.13403 0.67773 -0.19331
 C160 C 0.12693 0.69049 -0.18881
 C161 C 0.13472 0.69498 -0.17656
 H162 H 0.13128 0.67099 -0.20265
 H163 H 0.13261 0.70453 -0.16986
 Cu164 Cu 0.15986 0.65918 -0.18424
 Cu165 Cu 0.16057 0.68607 -0.15879
 Cu166 Cu 0.18706 0.65879 -0.15916
 N167 N 0.17530 0.64422 -0.18450
 N168 N 0.18579 0.64421 -0.17460
 C169 C 0.19509 0.63304 -0.17724
 C170 C 0.19031 0.62555 -0.18953
 C171 C 0.17764 0.63296 -0.19384
 H172 H 0.20466 0.63062 -0.17065
 H173 H 0.17076 0.63049 -0.20318
 N174 N 0.18659 0.67446 -0.14437
 N175 N 0.17650 0.68488 -0.14419
 C176 C 0.17934 0.69408 -0.13299
 C177 C 0.19186 0.68923 -0.12575
 C178 C 0.19610 0.67673 -0.13331
 H179 H 0.17286 0.70371 -0.13044
 H180 H 0.20547 0.66979 -0.13099
 H181 H 0.17652 0.67525 -0.17078
 H182 H 0.16481 0.66381 -0.15837
 N183 N 0.14535 0.18343 0.32352
 N184 N 0.14592 0.17283 0.31378
 C185 C 0.13496 0.17473 0.30404
 C186 C 0.12706 0.18722 0.30786
 C187 C 0.13403 0.19242 0.32032
 H188 H 0.13293 0.16756 0.29483
 H189 H 0.13122 0.20210 0.32657
 Cu190 Cu 0.16106 0.15770 0.31464
 Cu191 Cu 0.15943 0.18496 0.33948
 Cu192 Cu 0.18711 0.15877 0.34088
 N193 N 0.17695 0.14334 0.31538
 N194 N 0.18708 0.14384 0.32562
 C195 C 0.19674 0.13281 0.32353
 C196 C 0.19248 0.12491 0.31127
 C197 C 0.17983 0.13195 0.30640
 H198 H 0.20614 0.13074 0.33048
 H199 H 0.17326 0.12911 0.29696
 N200 N 0.18524 0.17474 0.35532
 N201 N 0.17468 0.18468 0.35479
 C202 C 0.17634 0.19406 0.36606
 C203 C 0.18856 0.18987 0.37413
 C204 C 0.19391 0.17754 0.36695
 H205 H 0.16921 0.20333 0.36815
 H206 H 0.20338 0.17102 0.37000
 H207 H 0.17651 0.17456 0.32854
 H208 H 0.16473 0.16286 0.34060
 N209 N 0.64459 0.31522 0.67516
 N210 N 0.64414 0.32661 0.68400
 C211 C 0.63236 0.32530 0.69291
 C212 C 0.62518 0.31233 0.68956
 C213 C 0.63327 0.30619 0.67828
 H214 H 0.62924 0.33312 0.70127
 H215 H 0.63079 0.29616 0.67244
 Cu216 Cu 0.65907 0.34194 0.68317
 Cu217 Cu 0.65910 0.31352 0.65955
 Cu218 Cu 0.68601 0.34039 0.65776
 N219 N 0.67494 0.35633 0.68261
 N220 N 0.68538 0.35567 0.67265
 C221 C 0.69492 0.36677 0.67479
 C222 C 0.69028 0.37488 0.68679
 C223 C 0.67753 0.36788 0.69147
 H224 H 0.70460 0.36866 0.66815
 H225 H 0.67062 0.37097 0.70061
 N226 N 0.68481 0.32402 0.64370
 N227 N 0.67463 0.31371 0.64449
 C228 C 0.67659 0.30422 0.63335
 C229 C 0.68858 0.30873 0.62510
 C230 C 0.69352 0.32134 0.63205
 H231 H 0.66970 0.29476 0.63138
 H232 H 0.70264 0.32820 0.62876
 H233 H 0.67545 0.32492 0.67049
 H234 H 0.66369 0.33572 0.65758
 N235 N 0.64397 0.81551 1.17654
 N236 N 0.64369 0.82690 1.18539
 C237 C 0.63186 0.82581 1.19427
 C238 C 0.62449 0.81296 1.19089
 C239 C 0.63250 0.80668 1.17963
 H240 H 0.62885 0.83367 1.20264
 H241 H 0.62987 0.79668 1.17380
 Cu242 Cu 0.65912 0.84172 1.18464
 Cu243 Cu 0.65843 0.81356 1.16087
 Cu244 Cu 0.68528 0.84055 1.15860
 N245 N 0.67446 0.85662 1.18353
 N246 N 0.68465 0.85601 1.17332
 C247 C 0.69403 0.86729 1.17507
 C248 C 0.68956 0.87549 1.18707
 C249 C 0.67705 0.86834 1.19216
 H250 H 0.70349 0.86923 1.16814
 H251 H 0.67036 0.87138 1.20148
 N252 N 0.68406 0.82398 1.14476
 N253 N 0.67394 0.81363 1.14573
 C254 C 0.67586 0.80405 1.13466
 C255 C 0.68776 0.80855 1.12626
 C256 C 0.69268 0.82125 1.13306
 H257 H 0.66898 0.79455 1.13280
 H258 H 0.70172 0.82815 1.12961
 H259 H 0.67519 0.82480 1.17138
 H260 H 0.66304 0.83571 1.15897
 N261 N 0.14580 0.31523 1.17562
 N262 N 0.14477 0.32664 1.18439
 C263 C 0.13292 0.32496 1.19312
 C264 C 0.12620 0.31178 1.18967
 C265 C 0.13470 0.30585 1.17856
 H266 H 0.12935 0.33277 1.20132
 H267 H 0.13254 0.29582 1.17259
 Cu268 Cu 0.15871 0.34285 1.18355
 Cu269 Cu 0.16038 0.31414 1.15994
 Cu270 Cu 0.18397 0.34380 1.15669
 N271 N 0.17511 0.35665 1.18395
 N272 N 0.18484 0.35698 1.17331
 C273 C 0.19436 0.36802 1.17565
 C274 C 0.19048 0.37511 1.18852
 C275 C 0.17820 0.36748 1.19354
 H276 H 0.20327 0.37077 1.16829
 H277 H 0.17178 0.36980 1.20324
 N278 N 0.18453 0.32688 1.14340
 N279 N 0.17578 0.31540 1.14468
 C280 C 0.17890 0.30584 1.13382
 C281 C 0.19026 0.31156 1.12534
 C282 C 0.19351 0.32491 1.13186
 H283 H 0.17315 0.29560 1.13209
 H284 H 0.20180 0.33271 1.12849
 H285 H 0.17593 0.32736 1.17012
 H286 H 0.16215 0.33619 1.15773
 N287 N 0.14596 0.81282 0.67445
 N288 N 0.14531 0.82320 0.68443
 C289 C 0.13397 0.82040 0.69354
 C290 C 0.12711 0.80755 0.68903
 C291 C 0.13509 0.80309 0.67686
 H292 H 0.13096 0.82720 0.70276
 H293 H 0.13307 0.79358 0.67008
 Cu294 Cu 0.15951 0.83921 0.68435
 Cu295 Cu 0.16056 0.81285 0.65879
 Cu296 Cu 0.18518 0.84206 0.65804
 N297 N 0.17372 0.85520 0.68434
 N298 N 0.18369 0.85629 0.67395
 C299 C 0.19227 0.86805 0.67662
 C300 C 0.18744 0.87475 0.68941
 C301 C 0.17561 0.86623 0.69396
 H302 H 0.20140 0.87137 0.66978
 H303 H 0.16897 0.86781 0.70365
 N304 N 0.18491 0.82642 0.64307
 N305 N 0.17604 0.81495 0.64378
 C306 C 0.17891 0.80596 0.63242
 C307 C 0.18996 0.81216 0.62406
 C308 C 0.19349 0.82514 0.63108
 H309 H 0.17312 0.79585 0.63010
 H310 H 0.20180 0.83296 0.62775
 H311 H 0.17662 0.82470 0.66972
 H312 H 0.16343 0.83538 0.65823
 N313 N 0.35560 0.68408 0.67599
 N314 N 0.35523 0.67366 0.68591
 C315 C 0.36653 0.67551 0.69524
 C316 C 0.37450 0.68777 0.69098
 C317 C 0.36718 0.69293 0.67867
 H318 H 0.36872 0.66848 0.70450
 H319 H 0.37008 0.70235 0.67208
 Cu320 Cu 0.34006 0.65865 0.68565
 Cu321 Cu 0.34101 0.68524 0.66037
 Cu322 Cu 0.31370 0.65842 0.65982
 N323 N 0.32479 0.64376 0.68540
 N324 N 0.31447 0.64361 0.67533
 C325 C 0.30545 0.63210 0.67779
 C326 C 0.31044 0.62462 0.69009
 C327 C 0.32272 0.63242 0.69458
 H328 H 0.29607 0.62934 0.67106
 H329 H 0.32963 0.63008 0.70391
 N330 N 0.31495 0.67440 0.64519
 N331 N 0.32533 0.68455 0.64549
 C332 C 0.32331 0.69381 0.63420
 C333 C 0.31109 0.68934 0.62630
 C334 C 0.30606 0.67698 0.63364
 H335 H 0.33026 0.70317 0.63194
 H336 H 0.29670 0.67026 0.63073
 H337 H 0.32406 0.67479 0.67150
 H338 H 0.33595 0.66303 0.65964
 N339 N 0.35561 0.18381 1.17434
 N340 N 0.35560 0.17342 1.18432
 C341 C 0.36709 0.17543 1.19338
 C342 C 0.37483 0.18773 1.18889
 C343 C 0.36717 0.19279 1.17673
 H344 H 0.36956 0.16848 1.20263
 H345 H 0.36983 0.20222 1.17006
 Cu346 Cu 0.34059 0.15827 1.18466
 Cu347 Cu 0.34064 0.18464 1.15896
 Cu348 Cu 0.31377 0.15735 1.15959
 N349 N 0.32557 0.14312 1.18503
 N350 N 0.31502 0.14279 1.17521
 C351 C 0.30613 0.13128 1.17797
 C352 C 0.31138 0.12397 1.19025
 C353 C 0.32375 0.13187 1.19440
 H354 H 0.29659 0.12847 1.17149
 H355 H 0.33093 0.12963 1.20354
 N356 N 0.31438 0.17303 1.14471
 N357 N 0.32452 0.18342 1.14443
 C358 C 0.32192 0.19228 1.13289
 C359 C 0.30956 0.18722 1.12552
 C360 C 0.30511 0.17500 1.13340
 H361 H 0.32865 0.20162 1.12998
 H362 H 0.29578 0.16803 1.13109
 H363 H 0.32430 0.17421 1.17064
 H364 H 0.33609 0.16245 1.15868
 N365 N 0.85376 0.68550 1.17455
 N366 N 0.85408 0.67513 1.18454
 C367 C 0.86538 0.67775 1.19375
 C368 C 0.87255 0.69046 1.18928
 C369 C 0.86481 0.69502 1.17703
 H370 H 0.86808 0.67098 1.20308
 H371 H 0.86697 0.70456 1.17035
 Cu372 Cu 0.83952 0.65936 1.18464
 Cu373 Cu 0.83901 0.68620 1.15915
 Cu374 Cu 0.81244 0.65905 1.15943
 N375 N 0.82399 0.64452 1.18489
 N376 N 0.81356 0.64455 1.17494
 C377 C 0.80419 0.63345 1.17757
 C378 C 0.80888 0.62594 1.18989
 C379 C 0.82156 0.63331 1.19425
 H380 H 0.79461 0.63114 1.17096
 H381 H 0.82843 0.63080 1.20357
 N382 N 0.81307 0.67465 1.14460
 N383 N 0.82317 0.68504 1.14447
 C384 C 0.82048 0.69418 1.13319
 C385 C 0.80803 0.68932 1.12584
 C386 C 0.80368 0.67688 1.13342
 H387 H 0.82699 0.70377 1.13065
 H388 H 0.79434 0.66995 1.13103
 H389 H 0.82295 0.67545 1.17109
 H390 H 0.83468 0.66394 1.15875
 N391 N 0.85398 0.18552 0.67336
 N392 N 0.85393 0.17550 0.68372
 C393 C 0.86533 0.17803 0.69284
 C394 C 0.87291 0.19034 0.68795
 C395 C 0.86535 0.19473 0.67553
 H396 H 0.86778 0.17152 0.70241
 H397 H 0.86785 0.20396 0.66854
 Cu398 Cu 0.83873 0.16037 0.68436
 Cu399 Cu 0.83922 0.18625 0.65794
 Cu400 Cu 0.81269 0.15904 0.65823
 N401 N 0.82384 0.14491 0.68409
 N402 N 0.81381 0.14455 0.67374
 C403 C 0.80472 0.13316 0.67605
 C404 C 0.80917 0.12587 0.68859
 C405 C 0.82143 0.13365 0.69339
 H406 H 0.79547 0.13053 0.66912
 H407 H 0.82798 0.13143 0.70301
 N408 N 0.81328 0.17463 0.64340
 N409 N 0.82334 0.18507 0.64328
 C410 C 0.82054 0.19424 0.63204
 C411 C 0.80807 0.18935 0.62474
 C412 C 0.80383 0.17686 0.63229
 H413 H 0.82698 0.20389 0.62952
 H414 H 0.79450 0.16990 0.62992
 H415 H 0.82273 0.17599 0.66959
 H416 H 0.83498 0.16403 0.65821
 N417 N 0.31417 0.35467 0.67464
 N418 N 0.32457 0.35468 0.68463
 C419 C 0.32208 0.36586 0.69401
 C420 C 0.30941 0.37322 0.68963
 C421 C 0.30476 0.36576 0.67727
 H422 H 0.32889 0.36834 0.70339
 H423 H 0.29525 0.36818 0.67058
 Cu424 Cu 0.34017 0.33989 0.68436
 Cu425 Cu 0.31327 0.34030 0.65900
 Cu426 Cu 0.33990 0.31318 0.65864
 N427 N 0.35474 0.32411 0.68425
 N428 N 0.35450 0.31378 0.67420
 C429 C 0.36559 0.30430 0.67665
 C430 C 0.37328 0.30884 0.68894
 C431 C 0.36605 0.32150 0.69347
 H432 H 0.36787 0.29483 0.66989
 H433 H 0.36872 0.32825 0.70282
 N434 N 0.32417 0.31448 0.64382
 N435 N 0.31406 0.32488 0.64400
 C436 C 0.30486 0.32291 0.63263
 C437 C 0.30934 0.31065 0.62483
 C438 C 0.32166 0.30558 0.63229
 H439 H 0.29550 0.32985 0.63031
 H440 H 0.32834 0.29616 0.62951
 H441 H 0.32385 0.32374 0.67061
 H442 H 0.33563 0.33535 0.65841
 N443 N 0.31591 0.85423 0.17356
 N444 N 0.32646 0.85513 0.18335
 C445 C 0.32366 0.86656 0.19230
 C446 C 0.31062 0.87322 0.18788
 C447 C 0.30608 0.86505 0.17591
 H448 H 0.33051 0.86966 0.20146
 H449 H 0.29629 0.86672 0.16938
 Cu450 Cu 0.34266 0.84105 0.18370
 Cu451 Cu 0.31543 0.83899 0.15869
 Cu452 Cu 0.34274 0.81249 0.16019
 N453 N 0.35778 0.82586 0.18441
 N454 N 0.35734 0.81439 0.17567
 C455 C 0.36879 0.80548 0.17872
 C456 C 0.37696 0.81180 0.18983
 C457 C 0.36968 0.82474 0.19317
 H458 H 0.37131 0.79542 0.17295
 H459 H 0.37281 0.83267 0.20141
 N460 N 0.32710 0.81251 0.14524
 N461 N 0.31678 0.82270 0.14460
 C462 C 0.30807 0.82003 0.13298
 C463 C 0.31313 0.80756 0.12587
 C464 C 0.32523 0.80310 0.13402
 H465 H 0.29886 0.82685 0.12980
 H466 H 0.33226 0.79377 0.13188
 H467 H 0.32640 0.82374 0.17136
 H468 H 0.33783 0.83462 0.15821
 N469 N 0.81404 0.35398 0.17467
 N470 N 0.82532 0.35544 0.18357
 C471 C 0.82283 0.36687 0.19260
 C472 C 0.80920 0.37280 0.18928
 C473 C 0.80391 0.36433 0.17786
 H474 H 0.83018 0.37039 0.20123
 H475 H 0.79353 0.36570 0.17220
 Cu476 Cu 0.84190 0.34191 0.18329
 Cu477 Cu 0.81359 0.33902 0.15944
 Cu478 Cu 0.84208 0.31374 0.15930
 N479 N 0.85691 0.32667 0.18378
 N480 N 0.85696 0.31569 0.17446
 C481 C 0.86849 0.30685 0.17738
 C482 C 0.87614 0.31258 0.18922
 C483 C 0.86840 0.32517 0.19297
 H484 H 0.87110 0.29702 0.17127
 H485 H 0.87084 0.33267 0.20180
 N486 N 0.82606 0.31354 0.14481
 N487 N 0.81515 0.32312 0.14485
 C488 C 0.80602 0.32008 0.13361
 C489 C 0.81144 0.30795 0.12613
 C490 C 0.82418 0.30416 0.13359
 H491 H 0.79614 0.32621 0.13113
 H492 H 0.83163 0.29528 0.13099
 H493 H 0.82579 0.32412 0.17144
 H494 H 0.83610 0.33568 0.15794
 N495 N 0.81576 0.85601 0.67546
 N496 N 0.82633 0.85541 0.68526
 C497 C 0.82467 0.86662 0.69473
 C498 C 0.81240 0.87476 0.69067
 C499 C 0.80704 0.86763 0.67835
 H500 H 0.83186 0.86866 0.70393
 H501 H 0.79756 0.87069 0.67187
 Cu502 Cu 0.84132 0.84010 0.68475
 Cu503 Cu 0.81413 0.84171 0.65967
 Cu504 Cu 0.84006 0.81377 0.65888
 N505 N 0.85546 0.82400 0.68437
 N506 N 0.85491 0.81378 0.67424
 C507 C 0.86578 0.80400 0.67656
 C508 C 0.87365 0.80826 0.68886
 C509 C 0.86673 0.82105 0.69351
 H510 H 0.86778 0.79452 0.66973
 H511 H 0.86960 0.82767 0.70289
 N512 N 0.82420 0.81559 0.64427
 N513 N 0.81432 0.82622 0.64457
 C514 C 0.80498 0.82445 0.63325
 C515 C 0.80914 0.81208 0.62540
 C516 C 0.82141 0.80678 0.63276
 H517 H 0.79578 0.83161 0.63096
 H518 H 0.82789 0.79724 0.62992
 H519 H 0.82420 0.82478 0.67099
 H520 H 0.83620 0.83615 0.65882
 N521 N 0.68557 0.64581 0.67404
 N522 N 0.67519 0.64543 0.68409
 C523 C 0.67784 0.63407 0.69318
 C524 C 0.69058 0.62695 0.68858
 C525 C 0.69512 0.63476 0.67637
 H526 H 0.67108 0.63131 0.70253
 H527 H 0.70466 0.63262 0.66961
 Cu528 Cu 0.65937 0.65999 0.68440
 Cu529 Cu 0.68622 0.66063 0.65873
 Cu530 Cu 0.65899 0.68715 0.65940
 N531 N 0.64454 0.67556 0.68488
 N532 N 0.64454 0.68602 0.67500
 C533 C 0.63350 0.69544 0.67780
 C534 C 0.62607 0.69076 0.69019
 C535 C 0.63340 0.67803 0.69438
 H536 H 0.63112 0.70503 0.67126
 H537 H 0.63095 0.67120 0.70375
 N538 N 0.67452 0.68659 0.64444
 N539 N 0.68498 0.67654 0.64416
 C540 C 0.69413 0.67940 0.63288
 C541 C 0.68919 0.69190 0.62572
 C542 C 0.67670 0.69609 0.63338
 H543 H 0.70380 0.67299 0.63024
 H544 H 0.66971 0.70542 0.63114
 H545 H 0.67555 0.67649 0.67088
 H546 H 0.66392 0.66493 0.65851
 N547 N 0.68453 0.14487 0.17400
 N548 N 0.67384 0.14502 0.18373
 C549 C 0.67556 0.13362 0.19292
 C550 C 0.68799 0.12579 0.18878
 C551 C 0.69341 0.13331 0.17669
 H552 H 0.66831 0.13126 0.20199
 H553 H 0.70304 0.13058 0.17026
 Cu554 Cu 0.65856 0.15996 0.18352
 Cu555 Cu 0.68608 0.15975 0.15866
 Cu556 Cu 0.65906 0.18673 0.15841
 N557 N 0.64365 0.17530 0.18337
 N558 N 0.64394 0.18569 0.17342
 C559 C 0.63255 0.19487 0.17563
 C560 C 0.62460 0.19003 0.18765
 C561 C 0.63202 0.17754 0.19229
 H562 H 0.63034 0.20444 0.16899
 H563 H 0.62915 0.17056 0.20142
 N564 N 0.67521 0.18603 0.14411
 N565 N 0.68556 0.17585 0.14411
 C566 C 0.69504 0.17863 0.13306
 C567 C 0.69041 0.19120 0.12577
 C568 C 0.67778 0.19550 0.13312
 H569 H 0.70465 0.17206 0.13060
 H570 H 0.67090 0.20486 0.13067
 H571 H 0.67542 0.17596 0.17022
 H572 H 0.66396 0.16443 0.15775
 N573 N 0.18413 0.64481 0.17548
 N574 N 0.17336 0.64524 0.18510
 C575 C 0.17489 0.63393 0.19446
 C576 C 0.18729 0.62592 0.19051
 C577 C 0.19286 0.63321 0.17838
 H578 H 0.16754 0.63175 0.20351
 H579 H 0.20249 0.63030 0.17204
 Cu580 Cu 0.15838 0.66054 0.18454
 Cu581 Cu 0.18603 0.65925 0.15991
 Cu582 Cu 0.16004 0.68711 0.15895
 N583 N 0.14428 0.67666 0.18416
 N584 N 0.14496 0.68696 0.17412
 C585 C 0.13410 0.69675 0.17646
 C586 C 0.12612 0.69243 0.18868
 C587 C 0.13295 0.67958 0.19325
 H588 H 0.13222 0.70633 0.16974
 H589 H 0.13000 0.67290 0.20256
 N590 N 0.17617 0.68542 0.14458
 N591 N 0.18610 0.67485 0.14499
 C592 C 0.19577 0.67684 0.13396
 C593 C 0.19177 0.68930 0.12620
 C594 C 0.17925 0.69442 0.13329
 H595 H 0.20505 0.66972 0.13179
 H596 H 0.17293 0.70409 0.13056
 H597 H 0.17568 0.67606 0.17122
 H598 H 0.16397 0.66474 0.15874
 N599 N 0.18648 0.14438 0.67383
 N600 N 0.17645 0.14410 0.68421
 C601 C 0.17924 0.13272 0.69321
 C602 C 0.19173 0.12545 0.68824
 C603 C 0.19598 0.13321 0.67587
 H604 H 0.17275 0.13006 0.70276
 H605 H 0.20532 0.13098 0.66886
 Cu606 Cu 0.16093 0.15882 0.68511
 Cu607 Cu 0.18666 0.15941 0.65861
 Cu608 Cu 0.15879 0.18552 0.65983
 N609 N 0.14526 0.17341 0.68559
 N610 N 0.14448 0.18381 0.67566
 C611 C 0.13275 0.19241 0.67852
 C612 C 0.12573 0.18714 0.69095
 C613 C 0.13404 0.17504 0.69511
 H614 H 0.12958 0.20176 0.67197
 H615 H 0.13212 0.16799 0.70442
 N616 N 0.17429 0.18539 0.64470
 N617 N 0.18492 0.17549 0.64423
 C618 C 0.19385 0.17852 0.63283
 C619 C 0.18862 0.19095 0.62575
 C620 C 0.17618 0.19495 0.63361
 H621 H 0.20354 0.17223 0.63001
 H622 H 0.16899 0.20416 0.63146
 H623 H 0.17611 0.17549 0.67064
 H624 H 0.16426 0.16347 0.65903
 N625 N 0.31566 0.64450 0.32493
 N626 N 0.32635 0.64497 0.31524
 C627 C 0.32473 0.63374 0.30578
 C628 C 0.31232 0.62577 0.30973
 C629 C 0.30687 0.63298 0.32198
 H630 H 0.33202 0.63160 0.29667
 H631 H 0.29727 0.63007 0.32835
 Cu632 Cu 0.34132 0.66025 0.31589
 Cu633 Cu 0.31390 0.65884 0.34067
 Cu634 Cu 0.34051 0.68613 0.34213
 N635 N 0.35614 0.67566 0.31681
 N636 N 0.35574 0.68572 0.32712
 C637 C 0.36708 0.69504 0.32524
 C638 C 0.37509 0.69063 0.31307
 C639 C 0.36778 0.67826 0.30801
 H640 H 0.36920 0.70440 0.33219
 H641 H 0.37072 0.67159 0.29867
 N642 N 0.32420 0.68469 0.35631
 N643 N 0.31406 0.67434 0.35574
 C644 C 0.30437 0.67644 0.36672
 C645 C 0.30858 0.68874 0.37462
 C646 C 0.32123 0.69365 0.36767
 H647 H 0.29495 0.66950 0.36879
 H648 H 0.32774 0.70315 0.37054
 H649 H 0.32446 0.67576 0.32984
 H650 H 0.33607 0.66385 0.34183
 N651 N 0.31508 0.14389 0.82523
 N652 N 0.32542 0.14395 0.81514
 C653 C 0.32334 0.13251 0.80605
 C654 C 0.31106 0.12473 0.81066
 C655 C 0.30609 0.13234 0.82290
 H656 H 0.33027 0.13006 0.79674
 H657 H 0.29674 0.12963 0.82972
 Cu658 Cu 0.34068 0.15888 0.81486
 Cu659 Cu 0.31436 0.15872 0.84074
 Cu660 Cu 0.34173 0.18546 0.84015
 N661 N 0.35596 0.17382 0.81459
 N662 N 0.35632 0.18425 0.82451
 C663 C 0.36791 0.19307 0.82185
 C664 C 0.37527 0.18792 0.80955
 C665 C 0.36730 0.17566 0.80526
 H666 H 0.37080 0.20249 0.82846
 H667 H 0.36953 0.16863 0.79599
 N668 N 0.32604 0.18483 0.85508
 N669 N 0.31563 0.17471 0.85540
 C670 C 0.30679 0.17726 0.86701
 C671 C 0.31189 0.18959 0.87438
 C672 C 0.32410 0.19405 0.86643
 H673 H 0.29745 0.17054 0.86997
 H674 H 0.33108 0.20337 0.86870
 H675 H 0.32478 0.17507 0.82910
 H676 H 0.33664 0.16328 0.84090
 N677 N 0.81457 0.64428 0.82403
 N678 N 0.82510 0.64494 0.81416
 C679 C 0.82350 0.63369 0.80472
 C680 C 0.81130 0.62550 0.80887
 C681 C 0.80594 0.63261 0.82121
 H682 H 0.83061 0.63171 0.79542
 H683 H 0.79648 0.62955 0.82773
 Cu684 Cu 0.83970 0.66059 0.81458
 Cu685 Cu 0.81265 0.65871 0.83968
 Cu686 Cu 0.83883 0.68642 0.84083
 N687 N 0.85444 0.67611 0.81540
 N688 N 0.85404 0.68612 0.82575
 C689 C 0.86521 0.69562 0.82376
 C690 C 0.87311 0.69140 0.81144
 C691 C 0.86591 0.67892 0.80645
 H692 H 0.86735 0.70493 0.83077
 H693 H 0.86868 0.67247 0.79691
 N694 N 0.82257 0.68486 0.85509
 N695 N 0.81259 0.67433 0.85464
 C696 C 0.80286 0.67642 0.86560
 C697 C 0.80685 0.68889 0.87336
 C698 C 0.81944 0.69391 0.86634
 H699 H 0.79353 0.66938 0.86772
 H700 H 0.82579 0.70354 0.86909
 H701 H 0.82277 0.67585 0.82873
 H702 H 0.83472 0.66412 0.84056
 N703 N 0.81566 0.14433 0.32482
 N704 N 0.82605 0.14440 0.31478
 C705 C 0.82408 0.13292 0.30574
 C706 C 0.81181 0.12511 0.31030
 C707 C 0.80672 0.13275 0.32247
 H708 H 0.83107 0.13047 0.29648
 H709 H 0.79731 0.13002 0.32922
 Cu710 Cu 0.84129 0.15933 0.31452
 Cu711 Cu 0.81476 0.15928 0.34021
 Cu712 Cu 0.84216 0.18603 0.33969
 N713 N 0.85655 0.17428 0.31426
 N714 N 0.85688 0.18472 0.32417
 C715 C 0.86853 0.19351 0.32155
 C716 C 0.87594 0.18829 0.30931
 C717 C 0.86795 0.17606 0.30500
 H718 H 0.87141 0.20293 0.32816
 H719 H 0.87020 0.16900 0.29577
 N720 N 0.82632 0.18550 0.35447
 N721 N 0.81589 0.17539 0.35475
 C722 C 0.80692 0.17806 0.36624
 C723 C 0.81195 0.19043 0.37357
 C724 C 0.82425 0.19482 0.36572
 H725 H 0.79752 0.17138 0.36915
 H726 H 0.83122 0.20415 0.36799
 H727 H 0.82526 0.17558 0.32858
 H728 H 0.83703 0.16384 0.34052
 N729 N 0.68427 0.35569 0.32566
 N730 N 0.67394 0.35627 0.31560
 C731 C 0.67663 0.36774 0.30667
 C732 C 0.68934 0.37477 0.31140
 C733 C 0.69383 0.36676 0.32351
 H734 H 0.66986 0.37074 0.29740
 H735 H 0.70342 0.36869 0.33023
 Cu736 Cu 0.65816 0.34178 0.31509
 Cu737 Cu 0.68486 0.34048 0.34062
 Cu738 Cu 0.65790 0.31363 0.33893
 N739 N 0.64299 0.32668 0.31444
 N740 N 0.64338 0.31536 0.32336
 C741 C 0.63194 0.30644 0.32043
 C742 C 0.62383 0.31258 0.30919
 C743 C 0.63112 0.32544 0.30565
 H744 H 0.62936 0.29653 0.32641
 H745 H 0.62799 0.33322 0.29726
 N746 N 0.67345 0.31384 0.35394
 N747 N 0.68361 0.32416 0.35472
 C748 C 0.69226 0.32153 0.36641
 C749 C 0.68730 0.30894 0.37339
 C750 C 0.67535 0.30439 0.36511
 H751 H 0.70136 0.32842 0.36972
 H752 H 0.66845 0.29494 0.36710
 H753 H 0.67436 0.32489 0.32803
 H754 H 0.66249 0.33585 0.34076
 N755 N 0.68594 0.85563 0.82540
 N756 N 0.67550 0.85594 0.81547
 C757 C 0.67810 0.86715 0.80620
 C758 C 0.69090 0.87426 0.81058
 C759 C 0.69551 0.86659 0.82284
 H760 H 0.67127 0.86982 0.79689
 H761 H 0.70513 0.86874 0.82946
 Cu762 Cu 0.65971 0.84149 0.81557
 Cu763 Cu 0.68660 0.84092 0.84074
 Cu764 Cu 0.65929 0.81436 0.84081
 N765 N 0.64470 0.82626 0.81554
 N766 N 0.64454 0.81573 0.82536
 C767 C 0.63301 0.80680 0.82270
 C768 C 0.62551 0.81201 0.81053
 C769 C 0.63332 0.82438 0.80630
 H770 H 0.63030 0.79728 0.82922
 H771 H 0.63097 0.83148 0.79713
 N772 N 0.67525 0.81501 0.85548
 N773 N 0.68555 0.82522 0.85541
 C774 C 0.69493 0.82275 0.86652
 C775 C 0.69043 0.81034 0.87401
 C776 C 0.67785 0.80573 0.86670
 H777 H 0.70437 0.82954 0.86894
 H778 H 0.67118 0.79624 0.86922
 H779 H 0.67558 0.82466 0.82903
 H780 H 0.66412 0.83637 0.84141
 N781 N 0.18418 0.35433 0.82535
 N782 N 0.17371 0.35396 0.81542
 C783 C 0.17563 0.36517 0.80602
 C784 C 0.18795 0.37310 0.81024
 C785 C 0.19310 0.36584 0.82259
 H786 H 0.16858 0.36734 0.79676
 H787 H 0.20256 0.36872 0.82917
 Cu788 Cu 0.15845 0.33896 0.81561
 Cu789 Cu 0.18536 0.33989 0.84113
 Cu790 Cu 0.15870 0.31262 0.84123
 N791 N 0.14377 0.32337 0.81572
 N792 N 0.14401 0.31310 0.82579
 C793 C 0.13287 0.30367 0.82344
 C794 C 0.12514 0.30820 0.81117
 C795 C 0.13241 0.32079 0.80657
 H796 H 0.13060 0.29424 0.83024
 H797 H 0.12972 0.32753 0.79721
 N798 N 0.17436 0.31386 0.85601
 N799 N 0.18454 0.32420 0.85611
 C800 C 0.19344 0.32203 0.86774
 C801 C 0.18859 0.30973 0.87533
 C802 C 0.17650 0.30488 0.86748
 H803 H 0.20266 0.32898 0.87057
 H804 H 0.16974 0.29544 0.86990
 H805 H 0.17517 0.32341 0.82959
 H806 H 0.16324 0.33502 0.84161
 N807 N 0.18456 0.85416 0.32569
 N808 N 0.17416 0.85368 0.31570
 C809 C 0.17604 0.86489 0.30628
 C810 C 0.18828 0.87292 0.31057
 C811 C 0.19341 0.86572 0.32296
 H812 H 0.16907 0.86697 0.29694
 H813 H 0.20279 0.86871 0.32960
 Cu814 Cu 0.15918 0.83840 0.31594
 Cu815 Cu 0.18583 0.83971 0.34150
 Cu816 Cu 0.15906 0.81246 0.34183
 N817 N 0.14417 0.82311 0.31618
 N818 N 0.14428 0.81299 0.32641
 C819 C 0.13307 0.80363 0.32416
 C820 C 0.12543 0.80802 0.31178
 C821 C 0.13282 0.82049 0.30701
 H822 H 0.13067 0.79433 0.33109
 H823 H 0.13026 0.82705 0.29751
 N824 N 0.17486 0.81370 0.35651
 N825 N 0.18506 0.82402 0.35650
 C826 C 0.19411 0.82182 0.36802
 C827 C 0.18933 0.80952 0.37565
 C828 C 0.17712 0.80470 0.36795
 H829 H 0.20338 0.82874 0.37073
 H830 H 0.17037 0.79527 0.37045
 H831 H 0.17568 0.82296 0.33028
 H832 H 0.16371 0.83477 0.34201
 C833 C 0.25521 1.01177 0.24438
 C834 C 0.24369 1.01145 0.25485
 C835 C 0.23883 0.99787 0.26028
 C836 C 0.24528 0.98459 0.25576
 C837 C 0.25689 0.98493 0.24537
 C838 C 0.26168 0.99851 0.23988
 H839 H 0.27032 0.99873 0.23166
 H840 H 0.23019 0.99766 0.26849
 C841 C 0.25402 0.51246 0.74428
 C842 C 0.24231 0.51219 0.75456
 C843 C 0.23765 0.49865 0.76029
 C844 C 0.24445 0.48539 0.75624
 C845 C 0.25621 0.48569 0.74602
 C846 C 0.26083 0.49921 0.74025
 H847 H 0.26959 0.49937 0.73216
 H848 H 0.22888 0.49848 0.76837
 C849 C 0.75521 -0.01289 0.25441
 C850 C 0.74394 -0.01287 0.24369
 C851 C 0.73873 0.00060 0.23830
 C852 C 0.74412 0.01403 0.24361
 C853 C 0.75475 0.01400 0.25495
 C854 C 0.76028 0.00053 0.26002
 H855 H 0.76865 0.00050 0.26848
 H856 H 0.73035 0.00062 0.22984
 C857 C 0.75296 0.48705 0.75705
 C858 C 0.74198 0.48656 0.74605
 C859 C 0.73640 0.49978 0.74040
 C860 C 0.74137 0.51346 0.74545
 C861 C 0.75246 0.51394 0.75634
 C862 C 0.75811 0.50073 0.76193
 H863 H 0.76653 0.50110 0.77034
 H864 H 0.72792 0.49941 0.73205
 C865 C 0.25351 0.48752 0.25752
 C866 C 0.24285 0.48728 0.24621
 C867 C 0.23817 0.50060 0.24003
 C868 C 0.24364 0.51414 0.24497
 C869 C 0.25405 0.51437 0.25650
 C870 C 0.25893 0.50105 0.26249
 H871 H 0.26700 0.50122 0.27124
 H872 H 0.23009 0.50042 0.23129
 C873 C 0.75566 1.01378 0.74492
 C874 C 0.74297 1.01399 0.75399
 C875 C 0.73651 1.00064 0.75816
 C876 C 0.74221 0.98711 0.75345
 C877 C 0.75463 0.98691 0.74404
 C878 C 0.76131 1.00024 0.74012
 H879 H 0.77071 1.00012 0.73278
 H880 H 0.72708 1.00079 0.76548
 C881 C 0.75692 0.51242 0.24482
 C882 C 0.74456 0.51208 0.25426
 C883 C 0.73856 0.49850 0.25833
 C884 C 0.74437 0.48519 0.25308
 C885 C 0.75654 0.48550 0.24330
 C886 C 0.76272 0.49916 0.23953
 H887 H 0.77217 0.49950 0.23225
 H888 H 0.72919 0.49828 0.26571
 C889 C 0.25461 -0.01425 0.75631
 C890 C 0.24393 -0.01413 0.74497
 C891 C 0.23811 -0.00068 0.74021
 C892 C 0.24275 0.01273 0.74619
 C893 C 0.25366 0.01271 0.75726
 C894 C 0.25941 -0.00078 0.76214
 H895 H 0.26740 -0.00077 0.77095
 H896 H 0.23003 -0.00061 0.73146
 C897 C 0.24460 0.25446 1.01356
 C898 C 0.25591 0.24371 1.01353
 C899 C 0.26113 0.23826 1.00010
 C900 C 0.25575 0.24355 0.98668
 C901 C 0.24515 0.25499 0.98673
 C902 C 0.23958 0.26009 1.00016
 H903 H 0.23120 0.26859 1.00018
 H904 H 0.26952 0.22977 1.00008
 C905 C 0.24564 0.75554 0.51444
 C906 C 0.25599 0.74385 0.51425
 C907 C 0.26172 0.73905 0.50081
 C908 C 0.25726 0.74532 0.48751
 C909 C 0.24658 0.75667 0.48761
 C910 C 0.24094 0.76160 0.50108
 H911 H 0.23315 0.77064 0.50116
 H912 H 0.26958 0.73007 0.50067
 C913 C 0.25444 0.75713 -0.01327
 C914 C 0.24270 0.74688 -0.01328
 C915 C 0.23715 0.74174 0.00009
 C916 C 0.24286 0.74659 0.01351
 C917 C 0.25460 0.75683 0.01356
 C918 C 0.26037 0.76177 0.00016
 H919 H 0.26912 0.76987 0.00019
 H920 H 0.22834 0.73369 0.00006
 C921 C 0.25756 0.25326 0.48643
 C922 C 0.24639 0.24243 0.48585
 C923 C 0.24054 0.23689 0.49897
 C924 C 0.24563 0.24172 0.51266
 C925 C 0.25680 0.25256 0.51324
 C926 C 0.26252 0.25821 0.50012
 H927 H 0.27111 0.26649 0.50057
 H928 H 0.23203 0.22855 0.49853
 C929 C 0.74465 0.75636 1.01351
 C930 C 0.75686 0.74665 1.01334
 C931 C 0.76238 0.74165 0.99988
 C932 C 0.75592 0.74583 0.98657
 C933 C 0.74346 0.75522 0.98674
 C934 C 0.73800 0.76031 1.00021
 H935 H 0.72877 0.76789 1.00030
 H936 H 0.77164 0.73411 0.99976
 C937 C 0.74524 0.25676 0.51221
 C938 C 0.75646 0.24593 0.51208
 C939 C 0.76129 0.24020 0.49863
 C940 C 0.75542 0.24508 0.48529
 C941 C 0.74450 0.25622 0.48539
 C942 C 0.73938 0.26168 0.49886
 H943 H 0.73114 0.27032 0.49894
 H944 H 0.76956 0.23159 0.49860
 C945 C 0.75703 0.25454 -0.01402
 C946 C 0.74735 0.24233 -0.01380
 C947 C 0.74270 0.23665 -0.00030
 C948 C 0.74724 0.24286 0.01300
 C949 C 0.75659 0.25532 0.01280
 C950 C 0.76129 0.26099 -0.00071
 H951 H 0.76884 0.27022 -0.00085
 H952 H 0.73517 0.22740 -0.00013
 C953 C 0.75695 0.75489 0.48654
 C954 C 0.74495 0.74496 0.48631
 C955 C 0.73947 0.73950 0.49960
 C956 C 0.74547 0.74379 0.51309
 C957 C 0.75709 0.75417 0.51334
 C958 C 0.76270 0.75949 0.50005
 H959 H 0.77175 0.76727 0.50021
 H960 H 0.73045 0.73168 0.49945
 C961 C 1.01473 0.24559 0.25612
 C962 C 1.01526 0.25635 0.24491
 C963 C 1.00194 0.26148 0.23891
 C964 C 0.98822 0.25629 0.24383
 C965 C 0.98775 0.24586 0.25530
 C966 C 1.00101 0.24061 0.26117
 H967 H 1.00066 0.23252 0.26988
 H968 H 1.00223 0.26963 0.23026
 C969 C 0.51378 0.24408 0.75421
 C970 C 0.51430 0.25630 0.74460
 C971 C 0.50100 0.26288 0.74016
 C972 C 0.48728 0.25777 0.74517
 C973 C 0.48685 0.24591 0.75518
 C974 C 0.50009 0.23919 0.75943
 H975 H 0.49973 0.23001 0.76699
 H976 H 0.50131 0.27211 0.73268
 C977 C -0.01448 0.25374 0.75543
 C978 C -0.01412 0.24208 0.74517
 C979 C -0.00047 0.23726 0.73972
 C980 C 0.01282 0.24384 0.74406
 C981 C 0.01244 0.25558 0.75424
 C982 C -0.00120 0.26036 0.75972
 H983 H -0.00144 0.26909 0.76779
 H984 H -0.00021 0.22853 0.73165
 C985 C 0.48612 0.25542 0.25588
 C986 C 0.48595 0.24467 0.24469
 C987 C 0.49935 0.23896 0.23956
 C988 C 0.51291 0.24394 0.24498
 C989 C 0.51315 0.25545 0.25542
 C990 C 0.49971 0.26088 0.26084
 H991 H 0.49979 0.26942 0.26912
 H992 H 0.49923 0.23047 0.23124
 C993 C 1.01367 0.74303 0.75469
 C994 C 1.01369 0.75581 0.74586
 C995 C 1.00020 0.76208 0.74167
 C996 C 0.98668 0.75591 0.74590
 C997 C 0.98665 0.74316 0.75477
 C998 C 1.00014 0.73688 0.75896
 H999 H 1.00012 0.72729 0.76600
 H1000 H 1.00023 0.77166 0.73462
 C1001 C 0.51435 0.74485 0.25726
 C1002 C 0.51451 0.75620 0.24664
 C1003 C 0.50101 0.76143 0.24111
 C1004 C 0.48742 0.75572 0.24586
 C1005 C 0.48739 0.74411 0.25621
 C1006 C 0.50083 0.73897 0.26180
 H1007 H 0.50078 0.73005 0.26965
 H1008 H 0.50109 0.77044 0.23335
 C1009 C -0.01476 0.75456 0.25621
 C1010 C -0.01455 0.74234 0.24660
 C1011 C -0.00096 0.73683 0.24171
 C1012 C 0.01243 0.74323 0.24597
 C1013 C 0.01224 0.75564 0.25533
 C1014 C -0.00137 0.76115 0.26024
 H1015 H -0.00150 0.77036 0.26777
 H1016 H -0.00080 0.72759 0.23422
 C1017 C 0.48622 0.75540 0.75711
 C1018 C 0.48609 0.74433 0.74621
 C1019 C 0.49951 0.73826 0.74149
 C1020 C 0.51305 0.74300 0.74717
 C1021 C 0.51321 0.75436 0.75777
 C1022 C 0.49979 0.76044 0.76251
 H1023 H 0.49988 0.76881 0.77096
 H1024 H 0.49945 0.72990 0.73303
 C1025 C 0.39497 0.31344 0.29279
 C1026 C 0.40765 0.30779 0.28623
 C1027 C 0.41352 0.29425 0.29064
 C1028 C 0.40642 0.28651 0.30200
 C1029 C 0.39366 0.29216 0.30855
 C1030 C 0.38775 0.30568 0.30400
 C1031 C 0.42714 0.28901 0.28325
 C1032 C 0.43301 0.27558 0.28489
 C1033 C 0.44665 0.27077 0.27726
 C1034 C 0.44936 0.25567 0.27571
 C1035 C 0.46212 0.25067 0.26871
 C1036 C 0.47241 0.26070 0.26305
 C1037 C 0.46987 0.27579 0.26479
 C1038 C 0.45718 0.28080 0.27189
 H1039 H 0.39097 0.32397 0.28903
 H1040 H 0.41292 0.31409 0.27762
 H1041 H 0.41063 0.27619 0.30603
 H1042 H 0.38844 0.28587 0.31715
 H1043 H 0.43224 0.29660 0.27568
 H1044 H 0.42746 0.26748 0.29154
 H1045 H 0.44157 0.24771 0.27992
 H1046 H 0.46403 0.23896 0.26783
 H1047 H 0.47773 0.28372 0.26067
 H1048 H 0.45590 0.29251 0.27335
 C1049 C 0.39287 0.81382 0.78934
 C1050 C 0.40580 0.80847 0.78292
 C1051 C 0.41328 0.79645 0.78896
 C1052 C 0.40763 0.78996 0.80176
 C1053 C 0.39469 0.79527 0.80820
 C1054 C 0.38708 0.80733 0.80214
 C1055 C 0.42713 0.79136 0.78190
 C1056 C 0.43263 0.77777 0.78360
 C1057 C 0.44642 0.77250 0.77657
 C1058 C 0.44889 0.75729 0.77574
 C1059 C 0.46178 0.75175 0.76942
 C1060 C 0.47246 0.76130 0.76370
 C1061 C 0.47018 0.77652 0.76474
 C1062 C 0.45733 0.78209 0.77115
 H1063 H 0.38753 0.82307 0.78417
 H1064 H 0.40994 0.81375 0.77311
 H1065 H 0.41329 0.78097 0.80707
 H1066 H 0.39087 0.78989 0.81804
 H1067 H 0.43253 0.79897 0.77456
 H1068 H 0.42646 0.76981 0.78991
 H1069 H 0.44082 0.74965 0.78001
 H1070 H 0.46346 0.73997 0.76908
 H1071 H 0.47838 0.78410 0.76058
 H1072 H 0.45617 0.79387 0.77202
 C1073 C -0.10584 0.31230 0.79154
 C1074 C -0.09329 0.30646 0.78491
 C1075 C -0.08760 0.29283 0.78928
 C1076 C -0.09480 0.28516 0.80063
 C1077 C -0.10745 0.29102 0.80726
 C1078 C -0.11315 0.30465 0.80277
 C1079 C -0.07410 0.28741 0.78174
 C1080 C -0.06783 0.27423 0.78393
 C1081 C -0.05424 0.26930 0.77623
 C1082 C -0.05091 0.25423 0.77595
 C1083 C -0.03809 0.24912 0.76913
 C1084 C -0.02837 0.25898 0.76232
 C1085 C -0.03159 0.27405 0.76268
 C1086 C -0.04430 0.27919 0.76963
 H1087 H -0.10968 0.32290 0.78782
 H1088 H -0.08797 0.31271 0.77631
 H1089 H -0.09080 0.27472 0.80458
 H1090 H -0.11275 0.28480 0.81587
 H1091 H -0.06937 0.29471 0.77368
 H1092 H -0.07291 0.26643 0.79126
 H1093 H -0.05824 0.24638 0.78109
 H1094 H -0.03568 0.23747 0.76930
 H1095 H -0.02417 0.28188 0.75764
 H1096 H -0.04603 0.29092 0.77001
 C1097 C -0.10650 0.81421 0.29102
 C1098 C -0.09383 0.80856 0.28440
 C1099 C -0.08767 0.79523 0.28910
 C1100 C -0.09446 0.78774 0.30080
 C1101 C -0.10720 0.79338 0.30740
 C1102 C -0.11340 0.80669 0.30259
 C1103 C -0.07404 0.78996 0.28171
 C1104 C -0.06836 0.77641 0.28326
 C1105 C -0.05464 0.77124 0.27593
 C1106 C -0.05129 0.75618 0.27642
 C1107 C -0.03840 0.75075 0.27002
 C1108 C -0.02861 0.76024 0.26281
 C1109 C -0.03183 0.77531 0.26237
 C1110 C -0.04465 0.78079 0.26890
 H1111 H -0.11076 0.82455 0.28704
 H1112 H -0.08880 0.81467 0.27554
 H1113 H -0.08998 0.77764 0.30512
 H1114 H -0.11212 0.78727 0.31630
 H1115 H -0.06881 0.79762 0.27433
 H1116 H -0.07412 0.76844 0.28989
 H1117 H -0.05865 0.74857 0.28187
 H1118 H -0.03600 0.73912 0.27080
 H1119 H -0.02437 0.78286 0.25697
 H1120 H -0.04641 0.79251 0.26853
 C1121 C 0.60990 0.68918 0.28793
 C1122 C 0.59773 0.69535 0.28086
 C1123 C 0.59002 0.70714 0.28713
 C1124 C 0.59497 0.71283 0.30060
 C1125 C 0.60713 0.70663 0.30770
 C1126 C 0.61476 0.69471 0.30147
 C1127 C 0.57717 0.71326 0.27908
 C1128 C 0.56673 0.72167 0.28531
 C1129 C 0.55354 0.72741 0.27752
 C1130 C 0.54198 0.73321 0.28598
 C1131 C 0.52933 0.73881 0.27934
 C1132 C 0.52794 0.73883 0.26405
 C1133 C 0.53941 0.73303 0.25549
 C1134 C 0.55217 0.72750 0.26213
 H1135 H 0.61550 0.68013 0.28265
 H1136 H 0.59428 0.69081 0.27045
 H1137 H 0.58970 0.72219 0.30567
 H1138 H 0.61052 0.71125 0.31807
 H1139 H 0.57604 0.71002 0.26776
 H1140 H 0.56736 0.72398 0.29690
 H1141 H 0.54272 0.73339 0.29782
 H1142 H 0.52062 0.74327 0.28616
 H1143 H 0.53852 0.73287 0.24367
 H1144 H 0.56087 0.72351 0.25510
 C1145 C 0.60426 0.20646 0.81144
 C1146 C 0.59167 0.21289 0.80550
 C1147 C 0.58606 0.20822 0.79197
 C1148 C 0.59336 0.19675 0.78454
 C1149 C 0.60605 0.19031 0.79050
 C1150 C 0.61170 0.19514 0.80401
 C1151 C 0.57253 0.21560 0.78645
 C1152 C 0.56623 0.21321 0.77338
 C1153 C 0.55265 0.22101 0.76865
 C1154 C 0.54996 0.22297 0.75364
 C1155 C 0.53733 0.23041 0.74887
 C1156 C 0.52719 0.23606 0.75905
 C1157 C 0.52968 0.23378 0.77404
 C1158 C 0.54220 0.22627 0.77880
 H1159 H 0.60803 0.21040 0.82195
 H1160 H 0.58626 0.22159 0.81157
 H1161 H 0.58940 0.19261 0.77419
 H1162 H 0.61146 0.18161 0.78446
 H1163 H 0.56775 0.22384 0.79358
 H1164 H 0.57130 0.20584 0.76558
 H1165 H 0.55772 0.21887 0.74559
 H1166 H 0.53550 0.23181 0.73724
 H1167 H 0.52192 0.23789 0.78209
 H1168 H 0.54351 0.22447 0.79043
 C1169 C 1.10914 0.71160 0.80962
 C1170 C 1.09693 0.71854 0.80342
 C1171 C 1.08915 0.71202 0.79185
 C1172 C 1.09410 0.69835 0.78646
 C1173 C 1.10632 0.69138 0.79272
 C1174 C 1.11398 0.69788 0.80442
 C1175 C 1.07614 0.72001 0.78587
 C1176 C 1.06657 0.71440 0.77616
 C1177 C 1.05328 0.72229 0.77070
 C1178 C 1.04254 0.71418 0.76313
 C1179 C 1.02977 0.72094 0.75789
 C1180 C 1.02746 0.73603 0.76001
 C1181 C 1.03816 0.74423 0.76749
 C1182 C 1.05100 0.73750 0.77267
 H1183 H 1.11476 0.71712 0.81848
 H1184 H 1.09351 0.72909 0.80775
 H1185 H 1.08874 0.69294 0.77740
 H1186 H 1.10970 0.68085 0.78837
 H1187 H 1.07422 0.73086 0.79025
 H1188 H 1.06799 0.70326 0.77234
 H1189 H 1.04399 0.70250 0.76135
 H1190 H 1.02168 0.71440 0.75211
 H1191 H 1.03654 0.75587 0.76939
 H1192 H 1.05903 0.74436 0.77807
 C1193 C 1.10919 0.18786 0.28683
 C1194 C 1.09708 0.19401 0.27962
 C1195 C 1.08955 0.20605 0.28562
 C1196 C 1.09460 0.21203 0.29892
 C1197 C 1.10668 0.20587 0.30614
 C1198 C 1.11414 0.19369 0.30021
 C1199 C 1.07682 0.21225 0.27750
 C1200 C 1.06623 0.22035 0.28388
 C1201 C 1.05326 0.22662 0.27614
 C1202 C 1.04224 0.23332 0.28465
 C1203 C 1.02982 0.23951 0.27810
 C1204 C 1.02813 0.23918 0.26285
 C1205 C 1.03906 0.23248 0.25424
 C1206 C 1.05157 0.22636 0.26078
 H1207 H 1.11466 0.17859 0.28180
 H1208 H 1.09353 0.18927 0.26933
 H1209 H 1.08948 0.22162 0.30372
 H1210 H 1.11013 0.21075 0.31637
 H1211 H 1.07601 0.20943 0.26605
 H1212 H 1.06669 0.22217 0.29557
 H1213 H 1.04321 0.23377 0.29646
 H1214 H 1.02153 0.24465 0.28494
 H1215 H 1.03789 0.23200 0.24245
 H1216 H 1.05980 0.22156 0.25369
 C1217 C 0.60035 0.31633 0.70074
 C1218 C 0.58705 0.31093 0.70629
 C1219 C 0.58481 0.29577 0.70773
 C1220 C 0.59598 0.28603 0.70328
 C1221 C 0.60912 0.29142 0.69732
 C1222 C 0.61143 0.30662 0.69606
 C1223 C 0.57054 0.29032 0.71324
 C1224 C 0.56961 0.27938 0.72296
 C1225 C 0.55529 0.27400 0.72846
 C1226 C 0.55363 0.27077 0.74336
 C1227 C 0.54021 0.26545 0.74872
 C1228 C 0.52844 0.26258 0.73912
 C1229 C 0.53015 0.26587 0.72418
 C1230 C 0.54340 0.27164 0.71891
 H1231 H 0.60181 0.32809 0.69975
 H1232 H 0.57852 0.31859 0.70958
 H1233 H 0.59439 0.27427 0.70407
 H1234 H 0.61750 0.28372 0.69379
 H1235 H 0.56061 0.29598 0.70980
 H1236 H 0.57959 0.27476 0.72758
 H1237 H 0.56266 0.27258 0.75090
 H1238 H 0.53908 0.26348 0.76035
 H1239 H 0.52128 0.26377 0.71653
 H1240 H 0.54449 0.27388 0.70732
 C1241 C 0.59955 0.81716 0.20177
 C1242 C 0.58623 0.81184 0.20736
 C1243 C 0.58409 0.79671 0.20920
 C1244 C 0.59534 0.78692 0.20511
 C1245 C 0.60848 0.79221 0.19909
 C1246 C 0.61071 0.80738 0.19743
 C1247 C 0.56985 0.79124 0.21476
 C1248 C 0.56911 0.78102 0.22525
 C1249 C 0.55490 0.77531 0.23065
 C1250 C 0.55271 0.77344 0.24572
 C1251 C 0.53944 0.76770 0.25099
 C1252 C 0.52842 0.76302 0.24123
 C1253 C 0.53066 0.76494 0.22612
 C1254 C 0.54372 0.77115 0.22088
 H1255 H 0.60099 0.82889 0.20048
 H1256 H 0.57763 0.81954 0.21036
 H1257 H 0.59381 0.77518 0.20624
 H1258 H 0.61695 0.78447 0.19584
 H1259 H 0.55982 0.79619 0.21062
 H1260 H 0.57914 0.77723 0.23046
 H1261 H 0.56121 0.77662 0.25341
 H1262 H 0.53786 0.76680 0.26271
 H1263 H 0.52238 0.76143 0.21834
 H1264 H 0.54528 0.77231 0.20918
 C1265 C 1.10082 0.31559 0.19958
 C1266 C 1.08742 0.31012 0.20480
 C1267 C 1.08544 0.29498 0.20669
 C1268 C 1.09689 0.28531 0.20287
 C1269 C 1.11015 0.29075 0.19721
 C1270 C 1.11226 0.30595 0.19565
 C1271 C 1.07120 0.28943 0.21217
 C1272 C 1.07040 0.27949 0.22292
 C1273 C 1.05614 0.27403 0.22846
 C1274 C 1.05383 0.27275 0.24357
 C1275 C 1.04044 0.26740 0.24897
 C1276 C 1.02938 0.26256 0.23931
 C1277 C 1.03177 0.26386 0.22415
 C1278 C 1.04497 0.26966 0.21878
 H1279 H 1.10212 0.32734 0.19829
 H1280 H 1.07864 0.31771 0.20754
 H1281 H 1.09545 0.27355 0.20398
 H1282 H 1.11878 0.28311 0.19418
 H1283 H 1.06117 0.29429 0.20790
 H1284 H 1.08041 0.27583 0.22829
 H1285 H 1.06230 0.27615 0.25120
 H1286 H 1.03875 0.26698 0.26069
 H1287 H 1.02349 0.26020 0.21645
 H1288 H 1.04660 0.27039 0.20705
 C1289 C 1.10922 0.78652 0.69040
 C1290 C 1.09688 0.77969 0.69648
 C1291 C 1.08897 0.78630 0.70795
 C1292 C 1.09389 0.79997 0.71331
 C1293 C 1.10622 0.80684 0.70718
 C1294 C 1.11404 0.80023 0.69562
 C1295 C 1.07588 0.77842 0.71386
 C1296 C 1.06647 0.78402 0.72378
 C1297 C 1.05321 0.77622 0.72936
 C1298 C 1.04263 0.78441 0.73711
 C1299 C 1.02990 0.77773 0.74254
 C1300 C 1.02748 0.76267 0.74043
 C1301 C 1.03802 0.75439 0.73277
 C1302 C 1.05083 0.76104 0.72740
 H1303 H 1.11496 0.78096 0.68163
 H1304 H 1.09347 0.76914 0.69215
 H1305 H 1.08844 0.80550 0.72226
 H1306 H 1.10954 0.81737 0.71153
 H1307 H 1.07378 0.76766 0.70935
 H1308 H 1.06806 0.79507 0.72776
 H1309 H 1.04416 0.79607 0.73889
 H1310 H 1.02193 0.78433 0.74845
 H1311 H 1.03630 0.74277 0.73088
 H1312 H 1.05875 0.75414 0.72185
 C1313 C 0.39491 0.68613 0.70943
 C1314 C 0.40747 0.69180 0.71618
 C1315 C 0.41341 0.70533 0.71181
 C1316 C 0.40650 0.71304 0.70033
 C1317 C 0.39387 0.70737 0.69360
 C1318 C 0.38790 0.69385 0.69807
 C1319 C 0.42693 0.71059 0.71934
 C1320 C 0.43275 0.72405 0.71779
 C1321 C 0.44636 0.72890 0.72540
 C1322 C 0.44912 0.74401 0.72675
 C1323 C 0.46196 0.74906 0.73353
 C1324 C 0.47226 0.73908 0.73924
 C1325 C 0.46961 0.72397 0.73779
 C1326 C 0.45688 0.71891 0.73086
 H1327 H 0.39084 0.67562 0.71313
 H1328 H 0.41259 0.68552 0.72487
 H1329 H 0.41078 0.72334 0.69631
 H1330 H 0.38882 0.71365 0.68489
 H1331 H 0.43201 0.70298 0.72690
 H1332 H 0.42720 0.73214 0.71113
 H1333 H 0.44132 0.75195 0.72250
 H1334 H 0.46390 0.76077 0.73421
 H1335 H 0.47746 0.71604 0.74198
 H1336 H 0.45556 0.70718 0.72959
 C1337 C 0.39578 0.18602 0.20669
 C1338 C 0.40826 0.19182 0.21343
 C1339 C 0.41368 0.20569 0.20949
 C1340 C 0.40635 0.21359 0.19840
 C1341 C 0.39377 0.20777 0.19166
 C1342 C 0.38829 0.19394 0.19578
 C1343 C 0.42710 0.21107 0.21713
 C1344 C 0.43284 0.22458 0.21571
 C1345 C 0.44636 0.22940 0.22352
 C1346 C 0.44898 0.24450 0.22523
 C1347 C 0.46172 0.24949 0.23225
 C1348 C 0.47208 0.23946 0.23778
 C1349 C 0.46955 0.22437 0.23598
 C1350 C 0.45691 0.21937 0.22885
 H1351 H 0.39213 0.17524 0.21006
 H1352 H 0.41372 0.18539 0.22180
 H1353 H 0.41020 0.22419 0.19475
 H1354 H 0.38833 0.21419 0.18329
 H1355 H 0.43220 0.20346 0.22467
 H1356 H 0.42732 0.23269 0.20903
 H1357 H 0.44116 0.25247 0.22107
 H1358 H 0.46358 0.26120 0.23320
 H1359 H 0.47745 0.21642 0.24002
 H1360 H 0.45571 0.20767 0.22730
 C1361 C -0.10961 0.71148 0.19101
 C1362 C -0.09745 0.71837 0.19735
 C1363 C -0.08978 0.71176 0.20894
 C1364 C -0.09476 0.69809 0.21421
 C1365 C -0.10693 0.69116 0.20782
 C1366 C -0.11451 0.69775 0.19611
 C1367 C -0.07692 0.71971 0.21519
 C1368 C -0.06699 0.71368 0.22429
 C1369 C -0.05386 0.72155 0.23005
 C1370 C -0.04260 0.71323 0.23660
 C1371 C -0.02994 0.72000 0.24205
 C1372 C -0.02824 0.73528 0.24114
 C1373 C -0.03948 0.74368 0.23470
 C1374 C -0.05222 0.73694 0.22935
 H1375 H -0.11516 0.71705 0.18214
 H1376 H -0.09399 0.72893 0.19312
 H1377 H -0.08951 0.69268 0.22335
 H1378 H -0.11034 0.68063 0.21210
 H1379 H -0.07537 0.73087 0.21150
 H1380 H -0.06798 0.70223 0.22722
 H1381 H -0.04356 0.70139 0.23740
 H1382 H -0.02144 0.71329 0.24703
 H1383 H -0.03836 0.75549 0.23375
 H1384 H -0.06070 0.74392 0.22482
 C1385 C -0.10894 0.21110 0.68937
 C1386 C -0.09667 0.21790 0.69562
 C1387 C -0.08906 0.21132 0.70726
 C1388 C -0.09419 0.19775 0.71267
 C1389 C -0.10646 0.19092 0.70637
 C1390 C -0.11399 0.19750 0.69463
 C1391 C -0.07612 0.21919 0.71344
 C1392 C -0.06633 0.21318 0.72269
 C1393 C -0.05320 0.22106 0.72840
 C1394 C -0.04159 0.21274 0.73428
 C1395 C -0.02897 0.21958 0.73976
 C1396 C -0.02771 0.23494 0.73956
 C1397 C -0.03929 0.24333 0.73373
 C1398 C -0.05198 0.23650 0.72836
 H1399 H -0.11446 0.21666 0.68048
 H1400 H -0.09310 0.22839 0.69128
 H1401 H -0.08898 0.19236 0.72183
 H1402 H -0.10999 0.18046 0.71075
 H1403 H -0.07436 0.23027 0.70958
 H1404 H -0.06740 0.20178 0.72576
 H1405 H -0.04224 0.20086 0.73455
 H1406 H -0.02019 0.21288 0.74422
 H1407 H -0.03851 0.25519 0.73333
 H1408 H -0.06078 0.24342 0.72436
 C1409 C 0.30876 0.39220 0.28810
 C1410 C 0.30260 0.40431 0.28101
 C1411 C 0.29073 0.41196 0.28725
 C1412 C 0.28493 0.40702 0.30068
 C1413 C 0.29113 0.39492 0.30780
 C1414 C 0.30314 0.38737 0.30162
 C1415 C 0.28466 0.42477 0.27922
 C1416 C 0.27636 0.43522 0.28552
 C1417 C 0.27059 0.44836 0.27777
 C1418 C 0.26455 0.45975 0.28625
 C1419 C 0.25897 0.47239 0.27964
 C1420 C 0.25927 0.47392 0.26437
 C1421 C 0.26530 0.46261 0.25581
 C1422 C 0.27078 0.44988 0.26240
 H1423 H 0.31787 0.38664 0.28284
 H1424 H 0.30720 0.40776 0.27061
 H1425 H 0.27549 0.41224 0.30569
 H1426 H 0.28645 0.39153 0.31816
 H1427 H 0.28786 0.42584 0.26788
 H1428 H 0.27412 0.43460 0.29713
 H1429 H 0.26418 0.45889 0.29807
 H1430 H 0.25434 0.48097 0.28645
 H1431 H 0.26577 0.46364 0.24400
 H1432 H 0.27499 0.44134 0.25534
 C1433 C 0.29620 -0.10049 0.81664
 C1434 C 0.29057 -0.08729 0.81115
 C1435 C 0.29280 -0.08342 0.79649
 C1436 C 0.30102 -0.09277 0.78741
 C1437 C 0.30714 -0.10571 0.79300
 C1438 C 0.30475 -0.10984 0.80770
 C1439 C 0.28703 -0.06934 0.79097
 C1440 C 0.27835 -0.06865 0.77917
 C1441 C 0.27231 -0.05458 0.77388
 C1442 C 0.25714 -0.05316 0.77144
 C1443 C 0.25130 -0.03994 0.76623
 C1444 C 0.26065 -0.02815 0.76259
 C1445 C 0.27588 -0.02963 0.76512
 C1446 C 0.28164 -0.04267 0.77086
 H1447 H 0.29419 -0.10303 0.82803
 H1448 H 0.28432 -0.08014 0.81833
 H1449 H 0.30295 -0.08990 0.77606
 H1450 H 0.31347 -0.11256 0.78564
 H1451 H 0.28923 -0.05947 0.79723
 H1452 H 0.27489 -0.07869 0.77380
 H1453 H 0.24977 -0.06220 0.77382
 H1454 H 0.23948 -0.03897 0.76494
 H1455 H 0.28337 -0.02076 0.76246
 H1456 H 0.29342 -0.04360 0.77258
 C1457 C 0.80966 0.39248 0.78793
 C1458 C 0.80359 0.40468 0.78091
 C1459 C 0.79119 0.41183 0.78669
 C1460 C 0.78476 0.40626 0.79957
 C1461 C 0.79086 0.39407 0.80666
 C1462 C 0.80346 0.38697 0.80099
 C1463 C 0.78523 0.42476 0.77874
 C1464 C 0.77646 0.43489 0.78495
 C1465 C 0.77074 0.44810 0.77726
 C1466 C 0.76461 0.45943 0.78574
 C1467 C 0.75892 0.47204 0.77914
 C1468 C 0.75915 0.47359 0.76387
 C1469 C 0.76530 0.46234 0.75530
 C1470 C 0.77091 0.44965 0.76189
 H1471 H 0.81930 0.38754 0.78301
 H1472 H 0.80871 0.40864 0.77095
 H1473 H 0.77489 0.41107 0.80416
 H1474 H 0.78552 0.39023 0.81653
 H1475 H 0.78891 0.42624 0.76759
 H1476 H 0.77380 0.43395 0.79645
 H1477 H 0.76423 0.45854 0.79757
 H1478 H 0.75418 0.48055 0.78597
 H1479 H 0.76568 0.46336 0.74349
 H1480 H 0.77516 0.44111 0.75484
 C1481 C 0.78929 -0.10495 0.31168
 C1482 C 0.78276 -0.09238 0.30588
 C1483 C 0.78868 -0.08547 0.29351
 C1484 C 0.80149 -0.09137 0.28709
 C1485 C 0.80806 -0.10402 0.29287
 C1486 C 0.80208 -0.11103 0.30529
 C1487 C 0.78139 -0.07192 0.28817
 C1488 C 0.78355 -0.06604 0.27488
 C1489 C 0.77606 -0.05243 0.26993
 C1490 C 0.77481 -0.04971 0.25486
 C1491 C 0.76798 -0.03693 0.24978
 C1492 C 0.76220 -0.02663 0.25970
 C1493 C 0.76362 -0.02921 0.27477
 C1494 C 0.77055 -0.04191 0.27985
 H1495 H 0.78417 -0.10976 0.32122
 H1496 H 0.77297 -0.08802 0.31114
 H1497 H 0.80670 -0.08618 0.27779
 H1498 H 0.81791 -0.10811 0.28759
 H1499 H 0.77339 -0.06696 0.29545
 H1500 H 0.79052 -0.07161 0.26703
 H1501 H 0.77912 -0.05752 0.24698
 H1502 H 0.76730 -0.03501 0.23810
 H1503 H 0.75937 -0.02135 0.28262
 H1504 H 0.77177 -0.04323 0.29155
 C1505 C 0.31207 0.60393 0.70816
 C1506 C 0.30636 0.59136 0.71478
 C1507 C 0.29267 0.58562 0.71051
 C1508 C 0.28484 0.59280 0.69925
 C1509 C 0.29057 0.60544 0.69263
 C1510 C 0.30425 0.61118 0.69701
 C1511 C 0.28741 0.57208 0.71798
 C1512 C 0.27417 0.56582 0.71591
 C1513 C 0.26935 0.55216 0.72347
 C1514 C 0.25426 0.54867 0.72363
 C1515 C 0.24924 0.53582 0.73036
 C1516 C 0.25920 0.52623 0.73722
 C1517 C 0.27430 0.52957 0.73692
 C1518 C 0.27935 0.54232 0.73005
 H1519 H 0.32272 0.60781 0.71178
 H1520 H 0.31274 0.58607 0.72331
 H1521 H 0.27435 0.58877 0.69538
 H1522 H 0.28421 0.61072 0.68411
 H1523 H 0.29488 0.56731 0.72586
 H1524 H 0.26622 0.57095 0.70876
 H1525 H 0.24632 0.55591 0.71850
 H1526 H 0.23757 0.53333 0.73014
 H1527 H 0.28221 0.52227 0.74200
 H1528 H 0.29111 0.54415 0.72977
 C1529 C 0.31233 1.10440 0.20962
 C1530 C 0.30668 1.09185 0.21636
 C1531 C 0.29379 1.08515 0.21116
 C1532 C 0.28668 1.09131 0.19889
 C1533 C 0.29233 1.10393 0.19217
 C1534 C 0.30525 1.11064 0.19743
 C1535 C 0.28858 1.07162 0.21867
 C1536 C 0.27546 1.06520 0.21633
 C1537 C 0.27062 1.05158 0.22389
 C1538 C 0.25551 1.04819 0.22417
 C1539 C 0.25047 1.03534 0.23086
 C1540 C 0.26044 1.02562 0.23751
 C1541 C 0.27556 1.02886 0.23711
 C1542 C 0.28063 1.04165 0.23032
 H1543 H 0.32232 1.10910 0.21403
 H1544 H 0.31248 1.08734 0.22570
 H1545 H 0.27691 1.08644 0.19424
 H1546 H 0.28655 1.10833 0.18280
 H1547 H 0.29587 1.06706 0.22685
 H1548 H 0.26761 1.07024 0.20901
 H1549 H 0.24757 1.05551 0.21914
 H1550 H 0.23878 1.03292 0.23074
 H1551 H 0.28347 1.02144 0.24203
 H1552 H 0.29239 1.04346 0.22992
 C1553 C 0.80778 0.60612 0.20916
 C1554 C 0.80090 0.59391 0.21551
 C1555 C 0.78774 0.58824 0.20954
 C1556 C 0.78160 0.59526 0.19733
 C1557 C 0.78842 0.60743 0.19104
 C1558 C 0.80166 0.61302 0.19680
 C1559 C 0.77992 0.57517 0.21546
 C1560 C 0.78530 0.56611 0.22574
 C1561 C 0.77754 0.55262 0.23067
 C1562 C 0.78582 0.54148 0.23740
 C1563 C 0.77910 0.52847 0.24198
 C1564 C 0.76391 0.52635 0.24002
 C1565 C 0.75555 0.53747 0.23336
 C1566 C 0.76224 0.55055 0.22890
 H1567 H 0.81790 0.61011 0.21397
 H1568 H 0.80596 0.58911 0.22507
 H1569 H 0.77145 0.59126 0.19252
 H1570 H 0.78321 0.61238 0.18163
 H1571 H 0.76945 0.57259 0.21043
 H1572 H 0.79616 0.56800 0.23020
 H1573 H 0.79758 0.54279 0.23900
 H1574 H 0.78575 0.52004 0.24712
 H1575 H 0.74383 0.53603 0.23164
 H1576 H 0.75530 0.55898 0.22423
 C1577 C 0.78890 1.10717 0.68945
 C1578 C 0.78206 1.09499 0.69571
 C1579 C 0.78805 1.08810 0.70807
 C1580 C 0.80111 1.09385 0.71416
 C1581 C 0.80801 1.10607 0.70785
 C1582 C 0.80200 1.11287 0.69539
 C1583 C 0.78013 1.07514 0.71405
 C1584 C 0.78526 1.06634 0.72467
 C1585 C 0.77724 1.05311 0.72986
 C1586 C 0.78525 1.04198 0.73691
 C1587 C 0.77822 1.02924 0.74180
 C1588 C 0.76299 1.02742 0.73982
 C1589 C 0.75492 1.03852 0.73281
 C1590 C 0.76190 1.05133 0.72805
 H1591 H 0.78377 1.11205 0.67996
 H1592 H 0.77198 1.09092 0.69080
 H1593 H 0.80607 1.08914 0.72382
 H1594 H 0.81804 1.11013 0.71277
 H1595 H 0.76977 1.07245 0.70886
 H1596 H 0.79603 1.06826 0.72931
 H1597 H 0.79703 1.04308 0.73853
 H1598 H 0.78467 1.02082 0.74719
 H1599 H 0.74318 1.03729 0.73104
 H1600 H 0.75517 1.05979 0.72314
 C1601 C 0.71400 0.60761 0.30925
 C1602 C 0.72102 0.59545 0.30308
 C1603 C 0.71451 0.58768 0.29151
 C1604 C 0.70082 0.59255 0.28607
 C1605 C 0.69376 0.60472 0.29229
 C1606 C 0.70025 0.61239 0.30398
 C1607 C 0.72257 0.57482 0.28545
 C1608 C 0.71641 0.56458 0.27684
 C1609 C 0.72422 0.55136 0.27119
 C1610 C 0.71591 0.54080 0.26362
 C1611 C 0.72254 0.52808 0.25818
 C1612 C 0.73767 0.52563 0.26015
 C1613 C 0.74606 0.53608 0.26773
 C1614 C 0.73947 0.54889 0.27308
 H1615 H 0.71950 0.61326 0.31810
 H1616 H 0.73160 0.59206 0.30743
 H1617 H 0.69552 0.58723 0.27691
 H1618 H 0.68321 0.60805 0.28790
 H1619 H 0.73389 0.57364 0.28886
 H1620 H 0.70485 0.56547 0.27411
 H1621 H 0.70420 0.54237 0.26191
 H1622 H 0.71587 0.52017 0.25231
 H1623 H 0.75774 0.53435 0.26948
 H1624 H 0.74649 0.55669 0.27859
 C1625 C 0.71189 1.10856 0.81021
 C1626 C 0.71885 1.09636 0.80403
 C1627 C 0.71317 1.08960 0.79146
 C1628 C 0.70039 1.09555 0.78501
 C1629 C 0.69335 1.10774 0.79124
 C1630 C 0.69895 1.11445 0.80399
 C1631 C 0.72109 1.07659 0.78547
 C1632 C 0.71530 1.06719 0.77571
 C1633 C 0.72297 1.05381 0.77022
 C1634 C 0.71460 1.04327 0.76269
 C1635 C 0.72114 1.03042 0.75741
 C1636 C 0.73625 1.02782 0.75948
 C1637 C 0.74470 1.03833 0.76694
 C1638 C 0.73820 1.05126 0.77213
 H1639 H 0.71677 1.11321 0.81995
 H1640 H 0.72873 1.09212 0.80919
 H1641 H 0.69581 1.09105 0.77507
 H1642 H 0.68357 1.11186 0.78589
 H1643 H 0.73188 1.07443 0.78997
 H1644 H 0.70412 1.06882 0.77199
 H1645 H 0.70290 1.04492 0.76095
 H1646 H 0.71440 1.02250 0.75162
 H1647 H 0.75636 1.03651 0.76875
 H1648 H 0.74524 1.05916 0.77749
 C1649 C 0.21156 0.60806 0.80805
 C1650 C 0.21831 0.59583 0.80176
 C1651 C 0.21124 0.58773 0.79076
 C1652 C 0.19721 0.59239 0.78599
 C1653 C 0.19041 0.60466 0.79234
 C1654 C 0.19747 0.61261 0.80351
 C1655 C 0.21910 0.57475 0.78468
 C1656 C 0.21300 0.56466 0.77584
 C1657 C 0.22096 0.55144 0.77042
 C1658 C 0.21267 0.53970 0.76481
 C1659 C 0.21960 0.52700 0.75966
 C1660 C 0.23503 0.52578 0.75993
 C1661 C 0.24338 0.53747 0.76552
 C1662 C 0.23647 0.55024 0.77053
 H1663 H 0.21752 0.61394 0.81645
 H1664 H 0.22916 0.59264 0.80559
 H1665 H 0.19141 0.58676 0.77732
 H1666 H 0.17958 0.60783 0.78852
 H1667 H 0.23032 0.57321 0.78832
 H1668 H 0.20149 0.56556 0.77292
 H1669 H 0.20074 0.54032 0.76450
 H1670 H 0.21293 0.51813 0.75538
 H1671 H 0.25529 0.53672 0.76597
 H1672 H 0.24341 0.55910 0.77430
 C1673 C 0.21348 1.10690 0.31024
 C1674 C 0.22041 1.09460 0.30418
 C1675 C 0.21393 1.08689 0.29254
 C1676 C 0.20041 1.09197 0.28690
 C1677 C 0.19345 1.10424 0.29301
 C1678 C 0.19987 1.11185 0.30478
 C1679 C 0.22183 1.07388 0.28655
 C1680 C 0.21554 1.06378 0.27784
 C1681 C 0.22328 1.05058 0.27211
 C1682 C 0.21472 1.03915 0.26626
 C1683 C 0.22136 1.02651 0.26064
 C1684 C 0.23676 1.02503 0.26068
 C1685 C 0.24539 1.03640 0.26652
 C1686 C 0.23876 1.04912 0.27204
 H1687 H 0.21891 1.11250 0.31917
 H1688 H 0.23088 1.09107 0.30866
 H1689 H 0.19516 1.08673 0.27767
 H1690 H 0.18302 1.10769 0.28843
 H1691 H 0.23309 1.07236 0.29008
 H1692 H 0.20397 1.06471 0.27520
 H1693 H 0.20280 1.03998 0.26607
 H1694 H 0.21448 1.01789 0.25617
 H1695 H 0.25729 1.03543 0.26679
 H1696 H 0.24586 1.05774 0.27605
 C1697 C 0.70900 0.39517 0.68576
 C1698 C 0.71563 0.40768 0.69165
 C1699 C 0.71092 0.41348 0.70511
 C1700 C 0.69926 0.40646 0.71253
 C1701 C 0.69265 0.39390 0.70664
 C1702 C 0.69741 0.38811 0.69317
 C1703 C 0.71811 0.42709 0.71056
 C1704 C 0.71664 0.43237 0.72423
 C1705 C 0.72353 0.44623 0.72945
 C1706 C 0.72373 0.44909 0.74457
 C1707 C 0.72971 0.46213 0.75002
 C1708 C 0.73578 0.47256 0.74045
 C1709 C 0.73549 0.46984 0.72534
 C1710 C 0.72938 0.45688 0.71986
 H1711 H 0.71291 0.39119 0.67530
 H1712 H 0.72447 0.41290 0.68560
 H1713 H 0.69495 0.41066 0.72273
 H1714 H 0.68379 0.38879 0.71270
 H1715 H 0.72522 0.43271 0.70290
 H1716 H 0.71043 0.42618 0.73222
 H1717 H 0.71915 0.44122 0.75222
 H1718 H 0.72951 0.46414 0.76170
 H1719 H 0.73997 0.47781 0.71774
 H1720 H 0.72907 0.45551 0.70812
 C1721 C 0.69129 -0.10435 0.20588
 C1722 C 0.69798 -0.09169 0.21144
 C1723 C 0.71035 -0.08555 0.20441
 C1724 C 0.71569 -0.09228 0.19165
 C1725 C 0.70901 -0.10490 0.18608
 C1726 C 0.69670 -0.11112 0.19311
 C1727 C 0.71771 -0.07193 0.20954
 C1728 C 0.71613 -0.06626 0.22302
 C1729 C 0.72354 -0.05258 0.22794
 C1730 C 0.72476 -0.04987 0.24303
 C1731 C 0.73141 -0.03702 0.24815
 C1732 C 0.73706 -0.02663 0.23829
 C1733 C 0.73569 -0.02919 0.22320
 C1734 C 0.72895 -0.04198 0.21806
 H1735 H 0.68183 -0.10874 0.21161
 H1736 H 0.69320 -0.08667 0.22106
 H1737 H 0.72511 -0.08775 0.18592
 H1738 H 0.71351 -0.10966 0.17620
 H1739 H 0.72520 -0.06675 0.20192
 H1740 H 0.70965 -0.07208 0.23109
 H1741 H 0.72054 -0.05772 0.25089
 H1742 H 0.73204 -0.03514 0.25984
 H1743 H 0.73985 -0.02127 0.21538
 H1744 H 0.72779 -0.04329 0.20636
 C1745 C 0.20967 0.39499 0.18798
 C1746 C 0.21608 0.40768 0.19369
 C1747 C 0.21059 0.41417 0.20652
 C1748 C 0.19830 0.40771 0.21342
 C1749 C 0.19189 0.39495 0.20771
 C1750 C 0.19748 0.38842 0.19490
 C1751 C 0.21786 0.42776 0.21192
 C1752 C 0.21541 0.43386 0.22509
 C1753 C 0.22279 0.44751 0.23018
 C1754 C 0.22283 0.45070 0.24523
 C1755 C 0.22938 0.46355 0.25049
 C1756 C 0.23611 0.47345 0.24080
 C1757 C 0.23594 0.47040 0.22575
 C1758 C 0.22929 0.45763 0.22046
 H1759 H 0.21431 0.39045 0.17806
 H1760 H 0.22539 0.41247 0.18800
 H1761 H 0.19336 0.41249 0.22308
 H1762 H 0.18246 0.39035 0.21331
 H1763 H 0.22603 0.43257 0.20476
 H1764 H 0.20812 0.42853 0.23278
 H1765 H 0.21775 0.44322 0.25295
 H1766 H 0.22909 0.46582 0.26213
 H1767 H 0.24094 0.47796 0.21806
 H1768 H 0.22907 0.45598 0.20875
 C1769 C 0.18680 -0.10615 0.70928
 C1770 C 0.19248 -0.09366 0.71610
 C1771 C 0.20513 -0.08668 0.71064
 C1772 C 0.21193 -0.09245 0.69802
 C1773 C 0.20626 -0.10500 0.69120
 C1774 C 0.19360 -0.11201 0.69672
 C1775 C 0.21037 -0.07319 0.71816
 C1776 C 0.22367 -0.06706 0.71607
 C1777 C 0.22856 -0.05346 0.72362
 C1778 C 0.24372 -0.05045 0.72452
 C1779 C 0.24877 -0.03768 0.73140
 C1780 C 0.23873 -0.02771 0.73759
 C1781 C 0.22357 -0.03054 0.73647
 C1782 C 0.21851 -0.04322 0.72951
 H1783 H 0.17701 -0.11110 0.71387
 H1784 H 0.18692 -0.08941 0.72571
 H1785 H 0.22145 -0.08727 0.69315
 H1786 H 0.21181 -0.10910 0.68155
 H1787 H 0.20297 -0.06844 0.72617
 H1788 H 0.23163 -0.07240 0.70903
 H1789 H 0.25169 -0.05802 0.71993
 H1790 H 0.26051 -0.03559 0.73191
 H1791 H 0.21562 -0.02292 0.74104
 H1792 H 0.20673 -0.04475 0.72858
 C1793 C 0.28729 0.30983 0.39163
 C1794 C 0.28038 0.30362 0.40382
 C1795 C 0.28702 0.29207 0.41154
 C1796 C 0.30073 0.28668 0.40662
 C1797 C 0.30767 0.29292 0.39442
 C1798 C 0.30105 0.30458 0.38677
 C1799 C 0.27906 0.28581 0.42432
 C1800 C 0.28555 0.27773 0.43479
 C1801 C 0.27780 0.27164 0.44781
 C1802 C 0.28639 0.26548 0.45903
 C1803 C 0.27979 0.25955 0.47150
 C1804 C 0.26440 0.25959 0.47306
 C1805 C 0.25572 0.26574 0.46193
 C1806 C 0.26231 0.27159 0.44936
 H1807 H 0.28171 0.31867 0.38602
 H1808 H 0.26979 0.30792 0.40725
 H1809 H 0.30608 0.27751 0.41192
 H1810 H 0.31822 0.28854 0.39104
 H1811 H 0.26753 0.28862 0.42529
 H1812 H 0.29731 0.27587 0.43423
 H1813 H 0.29830 0.26527 0.45816
 H1814 H 0.28671 0.25480 0.47992
 H1815 H 0.24383 0.26600 0.46295
 H1816 H 0.25514 0.27588 0.44096
 C1817 C 0.31440 0.79228 -0.10423
 C1818 C 0.30879 0.78555 -0.09167
 C1819 C 0.29552 0.79033 -0.08536
 C1820 C 0.28805 0.80223 -0.09185
 C1821 C 0.29364 0.80895 -0.10446
 C1822 C 0.30688 0.80405 -0.11084
 C1823 C 0.29026 0.78288 -0.07185
 C1824 C 0.27652 0.78411 -0.06646
 C1825 C 0.27131 0.77683 -0.05282
 C1826 C 0.25612 0.77686 -0.04981
 C1827 C 0.25063 0.77051 -0.03700
 C1828 C 0.26021 0.76379 -0.02697
 C1829 C 0.27541 0.76386 -0.02982
 C1830 C 0.28094 0.77035 -0.04257
 H1831 H 0.32472 0.78827 -0.10862
 H1832 H 0.31490 0.77654 -0.08685
 H1833 H 0.27802 0.80663 -0.08718
 H1834 H 0.28753 0.81799 -0.10916
 H1835 H 0.29808 0.77572 -0.06649
 H1836 H 0.26843 0.79042 -0.07244
 H1837 H 0.24844 0.78190 -0.05737
 H1838 H 0.23889 0.77091 -0.03487
 H1839 H 0.28302 0.75888 -0.02216
 H1840 H 0.29275 0.77038 -0.04408
 C1841 C 0.79085 0.31472 -0.10525
 C1842 C 0.78434 0.30901 -0.09261
 C1843 C 0.78871 0.29534 -0.08698
 C1844 C 0.79991 0.28752 -0.09434
 C1845 C 0.80639 0.29322 -0.10703
 C1846 C 0.80198 0.30691 -0.11265
 C1847 C 0.78152 0.29005 -0.07330
 C1848 C 0.78329 0.27654 -0.06764
 C1849 C 0.77620 0.27137 -0.05387
 C1850 C 0.77678 0.25630 -0.05060
 C1851 C 0.77058 0.25083 -0.03770
 C1852 C 0.76349 0.26030 -0.02782
 C1853 C 0.76303 0.27539 -0.03091
 C1854 C 0.76935 0.28090 -0.04375
 H1855 H 0.78716 0.32533 -0.10909
 H1856 H 0.77584 0.31537 -0.08718
 H1857 H 0.80394 0.27710 -0.09038
 H1858 H 0.81491 0.28684 -0.11236
 H1859 H 0.77418 0.29771 -0.06794
 H1860 H 0.78992 0.26857 -0.07342
 H1861 H 0.78212 0.24870 -0.05804
 H1862 H 0.77140 0.23920 -0.03539
 H1863 H 0.75775 0.28292 -0.02337
 H1864 H 0.76897 0.29263 -0.04546
 C1865 C 0.78740 0.80977 0.39137
 C1866 C 0.78044 0.80349 0.40345
 C1867 C 0.78707 0.79194 0.41118
 C1868 C 0.80084 0.78661 0.40633
 C1869 C 0.80785 0.79295 0.39422
 C1870 C 0.80124 0.80464 0.38662
 C1871 C 0.77904 0.78580 0.42396
 C1872 C 0.78526 0.77728 0.43423
 C1873 C 0.77740 0.77162 0.44738
 C1874 C 0.78575 0.76442 0.45815
 C1875 C 0.77907 0.75900 0.47081
 C1876 C 0.76385 0.76064 0.47299
 C1877 C 0.75542 0.76784 0.46232
 C1878 C 0.76206 0.77315 0.44957
 H1879 H 0.78179 0.81859 0.38576
 H1880 H 0.76980 0.80774 0.40682
 H1881 H 0.80622 0.77747 0.41164
 H1882 H 0.81846 0.78867 0.39089
 H1883 H 0.76767 0.78911 0.42509
 H1884 H 0.79687 0.77470 0.43344
 H1885 H 0.79754 0.76299 0.45679
 H1886 H 0.78577 0.75343 0.47890
 H1887 H 0.74367 0.76933 0.46386
 H1888 H 0.75501 0.77834 0.44159
 C1889 C 0.68690 0.29029 0.60468
 C1890 C 0.69235 0.28393 0.59185
 C1891 C 0.70557 0.28885 0.58555
 C1892 C 0.71320 0.30045 0.59238
 C1893 C 0.70776 0.30679 0.60526
 C1894 C 0.69452 0.30182 0.61156
 C1895 C 0.71062 0.28183 0.57171
 C1896 C 0.72417 0.28347 0.56597
 C1897 C 0.72914 0.27646 0.55211
 C1898 C 0.74431 0.27611 0.54902
 C1899 C 0.74957 0.26983 0.53606
 C1900 C 0.73976 0.26357 0.52597
 C1901 C 0.72457 0.26411 0.52887
 C1902 C 0.71928 0.27054 0.54174
 H1903 H 0.67661 0.28622 0.60905
 H1904 H 0.68615 0.27512 0.58680
 H1905 H 0.72322 0.30492 0.58781
 H1906 H 0.71398 0.31562 0.61019
 H1907 H 0.70283 0.27464 0.56637
 H1908 H 0.73233 0.28979 0.57184
 H1909 H 0.75216 0.28074 0.55666
 H1910 H 0.76131 0.26986 0.53391
 H1911 H 0.71677 0.25951 0.52115
 H1912 H 0.70748 0.27099 0.54332
 C1913 C 0.68607 0.78991 1.10602
 C1914 C 0.69147 0.78348 1.09321
 C1915 C 0.70459 0.78846 1.08674
 C1916 C 0.71214 0.80023 1.09338
 C1917 C 0.70675 0.80663 1.10624
 C1918 C 0.69363 0.80158 1.11273
 C1919 C 0.70962 0.78134 1.07295
 C1920 C 0.72315 0.78299 1.06717
 C1921 C 0.72818 0.77592 1.05334
 C1922 C 0.74327 0.77643 1.04990
 C1923 C 0.74862 0.77016 1.03698
 C1924 C 0.73900 0.76306 1.02725
 C1925 C 0.72388 0.76269 1.03052
 C1926 C 0.71849 0.76909 1.04337
 H1927 H 0.67586 0.78577 1.11052
 H1928 H 0.68533 0.77454 1.08830
 H1929 H 0.72206 0.80477 1.08867
 H1930 H 0.71292 0.81557 1.11103
 H1931 H 0.70182 0.77409 1.06771
 H1932 H 0.73125 0.78946 1.07294
 H1933 H 0.75099 0.78174 1.05723
 H1934 H 0.76028 0.77090 1.03454
 H1935 H 0.71623 0.75740 1.02311
 H1936 H 0.70673 0.76876 1.04522
 C1937 C 0.20787 0.31319 1.10416
 C1938 C 0.21433 0.30742 1.09153
 C1939 C 0.21040 0.29347 1.08631
 C1940 C 0.19973 0.28538 1.09412
 C1941 C 0.19327 0.29117 1.10683
 C1942 C 0.19722 0.30518 1.11200
 C1943 C 0.21760 0.28821 1.07260
 C1944 C 0.21609 0.27471 1.06687
 C1945 C 0.22359 0.26989 1.05316
 C1946 C 0.22510 0.25478 1.05042
 C1947 C 0.23194 0.24975 1.03763
 C1948 C 0.23752 0.25974 1.02730
 C1949 C 0.23582 0.27485 1.02989
 C1950 C 0.22887 0.27989 1.04260
 H1951 H 0.21125 0.32402 1.10763
 H1952 H 0.22244 0.31398 1.08578
 H1953 H 0.19616 0.27467 1.09051
 H1954 H 0.18515 0.28463 1.11255
 H1955 H 0.22487 0.29594 1.06725
 H1956 H 0.20962 0.26655 1.07255
 H1957 H 0.22097 0.24682 1.05822
 H1958 H 0.23280 0.23804 1.03575
 H1959 H 0.23989 0.28278 1.02202
 H1960 H 0.22748 0.29161 1.04389
 C1961 C 0.20067 0.81604 0.59915
 C1962 C 0.20609 0.81056 0.58590
 C1963 C 0.20767 0.79539 0.58380
 C1964 C 0.20345 0.78572 0.59503
 C1965 C 0.19763 0.79118 0.60812
 C1966 C 0.19625 0.80639 0.61031
 C1967 C 0.21320 0.78983 0.56966
 C1968 C 0.22323 0.77908 0.56889
 C1969 C 0.22887 0.77361 0.55476
 C1970 C 0.24400 0.77099 0.55307
 C1971 C 0.24952 0.76557 0.53984
 C1972 C 0.23991 0.76198 0.52831
 C1973 C 0.22474 0.76469 0.53003
 C1974 C 0.21928 0.77056 0.54309
 H1975 H 0.19959 0.82780 0.60054
 H1976 H 0.20921 0.81817 0.57732
 H1977 H 0.20436 0.77395 0.59354
 H1978 H 0.19431 0.78353 0.61658
 H1979 H 0.20959 0.79525 0.55974
 H1980 H 0.22803 0.77474 0.57885
 H1981 H 0.25156 0.77334 0.56193
 H1982 H 0.26130 0.76407 0.53867
 H1983 H 0.21708 0.76205 0.52133
 H1984 H 0.20753 0.77235 0.54423
 C1985 C 0.31267 0.70762 0.60578
 C1986 C 0.30705 0.71411 0.59313
 C1987 C 0.29359 0.70949 0.58715
 C1988 C 0.28586 0.69807 0.59418
 C1989 C 0.29148 0.69158 0.60690
 C1990 C 0.30497 0.69626 0.61287
 C1991 C 0.28843 0.71674 0.57349
 C1992 C 0.27523 0.71456 0.56721
 C1993 C 0.27060 0.72204 0.55352
 C1994 C 0.25548 0.72347 0.55051
 C1995 C 0.25068 0.73046 0.53774
 C1996 C 0.26093 0.73622 0.52775
 C1997 C 0.27604 0.73450 0.53055
 C1998 C 0.28085 0.72743 0.54324
 H1999 H 0.32315 0.71150 0.60986
 H2000 H 0.31333 0.72280 0.58795
 H2001 H 0.27556 0.69392 0.58995
 H2002 H 0.28520 0.68290 0.61203
 H2003 H 0.29589 0.72463 0.56864
 H2004 H 0.26718 0.70755 0.57241
 H2005 H 0.24736 0.71925 0.55812
 H2006 H 0.23896 0.73141 0.53568
 H2007 H 0.28415 0.73872 0.52292
 H2008 H 0.29259 0.72604 0.54478
 C2009 C 0.29149 0.18546 1.10479
 C2010 C 0.28503 0.19102 1.09208
 C2011 C 0.28952 0.20455 1.08623
 C2012 C 0.30082 0.21236 1.09339
 C2013 C 0.30726 0.20679 1.10616
 C2014 C 0.30268 0.19326 1.11203
 C2015 C 0.28233 0.20968 1.07252
 C2016 C 0.28375 0.22322 1.06689
 C2017 C 0.27641 0.22807 1.05316
 C2018 C 0.27504 0.24319 1.05045
 C2019 C 0.26838 0.24827 1.03763
 C2020 C 0.26285 0.23833 1.02725
 C2021 C 0.26440 0.22321 1.02979
 C2022 C 0.27117 0.21811 1.04256
 H2023 H 0.28772 0.17494 1.10878
 H2024 H 0.27646 0.18467 1.08678
 H2025 H 0.30492 0.22266 1.08919
 H2026 H 0.31584 0.21315 1.11139
 H2027 H 0.27511 0.20192 1.06717
 H2028 H 0.29005 0.23141 1.07271
 H2029 H 0.27915 0.25112 1.05830
 H2030 H 0.26763 0.26000 1.03576
 H2031 H 0.26036 0.21533 1.02187
 H2032 H 0.27245 0.20638 1.04385
 C2033 C 0.78709 0.69077 1.10791
 C2034 C 0.78018 0.69714 1.09583
 C2035 C 0.78671 0.70892 1.08837
 C2036 C 0.80030 0.71438 1.09347
 C2037 C 0.80724 0.70797 1.10554
 C2038 C 0.80074 0.69607 1.11292
 C2039 C 0.77879 0.71524 1.07562
 C2040 C 0.78509 0.72397 1.06555
 C2041 C 0.77733 0.72986 1.05248
 C2042 C 0.78583 0.73633 1.04135
 C2043 C 0.77917 0.74187 1.02873
 C2044 C 0.76383 0.74111 1.02697
 C2045 C 0.75525 0.73474 1.03807
 C2046 C 0.76188 0.72932 1.05077
 H2047 H 0.78160 0.68175 1.11333
 H2048 H 0.76967 0.69278 1.09227
 H2049 H 0.80558 0.72371 1.08839
 H2050 H 0.81771 0.71241 1.10905
 H2051 H 0.76745 0.71188 1.07427
 H2052 H 0.79670 0.72646 1.06641
 H2053 H 0.79771 0.73701 1.04237
 H2054 H 0.78600 0.74679 1.02034
 H2055 H 0.74340 0.73391 1.03688
 H2056 H 0.75476 0.72484 1.05912
 C2057 C 0.78686 0.19087 0.60715
 C2058 C 0.77982 0.19720 0.59512
 C2059 C 0.78634 0.20886 0.58746
 C2060 C 0.80004 0.21426 0.59233
 C2061 C 0.80711 0.20790 0.60436
 C2062 C 0.80063 0.19610 0.61191
 C2063 C 0.77832 0.21510 0.57472
 C2064 C 0.78469 0.22339 0.56435
 C2065 C 0.77690 0.22913 0.55124
 C2066 C 0.78543 0.23479 0.53971
 C2067 C 0.77876 0.24024 0.52707
 C2068 C 0.76336 0.24021 0.52567
 C2069 C 0.75474 0.23460 0.53714
 C2070 C 0.76140 0.22927 0.54988
 H2071 H 0.78137 0.18194 0.61272
 H2072 H 0.76923 0.19289 0.59173
 H2073 H 0.80531 0.22351 0.58709
 H2074 H 0.81767 0.21228 0.60768
 H2075 H 0.76689 0.21199 0.57361
 H2076 H 0.79639 0.22557 0.56497
 H2077 H 0.79736 0.23493 0.54045
 H2078 H 0.78563 0.24457 0.51838
 H2079 H 0.74283 0.23438 0.53625
 H2080 H 0.75430 0.22543 0.55856
 C2081 C 0.71319 0.69186 0.39076
 C2082 C 0.72021 0.69818 0.40277
 C2083 C 0.71354 0.70961 0.41067
 C2084 C 0.69964 0.71477 0.40602
 C2085 C 0.69257 0.70839 0.39396
 C2086 C 0.69923 0.69679 0.38622
 C2087 C 0.72163 0.71562 0.42351
 C2088 C 0.71589 0.72492 0.43340
 C2089 C 0.72391 0.73009 0.44665
 C2090 C 0.71570 0.73664 0.45796
 C2091 C 0.72258 0.74147 0.47075
 C2092 C 0.73787 0.73995 0.47253
 C2093 C 0.74617 0.73347 0.46127
 C2094 C 0.73932 0.72874 0.44839
 H2095 H 0.71886 0.68314 0.38503
 H2096 H 0.73094 0.69403 0.40595
 H2097 H 0.69413 0.72375 0.41150
 H2098 H 0.68185 0.71252 0.39079
 H2099 H 0.73268 0.71149 0.42512
 H2100 H 0.70457 0.72843 0.43233
 H2101 H 0.70387 0.73792 0.45695
 H2102 H 0.71596 0.74648 0.47928
 H2103 H 0.75797 0.73206 0.46245
 H2104 H 0.74623 0.72419 0.43989
 C2105 C 0.69076 0.21215 -0.10830
 C2106 C 0.69696 0.21902 -0.09609
 C2107 C 0.70890 0.21265 -0.08867
 C2108 C 0.71468 0.19929 -0.09394
 C2109 C 0.70844 0.19239 -0.10613
 C2110 C 0.69638 0.19872 -0.11347
 C2111 C 0.71507 0.22052 -0.07579
 C2112 C 0.72410 0.21433 -0.06591
 C2113 C 0.73001 0.22204 -0.05282
 C2114 C 0.73666 0.21356 -0.04180
 C2115 C 0.74236 0.22017 -0.02923
 C2116 C 0.74159 0.23545 -0.02739
 C2117 C 0.73500 0.24400 -0.03837
 C2118 C 0.72941 0.23741 -0.05103
 H2119 H 0.68161 0.21751 -0.11367
 H2120 H 0.69236 0.22936 -0.09240
 H2121 H 0.72414 0.19413 -0.08892
 H2122 H 0.71313 0.18209 -0.10975
 H2123 H 0.71139 0.23169 -0.07420
 H2124 H 0.72691 0.20284 -0.06696
 H2125 H 0.73738 0.20173 -0.04288
 H2126 H 0.74743 0.21334 -0.02094
 H2127 H 0.73415 0.25580 -0.03713
 H2128 H 0.72479 0.24450 -0.05932
 C2129 C 0.21291 0.69061 -0.10792
 C2130 C 0.21994 0.69702 -0.09592
 C2131 C 0.21357 0.70896 -0.08856
 C2132 C 0.20006 0.71458 -0.09369
 C2133 C 0.19300 0.70814 -0.10568
 C2134 C 0.19931 0.69605 -0.11295
 C2135 C 0.22154 0.71531 -0.07585
 C2136 C 0.21510 0.72376 -0.06563
 C2137 C 0.22277 0.72974 -0.05254
 C2138 C 0.21413 0.73611 -0.04145
 C2139 C 0.22064 0.74175 -0.02881
 C2140 C 0.23598 0.74120 -0.02697
 C2141 C 0.24471 0.73495 -0.03802
 C2142 C 0.23822 0.72939 -0.05075
 H2143 H 0.21827 0.68144 -0.11325
 H2144 H 0.23040 0.69254 -0.09232
 H2145 H 0.19494 0.72406 -0.08870
 H2146 H 0.18259 0.71271 -0.10921
 H2147 H 0.23297 0.71219 -0.07466
 H2148 H 0.20341 0.72594 -0.06637
 H2149 H 0.20224 0.73665 -0.04252
 H2150 H 0.21369 0.74660 -0.02045
 H2151 H 0.25657 0.73431 -0.03678
 H2152 H 0.24543 0.72496 -0.05906
 C2153 C 0.18677 0.20840 0.39445
 C2154 C 0.19240 0.21514 0.40699
 C2155 C 0.20598 0.21074 0.41290
 C2156 C 0.21375 0.19924 0.40602
 C2157 C 0.20813 0.19254 0.39343
 C2158 C 0.19457 0.19703 0.38747
 C2159 C 0.21121 0.21809 0.42647
 C2160 C 0.22498 0.21694 0.43175
 C2161 C 0.23006 0.22394 0.44557
 C2162 C 0.24527 0.22420 0.44852
 C2163 C 0.25061 0.23022 0.46155
 C2164 C 0.24086 0.23627 0.47185
 C2165 C 0.22567 0.23594 0.46903
 C2166 C 0.22029 0.22979 0.45608
 H2167 H 0.17622 0.21210 0.39036
 H2168 H 0.18607 0.22383 0.41211
 H2169 H 0.22403 0.19513 0.41034
 H2170 H 0.21449 0.18383 0.38843
 H2171 H 0.20331 0.22502 0.43201
 H2172 H 0.23317 0.21089 0.42563
 H2173 H 0.25306 0.21963 0.44075
 H2174 H 0.26236 0.23005 0.46364
 H2175 H 0.21793 0.24041 0.47691
 H2176 H 0.20848 0.22947 0.45462
 C2177 C 0.28818 0.39076 0.69180
 C2178 C 0.28136 0.40297 0.69808
 C2179 C 0.28827 0.41094 0.70927
 C2180 C 0.30223 0.40623 0.71420
 C2181 C 0.30910 0.39400 0.70786
 C2182 C 0.30218 0.38614 0.69654
 C2183 C 0.28032 0.42385 0.71539
 C2184 C 0.28618 0.43366 0.72467
 C2185 C 0.27806 0.44673 0.73018
 C2186 C 0.28619 0.45850 0.73595
 C2187 C 0.27908 0.47108 0.74113
 C2188 C 0.26365 0.47215 0.74074
 C2189 C 0.25545 0.46041 0.73504
 C2190 C 0.26254 0.44775 0.72999
 H2191 H 0.28233 0.38497 0.68328
 H2192 H 0.27058 0.40621 0.69412
 H2193 H 0.30793 0.41178 0.72297
 H2194 H 0.31986 0.39078 0.71181
 H2195 H 0.26921 0.42554 0.71146
 H2196 H 0.29759 0.43267 0.72791
 H2197 H 0.29812 0.45801 0.73633
 H2198 H 0.28563 0.48000 0.74551
 H2199 H 0.24354 0.46104 0.73449
 H2200 H 0.25574 0.43882 0.72612
 C2201 C 0.28919 0.89068 0.18942
 C2202 C 0.28202 0.90270 0.19573
 C2203 C 0.28845 0.91046 0.20736
 C2204 C 0.30222 0.90571 0.21270
 C2205 C 0.30943 0.89371 0.20634
 C2206 C 0.30302 0.88604 0.19460
 C2207 C 0.28026 0.92318 0.21358
 C2208 C 0.28621 0.93314 0.22266
 C2209 C 0.27816 0.94613 0.22844
 C2210 C 0.28644 0.95769 0.23442
 C2211 C 0.27950 0.97019 0.23996
 C2212 C 0.26408 0.97141 0.23974
 C2213 C 0.25572 0.95988 0.23383
 C2214 C 0.26265 0.94729 0.22837
 H2215 H 0.28377 0.88505 0.18051
 H2216 H 0.27138 0.90598 0.19145
 H2217 H 0.30750 0.91101 0.22188
 H2218 H 0.32002 0.89049 0.21071
 H2219 H 0.26904 0.92462 0.20990
 H2220 H 0.29773 0.93233 0.22553
 H2221 H 0.29837 0.95709 0.23471
 H2222 H 0.28617 0.97894 0.24449
 H2223 H 0.24381 0.96064 0.23341
 H2224 H 0.25576 0.93853 0.22428
 C2225 C 0.78640 0.38579 0.19776
 C2226 C 0.77950 0.39738 0.20514
 C2227 C 0.78788 0.40883 0.21111
 C2228 C 0.80332 0.40838 0.20991
 C2229 C 0.81024 0.39661 0.20286
 C2230 C 0.80184 0.38526 0.19665
 C2231 C 0.78039 0.42106 0.21873
 C2232 C 0.78444 0.43501 0.21663
 C2233 C 0.77668 0.44741 0.22361
 C2234 C 0.77327 0.45978 0.21519
 C2235 C 0.76632 0.47187 0.22157
 C2236 C 0.76311 0.47206 0.23664
 C2237 C 0.76685 0.45973 0.24515
 C2238 C 0.77332 0.44738 0.23862
 H2239 H 0.77969 0.37711 0.19317
 H2240 H 0.76758 0.39752 0.20600
 H2241 H 0.81003 0.41699 0.21462
 H2242 H 0.82216 0.39649 0.20213
 H2243 H 0.77077 0.41863 0.22535
 H2244 H 0.79302 0.43753 0.20875
 H2245 H 0.77586 0.46003 0.20361
 H2246 H 0.76356 0.48118 0.21472
 H2247 H 0.76495 0.45970 0.25685
 H2248 H 0.77613 0.43802 0.24537
 C2249 C 0.81419 0.89496 0.70937
 C2250 C 0.80876 0.90769 0.71600
 C2251 C 0.79546 0.91405 0.71135
 C2252 C 0.78777 0.90739 0.69971
 C2253 C 0.79320 0.89461 0.69311
 C2254 C 0.80650 0.88823 0.69783
 C2255 C 0.79041 0.92778 0.71864
 C2256 C 0.77667 0.93322 0.71755
 C2257 C 0.77152 0.94702 0.72470
 C2258 C 0.75643 0.95045 0.72398
 C2259 C 0.75095 0.96336 0.73022
 C2260 C 0.76043 0.97309 0.73752
 C2261 C 0.77553 0.96981 0.73818
 C2262 C 0.78106 0.95695 0.73182
 H2263 H 0.82452 0.89053 0.71329
 H2264 H 0.81501 0.91262 0.72482
 H2265 H 0.77771 0.91205 0.69541
 H2266 H 0.78693 0.88982 0.68425
 H2267 H 0.79839 0.93324 0.72550
 H2268 H 0.76851 0.92719 0.71140
 H2269 H 0.74882 0.94314 0.71848
 H2270 H 0.73931 0.96580 0.72928
 H2271 H 0.78306 0.97721 0.74366
 H2272 H 0.79279 0.95509 0.73244
 C2273 C 0.71181 0.60925 0.69018
 C2274 C 0.71875 0.59705 0.69636
 C2275 C 0.71203 0.58914 0.70772
 C2276 C 0.69822 0.59393 0.71298
 C2277 C 0.69125 0.60615 0.70676
 C2278 C 0.69793 0.61395 0.69525
 C2279 C 0.72000 0.57628 0.71388
 C2280 C 0.71349 0.56563 0.72172
 C2281 C 0.72123 0.55247 0.72760
 C2282 C 0.71262 0.54118 0.73366
 C2283 C 0.71920 0.52857 0.73939
 C2284 C 0.73458 0.52693 0.73925
 C2285 C 0.74327 0.53812 0.73316
 C2286 C 0.73671 0.55082 0.72751
 H2287 H 0.71745 0.61500 0.68147
 H2288 H 0.72943 0.59374 0.69218
 H2289 H 0.69280 0.58849 0.72201
 H2290 H 0.68061 0.60942 0.71102
 H2291 H 0.73156 0.57541 0.71117
 H2292 H 0.70172 0.56614 0.72354
 H2293 H 0.70072 0.54211 0.73398
 H2294 H 0.71227 0.52010 0.74409
 H2295 H 0.75516 0.53703 0.73281
 H2296 H 0.74391 0.55924 0.72326
 C2297 C 0.68603 0.10523 0.20697
 C2298 C 0.69157 0.09261 0.21364
 C2299 C 0.70519 0.08668 0.20937
 C2300 C 0.71312 0.09366 0.19808
 C2301 C 0.70759 0.10637 0.19143
 C2302 C 0.69397 0.11233 0.19580
 C2303 C 0.71029 0.07306 0.21678
 C2304 C 0.72389 0.06738 0.21550
 C2305 C 0.72867 0.05371 0.22299
 C2306 C 0.74384 0.05099 0.22450
 C2307 C 0.74887 0.03816 0.23125
 C2308 C 0.73882 0.02781 0.23671
 C2309 C 0.72366 0.03037 0.23505
 C2310 C 0.71861 0.04313 0.22820
 H2311 H 0.67544 0.10930 0.21060
 H2312 H 0.68512 0.08743 0.22219
 H2313 H 0.72350 0.08938 0.19413
 H2314 H 0.71403 0.11147 0.18286
 H2315 H 0.70246 0.06783 0.22401
 H2316 H 0.73216 0.07311 0.20919
 H2317 H 0.75184 0.05881 0.22042
 H2318 H 0.76063 0.03626 0.23209
 H2319 H 0.71570 0.02245 0.23904
 H2320 H 0.70685 0.04443 0.22681
 C2321 C 0.18536 0.60553 0.20894
 C2322 C 0.19089 0.59285 0.21558
 C2323 C 0.20440 0.58678 0.21113
 C2324 C 0.21223 0.59365 0.19970
 C2325 C 0.20672 0.60637 0.19311
 C2326 C 0.19321 0.61248 0.19762
 C2327 C 0.20954 0.57312 0.21844
 C2328 C 0.22314 0.56744 0.21697
 C2329 C 0.22801 0.55370 0.22427
 C2330 C 0.24320 0.55098 0.22559
 C2331 C 0.24832 0.53812 0.23220
 C2332 C 0.23833 0.52775 0.23775
 C2333 C 0.22315 0.53029 0.23621
 C2334 C 0.21802 0.54307 0.22947
 H2335 H 0.17487 0.60974 0.21268
 H2336 H 0.18453 0.58775 0.22423
 H2337 H 0.22249 0.58926 0.19559
 H2338 H 0.21312 0.61135 0.18444
 H2339 H 0.20178 0.56785 0.22572
 H2340 H 0.23135 0.57321 0.21064
 H2341 H 0.25115 0.55887 0.22152
 H2342 H 0.26009 0.53626 0.23299
 H2343 H 0.21524 0.52237 0.24028
 H2344 H 0.20625 0.54437 0.22821
 C2345 C 0.21267 0.10736 0.68946
 C2346 C 0.21963 0.09521 0.69578
 C2347 C 0.21321 0.08779 0.70764
 C2348 C 0.19969 0.09299 0.71321
 C2349 C 0.19270 0.10510 0.70686
 C2350 C 0.19909 0.11246 0.69489
 C2351 C 0.22115 0.07496 0.71395
 C2352 C 0.21482 0.06495 0.72273
 C2353 C 0.22254 0.05186 0.72872
 C2354 C 0.21394 0.04040 0.73442
 C2355 C 0.22055 0.02781 0.74017
 C2356 C 0.23596 0.02641 0.74044
 C2357 C 0.24465 0.03786 0.73484
 C2358 C 0.23804 0.05053 0.72914
 H2359 H 0.21806 0.11275 0.68038
 H2360 H 0.23010 0.09158 0.69132
 H2361 H 0.19449 0.08796 0.72260
 H2362 H 0.18229 0.10866 0.71142
 H2363 H 0.23248 0.07347 0.71057
 H2364 H 0.20319 0.06584 0.72517
 H2365 H 0.20202 0.04112 0.73435
 H2366 H 0.21362 0.01913 0.74444
 H2367 H 0.25656 0.03697 0.73482
 H2368 H 0.24515 0.05920 0.72524
 C2369 C 0.31405 0.60553 0.29108
 C2370 C 0.30845 0.59293 0.28436
 C2371 C 0.29492 0.58694 0.28880
 C2372 C 0.28717 0.59377 0.30031
 C2373 C 0.29276 0.60640 0.30701
 C2374 C 0.30629 0.61244 0.30250
 C2375 C 0.28970 0.57330 0.28154
 C2376 C 0.27576 0.56836 0.28225
 C2377 C 0.27062 0.55451 0.27531
 C2378 C 0.25538 0.55214 0.27400
 C2379 C 0.24997 0.53913 0.26793
 C2380 C 0.25971 0.52827 0.26288
 C2381 C 0.27494 0.53050 0.26432
 C2382 C 0.28037 0.54343 0.27052
 H2383 H 0.32456 0.60970 0.28734
 H2384 H 0.31475 0.58784 0.27565
 H2385 H 0.27693 0.58933 0.30444
 H2386 H 0.28644 0.61133 0.31576
 H2387 H 0.29771 0.56743 0.27501
 H2388 H 0.26749 0.57488 0.28778
 H2389 H 0.24760 0.56036 0.27775
 H2390 H 0.23816 0.53751 0.26723
 H2391 H 0.28266 0.52219 0.26064
 H2392 H 0.29217 0.54447 0.27173
 C2393 C 0.31266 0.10372 0.79291
 C2394 C 0.30691 0.09104 0.78652
 C2395 C 0.29322 0.08539 0.79094
 C2396 C 0.28544 0.09276 0.80213
 C2397 C 0.29120 0.10551 0.80852
 C2398 C 0.30487 0.11118 0.80397
 C2399 C 0.28783 0.07179 0.78365
 C2400 C 0.27449 0.06574 0.78573
 C2401 C 0.26949 0.05215 0.77818
 C2402 C 0.25430 0.04926 0.77733
 C2403 C 0.24911 0.03652 0.77051
 C2404 C 0.25902 0.02642 0.76431
 C2405 C 0.27421 0.02916 0.76532
 C2406 C 0.27942 0.04182 0.77223
 H2407 H 0.32330 0.10754 0.78918
 H2408 H 0.31325 0.08559 0.77804
 H2409 H 0.27496 0.08880 0.80613
 H2410 H 0.28486 0.11092 0.81699
 H2411 H 0.29525 0.06681 0.77580
 H2412 H 0.26656 0.07106 0.79280
 H2413 H 0.24641 0.05689 0.78198
 H2414 H 0.23735 0.03450 0.77018
 H2415 H 0.28207 0.02143 0.76076
 H2416 H 0.29122 0.04325 0.77309
 C2417 C 0.81302 0.60517 0.79031
 C2418 C 0.80734 0.59261 0.78357
 C2419 C 0.79374 0.58671 0.78794
 C2420 C 0.78601 0.59361 0.79943
 C2421 C 0.79167 0.60621 0.80613
 C2422 C 0.80525 0.61216 0.80167
 C2423 C 0.78842 0.57313 0.78061
 C2424 C 0.77454 0.56805 0.78160
 C2425 C 0.76929 0.55422 0.77466
 C2426 C 0.75405 0.55139 0.77450
 C2427 C 0.74853 0.53837 0.76854
 C2428 C 0.75815 0.52794 0.76245
 C2429 C 0.77337 0.53065 0.76267
 C2430 C 0.77891 0.54359 0.76874
 H2431 H 0.82358 0.60927 0.78664
 H2432 H 0.81365 0.58746 0.77489
 H2433 H 0.77572 0.58929 0.80353
 H2434 H 0.78533 0.61122 0.81484
 H2435 H 0.79633 0.56742 0.77384
 H2436 H 0.76638 0.57437 0.78750
 H2437 H 0.74636 0.55925 0.77912
 H2438 H 0.73676 0.53638 0.76879
 H2439 H 0.78099 0.52267 0.75815
 H2440 H 0.79073 0.54495 0.76895
 C2441 C 0.81369 0.10407 0.29265
 C2442 C 0.80797 0.09149 0.28605
 C2443 C 0.79409 0.08601 0.29008
 C2444 C 0.78612 0.09338 0.30113
 C2445 C 0.79186 0.10603 0.30773
 C2446 C 0.80569 0.11158 0.30352
 C2447 C 0.78875 0.07253 0.28257
 C2448 C 0.77514 0.06689 0.28392
 C2449 C 0.77027 0.05336 0.27621
 C2450 C 0.75509 0.05077 0.27457
 C2451 C 0.75002 0.03807 0.26759
 C2452 C 0.76005 0.02771 0.26202
 C2453 C 0.77521 0.03017 0.26378
 C2454 C 0.78029 0.04278 0.27087
 H2455 H 0.82448 0.10776 0.28922
 H2456 H 0.81446 0.08601 0.27771
 H2457 H 0.77553 0.08947 0.30486
 H2458 H 0.78539 0.11148 0.31607
 H2459 H 0.79646 0.06733 0.27517
 H2460 H 0.76697 0.07252 0.29046
 H2461 H 0.74712 0.05860 0.27873
 H2462 H 0.73826 0.03626 0.26666
 H2463 H 0.78315 0.02227 0.25972
 H2464 H 0.79204 0.04396 0.27235
 C2465 C 0.70847 0.39468 0.31221
 C2466 C 0.71539 0.40696 0.30618
 C2467 C 0.71073 0.41280 0.29274
 C2468 C 0.69880 0.40609 0.28550
 C2469 C 0.69190 0.39374 0.29152
 C2470 C 0.69665 0.38787 0.30495
 C2471 C 0.71829 0.42616 0.28716
 C2472 C 0.71663 0.43169 0.27362
 C2473 C 0.72397 0.44538 0.26860
 C2474 C 0.72544 0.44796 0.25350
 C2475 C 0.73204 0.46086 0.24835
 C2476 C 0.73742 0.47137 0.25824
 C2477 C 0.73573 0.46893 0.27332
 C2478 C 0.72901 0.45615 0.27846
 H2479 H 0.71239 0.39066 0.32264
 H2480 H 0.72443 0.41196 0.31211
 H2481 H 0.69455 0.41034 0.27530
 H2482 H 0.68283 0.38885 0.28559
 H2483 H 0.72587 0.43143 0.29462
 H2484 H 0.71004 0.42588 0.26566
 H2485 H 0.72148 0.43997 0.24566
 H2486 H 0.73293 0.46266 0.23666
 H2487 H 0.73961 0.47698 0.28115
 H2488 H 0.72758 0.45498 0.29015
 C2489 C 0.71201 0.89196 0.80868
 C2490 C 0.71888 0.90409 0.80232
 C2491 C 0.71215 0.91177 0.79081
 C2492 C 0.69840 0.90681 0.78560
 C2493 C 0.69150 0.89467 0.79202
 C2494 C 0.69820 0.88712 0.80368
 C2495 C 0.72004 0.92464 0.78460
 C2496 C 0.71384 0.93464 0.77573
 C2497 C 0.72163 0.94781 0.77000
 C2498 C 0.71319 0.95892 0.76339
 C2499 C 0.71988 0.97160 0.75795
 C2500 C 0.73520 0.97346 0.75896
 C2501 C 0.74371 0.96240 0.76552
 C2502 C 0.73706 0.94963 0.77083
 H2503 H 0.71767 0.88640 0.81750
 H2504 H 0.72951 0.90753 0.80649
 H2505 H 0.69292 0.91206 0.77651
 H2506 H 0.68090 0.89128 0.78780
 H2507 H 0.73129 0.92612 0.78815
 H2508 H 0.70231 0.93367 0.77294
 H2509 H 0.70134 0.95783 0.76250
 H2510 H 0.71310 0.97997 0.75290
 H2511 H 0.75554 0.96366 0.76657
 H2512 H 0.74415 0.94131 0.77544
 C2513 C 0.18638 0.39340 0.79168
 C2514 C 0.19204 0.40595 0.78495
 C2515 C 0.20555 0.41197 0.78940
 C2516 C 0.21326 0.40511 0.80092
 C2517 C 0.20760 0.39249 0.80763
 C2518 C 0.19408 0.38646 0.80310
 C2519 C 0.21077 0.42554 0.78192
 C2520 C 0.22409 0.43169 0.78385
 C2521 C 0.22894 0.44544 0.77646
 C2522 C 0.24402 0.44897 0.77652
 C2523 C 0.24910 0.46192 0.77003
 C2524 C 0.23920 0.47158 0.76317
 C2525 C 0.22411 0.46818 0.76322
 C2526 C 0.21900 0.45533 0.76984
 H2527 H 0.17587 0.38927 0.78792
 H2528 H 0.18576 0.41102 0.77623
 H2529 H 0.22357 0.40940 0.80498
 H2530 H 0.21387 0.38749 0.81638
 H2531 H 0.20320 0.43040 0.77418
 H2532 H 0.23209 0.42639 0.79082
 H2533 H 0.25192 0.44169 0.78166
 H2534 H 0.26076 0.46444 0.77042
 H2535 H 0.21625 0.47553 0.75811
 H2536 H 0.20725 0.45343 0.76991
 C2537 C 0.18657 0.89336 0.29217
 C2538 C 0.19224 0.90588 0.28541
 C2539 C 0.20588 0.91177 0.28966
 C2540 C 0.21368 0.90481 0.30106
 C2541 C 0.20800 0.89222 0.30782
 C2542 C 0.19438 0.88630 0.30345
 C2543 C 0.21116 0.92524 0.28205
 C2544 C 0.22455 0.93130 0.28384
 C2545 C 0.22950 0.94487 0.27619
 C2546 C 0.24464 0.94814 0.27596
 C2547 C 0.24981 0.96095 0.26926
 C2548 C 0.23995 0.97074 0.26254
 C2549 C 0.22481 0.96757 0.26284
 C2550 C 0.21961 0.95484 0.26964
 H2551 H 0.17597 0.88933 0.28856
 H2552 H 0.18588 0.91103 0.27678
 H2553 H 0.22409 0.90899 0.30498
 H2554 H 0.21437 0.88713 0.31645
 H2555 H 0.20360 0.93010 0.27430
 H2556 H 0.23254 0.92603 0.29084
 H2557 H 0.25250 0.94079 0.28105
 H2558 H 0.26151 0.96330 0.26947
 H2559 H 0.21698 0.97503 0.25785
 H2560 H 0.20783 0.95314 0.26994
 C2561 C 0.39110 0.28779 0.69070
 C2562 C 0.40342 0.28100 0.69686
 C2563 C 0.41138 0.28781 0.70813
 C2564 C 0.40650 0.30157 0.71332
 C2565 C 0.39417 0.30839 0.70710
 C2566 C 0.38634 0.30161 0.69567
 C2567 C 0.42442 0.27997 0.71418
 C2568 C 0.43466 0.28621 0.72277
 C2569 C 0.44794 0.27842 0.72839
 C2570 C 0.45935 0.28685 0.73450
 C2571 C 0.47207 0.28014 0.73995
 C2572 C 0.47367 0.26482 0.73946
 C2573 C 0.46232 0.25634 0.73334
 C2574 C 0.44951 0.26301 0.72802
 H2575 H 0.38533 0.28206 0.68207
 H2576 H 0.40679 0.27036 0.69272
 H2577 H 0.41197 0.30711 0.72224
 H2578 H 0.39084 0.31901 0.71128
 H2579 H 0.42580 0.26870 0.71075
 H2580 H 0.43380 0.29775 0.72540
 H2581 H 0.45845 0.29870 0.73503
 H2582 H 0.48066 0.28692 0.74465
 H2583 H 0.46336 0.24450 0.73270
 H2584 H 0.44095 0.25596 0.72381
 C2585 C 0.40192 0.81606 0.20061
 C2586 C 0.41531 0.81078 0.20610
 C2587 C 0.41762 0.79564 0.20777
 C2588 C 0.40644 0.78582 0.20361
 C2589 C 0.39323 0.79108 0.19771
 C2590 C 0.39083 0.80624 0.19623
 C2591 C 0.43191 0.79027 0.21334
 C2592 C 0.43278 0.77966 0.22343
 C2593 C 0.44704 0.77427 0.22907
 C2594 C 0.44868 0.77173 0.24410
 C2595 C 0.46194 0.76620 0.24963
 C2596 C 0.47355 0.76240 0.24012
 C2597 C 0.47189 0.76507 0.22505
 C2598 C 0.45881 0.77107 0.21958
 H2599 H 0.40038 0.82779 0.19946
 H2600 H 0.42383 0.81851 0.20917
 H2601 H 0.40808 0.77408 0.20460
 H2602 H 0.38483 0.78330 0.19442
 H2603 H 0.44187 0.79570 0.20964
 H2604 H 0.42276 0.77534 0.22826
 H2605 H 0.43975 0.77419 0.25160
 H2606 H 0.46305 0.76476 0.26134
 H2607 H 0.48064 0.76227 0.21745
 H2608 H 0.45771 0.77280 0.20790
 C2609 C 0.89669 0.31446 0.20755
 C2610 C 0.90939 0.30893 0.21417
 C2611 C 0.91542 0.29543 0.20978
 C2612 C 0.90845 0.28761 0.19841
 C2613 C 0.89569 0.29313 0.19182
 C2614 C 0.88963 0.30663 0.19629
 C2615 C 0.92911 0.29029 0.21711
 C2616 C 0.93493 0.27681 0.21553
 C2617 C 0.94868 0.27196 0.22289
 C2618 C 0.95141 0.25683 0.22419
 C2619 C 0.96427 0.25173 0.23088
 C2620 C 0.97464 0.26166 0.23651
 C2621 C 0.97212 0.27679 0.23496
 C2622 C 0.95932 0.28191 0.22817
 H2623 H 0.89252 0.32494 0.21126
 H2624 H 0.91455 0.31528 0.22279
 H2625 H 0.91278 0.27734 0.19435
 H2626 H 0.89064 0.28676 0.18319
 H2627 H 0.93432 0.29796 0.22451
 H2628 H 0.92924 0.26867 0.20906
 H2629 H 0.94352 0.24892 0.22006
 H2630 H 0.96613 0.24001 0.23166
 H2631 H 0.98005 0.28465 0.23909
 H2632 H 0.95799 0.29364 0.22692
 C2633 C 0.89147 0.78714 0.69014
 C2634 C 0.90371 0.78016 0.69629
 C2635 C 0.91142 0.78655 0.70798
 C2636 C 0.90639 0.80010 0.71355
 C2637 C 0.89417 0.80712 0.70735
 C2638 C 0.88658 0.80076 0.69553
 C2639 C 0.92443 0.77857 0.71395
 C2640 C 0.93406 0.78429 0.72355
 C2641 C 0.94727 0.77644 0.72922
 C2642 C 0.95786 0.78462 0.73693
 C2643 C 0.97054 0.77791 0.74244
 C2644 C 0.97292 0.76282 0.74043
 C2645 C 0.96237 0.75455 0.73281
 C2646 C 0.94962 0.76123 0.72736
 H2647 H 0.88589 0.78175 0.68118
 H2648 H 0.90719 0.76968 0.69183
 H2649 H 0.91164 0.80538 0.72275
 H2650 H 0.89075 0.81755 0.71188
 H2651 H 0.92628 0.76765 0.70970
 H2652 H 0.93270 0.79550 0.72717
 H2653 H 0.95637 0.79630 0.73863
 H2654 H 0.97852 0.78451 0.74830
 H2655 H 0.96406 0.74292 0.73098
 H2656 H 0.94172 0.75434 0.72181
 C2657 C 0.59884 0.31666 0.29845
 C2658 C 0.58547 0.31128 0.29305
 C2659 C 0.58327 0.29612 0.29153
 C2660 C 0.59449 0.28638 0.29577
 C2661 C 0.60767 0.29174 0.30159
 C2662 C 0.60998 0.30693 0.30289
 C2663 C 0.56900 0.29063 0.28612
 C2664 C 0.56814 0.27988 0.27618
 C2665 C 0.55386 0.27424 0.27094
 C2666 C 0.55180 0.27162 0.25597
 C2667 C 0.53844 0.26598 0.25086
 C2668 C 0.52716 0.26214 0.26073
 C2669 C 0.52927 0.26480 0.27574
 C2670 C 0.54245 0.27092 0.28079
 H2671 H 0.60032 0.32841 0.29950
 H2672 H 0.57689 0.31894 0.28993
 H2673 H 0.59291 0.27462 0.29492
 H2674 H 0.61611 0.28403 0.30495
 H2675 H 0.55902 0.29600 0.28989
 H2676 H 0.57813 0.27557 0.27126
 H2677 H 0.56048 0.27416 0.24821
 H2678 H 0.53698 0.26451 0.23919
 H2679 H 0.52082 0.26193 0.28361
 H2680 H 0.54389 0.27267 0.29243
 C2681 C 0.60499 0.81344 0.79216
 C2682 C 0.59235 0.80773 0.78560
 C2683 C 0.58641 0.79428 0.79020
 C2684 C 0.59341 0.78669 0.80170
 C2685 C 0.60612 0.79240 0.80824
 C2686 C 0.61208 0.80585 0.80355
 C2687 C 0.57275 0.78898 0.78293
 C2688 C 0.56702 0.77549 0.78467
 C2689 C 0.55321 0.77046 0.77751
 C2690 C 0.55012 0.75535 0.77729
 C2691 C 0.53714 0.75008 0.77096
 C2692 C 0.52704 0.75982 0.76452
 C2693 C 0.52998 0.77494 0.76489
 C2694 C 0.54285 0.78024 0.77138
 H2695 H 0.60907 0.82390 0.78829
 H2696 H 0.58715 0.81391 0.77688
 H2697 H 0.58913 0.77647 0.80592
 H2698 H 0.61121 0.78621 0.81698
 H2699 H 0.56750 0.79658 0.77550
 H2700 H 0.57278 0.76748 0.79125
 H2701 H 0.55776 0.74757 0.78207
 H2702 H 0.53496 0.73839 0.77112
 H2703 H 0.52226 0.78267 0.76014
 H2704 H 0.54440 0.79199 0.77173
 C2705 C 0.10706 0.28737 0.80975
 C2706 C 0.09482 0.28053 0.80352
 C2707 C 0.08720 0.28706 0.79186
 C2708 C 0.09228 0.30063 0.78642
 C2709 C 0.10454 0.30751 0.79271
 C2710 C 0.11208 0.30098 0.80447
 C2711 C 0.07430 0.27911 0.78570
 C2712 C 0.06450 0.28500 0.77640
 C2713 C 0.05141 0.27699 0.77074
 C2714 C 0.03978 0.28519 0.76472
 C2715 C 0.02720 0.27821 0.75933
 C2716 C 0.02600 0.26285 0.75975
 C2717 C 0.03760 0.25459 0.76570
 C2718 C 0.05026 0.26155 0.77098
 H2719 H 0.11258 0.28186 0.81868
 H2720 H 0.09128 0.27005 0.80788
 H2721 H 0.08705 0.30597 0.77724
 H2722 H 0.10804 0.31796 0.78829
 H2723 H 0.07259 0.26805 0.78963
 H2724 H 0.06552 0.29639 0.77324
 H2725 H 0.04037 0.29706 0.76430
 H2726 H 0.01840 0.28481 0.75475
 H2727 H 0.03687 0.24273 0.76627
 H2728 H 0.05909 0.25471 0.77506
 C2729 C 0.10749 0.78708 0.31028
 C2730 C 0.09519 0.78027 0.30413
 C2731 C 0.08735 0.78691 0.29267
 C2732 C 0.09230 0.80059 0.28736
 C2733 C 0.10461 0.80744 0.29356
 C2734 C 0.11236 0.80080 0.30512
 C2735 C 0.07430 0.77902 0.28671
 C2736 C 0.06480 0.78463 0.27692
 C2737 C 0.05158 0.77670 0.27144
 C2738 C 0.04048 0.78486 0.26444
 C2739 C 0.02778 0.77799 0.25916
 C2740 C 0.02593 0.76277 0.26068
 C2741 C 0.03699 0.75454 0.26762
 C2742 C 0.04976 0.76138 0.27280
 H2743 H 0.11319 0.78147 0.31903
 H2744 H 0.09177 0.76971 0.30841
 H2745 H 0.08688 0.80611 0.27840
 H2746 H 0.10799 0.81799 0.28927
 H2747 H 0.07227 0.76820 0.29113
 H2748 H 0.06623 0.79575 0.27308
 H2749 H 0.04158 0.79663 0.26314
 H2750 H 0.01940 0.78456 0.25383
 H2751 H 0.03572 0.74281 0.26906
 H2752 H 0.05812 0.75452 0.27770
 C2753 C 0.60883 0.71216 0.69280
 C2754 C 0.59675 0.71907 0.69928
 C2755 C 0.58872 0.71215 0.71044
 C2756 C 0.59330 0.69814 0.71520
 C2757 C 0.60542 0.69118 0.70866
 C2758 C 0.61329 0.69808 0.69732
 C2759 C 0.57590 0.72014 0.71674
 C2760 C 0.56561 0.71401 0.72535
 C2761 C 0.55242 0.72196 0.73094
 C2762 C 0.54068 0.71366 0.73659
 C2763 C 0.52797 0.72053 0.74186
 C2764 C 0.52671 0.73589 0.74165
 C2765 C 0.53840 0.74427 0.73604
 C2766 C 0.55121 0.73742 0.73091
 H2767 H 0.61466 0.71800 0.68428
 H2768 H 0.59361 0.72989 0.69546
 H2769 H 0.58774 0.69248 0.72400
 H2770 H 0.60853 0.68037 0.71247
 H2771 H 0.57464 0.73146 0.71342
 H2772 H 0.56629 0.70244 0.72790
 H2773 H 0.54130 0.70178 0.73685
 H2774 H 0.51911 0.71384 0.74618
 H2775 H 0.53763 0.75613 0.73567
 H2776 H 0.56007 0.74435 0.72710
 C2777 C 0.60405 0.20843 0.18677
 C2778 C 0.59145 0.21489 0.19270
 C2779 C 0.58556 0.20995 0.20602
 C2780 C 0.59255 0.19819 0.21325
 C2781 C 0.60523 0.19174 0.20732
 C2782 C 0.61115 0.19680 0.19401
 C2783 C 0.57199 0.21723 0.21153
 C2784 C 0.56589 0.21485 0.22471
 C2785 C 0.55223 0.22236 0.22962
 C2786 C 0.54945 0.22365 0.24469
 C2787 C 0.53668 0.23064 0.24972
 C2788 C 0.52650 0.23653 0.23975
 C2789 C 0.52910 0.23499 0.22470
 C2790 C 0.54177 0.22790 0.21966
 H2791 H 0.60810 0.21257 0.17644
 H2792 H 0.58626 0.22382 0.18680
 H2793 H 0.58833 0.19377 0.22339
 H2794 H 0.61036 0.18281 0.21323
 H2795 H 0.56707 0.22532 0.20437
 H2796 H 0.57120 0.20767 0.23249
 H2797 H 0.55721 0.21931 0.25259
 H2798 H 0.53474 0.23146 0.26140
 H2799 H 0.52131 0.23931 0.21681
 H2800 H 0.54313 0.22661 0.20797
 C2801 C 0.10814 0.71344 0.18990
 C2802 C 0.09590 0.72040 0.19611
 C2803 C 0.08835 0.71408 0.20795
 C2804 C 0.09358 0.70068 0.21366
 C2805 C 0.10579 0.69368 0.20740
 C2806 C 0.11320 0.69993 0.19539
 C2807 C 0.07530 0.72197 0.21398
 C2808 C 0.06557 0.71599 0.22334
 C2809 C 0.05222 0.72361 0.22904
 C2810 C 0.04173 0.71517 0.23661
 C2811 C 0.02892 0.72161 0.24215
 C2812 C 0.02630 0.73667 0.24031
 C2813 C 0.03674 0.74521 0.23283
 C2814 C 0.04964 0.73880 0.22734
 H2815 H 0.11358 0.71874 0.18079
 H2816 H 0.09227 0.73078 0.19155
 H2817 H 0.08849 0.69551 0.22302
 H2818 H 0.10934 0.68336 0.21204
 H2819 H 0.07346 0.73296 0.20994
 H2820 H 0.06695 0.70470 0.22668
 H2821 H 0.04340 0.70350 0.23819
 H2822 H 0.02103 0.71482 0.24794
 H2823 H 0.03488 0.75685 0.23118
 H2824 H 0.05746 0.74587 0.22189
 C2825 C 0.10554 0.18546 0.70976
 C2826 C 0.09287 0.19103 0.71649
 C2827 C 0.08662 0.20436 0.71190
 C2828 C 0.09335 0.21197 0.70024
 C2829 C 0.10605 0.20643 0.69355
 C2830 C 0.11231 0.19309 0.69819
 C2831 C 0.07295 0.20954 0.71931
 C2832 C 0.06693 0.22289 0.71740
 C2833 C 0.05309 0.22786 0.72460
 C2834 C 0.04969 0.24292 0.72441
 C2835 C 0.03664 0.24814 0.73067
 C2836 C 0.02676 0.23842 0.73743
 C2837 C 0.03000 0.22335 0.73750
 C2838 C 0.04297 0.21808 0.73110
 H2839 H 0.10988 0.17510 0.71360
 H2840 H 0.08791 0.18483 0.72533
 H2841 H 0.08886 0.22210 0.69601
 H2842 H 0.11091 0.21267 0.68471
 H2843 H 0.06793 0.20197 0.72694
 H2844 H 0.07244 0.23086 0.71058
 H2845 H 0.05715 0.25069 0.71933
 H2846 H 0.03423 0.25978 0.73019
 H2847 H 0.02246 0.21562 0.74252
 H2848 H 0.04478 0.20636 0.73111
 C2849 C 0.39563 0.70907 0.31440
 C2850 C 0.40828 0.71562 0.30863
 C2851 C 0.41418 0.71096 0.29519
 C2852 C 0.40710 0.69944 0.28766
 C2853 C 0.39441 0.69293 0.29342
 C2854 C 0.38851 0.69763 0.30688
 C2855 C 0.42784 0.71820 0.28982
 C2856 C 0.43383 0.71608 0.27653
 C2857 C 0.44761 0.72337 0.27163
 C2858 C 0.45044 0.72455 0.25655
 C2859 C 0.46335 0.73122 0.25147
 C2860 C 0.47366 0.73693 0.26141
 C2861 C 0.47101 0.73550 0.27649
 C2862 C 0.45819 0.72873 0.28156
 H2863 H 0.39157 0.71295 0.32484
 H2864 H 0.41351 0.72437 0.31476
 H2865 H 0.41129 0.69523 0.27742
 H2866 H 0.38926 0.68418 0.28726
 H2867 H 0.43293 0.72598 0.29720
 H2868 H 0.42833 0.70920 0.26861
 H2869 H 0.44259 0.72034 0.24866
 H2870 H 0.46530 0.73194 0.23980
 H2871 H 0.47889 0.73967 0.28435
 H2872 H 0.45680 0.72754 0.29326
 C2873 C 0.39581 0.18635 0.79116
 C2874 C 0.40833 0.19212 0.78440
 C2875 C 0.41413 0.20573 0.78872
 C2876 C 0.40714 0.21339 0.80021
 C2877 C 0.39454 0.20763 0.80695
 C2878 C 0.38868 0.19406 0.80248
 C2879 C 0.42761 0.21110 0.78115
 C2880 C 0.43326 0.22466 0.78263
 C2881 C 0.44690 0.22975 0.77512
 C2882 C 0.45021 0.24483 0.77529
 C2883 C 0.46309 0.25013 0.76875
 C2884 C 0.47290 0.24047 0.76175
 C2885 C 0.46968 0.22540 0.76160
 C2886 C 0.45690 0.22006 0.76826
 H2887 H 0.39183 0.17579 0.78749
 H2888 H 0.41353 0.18586 0.77573
 H2889 H 0.41132 0.22374 0.80422
 H2890 H 0.38942 0.21389 0.81564
 H2891 H 0.43277 0.20345 0.77370
 H2892 H 0.42760 0.23265 0.78933
 H2893 H 0.44284 0.25254 0.78060
 H2894 H 0.46549 0.26177 0.76929
 H2895 H 0.47714 0.21773 0.75636
 H2896 H 0.45521 0.20833 0.76817
 C2897 C 0.89119 0.71230 0.81047
 C2898 C 0.90348 0.71924 0.80438
 C2899 C 0.91116 0.71290 0.79262
 C2900 C 0.90608 0.69942 0.78695
 C2901 C 0.89381 0.69245 0.79310
 C2902 C 0.88620 0.69878 0.80495
 C2903 C 0.92415 0.72087 0.78662
 C2904 C 0.93389 0.71506 0.77715
 C2905 C 0.94711 0.72287 0.77143
 C2906 C 0.95768 0.71463 0.76372
 C2907 C 0.97040 0.72127 0.75822
 C2908 C 0.97284 0.73634 0.76023
 C2909 C 0.96229 0.74468 0.76783
 C2910 C 0.94949 0.73807 0.77327
 H2911 H 0.88561 0.71766 0.81947
 H2912 H 0.90701 0.72965 0.80893
 H2913 H 0.91131 0.69419 0.77770
 H2914 H 0.89034 0.68207 0.78849
 H2915 H 0.92590 0.73185 0.79074
 H2916 H 0.93261 0.70379 0.77369
 H2917 H 0.95616 0.70296 0.76202
 H2918 H 0.97838 0.71463 0.75236
 H2919 H 0.96401 0.75631 0.76964
 H2920 H 0.94160 0.74501 0.77881
 C2921 C 0.89663 0.18651 0.29111
 C2922 C 0.90923 0.19218 0.28441
 C2923 C 0.91497 0.20584 0.28862
 C2924 C 0.90789 0.21365 0.29994
 C2925 C 0.89523 0.20798 0.30664
 C2926 C 0.88941 0.19435 0.30228
 C2927 C 0.92857 0.21111 0.28122
 C2928 C 0.93365 0.22494 0.28193
 C2929 C 0.94745 0.22993 0.27468
 C2930 C 0.94992 0.24508 0.27312
 C2931 C 0.96293 0.25030 0.26677
 C2932 C 0.97371 0.24045 0.26171
 C2933 C 0.97133 0.22532 0.26332
 C2934 C 0.95842 0.22009 0.26980
 H2935 H 0.89269 0.17590 0.28755
 H2936 H 0.91453 0.18582 0.27586
 H2937 H 0.91212 0.22401 0.30388
 H2938 H 0.89005 0.21433 0.31523
 H2939 H 0.93431 0.20316 0.27451
 H2940 H 0.92731 0.23320 0.28767
 H2941 H 0.94178 0.25293 0.27691
 H2942 H 0.96465 0.26204 0.26593
 H2943 H 0.97955 0.21751 0.25961
 H2944 H 0.95734 0.20836 0.27119
 C2945 C 0.29102 0.31206 0.60430
 C2946 C 0.28436 0.30622 0.59183
 C2947 C 0.28880 0.29258 0.58617
 C2948 C 0.30027 0.28495 0.59327
 C2949 C 0.30692 0.29078 0.60581
 C2950 C 0.30236 0.30440 0.61150
 C2951 C 0.28143 0.28717 0.57268
 C2952 C 0.28298 0.27358 0.56716
 C2953 C 0.27580 0.26854 0.55343
 C2954 C 0.27519 0.25339 0.55053
 C2955 C 0.26896 0.24815 0.53755
 C2956 C 0.26308 0.25795 0.52724
 C2957 C 0.26376 0.27308 0.53002
 C2958 C 0.27011 0.27836 0.54292
 H2959 H 0.28728 0.32265 0.60816
 H2960 H 0.27568 0.31245 0.58655
 H2961 H 0.30437 0.27459 0.58919
 H2962 H 0.31561 0.28456 0.61101
 H2963 H 0.27408 0.29481 0.56733
 H2964 H 0.28945 0.26553 0.57302
 H2965 H 0.27964 0.24558 0.55830
 H2966 H 0.26887 0.23644 0.53548
 H2967 H 0.25943 0.28085 0.52214
 H2968 H 0.27076 0.29011 0.54433
 C2969 C 0.31472 0.78920 0.10535
 C2970 C 0.30920 0.78292 0.09252
 C2971 C 0.29599 0.78797 0.08630
 C2972 C 0.28850 0.79965 0.09316
 C2973 C 0.29399 0.80589 0.10604
 C2974 C 0.30718 0.80076 0.11231
 C2975 C 0.29079 0.78103 0.07250
 C2976 C 0.27708 0.78252 0.06716
 C2977 C 0.27180 0.77567 0.05334
 C2978 C 0.25660 0.77588 0.05042
 C2979 C 0.25101 0.76982 0.03752
 C2980 C 0.26051 0.76323 0.02730
 C2981 C 0.27572 0.76317 0.03004
 C2982 C 0.28135 0.76936 0.04288
 H2983 H 0.32498 0.78501 0.10969
 H2984 H 0.31532 0.77406 0.08742
 H2985 H 0.27853 0.80426 0.08861
 H2986 H 0.28784 0.81477 0.11099
 H2987 H 0.29859 0.77403 0.06690
 H2988 H 0.26900 0.78868 0.07334
 H2989 H 0.24898 0.78081 0.05813
 H2990 H 0.23926 0.77033 0.03548
 H2991 H 0.28327 0.75830 0.02221
 H2992 H 0.29316 0.76930 0.04434
 C2993 C 0.81090 0.28717 0.10804
 C2994 C 0.80500 0.28022 0.09575
 C2995 C 0.79314 0.28644 0.08807
 C2996 C 0.78716 0.29978 0.09318
 C2997 C 0.79311 0.30677 0.10548
 C2998 C 0.80507 0.30057 0.11306
 C2999 C 0.78740 0.27844 0.07507
 C3000 C 0.77801 0.28418 0.06524
 C3001 C 0.77266 0.27626 0.05202
 C3002 C 0.76554 0.28442 0.04105
 C3003 C 0.76033 0.27760 0.02838
 C3004 C 0.76204 0.26242 0.02640
 C3005 C 0.76916 0.25419 0.03729
 C3006 C 0.77427 0.26097 0.05005
 H3007 H 0.81998 0.28190 0.11361
 H3008 H 0.80978 0.26990 0.09220
 H3009 H 0.77780 0.30488 0.08793
 H3010 H 0.78829 0.31707 0.10897
 H3011 H 0.79170 0.26750 0.07336
 H3012 H 0.77444 0.29544 0.06644
 H3013 H 0.76406 0.29617 0.04226
 H3014 H 0.75485 0.28417 0.02013
 H3015 H 0.77076 0.24248 0.03593
 H3016 H 0.77930 0.25409 0.05827
 C3017 C 0.79066 0.81352 0.60494
 C3018 C 0.78407 0.80776 0.59236
 C3019 C 0.78865 0.79423 0.58654
 C3020 C 0.80012 0.78660 0.59363
 C3021 C 0.80667 0.79234 0.60625
 C3022 C 0.80206 0.80589 0.61207
 C3023 C 0.78147 0.78889 0.57289
 C3024 C 0.78318 0.77533 0.56731
 C3025 C 0.77624 0.77027 0.55345
 C3026 C 0.77565 0.75512 0.55058
 C3027 C 0.76953 0.74983 0.53756
 C3028 C 0.76374 0.75960 0.52717
 C3029 C 0.76453 0.77476 0.52987
 C3030 C 0.77076 0.78007 0.54281
 H3031 H 0.78684 0.82403 0.60893
 H3032 H 0.77536 0.81398 0.58711
 H3033 H 0.80432 0.77631 0.58947
 H3034 H 0.81539 0.78609 0.61138
 H3035 H 0.77416 0.79653 0.56747
 H3036 H 0.78958 0.76727 0.57322
 H3037 H 0.77995 0.74732 0.55844
 H3038 H 0.76933 0.73811 0.53558
 H3039 H 0.76027 0.78250 0.52192
 H3040 H 0.77143 0.79183 0.54422
 C3041 C 0.28734 0.68996 0.39230
 C3042 C 0.28028 0.69617 0.40442
 C3043 C 0.28674 0.70783 0.41213
 C3044 C 0.30038 0.71336 0.40723
 C3045 C 0.30747 0.70712 0.39515
 C3046 C 0.30107 0.69532 0.38753
 C3047 C 0.27875 0.71399 0.42495
 C3048 C 0.28518 0.72225 0.43530
 C3049 C 0.27745 0.72813 0.44839
 C3050 C 0.28606 0.73359 0.45994
 C3051 C 0.27944 0.73923 0.47254
 C3052 C 0.26404 0.73963 0.47386
 C3053 C 0.25534 0.73427 0.46235
 C3054 C 0.26195 0.72869 0.44967
 H3055 H 0.28193 0.68102 0.38669
 H3056 H 0.26972 0.69177 0.40783
 H3057 H 0.30559 0.72264 0.41248
 H3058 H 0.31798 0.71162 0.39183
 H3059 H 0.26731 0.71091 0.42612
 H3060 H 0.29690 0.72433 0.43467
 H3061 H 0.29798 0.73341 0.45926
 H3062 H 0.28637 0.74334 0.48128
 H3063 H 0.24343 0.73437 0.46321
 H3064 H 0.25483 0.72498 0.44095
 C3065 C 0.31380 0.20754 0.89518
 C3066 C 0.30827 0.21401 0.90791
 C3067 C 0.29467 0.20963 0.91379
 C3068 C 0.28673 0.19844 0.90662
 C3069 C 0.29227 0.19198 0.89382
 C3070 C 0.30588 0.19645 0.88792
 C3071 C 0.28958 0.21683 0.92753
 C3072 C 0.27597 0.21554 0.93321
 C3073 C 0.27120 0.22293 0.94695
 C3074 C 0.25603 0.22454 0.94967
 C3075 C 0.25101 0.23125 0.96251
 C3076 C 0.26106 0.23658 0.97292
 C3077 C 0.27622 0.23478 0.97037
 C3078 C 0.28125 0.22797 0.95758
 H3079 H 0.32439 0.21122 0.89117
 H3080 H 0.31472 0.22249 0.91321
 H3081 H 0.27637 0.19443 0.91084
 H3082 H 0.28583 0.18349 0.88857
 H3083 H 0.29744 0.22395 0.93288
 H3084 H 0.26769 0.20934 0.92739
 H3085 H 0.24802 0.22059 0.94181
 H3086 H 0.23925 0.23219 0.96438
 H3087 H 0.28418 0.23865 0.97830
 H3088 H 0.29301 0.22650 0.95628
 C3089 C 0.78577 0.68979 0.89130
 C3090 C 0.77869 0.69596 0.90344
 C3091 C 0.78487 0.70796 0.91087
 C3092 C 0.79822 0.71387 0.90563
 C3093 C 0.80533 0.70766 0.89353
 C3094 C 0.79924 0.69550 0.88622
 C3095 C 0.77690 0.71398 0.92381
 C3096 C 0.78305 0.72303 0.93370
 C3097 C 0.77546 0.72876 0.94698
 C3098 C 0.78398 0.73630 0.95739
 C3099 C 0.77759 0.74185 0.97014
 C3100 C 0.76247 0.74005 0.97281
 C3101 C 0.75384 0.73256 0.96247
 C3102 C 0.76021 0.72708 0.94962
 H3103 H 0.78059 0.68056 0.88593
 H3104 H 0.76836 0.69125 0.90708
 H3105 H 0.80323 0.72339 0.91062
 H3106 H 0.81562 0.71246 0.88997
 H3107 H 0.76574 0.71019 0.92542
 H3108 H 0.79449 0.72606 0.93248
 H3109 H 0.79570 0.73786 0.95567
 H3110 H 0.78445 0.74763 0.97794
 H3111 H 0.74217 0.73094 0.96437
 H3112 H 0.75307 0.72164 0.94189
 C3113 C 0.81364 0.20861 0.39419
 C3114 C 0.80798 0.21519 0.40680
 C3115 C 0.79434 0.21085 0.41261
 C3116 C 0.78648 0.19957 0.40548
 C3117 C 0.79215 0.19299 0.39280
 C3118 C 0.80580 0.19742 0.38698
 C3119 C 0.78913 0.21820 0.42622
 C3120 C 0.77562 0.21662 0.43207
 C3121 C 0.77081 0.22415 0.44571
 C3122 C 0.75565 0.22566 0.44846
 C3123 C 0.75062 0.23245 0.46126
 C3124 C 0.76067 0.23801 0.47155
 C3125 C 0.77584 0.23635 0.46893
 C3126 C 0.78087 0.22942 0.45622
 H3127 H 0.82425 0.21227 0.39024
 H3128 H 0.81437 0.22374 0.41208
 H3129 H 0.77607 0.19560 0.40962
 H3130 H 0.78576 0.18444 0.38758
 H3131 H 0.79680 0.22568 0.43136
 H3132 H 0.76746 0.21003 0.42651
 H3133 H 0.74765 0.22155 0.44068
 H3134 H 0.73886 0.23329 0.46317
 H3135 H 0.78381 0.24040 0.47676
 H3136 H 0.79263 0.22801 0.45489
 C3137 C 0.68547 0.29061 0.39387
 C3138 C 0.69085 0.28428 0.40674
 C3139 C 0.70406 0.28918 0.41303
 C3140 C 0.71173 0.30076 0.40621
 C3141 C 0.70637 0.30707 0.39330
 C3142 C 0.69316 0.30209 0.38697
 C3143 C 0.70909 0.28220 0.42685
 C3144 C 0.72291 0.28317 0.43204
 C3145 C 0.72797 0.27608 0.44581
 C3146 C 0.74321 0.27480 0.44825
 C3147 C 0.74857 0.26839 0.46108
 C3148 C 0.73880 0.26297 0.47171
 C3149 C 0.72357 0.26444 0.46945
 C3150 C 0.71818 0.27098 0.45668
 H3151 H 0.67520 0.28653 0.38949
 H3152 H 0.68461 0.27550 0.41180
 H3153 H 0.72172 0.30522 0.41085
 H3154 H 0.71262 0.31588 0.38836
 H3155 H 0.70111 0.27550 0.43255
 H3156 H 0.73118 0.28890 0.42572
 H3157 H 0.75101 0.27879 0.44020
 H3158 H 0.76037 0.26772 0.46274
 H3159 H 0.71583 0.26050 0.47758
 H3160 H 0.70638 0.27217 0.45558
 C3161 C 0.71168 0.80848 0.89145
 C3162 C 0.71858 0.80230 0.90360
 C3163 C 0.71184 0.79096 0.91154
 C3164 C 0.69800 0.78575 0.90682
 C3165 C 0.69104 0.79200 0.89464
 C3166 C 0.69777 0.80351 0.88685
 C3167 C 0.71980 0.78509 0.92450
 C3168 C 0.71412 0.77557 0.93420
 C3169 C 0.72212 0.77040 0.94743
 C3170 C 0.71398 0.76366 0.95866
 C3171 C 0.72093 0.75873 0.97138
 C3172 C 0.73620 0.76037 0.97313
 C3173 C 0.74440 0.76710 0.96197
 C3174 C 0.73751 0.77188 0.94917
 H3175 H 0.71739 0.81715 0.88569
 H3176 H 0.72928 0.80647 0.90684
 H3177 H 0.69243 0.77685 0.91233
 H3178 H 0.68036 0.78784 0.89143
 H3179 H 0.73072 0.78945 0.92632
 H3180 H 0.70291 0.77180 0.93295
 H3181 H 0.70216 0.76228 0.95763
 H3182 H 0.71438 0.75356 0.97986
 H3183 H 0.75618 0.76863 0.96316
 H3184 H 0.74438 0.77657 0.94072
 C3185 C 0.18673 0.29228 0.89648
 C3186 C 0.19242 0.28584 0.90912
 C3187 C 0.20623 0.29000 0.91461
 C3188 C 0.21419 0.30103 0.90719
 C3189 C 0.20848 0.30748 0.89447
 C3190 C 0.19471 0.30313 0.88891
 C3191 C 0.21151 0.28266 0.92817
 C3192 C 0.22509 0.28406 0.93386
 C3193 C 0.22989 0.27639 0.94742
 C3194 C 0.24505 0.27462 0.95003
 C3195 C 0.25003 0.26761 0.96272
 C3196 C 0.23994 0.26214 0.97304
 C3197 C 0.22480 0.26406 0.97055
 C3198 C 0.21981 0.27118 0.95796
 H3199 H 0.17599 0.28875 0.89278
 H3200 H 0.18594 0.27752 0.91463
 H3201 H 0.22474 0.30485 0.91111
 H3202 H 0.21494 0.31580 0.88897
 H3203 H 0.20379 0.27529 0.93340
 H3204 H 0.23329 0.29054 0.92822
 H3205 H 0.25307 0.27868 0.94223
 H3206 H 0.26178 0.26656 0.96454
 H3207 H 0.21680 0.26007 0.97842
 H3208 H 0.20806 0.27278 0.95676
 C3209 C 0.18793 0.79187 0.39670
 C3210 C 0.19374 0.78559 0.40937
 C3211 C 0.20740 0.79013 0.41494
 C3212 C 0.21513 0.80129 0.40748
 C3213 C 0.20931 0.80757 0.39472
 C3214 C 0.19563 0.80293 0.38916
 C3215 C 0.21280 0.78299 0.42857
 C3216 C 0.22608 0.78526 0.43467
 C3217 C 0.23101 0.77780 0.44830
 C3218 C 0.24619 0.77680 0.45119
 C3219 C 0.25130 0.76996 0.46392
 C3220 C 0.24132 0.76390 0.47400
 C3221 C 0.22614 0.76513 0.47129
 C3222 C 0.22101 0.77206 0.45864
 H3223 H 0.17730 0.78806 0.39296
 H3224 H 0.18745 0.77711 0.41488
 H3225 H 0.22560 0.80535 0.41135
 H3226 H 0.21560 0.81602 0.38923
 H3227 H 0.20544 0.77509 0.43356
 H3228 H 0.23397 0.79236 0.42937
 H3229 H 0.25413 0.78130 0.44354
 H3230 H 0.26305 0.76947 0.46593
 H3231 H 0.21823 0.76070 0.47900
 H3232 H 0.20923 0.77309 0.45721
 C3233 C 0.69070 0.71327 0.60841
 C3234 C 0.69701 0.72043 0.59645
 C3235 C 0.70866 0.71399 0.58865
 C3236 C 0.71410 0.70027 0.59330
 C3237 C 0.70775 0.69308 0.60527
 C3238 C 0.69594 0.69946 0.61296
 C3239 C 0.71486 0.72209 0.57596
 C3240 C 0.72276 0.71570 0.56529
 C3241 C 0.72842 0.72349 0.55215
 C3242 C 0.73375 0.71498 0.54047
 C3243 C 0.73920 0.72164 0.52783
 C3244 C 0.73950 0.73698 0.52658
 C3245 C 0.73414 0.74559 0.53817
 C3246 C 0.72879 0.73894 0.55092
 H3247 H 0.68176 0.71869 0.61410
 H3248 H 0.69269 0.73104 0.59322
 H3249 H 0.72337 0.69508 0.58794
 H3250 H 0.71214 0.68250 0.60843
 H3251 H 0.71200 0.73358 0.57513
 H3252 H 0.72464 0.70398 0.56568
 H3253 H 0.73369 0.70310 0.54110
 H3254 H 0.74334 0.71479 0.51903
 H3255 H 0.73418 0.75745 0.53739
 H3256 H 0.72517 0.74601 0.55970
 C3257 C 0.69195 0.21222 0.10804
 C3258 C 0.69823 0.21914 0.09592
 C3259 C 0.71005 0.21270 0.08836
 C3260 C 0.71565 0.19917 0.09343
 C3261 C 0.70930 0.19220 0.10555
 C3262 C 0.69732 0.19860 0.11298
 C3263 C 0.71609 0.22063 0.07544
 C3264 C 0.72564 0.21483 0.06580
 C3265 C 0.73114 0.22261 0.05255
 C3266 C 0.73847 0.21432 0.04181
 C3267 C 0.74374 0.22095 0.02907
 C3268 C 0.74186 0.23607 0.02678
 C3269 C 0.73461 0.24445 0.03748
 C3270 C 0.72943 0.23785 0.05032
 H3271 H 0.68290 0.21767 0.11349
 H3272 H 0.69375 0.22959 0.09241
 H3273 H 0.72496 0.19389 0.08826
 H3274 H 0.71380 0.18177 0.10903
 H3275 H 0.71185 0.23156 0.07360
 H3276 H 0.72922 0.20359 0.06712
 H3277 H 0.74005 0.20261 0.04322
 H3278 H 0.74935 0.21427 0.02097
 H3279 H 0.73292 0.25612 0.03589
 H3280 H 0.72422 0.24483 0.05837
 C3281 C 0.21289 0.69015 0.10832
 C3282 C 0.22004 0.69636 0.09626
 C3283 C 0.21386 0.70836 0.08883
 C3284 C 0.20045 0.71423 0.09397
 C3285 C 0.19327 0.70799 0.10600
 C3286 C 0.19937 0.69585 0.11333
 C3287 C 0.22190 0.71455 0.07606
 C3288 C 0.21547 0.72289 0.06577
 C3289 C 0.22311 0.72891 0.05267
 C3290 C 0.21443 0.73542 0.04172
 C3291 C 0.22089 0.74122 0.02912
 C3292 C 0.23622 0.74068 0.02716
 C3293 C 0.24500 0.73425 0.03807
 C3294 C 0.23855 0.72853 0.05077
 H3295 H 0.21806 0.68092 0.11370
 H3296 H 0.23042 0.69170 0.09267
 H3297 H 0.19549 0.72378 0.08895
 H3298 H 0.18294 0.71278 0.10950
 H3299 H 0.23334 0.71144 0.07492
 H3300 H 0.20377 0.72503 0.06651
 H3301 H 0.20256 0.73599 0.04288
 H3302 H 0.21390 0.74619 0.02089
 H3303 H 0.25685 0.73361 0.03673
 H3304 H 0.24578 0.72394 0.05896
 C3305 C 0.18948 0.21210 0.60806
 C3306 C 0.19552 0.21919 0.59588
 C3307 C 0.20717 0.21282 0.58801
 C3308 C 0.21289 0.19927 0.59281
 C3309 C 0.20684 0.19217 0.60498
 C3310 C 0.19502 0.19847 0.61276
 C3311 C 0.21325 0.22084 0.57519
 C3312 C 0.22081 0.21426 0.56437
 C3313 C 0.22690 0.22190 0.55130
 C3314 C 0.23296 0.21325 0.54007
 C3315 C 0.23899 0.21972 0.52758
 C3316 C 0.23915 0.23504 0.52602
 C3317 C 0.23305 0.24379 0.53714
 C3318 C 0.22708 0.23732 0.54972
 H3319 H 0.18052 0.21744 0.61379
 H3320 H 0.19100 0.22969 0.59255
 H3321 H 0.22220 0.19418 0.58741
 H3322 H 0.21148 0.18173 0.60824
 H3323 H 0.21075 0.23241 0.57453
 H3324 H 0.22230 0.20248 0.56474
 H3325 H 0.23306 0.20138 0.54095
 H3326 H 0.24369 0.21275 0.51916
 H3327 H 0.23293 0.25563 0.53610
 H3328 H 0.22279 0.24453 0.55809
   
