data_POSCAR
  _audit_creation_date              2014-09-24
  _audit_creation_method            'ToBaCCo'
  _symmetry_space_group_name_H-M    'P1'
  _symmetry_Int_Tables_number       1
  _symmetry_cell_setting            triclinic
  loop_
  _symmetry_equiv_pos_as_xyz
 x,y,z
_cell_length_a 62.8439
_cell_length_b 52.2524
_cell_length_c 63.5929
_cell_angle_alpha 89.748600
_cell_angle_beta 90.198900
_cell_angle_gamma 89.940000
loop_
  _atom_site_label
  _atom_site_type_symbol
  _atom_site_fract_x
  _atom_site_fract_y
  _atom_site_fract_z
C1 C 0.41340 -0.03732 0.25279
 C2 C 0.42559 -0.01646 0.24592
 C3 C 0.43740 -0.01821 0.22743
 C4 C 0.43714 -0.04072 0.21555
 C5 C 0.42450 -0.06142 0.22228
 C6 C 0.41220 -0.06006 0.24089
 C7 C 0.42551 0.00755 0.25792
 C8 C 0.43688 0.00902 0.27679
 C9 C 0.43637 0.03129 0.28932
 C10 C 0.42396 0.05223 0.28195
 C11 C 0.41240 0.05087 0.26291
 C12 C 0.41353 0.02848 0.25090
 H13 H 0.40382 -0.03481 0.26673
 H14 H 0.44653 -0.00182 0.22217
 H15 H 0.44665 -0.00725 0.28105
 H16 H 0.40435 0.02683 0.23651
 H17 H 0.42499 -0.07888 0.21323
 H18 H 0.42232 0.06933 0.29131
 C19 C 0.08707 -0.03033 0.74736
 C20 C 0.07492 -0.00965 0.75453
 C21 C 0.06414 -0.01147 0.77368
 C22 C 0.06542 -0.03386 0.78590
 C23 C 0.07808 -0.05435 0.77879
 C24 C 0.08908 -0.05271 0.75954
 C25 C 0.07404 0.01427 0.74225
 C26 C 0.06240 0.01515 0.72351
 C27 C 0.06188 0.03744 0.71084
 C28 C 0.07372 0.05894 0.71783
 C29 C 0.08557 0.05817 0.73673
 C30 C 0.08532 0.03578 0.74896
 H31 H 0.09570 -0.02849 0.73271
 H32 H 0.05505 0.00479 0.77919
 H33 H 0.05317 -0.00160 0.71952
 H34 H 0.09470 0.03463 0.76328
 H35 H 0.07932 -0.07162 0.78820
 H36 H 0.07466 0.07607 0.70829
 C37 C 0.58829 0.47387 0.24868
 C38 C 0.57523 0.49403 0.25532
 C39 C 0.56357 0.49168 0.27393
 C40 C 0.56484 0.46924 0.28611
 C41 C 0.57820 0.44920 0.27942
 C42 C 0.59016 0.45142 0.26079
 C43 C 0.57495 0.51827 0.24346
 C44 C 0.56361 0.52011 0.22454
 C45 C 0.56444 0.54256 0.21234
 C46 C 0.57709 0.56314 0.21932
 C47 C 0.58860 0.56150 0.23836
 C48 C 0.58716 0.53901 0.25045
 H49 H 0.59777 0.47626 0.23461
 H50 H 0.55398 0.50766 0.27918
 H51 H 0.55462 0.50373 0.21906
 H52 H 0.59637 0.53707 0.26482
 H53 H 0.57931 0.43185 0.28874
 H54 H 0.57799 0.58045 0.20994
 C55 C 0.91047 0.46511 0.75153
 C56 C 0.92333 0.48532 0.74460
 C57 C 0.93479 0.48303 0.72590
 C58 C 0.93347 0.46062 0.71387
 C59 C 0.92018 0.44057 0.72077
 C60 C 0.90854 0.44268 0.73958
 C61 C 0.92416 0.50928 0.75661
 C62 C 0.93608 0.51040 0.77516
 C63 C 0.93621 0.53259 0.78777
 C64 C 0.92392 0.55384 0.78081
 C65 C 0.91185 0.55284 0.76207
 C66 C 0.91232 0.53049 0.74997
 H67 H 0.90127 0.46738 0.76579
 H68 H 0.94438 0.49899 0.72054
 H69 H 0.94571 0.49390 0.77913
 H70 H 0.90271 0.52909 0.73584
 H71 H 0.91897 0.42326 0.71153
 H72 H 0.92274 0.57089 0.79031
 C73 C 0.25693 0.36243 1.02678
 C74 C 0.25993 0.37720 1.00846
 C75 C 0.27952 0.38982 1.00533
 C76 C 0.29589 0.38826 1.02057
 C77 C 0.29226 0.37367 1.03885
 C78 C 0.27322 0.35988 1.04213
 C79 C 0.24299 0.37774 0.99195
 C80 C 0.22377 0.39127 0.99507
 C81 C 0.20767 0.39126 0.97950
 C82 C 0.21074 0.37671 0.96124
 C83 C 0.22936 0.36228 0.95814
 C84 C 0.24561 0.36337 0.97345
 H85 H 0.24221 0.35186 1.02820
 H86 H 0.28201 0.40059 0.99096
 H87 H 0.22155 0.40212 1.00937
 H88 H 0.26007 0.35237 0.97138
 H89 H 0.30421 0.37423 1.05109
 H90 H 0.19836 0.37650 0.94935
 C91 C 0.74757 0.13777 1.03143
 C92 C 0.74504 0.12333 1.01291
 C93 C 0.72611 0.10939 1.00977
 C94 C 0.71000 0.10942 1.02512
 C95 C 0.71263 0.12456 1.04312
 C96 C 0.73130 0.13899 1.04687
 C97 C 0.76182 0.12402 0.99635
 C98 C 0.78162 0.11158 0.99929
 C99 C 0.79759 0.11292 0.98367
 C100 C 0.79333 0.12701 0.96524
 C101 C 0.77405 0.14016 0.96224
 C102 C 0.75822 0.13820 0.97779
 H103 H 0.76248 0.14772 1.03356
 H104 H 0.72411 0.09827 0.99557
 H105 H 0.78457 0.10110 1.01374
 H106 H 0.74328 0.14830 0.97580
 H107 H 0.69916 0.12591 1.05355
 H108 H 0.80503 0.12733 0.95278
 C109 C 0.24269 0.63448 0.52673
 C110 C 0.23994 0.62010 0.50824
 C111 C 0.22095 0.60601 0.50539
 C112 C 0.20512 0.60565 0.52114
 C113 C 0.20837 0.62013 0.53943
 C114 C 0.22692 0.63464 0.54239
 C115 C 0.25681 0.62033 0.49181
 C116 C 0.27600 0.60664 0.49475
 C117 C 0.29199 0.60704 0.47920
 C118 C 0.28877 0.62198 0.46105
 C119 C 0.27011 0.63645 0.45807
 C120 C 0.25402 0.63513 0.47345
 H121 H 0.25716 0.64541 0.52896
 H122 H 0.21874 0.59497 0.49118
 H123 H 0.27828 0.59534 0.50891
 H124 H 0.23955 0.64617 0.47149
 H125 H 0.19607 0.62061 0.55132
 H126 H 0.30103 0.62239 0.44913
 C127 C 0.75442 0.86194 0.52694
 C128 C 0.75754 0.87719 0.50897
 C129 C 0.77708 0.89019 0.50635
 C130 C 0.79352 0.88854 0.52172
 C131 C 0.78947 0.87334 0.53974
 C132 C 0.77044 0.85957 0.54231
 C133 C 0.74076 0.87826 0.49236
 C134 C 0.72135 0.89127 0.49580
 C135 C 0.70563 0.89248 0.47986
 C136 C 0.70940 0.87985 0.46078
 C137 C 0.72833 0.86627 0.45726
 C138 C 0.74402 0.86568 0.47310
 H139 H 0.73971 0.85134 0.52858
 H140 H 0.77940 0.90084 0.49193
 H141 H 0.71872 0.90086 0.51063
 H142 H 0.75878 0.85546 0.47046
 H143 H 0.80067 0.87298 0.55265
 H144 H 0.69717 0.87997 0.44872
 C145 C -0.02412 0.23779 0.30970
 C146 C -0.00483 0.23223 0.31940
 C147 C -0.00133 0.20829 0.32845
 C148 C -0.01750 0.18968 0.32878
 C149 C -0.03679 0.19531 0.31829
 C150 C -0.04052 0.21952 0.30896
 C151 C 0.01075 0.25260 0.32270
 C152 C 0.00580 0.27307 0.33585
 C153 C 0.02133 0.29128 0.34096
 C154 C 0.04160 0.28933 0.33185
 C155 C 0.04679 0.26841 0.31903
 C156 C 0.03119 0.25003 0.31467
 H157 H -0.02656 0.25722 0.30421
 H158 H 0.01332 0.20566 0.33720
 H159 H -0.00974 0.27373 0.34316
 H160 H 0.03498 0.23309 0.30567
 H161 H -0.04872 0.18052 0.31696
 H162 H 0.05347 0.30374 0.33522
 C163 C -0.02823 0.75133 0.18180
 C164 C -0.00791 0.75546 0.17377
 C165 C -0.00352 0.77774 0.16247
 C166 C -0.01936 0.79615 0.15914
 C167 C -0.03954 0.79240 0.16806
 C168 C -0.04454 0.76960 0.17903
 C169 C 0.00820 0.73519 0.17509
 C170 C 0.00397 0.71121 0.16642
 C171 C 0.02010 0.69254 0.16481
 C172 C 0.04013 0.69806 0.17383
 C173 C 0.04454 0.72230 0.18229
 C174 C 0.02843 0.74077 0.18272
 H175 H -0.03127 0.73293 0.18902
 H176 H 0.01189 0.77974 0.15504
 H177 H -0.01138 0.70859 0.15898
 H178 H 0.03170 0.75996 0.18824
 H179 H -0.05117 0.80753 0.16635
 H180 H 0.05246 0.68362 0.17424
 C181 C 0.46801 0.25178 0.68430
 C182 C 0.48848 0.25476 0.67639
 C183 C 0.49352 0.27607 0.66407
 C184 C 0.47802 0.29468 0.65962
 C185 C 0.45776 0.29227 0.66870
 C186 C 0.45246 0.27054 0.68068
 C187 C 0.50396 0.23410 0.67905
 C188 C 0.50016 0.21050 0.66962
 C189 C 0.51568 0.19122 0.67013
 C190 C 0.53471 0.19553 0.68120
 C191 C 0.53873 0.21943 0.69050
 C192 C 0.52318 0.23864 0.68931
 H193 H 0.46415 0.23428 0.69264
 H194 H 0.50906 0.27706 0.65680
 H195 H 0.48571 0.20806 0.66049
 H196 H 0.52627 0.25755 0.69554
 H197 H 0.44595 0.30702 0.66596
 H198 H 0.54670 0.18065 0.68188
 C199 C 0.47187 0.75609 0.81756
 C200 C 0.49209 0.74956 0.82479
 C201 C 0.49547 0.72608 0.83486
 C202 C 0.47855 0.70882 0.83809
 C203 C 0.45853 0.71511 0.82936
 C204 C 0.45496 0.73891 0.81961
 C205 C 0.50922 0.76853 0.82405
 C206 C 0.50641 0.79217 0.83376
 C207 C 0.52330 0.80959 0.83525
 C208 C 0.54283 0.80346 0.82585
 C209 C 0.54595 0.77939 0.81652
 C210 C 0.52896 0.76205 0.81573
 H211 H 0.46931 0.77496 0.81090
 H212 H 0.51094 0.72284 0.84188
 H213 H 0.49148 0.79595 0.84163
 H214 H 0.53118 0.74300 0.80944
 H215 H 0.44559 0.70153 0.83002
 H216 H 0.55581 0.81703 0.82653
 C217 C -0.27946 0.62941 1.00313
 C218 C -0.25932 0.63853 1.00916
 C219 C -0.25652 0.64924 1.02905
 C220 C -0.27363 0.65137 1.04295
 C221 C -0.29369 0.64172 1.03695
 C222 C -0.29712 0.63054 1.01690
 C223 C -0.24144 0.63878 0.99405
 C224 C -0.24415 0.65073 0.97448
 C225 C -0.22721 0.65287 0.96008
 C226 C -0.20730 0.64222 0.96600
 C227 C -0.20437 0.62965 0.98551
 C228 C -0.22159 0.62835 0.99952
 H229 H -0.28119 0.62242 0.98725
 H230 H -0.24100 0.65648 1.03351
 H231 H -0.25933 0.65974 0.97127
 H232 H -0.21979 0.61867 1.01452
 H233 H -0.30638 0.64279 1.04831
 H234 H -0.19405 0.64288 0.95524
 C235 C -0.28032 0.36609 0.49933
 C236 C -0.26006 0.35666 0.49408
 C237 C -0.25656 0.34668 0.47403
 C238 C -0.27303 0.34548 0.45919
 C239 C -0.29324 0.35508 0.46460
 C240 C -0.29729 0.36601 0.48461
 C241 C -0.24246 0.35657 0.50968
 C242 C -0.24579 0.34618 0.52973
 C243 C -0.22905 0.34423 0.54434
 C244 C -0.20877 0.35347 0.53866
 C245 C -0.20519 0.36467 0.51874
 C246 C -0.22220 0.36588 0.50432
 H247 H -0.28218 0.37470 0.51463
 H248 H -0.24085 0.33972 0.47006
 H249 H -0.26153 0.33945 0.53387
 H250 H -0.21992 0.37469 0.48904
 H251 H -0.30596 0.35291 0.45330
 H252 H -0.19567 0.35156 0.54966
 C253 C 0.22473 -0.13000 -0.00343
 C254 C 0.24450 -0.14033 -0.00910
 C255 C 0.24711 -0.15117 -0.02904
 C256 C 0.23006 -0.15250 -0.04351
 C257 C 0.21030 -0.14175 -0.03741
 C258 C 0.20751 -0.13019 -0.01758
 C259 C 0.26218 -0.14155 0.00632
 C260 C 0.25906 -0.15418 0.02553
 C261 C 0.27586 -0.15751 0.04006
 C262 C 0.29601 -0.14718 0.03475
 C263 C 0.29932 -0.13373 0.01572
 C264 C 0.28225 -0.13141 0.00147
 H265 H 0.22299 -0.12133 0.01191
 H266 H 0.26224 -0.16011 -0.03242
 H267 H 0.24367 -0.16281 0.02829
 H268 H 0.28431 -0.12117 -0.01322
 H269 H 0.19702 -0.14163 -0.04823
 H270 H 0.30914 -0.14877 0.04568
 C271 C 0.21938 1.12939 0.50172
 C272 C 0.23911 1.13987 0.50759
 C273 C 0.24139 1.15144 0.52728
 C274 C 0.22412 1.15310 0.54112
 C275 C 0.20446 1.14236 0.53513
 C276 C 0.20191 1.13018 0.51551
 C277 C 0.25726 1.13974 0.49286
 C278 C 0.25509 1.15147 0.47313
 C279 C 0.27245 1.15343 0.45919
 C280 C 0.29209 1.14249 0.46564
 C281 C 0.29441 1.13004 0.48525
 C282 C 0.27689 1.12918 0.49889
 H283 H 0.21791 1.12005 0.48661
 H284 H 0.25668 1.15937 0.53173
 H285 H 0.24001 1.16048 0.46949
 H286 H 0.27826 1.11971 0.51402
 H287 H 0.19099 1.14398 0.54561
 H288 H 0.30563 1.14283 0.45521
 C289 C 0.07396 0.50331 0.22586
 C290 C 0.08844 0.50581 0.24249
 C291 C 0.10255 0.52656 0.24283
 C292 C 0.10240 0.54487 0.22651
 C293 C 0.08807 0.54179 0.20967
 C294 C 0.07376 0.52106 0.20916
 C295 C 0.08895 0.48639 0.25939
 C296 C 0.10355 0.46614 0.25857
 C297 C 0.10408 0.44739 0.27451
 C298 C 0.08993 0.44950 0.29152
 C299 C 0.07511 0.46973 0.29254
 C300 C 0.07465 0.48796 0.27618
 H301 H 0.06293 0.48739 0.22595
 H302 H 0.11379 0.52826 0.25571
 H303 H 0.11456 0.46510 0.24552
 H304 H 0.06318 0.50344 0.27637
 H305 H 0.08821 0.55551 0.19686
 H306 H 0.09058 0.43538 0.30401
 C307 C -0.07297 0.99557 0.22241
 C308 C -0.08813 0.99439 0.23840
 C309 C -0.10320 0.97469 0.23858
 C310 C -0.10343 0.95574 0.22279
 C311 C -0.08808 0.95756 0.20664
 C312 C -0.07274 0.97739 0.20605
 C313 C -0.08791 1.01354 0.25541
 C314 C -0.10210 1.03425 0.25490
 C315 C -0.10230 1.05275 0.27112
 C316 C -0.08786 1.04935 0.28805
 C317 C -0.07366 1.02847 0.28880
 C318 C -0.07362 1.01091 0.27216
 H319 H -0.06108 1.01048 0.22330
 H320 H -0.11400 0.97379 0.25177
 H321 H -0.11226 1.03615 0.24123
 H322 H -0.06262 0.99493 0.27225
 H323 H -0.08935 0.94478 0.19341
 H324 H -0.08850 1.06191 0.30149
 C325 C 0.42476 0.49368 -0.27709
 C326 C 0.40993 0.49239 -0.26071
 C327 C 0.39499 0.47255 -0.26023
 C328 C 0.39470 0.45381 -0.27601
 C329 C 0.40955 0.45543 -0.29245
 C330 C 0.42476 0.47539 -0.29344
 C331 C 0.41015 0.51173 -0.24382
 C332 C 0.39543 0.53194 -0.24408
 C333 C 0.39511 0.55046 -0.22787
 C334 C 0.40987 0.54750 -0.21118
 C335 C 0.42470 0.52728 -0.21075
 C336 C 0.42486 0.50967 -0.22736
 H337 H 0.43655 0.50874 -0.27655
 H338 H 0.38384 0.47154 -0.24730
 H339 H 0.38494 0.53346 -0.25754
 H340 H 0.43627 0.49411 -0.22742
 H341 H 0.40814 0.44187 -0.30516
 H342 H 0.40907 0.55990 -0.19765
 C343 C 0.57395 0.00333 -0.27351
 C344 C 0.58754 0.00648 -0.25623
 C345 C 0.60035 0.02829 -0.25482
 C346 C 0.59980 0.04704 -0.27069
 C347 C 0.58610 0.04372 -0.28799
 C348 C 0.57290 0.02187 -0.28978
 C349 C 0.58781 -0.01277 -0.23920
 C350 C 0.60102 -0.03434 -0.24048
 C351 C 0.60153 -0.05252 -0.22408
 C352 C 0.58850 -0.04878 -0.20641
 C353 C 0.57502 -0.02731 -0.20502
 C354 C 0.57480 -0.00943 -0.22161
 H355 H 0.56363 -0.01322 -0.27353
 H356 H 0.61095 0.03045 -0.24146
 H357 H 0.61117 -0.03666 -0.25409
 H358 H 0.56440 0.00710 -0.22101
 H359 H 0.58642 0.05804 -0.30030
 H360 H 0.58899 -0.06256 -0.19365
 C361 C -0.00007 0.21855 0.85390
 C362 C -0.00910 0.23990 0.84379
 C363 C -0.02921 0.23805 0.83454
 C364 C -0.04051 0.21508 0.83561
 C365 C -0.03170 0.19403 0.84608
 C366 C -0.01147 0.19555 0.85533
 C367 C 0.00218 0.26443 0.84361
 C368 C 0.02313 0.26542 0.83643
 C369 C 0.03464 0.28824 0.83750
 C370 C 0.02504 0.31007 0.84579
 C371 C 0.00397 0.30946 0.85295
 C372 C -0.00754 0.28654 0.85159
 H373 H 0.01550 0.22016 0.86114
 H374 H -0.03621 0.25464 0.82689
 H375 H 0.03043 0.24835 0.83004
 H376 H -0.02369 0.28557 0.85745
 H377 H -0.04101 0.17669 0.84751
 H378 H 0.03454 0.32717 0.84784
 C379 C 0.50104 0.21788 0.14513
 C380 C 0.50842 0.24108 0.15345
 C381 C 0.52855 0.24225 0.16276
 C382 C 0.54153 0.22058 0.16326
 C383 C 0.53439 0.19770 0.15450
 C384 C 0.51413 0.19609 0.14532
 C385 C 0.49551 0.26439 0.15147
 C386 C 0.47410 0.26385 0.15726
 C387 C 0.46134 0.28555 0.15459
 C388 C 0.47015 0.30781 0.14607
 C389 C 0.49168 0.30879 0.14048
 C390 C 0.50436 0.28695 0.14323
 H391 H 0.48544 0.21712 0.13787
 H392 H 0.53430 0.26016 0.16915
 H393 H 0.46749 0.24658 0.16411
 H394 H 0.52093 0.28729 0.13856
 H395 H 0.54508 0.18143 0.15421
 H396 H 0.45993 0.32414 0.14305
 C397 C -0.00190 0.71456 0.64113
 C398 C 0.00668 0.73697 0.64982
 C399 C 0.02770 0.73718 0.65699
 C400 C 0.04033 0.71526 0.65534
 C401 C 0.03185 0.69318 0.64633
 C402 C 0.01072 0.69256 0.63924
 C403 C -0.00617 0.76037 0.65103
 C404 C -0.02639 0.75941 0.66001
 C405 C -0.03939 0.78130 0.66059
 C406 C -0.03156 0.80413 0.65177
 C407 C -0.01124 0.80538 0.64278
 C408 C 0.00156 0.78343 0.64279
 H409 H -0.01818 0.71448 0.63546
 H410 H 0.03410 0.75435 0.66410
 H411 H -0.03145 0.74160 0.66717
 H412 H 0.01724 0.78397 0.63577
 H413 H 0.04211 0.67675 0.64403
 H414 H -0.04198 0.82051 0.65017
 C415 C 0.50439 0.71707 0.35520
 C416 C 0.49577 0.73921 0.34593
 C417 C 0.47544 0.73857 0.33703
 C418 C 0.46344 0.71610 0.33768
 C419 C 0.47192 0.69424 0.34727
 C420 C 0.49237 0.69449 0.35612
 C421 C 0.50750 0.76344 0.34656
 C422 C 0.52852 0.76435 0.33957
 C423 C 0.54016 0.78706 0.34102
 C424 C 0.53071 0.80875 0.34973
 C425 C 0.50959 0.80818 0.35671
 C426 C 0.49792 0.78546 0.35483
 H427 H 0.52007 0.71773 0.36232
 H428 H 0.46898 0.75566 0.32967
 H429 H 0.53570 0.74739 0.33286
 H430 H 0.48166 0.78461 0.36040
 H431 H 0.46198 0.67743 0.34894
 H432 H 0.54028 0.82573 0.35207
 Zr433 Zr 0.02341 -0.02604 1.02828
 O434 O 0.04685 -0.00741 1.04663
 O435 O 0.02045 -0.06112 1.04389
 O436 O 0.01232 -0.02024 1.05933
 O437 O 0.05807 -0.04309 0.98867
 O438 O -0.01940 0.00032 1.05454
 O439 O 0.05396 -0.04301 1.02432
 O440 O -0.00719 -0.08032 1.02684
 O441 O -0.00945 -0.03264 1.02700
 O442 O 0.01813 -0.05083 1.00308
 O443 O 0.00908 0.01020 1.02477
 O444 O 0.03574 -0.00696 1.00170
 Zr445 Zr -0.01824 -0.00193 0.96998
 Zr446 Zr -0.02357 0.00307 1.02187
 Zr447 Zr 0.02863 -0.03127 0.97649
 Zr448 Zr -0.01461 -0.05618 1.00116
 O449 O 0.05403 -0.01364 0.96011
 O450 O -0.04327 -0.06510 1.01710
 O451 O -0.00404 -0.03849 0.97338
 O452 O -0.03024 -0.02115 0.99657
 O453 O -0.01313 0.02304 0.99521
 O454 O 0.01462 0.00432 0.97157
 C455 C 0.00668 -0.07910 1.04177
 C456 C 0.06493 -0.04694 1.00748
 C457 C -0.00482 -0.00959 1.06625
 O458 O -0.05075 -0.01441 1.03522
 O459 O -0.05135 0.01993 1.00971
 O460 O -0.04773 0.01774 0.97409
 C461 C -0.05815 0.02392 0.99087
 O462 O 0.04482 0.03892 1.01791
 Zr463 Zr 0.01977 0.02803 0.99727
 O464 O -0.01433 0.03296 0.95406
 O465 O -0.02647 0.04003 1.03500
 O466 O 0.00953 0.06154 1.01299
 O467 O 0.04712 0.03844 0.97976
 O468 O 0.01013 0.05438 0.97398
 C469 C -0.00250 0.05240 0.95814
 O470 O -0.04316 -0.01904 0.95254
 O471 O 0.03362 -0.06927 0.96618
 O472 O -0.00854 -0.01136 0.93899
 O473 O 0.02225 -0.03376 0.94422
 O474 O -0.00412 -0.09119 0.98801
 O475 O -0.03702 -0.06865 0.97830
 C476 C 0.00754 -0.02444 0.93235
 H477 H 0.02569 -0.06734 1.00481
 H478 H -0.04570 -0.02428 0.99507
 H479 H 0.02053 0.01200 0.95859
 H480 H 0.01220 0.02125 1.03701
 H481 H -0.04440 -0.08400 1.01785
 H482 H -0.05770 -0.00143 1.04422
 H483 H -0.03952 0.03990 1.04371
 H484 H 0.01716 0.07625 1.00665
 H485 H -0.01216 -0.10511 0.99501
 H486 H 0.04657 -0.06906 0.95735
 H487 H 0.06093 -0.02709 0.95156
 H488 H 0.04799 0.05738 0.97965
 H489 H -0.04255 -0.08571 0.98234
 H490 H -0.04728 -0.00674 0.94131
 H491 H 0.05137 -0.01967 1.05774
 H492 H 0.04831 0.05719 1.01560
 Zr493 Zr 0.51901 0.47114 0.52740
 O494 O 0.54233 0.48962 0.54600
 O495 O 0.51615 0.43598 0.54282
 O496 O 0.50773 0.47683 0.55843
 O497 O 0.55357 0.45387 0.48777
 O498 O 0.47602 0.49740 0.55359
 O499 O 0.54964 0.45424 0.52343
 O500 O 0.48852 0.41679 0.52575
 O501 O 0.48614 0.46457 0.52602
 O502 O 0.51376 0.44647 0.50211
 O503 O 0.50467 0.50739 0.52397
 O504 O 0.53141 0.49029 0.50089
 Zr505 Zr 0.47752 0.49551 0.46903
 Zr506 Zr 0.47202 0.50030 0.52091
 Zr507 Zr 0.52430 0.46610 0.47558
 Zr508 Zr 0.48104 0.44110 0.50013
 O509 O 0.54991 0.48370 0.45950
 O510 O 0.45235 0.43235 0.51607
 O511 O 0.49164 0.45889 0.47236
 O512 O 0.46544 0.47616 0.49553
 O513 O 0.48256 0.52037 0.49435
 O514 O 0.51038 0.50175 0.47078
 C515 C 0.50245 0.41796 0.54065
 C516 C 0.56053 0.45007 0.50654
 C517 C 0.49057 0.48746 0.56533
 O518 O 0.44469 0.48300 0.53414
 O519 O 0.44434 0.51742 0.50868
 O520 O 0.44799 0.51504 0.47310
 C521 C 0.43756 0.52135 0.48984
 O522 O 0.54047 0.53617 0.51728
 Zr523 Zr 0.51546 0.52532 0.49658
 O524 O 0.48153 0.53049 0.45325
 O525 O 0.46928 0.53725 0.53411
 O526 O 0.50512 0.55864 0.51250
 O527 O 0.54285 0.53594 0.47920
 O528 O 0.50587 0.55178 0.47339
 C529 C 0.49337 0.54987 0.45745
 O530 O 0.45266 0.47872 0.45130
 O531 O 0.52902 0.42814 0.46507
 O532 O 0.48737 0.48639 0.43801
 O533 O 0.51819 0.46406 0.44322
 O534 O 0.49152 0.40611 0.48690
 O535 O 0.45872 0.42850 0.47723
 C536 C 0.50356 0.47352 0.43133
 H537 H 0.52132 0.42995 0.50380
 H538 H 0.44998 0.47305 0.49398
 H539 H 0.51636 0.50950 0.45787
 H540 H 0.50777 0.51836 0.53626
 H541 H 0.45119 0.41346 0.51689
 H542 H 0.43776 0.49605 0.54307
 H543 H 0.45621 0.53721 0.54279
 H544 H 0.51259 0.57346 0.50616
 H545 H 0.48353 0.39215 0.49391
 H546 H 0.54200 0.42828 0.45627
 H547 H 0.55674 0.47032 0.45082
 H548 H 0.54362 0.55489 0.47908
 H549 H 0.45301 0.41158 0.48142
 H550 H 0.44868 0.49117 0.44013
 H551 H 0.54679 0.47725 0.55705
 H552 H 0.54388 0.55448 0.51506
 Zr553 Zr 0.47771 1.02302 0.53165
 O554 O 0.45436 1.00311 0.54915
 O555 O 0.48059 1.05691 0.54857
 O556 O 0.48892 1.01555 0.56252
 O557 O 0.44321 1.04308 0.49248
 O558 O 0.52073 0.99549 0.55728
 O559 O 0.44715 1.04021 0.52812
 O560 O 0.50899 1.07657 0.53326
 O561 O 0.51058 1.02955 0.53084
 O562 O 0.48306 1.04952 0.50752
 O563 O 0.49202 0.98703 0.52703
 O564 O 0.46536 1.00586 0.50430
 Zr565 Zr 0.51936 1.00271 0.47296
 Zr566 Zr 0.52471 0.99422 0.52456
 Zr567 Zr 0.47259 1.03182 0.48009
 Zr568 Zr 0.51582 1.05488 0.50610
 O569 O 0.44693 1.01567 0.46303
 O570 O 0.54481 1.06270 0.52197
 O571 O 0.50529 1.03912 0.47753
 O572 O 0.53140 1.02013 0.50029
 O573 O 0.51419 0.97609 0.49715
 O574 O 0.48649 0.99649 0.47410
 C575 C 0.49491 1.07440 0.54786
 C576 C 0.43626 1.04547 0.51134
 C577 C 0.50621 1.00486 0.56922
 O578 O 0.55216 1.01050 0.53848
 O579 O 0.55235 0.97779 0.51193
 O580 O 0.54886 0.98287 0.47647
 C581 C 0.55922 0.97529 0.49301
 O582 O 0.45608 0.95909 0.51878
 Zr583 Zr 0.48126 0.97114 0.49883
 O584 O 0.51540 0.96887 0.45577
 O585 O 0.52727 0.95652 0.53655
 O586 O 0.49143 0.93665 0.51343
 O587 O 0.45395 0.96183 0.48072
 O588 O 0.49086 0.94636 0.47472
 C589 C 0.50350 0.94927 0.45907
 O590 O 0.54432 1.02064 0.45619
 O591 O 0.46820 1.07053 0.47113
 O592 O 0.50961 1.01391 0.44231
 O593 O 0.47869 1.03575 0.44784
 O594 O 0.50515 1.09099 0.49492
 O595 O 0.53777 1.06906 0.48354
 C596 C 0.49336 1.02693 0.43582
 H597 H 0.47553 1.06590 0.50990
 H598 H 0.54687 1.02329 0.49899
 H599 H 0.48054 0.98962 0.46085
 H600 H 0.48888 0.97526 0.53886
 H601 H 0.54591 1.08151 0.52353
 H602 H 0.55897 0.99692 0.54713
 H603 H 0.54033 0.95598 0.54532
 H604 H 0.48388 0.92236 0.50644
 H605 H 0.51329 1.10424 0.50262
 H606 H 0.45513 1.07118 0.46238
 H607 H 0.44018 1.02974 0.45488
 H608 H 0.45301 0.94292 0.48006
 H609 H 0.54326 1.08590 0.48814
 H610 H 0.54830 1.00900 0.44455
 H611 H 0.44982 1.01462 0.56066
 H612 H 0.45276 0.94090 0.51599
 Zr613 Zr -0.02011 0.52290 1.02904
 O614 O -0.04358 0.50324 1.04658
 O615 O -0.01697 0.55676 1.04599
 O616 O -0.00893 0.51530 1.05991
 O617 O -0.05459 0.54309 0.98987
 O618 O 0.02284 0.49519 1.05462
 O619 O -0.05061 0.54029 1.02550
 O620 O 0.01155 0.57608 1.03062
 O621 O 0.01278 0.52923 1.02816
 O622 O -0.01468 0.54934 1.00487
 O623 O -0.00594 0.48682 1.02441
 O624 O -0.03255 0.50576 1.00171
 Zr625 Zr 0.02143 0.50224 0.97027
 Zr626 Zr 0.02677 0.49384 1.02190
 Zr627 Zr -0.02525 0.53165 0.97748
 Zr628 Zr 0.01810 0.55449 1.00338
 O629 O -0.05102 0.51568 0.96047
 O630 O 0.04720 0.56212 1.01912
 O631 O 0.00749 0.53874 0.97484
 O632 O 0.03354 0.51966 0.99758
 O633 O 0.01618 0.47569 0.99451
 O634 O -0.01148 0.49625 0.97148
 C635 C -0.00250 0.57406 1.04527
 C636 C -0.06151 0.54556 1.00874
 C637 C 0.00836 0.50459 1.06659
 O638 O 0.05424 0.50996 1.03590
 O639 O 0.05443 0.47747 1.00930
 O640 O 0.05095 0.48236 0.97383
 C641 C 0.06133 0.47492 0.99042
 O642 O -0.04192 0.45903 1.01627
 Zr643 Zr -0.01677 0.47096 0.99624
 O644 O 0.01726 0.46846 0.95306
 O645 O 0.02921 0.45610 1.03383
 O646 O -0.00667 0.43640 1.01077
 O647 O -0.04421 0.46181 0.97826
 O648 O -0.00740 0.44617 0.97203
 C649 C 0.00517 0.44902 0.95631
 O650 O 0.04640 0.51999 0.95339
 O651 O -0.02944 0.57037 0.96847
 O652 O 0.01167 0.51349 0.93962
 O653 O -0.01917 0.53547 0.94522
 O654 O 0.00750 0.59067 0.99231
 O655 O 0.04000 0.56860 0.98075
 C656 C -0.00454 0.52662 0.93317
 H657 H -0.02214 0.56577 1.00726
 H658 H 0.04901 0.52277 0.99626
 H659 H -0.01751 0.48943 0.95825
 H660 H -0.00910 0.47508 1.03626
 H661 H 0.04841 0.58094 1.02065
 H662 H 0.06099 0.49635 1.04455
 H663 H 0.04229 0.45549 1.04257
 H664 H -0.01431 0.42217 1.00379
 H665 H 0.01565 0.60386 1.00007
 H666 H -0.04247 0.57109 0.95966
 H667 H -0.05769 0.52977 0.95229
 H668 H -0.04520 0.44290 0.97753
 H669 H 0.04553 0.58542 0.98533
 H670 H 0.05027 0.50831 0.94174
 H671 H -0.04804 0.51481 1.05808
 H672 H -0.04531 0.44085 1.01350
 Zr673 Zr -0.01982 0.46618 0.47280
 O674 O -0.04294 0.48476 0.45385
 O675 O -0.01679 0.43103 0.45769
 O676 O -0.00820 0.47183 0.44183
 O677 O -0.05494 0.44912 0.51219
 O678 O 0.02355 0.49202 0.44705
 O679 O -0.05048 0.44932 0.47658
 O680 O 0.01064 0.41169 0.47517
 O681 O 0.01302 0.45948 0.47464
 O682 O -0.01489 0.44146 0.49830
 O683 O -0.00549 0.50237 0.47618
 O684 O -0.03255 0.48533 0.49904
 Zr685 Zr 0.02099 0.49037 0.53149
 Zr686 Zr 0.02711 0.49513 0.47970
 Zr687 Zr -0.02574 0.46109 0.52458
 Zr688 Zr 0.01780 0.43595 0.50072
 O689 O -0.05142 0.47877 0.54040
 O690 O 0.04668 0.42706 0.48522
 O691 O 0.00689 0.45379 0.52821
 O692 O 0.03339 0.47096 0.50529
 O693 O 0.01624 0.51523 0.50596
 O694 O -0.01184 0.49669 0.52936
 C695 C -0.00314 0.41294 0.46013
 C696 C -0.06161 0.44531 0.49336
 C697 C 0.00917 0.48223 0.43512
 O698 O 0.05467 0.47781 0.46702
 O699 O 0.05463 0.51219 0.49210
 O700 O 0.05053 0.50997 0.52765
 C701 C 0.06115 0.51627 0.51098
 O702 O -0.04141 0.53113 0.48226
 Zr703 Zr -0.01663 0.52028 0.50333
 O704 O 0.01682 0.52538 0.54695
 O705 O 0.03003 0.53205 0.46621
 O706 O -0.00624 0.55369 0.48736
 O707 O -0.04418 0.53085 0.52043
 O708 O -0.00724 0.54675 0.52635
 C709 C 0.00512 0.54487 0.54242
 O710 O 0.04575 0.47366 0.54958
 O711 O -0.03073 0.42310 0.53515
 O712 O 0.01085 0.48095 0.56240
 O713 O -0.01985 0.45860 0.55694
 O714 O 0.00711 0.40095 0.51397
 O715 O 0.03980 0.42339 0.52405
 C716 C -0.00531 0.46789 0.56892
 H717 H -0.02245 0.42497 0.49664
 H718 H 0.04883 0.46782 0.50705
 H719 H -0.01793 0.50444 0.54218
 H720 H -0.00841 0.51337 0.46378
 H721 H 0.04789 0.40816 0.48472
 H722 H 0.06155 0.49073 0.45783
 H723 H 0.04328 0.53198 0.45782
 H724 H -0.01401 0.56844 0.49336
 H725 H 0.01537 0.38702 0.50731
 H726 H -0.04378 0.42329 0.54386
 H727 H -0.05829 0.46542 0.54916
 H728 H -0.04503 0.54979 0.52037
 H729 H 0.04546 0.40637 0.52017
 H730 H 0.04940 0.48600 0.56085
 H731 H -0.04738 0.47237 0.44292
 H732 H -0.04501 0.54938 0.48441
 Zr733 Zr 0.48405 -0.02659 -0.02385
 O734 O 0.46060 -0.00665 -0.04141
 O735 O 0.48676 -0.06049 -0.04075
 O736 O 0.49508 -0.01916 -0.05476
 O737 O 0.44969 -0.04616 0.01535
 O738 O 0.52707 0.00041 -0.04946
 O739 O 0.45350 -0.04373 -0.02029
 O740 O 0.51523 -0.08030 -0.02544
 O741 O 0.51689 -0.03347 -0.02300
 O742 O 0.48945 -0.05305 0.00035
 O743 O 0.49860 0.00925 -0.01930
 O744 O 0.47195 -0.00919 0.00344
 Zr745 Zr 0.52623 -0.00646 0.03487
 Zr746 Zr 0.53125 0.00168 -0.01678
 Zr747 Zr 0.47923 -0.03511 0.02772
 Zr748 Zr 0.52218 -0.05875 0.00181
 O749 O 0.45397 -0.01844 0.04487
 O750 O 0.55104 -0.06691 -0.01402
 O751 O 0.51192 -0.04273 0.03031
 O752 O 0.53800 -0.02415 0.00759
 O753 O 0.52101 0.02003 0.01055
 O754 O 0.49338 0.00012 0.03371
 C755 C 0.50113 -0.07795 -0.04011
 C756 C 0.44267 -0.04885 -0.00352
 C757 C 0.51243 -0.00873 -0.06144
 O758 O 0.55843 -0.01501 -0.03075
 O759 O 0.55908 0.01781 -0.00425
 O760 O 0.55577 0.01319 0.03125
 C761 C 0.56603 0.02054 0.01466
 O762 O 0.46269 0.03733 -0.01101
 Zr763 Zr 0.48812 0.02534 0.00885
 O764 O 0.52287 0.02768 0.05177
 O765 O 0.53402 0.03935 -0.02877
 O766 O 0.49808 0.05963 -0.00610
 O767 O 0.46124 0.03523 0.02721
 O768 O 0.49850 0.05035 0.03252
 C769 C 0.51138 0.04759 0.04810
 O770 O 0.55107 -0.02487 0.05168
 O771 O 0.47436 -0.07370 0.03673
 O772 O 0.51655 -0.01727 0.06560
 O773 O 0.48582 -0.03950 0.05986
 O774 O 0.51133 -0.09468 0.01308
 O775 O 0.54422 -0.07316 0.02437
 C776 C 0.50050 -0.03065 0.07193
 H777 H 0.48183 -0.06937 -0.00200
 H778 H 0.55346 -0.02747 0.00890
 H779 H 0.48765 0.00718 0.04695
 H780 H 0.49545 0.02102 -0.03116
 H781 H 0.55209 -0.08575 -0.01545
 H782 H 0.56529 -0.00154 -0.03941
 H783 H 0.54700 0.03971 -0.03757
 H784 H 0.49059 0.07403 0.00077
 H785 H 0.51906 -0.10805 0.00517
 H786 H 0.46143 -0.07404 0.04560
 H787 H 0.44711 -0.03240 0.05298
 H788 H 0.46050 0.05416 0.02777
 H789 H 0.54947 -0.09012 0.01982
 H790 H 0.55538 -0.01319 0.06319
 H791 H 0.45602 -0.01818 -0.05292
 H792 H 0.45932 0.05551 -0.00821
 Zr793 Zr 0.51760 0.53174 -0.03008
 O794 O 0.54124 0.51361 -0.04842
 O795 O 0.51315 0.56583 -0.04665
 O796 O 0.50607 0.52411 -0.06076
 O797 O 0.55130 0.55573 0.00842
 O798 O 0.47529 0.50213 -0.05499
 O799 O 0.54769 0.55000 -0.02701
 O800 O 0.48447 0.58382 -0.03056
 O801 O 0.48453 0.53640 -0.02864
 O802 O 0.51157 0.55757 -0.00579
 O803 O 0.50497 0.49491 -0.02530
 O804 O 0.53134 0.51514 -0.00300
 Zr805 Zr 0.47818 0.50820 0.02943
 Zr806 Zr 0.47209 0.50021 -0.02217
 Zr807 Zr 0.52343 0.54034 0.02141
 Zr808 Zr 0.47870 0.56098 -0.00367
 O809 O 0.55054 0.52539 0.03706
 O810 O 0.44929 0.56710 -0.01937
 O811 O 0.49050 0.54550 0.02465
 O812 O 0.46483 0.52527 0.00238
 O813 O 0.48398 0.48233 0.00498
 O814 O 0.51126 0.50405 0.02757
 C815 C 0.49842 0.58278 -0.04535
 C816 C 0.55799 0.55766 -0.01058
 C817 C 0.48912 0.51255 -0.06718
 O818 O 0.44379 0.51503 -0.03567
 O819 O 0.44528 0.48244 -0.00907
 O820 O 0.44935 0.48690 0.02637
 C821 C 0.43888 0.47931 0.00995
 O822 O 0.54244 0.46963 -0.01781
 Zr823 Zr 0.51705 0.47942 0.00264
 O824 O 0.48382 0.47423 0.04625
 O825 O 0.47080 0.46247 -0.03399
 O826 O 0.50832 0.44461 -0.01207
 O827 O 0.54491 0.47112 0.02033
 O828 O 0.50884 0.45356 0.02664
 C829 C 0.49634 0.45532 0.04250
 O830 O 0.45300 0.52459 0.04685
 O831 O 0.52574 0.57895 0.03109
 O832 O 0.48818 0.51926 0.06001
 O833 O 0.51800 0.54302 0.05385
 O834 O 0.48785 0.59741 0.00778
 O835 O 0.45628 0.57349 0.01903
 C836 C 0.50399 0.53318 0.06616
 H837 H 0.51825 0.57447 -0.00823
 H838 H 0.44929 0.52755 0.00399
 H839 H 0.51778 0.49728 0.04064
 H840 H 0.50835 0.48352 -0.03724
 H841 H 0.44736 0.58584 -0.02101
 H842 H 0.43743 0.50121 -0.04428
 H843 H 0.45765 0.46132 -0.04259
 H844 H 0.51673 0.43073 -0.00536
 H845 H 0.47914 0.61035 0.00023
 H846 H 0.53884 0.58034 0.03974
 H847 H 0.55672 0.53955 0.04540
 H848 H 0.54666 0.45227 0.02068
 H849 H 0.44995 0.58995 0.01441
 H850 H 0.44964 0.51249 0.05844
 H851 H 0.54504 0.52568 -0.05989
 H852 H 0.54671 0.45163 -0.01526
 Zr853 Zr 0.01781 1.02520 0.47017
 O854 O 0.04097 1.00476 0.45292
 O855 O 0.01535 1.05900 0.45286
 O856 O 0.00660 1.01786 0.43933
 O857 O 0.05235 1.04493 0.50925
 O858 O -0.02553 0.99862 0.44460
 O859 O 0.04854 1.04188 0.47363
 O860 O -0.01355 1.07861 0.46716
 O861 O -0.01499 1.03227 0.47075
 O862 O 0.01259 1.05200 0.49391
 O863 O 0.00307 0.98951 0.47511
 O864 O 0.02989 1.00804 0.49776
 Zr865 Zr -0.02430 1.00614 0.52889
 Zr866 Zr -0.02954 0.99731 0.47734
 Zr867 Zr 0.02278 1.03431 0.52161
 Zr868 Zr -0.02013 1.05793 0.49508
 O869 O 0.04809 1.01781 0.53911
 O870 O -0.04926 1.06605 0.47946
 O871 O -0.00985 1.04225 0.52391
 O872 O -0.03610 1.02350 0.50129
 O873 O -0.01928 0.97929 0.50501
 O874 O 0.00849 0.99925 0.52798
 C875 C 0.00072 1.07616 0.45277
 C876 C 0.05941 1.04709 0.49039
 C877 C -0.01086 1.00771 0.43263
 O878 O -0.05686 1.01385 0.46320
 O879 O -0.05726 0.98119 0.49016
 O880 O -0.05383 0.98651 0.52556
 C881 C -0.06411 0.97876 0.50910
 O882 O 0.03885 0.96130 0.48392
 Zr883 Zr 0.01357 0.97367 0.50355
 O884 O -0.02104 0.97227 0.54642
 O885 O -0.03234 0.95960 0.46570
 O886 O 0.00353 0.93920 0.48913
 O887 O 0.04047 0.96388 0.52216
 O888 O 0.00308 0.94909 0.52759
 C889 C -0.00967 0.95223 0.54312
 O890 O -0.04911 1.02491 0.54516
 O891 O 0.02755 1.07302 0.53003
 O892 O -0.01453 1.01725 0.55950
 O893 O 0.01655 1.03868 0.55375
 O894 O -0.00904 1.09420 0.50514
 O895 O -0.04157 1.07290 0.51769
 C896 C 0.00179 1.03017 0.56584
 H897 H 0.02030 1.06822 0.49132
 H898 H -0.05155 1.02688 0.50251
 H899 H 0.01424 0.99229 0.54134
 H900 H 0.00614 0.97763 0.46341
 H901 H -0.05016 1.08486 0.47757
 H902 H -0.06377 1.00029 0.45474
 H903 H -0.04534 0.95924 0.45684
 H904 H 0.01103 0.92490 0.49629
 H905 H -0.01718 1.10730 0.49717
 H906 H 0.04053 1.07352 0.53892
 H907 H 0.05512 1.03187 0.54691
 H908 H 0.04108 0.94495 0.52309
 H909 H -0.04704 1.08969 0.51280
 H910 H -0.05335 1.01353 0.55696
 H911 H 0.04567 1.01614 0.44131
 H912 H 0.04234 0.94322 0.48717
 Zr913 Zr 0.72956 0.27476 0.21775
 O914 O 0.73426 0.30062 0.19250
 O915 O 0.69928 0.26046 0.21112
 O916 O 0.73080 0.25482 0.18868
 O917 O 0.71506 0.32140 0.25323
 O918 O 0.75582 0.22382 0.19435
 O919 O 0.70869 0.30674 0.22005
 O920 O 0.69360 0.23114 0.23715
 O921 O 0.73231 0.23602 0.22597
 O922 O 0.71700 0.27101 0.24802
 O923 O 0.76228 0.26636 0.21612
 O924 O 0.74729 0.30015 0.23679
 Zr925 Zr 0.77026 0.24756 0.27557
 Zr926 Zr 0.76495 0.22816 0.22589
 Zr927 Zr 0.73541 0.29447 0.26720
 Zr928 Zr 0.72066 0.23285 0.25656
 O929 O 0.74684 0.33192 0.27281
 O930 O 0.71680 0.19423 0.24721
 O931 O 0.73759 0.25631 0.27745
 O932 O 0.75279 0.22265 0.25621
 O933 O 0.78334 0.25129 0.24543
 O934 O 0.76782 0.28621 0.26719
 C935 C 0.68804 0.24334 0.22041
 C936 C 0.70577 0.32275 0.23523
 C937 C 0.74234 0.23573 0.18263
 O938 O 0.75514 0.18982 0.22155
 O939 O 0.78806 0.20371 0.23891
 O940 O 0.79180 0.21645 0.27295
 C941 C 0.79647 0.20179 0.25732
 O942 O 0.77696 0.31669 0.21192
 Zr943 Zr 0.77958 0.28955 0.23678
 O944 O 0.80070 0.26133 0.28209
 O945 O 0.79215 0.22852 0.20635
 O946 O 0.80399 0.28174 0.21476
 O947 O 0.78685 0.32646 0.24852
 O948 O 0.80859 0.28548 0.25319
 C949 C 0.81364 0.27400 0.27045
 O950 O 0.76656 0.22025 0.29999
 O951 O 0.70723 0.29586 0.28530
 O952 O 0.76611 0.26453 0.30560
 O953 O 0.74277 0.29715 0.29922
 O954 O 0.69373 0.24121 0.27535
 O955 O 0.72155 0.21056 0.28459
 C956 C 0.75469 0.28378 0.31150
 H957 H 0.70182 0.27595 0.24890
 H958 H 0.75436 0.20465 0.26092
 H959 H 0.77567 0.29752 0.27696
 H960 H 0.76766 0.26891 0.20165
 H961 H 0.70209 0.18908 0.25084
 H962 H 0.76538 0.18195 0.21168
 H963 H 0.79369 0.21104 0.20056
 H964 H 0.81524 0.29481 0.21666
 H965 H 0.68350 0.22695 0.27363
 H966 H 0.70603 0.31351 0.29082
 H967 H 0.73667 0.34019 0.28254
 H968 H 0.80181 0.33017 0.24470
 H969 H 0.70922 0.19878 0.28480
 H970 H 0.77958 0.22093 0.30885
 H971 H 0.72120 0.30003 0.18370
 H972 H 0.79066 0.32581 0.21026
 Zr973 Zr 0.77400 0.73222 0.71865
 O974 O 0.76837 0.70628 0.69378
 O975 O 0.80351 0.74748 0.71054
 O976 O 0.77069 0.75201 0.68949
 O977 O 0.79070 0.68552 0.75357
 O978 O 0.74666 0.78343 0.69674
 O979 O 0.79546 0.70065 0.72019
 O980 O 0.81005 0.77699 0.73606
 O981 O 0.77099 0.77084 0.72689
 O982 O 0.78817 0.73632 0.74826
 O983 O 0.74112 0.73980 0.71846
 O984 O 0.75793 0.70631 0.73864
 Zr985 Zr 0.73576 0.75796 0.77818
 Zr986 Zr 0.73830 0.77782 0.72831
 Zr987 Zr 0.77131 0.71240 0.76844
 Zr988 Zr 0.78418 0.77432 0.75686
 O989 O 0.76083 0.67498 0.77593
 O990 O 0.78664 0.81312 0.74727
 O991 O 0.76873 0.75041 0.77858
 O992 O 0.75182 0.78349 0.75806
 O993 O 0.72134 0.75400 0.74861
 O994 O 0.73873 0.71946 0.76983
 C995 C 0.81490 0.76497 0.71912
 C996 C 0.79912 0.68445 0.73522
 C997 C 0.75934 0.77171 0.68420
 O998 O 0.74686 0.81664 0.72391
 O999 O 0.71525 0.80134 0.74214
 O1000 O 0.71334 0.78832 0.77634
 C1001 C 0.70764 0.80289 0.76084
 O1002 O 0.72745 0.68914 0.71495
 Zr1003 Zr 0.72550 0.71591 0.73994
 O1004 O 0.70585 0.74332 0.78593
 O1005 O 0.71043 0.77674 0.70955
 O1006 O 0.69975 0.72311 0.71908
 O1007 O 0.71983 0.67863 0.75199
 O1008 O 0.69736 0.71860 0.75762
 C1009 C 0.69281 0.72993 0.77495
 O1010 O 0.74037 0.78511 0.80240
 O1011 O 0.80096 0.71137 0.78434
 O1012 O 0.74136 0.74061 0.80800
 O1013 O 0.76685 0.71084 0.80097
 O1014 O 0.81216 0.76636 0.77447
 O1015 O 0.78463 0.79670 0.78469
 C1016 C 0.75471 0.72302 0.81369
 H1017 H 0.80346 0.73174 0.74837
 H1018 H 0.75010 0.80139 0.76280
 H1019 H 0.73172 0.70788 0.78003
 H1020 H 0.73505 0.73731 0.70423
 H1021 H 0.80148 0.81866 0.74995
 H1022 H 0.73608 0.82431 0.71436
 H1023 H 0.70842 0.79417 0.70365
 H1024 H 0.68898 0.70957 0.72141
 H1025 H 0.82222 0.78066 0.77205
 H1026 H 0.80257 0.69395 0.79036
 H1027 H 0.77185 0.66723 0.78516
 H1028 H 0.70484 0.67430 0.74870
 H1029 H 0.79699 0.80843 0.78434
 H1030 H 0.72782 0.78408 0.81179
 H1031 H 0.78101 0.70695 0.68450
 H1032 H 0.71391 0.67955 0.71390
 Zr1033 Zr 0.22096 0.23972 0.78043
 O1034 O 0.22644 0.21336 0.80524
 O1035 O 0.19181 0.25584 0.78882
 O1036 O 0.22470 0.25891 0.80967
 O1037 O 0.20407 0.19344 0.74558
 O1038 O 0.24887 0.29017 0.80233
 O1039 O 0.19935 0.20832 0.77894
 O1040 O 0.18546 0.28558 0.76318
 O1041 O 0.22421 0.27836 0.77209
 O1042 O 0.20672 0.24425 0.75086
 O1043 O 0.25390 0.24694 0.78051
 O1044 O 0.23685 0.21388 0.76039
 Zr1045 Zr 0.25926 0.26562 0.72074
 Zr1046 Zr 0.25691 0.28503 0.77064
 Zr1047 Zr 0.22343 0.22037 0.73062
 Zr1048 Zr 0.21098 0.28226 0.74213
 O1049 O 0.23375 0.18293 0.72312
 O1050 O 0.20878 0.32114 0.75134
 O1051 O 0.22624 0.25841 0.72039
 O1052 O 0.24337 0.29109 0.74090
 O1053 O 0.27370 0.26125 0.75030
 O1054 O 0.25606 0.22709 0.72915
 C1055 C 0.18071 0.27378 0.78030
 C1056 C 0.19572 0.19220 0.76396
 C1057 C 0.23626 0.27834 0.81495
 O1058 O 0.24835 0.32377 0.77531
 O1059 O 0.27973 0.30881 0.75664
 O1060 O 0.28159 0.29603 0.72246
 C1061 C 0.28719 0.31060 0.73789
 O1062 O 0.26715 0.19600 0.78391
 Zr1063 Zr 0.26933 0.22312 0.75901
 O1064 O 0.28918 0.25101 0.71306
 O1065 O 0.28500 0.28363 0.78907
 O1066 O 0.29513 0.22962 0.77991
 O1067 O 0.27489 0.18600 0.74681
 O1068 O 0.29752 0.22602 0.74145
 C1069 C 0.30215 0.23750 0.72413
 O1070 O 0.25447 0.29286 0.69642
 O1071 O 0.19370 0.21973 0.71486
 O1072 O 0.25381 0.24820 0.69102
 O1073 O 0.22771 0.21914 0.69804
 O1074 O 0.18281 0.27451 0.72483
 O1075 O 0.21057 0.30470 0.71417
 C1076 C 0.24018 0.23100 0.68537
 H1077 H 0.19139 0.23987 0.75088
 H1078 H 0.24510 0.30903 0.73614
 H1079 H 0.26302 0.21554 0.71896
 H1080 H 0.26004 0.24420 0.79470
 H1081 H 0.19403 0.32694 0.74846
 H1082 H 0.25923 0.33126 0.78477
 H1083 H 0.28703 0.30095 0.79503
 H1084 H 0.30569 0.21581 0.77766
 H1085 H 0.17276 0.28878 0.72739
 H1086 H 0.19201 0.20239 0.70883
 H1087 H 0.22270 0.17535 0.71391
 H1088 H 0.28990 0.18157 0.74998
 H1089 H 0.19805 0.31621 0.71431
 H1090 H 0.26700 0.29188 0.68700
 H1091 H 0.21387 0.21415 0.81461
 H1092 H 0.28055 0.18606 0.78483
 Zr1093 Zr 0.27556 0.76016 0.28002
 O1094 O 0.27011 0.78628 0.30478
 O1095 O 0.30504 0.74461 0.28831
 O1096 O 0.27224 0.74070 0.30929
 O1097 O 0.29224 0.80643 0.24492
 O1098 O 0.24808 0.70940 0.30215
 O1099 O 0.29689 0.79178 0.27847
 O1100 O 0.31151 0.71512 0.26276
 O1101 O 0.27249 0.72151 0.27191
 O1102 O 0.28961 0.75581 0.25046
 O1103 O 0.24267 0.75272 0.28011
 O1104 O 0.25941 0.78597 0.25985
 Zr1105 Zr 0.23700 0.73411 0.22041
 Zr1106 Zr 0.23980 0.71465 0.27045
 Zr1107 Zr 0.27265 0.77963 0.23013
 Zr1108 Zr 0.28552 0.71777 0.24197
 O1109 O 0.26218 0.81710 0.22263
 O1110 O 0.28795 0.67906 0.25186
 O1111 O 0.26999 0.74158 0.22012
 O1112 O 0.25316 0.70873 0.24074
 O1113 O 0.22273 0.73834 0.24995
 O1114 O 0.24006 0.77267 0.22862
 C1115 C 0.31638 0.72707 0.27974
 C1116 C 0.30058 0.80780 0.26335
 C1117 C 0.26080 0.72119 0.31468
 O1118 O 0.24849 0.67593 0.27532
 O1119 O 0.21694 0.69084 0.25667
 O1120 O 0.21472 0.70361 0.22241
 C1121 C 0.20928 0.68905 0.23796
 O1122 O 0.22893 0.80314 0.28354
 Zr1123 Zr 0.22697 0.77647 0.25846
 O1124 O 0.20703 0.74878 0.21253
 O1125 O 0.21183 0.71598 0.28886
 O1126 O 0.20113 0.76952 0.27908
 O1127 O 0.22147 0.81378 0.24634
 O1128 O 0.19881 0.77393 0.24061
 C1129 C 0.19412 0.76247 0.22335
 O1130 O 0.24139 0.70681 0.19630
 O1131 O 0.30217 0.78043 0.21417
 O1132 O 0.24270 0.75123 0.19048
 O1133 O 0.26809 0.78111 0.19760
 O1134 O 0.31336 0.72551 0.22430
 O1135 O 0.28579 0.69510 0.21430
 C1136 C 0.25604 0.76879 0.18483
 H1137 H 0.30490 0.76034 0.25038
 H1138 H 0.25146 0.69078 0.23611
 H1139 H 0.23304 0.78422 0.21834
 H1140 H 0.23661 0.75535 0.29429
 H1141 H 0.30274 0.67337 0.24917
 H1142 H 0.23769 0.66836 0.28481
 H1143 H 0.20989 0.69867 0.29499
 H1144 H 0.19053 0.78334 0.27681
 H1145 H 0.32344 0.71121 0.22681
 H1146 H 0.30383 0.79788 0.20822
 H1147 H 0.27312 0.82478 0.21337
 H1148 H 0.20647 0.81820 0.24945
 H1149 H 0.29814 0.68332 0.21476
 H1150 H 0.22876 0.70786 0.18691
 H1151 H 0.28276 0.78556 0.31413
 H1152 H 0.21552 0.81305 0.28433
 Zr1153 Zr 0.22570 0.76787 0.71484
 O1154 O 0.23100 0.79360 0.68960
 O1155 O 0.19650 0.75179 0.70671
 O1156 O 0.22884 0.74766 0.68599
 O1157 O 0.20872 0.81457 0.74917
 O1158 O 0.25326 0.71676 0.69383
 O1159 O 0.20407 0.79930 0.71589
 O1160 O 0.19051 0.72218 0.73248
 O1161 O 0.22924 0.72943 0.72367
 O1162 O 0.21163 0.76376 0.74445
 O1163 O 0.25867 0.76088 0.71481
 O1164 O 0.24155 0.79413 0.73462
 Zr1165 Zr 0.26452 0.74311 0.77484
 Zr1166 Zr 0.26199 0.72304 0.72520
 Zr1167 Zr 0.22834 0.78803 0.76445
 Zr1168 Zr 0.21614 0.72591 0.75361
 O1169 O 0.23827 0.82574 0.77149
 O1170 O 0.21414 0.68688 0.74483
 O1171 O 0.23144 0.75016 0.77510
 O1172 O 0.24861 0.71729 0.75495
 O1173 O 0.27884 0.74719 0.74529
 O1174 O 0.26099 0.78149 0.76597
 C1175 C 0.18558 0.73383 0.71528
 C1176 C 0.20038 0.81557 0.73072
 C1177 C 0.24020 0.72788 0.68114
 O1178 O 0.25416 0.68396 0.72123
 O1179 O 0.28534 0.70002 0.73923
 O1180 O 0.28697 0.71266 0.77343
 C1181 C 0.29282 0.69826 0.75801
 O1182 O 0.27212 0.81120 0.71042
 Zr1183 Zr 0.27409 0.78512 0.73610
 O1184 O 0.29419 0.75851 0.78256
 O1185 O 0.28965 0.72467 0.70636
 O1186 O 0.30017 0.77774 0.71590
 O1187 O 0.27881 0.82288 0.74726
 O1188 O 0.30205 0.78395 0.75436
 C1189 C 0.30676 0.77285 0.77185
 O1190 O 0.26051 0.71622 0.79952
 O1191 O 0.19876 0.78848 0.78028
 O1192 O 0.25882 0.76070 0.80439
 O1193 O 0.23306 0.79014 0.79698
 O1194 O 0.18802 0.73376 0.77077
 O1195 O 0.21598 0.70401 0.78184
 C1196 C 0.24545 0.77826 0.80984
 H1197 H 0.19629 0.76809 0.74437
 H1198 H 0.25052 0.69943 0.75988
 H1199 H 0.26785 0.79335 0.77602
 H1200 H 0.26464 0.76331 0.70055
 H1201 H 0.19940 0.68109 0.74763
 H1202 H 0.26495 0.67655 0.71169
 H1203 H 0.29199 0.70722 0.70079
 H1204 H 0.31072 0.79159 0.71799
 H1205 H 0.17806 0.71935 0.76838
 H1206 H 0.19685 0.80596 0.78597
 H1207 H 0.22723 0.83332 0.78066
 H1208 H 0.29372 0.82766 0.74409
 H1209 H 0.20362 0.69228 0.78175
 H1210 H 0.27311 0.71770 0.80890
 H1211 H 0.21839 0.79250 0.68022
 H1212 H 0.28560 0.82090 0.70930
 Zr1213 Zr 0.27666 0.23181 0.21721
 O1214 O 0.27027 0.20546 0.19281
 O1215 O 0.30598 0.24671 0.20812
 O1216 O 0.27304 0.25105 0.18784
 O1217 O 0.29343 0.18548 0.25248
 O1218 O 0.24933 0.28288 0.19499
 O1219 O 0.29774 0.19987 0.21881
 O1220 O 0.31313 0.27684 0.23300
 O1221 O 0.27426 0.27062 0.22504
 O1222 O 0.29146 0.23621 0.24650
 O1223 O 0.24389 0.24003 0.21745
 O1224 O 0.26066 0.20659 0.23782
 Zr1225 Zr 0.23982 0.25939 0.27700
 Zr1226 Zr 0.24172 0.27830 0.22685
 Zr1227 Zr 0.27463 0.21299 0.26732
 Zr1228 Zr 0.28805 0.27443 0.25472
 O1229 O 0.26375 0.17589 0.27531
 O1230 O 0.29076 0.31320 0.24511
 O1231 O 0.27270 0.25122 0.27702
 O1232 O 0.25584 0.28425 0.25630
 O1233 O 0.22487 0.25514 0.24772
 O1234 O 0.24216 0.22069 0.26909
 C1235 C 0.31740 0.26463 0.21600
 C1236 C 0.30144 0.18387 0.23398
 C1237 C 0.26167 0.27069 0.18242
 O1238 O 0.25090 0.31674 0.22160
 O1239 O 0.21936 0.30266 0.24084
 O1240 O 0.21778 0.29012 0.27519
 C1241 C 0.21208 0.30462 0.25965
 O1242 O 0.22985 0.18936 0.21497
 Zr1243 Zr 0.22840 0.21683 0.23947
 O1244 O 0.20979 0.24564 0.28539
 O1245 O 0.21334 0.27751 0.20885
 O1246 O 0.20251 0.22368 0.21869
 O1247 O 0.22214 0.18010 0.25232
 O1248 O 0.20049 0.22101 0.25725
 C1249 C 0.19636 0.23269 0.27452
 O1250 O 0.24540 0.28691 0.30073
 O1251 O 0.30450 0.21171 0.28281
 O1252 O 0.24544 0.24228 0.30688
 O1253 O 0.27057 0.21200 0.29997
 O1254 O 0.31648 0.26617 0.27152
 O1255 O 0.28940 0.29692 0.28246
 C1256 C 0.25858 0.22451 0.31264
 H1257 H 0.30670 0.23142 0.24632
 H1258 H 0.25445 0.30226 0.26086
 H1259 H 0.23512 0.20946 0.27954
 H1260 H 0.23753 0.23735 0.20336
 H1261 H 0.30569 0.31853 0.24760
 H1262 H 0.23993 0.32452 0.21233
 H1263 H 0.21158 0.29479 0.20258
 H1264 H 0.19165 0.21033 0.22141
 H1265 H 0.32668 0.28015 0.26851
 H1266 H 0.30602 0.19432 0.28892
 H1267 H 0.27473 0.16810 0.28456
 H1268 H 0.20704 0.17611 0.24924
 H1269 H 0.30208 0.30815 0.28197
 H1270 H 0.23302 0.28641 0.31038
 H1271 H 0.28277 0.20568 0.18332
 H1272 H 0.21625 0.17982 0.21429
 Zr1273 Zr 0.72587 0.74070 0.28144
 O1274 O 0.73183 0.71479 0.30645
 O1275 O 0.69669 0.75647 0.29001
 O1276 O 0.72946 0.76052 0.31038
 O1277 O 0.70873 0.69398 0.24715
 O1278 O 0.75327 0.79198 0.30250
 O1279 O 0.70441 0.70915 0.28047
 O1280 O 0.68991 0.78610 0.26439
 O1281 O 0.72880 0.77927 0.27277
 O1282 O 0.71122 0.74484 0.25203
 O1283 O 0.75876 0.74819 0.28115
 O1284 O 0.74166 0.71477 0.26142
 Zr1285 Zr 0.76331 0.76630 0.22115
 Zr1286 Zr 0.76144 0.78616 0.27093
 Zr1287 Zr 0.72782 0.72087 0.23179
 Zr1288 Zr 0.71518 0.78280 0.24297
 O1289 O 0.73816 0.68341 0.22439
 O1290 O 0.71299 0.82177 0.25190
 O1291 O 0.73032 0.75882 0.22125
 O1292 O 0.74752 0.79185 0.24131
 O1293 O 0.77814 0.76232 0.25056
 O1294 O 0.76039 0.72783 0.22991
 C1295 C 0.68542 0.77432 0.28161
 C1296 C 0.70061 0.69290 0.26563
 C1297 C 0.74067 0.78038 0.31527
 O1298 O 0.75302 0.82503 0.27514
 O1299 O 0.78429 0.80956 0.25664
 O1300 O 0.78549 0.79693 0.22240
 C1301 C 0.79147 0.81136 0.23779
 O1302 O 0.77261 0.69780 0.28505
 Zr1303 Zr 0.77407 0.72427 0.25962
 O1304 O 0.79320 0.75179 0.21321
 O1305 O 0.78950 0.78506 0.28940
 O1306 O 0.80025 0.73168 0.27983
 O1307 O 0.77940 0.68681 0.24805
 O1308 O 0.80185 0.72646 0.24129
 C1309 C 0.80624 0.73792 0.22389
 O1310 O 0.75821 0.79322 0.19666
 O1311 O 0.69790 0.71995 0.21638
 O1312 O 0.75753 0.74849 0.19165
 O1313 O 0.73168 0.71929 0.19920
 O1314 O 0.68683 0.77468 0.22608
 O1315 O 0.71422 0.80491 0.21485
 C1316 C 0.74393 0.73110 0.18630
 H1317 H 0.69592 0.74035 0.25225
 H1318 H 0.74915 0.80975 0.23641
 H1319 H 0.76725 0.71617 0.21974
 H1320 H 0.76501 0.74573 0.29533
 H1321 H 0.69812 0.82739 0.24938
 H1322 H 0.76394 0.83264 0.28449
 H1323 H 0.79157 0.80251 0.29511
 H1324 H 0.81095 0.71803 0.27754
 H1325 H 0.67673 0.78889 0.22869
 H1326 H 0.69616 0.70252 0.21054
 H1327 H 0.72696 0.67566 0.21544
 H1328 H 0.79442 0.68237 0.25120
 H1329 H 0.70167 0.81638 0.21511
 H1330 H 0.77060 0.79210 0.18708
 H1331 H 0.71937 0.71563 0.31596
 H1332 H 0.78620 0.68826 0.28605
 Zr1333 Zr 0.77106 0.26489 0.78440
 O1334 O 0.76681 0.28963 0.81032
 O1335 O 0.80137 0.24986 0.79008
 O1336 O 0.77008 0.24400 0.81318
 O1337 O 0.78424 0.31376 0.75016
 O1338 O 0.74657 0.21186 0.80645
 O1339 O 0.79181 0.29700 0.78254
 O1340 O 0.80660 0.22220 0.76294
 O1341 O 0.76844 0.22664 0.77497
 O1342 O 0.78294 0.26295 0.75376
 O1343 O 0.73847 0.25603 0.78650
 O1344 O 0.75272 0.29118 0.76658
 Zr1345 Zr 0.72916 0.24069 0.72670
 Zr1346 Zr 0.73594 0.21842 0.77557
 Zr1347 Zr 0.76393 0.28735 0.73575
 Zr1348 Zr 0.77930 0.22531 0.74402
 O1349 O 0.75203 0.32491 0.73135
 O1350 O 0.78346 0.18607 0.75163
 O1351 O 0.76172 0.24982 0.72433
 O1352 O 0.74727 0.21480 0.74479
 O1353 O 0.71687 0.24252 0.75725
 O1354 O 0.73158 0.27884 0.73625
 C1355 C 0.81240 0.23319 0.78006
 C1356 C 0.79413 0.31401 0.76788
 C1357 C 0.75957 0.22377 0.81862
 O1358 O 0.74615 0.17993 0.77805
 O1359 O 0.71252 0.19473 0.76245
 O1360 O 0.70771 0.20947 0.72898
 C1361 C 0.70354 0.19391 0.74426
 O1362 O 0.72346 0.30585 0.79275
 Zr1363 Zr 0.72053 0.28026 0.76702
 O1364 O 0.69855 0.25482 0.72125
 O1365 O 0.70953 0.21714 0.79611
 O1366 O 0.69674 0.27084 0.78933
 O1367 O 0.71281 0.31779 0.75665
 O1368 O 0.69113 0.27693 0.75122
 C1369 C 0.68582 0.26669 0.73360
 O1370 O 0.73238 0.21473 0.70142
 O1371 O 0.79185 0.29020 0.71734
 O1372 O 0.73269 0.25923 0.69709
 O1373 O 0.75608 0.29154 0.70391
 O1374 O 0.80588 0.23508 0.72516
 O1375 O 0.77792 0.20494 0.71520
 C1376 C 0.74400 0.27874 0.69148
 H1377 H 0.79808 0.26800 0.75277
 H1378 H 0.74567 0.19711 0.73952
 H1379 H 0.72347 0.29064 0.72699
 H1380 H 0.73340 0.25762 0.80115
 H1381 H 0.79812 0.18124 0.74755
 H1382 H 0.73630 0.17127 0.78792
 H1383 H 0.70858 0.19936 0.80153
 H1384 H 0.68538 0.28396 0.78822
 H1385 H 0.81625 0.22082 0.72623
 H1386 H 0.79273 0.30813 0.71228
 H1387 H 0.76168 0.33362 0.72132
 H1388 H 0.69793 0.32119 0.76093
 H1389 H 0.79047 0.19356 0.71412
 H1390 H 0.71914 0.21582 0.69290
 H1391 H 0.78006 0.28879 0.81883
 H1392 H 0.70978 0.31488 0.79489
 C1393 C 0.46877 1.03360 0.34858
 C1394 C 0.46309 1.01020 0.33948
 C1395 C 0.45259 1.00945 0.32010
 C1396 C 0.44754 1.03217 0.30890
 C1397 C 0.45377 1.05563 0.31804
 C1398 C 0.46415 1.05630 0.33756
 C1399 C 0.47785 1.03422 0.37021
 C1400 C 0.47012 1.05195 0.38485
 C1401 C 0.47621 1.05043 0.40594
 C1402 C 0.49029 1.03123 0.41295
 C1403 C 0.49915 1.01452 0.39810
 C1404 C 0.49286 1.01588 0.37695
 H1405 H 0.44747 0.99086 0.31473
 H1406 H 0.45128 1.07368 0.31003
 H1407 H 0.46919 1.06374 0.41694
 H1408 H 0.51007 0.99959 0.40300
 H1409 H 0.46858 1.07466 0.34407
 H1410 H 0.45843 1.06617 0.38024
 H1411 H 0.46591 0.99238 0.34780
 H1412 H 0.49930 1.00214 0.36597
 C1413 C -0.02995 0.53398 0.84624
 C1414 C -0.03626 0.51074 0.83728
 C1415 C -0.04722 0.51028 0.81814
 C1416 C -0.05212 0.53313 0.80707
 C1417 C -0.04522 0.55642 0.81605
 C1418 C -0.03439 0.55680 0.83532
 C1419 C -0.02052 0.53440 0.86773
 C1420 C -0.02779 0.55228 0.88246
 C1421 C -0.02149 0.55059 0.90348
 C1422 C -0.00765 0.53106 0.91032
 C1423 C 0.00082 0.51421 0.89536
 C1424 C -0.00569 0.51574 0.87428
 H1425 H -0.05284 0.49184 0.81288
 H1426 H -0.04757 0.57451 0.80807
 H1427 H -0.02819 0.56403 0.91457
 H1428 H 0.01158 0.49905 0.90013
 H1429 H -0.02948 0.57504 0.84172
 H1430 H -0.03933 0.56675 0.87801
 H1431 H -0.03357 0.49285 0.84555
 H1432 H 0.00039 0.50187 0.86320
 C1433 C 0.03405 -0.03480 0.84622
 C1434 C 0.02349 -0.02526 0.82830
 C1435 C 0.03349 -0.02542 0.80865
 C1436 C 0.05425 -0.03518 0.80646
 C1437 C 0.06466 -0.04506 0.82428
 C1438 C 0.05474 -0.04478 0.84390
 C1439 C 0.02405 -0.03368 0.86743
 C1440 C 0.02781 -0.05334 0.88211
 C1441 C 0.02119 -0.05086 0.90290
 C1442 C 0.01032 -0.02883 0.90955
 C1443 C 0.00500 -0.01001 0.89461
 C1444 C 0.01194 -0.01232 0.87374
 H1445 H 0.02498 -0.01789 0.79514
 H1446 H 0.08079 -0.05224 0.82318
 H1447 H 0.02528 -0.06585 0.91403
 H1448 H -0.00335 0.00715 0.89932
 H1449 H 0.06358 -0.05174 0.85740
 H1450 H 0.03648 -0.07040 0.87769
 H1451 H 0.00749 -0.01772 0.82945
 H1452 H 0.00879 0.00324 0.86287
 C1453 C 0.53182 0.46627 0.34557
 C1454 C 0.55281 0.45709 0.34369
 C1455 C 0.56328 0.45758 0.32436
 C1456 C 0.55315 0.46745 0.30637
 C1457 C 0.53215 0.47655 0.30813
 C1458 C 0.52158 0.47594 0.32750
 C1459 C 0.52120 0.46640 0.36651
 C1460 C 0.50848 0.48717 0.37296
 C1461 C 0.50112 0.48870 0.39375
 C1462 C 0.50663 0.46969 0.40848
 C1463 C 0.51801 0.44815 0.40160
 C1464 C 0.52504 0.44642 0.38088
 H1465 H 0.57959 0.45092 0.32364
 H1466 H 0.52387 0.48409 0.29448
 H1467 H 0.49231 0.50546 0.39859
 H1468 H 0.52221 0.43298 0.41252
 H1469 H 0.50538 0.48292 0.32831
 H1470 H 0.50518 0.50290 0.36230
 H1471 H 0.56143 0.45013 0.35734
 H1472 H 0.53414 0.42976 0.37632
 C1473 C 0.53229 0.54338 0.15212
 C1474 C 0.55300 0.55335 0.15434
 C1475 C 0.56315 0.55369 0.17393
 C1476 C 0.55300 0.54379 0.19182
 C1477 C 0.53227 0.53396 0.18972
 C1478 C 0.52201 0.53380 0.17012
 C1479 C 0.52198 0.54236 0.13094
 C1480 C 0.50939 0.52132 0.12482
 C1481 C 0.50202 0.51913 0.10404
 C1482 C 0.50740 0.53768 0.08893
 C1483 C 0.51876 0.55945 0.09540
 C1484 C 0.52579 0.56185 0.11613
 H1485 H 0.57925 0.56096 0.17494
 H1486 H 0.52396 0.52642 0.20329
 H1487 H 0.49322 0.50222 0.09952
 H1488 H 0.52286 0.57431 0.08419
 H1489 H 0.50601 0.52626 0.16909
 H1490 H 0.50614 0.50590 0.13576
 H1491 H 0.56169 0.56029 0.14081
 H1492 H 0.53476 0.57873 0.12039
 C1493 C 0.02758 1.03837 0.65254
 C1494 C 0.03181 1.06125 0.66329
 C1495 C 0.04287 1.06103 0.68246
 C1496 C 0.05017 1.03785 0.69154
 C1497 C 0.04551 1.01495 0.68061
 C1498 C 0.03436 1.01525 0.66157
 C1499 C 0.01791 1.03861 0.63114
 C1500 C 0.00340 1.01956 0.62483
 C1501 C -0.00318 1.01777 0.60379
 C1502 C 0.00485 1.03481 0.58864
 C1503 C 0.01833 1.05473 0.59523
 C1504 C 0.02471 1.05666 0.61620
 H1505 H 0.04506 1.07917 0.69029
 H1506 H 0.05140 0.99659 0.68592
 H1507 H -0.01357 1.00224 0.59919
 H1508 H 0.02469 1.06830 0.58396
 H1509 H 0.03188 0.99733 0.65343
 H1510 H -0.00235 1.00558 0.63607
 H1511 H 0.02655 1.07940 0.65684
 H1512 H 0.03599 1.07143 0.62045
 C1513 C -0.03357 0.45852 0.65447
 C1514 C -0.05445 0.44902 0.65634
 C1515 C -0.06490 0.44911 0.67569
 C1516 C -0.05482 0.45888 0.69366
 C1517 C -0.03387 0.46814 0.69191
 C1518 C -0.02336 0.46797 0.67253
 C1519 C -0.02301 0.45924 0.63354
 C1520 C -0.01062 0.48039 0.62724
 C1521 C -0.00325 0.48244 0.60649
 C1522 C -0.00841 0.46358 0.59169
 C1523 C -0.01949 0.44168 0.59840
 C1524 C -0.02654 0.43945 0.61908
 H1525 H -0.08115 0.44230 0.67643
 H1526 H -0.02561 0.47554 0.70556
 H1527 H 0.00528 0.49947 0.60173
 H1528 H -0.02342 0.42663 0.58739
 H1529 H -0.00725 0.47518 0.67170
 H1530 H -0.00760 0.49600 0.63797
 H1531 H -0.06302 0.44217 0.64269
 H1532 H -0.03540 0.42253 0.62356
 C1533 C 0.47184 -0.04227 0.15707
 C1534 C 0.45117 -0.05251 0.15848
 C1535 C 0.44018 -0.05255 0.17753
 C1536 C 0.44947 -0.04215 0.19567
 C1537 C 0.47021 -0.03216 0.19442
 C1538 C 0.48129 -0.03225 0.17534
 C1539 C 0.48284 -0.04112 0.13635
 C1540 C 0.49483 -0.01952 0.13036
 C1541 C 0.50231 -0.01692 0.10969
 C1542 C 0.49764 -0.03568 0.09464
 C1543 C 0.48706 -0.05805 0.10105
 C1544 C 0.47993 -0.06084 0.12167
 H1545 H 0.42410 -0.05998 0.17791
 H1546 H 0.47787 -0.02428 0.20822
 H1547 H 0.51043 0.00049 0.10515
 H1548 H 0.48350 -0.07299 0.08982
 H1549 H 0.49725 -0.02449 0.17490
 H1550 H 0.49737 -0.00394 0.14124
 H1551 H 0.44313 -0.05982 0.14467
 H1552 H 0.47141 -0.07810 0.12590
 C1553 C 0.35651 0.42826 0.01645
 C1554 C 0.33783 0.43925 0.00800
 C1555 C 0.31827 0.42621 0.00885
 C1556 C 0.31689 0.40171 0.01803
 C1557 C 0.33579 0.39050 0.02589
 C1558 C 0.35520 0.40366 0.02531
 C1559 C 0.37741 0.44197 0.01541
 C1560 C 0.39168 0.44209 0.03261
 C1561 C 0.41151 0.45453 0.03121
 C1562 C 0.41769 0.46669 0.01243
 C1563 C 0.40331 0.46660 -0.00465
 C1564 C 0.38348 0.45460 -0.00314
 H1565 H 0.30415 0.43563 0.00283
 H1566 H 0.33563 0.37139 0.03253
 H1567 H 0.42213 0.45425 0.04466
 H1568 H 0.40735 0.47593 -0.01934
 H1569 H 0.36931 0.39438 0.03152
 H1570 H 0.38742 0.43270 0.04721
 H1571 H 0.33826 0.45821 0.00107
 H1572 H 0.37304 0.45474 -0.01672
 C1573 C -0.14674 0.92840 0.51672
 C1574 C -0.16465 0.93658 0.50515
 C1575 C -0.18415 0.92347 0.50649
 C1576 C -0.18649 0.90163 0.51953
 C1577 C -0.16810 0.89333 0.53066
 C1578 C -0.14876 0.90653 0.52938
 C1579 C -0.12582 0.94203 0.51515
 C1580 C -0.11277 0.94572 0.53298
 C1581 C -0.09288 0.95790 0.53126
 C1582 C -0.08542 0.96640 0.51160
 C1583 C -0.09859 0.96280 0.49385
 C1584 C -0.11847 0.95091 0.49561
 H1585 H -0.19749 0.93138 0.49787
 H1586 H -0.16805 0.87592 0.53989
 H1587 H -0.08326 0.96038 0.54526
 H1588 H -0.09355 0.96917 0.47843
 H1589 H -0.13516 0.89915 0.53798
 H1590 H -0.11800 0.93931 0.54832
 H1591 H -0.16372 0.95351 0.49532
 H1592 H -0.12789 0.94815 0.48152
 C1593 C -0.14130 0.07379 0.98683
 C1594 C -0.15965 0.06253 0.99560
 C1595 C -0.17936 0.07532 0.99511
 C1596 C -0.18122 0.09982 0.98599
 C1597 C -0.16265 0.11130 0.97785
 C1598 C -0.14309 0.09842 0.97809
 C1599 C -0.12026 0.06030 0.98728
 C1600 C -0.10651 0.06070 0.96977
 C1601 C -0.08650 0.04855 0.97058
 C1602 C -0.07963 0.03609 0.98904
 C1603 C -0.09351 0.03563 1.00643
 C1604 C -0.11352 0.04740 1.00552
 H1605 H -0.19324 0.06570 1.00133
 H1606 H -0.16321 0.13040 0.97119
 H1607 H -0.07628 0.04931 0.95692
 H1608 H -0.08892 0.02614 1.02092
 H1609 H -0.12924 0.10793 0.97168
 H1610 H -0.11129 0.07033 0.95540
 H1611 H -0.15885 0.04354 1.00243
 H1612 H -0.12353 0.04691 1.01934
 C1613 C 0.35316 0.56861 0.48404
 C1614 C 0.34061 0.56668 0.46574
 C1615 C 0.32059 0.57849 0.46448
 C1616 C 0.31236 0.59242 0.48153
 C1617 C 0.32455 0.59384 0.50004
 C1618 C 0.34471 0.58224 0.50124
 C1619 C 0.37487 0.55646 0.48521
 C1620 C 0.38257 0.54636 0.50430
 C1621 C 0.40280 0.53523 0.50561
 C1622 C 0.41607 0.53352 0.48784
 C1623 C 0.40839 0.54332 0.46863
 C1624 C 0.38812 0.55475 0.46735
 H1625 H 0.31152 0.57682 0.45004
 H1626 H 0.31882 0.60474 0.51332
 H1627 H 0.40793 0.52766 0.52068
 H1628 H 0.41813 0.54242 0.45464
 H1629 H 0.35389 0.58459 0.51553
 H1630 H 0.37283 0.54666 0.51830
 H1631 H 0.34618 0.55592 0.45234
 H1632 H 0.38298 0.56257 0.45239
 C1633 C 0.14463 0.56571 0.51666
 C1634 C 0.15282 0.57950 0.49933
 C1635 C 0.17275 0.59164 0.50042
 C1636 C 0.18497 0.59061 0.51894
 C1637 C 0.17699 0.57651 0.53612
 C1638 C 0.15720 0.56420 0.53498
 C1639 C 0.12321 0.55289 0.51559
 C1640 C 0.10991 0.55092 0.53340
 C1641 C 0.08988 0.53890 0.53217
 C1642 C 0.08251 0.52874 0.51305
 C1643 C 0.09587 0.53063 0.49534
 C1644 C 0.11584 0.54238 0.49660
 H1645 H 0.17828 0.60259 0.48701
 H1646 H 0.18611 0.57507 0.55056
 H1647 H 0.08007 0.53788 0.54612
 H1648 H 0.09100 0.52280 0.48035
 H1649 H 0.15184 0.55334 0.54849
 H1650 H 0.11479 0.55905 0.54828
 H1651 H 0.14360 0.58152 0.48501
 H1652 H 0.12563 0.54288 0.48264
 C1653 C 0.64970 0.06921 0.02045
 C1654 C 0.66203 0.06818 0.03894
 C1655 C 0.68179 0.08052 0.04009
 C1656 C 0.68996 0.09420 0.02278
 C1657 C 0.67800 0.09474 0.00409
 C1658 C 0.65809 0.08257 0.00297
 C1659 C 0.62828 0.05643 0.01938
 C1660 C 0.62111 0.04543 0.00052
 C1661 C 0.60107 0.03388 -0.00077
 C1662 C 0.58749 0.03263 0.01680
 C1663 C 0.59469 0.04320 0.03583
 C1664 C 0.61477 0.05505 0.03708
 H1665 H 0.69071 0.07950 0.05467
 H1666 H 0.68369 0.10536 -0.00943
 H1667 H 0.59629 0.02569 -0.01567
 H1668 H 0.58465 0.04274 0.04963
 H1669 H 0.64902 0.08425 -0.01146
 H1670 H 0.63110 0.04542 -0.01332
 H1671 H 0.65649 0.05772 0.05258
 H1672 H 0.61952 0.06355 0.05185
 C1673 C 0.64393 0.92928 0.48587
 C1674 C 0.65663 0.93317 0.46795
 C1675 C 0.67680 0.92186 0.46637
 C1676 C 0.68503 0.90643 0.48269
 C1677 C 0.67269 0.90302 0.50085
 C1678 C 0.65237 0.91414 0.50237
 C1679 C 0.62211 0.94102 0.48739
 C1680 C 0.61419 0.94920 0.50689
 C1681 C 0.59388 0.96003 0.50852
 C1682 C 0.58074 0.96333 0.49069
 C1683 C 0.58863 0.95540 0.47109
 C1684 C 0.60899 0.94429 0.46948
 H1685 H 0.68600 0.92511 0.45224
 H1686 H 0.67842 0.89099 0.51358
 H1687 H 0.58860 0.96615 0.52389
 H1688 H 0.57902 0.95756 0.45704
 H1689 H 0.64307 0.91026 0.51631
 H1690 H 0.62381 0.94765 0.52098
 H1691 H 0.65106 0.94510 0.45511
 H1692 H 0.61430 0.93795 0.45420
 C1693 C 0.14623 0.42901 0.98438
 C1694 C 0.15878 0.43157 0.96620
 C1695 C 0.17892 0.42006 0.96497
 C1696 C 0.18727 0.40576 0.98192
 C1697 C 0.17509 0.40370 1.00032
 C1698 C 0.15481 0.41500 1.00149
 C1699 C 0.12441 0.44087 0.98553
 C1700 C 0.11661 0.45019 1.00472
 C1701 C 0.09627 0.46098 1.00608
 C1702 C 0.08296 0.46314 0.98826
 C1703 C 0.09076 0.45422 0.96893
 C1704 C 0.11115 0.44310 0.96760
 H1705 H 0.18799 0.42223 0.95062
 H1706 H 0.18090 0.39252 1.01352
 H1707 H 0.09109 0.46796 1.02123
 H1708 H 0.08101 0.45552 0.95489
 H1709 H 0.14564 0.41212 1.01567
 H1710 H 0.12635 0.44956 1.01878
 H1711 H 0.15313 0.44260 0.95286
 H1712 H 0.11637 0.43592 0.95254
 C1713 C 0.00791 0.34219 0.39205
 C1714 C -0.00778 0.33699 0.37686
 C1715 C -0.00320 0.32134 0.35974
 C1716 C 0.01708 0.31033 0.35759
 C1717 C 0.03285 0.31595 0.37258
 C1718 C 0.02836 0.33182 0.38952
 C1719 C 0.00320 0.35875 0.41029
 C1720 C 0.01255 0.35381 0.43002
 C1721 C 0.00979 0.37084 0.44662
 C1722 C -0.00263 0.39294 0.44387
 C1723 C -0.01298 0.39708 0.42453
 C1724 C -0.00997 0.38028 0.40787
 H1725 H -0.01563 0.31759 0.34834
 H1726 H 0.04855 0.30748 0.37161
 H1727 H 0.01779 0.36700 0.46142
 H1728 H -0.02268 0.41394 0.42190
 H1729 H 0.04095 0.33593 0.40066
 H1730 H 0.02233 0.33699 0.43255
 H1731 H -0.02372 0.34460 0.37838
 H1732 H -0.01727 0.38480 0.39286
 C1733 C 0.51448 -0.13613 -0.11562
 C1734 C 0.49812 -0.14053 -0.13029
 C1735 C 0.50162 -0.15617 -0.14762
 C1736 C 0.52135 -0.16838 -0.15031
 C1737 C 0.53816 -0.16239 -0.13656
 C1738 C 0.53480 -0.14624 -0.11952
 C1739 C 0.51010 -0.12221 -0.09584
 C1740 C 0.52040 -0.12931 -0.07699
 C1741 C 0.51676 -0.11576 -0.05849
 C1742 C 0.50243 -0.09516 -0.05837
 C1743 C 0.49127 -0.08900 -0.07691
 C1744 C 0.49530 -0.10208 -0.09549
 H1745 H 0.48849 -0.15990 -0.15824
 H1746 H 0.55356 -0.17149 -0.13807
 H1747 H 0.52551 -0.12107 -0.04443
 H1748 H 0.48003 -0.07330 -0.07734
 H1749 H 0.54797 -0.14249 -0.10896
 H1750 H 0.53139 -0.14526 -0.07651
 H1751 H 0.48224 -0.13311 -0.12785
 H1752 H 0.48721 -0.09589 -0.10968
 C1753 C -0.00626 -0.14860 1.11088
 C1754 C 0.00939 -0.15475 1.12590
 C1755 C 0.00477 -0.17140 1.14246
 C1756 C -0.01548 -0.18261 1.14413
 C1757 C -0.03138 -0.17553 1.12964
 C1758 C -0.02687 -0.15855 1.11333
 C1759 C -0.00117 -0.13221 1.09253
 C1760 C -0.01053 -0.13707 1.07283
 C1761 C -0.00718 -0.12049 1.05595
 C1762 C 0.00592 -0.09894 1.05831
 C1763 C 0.01642 -0.09505 1.07758
 C1764 C 0.01272 -0.11133 1.09459
 H1765 H 0.01727 -0.17614 1.15358
 H1766 H -0.04708 -0.18401 1.13027
 H1767 H -0.01529 -0.12419 1.04122
 H1768 H 0.02674 -0.07871 1.07986
 H1769 H -0.03946 -0.15360 1.10238
 H1770 H -0.02077 -0.15348 1.07054
 H1771 H 0.02544 -0.14744 1.12448
 H1772 H 0.02013 -0.10697 1.10954
 C1773 C 0.49126 0.34750 0.60942
 C1774 C 0.50711 0.34147 0.62430
 C1775 C 0.50259 0.32531 0.64124
 C1776 C 0.48221 0.31460 0.64350
 C1777 C 0.46624 0.32128 0.62895
 C1778 C 0.47067 0.33768 0.61223
 C1779 C 0.49601 0.36401 0.59105
 C1780 C 0.48630 0.35931 0.57148
 C1781 C 0.48912 0.37621 0.55470
 C1782 C 0.50200 0.39794 0.55705
 C1783 C 0.51283 0.40171 0.57617
 C1784 C 0.50970 0.38508 0.59306
 H1785 H 0.51518 0.32081 0.65232
 H1786 H 0.45046 0.31311 0.62998
 H1787 H 0.48078 0.37260 0.54008
 H1788 H 0.52298 0.41820 0.57846
 H1789 H 0.45796 0.34248 0.60138
 H1790 H 0.47617 0.34278 0.56924
 H1791 H 0.52315 0.34869 0.62258
 H1792 H 0.51734 0.38935 0.60792
 C1793 C 0.50652 1.13536 0.62224
 C1794 C 0.52712 1.14391 0.62718
 C1795 C 0.53042 1.16060 0.64389
 C1796 C 0.51320 1.16880 0.65619
 C1797 C 0.49297 1.15830 0.65250
 C1798 C 0.48960 1.14195 0.63555
 C1799 C 0.50258 1.12074 0.60272
 C1800 C 0.48728 1.10121 0.60224
 C1801 C 0.48386 1.08728 0.58393
 C1802 C 0.49600 1.09214 0.56581
 C1803 C 0.51080 1.11222 0.56605
 C1804 C 0.51393 1.12652 0.58426
 H1805 H 0.54621 1.16836 0.64623
 H1806 H 0.47948 1.16386 0.66200
 H1807 H 0.47226 1.07198 0.58428
 H1808 H 0.52033 1.11654 0.55232
 H1809 H 0.47354 1.13564 0.63227
 H1810 H 0.47834 1.09617 0.61618
 H1811 H 0.54061 1.13845 0.61763
 H1812 H 0.52534 1.14202 0.58391
 C1813 C 0.00975 0.63527 1.11933
 C1814 C 0.03055 0.64210 1.12500
 C1815 C 0.03416 0.65948 1.14116
 C1816 C 0.01695 0.67066 1.15206
 C1817 C -0.00371 0.66136 1.14776
 C1818 C -0.00726 0.64410 1.13149
 C1819 C 0.00579 0.62036 1.10002
 C1820 C -0.01009 0.60154 1.09948
 C1821 C -0.01359 0.58747 1.08123
 C1822 C -0.00113 0.59176 1.06322
 C1823 C 0.01426 0.61119 1.06356
 C1824 C 0.01764 0.62540 1.08175
 H1825 H 0.05040 0.66565 1.14351
 H1826 H -0.01738 0.66778 1.15658
 H1827 H -0.02558 0.57261 1.08152
 H1828 H 0.02406 0.61506 1.04994
 H1829 H -0.02348 0.63874 1.12777
 H1830 H -0.01943 0.59721 1.11331
 H1831 H 0.04403 0.63484 1.11629
 H1832 H 0.02958 0.64032 1.08154
 C1833 C 0.48734 0.65082 -0.11601
 C1834 C 0.50448 0.65879 -0.12845
 C1835 C 0.50141 0.67663 -0.14452
 C1836 C 0.48112 0.68738 -0.14840
 C1837 C 0.46373 0.67770 -0.13677
 C1838 C 0.46685 0.65971 -0.12084
 C1839 C 0.49087 0.63404 -0.09757
 C1840 C 0.50557 0.61386 -0.09848
 C1841 C 0.50866 0.59792 -0.08114
 C1842 C 0.49693 0.60162 -0.06261
 C1843 C 0.48259 0.62217 -0.06152
 C1844 C 0.47968 0.63831 -0.07880
 H1845 H 0.51514 0.68201 -0.15374
 H1846 H 0.44781 0.68524 -0.13860
 H1847 H 0.51980 0.58220 -0.08253
 H1848 H 0.47340 0.62560 -0.04742
 H1849 H 0.45324 0.65331 -0.11185
 H1850 H 0.51432 0.61000 -0.11276
 H1851 H 0.52046 0.65198 -0.12530
 H1852 H 0.46864 0.65415 -0.07747
 C1853 C -0.00985 1.13319 0.37567
 C1854 C -0.03033 1.13990 0.36872
 C1855 C -0.03304 1.15686 0.35192
 C1856 C -0.01523 1.16774 0.34177
 C1857 C 0.00513 1.15836 0.34727
 C1858 C 0.00779 1.14161 0.36415
 C1859 C -0.00679 1.11903 0.39566
 C1860 C 0.00959 1.10094 0.39775
 C1861 C 0.01280 1.08818 0.41676
 C1862 C -0.00055 1.09286 0.43403
 C1863 C -0.01669 1.11133 0.43210
 C1864 C -0.01970 1.12437 0.41313
 H1865 H -0.04910 1.16307 0.34849
 H1866 H 0.01926 1.16454 0.33900
 H1867 H 0.02533 1.07397 0.41764
 H1868 H -0.02726 1.11537 0.44508
 H1869 H 0.02381 1.13646 0.36884
 H1870 H 0.01970 1.09623 0.38456
 H1871 H -0.04428 1.13298 0.37691
 H1872 H -0.03212 1.13871 0.41217
 C1873 C 0.76398 0.68926 0.90031
 C1874 C 0.74666 0.67852 0.91098
 C1875 C 0.74947 0.66680 0.93063
 C1876 C 0.76979 0.66541 0.94031
 C1877 C 0.78699 0.67691 0.92960
 C1878 C 0.78409 0.68866 0.91001
 C1879 C 0.76153 0.69928 0.87849
 C1880 C 0.77700 0.69338 0.86344
 C1881 C 0.77471 0.70149 0.84270
 C1882 C 0.75683 0.71580 0.83623
 C1883 C 0.74140 0.72217 0.85128
 C1884 C 0.74367 0.71383 0.87223
 H1885 H 0.73572 0.65764 0.93749
 H1886 H 0.80273 0.67772 0.93648
 H1887 H 0.78703 0.69628 0.83164
 H1888 H 0.72745 0.73313 0.84682
 H1889 H 0.79770 0.69732 0.90240
 H1890 H 0.79073 0.68184 0.86758
 H1891 H 0.73104 0.67823 0.90374
 H1892 H 0.73151 0.71877 0.88353
 C1893 C 0.26587 0.19032 0.39932
 C1894 C 0.24809 0.17995 0.40949
 C1895 C 0.25017 0.16804 0.42916
 C1896 C 0.27018 0.16610 0.43937
 C1897 C 0.28786 0.17724 0.42914
 C1898 C 0.28570 0.18915 0.40953
 C1899 C 0.26412 0.20064 0.37751
 C1900 C 0.24658 0.21554 0.37096
 C1901 C 0.24482 0.22397 0.35001
 C1902 C 0.26044 0.21738 0.33521
 C1903 C 0.27807 0.20283 0.34197
 C1904 C 0.27988 0.19462 0.36276
 H1905 H 0.23607 0.15920 0.43561
 H1906 H 0.30342 0.17765 0.43642
 H1907 H 0.23106 0.23513 0.34531
 H1908 H 0.29052 0.19747 0.33111
 H1909 H 0.29966 0.19750 0.40231
 H1910 H 0.23425 0.22064 0.38203
 H1911 H 0.23265 0.18010 0.40187
 H1912 H 0.29341 0.18289 0.36715
 C1913 C 0.74119 0.31621 0.39717
 C1914 C 0.75001 0.30463 0.41519
 C1915 C 0.74497 0.31362 0.43529
 C1916 C 0.73113 0.33461 0.43791
 C1917 C 0.72195 0.34578 0.41991
 C1918 C 0.72678 0.33660 0.39987
 C1919 C 0.74710 0.30758 0.37560
 C1920 C 0.74868 0.32556 0.35919
 C1921 C 0.75220 0.31769 0.33858
 C1922 C 0.75471 0.29166 0.33380
 C1923 C 0.75457 0.27366 0.35025
 C1924 C 0.75064 0.28153 0.37098
 H1925 H 0.75203 0.30418 0.44881
 H1926 H 0.71139 0.36207 0.42123
 H1927 H 0.75245 0.33202 0.32621
 H1928 H 0.75629 0.25345 0.34693
 H1929 H 0.71921 0.34562 0.38643
 H1930 H 0.74680 0.34582 0.36217
 H1931 H 0.76119 0.28896 0.41378
 H1932 H 0.74949 0.26712 0.38320
 C1933 C 0.23771 0.81238 0.89630
 C1934 C 0.21770 0.81337 0.90601
 C1935 C 0.21519 0.82472 0.92571
 C1936 C 0.23269 0.83547 0.93654
 C1937 C 0.25290 0.83372 0.92682
 C1938 C 0.25533 0.82235 0.90707
 C1939 C 0.23982 0.80254 0.87446
 C1940 C 0.25719 0.78725 0.86830
 C1941 C 0.25906 0.77885 0.84741
 C1942 C 0.24372 0.78584 0.83229
 C1943 C 0.22636 0.80099 0.83864
 C1944 C 0.22445 0.80918 0.85935
 H1945 H 0.19948 0.82415 0.93257
 H1946 H 0.26688 0.84230 0.93378
 H1947 H 0.27261 0.76722 0.84306
 H1948 H 0.21414 0.80674 0.82753
 H1949 H 0.27091 0.82230 0.89985
 H1950 H 0.26924 0.78173 0.87965
 H1951 H 0.20386 0.80529 0.89833
 H1952 H 0.21108 0.82125 0.86344
 C1953 C 0.26608 0.80368 0.09862
 C1954 C 0.24904 0.81556 0.08816
 C1955 C 0.25215 0.82802 0.06887
 C1956 C 0.27251 0.82910 0.05938
 C1957 C 0.28939 0.81643 0.06984
 C1958 C 0.28618 0.80388 0.08902
 C1959 C 0.26345 0.79303 0.12024
 C1960 C 0.27920 0.79773 0.13538
 C1961 C 0.27675 0.78928 0.15600
 C1962 C 0.25840 0.77586 0.16228
 C1963 C 0.24273 0.77051 0.14710
 C1964 C 0.24518 0.77919 0.12625
 H1965 H 0.23866 0.83804 0.06219
 H1966 H 0.30512 0.81537 0.06305
 H1967 H 0.28930 0.79361 0.16714
 H1968 H 0.22845 0.76020 0.15141
 H1969 H 0.29958 0.79436 0.09644
 H1970 H 0.29328 0.80866 0.13146
 H1971 H 0.23344 0.81620 0.09532
 H1972 H 0.23280 0.77513 0.11487
 C1973 C 0.75693 0.31386 0.60619
 C1974 C 0.77159 0.33401 0.60357
 C1975 C 0.77643 0.34351 0.58356
 C1976 C 0.76692 0.33297 0.56556
 C1977 C 0.75278 0.31229 0.56811
 C1978 C 0.74778 0.30294 0.58815
 C1979 C 0.75116 0.30468 0.62769
 C1980 C 0.74746 0.27854 0.63196
 C1981 C 0.74367 0.27003 0.65259
 C1982 C 0.74379 0.28747 0.66933
 C1983 C 0.74652 0.31362 0.66492
 C1984 C 0.74994 0.32213 0.64440
 H1985 H 0.78723 0.35957 0.58227
 H1986 H 0.74543 0.30337 0.55458
 H1987 H 0.74187 0.24974 0.65561
 H1988 H 0.74653 0.32753 0.67751
 H1989 H 0.73637 0.28751 0.58951
 H1990 H 0.74838 0.26452 0.61952
 H1991 H 0.77936 0.34255 0.61703
 H1992 H 0.75201 0.34245 0.64170
 C1993 C 0.23201 0.19032 0.60122
 C1994 C 0.22030 0.16745 0.59947
 C1995 C 0.21765 0.15551 0.58002
 C1996 C 0.22673 0.16603 0.56179
 C1997 C 0.23861 0.18876 0.56353
 C1998 C 0.24124 0.20076 0.58303
 C1999 C 0.23410 0.20322 0.62198
 C2000 C 0.25342 0.21431 0.62865
 C2001 C 0.25543 0.22453 0.64899
 C2002 C 0.23816 0.22370 0.66294
 C2003 C 0.21865 0.21378 0.65581
 C2004 C 0.21664 0.20377 0.63564
 H2005 H 0.20875 0.13780 0.57930
 H2006 H 0.24559 0.19753 0.54973
 H2007 H 0.27065 0.23204 0.65407
 H2008 H 0.20489 0.21331 0.66602
 H2009 H 0.25012 0.21848 0.58378
 H2010 H 0.26719 0.21420 0.61845
 H2011 H 0.21333 0.15859 0.61324
 H2012 H 0.20137 0.19615 0.63083
 C2013 C 0.73521 0.68883 0.10280
 C2014 C 0.72339 0.66602 0.10132
 C2015 C 0.72053 0.65387 0.08198
 C2016 C 0.72948 0.66416 0.06361
 C2017 C 0.74155 0.68678 0.06510
 C2018 C 0.74442 0.69895 0.08448
 C2019 C 0.73742 0.70208 0.12338
 C2020 C 0.75680 0.71326 0.12980
 C2021 C 0.75891 0.72393 0.14995
 C2022 C 0.74171 0.72346 0.16399
 C2023 C 0.72215 0.71343 0.15711
 C2024 C 0.72001 0.70300 0.13710
 H2025 H 0.71151 0.63624 0.08144
 H2026 H 0.74845 0.69537 0.05118
 H2027 H 0.77418 0.73148 0.15487
 H2028 H 0.70845 0.71320 0.16740
 H2029 H 0.75342 0.71659 0.08504
 H2030 H 0.77051 0.71288 0.11955
 H2031 H 0.71645 0.65739 0.11521
 H2032 H 0.70470 0.69535 0.13246
 C2033 C 0.14605 0.60871 0.22881
 C2034 C 0.14222 0.59595 0.20975
 C2035 C 0.12792 0.57539 0.20890
 C2036 C 0.11717 0.56714 0.22710
 C2037 C 0.12063 0.58032 0.24599
 C2038 C 0.13480 0.60087 0.24682
 C2039 C 0.16243 0.62924 0.23037
 C2040 C 0.17575 0.63016 0.24811
 C2041 C 0.19087 0.64943 0.25026
 C2042 C 0.19335 0.66840 0.23468
 C2043 C 0.18040 0.66728 0.21661
 C2044 C 0.16505 0.64787 0.21449
 H2045 H 0.12571 0.56552 0.19413
 H2046 H 0.11225 0.57481 0.26016
 H2047 H 0.20073 0.64932 0.26426
 H2048 H 0.18189 0.68157 0.20432
 H2049 H 0.13700 0.61064 0.26165
 H2050 H 0.17461 0.61578 0.26036
 H2051 H 0.15075 0.60135 0.19566
 H2052 H 0.15499 0.64771 0.20064
 C2053 C 0.64146 0.11250 0.73385
 C2054 C 0.63893 0.09963 0.71463
 C2055 C 0.62520 0.07862 0.71306
 C2056 C 0.61374 0.06997 0.73068
 C2057 C 0.61590 0.08320 0.74974
 C2058 C 0.62952 0.10423 0.75129
 C2059 C 0.65719 0.13364 0.73612
 C2060 C 0.66962 0.13524 0.75445
 C2061 C 0.68449 0.15477 0.75692
 C2062 C 0.68752 0.17333 0.74109
 C2063 C 0.67522 0.17171 0.72262
 C2064 C 0.66020 0.15205 0.72016
 H2065 H 0.62402 0.06866 0.69821
 H2066 H 0.60697 0.07730 0.76346
 H2067 H 0.69374 0.15515 0.77131
 H2068 H 0.67710 0.18568 0.71013
 H2069 H 0.63076 0.11401 0.76622
 H2070 H 0.66810 0.12111 0.76685
 H2071 H 0.64808 0.10527 0.70098
 H2072 H 0.65075 0.15145 0.70590
 C2073 C 0.85509 0.11662 0.26814
 C2074 C 0.87387 0.11799 0.28007
 C2075 C 0.88778 0.09704 0.28124
 C2076 C 0.88331 0.07392 0.27053
 C2077 C 0.86404 0.07266 0.25906
 C2078 C 0.85027 0.09361 0.25788
 C2079 C 0.84082 0.13922 0.26564
 C2080 C 0.83168 0.14459 0.24594
 C2081 C 0.81764 0.16503 0.24336
 C2082 C 0.81230 0.18088 0.26039
 C2083 C 0.82183 0.17598 0.28007
 C2084 C 0.83599 0.15536 0.28266
 H2085 H 0.90254 0.09975 0.28973
 H2086 H 0.85896 0.05526 0.25142
 H2087 H 0.81084 0.16822 0.22789
 H2088 H 0.81813 0.18781 0.29351
 H2089 H 0.83563 0.09168 0.24899
 H2090 H 0.83544 0.13294 0.23241
 H2091 H 0.87819 0.13559 0.28793
 H2092 H 0.84275 0.15170 0.29806
 C2093 C 0.35164 0.61355 0.76992
 C2094 C 0.37052 0.61519 0.78162
 C2095 C 0.38469 0.59448 0.78253
 C2096 C 0.38038 0.57131 0.77180
 C2097 C 0.36098 0.56976 0.76057
 C2098 C 0.34692 0.59048 0.75968
 C2099 C 0.33735 0.63608 0.76732
 C2100 C 0.32886 0.64167 0.74741
 C2101 C 0.31489 0.66208 0.74457
 C2102 C 0.30885 0.67767 0.76156
 C2103 C 0.31773 0.67256 0.78149
 C2104 C 0.33193 0.65198 0.78432
 H2105 H 0.39952 0.59744 0.79083
 H2106 H 0.35606 0.55233 0.75287
 H2107 H 0.30862 0.66538 0.72890
 H2108 H 0.31350 0.68418 0.79490
 H2109 H 0.33220 0.58841 0.75095
 H2110 H 0.33309 0.63021 0.73390
 H2111 H 0.37476 0.63286 0.78941
 H2112 H 0.33827 0.64813 0.79987
 C2113 C 0.34838 0.39265 0.72608
 C2114 C 0.34273 0.41777 0.73164
 C2115 C 0.35765 0.43757 0.73079
 C2116 C 0.37867 0.43277 0.72440
 C2117 C 0.38422 0.40771 0.71844
 C2118 C 0.36923 0.38789 0.71921
 C2119 C 0.33282 0.37140 0.72859
 C2120 C 0.33057 0.35209 0.71335
 C2121 C 0.31567 0.33232 0.71608
 C2122 C 0.30298 0.33133 0.73426
 C2123 C 0.30546 0.35061 0.74946
 C2124 C 0.32011 0.37031 0.74666
 H2125 H 0.35268 0.45670 0.73503
 H2126 H 0.40032 0.40327 0.71366
 H2127 H 0.31418 0.31777 0.70409
 H2128 H 0.29598 0.35061 0.76365
 H2129 H 0.37413 0.36869 0.71508
 H2130 H 0.34014 0.35248 0.69923
 H2131 H 0.32670 0.42214 0.73667
 H2132 H 0.32169 0.38460 0.75885
 C2133 C 0.85149 0.89448 0.22513
 C2134 C 0.84693 0.91827 0.23424
 C2135 C 0.86152 0.93838 0.23329
 C2136 C 0.88131 0.93549 0.22307
 C2137 C 0.88545 0.91166 0.21334
 C2138 C 0.87077 0.89152 0.21437
 C2139 C 0.83660 0.87261 0.22793
 C2140 C 0.83168 0.85578 0.21137
 C2141 C 0.81715 0.83565 0.21438
 C2142 C 0.80742 0.83192 0.23405
 C2143 C 0.81279 0.84856 0.25061
 C2144 C 0.82712 0.86853 0.24759
 H2145 H 0.85677 0.95640 0.24013
 H2146 H 0.90051 0.90776 0.20582
 H2147 H 0.81345 0.82318 0.20132
 H2148 H 0.80581 0.84635 0.26605
 H2149 H 0.87488 0.87329 0.20744
 H2150 H 0.83876 0.85848 0.19603
 H2151 H 0.83192 0.92138 0.24216
 H2152 H 0.83090 0.88076 0.26079
 C2153 C 0.64424 0.88281 0.77175
 C2154 C 0.64173 0.89586 0.79087
 C2155 C 0.62768 0.91662 0.79233
 C2156 C 0.61584 0.92480 0.77470
 C2157 C 0.61797 0.91134 0.75577
 C2158 C 0.63192 0.89057 0.75433
 C2159 C 0.66041 0.86212 0.76949
 C2160 C 0.67259 0.86078 0.75108
 C2161 C 0.68778 0.84163 0.74850
 C2162 C 0.69142 0.82318 0.76430
 C2163 C 0.67944 0.82456 0.78292
 C2164 C 0.66408 0.84386 0.78549
 H2165 H 0.62655 0.92676 0.80710
 H2166 H 0.60877 0.91682 0.74203
 H2167 H 0.69680 0.84146 0.73402
 H2168 H 0.68178 0.81064 0.79537
 H2169 H 0.63312 0.88062 0.73948
 H2170 H 0.67061 0.87484 0.73866
 H2171 H 0.65113 0.89057 0.80451
 H2172 H 0.65487 0.84429 0.79984
 C2173 C 0.14890 0.38479 0.27041
 C2174 C 0.13714 0.39285 0.25270
 C2175 C 0.12261 0.41302 0.25411
 C2176 C 0.11931 0.42560 0.27329
 C2177 C 0.13067 0.41721 0.29115
 C2178 C 0.14532 0.39704 0.28973
 C2179 C 0.16535 0.36437 0.26835
 C2180 C 0.16845 0.34562 0.28406
 C2181 C 0.18375 0.32625 0.28153
 C2182 C 0.19621 0.32526 0.26321
 C2183 C 0.19325 0.34428 0.24774
 C2184 C 0.17815 0.36356 0.25031
 H2185 H 0.11380 0.41865 0.24017
 H2186 H 0.12861 0.42668 0.30612
 H2187 H 0.18558 0.31187 0.29372
 H2188 H 0.20271 0.34442 0.23354
 H2189 H 0.15425 0.39151 0.30361
 H2190 H 0.15877 0.34563 0.29812
 H2191 H 0.13914 0.38348 0.23768
 H2192 H 0.17663 0.37802 0.23815
 C2193 C 0.09951 0.29033 0.81783
 C2194 C 0.09185 0.26946 0.82953
 C2195 C 0.07080 0.26890 0.83609
 C2196 C 0.05702 0.28911 0.83092
 C2197 C 0.06476 0.31023 0.81959
 C2198 C 0.08588 0.31086 0.81313
 C2199 C 0.12116 0.28955 0.80919
 C2200 C 0.12472 0.29683 0.78823
 C2201 C 0.14445 0.29265 0.77905
 C2202 C 0.16081 0.28090 0.79064
 C2203 C 0.15761 0.27486 0.81191
 C2204 C 0.13795 0.27930 0.82116
 H2205 H 0.06528 0.25264 0.84516
 H2206 H 0.05438 0.32602 0.81539
 H2207 H 0.14654 0.29749 0.76261
 H2208 H 0.17017 0.26623 0.82127
 H2209 H 0.09149 0.32723 0.80425
 H2210 H 0.11197 0.30457 0.77861
 H2211 H 0.10196 0.25320 0.83309
 H2212 H 0.13568 0.27410 0.83750
 C2213 C 0.60465 0.78967 0.32029
 C2214 C 0.59720 0.76848 0.33172
 C2215 C 0.57626 0.76772 0.33863
 C2216 C 0.56242 0.78808 0.33410
 C2217 C 0.56996 0.80949 0.32299
 C2218 C 0.59096 0.81031 0.31619
 C2219 C 0.62618 0.78918 0.31137
 C2220 C 0.62943 0.79687 0.29045
 C2221 C 0.64909 0.79307 0.28099
 C2222 C 0.66566 0.78128 0.29226
 C2223 C 0.66275 0.77485 0.31350
 C2224 C 0.64316 0.77886 0.32301
 H2225 H 0.57088 0.75120 0.34746
 H2226 H 0.55950 0.82536 0.31922
 H2227 H 0.65097 0.79823 0.26459
 H2228 H 0.67546 0.76620 0.32264
 H2229 H 0.59642 0.82693 0.30752
 H2230 H 0.61650 0.80460 0.28107
 H2231 H 0.60737 0.75214 0.33481
 H2232 H 0.64109 0.77324 0.33929
 C2233 C 0.60447 0.22628 0.18755
 C2234 C 0.58718 0.23444 0.19970
 C2235 C 0.56659 0.23255 0.19179
 C2236 C 0.56313 0.22222 0.17179
 C2237 C 0.58040 0.21375 0.15975
 C2238 C 0.60099 0.21589 0.16756
 C2239 C 0.62617 0.22934 0.19552
 C2240 C 0.64161 0.24120 0.18299
 C2241 C 0.66192 0.24545 0.19098
 C2242 C 0.66704 0.23768 0.21154
 C2243 C 0.65167 0.22520 0.22385
 C2244 C 0.63132 0.22120 0.21591
 H2245 H 0.55336 0.23907 0.20126
 H2246 H 0.57795 0.20591 0.14419
 H2247 H 0.67352 0.25500 0.18114
 H2248 H 0.65520 0.21906 0.23978
 H2249 H 0.61421 0.20944 0.15805
 H2250 H 0.63778 0.24777 0.16724
 H2251 H 0.58967 0.24271 0.21510
 H2252 H 0.61955 0.21187 0.22570
 C2253 C 0.10471 0.71612 0.67687
 C2254 C 0.09647 0.73698 0.66547
 C2255 C 0.07556 0.73661 0.65831
 C2256 C 0.06255 0.71545 0.66255
 C2257 C 0.07087 0.69443 0.67369
 C2258 C 0.09183 0.69474 0.68076
 C2259 C 0.12624 0.71757 0.68583
 C2260 C 0.12988 0.70996 0.70673
 C2261 C 0.14955 0.71431 0.71613
 C2262 C 0.16574 0.72655 0.70479
 C2263 C 0.16243 0.73302 0.68359
 C2264 C 0.14283 0.72848 0.67416
 H2265 H 0.06955 0.75287 0.64948
 H2266 H 0.06104 0.67797 0.67725
 H2267 H 0.15174 0.70916 0.73251
 H2268 H 0.17484 0.74207 0.67441
 H2269 H 0.09792 0.67839 0.68941
 H2270 H 0.11723 0.70176 0.71611
 H2271 H 0.10602 0.75386 0.66256
 H2272 H 0.14047 0.73405 0.65789
 C2273 C 0.89782 0.77871 0.68408
 C2274 C 0.90731 0.75662 0.67596
 C2275 C 0.92805 0.75733 0.66849
 C2276 C 0.93986 0.78027 0.66892
 C2277 C 0.93019 0.80232 0.67745
 C2278 C 0.90943 0.80151 0.68492
 C2279 C 0.87596 0.77762 0.69206
 C2280 C 0.87094 0.78855 0.71152
 C2281 C 0.85074 0.78529 0.72002
 C2282 C 0.83534 0.77099 0.70917
 C2283 C 0.84012 0.76111 0.68924
 C2284 C 0.86028 0.76443 0.68075
 H2285 H 0.93426 0.74003 0.66153
 H2286 H 0.93877 0.82015 0.67902
 H2287 H 0.84749 0.79316 0.73540
 H2288 H 0.82845 0.75034 0.68037
 H2289 H 0.90240 0.81875 0.69126
 H2290 H 0.88288 0.79868 0.72054
 H2291 H 0.89867 0.73871 0.67542
 H2292 H 0.86374 0.75629 0.66549
 C2293 C 0.39673 0.28326 0.17495
 C2294 C 0.40542 0.26247 0.16401
 C2295 C 0.42629 0.26344 0.15688
 C2296 C 0.43883 0.28511 0.16079
 C2297 C 0.42992 0.30620 0.17115
 C2298 C 0.40898 0.30534 0.17807
 C2299 C 0.37560 0.28099 0.18456
 C2300 C 0.37242 0.28935 0.20526
 C2301 C 0.35321 0.28471 0.21531
 C2302 C 0.33696 0.27140 0.20487
 C2303 C 0.33983 0.26392 0.18389
 C2304 C 0.35900 0.26875 0.17379
 H2305 H 0.43271 0.24713 0.14857
 H2306 H 0.43932 0.32307 0.17447
 H2307 H 0.35137 0.29071 0.23148
 H2308 H 0.32736 0.25405 0.17537
 H2309 H 0.40250 0.32171 0.18624
 H2310 H 0.38510 0.29850 0.21400
 H2311 H 0.39636 0.24509 0.16164
 H2312 H 0.36099 0.26251 0.15770
 C2313 C 0.39927 0.71458 0.31546
 C2314 C 0.40687 0.73576 0.32671
 C2315 C 0.42779 0.73631 0.33381
 C2316 C 0.44150 0.71577 0.32964
 C2317 C 0.43394 0.69460 0.31836
 C2318 C 0.41295 0.69399 0.31135
 C2319 C 0.37739 0.71471 0.30724
 C2320 C 0.37330 0.70664 0.28661
 C2321 C 0.35310 0.70959 0.27793
 C2322 C 0.33678 0.72089 0.28971
 C2323 C 0.34060 0.72777 0.31069
 C2324 C 0.36075 0.72459 0.31941
 H2325 H 0.43318 0.75268 0.34276
 H2326 H 0.44431 0.67862 0.31487
 H2327 H 0.35055 0.70413 0.26171
 H2328 H 0.32814 0.73611 0.32021
 H2329 H 0.40740 0.67741 0.30277
 H2330 H 0.38593 0.69919 0.27684
 H2331 H 0.39673 0.75209 0.32974
 H2332 H 0.36345 0.73042 0.33552
 C2333 C 0.89634 0.21372 0.81125
 C2334 C 0.91311 0.22258 0.79868
 C2335 C 0.93380 0.22257 0.80648
 C2336 C 0.93794 0.21352 0.82686
 C2337 C 0.92128 0.20379 0.83915
 C2338 C 0.90056 0.20398 0.83140
 C2339 C 0.87435 0.21648 0.80389
 C2340 C 0.85919 0.22809 0.81687
 C2341 C 0.83886 0.23315 0.80924
 C2342 C 0.83339 0.22650 0.78856
 C2343 C 0.84839 0.21407 0.77583
 C2344 C 0.86878 0.20922 0.78342
 H2345 H 0.94655 0.22988 0.79674
 H2346 H 0.92420 0.19682 0.85497
 H2347 H 0.82754 0.24259 0.81942
 H2348 H 0.84458 0.20874 0.75982
 H2349 H 0.88779 0.19692 0.84123
 H2350 H 0.86332 0.23408 0.83265
 H2351 H 0.91008 0.23036 0.78314
 H2352 H 0.88030 0.20013 0.77325
 C2353 C 0.53498 1.01135 0.65511
 C2354 C 0.54122 0.99031 0.66744
 C2355 C 0.55315 0.99374 0.68579
 C2356 C 0.55935 1.01845 0.69243
 C2357 C 0.55205 1.03956 0.68038
 C2358 C 0.54010 1.03603 0.66204
 C2359 C 0.52505 1.00750 0.63413
 C2360 C 0.50878 1.02373 0.62667
 C2361 C 0.50148 1.02182 0.60588
 C2362 C 0.51059 1.00396 0.59211
 C2363 C 0.52607 0.98694 0.59995
 C2364 C 0.53315 0.98864 0.62068
 H2365 H 0.55851 0.97665 0.69385
 H2366 H 0.55521 1.05905 0.68507
 H2367 H 0.48948 1.03509 0.60033
 H2368 H 0.53335 0.97286 0.58980
 H2369 H 0.53551 1.05267 0.65287
 H2370 H 0.50208 1.03829 0.63675
 H2371 H 0.53737 0.97102 0.66257
 H2372 H 0.54584 0.97602 0.62583
 C2373 C 0.03583 0.51018 1.15319
 C2374 C 0.03869 0.53482 1.16153
 C2375 C 0.05029 0.53832 1.18012
 C2376 C 0.05941 0.51729 1.19073
 C2377 C 0.05562 0.49258 1.18291
 C2378 C 0.04389 0.48907 1.16446
 C2379 C 0.02652 0.50670 1.13184
 C2380 C 0.03580 0.48908 1.11799
 C2381 C 0.02902 0.48755 1.09716
 C2382 C 0.01277 0.50364 1.08950
 C2383 C 0.00268 0.52039 1.10355
 C2384 C 0.00956 0.52199 1.12451
 H2385 H 0.05248 0.55758 1.18595
 H2386 H 0.06246 0.47592 1.19054
 H2387 H 0.03710 0.47432 1.08683
 H2388 H -0.00988 0.53300 1.09815
 H2389 H 0.04167 0.46979 1.15868
 H2390 H 0.04909 0.47727 1.12292
 H2391 H 0.03280 0.55152 1.15322
 H2392 H 0.00191 0.53556 1.13487
 C2393 C -0.03272 -0.01541 1.15228
 C2394 C -0.03994 -0.03954 1.15883
 C2395 C -0.05240 -0.04209 1.17689
 C2396 C -0.05817 -0.02051 1.18898
 C2397 C -0.04965 0.00345 1.18291
 C2398 C -0.03719 0.00590 1.16486
 C2399 C -0.02275 -0.01209 1.13129
 C2400 C -0.02953 0.00801 1.11815
 C2401 C -0.02271 0.00947 1.09736
 C2402 C -0.00882 -0.00904 1.08916
 C2403 C -0.00097 -0.02830 1.10259
 C2404 C -0.00802 -0.02994 1.12345
 H2405 H -0.05733 -0.06119 1.18128
 H2406 H -0.05368 0.02089 1.19107
 H2407 H -0.02896 0.02463 1.08744
 H2408 H 0.00973 -0.04279 1.09670
 H2409 H -0.03164 0.02474 1.16033
 H2410 H -0.04105 0.02190 1.12358
 H2411 H -0.03674 -0.05637 1.14948
 H2412 H -0.00239 -0.04552 1.13329
 C2413 C 0.46339 0.48231 0.65178
 C2414 C 0.45902 0.50377 0.66424
 C2415 C 0.44708 0.50142 0.68267
 C2416 C 0.43892 0.47745 0.68916
 C2417 C 0.44456 0.45578 0.67712
 C2418 C 0.45657 0.45820 0.65876
 C2419 C 0.47298 0.48537 0.63057
 C2420 C 0.48777 0.46758 0.62272
 C2421 C 0.49462 0.46903 0.60178
 C2422 C 0.48651 0.48804 0.58825
 C2423 C 0.47245 0.50640 0.59641
 C2424 C 0.46584 0.50514 0.61728
 H2425 H 0.44313 0.51890 0.69081
 H2426 H 0.43989 0.43668 0.68181
 H2427 H 0.50543 0.45462 0.59592
 H2428 H 0.46598 0.52137 0.58642
 H2429 H 0.45973 0.44125 0.64954
 H2430 H 0.49366 0.45222 0.63265
 H2431 H 0.46427 0.52262 0.65936
 H2432 H 0.45424 0.51894 0.62271
 C2433 C 0.46190 0.51739 -0.15412
 C2434 C 0.45420 0.49605 -0.16518
 C2435 C 0.44281 0.49920 -0.18393
 C2436 C 0.43898 0.52377 -0.19220
 C2437 C 0.44776 0.54501 -0.18179
 C2438 C 0.45907 0.54187 -0.16296
 C2439 C 0.47091 0.51432 -0.13256
 C2440 C 0.48768 0.52985 -0.12530
 C2441 C 0.49443 0.52850 -0.10428
 C2442 C 0.48442 0.51174 -0.09007
 C2443 C 0.46824 0.49557 -0.09758
 C2444 C 0.46159 0.49685 -0.11850
 H2445 H 0.43621 0.48241 -0.19143
 H2446 H 0.44544 0.56418 -0.18794
 H2447 H 0.50691 0.54122 -0.09899
 H2448 H 0.46018 0.48238 -0.08713
 H2449 H 0.46470 0.55874 -0.15484
 H2450 H 0.49533 0.54335 -0.13579
 H2451 H 0.45644 0.47688 -0.15902
 H2452 H 0.44843 0.48490 -0.12338
 C2453 C -0.03753 1.01585 0.34581
 C2454 C -0.04575 0.99513 0.33435
 C2455 C -0.05688 0.99920 0.31559
 C2456 C -0.05994 1.02410 0.30766
 C2457 C -0.05074 1.04474 0.31854
 C2458 C -0.03966 1.04066 0.33741
 C2459 C -0.02867 1.01176 0.36730
 C2460 C -0.01120 1.02596 0.37475
 C2461 C -0.00445 1.02359 0.39572
 C2462 C -0.01526 1.00728 0.40970
 C2463 C -0.03212 0.99233 0.40194
 C2464 C -0.03872 0.99454 0.38107
 H2465 H -0.06384 0.98284 0.30777
 H2466 H -0.05246 1.06412 0.31269
 H2467 H 0.00864 1.03525 0.40117
 H2468 H -0.04077 0.97946 0.41221
 H2469 H -0.03360 1.05706 0.34587
 H2470 H -0.00298 1.03921 0.36446
 H2471 H -0.04406 0.97573 0.34019
 H2472 H -0.05239 0.98355 0.37600
 C2473 C 0.03703 0.47755 0.34863
 C2474 C 0.04415 0.49925 0.33757
 C2475 C 0.05598 0.49671 0.31915
 C2476 C 0.06077 0.47237 0.31107
 C2477 C 0.05254 0.45069 0.32144
 C2478 C 0.04088 0.45324 0.34005
 C2479 C 0.02770 0.48025 0.37002
 C2480 C 0.01144 0.46395 0.37731
 C2481 C 0.00445 0.46529 0.39824
 C2482 C 0.01375 0.48278 0.41226
 C2483 C 0.02937 0.49966 0.40465
 C2484 C 0.03626 0.49838 0.38391
 H2485 H 0.06209 0.51387 0.31174
 H2486 H 0.05545 0.43167 0.31542
 H2487 H -0.00758 0.45201 0.40363
 H2488 H 0.03686 0.51345 0.41495
 H2489 H 0.03571 0.43610 0.34817
 H2490 H 0.00438 0.44991 0.36695
 H2491 H 0.04112 0.51830 0.34349
 H2492 H 0.04905 0.51093 0.37905
 C2493 C 0.53933 -0.01523 -0.14800
 C2494 C 0.54113 -0.03989 -0.15658
 C2495 C 0.55220 -0.04377 -0.17536
 C2496 C 0.56177 -0.02309 -0.18596
 C2497 C 0.55921 0.00167 -0.17778
 C2498 C 0.54805 0.00555 -0.15912
 C2499 C 0.53034 -0.01147 -0.12662
 C2500 C 0.54047 0.00528 -0.11261
 C2501 C 0.53379 0.00710 -0.09181
 C2502 C 0.51679 -0.00784 -0.08435
 C2503 C 0.50585 -0.02361 -0.09859
 C2504 C 0.51266 -0.02557 -0.11951
 H2505 H 0.55351 -0.06303 -0.18143
 H2506 H 0.56649 0.01803 -0.18538
 H2507 H 0.54255 0.01960 -0.08137
 H2508 H 0.49258 -0.03513 -0.09341
 H2509 H 0.54667 0.02484 -0.15312
 H2510 H 0.55429 0.01617 -0.11740
 H2511 H 0.53475 -0.05634 -0.14834
 H2512 H 0.50435 -0.03843 -0.13001
 C2513 C 0.64143 0.60186 -0.00148
 C2514 C 0.64352 0.61994 0.01469
 C2515 C 0.66348 0.62949 0.02055
 C2516 C 0.68238 0.62108 0.01067
 C2517 C 0.68006 0.60283 -0.00562
 C2518 C 0.66001 0.59354 -0.01159
 C2519 C 0.62002 0.59123 -0.00714
 C2520 C 0.61756 0.56531 -0.01280
 C2521 C 0.59725 0.55476 -0.01577
 C2522 C 0.57900 0.56982 -0.01303
 C2523 C 0.58135 0.59584 -0.00827
 C2524 C 0.60160 0.60651 -0.00566
 H2525 H 0.66364 0.64412 0.03248
 H2526 H 0.69367 0.59468 -0.01347
 H2527 H 0.59574 0.53448 -0.01889
 H2528 H 0.56744 0.60768 -0.00575
 H2529 H 0.65913 0.57971 -0.02419
 H2530 H 0.63124 0.55279 -0.01382
 H2531 H 0.62969 0.62664 0.02313
 H2532 H 0.60277 0.62664 -0.00187
 C2533 C 0.14245 1.09277 0.49922
 C2534 C 0.15427 1.10578 0.48376
 C2535 C 0.17345 1.11806 0.48896
 C2536 C 0.18126 1.11772 0.50977
 C2537 C 0.16929 1.10492 0.52519
 C2538 C 0.15018 1.09279 0.52003
 C2539 C 0.12214 1.07918 0.49404
 C2540 C 0.11699 1.05631 0.50458
 C2541 C 0.09698 1.04512 0.50215
 C2542 C 0.08165 1.05612 0.48877
 C2543 C 0.08712 1.07792 0.47700
 C2544 C 0.10720 1.08943 0.47966
 H2545 H 0.18209 1.12796 0.47668
 H2546 H 0.17486 1.10387 0.54130
 H2547 H 0.09315 1.02829 0.51139
 H2548 H 0.07545 1.08694 0.46682
 H2549 H 0.14137 1.08349 0.53251
 H2550 H 0.12824 1.04735 0.51525
 H2551 H 0.14887 1.10614 0.46758
 H2552 H 0.11057 1.10706 0.47133
 C2553 C 0.14788 -0.09305 0.99849
 C2554 C 0.15600 -0.09206 0.97789
 C2555 C 0.17519 -0.10404 0.97279
 C2556 C 0.18682 -0.11776 0.98804
 C2557 C 0.17861 -0.11910 1.00862
 C2558 C 0.15939 -0.10690 1.01378
 C2559 C 0.12753 -0.07958 1.00364
 C2560 C 0.11239 -0.09034 1.01744
 C2561 C 0.09234 -0.07878 1.02014
 C2562 C 0.08708 -0.05642 1.00895
 C2563 C 0.10257 -0.04498 0.99615
 C2564 C 0.12256 -0.05621 0.99372
 H2565 H 0.18106 -0.10216 0.95688
 H2566 H 0.18697 -0.12971 1.02076
 H2567 H 0.08054 -0.08812 1.02987
 H2568 H 0.09891 -0.02768 0.98740
 H2569 H 0.15372 -0.10802 1.02981
 H2570 H 0.11559 -0.10837 1.02530
 H2571 H 0.14743 -0.08210 0.96552
 H2572 H 0.13396 -0.04686 0.98353
 C2573 C 0.64291 0.40174 0.49890
 C2574 C 0.64939 0.39796 0.47802
 C2575 C 0.66871 0.38601 0.47340
 C2576 C 0.68246 0.37713 0.48950
 C2577 C 0.67548 0.38038 0.51053
 C2578 C 0.65603 0.39241 0.51510
 C2579 C 0.62275 0.41594 0.50334
 C2580 C 0.60850 0.40810 0.51922
 C2581 C 0.58859 0.42023 0.52149
 C2582 C 0.58266 0.44025 0.50785
 C2583 C 0.59744 0.44894 0.49291
 C2584 C 0.61719 0.43710 0.49077
 H2585 H 0.67307 0.38510 0.45700
 H2586 H 0.68463 0.37315 0.52369
 H2587 H 0.57743 0.41303 0.53301
 H2588 H 0.59339 0.46449 0.48229
 H2589 H 0.65148 0.39485 0.53138
 H2590 H 0.61228 0.39185 0.52917
 H2591 H 0.63953 0.40450 0.46506
 H2592 H 0.62796 0.44419 0.47884
 C2593 C -0.14461 0.39952 0.50278
 C2594 C -0.15627 0.38596 0.48756
 C2595 C -0.17572 0.37431 0.49273
 C2596 C -0.18398 0.37588 0.51327
 C2597 C -0.17208 0.38903 0.52853
 C2598 C -0.15269 0.40054 0.52340
 C2599 C -0.12420 0.41282 0.49749
 C2600 C -0.11922 0.43622 0.50715
 C2601 C -0.09926 0.44741 0.50452
 C2602 C -0.08377 0.43589 0.49183
 C2603 C -0.08904 0.41346 0.48091
 C2604 C -0.10910 0.40196 0.48375
 H2605 H -0.18427 0.36406 0.48061
 H2606 H -0.17796 0.39095 0.54442
 H2607 H -0.09559 0.46472 0.51311
 H2608 H -0.07725 0.40402 0.47127
 H2609 H -0.14399 0.41029 0.53570
 H2610 H -0.13061 0.44565 0.51725
 H2611 H -0.15060 0.38478 0.47153
 H2612 H -0.11236 0.38394 0.47605
 C2613 C 0.35970 -0.09627 0.00276
 C2614 C 0.34804 -0.10788 -0.01355
 C2615 C 0.32864 -0.12026 -0.00940
 C2616 C 0.32034 -0.12134 0.01116
 C2617 C 0.33217 -0.10997 0.02743
 C2618 C 0.35155 -0.09785 0.02334
 C2619 C 0.38015 -0.08236 -0.00130
 C2620 C 0.38533 -0.06061 0.01062
 C2621 C 0.40527 -0.04908 0.00887
 C2622 C 0.42055 -0.05849 -0.00518
 C2623 C 0.41508 -0.07912 -0.01821
 C2624 C 0.39508 -0.09106 -0.01621
 H2625 H 0.32017 -0.12908 -0.02233
 H2626 H 0.32630 -0.10997 0.04341
 H2627 H 0.40902 -0.03310 0.01904
 H2628 H 0.42667 -0.08693 -0.02900
 H2629 H 0.36021 -0.08974 0.03645
 H2630 H 0.37411 -0.05275 0.02174
 H2631 H 0.35371 -0.10703 -0.02959
 H2632 H 0.39173 -0.10779 -0.02563
 C2633 C 0.35343 1.09173 0.50210
 C2634 C 0.34557 1.09132 0.48134
 C2635 C 0.32658 1.10373 0.47598
 C2636 C 0.31490 1.11723 0.49114
 C2637 C 0.32283 1.11793 0.51189
 C2638 C 0.34186 1.10536 0.51730
 C2639 C 0.37367 1.07802 0.50749
 C2640 C 0.38881 1.08854 0.52144
 C2641 C 0.40885 1.07692 0.52421
 C2642 C 0.41409 1.05473 0.51296
 C2643 C 0.39857 1.04350 0.50005
 C2644 C 0.37859 1.05479 0.49753
 H2645 H 0.32090 1.10240 0.45993
 H2646 H 0.31438 1.12836 0.52395
 H2647 H 0.42068 1.08612 0.53402
 H2648 H 0.40225 1.02637 0.49122
 H2649 H 0.34735 1.10602 0.53344
 H2650 H 0.38562 1.10645 0.52931
 H2651 H 0.35419 1.08152 0.46906
 H2652 H 0.36719 1.04565 0.48722
 C2653 C -0.14459 0.59196 1.00079
 C2654 C -0.15272 0.59210 0.98012
 C2655 C -0.17193 0.60431 0.97527
 C2656 C -0.18358 0.61712 0.99085
 C2657 C -0.17535 0.61737 1.01150
 C2658 C -0.15610 0.60496 1.01641
 C2659 C -0.12420 0.57826 1.00565
 C2660 C -0.10906 0.58825 1.01986
 C2661 C -0.08897 0.57660 1.02228
 C2662 C -0.08367 0.55493 1.01040
 C2663 C -0.09917 0.54422 0.99717
 C2664 C -0.11919 0.55551 0.99500
 H2665 H -0.17780 0.60333 0.95927
 H2666 H -0.18373 0.62730 1.02387
 H2667 H -0.07718 0.58539 1.03239
 H2668 H -0.09549 0.52746 0.98788
 H2669 H -0.15042 0.60521 1.03250
 H2670 H -0.11229 0.60578 1.02828
 H2671 H -0.14416 0.58284 0.96752
 H2672 H -0.13058 0.54673 0.98447
 C2673 C -0.00203 0.62690 0.60185
 C2674 C 0.00764 0.62422 0.62170
 C2675 C 0.00984 0.64524 0.63483
 C2676 C 0.00303 0.66956 0.62816
 C2677 C -0.00833 0.67189 0.60922
 C2678 C -0.01103 0.65066 0.59626
 C2679 C -0.00087 0.60576 0.58643
 C2680 C 0.00168 0.61111 0.56485
 C2681 C 0.00398 0.59128 0.55045
 C2682 C 0.00451 0.56587 0.55745
 C2683 C 0.00220 0.56038 0.57889
 C2684 C -0.00081 0.58010 0.59322
 H2685 H 0.01817 0.64280 0.64965
 H2686 H -0.01386 0.69038 0.60371
 H2687 H 0.00556 0.59576 0.53388
 H2688 H 0.00194 0.54077 0.58442
 H2689 H -0.01928 0.65318 0.58142
 H2690 H 0.00228 0.63059 0.55906
 H2691 H 0.01480 0.60633 0.62664
 H2692 H -0.00323 0.57517 0.60958
 C2693 C 0.50543 0.12960 0.10755
 C2694 C 0.51439 0.12740 0.12774
 C2695 C 0.51538 0.14858 0.14090
 C2696 C 0.50809 0.17259 0.13388
 C2697 C 0.49759 0.17431 0.11440
 C2698 C 0.49603 0.15293 0.10149
 C2699 C 0.50732 0.10834 0.09233
 C2700 C 0.51035 0.11363 0.07082
 C2701 C 0.51224 0.09378 0.05643
 C2702 C 0.51186 0.06834 0.06336
 C2703 C 0.50948 0.06288 0.08479
 C2704 C 0.50695 0.08271 0.09916
 H2705 H 0.52295 0.14645 0.15613
 H2706 H 0.49176 0.19245 0.10846
 H2707 H 0.51397 0.09824 0.03987
 H2708 H 0.50862 0.04327 0.09027
 H2709 H 0.48826 0.15503 0.08636
 H2710 H 0.51138 0.13311 0.06505
 H2711 H 0.52176 0.10977 0.13302
 H2712 H 0.50430 0.07789 0.11551
 C2713 C 0.00228 0.13318 0.89676
 C2714 C 0.00908 0.15802 0.90192
 C2715 C 0.00596 0.17824 0.88784
 C2716 C -0.00363 0.17387 0.86821
 C2717 C -0.00840 0.14868 0.86227
 C2718 C -0.00581 0.12863 0.87649
 C2719 C 0.00194 0.11255 0.91284
 C2720 C 0.00452 0.08683 0.90691
 C2721 C 0.00224 0.06729 0.92167
 C2722 C -0.00203 0.07309 0.94269
 C2723 C -0.00398 0.09861 0.94893
 C2724 C -0.00236 0.11821 0.93405
 H2725 H 0.00985 0.19744 0.89288
 H2726 H -0.01529 0.14464 0.84701
 H2727 H 0.00447 0.04764 0.91681
 H2728 H -0.00709 0.10330 0.96521
 H2729 H -0.01135 0.10987 0.87189
 H2730 H 0.00838 0.08173 0.89090
 H2731 H 0.01602 0.16208 0.91714
 H2732 H -0.00493 0.13770 0.93914
 C2733 C 0.50282 0.63048 0.39653
 C2734 C 0.51061 0.65472 0.40223
 C2735 C 0.50880 0.67540 0.38841
 C2736 C 0.49954 0.67208 0.36849
 C2737 C 0.49401 0.64733 0.36195
 C2738 C 0.49533 0.62682 0.37591
 C2739 C 0.50074 0.60976 0.41239
 C2740 C 0.50226 0.58394 0.40641
 C2741 C 0.49874 0.56452 0.42103
 C2742 C 0.49425 0.57049 0.44197
 C2743 C 0.49314 0.59607 0.44823
 C2744 C 0.49598 0.61559 0.43348
 H2745 H 0.51326 0.69424 0.39389
 H2746 H 0.48730 0.64414 0.34647
 H2747 H 0.50037 0.54478 0.41619
 H2748 H 0.48993 0.60090 0.46447
 H2749 H 0.48915 0.60853 0.37086
 H2750 H 0.50640 0.57866 0.39051
 H2751 H 0.51721 0.65802 0.41773
 H2752 H 0.49414 0.63518 0.43859
 C2753 C 0.49562 0.87162 0.39593
 C2754 C 0.48703 0.84744 0.40071
 C2755 C 0.48997 0.82696 0.38705
 C2756 C 0.50112 0.83049 0.36818
 C2757 C 0.50722 0.85531 0.36221
 C2758 C 0.50480 0.87561 0.37606
 C2759 C 0.49709 0.89169 0.41226
 C2760 C 0.49681 0.91778 0.40671
 C2761 C 0.50000 0.93647 0.42193
 C2762 C 0.50292 0.92946 0.44302
 C2763 C 0.50281 0.90360 0.44878
 C2764 C 0.50030 0.88484 0.43349
 H2765 H 0.48497 0.80809 0.39207
 H2766 H 0.51528 0.85869 0.34743
 H2767 H 0.49937 0.95646 0.41739
 H2768 H 0.50482 0.89797 0.46509
 H2769 H 0.51157 0.89390 0.37171
 H2770 H 0.49394 0.92383 0.39065
 H2771 H 0.47906 0.84397 0.41551
 H2772 H 0.50123 0.86499 0.43833
 C2773 C -0.00751 0.37290 0.89263
 C2774 C -0.01640 0.34895 0.89769
 C2775 C -0.01460 0.32850 0.88380
 C2776 C -0.00432 0.33186 0.86444
 C2777 C 0.00170 0.35660 0.85818
 C2778 C 0.00046 0.37685 0.87225
 C2779 C -0.00440 0.39261 0.90908
 C2780 C -0.00399 0.41880 0.90383
 C2781 C 0.00051 0.43704 0.91913
 C2782 C 0.00402 0.42952 0.94001
 C2783 C 0.00344 0.40358 0.94545
 C2784 C -0.00034 0.38524 0.93006
 H2785 H -0.01960 0.30970 0.88902
 H2786 H 0.00907 0.35985 0.84303
 H2787 H 0.00025 0.45712 0.91485
 H2788 H 0.00593 0.39756 0.96160
 H2789 H 0.00734 0.39497 0.86759
 H2790 H -0.00741 0.42533 0.88801
 H2791 H -0.02359 0.34555 0.91289
 H2792 H 0.00016 0.36529 0.93465
 C2793 C 0.50540 0.37489 0.10376
 C2794 C 0.51501 0.35137 0.09874
 C2795 C 0.51206 0.33001 0.11163
 C2796 C 0.49982 0.33201 0.12996
 C2797 C 0.49254 0.35618 0.13628
 C2798 C 0.49504 0.37734 0.12320
 C2799 C 0.50398 0.39575 0.08795
 C2800 C 0.50303 0.42151 0.09423
 C2801 C 0.49957 0.44082 0.07943
 C2802 C 0.49762 0.43479 0.05808
 C2803 C 0.49903 0.40930 0.05163
 C2804 C 0.50182 0.38989 0.06646
 H2805 H 0.51800 0.31165 0.10643
 H2806 H 0.48355 0.35835 0.15066
 H2807 H 0.49913 0.46053 0.08454
 H2808 H 0.49768 0.40441 0.03514
 H2809 H 0.48747 0.39507 0.12772
 H2810 H 0.50502 0.42683 0.11054
 H2811 H 0.52381 0.34906 0.08427
 H2812 H 0.50185 0.37028 0.06104
 C2813 C -0.00260 0.87145 0.60414
 C2814 C 0.00653 0.84796 0.59829
 C2815 C 0.00513 0.82673 0.61152
 C2816 C -0.00498 0.82874 0.63110
 C2817 C -0.01188 0.85290 0.63791
 C2818 C -0.01100 0.87396 0.62447
 C2819 C -0.00493 0.89243 0.58856
 C2820 C -0.00443 0.91821 0.59484
 C2821 C -0.00724 0.93775 0.58010
 C2822 C -0.01008 0.93183 0.55882
 C2823 C -0.01074 0.90627 0.55244
 C2824 C -0.00855 0.88672 0.56722
 H2825 H 0.01066 0.80845 0.60574
 H2826 H -0.01916 0.85520 0.65320
 H2827 H -0.00621 0.95749 0.58513
 H2828 H -0.01287 0.90147 0.53601
 H2829 H -0.01813 0.89171 0.62961
 H2830 H -0.00140 0.92336 0.61104
 H2831 H 0.01392 0.84564 0.58306
 H2832 H -0.00979 0.86715 0.56188
 C2833 C 0.26672 0.31494 0.09835
 C2834 C 0.28680 0.31992 0.08975
 C2835 C 0.28884 0.33405 0.07114
 C2836 C 0.27083 0.34404 0.06040
 C2837 C 0.25061 0.33790 0.06869
 C2838 C 0.24863 0.32369 0.08735
 C2839 C 0.26477 0.30207 0.11931
 C2840 C 0.24953 0.31061 0.13377
 C2841 C 0.24841 0.30001 0.15392
 C2842 C 0.26254 0.28051 0.16038
 C2843 C 0.27757 0.27152 0.14583
 C2844 C 0.27869 0.28222 0.12554
 H2845 H 0.30477 0.33653 0.06511
 H2846 H 0.23613 0.34506 0.06157
 H2847 H 0.23657 0.30752 0.16458
 H2848 H 0.28869 0.25657 0.15023
 H2849 H 0.23284 0.31984 0.09333
 H2850 H 0.23882 0.32615 0.12976
 H2851 H 0.30111 0.31347 0.09768
 H2852 H 0.29054 0.27501 0.11476
 C2853 C 0.76376 0.81541 0.59978
 C2854 C 0.78305 0.81556 0.58866
 C2855 C 0.78492 0.82910 0.56971
 C2856 C 0.76761 0.84304 0.56137
 C2857 C 0.74805 0.84196 0.57197
 C2858 C 0.74614 0.82829 0.59089
 C2859 C 0.76237 0.80333 0.62111
 C2860 C 0.75028 0.81507 0.63690
 C2861 C 0.74936 0.80465 0.65712
 C2862 C 0.76061 0.78215 0.66236
 C2863 C 0.77278 0.77030 0.64664
 C2864 C 0.77364 0.78076 0.62624
 H2865 H 0.80012 0.82900 0.56174
 H2866 H 0.73439 0.85241 0.56606
 H2867 H 0.73991 0.81455 0.66873
 H2868 H 0.78162 0.75297 0.65006
 H2869 H 0.73088 0.82815 0.59873
 H2870 H 0.74183 0.83277 0.63381
 H2871 H 0.79698 0.80600 0.59496
 H2872 H 0.78303 0.77108 0.61446
 C2873 C 0.23231 0.67789 0.59994
 C2874 C 0.22657 0.65190 0.60023
 C2875 C 0.22509 0.63798 0.58159
 C2876 C 0.22953 0.64957 0.56212
 C2877 C 0.23541 0.67555 0.56173
 C2878 C 0.23658 0.68967 0.58047
 C2879 C 0.23477 0.69190 0.62014
 C2880 C 0.22542 0.71605 0.62349
 C2881 C 0.22702 0.72805 0.64324
 C2882 C 0.23830 0.71625 0.65983
 C2883 C 0.24795 0.69234 0.65609
 C2884 C 0.24615 0.68037 0.63664
 H2885 H 0.22057 0.61800 0.58239
 H2886 H 0.23874 0.68499 0.54692
 H2887 H 0.21942 0.74643 0.64553
 H2888 H 0.25678 0.68249 0.66834
 H2889 H 0.24118 0.70962 0.57981
 H2890 H 0.21647 0.72531 0.61102
 H2891 H 0.22311 0.64234 0.61497
 H2892 H 0.25371 0.66194 0.63447
 C2893 C 0.73543 0.18636 0.10178
 C2894 C 0.72126 0.16577 0.10098
 C2895 C 0.72024 0.15003 0.08329
 C2896 C 0.73317 0.15452 0.06537
 C2897 C 0.74762 0.17527 0.06656
 C2898 C 0.74873 0.19085 0.08447
 C2899 C 0.73719 0.20192 0.12124
 C2900 C 0.71895 0.21165 0.13126
 C2901 C 0.72058 0.22398 0.15078
 C2902 C 0.74044 0.22635 0.16075
 C2903 C 0.75869 0.21727 0.15041
 C2904 C 0.75711 0.20543 0.13080
 H2905 H 0.70974 0.13374 0.08439
 H2906 H 0.75772 0.18042 0.05351
 H2907 H 0.70626 0.23051 0.15854
 H2908 H 0.77421 0.21882 0.15776
 H2909 H 0.75983 0.20669 0.08469
 H2910 H 0.70339 0.20926 0.12415
 H2911 H 0.71138 0.16129 0.11443
 H2912 H 0.77137 0.19793 0.12355
 C2913 C 0.76638 0.18162 0.90349
 C2914 C 0.74903 0.16866 0.91265
 C2915 C 0.75123 0.15588 0.93198
 C2916 C 0.77083 0.15576 0.94269
 C2917 C 0.78785 0.16975 0.93401
 C2918 C 0.78568 0.18242 0.91468
 C2919 C 0.76469 0.19296 0.88189
 C2920 C 0.77525 0.21585 0.87644
 C2921 C 0.77393 0.22584 0.85590
 C2922 C 0.76199 0.21321 0.84035
 C2923 C 0.75162 0.19024 0.84586
 C2924 C 0.75297 0.18030 0.86624
 H2925 H 0.73778 0.14537 0.93817
 H2926 H 0.80306 0.17060 0.94203
 H2927 H 0.78208 0.24356 0.85228
 H2928 H 0.74240 0.17974 0.83437
 H2929 H 0.79940 0.19208 0.90817
 H2930 H 0.78432 0.22623 0.88811
 H2931 H 0.73376 0.16811 0.90474
 H2932 H 0.74506 0.16236 0.86962
 C2933 C 0.26452 0.67921 0.39974
 C2934 C 0.24659 0.66734 0.40878
 C2935 C 0.24817 0.65419 0.42799
 C2936 C 0.26771 0.65259 0.43872
 C2937 C 0.28538 0.66553 0.43018
 C2938 C 0.28383 0.67854 0.41094
 C2939 C 0.26338 0.69080 0.37821
 C2940 C 0.27509 0.71288 0.37281
 C2941 C 0.27439 0.72293 0.35227
 C2942 C 0.26195 0.71113 0.33665
 C2943 C 0.25028 0.68910 0.34216
 C2944 C 0.25102 0.67909 0.36253
 H2945 H 0.23423 0.64451 0.43404
 H2946 H 0.30059 0.66527 0.43823
 H2947 H 0.28355 0.73992 0.34864
 H2948 H 0.24059 0.67925 0.33064
 H2949 H 0.29800 0.68729 0.40450
 H2950 H 0.28469 0.72252 0.38451
 H2951 H 0.23132 0.66788 0.40085
 H2952 H 0.24221 0.66176 0.36585
 C2953 C 0.73427 0.82701 0.39790
 C2954 C 0.72804 0.85283 0.39871
 C2955 C 0.72647 0.86553 0.41793
 C2956 C 0.73133 0.85286 0.43687
 C2957 C 0.73785 0.82711 0.43614
 C2958 C 0.73908 0.81421 0.41684
 C2959 C 0.73632 0.81408 0.37718
 C2960 C 0.72757 0.78971 0.37345
 C2961 C 0.72879 0.77854 0.35339
 C2962 C 0.73913 0.79137 0.33681
 C2963 C 0.74817 0.81553 0.34085
 C2964 C 0.74670 0.82671 0.36066
 H2965 H 0.72145 0.88536 0.41799
 H2966 H 0.74153 0.81684 0.45053
 H2967 H 0.72168 0.75993 0.35086
 H2968 H 0.75627 0.82611 0.32858
 H2969 H 0.74405 0.79436 0.41667
 H2970 H 0.71936 0.77959 0.38591
 H2971 H 0.72413 0.86317 0.38441
 H2972 H 0.75379 0.84536 0.36308
 C2973 C 0.23398 0.31970 0.89998
 C2974 C 0.21486 0.32032 0.91136
 C2975 C 0.21364 0.33330 0.93054
 C2976 C 0.23144 0.34623 0.93883
 C2977 C 0.25081 0.34462 0.92795
 C2978 C 0.25207 0.33148 0.90881
 C2979 C 0.23473 0.30825 0.87846
 C2980 C 0.24685 0.32005 0.86264
 C2981 C 0.24725 0.31020 0.84228
 C2982 C 0.23544 0.28825 0.83691
 C2983 C 0.22322 0.27637 0.85267
 C2984 C 0.22288 0.28626 0.87320
 H2985 H 0.19857 0.33354 0.93873
 H2986 H 0.26485 0.35427 0.93382
 H2987 H 0.25680 0.32008 0.83067
 H2988 H 0.21398 0.25943 0.84916
 H2989 H 0.26721 0.33090 0.90076
 H2990 H 0.25576 0.33733 0.86585
 H2991 H 0.20058 0.31158 0.90512
 H2992 H 0.21347 0.27655 0.88501
 C2993 C 0.86115 0.38742 0.75831
 C2994 C 0.87540 0.39730 0.77325
 C2995 C 0.89116 0.41483 0.76717
 C2996 C 0.89315 0.42246 0.74599
 C2997 C 0.87937 0.41175 0.73100
 C2998 C 0.86355 0.39453 0.73710
 C2999 C 0.84321 0.37051 0.76452
 C3000 C 0.82280 0.37551 0.75649
 C3001 C 0.80637 0.35798 0.75934
 C3002 C 0.80987 0.33490 0.77027
 C3003 C 0.82979 0.33074 0.77984
 C3004 C 0.84637 0.34849 0.77700
 H3005 H 0.90168 0.42261 0.77905
 H3006 H 0.88035 0.41738 0.71462
 H3007 H 0.79112 0.36186 0.75198
 H3008 H 0.83297 0.31304 0.78821
 H3009 H 0.85296 0.38693 0.72519
 H3010 H 0.81977 0.39262 0.74726
 H3011 H 0.87391 0.39210 0.78968
 H3012 H 0.86196 0.34428 0.78346
 C3013 C 0.36725 0.88237 0.25791
 C3014 C 0.37686 0.89729 0.27350
 C3015 C 0.39202 0.91586 0.26807
 C3016 C 0.39822 0.91971 0.24687
 C3017 C 0.38915 0.90349 0.23155
 C3018 C 0.37382 0.88534 0.23700
 C3019 C 0.34912 0.86524 0.26272
 C3020 C 0.32999 0.86877 0.25172
 C3021 C 0.31360 0.85102 0.25350
 C3022 C 0.31594 0.82905 0.26617
 C3023 C 0.33450 0.82634 0.27842
 C3024 C 0.35101 0.84444 0.27675
 H3025 H 0.39901 0.92689 0.28067
 H3026 H 0.39260 0.90578 0.21501
 H3027 H 0.29942 0.85383 0.24402
 H3028 H 0.33679 0.80953 0.28819
 H3029 H 0.36656 0.87400 0.22468
 H3030 H 0.32804 0.88488 0.24110
 H3031 H 0.37210 0.89522 0.28977
 H3032 H 0.36566 0.84143 0.28542
 C3033 C 0.13505 0.89081 0.73996
 C3034 C 0.12038 0.90080 0.72538
 C3035 C 0.10508 0.91875 0.73175
 C3036 C 0.10394 0.92665 0.75288
 C3037 C 0.11814 0.91583 0.76752
 C3038 C 0.13353 0.89823 0.76113
 C3039 C 0.15253 0.87341 0.73342
 C3040 C 0.17330 0.87823 0.74049
 C3041 C 0.18937 0.86022 0.73759
 C3042 C 0.18512 0.83684 0.72758
 C3043 C 0.16481 0.83279 0.71888
 C3044 C 0.14859 0.85104 0.72175
 H3045 H 0.09426 0.92667 0.72012
 H3046 H 0.11785 0.92167 0.78384
 H3047 H 0.20490 0.86387 0.74439
 H3048 H 0.16106 0.81478 0.71137
 H3049 H 0.14449 0.89058 0.77275
 H3050 H 0.17689 0.89550 0.74917
 H3051 H 0.12119 0.89535 0.70899
 H3052 H 0.13269 0.84693 0.71610
 C3053 C 0.63856 0.39658 0.24379
 C3054 C 0.63534 0.40347 0.26489
 C3055 C 0.61922 0.42058 0.27039
 C3056 C 0.60594 0.43140 0.25492
 C3057 C 0.60880 0.42405 0.23382
 C3058 C 0.62487 0.40665 0.22833
 C3059 C 0.65666 0.37953 0.23824
 C3060 C 0.65398 0.35820 0.22503
 C3061 C 0.67058 0.34038 0.22247
 C3062 C 0.69005 0.34379 0.23305
 C3063 C 0.69310 0.36616 0.24488
 C3064 C 0.67665 0.38375 0.24745
 H3065 H 0.61761 0.42598 0.28673
 H3066 H 0.59870 0.43191 0.22157
 H3067 H 0.66774 0.32323 0.21339
 H3068 H 0.70798 0.36944 0.25309
 H3069 H 0.62700 0.40168 0.21196
 H3070 H 0.63871 0.35452 0.21771
 H3071 H 0.64547 0.39576 0.27720
 H3072 H 0.67936 0.40034 0.25726
 C3073 C 0.63496 0.61793 0.25716
 C3074 C 0.62065 0.60795 0.27198
 C3075 C 0.60520 0.59004 0.26587
 C3076 C 0.60355 0.58217 0.24476
 C3077 C 0.61737 0.59298 0.22988
 C3078 C 0.63291 0.61054 0.23601
 C3079 C 0.65262 0.63525 0.26342
 C3080 C 0.67320 0.63040 0.25595
 C3081 C 0.68935 0.64835 0.25862
 C3082 C 0.68538 0.67167 0.26883
 C3083 C 0.66530 0.67573 0.27791
 C3084 C 0.64900 0.65756 0.27525
 H3085 H 0.59468 0.58212 0.27767
 H3086 H 0.61668 0.58714 0.21357
 H3087 H 0.70471 0.64467 0.25155
 H3088 H 0.66176 0.69369 0.28558
 H3089 H 0.64357 0.61817 0.22421
 H3090 H 0.67655 0.61314 0.24718
 H3091 H 0.62188 0.61336 0.28836
 H3092 H 0.63326 0.66167 0.28124
 C3093 C 0.13047 0.11658 0.75493
 C3094 C 0.12848 0.10898 0.73382
 C3095 C 0.11333 0.09085 0.72784
 C3096 C 0.09983 0.07969 0.74284
 C3097 C 0.10135 0.08785 0.76389
 C3098 C 0.11641 0.10630 0.76985
 C3099 C 0.14796 0.13421 0.76111
 C3100 C 0.14420 0.15634 0.77313
 C3101 C 0.16040 0.17463 0.77594
 C3102 C 0.18051 0.17087 0.76684
 C3103 C 0.18458 0.14775 0.75638
 C3104 C 0.16855 0.12970 0.75354
 H3105 H 0.11277 0.08478 0.71159
 H3106 H 0.09108 0.07965 0.77578
 H3107 H 0.15676 0.19242 0.78384
 H3108 H 0.19996 0.14429 0.74926
 H3109 H 0.11760 0.11183 0.78620
 H3110 H 0.12844 0.16022 0.77917
 H3111 H 0.13895 0.11683 0.72194
 H3112 H 0.17203 0.11257 0.74464
 C3113 C 0.36642 0.10794 0.24374
 C3114 C 0.36819 0.10022 0.26489
 C3115 C 0.38360 0.08244 0.27117
 C3116 C 0.39760 0.07179 0.25644
 C3117 C 0.39623 0.07999 0.23533
 C3118 C 0.38089 0.09806 0.22907
 C3119 C 0.34891 0.12552 0.23727
 C3120 C 0.35271 0.14756 0.22502
 C3121 C 0.33655 0.16592 0.22200
 C3122 C 0.31645 0.16233 0.23117
 C3123 C 0.31230 0.13928 0.24185
 C3124 C 0.32830 0.12113 0.24486
 H3125 H 0.38405 0.07633 0.28746
 H3126 H 0.40689 0.07218 0.22365
 H3127 H 0.34022 0.18365 0.21393
 H3128 H 0.29691 0.13596 0.24900
 H3129 H 0.37988 0.10368 0.21269
 H3130 H 0.36847 0.15137 0.21894
 H3131 H 0.35742 0.10776 0.27660
 H3132 H 0.32477 0.10406 0.25392
 C3133 C 0.86568 0.61018 0.74408
 C3134 C 0.86814 0.60269 0.76523
 C3135 C 0.88370 0.58492 0.77114
 C3136 C 0.89715 0.57404 0.75603
 C3137 C 0.89519 0.58215 0.73494
 C3138 C 0.87970 0.60020 0.72904
 C3139 C 0.84781 0.62741 0.73801
 C3140 C 0.85099 0.64949 0.72561
 C3141 C 0.83446 0.66742 0.72286
 C3142 C 0.81461 0.66338 0.73244
 C3143 C 0.81109 0.64030 0.74331
 C3144 C 0.82745 0.62257 0.74605
 H3145 H 0.88461 0.57892 0.78743
 H3146 H 0.90544 0.57419 0.72297
 H3147 H 0.83765 0.68518 0.71462
 H3148 H 0.79591 0.63660 0.75076
 H3149 H 0.87815 0.60564 0.71266
 H3150 H 0.86654 0.65360 0.71917
 H3151 H 0.85772 0.61033 0.77720
 H3152 H 0.82440 0.60546 0.75523
 C3153 C 0.89244 0.75065 0.19736
 C3154 C 0.90993 0.73921 0.20736
 C3155 C 0.93057 0.74615 0.20195
 C3156 C 0.93445 0.76426 0.18584
 C3157 C 0.91667 0.77590 0.17605
 C3158 C 0.89603 0.76931 0.18185
 C3159 C 0.87050 0.74391 0.20362
 C3160 C 0.85391 0.74389 0.18872
 C3161 C 0.83290 0.74055 0.19511
 C3162 C 0.82822 0.73657 0.21641
 C3163 C 0.84486 0.73486 0.23110
 C3164 C 0.86578 0.73877 0.22481
 H3165 H 0.94332 0.73748 0.21093
 H3166 H 0.91831 0.78927 0.16316
 H3167 H 0.82027 0.74183 0.18351
 H3168 H 0.84160 0.73221 0.24768
 H3169 H 0.88287 0.77893 0.17413
 H3170 H 0.85708 0.74709 0.17220
 H3171 H 0.90776 0.72473 0.21938
 H3172 H 0.87808 0.73905 0.23676
 C3173 C 0.38858 0.25289 0.69943
 C3174 C 0.39233 0.26771 0.68132
 C3175 C 0.41302 0.27390 0.67543
 C3176 C 0.43039 0.26607 0.68785
 C3177 C 0.42655 0.25224 0.70644
 C3178 C 0.40596 0.24530 0.71194
 C3179 C 0.36662 0.24595 0.70556
 C3180 C 0.36115 0.24407 0.72692
 C3181 C 0.34028 0.23922 0.73280
 C3182 C 0.32434 0.23698 0.71749
 C3183 C 0.32968 0.23806 0.69615
 C3184 C 0.35075 0.24209 0.69021
 H3185 H 0.41533 0.28425 0.66084
 H3186 H 0.43950 0.24637 0.71666
 H3187 H 0.33636 0.23897 0.74939
 H3188 H 0.31750 0.23635 0.68413
 H3189 H 0.40378 0.23364 0.72587
 H3190 H 0.37273 0.24747 0.73922
 H3191 H 0.37932 0.27455 0.67162
 H3192 H 0.35447 0.24266 0.67361
 C3193 C 0.39232 0.76294 0.80088
 C3194 C 0.41024 0.77099 0.78950
 C3195 C 0.43048 0.76257 0.79519
 C3196 C 0.43335 0.74664 0.81283
 C3197 C 0.41548 0.73908 0.82451
 C3198 C 0.39518 0.74685 0.81843
 C3199 C 0.37063 0.76979 0.79368
 C3200 C 0.35390 0.77239 0.80817
 C3201 C 0.33297 0.77472 0.80112
 C3202 C 0.32857 0.77533 0.77952
 C3203 C 0.34531 0.77477 0.76506
 C3204 C 0.36614 0.77168 0.77205
 H3205 H 0.44386 0.76850 0.78568
 H3206 H 0.41712 0.72730 0.83846
 H3207 H 0.32018 0.77527 0.81250
 H3208 H 0.34217 0.77482 0.74830
 H3209 H 0.38174 0.73980 0.82733
 H3210 H 0.35686 0.77174 0.82494
 H3211 H 0.40870 0.78371 0.77611
 H3212 H 0.37847 0.76928 0.76040
 C3213 C 0.89887 0.24641 0.29019
 C3214 C 0.91723 0.25657 0.28102
 C3215 C 0.93712 0.24658 0.28612
 C3216 C 0.93925 0.22652 0.30096
 C3217 C 0.92052 0.21531 0.30898
 C3218 C 0.90063 0.22515 0.30363
 C3219 C 0.87786 0.25783 0.28580
 C3220 C 0.86266 0.25958 0.30186
 C3221 C 0.84191 0.26701 0.29721
 C3222 C 0.83615 0.27320 0.27648
 C3223 C 0.85177 0.27367 0.26077
 C3224 C 0.87247 0.26587 0.26537
 H3225 H 0.95079 0.25482 0.27835
 H3226 H 0.92093 0.20013 0.32058
 H3227 H 0.83013 0.26666 0.30960
 H3228 H 0.84766 0.27808 0.24460
 H3229 H 0.88660 0.21641 0.31039
 H3230 H 0.86661 0.25428 0.31789
 H3231 H 0.91632 0.27270 0.27031
 H3232 H 0.88386 0.26467 0.25268
 C3233 C 0.11044 0.25081 0.29974
 C3234 C 0.10684 0.26435 0.31845
 C3235 C 0.08623 0.27070 0.32448
 C3236 C 0.06881 0.26425 0.31167
 C3237 C 0.07251 0.25177 0.29251
 C3238 C 0.09300 0.24464 0.28684
 C3239 C 0.13227 0.24359 0.29345
 C3240 C 0.13776 0.24296 0.27205
 C3241 C 0.15845 0.23743 0.26602
 C3242 C 0.17423 0.23324 0.28124
 C3243 C 0.16892 0.23334 0.30260
 C3244 C 0.14798 0.23804 0.30866
 H3245 H 0.08398 0.28000 0.33948
 H3246 H 0.05952 0.24700 0.28202
 H3247 H 0.16241 0.23804 0.24945
 H3248 H 0.18101 0.23022 0.31452
 H3249 H 0.09503 0.23390 0.27248
 H3250 H 0.12635 0.24781 0.25989
 H3251 H 0.11991 0.27001 0.32852
 H3252 H 0.14423 0.23772 0.32526
 C3253 C 0.60750 0.75096 0.79927
 C3254 C 0.58932 0.74381 0.78782
 C3255 C 0.56952 0.75409 0.79271
 C3256 C 0.56731 0.77107 0.80964
 C3257 C 0.58550 0.77831 0.82104
 C3258 C 0.60539 0.76865 0.81572
 C3259 C 0.62874 0.74101 0.79351
 C3260 C 0.64462 0.73758 0.80892
 C3261 C 0.66549 0.73224 0.80306
 C3262 C 0.67063 0.72945 0.78178
 C3263 C 0.65449 0.73063 0.76654
 C3264 C 0.63378 0.73668 0.77230
 H3265 H 0.55589 0.74845 0.78338
 H3266 H 0.58437 0.79097 0.83441
 H3267 H 0.67776 0.73131 0.81506
 H3268 H 0.65819 0.72895 0.74997
 H3269 H 0.61912 0.77518 0.82450
 H3270 H 0.64112 0.73995 0.82545
 H3271 H 0.59028 0.73006 0.77518
 H3272 H 0.62211 0.73950 0.75996
 C3273 C 0.60025 0.24370 0.71130
 C3274 C 0.58198 0.25144 0.72220
 C3275 C 0.56203 0.24234 0.71624
 C3276 C 0.55996 0.22570 0.69905
 C3277 C 0.57833 0.21723 0.68869
 C3278 C 0.59827 0.22594 0.69489
 C3279 C 0.62139 0.25388 0.71696
 C3280 C 0.63651 0.25869 0.70120
 C3281 C 0.65736 0.26479 0.70657
 C3282 C 0.66329 0.26671 0.72776
 C3283 C 0.64783 0.26411 0.74348
 C3284 C 0.62704 0.25752 0.73812
 H3285 H 0.54816 0.24884 0.72475
 H3286 H 0.57729 0.20468 0.67522
 H3287 H 0.66906 0.26692 0.69422
 H3288 H 0.65215 0.26522 0.75995
 H3289 H 0.61215 0.21898 0.68663
 H3290 H 0.63242 0.25686 0.68473
 H3291 H 0.58301 0.26509 0.73492
 H3292 H 0.61577 0.25384 0.75061
 C3293 C 0.10772 0.74629 0.19884
 C3294 C 0.09005 0.75552 0.20997
 C3295 C 0.06967 0.74683 0.20525
 C3296 C 0.06638 0.72935 0.18883
 C3297 C 0.08403 0.72016 0.17767
 C3298 C 0.10448 0.72828 0.18280
 C3299 C 0.12952 0.75444 0.20456
 C3300 C 0.14556 0.75603 0.18922
 C3301 C 0.16666 0.76012 0.19512
 C3302 C 0.17193 0.76342 0.21636
 C3303 C 0.15577 0.76377 0.23149
 C3304 C 0.13481 0.75902 0.22569
 H3305 H 0.05646 0.75405 0.21436
 H3306 H 0.08208 0.70709 0.16465
 H3307 H 0.17894 0.75988 0.18319
 H3308 H 0.15953 0.76585 0.24804
 H3309 H 0.11774 0.72028 0.17423
 H3310 H 0.14195 0.75332 0.17272
 H3311 H 0.09189 0.76963 0.22225
 H3312 H 0.12302 0.75751 0.23800
   
