data_POSCAR
  _audit_creation_date              2014-09-24
  _audit_creation_method            'ToBaCCo'
  _symmetry_space_group_name_H-M    'P1'
  _symmetry_Int_Tables_number       1
  _symmetry_cell_setting            triclinic
  loop_
  _symmetry_equiv_pos_as_xyz
 x,y,z
_cell_length_a 44.9012
_cell_length_b 45.1373
_cell_length_c 44.8755
_cell_angle_alpha 89.962200
_cell_angle_beta 90.276300
_cell_angle_gamma 90.056100
loop_
  _atom_site_label
  _atom_site_type_symbol
  _atom_site_fract_x
  _atom_site_fract_y
  _atom_site_fract_z
C1 C 0.13736 -0.04101 0.25619
 C2 C 0.12468 -0.01340 0.26228
 C3 C 0.11263 -0.00787 0.29036
 C4 C 0.11329 -0.02962 0.31256
 C5 C 0.12612 -0.05732 0.30648
 C6 C 0.13820 -0.06339 0.27809
 C7 C 0.12412 0.00995 0.23935
 C8 C 0.11182 0.00441 0.21119
 C9 C 0.11054 0.02688 0.18937
 C10 C 0.12202 0.05520 0.19655
 C11 C 0.13489 0.06057 0.22465
 C12 C 0.13575 0.03790 0.24586
 H13 H 0.14660 -0.04480 0.23426
 H14 H 0.10258 0.01349 0.29489
 H15 H 0.10295 -0.01747 0.20664
 H16 H 0.14568 0.04196 0.26756
 H17 H 0.12628 -0.07408 0.32378
 H18 H 0.12166 0.07291 0.18024
 C19 C 0.36183 -0.03827 0.74129
 C20 C 0.37360 -0.01041 0.73440
 C21 C 0.38541 -0.00523 0.70605
 C22 C 0.38726 -0.02836 0.68538
 C23 C 0.37664 -0.05666 0.69291
 C24 C 0.36305 -0.06137 0.72059
 C25 C 0.37462 0.01278 0.75735
 C26 C 0.38719 0.00662 0.78526
 C27 C 0.38812 0.02829 0.80778
 C28 C 0.37635 0.05665 0.80150
 C29 C 0.36365 0.06280 0.77347
 C30 C 0.36290 0.04080 0.75155
 H31 H 0.35183 -0.04200 0.76292
 H32 H 0.39458 0.01634 0.70066
 H33 H 0.39619 -0.01531 0.78921
 H34 H 0.35288 0.04537 0.73000
 H35 H 0.37789 -0.07455 0.67687
 H36 H 0.37648 0.07381 0.81838
 C37 C 0.86149 0.46239 0.24667
 C38 C 0.87244 0.49058 0.23972
 C39 C 0.88411 0.49599 0.21133
 C40 C 0.88654 0.47295 0.19064
 C41 C 0.87670 0.44439 0.19822
 C42 C 0.86329 0.43929 0.22595
 C43 C 0.87283 0.51405 0.26248
 C44 C 0.88467 0.50839 0.29086
 C45 C 0.88695 0.53108 0.31229
 C46 C 0.87674 0.55970 0.30467
 C47 C 0.86377 0.56509 0.27664
 C48 C 0.86214 0.54227 0.25564
 H49 H 0.85160 0.45842 0.26830
 H50 H 0.89273 0.51777 0.20588
 H51 H 0.89293 0.48635 0.29571
 H52 H 0.85233 0.54643 0.23391
 H53 H 0.87837 0.42655 0.18215
 H54 H 0.87771 0.57755 0.32079
 C55 C 0.63859 0.46081 0.75462
 C56 C 0.62520 0.48813 0.76021
 C57 C 0.61197 0.49347 0.78780
 C58 C 0.61208 0.47160 0.80996
 C59 C 0.62549 0.44407 0.80426
 C60 C 0.63876 0.43868 0.77648
 C61 C 0.62525 0.51123 0.73724
 C62 C 0.61171 0.50607 0.70964
 C63 C 0.61171 0.52805 0.68758
 C64 C 0.62536 0.55552 0.69341
 C65 C 0.63896 0.56070 0.72122
 C66 C 0.63889 0.53846 0.74294
 H67 H 0.64895 0.45681 0.73322
 H68 H 0.60159 0.51474 0.79199
 H69 H 0.60111 0.48488 0.70538
 H70 H 0.64945 0.54233 0.76438
 H71 H 0.62561 0.42700 0.82126
 H72 H 0.62535 0.57269 0.67652
 C73 C 0.24403 0.13283 1.04073
 C74 C 0.23737 0.12108 1.01274
 C75 C 0.20907 0.10940 1.00708
 C76 C 0.18724 0.10880 1.02950
 C77 C 0.19450 0.12033 1.05789
 C78 C 0.22274 0.13266 1.06331
 C79 C 0.26007 0.12122 0.98930
 C80 C 0.28810 0.10887 0.99480
 C81 C 0.31039 0.10939 0.97286
 C82 C 0.30376 0.12236 0.94496
 C83 C 0.27559 0.13479 0.93948
 C84 C 0.25392 0.13420 0.96172
 H85 H 0.26583 0.14241 1.04482
 H86 H 0.20443 0.10050 0.98511
 H87 H 0.29235 0.09899 1.01642
 H88 H 0.23228 0.14409 0.95767
 H89 H 0.17813 0.12054 1.07555
 H90 H 0.32043 0.12324 0.92760
 C91 C 0.75604 0.36392 1.04076
 C92 C 0.76140 0.37654 1.01281
 C93 C 0.78917 0.38903 1.00670
 C94 C 0.81187 0.38856 1.02811
 C95 C 0.80672 0.37534 1.05596
 C96 C 0.77858 0.36305 1.06271
 C97 C 0.73819 0.37609 0.98957
 C98 C 0.71016 0.38845 0.99487
 C99 C 0.68793 0.38835 0.97256
 C100 C 0.69460 0.37554 0.94463
 C101 C 0.72266 0.36283 0.93949
 C102 C 0.74425 0.36319 0.96200
 H103 H 0.73431 0.35437 1.04497
 H104 H 0.79311 0.39911 0.98513
 H105 H 0.70597 0.39825 1.01649
 H106 H 0.76589 0.35330 0.95810
 H107 H 0.82449 0.37525 1.07238
 H108 H 0.67803 0.37495 0.92701
 C109 C 0.25975 0.86660 0.54094
 C110 C 0.26495 0.87715 0.51213
 C111 C 0.29328 0.88749 0.50444
 C112 C 0.31702 0.88638 0.52499
 C113 C 0.31186 0.87384 0.55331
 C114 C 0.28318 0.86453 0.56147
 C115 C 0.24113 0.87617 0.48951
 C116 C 0.21324 0.88847 0.49540
 C117 C 0.19046 0.88734 0.47396
 C118 C 0.19585 0.87393 0.44622
 C119 C 0.22391 0.86154 0.44022
 C120 C 0.24630 0.86260 0.46201
 H121 H 0.23783 0.85843 0.54684
 H122 H 0.29665 0.89625 0.48221
 H123 H 0.20930 0.89900 0.51673
 H124 H 0.26787 0.85283 0.45754
 H125 H 0.32978 0.87212 0.56949
 H126 H 0.17842 0.87317 0.42945
 C127 C 0.74148 0.63376 0.54084
 C128 C 0.73567 0.62222 0.51247
 C129 C 0.70725 0.61149 0.50558
 C130 C 0.68426 0.61318 0.52644
 C131 C 0.68968 0.62647 0.55420
 C132 C 0.71849 0.63626 0.56162
 C133 C 0.75888 0.62231 0.48953
 C134 C 0.78661 0.60946 0.49518
 C135 C 0.80888 0.60925 0.47318
 C136 C 0.80260 0.62229 0.44520
 C137 C 0.77487 0.63567 0.43975
 C138 C 0.75319 0.63556 0.46196
 H139 H 0.76349 0.64219 0.54617
 H140 H 0.70307 0.60174 0.48387
 H141 H 0.79050 0.59945 0.51681
 H142 H 0.73180 0.64596 0.45786
 H143 H 0.67193 0.62807 0.57041
 H144 H 0.81930 0.62270 0.42784
 C145 C -0.04093 0.25689 0.13097
 C146 C -0.01262 0.26190 0.11904
 C147 C -0.00510 0.29014 0.10854
 C148 C -0.02503 0.31401 0.11115
 C149 C -0.05269 0.30902 0.12509
 C150 C -0.06089 0.28044 0.13440
 C151 C 0.01009 0.23836 0.11965
 C152 C 0.00415 0.21034 0.10768
 C153 C 0.02581 0.18773 0.10871
 C154 C 0.05378 0.19402 0.12188
 C155 C 0.05966 0.22207 0.13407
 C156 C 0.03773 0.24398 0.13297
 H157 H -0.04672 0.23508 0.13928
 H158 H 0.01671 0.29342 0.09881
 H159 H -0.01748 0.20637 0.09762
 H160 H 0.04214 0.26555 0.14269
 H161 H -0.06837 0.32702 0.12792
 H162 H 0.07090 0.17716 0.12310
 C163 C -0.03927 0.74625 0.36734
 C164 C -0.01113 0.73798 0.37788
 C165 C -0.00656 0.70921 0.38866
 C166 C -0.03049 0.68935 0.39062
 C167 C -0.05898 0.69822 0.38105
 C168 C -0.06319 0.72642 0.36851
 C169 C 0.01314 0.75988 0.37836
 C170 C 0.00865 0.78752 0.39170
 C171 C 0.03121 0.80895 0.39173
 C172 C 0.05875 0.80244 0.37856
 C173 C 0.06346 0.77458 0.36537
 C174 C 0.04055 0.75348 0.36526
 H175 H -0.04252 0.76823 0.35810
 H176 H 0.01525 0.70278 0.39685
 H177 H -0.01260 0.79239 0.40198
 H178 H 0.04396 0.73211 0.35481
 H179 H -0.07744 0.68278 0.38216
 H180 H 0.07633 0.81891 0.37853
 C181 C 0.46229 0.24537 0.86560
 C182 C 0.49019 0.23920 0.87810
 C183 C 0.49596 0.21101 0.88967
 C184 C 0.47402 0.18869 0.88893
 C185 C 0.44580 0.19545 0.87658
 C186 C 0.43997 0.22376 0.86490
 C187 C 0.51343 0.26228 0.87861
 C188 C 0.50662 0.29070 0.88900
 C189 C 0.52765 0.31378 0.88755
 C190 C 0.55561 0.30787 0.87466
 C191 C 0.56290 0.27914 0.86518
 C192 C 0.54192 0.25636 0.86757
 H193 H 0.45797 0.26711 0.85624
 H194 H 0.51775 0.20668 0.89921
 H195 H 0.48468 0.29463 0.89814
 H196 H 0.54718 0.23445 0.85923
 H197 H 0.42844 0.17878 0.87566
 H198 H 0.57211 0.32529 0.87260
 C199 C 0.45994 0.75654 0.63356
 C200 C 0.48843 0.76092 0.62172
 C201 C 0.49620 0.78866 0.61029
 C202 C 0.47624 0.81239 0.61169
 C203 C 0.44838 0.80840 0.62529
 C204 C 0.43994 0.78023 0.63570
 C205 C 0.51057 0.73692 0.62254
 C206 C 0.50326 0.70873 0.61191
 C207 C 0.52370 0.68539 0.61413
 C208 C 0.55141 0.69022 0.62803
 C209 C 0.55926 0.71879 0.63781
 C210 C 0.53889 0.74204 0.63473
 H211 H 0.45389 0.73505 0.64250
 H212 H 0.51795 0.79179 0.60035
 H213 H 0.48166 0.70504 0.60164
 H214 H 0.54460 0.76387 0.64306
 H215 H 0.43288 0.82674 0.62664
 H216 H 0.56730 0.67226 0.62997
 C217 C 0.86034 1.03838 0.75664
 C218 C 0.87442 1.01130 0.76162
 C219 C 0.88873 1.00580 0.78870
 C220 C 0.88889 1.02711 0.81158
 C221 C 0.87434 1.05456 0.80635
 C222 C 0.86016 1.06028 0.77872
 C223 C 0.87409 0.98850 0.73836
 C224 C 0.88894 0.99344 0.71160
 C225 C 0.88863 0.97207 0.68878
 C226 C 0.87306 0.94514 0.69375
 C227 C 0.85833 0.93996 0.72109
 C228 C 0.85897 0.96194 0.74309
 H229 H 0.84959 1.04235 0.73532
 H230 H 0.89941 0.98448 0.79181
 H231 H 0.90044 1.01437 0.70868
 H232 H 0.84788 0.95837 0.76420
 H233 H 0.87412 1.07145 0.82349
 H234 H 0.87254 0.92817 0.67669
 C235 C 0.35978 0.53812 0.25318
 C236 C 0.37276 0.51060 0.25905
 C237 C 0.38633 0.50530 0.28657
 C238 C 0.38719 0.52733 0.30853
 C239 C 0.37392 0.55510 0.30260
 C240 C 0.36011 0.56059 0.27477
 C241 C 0.37269 0.48733 0.23621
 C242 C 0.38740 0.49199 0.20929
 C243 C 0.38838 0.46972 0.18758
 C244 C 0.37410 0.44235 0.19316
 C245 C 0.35916 0.43751 0.22041
 C246 C 0.35870 0.46024 0.24171
 H247 H 0.34948 0.54196 0.23162
 H248 H 0.39633 0.48384 0.29079
 H249 H 0.39821 0.51312 0.20536
 H250 H 0.34762 0.45687 0.26286
 H251 H 0.37438 0.57226 0.31946
 H252 H 0.37470 0.42500 0.17651
 C253 C 0.63997 1.03969 0.24038
 C254 C 0.62522 1.01289 0.23556
 C255 C 0.61134 1.00738 0.20826
 C256 C 0.61189 1.02858 0.18543
 C257 C 0.62688 1.05574 0.19036
 C258 C 0.64108 1.06132 0.21800
 C259 C 0.62479 0.99031 0.25905
 C260 C 0.61113 0.99626 0.28626
 C261 C 0.61145 0.97523 0.30943
 C262 C 0.62570 0.94766 0.30440
 C263 C 0.63913 0.94150 0.27669
 C264 C 0.63853 0.96306 0.25428
 H265 H 0.65061 1.04362 0.26176
 H266 H 0.60019 0.98633 0.20484
 H267 H 0.60069 1.01769 0.28929
 H268 H 0.64886 0.95876 0.23292
 H269 H 0.62749 1.07231 0.17290
 H270 H 0.62631 0.93099 0.32178
 C271 C 0.13993 0.53847 0.74452
 C272 C 0.12517 0.51161 0.73990
 C273 C 0.11036 0.50631 0.71301
 C274 C 0.11007 0.52773 0.69042
 C275 C 0.12507 0.55488 0.69512
 C276 C 0.14012 0.56034 0.72231
 C277 C 0.12506 0.48890 0.76329
 C278 C 0.11101 0.49448 0.79036
 C279 C 0.11030 0.47285 0.81276
 C280 C 0.12419 0.44519 0.80768
 C281 C 0.13847 0.43947 0.78025
 C282 C 0.13863 0.46157 0.75828
 H283 H 0.15118 0.54231 0.76560
 H284 H 0.09912 0.48528 0.70974
 H285 H 0.10061 0.51585 0.79391
 H286 H 0.14926 0.45756 0.73701
 H287 H 0.12502 0.57161 0.67779
 H288 H 0.12386 0.42832 0.82486
 C289 C 0.74343 0.85991 -0.03773
 C290 C 0.73772 0.87399 -0.01068
 C291 C 0.71016 0.88734 -0.00582
 C292 C 0.68803 0.88700 -0.02795
 C293 C 0.69388 0.87274 -0.05534
 C294 C 0.72175 0.85907 -0.06027
 C295 C 0.76075 0.87486 0.01259
 C296 C 0.78795 0.88872 0.00705
 C297 C 0.81066 0.88916 0.02877
 C298 C 0.80519 0.87539 0.05664
 C299 C 0.77747 0.86173 0.06239
 C300 C 0.75552 0.86163 0.04013
 H301 H 0.76500 0.84973 -0.04122
 H302 H 0.70607 0.89811 0.01536
 H303 H 0.79129 0.89881 -0.01461
 H304 H 0.73416 0.85117 0.04413
 H305 H 0.67699 0.87238 -0.07265
 H306 H 0.82222 0.87535 0.07383
 C307 C 0.24091 0.35983 0.46149
 C308 C 0.23527 0.37364 0.48868
 C309 C 0.20823 0.38806 0.49327
 C310 C 0.18652 0.38894 0.47076
 C311 C 0.19222 0.37484 0.44325
 C312 C 0.21961 0.36018 0.43855
 C313 C 0.25812 0.37373 0.51213
 C314 C 0.28551 0.38725 0.50686
 C315 C 0.30761 0.38786 0.52897
 C316 C 0.30196 0.37439 0.55679
 C317 C 0.27422 0.36062 0.56221
 C318 C 0.25247 0.36054 0.53967
 H319 H 0.26216 0.34895 0.45821
 H320 H 0.20420 0.39871 0.51453
 H321 H 0.28954 0.39737 0.48532
 H322 H 0.23101 0.35024 0.54347
 H323 H 0.17558 0.37533 0.42571
 H324 H 0.31893 0.37466 0.57402
 C325 C 0.25705 0.64042 -0.03888
 C326 C 0.26216 0.62612 -0.01178
 C327 C 0.28936 0.61219 -0.00634
 C328 C 0.31177 0.61226 -0.02798
 C329 C 0.30655 0.62678 -0.05541
 C330 C 0.27905 0.64099 -0.06090
 C331 C 0.23896 0.62600 0.01107
 C332 C 0.21177 0.61205 0.00548
 C333 C 0.18882 0.61251 0.02672
 C334 C 0.19409 0.62727 0.05416
 C335 C 0.22180 0.64107 0.05993
 C336 C 0.24395 0.64030 0.03813
 H337 H 0.23574 0.65105 -0.04277
 H338 H 0.29301 0.60133 0.01492
 H339 H 0.20860 0.60121 -0.01586
 H340 H 0.26531 0.65084 0.04216
 H341 H 0.32369 0.62699 -0.07231
 H342 H 0.17693 0.62795 0.07103
 C343 C 0.75976 0.13925 0.46114
 C344 C 0.76444 0.12509 0.48835
 C345 C 0.79114 0.11023 0.49386
 C346 C 0.81387 0.10962 0.47237
 C347 C 0.80893 0.12428 0.44480
 C348 C 0.78173 0.13901 0.43910
 C349 C 0.74111 0.12565 0.51111
 C350 C 0.71358 0.11251 0.50525
 C351 C 0.69098 0.11277 0.52667
 C352 C 0.69631 0.12673 0.55437
 C353 C 0.72415 0.14019 0.56033
 C354 C 0.74636 0.13940 0.53849
 H355 H 0.73874 0.15040 0.45715
 H356 H 0.79405 0.09942 0.51525
 H357 H 0.70986 0.10204 0.48382
 H358 H 0.76791 0.14945 0.54272
 H359 H 0.82596 0.12418 0.42778
 H360 H 0.67901 0.12709 0.57110
 C361 C 1.03940 0.75790 0.85927
 C362 C 1.01286 0.76216 0.87466
 C363 C 1.00762 0.78881 0.88948
 C364 C 1.02864 0.81198 0.88881
 C365 C 1.05557 0.80742 0.87299
 C366 C 1.06104 0.78024 0.85830
 C367 C 0.99004 0.73887 0.87455
 C368 C 0.99529 0.71202 0.88912
 C369 C 0.97390 0.68917 0.88867
 C370 C 0.94667 0.69422 0.87323
 C371 C 0.94123 0.72157 0.85875
 C372 C 0.96320 0.74358 0.85954
 H373 H 1.04316 0.73696 0.84808
 H374 H 0.98666 0.79143 0.90106
 H375 H 1.01644 0.70907 0.90048
 H376 H 0.95943 0.76468 0.84861
 H377 H 1.07228 0.82473 0.87217
 H378 H 0.92967 0.67718 0.87260
 C379 C 0.53883 0.25627 0.35913
 C380 C 0.51176 0.26146 0.37338
 C381 C 0.50669 0.28855 0.38744
 C382 C 0.52853 0.31075 0.38755
 C383 C 0.55589 0.30546 0.37305
 C384 C 0.56111 0.27806 0.35872
 C385 C 0.48862 0.23847 0.37378
 C386 C 0.49407 0.21142 0.38787
 C387 C 0.47201 0.18944 0.38890
 C388 C 0.44405 0.19493 0.37530
 C389 C 0.43847 0.22231 0.36097
 C390 C 0.46098 0.24385 0.36048
 H391 H 0.54250 0.23506 0.34844
 H392 H 0.48552 0.29226 0.39834
 H393 H 0.51566 0.20757 0.39807
 H394 H 0.45706 0.26505 0.34980
 H395 H 0.57296 0.32244 0.37298
 H396 H 0.42686 0.17810 0.37588
 C397 C 1.03862 0.24288 0.63844
 C398 C 1.01183 0.23773 0.62350
 C399 C 1.00686 0.21075 0.60919
 C400 C 1.02842 0.18813 0.60993
 C401 C 1.05558 0.19356 0.62532
 C402 C 1.06076 0.22110 0.63949
 C403 C 0.98863 0.26056 0.62341
 C404 C 0.99340 0.28735 0.60867
 C405 C 0.97188 0.31000 0.60924
 C406 C 0.94496 0.30477 0.62489
 C407 C 0.93997 0.27743 0.63949
 C408 C 0.96208 0.25562 0.63862
 H409 H 1.04216 0.26409 0.64924
 H410 H 0.98571 0.20746 0.59791
 H411 H 1.01436 0.29049 0.59720
 H412 H 0.95870 0.23456 0.64974
 H413 H 1.07267 0.17666 0.62624
 H414 H 0.92790 0.32170 0.62566
 C415 C 0.53893 0.74458 0.13778
 C416 C 0.51174 0.73881 0.12373
 C417 C 0.50672 0.71133 0.11032
 C418 C 0.52881 0.68937 0.11064
 C419 C 0.55629 0.69530 0.12494
 C420 C 0.56139 0.72305 0.13866
 C421 C 0.48846 0.76165 0.12310
 C422 C 0.49370 0.78865 0.10884
 C423 C 0.47186 0.81083 0.10833
 C424 C 0.44433 0.80557 0.12261
 C425 C 0.43894 0.77826 0.13710
 C426 C 0.46122 0.75650 0.13705
 H427 H 0.54252 0.76604 0.14803
 H428 H 0.48545 0.70716 0.09958
 H429 H 0.51502 0.79236 0.09823
 H430 H 0.45748 0.73540 0.14796
 H431 H 0.57352 0.67853 0.12537
 H432 H 0.42731 0.82256 0.12247
 O433 O -0.02656 0.98916 0.91735
 O434 O 0.01997 1.01709 0.91558
 O435 O -0.00758 0.91619 0.97497
 O436 O 0.01018 0.90872 1.02070
 O437 O -0.08386 0.97263 0.99174
 O438 O -0.08861 1.02070 1.01419
 O439 O 0.06713 0.99722 1.05687
 O440 O 0.07315 0.95300 1.02956
 O441 O 0.05484 1.06604 0.99891
 O442 O 0.02167 1.07166 0.95154
 O443 O -0.00257 1.05508 1.06738
 O444 O -0.04781 1.02293 1.07587
 O445 O 0.02585 1.01061 1.08298
 O446 O -0.02395 0.98712 1.08917
 O447 O 0.00903 1.08159 1.02584
 O448 O -0.01234 1.08754 0.97680
 O449 O 0.08143 1.02556 1.01349
 O450 O 0.08513 0.97898 0.98381
 O451 O -0.06580 1.00761 0.94344
 O452 O -0.07786 1.04434 0.97722
 O453 O -0.05732 0.93337 1.00927
 O454 O -0.02273 0.92533 1.04934
 O455 O 0.00801 0.94261 0.93465
 O456 O 0.04858 0.97492 0.92889
 Zr457 Zr 0.00778 0.98670 0.94965
 O458 O 0.03591 1.01404 0.97555
 Zr459 Zr -0.01285 0.94796 1.00924
 O460 O 0.01445 0.97375 1.03754
 Zr461 Zr -0.05199 1.00679 0.98830
 O462 O -0.02651 1.03540 1.01539
 Zr463 Zr 0.05045 0.99091 1.01345
 O464 O 0.02502 0.96240 0.98607
 Zr465 Zr 0.01127 1.04983 0.99198
 O466 O -0.01622 1.02411 0.96387
 Zr467 Zr -0.00912 1.01145 1.05171
 O468 O -0.03756 0.98366 1.02635
 O469 O -0.02942 0.97000 0.97197
 O470 O 0.02767 1.02774 1.02920
 C471 C -0.05289 1.00034 0.91904
 C472 C 0.00229 0.91816 0.94809
 C473 C -0.08186 0.94627 1.00244
 C474 C 0.05383 1.00530 1.08081
 C475 C 0.07887 1.05321 1.00763
 C476 C 0.00432 1.07922 1.05386
 H477 H 0.05303 1.02071 0.96348
 H478 H -0.03896 1.05222 1.02188
 H479 H -0.04205 0.95715 0.95922
 H480 H 0.02157 0.96162 1.05449
 H481 H 0.07021 0.93723 1.01449
 H482 H 0.02865 0.91486 1.03106
 H483 H -0.03083 1.08903 0.98860
 H484 H -0.06461 1.05782 0.96600
 H485 H 0.10429 0.98090 0.99472
 H486 H 0.04462 0.96845 0.90812
 H487 H -0.05625 1.04109 1.06685
 H488 H -0.08708 1.01010 1.03346
 H489 H 0.01709 1.00769 0.89581
 H490 H 0.04210 1.06590 0.94578
 H491 H -0.03705 0.93783 1.06035
 H492 H -0.01006 0.97038 1.09224
 O493 O 0.47166 0.48954 0.41601
 O494 O 0.51814 0.51692 0.41455
 O495 O 0.49117 0.41600 0.47378
 O496 O 0.50707 0.40810 0.51972
 O497 O 0.41368 0.47245 0.49110
 O498 O 0.40854 0.52041 0.51210
 O499 O 0.56464 0.49919 0.55560
 O500 O 0.57089 0.45382 0.53028
 O501 O 0.55197 0.56610 0.49905
 O502 O 0.51937 0.57163 0.45093
 O503 O 0.49574 0.55405 0.56677
 O504 O 0.44965 0.52287 0.57470
 O505 O 0.52251 0.50807 0.58220
 O506 O 0.47219 0.48640 0.58744
 O507 O 0.50498 0.58119 0.52509
 O508 O 0.48526 0.58746 0.47592
 O509 O 0.57929 0.52503 0.50997
 O510 O 0.58223 0.47739 0.48295
 O511 O 0.43153 0.50607 0.44202
 O512 O 0.42036 0.54430 0.47536
 O513 O 0.44044 0.43260 0.50678
 O514 O 0.47482 0.42528 0.54812
 O515 O 0.50533 0.44263 0.43309
 O516 O 0.54663 0.47464 0.42832
 Zr517 Zr 0.50561 0.48657 0.44855
 O518 O 0.53341 0.51402 0.47461
 Zr519 Zr 0.48478 0.44762 0.50786
 O520 O 0.51197 0.47331 0.53628
 Zr521 Zr 0.44556 0.50640 0.48686
 O522 O 0.47078 0.53490 0.51429
 Zr523 Zr 0.54798 0.49083 0.51244
 O524 O 0.52277 0.46221 0.48498
 Zr525 Zr 0.50860 0.54963 0.49118
 O526 O 0.48142 0.52390 0.46272
 Zr527 Zr 0.48815 0.51080 0.55051
 O528 O 0.45983 0.48316 0.52493
 O529 O 0.46834 0.46972 0.47059
 O530 O 0.52503 0.52749 0.52833
 C531 C 0.44493 0.49968 0.41762
 C532 C 0.50040 0.41809 0.44671
 C533 C 0.41580 0.44577 0.50087
 C534 C 0.55082 0.50504 0.57993
 C535 C 0.57652 0.55292 0.50553
 C536 C 0.50141 0.57852 0.55327
 H537 H 0.55047 0.52074 0.46248
 H538 H 0.45821 0.55162 0.52082
 H539 H 0.45581 0.45684 0.45777
 H540 H 0.51906 0.46110 0.55319
 H541 H 0.56807 0.43737 0.51595
 H542 H 0.52621 0.41406 0.52888
 H543 H 0.46600 0.58806 0.48652
 H544 H 0.43333 0.55677 0.46272
 H545 H 0.60155 0.47936 0.49358
 H546 H 0.54291 0.46807 0.40754
 H547 H 0.44189 0.54159 0.56623
 H548 H 0.41078 0.51126 0.53204
 H549 H 0.51576 0.50739 0.39478
 H550 H 0.54010 0.56645 0.44571
 H551 H 0.45898 0.43679 0.55809
 H552 H 0.48530 0.46899 0.59008
 O553 O 0.50747 -0.05700 0.56553
 O554 O 0.55113 -0.02698 0.57177
 O555 O 0.43649 0.00241 0.55550
 O556 O 0.42463 0.04156 0.52661
 O557 O 0.44834 -0.06881 0.49431
 O558 O 0.47882 -0.07472 0.45053
 O559 O 0.51032 0.08340 0.47465
 O560 O 0.48718 0.08734 0.51889
 O561 O 0.58499 0.02759 0.48927
 O562 O 0.59397 -0.01895 0.50831
 O563 O 0.52831 0.01108 0.41569
 O564 O 0.48160 -0.00929 0.40792
 O565 O 0.49466 0.05737 0.43400
 O566 O 0.45360 0.02038 0.42446
 O567 O 0.56856 -0.00566 0.44159
 O568 O 0.57805 -0.04700 0.47803
 O569 O 0.55798 0.06702 0.50542
 O570 O 0.52666 0.06914 0.54963
 O571 O 0.49692 -0.08328 0.52339
 O572 O 0.51761 -0.08718 0.47360
 O573 O 0.42072 -0.02854 0.50727
 O574 O 0.41558 0.02081 0.48396
 O575 O 0.47759 -0.01313 0.58104
 O576 O 0.52479 0.01524 0.58472
 Zr577 Zr 0.51174 -0.01336 0.54949
 O578 O 0.53908 0.01454 0.52410
 Zr579 Zr 0.45150 0.00641 0.51107
 O580 O 0.47658 0.03549 0.48455
 Zr581 Zr 0.49165 -0.05149 0.48944
 O582 O 0.51796 -0.02487 0.46161
 Zr583 Zr 0.51423 0.05056 0.50788
 O584 O 0.48708 0.02422 0.53605
 Zr585 Zr 0.55403 -0.00748 0.48596
 O586 O 0.52948 -0.03696 0.51322
 Zr587 Zr 0.49398 0.01267 0.44771
 O588 O 0.46603 -0.01614 0.47259
 O589 O 0.47518 -0.02982 0.52644
 O590 O 0.53127 0.02971 0.46989
 C591 C 0.50179 -0.08124 0.55157
 C592 C 0.44988 -0.00653 0.57929
 C593 C 0.42371 -0.05616 0.50119
 C594 C 0.50080 0.08172 0.44757
 C595 C 0.58265 0.05440 0.49871
 C596 C 0.55526 0.00151 0.41731
 H597 H 0.55575 0.02121 0.53693
 H598 H 0.52437 -0.03724 0.44465
 H599 H 0.46280 -0.04295 0.53894
 H600 H 0.46353 0.05210 0.47856
 H601 H 0.47541 0.08145 0.53654
 H602 H 0.43344 0.06017 0.51907
 H603 H 0.56938 -0.05646 0.46009
 H604 H 0.53607 -0.08751 0.48574
 H605 H 0.53332 0.08985 0.54634
 H606 H 0.52220 0.00456 0.60387
 H607 H 0.48796 -0.03015 0.40999
 H608 H 0.46274 -0.06300 0.44103
 H609 H 0.56048 -0.04243 0.55927
 H610 H 0.59153 -0.01336 0.52945
 H611 H 0.41463 0.00731 0.46660
 H612 H 0.44384 0.03771 0.43371
 O613 O -0.05607 0.43493 1.00026
 O614 O -0.02798 0.42939 0.95538
 O615 O 0.00584 0.44584 1.06932
 O616 O 0.04741 0.47426 1.07716
 O617 O -0.06549 0.50590 1.06065
 O618 O -0.07350 0.54945 1.02906
 O619 O 0.08308 0.52808 0.99125
 O620 O 0.08909 0.48447 1.01537
 O621 O 0.02467 0.51074 0.91897
 O622 O -0.02716 0.48822 0.91621
 O623 O 0.00872 0.58460 0.97543
 O624 O -0.01365 0.58810 1.02765
 O625 O 0.05683 0.56767 1.00847
 O626 O 0.02584 0.58027 1.04622
 O627 O -0.00864 0.55833 0.93578
 O628 O -0.04685 0.52620 0.92496
 O629 O 0.06573 0.49630 0.94507
 O630 O 0.07013 0.45289 0.97699
 O631 O -0.08245 0.47653 1.01182
 O632 O -0.08878 0.52539 0.99248
 O633 O -0.02406 0.49051 1.08568
 O634 O 0.02370 0.51674 1.08946
 O635 O -0.00804 0.41958 1.02818
 O636 O 0.01559 0.41670 0.97914
 Zr637 Zr -0.01248 0.45137 0.99420
 O638 O 0.01413 0.47704 0.96572
 Zr639 Zr 0.00953 0.48966 1.05355
 O640 O 0.03664 0.51698 1.02727
 Zr641 Zr -0.05074 0.51058 1.01609
 O642 O -0.02600 0.53831 0.98779
 Zr643 Zr 0.05088 0.49407 0.98928
 O644 O 0.02616 0.46535 1.01730
 Zr645 Zr -0.00947 0.51439 0.95122
 O646 O -0.03758 0.48736 0.97763
 Zr647 Zr 0.01233 0.55307 1.01027
 O648 O -0.01420 0.52771 1.04005
 O649 O -0.02771 0.47385 1.03135
 O650 O 0.02842 0.53127 0.97251
 C651 C -0.08039 0.44862 1.00652
 C652 C -0.00141 0.42172 1.05594
 C653 C -0.05181 0.49700 1.08430
 C654 C 0.08122 0.55481 1.00110
 C655 C 0.05195 0.50201 0.92064
 C656 C -0.00142 0.58269 0.94861
 H657 H 0.02046 0.46423 0.94905
 H658 H -0.03903 0.55482 0.98147
 H659 H -0.04013 0.46094 1.04403
 H660 H 0.05365 0.52356 1.03966
 H661 H 0.08397 0.46708 1.02781
 H662 H 0.06475 0.48607 1.07062
 H663 H -0.06052 0.53740 0.93798
 H664 H -0.08891 0.51470 0.97322
 H665 H 0.09065 0.45657 0.96973
 H666 H 0.00526 0.39749 0.98222
 H667 H -0.03018 0.59192 1.01351
 H668 H -0.06134 0.55882 1.04492
 H669 H -0.04413 0.44168 0.94677
 H670 H -0.01334 0.47153 0.91279
 H671 H 0.00951 0.53348 1.09071
 H672 H 0.03540 0.56713 1.06108
 O673 O 0.00709 0.41627 0.52463
 O674 O -0.01980 0.41532 0.47736
 O675 O 0.08046 0.47497 0.50744
 O676 O 0.08754 0.52112 0.49175
 O677 O 0.02278 0.49020 0.58435
 O678 O -0.02665 0.51073 0.58862
 O679 O 0.00098 0.55802 0.43541
 O680 O 0.04467 0.52980 0.42883
 O681 O -0.06907 0.49738 0.44358
 O682 O -0.07484 0.45019 0.47643
 O683 O -0.06013 0.56497 0.50466
 O684 O -0.02798 0.57257 0.55028
 O685 O -0.01721 0.58132 0.47651
 O686 O 0.00773 0.58724 0.52642
 O687 O -0.08570 0.52425 0.48894
 O688 O -0.09216 0.47536 0.50992
 O689 O -0.02891 0.51610 0.41912
 O690 O 0.01760 0.48592 0.41426
 O691 O -0.01099 0.44127 0.56475
 O692 O -0.04887 0.47320 0.57670
 O693 O 0.06292 0.50661 0.55837
 O694 O 0.07023 0.54809 0.52612
 O695 O 0.05430 0.43443 0.49210
 O696 O 0.02297 0.43004 0.44998
 Zr697 Zr 0.01006 0.44927 0.49120
 O698 O -0.01710 0.47552 0.46317
 Zr699 Zr 0.04816 0.50838 0.51401
 O700 O 0.02224 0.53708 0.48738
 Zr701 Zr -0.01118 0.48602 0.55180
 O702 O -0.04007 0.51303 0.52651
 Zr703 Zr 0.00589 0.51398 0.45029
 O704 O 0.03432 0.48614 0.47531
 Zr705 Zr -0.05365 0.49065 0.48761
 O706 O -0.02794 0.46244 0.51498
 Zr707 Zr -0.01617 0.54983 0.51082
 O708 O 0.01186 0.52435 0.53882
 O709 O 0.02620 0.47075 0.52927
 O710 O -0.03162 0.52835 0.47295
 C711 C -0.00375 0.41733 0.55115
 C712 C 0.07873 0.44816 0.49769
 C713 C 0.04958 0.50023 0.58274
 C714 C -0.00986 0.58068 0.44893
 C715 C -0.05635 0.50848 0.42053
 C716 C -0.08380 0.55180 0.49548
 H717 H -0.02340 0.46392 0.44553
 H718 H -0.05726 0.51900 0.53879
 H719 H 0.03911 0.45795 0.54177
 H720 H 0.03429 0.55431 0.48110
 H721 H 0.06024 0.51455 0.43184
 H722 H 0.08138 0.53266 0.47403
 H723 H -0.09390 0.48663 0.52872
 H724 H -0.06244 0.46307 0.56255
 H725 H 0.01571 0.49759 0.39562
 H726 H 0.02971 0.40938 0.45339
 H727 H -0.04630 0.56330 0.55817
 H728 H -0.01583 0.52984 0.58831
 H729 H -0.01002 0.39576 0.47968
 H730 H -0.06841 0.44454 0.45616
 H731 H 0.05695 0.55864 0.54008
 H732 H 0.02387 0.59144 0.51209
 O733 O 0.50183 1.05537 -0.07146
 O734 O 0.54556 1.02611 -0.07777
 O735 O 0.43108 0.99691 -0.05983
 O736 O 0.42230 0.95542 -0.03198
 O737 O 0.44339 1.06692 0.00006
 O738 O 0.47482 1.07389 0.04356
 O739 O 0.50786 0.91641 0.02151
 O740 O 0.48405 0.91140 -0.02243
 O741 O 0.58163 0.97291 0.00545
 O742 O 0.58956 1.01953 -0.01460
 O743 O 0.52583 0.99064 0.07916
 O744 O 0.47460 1.01265 0.08338
 O745 O 0.49293 0.94287 0.06199
 O746 O 0.45435 0.97510 0.07413
 O747 O 0.56585 1.00634 0.05264
 O748 O 0.57391 1.04759 0.01568
 O749 O 0.55481 0.93285 -0.00978
 O750 O 0.52279 0.92962 -0.05380
 O751 O 0.49109 1.08194 -0.02960
 O752 O 0.51270 1.08702 0.01953
 O753 O 0.41613 1.02601 -0.01203
 O754 O 0.41181 0.97736 0.01119
 O755 O 0.47228 1.00922 -0.08663
 O756 O 0.52053 0.98315 -0.08981
 Zr757 Zr 0.50685 1.01187 -0.05504
 O758 O 0.53498 0.98480 -0.02930
 Zr759 Zr 0.44745 0.99179 -0.01597
 O760 O 0.47333 0.96374 0.01100
 Zr761 Zr 0.48711 1.05048 0.00473
 O762 O 0.51447 1.02485 0.03278
 Zr763 Zr 0.51083 0.94874 -0.01228
 O764 O 0.48292 0.97415 -0.04081
 Zr765 Zr 0.55031 1.00761 0.00840
 O766 O 0.52476 1.03620 -0.01911
 Zr767 Zr 0.49107 0.98727 0.04739
 O768 O 0.46218 1.01494 0.02213
 O769 O 0.47046 1.02813 -0.03197
 O770 O 0.52824 0.97044 0.02528
 C771 C 0.49594 1.07965 -0.05769
 C772 C 0.44434 1.00386 -0.08419
 C773 C 0.41882 1.05373 -0.00638
 C774 C 0.49899 0.91839 0.04869
 C775 C 0.57944 0.94587 -0.00338
 C776 C 0.55283 0.99999 0.07721
 H777 H 0.55153 0.97810 -0.04210
 H778 H 0.52106 1.03768 0.04939
 H779 H 0.45774 1.04096 -0.04454
 H780 H 0.46066 0.94703 0.01746
 H781 H 0.47184 0.91685 -0.04003
 H782 H 0.42977 0.93745 -0.02179
 H783 H 0.56550 1.05709 0.03363
 H784 H 0.53117 1.08711 0.00757
 H785 H 0.52975 0.90907 -0.05019
 H786 H 0.51727 0.99330 -0.10917
 H787 H 0.48784 1.03000 0.08591
 H788 H 0.45916 1.06200 0.05342
 H789 H 0.55512 1.04150 -0.06523
 H790 H 0.58704 1.01305 -0.03550
 H791 H 0.41171 0.99026 0.02902
 H792 H 0.44092 0.96289 0.06164
 O793 O 0.41775 0.52634 0.00880
 O794 O 0.41495 0.48010 -0.01874
 O795 O 0.47603 0.50589 0.08223
 O796 O 0.52206 0.48978 0.08966
 O797 O 0.49366 0.58296 0.02503
 O798 O 0.51478 0.58764 -0.02324
 O799 O 0.55545 0.43191 -0.00018
 O800 O 0.52900 0.42607 0.04461
 O801 O 0.49794 0.44521 -0.06884
 O802 O 0.45011 0.47826 -0.07353
 O803 O 0.56666 0.49990 -0.05783
 O804 O 0.57616 0.54584 -0.02651
 O805 O 0.58245 0.47301 -0.01205
 O806 O 0.58928 0.52280 0.01001
 O807 O 0.52432 0.49133 -0.08453
 O808 O 0.47576 0.51163 -0.09029
 O809 O 0.51075 0.41806 -0.02796
 O810 O 0.48238 0.41501 0.01957
 O811 O 0.44435 0.56583 -0.00825
 O812 O 0.47750 0.57637 -0.04715
 O813 O 0.50938 0.55634 0.06515
 O814 O 0.55049 0.52183 0.07202
 O815 O 0.43473 0.49258 0.05572
 O816 O 0.42864 0.45159 0.02376
 Zr817 Zr 0.44957 0.49206 0.01145
 O818 O 0.47464 0.46388 -0.01624
 Zr819 Zr 0.50980 0.51211 0.05007
 O820 O 0.53726 0.48456 0.02399
 Zr821 Zr 0.48884 0.55122 -0.00900
 O822 O 0.51526 0.52564 -0.03788
 Zr823 Zr 0.51247 0.44898 0.00682
 O824 O 0.48596 0.47460 0.03570
 Zr825 Zr 0.49109 0.48837 -0.05225
 O826 O 0.46366 0.51594 -0.02625
 Zr827 Zr 0.55149 0.50783 -0.01403
 O828 O 0.52694 0.53649 0.01401
 O829 O 0.47260 0.52884 0.02809
 O830 O 0.52823 0.47151 -0.03031
 C831 C 0.41979 0.55291 -0.00143
 C832 C 0.44875 0.49712 0.08029
 C833 C 0.50343 0.58089 0.05192
 C834 C 0.57976 0.44510 -0.00736
 C835 C 0.50546 0.42094 -0.05589
 C836 C 0.55260 0.49433 -0.08223
 H837 H 0.46219 0.44702 -0.02291
 H838 H 0.52177 0.53799 -0.05483
 H839 H 0.46017 0.54144 0.04114
 H840 H 0.55418 0.47731 0.03615
 H841 H 0.51451 0.42939 0.06083
 H842 H 0.53088 0.47069 0.08356
 H843 H 0.48652 0.53075 -0.09095
 H844 H 0.46418 0.56378 -0.05940
 H845 H 0.49276 0.39575 0.01745
 H846 H 0.40801 0.45561 0.03046
 H847 H 0.56771 0.55349 -0.04540
 H848 H 0.53467 0.58518 -0.01397
 H849 H 0.39536 0.48285 -0.00901
 H850 H 0.44501 0.45744 -0.06889
 H851 H 0.56058 0.53729 0.06009
 H852 H 0.59168 0.50983 0.02763
 O853 O -0.08157 0.02398 0.51036
 O854 O -0.08296 -0.02298 0.48288
 O855 O -0.02437 0.00701 0.58443
 O856 O 0.02139 -0.00983 0.59286
 O857 O -0.00687 0.08188 0.52574
 O858 O 0.01557 0.08491 0.47685
 O859 O 0.05777 -0.06869 0.50393
 O860 O 0.03209 -0.07334 0.54975
 O861 O 0.00222 -0.05886 0.43592
 O862 O -0.04732 -0.02741 0.42977
 O863 O 0.06843 -0.00193 0.44562
 O864 O 0.07646 0.04509 0.47578
 O865 O 0.08420 -0.02697 0.49312
 O866 O 0.08995 0.02348 0.51265
 O867 O 0.02651 -0.01173 0.41872
 O868 O -0.02245 0.00582 0.41166
 O869 O 0.01262 -0.08460 0.47831
 O870 O -0.01503 -0.08591 0.52574
 O871 O -0.05540 0.06283 0.49131
 O872 O -0.02215 0.07421 0.45409
 O873 O 0.00965 0.05647 0.56634
 O874 O 0.05000 0.02286 0.57541
 O875 O -0.06450 -0.00939 0.55786
 O876 O -0.07052 -0.05017 0.52647
 Zr877 Zr -0.04930 -0.00999 0.51373
 O878 O -0.02329 -0.03870 0.48744
 Zr879 Zr 0.01003 0.01195 0.55267
 O880 O 0.03845 -0.01559 0.52769
 Zr881 Zr -0.01067 0.04918 0.49227
 O882 O 0.01625 0.02311 0.46430
 Zr883 Zr 0.01457 -0.05213 0.51139
 O884 O -0.01299 -0.02625 0.53901
 Zr885 Zr -0.00680 -0.01524 0.45083
 O886 O -0.03493 0.01294 0.47554
 Zr887 Zr 0.05257 0.00687 0.48908
 O888 O 0.02727 0.03570 0.51621
 O889 O -0.02710 0.02759 0.52974
 O890 O 0.03039 -0.03053 0.47371
 C891 C -0.07980 0.05005 0.49880
 C892 C -0.05119 -0.00308 0.58241
 C893 C 0.00330 0.08056 0.55257
 C894 C 0.08201 -0.05497 0.49744
 C895 C 0.00883 -0.08280 0.45008
 C896 C 0.05468 -0.00803 0.42116
 H897 H -0.03538 -0.05598 0.48120
 H898 H 0.02262 0.03510 0.44703
 H899 H -0.03986 0.04038 0.54226
 H900 H 0.05542 -0.02209 0.54021
 H901 H 0.01749 -0.07023 0.56591
 H902 H 0.03235 -0.02798 0.58734
 H903 H -0.01317 0.02569 0.41096
 H904 H -0.03352 0.06075 0.44085
 H905 H -0.00430 -0.10508 0.52485
 H906 H -0.09140 -0.04603 0.53230
 H907 H 0.06805 0.05199 0.45659
 H908 H 0.03465 0.08400 0.48796
 H909 H -0.10285 -0.01971 0.49178
 H910 H -0.05090 -0.04868 0.43377
 H911 H 0.06068 0.03737 0.56282
 H912 H 0.09226 0.01153 0.53100
 O913 O 0.72738 0.16697 0.25706
 O914 O 0.77472 0.16583 0.23166
 O915 O 0.74467 0.22403 0.33236
 O916 O 0.76001 0.26977 0.34091
 O917 O 0.66812 0.24136 0.27350
 O918 O 0.66436 0.26258 0.22472
 O919 O 0.81853 0.30720 0.25386
 O920 O 0.82416 0.27899 0.29834
 O921 O 0.80968 0.24815 0.18409
 O922 O 0.77567 0.20236 0.17651
 O923 O 0.75020 0.31731 0.19407
 O924 O 0.70403 0.32466 0.22467
 O925 O 0.77662 0.33286 0.24134
 O926 O 0.72588 0.33754 0.26165
 O927 O 0.76443 0.27682 0.16748
 O928 O 0.74290 0.22846 0.15962
 O929 O 0.83390 0.26629 0.22482
 O930 O 0.83815 0.23489 0.27090
 O931 O 0.68729 0.19289 0.23986
 O932 O 0.67688 0.22575 0.20141
 O933 O 0.69392 0.25636 0.31452
 O934 O 0.72728 0.29763 0.32322
 O935 O 0.75972 0.18380 0.30579
 O936 O 0.80207 0.17989 0.27488
 Zr937 Zr 0.76102 0.19953 0.26170
 O938 O 0.78940 0.22596 0.23528
 Zr939 Zr 0.73851 0.25805 0.30061
 O940 O 0.76583 0.28684 0.27582
 Zr941 Zr 0.70100 0.23743 0.24022
 O942 O 0.72678 0.26495 0.21246
 Zr943 Zr 0.80264 0.26370 0.25918
 O944 O 0.77709 0.23575 0.28687
 Zr945 Zr 0.76536 0.24238 0.19877
 O946 O 0.73766 0.21385 0.22358
 Zr947 Zr 0.74275 0.30101 0.23748
 O948 O 0.71416 0.27514 0.26431
 O949 O 0.72306 0.22104 0.27766
 O950 O 0.78037 0.27949 0.22176
 C951 C 0.70076 0.16860 0.24628
 C952 C 0.75421 0.19721 0.33038
 C953 C 0.66958 0.25070 0.30056
 C954 C 0.80464 0.33111 0.24686
 C955 C 0.83272 0.25906 0.19723
 C956 C 0.75861 0.30448 0.17000
 H957 H 0.80690 0.21428 0.22897
 H958 H 0.71468 0.27151 0.19523
 H959 H 0.71036 0.20810 0.29013
 H960 H 0.77230 0.30358 0.28851
 H961 H 0.82133 0.26345 0.31365
 H962 H 0.77900 0.27937 0.33541
 H963 H 0.72416 0.23986 0.15809
 H964 H 0.69085 0.21461 0.18863
 H965 H 0.85695 0.24635 0.26947
 H966 H 0.79854 0.15920 0.28146
 H967 H 0.69635 0.31585 0.20598
 H968 H 0.66541 0.28191 0.23508
 H969 H 0.77243 0.14617 0.24126
 H970 H 0.79531 0.19552 0.18383
 H971 H 0.71184 0.30767 0.31107
 H972 H 0.73837 0.33998 0.27970
 O973 O 0.68428 0.69107 0.75430
 O974 O 0.67962 0.71967 0.79984
 O975 O 0.68894 0.75411 0.68579
 O976 O 0.71653 0.79581 0.67626
 O977 O 0.75357 0.68491 0.69090
 O978 O 0.79871 0.67840 0.72139
 O979 O 0.77274 0.83331 0.75903
 O980 O 0.72740 0.83720 0.73727
 O981 O 0.76002 0.77472 0.83281
 O982 O 0.73904 0.72195 0.83573
 O983 O 0.83306 0.75946 0.77358
 O984 O 0.83429 0.73866 0.72033
 O985 O 0.81332 0.80802 0.74248
 O986 O 0.82533 0.77888 0.70393
 O987 O 0.80829 0.74332 0.81456
 O988 O 0.77867 0.70471 0.82663
 O989 O 0.74390 0.81516 0.80712
 O990 O 0.69868 0.81788 0.77757
 O991 O 0.72629 0.66656 0.74004
 O992 O 0.77599 0.66195 0.75824
 O993 O 0.73478 0.72531 0.66688
 O994 O 0.75888 0.77357 0.66209
 O995 O 0.66599 0.73556 0.72695
 O996 O 0.66361 0.76193 0.77496
 Zr997 Zr 0.69923 0.73507 0.75985
 O998 O 0.72501 0.76288 0.78725
 Zr999 Zr 0.73402 0.75864 0.69919
 O1000 O 0.76191 0.78639 0.72443
 Zr1001 Zr 0.75914 0.69943 0.73548
 O1002 O 0.78702 0.72498 0.76304
 Zr1003 Zr 0.73992 0.79995 0.76315
 O1004 O 0.71061 0.77414 0.73646
 Zr1005 Zr 0.76381 0.74078 0.80042
 O1006 O 0.73691 0.71151 0.77493
 Zr1007 Zr 0.79967 0.76349 0.74015
 O1008 O 0.77378 0.73646 0.71109
 O1009 O 0.72084 0.72094 0.72175
 O1010 O 0.77869 0.77895 0.77863
 C1011 C 0.69846 0.66756 0.74652
 C1012 C 0.66615 0.74348 0.69951
 C1013 C 0.74292 0.69812 0.66775
 C1014 C 0.79965 0.83209 0.74920
 C1015 C 0.75064 0.80166 0.83137
 C1016 C 0.83226 0.74988 0.80064
 H1017 H 0.71255 0.76881 0.80435
 H1018 H 0.80419 0.71248 0.76872
 H1019 H 0.70803 0.70801 0.70940
 H1020 H 0.76755 0.80344 0.71184
 H1021 H 0.70929 0.83140 0.72602
 H1022 H 0.72803 0.81343 0.68257
 H1023 H 0.78832 0.69058 0.81290
 H1024 H 0.76598 0.66143 0.77784
 H1025 H 0.70206 0.83855 0.78431
 H1026 H 0.64482 0.75046 0.77315
 H1027 H 0.83959 0.72239 0.73415
 H1028 H 0.80660 0.69026 0.70462
 H1029 H 0.69212 0.70318 0.80731
 H1030 H 0.72263 0.73570 0.84060
 H1031 H 0.77648 0.76049 0.66048
 H1032 H 0.81111 0.78662 0.68895
 O1033 O 0.24842 0.18254 0.80783
 O1034 O 0.20386 0.17671 0.77994
 O1035 O 0.31767 0.19519 0.74852
 O1036 O 0.32622 0.22323 0.70738
 O1037 O 0.30680 0.25261 0.81997
 O1038 O 0.27643 0.29660 0.82755
 O1039 O 0.23907 0.27600 0.66922
 O1040 O 0.26302 0.23276 0.66337
 O1041 O 0.16662 0.25891 0.72674
 O1042 O 0.15989 0.23952 0.77420
 O1043 O 0.22348 0.33304 0.74400
 O1044 O 0.27056 0.34048 0.76306
 O1045 O 0.25524 0.31600 0.69571
 O1046 O 0.29760 0.32510 0.73166
 O1047 O 0.18348 0.30668 0.76001
 O1048 O 0.17577 0.27024 0.80157
 O1049 O 0.19290 0.24428 0.68611
 O1050 O 0.22507 0.20085 0.68242
 O1051 O 0.25779 0.22419 0.83507
 O1052 O 0.23837 0.27363 0.84086
 O1053 O 0.33333 0.24307 0.77796
 O1054 O 0.33650 0.26599 0.72875
 O1055 O 0.27615 0.16826 0.75923
 O1056 O 0.22668 0.16521 0.73600
 Zr1057 Zr 0.24208 0.19954 0.76453
 O1058 O 0.21350 0.22521 0.73795
 Zr1059 Zr 0.30129 0.23876 0.74406
 O1060 O 0.27495 0.26549 0.71609
 Zr1061 Zr 0.26286 0.25845 0.80376
 O1062 O 0.23524 0.28651 0.77838
 Zr1063 Zr 0.23711 0.24226 0.70150
 O1064 O 0.26547 0.21402 0.72651
 Zr1065 Zr 0.19876 0.26259 0.76124
 O1066 O 0.22476 0.23505 0.78949
 Zr1067 Zr 0.25785 0.30141 0.74034
 O1068 O 0.28707 0.27635 0.76795
 O1069 O 0.27897 0.22220 0.78072
 O1070 O 0.22027 0.27949 0.72366
 C1071 C 0.25362 0.19614 0.83250
 C1072 C 0.30410 0.17070 0.75400
 C1073 C 0.33127 0.24732 0.80613
 C1074 C 0.24827 0.30294 0.67118
 C1075 C 0.16842 0.25003 0.69952
 C1076 C 0.19657 0.33112 0.75350
 H1077 H 0.19681 0.21241 0.73147
 H1078 H 0.22901 0.30308 0.79132
 H1079 H 0.29183 0.20942 0.79321
 H1080 H 0.28732 0.27197 0.69913
 H1081 H 0.27536 0.21528 0.66844
 H1082 H 0.31773 0.23243 0.68924
 H1083 H 0.18465 0.28796 0.81107
 H1084 H 0.21936 0.26252 0.84082
 H1085 H 0.21761 0.20434 0.66187
 H1086 H 0.23036 0.14583 0.74581
 H1087 H 0.26577 0.33743 0.78432
 H1088 H 0.29260 0.30589 0.81585
 H1089 H 0.19468 0.18919 0.79553
 H1090 H 0.16222 0.21876 0.76759
 H1091 H 0.33725 0.28354 0.74196
 H1092 H 0.30669 0.31653 0.71358
 O1093 O 0.18189 0.80537 0.24899
 O1094 O 0.17589 0.77789 0.20432
 O1095 O 0.19483 0.74568 0.31810
 O1096 O 0.22289 0.70445 0.32622
 O1097 O 0.25267 0.81669 0.30785
 O1098 O 0.29658 0.82491 0.27736
 O1099 O 0.27580 0.66771 0.23914
 O1100 O 0.23229 0.66163 0.26288
 O1101 O 0.25863 0.72600 0.16701
 O1102 O 0.23865 0.77348 0.16081
 O1103 O 0.33307 0.74226 0.22384
 O1104 O 0.34093 0.76065 0.27091
 O1105 O 0.31605 0.69388 0.25559
 O1106 O 0.32527 0.72950 0.29817
 O1107 O 0.30635 0.75880 0.18405
 O1108 O 0.27012 0.80009 0.17653
 O1109 O 0.24407 0.68515 0.19290
 O1110 O 0.20033 0.68089 0.22483
 O1111 O 0.22350 0.83239 0.26001
 O1112 O 0.27286 0.83834 0.23901
 O1113 O 0.24282 0.77462 0.33403
 O1114 O 0.26599 0.72575 0.33691
 O1115 O 0.16757 0.75698 0.27667
 O1116 O 0.16437 0.73402 0.22715
 Zr1117 Zr 0.19892 0.76235 0.24258
 O1118 O 0.22468 0.73633 0.21386
 Zr1119 Zr 0.23856 0.74131 0.30171
 O1120 O 0.26539 0.71390 0.27522
 Zr1121 Zr 0.25818 0.80126 0.26376
 O1122 O 0.28636 0.77641 0.23603
 Zr1123 Zr 0.24192 0.69983 0.23723
 O1124 O 0.21357 0.72429 0.26573
 Zr1125 Zr 0.26217 0.75984 0.19940
 O1126 O 0.23452 0.78755 0.22553
 Zr1127 Zr 0.30144 0.73828 0.25831
 O1128 O 0.27629 0.76535 0.28770
 O1129 O 0.22186 0.77797 0.27960
 O1130 O 0.27926 0.72220 0.22060
 C1131 C 0.19539 0.82975 0.25525
 C1132 C 0.17018 0.75156 0.30463
 C1133 C 0.24716 0.80265 0.33217
 C1134 C 0.30289 0.66954 0.24848
 C1135 C 0.24987 0.69886 0.16856
 C1136 C 0.33097 0.75204 0.19697
 H1137 H 0.21179 0.73004 0.19709
 H1138 H 0.30302 0.78934 0.22990
 H1139 H 0.20908 0.79020 0.29258
 H1140 H 0.27192 0.69691 0.28751
 H1141 H 0.21474 0.66653 0.27521
 H1142 H 0.23237 0.68658 0.31780
 H1143 H 0.28756 0.80973 0.18599
 H1144 H 0.26086 0.83873 0.22045
 H1145 H 0.20390 0.66058 0.21719
 H1146 H 0.14490 0.74373 0.23082
 H1147 H 0.33771 0.78190 0.26668
 H1148 H 0.30611 0.81307 0.29335
 H1149 H 0.18839 0.79353 0.19523
 H1150 H 0.21804 0.76597 0.16262
 H1151 H 0.28359 0.73895 0.33782
 H1152 H 0.31682 0.71130 0.30709
 O1153 O 0.24100 0.72565 0.83183
 O1154 O 0.26685 0.77293 0.83384
 O1155 O 0.16759 0.74328 0.77178
 O1156 O 0.16086 0.75809 0.72507
 O1157 O 0.22698 0.66707 0.75693
 O1158 O 0.27653 0.66376 0.73645
 O1159 O 0.24834 0.81685 0.69134
 O1160 O 0.20327 0.82170 0.71713
 O1161 O 0.31653 0.80822 0.75192
 O1162 O 0.32255 0.77573 0.79938
 O1163 O 0.31014 0.74699 0.68407
 O1164 O 0.27755 0.70277 0.67465
 O1165 O 0.26703 0.77647 0.66738
 O1166 O 0.24239 0.72691 0.65969
 O1167 O 0.33371 0.76586 0.72483
 O1168 O 0.34014 0.74184 0.77400
 O1169 O 0.27507 0.83318 0.73684
 O1170 O 0.22700 0.83521 0.76365
 O1171 O 0.25962 0.68621 0.80633
 O1172 O 0.29846 0.67572 0.77487
 O1173 O 0.18646 0.69246 0.74025
 O1174 O 0.17960 0.72472 0.69815
 O1175 O 0.19315 0.75764 0.81333
 O1176 O 0.22366 0.79966 0.81900
 Zr1177 Zr 0.23754 0.75922 0.79912
 O1178 O 0.26452 0.78779 0.77367
 Zr1179 Zr 0.20056 0.73680 0.73873
 O1180 O 0.22649 0.76409 0.71078
 Zr1181 Zr 0.26034 0.69986 0.76162
 O1182 O 0.28923 0.72575 0.73531
 Zr1183 Zr 0.24166 0.80088 0.73494
 O1184 O 0.21334 0.77513 0.76192
 Zr1185 Zr 0.30171 0.76435 0.75852
 O1186 O 0.27612 0.73638 0.78609
 Zr1187 Zr 0.26557 0.74157 0.69817
 O1188 O 0.23760 0.71296 0.72287
 O1189 O 0.22235 0.72148 0.77673
 O1190 O 0.27980 0.77920 0.72060
 C1191 C 0.25213 0.69939 0.83050
 C1192 C 0.16890 0.75255 0.79897
 C1193 C 0.20013 0.66837 0.74681
 C1194 C 0.25969 0.80391 0.66852
 C1195 C 0.30286 0.83173 0.74330
 C1196 C 0.33293 0.75830 0.69733
 H1197 H 0.27027 0.80518 0.78581
 H1198 H 0.30670 0.71387 0.72940
 H1199 H 0.20947 0.70881 0.78930
 H1200 H 0.21466 0.77052 0.69331
 H1201 H 0.18695 0.81810 0.73145
 H1202 H 0.16677 0.77597 0.71382
 H1203 H 0.34381 0.72493 0.76050
 H1204 H 0.31187 0.69014 0.78474
 H1205 H 0.22844 0.85422 0.75264
 H1206 H 0.21685 0.79584 0.83965
 H1207 H 0.29512 0.69409 0.68476
 H1208 H 0.26545 0.66384 0.71733
 H1209 H 0.25698 0.77022 0.85338
 H1210 H 0.31554 0.79568 0.80516
 H1211 H 0.19335 0.71107 0.68782
 H1212 H 0.22622 0.74120 0.65547
 O1213 O 0.25036 0.18007 0.19517
 O1214 O 0.29469 0.17480 0.22369
 O1215 O 0.18034 0.19265 0.25321
 O1216 O 0.17155 0.22060 0.29451
 O1217 O 0.19169 0.24983 0.18187
 O1218 O 0.22185 0.29375 0.17404
 O1219 O 0.25754 0.27472 0.33303
 O1220 O 0.23439 0.23121 0.33912
 O1221 O 0.33086 0.25816 0.27603
 O1222 O 0.33824 0.23822 0.22916
 O1223 O 0.27375 0.33134 0.25785
 O1224 O 0.22677 0.33826 0.23834
 O1225 O 0.24146 0.31438 0.30598
 O1226 O 0.19948 0.32278 0.26948
 O1227 O 0.31395 0.30513 0.24227
 O1228 O 0.32209 0.26826 0.20102
 O1229 O 0.30462 0.24337 0.31667
 O1230 O 0.27267 0.19963 0.32061
 O1231 O 0.24089 0.22145 0.16752
 O1232 O 0.26023 0.27104 0.16144
 O1233 O 0.16479 0.24035 0.22368
 O1234 O 0.16100 0.26324 0.27285
 O1235 O 0.22213 0.16592 0.24322
 O1236 O 0.27128 0.16351 0.26750
 Zr1237 Zr 0.25614 0.19746 0.23837
 O1238 O 0.28436 0.22362 0.26491
 Zr1239 Zr 0.19655 0.23633 0.25792
 O1240 O 0.22249 0.26349 0.28586
 Zr1241 Zr 0.23541 0.25596 0.19841
 O1242 O 0.26255 0.28449 0.22375
 Zr1243 Zr 0.26041 0.24076 0.30105
 O1244 O 0.23238 0.21206 0.27607
 Zr1245 Zr 0.29898 0.26095 0.24136
 O1246 O 0.27347 0.23290 0.21320
 Zr1247 Zr 0.23952 0.29943 0.26148
 O1248 O 0.21074 0.27389 0.23384
 O1249 O 0.21932 0.21976 0.22161
 O1250 O 0.27711 0.27797 0.27865
 C1251 C 0.24523 0.19346 0.17036
 C1252 C 0.19405 0.16822 0.24785
 C1253 C 0.16712 0.24450 0.19550
 C1254 C 0.24808 0.30155 0.33072
 C1255 C 0.32909 0.24947 0.30330
 C1256 C 0.30073 0.32953 0.24851
 H1257 H 0.30112 0.21105 0.27164
 H1258 H 0.26877 0.30100 0.21071
 H1259 H 0.20664 0.20687 0.20903
 H1260 H 0.20988 0.26995 0.30263
 H1261 H 0.22213 0.21365 0.33407
 H1262 H 0.17979 0.23003 0.31264
 H1263 H 0.31342 0.28604 0.19143
 H1264 H 0.27918 0.25985 0.16160
 H1265 H 0.28010 0.20339 0.34112
 H1266 H 0.26785 0.14402 0.25783
 H1267 H 0.23184 0.33514 0.21716
 H1268 H 0.20571 0.30319 0.18561
 H1269 H 0.30392 0.18716 0.20800
 H1270 H 0.33590 0.21743 0.23569
 H1271 H 0.16021 0.28074 0.25955
 H1272 H 0.19026 0.31426 0.28755
 O1273 O 0.81836 0.69745 0.25123
 O1274 O 0.82469 0.72572 0.20734
 O1275 O 0.80486 0.75580 0.32135
 O1276 O 0.77659 0.79646 0.33010
 O1277 O 0.74751 0.68463 0.30850
 O1278 O 0.70364 0.67711 0.27788
 O1279 O 0.72439 0.83509 0.24240
 O1280 O 0.76778 0.84090 0.26664
 O1281 O 0.74121 0.77807 0.16969
 O1282 O 0.76120 0.73159 0.16235
 O1283 O 0.66707 0.76089 0.22535
 O1284 O 0.65909 0.74174 0.27192
 O1285 O 0.68409 0.80869 0.25802
 O1286 O 0.67481 0.77237 0.29994
 O1287 O 0.69386 0.74481 0.18568
 O1288 O 0.73097 0.70348 0.17823
 O1289 O 0.75631 0.81840 0.19615
 O1290 O 0.79995 0.82212 0.22895
 O1291 O 0.77638 0.67027 0.25960
 O1292 O 0.72650 0.66462 0.23965
 O1293 O 0.75686 0.72611 0.33580
 O1294 O 0.73356 0.77524 0.33925
 O1295 O 0.83236 0.74548 0.28012
 O1296 O 0.83575 0.76925 0.23087
 Zr1297 Zr 0.80125 0.74053 0.24540
 O1298 O 0.77555 0.76694 0.21669
 Zr1299 Zr 0.76128 0.76026 0.30431
 O1300 O 0.73470 0.78828 0.27790
 Zr1301 Zr 0.74185 0.70120 0.26486
 O1302 O 0.71369 0.72654 0.23736
 Zr1303 Zr 0.75826 0.80304 0.24041
 O1304 O 0.78642 0.77809 0.26901
 Zr1305 Zr 0.73805 0.74373 0.20141
 O1306 O 0.76574 0.71566 0.22731
 Zr1307 Zr 0.69864 0.76426 0.26019
 O1308 O 0.72363 0.73654 0.28933
 O1309 O 0.77816 0.72405 0.28174
 O1310 O 0.72094 0.78099 0.22301
 C1311 C 0.80459 0.67287 0.25574
 C1312 C 0.82960 0.75041 0.30813
 C1313 C 0.75271 0.69810 0.33321
 C1314 C 0.69729 0.83311 0.25141
 C1315 C 0.75014 0.80510 0.17161
 C1316 C 0.66922 0.75136 0.19844
 H1317 H 0.78844 0.77350 0.20013
 H1318 H 0.69707 0.71368 0.23084
 H1319 H 0.79095 0.71153 0.29456
 H1320 H 0.72817 0.80506 0.29039
 H1321 H 0.78516 0.83576 0.27929
 H1322 H 0.76796 0.81461 0.32129
 H1323 H 0.71268 0.69427 0.18627
 H1324 H 0.73814 0.66445 0.22098
 H1325 H 0.79643 0.84249 0.22139
 H1326 H 0.85525 0.75967 0.23488
 H1327 H 0.66242 0.72052 0.26762
 H1328 H 0.69398 0.68873 0.29385
 H1329 H 0.81217 0.71046 0.19758
 H1330 H 0.78217 0.73773 0.16514
 H1331 H 0.71618 0.76175 0.33995
 H1332 H 0.68320 0.79044 0.30921
 O1333 O 0.69290 0.24660 0.81716
 O1334 O 0.72164 0.20255 0.82327
 O1335 O 0.75407 0.31635 0.80837
 O1336 O 0.79693 0.32405 0.78183
 O1337 O 0.68473 0.30789 0.74673
 O1338 O 0.67760 0.27710 0.70232
 O1339 O 0.83432 0.24032 0.72688
 O1340 O 0.83935 0.26259 0.77147
 O1341 O 0.77548 0.16741 0.74199
 O1342 O 0.72350 0.16431 0.76345
 O1343 O 0.76004 0.22476 0.66806
 O1344 O 0.73863 0.27641 0.66435
 O1345 O 0.80821 0.25622 0.68626
 O1346 O 0.77714 0.29525 0.67402
 O1347 O 0.74330 0.18472 0.69377
 O1348 O 0.70424 0.17388 0.72475
 O1349 O 0.81640 0.19304 0.75737
 O1350 O 0.81977 0.22386 0.80186
 O1351 O 0.66791 0.26227 0.77566
 O1352 O 0.66234 0.23961 0.72703
 O1353 O 0.72657 0.33335 0.75987
 O1354 O 0.77571 0.33681 0.73844
 O1355 O 0.74098 0.27483 0.83413
 O1356 O 0.76462 0.22598 0.83714
 Zr1357 Zr 0.73711 0.24142 0.80179
 O1358 O 0.76434 0.21347 0.77625
 Zr1359 Zr 0.75972 0.30096 0.76433
 O1360 O 0.78741 0.27512 0.73727
 Zr1361 Zr 0.69987 0.26394 0.74178
 O1362 O 0.72515 0.23625 0.71407
 Zr1363 Zr 0.80136 0.23702 0.76020
 O1364 O 0.77594 0.26453 0.78878
 Zr1365 Zr 0.74139 0.19958 0.73804
 O1366 O 0.71265 0.22538 0.76496
 Zr1367 Zr 0.76365 0.25874 0.70030
 O1368 O 0.73657 0.28795 0.72551
 O1369 O 0.72235 0.27879 0.77923
 O1370 O 0.77951 0.22090 0.72212
 C1371 C 0.66928 0.25557 0.80345
 C1372 C 0.74692 0.30261 0.83244
 C1373 C 0.69869 0.33178 0.75376
 C1374 C 0.83263 0.24970 0.69978
 C1375 C 0.80269 0.16886 0.75112
 C1376 C 0.75033 0.19797 0.66952
 H1377 H 0.77052 0.19670 0.78903
 H1378 H 0.71237 0.23020 0.69714
 H1379 H 0.70981 0.29165 0.79181
 H1380 H 0.80453 0.28749 0.73124
 H1381 H 0.83398 0.27436 0.78926
 H1382 H 0.81478 0.31702 0.77113
 H1383 H 0.69037 0.18736 0.71424
 H1384 H 0.66148 0.22146 0.73941
 H1385 H 0.84032 0.21656 0.79855
 H1386 H 0.75408 0.22904 0.85629
 H1387 H 0.72137 0.26321 0.66085
 H1388 H 0.68974 0.29308 0.69335
 H1389 H 0.70599 0.19384 0.81036
 H1390 H 0.73700 0.16073 0.78055
 H1391 H 0.76349 0.33743 0.72003
 H1392 H 0.78926 0.30834 0.68694
 N1393 N 0.09677 1.04214 1.13966
 C1394 C 0.09781 1.02098 1.16123
 N1395 N 0.08562 0.99400 1.15517
 N1396 N 0.07254 0.98857 1.12905
 C1397 C 0.07155 1.00977 1.10772
 N1398 N 0.08378 1.03667 1.11347
 N1399 N 0.60892 0.52933 0.63265
 C1400 C 0.59640 0.52211 0.65920
 N1401 N 0.56960 0.50825 0.65930
 N1402 N 0.55549 0.50229 0.63390
 C1403 C 0.56798 0.50930 0.60737
 N1404 N 0.59496 0.52296 0.60713
 N1405 N 0.39489 0.00041 0.63946
 C1406 C 0.40206 -0.02328 0.65681
 N1407 N 0.42455 -0.04130 0.64831
 N1408 N 0.43959 -0.03569 0.62350
 C1409 C 0.43248 -0.01211 0.60611
 N1410 N 0.40965 0.00574 0.61429
 N1411 N -0.10668 0.50225 1.14486
 C1412 C -0.09893 0.47856 1.16198
 N1413 N -0.07605 0.46115 1.15323
 N1414 N -0.06123 0.46736 1.12842
 C1415 C -0.06891 0.49095 1.11127
 N1416 N -0.09214 0.50817 1.11969
 N1417 N -0.09541 0.54727 0.36037
 C1418 C -0.10050 0.52512 0.34047
 N1419 N -0.09241 0.49707 0.34817
 N1420 N -0.07944 0.49145 0.37432
 C1421 C -0.07416 0.51370 0.39386
 N1422 N -0.08224 0.54170 0.38643
 N1423 N 0.39989 1.04120 -0.14139
 C1424 C 0.40067 1.02146 -0.16424
 N1425 N 0.41442 0.99497 -0.15957
 N1426 N 0.42736 0.98873 -0.13357
 C1427 C 0.42643 1.00848 -0.11092
 N1428 N 0.41259 1.03484 -0.11526
 N1429 N 0.60985 0.46998 -0.13515
 C1430 C 0.59723 0.47772 -0.16161
 N1431 N 0.57069 0.49202 -0.16159
 N1432 N 0.55692 0.49789 -0.13612
 C1433 C 0.56950 0.49034 -0.10967
 N1434 N 0.59623 0.47627 -0.10957
 N1435 N 0.07276 -0.00860 0.34181
 C1436 C 0.09900 -0.02343 0.34132
 N1437 N 0.11155 -0.03202 0.36756
 N1438 N 0.09813 -0.02606 0.39336
 C1439 C 0.07168 -0.01148 0.39368
 N1440 N 0.05919 -0.00306 0.36745
 N1441 N 0.13754 1.09575 1.04472
 C1442 C 0.15900 1.09665 1.02347
 N1443 N 0.15278 1.08476 0.99628
 N1444 N 0.12661 1.07202 0.99073
 C1445 C 0.10543 1.07108 1.01205
 N1446 N 0.11131 1.08305 1.03916
 N1447 N 0.65538 0.57263 0.50506
 C1448 C 0.65563 0.59891 0.51966
 N1449 N 0.62934 0.61090 0.52844
 N1450 N 0.60373 0.59692 0.52283
 C1451 C 0.60368 0.57040 0.50854
 N1452 N 0.62993 0.55850 0.49988
 N1453 N 0.65482 0.41578 0.00417
 C1454 C 0.65990 0.40111 -0.02179
 N1455 N 0.63746 0.39967 -0.04222
 N1456 N 0.61132 0.41261 -0.03702
 C1457 C 0.60659 0.42739 -0.01116
 N1458 N 0.62882 0.42892 0.00926
 N1459 N 0.16139 -0.07244 0.49555
 C1460 C 0.16178 -0.09856 0.48064
 N1461 N 0.13549 -0.11129 0.47265
 N1462 N 0.10973 -0.09814 0.47920
 C1463 C 0.10950 -0.07181 0.49385
 N1464 N 0.13577 -0.05915 0.50169
 N1465 N 0.34820 -0.08521 0.49226
 C1466 C 0.34488 -0.10154 0.51754
 N1467 N 0.36870 -0.10444 0.53612
 N1468 N 0.39447 -0.09122 0.52992
 C1469 C 0.39739 -0.07456 0.50495
 N1470 N 0.37382 -0.07167 0.48626
 N1471 N -0.15973 0.43011 1.00789
 C1472 C -0.15971 0.40327 1.02150
 N1473 N -0.13323 0.39059 1.02880
 N1474 N -0.10769 0.40444 1.02281
 C1475 C -0.10783 0.43149 1.00954
 N1476 N -0.13429 0.44412 1.00235
 N1477 N -0.14111 0.59653 0.45889
 C1478 C -0.16338 0.59612 0.47930
 N1479 N -0.15839 0.58218 0.50576
 N1480 N -0.13257 0.56883 0.51142
 C1481 C -0.11053 0.56934 0.49098
 N1482 N -0.11519 0.58331 0.46460
 N1483 N 0.36124 1.09963 -0.04079
 C1484 C 0.33849 1.09703 -0.02108
 N1485 N 0.34337 1.08159 0.00454
 N1486 N 0.36950 1.06873 0.00991
 C1487 C 0.39204 1.07145 -0.00981
 N1488 N 0.38750 1.08704 -0.03527
 N1489 N -0.00599 1.15488 1.08086
 C1490 C 0.01956 1.15965 1.09657
 N1491 N 0.03908 1.13681 1.09962
 N1492 N 0.03346 1.11057 1.08721
 C1493 C 0.00808 1.10614 1.07134
 N1494 N -0.01146 1.12877 1.06819
 N1495 N 0.50220 0.65709 0.57299
 C1496 C 0.51660 0.65702 0.59963
 N1497 N 0.52481 0.63068 0.61181
 N1498 N 0.51885 0.60533 0.59768
 C1499 C 0.50476 0.60558 0.57082
 N1500 N 0.49667 0.63189 0.55871
 N1501 N -0.04516 0.64979 0.42478
 C1502 C -0.02588 0.66001 0.40404
 N1503 N -0.00145 0.64354 0.39735
 N1504 N 0.00348 0.61771 0.41095
 C1505 C -0.01561 0.60782 0.43209
 N1506 N -0.03998 0.62428 0.43869
 N1507 N 0.46067 1.13772 -0.10225
 C1508 C 0.48037 1.16044 -0.09941
 N1509 N 0.50628 1.15539 -0.08439
 N1510 N 0.51194 1.12914 -0.07211
 C1511 C 0.49222 1.10662 -0.07506
 N1512 N 0.46647 1.11133 -0.09026
 N1513 N 0.54023 0.36487 -0.10306
 C1514 C 0.52092 0.34177 -0.10051
 N1515 N 0.49546 0.34596 -0.08475
 N1516 N 0.48989 0.37171 -0.07150
 C1517 C 0.50927 0.39454 -0.07402
 N1518 N 0.53451 0.39076 -0.09005
 N1519 N 0.03291 -0.13637 0.39323
 C1520 C 0.02563 -0.16250 0.40642
 N1521 N 0.01178 -0.16203 0.43320
 N1522 N 0.00593 -0.13648 0.44664
 C1523 C 0.01298 -0.11037 0.43349
 N1524 N 0.02663 -0.11069 0.40653
 N1525 N 0.47782 -0.13301 0.60983
 C1526 C 0.48426 -0.15955 0.59719
 N1527 N 0.49808 -0.16001 0.57037
 N1528 N 0.50463 -0.13493 0.55630
 C1529 C 0.49828 -0.10841 0.56889
 N1530 N 0.48482 -0.10784 0.59593
 N1531 N 0.00666 0.34522 1.08160
 C1532 C -0.01756 0.34195 1.09944
 N1533 N -0.03502 0.36602 1.10442
 N1534 N -0.02876 0.39200 1.09181
 C1535 C -0.00487 0.39491 1.07366
 N1536 N 0.01267 0.37107 1.06864
 N1537 N 0.79432 0.34915 0.11220
 C1538 C 0.77303 0.34980 0.09054
 N1539 N 0.74635 0.33667 0.09619
 N1540 N 0.74132 0.32307 0.12200
 C1541 C 0.76266 0.32246 0.14341
 N1542 N 0.78926 0.33564 0.13810
 N1543 N 0.25328 0.85723 0.60674
 C1544 C 0.27795 0.85065 0.59058
 N1545 N 0.29672 0.82937 0.60066
 N1546 N 0.29083 0.81485 0.62574
 C1547 C 0.26620 0.82133 0.64188
 N1548 N 0.24763 0.84301 0.63216
 N1549 N 0.74889 0.64406 0.60670
 C1550 C 0.72431 0.65083 0.59022
 N1551 N 0.70608 0.67276 0.59957
 N1552 N 0.71233 0.68766 0.62435
 C1553 C 0.73682 0.68097 0.64086
 N1554 N 0.75489 0.65868 0.63185
 N1555 N 0.24445 0.17362 0.09145
 C1556 C 0.22977 0.14734 0.09165
 N1557 N 0.22168 0.13535 0.11817
 N1558 N 0.22791 0.14937 0.14359
 C1559 C 0.24226 0.17588 0.14326
 N1560 N 0.25026 0.18780 0.11676
 N1561 N 0.25494 0.17650 0.91158
 C1562 C 0.26894 0.14990 0.91128
 N1563 N 0.27654 0.13775 0.88471
 N1564 N 0.27045 0.15190 0.85932
 C1565 C 0.25678 0.17872 0.85972
 N1566 N 0.24929 0.19082 0.88628
 N1567 N 0.77546 0.63904 0.38490
 C1568 C 0.76856 0.65122 0.41166
 N1569 N 0.75515 0.67814 0.41227
 N1570 N 0.74938 0.69268 0.38712
 C1571 C 0.75612 0.68053 0.36038
 N1572 N 0.76925 0.65344 0.35966
 N1573 N 0.24453 0.82032 0.41172
 C1574 C 0.23019 0.84676 0.41178
 N1575 N 0.22285 0.85951 0.38532
 N1576 N 0.22945 0.84608 0.35972
 C1577 C 0.24353 0.81945 0.35975
 N1578 N 0.25071 0.80673 0.38620
 N1579 N 0.72369 0.36081 0.88459
 C1580 C 0.72951 0.34782 0.91130
 N1581 N 0.74251 0.32071 0.91180
 N1582 N 0.74886 0.30672 0.88655
 C1583 C 0.74320 0.31966 0.85986
 N1584 N 0.73050 0.34696 0.85927
 N1585 N 0.82240 0.41017 0.24649
 C1586 C 0.84930 0.41069 0.23288
 N1587 N 0.86229 0.38463 0.22520
 N1588 N 0.84868 0.35897 0.23086
 C1589 C 0.82155 0.35860 0.24411
 N1590 N 0.80863 0.38463 0.25170
 N1591 N 0.36155 0.88405 0.72155
 C1592 C 0.34839 0.91045 0.72757
 N1593 N 0.32090 0.91064 0.73996
 N1594 N 0.30676 0.88540 0.74562
 C1595 C 0.31987 0.85903 0.73975
 N1596 N 0.34755 0.85872 0.72769
 N1597 N 0.14975 0.88618 0.29136
 C1598 C 0.15110 0.90898 0.27160
 N1599 N 0.16580 0.90461 0.24551
 N1600 N 0.17910 0.87892 0.23971
 C1601 C 0.17759 0.85632 0.25949
 N1602 N 0.16276 0.86036 0.28542
 N1603 N 0.64049 0.38419 0.77603
 C1604 C 0.65375 0.41058 0.77010
 N1605 N 0.68106 0.41077 0.75731
 N1606 N 0.69498 0.38551 0.75129
 C1607 C 0.68176 0.35913 0.75707
 N1608 N 0.65427 0.35886 0.76955
 N1609 N 0.64025 0.61515 0.72336
 C1610 C 0.65401 0.58876 0.72792
 N1611 N 0.68170 0.58847 0.74015
 N1612 N 0.69550 0.61368 0.74690
 C1613 C 0.68177 0.64007 0.74250
 N1614 N 0.65391 0.64041 0.73057
 N1615 N 0.13661 0.11527 0.22377
 C1616 C 0.14918 0.08906 0.23176
 N1617 N 0.17556 0.08931 0.24663
 N1618 N 0.18928 0.11473 0.25270
 C1619 C 0.17677 0.14092 0.24481
 N1620 N 0.15017 0.14080 0.23025
 N1621 N 0.36190 0.11737 0.77585
 C1622 C 0.34926 0.09137 0.76728
 N1623 N 0.32267 0.09192 0.75283
 N1624 N 0.30881 0.11744 0.74771
 C1625 C 0.32138 0.14343 0.75618
 N1626 N 0.34820 0.14302 0.77031
 N1627 N 0.86216 0.61970 0.27854
 C1628 C 0.84978 0.59367 0.26967
 N1629 N 0.82344 0.59417 0.25476
 N1630 N 0.80959 0.61965 0.24945
 C1631 C 0.82189 0.64565 0.25826
 N1632 N 0.84848 0.64531 0.27282
 N1633 N 0.90201 0.29368 0.17185
 C1634 C 0.91055 0.27545 0.14948
 N1635 N 0.89308 0.25183 0.14241
 N1636 N 0.86784 0.24674 0.15713
 C1637 C 0.85959 0.26480 0.17980
 N1638 N 0.87710 0.28832 0.18685
 N1639 N 0.39387 0.75159 0.64306
 C1640 C 0.41097 0.77551 0.65010
 N1641 N 0.40198 0.79377 0.67225
 N1642 N 0.37701 0.78814 0.68708
 C1643 C 0.35991 0.76427 0.68011
 N1644 N 0.36858 0.74623 0.65759
 N1645 N 0.41079 0.24615 0.82457
 C1646 C 0.41125 0.23079 0.85057
 N1647 N 0.38499 0.22236 0.86290
 N1648 N 0.35922 0.22891 0.84951
 C1649 C 0.35887 0.24397 0.82328
 N1650 N 0.38512 0.25227 0.81100
 N1651 N 0.90850 0.74989 0.32838
 C1652 C 0.90838 0.73470 0.35447
 N1653 N 0.88188 0.72640 0.36634
 N1654 N 0.85642 0.73290 0.35237
 C1655 C 0.85669 0.74768 0.32600
 N1656 N 0.88315 0.75597 0.31423
 N1657 N 0.11826 0.77474 0.36297
 C1658 C 0.09161 0.76751 0.35050
 N1659 N 0.09119 0.75335 0.32385
 N1660 N 0.11643 0.74729 0.30976
 C1661 C 0.14306 0.75444 0.32217
 N1662 N 0.14359 0.76825 0.34904
 N1663 N 0.60025 0.29098 0.82771
 C1664 C 0.59146 0.27340 0.85049
 N1665 N 0.60855 0.24969 0.85816
 N1666 N 0.63377 0.24396 0.84364
 C1667 C 0.64226 0.26139 0.82052
 N1668 N 0.62509 0.28496 0.81290
 N1669 N 0.60496 0.74823 0.64465
 C1670 C 0.58804 0.72445 0.65243
 N1671 N 0.59702 0.70721 0.67549
 N1672 N 0.62187 0.71364 0.69039
 C1673 C 0.63883 0.73734 0.68266
 N1674 N 0.63016 0.75438 0.65927
 N1675 N 0.08786 0.24279 0.17591
 C1676 C 0.08800 0.22853 0.14931
 N1677 N 0.11453 0.22085 0.13712
 N1678 N 0.14000 0.22710 0.15121
 C1679 C 0.13975 0.24107 0.17802
 N1680 N 0.11323 0.24860 0.19018
 N1681 N -0.10053 1.03759 0.86340
 C1682 C -0.09670 1.02047 0.83881
 N1683 N -0.07868 0.99628 0.84116
 N1684 N -0.06487 0.98963 0.86663
 C1685 C -0.06907 1.00655 0.89116
 N1686 N -0.08714 1.03064 0.88907
 N1687 N 0.39246 0.53219 0.36325
 C1688 C 0.40225 0.52061 0.33716
 N1689 N 0.42557 0.50141 0.33786
 N1690 N 0.43885 0.49431 0.36347
 C1691 C 0.42894 0.50567 0.38956
 N1692 N 0.40557 0.52482 0.38895
 N1693 N 0.57971 0.00622 0.33928
 C1694 C 0.59782 -0.01787 0.33682
 N1695 N 0.60240 -0.03483 0.36143
 N1696 N 0.58957 -0.02792 0.38723
 C1697 C 0.57133 -0.00401 0.38945
 N1698 N 0.56641 0.01282 0.36491
 N1699 N 0.07100 0.49842 0.84092
 C1700 C 0.09495 0.47997 0.84102
 N1701 N 0.10525 0.46968 0.86755
 N1702 N 0.09202 0.47753 0.89291
 C1703 C 0.06801 0.49591 0.89276
 N1704 N 0.05757 0.50598 0.86622
 N1705 N 0.10373 0.53196 0.63583
 C1706 C 0.09412 0.52102 0.66226
 N1707 N 0.07018 0.50250 0.66230
 N1708 N 0.05617 0.49546 0.63703
 C1709 C 0.06594 0.50620 0.61060
 N1710 N 0.08991 0.52466 0.61051
 N1711 N 0.57264 1.00302 0.15684
 C1712 C 0.59656 1.02153 0.15697
 N1713 N 0.60668 1.03205 0.13054
 N1714 N 0.59329 1.02438 0.10507
 C1715 C 0.56931 1.00591 0.10503
 N1716 N 0.55909 0.99559 0.13145
 N1717 N 0.42893 0.49375 0.15982
 C1718 C 0.40453 0.47586 0.15955
 N1719 N 0.39444 0.46546 0.13297
 N1720 N 0.40822 0.47278 0.10773
 C1721 C 0.43263 0.49068 0.10807
 N1722 N 0.44290 0.50078 0.13465
 N1723 N -0.07736 0.00165 0.65990
 C1724 C -0.09633 -0.02188 0.66186
 N1725 N -0.10050 -0.03888 0.63720
 N1726 N -0.08659 -0.03240 0.61180
 C1727 C -0.06760 -0.00897 0.61009
 N1728 N -0.06304 0.00779 0.63471
 N1729 N -0.15946 0.92060 0.99753
 C1730 C -0.16202 0.90311 1.02215
 N1731 N -0.13760 0.89944 1.03978
 N1732 N -0.11186 0.91252 1.03293
 C1733 C -0.10958 0.93010 1.00843
 N1734 N -0.13394 0.93410 0.99099
 N1735 N 0.33633 0.42637 0.50319
 C1736 C 0.33604 0.40293 0.52223
 N1737 N 0.36233 0.39302 0.53349
 N1738 N 0.38785 0.40615 0.52596
 C1739 C 0.38804 0.42964 0.50695
 N1740 N 0.36176 0.43966 0.49593
 N1741 N 0.36630 0.60645 -0.03295
 C1742 C 0.34014 0.59692 -0.02130
 N1743 N 0.34051 0.57341 -0.00233
 N1744 N 0.36590 0.55970 0.00447
 C1745 C 0.39206 0.56933 -0.00700
 N1746 N 0.39177 0.59291 -0.02589
 N1747 N -0.13480 0.09809 0.46152
 C1748 C -0.15927 0.09469 0.47889
 N1749 N -0.15714 0.07665 0.50318
 N1750 N -0.13194 0.06245 0.50970
 C1751 C -0.10751 0.06623 0.49253
 N1752 N -0.10941 0.08430 0.46834
 N1753 N 0.63620 0.10766 0.53080
 C1754 C 0.66241 0.09794 0.51945
 N1755 N 0.66196 0.07466 0.50024
 N1756 N 0.63651 0.06128 0.49299
 C1757 C 0.61031 0.07105 0.50419
 N1758 N 0.61064 0.09445 0.52329
 N1759 N 0.13698 0.60289 1.03718
 C1760 C 0.16148 0.59848 1.02009
 N1761 N 0.15897 0.58015 0.99608
 N1762 N 0.13341 0.56651 0.98965
 C1763 C 0.10898 0.57123 1.00657
 N1764 N 0.11124 0.58967 1.03042
 N1765 N 0.15829 0.42868 0.49523
 C1766 C 0.15835 0.40477 0.47680
 N1767 N 0.13197 0.39488 0.46574
 N1768 N 0.10659 0.40839 0.47293
 C1769 C 0.10661 0.43230 0.49137
 N1770 N 0.13299 0.44237 0.50215
 N1771 N 0.65883 0.92585 -0.00321
 C1772 C 0.65943 0.90209 -0.02182
 N1773 N 0.63333 0.89211 -0.03347
 N1774 N 0.60771 0.90548 -0.02679
 C1775 C 0.60722 0.92932 -0.00826
 N1776 N 0.63332 0.93938 0.00320
 N1777 N 0.03873 0.86369 0.89902
 C1778 C 0.02220 0.83886 0.90361
 N1779 N -0.00126 0.84062 0.92270
 N1780 N -0.00777 0.86577 0.93676
 C1781 C 0.00852 0.89055 0.93181
 N1782 N 0.03189 0.88903 0.91268
 N1783 N 0.53252 0.36526 0.39295
 C1784 C 0.52199 0.33893 0.40312
 N1785 N 0.50377 0.33894 0.42724
 N1786 N 0.49657 0.36412 0.44087
 C1787 C 0.50683 0.39044 0.43057
 N1788 N 0.52505 0.39052 0.40642
 N1789 N 0.00141 0.33960 0.57576
 C1790 C -0.02220 0.33708 0.59461
 N1791 N -0.03939 0.36141 0.59917
 N1792 N -0.03303 0.38702 0.58575
 C1793 C -0.00951 0.38931 0.56689
 N1794 N 0.00745 0.36502 0.56193
 N1795 N 0.49721 0.83927 0.06899
 C1796 C 0.47857 0.83906 0.09280
 N1797 N 0.46752 0.86526 0.10263
 N1798 N 0.47480 0.89058 0.08909
 C1799 C 0.49336 0.89070 0.06521
 N1800 N 0.50422 0.86450 0.05526
 N1801 N 0.50364 0.65997 0.07183
 C1802 C 0.52259 0.66080 0.09553
 N1803 N 0.53460 0.63496 0.10542
 N1804 N 0.52788 0.60937 0.09204
 C1805 C 0.50898 0.60867 0.06826
 N1806 N 0.49718 0.63450 0.05830
 N1807 N 0.03944 0.13656 0.60043
 C1808 C 0.02227 0.16090 0.59564
 N1809 N -0.00153 0.15831 0.57684
 N1810 N -0.00776 0.13281 0.56323
 C1811 C 0.00918 0.10852 0.56839
 N1812 N 0.03288 0.11086 0.58723
 N1813 N 0.46780 0.13501 0.39449
 C1814 C 0.47895 0.16121 0.40434
 N1815 N 0.49806 0.16099 0.42797
 N1816 N 0.50545 0.13573 0.44148
 C1817 C 0.49452 0.10952 0.43148
 N1818 N 0.47547 0.10967 0.40780
 N1819 N -0.03709 0.63772 0.89921
 C1820 C -0.01986 0.66216 0.90344
 N1821 N 0.00395 0.65991 0.92227
 N1822 N 0.01009 0.63468 0.93649
 C1823 C -0.00695 0.61030 0.93192
 N1824 N -0.03063 0.61230 0.91301
 N1825 N 0.28442 0.64697 0.88465
 C1826 C 0.27253 0.65641 0.91071
 N1827 N 0.25325 0.67964 0.91012
 N1828 N 0.24635 0.69314 0.88460
 C1829 C 0.25804 0.68355 0.85855
 N1830 N 0.27727 0.66029 0.85907
 N1831 N 0.78611 0.14401 0.38429
 C1832 C 0.77539 0.15433 0.41056
 N1833 N 0.75705 0.17828 0.41011
 N1834 N 0.74992 0.19162 0.38459
 C1835 C 0.76039 0.18118 0.35833
 N1836 N 0.77873 0.15721 0.35867
 N1837 N 0.24566 0.32153 0.41016
 C1838 C 0.22678 0.34507 0.41018
 N1839 N 0.21587 0.35495 0.38371
 N1840 N 0.22351 0.34166 0.35831
 C1841 C 0.24231 0.31804 0.35839
 N1842 N 0.25305 0.30808 0.38484
 N1843 N 0.71818 0.85414 0.88498
 C1844 C 0.72903 0.84406 0.91136
 N1845 N 0.74804 0.82059 0.91118
 N1846 N 0.75555 0.80739 0.88574
 C1847 C 0.74486 0.81760 0.85936
 N1848 N 0.72597 0.84115 0.85949
 N1849 N 0.75178 0.82362 0.09184
 C1850 C 0.77071 0.84714 0.09114
 N1851 N 0.78190 0.85755 0.11728
 N1852 N 0.77450 0.84477 0.14304
 C1853 C 0.75565 0.82116 0.14364
 N1854 N 0.74464 0.81069 0.11751
 N1855 N 0.27925 0.35584 0.61695
 C1856 C 0.26738 0.34597 0.59090
 N1857 N 0.24819 0.32266 0.59164
 N1858 N 0.24148 0.30939 0.61726
 C1859 C 0.25323 0.31932 0.64330
 N1860 N 0.27228 0.34276 0.64265
 N1861 N 0.75000 0.17846 0.58983
 C1862 C 0.73073 0.15520 0.58896
 N1863 N 0.71875 0.14549 0.61492
 N1864 N 0.72577 0.15861 0.64065
 C1865 C 0.74495 0.18194 0.64143
 N1866 N 0.75675 0.19177 0.61548
 N1867 N 0.21790 0.64593 0.11465
 C1868 C 0.22845 0.65635 0.08836
 N1869 N 0.24694 0.68024 0.08873
 N1870 N 0.25429 0.69350 0.11424
 C1871 C 0.24396 0.68294 0.14053
 N1872 N 0.22553 0.65900 0.14023
 N1873 N 0.14629 0.61447 0.71624
 C1874 C 0.15598 0.58857 0.72819
 N1875 N 0.17997 0.58915 0.74683
 N1876 N 0.19390 0.61451 0.75307
 C1877 C 0.18404 0.64042 0.74132
 N1878 N 0.16003 0.63989 0.72274
 N1879 N 0.64755 0.11558 0.21305
 C1880 C 0.65709 0.08935 0.22440
 N1881 N 0.68075 0.08944 0.24347
 N1882 N 0.69453 0.11460 0.25073
 C1883 C 0.68479 0.14083 0.23965
 N1884 N 0.66114 0.14081 0.22057
 N1885 N 0.85558 0.11480 0.78302
 C1886 C 0.84506 0.08875 0.77208
 N1887 N 0.82116 0.08937 0.75334
 N1888 N 0.80799 0.11485 0.74614
 C1889 C 0.81863 0.14089 0.75687
 N1890 N 0.84259 0.14035 0.77555
 N1891 N 0.35566 0.61508 0.27977
 C1892 C 0.34568 0.58930 0.26770
 N1893 N 0.32239 0.59033 0.24824
 N1894 N 0.30925 0.61593 0.24148
 C1895 C 0.31926 0.64169 0.25344
 N1896 N 0.34270 0.64076 0.27274
 N1897 N 0.32022 0.40881 0.24609
 C1898 C 0.34401 0.40914 0.22743
 N1899 N 0.35410 0.38295 0.21656
 N1900 N 0.34084 0.35755 0.22404
 C1901 C 0.31699 0.35731 0.24263
 N1902 N 0.30679 0.38349 0.25332
 N1903 N 0.85262 0.88559 0.71683
 C1904 C 0.84259 0.91180 0.72764
 N1905 N 0.81878 0.91156 0.74632
 N1906 N 0.80529 0.88627 0.75362
 C1907 C 0.81550 0.86006 0.74304
 N1908 N 0.83932 0.86025 0.72440
 N1909 N 0.64419 0.88715 0.28225
 C1910 C 0.65418 0.91301 0.27046
 N1911 N 0.67768 0.91221 0.25149
 N1912 N 0.69100 0.88672 0.24487
 C1913 C 0.68093 0.86086 0.25647
 N1914 N 0.65734 0.86156 0.27537
 N1915 N 0.14353 0.38494 0.78520
 C1916 C 0.15353 0.41096 0.77375
 N1917 N 0.17710 0.41034 0.75484
 N1918 N 0.19041 0.38492 0.74790
 C1919 C 0.18031 0.35891 0.75914
 N1920 N 0.15668 0.35942 0.77801
 N1921 N 0.11563 0.78460 0.85240
 C1922 C 0.08913 0.77420 0.84215
 N1923 N 0.08906 0.75617 0.81784
 N1924 N 0.11434 0.74903 0.80414
 C1925 C 0.14084 0.75913 0.81461
 N1926 N 0.14096 0.77718 0.83890
 N1927 N 0.61580 0.28238 0.35360
 C1928 C 0.58950 0.27142 0.34339
 N1929 N 0.58980 0.25291 0.31947
 N1930 N 0.61525 0.24590 0.30605
 C1931 C 0.64154 0.25664 0.31641
 N1932 N 0.64131 0.27509 0.34037
 N1933 N 0.58987 0.74939 0.17748
 C1934 C 0.58972 0.73023 0.15409
 N1935 N 0.61607 0.71893 0.14470
 N1936 N 0.64147 0.72647 0.15826
 C1937 C 0.64153 0.74554 0.18174
 N1938 N 0.61520 0.75666 0.19123
 N1939 N 0.11548 0.21771 0.64545
 C1940 C 0.08893 0.22797 0.65542
 N1941 N 0.08879 0.24637 0.67943
 N1942 N 0.11404 0.25391 0.69321
 C1943 C 0.14059 0.24387 0.68309
 N1944 N 0.14079 0.22552 0.65904
 N1945 N 0.88543 0.28154 0.64577
 C1946 C 0.91195 0.27082 0.65556
 N1947 N 0.91215 0.25232 0.67954
 N1948 N 0.88698 0.24512 0.69344
 C1949 C 0.86045 0.25563 0.68347
 N1950 N 0.86021 0.27407 0.65947
 N1951 N 0.38431 0.78339 0.14308
 C1952 C 0.41057 0.77179 0.15264
 N1953 N 0.41030 0.75294 0.17632
 N1954 N 0.38497 0.74621 0.19012
 C1955 C 0.35872 0.75761 0.18044
 N1956 N 0.35890 0.77640 0.15671
 N1957 N 0.40893 0.24781 0.32237
 C1958 C 0.40967 0.22916 0.34618
 N1959 N 0.38352 0.21818 0.35657
 N1960 N 0.35777 0.22552 0.34354
 C1961 C 0.35714 0.24409 0.31963
 N1962 N 0.38327 0.25489 0.30916
 N1963 N 0.91240 0.74674 0.81919
 C1964 C 0.91280 0.72816 0.84311
 N1965 N 0.88650 0.71754 0.85340
 N1966 N 0.86093 0.72519 0.84024
 C1967 C 0.86056 0.74373 0.81631
 N1968 N 0.88686 0.75412 0.80583
   
