data_POSCAR
  _audit_creation_date              2014-09-24
  _audit_creation_method            'ToBaCCo'
  _symmetry_space_group_name_H-M    'P1'
  _symmetry_Int_Tables_number       1
  _symmetry_cell_setting            triclinic
  loop_
  _symmetry_equiv_pos_as_xyz
 x,y,z
_cell_length_a 101.0447
_cell_length_b 101.3324
_cell_length_c 102.5695
_cell_angle_alpha 90.099300
_cell_angle_beta 89.979000
_cell_angle_gamma 89.965800
loop_
  _atom_site_label
  _atom_site_type_symbol
  _atom_site_fract_x
  _atom_site_fract_y
  _atom_site_fract_z
C1 C 0.30937 0.44061 0.92251
 C2 C 0.30365 0.42945 0.92827
 C3 C 0.30930 0.42367 0.93934
 C4 C 0.32077 0.42925 0.94477
 C5 C 0.32681 0.44050 0.93922
 C6 C 0.32083 0.44609 0.92805
 H7 H 0.29467 0.42533 0.92419
 H8 H 0.32478 0.42480 0.95348
 H9 H 0.32550 0.45422 0.92301
 C10 C 0.44044 0.82804 0.43832
 C11 C 0.44598 0.82228 0.42700
 C12 C 0.44042 0.81097 0.42126
 C13 C 0.42922 0.80519 0.42695
 C14 C 0.42351 0.81061 0.43821
 C15 C 0.42919 0.82192 0.44383
 H16 H 0.45436 0.82679 0.42222
 H17 H 0.42465 0.79672 0.42233
 H18 H 0.42504 0.82552 0.45288
 C19 C 0.93887 0.92181 0.81321
 C20 C 0.94469 0.92747 0.82433
 C21 C 0.93930 0.93884 0.83031
 C22 C 0.92789 0.94450 0.82463
 C23 C 0.92195 0.93896 0.81351
 C24 C 0.92754 0.92765 0.80786
 H25 H 0.95381 0.92321 0.82788
 H26 H 0.92318 0.95299 0.82904
 H27 H 0.92276 0.92309 0.79953
 C28 C 0.43845 -0.07869 0.31301
 C29 C 0.42721 -0.07270 0.30754
 C30 C 0.42165 -0.06133 0.31318
 C31 C 0.42752 -0.05592 0.32440
 C32 C 0.43876 -0.06176 0.33001
 C33 C 0.44418 -0.07311 0.32421
 H34 H 0.42249 -0.07718 0.29916
 H35 H 0.42324 -0.04720 0.32885
 H36 H 0.45301 -0.07751 0.32833
 C37 C 0.80927 0.31070 0.32817
 C38 C 0.80392 0.32210 0.32245
 C39 C 0.80985 0.32785 0.31145
 C40 C 0.82122 0.32198 0.30610
 C41 C 0.82673 0.31057 0.31167
 C42 C 0.82065 0.30498 0.32268
 H43 H 0.79499 0.32641 0.32647
 H44 H 0.82610 0.32660 0.29789
 H45 H 0.82490 0.29624 0.32708
 C46 C -0.18940 0.82840 0.81179
 C47 C -0.19509 0.82234 0.82286
 C48 C -0.18949 0.81100 0.82846
 C49 C -0.17806 0.80552 0.82290
 C50 C -0.17215 0.81127 0.81193
 C51 C -0.17788 0.82261 0.80643
 H52 H -0.20408 0.82621 0.82713
 H53 H -0.17385 0.79663 0.82703
 H54 H -0.17272 0.82731 0.79845
 C55 C 0.94001 0.32821 0.43762
 C56 C 0.94547 0.32262 0.42619
 C57 C 0.93999 0.31130 0.42041
 C58 C 0.92892 0.30535 0.42617
 C59 C 0.92327 0.31061 0.43753
 C60 C 0.92886 0.32195 0.44319
 H61 H 0.95440 0.32663 0.42195
 H62 H 0.92460 0.29667 0.42172
 H63 H 0.92387 0.32628 0.45148
 C64 C 0.44087 0.43915 0.82892
 C65 C 0.42984 0.44517 0.82310
 C66 C 0.42409 0.43985 0.81178
 C67 C 0.42958 0.42840 0.80623
 C68 C 0.44062 0.42224 0.81190
 C69 C 0.44622 0.42772 0.82321
 H70 H 0.42560 0.45394 0.82748
 H71 H 0.42494 0.42399 0.79777
 H72 H 0.45490 0.42318 0.82749
 C73 C 0.81049 0.92249 0.93818
 C74 C 0.80502 0.92834 0.92689
 C75 C 0.81090 0.93940 0.92102
 C76 C 0.82239 0.94480 0.92653
 C77 C 0.82805 0.93927 0.93773
 C78 C 0.82203 0.92824 0.94350
 H79 H 0.79664 0.92388 0.92204
 H80 H 0.82702 0.95327 0.92200
 H81 H 0.82617 0.92457 0.95251
 C82 C 0.30988 0.82777 0.31109
 C83 C 0.32135 0.82177 0.30586
 C84 C 0.32689 0.81041 0.31151
 C85 C 0.32085 0.80486 0.32251
 C86 C 0.30946 0.81054 0.32794
 C87 C 0.30403 0.82188 0.32216
 H88 H 0.32662 0.82632 0.29787
 H89 H 0.32513 0.79617 0.32697
 H90 H 0.29486 0.82568 0.32610
 C91 C 0.81015 0.42293 0.43786
 C92 C 0.82150 0.42862 0.44342
 C93 C 0.82765 0.43977 0.43779
 C94 C 0.82193 0.44512 0.42639
 C95 C 0.81061 0.43952 0.42069
 C96 C 0.80477 0.42846 0.42652
 H97 H 0.82592 0.42372 0.45170
 H98 H 0.82585 0.45405 0.42212
 H99 H 0.79607 0.42406 0.42213
 C100 C 0.93884 0.82875 -0.06248
 C101 C 0.94444 0.82311 -0.07384
 C102 C 0.93902 0.81176 -0.07963
 C103 C 0.92790 0.80583 -0.07394
 C104 C 0.92212 0.81113 -0.06268
 C105 C 0.92763 0.82249 -0.05701
 H106 H 0.95253 0.82795 -0.07880
 H107 H 0.92384 0.79692 -0.07820
 H108 H 0.92319 0.82623 -0.04816
 C109 C 0.30978 0.32656 0.81081
 C110 C 0.32127 0.32084 0.80554
 C111 C 0.32699 0.30961 0.81125
 C112 C 0.32102 0.30405 0.82233
 C113 C 0.30954 0.30963 0.82775
 C114 C 0.30396 0.32084 0.82188
 H115 H 0.32606 0.32544 0.79726
 H116 H 0.32543 0.29546 0.82685
 H117 H 0.29495 0.32504 0.82585
 C118 C 0.17287 0.56049 0.56247
 C119 C 0.17868 0.55525 0.57378
 C120 C 0.18982 0.56125 0.57945
 C121 C 0.19519 0.57258 0.57362
 C122 C 0.18952 0.57797 0.56231
 C123 C 0.17839 0.57182 0.55678
 H124 H 0.17443 0.54656 0.57826
 H125 H 0.20373 0.57731 0.57798
 H126 H 0.17392 0.57597 0.54811
 C127 C 0.57534 0.69124 0.05977
 C128 C 0.56916 0.68006 0.05443
 C129 C 0.55770 0.67476 0.06014
 C130 C 0.55238 0.68085 0.07128
 C131 C 0.55841 0.69204 0.07677
 C132 C 0.56987 0.69719 0.07091
 H133 H 0.57339 0.67535 0.04590
 H134 H 0.54361 0.67676 0.07580
 H135 H 0.57464 0.70576 0.07514
 C136 C 0.69159 0.19036 0.67170
 C137 C 0.68037 0.19613 0.67739
 C138 C 0.67481 0.19086 0.68877
 C139 C 0.68064 0.17971 0.69452
 C140 C 0.69195 0.17363 0.68903
 C141 C 0.69732 0.17923 0.67758
 H142 H 0.67585 0.20466 0.67286
 H143 H 0.67572 0.17535 0.70283
 H144 H 0.70636 0.17537 0.67341
 C145 C 1.07488 0.05809 0.19051
 C146 C 1.06931 0.05225 0.17937
 C147 C 1.05794 0.05762 0.17332
 C148 C 1.05222 0.06903 0.17895
 C149 C 1.05770 0.07498 0.19009
 C150 C 1.06897 0.06939 0.19583
 H151 H 1.07385 0.04337 0.17561
 H152 H 1.04401 0.07394 0.17426
 H153 H 1.07309 0.07379 0.20457
 C154 C 0.05961 0.17412 1.06059
 C155 C 0.05384 0.18023 1.07151
 C156 C 0.05954 0.19154 1.07731
 C157 C 0.07119 0.19668 1.07162
 C158 C 0.07708 0.19070 1.06070
 C159 C 0.07119 0.17946 1.05523
 H160 H 0.04514 0.17571 1.07571
 H161 H 0.07552 0.20572 1.07527
 H162 H 0.07591 0.17454 1.04707
 C163 C 0.17400 0.68990 0.68809
 C164 C 0.17961 0.69526 0.67673
 C165 C 0.19069 0.68937 0.67084
 C166 C 0.19623 0.67804 0.67652
 C167 C 0.19077 0.67252 0.68786
 C168 C 0.17969 0.67855 0.69360
 H169 H 0.17522 0.70396 0.67237
 H170 H 0.20495 0.67360 0.67218
 H171 H 0.17516 0.67410 0.70210
 C172 C 1.19068 0.17332 0.18846
 C173 C 1.19621 0.17883 0.17714
 C174 C 1.19053 0.18999 0.17127
 C175 C 1.17926 0.19574 0.17695
 C176 C 1.17359 0.19039 0.18828
 C177 C 1.17940 0.17921 0.19399
 H178 H 1.20506 0.17451 0.17297
 H179 H 1.17478 0.20430 0.17243
 H180 H 1.17483 0.17476 0.20246
 C181 C 0.67358 1.06039 0.56170
 C182 C 0.67933 1.07188 0.55634
 C183 C 0.69057 1.07795 0.56195
 C184 C 0.69611 1.07211 0.57316
 C185 C 0.69063 1.06072 0.57871
 C186 C 0.67948 1.05493 0.57294
 H187 H 0.67428 1.07685 0.54848
 H188 H 0.70510 1.07599 0.57740
 H189 H 0.67562 1.04598 0.57721
 C190 C 0.55763 0.55737 0.17389
 C191 C 0.56898 0.55191 0.17965
 C192 C 0.57468 0.55768 0.19077
 C193 C 0.56880 0.56898 0.19621
 C194 C 0.55742 0.57458 0.19060
 C195 C 0.55188 0.56867 0.17947
 H196 H 0.57331 0.54305 0.17555
 H197 H 0.57340 0.57375 0.20451
 H198 H 0.54318 0.57300 0.17503
 C199 C 0.67414 0.69097 0.18860
 C200 C 0.68008 0.67983 0.19425
 C201 C 0.69130 0.67397 0.18858
 C202 C 0.69663 0.67946 0.17716
 C203 C 0.69082 0.69058 0.17134
 C204 C 0.67961 0.69631 0.17717
 H205 H 0.67565 0.67539 0.20280
 H206 H 0.70543 0.67515 0.17287
 H207 H 0.67503 0.70484 0.17270
 C208 C 0.17442 0.05946 1.06018
 C209 C 0.18020 0.07097 1.05491
 C210 C 0.19136 0.07686 1.06063
 C211 C 0.19701 0.07108 1.07172
 C212 C 0.19158 0.05962 1.07717
 C213 C 0.18038 0.05387 1.07136
 H214 H 0.17645 0.07520 1.04597
 H215 H 0.20557 0.07562 1.07622
 H216 H 0.17590 0.04551 1.07618
 C217 C 0.57609 0.19107 0.55953
 C218 C 0.56990 0.17989 0.55419
 C219 C 0.55838 0.17466 0.55984
 C220 C 0.55300 0.18082 0.57092
 C221 C 0.55905 0.19201 0.57641
 C222 C 0.57056 0.19709 0.57061
 H223 H 0.57417 0.17513 0.54570
 H224 H 0.54418 0.17678 0.57540
 H225 H 0.57533 0.20565 0.57485
 C226 C 0.07711 0.55955 0.68971
 C227 C 0.07132 0.55368 0.67868
 C228 C 0.05981 0.55898 0.67307
 C229 C 0.05401 0.57022 0.67871
 C230 C 0.05963 0.57623 0.68976
 C231 C 0.07116 0.57079 0.69521
 H232 H 0.07570 0.54486 0.67455
 H233 H 0.04518 0.57442 0.67439
 H234 H 0.07580 0.57562 0.70345
 C235 C 0.67376 0.55995 0.06127
 C236 C 0.67983 0.55449 0.07234
 C237 C 0.69107 0.56040 0.07790
 C238 C 0.69629 0.57187 0.07219
 C239 C 0.69036 0.57748 0.06111
 C240 C 0.67913 0.57141 0.05570
 H241 H 0.67569 0.54571 0.07675
 H242 H 0.70490 0.57653 0.07647
 H243 H 0.67445 0.57573 0.04722
 C244 C 0.05971 0.69132 0.57730
 C245 C 0.05370 0.68011 0.57185
 C246 C 0.05905 0.67397 0.56074
 C247 C 0.07051 0.67926 0.55502
 C248 C 0.07667 0.69048 0.56033
 C249 C 0.07117 0.69646 0.57144
 H250 H 0.04492 0.67603 0.57637
 H251 H 0.07475 0.67453 0.54651
 H252 H 0.07591 0.70505 0.57565
 C253 C 0.55778 1.05741 0.67332
 C254 C 0.55202 1.06876 0.67903
 C255 C 0.55748 1.07485 0.69022
 C256 C 0.56887 1.06912 0.69581
 C257 C 0.57476 1.05785 0.69039
 C258 C 0.56916 1.05207 0.67927
 H259 H 0.54331 1.07298 0.67464
 H260 H 0.57381 1.07385 0.70391
 H261 H 0.57348 1.04301 0.67566
 C262 C 0.44067 0.32756 0.93775
 C263 C 0.42958 0.32149 0.94342
 C264 C 0.42404 0.31006 0.93791
 C265 C 0.42979 0.30465 0.92663
 C266 C 0.44088 0.31057 0.92081
 C267 C 0.44628 0.32199 0.92648
 H268 H 0.42493 0.32597 0.95186
 H269 H 0.42552 0.29589 0.92227
 H270 H 0.45499 0.32645 0.92220
 C271 C 0.93856 0.43790 0.33114
 C272 C 0.94402 0.42653 0.32521
 C273 C 0.93837 0.42092 0.31399
 C274 C 0.92711 0.42677 0.30850
 C275 C 0.92146 0.43807 0.31410
 C276 C 0.92723 0.44358 0.32532
 H277 H 0.95309 0.42225 0.32888
 H278 H 0.92246 0.42225 0.30009
 H279 H 0.92247 0.45206 0.32968
 C280 C 0.31136 0.93866 0.41999
 C281 C 0.32273 0.94433 0.42553
 C282 C 0.32847 0.93897 0.43682
 C283 C 0.32263 0.92785 0.44262
 C284 C 0.31126 0.92204 0.43723
 C285 C 0.30567 0.92755 0.42595
 H286 H 0.32721 0.95285 0.42095
 H287 H 0.32725 0.92340 0.45108
 H288 H 0.29674 0.92330 0.42189
 O289 O 0.26816 0.46514 0.75101
 O290 O 0.26651 0.46930 0.72877
 O291 O 0.28629 0.49978 0.76674
 O292 O 0.28238 0.52151 0.76720
 O293 O 0.25155 0.48352 0.78497
 O294 O 0.22853 0.48441 0.78009
 O295 O 0.25049 0.53469 0.73297
 O296 O 0.27299 0.53097 0.73557
 O297 O 0.23403 0.50129 0.71608
 O298 O 0.23489 0.47752 0.72054
 O299 O 0.21649 0.51738 0.74907
 O300 O 0.22091 0.51685 0.77236
 O301 O 0.23447 0.53480 0.74856
 O302 O 0.23576 0.53010 0.77280
 O303 O 0.21639 0.50141 0.73351
 O304 O 0.22138 0.47709 0.73499
 O305 O 0.24972 0.51733 0.71616
 O306 O 0.27367 0.51288 0.72035
 O307 O 0.25194 0.46509 0.76643
 O308 O 0.22845 0.47005 0.76534
 O309 O 0.26745 0.49936 0.78507
 O310 O 0.26542 0.52320 0.77969
 O311 O 0.28629 0.48356 0.75140
 O312 O 0.28116 0.48645 0.72787
 Zr313 Zr 0.26719 0.48428 0.74319
 O314 O 0.25538 0.49572 0.73062
 Zr315 Zr 0.26696 0.50746 0.76618
 O316 O 0.25555 0.52007 0.75437
 Zr317 Zr 0.24376 0.48425 0.76596
 O318 O 0.23109 0.49600 0.75451
 Zr319 Zr 0.25868 0.51575 0.73459
 O320 O 0.27155 0.50437 0.74636
 Zr321 Zr 0.23526 0.49272 0.73471
 O322 O 0.24702 0.47994 0.74617
 Zr323 Zr 0.23541 0.51608 0.75748
 O324 O 0.24681 0.50433 0.77035
 O325 O 0.26378 0.48752 0.76292
 O326 O 0.23854 0.51275 0.73771
 C327 C 0.26133 0.45946 0.75998
 C328 C 0.29197 0.49042 0.76037
 C329 C 0.26073 0.49018 0.79063
 C330 C 0.24095 0.54026 0.73920
 C331 C 0.24029 0.51088 0.71068
 C332 C 0.21090 0.51094 0.73978
 H333 H 0.25757 0.49360 0.72145
 H334 H 0.22179 0.49392 0.75667
 H335 H 0.26942 0.48191 0.76853
 H336 H 0.25781 0.52936 0.75629
 H337 H 0.28138 0.52678 0.73836
 H338 H 0.28053 0.52820 0.76044
 H339 H 0.21521 0.47868 0.74232
 H340 H 0.22920 0.46553 0.75681
 H341 H 0.27328 0.52038 0.71417
 H342 H 0.28798 0.47946 0.72872
 H343 H 0.21587 0.50849 0.77203
 H344 H 0.22866 0.49329 0.78412
 H345 H 0.25741 0.46568 0.72888
 H346 H 0.24306 0.47824 0.71527
 H347 H 0.25728 0.52166 0.78484
 H348 H 0.24306 0.53635 0.77106
 O349 O 0.21453 0.01685 0.24858
 O350 O 0.21864 0.01528 0.27082
 O351 O 0.24927 0.03513 0.23304
 O352 O 0.27107 0.03132 0.23262
 O353 O 0.23314 0.00041 0.21469
 O354 O 0.23420 -0.02254 0.21953
 O355 O 0.28429 -0.00039 0.26697
 O356 O 0.28048 0.02204 0.26433
 O357 O 0.25084 -0.01695 0.28365
 O358 O 0.22699 -0.01619 0.27905
 O359 O 0.26718 -0.03438 0.25073
 O360 O 0.26674 -0.02999 0.22746
 O361 O 0.28455 -0.01638 0.25138
 O362 O 0.27994 -0.01509 0.22708
 O363 O 0.25111 -0.03453 0.26621
 O364 O 0.22671 -0.02971 0.26462
 O365 O 0.26683 -0.00121 0.28367
 O366 O 0.26226 0.02265 0.27945
 O367 O 0.21462 0.00066 0.23315
 O368 O 0.21975 -0.02272 0.23421
 O369 O 0.24897 0.01634 0.21467
 O370 O 0.27288 0.01441 0.22016
 O371 O 0.23293 0.03505 0.24828
 O372 O 0.23575 0.02996 0.27181
 Zr373 Zr 0.23371 0.01602 0.25648
 O374 O 0.24519 0.00431 0.26910
 Zr375 Zr 0.25704 0.01589 0.23360
 O376 O 0.26970 0.00459 0.24547
 Zr377 Zr 0.23389 -0.00736 0.23368
 O378 O 0.24569 -0.01992 0.24518
 Zr379 Zr 0.26528 0.00770 0.26523
 O380 O 0.25385 0.02046 0.25341
 Zr381 Zr 0.24230 -0.01576 0.26497
 O382 O 0.22947 -0.00412 0.25345
 Zr383 Zr 0.26582 -0.01552 0.24233
 O384 O 0.25402 -0.00422 0.22940
 O385 O 0.23705 0.01262 0.23676
 O386 O 0.26238 -0.01240 0.26208
 C387 C 0.20889 0.00998 0.23960
 C388 C 0.23983 0.04075 0.23938
 C389 C 0.23980 0.00960 0.20907
 C390 C 0.28994 -0.00989 0.26078
 C391 C 0.26040 -0.01065 0.28910
 C392 C 0.26071 -0.03997 0.25999
 H393 H 0.24302 0.00649 0.27826
 H394 H 0.24366 -0.02921 0.24301
 H395 H 0.23140 0.01821 0.23114
 H396 H 0.27902 0.00688 0.24360
 H397 H 0.27625 0.03038 0.26152
 H398 H 0.27773 0.02955 0.23945
 H399 H 0.22835 -0.03585 0.25729
 H400 H 0.21519 -0.02202 0.24273
 H401 H 0.26976 0.02231 0.28568
 H402 H 0.22871 0.03674 0.27093
 H403 H 0.25836 -0.03502 0.22770
 H404 H 0.24312 -0.02234 0.21552
 H405 H 0.21508 0.00618 0.27072
 H406 H 0.22770 -0.00808 0.28438
 H407 H 0.27139 0.00629 0.21499
 H408 H 0.28620 -0.00781 0.22890
 O409 O 0.50068 0.71454 0.23281
 O410 O 0.47814 0.71874 0.23464
 O411 O 0.51645 0.74934 0.21505
 O412 O 0.51706 0.77101 0.21912
 O413 O 0.53530 0.73269 0.24894
 O414 O 0.53059 0.73348 0.27168
 O415 O 0.48248 0.78398 0.25095
 O416 O 0.48495 0.78045 0.22873
 O417 O 0.46552 0.75049 0.26703
 O418 O 0.47010 0.72670 0.26595
 O419 O 0.49915 0.76643 0.28412
 O420 O 0.52272 0.76592 0.27959
 O421 O 0.49846 0.78397 0.26657
 O422 O 0.52310 0.77920 0.26499
 O423 O 0.48335 0.75052 0.28423
 O424 O 0.48486 0.72622 0.27916
 O425 O 0.46545 0.76665 0.25171
 O426 O 0.46952 0.76237 0.22803
 O427 O 0.51646 0.71433 0.24865
 O428 O 0.51560 0.71916 0.27182
 O429 O 0.53526 0.74867 0.23342
 O430 O 0.52981 0.77253 0.23573
 O431 O 0.50092 0.73313 0.21506
 O432 O 0.47708 0.73599 0.22039
 Zr433 Zr 0.49276 0.73370 0.23397
 O434 O 0.48010 0.74507 0.24583
 Zr435 Zr 0.51609 0.75683 0.23418
 O436 O 0.50419 0.76938 0.24562
 Zr437 Zr 0.51609 0.73345 0.25683
 O438 O 0.50458 0.74513 0.26952
 Zr439 Zr 0.48409 0.76511 0.24270
 O440 O 0.49593 0.75381 0.22982
 Zr441 Zr 0.48444 0.74192 0.26558
 O442 O 0.49597 0.72921 0.25378
 Zr443 Zr 0.50753 0.76524 0.26540
 O444 O 0.52051 0.75354 0.25396
 O445 O 0.51282 0.73687 0.23717
 O446 O 0.48744 0.76197 0.26248
 C447 C 0.50982 0.70878 0.23943
 C448 C 0.50993 0.74004 0.20944
 C449 C 0.54096 0.73941 0.23990
 C450 C 0.48889 0.78948 0.26032
 C451 C 0.45998 0.76012 0.26099
 C452 C 0.48975 0.76000 0.28966
 H453 H 0.47078 0.74297 0.24374
 H454 H 0.50685 0.74299 0.27864
 H455 H 0.51845 0.73128 0.23150
 H456 H 0.50612 0.77869 0.24346
 H457 H 0.48771 0.77632 0.22040
 H458 H 0.51013 0.77763 0.22099
 H459 H 0.49233 0.72777 0.28519
 H460 H 0.50692 0.71468 0.27116
 H461 H 0.46323 0.76987 0.22854
 H462 H 0.47789 0.72907 0.21358
 H463 H 0.52252 0.75748 0.28441
 H464 H 0.53468 0.74235 0.27157
 H465 H 0.47830 0.71508 0.24357
 H466 H 0.46464 0.72752 0.25799
 H467 H 0.53516 0.77088 0.24365
 H468 H 0.52123 0.78556 0.25792
 O469 O 0.00140 0.71530 0.73283
 O470 O -0.02115 0.71955 0.73467
 O471 O 0.01726 0.74994 0.71492
 O472 O 0.01789 0.77163 0.71886
 O473 O 0.03604 0.73345 0.74891
 O474 O 0.03132 0.73436 0.77164
 O475 O -0.01665 0.78488 0.75064
 O476 O -0.01418 0.78122 0.72842
 O477 O -0.03369 0.75152 0.76688
 O478 O -0.02918 0.72773 0.76595
 O479 O -0.00002 0.76749 0.78388
 O480 O 0.02355 0.76686 0.77935
 O481 O -0.00066 0.78490 0.76625
 O482 O 0.02397 0.78007 0.76468
 O483 O -0.01587 0.75162 0.78408
 O484 O -0.01441 0.72726 0.77915
 O485 O -0.03372 0.76759 0.75147
 O486 O -0.02966 0.76317 0.72782
 O487 O 0.01719 0.71514 0.74867
 O488 O 0.01628 0.72008 0.77184
 O489 O 0.03604 0.74933 0.73329
 O490 O 0.03066 0.77322 0.73546
 O491 O 0.00167 0.73377 0.71501
 O492 O -0.02217 0.73673 0.72032
 Zr493 Zr -0.00650 0.73447 0.73392
 O494 O -0.01913 0.74594 0.74571
 Zr495 Zr 0.01690 0.75755 0.73400
 O496 O 0.00503 0.77019 0.74537
 Zr497 Zr 0.01683 0.73429 0.75678
 O498 O 0.00535 0.74608 0.76941
 Zr499 Zr -0.01509 0.76596 0.74247
 O500 O -0.00327 0.75456 0.72965
 Zr501 Zr -0.01479 0.74290 0.76548
 O502 O -0.00330 0.73008 0.75375
 Zr503 Zr 0.00836 0.76615 0.76517
 O504 O 0.02130 0.75435 0.75380
 O505 O 0.01357 0.73761 0.73710
 O506 O -0.01173 0.76292 0.76227
 C507 C 0.01055 0.70956 0.73946
 C508 C 0.01071 0.74062 0.70935
 C509 C 0.04172 0.74010 0.73982
 C510 C -0.01023 0.79040 0.75999
 C511 C -0.03921 0.76114 0.76079
 C512 C -0.00945 0.76112 0.78945
 H513 H -0.02845 0.74386 0.74364
 H514 H 0.00762 0.74398 0.77854
 H515 H 0.01919 0.73199 0.73147
 H516 H 0.00698 0.77948 0.74316
 H517 H -0.01143 0.77703 0.72012
 H518 H 0.01100 0.77830 0.72071
 H519 H -0.00694 0.72885 0.78518
 H520 H 0.00760 0.71560 0.77117
 H521 H -0.03592 0.77070 0.72828
 H522 H -0.02137 0.72976 0.71356
 H523 H 0.02330 0.75846 0.78424
 H524 H 0.03543 0.74322 0.77149
 H525 H -0.02097 0.71591 0.74362
 H526 H -0.03460 0.72848 0.75795
 H527 H 0.03600 0.77161 0.74339
 H528 H 0.02210 0.78640 0.75758
 O529 O 0.00137 0.03504 0.01753
 O530 O -0.02120 0.03097 0.01548
 O531 O 0.01684 0.00016 0.03533
 O532 O 0.01727 -0.02153 0.03125
 O533 O 0.03603 0.01668 0.00158
 O534 O 0.03148 0.01601 -0.02119
 O535 O -0.01698 -0.03427 -0.00096
 O536 O -0.01469 -0.03081 0.02131
 O537 O -0.03367 -0.00062 -0.01704
 O538 O -0.02900 0.02313 -0.01586
 O539 O -0.00000 -0.01673 -0.03391
 O540 O 0.02363 -0.01626 -0.02915
 O541 O -0.00085 -0.03429 -0.01643
 O542 O 0.02373 -0.02972 -0.01471
 O543 O -0.01572 -0.00071 -0.03410
 O544 O -0.01413 0.02357 -0.02896
 O545 O -0.03394 -0.01683 -0.00177
 O546 O -0.03006 -0.01266 0.02195
 O547 O 0.01730 0.03518 0.00182
 O548 O 0.01659 0.03044 -0.02137
 O549 O 0.03579 0.00070 0.01710
 O550 O 0.03026 -0.02309 0.01475
 O551 O 0.00134 0.01643 0.03522
 O552 O -0.02245 0.01371 0.02971
 Zr553 Zr -0.00665 0.01594 0.01625
 O554 O -0.01925 0.00465 0.00428
 Zr555 Zr 0.01658 -0.00733 0.01619
 O556 O 0.00474 -0.01979 0.00461
 Zr557 Zr 0.01688 0.01609 -0.00643
 O558 O 0.00542 0.00452 -0.01923
 Zr559 Zr -0.01537 -0.01543 0.00739
 O560 O -0.00360 -0.00421 0.02039
 Zr561 Zr -0.01473 0.00783 -0.01542
 O562 O -0.00324 0.02045 -0.00352
 Zr563 Zr 0.00826 -0.01561 -0.01514
 O564 O 0.02118 -0.00403 -0.00355
 O565 O 0.01343 0.01266 0.01321
 O566 O -0.01184 -0.01224 -0.01236
 C567 C 0.01061 0.04075 0.01100
 C568 C 0.01029 0.00949 0.04091
 C569 C 0.04159 0.00991 0.01065
 C570 C -0.01050 -0.03977 -0.01029
 C571 C -0.03931 -0.01025 -0.01107
 C572 C -0.00934 -0.01023 -0.03949
 H573 H -0.02859 0.00679 0.00631
 H574 H 0.00777 0.00667 -0.02833
 H575 H 0.01904 0.01819 0.01892
 H576 H 0.00661 -0.02911 0.00676
 H577 H -0.01198 -0.02672 0.02967
 H578 H 0.01044 -0.02819 0.02921
 H579 H -0.00662 0.02198 -0.03495
 H580 H 0.00793 0.03496 -0.02077
 H581 H -0.03637 -0.02013 0.02137
 H582 H -0.02168 0.02063 0.03652
 H583 H 0.02332 -0.00792 -0.03413
 H584 H 0.03550 0.00710 -0.02110
 H585 H -0.02089 0.03470 0.00657
 H586 H -0.03452 0.02233 -0.00793
 H587 H 0.03562 -0.02151 0.00682
 H588 H 0.02184 -0.03598 -0.00757
 O589 O 0.03476 0.51715 0.50232
 O590 O 0.03074 0.51558 0.48003
 O591 O -0.00014 0.53510 0.51788
 O592 O -0.02192 0.53112 0.51818
 O593 O 0.01620 0.50041 0.53601
 O594 O 0.01538 0.47747 0.53100
 O595 O -0.03480 0.49945 0.48364
 O596 O -0.03117 0.52190 0.48640
 O597 O -0.00114 0.48319 0.46690
 O598 O 0.02268 0.48411 0.47155
 O599 O -0.01745 0.46553 0.49960
 O600 O -0.01704 0.46982 0.52296
 O601 O -0.03496 0.48341 0.49912
 O602 O -0.03041 0.48458 0.52340
 O603 O -0.00132 0.46555 0.48419
 O604 O 0.02305 0.47054 0.48590
 O605 O -0.01731 0.49877 0.46696
 O606 O -0.01293 0.52266 0.47132
 O607 O 0.03477 0.50090 0.51763
 O608 O 0.02988 0.47747 0.51635
 O609 O 0.00027 0.51625 0.53611
 O610 O -0.02361 0.51416 0.53056
 O611 O 0.01621 0.53519 0.50265
 O612 O 0.01351 0.53015 0.47908
 Zr613 Zr 0.01563 0.51617 0.49433
 O614 O 0.00427 0.50443 0.48160
 Zr615 Zr -0.00776 0.51580 0.51715
 O616 O -0.02029 0.50444 0.50518
 Zr617 Zr 0.01559 0.49271 0.51696
 O618 O 0.00393 0.48010 0.50534
 Zr619 Zr -0.01585 0.50766 0.48545
 O620 O -0.00456 0.52046 0.49738
 Zr621 Zr 0.00733 0.48437 0.48560
 O622 O 0.02003 0.49606 0.49723
 Zr623 Zr -0.01624 0.48435 0.50818
 O624 O -0.00458 0.49569 0.52122
 O625 O 0.01227 0.51268 0.51402
 O626 O -0.01279 0.48757 0.48847
 C627 C 0.04043 0.51031 0.51129
 C628 C 0.00926 0.54081 0.51159
 C629 C 0.00947 0.50954 0.54168
 C630 C -0.04040 0.48991 0.48977
 C631 C -0.01076 0.48940 0.46147
 C632 C -0.01091 0.46002 0.49031
 H633 H 0.00645 0.50666 0.47246
 H634 H 0.00603 0.47082 0.50745
 H635 H 0.01784 0.51830 0.51970
 H636 H -0.02963 0.50666 0.50705
 H637 H -0.02700 0.53025 0.48928
 H638 H -0.02857 0.52929 0.51135
 H639 H 0.02142 0.46435 0.49317
 H640 H 0.03446 0.47826 0.50786
 H641 H -0.02041 0.52227 0.46507
 H642 H 0.02050 0.53697 0.48003
 H643 H -0.00866 0.46478 0.52262
 H644 H 0.00644 0.47756 0.53495
 H645 H 0.03441 0.50652 0.48012
 H646 H 0.02193 0.49225 0.46630
 H647 H -0.02206 0.50602 0.53567
 H648 H -0.03666 0.49189 0.52169
 O649 O 0.53566 0.01762 0.50145
 O650 O 0.53169 0.01608 0.47916
 O651 O 0.50060 0.03526 0.51701
 O652 O 0.47887 0.03114 0.51732
 O653 O 0.51714 0.00058 0.53506
 O654 O 0.51653 -0.02233 0.52994
 O655 O 0.46623 -0.00048 0.48261
 O656 O 0.46972 0.02198 0.48548
 O657 O 0.49999 -0.01648 0.46586
 O658 O 0.52381 -0.01541 0.47053
 O659 O 0.48381 -0.03436 0.49851
 O660 O 0.48413 -0.03013 0.52186
 O661 O 0.46616 -0.01659 0.49803
 O662 O 0.47067 -0.01545 0.52233
 O663 O 0.49994 -0.03419 0.48309
 O664 O 0.52426 -0.02903 0.48484
 O665 O 0.48375 -0.00098 0.46596
 O666 O 0.48797 0.02292 0.47042
 O667 O 0.53576 0.00131 0.51670
 O668 O 0.53104 -0.02215 0.51531
 O669 O 0.50111 0.01631 0.53519
 O670 O 0.47726 0.01411 0.52959
 O671 O 0.51696 0.03552 0.50180
 O672 O 0.51436 0.03053 0.47821
 Zr673 Zr 0.51654 0.01653 0.49343
 O674 O 0.50528 0.00476 0.48065
 Zr675 Zr 0.49313 0.01591 0.51622
 O676 O 0.48068 0.00452 0.50419
 Zr677 Zr 0.51663 -0.00702 0.51597
 O678 O 0.50506 -0.01966 0.50430
 Zr679 Zr 0.48513 0.00784 0.48448
 O680 O 0.49633 0.02067 0.49648
 Zr681 Zr 0.50845 -0.01531 0.48457
 O682 O 0.52107 -0.00358 0.49625
 Zr683 Zr 0.48486 -0.01555 0.50713
 O684 O 0.49644 -0.00419 0.52022
 O685 O 0.51318 0.01294 0.51311
 O686 O 0.48831 -0.01224 0.48743
 C687 C 0.54136 0.01078 0.51041
 C688 C 0.50995 0.04106 0.51074
 C689 C 0.51033 0.00962 0.54076
 C690 C 0.46070 -0.01009 0.48869
 C691 C 0.49034 -0.01029 0.46045
 C692 C 0.49039 -0.03980 0.48922
 H693 H 0.50745 0.00703 0.47152
 H694 H 0.50722 -0.02893 0.50638
 H695 H 0.51870 0.01858 0.51882
 H696 H 0.47132 0.00668 0.50606
 H697 H 0.47383 0.03035 0.48838
 H698 H 0.47226 0.02933 0.51044
 H699 H 0.52268 -0.03524 0.49210
 H700 H 0.53563 -0.02128 0.50683
 H701 H 0.48050 0.02252 0.46416
 H702 H 0.52130 0.03739 0.47919
 H703 H 0.49254 -0.03511 0.52153
 H704 H 0.50759 -0.02233 0.53388
 H705 H 0.53540 0.00704 0.47921
 H706 H 0.52302 -0.00725 0.46531
 H707 H 0.47885 0.00597 0.53467
 H708 H 0.46435 -0.00821 0.52061
 O709 O 0.53496 0.51749 0.00192
 O710 O 0.53112 0.51594 -0.02039
 O711 O 0.49989 0.53542 0.01720
 O712 O 0.47815 0.53143 0.01740
 O713 O 0.51611 0.50069 0.03547
 O714 O 0.51539 0.47778 0.03042
 O715 O 0.46553 0.49982 -0.01730
 O716 O 0.46916 0.52224 -0.01452
 O717 O 0.49936 0.48355 -0.03380
 O718 O 0.52311 0.48442 -0.02896
 O719 O 0.48277 0.46587 -0.00120
 O720 O 0.48295 0.47012 0.02211
 O721 O 0.46525 0.48378 -0.00181
 O722 O 0.46966 0.48494 0.02252
 O723 O 0.49901 0.46588 -0.01650
 O724 O 0.52337 0.47088 -0.01459
 O725 O 0.48319 0.49913 -0.03386
 O726 O 0.48753 0.52301 -0.02944
 O727 O 0.53485 0.50123 0.01722
 O728 O 0.52997 0.47780 0.01587
 O729 O 0.50019 0.51654 0.03545
 O730 O 0.47635 0.51446 0.02969
 O731 O 0.51638 0.53553 0.00211
 O732 O 0.51390 0.53049 -0.02148
 Zr733 Zr 0.51589 0.51651 -0.00621
 O734 O 0.50464 0.50477 -0.01903
 Zr735 Zr 0.49232 0.51611 0.01643
 O736 O 0.47988 0.50478 0.00435
 Zr737 Zr 0.51568 0.49304 0.01640
 O738 O 0.50410 0.48043 0.00469
 Zr739 Zr 0.48448 0.50800 -0.01535
 O740 O 0.49568 0.52079 -0.00331
 Zr741 Zr 0.50765 0.48470 -0.01502
 O742 O 0.52027 0.49639 -0.00330
 Zr743 Zr 0.48390 0.48469 0.00738
 O744 O 0.49547 0.49601 0.02051
 O745 O 0.51237 0.51301 0.01345
 O746 O 0.48751 0.48790 -0.01231
 C747 C 0.54056 0.51064 0.01092
 C748 C 0.50933 0.54114 0.01098
 C749 C 0.50933 0.50980 0.04110
 C750 C 0.45987 0.49030 -0.01119
 C751 C 0.48979 0.48978 -0.03930
 C752 C 0.48938 0.46035 -0.01043
 H753 H 0.50689 0.50700 -0.02815
 H754 H 0.50618 0.47115 0.00682
 H755 H 0.51790 0.51863 0.01918
 H756 H 0.47053 0.50700 0.00615
 H757 H 0.47330 0.53059 -0.01160
 H758 H 0.47161 0.52967 0.01045
 H759 H 0.52168 0.46468 -0.00735
 H760 H 0.53464 0.47861 0.00742
 H761 H 0.48010 0.52263 -0.03575
 H762 H 0.52086 0.53731 -0.02048
 H763 H 0.49137 0.46514 0.02190
 H764 H 0.50641 0.47784 0.03430
 H765 H 0.53479 0.50688 -0.02028
 H766 H 0.52245 0.49260 -0.03417
 H767 H 0.47788 0.50634 0.03484
 H768 H 0.46338 0.49221 0.02073
 O769 O 0.78538 0.25080 0.48248
 O770 O 0.78122 0.22830 0.48435
 O771 O 0.75044 0.26651 0.46487
 O772 O 0.72870 0.26705 0.46898
 O773 O 0.76721 0.28531 0.49873
 O774 O 0.76652 0.28063 0.52147
 O775 O 0.71582 0.23270 0.50078
 O776 O 0.71932 0.23507 0.47857
 O777 O 0.74952 0.21576 0.51680
 O778 O 0.77336 0.22030 0.51565
 O779 O 0.73357 0.24929 0.53397
 O780 O 0.73405 0.27279 0.52947
 O781 O 0.71589 0.24864 0.51642
 O782 O 0.72067 0.27318 0.51491
 O783 O 0.74959 0.23357 0.53402
 O784 O 0.77392 0.23504 0.52885
 O785 O 0.73323 0.21568 0.50155
 O786 O 0.73745 0.21967 0.47786
 O787 O 0.78563 0.26657 0.49833
 O788 O 0.78092 0.26568 0.52154
 O789 O 0.75114 0.28525 0.48324
 O790 O 0.72723 0.27984 0.48560
 O791 O 0.76670 0.25100 0.46482
 O792 O 0.76386 0.22723 0.47012
 Zr793 Zr 0.76620 0.24287 0.48372
 O794 O 0.75486 0.23026 0.49559
 Zr795 Zr 0.74298 0.26614 0.48401
 O796 O 0.73046 0.25429 0.49548
 Zr797 Zr 0.76651 0.26617 0.50660
 O798 O 0.75487 0.25470 0.51931
 Zr799 Zr 0.73474 0.23424 0.49252
 O800 O 0.74601 0.24603 0.47962
 Zr801 Zr 0.75809 0.23462 0.51533
 O802 O 0.77078 0.24610 0.50352
 Zr803 Zr 0.73468 0.25764 0.51525
 O804 O 0.74635 0.27057 0.50378
 O805 O 0.76300 0.26288 0.48694
 O806 O 0.73797 0.23760 0.51230
 C807 C 0.79116 0.25996 0.48907
 C808 C 0.75976 0.26001 0.45923
 C809 C 0.76045 0.29094 0.48969
 C810 C 0.71033 0.23913 0.51014
 C811 C 0.73983 0.21022 0.51080
 C812 C 0.74009 0.23995 0.53948
 H813 H 0.75696 0.22096 0.49349
 H814 H 0.75705 0.25697 0.52843
 H815 H 0.76857 0.26849 0.48127
 H816 H 0.72111 0.25622 0.49334
 H817 H 0.72344 0.23782 0.47024
 H818 H 0.72204 0.26018 0.47091
 H819 H 0.77240 0.24252 0.53488
 H820 H 0.78544 0.25705 0.52082
 H821 H 0.72993 0.21341 0.47839
 H822 H 0.77080 0.22803 0.46331
 H823 H 0.74254 0.27258 0.53426
 H824 H 0.75762 0.28472 0.52138
 H825 H 0.78497 0.22851 0.49326
 H826 H 0.77253 0.21487 0.50766
 H827 H 0.72890 0.28517 0.49352
 H828 H 0.71431 0.27135 0.50781
 O829 O 0.76621 0.78565 -0.00198
 O830 O 0.76469 0.78166 0.02032
 O831 O 0.78441 0.75092 -0.01753
 O832 O 0.78055 0.72919 -0.01787
 O833 O 0.74952 0.76703 -0.03567
 O834 O 0.72651 0.76603 -0.03067
 O835 O 0.74892 0.71619 0.01671
 O836 O 0.77139 0.71994 0.01393
 O837 O 0.73243 0.74968 0.03345
 O838 O 0.73317 0.77341 0.02879
 O839 O 0.71476 0.73330 0.00066
 O840 O 0.71904 0.73361 -0.02261
 O841 O 0.73283 0.71591 0.00121
 O842 O 0.73399 0.72045 -0.02310
 O843 O 0.71469 0.74937 0.01611
 O844 O 0.71956 0.77368 0.01444
 O845 O 0.74819 0.73369 0.03339
 O846 O 0.77210 0.73816 0.02899
 O847 O 0.74990 0.78554 -0.01729
 O848 O 0.72643 0.78051 -0.01601
 O849 O 0.76549 0.75123 -0.03576
 O850 O 0.76352 0.72739 -0.03022
 O851 O 0.78442 0.76726 -0.00232
 O852 O 0.77941 0.76457 0.02126
 Zr853 Zr 0.76536 0.76657 0.00601
 O854 O 0.75367 0.75519 0.01873
 Zr855 Zr 0.76510 0.74322 -0.01682
 O856 O 0.75382 0.73066 -0.00484
 Zr857 Zr 0.74181 0.76636 -0.01663
 O858 O 0.72926 0.75466 -0.00502
 Zr859 Zr 0.75703 0.73514 0.01489
 O860 O 0.76979 0.74647 0.00295
 Zr861 Zr 0.73352 0.75810 0.01474
 O862 O 0.74515 0.77083 0.00311
 Zr863 Zr 0.73364 0.73457 -0.00786
 O864 O 0.74492 0.74626 -0.02089
 O865 O 0.76186 0.76317 -0.01368
 O866 O 0.73686 0.73805 0.01187
 C867 C 0.75931 0.79124 -0.01096
 C868 C 0.79008 0.76035 -0.01125
 C869 C 0.75872 0.76038 -0.04133
 C870 C 0.73939 0.71054 0.01056
 C871 C 0.73878 0.74017 0.03889
 C872 C 0.70919 0.73980 0.00993
 H873 H 0.75590 0.75739 0.02787
 H874 H 0.71994 0.75670 -0.00714
 H875 H 0.76745 0.76876 -0.01935
 H876 H 0.75610 0.72136 -0.00672
 H877 H 0.77974 0.72413 0.01104
 H878 H 0.77879 0.72257 -0.01103
 H879 H 0.71337 0.77204 0.00714
 H880 H 0.72722 0.78511 -0.00752
 H881 H 0.77178 0.73071 0.03524
 H882 H 0.78621 0.77157 0.02031
 H883 H 0.71405 0.74201 -0.02241
 H884 H 0.72671 0.75714 -0.03468
 H885 H 0.75558 0.78527 0.02022
 H886 H 0.74137 0.77276 0.03401
 H887 H 0.75537 0.72890 -0.03536
 H888 H 0.74130 0.71422 -0.02134
 O889 O 1.03447 0.23234 0.24774
 O890 O 1.03047 0.23380 0.27002
 O891 O 0.99943 0.21470 0.23213
 O892 O 0.97770 0.21884 0.23181
 O893 O 1.01599 0.24940 0.21416
 O894 O 1.01531 0.27230 0.21928
 O895 O 0.96500 0.25038 0.26660
 O896 O 0.96853 0.22793 0.26373
 O897 O 0.99879 0.26635 0.28337
 O898 O 1.02257 0.26535 0.27867
 O899 O 0.98250 0.28427 0.25077
 O900 O 0.98286 0.28013 0.22743
 O901 O 0.96491 0.26648 0.25118
 O902 O 0.96949 0.26539 0.22686
 O903 O 0.99862 0.28408 0.26618
 O904 O 1.02299 0.27896 0.26436
 O905 O 0.98253 0.25089 0.28327
 O906 O 0.98678 0.22698 0.27877
 O907 O 1.03456 0.24869 0.23253
 O908 O 1.02977 0.27214 0.23393
 O909 O 0.99999 0.23365 0.21399
 O910 O 0.97609 0.23589 0.21959
 O911 O 1.01579 0.21442 0.24733
 O912 O 1.01316 0.21937 0.27094
 Zr913 Zr 1.01534 0.23340 0.25575
 O914 O 1.00406 0.24516 0.26855
 Zr915 Zr 0.99195 0.23406 0.23295
 O916 O 0.97948 0.24541 0.24501
 Zr917 Zr 1.01542 0.25699 0.23324
 O918 O 1.00381 0.26961 0.24493
 Zr919 Zr 0.98392 0.24207 0.26473
 O920 O 0.99513 0.22926 0.25270
 Zr921 Zr 1.00721 0.26523 0.26465
 O922 O 1.01985 0.25351 0.25295
 Zr923 Zr 0.98362 0.26549 0.24210
 O924 O 0.99523 0.25416 0.22899
 O925 O 1.01199 0.23702 0.23608
 O926 O 0.98707 0.26216 0.26179
 C927 C 1.04018 0.23921 0.23881
 C928 C 1.00879 0.20889 0.23839
 C929 C 1.00922 0.24034 0.20844
 C930 C 0.95945 0.25998 0.26051
 C931 C 0.98914 0.26017 0.28878
 C932 C 0.98904 0.28968 0.26009
 H933 H 1.00624 0.24288 0.27767
 H934 H 1.00595 0.27889 0.24286
 H935 H 1.01754 0.23140 0.23037
 H936 H 0.97013 0.24325 0.24314
 H937 H 0.97265 0.21957 0.26080
 H938 H 0.97113 0.22060 0.23874
 H939 H 1.02134 0.28525 0.25717
 H940 H 1.03437 0.27127 0.24241
 H941 H 0.97932 0.22739 0.28504
 H942 H 1.02008 0.21249 0.26994
 H943 H 0.99129 0.28507 0.22772
 H944 H 1.00636 0.27231 0.21535
 H945 H 1.03418 0.24284 0.27000
 H946 H 1.02183 0.25716 0.28384
 H947 H 0.97772 0.24400 0.21447
 H948 H 0.96315 0.25816 0.22859
 O949 O 0.74925 1.03540 0.73341
 O950 O 0.77179 1.03111 0.73530
 O951 O 0.73332 1.00077 0.71549
 O952 O 0.73277 0.97907 0.71941
 O953 O 0.71450 1.01734 0.74946
 O954 O 0.71918 1.01658 0.77217
 O955 O 0.76710 0.96587 0.75131
 O956 O 0.76474 0.96944 0.72910
 O957 O 0.78415 0.99929 0.76758
 O958 O 0.77969 1.02309 0.76659
 O959 O 0.75044 0.98345 0.78451
 O960 O 0.72682 0.98413 0.77989
 O961 O 0.75107 0.96594 0.76689
 O962 O 0.72649 0.97078 0.76531
 O963 O 0.76628 0.99933 0.78473
 O964 O 0.76488 1.02364 0.77975
 O965 O 0.78421 0.98313 0.75221
 O966 O 0.78025 0.98745 0.72854
 O967 O 0.73339 1.03566 0.74919
 O968 O 0.73423 1.03084 0.77237
 O969 O 0.71452 1.00139 0.73386
 O970 O 0.71989 0.97753 0.73598
 O971 O 0.74898 1.01687 0.71561
 O972 O 0.77280 1.01386 0.72096
 Zr973 Zr 0.75710 1.01622 0.73453
 O974 O 0.76968 1.00479 0.74636
 Zr975 Zr 0.73367 0.99319 0.73457
 O976 O 0.74548 0.98058 0.74599
 Zr977 Zr 0.73370 1.01655 0.75734
 O978 O 0.74512 1.00480 0.77000
 Zr979 Zr 0.76561 0.98476 0.74314
 O980 O 0.75386 0.99612 0.73027
 Zr981 Zr 0.76528 1.00794 0.76611
 O982 O 0.75385 1.02071 0.75434
 Zr983 Zr 0.74210 0.98471 0.76578
 O984 O 0.72922 0.99648 0.75435
 O985 O 0.73702 1.01313 0.73766
 O986 O 0.76220 0.98791 0.76293
 C987 C 0.74008 1.04119 0.74000
 C988 C 0.73991 1.01006 0.70994
 C989 C 0.70883 1.01064 0.74039
 C990 C 0.76063 0.96039 0.76065
 C991 C 0.78967 0.98962 0.76154
 C992 C 0.75984 0.98984 0.79009
 H993 H 0.77901 1.00684 0.74431
 H994 H 0.74283 1.00695 0.77913
 H995 H 0.73141 1.01874 0.73203
 H996 H 0.74352 0.97128 0.74378
 H997 H 0.76202 0.97360 0.72078
 H998 H 0.73959 0.97235 0.72134
 H999 H 0.75738 1.02211 0.78576
 H1000 H 0.74292 1.03531 0.77170
 H1001 H 0.78651 0.97992 0.72903
 H1002 H 0.77204 1.02081 0.71419
 H1003 H 0.72717 0.99249 0.78488
 H1004 H 0.71510 1.00771 0.77207
 H1005 H 0.77159 1.03479 0.74424
 H1006 H 0.78516 1.02227 0.75862
 H1007 H 0.71457 0.97914 0.74394
 H1008 H 0.72833 0.96447 0.75816
 O1009 O 0.74970 0.53570 0.23298
 O1010 O 0.77224 0.53140 0.23490
 O1011 O 0.73379 0.50116 0.21491
 O1012 O 0.73322 0.47944 0.21873
 O1013 O 0.71493 0.51758 0.24894
 O1014 O 0.71960 0.51675 0.27165
 O1015 O 0.76748 0.46608 0.25062
 O1016 O 0.76516 0.46977 0.22841
 O1017 O 0.78454 0.49941 0.26707
 O1018 O 0.78013 0.52321 0.26615
 O1019 O 0.75080 0.48355 0.28388
 O1020 O 0.72719 0.48426 0.27923
 O1021 O 0.75144 0.46611 0.26618
 O1022 O 0.72688 0.47096 0.26460
 O1023 O 0.76664 0.49942 0.28419
 O1024 O 0.76528 0.52375 0.27928
 O1025 O 0.78460 0.48331 0.25163
 O1026 O 0.78070 0.48776 0.22797
 O1027 O 0.73382 0.53590 0.24874
 O1028 O 0.73465 0.53100 0.27190
 O1029 O 0.71496 0.50170 0.23327
 O1030 O 0.72031 0.47784 0.23527
 O1031 O 0.74946 0.51725 0.21511
 O1032 O 0.77327 0.51421 0.22048
 Zr1033 Zr 0.75755 0.51652 0.23403
 O1034 O 0.77010 0.50502 0.24583
 Zr1035 Zr 0.73411 0.49350 0.23395
 O1036 O 0.74589 0.48083 0.24534
 Zr1037 Zr 0.73413 0.51676 0.25682
 O1038 O 0.74552 0.50496 0.26945
 Zr1039 Zr 0.76603 0.48501 0.24253
 O1040 O 0.75430 0.49644 0.22970
 Zr1041 Zr 0.76569 0.50809 0.26560
 O1042 O 0.75427 0.52093 0.25387
 Zr1043 Zr 0.74249 0.48489 0.26514
 O1044 O 0.72963 0.49671 0.25375
 O1045 O 0.73746 0.51343 0.23714
 O1046 O 0.76260 0.48808 0.26232
 C1047 C 0.74052 0.54146 0.23958
 C1048 C 0.74040 0.51046 0.20940
 C1049 C 0.70926 0.51092 0.23985
 C1050 C 0.76100 0.46057 0.25992
 C1051 C 0.79005 0.48975 0.26100
 C1052 C 0.76019 0.48992 0.28950
 H1053 H 0.77945 0.50708 0.24380
 H1054 H 0.74322 0.50707 0.27858
 H1055 H 0.73185 0.51906 0.23152
 H1056 H 0.74392 0.47155 0.24309
 H1057 H 0.76247 0.47397 0.22011
 H1058 H 0.74003 0.47272 0.22063
 H1059 H 0.75777 0.52221 0.28527
 H1060 H 0.74333 0.53547 0.27125
 H1061 H 0.78695 0.48022 0.22844
 H1062 H 0.77252 0.52119 0.21374
 H1063 H 0.72755 0.49258 0.28426
 H1064 H 0.71551 0.50788 0.27152
 H1065 H 0.77203 0.53504 0.24385
 H1066 H 0.78559 0.52242 0.25818
 H1067 H 0.71500 0.47940 0.24324
 H1068 H 0.72870 0.46469 0.25742
 O1069 O 0.50094 0.21456 0.73217
 O1070 O 0.47840 0.21880 0.73406
 O1071 O 0.51674 0.24939 0.71449
 O1072 O 0.51739 0.27104 0.71862
 O1073 O 0.53562 0.23261 0.74829
 O1074 O 0.53096 0.23333 0.77104
 O1075 O 0.48293 0.28400 0.75055
 O1076 O 0.48532 0.28051 0.72832
 O1077 O 0.46592 0.25047 0.76657
 O1078 O 0.47044 0.22669 0.76542
 O1079 O 0.49963 0.26630 0.78364
 O1080 O 0.52317 0.26575 0.77906
 O1081 O 0.49895 0.28390 0.76612
 O1082 O 0.52357 0.27908 0.76450
 O1083 O 0.48379 0.25041 0.78374
 O1084 O 0.48524 0.22613 0.77859
 O1085 O 0.46585 0.26669 0.75131
 O1086 O 0.46985 0.26247 0.72762
 O1087 O 0.51675 0.21428 0.74798
 O1088 O 0.51595 0.21904 0.77117
 O1089 O 0.53558 0.24862 0.73282
 O1090 O 0.53019 0.27249 0.73519
 O1091 O 0.50117 0.23320 0.71448
 O1092 O 0.47735 0.23610 0.71987
 Zr1093 Zr 0.49305 0.23373 0.73341
 O1094 O 0.48044 0.24509 0.74532
 Zr1095 Zr 0.51643 0.25682 0.73364
 O1096 O 0.50458 0.26935 0.74514
 Zr1097 Zr 0.51643 0.23337 0.75622
 O1098 O 0.50497 0.24504 0.76896
 Zr1099 Zr 0.48446 0.26514 0.74225
 O1100 O 0.49626 0.25385 0.72931
 Zr1101 Zr 0.48482 0.24188 0.76506
 O1102 O 0.49630 0.22918 0.75320
 Zr1103 Zr 0.50796 0.26515 0.76490
 O1104 O 0.52088 0.25346 0.75339
 O1105 O 0.51313 0.23685 0.73657
 O1106 O 0.48786 0.26193 0.76202
 C1107 C 0.51008 0.20876 0.73876
 C1108 C 0.51019 0.24011 0.70886
 C1109 C 0.54128 0.23934 0.73926
 C1110 C 0.48939 0.28946 0.75991
 C1111 C 0.46038 0.26014 0.76057
 C1112 C 0.49023 0.25986 0.78918
 H1113 H 0.47111 0.24302 0.74325
 H1114 H 0.50726 0.24286 0.77808
 H1115 H 0.51873 0.23127 0.73088
 H1116 H 0.50653 0.27866 0.74300
 H1117 H 0.48805 0.27639 0.71998
 H1118 H 0.51047 0.27767 0.72052
 H1119 H 0.49273 0.22765 0.78461
 H1120 H 0.50726 0.21457 0.77050
 H1121 H 0.46358 0.26998 0.72816
 H1122 H 0.47814 0.22919 0.71304
 H1123 H 0.52297 0.25730 0.78385
 H1124 H 0.53507 0.24219 0.77095
 H1125 H 0.47858 0.21510 0.74299
 H1126 H 0.46499 0.22753 0.75746
 H1127 H 0.53555 0.27081 0.74310
 H1128 H 0.52170 0.28545 0.75743
 O1129 O 0.26773 0.78481 0.49839
 O1130 O 0.26623 0.78072 0.52065
 O1131 O 0.28555 0.75003 0.48256
 O1132 O 0.28153 0.72834 0.48217
 O1133 O 0.25072 0.76649 0.46464
 O1134 O 0.22775 0.76573 0.46971
 O1135 O 0.24987 0.71543 0.51678
 O1136 O 0.27237 0.71899 0.51395
 O1137 O 0.23372 0.74897 0.53371
 O1138 O 0.23461 0.77270 0.52918
 O1139 O 0.21583 0.73287 0.50090
 O1140 O 0.22005 0.73328 0.47760
 O1141 O 0.23373 0.71535 0.50133
 O1142 O 0.23488 0.72000 0.47703
 O1143 O 0.21593 0.74885 0.51644
 O1144 O 0.22099 0.77316 0.51483
 O1145 O 0.24934 0.73284 0.53354
 O1146 O 0.27328 0.73713 0.52909
 O1147 O 0.25137 0.78493 0.48312
 O1148 O 0.22785 0.78010 0.48447
 O1149 O 0.26657 0.75056 0.46441
 O1150 O 0.26444 0.72672 0.46986
 O1151 O 0.28575 0.76627 0.49788
 O1152 O 0.28079 0.76349 0.52147
 Zr1153 Zr 0.26672 0.76570 0.50627
 O1154 O 0.25496 0.75436 0.51897
 Zr1155 Zr 0.26619 0.74248 0.48332
 O1156 O 0.25484 0.72995 0.49527
 Zr1157 Zr 0.24309 0.76582 0.48371
 O1158 O 0.23047 0.75415 0.49528
 Zr1159 Zr 0.25815 0.73430 0.51502
 O1160 O 0.27096 0.74558 0.50310
 Zr1161 Zr 0.23482 0.75746 0.51504
 O1162 O 0.24654 0.77015 0.50346
 Zr1163 Zr 0.23469 0.73404 0.49233
 O1164 O 0.24602 0.74572 0.47933
 O1165 O 0.26312 0.76244 0.48658
 O1166 O 0.23799 0.73740 0.51206
 C1167 C 0.26085 0.79051 0.48946
 C1168 C 0.29132 0.75937 0.48888
 C1169 C 0.25984 0.75978 0.45891
 C1170 C 0.24026 0.70989 0.51065
 C1171 C 0.23999 0.73937 0.53909
 C1172 C 0.21034 0.73934 0.51023
 H1173 H 0.25723 0.75650 0.52811
 H1174 H 0.22116 0.75627 0.49320
 H1175 H 0.26874 0.76800 0.48091
 H1176 H 0.25704 0.72064 0.49335
 H1177 H 0.28074 0.72312 0.51106
 H1178 H 0.27973 0.72169 0.48898
 H1179 H 0.21473 0.77157 0.50758
 H1180 H 0.22872 0.78466 0.49297
 H1181 H 0.27290 0.72966 0.53531
 H1182 H 0.28765 0.77042 0.52054
 H1183 H 0.21509 0.74170 0.47790
 H1184 H 0.22780 0.75684 0.46570
 H1185 H 0.25716 0.78440 0.52061
 H1186 H 0.24284 0.77198 0.53434
 H1187 H 0.25628 0.72832 0.46475
 H1188 H 0.24213 0.71367 0.47876
 O1189 O 0.26780 0.28518 0.99884
 O1190 O 0.26626 0.28115 1.02110
 O1191 O 0.28616 0.25053 0.98327
 O1192 O 0.28238 0.22878 0.98292
 O1193 O 0.25127 0.26651 0.96504
 O1194 O 0.22827 0.26548 0.96997
 O1195 O 0.25070 0.21565 1.01737
 O1196 O 0.27316 0.21949 1.01470
 O1197 O 0.23403 0.24910 1.03409
 O1198 O 0.23469 0.27282 1.02945
 O1199 O 0.21653 0.23264 1.00126
 O1200 O 0.22086 0.23301 0.97799
 O1201 O 0.23466 0.21533 1.00182
 O1202 O 0.23586 0.21991 0.97752
 O1203 O 0.21635 0.24872 1.01670
 O1204 O 0.22115 0.27306 1.01504
 O1205 O 0.24982 0.23313 1.03408
 O1206 O 0.27374 0.23770 1.02978
 O1207 O 0.25154 0.28504 0.98347
 O1208 O 0.22809 0.27992 0.98464
 O1209 O 0.26729 0.25076 0.96498
 O1210 O 0.26541 0.22692 0.97052
 O1211 O 0.28608 0.26686 0.99849
 O1212 O 0.28102 0.26409 1.02206
 Zr1213 Zr 0.26700 0.26609 1.00677
 O1214 O 0.25530 0.25467 1.01945
 Zr1215 Zr 0.26688 0.24276 0.98393
 O1216 O 0.25560 0.23016 0.99586
 Zr1217 Zr 0.24352 0.26583 0.98407
 O1218 O 0.23096 0.25407 0.99562
 Zr1219 Zr 0.25874 0.23463 1.01561
 O1220 O 0.27150 0.24600 1.00372
 Zr1221 Zr 0.23515 0.25751 1.01539
 O1222 O 0.24679 0.27029 1.00382
 Zr1223 Zr 0.23542 0.23400 0.99279
 O1224 O 0.24670 0.24574 0.97980
 O1225 O 0.26357 0.26270 0.98707
 O1226 O 0.23856 0.23748 1.01252
 C1227 C 0.26089 0.29077 0.98987
 C1228 C 0.29179 0.25997 0.98956
 C1229 C 0.26049 0.25987 0.95940
 C1230 C 0.24122 0.20997 1.01118
 C1231 C 0.24037 0.23959 1.03954
 C1232 C 0.21091 0.23912 1.01051
 H1233 H 0.25749 0.25687 1.02860
 H1234 H 0.22164 0.25608 0.99347
 H1235 H 0.26915 0.26832 0.98142
 H1236 H 0.25792 0.22087 0.99399
 H1237 H 0.28150 0.22371 1.01184
 H1238 H 0.28064 0.22217 0.98977
 H1239 H 0.21496 0.27137 1.00775
 H1240 H 0.22882 0.28451 0.99314
 H1241 H 0.27341 0.23025 1.03602
 H1242 H 0.28780 0.27111 1.02114
 H1243 H 0.21583 0.24138 0.97820
 H1244 H 0.22847 0.25658 0.96599
 H1245 H 0.25714 0.28471 1.02101
 H1246 H 0.24288 0.27219 1.03470
 H1247 H 0.25727 0.22841 0.96535
 H1248 H 0.24319 0.21369 0.97930
 C1249 C 0.29444 0.36060 0.80770
 C1250 C 0.29392 0.36213 0.79415
 C1251 C 0.29842 0.35197 0.78602
 C1252 C 0.30349 0.34034 0.79141
 C1253 C 0.30412 0.33874 0.80502
 C1254 C 0.29950 0.34899 0.81310
 C1255 C 0.28902 0.37425 0.78868
 C1256 C 0.28502 0.38455 0.78431
 C1257 C 0.28047 0.39675 0.77946
 C1258 C 0.27671 0.40731 0.77553
 C1259 C 0.27238 0.42008 0.77112
 C1260 C 0.27913 0.42647 0.76102
 C1261 C 0.27538 0.43917 0.75721
 C1262 C 0.26481 0.44569 0.76347
 C1263 C 0.25796 0.43906 0.77347
 C1264 C 0.26173 0.42636 0.77726
 H1265 H 0.29105 0.36843 0.81409
 H1266 H 0.29806 0.35305 0.77552
 H1267 H 0.30684 0.33257 0.78494
 H1268 H 0.30003 0.34815 0.82361
 H1269 H 0.28742 0.42171 0.75623
 H1270 H 0.28089 0.44396 0.74950
 H1271 H 0.24980 0.44376 0.77852
 H1272 H 0.25646 0.42152 0.78511
 C1273 C 0.30175 -0.14554 0.28701
 C1274 C 0.29455 -0.13678 0.29479
 C1275 C 0.29222 -0.13980 0.30786
 C1276 C 0.29713 -0.15149 0.31321
 C1277 C 0.30458 -0.16048 0.30557
 C1278 C 0.30672 -0.15725 0.29231
 C1279 C 0.28976 -0.12454 0.28946
 C1280 C 0.28581 -0.11419 0.28518
 C1281 C 0.28127 -0.10196 0.28038
 C1282 C 0.27744 -0.09143 0.27645
 C1283 C 0.27295 -0.07873 0.27198
 C1284 C 0.26224 -0.07256 0.27812
 C1285 C 0.25814 -0.06003 0.27411
 C1286 C 0.26472 -0.05349 0.26388
 C1287 C 0.27541 -0.05985 0.25770
 C1288 C 0.27949 -0.07239 0.26173
 H1289 H 0.30353 -0.14333 0.27683
 H1290 H 0.28674 -0.13301 0.31401
 H1291 H 0.29554 -0.15303 0.32351
 H1292 H 0.31184 -0.16389 0.28576
 H1293 H 0.25713 -0.07737 0.28609
 H1294 H 0.24990 -0.05543 0.27912
 H1295 H 0.28073 -0.05511 0.24983
 H1296 H 0.28782 -0.07707 0.25694
 C1297 C 0.80196 0.85513 0.78793
 C1298 C 0.79475 0.86379 0.79580
 C1299 C 0.79257 0.86068 0.80888
 C1300 C 0.79765 0.84902 0.81413
 C1301 C 0.80512 0.84014 0.80639
 C1302 C 0.80709 0.84345 0.79312
 C1303 C 0.78981 0.87601 0.79056
 C1304 C 0.78577 0.88633 0.78631
 C1305 C 0.78115 0.89853 0.78149
 C1306 C 0.77729 0.90904 0.77752
 C1307 C 0.77280 0.92170 0.77295
 C1308 C 0.76206 0.92792 0.77900
 C1309 C 0.75798 0.94042 0.77488
 C1310 C 0.76460 0.94689 0.76464
 C1311 C 0.77531 0.94047 0.75853
 C1312 C 0.77937 0.92797 0.76267
 H1313 H 0.80362 0.85740 0.77774
 H1314 H 0.78710 0.86740 0.81511
 H1315 H 0.79618 0.84743 0.82445
 H1316 H 0.81221 0.83688 0.78650
 H1317 H 0.75693 0.92317 0.78698
 H1318 H 0.74972 0.94506 0.77983
 H1319 H 0.78067 0.94516 0.75066
 H1320 H 0.78772 0.92326 0.75794
 C1321 C 0.44995 0.89585 0.28826
 C1322 C 0.45412 0.88558 0.29640
 C1323 C 0.45327 0.88703 0.30994
 C1324 C 0.44825 0.89867 0.31534
 C1325 C 0.44399 0.90904 0.30725
 C1326 C 0.44492 0.90751 0.29364
 C1327 C 0.45909 0.87347 0.29092
 C1328 C 0.46319 0.86323 0.28650
 C1329 C 0.46790 0.85111 0.28153
 C1330 C 0.47185 0.84066 0.27746
 C1331 C 0.47646 0.82806 0.27280
 C1332 C 0.48722 0.82190 0.27883
 C1333 C 0.49141 0.80944 0.27466
 C1334 C 0.48485 0.80295 0.26437
 C1335 C 0.47411 0.80931 0.25828
 C1336 C 0.46995 0.82177 0.26248
 H1337 H 0.45058 0.89483 0.27776
 H1338 H 0.45641 0.87913 0.31633
 H1339 H 0.44748 0.89947 0.32584
 H1340 H 0.44185 0.91537 0.28717
 H1341 H 0.49231 0.82667 0.28686
 H1342 H 0.49968 0.80485 0.27959
 H1343 H 0.46880 0.80461 0.25037
 H1344 H 0.46158 0.82644 0.25777
 C1345 C -0.04596 0.88770 0.80990
 C1346 C -0.04524 0.88629 0.79635
 C1347 C -0.04957 0.89654 0.78827
 C1348 C -0.05467 0.90814 0.79373
 C1349 C -0.05549 0.90962 0.80736
 C1350 C -0.05105 0.89928 0.81538
 C1351 C -0.04022 0.87424 0.79079
 C1352 C -0.03608 0.86404 0.78631
 C1353 C -0.03133 0.85196 0.78127
 C1354 C -0.02735 0.84154 0.77715
 C1355 C -0.02271 0.82898 0.77245
 C1356 C -0.02922 0.82267 0.76215
 C1357 C -0.02504 0.81021 0.75794
 C1358 C -0.01427 0.80388 0.76400
 C1359 C -0.00770 0.81040 0.77427
 C1360 C -0.01190 0.82285 0.77845
 H1361 H -0.04269 0.87981 0.81624
 H1362 H -0.04904 0.89556 0.77777
 H1363 H -0.05788 0.91598 0.78731
 H1364 H -0.05173 0.90004 0.82589
 H1365 H -0.03763 0.82731 0.75746
 H1366 H -0.03036 0.80549 0.75005
 H1367 H 0.00060 0.80583 0.77918
 H1368 H -0.00681 0.82763 0.78646
 C1369 C -0.05872 -0.13918 -0.04424
 C1370 C -0.04545 -0.13590 -0.04619
 C1371 C -0.03730 -0.14435 -0.05338
 C1372 C -0.04241 -0.15600 -0.05868
 C1373 C -0.05586 -0.15950 -0.05690
 C1374 C -0.06388 -0.15082 -0.04949
 C1375 C -0.04029 -0.12374 -0.04100
 C1376 C -0.03611 -0.11346 -0.03673
 C1377 C -0.03138 -0.10132 -0.03183
 C1378 C -0.02746 -0.09087 -0.02775
 C1379 C -0.02290 -0.07828 -0.02303
 C1380 C -0.01206 -0.07213 -0.02893
 C1381 C -0.00790 -0.05970 -0.02467
 C1382 C -0.01455 -0.05322 -0.01443
 C1383 C -0.02537 -0.05956 -0.00847
 C1384 C -0.02951 -0.07200 -0.01276
 H1385 H -0.06516 -0.13263 -0.03878
 H1386 H -0.02697 -0.14195 -0.05487
 H1387 H -0.03558 -0.16241 -0.06378
 H1388 H -0.07435 -0.15254 -0.04817
 H1389 H -0.00689 -0.07689 -0.03692
 H1390 H 0.00044 -0.05512 -0.02951
 H1391 H -0.03076 -0.05486 -0.00060
 H1392 H -0.03794 -0.07665 -0.00814
 C1393 C -0.05124 0.35451 0.46200
 C1394 C -0.04450 0.36354 0.45416
 C1395 C -0.04266 0.36082 0.44093
 C1396 C -0.04762 0.34917 0.43550
 C1397 C -0.05462 0.33992 0.44321
 C1398 C -0.05624 0.34285 0.45662
 C1399 C -0.03968 0.37573 0.45960
 C1400 C -0.03573 0.38603 0.46401
 C1401 C -0.03121 0.39821 0.46899
 C1402 C -0.02741 0.40870 0.47308
 C1403 C -0.02296 0.42135 0.47776
 C1404 C -0.01224 0.42760 0.47177
 C1405 C -0.00819 0.44009 0.47597
 C1406 C -0.01484 0.44652 0.48625
 C1407 C -0.02553 0.44007 0.49230
 C1408 C -0.02956 0.42757 0.48808
 H1409 H -0.05262 0.35647 0.47229
 H1410 H -0.03755 0.36781 0.43474
 H1411 H -0.04644 0.34786 0.42510
 H1412 H -0.06098 0.33599 0.46321
 H1413 H -0.00708 0.42289 0.46375
 H1414 H 0.00006 0.44476 0.47105
 H1415 H -0.03090 0.44472 0.50021
 H1416 H -0.03790 0.42283 0.49277
 C1417 C 0.46447 -0.14515 0.44726
 C1418 C 0.45636 -0.13659 0.45435
 C1419 C 0.44308 -0.13980 0.45635
 C1420 C 0.43787 -0.15147 0.45120
 C1421 C 0.44585 -0.16025 0.44386
 C1422 C 0.45931 -0.15683 0.44206
 C1423 C 0.46155 -0.12437 0.45937
 C1424 C 0.46571 -0.11403 0.46349
 C1425 C 0.47039 -0.10181 0.46822
 C1426 C 0.47423 -0.09128 0.47217
 C1427 C 0.47862 -0.07859 0.47677
 C1428 C 0.47209 -0.07244 0.48717
 C1429 C 0.47603 -0.05991 0.49135
 C1430 C 0.48657 -0.05332 0.48516
 C1431 C 0.49315 -0.05966 0.47478
 C1432 C 0.48918 -0.07220 0.47062
 H1433 H 0.47482 -0.14280 0.44574
 H1434 H 0.43667 -0.13317 0.46173
 H1435 H 0.42739 -0.15314 0.45254
 H1436 H 0.46612 -0.16332 0.43704
 H1437 H 0.46388 -0.07729 0.49197
 H1438 H 0.47072 -0.05533 0.49934
 H1439 H 0.50126 -0.05489 0.46976
 H1440 H 0.49428 -0.07685 0.46253
 C1441 C 0.45215 0.35331 -0.03779
 C1442 C 0.45604 0.36359 -0.04604
 C1443 C 0.45506 0.36204 -0.05956
 C1444 C 0.45015 0.35029 -0.06483
 C1445 C 0.44615 0.33992 -0.05663
 C1446 C 0.44723 0.34154 -0.04304
 C1447 C 0.46085 0.37581 -0.04068
 C1448 C 0.46479 0.38615 -0.03636
 C1449 C 0.46931 0.39837 -0.03147
 C1450 C 0.47308 0.40891 -0.02746
 C1451 C 0.47748 0.42159 -0.02285
 C1452 C 0.48817 0.42787 -0.02889
 C1453 C 0.49217 0.44040 -0.02474
 C1454 C 0.48550 0.44684 -0.01447
 C1455 C 0.47483 0.44036 -0.00839
 C1456 C 0.47086 0.42783 -0.01256
 H1457 H 0.45289 0.35440 -0.02731
 H1458 H 0.45799 0.36995 -0.06604
 H1459 H 0.44926 0.34943 -0.07532
 H1460 H 0.44436 0.33368 -0.03648
 H1461 H 0.49334 0.42315 -0.03689
 H1462 H 0.50039 0.44509 -0.02967
 H1463 H 0.46945 0.44501 -0.00049
 H1464 H 0.46254 0.42307 -0.00785
 C1465 C 0.79479 0.38891 0.44103
 C1466 C 0.79367 0.38767 0.45457
 C1467 C 0.79775 0.39803 0.46267
 C1468 C 0.80300 0.40956 0.45724
 C1469 C 0.80424 0.41085 0.44364
 C1470 C 0.80003 0.40041 0.43559
 C1471 C 0.78862 0.37564 0.46011
 C1472 C 0.78452 0.36543 0.46457
 C1473 C 0.77987 0.35332 0.46956
 C1474 C 0.77603 0.34284 0.47362
 C1475 C 0.77162 0.33016 0.47820
 C1476 C 0.77831 0.32387 0.48839
 C1477 C 0.77450 0.31122 0.49233
 C1478 C 0.76395 0.30468 0.48611
 C1479 C 0.75715 0.31122 0.47602
 C1480 C 0.76097 0.32386 0.47210
 H1481 H 0.79172 0.38092 0.43467
 H1482 H 0.79692 0.39718 0.47316
 H1483 H 0.80603 0.41748 0.46368
 H1484 H 0.80103 0.40102 0.42510
 H1485 H 0.78659 0.32864 0.49315
 H1486 H 0.77998 0.30650 0.50011
 H1487 H 0.74899 0.30650 0.47100
 H1488 H 0.75575 0.32863 0.46417
 C1489 C 0.78562 0.89662 -0.05247
 C1490 C 0.79349 0.88788 -0.04537
 C1491 C 0.80689 0.89064 -0.04353
 C1492 C 0.81246 0.90205 -0.04882
 C1493 C 0.80473 0.91102 -0.05616
 C1494 C 0.79114 0.90806 -0.05781
 C1495 C 0.78795 0.87589 -0.04022
 C1496 C 0.78355 0.86570 -0.03600
 C1497 C 0.77868 0.85360 -0.03117
 C1498 C 0.77476 0.84313 -0.02718
 C1499 C 0.77036 0.83045 -0.02259
 C1500 C 0.77702 0.82423 -0.01235
 C1501 C 0.77326 0.81159 -0.00836
 C1502 C 0.76276 0.80498 -0.01460
 C1503 C 0.75597 0.81144 -0.02475
 C1504 C 0.75976 0.82408 -0.02871
 H1505 H 0.77518 0.89462 -0.05389
 H1506 H 0.81311 0.88385 -0.03815
 H1507 H 0.82301 0.90336 -0.04760
 H1508 H 0.78453 0.91471 -0.06285
 H1509 H 0.78527 0.82906 -0.00757
 H1510 H 0.77872 0.80693 -0.00054
 H1511 H 0.74786 0.80666 -0.02978
 H1512 H 0.75456 0.82879 -0.03668
 C1513 C 0.79342 0.30795 0.36159
 C1514 C 0.79240 0.29426 0.36303
 C1515 C 0.79667 0.28591 0.35299
 C1516 C 0.80204 0.29124 0.34158
 C1517 C 0.80321 0.30499 0.34009
 C1518 C 0.79878 0.31329 0.35020
 C1519 C 0.78728 0.28883 0.37497
 C1520 C 0.78316 0.28447 0.38511
 C1521 C 0.77852 0.27959 0.39716
 C1522 C 0.77473 0.27563 0.40758
 C1523 C 0.77044 0.27115 0.42020
 C1524 C 0.77717 0.26088 0.42645
 C1525 C 0.77352 0.25705 0.43903
 C1526 C 0.76307 0.26346 0.44556
 C1527 C 0.75621 0.27362 0.43908
 C1528 C 0.75988 0.27743 0.42650
 H1529 H 0.79021 0.31450 0.36934
 H1530 H 0.79591 0.27530 0.35400
 H1531 H 0.80522 0.28461 0.33390
 H1532 H 0.79972 0.32390 0.34943
 H1533 H 0.78539 0.25598 0.42167
 H1534 H 0.77904 0.24921 0.44371
 H1535 H 0.74813 0.27879 0.44381
 H1536 H 0.75463 0.28542 0.42177
 C1537 C 0.80720 0.79542 -0.13810
 C1538 C 0.79346 0.79419 -0.13694
 C1539 C 0.78526 0.79826 -0.14716
 C1540 C 0.79078 0.80364 -0.15848
 C1541 C 0.80459 0.80500 -0.15970
 C1542 C 0.81274 0.80078 -0.14939
 C1543 C 0.78783 0.78900 -0.12512
 C1544 C 0.78334 0.78478 -0.11506
 C1545 C 0.77835 0.78001 -0.10312
 C1546 C 0.77432 0.77608 -0.09277
 C1547 C 0.76982 0.77158 -0.08022
 C1548 C 0.75941 0.77809 -0.07390
 C1549 C 0.75558 0.77425 -0.06137
 C1550 C 0.76214 0.76385 -0.05496
 C1551 C 0.77242 0.75721 -0.06153
 C1552 C 0.77623 0.76107 -0.07406
 H1553 H 0.81364 0.79235 -0.13022
 H1554 H 0.77461 0.79734 -0.14637
 H1555 H 0.78426 0.80665 -0.16631
 H1556 H 0.82338 0.80186 -0.14997
 H1557 H 0.75441 0.78627 -0.07857
 H1558 H 0.74764 0.77960 -0.05662
 H1559 H 0.77770 0.74918 -0.05691
 H1560 H 0.78432 0.75599 -0.07885
 C1561 C 0.29763 0.46525 0.89713
 C1562 C 0.29327 0.45683 0.88719
 C1563 C 0.29403 0.44315 0.88885
 C1564 C 0.29917 0.43789 0.90036
 C1565 C 0.30364 0.44625 0.91040
 C1566 C 0.30279 0.46000 0.90867
 C1567 C 0.28828 0.46216 0.87516
 C1568 C 0.28422 0.46639 0.86494
 C1569 C 0.27963 0.47111 0.85282
 C1570 C 0.27585 0.47493 0.84234
 C1571 C 0.27156 0.47924 0.82967
 C1572 C 0.26120 0.47270 0.82333
 C1573 C 0.25749 0.47642 0.81073
 C1574 C 0.26412 0.48674 0.80427
 C1575 C 0.27439 0.49339 0.81084
 C1576 C 0.27808 0.48965 0.82344
 H1577 H 0.29709 0.47586 0.89595
 H1578 H 0.29075 0.43654 0.88119
 H1579 H 0.29987 0.42727 0.90132
 H1580 H 0.30603 0.46668 0.91628
 H1581 H 0.25611 0.46461 0.82805
 H1582 H 0.24956 0.47107 0.80598
 H1583 H 0.27973 0.50136 0.80619
 H1584 H 0.28614 0.49476 0.82825
 C1585 C 0.29948 -0.03708 0.39434
 C1586 C 0.29517 -0.04563 0.38449
 C1587 C 0.29601 -0.05929 0.38630
 C1588 C 0.30118 -0.06439 0.39787
 C1589 C 0.30561 -0.05588 0.40782
 C1590 C 0.30466 -0.04216 0.40593
 C1591 C 0.29010 -0.04045 0.37243
 C1592 C 0.28596 -0.03625 0.36223
 C1593 C 0.28122 -0.03150 0.35017
 C1594 C 0.27728 -0.02756 0.33979
 C1595 C 0.27273 -0.02301 0.32729
 C1596 C 0.26208 -0.02926 0.32114
 C1597 C 0.25793 -0.02514 0.30880
 C1598 C 0.26441 -0.01468 0.30242
 C1599 C 0.27504 -0.00838 0.30875
 C1600 C 0.27916 -0.01253 0.32109
 H1601 H 0.29886 -0.02649 0.39304
 H1602 H 0.29277 -0.06600 0.37871
 H1603 H 0.30195 -0.07499 0.39895
 H1604 H 0.30785 -0.03537 0.41347
 H1605 H 0.25705 -0.03742 0.32584
 H1606 H 0.24975 -0.03025 0.30422
 H1607 H 0.28029 -0.00033 0.30413
 H1608 H 0.28744 -0.00764 0.32575
 C1609 C -0.04224 -0.05845 -0.13804
 C1610 C -0.04403 -0.04513 -0.13499
 C1611 C -0.05113 -0.03703 -0.14349
 C1612 C -0.05653 -0.04222 -0.15495
 C1613 C -0.05494 -0.05572 -0.15820
 C1614 C -0.04759 -0.06370 -0.14949
 C1615 C -0.03885 -0.03990 -0.12299
 C1616 C -0.03462 -0.03566 -0.11282
 C1617 C -0.02982 -0.03087 -0.10080
 C1618 C -0.02585 -0.02691 -0.09042
 C1619 C -0.02131 -0.02235 -0.07790
 C1620 C -0.02758 -0.01169 -0.07180
 C1621 C -0.02355 -0.00760 -0.05940
 C1622 C -0.01317 -0.01414 -0.05291
 C1623 C -0.00681 -0.02475 -0.05922
 C1624 C -0.01087 -0.02882 -0.07162
 H1625 H -0.03686 -0.06485 -0.13146
 H1626 H -0.05250 -0.02666 -0.14126
 H1627 H -0.06153 -0.03543 -0.16139
 H1628 H -0.04641 -0.07419 -0.15105
 H1629 H -0.03570 -0.00664 -0.07656
 H1630 H -0.02869 0.00058 -0.05485
 H1631 H 0.00118 -0.03004 -0.05452
 H1632 H -0.00597 -0.03711 -0.07625
 C1633 C -0.04342 0.44058 0.36304
 C1634 C -0.04525 0.45389 0.36607
 C1635 C -0.05222 0.46200 0.35748
 C1636 C -0.05746 0.45682 0.34595
 C1637 C -0.05584 0.44332 0.34271
 C1638 C -0.04861 0.43534 0.35152
 C1639 C -0.04020 0.45914 0.37813
 C1640 C -0.03609 0.46340 0.38833
 C1641 C -0.03139 0.46825 0.40038
 C1642 C -0.02749 0.47226 0.41075
 C1643 C -0.02297 0.47690 0.42325
 C1644 C -0.02952 0.48732 0.42948
 C1645 C -0.02544 0.49153 0.44183
 C1646 C -0.01473 0.48534 0.44814
 C1647 C -0.00813 0.47495 0.44172
 C1648 C -0.01223 0.47077 0.42937
 H1649 H -0.03813 0.43417 0.36969
 H1650 H -0.05361 0.47237 0.35970
 H1651 H -0.06237 0.46362 0.33944
 H1652 H -0.04741 0.42485 0.34996
 H1653 H -0.03786 0.49212 0.42484
 H1654 H -0.03077 0.49953 0.44647
 H1655 H 0.00012 0.46993 0.44628
 H1656 H -0.00712 0.46267 0.42465
 C1657 C 0.45418 -0.05945 0.36366
 C1658 C 0.45534 -0.04579 0.36526
 C1659 C 0.45124 -0.03732 0.35529
 C1660 C 0.44592 -0.04249 0.34377
 C1661 C 0.44465 -0.05622 0.34210
 C1662 C 0.44888 -0.06464 0.35216
 C1663 C 0.46052 -0.04051 0.37725
 C1664 C 0.46475 -0.03623 0.38740
 C1665 C 0.46956 -0.03138 0.39940
 C1666 C 0.47353 -0.02737 0.40975
 C1667 C 0.47811 -0.02273 0.42222
 C1668 C 0.47158 -0.01231 0.42846
 C1669 C 0.47568 -0.00812 0.44081
 C1670 C 0.48639 -0.01432 0.44710
 C1671 C 0.49298 -0.02470 0.44067
 C1672 C 0.48885 -0.02887 0.42832
 H1673 H 0.45727 -0.06610 0.37135
 H1674 H 0.45210 -0.02672 0.35642
 H1675 H 0.44289 -0.03576 0.33614
 H1676 H 0.44785 -0.07524 0.35125
 H1677 H 0.46322 -0.00751 0.42385
 H1678 H 0.47034 -0.00012 0.44547
 H1679 H 0.50123 -0.02973 0.44522
 H1680 H 0.49395 -0.03698 0.42358
 C1681 C 0.45547 0.44118 -0.13706
 C1682 C 0.45675 0.45482 -0.13539
 C1683 C 0.45304 0.46337 -0.14546
 C1684 C 0.44799 0.45829 -0.15712
 C1685 C 0.44658 0.44458 -0.15886
 C1686 C 0.45043 0.43608 -0.14871
 C1687 C 0.46161 0.46002 -0.12324
 C1688 C 0.46557 0.46423 -0.11296
 C1689 C 0.47006 0.46900 -0.10081
 C1690 C 0.47380 0.47294 -0.09035
 C1691 C 0.47811 0.47749 -0.07775
 C1692 C 0.47146 0.48786 -0.07155
 C1693 C 0.47536 0.49199 -0.05912
 C1694 C 0.48599 0.48577 -0.05270
 C1695 C 0.49268 0.47542 -0.05909
 C1696 C 0.48876 0.47132 -0.07152
 H1697 H 0.45825 0.43448 -0.12931
 H1698 H 0.45400 0.47395 -0.14427
 H1699 H 0.44525 0.46508 -0.16481
 H1700 H 0.44929 0.42550 -0.14968
 H1701 H 0.46318 0.49268 -0.07627
 H1702 H 0.46996 0.49996 -0.05449
 H1703 H 0.50087 0.47039 -0.05444
 H1704 H 0.49395 0.46325 -0.07622
 C1705 C 0.45235 0.78657 0.39567
 C1706 C 0.45607 0.79504 0.38555
 C1707 C 0.45482 0.80870 0.38714
 C1708 C 0.44982 0.81388 0.39878
 C1709 C 0.44600 0.80546 0.40900
 C1710 C 0.44734 0.79174 0.40733
 C1711 C 0.46097 0.78975 0.37344
 C1712 C 0.46498 0.78548 0.36319
 C1713 C 0.46956 0.78066 0.35109
 C1714 C 0.47339 0.77670 0.34066
 C1715 C 0.47783 0.77215 0.32809
 C1716 C 0.48837 0.77849 0.32185
 C1717 C 0.49238 0.77442 0.30943
 C1718 C 0.48589 0.76393 0.30307
 C1719 C 0.47539 0.75754 0.30951
 C1720 C 0.47140 0.76163 0.32193
 H1721 H 0.45328 0.77597 0.39454
 H1722 H 0.45761 0.81534 0.37935
 H1723 H 0.44871 0.82447 0.39969
 H1724 H 0.44459 0.78502 0.41507
 H1725 H 0.49339 0.78667 0.32652
 H1726 H 0.50048 0.77959 0.30477
 H1727 H 0.47014 0.74947 0.30491
 H1728 H 0.46320 0.75668 0.32666
 C1729 C -0.05829 0.79693 0.88647
 C1730 C -0.04457 0.79625 0.88480
 C1731 C -0.03617 0.80058 0.89479
 C1732 C -0.04148 0.80559 0.90638
 C1733 C -0.05528 0.80632 0.90813
 C1734 C -0.06362 0.80192 0.89804
 C1735 C -0.03916 0.79125 0.87278
 C1736 C -0.03484 0.78710 0.86261
 C1737 C -0.02999 0.78232 0.85059
 C1738 C -0.02602 0.77832 0.84023
 C1739 C -0.02149 0.77365 0.82773
 C1740 C -0.01096 0.77995 0.82145
 C1741 C -0.00689 0.77575 0.80909
 C1742 C -0.01333 0.76518 0.80282
 C1743 C -0.02382 0.75881 0.80931
 C1744 C -0.02786 0.76304 0.82167
 H1745 H -0.06489 0.79366 0.87879
 H1746 H -0.02552 0.80009 0.89360
 H1747 H -0.03481 0.80878 0.91402
 H1748 H -0.07428 0.80254 0.89901
 H1749 H -0.00598 0.78820 0.82605
 H1750 H 0.00119 0.78091 0.80439
 H1751 H -0.02903 0.75067 0.80478
 H1752 H -0.03605 0.75811 0.82643
 C1753 C 0.35302 0.79842 0.28764
 C1754 C 0.36305 0.79431 0.29612
 C1755 C 0.36121 0.79529 0.30960
 C1756 C 0.34941 0.80042 0.31461
 C1757 C 0.33929 0.80466 0.30618
 C1758 C 0.34121 0.80357 0.29263
 C1759 C 0.37534 0.78931 0.29101
 C1760 C 0.38573 0.78524 0.28685
 C1761 C 0.39800 0.78059 0.28212
 C1762 C 0.40855 0.77674 0.27817
 C1763 C 0.42126 0.77229 0.27358
 C1764 C 0.42753 0.76161 0.27961
 C1765 C 0.44006 0.75753 0.27542
 C1766 C 0.44649 0.76411 0.26513
 C1767 C 0.44002 0.77478 0.25906
 C1768 C 0.42750 0.77883 0.26328
 H1769 H 0.35434 0.79770 0.27718
 H1770 H 0.36893 0.79219 0.31625
 H1771 H 0.34832 0.80132 0.32508
 H1772 H 0.33354 0.80663 0.28591
 H1773 H 0.42280 0.75650 0.28762
 H1774 H 0.44474 0.74931 0.28034
 H1775 H 0.44468 0.78010 0.25115
 H1776 H 0.42274 0.78713 0.25857
 C1777 C -0.13778 0.79633 0.80966
 C1778 C -0.13598 0.79556 0.79616
 C1779 C -0.14605 0.79979 0.78778
 C1780 C -0.15785 0.80483 0.79289
 C1781 C -0.15973 0.80570 0.80646
 C1782 C -0.14957 0.80135 0.81479
 C1783 C -0.12371 0.79061 0.79095
 C1784 C -0.11334 0.78655 0.78673
 C1785 C -0.10110 0.78190 0.78194
 C1786 C -0.09056 0.77802 0.77797
 C1787 C -0.07788 0.77350 0.77337
 C1788 C -0.07161 0.77999 0.76305
 C1789 C -0.05911 0.77587 0.75884
 C1790 C -0.05268 0.76519 0.76492
 C1791 C -0.05914 0.75867 0.77523
 C1792 C -0.07164 0.76281 0.77942
 H1793 H -0.13002 0.79313 0.81624
 H1794 H -0.14476 0.79923 0.77731
 H1795 H -0.16555 0.80797 0.78623
 H1796 H -0.15063 0.80207 0.82527
 H1797 H -0.07634 0.78830 0.75832
 H1798 H -0.05444 0.78115 0.75090
 H1799 H -0.05449 0.75044 0.78017
 H1800 H -0.07639 0.75774 0.78745
 C1801 C 0.88929 0.29497 0.44049
 C1802 C 0.88801 0.29375 0.45402
 C1803 C 0.89832 0.29786 0.46218
 C1804 C 0.90985 0.30325 0.45683
 C1805 C 0.91119 0.30459 0.44323
 C1806 C 0.90079 0.30034 0.43513
 C1807 C 0.87597 0.28856 0.45949
 C1808 C 0.86575 0.28435 0.46389
 C1809 C 0.85363 0.27959 0.46884
 C1810 C 0.84313 0.27568 0.47287
 C1811 C 0.83044 0.27122 0.47744
 C1812 C 0.82426 0.27763 0.48789
 C1813 C 0.81160 0.27379 0.49187
 C1814 C 0.80492 0.26348 0.48541
 C1815 C 0.81134 0.25695 0.47505
 C1816 C 0.82400 0.26081 0.47110
 H1817 H 0.88134 0.29188 0.43410
 H1818 H 0.89743 0.29696 0.47266
 H1819 H 0.91773 0.30631 0.46330
 H1820 H 0.90144 0.30142 0.42464
 H1821 H 0.82914 0.28573 0.49284
 H1822 H 0.80697 0.27905 0.49986
 H1823 H 0.80651 0.24899 0.46985
 H1824 H 0.82868 0.25581 0.46297
 C1825 C 0.88828 0.79521 -0.05977
 C1826 C 0.88701 0.79389 -0.04625
 C1827 C 0.89732 0.79798 -0.03807
 C1828 C 0.90881 0.80347 -0.04339
 C1829 C 0.91012 0.80495 -0.05697
 C1830 C 0.89975 0.80069 -0.06510
 C1831 C 0.87499 0.78865 -0.04080
 C1832 C 0.86477 0.78443 -0.03641
 C1833 C 0.85264 0.77968 -0.03147
 C1834 C 0.84213 0.77580 -0.02744
 C1835 C 0.82942 0.77141 -0.02285
 C1836 C 0.82312 0.77810 -0.01264
 C1837 C 0.81043 0.77433 -0.00867
 C1838 C 0.80386 0.76381 -0.01489
 C1839 C 0.81040 0.75699 -0.02499
 C1840 C 0.82308 0.76079 -0.02894
 H1841 H 0.88033 0.79214 -0.06618
 H1842 H 0.89645 0.79700 -0.02759
 H1843 H 0.91669 0.80650 -0.03690
 H1844 H 0.90039 0.80185 -0.07558
 H1845 H 0.82792 0.78636 -0.00789
 H1846 H 0.80571 0.77981 -0.00088
 H1847 H 0.80565 0.74887 -0.03001
 H1848 H 0.82786 0.75557 -0.03688
 C1849 C -0.13770 -0.05839 -0.04731
 C1850 C -0.13591 -0.04472 -0.04656
 C1851 C -0.14596 -0.03624 -0.05082
 C1852 C -0.15772 -0.04142 -0.05587
 C1853 C -0.15959 -0.05516 -0.05670
 C1854 C -0.14945 -0.06358 -0.05234
 C1855 C -0.12369 -0.03946 -0.04158
 C1856 C -0.11335 -0.03523 -0.03747
 C1857 C -0.10114 -0.03050 -0.03272
 C1858 C -0.09062 -0.02663 -0.02871
 C1859 C -0.07795 -0.02221 -0.02401
 C1860 C -0.07157 -0.01157 -0.02999
 C1861 C -0.05907 -0.00755 -0.02569
 C1862 C -0.05278 -0.01415 -0.01533
 C1863 C -0.05935 -0.02478 -0.00931
 C1864 C -0.07184 -0.02877 -0.01364
 H1865 H -0.12997 -0.06505 -0.04409
 H1866 H -0.14468 -0.02564 -0.05027
 H1867 H -0.16541 -0.03469 -0.05901
 H1868 H -0.15051 -0.07420 -0.05302
 H1869 H -0.07620 -0.00645 -0.03806
 H1870 H -0.05431 0.00063 -0.03057
 H1871 H -0.05480 -0.03011 -0.00134
 H1872 H -0.07668 -0.03704 -0.00896
 C1873 C -0.13981 0.45738 0.44077
 C1874 C -0.13698 0.45567 0.45398
 C1875 C -0.14591 0.44888 0.46191
 C1876 C -0.15758 0.44373 0.45665
 C1877 C -0.16062 0.44525 0.44326
 C1878 C -0.15146 0.45228 0.43545
 C1879 C -0.12478 0.46065 0.45930
 C1880 C -0.11447 0.46473 0.46361
 C1881 C -0.10227 0.46940 0.46848
 C1882 C -0.09177 0.47328 0.47251
 C1883 C -0.07911 0.47778 0.47716
 C1884 C -0.07301 0.47144 0.48767
 C1885 C -0.06050 0.47550 0.49190
 C1886 C -0.05391 0.48597 0.48565
 C1887 C -0.06020 0.49236 0.47517
 C1888 C -0.07271 0.48828 0.47096
 H1889 H -0.13289 0.46252 0.43450
 H1890 H -0.14386 0.44758 0.47220
 H1891 H -0.16436 0.43896 0.46330
 H1892 H -0.15284 0.45337 0.42506
 H1893 H -0.07786 0.46328 0.49252
 H1894 H -0.05596 0.47033 0.49998
 H1895 H -0.05542 0.50042 0.47010
 H1896 H -0.07733 0.49323 0.46278
 C1897 C 0.35410 -0.04877 0.46105
 C1898 C 0.36435 -0.04486 0.45273
 C1899 C 0.36282 -0.04609 0.43923
 C1900 C 0.35112 -0.05125 0.43405
 C1901 C 0.34078 -0.05527 0.44233
 C1902 C 0.34239 -0.05395 0.45590
 C1903 C 0.37653 -0.03980 0.45801
 C1904 C 0.38683 -0.03566 0.46231
 C1905 C 0.39900 -0.03094 0.46720
 C1906 C 0.40948 -0.02700 0.47125
 C1907 C 0.42210 -0.02244 0.47594
 C1908 C 0.42844 -0.01187 0.46980
 C1909 C 0.44091 -0.00772 0.47405
 C1910 C 0.44723 -0.01411 0.48453
 C1911 C 0.44069 -0.02465 0.49072
 C1912 C 0.42822 -0.02878 0.48644
 H1913 H 0.35518 -0.04786 0.47153
 H1914 H 0.37071 -0.04315 0.43270
 H1915 H 0.35027 -0.05233 0.42358
 H1916 H 0.33455 -0.05683 0.46251
 H1917 H 0.42381 -0.00692 0.46163
 H1918 H 0.44565 0.00039 0.46902
 H1919 H 0.44525 -0.02982 0.49879
 H1920 H 0.42341 -0.03699 0.49125
 C1921 C 0.35948 0.44306 -0.04353
 C1922 C 0.36264 0.45631 -0.04551
 C1923 C 0.35390 0.46442 -0.05236
 C1924 C 0.34207 0.45929 -0.05731
 C1925 C 0.33870 0.44585 -0.05551
 C1926 C 0.34768 0.43787 -0.04843
 C1927 C 0.37497 0.46149 -0.04071
 C1928 C 0.38540 0.46564 -0.03674
 C1929 C 0.39771 0.47031 -0.03216
 C1930 C 0.40831 0.47412 -0.02830
 C1931 C 0.42105 0.47848 -0.02375
 C1932 C 0.42756 0.48887 -0.03002
 C1933 C 0.44012 0.49283 -0.02585
 C1934 C 0.44636 0.48643 -0.01533
 C1935 C 0.43966 0.47605 -0.00904
 C1936 C 0.42710 0.47212 -0.01323
 H1937 H 0.36625 0.43665 -0.03834
 H1938 H 0.35620 0.47475 -0.05387
 H1939 H 0.33545 0.46608 -0.06215
 H1940 H 0.34605 0.42741 -0.04712
 H1941 H 0.42298 0.49383 -0.03821
 H1942 H 0.44498 0.50082 -0.03096
 H1943 H 0.44415 0.47088 -0.00094
 H1944 H 0.42216 0.46404 -0.00833
 C1945 C 0.39920 0.45249 0.78703
 C1946 C 0.38896 0.45687 0.79516
 C1947 C 0.39029 0.45588 0.80870
 C1948 C 0.40176 0.45046 0.81411
 C1949 C 0.41207 0.44594 0.80603
 C1950 C 0.41068 0.44706 0.79242
 C1951 C 0.37694 0.46207 0.78966
 C1952 C 0.36673 0.46628 0.78525
 C1953 C 0.35460 0.47102 0.78031
 C1954 C 0.34409 0.47491 0.77629
 C1955 C 0.33136 0.47933 0.77175
 C1956 C 0.32504 0.48993 0.77790
 C1957 C 0.31234 0.49374 0.77401
 C1958 C 0.30577 0.48696 0.76391
 C1959 C 0.31234 0.47646 0.75763
 C1960 C 0.32504 0.47268 0.76154
 H1961 H 0.39827 0.45321 0.77653
 H1962 H 0.38240 0.45916 0.81508
 H1963 H 0.40243 0.44955 0.82460
 H1964 H 0.41851 0.44380 0.78596
 H1965 H 0.32983 0.49512 0.78584
 H1966 H 0.30759 0.50185 0.77908
 H1967 H 0.30760 0.47101 0.74984
 H1968 H 0.32983 0.46443 0.75674
 C1969 C 0.39628 -0.04896 0.28878
 C1970 C 0.38611 -0.04468 0.29704
 C1971 C 0.38763 -0.04567 0.31056
 C1972 C 0.39922 -0.05098 0.31582
 C1973 C 0.40947 -0.05538 0.30760
 C1974 C 0.40789 -0.05428 0.29401
 C1975 C 0.37401 -0.03952 0.29168
 C1976 C 0.36377 -0.03532 0.28732
 C1977 C 0.35165 -0.03055 0.28236
 C1978 C 0.34120 -0.02659 0.27825
 C1979 C 0.32861 -0.02203 0.27351
 C1980 C 0.32216 -0.01153 0.27973
 C1981 C 0.30968 -0.00743 0.27547
 C1982 C 0.30345 -0.01380 0.26491
 C1983 C 0.31010 -0.02425 0.25863
 C1984 C 0.32258 -0.02833 0.26292
 H1985 H 0.39521 -0.04823 0.27829
 H1986 H 0.37979 -0.04245 0.31705
 H1987 H 0.40005 -0.05188 0.32630
 H1988 H 0.41566 -0.05746 0.28745
 H1989 H 0.32672 -0.00661 0.28797
 H1990 H 0.30486 0.00061 0.28056
 H1991 H 0.30561 -0.02941 0.25050
 H1992 H 0.32747 -0.03649 0.25806
 C1993 C 0.11168 0.54509 0.69207
 C1994 C 0.11347 0.54444 0.70558
 C1995 C 0.10333 0.54859 0.71394
 C1996 C 0.09146 0.55344 0.70880
 C1997 C 0.08959 0.55418 0.69523
 C1998 C 0.09983 0.54992 0.68692
 C1999 C 0.12579 0.53967 0.71080
 C2000 C 0.13622 0.53574 0.71499
 C2001 C 0.14853 0.53122 0.71969
 C2002 C 0.15914 0.52744 0.72353
 C2003 C 0.17192 0.52300 0.72793
 C2004 C 0.17827 0.52947 0.73824
 C2005 C 0.19087 0.52545 0.74222
 C2006 C 0.19732 0.51489 0.73592
 C2007 C 0.19078 0.50838 0.72563
 C2008 C 0.17817 0.51242 0.72168
 H2009 H 0.11948 0.54195 0.68551
 H2010 H 0.10460 0.54812 0.72441
 H2011 H 0.08371 0.55652 0.71544
 H2012 H 0.09878 0.55055 0.67643
 H2013 H 0.17353 0.53770 0.74313
 H2014 H 0.19561 0.53071 0.75014
 H2015 H 0.19543 0.50024 0.72053
 H2016 H 0.17336 0.50737 0.71366
 C2017 C 0.10050 0.03378 0.20307
 C2018 C 0.11068 0.04231 0.20693
 C2019 C 0.10906 0.05596 0.20563
 C2020 C 0.09737 0.06108 0.20042
 C2021 C 0.08712 0.05260 0.19641
 C2022 C 0.08879 0.03889 0.19785
 C2023 C 0.12292 0.03712 0.21193
 C2024 C 0.13332 0.03299 0.21598
 C2025 C 0.14566 0.02841 0.22056
 C2026 C 0.15633 0.02471 0.22432
 C2027 C 0.16923 0.02054 0.22862
 C2028 C 0.17557 0.02726 0.23877
 C2029 C 0.18838 0.02368 0.24252
 C2030 C 0.19504 0.01331 0.23612
 C2031 C 0.18848 0.00649 0.22604
 C2032 C 0.17567 0.01010 0.22232
 H2033 H 0.10165 0.02320 0.20405
 H2034 H 0.11689 0.06264 0.20853
 H2035 H 0.09645 0.07166 0.19927
 H2036 H 0.08101 0.03213 0.19499
 H2037 H 0.17068 0.03538 0.24369
 H2038 H 0.19311 0.02916 0.25030
 H2039 H 0.19330 -0.00152 0.22089
 H2040 H 0.17087 0.00486 0.21442
 C2041 C 0.64895 0.70311 0.21337
 C2042 C 0.63851 0.70697 0.20526
 C2043 C 0.63979 0.70580 0.19172
 C2044 C 0.65141 0.70071 0.18630
 C2045 C 0.66194 0.69672 0.19436
 C2046 C 0.66059 0.69801 0.20796
 C2047 C 0.62636 0.71187 0.21077
 C2048 C 0.61604 0.71585 0.21519
 C2049 C 0.60381 0.72037 0.22012
 C2050 C 0.59322 0.72410 0.22411
 C2051 C 0.58043 0.72841 0.22859
 C2052 C 0.57409 0.73899 0.22246
 C2053 C 0.56136 0.74274 0.22630
 C2054 C 0.55476 0.73594 0.23636
 C2055 C 0.56134 0.72546 0.24262
 C2056 C 0.57407 0.72172 0.23874
 H2057 H 0.64806 0.70398 0.22386
 H2058 H 0.63174 0.70869 0.18536
 H2059 H 0.65206 0.69965 0.17581
 H2060 H 0.66858 0.69515 0.21441
 H2061 H 0.57890 0.74421 0.21456
 H2062 H 0.55661 0.75084 0.22126
 H2063 H 0.55658 0.71999 0.25037
 H2064 H 0.57888 0.71350 0.24354
 C2065 C 0.14001 0.70548 0.69140
 C2066 C 0.13875 0.70651 0.70494
 C2067 C 0.14909 0.70230 0.71301
 C2068 C 0.16062 0.69700 0.70754
 C2069 C 0.16194 0.69585 0.69393
 C2070 C 0.15151 0.70020 0.68591
 C2071 C 0.12671 0.71160 0.71052
 C2072 C 0.11648 0.71575 0.71498
 C2073 C 0.10433 0.72045 0.71995
 C2074 C 0.09382 0.72433 0.72397
 C2075 C 0.08109 0.72879 0.72849
 C2076 C 0.07473 0.72222 0.73872
 C2077 C 0.06203 0.72607 0.74261
 C2078 C 0.05550 0.73654 0.73629
 C2079 C 0.06210 0.74323 0.72616
 C2080 C 0.07479 0.73936 0.72230
 H2081 H 0.13203 0.70864 0.68507
 H2082 H 0.14822 0.70305 0.72351
 H2083 H 0.16852 0.69386 0.71395
 H2084 H 0.15214 0.69926 0.67541
 H2085 H 0.07950 0.71400 0.74355
 H2086 H 0.05726 0.72069 0.75042
 H2087 H 0.05739 0.75132 0.72107
 H2088 H 0.07961 0.74448 0.71435
 C2089 C 0.60261 0.21464 0.54750
 C2090 C 0.61256 0.20585 0.54364
 C2091 C 0.61051 0.19224 0.54477
 C2092 C 0.59861 0.18743 0.54981
 C2093 C 0.58858 0.19619 0.55381
 C2094 C 0.59069 0.20986 0.55256
 C2095 C 0.62498 0.21074 0.53876
 C2096 C 0.63547 0.21471 0.53479
 C2097 C 0.64786 0.21921 0.53027
 C2098 C 0.65852 0.22294 0.52651
 C2099 C 0.67134 0.22726 0.52214
 C2100 C 0.67768 0.22070 0.51188
 C2101 C 0.69029 0.22464 0.50787
 C2102 C 0.69676 0.23522 0.51410
 C2103 C 0.69024 0.24182 0.52435
 C2104 C 0.67763 0.23785 0.52834
 H2105 H 0.60409 0.22520 0.54666
 H2106 H 0.61817 0.18535 0.54187
 H2107 H 0.59736 0.17688 0.55084
 H2108 H 0.58310 0.21683 0.55542
 H2109 H 0.67291 0.21246 0.50704
 H2110 H 0.69501 0.21930 0.49998
 H2111 H 0.69492 0.24998 0.52939
 H2112 H 0.67282 0.24299 0.53631
 C2113 C 0.60168 0.71496 0.04762
 C2114 C 0.61163 0.70621 0.04366
 C2115 C 0.60965 0.69260 0.04476
 C2116 C 0.59780 0.68773 0.04988
 C2117 C 0.58777 0.69643 0.05398
 C2118 C 0.58982 0.71011 0.05276
 C2119 C 0.62399 0.71117 0.03872
 C2120 C 0.63445 0.71519 0.03469
 C2121 C 0.64679 0.71974 0.03011
 C2122 C 0.65743 0.72351 0.02631
 C2123 C 0.67022 0.72788 0.02192
 C2124 C 0.67655 0.72135 0.01162
 C2125 C 0.68916 0.72531 0.00761
 C2126 C 0.69562 0.73588 0.01386
 C2127 C 0.68911 0.74245 0.02414
 C2128 C 0.67650 0.73846 0.02813
 H2129 H 0.60311 0.72552 0.04680
 H2130 H 0.61731 0.68574 0.04178
 H2131 H 0.59660 0.67716 0.05088
 H2132 H 0.58222 0.71704 0.05570
 H2133 H 0.67178 0.71312 0.00677
 H2134 H 0.69387 0.72001 -0.00031
 H2135 H 0.69379 0.75059 0.02919
 H2136 H 0.67170 0.74356 0.03613
 C2137 C 0.14218 0.05630 0.04228
 C2138 C 0.13931 0.04295 0.04406
 C2139 C 0.14812 0.03497 0.05096
 C2140 C 0.15973 0.04032 0.05618
 C2141 C 0.16280 0.05386 0.05461
 C2142 C 0.15376 0.06171 0.04745
 C2143 C 0.12713 0.03759 0.03907
 C2144 C 0.11679 0.03334 0.03498
 C2145 C 0.10453 0.02864 0.03032
 C2146 C 0.09392 0.02486 0.02646
 C2147 C 0.08110 0.02062 0.02203
 C2148 C 0.07459 0.01024 0.02832
 C2149 C 0.06184 0.00657 0.02446
 C2150 C 0.05540 0.01328 0.01425
 C2151 C 0.06213 0.02357 0.00785
 C2152 C 0.07488 0.02720 0.01173
 H2153 H 0.13534 0.06261 0.03706
 H2154 H 0.14603 0.02457 0.05232
 H2155 H 0.16642 0.03363 0.06107
 H2156 H 0.15516 0.07222 0.04630
 H2157 H 0.07930 0.00510 0.03632
 H2158 H 0.05697 -0.00137 0.02962
 H2159 H 0.05749 0.02895 -0.00003
 H2160 H 0.07982 0.03528 0.00682
 C2161 C 0.14782 0.54766 0.53794
 C2162 C 0.13756 0.54354 0.54615
 C2163 C 0.13894 0.54472 0.55967
 C2164 C 0.15048 0.55010 0.56498
 C2165 C 0.16081 0.55438 0.55682
 C2166 C 0.15938 0.55305 0.54323
 C2167 C 0.12547 0.53841 0.54073
 C2168 C 0.11521 0.53427 0.53636
 C2169 C 0.10304 0.52961 0.53143
 C2170 C 0.09250 0.52578 0.52741
 C2171 C 0.07977 0.52142 0.52285
 C2172 C 0.07346 0.51077 0.52889
 C2173 C 0.06077 0.50697 0.52496
 C2174 C 0.05420 0.51381 0.51492
 C2175 C 0.06074 0.52436 0.50876
 C2176 C 0.07343 0.52814 0.51271
 H2177 H 0.14686 0.54679 0.52745
 H2178 H 0.13103 0.54162 0.56611
 H2179 H 0.15120 0.55117 0.57547
 H2180 H 0.16721 0.55612 0.53671
 H2181 H 0.07826 0.50553 0.53678
 H2182 H 0.05605 0.49882 0.52994
 H2183 H 0.05599 0.52986 0.50101
 H2184 H 0.07821 0.53642 0.50799
 C2185 C 0.64738 0.05111 0.53738
 C2186 C 0.63857 0.04403 0.54519
 C2187 C 0.64142 0.04212 0.55837
 C2188 C 0.65297 0.04736 0.56379
 C2189 C 0.66198 0.05472 0.55613
 C2190 C 0.65895 0.05639 0.54275
 C2191 C 0.62643 0.03901 0.53979
 C2192 C 0.61613 0.03492 0.53543
 C2193 C 0.60393 0.03029 0.53054
 C2194 C 0.59338 0.02647 0.52654
 C2195 C 0.58064 0.02208 0.52200
 C2196 C 0.57439 0.01139 0.52802
 C2197 C 0.56172 0.00753 0.52408
 C2198 C 0.55510 0.01436 0.51406
 C2199 C 0.56158 0.02498 0.50794
 C2200 C 0.57425 0.02881 0.51190
 H2201 H 0.64531 0.05257 0.52712
 H2202 H 0.63459 0.03676 0.56454
 H2203 H 0.65436 0.04610 0.57417
 H2204 H 0.66565 0.06141 0.53620
 H2205 H 0.57924 0.00613 0.53587
 H2206 H 0.55705 -0.00067 0.52903
 H2207 H 0.55680 0.03047 0.50021
 H2208 H 0.57899 0.03713 0.50720
 C2209 C 0.64817 0.54760 0.03703
 C2210 C 0.63811 0.54328 0.04537
 C2211 C 0.63979 0.54417 0.05889
 C2212 C 0.65144 0.54945 0.06406
 C2213 C 0.66158 0.55393 0.05576
 C2214 C 0.65984 0.55289 0.04218
 C2215 C 0.62590 0.53825 0.04011
 C2216 C 0.61556 0.53420 0.03585
 C2217 C 0.60330 0.52963 0.03104
 C2218 C 0.59271 0.52588 0.02709
 C2219 C 0.57992 0.52162 0.02257
 C2220 C 0.57353 0.51104 0.02865
 C2221 C 0.56083 0.50730 0.02471
 C2222 C 0.55432 0.51412 0.01462
 C2223 C 0.56093 0.52462 0.00844
 C2224 C 0.57363 0.52833 0.01240
 H2225 H 0.64697 0.54695 0.02656
 H2226 H 0.63203 0.54092 0.06543
 H2227 H 0.65240 0.55030 0.07454
 H2228 H 0.66752 0.55612 0.03556
 H2229 H 0.57830 0.50579 0.03656
 H2230 H 0.55605 0.49919 0.02970
 H2231 H 0.55624 0.53010 0.00065
 H2232 H 0.57848 0.53656 0.00765
 C2233 C 0.05560 0.03946 0.14145
 C2234 C 0.04230 0.04134 0.13827
 C2235 C 0.03408 0.04836 0.14675
 C2236 C 0.03915 0.05361 0.15834
 C2237 C 0.05264 0.05196 0.16171
 C2238 C 0.06073 0.04466 0.15302
 C2239 C 0.03723 0.03638 0.12609
 C2240 C 0.03319 0.03236 0.11577
 C2241 C 0.02867 0.02784 0.10353
 C2242 C 0.02499 0.02416 0.09296
 C2243 C 0.02081 0.01998 0.08019
 C2244 C 0.01059 0.02668 0.07381
 C2245 C 0.00698 0.02311 0.06113
 C2246 C 0.01358 0.01277 0.05463
 C2247 C 0.02372 0.00595 0.06122
 C2248 C 0.02730 0.00956 0.07390
 H2249 H 0.06210 0.03415 0.13487
 H2250 H 0.02372 0.04980 0.14441
 H2251 H 0.03228 0.05859 0.16476
 H2252 H 0.07122 0.04345 0.15466
 H2253 H 0.00552 0.03479 0.07857
 H2254 H -0.00085 0.02858 0.05637
 H2255 H 0.02903 -0.00203 0.05653
 H2256 H 0.03526 0.00433 0.07874
 C2257 C 0.05708 0.54349 0.63948
 C2258 C 0.04336 0.54234 0.63806
 C2259 C 0.03499 0.54642 0.64816
 C2260 C 0.04031 0.55173 0.65961
 C2261 C 0.05410 0.55301 0.66109
 C2262 C 0.06243 0.54878 0.65091
 C2263 C 0.03794 0.53726 0.62609
 C2264 C 0.03361 0.53314 0.61592
 C2265 C 0.02878 0.52850 0.60384
 C2266 C 0.02487 0.52470 0.59339
 C2267 C 0.02047 0.52037 0.58074
 C2268 C 0.01005 0.52689 0.57450
 C2269 C 0.00627 0.52319 0.56190
 C2270 C 0.01290 0.51291 0.55535
 C2271 C 0.02322 0.50625 0.56182
 C2272 C 0.02697 0.50998 0.57442
 H2273 H 0.06366 0.54042 0.63169
 H2274 H 0.02435 0.54557 0.64716
 H2275 H 0.03366 0.55476 0.66734
 H2276 H 0.07306 0.54982 0.65167
 H2277 H 0.00497 0.53498 0.57930
 H2278 H -0.00170 0.52855 0.55724
 H2279 H 0.02856 0.49831 0.55708
 H2280 H 0.03509 0.50488 0.57914
 C2281 C 0.55551 0.03944 0.64137
 C2282 C 0.54215 0.04103 0.63832
 C2283 C 0.53383 0.04774 0.64695
 C2284 C 0.53888 0.05300 0.65854
 C2285 C 0.55244 0.05167 0.66177
 C2286 C 0.56062 0.04465 0.65294
 C2287 C 0.53710 0.03612 0.62612
 C2288 C 0.53307 0.03217 0.61577
 C2289 C 0.52857 0.02773 0.60350
 C2290 C 0.52492 0.02411 0.59289
 C2291 C 0.52079 0.01999 0.58009
 C2292 C 0.51039 0.02652 0.57382
 C2293 C 0.50681 0.02300 0.56112
 C2294 C 0.51363 0.01288 0.55449
 C2295 C 0.52395 0.00624 0.56097
 C2296 C 0.52750 0.00979 0.57368
 H2297 H 0.56208 0.03436 0.63468
 H2298 H 0.52342 0.04894 0.64473
 H2299 H 0.53193 0.05770 0.66509
 H2300 H 0.57115 0.04368 0.65451
 H2301 H 0.50515 0.03446 0.57869
 H2302 H 0.49883 0.02833 0.55644
 H2303 H 0.52942 -0.00158 0.55618
 H2304 H 0.53560 0.00470 0.57843
 C2305 C 0.55533 0.54219 0.14013
 C2306 C 0.54163 0.54125 0.13844
 C2307 C 0.53311 0.54535 0.14843
 C2308 C 0.53829 0.55047 0.16003
 C2309 C 0.55206 0.55155 0.16177
 C2310 C 0.56052 0.54730 0.15171
 C2311 C 0.53637 0.53639 0.12631
 C2312 C 0.53220 0.53246 0.11601
 C2313 C 0.52759 0.52803 0.10378
 C2314 C 0.52387 0.52440 0.09320
 C2315 C 0.51972 0.52025 0.08042
 C2316 C 0.50943 0.52688 0.07406
 C2317 C 0.50587 0.52333 0.06136
 C2318 C 0.51258 0.51308 0.05482
 C2319 C 0.52277 0.50634 0.06140
 C2320 C 0.52631 0.50992 0.07410
 H2321 H 0.56201 0.53911 0.13244
 H2322 H 0.52248 0.54466 0.14722
 H2323 H 0.53153 0.55353 0.16765
 H2324 H 0.57116 0.54818 0.15267
 H2325 H 0.50429 0.53493 0.07885
 H2326 H 0.49799 0.52875 0.05661
 H2327 H 0.52816 0.49842 0.05668
 H2328 H 0.53431 0.50474 0.07891
 C2329 C 0.20461 0.55940 0.61340
 C2330 C 0.20588 0.54576 0.61510
 C2331 C 0.20210 0.53716 0.60507
 C2332 C 0.19698 0.54219 0.59343
 C2333 C 0.19558 0.55589 0.59166
 C2334 C 0.19951 0.56444 0.60176
 C2335 C 0.21084 0.54061 0.62722
 C2336 C 0.21489 0.53642 0.63746
 C2337 C 0.21952 0.53166 0.64956
 C2338 C 0.22339 0.52773 0.65996
 C2339 C 0.22791 0.52320 0.67249
 C2340 C 0.22164 0.51257 0.67860
 C2341 C 0.22576 0.50843 0.69094
 C2342 C 0.23623 0.51490 0.69737
 C2343 C 0.24254 0.52552 0.69108
 C2344 C 0.23840 0.52963 0.67873
 H2345 H 0.20745 0.56614 0.62112
 H2346 H 0.20305 0.52659 0.60628
 H2347 H 0.19419 0.53537 0.58577
 H2348 H 0.19838 0.57502 0.60078
 H2349 H 0.21348 0.50754 0.67386
 H2350 H 0.22065 0.50026 0.69550
 H2351 H 0.25060 0.53076 0.69573
 H2352 H 0.24330 0.53789 0.67410
 C2353 C 0.20620 0.05691 0.11114
 C2354 C 0.20740 0.04323 0.11254
 C2355 C 0.20361 0.03488 0.10232
 C2356 C 0.19855 0.04020 0.09076
 C2357 C 0.19724 0.05395 0.08930
 C2358 C 0.20116 0.06224 0.09961
 C2359 C 0.21229 0.03781 0.12458
 C2360 C 0.21626 0.03349 0.13479
 C2361 C 0.22078 0.02869 0.14691
 C2362 C 0.22452 0.02481 0.15738
 C2363 C 0.22883 0.02047 0.17004
 C2364 C 0.22223 0.01017 0.17636
 C2365 C 0.22596 0.00643 0.18895
 C2366 C 0.23635 0.01300 0.19542
 C2367 C 0.24306 0.02320 0.18888
 C2368 C 0.23931 0.02691 0.17629
 H2369 H 0.20905 0.06346 0.11902
 H2370 H 0.20450 0.02428 0.10329
 H2371 H 0.19574 0.03358 0.08295
 H2372 H 0.20008 0.07285 0.09886
 H2373 H 0.21408 0.00514 0.17163
 H2374 H 0.22056 -0.00145 0.19368
 H2375 H 0.25109 0.02848 0.19355
 H2376 H 0.24447 0.03493 0.17150
 C2377 C 0.70312 0.21455 0.64582
 C2378 C 0.70714 0.20597 0.63587
 C2379 C 0.70627 0.19232 0.63770
 C2380 C 0.70133 0.18725 0.64939
 C2381 C 0.69718 0.19579 0.65943
 C2382 C 0.69817 0.20950 0.65753
 C2383 C 0.71193 0.21112 0.62368
 C2384 C 0.71584 0.21528 0.61337
 C2385 C 0.72031 0.21996 0.60119
 C2386 C 0.72403 0.22380 0.59069
 C2387 C 0.72837 0.22819 0.57805
 C2388 C 0.73893 0.22184 0.57183
 C2389 C 0.74287 0.22578 0.55936
 C2390 C 0.73627 0.23613 0.55293
 C2391 C 0.72574 0.24254 0.55934
 C2392 C 0.72182 0.23858 0.57181
 H2393 H 0.70377 0.22514 0.64451
 H2394 H 0.70930 0.18558 0.63004
 H2395 H 0.70052 0.17666 0.65049
 H2396 H 0.69519 0.21632 0.66513
 H2397 H 0.74405 0.21377 0.57657
 H2398 H 0.75099 0.22060 0.55473
 H2399 H 0.72041 0.25052 0.55468
 H2400 H 0.71361 0.24353 0.57653
 C2401 C 0.70194 0.71475 0.14527
 C2402 C 0.70591 0.70616 0.13531
 C2403 C 0.70513 0.69251 0.13719
 C2404 C 0.70033 0.68745 0.14894
 C2405 C 0.69624 0.69600 0.15899
 C2406 C 0.69713 0.70971 0.15704
 C2407 C 0.71058 0.71129 0.12307
 C2408 C 0.71442 0.71543 0.11273
 C2409 C 0.71882 0.72009 0.10051
 C2410 C 0.72252 0.72391 0.09000
 C2411 C 0.72686 0.72828 0.07736
 C2412 C 0.73730 0.72181 0.07108
 C2413 C 0.74129 0.72576 0.05863
 C2414 C 0.73486 0.73627 0.05228
 C2415 C 0.72442 0.74278 0.05873
 C2416 C 0.72045 0.73880 0.07118
 H2417 H 0.70253 0.72534 0.14393
 H2418 H 0.70812 0.68577 0.12952
 H2419 H 0.69958 0.67686 0.15007
 H2420 H 0.69420 0.71654 0.16465
 H2421 H 0.74231 0.71363 0.07576
 H2422 H 0.74933 0.72050 0.05396
 H2423 H 0.71922 0.75088 0.05414
 H2424 H 0.71233 0.74386 0.07595
 C2425 C 0.55653 0.70727 0.11054
 C2426 C 0.54285 0.70858 0.11223
 C2427 C 0.53424 0.70476 0.10223
 C2428 C 0.53929 0.69952 0.09062
 C2429 C 0.55303 0.69804 0.08888
 C2430 C 0.56159 0.70204 0.09895
 C2431 C 0.53768 0.71352 0.12437
 C2432 C 0.53353 0.71748 0.13468
 C2433 C 0.52887 0.72191 0.14690
 C2434 C 0.52507 0.72553 0.15746
 C2435 C 0.52077 0.72964 0.17021
 C2436 C 0.51057 0.72286 0.17653
 C2437 C 0.50686 0.72639 0.18919
 C2438 C 0.51333 0.73678 0.19574
 C2439 C 0.52344 0.74367 0.18920
 C2440 C 0.52713 0.74011 0.17653
 H2441 H 0.56327 0.71014 0.11824
 H2442 H 0.52363 0.70573 0.10343
 H2443 H 0.53246 0.69666 0.08299
 H2444 H 0.57220 0.70085 0.09799
 H2445 H 0.50561 0.71471 0.17173
 H2446 H 0.49905 0.72085 0.19392
 H2447 H 0.52865 0.75170 0.19392
 H2448 H 0.53507 0.74541 0.17174
 C2449 C 0.05769 0.70679 0.61096
 C2450 C 0.04400 0.70812 0.61259
 C2451 C 0.03543 0.70420 0.60259
 C2452 C 0.04053 0.69887 0.59105
 C2453 C 0.05427 0.69739 0.58936
 C2454 C 0.06280 0.70147 0.59943
 C2455 C 0.03879 0.71317 0.62467
 C2456 C 0.03459 0.71725 0.63492
 C2457 C 0.02988 0.72182 0.64707
 C2458 C 0.02604 0.72557 0.65757
 C2459 C 0.02168 0.72983 0.67026
 C2460 C 0.01143 0.72313 0.67660
 C2461 C 0.00767 0.72680 0.68921
 C2462 C 0.01414 0.73723 0.69569
 C2463 C 0.02430 0.74404 0.68912
 C2464 C 0.02803 0.74035 0.67651
 H2465 H 0.06441 0.70973 0.61867
 H2466 H 0.02482 0.70518 0.60375
 H2467 H 0.03373 0.69595 0.58341
 H2468 H 0.07341 0.70028 0.59852
 H2469 H 0.00647 0.71495 0.67186
 H2470 H -0.00017 0.72133 0.69396
 H2471 H 0.02951 0.75210 0.69379
 H2472 H 0.03601 0.74557 0.67170
 C2473 C 0.54563 0.60052 0.21473
 C2474 C 0.54150 0.61060 0.20635
 C2475 C 0.54236 0.60882 0.19284
 C2476 C 0.54740 0.59706 0.18772
 C2477 C 0.55168 0.58690 0.19606
 C2478 C 0.55069 0.58874 0.20963
 C2479 C 0.53668 0.62290 0.21154
 C2480 C 0.53277 0.63333 0.21570
 C2481 C 0.52836 0.64569 0.22035
 C2482 C 0.52472 0.65636 0.22412
 C2483 C 0.52055 0.66924 0.22840
 C2484 C 0.51023 0.67572 0.22197
 C2485 C 0.50657 0.68849 0.22569
 C2486 C 0.51323 0.69498 0.23591
 C2487 C 0.52349 0.68829 0.24245
 C2488 C 0.52712 0.67552 0.23870
 H2489 H 0.54500 0.60180 0.22520
 H2490 H 0.53926 0.61659 0.18626
 H2491 H 0.54823 0.59604 0.17725
 H2492 H 0.55377 0.58105 0.21629
 H2493 H 0.50510 0.67097 0.21396
 H2494 H 0.49865 0.69333 0.22043
 H2495 H 0.52884 0.69297 0.25034
 H2496 H 0.53515 0.67060 0.24372
 C2497 C 0.04773 0.60194 0.71409
 C2498 C 0.04330 0.61195 0.70578
 C2499 C 0.04400 0.61020 0.69226
 C2500 C 0.04919 0.59854 0.68705
 C2501 C 0.05377 0.58845 0.69531
 C2502 C 0.05294 0.59026 0.70890
 C2503 C 0.03830 0.62414 0.71106
 C2504 C 0.03425 0.63448 0.71530
 C2505 C 0.02966 0.64674 0.72005
 C2506 C 0.02589 0.65733 0.72392
 C2507 C 0.02156 0.67014 0.72830
 C2508 C 0.01118 0.67656 0.72190
 C2509 C 0.00741 0.68928 0.72569
 C2510 C 0.01402 0.69577 0.73594
 C2511 C 0.02431 0.68912 0.74246
 C2512 C 0.02805 0.67640 0.73864
 H2513 H 0.04723 0.60318 0.72457
 H2514 H 0.04065 0.61791 0.68574
 H2515 H 0.04988 0.59754 0.67656
 H2516 H 0.05626 0.58262 0.71550
 H2517 H 0.00611 0.67181 0.71385
 H2518 H -0.00054 0.69408 0.72044
 H2519 H 0.02963 0.69381 0.75037
 H2520 H 0.03613 0.67153 0.74364
 C2521 C 0.04426 0.14003 0.05822
 C2522 C 0.04347 0.13829 0.04471
 C2523 C 0.04779 0.14831 0.03636
 C2524 C 0.05296 0.16002 0.04151
 C2525 C 0.05384 0.16184 0.05508
 C2526 C 0.04941 0.15172 0.06338
 C2527 C 0.03848 0.12608 0.03947
 C2528 C 0.03442 0.11573 0.03526
 C2529 C 0.02983 0.10347 0.03055
 C2530 C 0.02604 0.09288 0.02670
 C2531 C 0.02172 0.08009 0.02232
 C2532 C 0.02820 0.07383 0.01196
 C2533 C 0.02444 0.06114 0.00811
 C2534 C 0.01413 0.05450 0.01461
 C2535 C 0.00753 0.06097 0.02489
 C2536 C 0.01132 0.07367 0.02872
 H2537 H 0.04101 0.13231 0.06477
 H2538 H 0.04723 0.14706 0.02588
 H2539 H 0.05619 0.16768 0.03489
 H2540 H 0.05017 0.15273 0.07387
 H2541 H 0.03629 0.07870 0.00697
 H2542 H 0.02975 0.05647 0.00018
 H2543 H -0.00043 0.05618 0.03012
 H2544 H 0.00625 0.07841 0.03677
 C2545 C 0.04307 0.64015 0.55871
 C2546 C 0.04202 0.63838 0.54522
 C2547 C 0.04632 0.64833 0.53678
 C2548 C 0.05174 0.65997 0.54181
 C2549 C 0.05293 0.66180 0.55536
 C2550 C 0.04848 0.65177 0.56376
 C2551 C 0.03687 0.62619 0.54009
 C2552 C 0.03271 0.61586 0.53593
 C2553 C 0.02806 0.60361 0.53124
 C2554 C 0.02428 0.59302 0.52738
 C2555 C 0.02001 0.58023 0.52295
 C2556 C 0.02670 0.57395 0.51273
 C2557 C 0.02304 0.56124 0.50885
 C2558 C 0.01262 0.55459 0.51518
 C2559 C 0.00582 0.56109 0.52532
 C2560 C 0.00951 0.57381 0.52917
 H2561 H 0.03984 0.63248 0.56534
 H2562 H 0.04555 0.64706 0.52631
 H2563 H 0.05495 0.66757 0.53510
 H2564 H 0.04944 0.65280 0.57423
 H2565 H 0.03487 0.57882 0.50787
 H2566 H 0.02851 0.55655 0.50103
 H2567 H -0.00222 0.55629 0.53042
 H2568 H 0.00429 0.57857 0.53713
 C2569 C 0.54580 0.14898 0.53586
 C2570 C 0.54149 0.13903 0.54431
 C2571 C 0.54243 0.14084 0.55780
 C2572 C 0.54777 0.15249 0.56285
 C2573 C 0.55227 0.16250 0.55445
 C2574 C 0.55116 0.16064 0.54090
 C2575 C 0.53645 0.12680 0.53917
 C2576 C 0.53242 0.11642 0.53502
 C2577 C 0.52793 0.10411 0.53034
 C2578 C 0.52430 0.09347 0.52649
 C2579 C 0.52022 0.08061 0.52207
 C2580 C 0.50977 0.07409 0.52827
 C2581 C 0.50625 0.06132 0.52443
 C2582 C 0.51317 0.05488 0.51434
 C2583 C 0.52353 0.06163 0.50803
 C2584 C 0.52702 0.07439 0.51189
 H2585 H 0.54511 0.14768 0.52540
 H2586 H 0.53919 0.13317 0.56442
 H2587 H 0.54867 0.15353 0.57332
 H2588 H 0.55440 0.16823 0.53420
 H2589 H 0.50446 0.07880 0.53619
 H2590 H 0.49824 0.05643 0.52952
 H2591 H 0.52908 0.05699 0.50024
 H2592 H 0.53515 0.07934 0.50705
 C2593 C 0.54190 0.64086 0.05806
 C2594 C 0.54088 0.63911 0.04457
 C2595 C 0.54509 0.64911 0.03614
 C2596 C 0.55041 0.66079 0.04119
 C2597 C 0.55160 0.66259 0.05474
 C2598 C 0.54722 0.65252 0.06313
 C2599 C 0.53589 0.62687 0.03941
 C2600 C 0.53188 0.61649 0.03524
 C2601 C 0.52742 0.60417 0.03054
 C2602 C 0.52379 0.59353 0.02668
 C2603 C 0.51970 0.58068 0.02228
 C2604 C 0.52659 0.57438 0.01220
 C2605 C 0.52307 0.56162 0.00835
 C2606 C 0.51260 0.55495 0.01456
 C2607 C 0.50560 0.56147 0.02456
 C2608 C 0.50915 0.57424 0.02838
 H2609 H 0.53875 0.63315 0.06467
 H2610 H 0.54434 0.64785 0.02567
 H2611 H 0.55357 0.66842 0.03450
 H2612 H 0.54818 0.65353 0.07360
 H2613 H 0.53480 0.57927 0.00743
 H2614 H 0.52868 0.55692 0.00064
 H2615 H 0.49750 0.55665 0.02957
 H2616 H 0.50377 0.57901 0.03622
 C2617 C 0.69935 0.10471 0.53817
 C2618 C 0.70614 0.11356 0.54620
 C2619 C 0.70798 0.11057 0.55935
 C2620 C 0.70299 0.09884 0.56453
 C2621 C 0.69595 0.08977 0.55663
 C2622 C 0.69432 0.09296 0.54328
 C2623 C 0.71100 0.12583 0.54102
 C2624 C 0.71497 0.13620 0.53681
 C2625 C 0.71953 0.14844 0.53203
 C2626 C 0.72332 0.15897 0.52806
 C2627 C 0.72773 0.17163 0.52345
 C2628 C 0.73848 0.17790 0.52942
 C2629 C 0.74253 0.19038 0.52521
 C2630 C 0.73586 0.19678 0.51495
 C2631 C 0.72512 0.19033 0.50895
 C2632 C 0.72110 0.17785 0.51318
 H2633 H 0.69796 0.10688 0.52792
 H2634 H 0.71312 0.11743 0.56570
 H2635 H 0.70418 0.09732 0.57489
 H2636 H 0.68954 0.08625 0.53657
 H2637 H 0.74366 0.17319 0.53740
 H2638 H 0.75080 0.19505 0.53009
 H2639 H 0.71974 0.19495 0.50105
 H2640 H 0.71275 0.17310 0.50850
 C2641 C 0.69198 0.61175 0.04635
 C2642 C 0.70565 0.61364 0.04523
 C2643 C 0.71435 0.60364 0.04914
 C2644 C 0.70939 0.59183 0.05422
 C2645 C 0.69566 0.58988 0.05545
 C2646 C 0.68701 0.59996 0.05142
 C2647 C 0.71071 0.62592 0.04026
 C2648 C 0.71480 0.63629 0.03618
 C2649 C 0.71942 0.64855 0.03151
 C2650 C 0.72322 0.65910 0.02760
 C2651 C 0.72759 0.67180 0.02304
 C2652 C 0.73804 0.67828 0.02930
 C2653 C 0.74200 0.69081 0.02515
 C2654 C 0.73555 0.69704 0.01465
 C2655 C 0.72513 0.69036 0.00836
 C2656 C 0.72119 0.67784 0.01254
 H2657 H 0.68516 0.61944 0.04340
 H2658 H 0.72495 0.60499 0.04830
 H2659 H 0.71629 0.58420 0.05711
 H2660 H 0.67640 0.59883 0.05241
 H2661 H 0.74304 0.67371 0.03747
 H2662 H 0.75003 0.69565 0.03025
 H2663 H 0.71991 0.69485 0.00028
 H2664 H 0.71307 0.67292 0.00764
 C2665 C 0.20274 0.64702 0.71227
 C2666 C 0.20664 0.63672 0.70400
 C2667 C 0.20549 0.63817 0.69049
 C2668 C 0.20041 0.64983 0.68524
 C2669 C 0.19640 0.66023 0.69346
 C2670 C 0.19765 0.65870 0.70704
 C2671 C 0.21164 0.62457 0.70933
 C2672 C 0.21573 0.61428 0.71362
 C2673 C 0.22042 0.60212 0.71844
 C2674 C 0.22432 0.59162 0.72241
 C2675 C 0.22883 0.57897 0.72696
 C2676 C 0.23933 0.57260 0.72066
 C2677 C 0.24342 0.56009 0.72475
 C2678 C 0.23702 0.55377 0.73522
 C2679 C 0.22655 0.56033 0.74157
 C2680 C 0.22250 0.57284 0.73746
 H2681 H 0.20361 0.64600 0.72274
 H2682 H 0.20842 0.63023 0.68400
 H2683 H 0.19939 0.65063 0.67476
 H2684 H 0.19478 0.66658 0.71360
 H2685 H 0.24428 0.57724 0.71249
 H2686 H 0.25147 0.55533 0.71960
 H2687 H 0.22138 0.55577 0.74964
 H2688 H 0.21433 0.57768 0.74238
 C2689 C 0.20266 0.14819 0.21325
 C2690 C 0.20684 0.13789 0.20511
 C2691 C 0.20589 0.13923 0.19157
 C2692 C 0.20073 0.15078 0.18617
 C2693 C 0.19643 0.16118 0.19424
 C2694 C 0.19748 0.15977 0.20785
 C2695 C 0.21185 0.12582 0.21060
 C2696 C 0.21594 0.11556 0.21497
 C2697 C 0.22057 0.10339 0.21983
 C2698 C 0.22439 0.09285 0.22376
 C2699 C 0.22875 0.08010 0.22820
 C2700 C 0.23939 0.07381 0.22204
 C2701 C 0.24318 0.06112 0.22585
 C2702 C 0.23635 0.05452 0.23587
 C2703 C 0.22580 0.06104 0.24215
 C2704 C 0.22204 0.07373 0.23832
 H2705 H 0.20335 0.14725 0.22374
 H2706 H 0.20903 0.13129 0.18519
 H2707 H 0.19987 0.15148 0.17567
 H2708 H 0.19438 0.16765 0.21431
 H2709 H 0.24464 0.07864 0.21417
 H2710 H 0.25133 0.05641 0.22079
 H2711 H 0.22030 0.05627 0.24988
 H2712 H 0.21376 0.07850 0.24312
 C2713 C 0.70983 1.14134 0.69247
 C2714 C 0.70796 1.13864 0.70569
 C2715 C 0.70106 1.14761 0.71349
 C2716 C 0.69590 1.15918 0.70809
 C2717 C 0.69753 1.16206 0.69467
 C2718 C 0.70472 1.15289 0.68701
 C2719 C 0.71283 1.12648 0.71112
 C2720 C 0.71679 1.11617 0.71548
 C2721 C 0.72127 1.10394 0.72034
 C2722 C 0.72497 1.09336 0.72428
 C2723 C 0.72923 1.08058 0.72872
 C2724 C 0.72263 1.07436 0.73901
 C2725 C 0.72631 1.06165 0.74287
 C2726 C 0.73667 1.05496 0.73645
 C2727 C 0.74338 1.06141 0.72625
 C2728 C 0.73967 1.07411 0.72242
 H2729 H 0.71506 1.13438 0.68630
 H2730 H 0.69963 1.14566 0.72378
 H2731 H 0.69101 1.16599 0.71464
 H2732 H 0.70593 1.15416 0.67662
 H2733 H 0.71450 1.07927 0.74393
 H2734 H 0.72091 1.05701 0.75074
 H2735 H 0.75138 1.05657 0.72108
 H2736 H 0.74483 1.07882 0.71442
 C2737 C 0.70658 0.63990 0.19163
 C2738 C 0.70768 0.63860 0.20516
 C2739 C 0.70362 0.64894 0.21330
 C2740 C 0.69840 0.66051 0.20793
 C2741 C 0.69717 0.66186 0.19433
 C2742 C 0.70137 0.65144 0.18624
 C2743 C 0.71270 0.62653 0.21065
 C2744 C 0.71677 0.61627 0.21503
 C2745 C 0.72139 0.60410 0.21992
 C2746 C 0.72518 0.59357 0.22388
 C2747 C 0.72953 0.58082 0.22834
 C2748 C 0.72298 0.57459 0.23865
 C2749 C 0.72672 0.56190 0.24250
 C2750 C 0.73708 0.55524 0.23606
 C2751 C 0.74375 0.56171 0.22585
 C2752 C 0.73999 0.57440 0.22202
 H2753 H 0.70963 0.63193 0.18524
 H2754 H 0.70443 0.64804 0.22380
 H2755 H 0.69538 0.66841 0.21440
 H2756 H 0.70038 0.65210 0.17575
 H2757 H 0.71484 0.57946 0.24358
 H2758 H 0.72135 0.55723 0.25038
 H2759 H 0.75175 0.55690 0.22066
 H2760 H 0.74510 0.57912 0.21400
 C2761 C 0.53984 0.10739 0.69268
 C2762 C 0.54160 0.11045 0.70585
 C2763 C 0.54836 0.10165 0.71392
 C2764 C 0.55347 0.08989 0.70885
 C2765 C 0.55193 0.08663 0.69550
 C2766 C 0.54490 0.09565 0.68755
 C2767 C 0.53678 0.12279 0.71094
 C2768 C 0.53288 0.13325 0.71504
 C2769 C 0.52848 0.14564 0.71963
 C2770 C 0.52487 0.15633 0.72338
 C2771 C 0.52073 0.16922 0.72765
 C2772 C 0.52728 0.17545 0.73798
 C2773 C 0.52368 0.18822 0.74175
 C2774 C 0.51347 0.19497 0.73521
 C2775 C 0.50682 0.18853 0.72494
 C2776 C 0.51045 0.17575 0.72120
 H2777 H 0.53474 0.11422 0.68630
 H2778 H 0.54970 0.10388 0.72417
 H2779 H 0.55825 0.08322 0.71559
 H2780 H 0.54382 0.09412 0.67717
 H2781 H 0.53528 0.17050 0.74303
 H2782 H 0.52902 0.19286 0.74968
 H2783 H 0.49893 0.19340 0.71967
 H2784 H 0.50533 0.17103 0.71316
 C2785 C 1.03282 0.10080 0.20121
 C2786 C 1.04120 0.11100 0.20527
 C2787 C 1.05493 0.10939 0.20447
 C2788 C 1.06028 0.09767 0.19960
 C2789 C 1.05196 0.08735 0.19545
 C2790 C 1.03816 0.08904 0.19632
 C2791 C 1.03581 0.12322 0.21010
 C2792 C 1.03157 0.13359 0.21409
 C2793 C 1.02693 0.14589 0.21867
 C2794 C 1.02322 0.15652 0.22249
 C2795 C 1.01911 0.16937 0.22693
 C2796 C 1.02589 0.17555 0.23714
 C2797 C 1.02238 0.18831 0.24104
 C2798 C 1.01202 0.19509 0.23475
 C2799 C 1.00514 0.18868 0.22461
 C2800 C 1.00867 0.17592 0.22074
 H2801 H 1.02218 0.10194 0.20179
 H2802 H 1.06151 0.11725 0.20753
 H2803 H 1.07093 0.09675 0.19887
 H2804 H 1.03151 0.08123 0.19331
 H2805 H 1.03401 0.17058 0.24198
 H2806 H 1.02790 0.19291 0.24886
 H2807 H 0.99714 0.19359 0.21954
 H2808 H 1.00339 0.17124 0.21279
 C2809 C 0.21388 0.60375 0.55025
 C2810 C 0.20531 0.61369 0.54594
 C2811 C 0.19161 0.61189 0.54683
 C2812 C 0.18648 0.60024 0.55206
 C2813 C 0.19500 0.59021 0.55649
 C2814 C 0.20876 0.59209 0.55550
 C2815 C 0.21053 0.62583 0.54082
 C2816 C 0.21475 0.63610 0.53662
 C2817 C 0.21954 0.64824 0.53182
 C2818 C 0.22349 0.65871 0.52783
 C2819 C 0.22803 0.67131 0.52319
 C2820 C 0.22165 0.67743 0.51271
 C2821 C 0.22574 0.68989 0.50850
 C2822 C 0.23630 0.69642 0.51473
 C2823 C 0.24273 0.69011 0.52518
 C2824 C 0.23862 0.67765 0.52937
 H2825 H 0.22450 0.60504 0.54960
 H2826 H 0.18489 0.61954 0.54358
 H2827 H 0.17585 0.59918 0.55286
 H2828 H 0.21556 0.58449 0.55869
 H2829 H 0.21343 0.67262 0.50788
 H2830 H 0.22054 0.69445 0.50045
 H2831 H 0.25085 0.69485 0.53024
 H2832 H 0.24360 0.67302 0.53752
 C2833 C 0.19363 0.11118 1.04609
 C2834 C 0.20734 0.11295 1.04526
 C2835 C 0.21587 0.10286 1.04930
 C2836 C 0.21070 0.09107 1.05423
 C2837 C 0.19693 0.08923 1.05516
 C2838 C 0.18846 0.09941 1.05100
 C2839 C 0.21259 0.12520 1.04042
 C2840 C 0.21678 0.13557 1.03643
 C2841 C 0.22145 0.14783 1.03185
 C2842 C 0.22527 0.15840 1.02800
 C2843 C 0.22960 0.17113 1.02349
 C2844 C 0.23997 0.17765 1.02983
 C2845 C 0.24388 0.19022 1.02573
 C2846 C 0.23744 0.19643 1.01522
 C2847 C 0.22710 0.18971 1.00885
 C2848 C 0.22322 0.17715 1.01297
 H2849 H 0.18695 0.11894 1.04303
 H2850 H 0.22649 0.10412 1.04868
 H2851 H 0.21747 0.08336 1.05722
 H2852 H 0.17782 0.09837 1.05177
 H2853 H 0.24496 0.17309 1.03801
 H2854 H 0.25184 0.19510 1.03089
 H2855 H 0.22190 0.19419 1.00075
 H2856 H 0.21515 0.17220 1.00802
 C2857 C 0.20247 0.71361 0.64514
 C2858 C 0.20627 0.70506 0.63508
 C2859 C 0.20514 0.69141 0.63676
 C2860 C 0.20017 0.68632 0.64843
 C2861 C 0.19625 0.69482 0.65858
 C2862 C 0.19749 0.70854 0.65682
 C2863 C 0.21114 0.71024 0.62293
 C2864 C 0.21512 0.71441 0.61266
 C2865 C 0.21968 0.71910 0.60052
 C2866 C 0.22349 0.72295 0.59006
 C2867 C 0.22793 0.72737 0.57747
 C2868 C 0.23830 0.72081 0.57115
 C2869 C 0.24234 0.72481 0.55874
 C2870 C 0.23605 0.73545 0.55246
 C2871 C 0.22569 0.74205 0.55896
 C2872 C 0.22167 0.73803 0.57138
 H2873 H 0.20332 0.72420 0.64394
 H2874 H 0.20800 0.68470 0.62902
 H2875 H 0.19916 0.67573 0.64941
 H2876 H 0.19469 0.71532 0.66451
 H2877 H 0.24318 0.71253 0.57577
 H2878 H 0.25031 0.71947 0.55402
 H2879 H 0.22060 0.75025 0.55442
 H2880 H 0.21361 0.74315 0.57617
 C2881 C 0.20221 0.21415 1.14543
 C2882 C 0.20630 0.20555 1.13552
 C2883 C 0.20541 0.19191 1.13736
 C2884 C 0.20038 0.18686 1.14902
 C2885 C 0.19616 0.19540 1.15902
 C2886 C 0.19716 0.20912 1.15711
 C2887 C 0.21122 0.21068 1.12338
 C2888 C 0.21525 0.21481 1.11310
 C2889 C 0.21986 0.21945 1.10096
 C2890 C 0.22371 0.22327 1.09050
 C2891 C 0.22818 0.22766 1.07791
 C2892 C 0.23864 0.22116 1.07168
 C2893 C 0.24273 0.22513 1.05927
 C2894 C 0.23637 0.23568 1.05290
 C2895 C 0.22592 0.24222 1.05932
 C2896 C 0.22186 0.23822 1.07173
 H2897 H 0.20287 0.22474 1.14412
 H2898 H 0.20849 0.18516 1.12973
 H2899 H 0.19955 0.17626 1.15011
 H2900 H 0.19413 0.21594 1.16468
 H2901 H 0.24358 0.21294 1.07637
 H2902 H 0.25077 0.21985 1.05463
 H2903 H 0.22078 0.25035 1.05471
 H2904 H 0.21373 0.24330 1.07645
 C2905 C 0.70645 0.55800 0.11156
 C2906 C 0.70774 0.54433 0.11303
 C2907 C 0.70381 0.53590 0.10293
 C2908 C 0.69851 0.54111 0.09144
 C2909 C 0.69708 0.55484 0.08991
 C2910 C 0.70117 0.56323 0.10009
 C2911 C 0.71278 0.53900 0.12504
 C2912 C 0.71686 0.53471 0.13523
 C2913 C 0.72146 0.52990 0.14732
 C2914 C 0.72523 0.52598 0.15777
 C2915 C 0.72955 0.52157 0.17041
 C2916 C 0.72305 0.51111 0.17658
 C2917 C 0.72675 0.50730 0.18916
 C2918 C 0.73701 0.51393 0.19576
 C2919 C 0.74363 0.52429 0.18935
 C2920 C 0.73991 0.52807 0.17677
 H2921 H 0.70940 0.56461 0.11935
 H2922 H 0.70476 0.52530 0.10396
 H2923 H 0.69559 0.53442 0.08372
 H2924 H 0.70002 0.57382 0.09929
 H2925 H 0.71498 0.50603 0.17176
 H2926 H 0.72142 0.49931 0.19378
 H2927 H 0.75156 0.52962 0.19411
 H2928 H 0.74498 0.53621 0.17210
 C2929 C 0.70561 1.05785 0.61250
 C2930 C 0.70701 1.04418 0.61376
 C2931 C 0.70326 1.03588 0.60348
 C2932 C 0.69803 1.04123 0.59202
 C2933 C 0.69649 1.05497 0.59071
 C2934 C 0.70040 1.06322 0.60106
 C2935 C 0.71204 1.03871 0.62572
 C2936 C 0.71612 1.03433 0.63587
 C2937 C 0.72075 1.02946 0.64792
 C2938 C 0.72456 1.02551 0.65835
 C2939 C 0.72893 1.02109 0.67096
 C2940 C 0.72243 1.01066 0.67719
 C2941 C 0.72618 1.00687 0.68976
 C2942 C 0.73649 1.01348 0.69630
 C2943 C 0.74311 1.02381 0.68983
 C2944 C 0.73934 1.02757 0.67727
 H2945 H 0.70842 1.06437 0.62041
 H2946 H 0.70432 1.02528 0.60435
 H2947 H 0.69528 1.03464 0.58416
 H2948 H 0.69918 1.07382 0.60040
 H2949 H 0.71433 1.00560 0.67241
 H2950 H 0.72085 0.99890 0.69442
 H2951 H 0.75108 1.02913 0.69455
 H2952 H 0.74442 1.03569 0.67255
 C2953 C 0.53475 0.20487 0.60168
 C2954 C 0.54330 0.20868 0.61173
 C2955 C 0.55699 0.20732 0.61013
 C2956 C 0.56211 0.20205 0.59858
 C2957 C 0.55360 0.19806 0.58846
 C2958 C 0.53985 0.19959 0.59011
 C2959 C 0.53808 0.21363 0.62384
 C2960 C 0.53387 0.21760 0.63413
 C2961 C 0.52916 0.22204 0.64632
 C2962 C 0.52534 0.22566 0.65687
 C2963 C 0.52102 0.22977 0.66962
 C2964 C 0.52736 0.24024 0.67594
 C2965 C 0.52367 0.24379 0.68861
 C2966 C 0.51357 0.23687 0.69515
 C2967 C 0.50710 0.22649 0.68860
 C2968 C 0.51082 0.22297 0.67593
 H2969 H 0.52413 0.20588 0.60282
 H2970 H 0.56369 0.21017 0.61788
 H2971 H 0.57272 0.20082 0.59769
 H2972 H 0.53307 0.19675 0.58244
 H2973 H 0.53529 0.24555 0.67116
 H2974 H 0.52887 0.25182 0.69334
 H2975 H 0.49931 0.22094 0.69332
 H2976 H 0.50587 0.21482 0.67113
 C2977 C 1.03492 0.20137 0.10301
 C2978 C 1.04297 0.20824 0.11176
 C2979 C 1.05640 0.20988 0.10898
 C2980 C 1.06182 0.20457 0.09759
 C2981 C 1.05391 0.19739 0.08867
 C2982 C 1.04029 0.19601 0.09160
 C2983 C 1.03759 0.21325 0.12378
 C2984 C 1.03327 0.21728 0.13399
 C2985 C 1.02846 0.22182 0.14612
 C2986 C 1.02456 0.22553 0.15661
 C2987 C 1.02017 0.22977 0.16929
 C2988 C 1.02666 0.24012 0.17567
 C2989 C 1.02293 0.24375 0.18830
 C2990 C 1.01263 0.23705 0.19475
 C2991 C 1.00600 0.22680 0.18815
 C2992 C 1.00977 0.22319 0.17552
 H2993 H 1.02447 0.20012 0.10502
 H2994 H 1.06276 0.21508 0.11577
 H2995 H 1.07238 0.20560 0.09627
 H2996 H 1.03354 0.19116 0.08497
 H2997 H 1.03476 0.24525 0.17095
 H2998 H 1.02826 0.25167 0.19307
 H2999 H 0.99805 0.22141 0.19280
 H3000 H 1.00470 0.21513 0.17068
 C3001 C 0.64040 0.20566 0.69149
 C3002 C 0.63902 0.20696 0.70500
 C3003 C 0.64940 0.20320 0.71323
 C3004 C 0.66110 0.19808 0.70796
 C3005 C 0.66255 0.19665 0.69438
 C3006 C 0.65208 0.20055 0.68620
 C3007 C 0.62681 0.21187 0.71039
 C3008 C 0.61645 0.21585 0.71471
 C3009 C 0.60418 0.22036 0.71956
 C3010 C 0.59357 0.22408 0.72350
 C3011 C 0.58076 0.22836 0.72795
 C3012 C 0.57441 0.22168 0.73810
 C3013 C 0.56167 0.22540 0.74197
 C3014 C 0.55508 0.23587 0.73570
 C3015 C 0.56166 0.24266 0.72563
 C3016 C 0.57440 0.23891 0.72179
 H3017 H 0.63240 0.20848 0.68503
 H3018 H 0.64843 0.20417 0.72371
 H3019 H 0.66904 0.19529 0.71449
 H3020 H 0.65281 0.19939 0.67573
 H3021 H 0.57923 0.21347 0.74292
 H3022 H 0.55692 0.21994 0.74974
 H3023 H 0.55691 0.25075 0.72057
 H3024 H 0.57921 0.24413 0.71389
 C3025 C 1.13927 0.20538 0.19095
 C3026 C 1.13779 0.20652 0.20447
 C3027 C 1.14809 0.20258 0.21272
 C3028 C 1.15979 0.19744 0.20747
 C3029 C 1.16133 0.19618 0.19388
 C3030 C 1.15094 0.20025 0.18568
 C3031 C 1.12559 0.21147 0.20983
 C3032 C 1.11524 0.21548 0.21414
 C3033 C 1.10298 0.22004 0.21897
 C3034 C 1.09238 0.22379 0.22291
 C3035 C 1.07958 0.22809 0.22738
 C3036 C 1.07317 0.22133 0.23744
 C3037 C 1.06046 0.22509 0.24134
 C3038 C 1.05395 0.23568 0.23520
 C3039 C 1.06058 0.24255 0.22521
 C3040 C 1.07329 0.23876 0.22134
 H3041 H 1.13133 0.20833 0.18448
 H3042 H 1.14706 0.20343 0.22320
 H3043 H 1.16766 0.19452 0.21402
 H3044 H 1.15174 0.19921 0.17520
 H3045 H 1.07794 0.21303 0.24216
 H3046 H 1.05566 0.21957 0.24904
 H3047 H 1.05589 0.25073 0.22026
 H3048 H 1.07815 0.24405 0.21351
 C3049 C 0.10292 0.71427 0.54814
 C3050 C 0.11292 0.70555 0.54421
 C3051 C 0.11098 0.69193 0.54534
 C3052 C 0.09915 0.68703 0.55045
 C3053 C 0.08907 0.69570 0.55453
 C3054 C 0.09108 0.70938 0.55327
 C3055 C 0.12527 0.71056 0.53927
 C3056 C 0.13570 0.71462 0.53524
 C3057 C 0.14803 0.71924 0.53065
 C3058 C 0.15864 0.72305 0.52683
 C3059 C 0.17141 0.72744 0.52238
 C3060 C 0.17763 0.72101 0.51197
 C3061 C 0.19022 0.72498 0.50790
 C3062 C 0.19677 0.73546 0.51421
 C3063 C 0.19036 0.74194 0.52460
 C3064 C 0.17777 0.73795 0.52864
 H3065 H 0.10431 0.72483 0.54730
 H3066 H 0.11867 0.68510 0.54238
 H3067 H 0.09799 0.67646 0.55147
 H3068 H 0.08345 0.71629 0.55619
 H3069 H 0.17281 0.71285 0.50707
 H3070 H 0.19486 0.71975 0.49990
 H3071 H 0.19510 0.75002 0.52971
 H3072 H 0.17305 0.74297 0.53674
 C3073 C 0.10341 0.20149 1.03651
 C3074 C 0.11351 0.20568 1.04489
 C3075 C 0.11166 0.20511 1.05839
 C3076 C 0.09979 0.20032 1.06352
 C3077 C 0.08959 0.19603 1.05520
 C3078 C 0.09152 0.19669 1.04163
 C3079 C 0.12586 0.21041 1.03968
 C3080 C 0.13629 0.21431 1.03550
 C3081 C 0.14862 0.21880 1.03079
 C3082 C 0.15923 0.22257 1.02693
 C3083 C 0.17200 0.22699 1.02250
 C3084 C 0.17821 0.23764 1.02868
 C3085 C 0.19079 0.24169 1.02468
 C3086 C 0.19736 0.23513 1.01443
 C3087 C 0.19096 0.22450 1.00822
 C3088 C 0.17837 0.22047 1.01224
 H3089 H 0.10474 0.20191 1.02604
 H3090 H 0.11943 0.20828 1.06497
 H3091 H 0.09867 0.19976 1.07401
 H3092 H 0.08380 0.19359 1.03497
 H3093 H 0.17337 0.24273 1.03666
 H3094 H 0.19541 0.24989 1.02971
 H3095 H 0.19572 0.21920 1.00032
 H3096 H 0.17367 0.21219 1.00741
 C3097 C 0.60914 0.54305 0.19341
 C3098 C 0.61083 0.54241 0.20693
 C3099 C 0.60063 0.54659 0.21521
 C3100 C 0.58882 0.55146 0.20998
 C3101 C 0.58706 0.55221 0.19639
 C3102 C 0.59735 0.54791 0.18816
 C3103 C 0.62314 0.53771 0.21223
 C3104 C 0.63359 0.53388 0.21644
 C3105 C 0.64598 0.52952 0.22109
 C3106 C 0.65669 0.52590 0.22485
 C3107 C 0.66961 0.52173 0.22906
 C3108 C 0.67601 0.52837 0.23922
 C3109 C 0.68882 0.52472 0.24290
 C3110 C 0.69543 0.51437 0.23641
 C3111 C 0.68881 0.50763 0.22632
 C3112 C 0.67600 0.51131 0.22268
 H3113 H 0.61700 0.53990 0.18691
 H3114 H 0.60183 0.54613 0.22569
 H3115 H 0.58103 0.55457 0.21656
 H3116 H 0.59639 0.54854 0.17767
 H3117 H 0.67116 0.53648 0.24421
 H3118 H 0.69361 0.53013 0.25069
 H3119 H 0.69357 0.49963 0.22111
 H3120 H 0.67114 0.50612 0.21477
 C3121 C 0.60922 1.04326 0.69329
 C3122 C 0.61075 1.04248 0.70682
 C3123 C 0.60044 1.04656 0.71502
 C3124 C 0.58869 1.05147 0.70971
 C3125 C 0.58709 1.05235 0.69610
 C3126 C 0.59749 1.04815 0.68796
 C3127 C 0.62300 1.03773 0.71222
 C3128 C 0.63339 1.03386 0.71652
 C3129 C 0.64572 1.02944 0.72128
 C3130 C 0.65638 1.02577 0.72511
 C3131 C 0.66925 1.02154 0.72942
 C3132 C 0.67565 1.02821 0.73958
 C3133 C 0.68843 1.02452 0.74332
 C3134 C 0.69501 1.01411 0.73692
 C3135 C 0.68840 1.00734 0.72684
 C3136 C 0.67562 1.01105 0.72313
 H3137 H 0.61716 1.04018 0.68685
 H3138 H 0.60152 1.04600 0.72552
 H3139 H 0.58081 1.05451 0.71622
 H3140 H 0.59664 1.04889 0.67746
 H3141 H 0.67082 1.03637 0.74449
 H3142 H 0.69321 1.02996 0.75110
 H3143 H 0.69315 0.99929 0.72169
 H3144 H 0.67077 1.00585 0.71522
 C3145 C 0.88717 0.45312 0.31133
 C3146 C 0.88580 0.45432 0.29781
 C3147 C 0.89614 0.45036 0.28960
 C3148 C 0.90777 0.44515 0.29489
 C3149 C 0.90922 0.44385 0.30847
 C3150 C 0.89879 0.44792 0.31664
 C3151 C 0.87370 0.45943 0.29240
 C3152 C 0.86348 0.46362 0.28799
 C3153 C 0.85139 0.46841 0.28297
 C3154 C 0.84098 0.47242 0.27882
 C3155 C 0.82844 0.47708 0.27402
 C3156 C 0.82225 0.47062 0.26361
 C3157 C 0.80985 0.47485 0.25924
 C3158 C 0.80346 0.48562 0.26524
 C3159 C 0.80985 0.49212 0.27563
 C3160 C 0.82224 0.48787 0.27997
 H3161 H 0.87920 0.45610 0.31778
 H3162 H 0.89519 0.45125 0.27912
 H3163 H 0.91568 0.44221 0.28837
 H3164 H 0.89951 0.44686 0.32712
 H3165 H 0.82695 0.46223 0.25896
 H3166 H 0.80523 0.46958 0.25126
 H3167 H 0.80522 0.50041 0.28050
 H3168 H 0.82694 0.49292 0.28806
 C3169 C 0.88758 0.95389 0.81117
 C3170 C 0.88601 0.95502 0.79767
 C3171 C 0.89624 0.95106 0.78933
 C3172 C 0.90798 0.94593 0.79447
 C3173 C 0.90963 0.94470 0.80804
 C3174 C 0.89930 0.94877 0.81633
 C3175 C 0.87380 0.96002 0.79239
 C3176 C 0.86348 0.96410 0.78809
 C3177 C 0.85131 0.96878 0.78319
 C3178 C 0.84082 0.97267 0.77912
 C3179 C 0.82820 0.97721 0.77440
 C3180 C 0.82199 0.97067 0.76406
 C3181 C 0.80953 0.97480 0.75975
 C3182 C 0.80311 0.98556 0.76575
 C3183 C 0.80952 0.99214 0.77607
 C3184 C 0.82197 0.98798 0.78036
 H3185 H 0.87970 0.95686 0.81771
 H3186 H 0.89513 0.95190 0.77886
 H3187 H 0.91580 0.94299 0.78785
 H3188 H 0.90019 0.94775 0.82680
 H3189 H 0.82671 0.96230 0.75940
 H3190 H 0.80489 0.96948 0.75181
 H3191 H 0.80487 1.00042 0.78094
 H3192 H 0.82668 0.99310 0.78839
 C3193 C 0.36145 0.29482 0.80931
 C3194 C 0.36330 0.29386 0.79582
 C3195 C 0.35321 0.29788 0.78735
 C3196 C 0.34136 0.30291 0.79235
 C3197 C 0.33944 0.30398 0.80591
 C3198 C 0.34961 0.29984 0.81433
 C3199 C 0.37563 0.28898 0.79070
 C3200 C 0.38605 0.28499 0.78653
 C3201 C 0.39835 0.28043 0.78178
 C3202 C 0.40893 0.27664 0.77783
 C3203 C 0.42165 0.27224 0.77324
 C3204 C 0.42790 0.27884 0.76297
 C3205 C 0.44042 0.27482 0.75874
 C3206 C 0.44689 0.26412 0.76475
 C3207 C 0.44047 0.25749 0.77501
 C3208 C 0.42794 0.26154 0.77922
 H3209 H 0.36922 0.29180 0.81595
 H3210 H 0.35453 0.29717 0.77689
 H3211 H 0.33365 0.30589 0.78563
 H3212 H 0.34852 0.30072 0.82480
 H3213 H 0.42313 0.28716 0.75829
 H3214 H 0.44507 0.28017 0.75084
 H3215 H 0.44515 0.24925 0.77989
 H3216 H 0.42320 0.25638 0.78720
 C3217 C 0.85270 0.29866 0.28759
 C3218 C 0.86271 0.29434 0.29599
 C3219 C 0.86090 0.29515 0.30950
 C3220 C 0.84916 0.30032 0.31460
 C3221 C 0.83906 0.30477 0.30624
 C3222 C 0.84095 0.30384 0.29267
 C3223 C 0.87496 0.28931 0.29080
 C3224 C 0.88531 0.28521 0.28657
 C3225 C 0.89753 0.28054 0.28176
 C3226 C 0.90806 0.27666 0.27777
 C3227 C 0.92074 0.27216 0.27314
 C3228 C 0.92711 0.26161 0.27929
 C3229 C 0.93962 0.25752 0.27509
 C3230 C 0.94595 0.26395 0.26464
 C3231 C 0.93939 0.27448 0.25844
 C3232 C 0.92688 0.27855 0.26267
 H3233 H 0.85400 0.29807 0.27712
 H3234 H 0.86861 0.29189 0.31609
 H3235 H 0.84809 0.30108 0.32507
 H3236 H 0.83330 0.30706 0.28600
 H3237 H 0.92245 0.25663 0.28743
 H3238 H 0.94437 0.24942 0.28012
 H3239 H 0.94396 0.27968 0.25040
 H3240 H 0.92205 0.28675 0.25786
 C3241 C 0.39845 0.78536 0.45000
 C3242 C 0.38821 0.79354 0.45443
 C3243 C 0.38957 0.80726 0.45367
 C3244 C 0.40107 0.81280 0.44847
 C3245 C 0.41140 0.80467 0.44394
 C3246 C 0.40997 0.79088 0.44479
 C3247 C 0.37621 0.78794 0.45955
 C3248 C 0.36600 0.78350 0.46375
 C3249 C 0.35388 0.77859 0.46856
 C3250 C 0.34338 0.77466 0.47256
 C3251 C 0.33067 0.77027 0.47717
 C3252 C 0.32449 0.77686 0.48751
 C3253 C 0.31181 0.77313 0.49152
 C3254 C 0.30511 0.76275 0.48521
 C3255 C 0.31152 0.75603 0.47496
 C3256 C 0.32421 0.75979 0.47098
 H3257 H 0.39750 0.77473 0.45055
 H3258 H 0.38168 0.81368 0.45700
 H3259 H 0.40178 0.82343 0.44777
 H3260 H 0.41781 0.78438 0.44151
 H3261 H 0.32939 0.78502 0.49235
 H3262 H 0.30719 0.77854 0.49942
 H3263 H 0.30667 0.74802 0.46987
 H3264 H 0.32889 0.75465 0.46293
 C3265 C 0.39015 0.29425 0.94101
 C3266 C 0.38878 0.29333 0.95455
 C3267 C 0.39902 0.29768 0.96267
 C3268 C 0.41055 0.30301 0.95728
 C3269 C 0.41197 0.30406 0.94367
 C3270 C 0.40165 0.29957 0.93559
 C3271 C 0.37673 0.28821 0.96005
 C3272 C 0.36650 0.28406 0.96448
 C3273 C 0.35436 0.27937 0.96944
 C3274 C 0.34385 0.27552 0.97348
 C3275 C 0.33112 0.27112 0.97805
 C3276 C 0.32476 0.27784 0.98819
 C3277 C 0.31208 0.27405 0.99214
 C3278 C 0.30556 0.26347 0.98596
 C3279 C 0.31216 0.25663 0.97591
 C3280 C 0.32485 0.26044 0.97199
 H3281 H 0.38225 0.29098 0.93463
 H3282 H 0.39807 0.29701 0.97317
 H3283 H 0.41838 0.30626 0.96374
 H3284 H 0.40236 0.30043 0.92509
 H3285 H 0.32952 0.28615 0.99292
 H3286 H 0.30731 0.27955 0.99989
 H3287 H 0.30746 0.24845 0.97092
 H3288 H 0.32967 0.25520 0.96409
 C3289 C 0.80829 0.45416 0.38674
 C3290 C 0.79459 0.45529 0.38514
 C3291 C 0.78608 0.45141 0.39520
 C3292 C 0.79127 0.44635 0.40681
 C3293 C 0.80504 0.44512 0.40849
 C3294 C 0.81349 0.44911 0.39833
 C3295 C 0.78930 0.46027 0.37308
 C3296 C 0.78506 0.46437 0.36287
 C3297 C 0.78030 0.46907 0.35081
 C3298 C 0.77641 0.47300 0.34041
 C3299 C 0.77197 0.47758 0.32787
 C3300 C 0.76150 0.47122 0.32152
 C3301 C 0.75752 0.47535 0.30913
 C3302 C 0.76398 0.48592 0.30290
 C3303 C 0.77441 0.49233 0.30944
 C3304 C 0.77837 0.48818 0.32184
 H3305 H 0.81496 0.45709 0.37900
 H3306 H 0.77546 0.45226 0.39406
 H3307 H 0.78452 0.44350 0.41450
 H3308 H 0.82412 0.44812 0.39926
 H3309 H 0.75650 0.46298 0.32610
 H3310 H 0.74949 0.47016 0.30438
 H3311 H 0.77964 0.50047 0.30495
 H3312 H 0.78651 0.49315 0.32665
 C3313 C 0.78631 0.95149 0.89571
 C3314 C 0.79475 0.95520 0.88554
 C3315 C 0.80845 0.95386 0.88700
 C3316 C 0.81371 0.94880 0.89855
 C3317 C 0.80531 0.94500 0.90883
 C3318 C 0.79154 0.94642 0.90729
 C3319 C 0.78940 0.96020 0.87351
 C3320 C 0.78510 0.96431 0.86334
 C3321 C 0.78027 0.96903 0.85131
 C3322 C 0.77631 0.97297 0.84093
 C3323 C 0.77179 0.97756 0.82843
 C3324 C 0.77815 0.98816 0.82236
 C3325 C 0.77413 0.99230 0.80998
 C3326 C 0.76369 0.98587 0.80348
 C3327 C 0.75726 0.97531 0.80975
 C3328 C 0.76130 0.97119 0.82213
 H3329 H 0.77568 0.95250 0.89469
 H3330 H 0.81508 0.95665 0.87916
 H3331 H 0.82433 0.94764 0.89936
 H3332 H 0.78484 0.94370 0.91507
 H3333 H 0.78631 0.99314 0.82713
 H3334 H 0.77933 1.00044 0.80545
 H3335 H 0.74921 0.97010 0.80504
 H3336 H 0.75634 0.96294 0.82673
 C3337 C 0.29684 0.78571 0.35271
 C3338 C 0.29254 0.79404 0.36275
 C3339 C 0.29353 0.80773 0.36132
 C3340 C 0.29889 0.81309 0.34994
 C3341 C 0.30337 0.80481 0.33983
 C3342 C 0.30223 0.79105 0.34131
 C3343 C 0.28742 0.78859 0.37468
 C3344 C 0.28329 0.78423 0.38482
 C3345 C 0.27865 0.77935 0.39686
 C3346 C 0.27486 0.77539 0.40728
 C3347 C 0.27055 0.77093 0.41990
 C3348 C 0.26016 0.77738 0.42628
 C3349 C 0.25647 0.77358 0.43886
 C3350 C 0.26316 0.76325 0.44526
 C3351 C 0.27345 0.75667 0.43864
 C3352 C 0.27711 0.76050 0.42606
 H3353 H 0.29612 0.77509 0.35372
 H3354 H 0.29028 0.81427 0.36905
 H3355 H 0.29981 0.82371 0.34917
 H3356 H 0.30544 0.78443 0.33364
 H3357 H 0.25504 0.78550 0.42162
 H3358 H 0.24852 0.77888 0.44365
 H3359 H 0.27883 0.74870 0.44325
 H3360 H 0.28520 0.75546 0.42121
 C3361 C 0.29741 0.28500 0.85296
 C3362 C 0.29299 0.29342 0.86288
 C3363 C 0.29377 0.30711 0.86123
 C3364 C 0.29902 0.31237 0.84976
 C3365 C 0.30359 0.30400 0.83976
 C3366 C 0.30268 0.29025 0.84147
 C3367 C 0.28796 0.28809 0.87489
 C3368 C 0.28389 0.28382 0.88510
 C3369 C 0.27930 0.27906 0.89720
 C3370 C 0.27554 0.27520 0.90767
 C3371 C 0.27126 0.27083 0.92034
 C3372 C 0.26080 0.27726 0.92665
 C3373 C 0.25710 0.27353 0.93925
 C3374 C 0.26386 0.26330 0.94574
 C3375 C 0.27422 0.25675 0.93920
 C3376 C 0.27789 0.26051 0.92659
 H3377 H 0.29685 0.27440 0.85413
 H3378 H 0.29044 0.31371 0.86887
 H3379 H 0.29976 0.32298 0.84883
 H3380 H 0.30598 0.28356 0.83389
 H3381 H 0.25562 0.28529 0.92190
 H3382 H 0.24910 0.27880 0.94397
 H3383 H 0.27965 0.24885 0.94388
 H3384 H 0.28603 0.25549 0.92181
 C3385 C 0.45302 0.28617 0.89531
 C3386 C 0.45682 0.29465 0.88523
 C3387 C 0.45561 0.30831 0.88685
 C3388 C 0.45054 0.31348 0.89845
 C3389 C 0.44660 0.30505 0.90862
 C3390 C 0.44794 0.29132 0.90694
 C3391 C 0.46174 0.28938 0.87312
 C3392 C 0.46574 0.28512 0.86287
 C3393 C 0.47031 0.28032 0.85075
 C3394 C 0.47410 0.27638 0.84030
 C3395 C 0.47849 0.27188 0.82771
 C3396 C 0.48902 0.27821 0.82145
 C3397 C 0.49298 0.27419 0.80901
 C3398 C 0.48643 0.26375 0.80262
 C3399 C 0.47594 0.25735 0.80907
 C3400 C 0.47201 0.26140 0.82152
 H3401 H 0.45393 0.27557 0.89417
 H3402 H 0.45847 0.31496 0.87908
 H3403 H 0.44946 0.32408 0.89938
 H3404 H 0.44513 0.28459 0.91464
 H3405 H 0.49409 0.28636 0.82614
 H3406 H 0.50107 0.27936 0.80434
 H3407 H 0.47065 0.24931 0.80445
 H3408 H 0.46381 0.25645 0.82626
 C3409 C 0.95463 0.30916 0.38639
 C3410 C 0.95580 0.29550 0.38471
 C3411 C 0.95202 0.28698 0.39477
 C3412 C 0.94699 0.29210 0.40644
 C3413 C 0.94568 0.30582 0.40818
 C3414 C 0.94962 0.31429 0.39804
 C3415 C 0.96064 0.29026 0.37255
 C3416 C 0.96458 0.28599 0.36229
 C3417 C 0.96908 0.28115 0.35016
 C3418 C 0.97284 0.27715 0.33972
 C3419 C 0.97722 0.27255 0.32715
 C3420 C 0.97051 0.26227 0.32088
 C3421 C 0.97449 0.25810 0.30848
 C3422 C 0.98525 0.26419 0.30216
 C3423 C 0.99200 0.27445 0.30862
 C3424 C 0.98800 0.27859 0.32102
 H3425 H 0.95748 0.31584 0.37865
 H3426 H 0.95289 0.27639 0.39357
 H3427 H 0.94419 0.28534 0.41412
 H3428 H 0.94857 0.32488 0.39903
 H3429 H 0.96213 0.25755 0.32552
 H3430 H 0.96904 0.25021 0.30379
 H3431 H 1.00029 0.27939 0.30406
 H3432 H 0.99323 0.28659 0.32578
 C3433 C 0.45205 0.39652 0.78737
 C3434 C 0.45586 0.38618 0.79560
 C3435 C 0.45483 0.38767 0.80912
 C3436 C 0.44996 0.39942 0.81442
 C3437 C 0.44605 0.40986 0.80625
 C3438 C 0.44717 0.40829 0.79266
 C3439 C 0.46064 0.37395 0.79020
 C3440 C 0.46457 0.36361 0.78586
 C3441 C 0.46909 0.35139 0.78096
 C3442 C 0.47288 0.34086 0.77694
 C3443 C 0.47731 0.32818 0.77234
 C3444 C 0.48804 0.32194 0.77835
 C3445 C 0.49209 0.30943 0.77420
 C3446 C 0.48544 0.30296 0.76396
 C3447 C 0.47473 0.30939 0.75790
 C3448 C 0.47070 0.32191 0.76207
 H3449 H 0.45282 0.39547 0.77689
 H3450 H 0.45769 0.37971 0.81557
 H3451 H 0.44903 0.40026 0.82491
 H3452 H 0.44437 0.41619 0.78613
 H3453 H 0.49321 0.32670 0.78633
 H3454 H 0.50035 0.30478 0.77912
 H3455 H 0.46935 0.30470 0.75002
 H3456 H 0.46235 0.32664 0.75738
 C3457 C 0.95025 0.39575 0.28910
 C3458 C 0.95446 0.38546 0.29718
 C3459 C 0.95356 0.38681 0.31073
 C3460 C 0.94842 0.39837 0.31620
 C3461 C 0.94409 0.40875 0.30816
 C3462 C 0.94509 0.40733 0.29454
 C3463 C 0.95951 0.37342 0.29162
 C3464 C 0.96364 0.36322 0.28711
 C3465 C 0.96837 0.35117 0.28201
 C3466 C 0.97230 0.34076 0.27781
 C3467 C 0.97687 0.32822 0.27298
 C3468 C 0.98756 0.32190 0.27898
 C3469 C 0.99167 0.30946 0.27465
 C3470 C 0.98511 0.30315 0.26425
 C3471 C 0.97446 0.30968 0.25819
 C3472 C 0.97038 0.32212 0.26254
 H3473 H 0.95091 0.39481 0.27860
 H3474 H 0.95674 0.37888 0.31708
 H3475 H 0.94761 0.39909 0.32670
 H3476 H 0.94197 0.41520 0.28811
 H3477 H 0.99263 0.32651 0.28709
 H3478 H 0.99987 0.30473 0.27958
 H3479 H 0.96916 0.30513 0.25019
 H3480 H 0.96206 0.32691 0.25785
 C3481 C 0.29570 0.88816 0.44071
 C3482 C 0.29485 0.88692 0.45426
 C3483 C 0.29923 0.89721 0.46229
 C3484 C 0.30450 0.90868 0.45677
 C3485 C 0.30545 0.90999 0.44315
 C3486 C 0.30095 0.89960 0.43518
 C3487 C 0.28970 0.87496 0.45987
 C3488 C 0.28550 0.86481 0.46436
 C3489 C 0.28073 0.85275 0.46935
 C3490 C 0.27679 0.84230 0.47340
 C3491 C 0.27228 0.82966 0.47797
 C3492 C 0.27895 0.82330 0.48813
 C3493 C 0.27506 0.81068 0.49207
 C3494 C 0.26443 0.80423 0.48587
 C3495 C 0.25764 0.81083 0.47582
 C3496 C 0.26155 0.82345 0.47191
 H3497 H 0.29240 0.88022 0.43441
 H3498 H 0.29861 0.89636 0.47280
 H3499 H 0.30775 0.91656 0.46316
 H3500 H 0.30173 0.90022 0.42467
 H3501 H 0.28729 0.82800 0.49286
 H3502 H 0.28053 0.80591 0.49982
 H3503 H 0.24943 0.80618 0.47083
 H3504 H 0.25634 0.82827 0.46401
 C3505 C 0.29705 0.39850 0.96396
 C3506 C 0.29290 0.38826 0.95576
 C3507 C 0.29388 0.38968 0.94223
 C3508 C 0.29908 0.40125 0.93690
 C3509 C 0.30340 0.41157 0.94505
 C3510 C 0.30227 0.41009 0.95865
 C3511 C 0.28794 0.37613 0.96116
 C3512 C 0.28393 0.36583 0.96549
 C3513 C 0.27942 0.35360 0.97031
 C3514 C 0.27573 0.34302 0.97422
 C3515 C 0.27153 0.33022 0.97865
 C3516 C 0.26099 0.32380 0.97248
 C3517 C 0.25735 0.31107 0.97629
 C3518 C 0.26424 0.30456 0.98633
 C3519 C 0.27470 0.31120 0.99261
 C3520 C 0.27831 0.32393 0.98877
 H3521 H 0.29633 0.39750 0.97445
 H3522 H 0.29075 0.38179 0.93579
 H3523 H 0.29998 0.40202 0.92641
 H3524 H 0.30536 0.41792 0.96517
 H3525 H 0.25569 0.32857 0.96460
 H3526 H 0.24926 0.30628 0.97123
 H3527 H 0.28023 0.30650 1.00036
 H3528 H 0.28652 0.32879 0.99359
 C3529 C 0.79507 0.36216 0.30868
 C3530 C 0.79456 0.36383 0.29515
 C3531 C 0.79889 0.35368 0.28692
 C3532 C 0.80378 0.34193 0.29219
 C3533 C 0.80440 0.34019 0.30579
 C3534 C 0.79995 0.35043 0.31398
 C3535 C 0.78977 0.37604 0.28978
 C3536 C 0.78583 0.38638 0.28545
 C3537 C 0.78130 0.39859 0.28059
 C3538 C 0.77751 0.40912 0.27661
 C3539 C 0.77306 0.42180 0.27207
 C3540 C 0.77970 0.42812 0.26187
 C3541 C 0.77568 0.44065 0.25778
 C3542 C 0.76493 0.44704 0.26385
 C3543 C 0.75824 0.44052 0.27402
 C3544 C 0.76229 0.42799 0.27808
 H3545 H 0.79180 0.36998 0.31515
 H3546 H 0.79852 0.35486 0.27643
 H3547 H 0.80700 0.33417 0.28565
 H3548 H 0.80047 0.34948 0.32448
 H3549 H 0.78808 0.42343 0.25717
 H3550 H 0.78109 0.44538 0.24996
 H3551 H 0.74995 0.44513 0.27894
 H3552 H 0.75709 0.42320 0.28601
   
