data_POSCAR
  _audit_creation_date              2014-09-24
  _audit_creation_method            'ToBaCCo'
  _symmetry_space_group_name_H-M    'P1'
  _symmetry_Int_Tables_number       1
  _symmetry_cell_setting            triclinic
  loop_
  _symmetry_equiv_pos_as_xyz
 x,y,z
_cell_length_a 49.2364
_cell_length_b 49.1735
_cell_length_c 49.2935
_cell_angle_alpha 90.054500
_cell_angle_beta 89.940200
_cell_angle_gamma 90.040400
loop_
  _atom_site_label
  _atom_site_type_symbol
  _atom_site_fract_x
  _atom_site_fract_y
  _atom_site_fract_z
N1 N 0.36898 1.36863 0.36811
 N2 N 0.36749 0.86895 0.86732
 N3 N 0.86917 1.36987 0.87023
 N4 N 0.86772 0.86846 0.36760
 N5 N 0.63010 0.63038 0.36806
 N6 N 0.62856 0.12920 0.86762
 N7 N 1.18388 0.68439 0.81506
 N8 N 1.12856 0.12896 0.36920
 N9 N 0.62897 1.36912 0.62873
 N10 N 0.62853 0.87012 1.12812
 N11 N 1.18044 1.31855 1.18154
 N12 N 1.12834 0.87082 0.62791
 N13 N 0.37011 0.62936 0.62840
 N14 N 0.36796 0.12955 1.12872
 N15 N 0.81945 0.67992 1.18101
 N16 N 0.86852 0.12823 0.62832
 N17 N 1.37085 0.36979 0.62791
 N18 N 1.36804 0.86951 1.12889
 N19 N 0.81823 0.32009 1.18119
 N20 N 0.86787 0.87004 0.62845
 N21 N 0.68405 0.68590 0.68476
 N22 N 0.62807 1.12896 1.12788
 N23 N 0.17876 0.67995 1.18033
 N24 N 0.12796 1.12780 0.62753
 N25 N 1.36919 0.62942 0.36872
 N26 N 1.36804 1.12984 0.86735
 N27 N 0.86851 0.63041 0.86947
 N28 N 0.86795 1.12997 0.36847
 N29 N 0.68258 0.31731 0.31639
 N30 N 0.62905 0.86940 0.86745
 N31 N 0.12886 0.37013 0.87037
 N32 N 0.12885 0.86901 0.36806
 O33 O 0.97163 0.90223 0.86235
 O34 O 0.97163 0.87028 0.83092
 C35 C 0.96237 0.89248 0.84034
 C36 C 0.94036 0.90701 0.82592
 C37 C 0.93249 0.89928 0.79962
 H38 H 0.94317 0.88297 0.78939
 O39 O 1.02487 1.09812 0.86225
 O40 O 1.02483 1.12982 0.83063
 C41 C 1.03405 1.10765 0.84012
 C42 C 1.05594 1.09290 0.82564
 C43 C 1.06363 1.10031 0.79919
 H44 H 1.05287 1.11648 0.78889
 O45 O 0.86294 0.97338 0.89955
 O46 O 0.83115 0.97330 0.86805
 C47 C 0.84079 0.96412 0.89013
 C48 C 0.82645 0.94217 0.90489
 C49 C 0.80020 0.93406 0.89723
 H50 H 0.79021 0.94416 0.88046
 O51 O 1.13378 1.02688 0.89909
 O52 O 1.16561 1.02694 0.86757
 C53 C 1.15594 1.03615 0.88966
 C54 C 1.17026 1.05811 0.90443
 C55 C 1.19653 1.06623 0.89679
 H56 H 1.20682 1.05569 0.88044
 O57 O 0.90062 0.86538 0.97164
 O58 O 0.86938 0.83321 0.97189
 C59 C 0.89143 0.84297 0.96265
 C60 C 0.90634 0.82847 0.94086
 C61 C 0.89872 0.80208 0.93301
 H62 H 0.88243 0.79183 0.94367
 O63 O 1.09623 1.13502 0.97144
 O64 O 1.12756 1.16709 0.97165
 C65 C 1.10551 1.15737 0.96240
 C66 C 1.09075 1.17182 0.94055
 C67 C 1.09842 1.19820 0.93273
 H68 H 1.11463 1.20848 0.94349
 O69 O 0.90025 1.02636 0.86257
 O70 O 0.86875 1.02636 0.83077
 C71 C 0.89087 1.03555 0.84041
 C72 C 0.90572 1.05739 0.82600
 C73 C 0.89823 1.06505 0.79963
 H74 H 0.88156 1.05472 0.78966
 O75 O 1.09663 0.97380 0.86208
 O76 O 1.12817 0.97372 0.83027
 C77 C 1.10602 0.96458 0.83990
 C78 C 1.09112 0.94275 0.82549
 C79 C 1.09872 0.93479 0.79919
 H80 H 1.11513 0.94533 0.78898
 O81 O 1.02521 0.86627 0.89974
 O82 O 1.02571 0.83443 0.86821
 C83 C 1.03504 0.84443 0.89010
 C84 C 1.05825 0.83116 0.90388
 C85 C 1.07118 0.80870 0.89185
 H86 H 1.06361 0.80059 0.87286
 O87 O 0.97190 1.13491 0.89984
 O88 O 0.97178 1.16693 0.86855
 C89 C 0.96265 1.15716 0.89062
 C90 C 0.94083 1.17151 0.90560
 C91 C 0.93302 1.19795 0.89821
 H92 H 0.94321 1.20804 0.88153
 O93 O 0.86273 1.09743 0.97123
 O94 O 0.83117 1.12923 0.97123
 C95 C 0.84066 1.10706 0.96199
 C96 C 0.82624 1.09247 0.94000
 C97 C 0.79992 1.10016 0.93213
 H98 H 0.78966 1.11642 0.94286
 O99 O 1.13421 0.90397 0.97210
 O100 O 1.16598 0.87236 0.97215
 C101 C 1.15637 0.89443 0.96288
 C102 C 1.17072 0.90886 0.94074
 C103 C 1.19693 0.90092 0.93273
 H104 H 1.20692 0.88433 0.94315
 O105 O 0.97193 1.09797 0.86237
 O106 O 0.97178 1.12969 0.83076
 C107 C 0.96266 1.10747 0.84029
 C108 C 0.94077 1.09263 0.82590
 C109 C 0.93300 1.10003 0.79950
 H110 H 0.94370 1.11626 0.78916
 O111 O 1.02456 0.90275 0.86204
 O112 O 1.02456 0.87103 0.83036
 C113 C 1.03371 0.89326 0.83986
 C114 C 1.05560 0.90799 0.82538
 C115 C 1.06349 0.90028 0.79908
 H116 H 1.05316 0.88360 0.78907
 O117 O 1.13383 0.97397 0.89923
 O118 O 1.16566 0.97388 0.86772
 C119 C 1.15605 0.96480 0.88988
 C120 C 1.17052 0.94311 0.90485
 C121 C 1.19675 0.93491 0.89711
 H122 H 1.20689 0.94515 0.88049
 O123 O 0.86281 1.02634 0.89945
 O124 O 0.83104 1.02635 0.86795
 C125 C 0.84065 1.03554 0.89005
 C126 C 0.82623 1.05742 0.90484
 C127 C 0.79994 1.06536 0.89722
 H128 H 0.78998 1.05519 0.88046
 O129 O 0.90018 1.13455 0.97159
 O130 O 0.86886 1.16658 0.97183
 C131 C 0.89093 1.15689 0.96258
 C132 C 0.90579 1.17140 0.94079
 C133 C 0.89827 1.19785 0.93313
 H134 H 0.88207 1.20812 0.94392
 O135 O 1.09658 0.86718 0.97207
 O136 O 1.12831 0.83556 0.97199
 C137 C 1.10634 0.84525 0.96256
 C138 C 1.09288 0.83154 0.93943
 C139 C 1.10529 0.80897 0.92718
 H140 H 1.12366 0.80057 0.93586
 O141 O 1.09651 1.02676 0.86217
 O142 O 1.12803 1.02678 0.83033
 C143 C 1.10590 1.03595 0.83999
 C144 C 1.09105 1.05776 0.82561
 C145 C 1.09846 1.06543 0.79920
 H146 H 1.11512 1.05512 0.78916
 O147 O 0.90000 0.97338 0.86233
 O148 O 0.86849 0.97331 0.83055
 C149 C 0.89058 0.96412 0.84019
 C150 C 0.90533 0.94218 0.82583
 C151 C 0.89771 0.93421 0.79957
 H152 H 0.88099 0.94441 0.78959
 O153 O 1.02483 1.13510 0.89969
 O154 O 1.02481 1.16711 0.86838
 C155 C 1.03400 1.15739 0.89042
 C156 C 1.05582 1.17183 0.90532
 C157 C 1.06379 1.19820 0.89777
 H158 H 1.05370 1.20821 0.88101
 O159 O 0.97217 0.86536 0.89991
 O160 O 0.97249 0.83313 0.86878
 C161 C 0.96322 0.84291 0.89079
 C162 C 0.94148 0.82842 0.90576
 C163 C 0.93356 0.80203 0.89818
 H164 H 0.94372 0.79202 0.88142
 O165 O 1.13358 1.09783 0.97106
 O166 O 1.16512 1.12970 0.97103
 C167 C 1.15565 1.10751 0.96180
 C168 C 1.17013 1.09298 0.93978
 C169 C 1.19639 1.10086 0.93187
 H170 H 1.20631 1.11760 0.94217
 O171 O 0.86310 0.90238 0.97123
 O172 O 0.83163 0.87045 0.97125
 C173 C 0.84106 0.89264 0.96200
 C174 C 0.82659 0.90713 0.94000
 C175 C 0.80031 0.89927 0.93209
 H176 H 0.79012 0.88295 0.94278
 Cu177 Cu 0.99830 0.88733 0.88415
 Cu178 Cu 0.99855 0.84893 0.84648
 Cu179 Cu 0.99840 1.11334 0.88415
 Cu180 Cu 0.99829 1.15160 0.84642
 Cu181 Cu 0.88466 0.99987 0.88414
 Cu182 Cu 0.84667 0.99984 0.84614
 Cu183 Cu 1.11203 1.00033 0.88380
 Cu184 Cu 1.15005 1.00031 0.84577
 C185 C 0.92680 0.92861 0.83872
 H186 H 0.93260 0.93451 0.85909
 C187 C 0.91129 0.91291 0.78619
 C188 C 1.06963 1.07147 0.83854
 H189 H 1.06398 1.06581 0.85902
 C190 C 1.08475 1.08652 0.78572
 C191 C 0.83935 0.92873 0.92642
 H192 H 0.85970 0.93471 0.93225
 C193 C 0.78687 0.91275 0.91083
 C194 C 1.15735 1.07147 0.92608
 H195 H 1.13699 1.06548 0.93191
 C196 C 1.20985 1.08749 0.91050
 C197 C 0.92789 0.84135 0.92728
 H198 H 0.93367 0.86181 0.93303
 C199 C 0.91230 0.78863 0.91177
 C200 C 1.06929 1.15893 0.92687
 H201 H 1.06345 1.13848 0.93262
 C202 C 1.08497 1.21163 0.91145
 C203 C 0.92715 1.07114 0.83886
 H204 H 0.93285 1.06548 0.85931
 C205 C 0.91187 1.08620 0.78612
 C206 C 1.06939 0.92939 0.83828
 H207 H 1.06361 0.93524 0.85868
 C208 C 1.08494 0.91366 0.78574
 C209 C 1.06918 0.84236 0.92779
 H210 H 1.05979 0.86011 0.93682
 C211 C 1.09493 0.79778 0.90315
 C212 C 0.92725 1.15852 0.92706
 H213 H 0.93298 1.13802 0.93268
 C214 C 0.91187 1.21136 0.91197
 C215 C 0.83909 1.07094 0.92638
 H216 H 0.85948 1.06509 0.93218
 C217 C 0.78652 1.08658 0.91087
 C218 C 1.15782 0.93011 0.92683
 H219 H 1.13749 0.93613 0.93273
 C220 C 1.21020 0.91392 0.91104
 O221 O 1.02522 0.90354 1.13477
 O222 O 1.02509 0.87183 1.16639
 C223 C 1.03439 0.89397 1.15688
 C224 C 1.05650 0.90848 1.17126
 C225 C 1.06463 0.90052 1.19738
 H226 H 1.05389 0.88424 1.20760
 O227 O 0.97171 1.09723 1.13467
 O228 O 0.97159 1.12905 1.16624
 C229 C 0.96240 1.10686 1.15673
 C230 C 0.94025 1.09234 1.17103
 C231 C 0.93218 1.10015 1.19725
 H232 H 0.94296 1.11633 1.20757
 O233 O 0.86267 1.02649 1.09658
 O234 O 0.83062 1.02650 1.12787
 C235 C 0.84038 1.03564 1.10580
 C236 C 0.82594 1.05734 1.09079
 C237 C 0.79960 1.06525 1.09835
 H238 H 0.78966 1.05523 1.11522
 O239 O 1.13441 0.97443 1.09743
 O240 O 1.16640 0.97461 1.12872
 C241 C 1.15670 0.96536 1.10669
 C242 C 1.17109 0.94354 1.09177
 C243 C 1.19732 0.93534 1.09941
 H244 H 1.20754 0.94570 1.11590
 O245 O 1.09671 0.86704 1.02519
 O246 O 1.12841 0.83539 1.02514
 C247 C 1.10642 0.84506 1.03459
 C248 C 1.09271 0.83124 1.05753
 C249 C 1.10453 0.80816 1.06939
 H250 H 1.12274 0.79949 1.06060
 O251 O 0.90027 1.13380 1.02461
 O252 O 0.86858 1.16547 1.02491
 C253 C 0.89055 1.15568 1.03427
 C254 C 0.90424 1.16932 1.05734
 C255 C 0.89238 1.19232 1.06935
 H256 H 0.87415 1.20100 1.06065
 O257 O 0.89958 0.97368 1.13407
 O258 O 0.86782 0.97355 1.16565
 C259 C 0.89006 0.96447 1.15619
 C260 C 0.90493 0.94273 1.17071
 C261 C 0.89700 0.93450 1.19683
 H262 H 0.87991 0.94431 1.20662
 O263 O 1.09712 1.02720 1.13465
 O264 O 1.12878 1.02752 1.16626
 C265 C 1.10654 1.03649 1.15677
 C266 C 1.09153 1.05816 1.17128
 C267 C 1.09907 1.06610 1.19759
 H268 H 1.11599 1.05613 1.20747
 O269 O 0.97223 0.86677 1.09700
 O270 O 0.97209 0.83495 1.12849
 C271 C 0.96272 0.84475 1.10655
 C272 C 0.93981 0.83101 1.09265
 C273 C 0.92767 0.80795 1.10433
 H274 H 0.93566 0.79975 1.12308
 O275 O 1.02484 1.13395 1.09708
 O276 O 1.02485 1.16585 1.12855
 C277 C 1.03432 1.15597 1.10666
 C278 C 1.05735 1.16960 1.09281
 C279 C 1.06988 1.19234 1.10475
 H280 H 1.06210 1.20041 1.12367
 O281 O 0.86278 0.90267 1.02418
 O282 O 0.83109 0.87094 1.02413
 C283 C 0.84059 0.89314 1.03333
 C284 C 0.82610 0.90777 1.05529
 C285 C 0.79976 0.90003 1.06313
 H286 H 0.78949 0.88383 1.05230
 O287 O 1.13385 1.09774 1.02405
 O288 O 1.16562 1.12939 1.02389
 C289 C 1.15605 1.10727 1.03317
 C290 C 1.17047 1.09275 1.05520
 C291 C 1.19674 1.10064 1.06307
 H292 H 1.20677 1.11722 1.05262
 O293 O 1.02469 1.09747 1.13493
 O294 O 1.02447 1.12926 1.16653
 C295 C 1.03380 1.10712 1.15706
 C296 C 1.05586 1.09268 1.17149
 C297 C 1.06365 1.10038 1.19782
 H298 H 1.05272 1.11646 1.20815
 O299 O 0.97219 0.90346 1.13467
 O300 O 0.97218 0.87175 1.16628
 C301 C 0.96290 0.89386 1.15673
 C302 C 0.94067 0.90826 1.17100
 C303 C 0.93249 0.90030 1.19712
 H304 H 0.94329 0.88414 1.20740
 O305 O 1.13380 1.02732 1.09697
 O306 O 1.16579 1.02767 1.12825
 C307 C 1.15601 1.03666 1.10615
 C308 C 1.17034 1.05841 1.09105
 C309 C 1.19660 1.06657 1.09861
 H310 H 1.20680 1.05626 1.11512
 O311 O 0.86275 0.97354 1.09659
 O312 O 0.83069 0.97345 1.12787
 C313 C 0.84049 0.96431 1.10580
 C314 C 0.82612 0.94252 1.09079
 C315 C 0.79980 0.93452 1.09834
 H316 H 0.78982 0.94452 1.11521
 O317 O 1.09601 1.13421 1.02448
 O318 O 1.12770 1.16592 1.02473
 C319 C 1.10574 1.15609 1.03413
 C320 C 1.09213 1.16963 1.05732
 C321 C 1.10417 1.19244 1.06950
 H322 H 1.12244 1.20111 1.06080
 O323 O 0.90075 0.86633 1.02464
 O324 O 0.86918 0.83450 1.02496
 C325 C 0.89112 0.84441 1.03430
 C326 C 0.90490 0.83088 1.05735
 C327 C 0.89324 0.80775 1.06929
 H328 H 0.87508 0.79890 1.06056
 O329 O 1.09723 0.97430 1.13457
 O330 O 1.12890 0.97445 1.16617
 C331 C 1.10675 0.96516 1.15668
 C332 C 1.09199 0.94326 1.17114
 C333 C 1.09987 0.93503 1.19725
 H334 H 1.11686 0.94498 1.20709
 O335 O 0.89947 1.02661 1.13408
 O336 O 0.86772 1.02661 1.16567
 C337 C 0.88992 1.03580 1.15621
 C338 C 0.90472 1.05762 1.17075
 C339 C 0.89689 1.06568 1.19696
 H340 H 0.87992 1.05568 1.20678
 O341 O 0.97167 1.13388 1.09703
 O342 O 0.97147 1.16582 1.12846
 C343 C 0.96211 1.15589 1.10655
 C344 C 0.93913 1.16947 1.09266
 C345 C 0.92679 1.19240 1.10440
 H346 H 0.93470 1.20065 1.12319
 O347 O 1.02537 0.86669 1.09722
 O348 O 1.02542 0.83487 1.12870
 C349 C 1.03486 0.84470 1.10679
 C350 C 1.05782 0.83104 1.09289
 C351 C 1.07010 0.80804 1.10452
 H352 H 1.06215 0.79977 1.12328
 O353 O 1.13432 0.90397 1.02509
 O354 O 1.16607 0.87234 1.02488
 C355 C 1.15652 0.89445 1.03418
 C356 C 1.17102 0.90897 1.05615
 C357 C 1.19724 0.90101 1.06405
 H358 H 1.20713 0.88429 1.05368
 O359 O 0.86247 1.09723 1.02417
 O360 O 0.83068 1.12880 1.02410
 C361 C 0.84025 1.10667 1.03332
 C362 C 0.82582 1.09202 1.05529
 C363 C 0.79945 1.09966 1.06313
 H364 H 0.78913 1.11579 1.05231
 Cu365 Cu 0.99878 0.88829 1.11276
 Cu366 Cu 0.99869 0.85006 1.15054
 Cu367 Cu 0.99825 1.11245 1.11278
 Cu368 Cu 0.99807 1.15081 1.15049
 Cu369 Cu 0.88494 0.88739 0.99784
 Cu370 Cu 0.84722 0.84901 0.99803
 Cu371 Cu 1.11227 0.88871 0.99865
 Cu372 Cu 1.15026 0.85062 0.99854
 Cu373 Cu 0.88456 1.11257 0.99782
 Cu374 Cu 0.84672 1.15078 0.99798
 Cu375 Cu 1.11177 1.11301 0.99767
 Cu376 Cu 1.14960 1.15128 0.99778
 Cu377 Cu 0.88431 1.00008 1.11221
 Cu378 Cu 0.84599 1.00002 1.14992
 Cu379 Cu 1.11246 1.00079 1.11277
 Cu380 Cu 1.15068 1.00111 1.15052
 C381 C 1.07016 0.93000 1.15845
 H382 H 1.06416 0.93604 1.13820
 C383 C 1.08621 0.91377 1.21063
 C384 C 0.92654 1.07092 1.15809
 H385 H 0.93250 1.06499 1.13776
 C386 C 0.91062 1.08682 1.21047
 C387 C 0.83876 1.07069 1.06909
 H388 H 0.85919 1.06488 1.06334
 C389 C 0.78610 1.08626 1.08454
 C390 C 1.15825 0.93039 1.06998
 H391 H 1.13792 0.93641 1.06415
 C392 C 1.21064 0.91417 1.08556
 C393 C 1.06917 0.84236 1.06926
 H394 H 1.06024 0.86048 1.06054
 C395 C 1.09364 0.79669 1.09310
 C396 C 0.92779 1.15816 1.06899
 H397 H 0.93675 1.14008 1.06017
 C398 C 0.90322 1.20371 1.09309
 C399 C 0.92692 0.92963 1.15810
 H400 H 0.93295 0.93567 1.13784
 C401 C 0.91076 0.91338 1.21028
 C402 C 1.06978 1.07141 1.15854
 H403 H 1.06405 1.06555 1.13813
 C404 C 1.08513 1.08706 1.21113
 C405 C 0.92838 0.84224 1.06902
 H406 H 0.93720 0.86041 1.06026
 C407 C 0.90419 0.79643 1.09299
 C408 C 1.06854 1.15848 1.06897
 H409 H 1.05944 1.14054 1.06001
 C410 C 1.09351 1.20362 1.09344
 C411 C 0.83898 0.92919 1.06910
 H412 H 0.85940 0.93507 1.06335
 C413 C 0.78636 0.91341 1.08453
 C414 C 1.15756 1.07147 1.06917
 H415 H 1.13719 1.06548 1.06341
 C416 C 1.21003 1.08758 1.08467
 O417 O 0.97325 0.40048 0.36889
 O418 O 0.97327 0.36878 0.33721
 C419 C 0.96391 0.39083 0.34689
 C420 C 0.94121 0.40471 0.33295
 C421 C 0.92965 0.39312 0.30963
 H422 H 0.93848 0.37491 0.30094
 O423 O 1.02553 0.59697 0.36756
 O424 O 1.02558 0.62834 0.33562
 C425 C 1.03494 0.60641 0.34551
 C426 C 1.05784 0.59253 0.33181
 C427 C 1.06952 0.60413 0.30859
 H428 H 1.06053 0.62215 0.29972
 O429 O 0.86438 0.47188 0.40540
 O430 O 0.83299 0.47118 0.37352
 C431 C 0.84267 0.46201 0.39557
 C432 C 0.82917 0.43885 0.40924
 C433 C 0.80644 0.42639 0.39733
 H434 H 0.79824 0.43439 0.37858
 O435 O 1.13574 0.52597 0.40432
 O436 O 1.16733 0.52587 0.37256
 C437 C 1.15782 0.53521 0.39465
 C438 C 1.17217 0.55745 0.40899
 C439 C 1.19834 0.56554 0.40102
 H440 H 1.20860 0.55470 0.38486
 O441 O 0.90190 0.36235 0.47695
 O442 O 0.87059 0.33025 0.47724
 C443 C 0.89260 0.34000 0.46793
 C444 C 0.90734 0.32567 0.44596
 C445 C 0.89944 0.29952 0.43755
 H446 H 0.88300 0.28922 0.44795
 O447 O 1.09794 0.63556 0.47423
 O448 O 1.12929 0.66761 0.47421
 C449 C 1.10724 0.65781 0.46502
 C450 C 1.09236 0.67205 0.44314
 C451 C 1.09999 0.69831 0.43484
 H452 H 1.11644 0.70867 0.44513
 O453 O 0.90117 0.52532 0.36831
 O454 O 0.86952 0.52492 0.33669
 C455 C 0.89146 0.53453 0.34631
 C456 C 0.90515 0.55740 0.33234
 C457 C 0.89341 0.56900 0.30916
 H458 H 0.87523 0.56009 0.30056
 O459 O 1.09813 0.47263 0.36799
 O460 O 1.12958 0.47245 0.33611
 C461 C 1.10766 0.46305 0.34603
 C462 C 1.09370 0.44004 0.33252
 C463 C 1.10520 0.42781 0.30944
 H464 H 1.12388 0.43582 0.30101
 O465 O 1.02641 0.36296 0.40548
 O466 O 1.02625 0.33116 0.37388
 C467 C 1.03556 0.34076 0.39591
 C468 C 1.05758 0.32629 0.41031
 C469 C 1.06535 0.29997 0.40245
 H470 H 1.05485 0.29000 0.38590
 O471 O 0.97255 0.63523 0.40376
 O472 O 0.97272 0.66671 0.37190
 C473 C 0.96339 0.65732 0.39401
 C474 C 0.94123 0.67178 0.40828
 C475 C 0.93313 0.69791 0.40018
 H476 H 0.94352 0.70782 0.38352
 O477 O 0.86296 0.59772 0.47418
 O478 O 0.83091 0.62902 0.47440
 C479 C 0.84058 0.60689 0.46526
 C480 C 0.82610 0.59179 0.44366
 C481 C 0.79999 0.59959 0.43527
 H482 H 0.78983 0.61628 0.44541
 O483 O 1.13600 0.40050 0.47503
 O484 O 1.16786 0.36901 0.47497
 C485 C 1.15818 0.39112 0.46579
 C486 C 1.17251 0.40599 0.44390
 C487 C 1.19870 0.39826 0.43558
 H488 H 1.20894 0.38174 0.44586
 O489 O 0.97246 0.59732 0.36736
 O490 O 0.97239 0.62869 0.33543
 C491 C 0.96298 0.60679 0.34536
 C492 C 0.94006 0.59276 0.33183
 C493 C 0.92786 0.60418 0.30873
 H494 H 0.93585 0.62288 0.30029
 O495 O 1.02630 0.40075 0.36893
 O496 O 1.02634 0.36902 0.33729
 C497 C 1.03568 0.39110 0.34694
 C498 C 1.05846 0.40498 0.33301
 C499 C 1.07015 0.39324 0.30983
 H500 H 1.06134 0.37499 0.30120
 O501 O 1.13580 0.47290 0.40454
 O502 O 1.16739 0.47291 0.37278
 C503 C 1.15792 0.46369 0.39492
 C504 C 1.17240 0.44165 0.40938
 C505 C 1.19857 0.43365 0.40132
 H506 H 1.20842 0.44398 0.38459
 O507 O 0.86307 0.52499 0.40465
 O508 O 0.83135 0.52422 0.37310
 C509 C 0.84078 0.53380 0.39509
 C510 C 0.82616 0.55586 0.40940
 C511 C 0.80004 0.56391 0.40123
 H512 H 0.79022 0.55351 0.38452
 O513 O 0.90025 0.63501 0.47356
 O514 O 0.86848 0.66660 0.47357
 C515 C 0.89065 0.65713 0.46437
 C516 C 0.90539 0.67162 0.44254
 C517 C 0.89751 0.69778 0.43423
 H518 H 0.88086 0.70790 0.44446
 O519 O 1.09900 0.36306 0.47536
 O520 O 1.13054 0.33123 0.47527
 C521 C 1.10836 0.34080 0.46622
 C522 C 1.09337 0.32630 0.44458
 C523 C 1.10090 0.29995 0.43648
 H524 H 1.11741 0.28970 0.44676
 O525 O 1.09809 0.52578 0.36770
 O526 O 1.12955 0.52580 0.33582
 C527 C 1.10758 0.53518 0.34564
 C528 C 1.09350 0.55793 0.33187
 C529 C 1.10503 0.57009 0.30876
 H530 H 1.12387 0.56226 0.30051
 O531 O 0.90138 0.47220 0.36817
 O532 O 0.86997 0.47179 0.33631
 C533 C 0.89196 0.46261 0.34616
 C534 C 0.90606 0.43978 0.33252
 C535 C 0.89472 0.42773 0.30928
 H536 H 0.87611 0.43582 0.30082
 O537 O 1.02555 0.63504 0.40390
 O538 O 1.02555 0.66652 0.37204
 C539 C 1.03477 0.65713 0.39419
 C540 C 1.05678 0.67171 0.40860
 C541 C 1.06468 0.69794 0.40055
 H542 H 1.05431 0.70773 0.38383
 O543 O 0.97342 0.36290 0.40577
 O544 O 0.97348 0.33115 0.37413
 C545 C 0.96429 0.34066 0.39628
 C546 C 0.94245 0.32604 0.41091
 C547 C 0.93430 0.29991 0.40275
 H548 H 0.94436 0.29019 0.38577
 O549 O 1.13529 0.59856 0.47436
 O550 O 1.16695 0.63031 0.47434
 C551 C 1.15746 0.60807 0.46521
 C552 C 1.17199 0.59318 0.44347
 C553 C 1.19817 0.60104 0.43525
 H554 H 1.20802 0.61810 0.44508
 O555 O 0.86516 0.39987 0.47654
 O556 O 0.83373 0.36790 0.47650
 C557 C 0.84332 0.38996 0.46708
 C558 C 0.82953 0.40361 0.44417
 C559 C 0.80674 0.39156 0.43202
 H560 H 0.79827 0.37308 0.44049
 Cu561 Cu 0.99983 0.38495 0.39046
 Cu562 Cu 0.99982 0.34693 0.35235
 Cu563 Cu 0.99900 0.61300 0.38885
 Cu564 Cu 0.99911 0.65062 0.35044
 Cu565 Cu 0.88565 0.49872 0.38983
 Cu566 Cu 0.84782 0.49802 0.35168
 Cu567 Cu 1.11379 0.49934 0.38932
 Cu568 Cu 1.15154 0.49925 0.35103
 C569 C 0.92946 0.42825 0.34409
 H570 H 0.93793 0.43699 0.36240
 C571 C 0.90619 0.40421 0.29792
 C572 C 1.06978 0.56922 0.34316
 H573 H 1.06117 0.56046 0.36140
 C574 C 1.09336 0.59343 0.29725
 C575 C 0.84044 0.42745 0.43282
 H576 H 0.85836 0.43657 0.44175
 C577 C 0.79533 0.40256 0.40838
 C578 C 1.15930 0.57124 0.43036
 H579 H 1.13899 0.56526 0.43640
 C580 C 1.21159 0.58724 0.41412
 C581 C 0.92901 0.33861 0.43267
 H582 H 0.93501 0.35889 0.43884
 C583 C 0.91292 0.28639 0.41603
 C584 C 1.07059 0.65906 0.43004
 H585 H 1.06477 0.63872 0.43614
 C586 C 1.08612 0.71150 0.41366
 C587 C 0.92866 0.56923 0.34336
 H588 H 0.93754 0.56067 0.36155
 C589 C 0.90435 0.59262 0.29748
 C590 C 1.07019 0.42857 0.34406
 H591 H 1.06158 0.43744 0.36226
 C592 C 1.09375 0.40421 0.29821
 C593 C 1.07155 0.33916 0.43152
 H594 H 1.06581 0.35958 0.43746
 C595 C 1.08685 0.28654 0.41554
 C596 C 0.92739 0.65895 0.42959
 H597 H 0.93339 0.63867 0.43571
 C598 C 0.91139 0.71119 0.41315
 C599 C 0.83886 0.56977 0.43077
 H600 H 0.85913 0.56387 0.43693
 C601 C 0.78671 0.58568 0.41413
 C602 C 1.15967 0.42785 0.43082
 H603 H 1.13936 0.43374 0.43693
 C604 C 1.21198 0.41210 0.41440
 O605 O 1.02697 0.40136 0.63658
 O606 O 1.02733 0.37010 0.66864
 C607 C 1.03632 0.39223 0.65878
 C608 C 1.05815 0.40733 0.67295
 C609 C 1.06617 0.39993 0.69924
 H610 H 1.05562 0.38363 0.70963
 O611 O 0.97231 0.59817 0.63517
 O612 O 0.97252 0.62970 0.66701
 C613 C 0.96339 0.60748 0.65752
 C614 C 0.94190 0.59242 0.67229
 C615 C 0.93406 0.60018 0.69861
 H616 H 0.94446 0.61681 0.70861
 O617 O 0.86495 0.52575 0.59927
 O618 O 0.83367 0.52621 0.63133
 C619 C 0.84328 0.53556 0.60927
 C620 C 0.82976 0.55880 0.59573
 C621 C 0.80760 0.57181 0.60821
 H622 H 0.79985 0.56426 0.62735
 O623 O 1.13572 0.47287 0.59837
 O624 O 1.16730 0.47329 0.63006
 C625 C 1.15785 0.46382 0.60801
 C626 C 1.17241 0.44180 0.59355
 C627 C 1.19878 0.43410 0.60123
 H628 H 1.20875 0.44455 0.61782
 O629 O 1.09887 0.36363 0.52813
 O630 O 1.13038 0.33178 0.52821
 C631 C 1.10827 0.34148 0.53740
 C632 C 1.09346 0.32717 0.55932
 C633 C 1.10078 0.30067 0.56697
 H634 H 1.11687 0.29027 0.55615
 O635 O 0.90050 0.63544 0.52633
 O636 O 0.86892 0.66726 0.52637
 C637 C 0.89106 0.65768 0.53549
 C638 C 0.90577 0.67210 0.55736
 C639 C 0.89809 0.69841 0.56535
 H640 H 0.88187 0.70871 0.55467
 O641 O 0.90188 0.47233 0.63616
 O642 O 0.87041 0.47232 0.66803
 C643 C 0.89251 0.46311 0.65834
 C644 C 0.90731 0.44125 0.67275
 C645 C 0.89958 0.43335 0.69903
 H646 H 0.88316 0.44392 0.70918
 O647 O 1.09793 0.52640 0.63425
 O648 O 1.12963 0.52725 0.66582
 C649 C 1.10759 0.53638 0.65596
 C650 C 1.09370 0.55955 0.66927
 C651 C 1.10565 0.57234 0.69179
 H652 H 1.12461 0.56469 0.69988
 O653 O 0.97422 0.36318 0.60021
 O654 O 0.97444 0.33166 0.63202
 C655 C 0.96511 0.34104 0.60991
 C656 C 0.94308 0.32652 0.59547
 C657 C 0.93514 0.30020 0.60323
 H658 H 0.94549 0.29014 0.61980
 O659 O 1.02473 0.63578 0.59748
 O660 O 1.02460 0.66777 0.62889
 C661 C 1.03385 0.65809 0.60684
 C662 C 1.05582 0.67252 0.59217
 C663 C 1.06359 0.69895 0.59978
 H664 H 1.05309 0.70907 0.61626
 O665 O 0.86457 0.40005 0.52936
 O666 O 0.83277 0.36843 0.52948
 C667 C 0.84231 0.39071 0.53847
 C668 C 0.82771 0.40579 0.56001
 C669 C 0.80133 0.39826 0.56780
 H670 H 0.79117 0.38179 0.55729
 O671 O 1.13504 0.59851 0.52713
 O672 O 1.16672 0.63023 0.52726
 C673 C 1.15719 0.60798 0.53632
 C674 C 1.17175 0.59303 0.55794
 C675 C 1.19814 0.60061 0.56569
 H676 H 1.20828 0.61708 0.55518
 O677 O 1.02529 0.59792 0.63381
 O678 O 1.02557 0.62982 0.66529
 C679 C 1.03497 0.60779 0.65555
 C680 C 1.05817 0.59429 0.66906
 C681 C 1.07035 0.60657 0.69168
 H682 H 1.06166 0.62494 0.70019
 O683 O 0.97402 0.40105 0.63662
 O684 O 0.97428 0.36983 0.66871
 C685 C 0.96488 0.39177 0.65886
 C686 C 0.94278 0.40647 0.67308
 C687 C 0.93475 0.39884 0.69934
 H688 H 0.94502 0.38222 0.70944
 O689 O 1.13567 0.52592 0.59778
 O690 O 1.16749 0.52626 0.62925
 C691 C 1.15784 0.53529 0.60713
 C692 C 1.17214 0.55729 0.59238
 C693 C 1.19852 0.56515 0.59986
 H694 H 1.20868 0.55472 0.61631
 O695 O 0.86409 0.47260 0.59955
 O696 O 0.83236 0.47290 0.63115
 C697 C 0.84187 0.46356 0.60906
 C698 C 0.82740 0.44155 0.59447
 C699 C 0.80100 0.43374 0.60204
 H700 H 0.79087 0.44422 0.61853
 O701 O 1.09758 0.63550 0.52703
 O702 O 1.12894 0.66755 0.52717
 C703 C 1.10678 0.65781 0.53621
 C704 C 1.09165 0.67229 0.55781
 C705 C 1.09912 0.69871 0.56567
 H706 H 1.11559 0.70892 0.55523
 O707 O 0.90212 0.36313 0.52978
 O708 O 0.87060 0.33124 0.53008
 C709 C 0.89273 0.34097 0.53911
 C710 C 0.90757 0.32664 0.56090
 C711 C 0.89990 0.30035 0.56888
 H712 H 0.88350 0.29012 0.55836
 O713 O 1.09842 0.47331 0.63557
 O714 O 1.12975 0.47404 0.66751
 C715 C 1.10773 0.46454 0.65794
 C716 C 1.09301 0.44275 0.67261
 C717 C 1.10077 0.43506 0.69893
 H718 H 1.11749 0.44542 0.70880
 O719 O 0.90191 0.52535 0.63645
 O720 O 0.87072 0.52528 0.66861
 C721 C 0.89272 0.53453 0.65875
 C722 C 0.90748 0.55659 0.67293
 C723 C 0.89990 0.56462 0.69921
 H724 H 0.88337 0.55424 0.70939
 O725 O 0.97174 0.63528 0.59768
 O726 O 0.97172 0.66703 0.62931
 C727 C 0.96252 0.65745 0.60721
 C728 C 0.94067 0.67194 0.59255
 C729 C 0.93272 0.69826 0.60031
 H730 H 0.94283 0.70820 0.61712
 O731 O 1.02715 0.36383 0.59968
 O732 O 1.02745 0.33227 0.63145
 C733 C 1.03650 0.34176 0.60922
 C734 C 1.05833 0.32728 0.59441
 C735 C 1.06594 0.30079 0.60180
 H736 H 1.05559 0.29073 0.61840
 O737 O 1.13610 0.40070 0.52782
 O738 O 1.16796 0.36919 0.52795
 C739 C 1.15828 0.39136 0.53703
 C740 C 1.17259 0.40632 0.55881
 C741 C 1.19893 0.39889 0.56672
 H742 H 1.20927 0.38259 0.55613
 O743 O 0.86450 0.59728 0.52703
 O744 O 0.83281 0.62896 0.52747
 C745 C 0.84274 0.60702 0.53683
 C746 C 0.82950 0.59352 0.56020
 C747 C 0.80724 0.60596 0.57287
 H748 H 0.79870 0.62436 0.56436
 Cu749 Cu 1.00057 0.38548 0.61508
 Cu750 Cu 1.00094 0.34782 0.65343
 Cu751 Cu 0.99839 0.61363 0.61286
 Cu752 Cu 0.99854 0.65171 0.65086
 Cu753 Cu 0.88660 0.38453 0.50320
 Cu754 Cu 0.84869 0.34628 0.50342
 Cu755 Cu 1.11433 0.38513 0.50155
 Cu756 Cu 1.15239 0.34711 0.50161
 Cu757 Cu 0.88524 0.61321 0.50013
 Cu758 Cu 0.84699 0.65106 0.50041
 Cu759 Cu 1.11332 0.61386 0.50069
 Cu760 Cu 1.15115 0.65215 0.50079
 Cu761 Cu 0.88632 0.49892 0.61464
 Cu762 Cu 0.84857 0.49912 0.65292
 Cu763 Cu 1.11378 0.49948 0.61333
 Cu764 Cu 1.15165 0.50021 0.65141
 C765 C 1.07153 0.42891 0.65991
 H766 H 1.06562 0.43452 0.63951
 C767 C 1.08738 0.41374 0.71246
 C768 C 0.92865 0.57045 0.65976
 H769 H 0.93437 0.56456 0.63937
 C770 C 0.91317 0.58628 0.71231
 C771 C 0.84050 0.56975 0.57161
 H772 H 0.85805 0.56034 0.56224
 C773 C 0.79656 0.59563 0.59713
 C774 C 1.15961 0.42792 0.57220
 H775 H 1.13918 0.43357 0.56635
 C776 C 1.21227 0.41276 0.58781
 C777 C 1.07208 0.34020 0.57301
 H778 H 1.06648 0.36073 0.56737
 C779 C 1.08701 0.28724 0.58806
 C780 C 0.92722 0.65916 0.57092
 H781 H 0.93306 0.63875 0.56503
 C782 C 0.91154 0.71173 0.58672
 C783 C 0.92907 0.42783 0.66006
 H784 H 0.93498 0.43365 0.63970
 C785 C 0.91327 0.41226 0.71256
 C786 C 1.06983 0.57059 0.65812
 H787 H 1.06086 0.56130 0.64032
 C788 C 1.09432 0.59607 0.70282
 C789 C 0.92930 0.33945 0.57416
 H790 H 0.93512 0.35985 0.56825
 C791 C 0.91362 0.28690 0.58994
 C792 C 1.06983 0.65948 0.57102
 H793 H 1.06415 0.63899 0.56525
 C794 C 1.08512 0.71227 0.58654
 C795 C 0.84044 0.42759 0.57330
 H796 H 0.86091 0.43330 0.56757
 C797 C 0.78773 0.41220 0.58870
 C798 C 1.15904 0.57119 0.57125
 H799 H 1.13858 0.56541 0.56558
 C800 C 1.21177 0.58667 0.58651
 O801 O 0.59665 1.02633 0.63342
 O802 O 0.62821 1.02642 0.66514
 C803 C 0.60607 1.03558 0.65556
 C804 C 0.59126 1.05747 0.66999
 C805 C 0.59888 1.06538 0.69627
 H806 H 0.61565 1.05520 0.70620
 O807 O 0.39994 0.97302 0.63361
 O808 O 0.36831 0.97301 0.66532
 C809 C 0.39044 0.96381 0.65574
 C810 C 0.40515 0.94189 0.67015
 C811 C 0.39730 0.93383 0.69634
 H812 H 0.38046 0.94395 0.70625
 O813 O 0.52480 1.13479 0.59630
 O814 O 0.52478 1.16673 0.62773
 C815 C 0.53397 1.15706 0.60563
 C816 C 0.55580 1.17154 0.59077
 C817 C 0.56383 1.19783 0.59851
 H818 H 0.55378 1.20775 0.61538
 O819 O 0.47235 0.86460 0.59654
 O820 O 0.47262 0.83264 0.62790
 C821 C 0.46339 0.84223 0.60582
 C822 C 0.44167 0.82758 0.59098
 C823 C 0.43390 0.80120 0.59867
 H824 H 0.44415 0.79132 0.61541
 O825 O 0.63361 1.09766 0.52496
 O826 O 0.66517 1.12951 0.52485
 C827 C 0.65570 1.10734 0.53413
 C828 C 0.67021 1.09279 0.55606
 C829 C 0.69649 1.10066 0.56395
 H830 H 0.70637 1.11747 0.55374
 O831 O 0.36334 0.90082 0.52500
 O832 O 0.33173 0.86902 0.52515
 C833 C 0.34122 0.89127 0.53426
 C834 C 0.32673 0.90610 0.55610
 C835 C 0.30033 0.89854 0.56392
 H836 H 0.29009 0.88219 0.55331
 O837 O 0.47190 1.09756 0.63360
 O838 O 0.47177 1.12924 0.66530
 C839 C 0.46260 1.10706 0.65571
 C840 C 0.44060 1.09232 0.67004
 C841 C 0.43258 1.10000 0.69631
 H842 H 0.44324 1.11628 0.70661
 O843 O 0.52469 0.90229 0.63418
 O844 O 0.52461 0.87084 0.66606
 C845 C 0.53382 0.89296 0.65640
 C846 C 0.55581 0.90770 0.67072
 C847 C 0.56387 0.89999 0.69694
 H848 H 0.55313 0.88379 0.70728
 O849 O 0.63384 0.97338 0.59617
 O850 O 0.66570 0.97336 0.62759
 C851 C 0.65606 0.96420 0.60547
 C852 C 0.67052 0.94241 0.59052
 C853 C 0.69677 0.93434 0.59823
 H854 H 0.70691 0.94476 0.61473
 O855 O 0.36285 1.02588 0.59629
 O856 O 0.33097 1.02593 0.62775
 C857 C 0.34063 1.03508 0.60566
 C858 C 0.32620 1.05691 0.59085
 C859 C 0.29980 1.06467 0.59838
 H860 H 0.28979 1.05439 0.61506
 O861 O 0.40016 1.13447 0.52471
 O862 O 0.36871 1.16637 0.52473
 C863 C 0.39080 1.15670 0.53391
 C864 C 0.40561 1.17115 0.55578
 C865 C 0.39802 1.19754 0.56366
 H866 H 0.38133 1.20756 0.55345
 O867 O 0.59661 0.86561 0.52436
 O868 O 0.62850 0.83415 0.52453
 C869 C 0.60653 0.84386 0.53403
 C870 C 0.59320 0.83038 0.55739
 C871 C 0.60573 0.80808 0.56992
 H872 H 0.62417 0.79967 0.56135
 O873 O 0.40010 1.02603 0.63336
 O874 O 0.36849 1.02608 0.66509
 C875 C 0.39064 1.03528 0.65549
 C876 C 0.40541 1.05720 0.66992
 C877 C 0.39767 1.06516 0.69618
 H878 H 0.38086 1.05499 0.70609
 O879 O 0.59683 0.97336 0.63364
 O880 O 0.62841 0.97336 0.66534
 C881 C 0.60624 0.96420 0.65581
 C882 C 0.59133 0.94246 0.67036
 C883 C 0.59912 0.93447 0.69657
 H884 H 0.61610 0.94448 0.70637
 O885 O 0.52541 0.86546 0.59675
 O886 O 0.52582 0.83391 0.62851
 C887 C 0.53521 0.84371 0.60656
 C888 C 0.55849 0.83033 0.59293
 C889 C 0.57150 0.80811 0.60523
 H890 H 0.56392 0.80024 0.62431
 O891 O 0.47185 1.13462 0.59632
 O892 O 0.47175 1.16657 0.62775
 C893 C 0.46259 1.15683 0.60568
 C894 C 0.44067 1.17118 0.59090
 C895 C 0.43281 1.19757 0.59847
 H896 H 0.44350 1.20789 0.61468
 O897 O 0.36278 1.09739 0.52474
 O898 O 0.33103 1.12901 0.52477
 C899 C 0.34061 1.10686 0.53395
 C900 C 0.32618 1.09208 0.55583
 C901 C 0.29976 1.09957 0.56363
 H902 H 0.28946 1.11579 0.55294
 O903 O 0.63412 0.90243 0.52381
 O904 O 0.66607 0.87102 0.52360
 C905 C 0.65639 0.89310 0.53289
 C906 C 0.67076 0.90780 0.55487
 C907 C 0.69700 0.89999 0.56287
 H908 H 0.70703 0.88333 0.55254
 O909 O 0.47172 0.90184 0.63382
 O910 O 0.47166 0.87014 0.66544
 C911 C 0.46239 0.89225 0.65586
 C912 C 0.44028 0.90681 0.67018
 C913 C 0.43218 0.89901 0.69638
 H914 H 0.44281 0.88270 0.70661
 O915 O 0.52489 1.09772 0.63362
 O916 O 0.52485 1.12939 0.66533
 C917 C 0.53410 1.10725 0.65574
 C918 C 0.55609 1.09256 0.67009
 C919 C 0.56399 1.10019 0.69641
 H920 H 0.55329 1.11644 0.70671
 O921 O 0.36307 0.97284 0.59623
 O922 O 0.33117 0.97285 0.62768
 C923 C 0.34089 0.96358 0.60563
 C924 C 0.32657 0.94155 0.59092
 C925 C 0.30020 0.93372 0.59846
 H926 H 0.29013 0.94408 0.61506
 O927 O 0.63399 1.02638 0.59647
 O928 O 0.66584 1.02646 0.62791
 C929 C 0.65615 1.03567 0.60587
 C930 C 0.67044 1.05771 0.59116
 C931 C 0.69670 1.06583 0.59877
 H932 H 0.70702 1.05521 0.61501
 O933 O 0.40078 0.86382 0.52489
 O934 O 0.36947 0.83173 0.52504
 C935 C 0.39154 0.84155 0.53415
 C936 C 0.40646 0.82728 0.55601
 C937 C 0.39899 0.80089 0.56399
 H938 H 0.38274 0.79048 0.55341
 O939 O 0.59623 1.13481 0.52457
 O940 O 0.62753 1.16690 0.52421
 C941 C 0.60550 1.15719 0.53355
 C942 C 0.59075 1.17164 0.55548
 C943 C 0.59850 1.19795 0.56350
 H944 H 0.61477 1.20824 0.55283
 Cu945 Cu 0.61218 0.99983 0.61177
 Cu946 Cu 0.65023 0.99988 0.64967
 Cu947 Cu 0.38466 0.99945 0.61172
 Cu948 Cu 0.34653 0.99949 0.64963
 Cu949 Cu 0.49838 1.11299 0.61183
 Cu950 Cu 0.49829 1.15118 0.64970
 Cu951 Cu 0.49846 0.88670 0.61216
 Cu952 Cu 0.49861 0.84864 0.65009
 C953 C 0.56970 1.07104 0.65718
 H954 H 0.56390 1.06521 0.63680
 C955 C 0.58525 1.08659 0.70975
 C956 C 0.42678 0.92840 0.65736
 H957 H 0.43276 0.93435 0.63705
 C958 C 0.41081 0.91251 0.70971
 C959 C 0.56923 1.15873 0.56909
 H960 H 0.56334 1.13834 0.56321
 C961 C 0.58506 1.21129 0.58490
 C962 C 0.42798 0.84033 0.56948
 H963 H 0.43366 0.86079 0.56363
 C964 C 0.41270 0.78761 0.58520
 C965 C 0.65749 1.07117 0.56965
 H966 H 0.63713 1.06517 0.56385
 C967 C 0.70998 1.08720 0.58519
 C968 C 0.33956 0.92777 0.56958
 H969 H 0.36000 0.93355 0.56384
 C970 C 0.28681 0.91238 0.58496
 C971 C 0.42703 1.07076 0.65714
 H972 H 0.43293 1.06490 0.63677
 C973 C 0.41124 1.08642 0.70963
 C974 C 0.56951 0.92911 0.65773
 H975 H 0.56360 0.93496 0.63740
 C976 C 0.58542 0.91336 0.71011
 C977 C 0.65782 0.92917 0.56868
 H978 H 0.63746 0.93509 0.56282
 C979 C 0.71025 0.91323 0.58443
 C980 C 0.33910 1.07059 0.56941
 H981 H 0.35956 1.06488 0.56368
 C982 C 0.28633 1.08584 0.58478
 C983 C 0.42709 1.15825 0.56939
 H984 H 0.43288 1.13780 0.56362
 C985 C 0.41161 1.21099 0.58487
 C986 C 0.56941 0.84123 0.56888
 H987 H 0.55992 0.85879 0.55964
 C988 C 0.59534 0.79714 0.59408
 O989 O 0.59661 0.97321 0.36235
 O990 O 0.62815 0.97329 0.33055
 C991 C 0.60606 0.96400 0.34019
 C992 C 0.59132 0.94202 0.32581
 C993 C 0.59897 0.93411 0.29952
 H994 H 0.61571 0.94434 0.28955
 O995 O 0.39931 1.02522 0.36276
 O996 O 0.36756 1.02501 0.33123
 C997 C 0.38970 1.03433 0.34065
 C998 C 0.40431 1.05629 0.32614
 C999 C 0.39641 1.06434 0.29998
 H1000 H 0.37956 1.05419 0.29012
 O1001 O 0.47128 1.13367 0.39958
 O1002 O 0.47139 1.16567 0.36827
 C1003 C 0.46223 1.15601 0.39037
 C1004 C 0.44054 1.17058 0.40532
 C1005 C 0.43271 1.19694 0.39765
 H1006 H 0.44286 1.20683 0.38083
 O1007 O 0.52518 0.86444 0.39968
 O1008 O 0.52525 0.83248 0.36827
 C1009 C 0.53443 0.84222 0.39033
 C1010 C 0.55633 0.82787 0.40514
 C1011 C 0.56447 0.80161 0.39739
 H1012 H 0.55444 0.79161 0.38056
 O1013 O 0.63377 0.90223 0.47087
 O1014 O 0.66549 0.87058 0.47079
 C1015 C 0.65589 0.89270 0.46160
 C1016 C 0.67034 0.90733 0.43966
 C1017 C 0.69660 0.89951 0.43174
 H1018 H 0.70649 0.88273 0.44196
 O1019 O 0.36286 1.09720 0.47186
 O1020 O 0.33112 1.12883 0.47181
 C1021 C 0.34070 1.10663 0.46266
 C1022 C 0.32626 1.09178 0.44082
 C1023 C 0.29994 1.09942 0.43293
 H1024 H 0.28972 1.11579 0.44351
 O1025 O 0.52387 1.09646 0.36174
 O1026 O 0.52362 1.12799 0.32995
 C1027 C 0.53295 1.10592 0.33953
 C1028 C 0.55505 1.09139 0.32514
 C1029 C 0.56297 1.09909 0.29885
 H1030 H 0.55207 1.11515 0.28851
 O1031 O 0.47206 0.90133 0.36253
 O1032 O 0.47203 0.86963 0.33084
 C1033 C 0.46277 0.89176 0.34046
 C1034 C 0.44065 0.90635 0.32623
 C1035 C 0.43269 0.89871 0.29994
 H1036 H 0.44346 0.88256 0.28955
 O1037 O 0.63360 1.02636 0.39950
 O1038 O 0.66545 1.02655 0.36802
 C1039 C 0.65579 1.03564 0.39017
 C1040 C 0.67022 1.05743 0.40515
 C1041 C 0.69653 1.06547 0.39756
 H1042 H 0.70674 1.05506 0.38108
 O1043 O 0.36273 0.97219 0.40047
 O1044 O 0.33073 0.97192 0.36919
 C1045 C 0.34053 0.96284 0.39123
 C1046 C 0.32626 0.94092 0.40612
 C1047 C 0.29993 0.93296 0.39864
 H1048 H 0.28986 0.94314 0.38197
 O1049 O 0.59615 1.13382 0.47151
 O1050 O 0.62781 1.16555 0.47102
 C1051 C 0.60588 1.15561 0.46168
 C1052 C 0.59220 1.16891 0.43843
 C1053 C 0.60421 1.19154 0.42580
 H1054 H 0.62303 1.19977 0.43366
 O1055 O 0.40074 0.86390 0.47196
 O1056 O 0.36943 0.83180 0.47202
 C1057 C 0.39145 0.84164 0.46274
 C1058 C 0.40624 0.82737 0.44072
 C1059 C 0.39869 0.80099 0.43277
 H1060 H 0.38250 0.79060 0.44347
 O1061 O 0.39984 0.97226 0.36319
 O1062 O 0.36811 0.97198 0.33164
 C1063 C 0.39035 0.96294 0.34111
 C1064 C 0.40523 0.94117 0.32658
 C1065 C 0.39754 0.93326 0.30031
 H1066 H 0.38066 0.94334 0.29048
 O1067 O 0.59655 1.02616 0.36215
 O1068 O 0.62811 1.02635 0.33037
 C1069 C 0.60589 1.03536 0.33996
 C1070 C 0.59083 1.05696 0.32543
 C1071 C 0.59848 1.06492 0.29916
 H1072 H 0.61550 1.05502 0.28932
 O1073 O 0.47223 0.86438 0.39991
 O1074 O 0.47223 0.83241 0.36850
 C1075 C 0.46306 0.84210 0.39060
 C1076 C 0.44126 0.82760 0.40549
 C1077 C 0.43341 0.80123 0.39783
 H1078 H 0.44358 0.79129 0.38103
 O1079 O 0.52431 1.13292 0.39958
 O1080 O 0.52449 1.16454 0.36788
 C1081 C 0.53392 1.15479 0.38982
 C1082 C 0.55703 1.16846 0.40340
 C1083 C 0.56929 1.19116 0.39125
 H1084 H 0.56075 1.19962 0.37286
 O1085 O 0.36313 0.90067 0.47212
 O1086 O 0.33153 0.86886 0.47219
 C1087 C 0.34099 0.89107 0.46298
 C1088 C 0.32646 0.90575 0.44115
 C1089 C 0.30009 0.89805 0.43338
 H1090 H 0.28988 0.88174 0.44406
 O1091 O 0.63376 1.09721 0.47204
 O1092 O 0.66555 1.12884 0.47200
 C1093 C 0.65596 1.10666 0.46284
 C1094 C 0.67037 1.09198 0.44086
 C1095 C 0.69667 1.09975 0.43297
 H1096 H 0.70669 1.11637 0.44337
 O1097 O 0.52507 0.90152 0.36238
 O1098 O 0.52512 0.86983 0.33069
 C1099 C 0.53430 0.89203 0.34024
 C1100 C 0.55623 0.90680 0.32582
 C1101 C 0.56416 0.89916 0.29950
 H1102 H 0.55351 0.88285 0.28924
 O1103 O 0.47085 1.09643 0.36229
 O1104 O 0.47067 1.12820 0.33075
 C1105 C 0.46149 1.10603 0.34029
 C1106 C 0.43942 1.09142 0.32600
 C1107 C 0.43128 1.09922 0.29984
 H1108 H 0.44191 1.11555 0.28959
 O1109 O 0.36271 1.02524 0.40048
 O1110 O 0.33070 1.02503 0.36921
 C1111 C 0.34047 1.03438 0.39119
 C1112 C 0.32613 1.05638 0.40595
 C1113 C 0.29983 1.06430 0.39833
 H1114 H 0.28980 1.05401 0.38167
 O1115 O 0.63397 0.97340 0.39919
 O1116 O 0.66581 0.97346 0.36768
 C1117 C 0.65617 0.96422 0.38976
 C1118 C 0.67051 0.94229 0.40447
 C1119 C 0.69680 0.93421 0.39681
 H1120 H 0.70710 0.94477 0.38049
 O1121 O 0.59663 0.86478 0.47130
 O1122 O 0.62813 0.83293 0.47141
 C1123 C 0.60602 0.84250 0.46221
 C1124 C 0.59131 0.82799 0.44032
 C1125 C 0.59916 0.80171 0.43230
 H1126 H 0.61547 0.79152 0.44294
 O1127 O 0.40012 1.13439 0.47178
 O1128 O 0.36867 1.16630 0.47172
 C1129 C 0.39076 1.15658 0.46252
 C1130 C 0.40553 1.17086 0.44054
 C1131 C 0.39799 1.19722 0.43259
 H1132 H 0.38180 1.20760 0.44329
 Cu1133 Cu 0.61203 0.99980 0.38396
 Cu1134 Cu 0.65007 0.99996 0.34597
 Cu1135 Cu 0.38432 0.99875 0.38486
 Cu1136 Cu 0.34605 0.99844 0.34717
 Cu1137 Cu 0.61177 1.11272 0.49837
 Cu1138 Cu 0.64961 1.15097 0.49806
 Cu1139 Cu 0.61209 0.88691 0.49751
 Cu1140 Cu 0.65016 0.84892 0.49752
 Cu1141 Cu 0.38463 1.11270 0.49828
 Cu1142 Cu 0.34672 1.15083 0.49826
 Cu1143 Cu 0.38513 0.88548 0.49849
 Cu1144 Cu 0.34740 0.84712 0.49862
 Cu1145 Cu 0.49751 1.11168 0.38393
 Cu1146 Cu 0.49748 1.14985 0.34610
 Cu1147 Cu 0.49864 0.88611 0.38425
 Cu1148 Cu 0.49866 0.84789 0.34640
 C1149 C 0.56979 0.92839 0.33867
 H1150 H 0.56396 0.93422 0.35906
 C1151 C 0.58540 0.91282 0.28610
 C1152 C 0.42595 1.06981 0.33885
 H1153 H 0.43196 1.06388 0.35913
 C1154 C 0.40988 1.08570 0.28657
 C1155 C 0.42698 1.15783 0.42693
 H1156 H 0.43272 1.13739 0.43276
 C1157 C 0.41158 1.21050 0.41127
 C1158 C 0.56973 0.84077 0.42676
 H1159 H 0.56377 0.86114 0.43265
 C1160 C 0.58576 0.78828 0.41095
 C1161 C 0.65758 0.92887 0.42606
 H1162 H 0.63722 0.93481 0.43191
 C1163 C 0.71009 0.91294 0.41046
 C1164 C 0.33906 1.07009 0.42735
 H1165 H 0.35946 1.06426 0.43315
 C1166 C 0.28648 1.08568 0.41181
 C1167 C 0.56895 1.07015 0.33812
 H1168 H 0.56314 1.06431 0.35850
 C1169 C 0.58457 1.08585 0.28561
 C1170 C 0.42694 0.92774 0.33925
 H1171 H 0.43280 0.93357 0.35963
 C1172 C 0.41126 0.91218 0.28673
 C1173 C 0.65743 1.07066 0.42698
 H1174 H 0.63703 1.06476 0.43277
 C1175 C 0.71000 1.08651 0.41146
 C1176 C 0.33924 0.92736 0.42754
 H1177 H 0.35967 0.93323 0.43323
 C1178 C 0.28658 0.91169 0.41226
 C1179 C 0.56849 1.15760 0.42716
 H1180 H 0.55947 1.13974 0.43636
 C1181 C 0.59309 1.20253 0.40201
 C1182 C 0.42769 0.84040 0.42710
 H1183 H 0.43345 0.86084 0.43294
 C1184 C 0.41227 0.78768 0.41145
 O1185 O 0.59632 0.52609 1.13410
 O1186 O 0.62794 0.52564 1.16575
 C1187 C 0.60583 0.53500 1.15636
 C1188 C 0.59133 0.55693 1.17104
 C1189 C 0.59937 0.56486 1.19721
 H1190 H 0.61609 0.55449 1.20702
 O1191 O 0.40204 0.47281 1.13457
 O1192 O 0.37036 0.47273 1.16625
 C1193 C 0.39249 0.46355 1.15668
 C1194 C 0.40706 0.44151 1.17100
 C1195 C 0.39931 0.43352 1.19724
 H1196 H 0.38270 0.44388 1.20729
 O1197 O 0.52570 0.63512 1.09742
 O1198 O 0.52585 0.66703 1.12889
 C1199 C 0.53488 0.65739 1.10670
 C1200 C 0.55646 0.67197 1.09160
 C1201 C 0.56439 0.69832 1.09921
 H1202 H 0.55452 0.70817 1.11623
 O1203 O 0.47171 0.36370 1.09581
 O1204 O 0.47163 0.33176 1.12720
 C1205 C 0.46250 0.34145 1.10513
 C1206 C 0.44080 0.32694 1.09022
 C1207 C 0.43279 0.30065 1.09794
 H1208 H 0.44269 0.29083 1.11492
 O1209 O 0.63285 0.59841 1.02473
 O1210 O 0.66430 0.63036 1.02495
 C1211 C 0.65465 0.60829 1.03432
 C1212 C 0.66832 0.59462 1.05731
 C1213 C 0.69125 0.60651 1.06938
 H1214 H 0.69990 0.62483 1.06076
 O1215 O 0.36526 0.40135 1.02415
 O1216 O 0.33359 0.36962 1.02437
 C1217 C 0.34342 0.39160 1.03380
 C1218 C 0.32989 0.40526 1.05697
 C1219 C 0.30692 0.39340 1.06898
 H1220 H 0.29817 0.37519 1.06022
 O1221 O 0.47290 0.59802 1.13482
 O1222 O 0.47290 0.62958 1.16664
 C1223 C 0.46371 0.60743 1.15700
 C1224 C 0.44183 0.59254 1.17135
 C1225 C 0.43369 0.60016 1.19760
 H1226 H 0.44413 0.61660 1.20787
 O1227 O 0.52510 0.40070 1.13252
 O1228 O 0.52544 0.36866 1.16379
 C1229 C 0.53477 0.39078 1.15422
 C1230 C 0.55780 0.40449 1.16786
 C1231 C 0.57015 0.39243 1.19048
 H1232 H 0.56173 0.37392 1.19894
 O1233 O 0.63318 0.47349 1.09578
 O1234 O 0.66514 0.47346 1.12710
 C1235 C 0.65523 0.46403 1.10522
 C1236 C 0.66880 0.44094 1.09142
 C1237 C 0.69177 0.42877 1.10314
 H1238 H 0.70015 0.43700 1.12173
 O1239 O 0.36519 0.52587 1.09721
 O1240 O 0.33339 0.52582 1.12875
 C1241 C 0.34318 0.53529 1.10684
 C1242 C 0.32949 0.55823 1.09302
 C1243 C 0.30648 0.57046 1.10473
 H1244 H 0.29822 0.56248 1.12348
 O1245 O 0.40230 0.63530 1.02574
 O1246 O 0.37060 0.66697 1.02581
 C1247 C 0.39272 0.65744 1.03500
 C1248 C 0.40720 0.67189 1.05704
 C1249 C 0.39930 0.69815 1.06502
 H1250 H 0.38309 0.70837 1.05425
 O1251 O 0.59602 0.36316 1.02389
 O1252 O 0.62745 0.33121 1.02386
 C1253 C 0.60531 0.34086 1.03299
 C1254 C 0.59045 0.32637 1.05476
 C1255 C 0.59810 0.30002 1.06266
 H1256 H 0.61440 0.28976 1.05202
 O1257 O 0.40214 0.52584 1.13454
 O1258 O 0.37046 0.52563 1.16621
 C1259 C 0.39258 0.53496 1.15670
 C1260 C 0.40712 0.55697 1.17121
 C1261 C 0.39923 0.56487 1.19745
 H1262 H 0.38252 0.55450 1.20734
 O1263 O 0.59624 0.47297 1.13303
 O1264 O 0.62822 0.47259 1.16433
 C1265 C 0.60620 0.46319 1.15469
 C1266 C 0.59271 0.43988 1.16814
 C1267 C 0.60483 0.42738 1.19071
 H1268 H 0.62361 0.43544 1.19885
 O1269 O 0.52457 0.36322 1.09569
 O1270 O 0.52446 0.33106 1.12686
 C1271 C 0.53362 0.34084 1.10482
 C1272 C 0.55535 0.32637 1.08986
 C1273 C 0.56326 0.30003 1.09747
 H1274 H 0.55312 0.29005 1.11425
 O1275 O 0.47288 0.63533 1.09787
 O1276 O 0.47287 0.66722 1.12937
 C1277 C 0.46369 0.65755 1.10728
 C1278 C 0.44188 0.67195 1.09246
 C1279 C 0.43372 0.69820 1.10019
 H1280 H 0.44365 0.70817 1.11709
 O1281 O 0.36549 0.59759 1.02559
 O1282 O 0.33373 0.62919 1.02579
 C1283 C 0.34347 0.60715 1.03503
 C1284 C 0.32965 0.59323 1.05782
 C1285 C 0.30656 0.60495 1.06970
 H1286 H 0.29786 0.62318 1.06098
 O1287 O 0.63263 0.40103 1.02436
 O1288 O 0.66415 0.36920 1.02474
 C1289 C 0.65448 0.39133 1.03396
 C1290 C 0.66828 0.40533 1.05673
 C1291 C 0.69130 0.39361 1.06872
 H1292 H 0.69984 0.37516 1.06026
 O1293 O 0.47217 0.40038 1.13368
 O1294 O 0.47234 0.36871 1.16533
 C1295 C 0.46319 0.39093 1.15594
 C1296 C 0.44157 0.40584 1.17063
 C1297 C 0.43359 0.39810 1.19689
 H1298 H 0.44401 0.38156 1.20696
 O1299 O 0.52576 0.59817 1.13483
 O1300 O 0.52595 0.62975 1.16663
 C1301 C 0.53502 0.60757 1.15698
 C1302 C 0.55684 0.59263 1.17126
 C1303 C 0.56511 0.60031 1.19744
 H1304 H 0.55480 0.61683 1.20771
 O1305 O 0.36555 0.47267 1.09680
 O1306 O 0.33377 0.47243 1.12835
 C1307 C 0.34360 0.46308 1.10638
 C1308 C 0.32996 0.44010 1.09245
 C1309 C 0.30706 0.42776 1.10421
 H1310 H 0.29890 0.43563 1.12306
 O1311 O 0.63295 0.52676 1.09629
 O1312 O 0.66465 0.52678 1.12786
 C1313 C 0.65485 0.53632 1.10601
 C1314 C 0.66844 0.55949 1.09239
 C1315 C 0.69131 0.57181 1.10422
 H1316 H 0.69953 0.56376 1.12294
 O1317 O 0.40135 0.36321 1.02349
 O1318 O 0.36977 0.33137 1.02328
 C1319 C 0.39185 0.34096 1.03257
 C1320 C 0.40635 0.32657 1.05459
 C1321 C 0.39858 0.30025 1.06257
 H1322 H 0.38246 0.28988 1.05177
 O1323 O 0.59600 0.63580 1.02446
 O1324 O 0.62735 0.66786 1.02423
 C1325 C 0.60535 0.65809 1.03358
 C1326 C 0.59079 0.67238 1.05572
 C1327 C 0.59844 0.69875 1.06362
 H1328 H 0.61444 0.70919 1.05268
 Cu1329 Cu 0.61150 0.49992 1.11164
 Cu1330 Cu 0.64973 0.49965 1.14936
 Cu1331 Cu 0.38689 0.49932 1.11261
 Cu1332 Cu 0.34870 0.49914 1.15046
 Cu1333 Cu 0.49931 0.61349 1.11310
 Cu1334 Cu 0.49942 0.65159 1.15108
 Cu1335 Cu 0.49830 0.38521 1.11131
 Cu1336 Cu 0.49842 0.34689 1.14902
 C1337 C 0.56992 0.57078 1.15837
 H1338 H 0.56384 0.56496 1.13807
 C1339 C 0.58628 0.58644 1.21066
 C1340 C 0.42834 0.42771 1.15800
 H1341 H 0.43419 0.43359 1.13764
 C1342 C 0.41257 0.41196 1.21045
 C1343 C 0.56963 0.65928 1.06969
 H1344 H 0.56381 0.63884 1.06388
 C1345 C 0.58525 0.71196 1.08525
 C1346 C 0.42763 0.33960 1.06840
 H1347 H 0.43354 0.35999 1.06254
 C1348 C 0.41182 0.28705 1.08413
 C1349 C 0.65722 0.57093 1.06880
 H1350 H 0.63922 0.56194 1.05991
 C1351 C 0.70264 0.59550 1.09303
 C1352 C 0.34114 0.42880 1.06869
 H1353 H 0.35919 0.43777 1.05986
 C1354 C 0.29565 0.40421 1.09281
 C1355 C 0.42857 0.57079 1.15846
 H1356 H 0.43455 0.56497 1.13811
 C1357 C 0.41250 0.58633 1.21090
 C1358 C 0.56906 0.42840 1.15699
 H1359 H 0.55996 0.43753 1.13920
 C1360 C 0.59388 0.40347 1.20177
 C1361 C 0.65731 0.42918 1.06806
 H1362 H 0.63920 0.43803 1.05928
 C1363 C 0.70290 0.40491 1.09215
 C1364 C 0.34081 0.56967 1.06943
 H1365 H 0.35896 0.56082 1.06067
 C1366 C 0.29515 0.59403 1.09339
 C1367 C 0.42864 0.65909 1.07073
 H1368 H 0.43464 0.63873 1.06484
 C1369 C 0.41253 0.71155 1.08649
 C1370 C 0.56890 0.33925 1.06833
 H1371 H 0.56310 0.35969 1.06256
 C1372 C 0.58451 0.28661 1.08390
 O1373 O 0.59761 0.47300 0.86324
 O1374 O 0.62922 0.47337 0.83152
 C1375 C 0.60707 0.46406 0.84097
 C1376 C 0.59230 0.44227 0.82630
 C1377 C 0.60015 0.43438 0.80003
 H1378 H 0.61699 0.44457 0.79019
 O1379 O 0.40126 0.52540 0.86229
 O1380 O 0.36969 0.52540 0.83057
 C1381 C 0.39186 0.53455 0.84010
 C1382 C 0.40664 0.55644 0.82569
 C1383 C 0.39913 0.56431 0.79935
 H1384 H 0.38298 0.55353 0.78901
 O1385 O 0.47165 0.63489 0.90025
 O1386 O 0.47161 0.66653 0.86856
 C1387 C 0.46249 0.65706 0.89074
 C1388 C 0.44084 0.67170 0.90559
 C1389 C 0.43268 0.69787 0.89767
 H1390 H 0.44246 0.70758 0.88053
 O1391 O 0.52565 0.36397 0.89898
 O1392 O 0.52579 0.33225 0.86731
 C1393 C 0.53486 0.34179 0.88949
 C1394 C 0.55660 0.32728 0.90429
 C1395 C 0.56453 0.30095 0.89659
 H1396 H 0.55446 0.29103 0.87974
 O1397 O 0.63371 0.40060 0.97147
 O1398 O 0.66559 0.36912 0.97175
 C1399 C 0.65603 0.39125 0.96252
 C1400 C 0.67067 0.40610 0.94085
 C1401 C 0.69704 0.39846 0.93311
 H1402 H 0.70693 0.38166 0.94330
 O1403 O 0.36575 0.59761 0.97255
 O1404 O 0.33403 0.62924 0.97269
 C1405 C 0.34381 0.60731 0.96314
 C1406 C 0.33017 0.59379 0.94000
 C1407 C 0.30759 0.60612 0.92781
 H1408 H 0.29914 0.62450 0.93652
 O1409 O 0.52498 0.59725 0.86409
 O1410 O 0.52532 0.62904 0.83256
 C1411 C 0.53470 0.60706 0.84234
 C1412 C 0.55801 0.59360 0.82895
 C1413 C 0.57051 0.60604 0.80662
 H1414 H 0.56188 0.62441 0.79811
 O1415 O 0.47285 0.40131 0.86200
 O1416 O 0.47292 0.36988 0.83004
 C1417 C 0.46365 0.39192 0.83982
 C1418 C 0.44159 0.40659 0.82565
 C1419 C 0.43368 0.39904 0.79934
 H1420 H 0.44449 0.38294 0.78892
 O1421 O 0.63475 0.52565 0.90110
 O1422 O 0.66688 0.52569 0.86989
 C1423 C 0.65703 0.53489 0.89190
 C1424 C 0.67120 0.55699 0.90667
 C1425 C 0.69751 0.56512 0.89910
 H1426 H 0.70799 0.55436 0.88302
 O1427 O 0.36384 0.47294 0.89995
 O1428 O 0.33173 0.47323 0.86879
 C1429 C 0.34145 0.46397 0.89079
 C1430 C 0.32699 0.44217 0.90571
 C1431 C 0.30052 0.43442 0.89840
 H1432 H 0.29014 0.44515 0.88227
 O1433 O 0.59611 0.63552 0.97150
 O1434 O 0.62770 0.66734 0.97133
 C1435 C 0.60557 0.65768 0.96221
 C1436 C 0.59084 0.67204 0.94032
 C1437 C 0.59862 0.69830 0.93222
 H1438 H 0.61503 0.70855 0.94269
 O1439 O 0.40151 0.36401 0.97055
 O1440 O 0.36972 0.33240 0.97040
 C1441 C 0.39187 0.34195 0.96120
 C1442 C 0.40644 0.32758 0.93914
 C1443 C 0.39863 0.30130 0.93110
 H1444 H 0.38231 0.29106 0.94173
 O1445 O 0.40110 0.47245 0.86274
 O1446 O 0.36930 0.47246 0.83126
 C1447 C 0.39148 0.46324 0.84067
 C1448 C 0.40620 0.44140 0.82608
 C1449 C 0.39851 0.43357 0.79977
 H1450 H 0.38168 0.44371 0.78992
 O1451 O 0.59750 0.52607 0.86421
 O1452 O 0.62950 0.52662 0.83288
 C1453 C 0.60741 0.53590 0.84254
 C1454 C 0.59371 0.55904 0.82907
 C1455 C 0.60603 0.57203 0.80686
 H1456 H 0.62520 0.56454 0.79904
 O1457 O 0.47278 0.36409 0.89899
 O1458 O 0.47281 0.33237 0.86732
 C1459 C 0.46356 0.34194 0.88944
 C1460 C 0.44158 0.32753 0.90408
 C1461 C 0.43350 0.30126 0.89629
 H1462 H 0.44365 0.29129 0.87951
 O1463 O 0.52451 0.63526 0.90028
 O1464 O 0.52441 0.66714 0.86882
 C1465 C 0.53362 0.65753 0.89089
 C1466 C 0.55551 0.67203 0.90555
 C1467 C 0.56355 0.69828 0.89770
 H1468 H 0.55335 0.70821 0.88096
 O1469 O 0.36415 0.40119 0.97121
 O1470 O 0.33212 0.36982 0.97135
 C1471 C 0.34178 0.39197 0.96224
 C1472 C 0.32718 0.40699 0.94071
 C1473 C 0.30073 0.39950 0.93313
 H1474 H 0.29078 0.38275 0.94338
 O1475 O 0.63350 0.59830 0.97182
 O1476 O 0.66532 0.62988 0.97194
 C1477 C 0.65581 0.60765 0.96283
 C1478 C 0.67056 0.59264 0.94128
 C1479 C 0.69686 0.60049 0.93343
 H1480 H 0.70657 0.61754 0.94342
 O1481 O 0.52580 0.40159 0.86228
 O1482 O 0.52599 0.37016 0.83033
 C1483 C 0.53513 0.39227 0.84012
 C1484 C 0.55715 0.40711 0.82595
 C1485 C 0.56525 0.39952 0.79971
 H1486 H 0.55462 0.38326 0.78934
 O1487 O 0.47200 0.59761 0.86292
 O1488 O 0.47226 0.62900 0.83100
 C1489 C 0.46307 0.60686 0.84060
 C1490 C 0.44149 0.59185 0.82597
 C1491 C 0.43373 0.59946 0.79965
 H1492 H 0.44386 0.61633 0.78978
 O1493 O 0.36498 0.52602 0.90020
 O1494 O 0.33328 0.52653 0.86864
 C1495 C 0.34321 0.53586 0.89057
 C1496 C 0.32989 0.55907 0.90441
 C1497 C 0.30742 0.57192 0.89245
 H1498 H 0.29934 0.56430 0.87348
 O1499 O 0.63453 0.47260 0.90071
 O1500 O 0.66643 0.47265 0.86927
 C1501 C 0.65670 0.46336 0.89127
 C1502 C 0.67097 0.44131 0.90591
 C1503 C 0.69735 0.43342 0.89842
 H1504 H 0.70775 0.44417 0.88229
 O1505 O 0.59629 0.36357 0.97098
 O1506 O 0.62793 0.33183 0.97100
 C1507 C 0.60587 0.34145 0.96171
 C1508 C 0.59137 0.32712 0.93961
 C1509 C 0.59904 0.30078 0.93167
 H1510 H 0.61518 0.29044 0.94243
 O1511 O 0.40197 0.63573 0.97278
 O1512 O 0.37028 0.66741 0.97304
 C1513 C 0.39233 0.65788 0.96366
 C1514 C 0.40661 0.67220 0.94144
 C1515 C 0.39866 0.69839 0.93330
 H1516 H 0.38257 0.70876 0.94416
 Cu1517 Cu 0.61292 0.49923 0.88545
 Cu1518 Cu 0.65117 0.49954 0.84767
 Cu1519 Cu 0.38596 0.49911 0.88444
 Cu1520 Cu 0.34772 0.49935 0.84673
 Cu1521 Cu 0.61144 0.61384 0.99804
 Cu1522 Cu 0.64938 0.65202 0.99803
 Cu1523 Cu 0.61149 0.38525 0.99762
 Cu1524 Cu 0.64950 0.34719 0.99784
 Cu1525 Cu 0.38709 0.61341 0.99917
 Cu1526 Cu 0.34886 0.65127 0.99939
 Cu1527 Cu 0.38627 0.38558 0.99727
 Cu1528 Cu 0.34805 0.34768 0.99728
 Cu1529 Cu 0.49815 0.61308 0.88506
 Cu1530 Cu 0.49834 0.65103 0.84696
 Cu1531 Cu 0.49927 0.38590 0.88373
 Cu1532 Cu 0.49941 0.34800 0.84552
 C1533 C 0.57064 0.42865 0.83897
 H1534 H 0.56467 0.43441 0.85933
 C1535 C 0.58664 0.41310 0.78651
 C1536 C 0.42799 0.57018 0.83869
 H1537 H 0.43368 0.56441 0.85912
 C1538 C 0.41269 0.58570 0.78608
 C1539 C 0.42784 0.65917 0.92761
 H1540 H 0.43385 0.63887 0.93362
 C1541 C 0.41171 0.71148 0.91151
 C1542 C 0.57000 0.34007 0.92595
 H1543 H 0.56416 0.36049 0.93181
 C1544 C 0.58561 0.28745 0.91028
 C1545 C 0.65793 0.42768 0.92728
 H1546 H 0.63748 0.43350 0.93298
 C1547 C 0.71063 0.41211 0.91202
 C1548 C 0.34105 0.57007 0.92831
 H1549 H 0.35882 0.56074 0.93728
 C1550 C 0.29644 0.59568 0.90380
 C1551 C 0.56958 0.56990 0.83991
 H1552 H 0.56034 0.56049 0.85751
 C1553 C 0.59477 0.59577 0.79583
 C1554 C 0.42788 0.42792 0.83873
 H1555 H 0.43374 0.43367 0.85913
 C1556 C 0.41225 0.41251 0.78616
 C1557 C 0.65803 0.57073 0.92794
 H1558 H 0.63763 0.56477 0.93367
 C1559 C 0.71057 0.58676 0.91246
 C1560 C 0.34002 0.42850 0.92704
 H1561 H 0.36054 0.43417 0.93260
 C1562 C 0.28714 0.41320 0.91212
 C1563 C 0.56913 0.65920 0.92702
 H1564 H 0.56322 0.63884 0.93298
 C1565 C 0.58499 0.71166 0.91101
 C1566 C 0.42806 0.34039 0.92566
 H1567 H 0.43402 0.36076 0.93160
 C1568 C 0.41215 0.28790 0.90979
 C1569 C 1.10802 1.10956 1.29235
 C1570 C 1.10150 1.12969 1.27339
 C1571 C 1.09402 1.12244 1.24697
 C1572 C 1.12167 1.12266 1.34263
 C1573 C 1.09957 1.07485 1.25842
 C1574 C 1.10703 1.08214 1.28480
 C1575 C 1.11552 1.11689 1.31963
 C1576 C 1.09299 1.09491 1.23918
 H1577 H 1.10223 1.15099 1.27901
 H1578 H 1.08938 1.13836 1.23255
 H1579 H 1.09861 1.05348 1.25318
 H1580 H 1.11191 1.06637 1.29933
 C1581 C 1.13875 0.64059 0.76300
 C1582 C 1.13614 0.61234 0.76535
 C1583 C 1.12128 0.59776 0.74604
 C1584 C 1.16830 0.66888 0.79756
 C1585 C 1.11147 0.63978 0.72226
 C1586 C 1.12628 0.65427 0.74154
 C1587 C 1.15477 0.65567 0.78207
 C1588 C 1.10889 0.61135 0.72423
 H1589 H 1.14577 0.60160 0.78194
 H1590 H 1.11949 0.57591 0.74811
 H1591 H 1.10263 0.65074 0.70540
 H1592 H 1.12834 0.67612 0.73949
 C1593 C 0.60837 1.10908 0.79088
 C1594 C 0.60698 1.08164 0.78346
 C1595 C 0.59948 1.07434 0.75710
 C1596 C 0.62185 1.12247 0.84112
 C1597 C 0.59469 1.12196 0.74542
 C1598 C 0.60221 1.12922 0.77181
 C1599 C 0.61581 1.11647 0.81815
 C1600 C 0.59324 1.09442 0.73776
 H1601 H 0.61158 1.06587 0.79809
 H1602 H 0.59819 1.05296 0.75195
 H1603 H 0.59033 1.13789 0.73091
 H1604 H 0.60325 1.15053 0.77733
 C1605 C 0.61022 0.60962 1.29139
 C1606 C 0.60854 0.58211 1.28428
 C1607 C 0.60087 0.57457 1.25802
 C1608 C 0.62355 0.62347 1.34155
 C1609 C 0.59659 0.62211 1.24580
 C1610 C 0.60428 0.62959 1.27208
 C1611 C 0.61761 0.61727 1.31861
 C1612 C 0.59474 0.59449 1.23848
 H1613 H 0.61297 0.56647 1.29909
 H1614 H 0.59929 0.55316 1.25313
 H1615 H 0.59235 0.63791 1.23113
 H1616 H 0.60555 0.65095 1.27735
 C1617 C 0.88759 0.88933 1.29097
 C1618 C 0.88829 0.91689 1.28392
 C1619 C 0.89567 0.92471 1.25766
 C1620 C 0.87445 0.87521 1.34110
 C1621 C 0.90160 0.87736 1.24531
 C1622 C 0.89420 0.86959 1.27160
 C1623 C 0.88038 0.88144 1.31817
 C1624 C 0.90249 0.90503 1.23806
 H1625 H 0.88330 0.93236 1.29877
 H1626 H 0.89650 0.94617 1.25282
 H1627 H 0.90639 0.86172 1.23059
 H1628 H 0.89368 0.84819 1.27681
 C1629 C 0.88998 0.38971 0.79360
 C1630 C 0.87006 0.39539 0.77419
 C1631 C 0.87759 0.40265 0.74780
 C1632 C 0.87608 0.37659 0.84378
 C1633 C 0.92505 0.39847 0.76016
 C1634 C 0.91747 0.39123 0.78652
 C1635 C 0.88229 0.38252 0.82085
 C1636 C 0.90519 0.40431 0.74050
 H1637 H 0.84872 0.39421 0.77944
 H1638 H 0.86184 0.40669 0.73304
 H1639 H 0.94644 0.39992 0.75526
 H1640 H 0.93306 0.38696 0.80141
 C1641 C 0.38753 0.88933 0.79061
 C1642 C 0.38880 0.91683 0.78343
 C1643 C 0.39628 0.92436 0.75712
 C1644 C 0.37419 0.87564 0.84080
 C1645 C 0.40124 0.87684 0.74499
 C1646 C 0.39373 0.86936 0.77133
 C1647 C 0.38018 0.88172 0.81785
 C1648 C 0.40263 0.90445 0.73760
 H1649 H 0.38415 0.93247 0.79822
 H1650 H 0.39752 0.94578 0.75218
 H1651 H 0.40568 0.86104 0.73034
 H1652 H 0.39278 0.84800 0.77666
 C1653 C 0.38904 0.38900 1.29138
 C1654 C 0.39081 0.41649 1.28426
 C1655 C 0.39844 0.42394 1.25797
 C1656 C 0.37557 0.37539 1.34158
 C1657 C 0.40256 0.37637 1.24573
 C1658 C 0.39491 0.36896 1.27206
 C1659 C 0.38157 0.38146 1.31861
 C1660 C 0.40442 0.40396 1.23838
 H1661 H 0.38644 0.43218 1.29908
 H1662 H 0.40004 0.44534 1.25306
 H1663 H 0.40670 0.36052 1.23104
 H1664 H 0.39359 0.34762 1.27734
 C1665 C 0.88867 1.10785 0.70490
 C1666 C 0.89035 1.08048 0.71243
 C1667 C 0.89795 1.07345 0.73881
 C1668 C 0.87511 1.12111 0.65472
 C1669 C 0.90228 1.12121 0.75027
 C1670 C 0.89466 1.12820 0.72386
 C1671 C 0.88115 1.11503 0.67764
 C1672 C 0.90398 1.09374 0.75805
 H1673 H 0.88590 1.06457 0.69787
 H1674 H 0.89944 1.05213 0.74408
 H1675 H 0.90649 1.13728 0.76470
 H1676 H 0.89342 1.14945 0.71823
 C1677 C 0.86194 0.63517 0.23445
 C1678 C 0.89022 0.63259 0.23315
 C1679 C 0.90411 0.61834 0.25339
 C1680 C 0.83469 0.66430 0.19871
 C1681 C 0.86135 0.60903 0.27601
 C1682 C 0.84755 0.62323 0.25580
 C1683 C 0.84752 0.65088 0.21461
 C1684 C 0.88980 0.60652 0.27511
 H1685 H 0.90153 0.64183 0.21670
 H1686 H 0.92600 0.61658 0.25210
 H1687 H 0.84980 0.60064 0.29274
 H1688 H 0.82567 0.62528 0.25709
 C1689 C 0.38703 1.10902 0.20562
 C1690 C 0.39316 1.12896 0.22495
 C1691 C 0.40045 1.12142 0.25132
 C1692 C 0.37432 1.12282 0.15530
 C1693 C 0.39537 1.07393 0.23914
 C1694 C 0.38809 1.08151 0.21279
 C1695 C 0.38001 1.11669 0.17832
 C1696 C 0.40171 1.09380 0.25870
 H1697 H 0.39236 1.15032 0.21964
 H1698 H 0.40488 1.13720 0.26600
 H1699 H 0.39649 1.05251 0.24407
 H1700 H 0.38349 1.06590 0.19797
 C1701 C 0.39026 0.60896 0.70503
 C1702 C 0.41765 0.60773 0.71244
 C1703 C 0.42494 0.60019 0.73878
 C1704 C 0.37686 0.62256 0.65486
 C1705 C 0.37738 0.59505 0.75046
 C1706 C 0.37014 0.60261 0.72409
 C1707 C 0.38287 0.61646 0.67779
 C1708 C 0.40489 0.59374 0.75810
 H1709 H 0.43340 0.61249 0.69782
 H1710 H 0.44628 0.59902 0.74393
 H1711 H 0.36147 0.59054 0.76495
 H1712 H 0.34886 0.60353 0.71858
 C1713 C 1.10792 0.89095 0.70461
 C1714 C 1.12791 0.89669 0.72396
 C1715 C 1.12048 0.90398 0.75037
 C1716 C 1.12161 0.87769 0.65439
 C1717 C 1.07298 0.89971 0.73820
 C1718 C 1.08046 0.89244 0.71180
 C1719 C 1.11552 0.88371 0.67734
 C1720 C 1.09291 0.90562 0.75778
 H1721 H 1.14923 0.89554 0.71863
 H1722 H 1.13629 0.90806 0.76508
 H1723 H 1.05160 0.90113 0.74317
 H1724 H 1.06482 0.88812 0.69697
 C1725 C 1.13641 0.36144 0.23538
 C1726 C 1.13378 0.38975 0.23393
 C1727 C 1.11952 0.40377 0.25413
 C1728 C 1.16514 0.33392 0.19946
 C1729 C 1.11039 0.36109 0.27702
 C1730 C 1.12459 0.34716 0.25686
 C1731 C 1.15195 0.34687 0.21547
 C1732 C 1.10777 0.38956 0.27595
 H1733 H 1.14293 0.40096 0.21737
 H1734 H 1.11769 0.42566 0.25273
 H1735 H 1.10206 0.34963 0.29384
 H1736 H 1.12669 0.32527 0.25825
 C1737 C 0.60848 0.89025 0.20493
 C1738 C 0.60239 0.87012 0.22407
 C1739 C 0.59489 0.87741 0.25048
 C1740 C 0.62186 0.87682 0.15466
 C1741 C 0.59960 0.92503 0.23869
 C1742 C 0.60707 0.91770 0.21232
 C1743 C 0.61587 0.88282 0.17764
 C1744 C 0.59341 0.90496 0.25809
 H1745 H 0.60344 0.84881 0.21858
 H1746 H 0.59057 0.86150 0.26502
 H1747 H 0.59828 0.94640 0.24381
 H1748 H 0.61162 0.93345 0.19764
 C1749 C 0.60921 0.38984 0.70544
 C1750 C 0.60325 0.36990 0.72478
 C1751 C 0.59609 0.37743 0.75120
 C1752 C 0.62216 0.37593 0.65520
 C1753 C 0.60101 0.42493 0.73906
 C1754 C 0.60815 0.41735 0.71265
 C1755 C 0.61626 0.38213 0.67815
 C1756 C 0.59480 0.40505 0.75861
 H1757 H 0.60410 0.34853 0.71944
 H1758 H 0.59179 0.36164 0.76589
 H1759 H 0.59987 0.44635 0.74404
 H1760 H 0.61267 0.43296 0.69781
 C1761 C 1.29111 1.11042 1.10781
 C1762 C 1.27156 1.10502 1.12773
 C1763 C 1.24515 1.09777 1.12023
 C1764 C 1.34143 1.12310 1.12176
 C1765 C 1.25769 1.10146 1.07281
 C1766 C 1.28409 1.10869 1.08036
 C1767 C 1.31843 1.11740 1.11550
 C1768 C 1.23793 1.09581 1.09268
 H1769 H 1.27676 1.10636 1.14904
 H1770 H 1.23030 1.09391 1.13599
 H1771 H 1.25286 1.09980 1.05145
 H1772 H 1.29909 1.11274 1.06477
 C1773 C 1.29316 0.60925 0.60880
 C1774 C 1.28588 0.58179 0.60707
 C1775 C 1.25942 0.57445 0.59988
 C1776 C 1.34354 0.62269 0.62180
 C1777 C 1.24735 0.62208 0.59616
 C1778 C 1.27384 0.62938 0.60336
 C1779 C 1.32052 0.61669 0.61594
 C1780 C 1.23984 0.59452 0.59431
 H1781 H 1.30071 0.56604 0.61114
 H1782 H 1.25437 0.55307 0.59829
 H1783 H 1.23265 0.63799 0.59232
 H1784 H 1.27925 0.65070 0.60469
 C1785 C 0.79130 1.10978 0.60796
 C1786 C 0.77201 1.10381 0.62796
 C1787 C 0.74552 1.09663 0.62061
 C1788 C 0.84184 1.12211 0.62156
 C1789 C 0.75748 1.10154 0.57315
 C1790 C 0.78395 1.10870 0.58056
 C1791 C 0.81874 1.11661 0.61548
 C1792 C 0.73797 1.09532 0.59310
 H1793 H 0.77745 1.10462 0.64924
 H1794 H 0.73088 1.09231 0.63644
 H1795 H 0.75242 1.10038 0.55181
 H1796 H 0.79874 1.11318 0.56490
 C1797 C 0.76527 0.63780 1.13654
 C1798 C 0.76659 0.60950 1.13373
 C1799 C 0.74647 0.59566 1.11919
 C1800 C 0.80133 0.66486 1.16562
 C1801 C 0.72390 0.63850 1.11008
 C1802 C 0.74399 0.65225 1.12457
 C1803 C 0.78520 0.65216 1.15230
 C1804 C 0.72484 0.61003 1.10731
 H1805 H 0.78301 0.59814 1.14295
 H1806 H 0.74780 0.57377 1.11724
 H1807 H 0.70724 0.65008 1.10163
 H1808 H 0.74271 0.67414 1.12677
 C1809 C 1.29094 0.88972 0.88791
 C1810 C 1.27156 0.89548 0.86798
 C1811 C 1.24528 0.90334 0.87545
 C1812 C 1.34102 0.87582 0.87416
 C1813 C 1.25770 0.89966 0.92287
 C1814 C 1.28394 0.89183 0.91536
 C1815 C 1.31811 0.88203 0.88030
 C1816 C 1.23806 0.90554 0.90300
 H1817 H 1.27674 0.89390 0.84667
 H1818 H 1.23053 0.90739 0.85969
 H1819 H 1.25289 0.90152 0.94423
 H1820 H 1.29882 0.88754 0.93096
 C1821 C 1.29258 0.38913 0.38957
 C1822 C 1.28551 0.41662 0.39154
 C1823 C 1.25933 0.42407 0.39962
 C1824 C 1.34256 0.37547 0.37518
 C1825 C 1.24712 0.37650 0.40382
 C1826 C 1.27333 0.36909 0.39572
 C1827 C 1.31970 0.38158 0.38160
 C1828 C 1.23981 0.40410 0.40586
 H1829 H 1.30028 0.43230 0.38696
 H1830 H 1.25446 0.44547 0.40135
 H1831 H 1.23246 0.36066 0.40817
 H1832 H 1.27858 0.34774 0.39426
 C1833 C 0.79106 0.88912 0.38783
 C1834 C 0.78376 0.89075 0.41522
 C1835 C 0.75745 0.89848 0.42257
 C1836 C 0.84123 0.87530 0.37436
 C1837 C 0.74557 0.90302 0.37508
 C1838 C 0.77192 0.89526 0.36777
 C1839 C 0.81829 0.88148 0.38038
 C1840 C 0.73804 0.90472 0.40258
 H1841 H 0.79845 0.88617 0.43091
 H1842 H 0.75240 0.89996 0.44390
 H1843 H 0.73101 0.90737 0.35923
 H1844 H 0.77735 0.89405 0.34650
 C1845 C 0.79208 0.38950 0.88986
 C1846 C 0.77302 0.39555 0.86970
 C1847 C 0.74651 0.40285 0.87686
 C1848 C 0.84254 0.37646 0.87672
 C1849 C 0.75803 0.39798 0.92440
 C1850 C 0.78451 0.39070 0.91720
 C1851 C 0.81948 0.38233 0.88257
 C1852 C 0.73872 0.40417 0.90431
 H1853 H 0.77865 0.39464 0.84847
 H1854 H 0.73202 0.40717 0.86092
 H1855 H 0.75277 0.39917 0.94571
 H1856 H 0.79913 0.38616 0.93298
 C1857 C 0.70525 0.89044 1.10766
 C1858 C 0.71257 0.91792 1.10650
 C1859 C 0.73892 0.92537 1.09898
 C1860 C 0.65504 0.87685 1.12129
 C1861 C 0.75080 0.87783 1.09371
 C1862 C 0.72441 0.87042 1.10125
 C1863 C 0.67800 0.88290 1.11517
 C1864 C 0.75835 0.90541 1.09249
 H1865 H 0.69788 0.93359 1.11130
 H1866 H 0.74400 0.94677 1.09788
 H1867 H 0.76538 0.86199 1.08915
 H1868 H 0.71897 0.84908 1.10211
 C1869 C 0.70616 0.38935 0.61013
 C1870 C 0.71341 0.41684 0.60873
 C1871 C 0.73998 0.42429 0.60197
 C1872 C 0.65561 0.37575 0.62233
 C1873 C 0.75220 0.37669 0.59810
 C1874 C 0.72562 0.36930 0.60488
 C1875 C 0.67870 0.38180 0.61677
 C1876 C 0.75966 0.40429 0.59648
 H1877 H 0.69848 0.43253 0.61270
 H1878 H 0.74500 0.44568 0.60056
 H1879 H 0.76698 0.36083 0.59434
 H1880 H 0.72025 0.34796 0.60599
 C1881 C 0.20536 0.89032 0.60777
 C1882 C 0.21285 0.91772 0.60616
 C1883 C 0.23931 0.92488 0.59874
 C1884 C 0.15495 0.87729 0.62120
 C1885 C 0.25095 0.87718 0.59448
 C1886 C 0.22446 0.87007 0.60192
 C1887 C 0.17799 0.88309 0.61517
 C1888 C 0.25869 0.90469 0.59282
 H1889 H 0.19821 0.93358 0.61052
 H1890 H 0.24452 0.94623 0.59727
 H1891 H 0.26548 0.86117 0.59036
 H1892 H 0.21887 0.84878 0.60313
 C1893 C 0.23364 0.36138 1.13663
 C1894 C 0.23213 0.38968 1.13405
 C1895 C 0.25202 0.40371 1.11937
 C1896 C 0.19820 0.33390 1.16603
 C1897 C 0.27471 0.36103 1.10965
 C1898 C 0.25485 0.34710 1.12428
 C1899 C 0.21403 0.34682 1.15257
 C1900 C 0.27360 0.38951 1.10713
 H1901 H 0.21576 0.40090 1.14357
 H1902 H 0.25058 0.42561 1.11761
 H1903 H 0.29135 0.34958 1.10092
 H1904 H 0.25627 0.32520 1.12630
 C1905 C 0.70535 1.10916 0.88783
 C1906 C 0.72449 1.12928 0.89402
 C1907 C 0.75090 1.12200 0.90152
 C1908 C 0.65509 1.12253 0.87434
 C1909 C 0.73908 1.07439 0.89664
 C1910 C 0.71271 1.08171 0.88916
 C1911 C 0.67807 1.11657 0.88039
 C1912 C 0.75850 1.09445 0.90291
 H1913 H 0.71902 1.15060 0.89303
 H1914 H 0.76546 1.13791 0.90591
 H1915 H 0.74418 1.05301 0.89789
 H1916 H 0.69803 1.06596 0.88454
 C1917 C 0.70638 0.60942 0.38931
 C1918 C 0.71317 0.58186 0.39125
 C1919 C 0.73929 0.57414 0.39925
 C1920 C 0.65649 0.62350 0.37513
 C1921 C 0.75200 0.62159 0.40337
 C1922 C 0.72586 0.62926 0.39535
 C1923 C 0.67932 0.61724 0.38148
 C1924 C 0.75901 0.59392 0.40545
 H1925 H 0.69823 0.56632 0.38674
 H1926 H 0.74394 0.55269 0.40099
 H1927 H 0.76682 0.63729 0.40765
 H1928 H 0.72084 0.65066 0.39388
 C1929 C 0.20536 1.10842 0.38883
 C1930 C 0.22463 1.12851 0.39473
 C1931 C 0.25103 1.12116 0.40218
 C1932 C 0.15509 1.12206 0.37568
 C1933 C 0.23896 1.07356 0.39778
 C1934 C 0.21259 1.08096 0.39035
 C1935 C 0.17807 1.11593 0.38155
 C1936 C 0.25849 1.09359 0.40381
 H1937 H 0.21925 1.14984 0.39359
 H1938 H 0.26569 1.13704 0.40637
 H1939 H 0.24397 1.05217 0.39920
 H1940 H 0.19780 1.06524 0.38594
 C1941 C 0.23614 0.64046 0.85980
 C1942 C 0.25770 0.65406 0.87229
 C1943 C 0.27704 0.63948 0.88690
 C1944 C 0.20143 0.66889 0.83058
 C1945 C 0.25317 0.59751 0.87683
 C1946 C 0.23379 0.61219 0.86217
 C1947 C 0.21698 0.65564 0.84398
 C1948 C 0.27504 0.61104 0.88928
 H1949 H 0.25977 0.67592 0.87041
 H1950 H 0.29395 0.65041 0.89578
 H1951 H 0.25107 0.57565 0.87846
 H1952 H 0.21715 0.60150 0.85252
 C1953 C 1.13709 1.26520 1.13724
 C1954 C 1.15108 1.24381 1.12484
 C1955 C 1.13689 1.22405 1.11029
 C1956 C 1.16500 1.30069 1.16622
 C1957 C 1.09454 1.24716 1.12025
 C1958 C 1.10882 1.26695 1.13485
 C1959 C 1.15192 1.28482 1.15296
 C1960 C 1.10845 1.22545 1.10789
 H1961 H 1.17295 1.24220 1.12672
 H1962 H 1.14813 1.20730 1.10148
 H1963 H 1.07267 1.24881 1.11860
 H1964 H 1.09782 1.28346 1.14441
 C1965 C 1.10781 0.79376 0.60876
 C1966 C 1.08037 0.78653 0.60709
 C1967 C 1.07297 0.76001 0.60001
 C1968 C 1.12148 0.84423 0.62142
 C1969 C 1.12052 0.74778 0.59632
 C1970 C 1.12787 0.77432 0.60342
 C1971 C 1.11534 0.82118 0.61570
 C1972 C 1.09298 0.74034 0.59447
 H1973 H 1.06467 0.80145 0.61110
 H1974 H 1.05161 0.75500 0.59842
 H1975 H 1.13638 0.73301 0.59253
 H1976 H 1.14917 0.77969 0.60472
 C1977 C 0.60836 1.29232 0.60841
 C1978 C 0.62827 1.27304 0.60201
 C1979 C 0.62074 1.24668 0.59440
 C1980 C 0.62217 1.34257 0.62197
 C1981 C 0.57332 1.25879 0.59962
 C1982 C 0.58089 1.28512 0.60721
 C1983 C 0.61603 1.31959 0.61589
 C1984 C 0.59316 1.23925 0.59309
 H1985 H 0.64960 1.27838 0.60290
 H1986 H 0.63650 1.23202 0.58983
 H1987 H 0.55192 1.25382 0.59846
 H1988 H 0.56530 1.29991 0.61201
 C1989 C 0.60817 0.79321 1.10814
 C1990 C 0.62816 0.77408 1.10156
 C1991 C 0.62076 0.74763 1.09416
 C1992 C 0.62178 0.84355 1.12141
 C1993 C 0.57329 0.75936 1.09997
 C1994 C 0.58074 0.78579 1.10735
 C1995 C 0.61571 0.82054 1.11544
 C1996 C 0.59322 0.73998 1.09325
 H1997 H 0.64946 0.77961 1.10215
 H1998 H 0.63657 0.73308 1.08943
 H1999 H 0.55193 0.75420 1.09911
 H2000 H 0.56509 0.80046 1.11230
 C2001 C 0.88933 1.29288 0.88987
 C2002 C 0.91674 1.28550 0.89106
 C2003 C 0.92407 1.25899 0.89818
 C2004 C 0.87587 1.34330 0.87688
 C2005 C 0.87652 1.24710 0.90294
 C2006 C 0.86924 1.27363 0.89580
 C2007 C 0.88189 1.32027 0.88276
 C2008 C 0.90404 1.23948 0.90423
 H2009 H 0.93247 1.30026 0.88661
 H2010 H 0.94542 1.25386 0.89935
 H2011 H 0.86063 1.23246 0.90715
 H2012 H 0.84795 1.27911 0.89488
 C2013 C 0.88816 0.79185 0.38854
 C2014 C 0.91564 0.78488 0.39055
 C2015 C 0.92317 0.75868 0.39853
 C2016 C 0.87446 0.84194 0.37447
 C2017 C 0.87571 0.74622 0.40257
 C2018 C 0.86822 0.77246 0.39456
 C2019 C 0.88055 0.81901 0.38073
 C2020 C 0.90330 0.73903 0.40465
 H2021 H 0.93126 0.79976 0.38608
 H2022 H 0.94457 0.75391 0.40030
 H2023 H 0.85994 0.73147 0.40682
 H2024 H 0.84688 0.77762 0.39308
 C2025 C 0.38904 1.29171 0.38809
 C2026 C 0.41645 1.28434 0.38938
 C2027 C 0.42377 1.25793 0.39687
 C2028 C 0.37565 1.34206 0.37475
 C2029 C 0.37622 1.24612 0.40181
 C2030 C 0.36895 1.27256 0.39430
 C2031 C 0.38163 1.31904 0.38073
 C2032 C 0.40374 1.23852 0.40320
 H2033 H 0.43218 1.29904 0.38473
 H2034 H 0.44512 1.25281 0.39810
 H2035 H 0.36033 1.23155 0.40623
 H2036 H 0.34766 1.27805 0.39334
 C2037 C 0.38812 0.79227 0.88776
 C2038 C 0.36829 0.77307 0.89467
 C2039 C 0.37590 0.74677 0.90236
 C2040 C 0.37425 0.84243 0.87413
 C2041 C 0.42325 0.75880 0.89617
 C2042 C 0.41559 0.78506 0.88851
 C2043 C 0.38039 0.81948 0.88024
 C2044 C 0.40350 0.73934 0.90322
 H2045 H 0.34695 0.77841 0.89414
 H2046 H 0.36021 0.73217 0.90733
 H2047 H 0.44466 0.75383 0.89698
 H2048 H 0.43112 0.79979 0.88332
 C2049 C 1.13995 0.73729 0.85933
 C2050 C 1.15344 0.75898 0.87175
 C2051 C 1.13878 0.77841 0.88626
 C2052 C 1.16846 0.70221 0.83044
 C2053 C 1.09695 0.75439 0.87618
 C2054 C 1.11170 0.73493 0.86162
 C2055 C 1.15522 0.71796 0.84370
 C2056 C 1.11036 0.77637 0.88860
 H2057 H 1.17528 0.76107 0.86994
 H2058 H 1.14963 0.79540 0.89512
 H2059 H 1.07511 0.75226 0.87777
 H2060 H 1.10109 0.71819 0.85202
 C2061 C 1.10893 0.20552 0.39107
 C2062 C 1.12915 0.22466 0.39692
 C2063 C 1.12204 0.25101 0.40496
 C2064 C 1.12200 0.15542 0.37646
 C2065 C 1.07439 0.23910 0.40135
 C2066 C 1.08155 0.21280 0.39333
 C2067 C 1.11616 0.17833 0.38301
 C2068 C 1.09455 0.25853 0.40723
 H2069 H 1.15041 0.21924 0.39522
 H2070 H 1.13801 0.26559 0.40904
 H2071 H 1.05307 0.24415 0.40327
 H2072 H 1.06573 0.19811 0.38898
 C2073 C 0.60939 0.70727 0.38781
 C2074 C 0.58188 0.71434 0.38899
 C2075 C 0.57421 0.74068 0.39642
 C2076 C 0.62333 0.65697 0.37465
 C2077 C 0.62159 0.75307 0.40149
 C2078 C 0.62922 0.72670 0.39404
 C2079 C 0.61715 0.67998 0.38055
 C2080 C 0.59397 0.76035 0.40281
 H2081 H 0.56635 0.69943 0.38433
 H2082 H 0.55279 0.74554 0.39759
 H2083 H 0.63729 0.76784 0.40594
 H2084 H 0.65058 0.72146 0.39315
 C2085 C 0.60832 0.20613 0.88750
 C2086 C 0.58090 0.21351 0.88862
 C2087 C 0.57352 0.23995 0.89595
 C2088 C 0.62184 0.15576 0.87431
 C2089 C 0.62104 0.25181 0.90105
 C2090 C 0.62838 0.22534 0.89369
 C2091 C 0.61580 0.17878 0.88025
 C2092 C 0.59351 0.25941 0.90228
 H2093 H 0.56521 0.19877 0.88396
 H2094 H 0.55216 0.24507 0.89707
 H2095 H 0.63690 0.26642 0.90548
 H2096 H 0.64967 0.21985 0.89285
 C2097 C 0.86203 0.73370 1.13652
 C2098 C 0.84756 0.75489 1.12438
 C2099 C 0.86128 0.77498 1.10985
 C2100 C 0.83481 0.69783 1.16567
 C2101 C 0.90411 0.75259 1.11925
 C2102 C 0.89030 0.73246 1.13383
 C2103 C 0.84766 0.71383 1.15233
 C2104 C 0.88972 0.77414 1.10721
 H2105 H 0.82569 0.75610 1.12648
 H2106 H 0.84968 0.79158 1.10129
 H2107 H 0.92599 0.75135 1.11741
 H2108 H 0.90167 0.71612 1.14319
 C2109 C 0.89000 0.20540 0.61091
 C2110 C 0.91754 0.21243 0.60976
 C2111 C 0.92525 0.23902 0.60328
 C2112 C 0.87566 0.15483 0.62227
 C2113 C 0.87785 0.25170 0.59934
 C2114 C 0.87019 0.22511 0.60583
 C2115 C 0.88211 0.17792 0.61709
 C2116 C 0.90548 0.25892 0.59783
 H2117 H 0.93304 0.19731 0.61363
 H2118 H 0.94667 0.24388 0.60197
 H2119 H 0.86216 0.26665 0.59562
 H2120 H 0.84882 0.21992 0.60678
 C2121 C 0.39024 0.70632 0.60842
 C2122 C 0.41765 0.71374 0.60699
 C2123 C 0.42495 0.74017 0.59950
 C2124 C 0.37683 0.65594 0.62175
 C2125 C 0.37738 0.75193 0.59486
 C2126 C 0.37013 0.72547 0.60237
 C2127 C 0.38283 0.67897 0.61578
 C2128 C 0.40489 0.75957 0.59331
 H2129 H 0.43339 0.69905 0.61152
 H2130 H 0.44629 0.74531 0.59815
 H2131 H 0.36147 0.76648 0.59055
 H2132 H 0.34884 0.71996 0.60344
 C2133 C 0.38879 0.20613 1.10804
 C2134 C 0.36882 0.22522 1.10135
 C2135 C 0.37625 0.25154 1.09353
 C2136 C 0.37500 0.15601 1.12193
 C2137 C 0.42371 0.23973 1.09907
 C2138 C 0.41623 0.21344 1.10687
 C2139 C 0.38121 0.17892 1.11574
 C2140 C 0.40380 0.25909 1.09231
 H2141 H 0.34751 0.21978 1.10220
 H2142 H 0.36045 0.26608 1.08877
 H2143 H 0.44509 0.24480 1.09797
 H2144 H 0.43187 0.19879 1.11186
 C2145 C 1.10755 1.10805 0.70428
 C2146 C 1.10157 1.12843 0.72321
 C2147 C 1.09408 1.12148 0.74970
 C2148 C 1.12117 1.12104 0.65400
 C2149 C 1.09852 1.07371 0.73836
 C2150 C 1.10598 1.08070 0.71190
 C2151 C 1.11506 1.11516 0.67696
 C2152 C 1.09251 1.09403 0.75758
 H2153 H 1.10274 1.14967 0.71752
 H2154 H 1.08989 1.13758 0.76411
 H2155 H 1.09712 1.05240 0.74369
 H2156 H 1.11044 1.06477 0.69737
 C2157 C 1.13523 0.63667 0.23424
 C2158 C 1.13321 0.60829 0.23295
 C2159 C 1.11932 0.59408 0.25327
 C2160 C 1.16346 0.66455 0.19821
 C2161 C 1.10940 0.63670 0.27598
 C2162 C 1.12322 0.65081 0.25571
 C2163 C 1.15042 0.65146 0.21424
 C2164 C 1.10731 0.60818 0.27503
 H2165 H 1.14255 0.59717 0.21641
 H2166 H 1.11792 0.57214 0.25197
 H2167 H 1.10088 0.64810 0.29276
 H2168 H 1.12488 0.67275 0.25700
 C2169 C 0.60781 1.10877 0.20460
 C2170 C 0.60691 1.08131 0.21199
 C2171 C 0.59939 1.07387 0.23831
 C2172 C 0.62132 1.12230 0.15440
 C2173 C 0.59361 1.12140 0.25004
 C2174 C 0.60115 1.12879 0.22368
 C2175 C 0.61526 1.11628 0.17736
 C2176 C 0.59263 1.09383 0.25765
 H2177 H 0.61191 1.06563 0.19736
 H2178 H 0.59848 1.05248 0.24343
 H2179 H 0.58885 1.13724 0.26455
 H2180 H 0.60181 1.15011 0.21820
 C2181 C 0.63924 0.64146 0.73656
 C2182 C 0.63708 0.61319 0.73388
 C2183 C 0.62234 0.59819 0.75298
 C2184 C 0.66845 0.67037 0.70223
 C2185 C 0.61186 0.63983 0.77725
 C2186 C 0.62655 0.65473 0.75819
 C2187 C 0.65503 0.65696 0.71764
 C2188 C 0.60961 0.61140 0.77487
 H2189 H 0.64691 0.60276 0.71718
 H2190 H 0.62082 0.57635 0.75063
 H2191 H 0.60277 0.65050 0.79420
 H2192 H 0.62829 0.67658 0.76051
 C2193 C 0.88807 0.89036 0.70512
 C2194 C 0.89416 0.87022 0.72423
 C2195 C 0.90175 0.87750 0.75060
 C2196 C 0.87453 0.87689 0.65494
 C2197 C 0.89718 0.92512 0.73881
 C2198 C 0.88961 0.91780 0.71247
 C2199 C 0.88058 0.88294 0.67788
 C2200 C 0.90333 0.90505 0.75819
 H2201 H 0.89302 0.84891 0.71875
 H2202 H 0.90604 0.86159 0.76514
 H2203 H 0.89858 0.94650 0.74391
 H2204 H 0.88508 0.93356 0.69781
 C2205 C 0.86324 0.36227 0.23477
 C2206 C 0.86612 0.39056 0.23356
 C2207 C 0.88056 0.40429 0.25381
 C2208 C 0.83386 0.33528 0.19896
 C2209 C 0.88948 0.36134 0.27623
 C2210 C 0.87509 0.34770 0.25601
 C2211 C 0.84736 0.34801 0.21490
 C2212 C 0.89226 0.38981 0.27545
 H2213 H 0.85696 0.40201 0.21719
 H2214 H 0.88252 0.42619 0.25263
 H2215 H 0.89777 0.34967 0.29289
 H2216 H 0.87282 0.32581 0.25720
 C2217 C 0.38810 0.88967 0.20564
 C2218 C 0.39443 0.86954 0.22466
 C2219 C 0.40195 0.87681 0.25105
 C2220 C 0.37470 0.87625 0.15540
 C2221 C 0.39678 0.92442 0.23946
 C2222 C 0.38928 0.91711 0.21310
 C2223 C 0.38070 0.88226 0.17836
 C2224 C 0.40322 0.90435 0.25875
 H2225 H 0.39355 0.84823 0.21910
 H2226 H 0.40646 0.86089 0.26552
 H2227 H 0.39793 0.94579 0.24465
 H2228 H 0.38455 0.93286 0.19851
 C2229 C 0.39037 0.38987 0.70478
 C2230 C 0.39635 0.36978 0.72395
 C2231 C 0.40330 0.37710 0.75047
 C2232 C 0.37761 0.37639 0.65442
 C2233 C 0.39819 0.42469 0.73876
 C2234 C 0.39125 0.41732 0.71226
 C2235 C 0.38345 0.38240 0.67742
 C2236 C 0.40437 0.40466 0.75815
 H2237 H 0.39564 0.34847 0.71840
 H2238 H 0.40762 0.36121 0.76502
 H2239 H 0.39917 0.44607 0.74396
 H2240 H 0.38671 0.43304 0.69756
 C2241 C 1.10936 0.88985 1.29134
 C2242 C 1.10849 0.91740 1.28430
 C2243 C 1.10110 0.92517 1.25804
 C2244 C 1.12234 0.87579 1.34152
 C2245 C 1.09547 0.87779 1.24568
 C2246 C 1.10288 0.87006 1.27196
 C2247 C 1.11652 0.88200 1.31856
 C2248 C 1.09443 0.90546 1.23843
 H2249 H 1.11336 0.93290 1.29916
 H2250 H 1.10015 0.94663 1.25322
 H2251 H 1.09079 0.86212 1.23096
 H2252 H 1.10352 0.84867 1.27717
 C2253 C 1.10984 0.39094 0.79360
 C2254 C 1.10856 0.41842 0.78636
 C2255 C 1.10145 0.42586 0.75993
 C2256 C 1.12241 0.37711 0.84389
 C2257 C 1.09702 0.37827 0.74783
 C2258 C 1.10414 0.37089 0.77426
 C2259 C 1.11673 0.38335 0.82092
 C2260 C 1.09550 0.40586 0.74038
 H2261 H 1.11286 0.43411 0.80119
 H2262 H 1.10014 0.44725 0.75491
 H2263 H 1.09292 0.36240 0.73314
 H2264 H 1.10515 0.34955 0.77963
 C2265 C 0.60891 0.89009 0.79088
 C2266 C 0.60239 0.87015 0.77168
 C2267 C 0.59481 0.87767 0.74539
 C2268 C 0.62235 0.87625 0.84099
 C2269 C 0.60031 0.92515 0.75741
 C2270 C 0.60788 0.91759 0.78367
 C2271 C 0.61633 0.88243 0.81807
 C2272 C 0.59364 0.90528 0.73797
 H2273 H 0.60316 0.84880 0.77702
 H2274 H 0.59013 0.86188 0.73079
 H2275 H 0.59927 0.94657 0.75244
 H2276 H 0.61277 0.93321 0.79840
 C2277 C 0.63833 0.36050 1.26309
 C2278 C 0.63534 0.38875 1.26498
 C2279 C 0.62052 0.40281 1.24527
 C2280 C 0.66740 0.33285 1.29856
 C2281 C 0.61151 0.36029 1.22197
 C2282 C 0.62629 0.34632 1.24164
 C2283 C 0.65415 0.34588 1.28268
 C2284 C 0.60852 0.38870 1.22351
 H2285 H 0.64459 0.39989 1.28153
 H2286 H 0.61840 0.42466 1.24703
 H2287 H 0.60299 0.34893 1.20519
 H2288 H 0.62861 0.32448 1.23994
 C2289 C 0.88768 1.10999 1.29152
 C2290 C 0.88855 1.08251 1.28418
 C2291 C 0.89590 1.07499 1.25782
 C2292 C 0.87458 1.12352 1.34186
 C2293 C 0.90148 1.12248 1.24595
 C2294 C 0.89411 1.12996 1.27235
 C2295 C 0.88048 1.11757 1.31883
 C2296 C 0.90250 1.09489 1.23840
 H2297 H 0.88371 1.06687 1.29888
 H2298 H 0.89684 1.05357 1.25275
 H2299 H 0.90612 1.13829 1.23138
 H2300 H 0.89346 1.15131 1.27779
 C2301 C 0.88947 0.60958 0.79309
 C2302 C 0.89150 0.58206 0.78613
 C2303 C 0.89924 0.57450 0.75990
 C2304 C 0.87547 0.62346 0.84307
 C2305 C 0.90301 0.62202 0.74742
 C2306 C 0.89524 0.62954 0.77368
 C2307 C 0.88174 0.61725 0.82021
 C2308 C 0.90508 0.59439 0.74022
 H2309 H 0.88720 0.56644 0.80102
 H2310 H 0.90100 0.55308 0.75510
 H2311 H 0.90704 0.63780 0.73264
 H2312 H 0.89372 0.65091 0.77885
 C2313 C 0.38803 1.10928 0.79065
 C2314 C 0.38935 1.08181 0.78335
 C2315 C 0.39684 1.07438 0.75701
 C2316 C 0.37469 1.12296 0.84086
 C2317 C 0.40171 1.12195 0.74510
 C2318 C 0.39420 1.12934 0.77147
 C2319 C 0.38067 1.11683 0.81791
 C2320 C 0.40314 1.09437 0.73757
 H2321 H 0.38473 1.06612 0.79807
 H2322 H 0.39810 1.05298 0.75195
 H2323 H 0.40611 1.13781 0.73051
 H2324 H 0.39322 1.15067 0.77690
 C2325 C 0.38893 0.60902 1.29190
 C2326 C 0.39054 0.58155 1.28461
 C2327 C 0.39812 0.57418 1.25828
 C2328 C 0.37569 0.62259 1.34217
 C2329 C 0.40250 0.62179 1.24633
 C2330 C 0.39489 0.62912 1.27269
 C2331 C 0.38158 0.61651 1.31918
 C2332 C 0.40424 0.59422 1.23883
 H2333 H 0.38609 0.56582 1.29934
 H2334 H 0.39963 0.55279 1.25325
 H2335 H 0.40675 0.63768 1.23174
 H2336 H 0.39370 0.65044 1.27810
 C2337 C 1.10817 1.29301 0.88925
 C2338 C 1.08070 1.28573 0.89025
 C2339 C 1.07316 1.25926 0.89734
 C2340 C 1.12201 1.34349 0.87671
 C2341 C 1.12060 1.24716 0.90238
 C2342 C 1.12810 1.27366 0.89528
 C2343 C 1.11583 1.32042 0.88235
 C2344 C 1.09302 1.23967 0.90356
 H2345 H 1.06510 1.30057 0.88572
 H2346 H 1.05177 1.25423 0.89840
 H2347 H 1.13637 1.23246 0.90671
 H2348 H 1.14942 1.27905 0.89451
 C2349 C 1.10860 0.79233 0.38895
 C2350 C 1.12873 0.77320 0.39505
 C2351 C 1.12148 0.74691 0.40312
 C2352 C 1.12203 0.84250 0.37486
 C2353 C 1.07390 0.75881 0.39897
 C2354 C 1.08119 0.78507 0.39093
 C2355 C 1.11600 0.81955 0.38110
 C2356 C 1.09396 0.73942 0.40516
 H2357 H 1.15002 0.77861 0.39359
 H2358 H 1.13738 0.73235 0.40743
 H2359 H 1.05255 0.75379 0.40071
 H2360 H 1.06544 0.79976 0.38640
 C2361 C 0.63732 1.26385 0.35858
 C2362 C 0.63446 1.26587 0.38677
 C2363 C 0.61969 1.24617 0.40097
 C2364 C 0.66687 1.29928 0.33122
 C2365 C 0.61045 1.22264 0.35872
 C2366 C 0.62518 1.24231 0.34459
 C2367 C 0.65331 1.28336 0.34392
 C2368 C 0.60762 1.22429 0.38708
 H2369 H 0.64382 1.28249 0.39776
 H2370 H 0.61769 1.24803 0.42278
 H2371 H 0.60185 1.20576 0.34751
 H2372 H 0.62743 1.24050 0.32279
 C2373 C 0.60831 0.79262 0.88748
 C2374 C 0.58083 0.78552 0.88902
 C2375 C 0.57325 0.75920 0.89659
 C2376 C 0.62218 0.84285 0.87410
 C2377 C 0.62069 0.74689 0.90109
 C2378 C 0.62823 0.77324 0.89350
 C2379 C 0.61600 0.81988 0.88009
 C2380 C 0.59309 0.73958 0.90276
 H2381 H 0.56524 0.80039 0.88452
 H2382 H 0.55185 0.75431 0.89804
 H2383 H 0.63644 0.73216 0.90537
 H2384 H 0.64957 0.77851 0.89234
 C2385 C 0.86055 1.26608 1.13667
 C2386 C 0.84625 1.24474 1.12454
 C2387 C 0.86013 1.22474 1.11001
 C2388 C 0.83331 1.30199 1.16579
 C2389 C 0.90279 1.24755 1.11941
 C2390 C 0.88882 1.26757 1.13398
 C2391 C 0.84607 1.28591 1.15245
 C2392 C 0.88857 1.22585 1.10737
 H2393 H 0.82439 1.24333 1.12665
 H2394 H 0.84867 1.20801 1.10144
 H2395 H 0.92466 1.24899 1.11756
 H2396 H 0.90006 1.28405 1.14333
 C2397 C 0.88843 0.79303 0.60920
 C2398 C 0.91590 0.78578 0.60814
 C2399 C 0.92342 0.75932 0.60099
 C2400 C 0.87466 0.84345 0.62193
 C2401 C 0.87595 0.74718 0.59602
 C2402 C 0.86848 0.77366 0.60319
 C2403 C 0.88081 0.82041 0.61619
 C2404 C 0.90352 0.73973 0.59477
 H2405 H 0.93151 0.80064 0.61267
 H2406 H 0.94480 0.75431 0.59987
 H2407 H 0.86017 0.73246 0.59169
 H2408 H 0.84716 0.77904 0.60401
 C2409 C 0.38961 1.29256 0.60759
 C2410 C 0.39075 1.28517 0.58019
 C2411 C 0.39776 1.25862 0.57280
 C2412 C 0.37717 1.34313 0.62117
 C2413 C 0.40242 1.24669 0.62027
 C2414 C 0.39540 1.27325 0.62761
 C2415 C 0.38277 1.32002 0.61510
 C2416 C 0.40375 1.23909 0.59276
 H2417 H 0.38640 1.29997 0.56452
 H2418 H 0.39895 1.25351 0.55146
 H2419 H 0.40657 1.23203 0.63610
 H2420 H 0.39451 1.27874 0.64889
 C2421 C 0.38881 0.79264 1.10918
 C2422 C 0.41632 0.78554 1.10825
 C2423 C 0.42403 0.75916 1.10099
 C2424 C 0.37482 0.84294 1.12222
 C2425 C 0.37667 0.74680 1.09563
 C2426 C 0.36901 0.77320 1.10291
 C2427 C 0.38102 0.81994 1.11633
 C2428 C 0.40429 0.73949 1.09454
 H2429 H 0.43183 0.80045 1.11298
 H2430 H 0.44545 0.75428 1.09999
 H2431 H 0.36100 0.73202 1.09112
 H2432 H 0.34765 0.77846 1.10362
 C2433 C 0.88910 0.70738 0.88905
 C2434 C 0.91657 0.71459 0.89027
 C2435 C 0.92412 0.74101 0.89756
 C2436 C 0.87530 0.65700 0.87604
 C2437 C 0.87666 0.75320 0.90239
 C2438 C 0.86916 0.72675 0.89508
 C2439 C 0.88145 0.68003 0.88190
 C2440 C 0.90425 0.76062 0.90376
 H2441 H 0.93218 0.69973 0.88574
 H2442 H 0.94551 0.74600 0.89877
 H2443 H 0.86089 0.76792 0.90670
 H2444 H 0.84783 0.72140 0.89416
 C2445 C 0.88912 0.20612 0.39053
 C2446 C 0.86932 0.22541 0.39724
 C2447 C 0.87700 0.25152 0.40557
 C2448 C 0.87498 0.15632 0.37574
 C2449 C 0.92437 0.23911 0.40048
 C2450 C 0.91664 0.21304 0.39218
 C2451 C 0.88129 0.17911 0.38234
 C2452 C 0.90464 0.25866 0.40728
 H2453 H 0.84795 0.22029 0.39603
 H2454 H 0.86133 0.26621 0.41033
 H2455 H 0.94579 0.24386 0.40194
 H2456 H 0.93215 0.19823 0.38717
 C2457 C 0.38966 0.70635 0.38848
 C2458 C 0.36959 0.72554 0.39461
 C2459 C 0.37689 0.75201 0.40203
 C2460 C 0.37608 0.65598 0.37531
 C2461 C 0.42443 0.74019 0.39713
 C2462 C 0.41708 0.71375 0.38973
 C2463 C 0.38219 0.67900 0.38121
 C2464 C 0.40442 0.75963 0.40340
 H2465 H 0.34829 0.72005 0.39367
 H2466 H 0.36101 0.76660 0.40641
 H2467 H 0.44579 0.74533 0.39835
 H2468 H 0.43279 0.69902 0.38513
 C2469 C 0.38888 0.20672 0.88694
 C2470 C 0.36896 0.22611 0.89298
 C2471 C 0.37648 0.25254 0.90032
 C2472 C 0.37498 0.15639 0.87392
 C2473 C 0.42393 0.24030 0.89551
 C2474 C 0.41636 0.21390 0.88819
 C2475 C 0.38120 0.17940 0.87978
 C2476 C 0.40407 0.25993 0.90171
 H2477 H 0.34762 0.22078 0.89203
 H2478 H 0.36072 0.26727 0.90464
 H2479 H 0.44532 0.24526 0.89674
 H2480 H 0.43195 0.19903 0.88366
 C2481 C 1.13616 0.73386 1.13609
 C2482 C 1.15052 0.75517 1.12397
 C2483 C 1.13669 0.77532 1.10966
 C2484 C 1.16348 0.69789 1.16499
 C2485 C 1.09395 0.75275 1.11923
 C2486 C 1.10787 0.73257 1.13360
 C2487 C 1.15063 0.71394 1.15173
 C2488 C 1.10823 0.77441 1.10720
 H2489 H 1.17240 0.75645 1.12593
 H2490 H 1.14822 0.79200 1.10111
 H2491 H 1.07206 0.75144 1.11753
 H2492 H 1.09657 0.71615 1.14295
 C2493 C 1.10857 0.20522 0.60905
 C2494 C 1.08124 0.21293 0.60796
 C2495 C 1.07423 0.23963 0.60129
 C2496 C 1.12149 0.15449 0.62119
 C2497 C 1.12193 0.25107 0.59684
 C2498 C 1.12890 0.22434 0.60353
 C2499 C 1.11570 0.17765 0.61567
 C2500 C 1.09450 0.25899 0.59559
 H2501 H 1.06535 0.19826 0.61213
 H2502 H 1.05294 0.24502 0.60014
 H2503 H 1.13799 0.26559 0.59289
 H2504 H 1.15012 0.21860 0.60439
 C2505 C 0.64026 0.73757 0.63907
 C2506 C 0.65379 0.75899 0.62624
 C2507 C 0.63918 0.77808 0.61128
 C2508 C 0.66864 0.70328 0.66893
 C2509 C 0.59734 0.75421 0.62169
 C2510 C 0.61204 0.73509 0.63669
 C2511 C 0.65545 0.71866 0.65524
 C2512 C 0.61078 0.77597 0.60891
 H2513 H 0.67561 0.76116 0.62811
 H2514 H 0.65005 0.79489 0.60214
 H2515 H 0.57552 0.75201 0.62008
 H2516 H 0.60139 0.71856 0.64659
 C2517 C 0.60754 0.20562 1.10735
 C2518 C 0.58008 0.21278 1.10589
 C2519 C 0.57260 0.23910 1.09828
 C2520 C 0.62124 0.15545 1.12104
 C2521 C 0.62009 0.25126 1.09354
 C2522 C 0.62752 0.22491 1.10118
 C2523 C 0.61512 0.17839 1.11490
 C2524 C 0.59252 0.25865 1.09200
 H2525 H 0.56444 0.19797 1.11051
 H2526 H 0.55122 0.24405 1.09694
 H2527 H 0.63589 0.26594 1.08917
 H2528 H 0.64885 0.21959 1.10227
 C2529 C 1.29105 1.11047 0.88772
 C2530 C 1.27177 1.10457 0.86771
 C2531 C 1.24532 1.09721 0.87507
 C2532 C 1.34144 1.12338 0.87412
 C2533 C 1.25733 1.10174 0.92254
 C2534 C 1.28376 1.10908 0.91513
 C2535 C 1.31841 1.11759 0.88020
 C2536 C 1.23782 1.09565 0.90259
 H2537 H 1.27718 1.10563 0.84642
 H2538 H 1.23068 1.09299 0.85924
 H2539 H 1.25230 1.10037 0.94388
 H2540 H 1.29854 1.11349 0.93079
 C2541 C 1.29247 0.61003 0.39004
 C2542 C 1.27303 0.60356 0.37036
 C2543 C 1.24669 0.59630 0.37815
 C2544 C 1.34268 0.62287 0.37573
 C2545 C 1.25908 0.60210 0.42538
 C2546 C 1.28541 0.60934 0.41755
 C2547 C 1.31973 0.61708 0.38210
 C2548 C 1.23943 0.59541 0.40576
 H2549 H 1.27825 0.60409 0.34901
 H2550 H 1.23192 0.59161 0.36256
 H2551 H 1.25423 0.60127 0.44679
 H2552 H 1.30032 0.61423 0.43296
 C2553 C 0.79110 1.10990 0.38872
 C2554 C 0.78390 1.10810 0.41613
 C2555 C 0.75754 1.10056 0.42352
 C2556 C 0.84139 1.12330 0.37519
 C2557 C 0.74540 1.09659 0.37604
 C2558 C 0.77180 1.10416 0.36870
 C2559 C 0.81840 1.11731 0.38123
 C2560 C 0.73798 1.09468 0.40356
 H2561 H 0.79872 1.11239 0.43181
 H2562 H 0.75256 1.09892 0.44486
 H2563 H 0.73072 1.09253 0.36020
 H2564 H 0.77714 1.10552 0.34741
 C2565 C 0.79162 0.61036 0.88962
 C2566 C 0.77253 0.60375 0.86964
 C2567 C 0.74616 0.59614 0.87702
 C2568 C 0.84193 0.62375 0.87610
 C2569 C 0.75784 0.60182 0.92444
 C2570 C 0.78419 0.60941 0.91702
 C2571 C 0.81892 0.61776 0.88211
 C2572 C 0.73852 0.59505 0.90452
 H2573 H 0.77805 0.60445 0.84837
 H2574 H 0.73166 0.59139 0.86120
 H2575 H 0.75270 0.60084 0.94578
 H2576 H 0.79882 0.61437 0.93266
 C2577 C 1.29141 0.89003 1.10846
 C2578 C 1.28432 0.89182 1.08104
 C2579 C 1.25807 0.89962 1.07360
 C2580 C 1.34154 0.87628 1.12210
 C2581 C 1.24582 0.90385 1.12105
 C2582 C 1.27211 0.89603 1.12845
 C2583 C 1.31861 0.88241 1.11601
 C2584 C 1.23851 0.90577 1.09352
 H2585 H 1.29913 0.88735 1.06539
 H2586 H 1.25318 0.90125 1.05225
 H2587 H 1.23114 0.90811 1.13686
 H2588 H 1.27737 0.89469 1.14974
 C2589 C 1.29381 0.39031 0.60938
 C2590 C 1.27446 0.37017 0.60397
 C2591 C 1.24789 0.37744 0.59716
 C2592 C 1.34430 0.37668 0.62154
 C2593 C 1.25987 0.42508 0.60135
 C2594 C 1.28644 0.41776 0.60813
 C2595 C 1.32125 0.38283 0.61601
 C2596 C 1.24032 0.40499 0.59568
 H2597 H 1.27993 0.34886 0.60496
 H2598 H 1.23320 0.36151 0.59326
 H2599 H 1.25475 0.44645 0.60004
 H2600 H 1.30128 0.43352 0.61223
 C2601 C 0.79114 0.88992 0.60775
 C2602 C 0.78416 0.89156 0.58029
 C2603 C 0.75785 0.89904 0.57270
 C2604 C 0.84135 0.87668 0.62163
 C2605 C 0.74533 0.90321 0.62009
 C2606 C 0.77167 0.89571 0.62763
 C2607 C 0.81839 0.88261 0.61545
 C2608 C 0.73813 0.90501 0.59252
 H2609 H 0.79909 0.88723 0.56472
 H2610 H 0.75305 0.90058 0.55133
 H2611 H 0.73053 0.90734 0.63582
 H2612 H 0.77684 0.89446 0.64895
 C2613 C 0.76498 0.36274 1.13635
 C2614 C 0.76667 0.39097 1.13310
 C2615 C 0.74676 0.40476 1.11828
 C2616 C 0.80050 0.33552 1.16579
 C2617 C 0.72370 0.36201 1.10976
 C2618 C 0.74358 0.34831 1.12452
 C2619 C 0.78466 0.34840 1.15235
 C2620 C 0.72499 0.39041 1.10657
 H2621 H 0.78319 0.40231 1.14220
 H2622 H 0.74834 0.42661 1.11601
 H2623 H 0.70692 0.35045 1.10146
 H2624 H 0.74202 0.32647 1.12706
 C2625 C 0.70491 1.10891 1.10764
 C2626 C 0.71232 1.08147 1.10650
 C2627 C 0.73870 1.07412 1.09900
 C2628 C 0.65462 1.12232 1.12115
 C2629 C 0.75042 1.12170 1.09371
 C2630 C 0.72401 1.12901 1.10123
 C2631 C 0.67762 1.11635 1.11509
 C2632 C 0.75807 1.09415 1.09250
 H2633 H 0.69767 1.06574 1.11129
 H2634 H 0.74384 1.05274 1.09791
 H2635 H 0.76495 1.13760 1.08915
 H2636 H 0.71849 1.15032 1.10207
 C2637 C 0.73693 0.64128 0.64130
 C2638 C 0.73434 0.61300 0.63918
 C2639 C 0.75361 0.59800 0.62464
 C2640 C 0.70192 0.67030 0.66967
 C2641 C 0.77793 0.63965 0.61434
 C2642 C 0.75870 0.65455 0.62884
 C2643 C 0.71767 0.65683 0.65668
 C2644 C 0.77559 0.61122 0.61205
 H2645 H 0.71753 0.60256 0.64884
 H2646 H 0.75129 0.57615 0.62310
 H2647 H 0.79494 0.65033 0.60534
 H2648 H 0.76096 0.67641 0.63053
 C2649 C 0.20489 1.10790 0.60754
 C2650 C 0.21240 1.08050 0.60611
 C2651 C 0.23887 1.07333 0.59873
 C2652 C 0.15451 1.12110 0.62086
 C2653 C 0.25047 1.12103 0.59415
 C2654 C 0.22397 1.12815 0.60156
 C2655 C 0.17753 1.11517 0.61488
 C2656 C 0.25822 1.09352 0.59265
 H2657 H 0.19777 1.06466 0.61058
 H2658 H 0.24409 1.05199 0.59740
 H2659 H 0.26498 1.13703 0.58992
 H2660 H 0.21838 1.14943 0.60263
 C2661 C 0.23260 0.63700 1.13632
 C2662 C 0.23110 0.60868 1.13380
 C2663 C 0.25123 0.59458 1.11951
 C2664 C 0.19670 0.66462 1.16501
 C2665 C 0.27417 0.63721 1.11014
 C2666 C 0.25408 0.65121 1.12437
 C2667 C 0.21271 0.65165 1.15182
 C2668 C 0.27303 0.60873 1.10760
 H2669 H 0.21454 0.59750 1.14305
 H2670 H 0.24978 0.57267 1.11774
 H2671 H 0.29098 0.64864 1.10169
 H2672 H 0.25551 0.67312 1.12639
 C2673 C 0.70581 0.88965 0.88775
 C2674 C 0.71305 0.91714 0.88910
 C2675 C 0.73938 0.92463 0.89658
 C2676 C 0.65558 0.87605 0.87423
 C2677 C 0.75142 0.87710 0.90143
 C2678 C 0.72504 0.86965 0.89392
 C2679 C 0.67855 0.88208 0.88030
 C2680 C 0.75889 0.90470 0.90284
 H2681 H 0.69829 0.93280 0.88448
 H2682 H 0.74438 0.94605 0.89784
 H2683 H 0.76605 0.86128 0.90581
 H2684 H 0.71966 0.84830 0.89292
 C2685 C 0.73440 0.35978 0.36314
 C2686 C 0.73240 0.38798 0.36643
 C2687 C 0.75187 0.40195 0.38168
 C2688 C 0.69988 0.33256 0.33249
 C2689 C 0.77507 0.35941 0.39065
 C2690 C 0.75561 0.34552 0.37544
 C2691 C 0.71529 0.34535 0.34651
 C2692 C 0.77352 0.38780 0.39379
 H2693 H 0.71601 0.39918 0.35697
 H2694 H 0.75010 0.42379 0.38392
 H2695 H 0.79177 0.34801 0.39927
 H2696 H 0.75739 0.32370 0.37289
 C2697 C 0.20546 0.88910 0.38900
 C2698 C 0.21277 0.91655 0.39065
 C2699 C 0.23911 0.92388 0.39827
 C2700 C 0.15532 0.87572 0.37503
 C2701 C 0.25097 0.87625 0.40272
 C2702 C 0.22459 0.86897 0.39507
 C2703 C 0.17824 0.88169 0.38131
 C2704 C 0.25854 0.90381 0.40437
 H2705 H 0.19809 0.93230 0.38612
 H2706 H 0.24420 0.94526 0.39972
 H2707 H 0.26555 0.86035 0.40698
 H2708 H 0.21914 0.84765 0.39385
 C2709 C 0.20575 0.39010 0.89034
 C2710 C 0.21332 0.39155 0.91765
 C2711 C 0.23977 0.39906 0.92473
 C2712 C 0.15540 0.37671 0.87718
 C2713 C 0.25123 0.40374 0.87713
 C2714 C 0.22475 0.39621 0.87010
 C2715 C 0.17840 0.38268 0.88314
 C2716 C 0.25903 0.40526 0.90455
 H2717 H 0.19874 0.38699 0.93349
 H2718 H 0.24504 0.40039 0.94601
 H2719 H 0.26568 0.40806 0.86113
 H2720 H 0.21911 0.39513 0.84888
   
