data_POSCAR
  _audit_creation_date              2014-09-24
  _audit_creation_method            'ToBaCCo'
  _symmetry_space_group_name_H-M    'P1'
  _symmetry_Int_Tables_number       1
  _symmetry_cell_setting            triclinic
  loop_
  _symmetry_equiv_pos_as_xyz
 x,y,z
_cell_length_a 68.2158
_cell_length_b 68.0185
_cell_length_c 62.9031
_cell_angle_alpha 89.947500
_cell_angle_beta 89.602200
_cell_angle_gamma 89.533500
loop_
  _atom_site_label
  _atom_site_type_symbol
  _atom_site_fract_x
  _atom_site_fract_y
  _atom_site_fract_z
C1 C 0.38853 0.01955 0.27176
 H2 H 0.38692 0.02807 0.25734
 C3 C 0.40066 0.02625 0.28801
 H4 H 0.40853 0.03990 0.28599
 C5 C 0.38012 -0.00858 0.29202
 H6 H 0.37183 -0.02193 0.29378
 C7 C 0.39222 -0.00256 0.30850
 H8 H 0.39313 -0.01142 0.32279
 N9 N 0.37872 0.00231 0.27396
 C10 C 0.36760 -0.02180 0.21125
 H11 H 0.35194 -0.02402 0.21249
 C12 C 0.37773 -0.02785 0.19304
 H13 H 0.36972 -0.03480 0.18033
 C14 C 0.39701 -0.01052 0.22672
 H15 H 0.40449 -0.00391 0.23997
 C16 C 0.40772 -0.01625 0.20873
 H17 H 0.42333 -0.01351 0.20814
 Zn18 Zn 0.36225 -0.00590 0.25163
 N19 N 0.37728 -0.01311 0.22750
 C20 C 0.34476 0.02299 0.22510
 N21 N 0.34527 0.01531 0.24506
 C22 C 0.33471 0.02348 0.26123
 C23 C 0.32318 0.04019 0.25769
 C24 C 0.33339 0.03968 0.22084
 C25 C 0.35829 -0.04522 0.26260
 C26 C 0.34879 -0.06275 0.26740
 C27 C 0.31787 -0.04530 0.26607
 C28 C 0.32807 -0.02808 0.26138
 N29 N 0.34791 -0.02836 0.25977
 H30 H 0.35348 0.01647 0.21252
 H31 H 0.33566 0.01726 0.27703
 H32 H 0.31539 0.04684 0.27095
 H33 H 0.33325 0.04564 0.20488
 H34 H 0.37406 -0.04511 0.26067
 H35 H 0.35795 -0.07574 0.26829
 H36 H 0.30218 -0.04392 0.26797
 H37 H 0.32005 -0.01453 0.25889
 C38 C 0.39805 -0.02492 0.19150
 C39 C 0.40274 0.01500 0.30656
 C40 C 0.32805 -0.06337 0.26905
 C41 C 0.32260 0.04866 0.23732
 C42 C 0.11317 0.02470 0.72540
 H43 H 0.11306 0.03360 0.73964
 C44 C 0.10093 0.02963 0.70844
 H45 H 0.09129 0.04231 0.70973
 C46 C 0.12572 -0.00284 0.70650
 H47 H 0.13558 -0.01530 0.70561
 C48 C 0.11365 0.00146 0.68929
 H49 H 0.11435 -0.00781 0.67531
 N50 N 0.12496 0.00849 0.72428
 C51 C 0.13325 -0.01057 0.78974
 H52 H 0.14908 -0.01058 0.79069
 C53 C 0.12205 -0.01635 0.80729
 H54 H 0.12940 -0.02037 0.82187
 C55 C 0.10453 -0.00503 0.76955
 H56 H 0.09776 -0.00100 0.75469
 C57 C 0.09277 -0.01077 0.78667
 H58 H 0.07701 -0.01097 0.78479
 Zn59 Zn 0.14056 0.00210 0.74812
 N60 N 0.12438 -0.00477 0.77147
 C61 C 0.15461 0.03346 0.77363
 N62 N 0.15592 0.02434 0.75443
 C63 C 0.16743 0.03157 0.73858
 C64 C 0.17827 0.04861 0.74172
 C65 C 0.16522 0.05055 0.77746
 C66 C 0.14718 -0.03733 0.73908
 C67 C 0.15781 -0.05457 0.73534
 C68 C 0.18776 -0.03611 0.73858
 C69 C 0.17651 -0.01915 0.74218
 N70 N 0.15659 -0.02006 0.74223
 H71 H 0.14508 0.02773 0.78589
 H72 H 0.16790 0.02422 0.72333
 H73 H 0.18695 0.05439 0.72869
 H74 H 0.16400 0.05761 0.79284
 H75 H 0.13133 -0.03769 0.73965
 H76 H 0.15001 -0.06823 0.73322
 H77 H 0.20360 -0.03516 0.73854
 H78 H 0.18373 -0.00536 0.74518
 C79 C 0.10150 -0.01641 0.80592
 C80 C 0.10088 0.01773 0.69024
 C81 C 0.17839 -0.05412 0.73509
 C82 C 0.17715 0.05843 0.76133
 C83 C 0.61209 0.52505 0.22539
 H84 H 0.61172 0.53381 0.23974
 C85 C 0.60006 0.53009 0.20828
 H86 H 0.59032 0.54268 0.20957
 C87 C 0.62506 0.49778 0.20637
 H88 H 0.63501 0.48538 0.20550
 C89 C 0.61322 0.50219 0.18901
 H90 H 0.61417 0.49306 0.17494
 N91 N 0.62397 0.50891 0.22429
 C92 C 0.63146 0.48921 0.28962
 H93 H 0.64728 0.48917 0.29073
 C94 C 0.62011 0.48321 0.30696
 H95 H 0.62735 0.47900 0.32155
 C96 C 0.60292 0.49503 0.26922
 H97 H 0.59629 0.49925 0.25435
 C98 C 0.59101 0.48907 0.28614
 H99 H 0.57527 0.48890 0.28410
 Zn100 Zn 0.63923 0.50228 0.24832
 N101 N 0.62275 0.49524 0.27135
 C102 C 0.65306 0.53329 0.27442
 N103 N 0.65461 0.52437 0.25514
 C104 C 0.66643 0.53167 0.23960
 C105 C 0.67736 0.54859 0.24317
 C106 C 0.66374 0.55025 0.27868
 C107 C 0.64571 0.46291 0.23905
 C108 C 0.65627 0.44557 0.23559
 C109 C 0.68629 0.46375 0.23968
 C110 C 0.67513 0.48082 0.24298
 N111 N 0.65521 0.48009 0.24251
 H112 H 0.64328 0.52752 0.28643
 H113 H 0.66711 0.52447 0.22428
 H114 H 0.68630 0.55442 0.23038
 H115 H 0.66232 0.55715 0.29413
 H116 H 0.62986 0.46269 0.23922
 H117 H 0.64839 0.43199 0.23326
 H118 H 0.70213 0.46454 0.24010
 H119 H 0.68239 0.49453 0.24623
 C120 C 0.59958 0.48316 0.30538
 C121 C 0.60033 0.51836 0.18995
 C122 C 0.67684 0.44583 0.23595
 C123 C 0.67600 0.55820 0.26288
 C124 C 0.88936 0.52000 0.77312
 H125 H 0.88907 0.52880 0.75879
 C126 C 0.90116 0.52557 0.79015
 H127 H 0.91023 0.53841 0.78818
 C128 C 0.87805 0.49234 0.79226
 H129 H 0.86859 0.47974 0.79338
 C130 C 0.88971 0.49720 0.80953
 H131 H 0.88845 0.48819 0.82364
 N132 N 0.87827 0.50353 0.77439
 C133 C 0.86729 0.48240 0.71029
 H134 H 0.85150 0.48112 0.71103
 C135 C 0.87746 0.47649 0.69204
 H136 H 0.86934 0.47057 0.67881
 C137 C 0.89698 0.49116 0.72702
 H138 H 0.90454 0.49673 0.74076
 C139 C 0.90774 0.48552 0.70901
 H140 H 0.92350 0.48728 0.70895
 Zn141 Zn 0.86194 0.49697 0.75128
 N142 N 0.87710 0.48979 0.72719
 C143 C 0.84644 0.52780 0.72574
 N144 N 0.84619 0.51925 0.74529
 C145 C 0.83568 0.52720 0.76163
 C146 C 0.82490 0.54449 0.75868
 C147 C 0.83586 0.54513 0.72208
 C148 C 0.85577 0.45763 0.76098
 C149 C 0.84532 0.44065 0.76573
 C150 C 0.81530 0.45973 0.76445
 C151 C 0.82638 0.47641 0.75979
 N152 N 0.84625 0.47508 0.75831
 H153 H 0.85515 0.52144 0.71305
 H154 H 0.83604 0.52027 0.77712
 H155 H 0.81709 0.55087 0.77207
 H156 H 0.83628 0.55176 0.70643
 H157 H 0.87156 0.45694 0.75930
 H158 H 0.85318 0.42686 0.76747
 H159 H 0.79951 0.46102 0.76567
 H160 H 0.81905 0.49034 0.75720
 C161 C 0.89796 0.47819 0.69113
 C162 C 0.90171 0.51402 0.80881
 C163 C 0.82480 0.44155 0.76752
 C164 C 0.82505 0.55380 0.73873
 C165 C 0.22625 0.41509 0.97724
 H166 H 0.23991 0.41756 0.96886
 C167 C 0.20946 0.42589 0.97174
 H168 H 0.21028 0.43678 0.95920
 C169 C 0.20830 0.39746 1.00328
 H170 H 0.20769 0.38615 1.01530
 C171 C 0.19121 0.40767 0.99813
 H172 H 0.17777 0.40439 1.00663
 N173 N 0.22544 0.40139 0.99302
 C174 C 0.28467 0.39204 1.01713
 H175 H 0.28397 0.37626 1.01908
 C176 C 0.30182 0.40194 1.02219
 H177 H 0.31416 0.39366 1.02832
 C178 C 0.26934 0.42185 1.00666
 H179 H 0.25668 0.42955 1.00056
 C180 C 0.28631 0.43236 1.01138
 H181 H 0.28660 0.44804 1.00843
 Zn182 Zn 0.24792 0.38615 1.00008
 N183 N 0.26908 0.40196 1.00894
 C184 C 0.27404 0.37311 0.96761
 N185 N 0.25557 0.37156 0.97570
 C186 C 0.24205 0.35990 0.96632
 C187 C 0.24704 0.34884 0.94836
 C188 C 0.27965 0.36235 0.94965
 C189 C 0.23752 0.37752 1.04197
 C190 C 0.23235 0.36596 1.05943
 C191 C 0.23637 0.33704 1.03751
 C192 C 0.24147 0.34917 1.02045
 N193 N 0.24170 0.36904 1.02289
 H194 H 0.28450 0.38273 0.97499
 H195 H 0.22735 0.35919 0.97285
 H196 H 0.23601 0.33979 0.94101
 H197 H 0.29450 0.36360 0.94363
 H198 H 0.23807 0.39334 1.04354
 H199 H 0.22925 0.37302 1.07452
 H200 H 0.23596 0.32128 1.03518
 H201 H 0.24517 0.34266 1.00528
 C202 C 0.30303 0.42230 1.01872
 C203 C 0.19165 0.42209 0.98219
 C204 C 0.23162 0.34543 1.05731
 C205 C 0.26610 0.34995 0.93982
 C206 C 0.77322 0.08476 0.98029
 H207 H 0.76094 0.08398 0.96954
 C208 C 0.78999 0.07319 0.97656
 H209 H 0.78998 0.06329 0.96312
 C210 C 0.78753 0.09841 1.01098
 H211 H 0.78694 0.10864 1.02405
 C212 C 0.80435 0.08701 1.00810
 H213 H 0.81631 0.08930 1.01898
 N214 N 0.77220 0.09686 0.99746
 C215 C 0.71216 0.10618 1.01900
 H216 H 0.71278 0.12186 1.02171
 C217 C 0.69503 0.09598 1.02368
 H218 H 0.68260 0.10394 1.03027
 C219 C 0.72774 0.07689 1.00709
 H220 H 0.74049 0.06956 1.00049
 C221 C 0.71080 0.06611 1.01140
 H222 H 0.71062 0.05056 1.00774
 Zn223 Zn 0.74950 0.11249 1.00283
 N224 N 0.72791 0.09665 1.01044
 C225 C 0.72502 0.12565 0.96955
 N226 N 0.74326 0.12708 0.97803
 C227 C 0.75721 0.13846 0.96875
 C228 C 0.75292 0.14927 0.95043
 C229 C 0.72012 0.13617 0.95126
 C230 C 0.75561 0.12076 1.04553
 C231 C 0.76042 0.13181 1.06336
 C232 C 0.76183 0.16074 1.04111
 C233 C 0.75702 0.14909 1.02363
 N234 N 0.75440 0.12941 1.02608
 H235 H 0.71419 0.11632 0.97689
 H236 H 0.77170 0.13908 0.97558
 H237 H 0.76428 0.15808 0.94314
 H238 H 0.70545 0.13500 0.94496
 H239 H 0.75323 0.10511 1.04706
 H240 H 0.76135 0.12460 1.07868
 H241 H 0.76433 0.17630 1.03881
 H242 H 0.75572 0.15575 1.00812
 C243 C 0.69401 0.07575 1.01940
 C244 C 0.80590 0.07388 0.99080
 C245 C 0.76386 0.15204 1.06124
 C246 C 0.73414 0.14821 0.94145
 C247 C 0.27134 0.58434 0.47685
 H248 H 0.25773 0.58175 0.46863
 C249 C 0.28838 0.57411 0.47077
 H250 H 0.28781 0.56350 0.45796
 C251 C 0.28891 0.60174 0.50309
 H252 H 0.28927 0.61276 0.51540
 C253 C 0.30622 0.59212 0.49734
 H254 H 0.31960 0.59553 0.50570
 N255 N 0.27183 0.59758 0.49307
 C256 C 0.21225 0.60459 0.51778
 H257 H 0.21273 0.62027 0.52056
 C258 C 0.19517 0.59426 0.52229
 H259 H 0.18264 0.60211 0.52882
 C260 C 0.22809 0.57548 0.50579
 H261 H 0.24094 0.56822 0.49937
 C262 C 0.21119 0.56456 0.50992
 H263 H 0.21112 0.54903 0.50618
 Zn264 Zn 0.24903 0.61190 0.50130
 N265 N 0.22806 0.59525 0.50909
 C266 C 0.22320 0.62579 0.46945
 N267 N 0.24131 0.62786 0.47807
 C268 C 0.25450 0.64062 0.46966
 C269 C 0.24963 0.65203 0.45196
 C270 C 0.21772 0.63689 0.45177
 C271 C 0.25926 0.61722 0.54343
 C272 C 0.26392 0.62720 0.56203
 C273 C 0.25876 0.65794 0.54353
 C274 C 0.25425 0.64733 0.52519
 N275 N 0.25474 0.62733 0.52545
 H276 H 0.21302 0.61531 0.47603
 H277 H 0.26893 0.64174 0.47659
 H278 H 0.26048 0.66181 0.44524
 H279 H 0.20321 0.63506 0.44522
 H280 H 0.25944 0.60132 0.54319
 H281 H 0.26784 0.61881 0.57602
 H282 H 0.25804 0.67384 0.54314
 H283 H 0.25026 0.65509 0.51084
 C284 C 0.19425 0.57408 0.51774
 C285 C 0.30609 0.57808 0.48106
 C286 C 0.26367 0.64784 0.56229
 C287 C 0.23104 0.65016 0.44271
 C288 C 0.72562 0.91677 0.47934
 H289 H 0.73919 0.91864 0.47059
 C290 C 0.70902 0.92783 0.47382
 H291 H 0.70987 0.93831 0.46089
 C292 C 0.70771 0.90031 0.50632
 H293 H 0.70705 0.88934 0.51869
 C294 C 0.69079 0.91082 0.50118
 H295 H 0.67741 0.90810 0.51004
 N296 N 0.72473 0.90350 0.49553
 C297 C 0.78448 0.89294 0.51732
 H298 H 0.78371 0.87713 0.51905
 C299 C 0.80186 0.90265 0.52187
 H300 H 0.81436 0.89419 0.52734
 C301 C 0.76899 0.92302 0.50807
 H302 H 0.75615 0.93090 0.50269
 C303 C 0.78617 0.93335 0.51232
 H304 H 0.78645 0.94908 0.50972
 Zn305 Zn 0.74691 0.88773 0.50215
 N306 N 0.76868 0.90310 0.51000
 C307 C 0.77142 0.87377 0.46860
 N308 N 0.75332 0.87268 0.47773
 C309 C 0.73904 0.86142 0.46913
 C310 C 0.74279 0.85046 0.45078
 C311 C 0.77580 0.86306 0.45022
 C312 C 0.73746 0.88004 0.54446
 C313 C 0.73263 0.86889 0.56234
 C314 C 0.73542 0.83952 0.54091
 C315 C 0.74021 0.85125 0.52342
 N316 N 0.74091 0.87114 0.52544
 H317 H 0.78244 0.88318 0.47532
 H318 H 0.72470 0.86101 0.47656
 H319 H 0.73128 0.84143 0.44432
 H320 H 0.79017 0.86441 0.44298
 H321 H 0.73838 0.89587 0.54567
 H322 H 0.73015 0.87627 0.57737
 H323 H 0.73466 0.82374 0.53894
 H324 H 0.74333 0.84442 0.50827
 C325 C 0.80305 0.92306 0.51882
 C326 C 0.69130 0.92473 0.48474
 C327 C 0.73147 0.84834 0.56069
 C328 C 0.76137 0.85126 0.44103
 C329 C 0.01472 0.27635 0.40192
 H330 H 0.02813 0.26785 0.40044
 C331 C 0.01426 0.29334 0.41443
 H332 H 0.02749 0.29795 0.42233
 C333 C -0.01869 0.28086 0.39291
 H334 H -0.03154 0.27586 0.38460
 C335 C -0.01981 0.29789 0.40524
 H336 H -0.03362 0.30578 0.40637
 N337 N -0.00161 0.27050 0.39145
 C338 C 0.00021 0.20692 0.38309
 H339 H -0.00112 0.20587 0.36599
 C340 C 0.00102 0.18984 0.39533
 H341 H -0.00024 0.17597 0.38711
 C342 C 0.00184 0.22667 0.41391
 H343 H 0.00214 0.24108 0.42110
 C344 C 0.00260 0.20995 0.42685
 H345 H 0.00413 0.21213 0.44377
 Zn346 Zn -0.00050 0.24748 0.37456
 N347 N 0.00085 0.22489 0.39242
 C348 C 0.03491 0.23317 0.35555
 N349 N 0.02216 0.24865 0.35664
 C350 C 0.02559 0.26542 0.34543
 C351 C 0.04194 0.26682 0.33200
 C352 C 0.05139 0.23393 0.34232
 C353 C -0.03798 0.23331 0.36388
 C354 C -0.05538 0.23211 0.35242
 C355 C -0.04327 0.25719 0.32868
 C356 C -0.02607 0.25792 0.34062
 N357 N -0.02367 0.24600 0.35782
 H358 H 0.03249 0.22020 0.36503
 H359 H 0.01574 0.27786 0.34711
 H360 H 0.04423 0.28020 0.32303
 H361 H 0.06140 0.22149 0.34191
 H362 H -0.03611 0.22427 0.37786
 H363 H -0.06647 0.22178 0.35747
 H364 H -0.04500 0.26702 0.31526
 H365 H -0.01478 0.26817 0.33620
 C366 C 0.00238 0.19098 0.41771
 C367 C -0.00317 0.30442 0.41615
 C368 C -0.05825 0.24421 0.33459
 C369 C 0.05505 0.25086 0.33020
 C370 C 0.01659 0.72412 0.09803
 H371 H 0.02972 0.73282 0.09946
 C372 C 0.01661 0.70751 0.08497
 H373 H 0.02983 0.70360 0.07628
 C374 C -0.01668 0.71897 0.10737
 H375 H -0.02965 0.72356 0.11608
 C376 C -0.01731 0.70226 0.09450
 H377 H -0.03074 0.69392 0.09376
 N378 N 0.00010 0.72952 0.10887
 C379 C 0.00208 0.79314 0.11747
 H380 H 0.00141 0.79439 0.13461
 C381 C 0.00316 0.81008 0.10499
 H382 H 0.00322 0.82431 0.11269
 C383 C 0.00228 0.77308 0.08671
 H384 H 0.00185 0.75865 0.07960
 C385 C 0.00329 0.78967 0.07361
 H386 H 0.00392 0.78778 0.05653
 Zn387 Zn 0.00087 0.75234 0.12606
 N388 N 0.00191 0.77505 0.10825
 C389 C 0.03669 0.76597 0.14390
 N390 N 0.02377 0.75083 0.14336
 C391 C 0.02720 0.73405 0.15458
 C392 C 0.04373 0.73231 0.16750
 C393 C 0.05336 0.76486 0.15662
 C394 C -0.03557 0.76813 0.14031
 C395 C -0.05248 0.76944 0.15288
 C396 C -0.04183 0.74051 0.17183
 C397 C -0.02509 0.73987 0.15890
 N398 N -0.02213 0.75363 0.14358
 H399 H 0.03432 0.77891 0.13435
 H400 H 0.01730 0.72182 0.15326
 H401 H 0.04601 0.71891 0.17648
 H402 H 0.06351 0.77702 0.15659
 H403 H -0.03350 0.77855 0.12756
 H404 H -0.06290 0.78078 0.14862
 H405 H -0.04270 0.72961 0.18427
 H406 H -0.01445 0.72826 0.16119
 C407 C 0.00393 0.80848 0.08274
 C408 C -0.00052 0.69631 0.08306
 C409 C -0.05616 0.75552 0.16922
 C410 C 0.05703 0.74791 0.16875
 C411 C 0.51838 0.21843 0.60580
 H412 H 0.53183 0.22110 0.61428
 C413 C 0.51706 0.20215 0.59239
 H414 H 0.52946 0.19218 0.59102
 C415 C 0.48585 0.22805 0.59754
 H416 H 0.47380 0.23833 0.59959
 C417 C 0.48389 0.21195 0.58396
 H418 H 0.47028 0.21001 0.57550
 N419 N 0.50290 0.23098 0.60811
 C420 C 0.50988 0.29406 0.61818
 H421 H 0.51067 0.29501 0.63532
 C422 C 0.51112 0.31114 0.60591
 H423 H 0.51262 0.32518 0.61379
 C424 C 0.50656 0.27464 0.58722
 H425 H 0.50491 0.26040 0.57991
 C426 C 0.50768 0.29136 0.57434
 H427 H 0.50697 0.28973 0.55724
 Zn428 Zn 0.50491 0.25322 0.62601
 N429 N 0.50743 0.27625 0.60876
 C430 C 0.54266 0.26269 0.64190
 N431 N 0.52730 0.25016 0.64387
 C432 C 0.52782 0.23511 0.65816
 C433 C 0.54403 0.23243 0.67137
 C434 C 0.55909 0.26062 0.65487
 C435 C 0.47120 0.27198 0.64423
 C436 C 0.45396 0.27307 0.65629
 C437 C 0.45803 0.23880 0.66528
 C438 C 0.47524 0.23838 0.65307
 N439 N 0.48162 0.25487 0.64298
 H440 H 0.54239 0.27418 0.63006
 H441 H 0.51574 0.22502 0.65924
 H442 H 0.54406 0.22048 0.68275
 H443 H 0.57121 0.27065 0.65286
 H444 H 0.47604 0.28487 0.63579
 H445 H 0.44609 0.28693 0.65724
 H446 H 0.45305 0.22540 0.67282
 H447 H 0.48321 0.22470 0.65120
 C448 C 0.50987 0.30995 0.58366
 C449 C 0.49964 0.19873 0.58123
 C450 C 0.44710 0.25632 0.66699
 C451 C 0.55991 0.24537 0.66992
 C452 C 0.51538 0.77503 0.90403
 H453 H 0.52762 0.76482 0.90403
 C454 C 0.51563 0.79154 0.91723
 H455 H 0.52807 0.79384 0.92749
 C456 C 0.48420 0.78423 0.89077
 H457 H 0.47211 0.78155 0.88022
 C458 C 0.48384 0.80091 0.90371
 H459 H 0.47143 0.81090 0.90286
 N460 N 0.49969 0.77153 0.89139
 C461 C 0.50013 0.70794 0.88232
 H462 H 0.49977 0.70709 0.86515
 C463 C 0.50046 0.69072 0.89443
 H464 H 0.50022 0.67664 0.88642
 C465 C 0.50037 0.72738 0.91354
 H466 H 0.50010 0.74168 0.92097
 C467 C 0.50063 0.71053 0.92626
 H468 H 0.50097 0.71209 0.94339
 Zn469 Zn 0.50023 0.74850 0.87436
 N470 N 0.50045 0.72581 0.89196
 C471 C 0.53705 0.73489 0.85833
 N472 N 0.52322 0.74937 0.85716
 C473 C 0.52578 0.76522 0.84427
 C474 C 0.54258 0.76675 0.83154
 C475 C 0.55405 0.73582 0.84588
 C476 C 0.45994 0.74553 0.86738
 C477 C 0.44256 0.74484 0.85583
 C478 C 0.46157 0.74694 0.82339
 C479 C 0.47862 0.74766 0.83558
 N480 N 0.47749 0.74727 0.85719
 H481 H 0.53508 0.72268 0.86909
 H482 H 0.51470 0.77668 0.84385
 H483 H 0.54420 0.77936 0.82118
 H484 H 0.56498 0.72427 0.84729
 H485 H 0.45948 0.74485 0.88456
 H486 H 0.42876 0.74346 0.86429
 H487 H 0.46273 0.74768 0.80623
 H488 H 0.49270 0.74859 0.82773
 C489 C 0.50086 0.69188 0.91672
 C490 C 0.49963 0.80468 0.91729
 C491 C 0.44321 0.74571 0.83352
 C492 C 0.55700 0.75190 0.83222
 C493 C -0.23013 0.63566 0.97921
 H494 H -0.22146 0.63477 0.99352
 C495 C -0.22430 0.64798 0.96257
 H496 H -0.21119 0.65670 0.96420
 C497 C -0.25783 0.62537 0.95972
 H498 H -0.27068 0.61631 0.95846
 C499 C -0.25265 0.63760 0.94282
 H500 H -0.26163 0.63781 0.92869
 N501 N -0.24678 0.62487 0.97762
 C502 C -0.26848 0.61461 1.04184
 H503 H -0.26975 0.59877 1.04163
 C504 C -0.27443 0.62519 1.05978
 H505 H -0.28069 0.61698 1.07285
 C506 C -0.26003 0.64397 1.02397
 H507 H -0.25452 0.65127 1.00993
 C508 C -0.26575 0.65517 1.04158
 H509 H -0.26359 0.67087 1.04067
 Zn510 Zn -0.25382 0.60855 1.00080
 N511 N -0.26119 0.62406 1.02453
 C512 C -0.22329 0.59339 1.02676
 N513 N -0.23171 0.59273 1.00724
 C514 C -0.22361 0.58196 0.99119
 C515 C -0.20622 0.57144 0.99438
 C516 C -0.20589 0.58308 1.03065
 C517 C -0.29300 0.60255 0.99093
 C518 C -0.31005 0.59210 0.98680
 C519 C -0.29133 0.56188 0.98922
 C520 C -0.27457 0.57294 0.99322
 N521 N -0.27570 0.59292 0.99392
 H522 H -0.22975 0.60230 1.03921
 H523 H -0.23042 0.58200 0.97571
 H524 H -0.19969 0.56350 0.98118
 H525 H -0.19933 0.58389 1.04625
 H526 H -0.29355 0.61842 0.99202
 H527 H -0.32373 0.60006 0.98489
 H528 H -0.29020 0.54600 0.98870
 H529 H -0.26077 0.56554 0.99607
 C530 C -0.27295 0.64591 1.06017
 C531 C -0.23577 0.64920 0.94418
 C532 C -0.30939 0.57147 0.98598
 C533 C -0.19698 0.57212 1.01426
 C534 C -0.22762 0.36416 0.52543
 H535 H -0.21944 0.36225 0.51076
 C536 C -0.22276 0.35371 0.54270
 H537 H -0.21092 0.34312 0.54130
 C538 C -0.25376 0.38061 0.54355
 H539 H -0.26547 0.39135 0.54409
 C540 C -0.24903 0.36943 0.56290
 H541 H -0.25743 0.37296 0.57704
 N542 N -0.24390 0.37768 0.52607
 C543 C -0.26310 0.38319 0.46033
 H544 H -0.26302 0.39902 0.45866
 C545 C -0.26906 0.37147 0.44342
 H546 H -0.27313 0.37842 0.42858
 C547 C -0.25766 0.35502 0.48174
 H548 H -0.25361 0.34869 0.49685
 C549 C -0.26356 0.34273 0.46523
 H550 H -0.26384 0.32699 0.46781
 Zn551 Zn -0.25037 0.39203 0.50122
 N552 N -0.25730 0.37484 0.47892
 C553 C -0.21907 0.40499 0.47463
 N554 N -0.22830 0.40721 0.49373
 C555 C -0.22128 0.41960 0.50876
 C556 C -0.20431 0.43037 0.50489
 C557 C -0.20204 0.41550 0.47008
 C558 C -0.28945 0.39882 0.51104
 C559 C -0.30667 0.40943 0.51479
 C560 C -0.28888 0.43941 0.50828
 C561 C -0.27191 0.42816 0.50484
 N562 N -0.27249 0.40825 0.50641
 H563 H -0.22465 0.39479 0.46305
 H564 H -0.22872 0.42080 0.52396
 H565 H -0.19868 0.43972 0.51732
 H566 H -0.19487 0.41351 0.45482
 H567 H -0.28957 0.38293 0.51168
 H568 H -0.31989 0.40114 0.51764
 H569 H -0.28763 0.45523 0.50750
 H570 H -0.25833 0.43537 0.50082
 C571 C -0.26929 0.35092 0.44571
 C572 C -0.23423 0.35606 0.56287
 C573 C -0.30677 0.43016 0.51345
 C574 C -0.19434 0.42827 0.48540
 C575 C 0.27362 -0.13840 0.02574
 H576 H 0.28139 -0.13994 0.01077
 C577 C 0.27914 -0.14907 0.04262
 H578 H 0.29164 -0.15884 0.04090
 C579 C 0.24864 -0.12172 0.04547
 H580 H 0.23713 -0.11081 0.04677
 C581 C 0.25421 -0.13305 0.06447
 H582 H 0.24543 -0.13074 0.07863
 N583 N 0.25763 -0.12460 0.02743
 C584 C 0.23637 -0.11487 -0.03698
 H585 H 0.23537 -0.09899 -0.03659
 C586 C 0.23049 -0.12504 -0.05504
 H587 H 0.22487 -0.11683 -0.06846
 C588 C 0.24442 -0.14473 -0.01956
 H589 H 0.24962 -0.15234 -0.00561
 C590 C 0.23880 -0.15552 -0.03739
 H591 H 0.24025 -0.17138 -0.03712
 Zn592 Zn 0.25073 -0.10904 0.00357
 N593 N 0.24345 -0.12474 -0.01985
 C594 C 0.28133 -0.09477 -0.02302
 N595 N 0.27267 -0.09349 -0.00352
 C596 C 0.28019 -0.08192 0.01198
 C597 C 0.29717 -0.07110 0.00820
 C598 C 0.29833 -0.08418 -0.02749
 C599 C 0.21184 -0.10272 0.01459
 C600 C 0.19454 -0.09231 0.01858
 C601 C 0.21216 -0.06208 0.01285
 C602 C 0.22920 -0.07316 0.00916
 N603 N 0.22871 -0.09310 0.01010
 H604 H 0.27534 -0.10429 -0.03502
 H605 H 0.27317 -0.08143 0.02745
 H606 H 0.30322 -0.06244 0.02097
 H607 H 0.30504 -0.08543 -0.04308
 H608 H 0.21180 -0.11863 0.01475
 H609 H 0.18138 -0.10074 0.02117
 H610 H 0.21330 -0.04624 0.01244
 H611 H 0.24273 -0.06579 0.00528
 C612 C 0.23191 -0.14565 -0.05555
 C613 C 0.26893 -0.14647 0.06352
 C614 C 0.19428 -0.07155 0.01759
 C615 C 0.30658 -0.07229 -0.01170
 C616 C 0.26911 1.13634 0.47694
 H617 H 0.27633 1.13808 0.49207
 C618 C 0.27579 1.14668 0.45915
 H619 H 0.28818 1.15641 0.46065
 C620 C 0.24449 1.12105 0.45648
 H621 H 0.23251 1.11083 0.45541
 C622 C 0.25078 1.13095 0.43828
 H623 H 0.24323 1.12858 0.42343
 N624 N 0.25358 1.12401 0.47536
 C625 C 0.23267 1.11886 0.54078
 H626 H 0.23284 1.10304 0.54259
 C627 C 0.22705 1.13080 0.55783
 H628 H 0.22329 1.12402 0.57287
 C629 C 0.23790 1.14681 0.51902
 H630 H 0.24182 1.15299 0.50377
 C631 C 0.23231 1.15930 0.53563
 H632 H 0.23211 1.17503 0.53297
 Zn633 Zn 0.24606 1.10974 0.49985
 N634 N 0.23836 1.12700 0.52201
 C635 C 0.27713 1.09697 0.52679
 N636 N 0.26812 1.09452 0.50776
 C637 C 0.27566 1.08222 0.49272
 C638 C 0.29302 1.07185 0.49646
 C639 C 0.29456 1.08688 0.53119
 C640 C 0.20738 1.10279 0.48866
 C641 C 0.19049 1.09197 0.48486
 C642 C 0.20878 1.06222 0.49233
 C643 C 0.22537 1.07364 0.49595
 N644 N 0.22438 1.09354 0.49397
 H645 H 0.27118 1.10716 0.53834
 H646 H 0.26841 1.08089 0.47755
 H647 H 0.29909 1.06264 0.48398
 H648 H 0.30165 1.08914 0.54634
 H649 H 0.20693 1.11867 0.48758
 H650 H 0.17701 1.09968 0.48105
 H651 H 0.20982 1.04640 0.49393
 H652 H 0.23892 1.06658 0.50061
 C653 C 0.22703 1.15135 0.55546
 C654 C 0.26662 1.14396 0.43948
 C655 C 0.19103 1.07140 0.48675
 C656 C 0.30285 1.07431 0.51581
 C657 C 0.15060 0.46407 0.27118
 H658 H 0.14009 0.46852 0.28321
 C659 C 0.16190 0.44708 0.27422
 H660 H 0.15989 0.43857 0.28861
 C661 C 0.16496 0.46893 0.23719
 H662 H 0.16583 0.47743 0.22267
 C663 C 0.17660 0.45216 0.23961
 H664 H 0.18664 0.44801 0.22695
 N665 N 0.15231 0.47456 0.25285
 C666 C 0.14106 0.53594 0.23811
 H667 H 0.12522 0.53559 0.23742
 C668 C 0.15086 0.55361 0.23501
 H669 H 0.14244 0.56681 0.23169
 C670 C 0.17117 0.51903 0.24331
 H671 H 0.17899 0.50560 0.24702
 C672 C 0.18160 0.53644 0.24032
 H673 H 0.19741 0.53623 0.24178
 Zn674 Zn 0.13609 0.49648 0.24705
 N675 N 0.15127 0.51912 0.24207
 C676 C 0.12866 0.50761 0.28878
 N677 N 0.11958 0.50245 0.27047
 C678 C 0.09971 0.50298 0.26886
 C679 C 0.08814 0.50849 0.28633
 C680 C 0.11770 0.51321 0.30659
 C681 C 0.12519 0.50015 0.20415
 C682 C 0.11552 0.49519 0.18550
 C683 C 0.09828 0.46993 0.20485
 C684 C 0.10857 0.47528 0.22309
 N685 N 0.12151 0.49032 0.22249
 H686 H 0.14450 0.50739 0.28948
 H687 H 0.09278 0.49945 0.25398
 H688 H 0.07235 0.50898 0.28474
 H689 H 0.12524 0.51686 0.32113
 H690 H 0.13584 0.51180 0.20382
 H691 H 0.11847 0.50429 0.17179
 H692 H 0.08870 0.45742 0.20618
 H693 H 0.10638 0.46724 0.23776
 C694 C 0.17139 0.55404 0.23627
 C695 C 0.17497 0.44081 0.25820
 C696 C 0.10164 0.47977 0.18529
 C697 C 0.09714 0.51371 0.30553
 C698 C -0.16616 1.02253 0.27322
 H699 H -0.16856 1.00868 0.28125
 C700 C -0.17703 1.03921 0.27923
 H701 H -0.18791 1.03813 0.29178
 C702 C -0.14867 1.04108 0.24756
 H703 H -0.13739 1.04195 0.23550
 C704 C -0.15892 1.05806 0.25325
 H705 H -0.15572 1.07171 0.24510
 N706 N -0.15255 1.02368 0.25734
 C707 C -0.14314 0.96457 0.23206
 H708 H -0.12742 0.96541 0.22987
 C709 C -0.15293 0.94736 0.22686
 H710 H -0.14462 0.93509 0.22039
 C711 C -0.17289 0.97966 0.24321
 H712 H -0.18062 0.99227 0.24957
 C713 C -0.18329 0.96261 0.23837
 H714 H -0.19890 0.96219 0.24151
 Zn715 Zn -0.13734 1.00137 0.24933
 N716 N -0.15307 0.98006 0.24065
 C717 C -0.12355 0.97515 0.28111
 N718 N -0.12205 0.99364 0.27300
 C719 C -0.11015 1.00717 0.28202
 C720 C -0.09887 1.00220 0.29971
 C721 C -0.11256 0.96957 0.29879
 C722 C -0.13039 1.01246 0.20748
 C723 C -0.11970 1.01796 0.18950
 C724 C -0.08992 1.01360 0.20956
 C725 C -0.10126 1.00824 0.22719
 N726 N -0.12113 1.00800 0.22590
 H727 H -0.13337 0.96470 0.27403
 H728 H -0.10950 1.02187 0.27550
 H729 H -0.08969 1.01326 0.30684
 H730 H -0.11383 0.95474 0.30488
 H731 H -0.14621 1.01180 0.20680
 H732 H -0.12778 1.02073 0.17507
 H733 H -0.07423 1.01434 0.21161
 H734 H -0.09414 1.00443 0.24192
 C735 C -0.17319 0.94598 0.23059
 C736 C -0.17333 1.05726 0.26921
 C737 C -0.09901 1.01872 0.19016
 C738 C -0.10001 0.98317 0.30834
 C739 C 0.33418 0.52328 -0.22805
 H740 H 0.33207 0.50937 -0.22003
 C741 C 0.32322 0.53981 -0.22180
 H742 H 0.31254 0.53857 -0.20906
 C743 C 0.35113 0.54210 -0.25392
 H744 H 0.36225 0.54314 -0.26613
 C745 C 0.34077 0.55895 -0.24799
 H746 H 0.34374 0.57268 -0.25608
 N747 N 0.34763 0.52465 -0.24408
 C748 C 0.35871 0.46460 -0.26908
 H749 H 0.37439 0.46573 -0.27145
 C750 C 0.34946 0.44811 -0.27435
 H751 H 0.35799 0.43644 -0.28163
 C752 C 0.32897 0.48075 -0.25900
 H753 H 0.32105 0.49340 -0.25303
 C754 C 0.31810 0.46272 -0.26431
 H755 H 0.30256 0.46279 -0.26086
 Zn756 Zn 0.36329 0.50262 -0.25187
 N757 N 0.34799 0.48102 -0.26049
 C758 C 0.37761 0.47708 -0.21962
 N759 N 0.37849 0.49550 -0.22800
 C760 C 0.38962 0.50966 -0.21895
 C761 C 0.40057 0.50550 -0.20081
 C762 C 0.38832 0.47228 -0.20147
 C763 C 0.37049 0.51349 -0.29380
 C764 C 0.38136 0.51912 -0.31162
 C765 C 0.41090 0.51587 -0.29088
 C766 C 0.39944 0.51029 -0.27343
 N767 N 0.37960 0.50945 -0.27513
 H768 H 0.36833 0.46614 -0.22674
 H769 H 0.38988 0.52425 -0.22580
 H770 H 0.40945 0.51695 -0.19394
 H771 H 0.38711 0.45767 -0.19477
 H772 H 0.35471 0.51246 -0.29475
 H773 H 0.37381 0.52208 -0.32638
 H774 H 0.42664 0.51676 -0.28916
 H775 H 0.40644 0.50671 -0.25856
 C776 C 0.32782 0.44641 -0.27103
 C777 C 0.32664 0.55794 -0.23175
 C778 C 0.40184 0.52048 -0.31028
 C779 C 0.39990 0.48663 -0.19174
 C780 C 0.66802 -0.02163 -0.23173
 H781 H 0.67105 -0.00839 -0.22286
 C782 C 0.67776 -0.03835 -0.22730
 H783 H 0.68834 -0.03823 -0.21457
 C784 C 0.64881 -0.03714 -0.25825
 H785 H 0.63721 -0.03696 -0.26980
 C786 C 0.65900 -0.05580 -0.25390
 H787 H 0.65523 -0.06819 -0.26378
 N788 N 0.65328 -0.02125 -0.24795
 C789 C 0.64442 0.04002 -0.26688
 H790 H 0.62856 0.04012 -0.26723
 C791 C 0.65468 0.05706 -0.27193
 H792 H 0.64614 0.07010 -0.27541
 C793 C 0.67401 0.02276 -0.26042
 H794 H 0.68148 0.00925 -0.25627
 C795 C 0.68492 0.03951 -0.26525
 H796 H 0.70072 0.03818 -0.26506
 Zn797 Zn 0.63825 0.00185 -0.25328
 N798 N 0.65411 0.02346 -0.26083
 C799 C 0.62528 0.02545 -0.21853
 N800 N 0.62367 0.00772 -0.22836
 C801 C 0.61200 -0.00659 -0.22027
 C802 C 0.60105 -0.00323 -0.20179
 C803 C 0.61459 0.02943 -0.19999
 C804 C 0.62998 -0.00605 -0.29559
 C805 C 0.61870 -0.01075 -0.31324
 C806 C 0.58960 -0.00791 -0.29131
 C807 C 0.60146 -0.00327 -0.27403
 N808 N 0.62129 -0.00279 -0.27639
 H809 H 0.63501 0.03647 -0.22486
 H810 H 0.61117 -0.02063 -0.22826
 H811 H 0.59163 -0.01474 -0.19579
 H812 H 0.61628 0.04351 -0.19222
 H813 H 0.64577 -0.00533 -0.29705
 H814 H 0.62593 -0.01328 -0.32839
 H815 H 0.57387 -0.00867 -0.28905
 H816 H 0.59479 -0.00029 -0.25874
 C817 C 0.67536 0.05729 -0.27084
 C818 C 0.67302 -0.05687 -0.23886
 C819 C 0.59824 -0.01195 -0.31118
 C820 C 0.60229 0.01498 -0.19137
 C821 C 0.02991 0.26845 0.84517
 H822 H 0.02094 0.28149 0.84724
 C823 C 0.04627 0.26904 0.83169
 H824 H 0.04943 0.28243 0.82306
 C825 C 0.03703 0.23542 0.85438
 H826 H 0.03375 0.22243 0.86352
 C827 C 0.05349 0.23535 0.84107
 H828 H 0.06262 0.22227 0.84024
 N829 N 0.02535 0.25169 0.85590
 C830 C -0.03538 0.23984 0.86165
 H831 H -0.03428 0.23038 0.87539
 C832 C -0.05238 0.23950 0.84945
 H833 H -0.06396 0.22942 0.85374
 C834 C -0.02184 0.26452 0.83957
 H835 H -0.01005 0.27442 0.83586
 C836 C -0.03861 0.26467 0.82692
 H837 H -0.03953 0.27483 0.81370
 Zn838 Zn 0.00255 0.25179 0.87359
 N839 N -0.02043 0.25211 0.85649
 C840 C -0.01281 0.28677 0.89182
 N841 N 0.00306 0.27458 0.89082
 C842 C 0.01962 0.27847 0.90192
 C843 C 0.02064 0.29521 0.91471
 C844 C -0.01242 0.30368 0.90440
 C845 C 0.00067 0.21109 0.88145
 C846 C 0.00007 0.19388 0.89350
 C847 C 0.00208 0.21353 0.92536
 C848 C 0.00271 0.23040 0.91266
 N849 N 0.00216 0.22891 0.89109
 H850 H -0.02581 0.28341 0.88282
 H851 H 0.03203 0.26851 0.90084
 H852 H 0.03388 0.29794 0.92359
 H853 H -0.02510 0.31336 0.90469
 H854 H -0.00020 0.21029 0.86430
 H855 H -0.00130 0.17989 0.88547
 H856 H 0.00276 0.21498 0.94248
 H857 H 0.00357 0.24468 0.92010
 C858 C -0.05418 0.25203 0.83181
 C859 C 0.05822 0.25226 0.82936
 C860 C 0.00084 0.19494 0.91577
 C861 C 0.00448 0.30812 0.91606
 C862 C 0.47273 0.26224 0.15549
 H863 H 0.48221 0.27491 0.15581
 C864 C 0.45590 0.26182 0.16828
 H865 H 0.45265 0.27419 0.17858
 C866 C 0.46564 0.23070 0.14175
 H867 H 0.46927 0.21872 0.13115
 C868 C 0.44869 0.22966 0.15427
 H869 H 0.43944 0.21686 0.15305
 N870 N 0.47741 0.24672 0.14276
 C871 C 0.54095 0.24923 0.13429
 H872 H 0.54205 0.24873 0.11713
 C873 C 0.55792 0.25023 0.14652
 H874 H 0.57207 0.25035 0.13861
 C875 C 0.52113 0.24923 0.16536
 H876 H 0.50679 0.24866 0.17269
 C877 C 0.53774 0.25017 0.17821
 H878 H 0.53593 0.25068 0.19531
 Zn879 Zn 0.50061 0.24825 0.12599
 N880 N 0.52299 0.24913 0.14380
 C881 C 0.51292 0.28542 0.11009
 N882 N 0.49886 0.27138 0.10911
 C883 C 0.48300 0.27365 0.09632
 C884 C 0.48112 0.29026 0.08337
 C885 C 0.51164 0.30223 0.09740
 C886 C 0.50606 0.20805 0.11799
 C887 C 0.50786 0.19090 0.10592
 C888 C 0.50423 0.21041 0.07408
 C889 C 0.50256 0.22721 0.08676
 N890 N 0.50319 0.22572 0.10833
 H891 H 0.52514 0.28369 0.12076
 H892 H 0.47188 0.26240 0.09605
 H893 H 0.46857 0.29159 0.07301
 H894 H 0.52291 0.31328 0.09857
 H895 H 0.50673 0.20728 0.13515
 H896 H 0.50968 0.17693 0.11397
 H897 H 0.50372 0.21190 0.05695
 H898 H 0.50080 0.24141 0.07930
 C899 C 0.55645 0.25089 0.16880
 C900 C 0.44366 0.24532 0.16786
 C901 C 0.50683 0.19192 0.08364
 C902 C 0.49564 0.30479 0.08370
 C903 C -0.02580 0.76384 0.65656
 H904 H -0.01619 0.77643 0.65633
 C905 C -0.04155 0.76375 0.66938
 H906 H -0.04391 0.77627 0.67968
 C907 C -0.03245 0.73181 0.64335
 H908 H -0.02908 0.71952 0.63308
 C909 C -0.04997 0.73100 0.65722
 H910 H -0.05909 0.71816 0.65583
 N911 N -0.02120 0.74715 0.64344
 C912 C 0.04224 0.74909 0.63405
 H913 H 0.04324 0.74847 0.61689
 C914 C 0.05929 0.75006 0.64616
 H915 H 0.07340 0.75003 0.63817
 C916 C 0.02259 0.74941 0.66524
 H917 H 0.00829 0.74897 0.67267
 C918 C 0.03927 0.75032 0.67797
 H919 H 0.03754 0.75096 0.69508
 Zn920 Zn 0.00173 0.74831 0.62618
 N921 N 0.02433 0.74915 0.64367
 C922 C 0.01410 0.78530 0.60980
 N923 N -0.00008 0.77136 0.60915
 C924 C -0.01613 0.77371 0.59666
 C925 C -0.01812 0.79031 0.58371
 C926 C 0.01271 0.80211 0.59711
 C927 C 0.00685 0.70795 0.61832
 C928 C 0.00842 0.69074 0.60630
 C929 C 0.00442 0.71015 0.57444
 C930 C 0.00298 0.72701 0.58708
 N931 N 0.00391 0.72561 0.60864
 H932 H 0.02648 0.78352 0.62023
 H933 H -0.02734 0.76254 0.59664
 H934 H -0.03084 0.79171 0.57361
 H935 H 0.02407 0.81309 0.59803
 H936 H 0.00778 0.70725 0.63547
 H937 H 0.01031 0.67681 0.61439
 H938 H 0.00370 0.71158 0.55732
 H939 H 0.00117 0.74117 0.57957
 C940 C 0.05793 0.75086 0.66845
 C941 C -0.05472 0.74630 0.67006
 C942 C 0.00709 0.69168 0.58404
 C943 C -0.00352 0.80476 0.58373
 C944 C 0.52754 0.77068 0.34461
 H945 H 0.51776 0.78327 0.34492
 C946 C 0.54403 0.77070 0.33129
 H947 H 0.54675 0.78335 0.32126
 C948 C 0.53566 0.73880 0.35713
 H949 H 0.53255 0.72650 0.36742
 C950 C 0.55228 0.73820 0.34406
 H951 H 0.56182 0.72541 0.34457
 N952 N 0.52350 0.75475 0.35693
 C953 C 0.46007 0.75611 0.36633
 H954 H 0.45918 0.75516 0.38348
 C955 C 0.44293 0.75695 0.35434
 H956 H 0.42887 0.75646 0.36242
 C957 C 0.47953 0.75727 0.33502
 H958 H 0.49379 0.75714 0.32749
 C959 C 0.46275 0.75805 0.32241
 H960 H 0.46435 0.75889 0.30530
 Zn961 Zn 0.50047 0.75545 0.37407
 N962 N 0.47791 0.75659 0.35659
 C963 C 0.48730 0.79203 0.39092
 N964 N 0.50165 0.77805 0.39172
 C965 C 0.51741 0.78018 0.40463
 C966 C 0.51894 0.79665 0.41778
 C967 C 0.48822 0.80869 0.40381
 C968 C 0.49625 0.71499 0.38023
 C969 C 0.49504 0.69730 0.39141
 C970 C 0.49807 0.71542 0.42421
 C971 C 0.49926 0.73279 0.41237
 N972 N 0.49865 0.73224 0.39076
 H973 H 0.47517 0.79045 0.38015
 H974 H 0.52877 0.76899 0.40475
 H975 H 0.53147 0.79794 0.42815
 H976 H 0.47676 0.81974 0.40271
 H977 H 0.49542 0.71500 0.36306
 H978 H 0.49312 0.68374 0.38269
 H979 H 0.49901 0.71611 0.44136
 H980 H 0.50074 0.74666 0.42052
 C981 C 0.44413 0.75802 0.33207
 C982 C 0.55658 0.75423 0.33077
 C983 C 0.49612 0.69733 0.41371
 C984 C 0.50417 0.81116 0.41754
 B985 B -0.01168 0.01161 1.01636
 B986 B -0.02203 0.00733 0.99269
 B987 B -0.00404 0.02393 0.99463
 B988 B 0.01246 0.01576 1.01253
 B989 B 0.00448 -0.00640 1.02160
 B990 B -0.01707 -0.01165 1.00923
 B991 B 0.01160 -0.00951 0.97882
 B992 B 0.02194 -0.00520 1.00248
 B993 B 0.00397 -0.02182 1.00058
 B994 B -0.01255 -0.01367 0.98264
 B995 B -0.00458 0.00852 0.97357
 B996 B 0.01698 0.01376 0.98595
 B997 B 0.48743 0.51372 0.51485
 B998 B 0.47695 0.50863 0.49143
 B999 B 0.49490 0.52534 0.49258
 B1000 B 0.51155 0.51782 0.51066
 B1001 B 0.50369 0.49595 0.52064
 B1002 B 0.48205 0.49022 0.50867
 B1003 B 0.51054 0.49144 0.47796
 B1004 B 0.52102 0.49656 0.50135
 B1005 B 0.50308 0.47982 0.50025
 B1006 B 0.48642 0.48732 0.48214
 B1007 B 0.49428 0.50923 0.47216
 B1008 B 0.51589 0.51496 0.48414
 B1009 B 0.51160 0.99538 0.51540
 B1010 B 0.52235 0.99961 0.49177
 B1011 B 0.50403 0.98335 0.49356
 B1012 B 0.48745 0.99168 0.51151
 B1013 B 0.49570 1.01365 0.52071
 B1014 B 0.51754 1.01858 0.50841
 B1015 B 0.48922 1.01718 0.47796
 B1016 B 0.47849 1.01290 0.50160
 B1017 B 0.49679 1.02919 0.49979
 B1018 B 0.51342 1.02085 0.48183
 B1019 B 0.50514 0.99889 0.47263
 B1020 B 0.48331 0.99396 0.48493
 B1021 B 0.01185 0.49169 1.01601
 B1022 B 0.02228 0.49621 0.99226
 B1023 B 0.00374 0.48019 0.99406
 B1024 B -0.01244 0.48843 1.01251
 B1025 B -0.00370 0.51009 1.02203
 B1026 B 0.01801 0.51493 1.00941
 B1027 B -0.01081 0.51453 0.97948
 B1028 B -0.02124 0.50998 1.00322
 B1029 B -0.00270 0.52602 1.00141
 B1030 B 0.01350 0.51777 0.98297
 B1031 B 0.00474 0.49611 0.97346
 B1032 B -0.01696 0.49128 0.98607
 B1033 B 0.01252 0.50871 0.48156
 B1034 B 0.02318 0.50404 0.50504
 B1035 B 0.00502 0.52081 0.50359
 B1036 B -0.01162 0.51300 0.48576
 B1037 B -0.00352 0.49087 0.47631
 B1038 B 0.01822 0.48532 0.48834
 B1039 B -0.01017 0.48727 0.51912
 B1040 B -0.02078 0.49194 0.49563
 B1041 B -0.00262 0.47517 0.49712
 B1042 B 0.01400 0.48298 0.51496
 B1043 B 0.00590 0.50510 0.52440
 B1044 B -0.01583 0.51068 0.51236
 B1045 B 0.51373 0.00840 -0.01664
 B1046 B 0.52390 0.00400 0.00715
 B1047 B 0.50555 0.02049 0.00512
 B1048 B 0.48944 0.01238 -0.01309
 B1049 B 0.49803 -0.00968 -0.02222
 B1050 B 0.51958 -0.01487 -0.00960
 B1051 B 0.49053 -0.01320 0.02044
 B1052 B 0.48035 -0.00877 -0.00333
 B1053 B 0.49871 -0.02527 -0.00131
 B1054 B 0.51483 -0.01715 0.01692
 B1055 B 0.50621 0.00488 0.02604
 B1056 B 0.48468 0.01010 0.01342
 B1057 B 0.48482 0.48827 -0.01655
 B1058 B 0.47423 0.49265 0.00718
 B1059 B 0.49258 0.47612 0.00525
 B1060 B 0.50904 0.48423 -0.01285
 B1061 B 0.50067 0.50631 -0.02202
 B1062 B 0.47890 0.51155 -0.00954
 B1063 B 0.50741 0.50975 0.02068
 B1064 B 0.51801 0.50533 -0.00302
 B1065 B 0.49967 0.52188 -0.00112
 B1066 B 0.48318 0.51378 0.01700
 B1067 B 0.49158 0.49169 0.02618
 B1068 B 0.51333 0.48645 0.01370
 B1069 B -0.01458 0.98838 0.48314
 B1070 B -0.02540 0.99264 0.50677
 B1071 B -0.00717 0.97596 0.50492
 B1072 B 0.00955 0.98409 0.48711
 B1073 B 0.00147 1.00633 0.47807
 B1074 B -0.02038 1.01165 0.49033
 B1075 B 0.00777 1.00931 0.52090
 B1076 B 0.01859 1.00502 0.49729
 B1077 B 0.00038 1.02171 0.49914
 B1078 B -0.01637 1.01358 0.51695
 B1079 B -0.00827 0.99134 0.52599
 B1080 B 0.01357 0.98603 0.51374
 B1081 B 0.75811 0.23779 0.23613
 B1082 B 0.75368 0.22710 0.25974
 B1083 B 0.77027 0.24515 0.25792
 B1084 B 0.76226 0.26194 0.24014
 B1085 B 0.74019 0.25410 0.23105
 B1086 B 0.73486 0.23231 0.24326
 B1087 B 0.73684 0.26068 0.27387
 B1088 B 0.74130 0.27135 0.25028
 B1089 B 0.72468 0.25332 0.25208
 B1090 B 0.73269 0.23650 0.26989
 B1091 B 0.75476 0.24436 0.27897
 B1092 B 0.76010 0.26613 0.26675
 B1093 B 0.74211 0.76184 0.73537
 B1094 B 0.74600 0.77273 0.75890
 B1095 B 0.72997 0.75418 0.75726
 B1096 B 0.73863 0.73758 0.73952
 B1097 B 0.76053 0.74607 0.73029
 B1098 B 0.76512 0.76803 0.74237
 B1099 B 0.76369 0.73969 0.77313
 B1100 B 0.75978 0.72884 0.74960
 B1101 B 0.77582 0.74736 0.75125
 B1102 B 0.76717 0.76399 0.76901
 B1103 B 0.74525 0.75550 0.77823
 B1104 B 0.74067 0.73353 0.76614
 B1105 B 0.26188 0.26437 0.76466
 B1106 B 0.25812 0.27516 0.74100
 B1107 B 0.27420 0.25643 0.74293
 B1108 B 0.26549 0.24002 0.76073
 B1109 B 0.24348 0.24883 0.76971
 B1110 B 0.23891 0.27080 0.75741
 B1111 B 0.24065 0.24230 0.72689
 B1112 B 0.24443 0.23149 0.75052
 B1113 B 0.22835 0.25023 0.74861
 B1114 B 0.23707 0.26664 0.73080
 B1115 B 0.25906 0.25782 0.72181
 B1116 B 0.26363 0.23586 0.73411
 B1117 B 0.23974 0.73497 0.26731
 B1118 B 0.24395 0.72462 0.24348
 B1119 B 0.22845 0.74383 0.24550
 B1120 B 0.23709 0.75947 0.26397
 B1121 B 0.25854 0.74965 0.27323
 B1122 B 0.26264 0.72790 0.26039
 B1123 B 0.26308 0.75722 0.23065
 B1124 B 0.25865 0.76754 0.25474
 B1125 B 0.27436 0.74835 0.25240
 B1126 B 0.26571 0.73265 0.23405
 B1127 B 0.24428 0.74238 0.22479
 B1128 B 0.24004 0.76419 0.23744
 B1129 B 0.25942 0.73775 0.73580
 B1130 B 0.25513 0.72777 0.75980
 B1131 B 0.27183 0.74563 0.75721
 B1132 B 0.26379 0.76198 0.73896
 B1133 B 0.24159 0.75405 0.73037
 B1134 B 0.23620 0.73265 0.74335
 B1135 B 0.23865 0.76183 0.77299
 B1136 B 0.24298 0.77181 0.74901
 B1137 B 0.22625 0.75396 0.75156
 B1138 B 0.23428 0.73759 0.76984
 B1139 B 0.25650 0.74554 0.77844
 B1140 B 0.26189 0.76692 0.76545
 B1141 B 0.23871 0.25608 0.23028
 B1142 B 0.24260 0.26685 0.25387
 B1143 B 0.22642 0.24847 0.25210
 B1144 B 0.23499 0.23184 0.23432
 B1145 B 0.25703 0.24016 0.22522
 B1146 B 0.26173 0.26204 0.23741
 B1147 B 0.25995 0.23365 0.26806
 B1148 B 0.25605 0.22289 0.24447
 B1149 B 0.27223 0.24128 0.24627
 B1150 B 0.26364 0.25791 0.26405
 B1151 B 0.24164 0.24957 0.27315
 B1152 B 0.23691 0.22769 0.26095
 B1153 B 0.75988 0.76442 0.26561
 B1154 B 0.75625 0.77457 0.24159
 B1155 B 0.77244 0.75601 0.24425
 B1156 B 0.76367 0.74001 0.26246
 B1157 B 0.74153 0.74890 0.27095
 B1158 B 0.73694 0.77051 0.25794
 B1159 B 0.73912 0.74123 0.22832
 B1160 B 0.74276 0.73108 0.25231
 B1161 B 0.72657 0.74965 0.24968
 B1162 B 0.73534 0.76565 0.23143
 B1163 B 0.75747 0.75675 0.22294
 B1164 B 0.76208 0.73516 0.23597
 B1165 B 0.74269 0.23518 0.76697
 B1166 B 0.74674 0.22640 0.74227
 B1167 B 0.73031 0.24469 0.74629
 B1168 B 0.73879 0.25973 0.76535
 B1169 B 0.76086 0.25055 0.77329
 B1170 B 0.76582 0.22978 0.75896
 B1171 B 0.76382 0.26046 0.73116
 B1172 B 0.75982 0.26932 0.75577
 B1173 B 0.77612 0.25105 0.75198
 B1174 B 0.76765 0.23595 0.73276
 B1175 B 0.74550 0.24522 0.72489
 B1176 B 0.74086 0.26605 0.73926
 C1177 C 0.43726 1.03204 0.36003
 C1178 C 0.43880 1.01299 0.35180
 C1179 C 0.42806 1.00769 0.33396
 C1180 C 0.41562 1.02140 0.32405
 C1181 C 0.41476 1.04079 0.33180
 C1182 C 0.42546 1.04606 0.34984
 C1183 C 0.44618 1.03610 0.38018
 C1184 C 0.45315 1.03742 0.39766
 C1185 C 0.46074 1.03632 0.41889
 C1186 C 0.45038 1.02536 0.43392
 C1187 C 0.45898 1.02041 0.45321
 C1188 C 0.47808 1.02663 0.45809
 C1189 C 0.48801 1.03862 0.44330
 C1190 C 0.47941 1.04336 0.42376
 H1191 H 0.44780 1.00200 0.35964
 H1192 H 0.42915 0.99273 0.32815
 H1193 H 0.40518 1.05158 0.32450
 H1194 H 0.42401 1.06079 0.35621
 H1195 H 0.43604 1.01958 0.43021
 H1196 H 0.45095 1.01080 0.46379
 H1197 H 0.50284 1.04338 0.44619
 H1198 H 0.48770 1.05161 0.41208
 C1199 C -0.06464 0.52907 0.86294
 C1200 C -0.06924 0.50950 0.85881
 C1201 C -0.07992 0.50454 0.84084
 C1202 C -0.08640 0.51912 0.82641
 C1203 C -0.08096 0.53883 0.83043
 C1204 C -0.07031 0.54374 0.84863
 C1205 C -0.05507 0.53359 0.88262
 C1206 C -0.04770 0.53520 0.89987
 C1207 C -0.03985 0.53428 0.92100
 C1208 C -0.05024 0.52367 0.93631
 C1209 C -0.04145 0.51861 0.95546
 C1210 C -0.02213 0.52441 0.95996
 C1211 C -0.01218 0.53615 0.94494
 C1212 C -0.02097 0.54095 0.92550
 H1213 H -0.06474 0.49797 0.86970
 H1214 H -0.08261 0.48910 0.83817
 H1215 H -0.08579 0.55075 0.82030
 H1216 H -0.06693 0.55899 0.85178
 H1217 H -0.06474 0.51815 0.93289
 H1218 H -0.04951 0.50915 0.96616
 H1219 H 0.00280 0.54058 0.94753
 H1220 H -0.01267 0.54893 0.91361
 C1221 C 0.06753 -0.02952 0.86189
 C1222 C 0.06122 -0.01495 0.84774
 C1223 C 0.07197 -0.01107 0.82926
 C1224 C 0.08926 -0.02170 0.82468
 C1225 C 0.09516 -0.03677 0.83867
 C1226 C 0.08439 -0.04060 0.85720
 C1227 C 0.05795 -0.03135 0.88222
 C1228 C 0.05032 -0.03127 0.89955
 C1229 C 0.04187 -0.02898 0.92040
 C1230 C 0.05136 -0.01690 0.93493
 C1231 C 0.04216 -0.01166 0.95392
 C1232 C 0.02329 -0.01865 0.95900
 C1233 C 0.01418 -0.03153 0.94466
 C1234 C 0.02340 -0.03661 0.92543
 H1235 H 0.04835 -0.00610 0.85136
 H1236 H 0.06716 0.00080 0.81901
 H1237 H 0.10825 -0.04540 0.83544
 H1238 H 0.08950 -0.05180 0.86815
 H1239 H 0.06556 -0.01073 0.93111
 H1240 H 0.04961 -0.00145 0.96422
 H1241 H -0.00045 -0.03691 0.94771
 H1242 H 0.01581 -0.04579 0.91414
 C1243 C 0.56542 0.46964 0.36107
 C1244 C 0.55913 0.48429 0.34699
 C1245 C 0.56991 0.48827 0.32856
 C1246 C 0.58721 0.47766 0.32395
 C1247 C 0.59304 0.46246 0.33782
 C1248 C 0.58224 0.45854 0.35631
 C1249 C 0.55596 0.46787 0.38146
 C1250 C 0.54850 0.46809 0.39887
 C1251 C 0.54028 0.47065 0.41980
 C1252 C 0.54997 0.48291 0.43398
 C1253 C 0.54094 0.48854 0.45295
 C1254 C 0.52209 0.48174 0.45835
 C1255 C 0.51280 0.46864 0.44438
 C1256 C 0.52183 0.46318 0.42517
 H1257 H 0.54629 0.49317 0.35069
 H1258 H 0.56515 0.50023 0.31841
 H1259 H 0.60612 0.45383 0.33456
 H1260 H 0.58734 0.44728 0.36719
 H1261 H 0.56415 0.48897 0.42989
 H1262 H 0.54851 0.49894 0.46291
 H1263 H 0.49815 0.46342 0.44766
 H1264 H 0.51408 0.45387 0.41414
 C1265 C 0.56372 0.52957 0.13601
 C1266 C 0.56561 0.51055 0.14424
 C1267 C 0.57717 0.50705 0.16204
 C1268 C 0.58705 0.52256 0.17194
 C1269 C 0.58460 0.54179 0.16405
 C1270 C 0.57306 0.54526 0.14605
 C1271 C 0.55355 0.53219 0.11625
 C1272 C 0.54565 0.53236 0.09918
 C1273 C 0.53717 0.52997 0.07849
 C1274 C 0.54693 0.51782 0.06395
 C1275 C 0.53782 0.51230 0.04519
 C1276 C 0.51880 0.51910 0.04033
 C1277 C 0.50938 0.53203 0.05468
 C1278 C 0.51850 0.53738 0.07371
 H1279 H 0.55851 0.49829 0.13654
 H1280 H 0.57856 0.49215 0.16798
 H1281 H 0.59214 0.55398 0.17134
 H1282 H 0.57184 0.56002 0.13970
 H1283 H 0.56127 0.51178 0.06759
 H1284 H 0.54551 0.50202 0.03492
 H1285 H 0.49462 0.53725 0.05180
 H1286 H 0.51068 0.54657 0.08504
 C1287 C 0.06385 1.02878 0.63661
 C1288 C 0.06560 1.00982 0.64505
 C1289 C 0.07729 1.00638 0.66278
 C1290 C 0.08743 1.02188 0.67237
 C1291 C 0.08510 1.04106 0.66428
 C1292 C 0.07344 1.04446 0.64637
 C1293 C 0.05363 1.03130 0.61687
 C1294 C 0.04572 1.03142 0.59981
 C1295 C 0.03727 1.02901 0.57911
 C1296 C 0.04699 1.01676 0.56464
 C1297 C 0.03796 1.01135 0.54580
 C1298 C 0.01905 1.01838 0.54077
 C1299 C 0.00965 1.03136 0.55510
 C1300 C 0.01870 1.03659 0.57421
 H1301 H 0.05832 0.99756 0.63757
 H1302 H 0.07859 0.99153 0.66887
 H1303 H 0.09284 1.05323 0.67133
 H1304 H 0.07233 1.05917 0.63984
 H1305 H 0.06126 1.01059 0.56837
 H1306 H 0.04563 1.00104 0.53556
 H1307 H -0.00504 1.03674 0.55210
 H1308 H 0.01091 1.04586 0.58548
 C1309 C -0.06967 0.46569 0.63372
 C1310 C -0.08845 0.47403 0.63277
 C1311 C -0.09906 0.47773 0.65139
 C1312 C -0.09106 0.47311 0.67135
 C1313 C -0.07230 0.46431 0.67216
 C1314 C -0.06165 0.46068 0.65343
 C1315 C -0.05828 0.46415 0.61445
 C1316 C -0.04962 0.46457 0.59769
 C1317 C -0.04057 0.46738 0.57721
 C1318 C -0.05005 0.47966 0.56272
 C1319 C -0.04072 0.48510 0.54392
 C1320 C -0.02174 0.47809 0.53894
 C1321 C -0.01254 0.46511 0.55330
 C1322 C -0.02190 0.45983 0.57239
 H1323 H -0.09469 0.47822 0.61761
 H1324 H -0.11327 0.48483 0.65016
 H1325 H -0.06583 0.46036 0.68725
 H1326 H -0.04705 0.45436 0.65436
 H1327 H -0.06441 0.48576 0.56637
 H1328 H -0.04825 0.49543 0.53368
 H1329 H 0.00219 0.45974 0.55033
 H1330 H -0.01432 0.45047 0.58365
 C1331 C 0.43015 -0.03721 0.13393
 C1332 C 0.41083 -0.03022 0.13306
 C1333 C 0.40028 -0.02668 0.15176
 C1334 C 0.40891 -0.03009 0.17169
 C1335 C 0.42818 -0.03765 0.17242
 C1336 C 0.43876 -0.04112 0.15362
 C1337 C 0.44146 -0.03823 0.11459
 C1338 C 0.45017 -0.03738 0.09790
 C1339 C 0.45944 -0.03412 0.07763
 C1340 C 0.45008 -0.02166 0.06322
 C1341 C 0.45965 -0.01582 0.04470
 C1342 C 0.47877 -0.02261 0.03997
 C1343 C 0.48786 -0.03572 0.05426
 C1344 C 0.47824 -0.04141 0.07303
 H1345 H 0.40412 -0.02687 0.11790
 H1346 H 0.38563 -0.02055 0.15059
 H1347 H 0.43515 -0.04068 0.18750
 H1348 H 0.45377 -0.04638 0.15447
 H1349 H 0.43561 -0.01575 0.06672
 H1350 H 0.45220 -0.00542 0.03448
 H1351 H 0.50268 -0.04091 0.05150
 H1352 H 0.48573 -0.05088 0.08426
 C1353 C 0.35820 0.45203 0.02402
 C1354 C 0.35742 0.43282 0.01622
 C1355 C 0.33953 0.42318 0.01481
 C1356 C 0.32203 0.43256 0.02126
 C1357 C 0.32292 0.45187 0.02928
 C1358 C 0.34094 0.46156 0.03064
 C1359 C 0.37683 0.46181 0.02412
 C1360 C 0.39308 0.46855 0.02294
 C1361 C 0.41303 0.47474 0.01995
 C1362 C 0.42564 0.46264 0.00817
 C1363 C 0.44491 0.46824 0.00435
 C1364 C 0.45212 0.48613 0.01227
 C1365 C 0.43932 0.49820 0.02431
 C1366 C 0.41988 0.49253 0.02810
 H1367 H 0.37066 0.42537 0.01086
 H1368 H 0.33938 0.40852 0.00811
 H1369 H 0.30973 0.45945 0.03449
 H1370 H 0.34138 0.47647 0.03664
 H1371 H 0.42049 0.44887 0.00169
 H1372 H 0.45397 0.45855 -0.00520
 H1373 H 0.44421 0.51208 0.03067
 H1374 H 0.41020 0.50205 0.03723
 C1375 C -0.14160 0.95249 0.52328
 C1376 C -0.15864 0.96186 0.53077
 C1377 C -0.17671 0.95227 0.52964
 C1378 C -0.17787 0.93321 0.52101
 C1379 C -0.16059 0.92397 0.51368
 C1380 C -0.14264 0.93353 0.51485
 C1381 C -0.12294 0.96217 0.52326
 C1382 C -0.10668 0.96888 0.52199
 C1383 C -0.08674 0.97504 0.51894
 C1384 C -0.07977 0.99261 0.52750
 C1385 C -0.06030 0.99821 0.52382
 C1386 C -0.04760 0.98629 0.51149
 C1387 C -0.05495 0.96864 0.50312
 C1388 C -0.07426 0.96311 0.50682
 H1389 H -0.15799 0.97658 0.53728
 H1390 H -0.18974 0.95971 0.53554
 H1391 H -0.16098 0.90951 0.50651
 H1392 H -0.12956 0.92621 0.50884
 H1393 H -0.08936 1.00199 0.53691
 H1394 H -0.05530 1.01191 0.53055
 H1395 H -0.04591 0.95903 0.49344
 H1396 H -0.07950 0.94950 0.50005
 C1397 C -0.14077 0.04213 0.98231
 C1398 C -0.14730 0.04722 1.00265
 C1399 C -0.16509 0.05708 1.00545
 C1400 C -0.17690 0.06224 0.98789
 C1401 C -0.17059 0.05601 0.96747
 C1402 C -0.15256 0.04623 0.96473
 C1403 C -0.12123 0.03433 0.97989
 C1404 C -0.10436 0.02890 0.97960
 C1405 C -0.08393 0.02382 0.98125
 C1406 C -0.07169 0.03635 0.99254
 C1407 C -0.05213 0.03128 0.99583
 C1408 C -0.04429 0.01353 0.98784
 C1409 C -0.05669 0.00111 0.97615
 C1410 C -0.07640 0.00622 0.97293
 H1411 H -0.13836 0.04395 1.01641
 H1412 H -0.16958 0.06037 1.02160
 H1413 H -0.17878 0.05973 0.95335
 H1414 H -0.14756 0.04246 0.94885
 H1415 H -0.07739 0.04994 0.99923
 H1416 H -0.04336 0.04120 1.00513
 H1417 H -0.05134 -0.01270 0.96976
 H1418 H -0.08580 -0.00368 0.96427
 C1419 C 0.36071 0.54822 0.47019
 C1420 C 0.35986 0.56877 0.47032
 C1421 C 0.34191 0.57847 0.47283
 C1422 C 0.32453 0.56774 0.47522
 C1423 C 0.32531 0.54711 0.47394
 C1424 C 0.34338 0.53737 0.47158
 C1425 C 0.37959 0.53871 0.47114
 C1426 C 0.39592 0.53212 0.47324
 C1427 C 0.41578 0.52598 0.47721
 C1428 C 0.42766 0.53820 0.48932
 C1429 C 0.44689 0.53270 0.49378
 C1430 C 0.45475 0.51480 0.48622
 C1431 C 0.44264 0.50256 0.47397
 C1432 C 0.42327 0.50813 0.46951
 H1433 H 0.37318 0.57731 0.46937
 H1434 H 0.34166 0.59439 0.47356
 H1435 H 0.31211 0.53854 0.47589
 H1436 H 0.34390 0.52145 0.47169
 H1437 H 0.42201 0.55204 0.49542
 H1438 H 0.45549 0.54258 0.50332
 H1439 H 0.44804 0.48867 0.46782
 H1440 H 0.41416 0.49852 0.46014
 C1441 C 0.13930 0.54373 0.52159
 C1442 C 0.14003 0.56322 0.51460
 C1443 C 0.15786 0.57303 0.51361
 C1444 C 0.17534 0.56354 0.51969
 C1445 C 0.17451 0.54393 0.52685
 C1446 C 0.15654 0.53407 0.52779
 C1447 C 0.12072 0.53389 0.52138
 C1448 C 0.10449 0.52717 0.52002
 C1449 C 0.08457 0.52110 0.51694
 C1450 C 0.07225 0.53322 0.50499
 C1451 C 0.05292 0.52786 0.50138
 C1452 C 0.04539 0.51019 0.50966
 C1453 C 0.05793 0.49808 0.52181
 C1454 C 0.07741 0.50351 0.52541
 H1455 H 0.12680 0.57078 0.50957
 H1456 H 0.15799 0.58794 0.50756
 H1457 H 0.18769 0.53626 0.53174
 H1458 H 0.15613 0.51894 0.53316
 H1459 H 0.07763 0.54686 0.49832
 H1460 H 0.04401 0.53763 0.49188
 H1461 H 0.05278 0.48437 0.52847
 H1462 H 0.08686 0.49400 0.53470
 C1463 C 0.63925 0.04523 0.02470
 C1464 C 0.63976 0.06469 0.01758
 C1465 C 0.65752 0.07459 0.01615
 C1466 C 0.67515 0.06520 0.02191
 C1467 C 0.67453 0.04565 0.02927
 C1468 C 0.65664 0.03570 0.03065
 C1469 C 0.62078 0.03521 0.02472
 C1470 C 0.60462 0.02831 0.02344
 C1471 C 0.58478 0.02203 0.02029
 C1472 C 0.57240 0.03407 0.00834
 C1473 C 0.55323 0.02842 0.00439
 C1474 C 0.54589 0.01055 0.01236
 C1475 C 0.55847 -0.00147 0.02457
 C1476 C 0.57782 0.00425 0.02849
 H1477 H 0.62641 0.07214 0.01273
 H1478 H 0.65748 0.08945 0.00997
 H1479 H 0.68783 0.03807 0.03396
 H1480 H 0.65641 0.02060 0.03611
 H1481 H 0.57764 0.04784 0.00184
 H1482 H 0.54433 0.03809 -0.00525
 H1483 H 0.55348 -0.01534 0.03097
 H1484 H 0.58733 -0.00521 0.03776
 C1485 C 0.63787 0.95642 0.47326
 C1486 C 0.65562 0.96660 0.47409
 C1487 C 0.67327 0.95624 0.47686
 C1488 C 0.67321 0.93567 0.47911
 C1489 C 0.65540 0.92558 0.47741
 C1490 C 0.63788 0.93589 0.47450
 C1491 C 0.61935 0.96668 0.47351
 C1492 C 0.60320 0.97385 0.47507
 C1493 C 0.58339 0.98054 0.47853
 C1494 C 0.57645 0.99833 0.47015
 C1495 C 0.55709 1.00442 0.47422
 C1496 C 0.54447 0.99278 0.48676
 C1497 C 0.55179 0.97492 0.49497
 C1498 C 0.57099 0.96890 0.49089
 H1499 H 0.65574 0.98251 0.47335
 H1500 H 0.68680 0.96434 0.47823
 H1501 H 0.65500 0.90971 0.47883
 H1502 H 0.62423 0.92786 0.47399
 H1503 H 0.58596 1.00748 0.46056
 H1504 H 0.55211 1.01825 0.46759
 H1505 H 0.54282 0.96550 0.50478
 H1506 H 0.57620 0.95512 0.49751
 C1507 C 0.13774 0.45328 0.97164
 C1508 C 0.15533 0.46370 0.97293
 C1509 C 0.17314 0.45354 0.97533
 C1510 C 0.17342 0.43290 0.97675
 C1511 C 0.15578 0.42259 0.97455
 C1512 C 0.13809 0.43272 0.97202
 C1513 C 0.11907 0.46327 0.97227
 C1514 C 0.10286 0.47028 0.97409
 C1515 C 0.08305 0.47691 0.97777
 C1516 C 0.07621 0.49502 0.97011
 C1517 C 0.05692 0.50114 0.97451
 C1518 C 0.04425 0.48922 0.98667
 C1519 C 0.05145 0.47102 0.99412
 C1520 C 0.07058 0.46496 0.98970
 H1521 H 0.15520 0.47963 0.97285
 H1522 H 0.18653 0.46180 0.97711
 H1523 H 0.15563 0.40669 0.97535
 H1524 H 0.12458 0.42451 0.97113
 H1525 H 0.08578 0.50442 0.96088
 H1526 H 0.05206 0.51525 0.96848
 H1527 H 0.04246 0.46139 1.00367
 H1528 H 0.07572 0.45094 0.99579
 C1529 C -0.00524 0.35813 0.45237
 C1530 C 0.00531 0.34189 0.46003
 C1531 C 0.00595 0.32436 0.44835
 C1532 C -0.00395 0.32287 0.42884
 C1533 C -0.01455 0.33928 0.42138
 C1534 C -0.01517 0.35674 0.43305
 C1535 C -0.00544 0.37656 0.46366
 C1536 C -0.00589 0.39260 0.47186
 C1537 C -0.00669 0.41244 0.47985
 C1538 C 0.00309 0.41782 0.49844
 C1539 C 0.00363 0.43761 0.50466
 C1540 C -0.00557 0.45227 0.49231
 C1541 C -0.01574 0.44647 0.47393
 C1542 C -0.01636 0.42679 0.46788
 H1543 H 0.01311 0.34280 0.47494
 H1544 H 0.01405 0.31193 0.45465
 H1545 H -0.02205 0.33878 0.40628
 H1546 H -0.02324 0.36926 0.42687
 H1547 H 0.01075 0.40684 0.50777
 H1548 H 0.01186 0.44145 0.51867
 H1549 H -0.02289 0.45718 0.46382
 H1550 H -0.02391 0.42284 0.45341
 C1551 C 0.49869 -0.14296 -0.04434
 C1552 C 0.48168 -0.15412 -0.04657
 C1553 C 0.48207 -0.17134 -0.05871
 C1554 C 0.49948 -0.17761 -0.06885
 C1555 C 0.51661 -0.16652 -0.06612
 C1556 C 0.51618 -0.14929 -0.05399
 C1557 C 0.49781 -0.12422 -0.03372
 C1558 C 0.49693 -0.10804 -0.02592
 C1559 C 0.49576 -0.08814 -0.01820
 C1560 C 0.50527 -0.08249 0.00046
 C1561 C 0.50549 -0.06266 0.00651
 C1562 C 0.49621 -0.04823 -0.00606
 C1563 C 0.48636 -0.05429 -0.02454
 C1564 C 0.48606 -0.07402 -0.03044
 H1565 H 0.46803 -0.14931 -0.03929
 H1566 H 0.46872 -0.17970 -0.06024
 H1567 H 0.53018 -0.17080 -0.07391
 H1568 H 0.52938 -0.14066 -0.05257
 H1569 H 0.51298 -0.09330 0.00999
 H1570 H 0.51355 -0.05862 0.02057
 H1571 H 0.47919 -0.04373 -0.03484
 H1572 H 0.47874 -0.07818 -0.04498
 C1573 C 0.00753 -0.13902 1.04474
 C1574 C -0.00445 -0.15449 1.03828
 C1575 C -0.00543 -0.17174 1.05042
 C1576 C 0.00547 -0.17363 1.06926
 C1577 C 0.01769 -0.15810 1.07538
 C1578 C 0.01869 -0.14095 1.06322
 C1579 C 0.00773 -0.12064 1.03333
 C1580 C 0.00810 -0.10461 1.02512
 C1581 C 0.00876 -0.08474 1.01721
 C1582 C -0.00125 -0.07911 0.99879
 C1583 C -0.00203 -0.05926 0.99275
 C1584 C 0.00717 -0.04479 1.00513
 C1585 C 0.01755 -0.05084 1.02334
 C1586 C 0.01842 -0.07058 1.02921
 H1587 H -0.01327 -0.15311 1.02409
 H1588 H -0.01510 -0.18337 1.04540
 H1589 H 0.02649 -0.15922 1.08960
 H1590 H 0.02798 -0.12906 1.06840
 H1591 H -0.00893 -0.08994 0.98946
 H1592 H -0.01045 -0.05523 0.97889
 H1593 H 0.02466 -0.04027 1.03351
 H1594 H 0.02611 -0.07471 1.04357
 C1595 C 0.51085 0.36300 0.54624
 C1596 C 0.49816 0.34774 0.54086
 C1597 C 0.49806 0.33034 0.55279
 C1598 C 0.51060 0.32802 0.57033
 C1599 C 0.52350 0.34333 0.57537
 C1600 C 0.52360 0.36067 0.56342
 C1601 C 0.51014 0.38151 0.53508
 C1602 C 0.50969 0.39756 0.52687
 C1603 C 0.50938 0.41739 0.51876
 C1604 C 0.49934 0.42232 0.50011
 C1605 C 0.49792 0.44202 0.49361
 C1606 C 0.50653 0.45704 0.50572
 C1607 C 0.51685 0.45172 0.52423
 C1608 C 0.51834 0.43214 0.53057
 H1609 H 0.48811 0.34942 0.52772
 H1610 H 0.48780 0.31892 0.54865
 H1611 H 0.53351 0.34191 0.58857
 H1612 H 0.53345 0.37239 0.56777
 H1613 H 0.49220 0.41102 0.49091
 H1614 H 0.48957 0.44548 0.47953
 H1615 H 0.52358 0.46271 0.53417
 H1616 H 0.52607 0.42855 0.54508
 C1617 C 0.49505 1.14689 0.54246
 C1618 C 0.47900 1.15334 0.55464
 C1619 C 0.48035 1.17041 0.56690
 C1620 C 0.49783 1.18125 0.56721
 C1621 C 0.51374 1.17488 0.55453
 C1622 C 0.51236 1.15780 0.54228
 C1623 C 0.49424 1.12824 0.53168
 C1624 C 0.49353 1.11209 0.52383
 C1625 C 0.49265 1.09217 0.51617
 C1626 C 0.48306 1.07813 0.52856
 C1627 C 0.48374 1.05836 0.52282
 C1628 C 0.49389 1.05218 0.50437
 C1629 C 0.50301 1.06653 0.49161
 C1630 C 0.50241 1.08640 0.49750
 H1631 H 0.46561 1.14490 0.55510
 H1632 H 0.46793 1.17475 0.57667
 H1633 H 0.52730 1.18304 0.55418
 H1634 H 0.52492 1.15289 0.53301
 H1635 H 0.47554 1.08239 0.54310
 H1636 H 0.47664 1.04789 0.53323
 H1637 H 0.51121 1.06239 0.47751
 H1638 H 0.51002 1.09715 0.48786
 C1639 C -0.00196 0.64347 1.04545
 C1640 C 0.01479 0.64810 1.05711
 C1641 C 0.01539 0.66542 1.06904
 C1642 C -0.00080 0.67838 1.06954
 C1643 C -0.01743 0.67377 1.05743
 C1644 C -0.01800 0.65643 1.04551
 C1645 C -0.00315 0.62477 1.03479
 C1646 C -0.00418 0.60865 1.02691
 C1647 C -0.00545 0.58880 1.01906
 C1648 C 0.00367 0.58318 0.99996
 C1649 C 0.00382 0.56339 0.99371
 C1650 C -0.00510 0.54897 1.00654
 C1651 C -0.01463 0.55501 1.02543
 C1652 C -0.01486 0.57470 1.03154
 H1653 H 0.02722 0.63809 1.05737
 H1654 H 0.02831 0.66837 1.07838
 H1655 H -0.03003 0.68356 1.05723
 H1656 H -0.03108 0.65297 1.03663
 H1657 H 0.01111 0.59397 0.99021
 H1658 H 0.01151 0.55936 0.97924
 H1659 H -0.02161 0.54447 1.03586
 H1660 H -0.02191 0.57884 1.04638
 C1661 C 0.50285 0.63891 -0.04588
 C1662 C 0.51412 0.64051 -0.06446
 C1663 C 0.51357 0.65777 -0.07650
 C1664 C 0.50169 0.67373 -0.07013
 C1665 C 0.49059 0.67211 -0.05126
 C1666 C 0.49113 0.65477 -0.03924
 C1667 C 0.50279 0.62055 -0.03445
 C1668 C 0.50303 0.60453 -0.02620
 C1669 C 0.50369 0.58467 -0.01827
 C1670 C 0.51344 0.57039 -0.03035
 C1671 C 0.51276 0.55069 -0.02437
 C1672 C 0.50245 0.54481 -0.00595
 C1673 C 0.49309 0.55938 0.00647
 C1674 C 0.49369 0.57920 0.00032
 H1675 H 0.52322 0.62832 -0.06978
 H1676 H 0.52252 0.65866 -0.09075
 H1677 H 0.48116 0.68408 -0.04606
 H1678 H 0.48222 0.65364 -0.02497
 H1679 H 0.52114 0.57441 -0.04483
 H1680 H 0.52001 0.54004 -0.03456
 H1681 H 0.48473 0.55547 0.02049
 H1682 H 0.48594 0.59015 0.00972
 C1683 C 0.00454 1.13874 0.45507
 C1684 C 0.01100 1.13857 0.43397
 C1685 C 0.01047 1.15572 0.42180
 C1686 C 0.00339 1.17365 0.43042
 C1687 C -0.00274 1.17360 0.45201
 C1688 C -0.00224 1.15630 0.46412
 C1689 C 0.00448 1.12057 0.46686
 C1690 C 0.00466 1.10458 0.47517
 C1691 C 0.00518 1.08467 0.48295
 C1692 C 0.01496 1.07043 0.47082
 C1693 C 0.01401 1.05067 0.47649
 C1694 C 0.00341 1.04467 0.49466
 C1695 C -0.00597 1.05918 0.50715
 C1696 C -0.00511 1.07907 0.50130
 H1697 H 0.01645 1.12508 0.42684
 H1698 H 0.01628 1.15480 0.40580
 H1699 H -0.00885 1.18659 0.45948
 H1700 H -0.00742 1.15657 0.48044
 H1701 H 0.02286 1.07455 0.45650
 H1702 H 0.02128 1.04008 0.46625
 H1703 H -0.01457 1.05518 0.52097
 H1704 H -0.01292 1.08996 0.51071
 C1705 C 0.77893 0.68542 0.89060
 C1706 C 0.79367 0.67462 0.90084
 C1707 C 0.78908 0.66327 0.91878
 C1708 C 0.76966 0.66245 0.92642
 C1709 C 0.75513 0.67381 0.91637
 C1710 C 0.75975 0.68520 0.89861
 C1711 C 0.78260 0.69518 0.87069
 C1712 C 0.78370 0.70273 0.85339
 C1713 C 0.78243 0.71078 0.83229
 C1714 C 0.78936 0.72960 0.82747
 C1715 C 0.78471 0.73839 0.80794
 C1716 C 0.77292 0.72850 0.79313
 C1717 C 0.76673 0.70929 0.79802
 C1718 C 0.77160 0.70050 0.81727
 H1719 H 0.80852 0.67452 0.89464
 H1720 H 0.80051 0.65455 0.92616
 H1721 H 0.74012 0.67366 0.92209
 H1722 H 0.74821 0.69341 0.89074
 H1723 H 0.79754 0.73781 0.83913
 H1724 H 0.78944 0.75330 0.80503
 H1725 H 0.75726 0.70125 0.78746
 H1726 H 0.76592 0.68604 0.82092
 C1727 C 0.28253 0.17556 0.38298
 C1728 C 0.28197 0.18529 0.40258
 C1729 C 0.27751 0.17487 0.42118
 C1730 C 0.27334 0.15466 0.42027
 C1731 C 0.27467 0.14491 0.40062
 C1732 C 0.27922 0.15530 0.38212
 C1733 C 0.28387 0.18647 0.36345
 C1734 C 0.28327 0.19483 0.34658
 C1735 C 0.28028 0.20368 0.32608
 C1736 C 0.28733 0.22245 0.32123
 C1737 C 0.28184 0.23169 0.30222
 C1738 C 0.26918 0.22226 0.28792
 C1739 C 0.26265 0.20320 0.29292
 C1740 C 0.26829 0.19398 0.31168
 H1741 H 0.28424 0.20102 0.40339
 H1742 H 0.27645 0.18277 0.43609
 H1743 H 0.27181 0.12931 0.39951
 H1744 H 0.27945 0.14766 0.36701
 H1745 H 0.29643 0.23020 0.33245
 H1746 H 0.28681 0.24650 0.29925
 H1747 H 0.25258 0.19550 0.28271
 H1748 H 0.26256 0.17955 0.31537
 C1749 C 0.71705 0.31578 0.39112
 C1750 C 0.70605 0.33276 0.39553
 C1751 C 0.71001 0.34386 0.41369
 C1752 C 0.72514 0.33818 0.42759
 C1753 C 0.73563 0.32070 0.42338
 C1754 C 0.73162 0.30962 0.40525
 C1755 C 0.71523 0.30604 0.37095
 C1756 C 0.71529 0.29845 0.35364
 C1757 C 0.71753 0.29021 0.33271
 C1758 C 0.72952 0.29994 0.31812
 C1759 C 0.73466 0.29099 0.29898
 C1760 C 0.72767 0.27216 0.29381
 C1761 C 0.71483 0.26283 0.30821
 C1762 C 0.70985 0.27179 0.32760
 H1763 H 0.69486 0.33776 0.38461
 H1764 H 0.70147 0.35707 0.41666
 H1765 H 0.74752 0.31604 0.43357
 H1766 H 0.74042 0.29665 0.40183
 H1767 H 0.73571 0.31411 0.32199
 H1768 H 0.74484 0.29861 0.28865
 H1769 H 0.70941 0.24822 0.30506
 H1770 H 0.70070 0.26402 0.33891
 C1771 C 0.21933 0.82225 0.88731
 C1772 C 0.22819 0.84069 0.88623
 C1773 C 0.23200 0.85117 0.90477
 C1774 C 0.22697 0.84339 0.92479
 C1775 C 0.21775 0.82494 0.92574
 C1776 C 0.21400 0.81441 0.90709
 C1777 C 0.21742 0.81102 0.86808
 C1778 C 0.21748 0.80243 0.85133
 C1779 C 0.21980 0.79331 0.83085
 C1780 C 0.23194 0.80241 0.81592
 C1781 C 0.23698 0.79281 0.79713
 C1782 C 0.22973 0.77394 0.79263
 C1783 C 0.21679 0.76520 0.80736
 C1784 C 0.21191 0.77482 0.82642
 H1785 H 0.23263 0.84678 0.87103
 H1786 H 0.23944 0.86512 0.90343
 H1787 H 0.21350 0.81864 0.94088
 H1788 H 0.20727 0.80007 0.90812
 H1789 H 0.23826 0.81664 0.81924
 H1790 H 0.24722 0.80000 0.78652
 H1791 H 0.21116 0.75059 0.80471
 H1792 H 0.20262 0.76755 0.83799
 C1793 C 0.28273 0.81868 0.11763
 C1794 C 0.27456 0.83741 0.12017
 C1795 C 0.27041 0.84904 0.10248
 C1796 C 0.27427 0.84218 0.08162
 C1797 C 0.28329 0.82347 0.07941
 C1798 C 0.28731 0.81180 0.09725
 C1799 C 0.28488 0.80630 0.13604
 C1800 C 0.28526 0.79675 0.15218
 C1801 C 0.28389 0.78648 0.17213
 C1802 C 0.28221 0.76602 0.17276
 C1803 C 0.27716 0.75661 0.19181
 C1804 C 0.27339 0.76757 0.21049
 C1805 C 0.27637 0.78801 0.20974
 C1806 C 0.28157 0.79734 0.19080
 H1807 H 0.27108 0.84296 0.13591
 H1808 H 0.26453 0.86360 0.10544
 H1809 H 0.28627 0.81716 0.06395
 H1810 H 0.29350 0.79721 0.09510
 H1811 H 0.28386 0.75743 0.15835
 H1812 H 0.27511 0.74085 0.19149
 H1813 H 0.27424 0.79711 0.22343
 H1814 H 0.28283 0.81321 0.19053
 C1815 C 0.77874 0.32244 0.61817
 C1816 C 0.79328 0.32549 0.60279
 C1817 C 0.78904 0.33643 0.58446
 C1818 C 0.77016 0.34468 0.58126
 C1819 C 0.75568 0.34111 0.59699
 C1820 C 0.75997 0.33019 0.61513
 C1821 C 0.78254 0.31162 0.63737
 C1822 C 0.78368 0.30308 0.65411
 C1823 C 0.78239 0.29367 0.67455
 C1824 C 0.78986 0.27469 0.67787
 C1825 C 0.78521 0.26451 0.69661
 C1826 C 0.77289 0.27317 0.71213
 C1827 C 0.76617 0.29257 0.70880
 C1828 C 0.77102 0.30272 0.69032
 H1829 H 0.80793 0.31961 0.60505
 H1830 H 0.80093 0.33899 0.57339
 H1831 H 0.74068 0.34604 0.59517
 H1832 H 0.74852 0.32771 0.62684
 H1833 H 0.79846 0.26742 0.66560
 H1834 H 0.79038 0.24952 0.69831
 H1835 H 0.75635 0.29971 0.72001
 H1836 H 0.76494 0.31731 0.68781
 C1837 C 0.21657 0.18706 0.61075
 C1838 C 0.23054 0.19268 0.59559
 C1839 C 0.23346 0.18144 0.57726
 C1840 C 0.22245 0.16434 0.57384
 C1841 C 0.20791 0.15921 0.58881
 C1842 C 0.20505 0.17048 0.60719
 C1843 C 0.21588 0.19695 0.63094
 C1844 C 0.21684 0.20470 0.64812
 C1845 C 0.22002 0.21316 0.66873
 C1846 C 0.23218 0.20315 0.68292
 C1847 C 0.23791 0.21209 0.70176
 C1848 C 0.23135 0.23119 0.70700
 C1849 C 0.21853 0.24091 0.69292
 C1850 C 0.21293 0.23195 0.67388
 H1851 H 0.23974 0.20533 0.59834
 H1852 H 0.24496 0.18565 0.56625
 H1853 H 0.19901 0.14629 0.58650
 H1854 H 0.19430 0.16590 0.61890
 H1855 H 0.23793 0.18869 0.67901
 H1856 H 0.24804 0.20416 0.71185
 H1857 H 0.21352 0.25575 0.69607
 H1858 H 0.20370 0.23994 0.66285
 C1859 C 0.71508 0.67941 0.11596
 C1860 C 0.71402 0.68834 0.09600
 C1861 C 0.71736 0.67727 0.07757
 C1862 C 0.72205 0.65696 0.07871
 C1863 C 0.72233 0.64815 0.09911
 C1864 C 0.71893 0.65928 0.11743
 C1865 C 0.71447 0.69103 0.13505
 C1866 C 0.71554 0.70002 0.15149
 C1867 C 0.71891 0.70963 0.17147
 C1868 C 0.71156 0.72851 0.17576
 C1869 C 0.71711 0.73833 0.19434
 C1870 C 0.73012 0.72937 0.20878
 C1871 C 0.73701 0.71020 0.20433
 C1872 C 0.73133 0.70043 0.18600
 H1873 H 0.71103 0.70396 0.09468
 H1874 H 0.71596 0.68481 0.06253
 H1875 H 0.72641 0.63292 0.10140
 H1876 H 0.72011 0.65227 0.13285
 H1877 H 0.70209 0.73586 0.16446
 H1878 H 0.71182 0.75318 0.19690
 H1879 H 0.74729 0.70281 0.21472
 H1880 H 0.73726 0.68589 0.18277
 C1881 C 0.20140 0.60905 0.23062
 C1882 C 0.18377 0.60786 0.24199
 C1883 C 0.17410 0.58997 0.24381
 C1884 C 0.18190 0.57295 0.23422
 C1885 C 0.19972 0.57420 0.22287
 C1886 C 0.20942 0.59221 0.22106
 C1887 C 0.21103 0.62772 0.22932
 C1888 C 0.21779 0.64401 0.22952
 C1889 C 0.22417 0.66399 0.23145
 C1890 C 0.21216 0.67721 0.24251
 C1891 C 0.21825 0.69640 0.24589
 C1892 C 0.23654 0.70289 0.23821
 C1893 C 0.24842 0.68952 0.22670
 C1894 C 0.24228 0.67015 0.22339
 H1895 H 0.17753 0.62079 0.24958
 H1896 H 0.16063 0.58942 0.25299
 H1897 H 0.20599 0.56135 0.21521
 H1898 H 0.22308 0.59300 0.21224
 H1899 H 0.19816 0.67256 0.24895
 H1900 H 0.20871 0.70591 0.25511
 H1901 H 0.26261 0.69384 0.22056
 H1902 H 0.25173 0.65996 0.21485
 C1903 C 0.70545 0.11137 0.72155
 C1904 C 0.71408 0.09597 0.73292
 C1905 C 0.70456 0.07792 0.73483
 C1906 C 0.68597 0.07493 0.72554
 C1907 C 0.67792 0.09051 0.71335
 C1908 C 0.68754 0.10849 0.71148
 C1909 C 0.71416 0.13056 0.72168
 C1910 C 0.72099 0.14681 0.72271
 C1911 C 0.72866 0.16631 0.72513
 C1912 C 0.74572 0.16920 0.73686
 C1913 C 0.75194 0.18823 0.74144
 C1914 C 0.74084 0.20471 0.73494
 C1915 C 0.72468 0.20158 0.72157
 C1916 C 0.71844 0.18253 0.71703
 H1917 H 0.72790 0.09811 0.74096
 H1918 H 0.71138 0.06692 0.74481
 H1919 H 0.66429 0.08894 0.70489
 H1920 H 0.68078 0.12030 0.70248
 H1921 H 0.75399 0.15674 0.74288
 H1922 H 0.76531 0.18991 0.75037
 H1923 H 0.71658 0.21381 0.71490
 H1924 H 0.70540 0.18047 0.70757
 C1925 C 0.79511 0.11100 0.28018
 C1926 C 0.81561 0.11072 0.28044
 C1927 C 0.82585 0.09305 0.27788
 C1928 C 0.81571 0.07536 0.27504
 C1929 C 0.79510 0.07554 0.27593
 C1930 C 0.78483 0.09334 0.27834
 C1931 C 0.78513 0.12969 0.27929
 C1932 C 0.77818 0.14592 0.27723
 C1933 C 0.77169 0.16575 0.27328
 C1934 C 0.78334 0.17773 0.26044
 C1935 C 0.77761 0.19701 0.25616
 C1936 C 0.76003 0.20481 0.26464
 C1937 C 0.74835 0.19258 0.27759
 C1938 C 0.75416 0.17316 0.28187
 H1939 H 0.82372 0.12430 0.28174
 H1940 H 0.84172 0.09325 0.27746
 H1941 H 0.78698 0.06210 0.27363
 H1942 H 0.76896 0.09341 0.27793
 H1943 H 0.79694 0.17216 0.25368
 H1944 H 0.78709 0.20572 0.24614
 H1945 H 0.73474 0.19794 0.28445
 H1946 H 0.74501 0.16398 0.29184
 C1947 C 0.29538 0.61152 0.78082
 C1948 C 0.28501 0.59393 0.77871
 C1949 C 0.29519 0.57615 0.77576
 C1950 C 0.31579 0.57594 0.77458
 C1951 C 0.32603 0.59352 0.77769
 C1952 C 0.31589 0.61117 0.78081
 C1953 C 0.28550 0.63026 0.78029
 C1954 C 0.27871 0.64657 0.77839
 C1955 C 0.27254 0.66649 0.77445
 C1956 C 0.25504 0.67416 0.78286
 C1957 C 0.24948 0.69360 0.77834
 C1958 C 0.26135 0.70557 0.76531
 C1959 C 0.27891 0.69752 0.75708
 C1960 C 0.28441 0.67824 0.76161
 H1961 H 0.26914 0.59408 0.77848
 H1962 H 0.28701 0.56278 0.77327
 H1963 H 0.34190 0.59368 0.77705
 H1964 H 0.32406 0.62469 0.78229
 H1965 H 0.24571 0.66515 0.79282
 H1966 H 0.23586 0.69916 0.78500
 H1967 H 0.28849 0.70598 0.74691
 H1968 H 0.29797 0.67244 0.75496
 C1969 C 0.29943 0.39121 0.72325
 C1970 C 0.28846 0.40857 0.72159
 C1971 C 0.29772 0.42682 0.72293
 C1972 C 0.31824 0.42808 0.72614
 C1973 C 0.32900 0.41024 0.72723
 C1974 C 0.31969 0.39212 0.72582
 C1975 C 0.29009 0.37234 0.72386
 C1976 C 0.28344 0.35605 0.72544
 C1977 C 0.27701 0.33618 0.72861
 C1978 C 0.25940 0.32946 0.72008
 C1979 C 0.25342 0.31009 0.72383
 C1980 C 0.26500 0.29722 0.73619
 C1981 C 0.28271 0.30430 0.74452
 C1982 C 0.28862 0.32353 0.74075
 H1983 H 0.27272 0.40801 0.71951
 H1984 H 0.28865 0.43980 0.72107
 H1985 H 0.34453 0.40991 0.73044
 H1986 H 0.32830 0.37874 0.72740
 H1987 H 0.25027 0.33917 0.71066
 H1988 H 0.23969 0.30531 0.71713
 H1989 H 0.29205 0.29511 0.75422
 H1990 H 0.30227 0.32859 0.74748
 C1991 C 0.79747 0.89056 0.22466
 C1992 C 0.78783 0.90787 0.21847
 C1993 C 0.79740 0.92598 0.22003
 C1994 C 0.81669 0.92690 0.22782
 C1995 C 0.82619 0.90934 0.23381
 C1996 C 0.81667 0.89136 0.23220
 C1997 C 0.78779 0.87186 0.22446
 C1998 C 0.78105 0.85556 0.22559
 C1999 C 0.77480 0.83561 0.22855
 C2000 C 0.75724 0.82871 0.22005
 C2001 C 0.75141 0.80930 0.22388
 C2002 C 0.76308 0.79657 0.23631
 C2003 C 0.78077 0.80382 0.24454
 C2004 C 0.78653 0.82307 0.24068
 H2005 H 0.77292 0.90741 0.21269
 H2006 H 0.78974 0.93922 0.21516
 H2007 H 0.84084 0.90951 0.24032
 H2008 H 0.82420 0.87808 0.23723
 H2009 H 0.74801 0.83834 0.21065
 H2010 H 0.73769 0.80439 0.21728
 H2011 H 0.79014 0.79481 0.25439
 H2012 H 0.80012 0.82826 0.24742
 C2013 C 0.70295 0.88903 0.77206
 C2014 C 0.68375 0.88915 0.76459
 C2015 C 0.67379 0.90685 0.76144
 C2016 C 0.68284 0.92508 0.76562
 C2017 C 0.70202 0.92466 0.77406
 C2018 C 0.71203 0.90678 0.77705
 C2019 C 0.71322 0.87050 0.77319
 C2020 C 0.72031 0.85422 0.77265
 C2021 C 0.72685 0.83418 0.77023
 C2022 C 0.71518 0.82139 0.75859
 C2023 C 0.72116 0.80203 0.75523
 C2024 C 0.73901 0.79492 0.76347
 C2025 C 0.75065 0.80791 0.77537
 C2026 C 0.74460 0.82744 0.77870
 H2027 H 0.67649 0.87547 0.76090
 H2028 H 0.65877 0.90599 0.75616
 H2029 H 0.70987 0.93807 0.77727
 H2030 H 0.72698 0.90685 0.78276
 H2031 H 0.70145 0.82645 0.75187
 H2032 H 0.71178 0.79280 0.74582
 H2033 H 0.76449 0.80311 0.78197
 H2034 H 0.75379 0.83726 0.78771
 C2035 C 0.20489 0.38523 0.26403
 C2036 C 0.19755 0.39136 0.24439
 C2037 C 0.18813 0.40953 0.24248
 C2038 C 0.18593 0.42195 0.26022
 C2039 C 0.19363 0.41582 0.27989
 C2040 C 0.20304 0.39753 0.28177
 C2041 C 0.21307 0.36577 0.26583
 C2042 C 0.21895 0.34903 0.26597
 C2043 C 0.22462 0.32869 0.26443
 C2044 C 0.21254 0.31595 0.25323
 C2045 C 0.21808 0.29642 0.25023
 C2046 C 0.23587 0.28910 0.25843
 C2047 C 0.24783 0.30201 0.27002
 C2048 C 0.24224 0.32170 0.27295
 H2049 H 0.19871 0.38186 0.23060
 H2050 H 0.18205 0.41359 0.22722
 H2051 H 0.19233 0.42512 0.29379
 H2052 H 0.20859 0.39287 0.29708
 H2053 H 0.19892 0.32123 0.24642
 H2054 H 0.20850 0.28727 0.24097
 H2055 H 0.26165 0.29706 0.27655
 H2056 H 0.25177 0.33150 0.28157
 C2057 C 0.11048 0.25188 0.79069
 C2058 C 0.09813 0.23556 0.79088
 C2059 C 0.08091 0.23584 0.80306
 C2060 C 0.07583 0.25246 0.81531
 C2061 C 0.08810 0.26899 0.81458
 C2062 C 0.10532 0.26866 0.80239
 C2063 C 0.12924 0.25080 0.78009
 C2064 C 0.14543 0.24970 0.77234
 C2065 C 0.16534 0.24820 0.76473
 C2066 C 0.17898 0.23770 0.77679
 C2067 C 0.19875 0.23770 0.77110
 C2068 C 0.20532 0.24804 0.75300
 C2069 C 0.19137 0.25813 0.74058
 C2070 C 0.17150 0.25821 0.74643
 H2071 H 0.10203 0.22245 0.78198
 H2072 H 0.07163 0.22300 0.80304
 H2073 H 0.08475 0.28190 0.82401
 H2074 H 0.11488 0.28130 0.80255
 H2075 H 0.17441 0.23000 0.79106
 H2076 H 0.20893 0.22994 0.78129
 H2077 H 0.19581 0.26660 0.72685
 H2078 H 0.16107 0.26654 0.73706
 C2079 C 0.60879 0.75233 0.29198
 C2080 C 0.60308 0.76986 0.30199
 C2081 C 0.58590 0.77062 0.31425
 C2082 C 0.57422 0.75380 0.31674
 C2083 C 0.57986 0.73638 0.30620
 C2084 C 0.59704 0.73565 0.29395
 C2085 C 0.62750 0.75099 0.28129
 C2086 C 0.64366 0.74969 0.27348
 C2087 C 0.66355 0.74796 0.26582
 C2088 C 0.66971 0.75752 0.24724
 C2089 C 0.68957 0.75726 0.24135
 C2090 C 0.70353 0.74746 0.25403
 C2091 C 0.69695 0.73754 0.27240
 C2092 C 0.67718 0.73771 0.27813
 H2093 H 0.61218 0.78280 0.30079
 H2094 H 0.58211 0.78419 0.32234
 H2095 H 0.57104 0.72326 0.30754
 H2096 H 0.60136 0.72197 0.28638
 H2097 H 0.65928 0.76565 0.23767
 H2098 H 0.69402 0.76540 0.22738
 H2099 H 0.70712 0.73001 0.28280
 H2100 H 0.67263 0.73034 0.29261
 C2101 C 0.60864 0.25515 0.20657
 C2102 C 0.60676 0.26610 0.18784
 C2103 C 0.58976 0.26481 0.17568
 C2104 C 0.57432 0.25250 0.18207
 C2105 C 0.57621 0.24173 0.20109
 C2106 C 0.59329 0.24302 0.21323
 C2107 C 0.62678 0.25581 0.21815
 C2108 C 0.64258 0.25655 0.22661
 C2109 C 0.66219 0.25762 0.23489
 C2110 C 0.67634 0.26779 0.22323
 C2111 C 0.69592 0.26719 0.22936
 C2112 C 0.70181 0.25654 0.24750
 C2113 C 0.68732 0.24690 0.25962
 C2114 C 0.66764 0.24741 0.25331
 H2115 H 0.61855 0.27552 0.18249
 H2116 H 0.58865 0.27352 0.16132
 H2117 H 0.56466 0.23199 0.20633
 H2118 H 0.59463 0.23435 0.22761
 H2119 H 0.67235 0.27565 0.20888
 H2120 H 0.70651 0.27464 0.21939
 H2121 H 0.69124 0.23829 0.27344
 H2122 H 0.65681 0.23934 0.26240
 C2123 C 0.11021 0.75523 0.70609
 C2124 C 0.10838 0.76597 0.68720
 C2125 C 0.09137 0.76462 0.67507
 C2126 C 0.07588 0.75246 0.68162
 C2127 C 0.07773 0.74187 0.70078
 C2128 C 0.09482 0.74322 0.71289
 C2129 C 0.12833 0.75601 0.71771
 C2130 C 0.14412 0.75685 0.72618
 C2131 C 0.16373 0.75805 0.73443
 C2132 C 0.17788 0.76795 0.72250
 C2133 C 0.19747 0.76745 0.72862
 C2134 C 0.20336 0.75718 0.74701
 C2135 C 0.18887 0.74785 0.75940
 C2136 C 0.16918 0.74825 0.75311
 H2137 H 0.12021 0.77529 0.68174
 H2138 H 0.09029 0.77319 0.66060
 H2139 H 0.06615 0.73224 0.70615
 H2140 H 0.09613 0.73471 0.72739
 H2141 H 0.17389 0.77550 0.70796
 H2142 H 0.20806 0.77465 0.71843
 H2143 H 0.19280 0.73954 0.77344
 H2144 H 0.15835 0.74040 0.76241
 C2145 C 0.89362 0.74554 0.70855
 C2146 C 0.90208 0.76340 0.70269
 C2147 C 0.91924 0.76367 0.69038
 C2148 C 0.92830 0.74599 0.68341
 C2149 C 0.91971 0.72807 0.69002
 C2150 C 0.90258 0.72792 0.70236
 C2151 C 0.87489 0.74524 0.71930
 C2152 C 0.85871 0.74475 0.72714
 C2153 C 0.83877 0.74387 0.73478
 C2154 C 0.83282 0.75360 0.75338
 C2155 C 0.81295 0.75400 0.75932
 C2156 C 0.79881 0.74471 0.74666
 C2157 C 0.80519 0.73461 0.72828
 C2158 C 0.82493 0.73413 0.72250
 H2159 H 0.89509 0.77717 0.70713
 H2160 H 0.92458 0.77788 0.68547
 H2161 H 0.92628 0.71400 0.68619
 H2162 H 0.89619 0.71397 0.70684
 H2163 H 0.84341 0.76130 0.76297
 H2164 H 0.80866 0.76214 0.77338
 H2165 H 0.79488 0.72736 0.71796
 H2166 H 0.82933 0.72661 0.70803
 C2167 C 0.39028 0.24252 0.20461
 C2168 C 0.39605 0.26029 0.19531
 C2169 C 0.41357 0.26131 0.18370
 C2170 C 0.42556 0.24453 0.18115
 C2171 C 0.41982 0.22683 0.19093
 C2172 C 0.40229 0.22585 0.20254
 C2173 C 0.37139 0.24109 0.21486
 C2174 C 0.35515 0.23986 0.22245
 C2175 C 0.33525 0.23842 0.23007
 C2176 C 0.32908 0.24823 0.24853
 C2177 C 0.30923 0.24836 0.25441
 C2178 C 0.29526 0.23868 0.24186
 C2179 C 0.30184 0.22845 0.22364
 C2180 C 0.32162 0.22826 0.21789
 H2181 H 0.38678 0.27324 0.19663
 H2182 H 0.41743 0.27508 0.17617
 H2183 H 0.42885 0.21373 0.18953
 H2184 H 0.39795 0.21200 0.20959
 H2185 H 0.33950 0.25629 0.25800
 H2186 H 0.30479 0.25669 0.26828
 H2187 H 0.29165 0.22096 0.21338
 H2188 H 0.32618 0.22069 0.20351
 C2189 C 0.39109 0.75903 0.29550
 C2190 C 0.39249 0.77030 0.31403
 C2191 C 0.40984 0.77023 0.32571
 C2192 C 0.42605 0.75885 0.31905
 C2193 C 0.42466 0.74790 0.30014
 C2194 C 0.40726 0.74795 0.28848
 C2195 C 0.37256 0.75767 0.28478
 C2196 C 0.35661 0.75601 0.27686
 C2197 C 0.33707 0.75333 0.26894
 C2198 C 0.32562 0.73836 0.27755
 C2199 C 0.30607 0.73648 0.27168
 C2200 C 0.29745 0.74957 0.25697
 C2201 C 0.30936 0.76422 0.24784
 C2202 C 0.32899 0.76615 0.25387
 H2203 H 0.38003 0.77885 0.31967
 H2204 H 0.41055 0.77903 0.34002
 H2205 H 0.43681 0.73882 0.29471
 H2206 H 0.40627 0.73901 0.27429
 H2207 H 0.33167 0.72840 0.28929
 H2208 H 0.29765 0.72502 0.27929
 H2209 H 0.30341 0.77480 0.23685
 H2210 H 0.33769 0.77793 0.24721
 C2211 C 0.89286 0.25256 0.79504
 C2212 C 0.91105 0.25419 0.78477
 C2213 C 0.92834 0.25403 0.79667
 C2214 C 0.92760 0.25222 0.81898
 C2215 C 0.90922 0.25063 0.82907
 C2216 C 0.89202 0.25079 0.81718
 C2217 C 0.87480 0.25306 0.78332
 C2218 C 0.85887 0.25361 0.77515
 C2219 C 0.83896 0.25450 0.76775
 C2220 C 0.82479 0.26304 0.78099
 C2221 C 0.80508 0.26244 0.77555
 C2222 C 0.79903 0.25349 0.75651
 C2223 C 0.81347 0.24532 0.74295
 C2224 C 0.83334 0.24580 0.74857
 H2225 H 0.91186 0.25560 0.76763
 H2226 H 0.94227 0.25510 0.78843
 H2227 H 0.90810 0.24956 0.84621
 H2228 H 0.87802 0.24966 0.82532
 H2229 H 0.82893 0.26970 0.79594
 H2230 H 0.79455 0.26877 0.78659
 H2231 H 0.80942 0.23800 0.72839
 H2232 H 0.84420 0.23896 0.73828
 C2233 C 0.56460 0.97538 0.63312
 C2234 C 0.58187 0.96485 0.63715
 C2235 C 0.59252 0.96855 0.65560
 C2236 C 0.58607 0.98293 0.67019
 C2237 C 0.56834 0.99296 0.66634
 C2238 C 0.55771 0.98923 0.64789
 C2239 C 0.55523 0.97378 0.61281
 C2240 C 0.54796 0.97387 0.59542
 C2241 C 0.54005 0.97598 0.57442
 C2242 C 0.55034 0.98725 0.55961
 C2243 C 0.54172 0.99236 0.54037
 C2244 C 0.52268 0.98603 0.53536
 C2245 C 0.51277 0.97391 0.55003
 C2246 C 0.52140 0.96896 0.56947
 H2247 H 0.58742 0.95421 0.62574
 H2248 H 0.60596 0.96037 0.65830
 H2249 H 0.56310 1.00425 0.67714
 H2250 H 0.54449 0.99765 0.64477
 H2251 H 0.56469 0.99295 0.56337
 H2252 H 0.54975 1.00205 0.52986
 H2253 H 0.49796 0.96913 0.54710
 H2254 H 0.51321 0.96041 0.58098
 C2255 C 0.07086 0.46705 1.12922
 C2256 C 0.06339 0.46097 1.14884
 C2257 C 0.07384 0.46460 1.16752
 C2258 C 0.09193 0.47483 1.16704
 C2259 C 0.09942 0.48009 1.14672
 C2260 C 0.08901 0.47627 1.12822
 C2261 C 0.05952 0.46568 1.11010
 C2262 C 0.05094 0.46641 1.09344
 C2263 C 0.04198 0.46969 1.07311
 C2264 C 0.02299 0.46326 1.06872
 C2265 C 0.01369 0.46920 1.04994
 C2266 C 0.02328 0.48171 1.03540
 C2267 C 0.04257 0.48760 1.03992
 C2268 C 0.05183 0.48150 1.05844
 H2269 H 0.04919 0.45400 1.14981
 H2270 H 0.06674 0.46052 1.18225
 H2271 H 0.11367 0.48663 1.14461
 H2272 H 0.09504 0.48088 1.11304
 H2273 H 0.01511 0.45433 1.08015
 H2274 H -0.00130 0.46476 1.04740
 H2275 H 0.05038 0.49760 1.02957
 H2276 H 0.06644 0.48678 1.06179
 C2277 C -0.06676 0.03191 1.13391
 C2278 C -0.08578 0.03923 1.13659
 C2279 C -0.09620 0.03541 1.15532
 C2280 C -0.08786 0.02397 1.17183
 C2281 C -0.06825 0.01743 1.16910
 C2282 C -0.05791 0.02129 1.15031
 C2283 C -0.05721 0.03328 1.11351
 C2284 C -0.04972 0.03303 1.09611
 C2285 C -0.04143 0.03078 1.07518
 C2286 C -0.05119 0.01903 1.06053
 C2287 C -0.04217 0.01395 1.04137
 C2288 C -0.02325 0.02075 1.03628
 C2289 C -0.01388 0.03330 1.05077
 C2290 C -0.02291 0.03824 1.07013
 H2291 H -0.09277 0.04751 1.12398
 H2292 H -0.11073 0.04175 1.15675
 H2293 H -0.06108 0.00819 1.18072
 H2294 H -0.04326 0.01529 1.14825
 H2295 H -0.06544 0.01300 1.06436
 H2296 H -0.04980 0.00396 1.03098
 H2297 H 0.00082 0.03850 1.04775
 H2298 H -0.01512 0.04718 1.08149
 C2299 C 0.43430 0.53411 0.63292
 C2300 C 0.41704 0.54448 0.63773
 C2301 C 0.40680 0.54052 0.65656
 C2302 C 0.41364 0.52602 0.67075
 C2303 C 0.43136 0.51617 0.66610
 C2304 C 0.44158 0.52017 0.64729
 C2305 C 0.44329 0.53593 0.61229
 C2306 C 0.45039 0.53593 0.59470
 C2307 C 0.45828 0.53382 0.57358
 C2308 C 0.47680 0.54111 0.56825
 C2309 C 0.48561 0.53598 0.54883
 C2310 C 0.47601 0.52338 0.53456
 C2311 C 0.45705 0.51683 0.53988
 C2312 C 0.44825 0.52212 0.55910
 H2313 H 0.41119 0.55518 0.62664
 H2314 H 0.39335 0.54856 0.65985
 H2315 H 0.43689 0.50478 0.67654
 H2316 H 0.45479 0.51187 0.64358
 H2317 H 0.48481 0.54998 0.57949
 H2318 H 0.50035 0.54098 0.54564
 H2319 H 0.44926 0.50679 0.52970
 H2320 H 0.43401 0.51620 0.56316
 C2321 C 0.43014 0.47412 -0.13348
 C2322 C 0.42987 0.45999 -0.14964
 C2323 C 0.42009 0.46401 -0.16869
 C2324 C 0.41055 0.48224 -0.17177
 C2325 C 0.41096 0.49627 -0.15539
 C2326 C 0.42068 0.49223 -0.13644
 C2327 C 0.43990 0.47049 -0.11365
 C2328 C 0.44748 0.46927 -0.09645
 C2329 C 0.45559 0.47029 -0.07545
 C2330 C 0.47436 0.46296 -0.07100
 C2331 C 0.48324 0.46732 -0.05153
 C2332 C 0.47347 0.47921 -0.03640
 C2333 C 0.45429 0.48578 -0.04092
 C2334 C 0.44543 0.48121 -0.06011
 H2335 H 0.43717 0.44593 -0.14751
 H2336 H 0.42016 0.45298 -0.18109
 H2337 H 0.40347 0.51027 -0.15708
 H2338 H 0.42073 0.50324 -0.12400
 H2339 H 0.48248 0.45470 -0.08291
 H2340 H 0.49813 0.46233 -0.04894
 H2341 H 0.44636 0.49537 -0.03011
 H2342 H 0.43100 0.48719 -0.06348
 C2343 C -0.06815 0.96978 0.36534
 C2344 C -0.08715 0.96263 0.36265
 C2345 C -0.09733 0.96654 0.34389
 C2346 C -0.08867 0.97778 0.32759
 C2347 C -0.06936 0.98444 0.33021
 C2348 C -0.05920 0.98049 0.34898
 C2349 C -0.05875 0.96812 0.38567
 C2350 C -0.05138 0.96811 0.40303
 C2351 C -0.04332 0.97007 0.42399
 C2352 C -0.05337 0.98173 0.43878
 C2353 C -0.04466 0.98652 0.45802
 C2354 C -0.02576 0.97950 0.46308
 C2355 C -0.01609 0.96702 0.44845
 C2356 C -0.02481 0.96238 0.42899
 H2357 H -0.09433 0.95458 0.37533
 H2358 H -0.11225 0.96142 0.34248
 H2359 H -0.06221 0.99290 0.31785
 H2360 H -0.04457 0.98625 0.35097
 H2361 H -0.06761 0.98793 0.43502
 H2362 H -0.05253 0.99646 0.46851
 H2363 H -0.00140 0.96164 0.45147
 H2364 H -0.01680 0.95350 0.41753
 C2365 C 0.06459 0.52719 0.36246
 C2366 C 0.08120 0.53812 0.35716
 C2367 C 0.09145 0.53419 0.33828
 C2368 C 0.08526 0.51918 0.32453
 C2369 C 0.06815 0.50874 0.32967
 C2370 C 0.05793 0.51270 0.34854
 C2371 C 0.05567 0.52915 0.38315
 C2372 C 0.04868 0.52933 0.40080
 C2373 C 0.04098 0.52750 0.42204
 C2374 C 0.02261 0.53532 0.42759
 C2375 C 0.01404 0.53061 0.44724
 C2376 C 0.02373 0.51790 0.46151
 C2377 C 0.04257 0.51084 0.45596
 C2378 C 0.05112 0.51571 0.43652
 H2379 H 0.08657 0.54927 0.36789
 H2380 H 0.10439 0.54269 0.33461
 H2381 H 0.06314 0.49695 0.31957
 H2382 H 0.04523 0.50397 0.35262
 H2383 H 0.01453 0.54431 0.41638
 H2384 H -0.00058 0.53605 0.45065
 H2385 H 0.05045 0.50076 0.46619
 H2386 H 0.06528 0.50942 0.43233
 C2387 C 0.57087 0.02520 -0.13290
 C2388 C 0.57219 0.04023 -0.14804
 C2389 C 0.58237 0.03696 -0.16714
 C2390 C 0.59130 0.01859 -0.17128
 C2391 C 0.58986 0.00364 -0.15592
 C2392 C 0.57972 0.00694 -0.13692
 C2393 C 0.56071 0.02809 -0.11303
 C2394 C 0.55276 0.02877 -0.09588
 C2395 C 0.54414 0.02719 -0.07504
 C2396 C 0.52531 0.03452 -0.07060
 C2397 C 0.51602 0.02981 -0.05132
 C2398 C 0.52543 0.01758 -0.03636
 C2399 C 0.54465 0.01095 -0.04088
 C2400 C 0.55392 0.01586 -0.05989
 H2401 H 0.56538 0.05442 -0.14508
 H2402 H 0.58309 0.04869 -0.17875
 H2403 H 0.59684 -0.01052 -0.15844
 H2404 H 0.57887 -0.00477 -0.12525
 H2405 H 0.51749 0.04310 -0.08238
 H2406 H 0.50111 0.03485 -0.04874
 H2407 H 0.55233 0.00114 -0.03018
 H2408 H 0.56839 0.00989 -0.06326
 C2409 C 0.63596 0.54117 -0.02017
 C2410 C 0.64002 0.55740 -0.03310
 C2411 C 0.65809 0.56683 -0.03168
 C2412 C 0.67234 0.56018 -0.01723
 C2413 C 0.66841 0.54339 -0.00487
 C2414 C 0.65030 0.53400 -0.00629
 C2415 C 0.61646 0.53328 -0.01951
 C2416 C 0.59979 0.52764 -0.01809
 C2417 C 0.57962 0.52214 -0.01529
 C2418 C 0.56714 0.53458 -0.00375
 C2419 C 0.54769 0.52940 -0.00015
 C2420 C 0.54021 0.51160 -0.00803
 C2421 C 0.55289 0.49923 -0.01987
 C2422 C 0.57247 0.50448 -0.02344
 H2423 H 0.62900 0.56315 -0.04381
 H2424 H 0.66079 0.57956 -0.04160
 H2425 H 0.67898 0.53806 0.00658
 H2426 H 0.64723 0.52158 0.00397
 H2427 H 0.57252 0.54827 0.00271
 H2428 H 0.53869 0.53931 0.00920
 H2429 H 0.54783 0.48540 -0.02620
 H2430 H 0.58204 0.49470 -0.03238
 C2431 C 0.13672 1.04044 0.48114
 C2432 C 0.14146 1.05523 0.46655
 C2433 C 0.15944 1.06483 0.46788
 C2434 C 0.17289 1.05982 0.48389
 C2435 C 0.16829 1.04443 0.49799
 C2436 C 0.15028 1.03485 0.49664
 C2437 C 0.11721 1.03258 0.48166
 C2438 C 0.10054 1.02696 0.48297
 C2439 C 0.08036 1.02152 0.48567
 C2440 C 0.06793 1.03388 0.49736
 C2441 C 0.04844 1.02878 0.50079
 C2442 C 0.04087 1.01114 0.49259
 C2443 C 0.05352 0.99884 0.48064
 C2444 C 0.07314 1.00400 0.47723
 H2445 H 0.13101 1.05975 0.45457
 H2446 H 0.16268 1.07644 0.45662
 H2447 H 0.17822 1.04039 0.51064
 H2448 H 0.14666 1.02358 0.50817
 H2449 H 0.07336 1.04745 0.50404
 H2450 H 0.03945 1.03865 0.51022
 H2451 H 0.04839 0.98514 0.47405
 H2452 H 0.08268 0.99429 0.46817
 C2453 C 0.13966 -0.04141 1.02242
 C2454 C 0.15533 -0.03273 1.01162
 C2455 C 0.17359 -0.04221 1.01073
 C2456 C 0.17647 -0.06081 1.02038
 C2457 C 0.16063 -0.06882 1.03208
 C2458 C 0.14247 -0.05924 1.03299
 C2459 C 0.12024 -0.03322 1.02087
 C2460 C 0.10363 -0.02743 1.01878
 C2461 C 0.08355 -0.02181 1.01530
 C2462 C 0.07582 -0.00431 1.02363
 C2463 C 0.05627 0.00092 1.01974
 C2464 C 0.04419 -0.01131 1.00745
 C2465 C 0.05226 -0.02891 0.99931
 C2466 C 0.07170 -0.03408 1.00321
 H2467 H 0.15324 -0.01899 1.00318
 H2468 H 0.18488 -0.03542 1.00114
 H2469 H 0.16210 -0.08244 1.04081
 H2470 H 0.13044 -0.06605 1.04152
 H2471 H 0.08489 0.00531 1.03302
 H2472 H 0.05074 0.01459 1.02631
 H2473 H 0.04369 -0.03875 0.98969
 H2474 H 0.07755 -0.04766 0.99665
 C2475 C 0.63908 0.46098 0.51945
 C2476 C 0.65456 0.46935 0.50805
 C2477 C 0.67268 0.45963 0.50669
 C2478 C 0.67557 0.44109 0.51650
 C2479 C 0.65994 0.43340 0.52876
 C2480 C 0.64194 0.44321 0.53012
 C2481 C 0.61969 0.46934 0.51838
 C2482 C 0.60305 0.47513 0.51668
 C2483 C 0.58286 0.48055 0.51362
 C2484 C 0.57525 0.49833 0.52137
 C2485 C 0.55560 0.50335 0.51774
 C2486 C 0.54332 0.49064 0.50628
 C2487 C 0.55128 0.47275 0.49877
 C2488 C 0.57081 0.46779 0.50241
 H2489 H 0.65240 0.48303 0.49949
 H2490 H 0.68380 0.46618 0.49670
 H2491 H 0.66148 0.41984 0.53761
 H2492 H 0.63006 0.43664 0.53910
 H2493 H 0.58449 0.50833 0.53008
 H2494 H 0.55015 0.51726 0.52379
 H2495 H 0.54259 0.46256 0.48973
 H2496 H 0.57656 0.45400 0.49630
 C2497 C -0.13844 0.45620 0.47816
 C2498 C -0.15414 0.46649 0.48743
 C2499 C -0.17255 0.45770 0.48914
 C2500 C -0.17544 0.43844 0.48167
 C2501 C -0.15970 0.42848 0.47176
 C2502 C -0.14133 0.43730 0.47006
 C2503 C -0.11895 0.46407 0.47887
 C2504 C -0.10233 0.46975 0.48040
 C2505 C -0.08224 0.47530 0.48339
 C2506 C -0.07498 0.49299 0.47528
 C2507 C -0.05547 0.49823 0.47896
 C2508 C -0.04299 0.48584 0.49083
 C2509 C -0.05060 0.46805 0.49873
 C2510 C -0.06998 0.46287 0.49503
 H2511 H -0.15203 0.48108 0.49387
 H2512 H -0.18444 0.46583 0.49661
 H2513 H -0.16134 0.41355 0.46613
 H2514 H -0.12922 0.42912 0.46307
 H2515 H -0.08439 0.50276 0.46627
 H2516 H -0.05029 0.51205 0.47260
 H2517 H -0.04174 0.45811 0.50808
 H2518 H -0.07546 0.44917 0.50146
 C2519 C 0.36252 -0.04446 -0.01949
 C2520 C 0.34724 -0.03456 -0.00895
 C2521 C 0.32882 -0.04331 -0.00698
 C2522 C 0.32549 -0.06213 -0.01546
 C2523 C 0.34080 -0.07168 -0.02658
 C2524 C 0.35918 -0.06290 -0.02854
 C2525 C 0.38208 -0.03672 -0.01921
 C2526 C 0.39877 -0.03115 -0.01807
 C2527 C 0.41894 -0.02570 -0.01552
 C2528 C 0.42611 -0.00795 -0.02358
 C2529 C 0.44565 -0.00270 -0.02009
 C2530 C 0.45826 -0.01512 -0.00843
 C2531 C 0.45077 -0.03302 -0.00066
 C2532 C 0.43137 -0.03822 -0.00419
 H2533 H 0.34970 -0.02034 -0.00176
 H2534 H 0.31728 -0.03548 0.00143
 H2535 H 0.33884 -0.08628 -0.03301
 H2536 H 0.37097 -0.07080 -0.03650
 H2537 H 0.41658 0.00189 -0.03235
 H2538 H 0.45072 0.01121 -0.02632
 H2539 H 0.45971 -0.04297 0.00860
 H2540 H 0.42597 -0.05196 0.00222
 C2541 C 0.36027 1.04865 0.52149
 C2542 C 0.35646 1.06746 0.52959
 C2543 C 0.33759 1.07551 0.52849
 C2544 C 0.32228 1.06487 0.51917
 C2545 C 0.32611 1.04569 0.51175
 C2546 C 0.34501 1.03766 0.51288
 C2547 C 0.38012 1.04146 0.52024
 C2548 C 0.39691 1.03608 0.51831
 C2549 C 0.41706 1.03047 0.51497
 C2550 C 0.42921 1.04269 0.50296
 C2551 C 0.44861 1.03724 0.49888
 C2552 C 0.45631 1.01940 0.50675
 C2553 C 0.44394 1.00727 0.51902
 C2554 C 0.42445 1.01278 0.52307
 H2555 H 0.36822 1.07616 0.53610
 H2556 H 0.33520 1.09040 0.53406
 H2557 H 0.31458 1.03706 0.50473
 H2558 H 0.34782 1.02312 0.50648
 H2559 H 0.42361 1.05640 0.49653
 H2560 H 0.45742 1.04699 0.48927
 H2561 H 0.44917 0.99343 0.52540
 H2562 H 0.41513 1.00317 0.53236
 C2563 C -0.13975 0.54589 1.02035
 C2564 C -0.14402 0.56387 1.03020
 C2565 C -0.16280 0.57210 1.02877
 C2566 C -0.17759 0.56247 1.01739
 C2567 C -0.17331 0.54412 1.00805
 C2568 C -0.15449 0.53591 1.00950
 C2569 C -0.11988 0.53862 1.01982
 C2570 C -0.10303 0.53325 1.01858
 C2571 C -0.08273 0.52775 1.01604
 C2572 C -0.07015 0.54038 1.00512
 C2573 C -0.05067 0.53495 1.00146
 C2574 C -0.04331 0.51672 1.00867
 C2575 C -0.05608 0.50424 1.01998
 C2576 C -0.07565 0.50971 1.02360
 H2577 H -0.13266 0.57182 1.03844
 H2578 H -0.16551 0.58637 1.03586
 H2579 H -0.18443 0.53624 0.99940
 H2580 H -0.15132 0.52203 1.00172
 H2581 H -0.07549 0.55434 0.99908
 H2582 H -0.04161 0.54493 0.99242
 H2583 H -0.05112 0.49008 1.02578
 H2584 H -0.08531 0.49978 1.03204
 C2585 C 0.00977 0.63827 0.54736
 C2586 C 0.02241 0.64097 0.56453
 C2587 C 0.02174 0.65842 0.57625
 C2588 C 0.00837 0.67348 0.57098
 C2589 C -0.00405 0.67079 0.55344
 C2590 C -0.00338 0.65328 0.54175
 C2591 C 0.00967 0.61963 0.53647
 C2592 C 0.00973 0.60348 0.52850
 C2593 C 0.01002 0.58356 0.52070
 C2594 C 0.01949 0.56909 0.53268
 C2595 C 0.01847 0.54941 0.52673
 C2596 C 0.00811 0.54370 0.50844
 C2597 C -0.00097 0.55845 0.49612
 C2598 C -0.00003 0.57826 0.50224
 H2599 H 0.03263 0.62945 0.56906
 H2600 H 0.03169 0.66013 0.58944
 H2601 H -0.01465 0.68201 0.54912
 H2602 H -0.01335 0.65131 0.52861
 H2603 H 0.02723 0.57297 0.54705
 H2604 H 0.02554 0.53862 0.53683
 H2605 H -0.00935 0.55469 0.48220
 H2606 H -0.00755 0.58933 0.49290
 C2607 C 0.50982 0.13853 0.04706
 C2608 C 0.49668 0.15350 0.04132
 C2609 C 0.49595 0.17105 0.05294
 C2610 C 0.50829 0.17377 0.07055
 C2611 C 0.52167 0.15877 0.07591
 C2612 C 0.52241 0.14129 0.06426
 C2613 C 0.50967 0.11979 0.03638
 C2614 C 0.50971 0.10354 0.02871
 C2615 C 0.50999 0.08347 0.02140
 C2616 C 0.50078 0.07793 0.00251
 C2617 C 0.49993 0.05802 -0.00323
 C2618 C 0.50826 0.04344 0.00989
 C2619 C 0.51775 0.04937 0.02864
 C2620 C 0.51868 0.06914 0.03423
 H2621 H 0.48675 0.15147 0.02815
 H2622 H 0.48535 0.18224 0.04855
 H2623 H 0.53155 0.16052 0.08917
 H2624 H 0.53260 0.12978 0.06889
 H2625 H 0.49387 0.08891 -0.00749
 H2626 H 0.49225 0.05408 -0.01758
 H2627 H 0.52429 0.03872 0.03931
 H2628 H 0.52578 0.07322 0.04892
 C2629 C -0.00227 0.14146 0.95211
 C2630 C 0.00942 0.14238 0.93377
 C2631 C 0.01068 0.15986 0.92220
 C2632 C 0.00023 0.17672 0.92878
 C2633 C -0.01118 0.17580 0.94749
 C2634 C -0.01246 0.15824 0.95905
 C2635 C -0.00441 0.12293 0.96294
 C2636 C -0.00602 0.10684 0.97081
 C2637 C -0.00766 0.08700 0.97859
 C2638 C 0.00189 0.08103 0.99716
 C2639 C 0.00220 0.06115 1.00301
 C2640 C -0.00702 0.04696 0.99029
 C2641 C -0.01705 0.05333 0.97199
 C2642 C -0.01743 0.07314 0.96628
 H2643 H 0.01736 0.12949 0.92824
 H2644 H 0.01980 0.16017 0.90805
 H2645 H -0.01953 0.18848 0.95285
 H2646 H -0.02165 0.15766 0.97315
 H2647 H 0.00968 0.09162 1.00672
 H2648 H 0.01037 0.05689 1.01696
 H2649 H -0.02419 0.04295 0.96162
 H2650 H -0.02475 0.07754 0.95178
 C2651 C 0.49354 0.64265 0.44815
 C2652 C 0.50428 0.64395 0.42917
 C2653 C 0.50522 0.66173 0.41811
 C2654 C 0.49538 0.67856 0.42583
 C2655 C 0.48478 0.67720 0.44507
 C2656 C 0.48384 0.65933 0.45612
 C2657 C 0.49209 0.62396 0.45883
 C2658 C 0.49108 0.60783 0.46675
 C2659 C 0.49015 0.58800 0.47477
 C2660 C 0.49964 0.58266 0.49361
 C2661 C 0.50040 0.56290 0.49992
 C2662 C 0.49170 0.54821 0.48743
 C2663 C 0.48178 0.55394 0.46881
 C2664 C 0.48096 0.57363 0.46263
 H2665 H 0.51185 0.63114 0.42284
 H2666 H 0.51376 0.66235 0.40355
 H2667 H 0.47689 0.68983 0.45133
 H2668 H 0.47538 0.65849 0.47074
 H2669 H 0.50696 0.59365 0.50306
 H2670 H 0.50844 0.55913 0.51412
 H2671 H 0.47500 0.54318 0.45862
 H2672 H 0.47367 0.57755 0.44795
 C2673 C 0.50751 0.86440 0.45418
 C2674 C 0.48965 0.85461 0.45230
 C2675 C 0.48865 0.83704 0.44084
 C2676 C 0.50552 0.82904 0.43102
 C2677 C 0.52351 0.83872 0.43349
 C2678 C 0.52448 0.85630 0.44495
 C2679 C 0.50812 0.88353 0.46398
 C2680 C 0.50851 0.89998 0.47112
 C2681 C 0.50888 0.92013 0.47813
 C2682 C 0.49918 0.92606 0.49677
 C2683 C 0.49821 0.94603 0.50223
 C2684 C 0.50692 0.96032 0.48908
 C2685 C 0.51692 0.95402 0.47057
 C2686 C 0.51795 0.93415 0.46524
 H2687 H 0.47641 0.86078 0.45929
 H2688 H 0.47463 0.82981 0.43948
 H2689 H 0.53671 0.83308 0.42594
 H2690 H 0.53835 0.86386 0.44612
 H2691 H 0.49194 0.91533 0.50678
 H2692 H 0.49010 0.95024 0.51635
 H2693 H 0.52373 0.96446 0.45989
 H2694 H 0.52540 0.92977 0.45071
 C2695 C 0.00659 0.36184 0.95212
 C2696 C -0.01050 0.35059 0.95212
 C2697 C -0.01110 0.33294 0.94073
 C2698 C 0.00539 0.32633 0.92910
 C2699 C 0.02261 0.33758 0.92954
 C2700 C 0.02317 0.35521 0.94093
 C2701 C 0.00677 0.38085 0.96222
 C2702 C 0.00702 0.39720 0.96964
 C2703 C 0.00747 0.41725 0.97700
 C2704 C -0.00184 0.42291 0.99597
 C2705 C -0.00249 0.44277 1.00192
 C2706 C 0.00619 0.45723 0.98894
 C2707 C 0.01575 0.45119 0.97007
 C2708 C 0.01645 0.43143 0.96426
 H2709 H -0.02345 0.35562 0.96064
 H2710 H -0.02449 0.32451 0.94096
 H2711 H 0.03546 0.33308 0.92054
 H2712 H 0.03642 0.36388 0.94062
 H2713 H -0.00899 0.41205 1.00590
 H2714 H -0.01028 0.44679 1.01631
 H2715 H 0.02252 0.46176 0.95951
 H2716 H 0.02364 0.42727 0.94949
 C2717 C 0.49134 0.35774 0.04642
 C2718 C 0.47452 0.34966 0.05572
 C2719 C 0.47582 0.33223 0.06747
 C2720 C 0.49401 0.32267 0.07018
 C2721 C 0.51076 0.33068 0.06036
 C2722 C 0.50942 0.34810 0.04860
 C2723 C 0.49032 0.37668 0.03619
 C2724 C 0.48954 0.39301 0.02871
 C2725 C 0.48866 0.41306 0.02135
 C2726 C 0.47955 0.42721 0.03420
 C2727 C 0.48019 0.44702 0.02861
 C2728 C 0.48985 0.45315 0.00987
 C2729 C 0.49850 0.43872 -0.00331
 C2730 C 0.49793 0.41880 0.00243
 H2731 H 0.46048 0.35710 0.05434
 H2732 H 0.46270 0.32660 0.07502
 H2733 H 0.52492 0.32353 0.06187
 H2734 H 0.52255 0.35425 0.04157
 H2735 H 0.47240 0.42298 0.04893
 H2736 H 0.47340 0.45756 0.03929
 H2737 H 0.50627 0.44280 -0.01767
 H2738 H 0.50516 0.40797 -0.00759
 C2739 C -0.00823 0.85772 0.54647
 C2740 C -0.02492 0.84971 0.55611
 C2741 C -0.02349 0.83229 0.56787
 C2742 C -0.00529 0.82266 0.57024
 C2743 C 0.01133 0.83062 0.56011
 C2744 C 0.00986 0.84803 0.54834
 C2745 C -0.00937 0.87662 0.53614
 C2746 C -0.01025 0.89290 0.52853
 C2747 C -0.01123 0.91289 0.52097
 C2748 C -0.02098 0.92698 0.53334
 C2749 C -0.02035 0.94679 0.52768
 C2750 C -0.01009 0.95296 0.50934
 C2751 C -0.00082 0.93857 0.49660
 C2752 C -0.00137 0.91866 0.50241
 H2753 H -0.03896 0.85719 0.55496
 H2754 H -0.03651 0.82671 0.57567
 H2755 H 0.02549 0.82342 0.56136
 H2756 H 0.02290 0.85412 0.54105
 H2757 H -0.02857 0.92274 0.54780
 H2758 H -0.02757 0.95730 0.53807
 H2759 H 0.00748 0.94268 0.48260
 H2760 H 0.00637 0.90789 0.49278
 C2761 C 0.21906 0.31071 0.11279
 C2762 C 0.20826 0.32789 0.10883
 C2763 C 0.21192 0.33889 0.09045
 C2764 C 0.22652 0.33289 0.07586
 C2765 C 0.23683 0.31526 0.07966
 C2766 C 0.23314 0.30428 0.09803
 C2767 C 0.21745 0.30097 0.13302
 C2768 C 0.21756 0.29339 0.15034
 C2769 C 0.21972 0.28515 0.17126
 C2770 C 0.23109 0.29523 0.18597
 C2771 C 0.23613 0.28639 0.20516
 C2772 C 0.22962 0.26733 0.21025
 C2773 C 0.21746 0.25760 0.19568
 C2774 C 0.21258 0.26646 0.17627
 H2775 H 0.19744 0.33310 0.12024
 H2776 H 0.20353 0.35224 0.08782
 H2777 H 0.24832 0.31036 0.06890
 H2778 H 0.24178 0.29115 0.10108
 H2779 H 0.23689 0.30961 0.18218
 H2780 H 0.24585 0.29430 0.21557
 H2781 H 0.21252 0.24279 0.19869
 H2782 H 0.20395 0.25842 0.16485
 C2783 C 0.72035 0.81494 0.61743
 C2784 C 0.73383 0.80801 0.60227
 C2785 C 0.73703 0.81855 0.58350
 C2786 C 0.72682 0.83624 0.57969
 C2787 C 0.71280 0.84274 0.59471
 C2788 C 0.70965 0.83217 0.61349
 C2789 C 0.71927 0.80560 0.63791
 C2790 C 0.71977 0.79830 0.65536
 C2791 C 0.72230 0.79029 0.67632
 C2792 C 0.71540 0.77157 0.68158
 C2793 C 0.72058 0.76290 0.70098
 C2794 C 0.73279 0.77286 0.71532
 C2795 C 0.73906 0.79194 0.70999
 C2796 C 0.73375 0.80059 0.69079
 H2797 H 0.74239 0.79482 0.60529
 H2798 H 0.74807 0.81327 0.57240
 H2799 H 0.70451 0.85615 0.59209
 H2800 H 0.69929 0.83775 0.62519
 H2801 H 0.70672 0.76336 0.67034
 H2802 H 0.71583 0.74805 0.70415
 H2803 H 0.74880 0.80002 0.72025
 H2804 H 0.73935 0.81500 0.68679
 C2805 C 0.27562 0.67902 0.62015
 C2806 C 0.28265 0.68630 0.60075
 C2807 C 0.27889 0.67616 0.58186
 C2808 C 0.26800 0.65865 0.58220
 C2809 C 0.26109 0.65149 0.60183
 C2810 C 0.26490 0.66159 0.62061
 C2811 C 0.27812 0.68973 0.63963
 C2812 C 0.27866 0.69795 0.65657
 C2813 C 0.27712 0.70676 0.67729
 C2814 C 0.28475 0.72540 0.68147
 C2815 C 0.28037 0.73483 0.70076
 C2816 C 0.26820 0.72574 0.71601
 C2817 C 0.26127 0.70669 0.71177
 C2818 C 0.26582 0.69728 0.69271
 H2819 H 0.29086 0.69986 0.60020
 H2820 H 0.28457 0.68194 0.56702
 H2821 H 0.25237 0.63828 0.60264
 H2822 H 0.25917 0.65595 0.63551
 H2823 H 0.29335 0.73297 0.66951
 H2824 H 0.28566 0.74960 0.70315
 H2825 H 0.25152 0.69927 0.72273
 H2826 H 0.25966 0.68294 0.68958
 C2827 C 0.77716 0.18485 0.11755
 C2828 C 0.76480 0.19298 0.10213
 C2829 C 0.76093 0.18260 0.08346
 C2830 C 0.76929 0.16389 0.08008
 C2831 C 0.78224 0.15616 0.09534
 C2832 C 0.78609 0.16656 0.11397
 C2833 C 0.77875 0.19412 0.13799
 C2834 C 0.77873 0.20130 0.15549
 C2835 C 0.77677 0.20914 0.17662
 C2836 C 0.78433 0.22757 0.18184
 C2837 C 0.77963 0.23621 0.20145
 C2838 C 0.76722 0.22653 0.21602
 C2839 C 0.76039 0.20765 0.21077
 C2840 C 0.76524 0.19903 0.19135
 H2841 H 0.75760 0.20701 0.10487
 H2842 H 0.75077 0.18885 0.07211
 H2843 H 0.78914 0.14192 0.09302
 H2844 H 0.79556 0.16006 0.12587
 H2845 H 0.79312 0.23562 0.17043
 H2846 H 0.78486 0.25088 0.20462
 H2847 H 0.75053 0.19980 0.22124
 H2848 H 0.75916 0.18483 0.18741
 C2849 C 0.72173 0.17936 0.88348
 C2850 C 0.73247 0.18842 0.89958
 C2851 C 0.73622 0.17845 0.91859
 C2852 C 0.72931 0.15923 0.92174
 C2853 C 0.71812 0.15043 0.90566
 C2854 C 0.71441 0.16042 0.88664
 C2855 C 0.72017 0.18862 0.86297
 C2856 C 0.72038 0.19597 0.84552
 C2857 C 0.72286 0.20413 0.82457
 C2858 C 0.71339 0.22157 0.81845
 C2859 C 0.71857 0.23079 0.79928
 C2860 C 0.73341 0.22274 0.78613
 C2861 C 0.74209 0.20476 0.79217
 C2862 C 0.73678 0.19552 0.81107
 H2863 H 0.73838 0.20300 0.89722
 H2864 H 0.74465 0.18571 0.93076
 H2865 H 0.71280 0.13556 0.90747
 H2866 H 0.70635 0.15314 0.87418
 H2867 H 0.70265 0.22845 0.82886
 H2868 H 0.71159 0.24465 0.79530
 H2869 H 0.75393 0.19826 0.78312
 H2870 H 0.74436 0.18215 0.81573
 C2871 C 0.21841 0.68157 0.38499
 C2872 C 0.22817 0.69097 0.40158
 C2873 C 0.23187 0.68096 0.42058
 C2874 C 0.22589 0.66135 0.42320
 C2875 C 0.21561 0.65221 0.40663
 C2876 C 0.21195 0.66225 0.38765
 C2877 C 0.21702 0.69090 0.36451
 C2878 C 0.21719 0.69821 0.34705
 C2879 C 0.21930 0.70627 0.32602
 C2880 C 0.23006 0.69563 0.31092
 C2881 C 0.23536 0.70432 0.29169
 C2882 C 0.22974 0.72384 0.28698
 C2883 C 0.21802 0.73410 0.30188
 C2884 C 0.21289 0.72537 0.32131
 H2885 H 0.23340 0.70587 0.39962
 H2886 H 0.23959 0.68847 0.43313
 H2887 H 0.21105 0.63705 0.40802
 H2888 H 0.20464 0.65472 0.37481
 H2889 H 0.23530 0.68091 0.31447
 H2890 H 0.24474 0.69598 0.28102
 H2891 H 0.21377 0.74924 0.29918
 H2892 H 0.20473 0.73384 0.33301
 C2893 C 0.77296 0.82057 0.38249
 C2894 C 0.75482 0.82979 0.38600
 C2895 C 0.75106 0.83965 0.40505
 C2896 C 0.76540 0.84043 0.42096
 C2897 C 0.78363 0.83108 0.41733
 C2898 C 0.78738 0.82119 0.39819
 C2899 C 0.77639 0.81070 0.36257
 C2900 C 0.77763 0.80297 0.34538
 C2901 C 0.77685 0.79454 0.32445
 C2902 C 0.76630 0.80456 0.30885
 C2903 C 0.76207 0.79542 0.28966
 C2904 C 0.76859 0.77608 0.28546
 C2905 C 0.78011 0.76645 0.30088
 C2906 C 0.78414 0.77561 0.32030
 H2907 H 0.74359 0.82947 0.37392
 H2908 H 0.73702 0.84696 0.40717
 H2909 H 0.79491 0.83128 0.42936
 H2910 H 0.80146 0.81407 0.39564
 H2911 H 0.76037 0.81911 0.31197
 H2912 H 0.75279 0.80327 0.27859
 H2913 H 0.78506 0.75146 0.29853
 H2914 H 0.79212 0.76761 0.33241
 C2915 C 0.28000 0.31805 0.88264
 C2916 C 0.28716 0.33707 0.88553
 C2917 C 0.28305 0.34729 0.90434
 C2918 C 0.27161 0.33863 0.92047
 C2919 C 0.26493 0.31930 0.91764
 C2920 C 0.26907 0.30911 0.89883
 C2921 C 0.28189 0.30860 0.86226
 C2922 C 0.28206 0.30118 0.84487
 C2923 C 0.28028 0.29307 0.82386
 C2924 C 0.26921 0.30341 0.80893
 C2925 C 0.26443 0.29469 0.78966
 C2926 C 0.27090 0.27548 0.78471
 C2927 C 0.28283 0.26551 0.79948
 C2928 C 0.28745 0.27425 0.81898
 H2929 H 0.29538 0.34425 0.87297
 H2930 H 0.28821 0.36223 0.90592
 H2931 H 0.25632 0.31214 0.92988
 H2932 H 0.26330 0.29445 0.89669
 H2933 H 0.26341 0.31790 0.81261
 H2934 H 0.25490 0.30280 0.77907
 H2935 H 0.28776 0.25060 0.79655
 H2936 H 0.29586 0.26602 0.83055
 C2937 C 0.79455 0.38702 0.77594
 C2938 C 0.81107 0.39113 0.78816
 C2939 C 0.82046 0.40920 0.78606
 C2940 C 0.81349 0.42339 0.77162
 C2941 C 0.79638 0.41946 0.76006
 C2942 C 0.78702 0.40134 0.76216
 C2943 C 0.78690 0.36740 0.77556
 C2944 C 0.78152 0.35063 0.77415
 C2945 C 0.77639 0.33039 0.77101
 C2946 C 0.78886 0.31850 0.75880
 C2947 C 0.78383 0.29914 0.75442
 C2948 C 0.76618 0.29116 0.76220
 C2949 C 0.75387 0.30319 0.77485
 C2950 C 0.75894 0.32269 0.77919
 H2951 H 0.81710 0.38010 0.79875
 H2952 H 0.83345 0.41193 0.79538
 H2953 H 0.79079 0.42999 0.74865
 H2954 H 0.77438 0.39821 0.75242
 H2955 H 0.80237 0.32433 0.75229
 H2956 H 0.79366 0.29068 0.74439
 H2957 H 0.74014 0.29773 0.78112
 H2958 H 0.74914 0.33182 0.78863
 C2959 C 0.29938 0.88246 0.27682
 C2960 C 0.28906 0.89880 0.26933
 C2961 C 0.29831 0.91699 0.26738
 C2962 C 0.31840 0.91928 0.27263
 C2963 C 0.32820 0.90253 0.28110
 C2964 C 0.31883 0.88445 0.28303
 C2965 C 0.29061 0.86332 0.27646
 C2966 C 0.28379 0.84710 0.27519
 C2967 C 0.27627 0.82759 0.27249
 C2968 C 0.25930 0.82469 0.26062
 C2969 C 0.25332 0.80565 0.25569
 C2970 C 0.26461 0.78921 0.26202
 C2971 C 0.28074 0.79234 0.27542
 C2972 C 0.28671 0.81139 0.28031
 H2973 H 0.27399 0.89735 0.26425
 H2974 H 0.28975 0.92861 0.26021
 H2975 H 0.34304 0.90314 0.28691
 H2976 H 0.32692 0.87188 0.28910
 H2977 H 0.25100 0.83714 0.25464
 H2978 H 0.24035 0.80393 0.24608
 H2979 H 0.28895 0.78016 0.28199
 H2980 H 0.29970 0.81348 0.28983
 C2981 C 0.20881 0.89063 0.72987
 C2982 C 0.21547 0.90494 0.74400
 C2983 C 0.20608 0.92327 0.74511
 C2984 C 0.18982 0.92742 0.73218
 C2985 C 0.18374 0.91321 0.71744
 C2986 C 0.19316 0.89492 0.71634
 C2987 C 0.21648 0.87091 0.73091
 C2988 C 0.22189 0.85408 0.73266
 C2989 C 0.22710 0.83378 0.73585
 C2990 C 0.24449 0.82586 0.72748
 C2991 C 0.24944 0.80616 0.73136
 C2992 C 0.23704 0.79413 0.74371
 C2993 C 0.21951 0.80238 0.75182
 C2994 C 0.21462 0.82196 0.74792
 H2995 H 0.22743 0.90169 0.75471
 H2996 H 0.21096 0.93383 0.75676
 H2997 H 0.17142 0.91609 0.70709
 H2998 H 0.18781 0.88390 0.70543
 H2999 H 0.25429 0.83492 0.71812
 H3000 H 0.26307 0.80049 0.72483
 H3001 H 0.20958 0.79386 0.76153
 H3002 H 0.20114 0.82795 0.75454
 C3003 C 0.70680 0.39025 0.23200
 C3004 C 0.71321 0.40456 0.24627
 C3005 C 0.70399 0.42299 0.24698
 C3006 C 0.68814 0.42724 0.23349
 C3007 C 0.68231 0.41302 0.21865
 C3008 C 0.69157 0.39463 0.21795
 C3009 C 0.71437 0.37051 0.23326
 C3010 C 0.71977 0.35369 0.23507
 C3011 C 0.72511 0.33341 0.23817
 C3012 C 0.74259 0.32572 0.22979
 C3013 C 0.74766 0.30602 0.23340
 C3014 C 0.73529 0.29374 0.24549
 C3015 C 0.71768 0.30176 0.25366
 C3016 C 0.71267 0.32136 0.25002
 H3017 H 0.72486 0.40125 0.25736
 H3018 H 0.70866 0.43356 0.25873
 H3019 H 0.67032 0.41598 0.20789
 H3020 H 0.68642 0.38363 0.20691
 H3021 H 0.75235 0.33495 0.22058
 H3022 H 0.76134 0.30054 0.22683
 H3023 H 0.70775 0.29302 0.26314
 H3024 H 0.69910 0.32718 0.25663
 C3025 C 0.70478 0.61373 0.27007
 C3026 C 0.71452 0.59812 0.25995
 C3027 C 0.70544 0.57984 0.25818
 C3028 C 0.68645 0.57698 0.26645
 C3029 C 0.67705 0.59261 0.27717
 C3030 C 0.68615 0.61086 0.27892
 C3031 C 0.71292 0.63317 0.26951
 C3032 C 0.71883 0.64977 0.26809
 C3033 C 0.72471 0.66985 0.26517
 C3034 C 0.74224 0.67688 0.27360
 C3035 C 0.74787 0.69635 0.26984
 C3036 C 0.73604 0.70903 0.25754
 C3037 C 0.71837 0.70167 0.24938
 C3038 C 0.71279 0.68234 0.25317
 H3039 H 0.72890 0.60022 0.25291
 H3040 H 0.71316 0.56802 0.25008
 H3041 H 0.66233 0.59100 0.28343
 H3042 H 0.67838 0.62291 0.28656
 H3043 H 0.75161 0.66730 0.28289
 H3044 H 0.76159 0.70133 0.27639
 H3045 H 0.70885 0.71068 0.23969
 H3046 H 0.69922 0.67704 0.24649
 C3047 C 0.20573 0.11419 0.76737
 C3048 C 0.21540 0.09853 0.75726
 C3049 C 0.20638 0.08019 0.75585
 C3050 C 0.18752 0.07732 0.76446
 C3051 C 0.17818 0.09301 0.77513
 C3052 C 0.18723 0.11132 0.77653
 C3053 C 0.21387 0.13362 0.76665
 C3054 C 0.21987 0.15019 0.76519
 C3055 C 0.22594 0.17023 0.76235
 C3056 C 0.24353 0.17701 0.77087
 C3057 C 0.24933 0.19647 0.76735
 C3058 C 0.23761 0.20939 0.75523
 C3059 C 0.21989 0.20227 0.74694
 C3060 C 0.21414 0.18293 0.75048
 H3061 H 0.22969 0.10063 0.75001
 H3062 H 0.21405 0.06833 0.74777
 H3063 H 0.16356 0.09138 0.78166
 H3064 H 0.17951 0.12340 0.78419
 H3065 H 0.25280 0.16726 0.78007
 H3066 H 0.26307 0.20125 0.77401
 H3067 H 0.21042 0.21149 0.73743
 H3068 H 0.20051 0.17783 0.74376
 C3069 C 0.29334 0.10437 0.22980
 C3070 C 0.31102 0.10059 0.21913
 C3071 C 0.32020 0.08225 0.22101
 C3072 C 0.31183 0.06741 0.23368
 C3073 C 0.29372 0.07115 0.24381
 C3074 C 0.28456 0.08953 0.24191
 C3075 C 0.28534 0.12400 0.23004
 C3076 C 0.27956 0.14076 0.23107
 C3077 C 0.27382 0.16103 0.23341
 C3078 C 0.28600 0.17364 0.24465
 C3079 C 0.28053 0.19319 0.24785
 C3080 C 0.26270 0.20062 0.23985
 C3081 C 0.25061 0.18779 0.22830
 C3082 C 0.25614 0.16813 0.22513
 H3083 H 0.31806 0.11205 0.20992
 H3084 H 0.33427 0.07998 0.21328
 H3085 H 0.28679 0.05996 0.25346
 H3086 H 0.27093 0.09234 0.25035
 H3087 H 0.29969 0.16829 0.25122
 H3088 H 0.29022 0.20230 0.25704
 H3089 H 0.23676 0.19281 0.22190
 H3090 H 0.24656 0.15845 0.21642
 C3091 C 0.79737 0.61051 0.73309
 C3092 C 0.81525 0.60674 0.72279
 C3093 C 0.82396 0.58811 0.72407
 C3094 C 0.81490 0.57300 0.73575
 C3095 C 0.79663 0.57678 0.74553
 C3096 C 0.78796 0.59544 0.74423
 C3097 C 0.78966 0.63025 0.73380
 C3098 C 0.78394 0.64701 0.73519
 C3099 C 0.77807 0.66722 0.73786
 C3100 C 0.79010 0.67978 0.74936
 C3101 C 0.78445 0.69925 0.75283
 C3102 C 0.76658 0.70662 0.74485
 C3103 C 0.75464 0.69384 0.73307
 C3104 C 0.76036 0.67427 0.72963
 H3105 H 0.82277 0.61836 0.71432
 H3106 H 0.83814 0.58578 0.71663
 H3107 H 0.78919 0.56539 0.75442
 H3108 H 0.77416 0.59823 0.75235
 H3109 H 0.80382 0.67447 0.75589
 H3110 H 0.79403 0.70835 0.76216
 H3111 H 0.74079 0.69881 0.72666
 H3112 H 0.75089 0.66462 0.72073
 C3113 C 0.89142 0.75776 0.20532
 C3114 C 0.89806 0.77444 0.19468
 C3115 C 0.91559 0.77386 0.18305
 C3116 C 0.92709 0.75639 0.18155
 C3117 C 0.92024 0.73981 0.19314
 C3118 C 0.90264 0.74052 0.20470
 C3119 C 0.87236 0.75801 0.21536
 C3120 C 0.85592 0.75844 0.22256
 C3121 C 0.83572 0.75921 0.22940
 C3122 C 0.82197 0.76825 0.21618
 C3123 C 0.80209 0.76778 0.22135
 C3124 C 0.79548 0.75840 0.24004
 C3125 C 0.80950 0.74975 0.25357
 C3126 C 0.82950 0.75015 0.24825
 H3127 H 0.88955 0.78796 0.19516
 H3128 H 0.92013 0.78755 0.17594
 H3129 H 0.92749 0.72566 0.19242
 H3130 H 0.89749 0.72739 0.21266
 H3131 H 0.82658 0.77525 0.20152
 H3132 H 0.79189 0.77454 0.21040
 H3133 H 0.80504 0.74216 0.26790
 H3134 H 0.84003 0.74299 0.25856
 C3135 C 0.39243 0.25800 0.70165
 C3136 C 0.40833 0.24724 0.70967
 C3137 C 0.42618 0.24675 0.69851
 C3138 C 0.42833 0.25701 0.67918
 C3139 C 0.41224 0.26781 0.67135
 C3140 C 0.39447 0.26829 0.68251
 C3141 C 0.37368 0.25807 0.71235
 C3142 C 0.35740 0.25849 0.72001
 C3143 C 0.33734 0.25937 0.72729
 C3144 C 0.33124 0.24967 0.74581
 C3145 C 0.31130 0.24938 0.75144
 C3146 C 0.29723 0.25877 0.73856
 C3147 C 0.30373 0.26878 0.72021
 C3148 C 0.32355 0.26914 0.71474
 H3149 H 0.40690 0.23916 0.72444
 H3150 H 0.43834 0.23846 0.70507
 H3151 H 0.41325 0.27558 0.65636
 H3152 H 0.38222 0.27652 0.67604
 H3153 H 0.34179 0.24193 0.75559
 H3154 H 0.30692 0.24127 0.76545
 H3155 H 0.29349 0.27608 0.70972
 H3156 H 0.32806 0.27664 0.70032
 C3157 C 0.38937 0.74430 0.79828
 C3158 C 0.40583 0.73388 0.79085
 C3159 C 0.42347 0.73452 0.80212
 C3160 C 0.42479 0.74549 0.82103
 C3161 C 0.40822 0.75610 0.82814
 C3162 C 0.39068 0.75549 0.81686
 C3163 C 0.37078 0.74290 0.78766
 C3164 C 0.35465 0.74189 0.78001
 C3165 C 0.33473 0.74086 0.77262
 C3166 C 0.32069 0.73186 0.78553
 C3167 C 0.30093 0.73267 0.78009
 C3168 C 0.29476 0.74237 0.76145
 C3169 C 0.30910 0.75082 0.74815
 C3170 C 0.32896 0.75010 0.75373
 H3171 H 0.40496 0.72506 0.77657
 H3172 H 0.43591 0.72605 0.79634
 H3173 H 0.40885 0.76493 0.84244
 H3174 H 0.37804 0.76359 0.82278
 H3175 H 0.32494 0.72476 0.80024
 H3176 H 0.29045 0.72607 0.79089
 H3177 H 0.30499 0.75866 0.73387
 H3178 H 0.33971 0.75727 0.74369
 C3179 C 0.88736 0.24238 0.30037
 C3180 C 0.88744 0.24112 0.32257
 C3181 C 0.90510 0.24174 0.33364
 C3182 C 0.92302 0.24362 0.32266
 C3183 C 0.92282 0.24496 0.30031
 C3184 C 0.90508 0.24432 0.28924
 C3185 C 0.86892 0.24172 0.28939
 C3186 C 0.85287 0.24109 0.28148
 C3187 C 0.83303 0.24029 0.27385
 C3188 C 0.81895 0.23068 0.28616
 C3189 C 0.79924 0.23154 0.28053
 C3190 C 0.79317 0.24191 0.26228
 C3191 C 0.80756 0.25104 0.24958
 C3192 C 0.82737 0.25026 0.25536
 H3193 H 0.87381 0.23970 0.33137
 H3194 H 0.90469 0.24101 0.35083
 H3195 H 0.93638 0.24624 0.29139
 H3196 H 0.90519 0.24530 0.27205
 H3197 H 0.82312 0.22302 0.30057
 H3198 H 0.78872 0.22445 0.29090
 H3199 H 0.80352 0.25944 0.23565
 H3200 H 0.83814 0.25791 0.24579
 C3201 C 0.10782 0.25325 0.29238
 C3202 C 0.09666 0.23608 0.29285
 C3203 C 0.07924 0.23545 0.30471
 C3204 C 0.07278 0.25198 0.31635
 C3205 C 0.08385 0.26933 0.31531
 C3206 C 0.10126 0.26992 0.30345
 C3207 C 0.12680 0.25328 0.28216
 C3208 C 0.14318 0.25332 0.27478
 C3209 C 0.16330 0.25347 0.26766
 C3210 C 0.16927 0.24357 0.24916
 C3211 C 0.18922 0.24253 0.24364
 C3212 C 0.20343 0.25137 0.25658
 C3213 C 0.19706 0.26153 0.27494
 C3214 C 0.17724 0.26264 0.28031
 H3215 H 0.10163 0.22305 0.28445
 H3216 H 0.07092 0.22197 0.30493
 H3217 H 0.07944 0.28223 0.32427
 H3218 H 0.10989 0.28323 0.30339
 H3219 H 0.15860 0.23626 0.23932
 H3220 H 0.19348 0.23430 0.22963
 H3221 H 0.20742 0.26845 0.28547
 H3222 H 0.17283 0.27025 0.29472
 C3223 C 0.61103 0.75567 0.79672
 C3224 C 0.60138 0.73766 0.79858
 C3225 C 0.58361 0.73650 0.80972
 C3226 C 0.57525 0.75335 0.81925
 C3227 C 0.58486 0.77146 0.81688
 C3228 C 0.60264 0.77259 0.80573
 C3229 C 0.63022 0.75652 0.78703
 C3230 C 0.64667 0.75718 0.77991
 C3231 C 0.66679 0.75793 0.77282
 C3232 C 0.67299 0.74807 0.75440
 C3233 C 0.69293 0.74749 0.74886
 C3234 C 0.70693 0.75677 0.76169
 C3235 C 0.70035 0.76693 0.77997
 C3236 C 0.68050 0.76756 0.78537
 H3237 H 0.60778 0.72445 0.79175
 H3238 H 0.57646 0.72239 0.81100
 H3239 H 0.57897 0.78465 0.82423
 H3240 H 0.61007 0.78657 0.80459
 H3241 H 0.66251 0.74040 0.74463
 H3242 H 0.69736 0.73921 0.73495
 H3243 H 0.71057 0.77414 0.79042
 H3244 H 0.67592 0.77515 0.79973
 C3245 C 0.61189 0.23873 0.70774
 C3246 C 0.60360 0.25736 0.70441
 C3247 C 0.58649 0.25946 0.69252
 C3248 C 0.57736 0.24291 0.68372
 C3249 C 0.58546 0.22415 0.68765
 C3250 C 0.60267 0.22209 0.69950
 C3251 C 0.63077 0.23719 0.71779
 C3252 C 0.64710 0.23723 0.72508
 C3253 C 0.66708 0.23912 0.73205
 C3254 C 0.67783 0.25506 0.72452
 C3255 C 0.69754 0.25691 0.72957
 C3256 C 0.70712 0.24284 0.74242
 C3257 C 0.69601 0.22705 0.75046
 C3258 C 0.67613 0.22515 0.74520
 H3259 H 0.61066 0.27037 0.71058
 H3260 H 0.58047 0.27406 0.69005
 H3261 H 0.57887 0.21115 0.68092
 H3262 H 0.60907 0.20761 0.70174
 H3263 H 0.67103 0.26595 0.71429
 H3264 H 0.70526 0.26929 0.72283
 H3265 H 0.70279 0.21572 0.76004
 H3266 H 0.66797 0.21264 0.75103
 C3267 C 0.11018 0.74412 0.20509
 C3268 C 0.09930 0.76165 0.20475
 C3269 C 0.08179 0.76276 0.19333
 C3270 C 0.07495 0.74636 0.18202
 C3271 C 0.08577 0.72868 0.18288
 C3272 C 0.10327 0.72760 0.19430
 C3273 C 0.12916 0.74348 0.21500
 C3274 C 0.14551 0.74287 0.22221
 C3275 C 0.16556 0.74199 0.22921
 C3276 C 0.17139 0.75093 0.24818
 C3277 C 0.19125 0.75106 0.25383
 C3278 C 0.20552 0.74226 0.24055
 C3279 C 0.19931 0.73313 0.22165
 C3280 C 0.17957 0.73294 0.21614
 H3281 H 0.10453 0.77456 0.21295
 H3282 H 0.07367 0.77651 0.19323
 H3283 H 0.08108 0.71587 0.17414
 H3284 H 0.11167 0.71401 0.19427
 H3285 H 0.16067 0.75813 0.25837
 H3286 H 0.19540 0.75850 0.26827
 H3287 H 0.20972 0.72624 0.21088
 H3288 H 0.17527 0.72605 0.20138
   
