data_POSCAR
  _audit_creation_date              2014-09-24
  _audit_creation_method            'ToBaCCo'
  _symmetry_space_group_name_H-M    'P1'
  _symmetry_Int_Tables_number       1
  _symmetry_cell_setting            triclinic
  loop_
  _symmetry_equiv_pos_as_xyz
 x,y,z
_cell_length_a 89.9422
_cell_length_b 89.9031
_cell_length_c 91.4043
_cell_angle_alpha 89.934200
_cell_angle_beta 89.996800
_cell_angle_gamma 89.914300
loop_
  _atom_site_label
  _atom_site_type_symbol
  _atom_site_fract_x
  _atom_site_fract_y
  _atom_site_fract_z
N1 N 0.36729 0.32596 0.33763
 N2 N 0.36573 0.33493 0.32638
 C3 C 0.37679 0.33238 0.31678
 C4 C 0.38578 0.32113 0.32227
 C5 C 0.37937 0.31738 0.33557
 H6 H 0.37793 0.33804 0.30641
 H7 H 0.38306 0.30891 0.34313
 Cu8 Cu 0.34909 0.34867 0.32492
 Cu9 Cu 0.35321 0.32558 0.35377
 Cu10 Cu 0.32590 0.35268 0.35366
 N11 N 0.33524 0.36523 0.32628
 N12 N 0.32623 0.36674 0.33748
 C13 C 0.31768 0.37886 0.33544
 C14 C 0.32152 0.38537 0.32221
 C15 C 0.33275 0.37637 0.31672
 H16 H 0.30922 0.38254 0.34301
 H17 H 0.33849 0.37760 0.30640
 N18 N 0.32748 0.33743 0.36905
 N19 N 0.33790 0.32710 0.36910
 C20 C 0.33578 0.31810 0.38070
 C21 C 0.32341 0.32298 0.38838
 C22 C 0.31846 0.33528 0.38061
 H23 H 0.34258 0.30850 0.38314
 H24 H 0.30878 0.34198 0.38295
 H25 H 0.33499 0.33445 0.34298
 H26 H 0.34831 0.34792 0.35147
 N27 N 0.36670 0.82553 -0.16298
 N28 N 0.36548 0.83498 -0.17386
 C29 C 0.37667 0.83271 -0.18337
 C30 C 0.38550 0.82116 -0.17821
 C31 C 0.37875 0.81691 -0.16517
 H32 H 0.37822 0.83911 -0.19325
 H33 H 0.38213 0.80809 -0.15785
 Cu34 Cu 0.34950 0.84944 -0.17489
 Cu35 Cu 0.35248 0.82511 -0.14694
 Cu36 Cu 0.32512 0.85241 -0.14707
 N37 N 0.33505 0.86544 -0.17394
 N38 N 0.32558 0.86663 -0.16309
 C39 C 0.31695 0.87867 -0.16528
 C40 C 0.32122 0.88546 -0.17829
 C41 C 0.33279 0.87666 -0.18343
 H42 H 0.30811 0.88202 -0.15799
 H43 H 0.33924 0.87829 -0.19327
 N44 N 0.32661 0.83701 -0.13180
 N45 N 0.33703 0.82667 -0.13170
 C46 C 0.33504 0.81789 -0.11992
 C47 C 0.32277 0.82292 -0.11217
 C48 C 0.31774 0.83508 -0.12009
 H49 H 0.34194 0.80841 -0.11732
 H50 H 0.30823 0.84199 -0.11763
 H51 H 0.33459 0.83454 -0.15789
 H52 H 0.34749 0.84755 -0.14829
 N53 N 0.86685 0.32623 -0.16232
 N54 N 0.86544 0.33529 -0.17351
 C55 C 0.87658 0.33273 -0.18303
 C56 C 0.88546 0.32139 -0.17754
 C57 C 0.87890 0.31759 -0.16433
 H58 H 0.87787 0.33847 -0.19334
 H59 H 0.88244 0.30902 -0.15680
 Cu60 Cu 0.84889 0.34914 -0.17504
 Cu61 Cu 0.85260 0.32586 -0.14632
 Cu62 Cu 0.82503 0.35271 -0.14676
 N63 N 0.83465 0.36539 -0.17398
 N64 N 0.82539 0.36678 -0.16297
 C65 C 0.81680 0.37885 -0.16514
 C66 C 0.82084 0.38547 -0.17831
 C67 C 0.83228 0.37653 -0.18356
 H68 H 0.80814 0.38234 -0.15771
 H69 H 0.83846 0.37790 -0.19360
 N70 N 0.82661 0.33748 -0.13131
 N71 N 0.83716 0.32728 -0.13113
 C72 C 0.83515 0.31838 -0.11945
 C73 C 0.82270 0.32316 -0.11184
 C74 C 0.81760 0.33533 -0.11974
 H75 H 0.84209 0.30892 -0.11688
 H76 H 0.80788 0.34198 -0.11742
 H77 H 0.83451 0.33474 -0.15735
 H78 H 0.84749 0.34824 -0.14846
 N79 N 0.86693 0.82659 0.33773
 N80 N 0.86541 0.83562 0.32653
 C81 C 0.87645 0.83310 0.31691
 C82 C 0.88539 0.82178 0.32229
 C83 C 0.87896 0.81794 0.33557
 H84 H 0.87761 0.83884 0.30659
 H85 H 0.88258 0.80934 0.34304
 Cu86 Cu 0.84883 0.84935 0.32503
 Cu87 Cu 0.85276 0.82631 0.35385
 Cu88 Cu 0.82474 0.85276 0.35314
 N89 N 0.83443 0.86539 0.32593
 N90 N 0.82499 0.86667 0.33681
 C91 C 0.81637 0.87870 0.33455
 C92 C 0.82063 0.88540 0.32149
 C93 C 0.83217 0.87654 0.31637
 H94 H 0.80757 0.88213 0.34185
 H95 H 0.83856 0.87803 0.30648
 N96 N 0.82657 0.83774 0.36874
 N97 N 0.83735 0.82778 0.36913
 C98 C 0.83549 0.81907 0.38098
 C99 C 0.82291 0.82373 0.38847
 C100 C 0.81757 0.83562 0.38033
 H101 H 0.84262 0.80981 0.38374
 H102 H 0.80769 0.84210 0.38248
 H103 H 0.83458 0.83489 0.34275
 H104 H 0.84727 0.84867 0.35160
 N105 N 0.63379 0.67461 0.33743
 N106 N 0.63511 0.66533 0.32643
 C107 C 0.62380 0.66756 0.31703
 C108 C 0.61486 0.67889 0.32242
 C109 C 0.62162 0.68308 0.33542
 H110 H 0.62236 0.66152 0.30692
 H111 H 0.61803 0.69169 0.34287
 Cu112 Cu 0.65159 0.65138 0.32523
 Cu113 Cu 0.64801 0.67509 0.35348
 Cu114 Cu 0.67504 0.64760 0.35374
 N115 N 0.66509 0.63458 0.32677
 N116 N 0.67434 0.63321 0.33780
 C117 C 0.68276 0.62099 0.33577
 C118 C 0.67856 0.61428 0.32274
 C119 C 0.66726 0.62327 0.31737
 H120 H 0.69142 0.61741 0.34318
 H121 H 0.66128 0.62195 0.30720
 N122 N 0.67372 0.66322 0.36885
 N123 N 0.66339 0.67365 0.36878
 C124 C 0.66545 0.68262 0.38039
 C125 C 0.67769 0.67763 0.38822
 C126 C 0.68263 0.66530 0.38051
 H127 H 0.65865 0.69222 0.38280
 H128 H 0.69213 0.65840 0.38307
 H129 H 0.66611 0.66565 0.34289
 H130 H 0.65274 0.65256 0.35179
 N131 N 0.63345 0.17381 -0.16238
 N132 N 0.63476 0.16459 -0.17343
 C133 C 0.62361 0.16708 -0.18295
 C134 C 0.61480 0.17853 -0.17761
 C135 C 0.62146 0.18251 -0.16450
 H136 H 0.62218 0.16113 -0.19311
 H137 H 0.61795 0.19116 -0.15706
 Cu138 Cu 0.65101 0.15034 -0.17469
 Cu139 Cu 0.64759 0.17403 -0.14628
 Cu140 Cu 0.67516 0.14717 -0.14649
 N141 N 0.66559 0.13439 -0.17362
 N142 N 0.67496 0.13314 -0.16267
 C143 C 0.68375 0.12123 -0.16491
 C144 C 0.67971 0.11457 -0.17804
 C145 C 0.66808 0.12332 -0.18320
 H146 H 0.69256 0.11788 -0.15757
 H147 H 0.66183 0.12183 -0.19317
 N148 N 0.67345 0.16236 -0.13106
 N149 N 0.66289 0.17254 -0.13094
 C150 C 0.66486 0.18144 -0.11926
 C151 C 0.67730 0.17667 -0.11160
 C152 C 0.68242 0.16451 -0.11946
 H153 H 0.65792 0.19091 -0.11675
 H154 H 0.69215 0.15787 -0.11711
 H155 H 0.66561 0.16488 -0.15732
 H156 H 0.65270 0.15149 -0.14813
 N157 N 0.13282 0.67381 -0.16187
 N158 N 0.13430 0.66474 -0.17303
 C159 C 0.12329 0.66736 -0.18268
 C160 C 0.11442 0.67877 -0.17733
 C161 C 0.12084 0.68251 -0.16404
 H162 H 0.12211 0.66168 -0.19303
 H163 H 0.11726 0.69111 -0.15657
 Cu164 Cu 0.15095 0.65097 -0.17440
 Cu165 Cu 0.14695 0.67419 -0.14575
 Cu166 Cu 0.17429 0.64706 -0.14572
 N167 N 0.16498 0.63453 -0.17314
 N168 N 0.17403 0.63301 -0.16196
 C169 C 0.18270 0.62099 -0.16412
 C170 C 0.17889 0.61455 -0.17740
 C171 C 0.16756 0.62351 -0.18278
 H172 H 0.19123 0.61733 -0.15662
 H173 H 0.16180 0.62232 -0.19309
 N174 N 0.17262 0.66236 -0.13032
 N175 N 0.16225 0.67274 -0.13040
 C176 C 0.16445 0.68191 -0.11896
 C177 C 0.17684 0.67712 -0.11125
 C178 C 0.18168 0.66465 -0.11881
 H179 H 0.15774 0.69161 -0.11669
 H180 H 0.19134 0.65794 -0.11639
 H181 H 0.16520 0.66512 -0.15643
 H182 H 0.15190 0.65173 -0.14780
 N183 N 0.13311 0.17401 0.33741
 N184 N 0.13493 0.16536 0.32599
 C185 C 0.12382 0.16783 0.31641
 C186 C 0.11451 0.17866 0.32215
 C187 C 0.12081 0.18231 0.33551
 H188 H 0.12276 0.16230 0.30597
 H189 H 0.11681 0.19039 0.34331
 Cu190 Cu 0.15172 0.15185 0.32460
 Cu191 Cu 0.14702 0.17418 0.35373
 Cu192 Cu 0.17428 0.14693 0.35364
 N193 N 0.16500 0.13487 0.32599
 N194 N 0.17383 0.13304 0.33731
 C195 C 0.18203 0.12069 0.33532
 C196 C 0.17819 0.11440 0.32200
 C197 C 0.16727 0.12373 0.31642
 H198 H 0.19024 0.11668 0.34300
 H199 H 0.16160 0.12270 0.30604
 N200 N 0.17265 0.16214 0.36914
 N201 N 0.16219 0.17244 0.36920
 C202 C 0.16426 0.18139 0.38082
 C203 C 0.17665 0.17655 0.38849
 C204 C 0.18165 0.16428 0.38071
 H205 H 0.15743 0.19096 0.38326
 H206 H 0.19136 0.15760 0.38306
 H207 H 0.16552 0.16539 0.34335
 H208 H 0.15204 0.15183 0.35130
 N209 N 0.63289 0.32577 0.66249
 N210 N 0.63437 0.33479 0.67368
 C211 C 0.62318 0.33235 0.68318
 C212 C 0.61416 0.32116 0.67765
 C213 C 0.62074 0.31728 0.66448
 H214 H 0.62189 0.33812 0.69346
 H215 H 0.61709 0.30882 0.65691
 Cu216 Cu 0.65094 0.34868 0.67507
 Cu217 Cu 0.64706 0.32529 0.64641
 Cu218 Cu 0.67410 0.35255 0.64632
 N219 N 0.66462 0.36543 0.67349
 N220 N 0.67361 0.36688 0.66226
 C221 C 0.68215 0.37900 0.66421
 C222 C 0.67838 0.38558 0.67742
 C223 C 0.66714 0.37661 0.68298
 H224 H 0.69065 0.38259 0.65663
 H225 H 0.66147 0.37786 0.69333
 N226 N 0.67280 0.33708 0.63112
 N227 N 0.66246 0.32670 0.63113
 C228 C 0.66464 0.31767 0.61958
 C229 C 0.67700 0.32256 0.61188
 C230 C 0.68185 0.33491 0.61959
 H231 H 0.65788 0.30807 0.61716
 H232 H 0.69145 0.34169 0.61717
 H233 H 0.66506 0.33432 0.65713
 H234 H 0.65164 0.34765 0.64851
 N235 N 0.63285 0.82613 1.16266
 N236 N 0.63435 0.83518 1.17383
 C237 C 0.62316 0.83282 1.18333
 C238 C 0.61413 0.82165 1.17785
 C239 C 0.62068 0.81769 1.16467
 H240 H 0.62193 0.83860 1.19362
 H241 H 0.61702 0.80919 1.15715
 Cu242 Cu 0.65101 0.84883 1.17534
 Cu243 Cu 0.64711 0.82559 1.14665
 Cu244 Cu 0.67427 0.85275 1.14667
 N245 N 0.66481 0.86537 1.17394
 N246 N 0.67382 0.86691 1.16274
 C247 C 0.68238 0.87899 1.16483
 C248 C 0.67855 0.88542 1.17809
 C249 C 0.66732 0.87643 1.18354
 H250 H 0.69089 0.88265 1.15730
 H251 H 0.66161 0.87759 1.19388
 N252 N 0.67289 0.83736 1.13143
 N253 N 0.66258 0.82696 1.13145
 C254 C 0.66482 0.81788 1.11995
 C255 C 0.67716 0.82279 1.11225
 C256 C 0.68196 0.83520 1.11990
 H257 H 0.65809 0.80825 1.11755
 H258 H 0.69152 0.84201 1.11747
 H259 H 0.66524 0.83460 1.15742
 H260 H 0.65186 0.84798 1.14881
 N261 N 0.13272 0.32619 1.16215
 N262 N 0.13290 0.33646 1.17235
 C263 C 0.12178 0.33380 1.18185
 C264 C 0.11415 0.32118 1.17737
 C265 C 0.12147 0.31669 1.16477
 H266 H 0.11962 0.34039 1.19148
 H267 H 0.11888 0.30722 1.15797
 Cu268 Cu 0.14810 0.35191 1.17263
 Cu269 Cu 0.14712 0.32580 1.14633
 Cu270 Cu 0.17436 0.35305 1.14634
 N271 N 0.16358 0.36708 1.17245
 N272 N 0.17386 0.36735 1.16226
 C273 C 0.18332 0.37860 1.16496
 C274 C 0.17879 0.38583 1.17760
 C275 C 0.16619 0.37815 1.18202
 H276 H 0.19280 0.38127 1.15818
 H277 H 0.15955 0.38024 1.19164
 N278 N 0.17296 0.33756 1.13114
 N279 N 0.16260 0.32720 1.13117
 C280 C 0.16466 0.31824 1.11956
 C281 C 0.17691 0.32316 1.11176
 C282 C 0.18189 0.33545 1.11949
 H283 H 0.15784 0.30869 1.11710
 H284 H 0.19144 0.34224 1.11696
 H285 H 0.16419 0.33614 1.15778
 H286 H 0.15196 0.34838 1.14645
 N287 N 0.13322 0.82619 0.66201
 N288 N 0.13461 0.83513 0.67328
 C289 C 0.12352 0.83239 0.68282
 C290 C 0.11472 0.82104 0.67726
 C291 C 0.12125 0.81747 0.66398
 H292 H 0.12223 0.83799 0.69320
 H293 H 0.11774 0.80900 0.65636
 Cu294 Cu 0.15110 0.84908 0.67476
 Cu295 Cu 0.14748 0.82588 0.64604
 Cu296 Cu 0.17461 0.85311 0.64619
 N297 N 0.16494 0.86567 0.67348
 N298 N 0.17401 0.86723 0.66233
 C299 C 0.18259 0.87928 0.66449
 C300 C 0.17876 0.88567 0.67777
 C301 C 0.16744 0.87671 0.68313
 H302 H 0.19113 0.88295 0.65700
 H303 H 0.16169 0.87785 0.69345
 N304 N 0.17326 0.83774 0.63086
 N305 N 0.16290 0.82738 0.63083
 C306 C 0.16512 0.81831 0.61933
 C307 C 0.17750 0.82316 0.61166
 C308 C 0.18235 0.83553 0.61935
 H309 H 0.15839 0.80868 0.61694
 H310 H 0.19199 0.84225 0.61696
 H311 H 0.16559 0.83498 0.65687
 H312 H 0.15229 0.84832 0.64814
 N313 N 0.36721 0.67384 0.66249
 N314 N 0.36561 0.66485 0.67372
 C315 C 0.37669 0.66727 0.68331
 C316 C 0.38577 0.67843 0.67784
 C317 C 0.37935 0.68230 0.66457
 H318 H 0.37781 0.66155 0.69366
 H319 H 0.38308 0.69077 0.65703
 Cu320 Cu 0.34890 0.65124 0.67513
 Cu321 Cu 0.35305 0.67441 0.64639
 Cu322 Cu 0.32570 0.64736 0.64650
 N323 N 0.33516 0.63462 0.67377
 N324 N 0.32612 0.63314 0.66258
 C325 C 0.31762 0.62101 0.66462
 C326 C 0.32150 0.61447 0.67784
 C327 C 0.33272 0.62347 0.68331
 H328 H 0.30914 0.61735 0.65707
 H329 H 0.33851 0.62221 0.69360
 N330 N 0.32717 0.66276 0.63122
 N331 N 0.33760 0.67305 0.63115
 C332 C 0.33538 0.68215 0.61964
 C333 C 0.32292 0.67738 0.61204
 C334 C 0.31804 0.66504 0.61976
 H335 H 0.34216 0.69174 0.61720
 H336 H 0.30835 0.65836 0.61744
 H337 H 0.33485 0.66562 0.65711
 H338 H 0.34813 0.65214 0.64858
 N339 N 0.36768 0.17356 1.16230
 N340 N 0.36741 0.16335 1.17259
 C341 C 0.37868 0.16585 1.18196
 C342 C 0.38642 0.17834 1.17734
 C343 C 0.37905 0.18292 1.16481
 H344 H 0.38091 0.15918 1.19155
 H345 H 0.38151 0.19253 1.15814
 Cu346 Cu 0.35203 0.14813 1.17308
 Cu347 Cu 0.35314 0.17417 1.14658
 Cu348 Cu 0.32609 0.14692 1.14658
 N349 N 0.33709 0.13247 1.17243
 N350 N 0.32684 0.13221 1.16220
 C351 C 0.31756 0.12077 1.16472
 C352 C 0.32222 0.11334 1.17722
 C353 C 0.33470 0.12112 1.18177
 H354 H 0.30790 0.11833 1.15813
 H355 H 0.34138 0.11892 1.19135
 N356 N 0.32715 0.16263 1.13159
 N357 N 0.33755 0.17295 1.13153
 C358 C 0.33539 0.18198 1.11997
 C359 C 0.32301 0.17716 1.11230
 C360 C 0.31808 0.16485 1.12006
 H361 H 0.34223 0.19152 1.11749
 H362 H 0.30846 0.15811 1.11767
 H363 H 0.33616 0.16402 1.15808
 H364 H 0.34853 0.15171 1.14698
 N365 N 0.86749 0.67359 1.16269
 N366 N 0.86580 0.66468 1.17397
 C367 C 0.87688 0.66705 1.18357
 C368 C 0.88603 0.67811 1.17806
 C369 C 0.87968 0.68197 1.16475
 H370 H 0.87793 0.66139 1.19395
 H371 H 0.88346 0.69041 1.15721
 Cu372 Cu 0.84901 0.65128 1.17552
 Cu373 Cu 0.85335 0.67417 1.14655
 Cu374 Cu 0.82594 0.64731 1.14672
 N375 N 0.83542 0.63462 1.17403
 N376 N 0.82638 0.63312 1.16284
 C377 C 0.81795 0.62094 1.16489
 C378 C 0.82191 0.61441 1.17809
 C379 C 0.83308 0.62345 1.18355
 H380 H 0.80947 0.61725 1.15736
 H381 H 0.83887 0.62224 1.19384
 N382 N 0.82742 0.66267 1.13137
 N383 N 0.83792 0.67288 1.13126
 C384 C 0.83578 0.68193 1.11968
 C385 C 0.82328 0.67722 1.11208
 C386 C 0.81833 0.66493 1.11987
 H387 H 0.84267 0.69143 1.11717
 H388 H 0.80860 0.65830 1.11758
 H389 H 0.83520 0.66547 1.15730
 H390 H 0.84848 0.65181 1.14897
 N391 N 0.86697 0.17362 0.66294
 N392 N 0.86560 0.16438 0.67399
 C393 C 0.87674 0.16676 0.68354
 C394 C 0.88560 0.17816 0.67821
 C395 C 0.87902 0.18219 0.66506
 H396 H 0.87806 0.16083 0.69375
 H397 H 0.88256 0.19085 0.65764
 Cu398 Cu 0.84905 0.15059 0.67533
 Cu399 Cu 0.85271 0.17426 0.64693
 Cu400 Cu 0.82567 0.14696 0.64670
 N401 N 0.83535 0.13400 0.67380
 N402 N 0.82626 0.13262 0.66264
 C403 C 0.81772 0.12052 0.66466
 C404 C 0.82162 0.11392 0.67784
 C405 C 0.83291 0.12282 0.68330
 H406 H 0.80916 0.11698 0.65716
 H407 H 0.83869 0.12152 0.69359
 N408 N 0.82698 0.16255 0.63158
 N409 N 0.83727 0.17298 0.63169
 C410 C 0.83505 0.18212 0.62021
 C411 C 0.82276 0.17723 0.61243
 C412 C 0.81795 0.16477 0.62003
 H413 H 0.84176 0.19178 0.61787
 H414 H 0.80843 0.15793 0.61752
 H415 H 0.83462 0.16495 0.65761
 H416 H 0.84803 0.15178 0.64878
 N417 N 0.32601 0.36668 0.66228
 N418 N 0.33503 0.36517 0.67348
 C419 C 0.33275 0.37647 0.68288
 C420 C 0.32165 0.38558 0.67728
 C421 C 0.31769 0.37897 0.66415
 H422 H 0.33852 0.37772 0.69318
 H423 H 0.30926 0.38268 0.65655
 Cu424 Cu 0.34855 0.34833 0.67504
 Cu425 Cu 0.32532 0.35233 0.64639
 Cu426 Cu 0.35266 0.32526 0.64624
 N427 N 0.36538 0.33484 0.67346
 N428 N 0.36700 0.32592 0.66220
 C429 C 0.37932 0.31764 0.66411
 C430 C 0.38583 0.32154 0.67732
 C431 C 0.37662 0.33253 0.68293
 H432 H 0.38312 0.30927 0.65649
 H433 H 0.37776 0.33822 0.69327
 N434 N 0.33704 0.32654 0.63114
 N435 N 0.32657 0.33682 0.63126
 C436 C 0.31741 0.33461 0.61982
 C437 C 0.32234 0.32233 0.61202
 C438 C 0.33482 0.31751 0.61959
 H439 H 0.30773 0.34133 0.61751
 H440 H 0.34169 0.30800 0.61706
 H441 H 0.33451 0.33405 0.65704
 H442 H 0.34778 0.34755 0.64851
 N443 N 0.32679 0.86815 0.16189
 N444 N 0.33720 0.86796 0.17195
 C445 C 0.33493 0.87934 0.18125
 C446 C 0.32245 0.88719 0.17675
 C447 C 0.31757 0.87968 0.16439
 H448 H 0.34178 0.88161 0.19067
 H449 H 0.30790 0.88221 0.15783
 Cu450 Cu 0.35275 0.85283 0.17186
 Cu451 Cu 0.32580 0.85320 0.14649
 Cu452 Cu 0.35314 0.82592 0.14645
 N453 N 0.36795 0.83736 0.17186
 N454 N 0.36812 0.82694 0.16180
 C455 C 0.37961 0.81768 0.16434
 C456 C 0.38710 0.82253 0.17672
 C457 C 0.37930 0.83505 0.18118
 H458 H 0.38210 0.80798 0.15780
 H459 H 0.38158 0.84188 0.19062
 N460 N 0.33705 0.82679 0.13184
 N461 N 0.32668 0.83718 0.13185
 C462 C 0.31744 0.83483 0.12050
 C463 C 0.32218 0.82235 0.11293
 C464 C 0.33466 0.81757 0.12050
 H465 H 0.30794 0.84172 0.11798
 H466 H 0.34152 0.80804 0.11797
 H467 H 0.33640 0.83650 0.15814
 H468 H 0.34824 0.84840 0.14605
 N469 N 0.82584 0.36703 0.16230
 N470 N 0.83499 0.36560 0.17341
 C471 C 0.83264 0.37681 0.18288
 C472 C 0.82136 0.38580 0.17744
 C473 C 0.81734 0.37918 0.16432
 H474 H 0.83850 0.37810 0.19311
 H475 H 0.80877 0.38280 0.15684
 Cu476 Cu 0.84876 0.34899 0.17483
 Cu477 Cu 0.82535 0.35280 0.14630
 Cu478 Cu 0.85259 0.32560 0.14624
 N479 N 0.86533 0.33519 0.17343
 N480 N 0.86681 0.32608 0.16230
 C481 C 0.87893 0.31754 0.16439
 C482 C 0.88546 0.32151 0.17757
 C483 C 0.87647 0.33278 0.18297
 H484 H 0.88258 0.30897 0.15693
 H485 H 0.87770 0.33861 0.19323
 N486 N 0.83713 0.32705 0.13101
 N487 N 0.82672 0.33740 0.13107
 C488 C 0.81763 0.33524 0.11957
 C489 C 0.82251 0.32291 0.11182
 C490 C 0.83493 0.31804 0.11945
 H491 H 0.80800 0.34201 0.11720
 H492 H 0.84173 0.30845 0.11699
 H493 H 0.83452 0.33464 0.15703
 H494 H 0.84780 0.34799 0.14829
 N495 N 0.82769 0.86911 0.66078
 N496 N 0.83616 0.86750 0.67238
 C497 C 0.83264 0.87800 0.68226
 C498 C 0.82145 0.88684 0.67649
 C499 C 0.81861 0.88084 0.66279
 H500 H 0.83760 0.87885 0.69299
 H501 H 0.81050 0.88460 0.65487
 Cu502 Cu 0.85080 0.85170 0.67348
 Cu503 Cu 0.82925 0.85575 0.64403
 Cu504 Cu 0.84802 0.82258 0.65111
 N505 N 0.86579 0.83619 0.67348
 N506 N 0.86462 0.82471 0.66469
 C507 C 0.87593 0.81526 0.66729
 C508 C 0.88474 0.82117 0.67831
 C509 C 0.87790 0.83449 0.68196
 H510 H 0.87735 0.80474 0.66176
 H511 H 0.88134 0.84230 0.69026
 N512 N 0.83467 0.82539 0.63423
 N513 N 0.82789 0.83809 0.63135
 C514 C 0.81962 0.83646 0.61918
 C515 C 0.82139 0.82208 0.61403
 C516 C 0.83101 0.81539 0.62391
 H517 H 0.81265 0.84509 0.61461
 H518 H 0.83491 0.80402 0.62378
 H519 H 0.83262 0.83860 0.65841
 H520 H 0.84934 0.84457 0.64785
 N521 N 0.67384 0.63308 0.66223
 N522 N 0.66478 0.63464 0.67339
 C523 C 0.66712 0.62349 0.68295
 C524 C 0.67832 0.61441 0.67755
 C525 C 0.68230 0.62090 0.66434
 H526 H 0.66131 0.62231 0.69323
 H527 H 0.69083 0.61718 0.65686
 Cu528 Cu 0.65111 0.65135 0.67480
 Cu529 Cu 0.67436 0.64730 0.64614
 Cu530 Cu 0.64734 0.67479 0.64629
 N531 N 0.63456 0.66522 0.67347
 N532 N 0.63315 0.67440 0.66237
 C533 C 0.62112 0.68305 0.66451
 C534 C 0.61456 0.67909 0.67768
 C535 C 0.62344 0.66767 0.68303
 H536 H 0.61755 0.69169 0.65706
 H537 H 0.62215 0.66179 0.69326
 N538 N 0.66271 0.67328 0.63099
 N539 N 0.67297 0.66279 0.63090
 C540 C 0.68210 0.66505 0.61943
 C541 C 0.67741 0.67761 0.61191
 C542 C 0.66504 0.68249 0.61960
 H543 H 0.69168 0.65823 0.61699
 H544 H 0.65846 0.69229 0.61736
 H545 H 0.66553 0.66546 0.65689
 H546 H 0.65207 0.65229 0.64824
 N547 N 0.67434 0.13291 0.16248
 N548 N 0.66514 0.13430 0.17355
 C549 C 0.66750 0.12312 0.18306
 C550 C 0.67884 0.11420 0.17770
 C551 C 0.68290 0.12082 0.16459
 H552 H 0.66156 0.12179 0.19326
 H553 H 0.69154 0.11725 0.15716
 Cu554 Cu 0.65123 0.15076 0.17491
 Cu555 Cu 0.67483 0.14713 0.14646
 Cu556 Cu 0.64768 0.17441 0.14646
 N557 N 0.63469 0.16459 0.17346
 N558 N 0.63338 0.17386 0.16242
 C559 C 0.62125 0.18238 0.16446
 C560 C 0.61453 0.17823 0.17750
 C561 C 0.62342 0.16686 0.18288
 H562 H 0.61773 0.19106 0.15704
 H563 H 0.62204 0.16088 0.19304
 N564 N 0.66315 0.17302 0.13127
 N565 N 0.67345 0.16258 0.13124
 C566 C 0.68248 0.16470 0.11968
 C567 C 0.67767 0.17712 0.11202
 C568 C 0.66535 0.18208 0.11974
 H569 H 0.69200 0.15782 0.11721
 H570 H 0.65864 0.19175 0.11735
 H571 H 0.66571 0.16515 0.15730
 H572 H 0.65242 0.15195 0.14839
 N573 N 0.17351 0.63292 0.16185
 N574 N 0.16455 0.63454 0.17309
 C575 C 0.16702 0.62345 0.18270
 C576 C 0.17822 0.61439 0.17725
 C577 C 0.18201 0.62078 0.16394
 H578 H 0.16142 0.62239 0.19311
 H579 H 0.19054 0.61712 0.15644
 Cu580 Cu 0.15115 0.65144 0.17464
 Cu581 Cu 0.17414 0.64715 0.14580
 Cu582 Cu 0.14715 0.67457 0.14583
 N583 N 0.13469 0.66540 0.17327
 N584 N 0.13309 0.67430 0.16198
 C585 C 0.12102 0.68290 0.16401
 C586 C 0.11464 0.67921 0.17734
 C587 C 0.12367 0.66802 0.18289
 H588 H 0.11729 0.69131 0.15639
 H589 H 0.12253 0.66239 0.19328
 N590 N 0.16244 0.67299 0.13052
 N591 N 0.17282 0.66261 0.13057
 C592 C 0.18196 0.66485 0.11912
 C593 C 0.17711 0.67725 0.11142
 C594 C 0.16468 0.68209 0.11903
 H595 H 0.19163 0.65812 0.11679
 H596 H 0.15798 0.69177 0.11665
 H597 H 0.16533 0.66542 0.15649
 H598 H 0.15184 0.65211 0.14806
 N599 N 0.17415 0.13279 0.66251
 N600 N 0.16501 0.13421 0.67363
 C601 C 0.16737 0.12301 0.68313
 C602 C 0.17865 0.11404 0.67773
 C603 C 0.18267 0.12064 0.66458
 H604 H 0.16150 0.12174 0.69337
 H605 H 0.19127 0.11704 0.65713
 Cu606 Cu 0.15127 0.15081 0.67505
 Cu607 Cu 0.17461 0.14707 0.64644
 Cu608 Cu 0.14739 0.17433 0.64659
 N609 N 0.13457 0.16444 0.67369
 N610 N 0.13315 0.17368 0.66264
 C611 C 0.12098 0.18214 0.66474
 C612 C 0.11435 0.17799 0.67783
 C613 C 0.12333 0.16666 0.68317
 H614 H 0.11738 0.19079 0.65733
 H615 H 0.12203 0.16067 0.69334
 N616 N 0.16283 0.17301 0.63131
 N617 N 0.17315 0.16258 0.63121
 C618 C 0.18212 0.16476 0.61961
 C619 C 0.17725 0.17719 0.61197
 C620 C 0.16496 0.18210 0.61978
 H621 H 0.19164 0.15790 0.61708
 H622 H 0.15819 0.19174 0.61742
 H623 H 0.16551 0.16512 0.65721
 H624 H 0.15216 0.15187 0.64849
 N625 N 0.32610 0.63305 0.33725
 N626 N 0.33527 0.63450 0.32616
 C627 C 0.33296 0.62334 0.31664
 C628 C 0.32168 0.61437 0.32203
 C629 C 0.31763 0.62093 0.33516
 H630 H 0.33885 0.62207 0.30641
 H631 H 0.30905 0.61730 0.34263
 Cu632 Cu 0.34891 0.65112 0.32475
 Cu633 Cu 0.32550 0.64720 0.35332
 Cu634 Cu 0.35292 0.67413 0.35356
 N635 N 0.36570 0.66453 0.32637
 N636 N 0.36720 0.67353 0.33757
 C637 C 0.37941 0.68192 0.33560
 C638 C 0.38597 0.67797 0.32243
 C639 C 0.37690 0.66686 0.31689
 H640 H 0.38308 0.69040 0.34314
 H641 H 0.37810 0.66113 0.30657
 N642 N 0.33741 0.67279 0.36872
 N643 N 0.32693 0.66255 0.36860
 C644 C 0.31790 0.66469 0.38016
 C645 C 0.32291 0.67689 0.38800
 C646 C 0.33532 0.68172 0.38036
 H647 H 0.30825 0.65797 0.38252
 H648 H 0.34224 0.69118 0.38290
 H649 H 0.33472 0.66529 0.34276
 H650 H 0.34790 0.65175 0.35136
 N651 N 0.32593 0.13306 0.83786
 N652 N 0.33503 0.13453 0.82671
 C653 C 0.33269 0.12333 0.81722
 C654 C 0.32147 0.11432 0.82268
 C655 C 0.31748 0.12090 0.83584
 H656 H 0.33853 0.12206 0.80697
 H657 H 0.30895 0.11726 0.84335
 Cu658 Cu 0.34871 0.15117 0.82530
 Cu659 Cu 0.32539 0.14729 0.85387
 Cu660 Cu 0.35251 0.17457 0.85383
 N661 N 0.36539 0.16479 0.82674
 N662 N 0.36680 0.17396 0.83782
 C663 C 0.37900 0.18238 0.83579
 C664 C 0.38565 0.17828 0.82269
 C665 C 0.37665 0.16703 0.81728
 H666 H 0.38262 0.19095 0.84325
 H667 H 0.37795 0.16111 0.80709
 N668 N 0.33701 0.17318 0.86904
 N669 N 0.32672 0.16275 0.86907
 C670 C 0.31768 0.16486 0.88063
 C671 C 0.32247 0.17725 0.88830
 C672 C 0.33478 0.18221 0.88058
 H673 H 0.30817 0.15798 0.88311
 H674 H 0.34150 0.19185 0.88300
 H675 H 0.33441 0.16546 0.84315
 H676 H 0.34780 0.15217 0.85184
 N677 N 0.82651 0.63239 0.83793
 N678 N 0.83605 0.63327 0.82709
 C679 C 0.83363 0.62196 0.81775
 C680 C 0.82188 0.61349 0.82297
 C681 C 0.81767 0.62052 0.83583
 H682 H 0.83977 0.62023 0.80774
 H683 H 0.80870 0.61742 0.84306
 Cu684 Cu 0.85052 0.64927 0.82576
 Cu685 Cu 0.82587 0.64698 0.85363
 Cu686 Cu 0.85337 0.67394 0.85361
 N687 N 0.86657 0.66371 0.82684
 N688 N 0.86776 0.67314 0.83774
 C689 C 0.87968 0.68188 0.83549
 C690 C 0.88640 0.67773 0.82245
 C691 C 0.87771 0.66613 0.81729
 H692 H 0.88300 0.69077 0.84271
 H693 H 0.87916 0.66008 0.80719
 N694 N 0.83770 0.67290 0.86863
 N695 N 0.82716 0.66272 0.86855
 C696 C 0.81784 0.66530 0.87980
 C697 C 0.82271 0.67774 0.88738
 C698 C 0.83538 0.68221 0.87994
 H699 H 0.80811 0.65870 0.88213
 H700 H 0.84229 0.69169 0.88240
 H701 H 0.83570 0.66458 0.84252
 H702 H 0.84844 0.65152 0.85236
 N703 N 0.82591 0.13289 0.33727
 N704 N 0.83504 0.13432 0.32616
 C705 C 0.83272 0.12313 0.31667
 C706 C 0.82146 0.11416 0.32209
 C707 C 0.81742 0.12076 0.33522
 H708 H 0.83863 0.12182 0.30646
 H709 H 0.80887 0.11713 0.34272
 Cu710 Cu 0.84874 0.15089 0.32478
 Cu711 Cu 0.82554 0.14699 0.35342
 Cu712 Cu 0.85271 0.17424 0.35330
 N713 N 0.86524 0.16470 0.32596
 N714 N 0.86672 0.17386 0.33704
 C715 C 0.87886 0.18231 0.33490
 C716 C 0.88542 0.17821 0.32176
 C717 C 0.87640 0.16697 0.31641
 H718 H 0.88256 0.19084 0.34237
 H719 H 0.87768 0.16100 0.30623
 N720 N 0.83745 0.17267 0.36875
 N721 N 0.82709 0.16230 0.36876
 C722 C 0.81816 0.16437 0.38040
 C723 C 0.82308 0.17666 0.38817
 C724 C 0.83538 0.18160 0.38041
 H725 H 0.80858 0.15758 0.38284
 H726 H 0.84215 0.19119 0.38284
 H727 H 0.83454 0.16521 0.34269
 H728 H 0.84793 0.15187 0.35131
 N729 N 0.67401 0.36669 0.33731
 N730 N 0.66489 0.36535 0.32618
 C731 C 0.66727 0.37659 0.31673
 C732 C 0.67854 0.38551 0.32221
 C733 C 0.68252 0.37882 0.33533
 H734 H 0.66141 0.37796 0.30650
 H735 H 0.69107 0.38238 0.34285
 Cu736 Cu 0.65108 0.34883 0.32477
 Cu737 Cu 0.67441 0.35243 0.35333
 Cu738 Cu 0.64742 0.32503 0.35312
 N739 N 0.63452 0.33507 0.32608
 N740 N 0.63323 0.32568 0.33702
 C741 C 0.62110 0.31722 0.33491
 C742 C 0.61436 0.32153 0.32192
 C743 C 0.62324 0.33294 0.31665
 H744 H 0.61758 0.30848 0.34225
 H745 H 0.62182 0.33906 0.30657
 N746 N 0.66281 0.32647 0.36844
 N747 N 0.67299 0.33700 0.36857
 C748 C 0.68182 0.33506 0.38032
 C749 C 0.67701 0.32268 0.38802
 C750 C 0.66490 0.31753 0.38010
 H751 H 0.69122 0.34203 0.38290
 H752 H 0.65820 0.30788 0.38249
 H753 H 0.66538 0.33426 0.34246
 H754 H 0.65197 0.34736 0.35132
 N755 N 0.67332 0.86727 0.83729
 N756 N 0.66422 0.86576 0.82616
 C757 C 0.66656 0.87689 0.81660
 C758 C 0.67780 0.88589 0.82197
 C759 C 0.68180 0.87939 0.83517
 H760 H 0.66075 0.87807 0.80631
 H761 H 0.69038 0.88305 0.84261
 Cu762 Cu 0.65055 0.84913 0.82476
 Cu763 Cu 0.67390 0.85310 0.85339
 Cu764 Cu 0.64710 0.82556 0.85327
 N765 N 0.63410 0.83522 0.82619
 N766 N 0.63287 0.82595 0.83723
 C767 C 0.62082 0.81735 0.83520
 C768 C 0.61407 0.82143 0.82214
 C769 C 0.62285 0.83287 0.81677
 H770 H 0.61736 0.80868 0.84263
 H771 H 0.62140 0.83887 0.80661
 N772 N 0.66247 0.82711 0.86856
 N773 N 0.67261 0.83768 0.86867
 C774 C 0.68158 0.83566 0.88031
 C775 C 0.67690 0.82318 0.88794
 C776 C 0.66473 0.81807 0.88010
 H777 H 0.69099 0.84264 0.88284
 H778 H 0.65818 0.80829 0.88241
 H779 H 0.66509 0.83498 0.84256
 H780 H 0.65156 0.84808 0.85131
 N781 N 0.17382 0.36683 0.83766
 N782 N 0.16467 0.36544 0.82655
 C783 C 0.16712 0.37658 0.81700
 C784 C 0.17846 0.38547 0.82239
 C785 C 0.18240 0.37889 0.83557
 H786 H 0.16129 0.37789 0.80675
 H787 H 0.19099 0.38245 0.84303
 Cu788 Cu 0.15079 0.34894 0.82523
 Cu789 Cu 0.17433 0.35262 0.85372
 Cu790 Cu 0.14717 0.32541 0.85379
 N791 N 0.13430 0.33505 0.82666
 N792 N 0.13294 0.32589 0.83777
 C793 C 0.12094 0.31723 0.83568
 C794 C 0.11436 0.32114 0.82250
 C795 C 0.12319 0.33254 0.81711
 H796 H 0.11743 0.30860 0.84314
 H797 H 0.12188 0.33837 0.80685
 N798 N 0.16260 0.32684 0.86902
 N799 N 0.17294 0.33722 0.86900
 C800 C 0.18196 0.33508 0.88057
 C801 C 0.17709 0.32274 0.88830
 C802 C 0.16478 0.31782 0.88059
 H803 H 0.19155 0.34187 0.88298
 H804 H 0.15803 0.30820 0.88302
 H805 H 0.16521 0.33456 0.84296
 H806 H 0.15193 0.34784 0.85182
 N807 N 0.17356 0.86680 0.33754
 N808 N 0.16453 0.86527 0.32635
 C809 C 0.16692 0.87643 0.31680
 C810 C 0.17809 0.88547 0.32228
 C811 C 0.18201 0.87896 0.33548
 H812 H 0.16117 0.87765 0.30648
 H813 H 0.19045 0.88267 0.34305
 Cu814 Cu 0.15074 0.84871 0.32503
 Cu815 Cu 0.17397 0.85281 0.35378
 Cu816 Cu 0.14677 0.82570 0.35394
 N817 N 0.13435 0.83472 0.32644
 N818 N 0.13281 0.82585 0.33776
 C819 C 0.12082 0.81718 0.33574
 C820 C 0.11444 0.82077 0.32240
 C821 C 0.12336 0.83199 0.31682
 H822 H 0.11715 0.80878 0.34340
 H823 H 0.12218 0.83755 0.30640
 N824 N 0.16194 0.82733 0.36932
 N825 N 0.17239 0.83760 0.36923
 C826 C 0.18147 0.83535 0.38072
 C827 C 0.17654 0.82303 0.38846
 C828 C 0.16409 0.81828 0.38086
 H829 H 0.19121 0.84197 0.38301
 H830 H 0.15733 0.80867 0.38326
 H831 H 0.16500 0.83465 0.34310
 H832 H 0.15167 0.84813 0.35162
 C833 C 0.23948 1.03131 0.25888
 C834 C 0.24885 1.03892 0.24927
 C835 C 0.25840 1.03129 0.23985
 C836 C 0.25862 1.01557 0.23989
 C837 C 0.24916 1.00770 0.24962
 C838 C 0.23956 1.01560 0.25917
 C839 C 0.23033 1.00757 0.26876
 C840 C 0.23051 0.99208 0.26895
 C841 C 0.23990 0.98404 0.25954
 C842 C 0.24934 0.99192 0.24980
 C843 C 0.26803 1.00753 0.23048
 C844 C 0.26818 0.99205 0.23065
 C845 C 0.25895 0.98403 0.24025
 C846 C 0.25902 0.96832 0.24052
 C847 C 0.24968 0.96068 0.25015
 C848 C 0.24014 0.96832 0.25958
 H849 H 0.22291 1.01322 0.27624
 H850 H 0.22322 0.98645 0.27657
 H851 H 0.27534 1.01317 0.22287
 H852 H 0.27562 0.98640 0.22318
 H853 H 0.24874 1.05100 0.24917
 H854 H 0.24980 0.94860 0.25028
 C855 C 0.24042 0.46829 0.75933
 C856 C 0.24971 0.46064 0.74966
 C857 C 0.25909 0.46824 0.74005
 C858 C 0.25924 0.48396 0.73997
 C859 C 0.24988 0.49187 0.74977
 C860 C 0.24043 0.48401 0.75951
 C861 C 0.23129 0.49206 0.76916
 C862 C 0.23138 0.50756 0.76923
 C863 C 0.24062 0.51557 0.75965
 C864 C 0.24998 0.50767 0.74984
 C865 C 0.26847 0.49198 0.73039
 C866 C 0.26857 0.50747 0.73046
 C867 C 0.25944 0.51553 0.74011
 C868 C 0.25949 0.53124 0.74033
 C869 C 0.25020 0.53889 0.74999
 C870 C 0.24079 0.53130 0.75958
 H871 H 0.22399 0.48642 0.77677
 H872 H 0.22415 0.51322 0.77689
 H873 H 0.27571 0.48632 0.72273
 H874 H 0.27588 0.51310 0.72285
 H875 H 0.24965 0.44856 0.74963
 H876 H 0.25030 0.55097 0.75005
 C877 C 0.75968 -0.03165 0.25953
 C878 C 0.75019 -0.03928 0.25008
 C879 C 0.74051 -0.03166 0.24078
 C880 C 0.74026 -0.01594 0.24078
 C881 C 0.74990 -0.00807 0.25030
 C882 C 0.75966 -0.01595 0.25973
 C883 C 0.76910 -0.00794 0.26910
 C884 C 0.76901 0.00754 0.26917
 C885 C 0.75947 0.01558 0.25988
 C886 C 0.74980 0.00771 0.25038
 C887 C 0.73065 -0.00791 0.23155
 C888 C 0.73055 0.00758 0.23163
 C889 C 0.74005 0.01559 0.24094
 C890 C 0.74012 0.03130 0.24108
 C891 C 0.74969 0.03892 0.25046
 C892 C 0.75932 0.03128 0.25981
 H893 H 0.77667 -0.01359 0.27645
 H894 H 0.77651 0.01318 0.27658
 H895 H 0.72314 -0.01355 0.22416
 H896 H 0.72294 0.01324 0.22431
 H897 H 0.75032 -0.05136 0.25000
 H898 H 0.74967 0.05100 0.25046
 C899 C 0.75900 0.46855 0.76024
 C900 C 0.74997 0.46086 0.75039
 C901 C 0.74046 0.46840 0.74083
 C902 C 0.73993 0.48412 0.74100
 C903 C 0.74910 0.49207 0.75092
 C904 C 0.75865 0.48425 0.76063
 C905 C 0.76758 0.49233 0.77043
 C906 C 0.76732 0.50782 0.77054
 C907 C 0.75808 0.51580 0.76092
 C908 C 0.74877 0.50786 0.75111
 C909 C 0.73052 0.49210 0.73153
 C910 C 0.73016 0.50759 0.73175
 C911 C 0.73923 0.51568 0.74142
 C912 C 0.73908 0.53140 0.74164
 C913 C 0.74841 0.53909 0.75124
 C914 C 0.75791 0.53152 0.76078
 H915 H 0.77488 0.48673 0.77808
 H916 H 0.77445 0.51350 0.77827
 H917 H 0.72336 0.48641 0.72384
 H918 H 0.72274 0.51319 0.72420
 H919 H 0.75033 0.44879 0.75019
 H920 H 0.74835 0.55116 0.75121
 C921 C 0.25956 0.46868 0.25967
 C922 C 0.25030 0.46107 0.24999
 C923 C 0.24110 0.46870 0.24022
 C924 C 0.24109 0.48441 0.23999
 C925 C 0.25036 0.49228 0.24987
 C926 C 0.25962 0.48438 0.25979
 C927 C 0.26866 0.49239 0.26953
 C928 C 0.26869 0.50788 0.26948
 C929 C 0.25967 0.51591 0.25969
 C930 C 0.25037 0.50806 0.24984
 C931 C 0.23209 0.49246 0.23018
 C932 C 0.23210 0.50795 0.23016
 C933 C 0.24110 0.51596 0.23994
 C934 C 0.24113 0.53168 0.24011
 C935 C 0.25040 0.53926 0.24979
 C936 C 0.25967 0.53161 0.25947
 H937 H 0.27577 0.48674 0.27732
 H938 H 0.27585 0.51351 0.27720
 H939 H 0.22498 0.48682 0.22241
 H940 H 0.22500 0.51362 0.22237
 H941 H 0.25024 0.44899 0.25005
 H942 H 0.25041 0.55134 0.24980
 C943 C 0.73969 1.03140 0.75915
 C944 C 0.74912 1.03907 0.74964
 C945 C 0.75826 1.03149 0.73982
 C946 C 0.75804 1.01579 0.73934
 C947 C 0.74854 1.00787 0.74897
 C948 C 0.73929 1.01570 0.75892
 C949 C 0.72998 1.00764 0.76839
 C950 C 0.72977 0.99215 0.76812
 C951 C 0.73890 0.98418 0.75841
 C952 C 0.74836 0.99210 0.74873
 C953 C 0.76708 1.00782 0.72954
 C954 C 0.76690 0.99234 0.72930
 C955 C 0.75770 0.98427 0.73888
 C956 C 0.75757 0.96857 0.73889
 C957 C 0.74818 0.96089 0.74842
 C958 C 0.73889 0.96848 0.75812
 H959 H 0.72280 1.01324 0.77613
 H960 H 0.72241 0.98646 0.77564
 H961 H 0.77439 1.01350 0.72197
 H962 H 0.77405 0.98673 0.72153
 H963 H 0.74939 1.05114 0.74994
 H964 H 0.74813 0.94881 0.74832
 C965 C 0.75944 0.46849 0.24065
 C966 C 0.74999 0.46089 0.25020
 C967 C 0.74052 0.46855 0.25967
 C968 C 0.74041 0.48426 0.25973
 C969 C 0.74995 0.49212 0.25007
 C970 C 0.75951 0.48420 0.24048
 C971 C 0.76886 0.49221 0.23099
 C972 C 0.76887 0.50770 0.23095
 C973 C 0.75951 0.51576 0.24039
 C974 C 0.74993 0.50791 0.25001
 C975 C 0.73104 0.49232 0.26915
 C976 C 0.73100 0.50781 0.26908
 C977 C 0.74034 0.51582 0.25959
 C978 C 0.74040 0.53153 0.25941
 C979 C 0.74991 0.53913 0.24993
 C980 C 0.75945 0.53148 0.24051
 H981 H 0.77627 0.48654 0.22350
 H982 H 0.77627 0.51333 0.22343
 H983 H 0.72364 0.48670 0.27668
 H984 H 0.72358 0.51348 0.27656
 H985 H 0.75000 0.44881 0.25025
 H986 H 0.74991 0.55121 0.24992
 C987 C 0.26005 -0.03161 0.76003
 C988 C 0.25069 -0.03932 0.75049
 C989 C 0.24111 -0.03176 0.74102
 C990 C 0.24085 -0.01603 0.74096
 C991 C 0.25036 -0.00809 0.75056
 C992 C 0.25999 -0.01591 0.76016
 C993 C 0.26929 -0.00783 0.76962
 C994 C 0.26917 0.00766 0.76962
 C995 C 0.25977 0.01564 0.76015
 C996 C 0.25025 0.00770 0.75055
 C997 C 0.23137 -0.00805 0.73156
 C998 C 0.23125 0.00745 0.73157
 C999 C 0.24062 0.01554 0.74095
 C1000 C 0.24065 0.03126 0.74102
 C1001 C 0.25011 0.03893 0.75047
 C1002 C 0.25961 0.03135 0.75999
 H1003 H 0.27676 -0.01343 0.77712
 H1004 H 0.27653 0.01334 0.77713
 H1005 H 0.22396 -0.01374 0.72410
 H1006 H 0.22373 0.01307 0.72413
 H1007 H 0.25088 -0.05140 0.75044
 H1008 H 0.25008 0.05101 0.75043
 C1009 C 0.25955 0.24041 0.96949
 C1010 C 0.24999 0.24997 0.96193
 C1011 C 0.24037 0.25952 0.96939
 C1012 C 0.24018 0.25958 0.98484
 C1013 C 0.24987 0.24995 0.99264
 C1014 C 0.25963 0.24033 0.98494
 C1015 C 0.26918 0.23092 0.99288
 C1016 C 0.26913 0.23093 1.00812
 C1017 C 0.25951 0.24033 1.01597
 C1018 C 0.24979 0.24993 1.00816
 C1019 C 0.23058 0.26900 0.99268
 C1020 C 0.23048 0.26896 1.00791
 C1021 C 0.23999 0.25952 1.01586
 C1022 C 0.24001 0.25939 1.03131
 C1023 C 0.24961 0.24988 1.03888
 C1024 C 0.25933 0.24041 1.03142
 H1025 H 0.27681 0.22346 0.98738
 H1026 H 0.27670 0.22347 1.01370
 H1027 H 0.22305 0.27649 0.98710
 H1028 H 0.22285 0.27642 1.01340
 H1029 H 0.25003 0.24996 0.95005
 H1030 H 0.24952 0.24987 1.05075
 C1031 C 0.24035 0.75943 0.53062
 C1032 C 0.24986 0.74982 0.53817
 C1033 C 0.25953 0.74033 0.53071
 C1034 C 0.25979 0.74031 0.51526
 C1035 C 0.25015 0.75000 0.50746
 C1036 C 0.24039 0.75961 0.51517
 C1037 C 0.23095 0.76913 0.50723
 C1038 C 0.23107 0.76919 0.49200
 C1039 C 0.24064 0.75973 0.48414
 C1040 C 0.25029 0.75007 0.49194
 C1041 C 0.26938 0.73088 0.50741
 C1042 C 0.26951 0.73095 0.49217
 C1043 C 0.26004 0.74044 0.48423
 C1044 C 0.26003 0.74057 0.46878
 C1045 C 0.25048 0.75014 0.46122
 C1046 C 0.24082 0.75964 0.46870
 H1047 H 0.22336 0.77662 0.51274
 H1048 H 0.22358 0.77674 0.48642
 H1049 H 0.27688 0.72335 0.51299
 H1050 H 0.27711 0.72347 0.48667
 H1051 H 0.24976 0.74977 0.55004
 H1052 H 0.25054 0.75016 0.44935
 C1053 C 0.26035 0.75981 -0.03090
 C1054 C 0.25086 0.75029 -0.03853
 C1055 C 0.24128 0.74064 -0.03113
 C1056 C 0.24116 0.74038 -0.01568
 C1057 C 0.25073 0.75004 -0.00782
 C1058 C 0.26039 0.75979 -0.01545
 C1059 C 0.26977 0.76928 -0.00745
 C1060 C 0.26963 0.76923 0.00778
 C1061 C 0.26010 0.75971 0.01557
 C1062 C 0.25058 0.75000 0.00770
 C1063 C 0.23172 0.73077 -0.00789
 C1064 C 0.23158 0.73072 0.00734
 C1065 C 0.24087 0.74029 0.01534
 C1066 C 0.24073 0.74046 0.03079
 C1067 C 0.25014 0.75005 0.03841
 C1068 C 0.25978 0.75963 0.03102
 H1069 H 0.27730 0.77686 -0.01291
 H1070 H 0.27706 0.77676 0.01341
 H1071 H 0.22434 0.72319 -0.01352
 H1072 H 0.22409 0.72310 0.01280
 H1073 H 0.25088 0.75042 -0.05040
 H1074 H 0.24996 0.75007 0.05028
 C1075 C 0.25933 0.25969 0.46870
 C1076 C 0.24972 0.25020 0.46116
 C1077 C 0.24014 0.24063 0.46865
 C1078 C 0.24005 0.24047 0.48411
 C1079 C 0.24974 0.25007 0.49188
 C1080 C 0.25943 0.25973 0.48415
 C1081 C 0.26895 0.26915 0.49208
 C1082 C 0.26894 0.26911 0.50731
 C1083 C 0.25942 0.25963 0.51519
 C1084 C 0.24974 0.25001 0.50741
 C1085 C 0.23056 0.23097 0.49199
 C1086 C 0.23057 0.23091 0.50722
 C1087 C 0.24006 0.24034 0.51514
 C1088 C 0.24015 0.24039 0.53060
 C1089 C 0.24971 0.24992 0.53813
 C1090 C 0.25929 0.25950 0.53065
 H1091 H 0.27649 0.27666 0.48655
 H1092 H 0.27648 0.27658 0.51287
 H1093 H 0.22304 0.22348 0.48642
 H1094 H 0.22303 0.22338 0.51274
 H1095 H 0.24973 0.25024 0.44929
 H1096 H 0.24969 0.24990 0.55000
 C1097 C 0.74026 0.75977 1.03099
 C1098 C 0.74980 0.75017 1.03853
 C1099 C 0.75931 0.74050 1.03107
 C1100 C 0.75937 0.74034 1.01560
 C1101 C 0.74975 0.75006 1.00781
 C1102 C 0.74014 0.75982 1.01553
 C1103 C 0.73072 0.76937 1.00760
 C1104 C 0.73070 0.76933 0.99236
 C1105 C 0.74013 0.75976 0.98449
 C1106 C 0.74975 0.75003 0.99228
 C1107 C 0.76877 0.73074 1.00772
 C1108 C 0.76878 0.73072 0.99248
 C1109 C 0.75938 0.74030 0.98455
 C1110 C 0.75934 0.74045 0.96908
 C1111 C 0.74978 0.75004 0.96156
 C1112 C 0.74022 0.75965 0.96904
 H1113 H 0.72326 0.77699 1.01311
 H1114 H 0.72323 0.77690 0.98679
 H1115 H 0.77622 0.72315 1.01330
 H1116 H 0.77622 0.72310 0.98695
 H1117 H 0.74983 0.75025 1.05041
 H1118 H 0.74980 0.75005 0.94969
 C1119 C 0.75961 0.24029 0.46887
 C1120 C 0.75008 0.24995 0.46138
 C1121 C 0.74058 0.25958 0.46891
 C1122 C 0.74051 0.25965 0.48437
 C1123 C 0.75014 0.24991 0.49210
 C1124 C 0.75972 0.24017 0.48433
 C1125 C 0.76915 0.23058 0.49222
 C1126 C 0.76921 0.23060 0.50746
 C1127 C 0.75984 0.24020 0.51538
 C1128 C 0.75019 0.24992 0.50764
 C1129 C 0.73109 0.26920 0.49229
 C1130 C 0.73112 0.26919 0.50752
 C1131 C 0.74059 0.25965 0.51541
 C1132 C 0.74073 0.25956 0.53087
 C1133 C 0.75033 0.24998 0.53836
 C1134 C 0.75984 0.24035 0.53084
 H1135 H 0.77659 0.22297 0.48667
 H1136 H 0.77669 0.22300 0.51299
 H1137 H 0.72359 0.27678 0.48676
 H1138 H 0.72366 0.27676 0.51308
 H1139 H 0.75006 0.24997 0.44950
 H1140 H 0.75038 0.25000 0.55023
 C1141 C 0.75954 0.25975 -0.03111
 C1142 C 0.74990 0.25031 -0.03865
 C1143 C 0.74027 0.24078 -0.03116
 C1144 C 0.74018 0.24063 -0.01570
 C1145 C 0.74991 0.25018 -0.00793
 C1146 C 0.75964 0.25979 -0.01566
 C1147 C 0.76920 0.26918 -0.00774
 C1148 C 0.76919 0.26914 0.00749
 C1149 C 0.75964 0.25971 0.01536
 C1150 C 0.74993 0.25012 0.00759
 C1151 C 0.73063 0.23119 -0.00782
 C1152 C 0.73067 0.23110 0.00741
 C1153 C 0.74024 0.24047 0.01532
 C1154 C 0.74039 0.24048 0.03077
 C1155 C 0.74997 0.25000 0.03830
 C1156 C 0.75952 0.25958 0.03081
 H1157 H 0.77679 0.27665 -0.01327
 H1158 H 0.77677 0.27658 0.01305
 H1159 H 0.72303 0.22377 -0.01338
 H1160 H 0.72312 0.22360 0.01294
 H1161 H 0.74990 0.25036 -0.05052
 H1162 H 0.74998 0.24995 0.05018
 C1163 C 0.75886 0.76156 0.53081
 C1164 C 0.74937 0.75204 0.53845
 C1165 C 0.74005 0.74216 0.53110
 C1166 C 0.74007 0.74172 0.51566
 C1167 C 0.74967 0.75133 0.50776
 C1168 C 0.75912 0.76131 0.51536
 C1169 C 0.76855 0.77072 0.50733
 C1170 C 0.76873 0.77032 0.49210
 C1171 C 0.75948 0.76049 0.48434
 C1172 C 0.74984 0.75092 0.49224
 C1173 C 0.73081 0.73191 0.50792
 C1174 C 0.73094 0.73155 0.49269
 C1175 C 0.74037 0.74097 0.48464
 C1176 C 0.74059 0.74072 0.46918
 C1177 C 0.75018 0.75016 0.46153
 C1178 C 0.75957 0.75999 0.46890
 H1179 H 0.77588 0.77849 0.51276
 H1180 H 0.77620 0.77781 0.48644
 H1181 H 0.72336 0.72442 0.51360
 H1182 H 0.72358 0.72379 0.48728
 H1183 H 0.74930 0.75227 0.55033
 H1184 H 0.75028 0.74988 0.44965
 C1185 C 0.96835 0.25964 0.24074
 C1186 C 0.96070 0.25007 0.25013
 C1187 C 0.96829 0.24045 0.25952
 C1188 C 0.98399 0.24037 0.25972
 C1189 C 0.99190 0.24996 0.25016
 C1190 C 0.98406 0.25963 0.24059
 C1191 C 0.99212 0.26897 0.23114
 C1192 C 1.00761 0.26876 0.23102
 C1193 C 1.01560 0.25928 0.24043
 C1194 C 1.00768 0.24984 0.25012
 C1195 C 0.99197 0.23098 0.26921
 C1196 C 1.00745 0.23096 0.26928
 C1197 C 1.01551 0.24025 0.25978
 C1198 C 1.03121 0.24021 0.25963
 C1199 C 1.03888 0.24948 0.24998
 C1200 C 1.03131 0.25895 0.24042
 H1201 H 0.98651 0.27649 0.22370
 H1202 H 1.01329 0.27612 0.22349
 H1203 H 0.98631 0.22358 0.27671
 H1204 H 1.01306 0.22356 0.27683
 H1205 H 0.94863 0.25009 0.25010
 H1206 H 1.05094 0.24934 0.24992
 C1207 C 0.53130 0.24034 0.75976
 C1208 C 0.53893 0.24968 0.75012
 C1209 C 0.53131 0.25910 0.74053
 C1210 C 0.51560 0.25926 0.74045
 C1211 C 0.50771 0.24984 0.75020
 C1212 C 0.51558 0.24035 0.75993
 C1213 C 0.50754 0.23115 0.76952
 C1214 C 0.49204 0.23120 0.76952
 C1215 C 0.48402 0.24046 0.75993
 C1216 C 0.49192 0.24991 0.75022
 C1217 C 0.50759 0.26856 0.73090
 C1218 C 0.49210 0.26864 0.73094
 C1219 C 0.48406 0.25942 0.74051
 C1220 C 0.46835 0.25941 0.74064
 C1221 C 0.46070 0.25000 0.75019
 C1222 C 0.46831 0.24054 0.75976
 H1223 H 0.51317 0.22383 0.77713
 H1224 H 0.48639 0.22390 0.77712
 H1225 H 0.51324 0.27586 0.72329
 H1226 H 0.48648 0.27601 0.72336
 H1227 H 0.55100 0.24961 0.75007
 H1228 H 0.44863 0.25002 0.75017
 C1229 C -0.03150 0.24096 0.74025
 C1230 C -0.03908 0.25026 0.74994
 C1231 C -0.03142 0.25965 0.75946
 C1232 C -0.01571 0.25982 0.75942
 C1233 C -0.00787 0.25043 0.74961
 C1234 C -0.01579 0.24099 0.73992
 C1235 C -0.00781 0.23185 0.73023
 C1236 C 0.00768 0.23182 0.73017
 C1237 C 0.01575 0.24093 0.73980
 C1238 C 0.00791 0.25040 0.74954
 C1239 C -0.00765 0.26907 0.76894
 C1240 C 0.00784 0.26905 0.76887
 C1241 C 0.01582 0.25978 0.75929
 C1242 C 0.03153 0.25957 0.75919
 C1243 C 0.03911 0.25014 0.74962
 C1244 C 0.03146 0.24083 0.74001
 H1245 H -0.01349 0.22461 0.72261
 H1246 H 0.01329 0.22456 0.72249
 H1247 H -0.01327 0.27638 0.77656
 H1248 H 0.01352 0.27635 0.77644
 H1249 H -0.05115 0.25014 0.75011
 H1250 H 0.05118 0.24999 0.74969
 C1251 C 0.46884 0.24064 0.24026
 C1252 C 0.46122 0.24995 0.24991
 C1253 C 0.46886 0.25933 0.25947
 C1254 C 0.48456 0.25948 0.25948
 C1255 C 0.49243 0.25003 0.24974
 C1256 C 0.48454 0.24055 0.24009
 C1257 C 0.49255 0.23126 0.23054
 C1258 C 0.50804 0.23126 0.23049
 C1259 C 0.51607 0.24057 0.23996
 C1260 C 0.50820 0.25008 0.24964
 C1261 C 0.49260 0.26878 0.26895
 C1262 C 0.50808 0.26889 0.26880
 C1263 C 0.51609 0.25964 0.25923
 C1264 C 0.53179 0.25967 0.25896
 C1265 C 0.53942 0.25021 0.24944
 C1266 C 0.53178 0.24067 0.24004
 H1267 H 0.48689 0.22388 0.22302
 H1268 H 0.51367 0.22391 0.22292
 H1269 H 0.48698 0.27609 0.27656
 H1270 H 0.51374 0.27628 0.27629
 H1271 H 0.44915 0.24992 0.24998
 H1272 H 0.55149 0.25027 0.24936
 C1273 C 1.03142 0.74086 0.75939
 C1274 C 1.03899 0.74993 0.74947
 C1275 C 1.03133 0.75908 0.73969
 C1276 C 1.01563 0.75930 0.73972
 C1277 C 1.00779 0.75008 0.74970
 C1278 C 1.01571 0.74082 0.75959
 C1279 C 1.00771 0.73178 0.76938
 C1280 C 0.99222 0.73171 0.76934
 C1281 C 0.98416 0.74077 0.75961
 C1282 C 0.99201 0.75013 0.74977
 C1283 C 1.00758 0.76849 0.73011
 C1284 C 0.99209 0.76860 0.73024
 C1285 C 0.98410 0.75949 0.73997
 C1286 C 0.96840 0.75944 0.74016
 C1287 C 0.96079 0.75005 0.74977
 C1288 C 0.96845 0.74073 0.75941
 H1289 H 1.01338 0.72465 0.77713
 H1290 H 0.98659 0.72449 0.77703
 H1291 H 1.01320 0.77569 0.72239
 H1292 H 0.98643 0.77586 0.72259
 H1293 H 1.05106 0.74987 0.74938
 H1294 H 0.94872 0.74996 0.74971
 C1295 C 0.53149 0.74029 0.25961
 C1296 C 0.53909 0.74976 0.25009
 C1297 C 0.53146 0.75923 0.24057
 C1298 C 0.51575 0.75926 0.24041
 C1299 C 0.50789 0.74976 0.25010
 C1300 C 0.51578 0.74024 0.25977
 C1301 C 0.50776 0.73097 0.26933
 C1302 C 0.49227 0.73102 0.26937
 C1303 C 0.48423 0.74030 0.25982
 C1304 C 0.49211 0.74978 0.25012
 C1305 C 0.50771 0.76852 0.23084
 C1306 C 0.49223 0.76850 0.23082
 C1307 C 0.48422 0.75926 0.24041
 C1308 C 0.46851 0.75922 0.24056
 C1309 C 0.46089 0.74984 0.25015
 C1310 C 0.46853 0.74039 0.25969
 H1311 H 0.51341 0.72361 0.27689
 H1312 H 0.48664 0.72372 0.27699
 H1313 H 0.51334 0.77585 0.22324
 H1314 H 0.48658 0.77580 0.22321
 H1315 H 0.55116 0.74978 0.25010
 H1316 H 0.44882 0.74986 0.25016
 C1317 C -0.03141 0.76015 0.25908
 C1318 C -0.03905 0.75066 0.24965
 C1319 C -0.03147 0.74103 0.24029
 C1320 C -0.01577 0.74085 0.24016
 C1321 C -0.00786 0.75041 0.24972
 C1322 C -0.01570 0.76012 0.25925
 C1323 C -0.00764 0.76946 0.26867
 C1324 C 0.00785 0.76922 0.26881
 C1325 C 0.01582 0.75966 0.25948
 C1326 C 0.00791 0.75022 0.24981
 C1327 C -0.00779 0.73137 0.23077
 C1328 C 0.00769 0.73125 0.23079
 C1329 C 0.01575 0.74057 0.24023
 C1330 C 0.03145 0.74053 0.24039
 C1331 C 0.03910 0.74978 0.25004
 C1332 C 0.03152 0.75926 0.25955
 H1333 H -0.01325 0.77703 0.27605
 H1334 H 0.01353 0.77661 0.27628
 H1335 H -0.01347 0.72395 0.22331
 H1336 H 0.01330 0.72374 0.22336
 H1337 H -0.05112 0.75072 0.24965
 H1338 H 0.05117 0.74960 0.25014
 C1339 C 0.46801 0.74082 0.74111
 C1340 C 0.46051 0.75042 0.75060
 C1341 C 0.46828 0.75975 0.76011
 C1342 C 0.48399 0.75957 0.76024
 C1343 C 0.49173 0.74995 0.75057
 C1344 C 0.48372 0.74054 0.74094
 C1345 C 0.49162 0.73114 0.73141
 C1346 C 0.50711 0.73097 0.73133
 C1347 C 0.51527 0.74020 0.74077
 C1348 C 0.50751 0.74977 0.75050
 C1349 C 0.49215 0.76874 0.76975
 C1350 C 0.50763 0.76852 0.76972
 C1351 C 0.51552 0.75917 0.76013
 C1352 C 0.53122 0.75897 0.75991
 C1353 C 0.53872 0.74951 0.75031
 C1354 C 0.53099 0.74017 0.74078
 H1355 H 0.48587 0.72384 0.72389
 H1356 H 0.51266 0.72355 0.72377
 H1357 H 0.48661 0.77617 0.77732
 H1358 H 0.51337 0.77576 0.77729
 H1359 H 0.44844 0.75063 0.75058
 H1360 H 0.55080 0.74943 0.75023
 C1361 C 0.41660 0.29363 0.31347
 C1362 C 0.42242 0.29967 0.30059
 C1363 C 0.41673 0.31306 0.29513
 C1364 C 0.40503 0.32022 0.30233
 C1365 C 0.39880 0.31404 0.31510
 C1366 C 0.40490 0.30076 0.32070
 C1367 C 0.43353 0.29164 0.29247
 C1368 C 0.44239 0.28464 0.28537
 C1369 C 0.45221 0.27615 0.27672
 C1370 C 0.46008 0.26863 0.26903
 H1371 H 0.42090 0.28325 0.31778
 H1372 H 0.42117 0.31783 0.28516
 H1373 H 0.40079 0.33049 0.29776
 H1374 H 0.40043 0.29560 0.33044
 C1375 C 0.41830 0.79667 0.81475
 C1376 C 0.42236 0.80122 0.80069
 C1377 C 0.41475 0.81292 0.79396
 C1378 C 0.40283 0.81978 0.80107
 C1379 C 0.39818 0.81493 0.81504
 C1380 C 0.40633 0.80345 0.82189
 C1381 C 0.43350 0.79312 0.79268
 C1382 C 0.44230 0.78597 0.78566
 C1383 C 0.45195 0.77718 0.77709
 C1384 C 0.45966 0.76939 0.76950
 H1385 H 0.42416 0.78763 0.82008
 H1386 H 0.41778 0.81652 0.78305
 H1387 H 0.39709 0.82856 0.79528
 H1388 H 0.40345 0.79946 0.83269
 C1389 C -0.08368 0.29387 0.81382
 C1390 C -0.07801 0.29970 0.80077
 C1391 C -0.08384 0.31295 0.79514
 C1392 C -0.09548 0.32020 0.80235
 C1393 C -0.10153 0.31424 0.81530
 C1394 C -0.09532 0.30109 0.82106
 C1395 C -0.06690 0.29163 0.79268
 C1396 C -0.05801 0.28467 0.78557
 C1397 C -0.04814 0.27627 0.77686
 C1398 C -0.04021 0.26886 0.76912
 H1399 H -0.07929 0.28357 0.81826
 H1400 H -0.07955 0.31755 0.78502
 H1401 H -0.09980 0.33036 0.79763
 H1402 H -0.09963 0.29612 0.83096
 C1403 C -0.08392 0.79429 0.31298
 C1404 C -0.07843 0.80023 0.29991
 C1405 C -0.08433 0.81352 0.29445
 C1406 C -0.09585 0.82072 0.30190
 C1407 C -0.10172 0.81467 0.31490
 C1408 C -0.09544 0.80146 0.32045
 C1409 C -0.06728 0.79230 0.29172
 C1410 C -0.05830 0.78542 0.28464
 C1411 C -0.04827 0.77705 0.27608
 C1412 C -0.04024 0.76957 0.26851
 H1413 H -0.07948 0.78395 0.31727
 H1414 H -0.08019 0.81821 0.28432
 H1415 H -0.10020 0.83094 0.29734
 H1416 H -0.09961 0.79643 0.33038
 C1417 C 0.58334 0.70568 0.31373
 C1418 C 0.57762 0.69952 0.30087
 C1419 C 0.58346 0.68616 0.29553
 C1420 C 0.59529 0.67922 0.30276
 C1421 C 0.60152 0.68560 0.31542
 C1422 C 0.59518 0.69877 0.32098
 C1423 C 0.56659 0.70751 0.29257
 C1424 C 0.55783 0.71457 0.28538
 C1425 C 0.54812 0.72320 0.27669
 C1426 C 0.54029 0.73084 0.26905
 H1427 H 0.57891 0.71603 0.31796
 H1428 H 0.57910 0.68127 0.28559
 H1429 H 0.59967 0.66900 0.29825
 H1430 H 0.59957 0.70403 0.33069
 C1431 C 0.58345 0.20559 0.81379
 C1432 C 0.57780 0.19965 0.80079
 C1433 C 0.58373 0.18643 0.79524
 C1434 C 0.59553 0.17937 0.80242
 C1435 C 0.60162 0.18548 0.81527
 C1436 C 0.59525 0.19856 0.82100
 C1437 C 0.56666 0.20768 0.79264
 C1438 C 0.55780 0.21473 0.78554
 C1439 C 0.54798 0.22332 0.77690
 C1440 C 0.54010 0.23092 0.76926
 H1441 H 0.57897 0.21584 0.81818
 H1442 H 0.57945 0.18172 0.78518
 H1443 H 0.59996 0.16925 0.79774
 H1444 H 0.59955 0.20362 0.83084
 C1445 C 1.08406 0.68754 0.79503
 C1446 C 1.07838 0.70091 0.80054
 C1447 C 1.08408 0.70674 0.81355
 C1448 C 1.09556 0.69939 0.82092
 C1449 C 1.10161 0.68610 0.81532
 C1450 C 1.09555 0.68016 0.80237
 C1451 C 1.06725 0.70900 0.79246
 C1452 C 1.05830 0.71598 0.78541
 C1453 C 1.04831 0.72437 0.77679
 C1454 C 1.04029 0.73174 0.76908
 H1455 H 1.07974 0.68292 0.78495
 H1456 H 1.07981 0.71711 0.81790
 H1457 H 1.09987 0.70435 0.83081
 H1458 H 1.09973 0.66989 0.79779
 C1459 C 1.08319 0.20567 0.31376
 C1460 C 1.07726 0.19956 0.30097
 C1461 C 1.08296 0.18619 0.29551
 C1462 C 1.09486 0.17917 0.30257
 C1463 C 1.10122 0.18547 0.31520
 C1464 C 1.09506 0.19868 0.32084
 C1465 C 1.06618 0.20762 0.29283
 C1466 C 1.05741 0.21467 0.28567
 C1467 C 1.04772 0.22325 0.27693
 C1468 C 1.03994 0.23083 0.26919
 H1469 H 1.07891 0.21606 0.31806
 H1470 H 1.07845 0.18137 0.28560
 H1471 H 1.09914 0.16893 0.29800
 H1472 H 1.09966 0.20391 0.33047
 C1473 C 0.58297 0.31326 0.70463
 C1474 C 0.57712 0.30002 0.69906
 C1475 C 0.58280 0.29414 0.68604
 C1476 C 0.59459 0.30120 0.67887
 C1477 C 0.60093 0.31425 0.68466
 C1478 C 0.59476 0.32034 0.69750
 C1479 C 0.56614 0.29187 0.70727
 C1480 C 0.55745 0.28474 0.71447
 C1481 C 0.54784 0.27608 0.72324
 C1482 C 0.54009 0.26846 0.73097
 H1483 H 0.57864 0.31793 0.71469
 H1484 H 0.57836 0.28389 0.68161
 H1485 H 0.59893 0.29614 0.66904
 H1486 H 0.59915 0.33045 0.70220
 C1487 C 0.58333 0.81371 0.20524
 C1488 C 0.57745 0.80045 0.19973
 C1489 C 0.58301 0.79455 0.18667
 C1490 C 0.59466 0.80164 0.17935
 C1491 C 0.60100 0.81474 0.18502
 C1492 C 0.59499 0.82083 0.19793
 C1493 C 0.56646 0.79237 0.20796
 C1494 C 0.55771 0.78524 0.21507
 C1495 C 0.54802 0.77651 0.22366
 C1496 C 0.54022 0.76878 0.23122
 H1497 H 0.57911 0.81838 0.21534
 H1498 H 0.57856 0.78428 0.18232
 H1499 H 0.59889 0.79660 0.16945
 H1500 H 0.59936 0.83099 0.20254
 C1501 C 1.08338 0.31260 0.20467
 C1502 C 1.07795 0.29910 0.19929
 C1503 C 1.08397 0.29307 0.18650
 C1504 C 1.09556 0.30036 0.17925
 C1505 C 1.10135 0.31381 0.18471
 C1506 C 1.09496 0.31994 0.19743
 C1507 C 1.06685 0.29101 0.20737
 C1508 C 1.05797 0.28402 0.21445
 C1509 C 1.04810 0.27558 0.22312
 C1510 C 1.04017 0.26815 0.23083
 H1511 H 1.07882 0.31733 0.21461
 H1512 H 1.07991 0.28258 0.18228
 H1513 H 1.10006 0.29527 0.16950
 H1514 H 1.09895 0.33029 0.20196
 C1515 C 1.08404 0.81194 0.70444
 C1516 C 1.07820 0.79886 0.69850
 C1517 C 1.08391 0.79331 0.68536
 C1518 C 1.09558 0.80067 0.67831
 C1519 C 1.10177 0.81368 0.68433
 C1520 C 1.09572 0.81932 0.69742
 C1521 C 1.06701 0.79070 0.70638
 C1522 C 1.05804 0.78374 0.71340
 C1523 C 1.04809 0.77542 0.72208
 C1524 C 1.04013 0.76812 0.72988
 H1525 H 1.07972 0.81631 0.71463
 H1526 H 1.07952 0.78315 0.68068
 H1527 H 1.09993 0.79589 0.66834
 H1528 H 1.10007 0.82931 0.70239
 C1529 C 0.41663 0.70573 0.68687
 C1530 C 0.42216 0.69981 0.69994
 C1531 C 0.41636 0.68648 0.70538
 C1532 C 0.40478 0.67931 0.69801
 C1533 C 0.39879 0.68542 0.68509
 C1534 C 0.40506 0.69860 0.67948
 C1535 C 0.43302 0.70795 0.70826
 C1536 C 0.44167 0.71509 0.71545
 C1537 C 0.45130 0.72378 0.72412
 C1538 C 0.45912 0.73143 0.73173
 H1539 H 0.42103 0.71607 0.68257
 H1540 H 0.42058 0.68178 0.71548
 H1541 H 0.40043 0.66912 0.70260
 H1542 H 0.40080 0.70369 0.66961
 C1543 C 0.41675 0.18715 0.20491
 C1544 C 0.42282 0.20014 0.19900
 C1545 C 0.41743 0.20572 0.18574
 C1546 C 0.40580 0.19848 0.17853
 C1547 C 0.39933 0.18558 0.18455
 C1548 C 0.40513 0.17989 0.19773
 C1549 C 0.43385 0.20827 0.20707
 C1550 C 0.44260 0.21533 0.21421
 C1551 C 0.45227 0.22387 0.22296
 C1552 C 0.46007 0.23137 0.23070
 H1553 H 0.42083 0.18277 0.21521
 H1554 H 0.42204 0.21580 0.18109
 H1555 H 0.40177 0.20321 0.16841
 H1556 H 0.40056 0.17001 0.20274
 C1557 C -0.08359 0.68619 0.20578
 C1558 C -0.07776 0.69950 0.20033
 C1559 C -0.08323 0.70541 0.18723
 C1560 C -0.09472 0.69825 0.17977
 C1561 C -0.10099 0.68508 0.18537
 C1562 C -0.09509 0.67899 0.19834
 C1563 C -0.06681 0.70760 0.20853
 C1564 C -0.05801 0.71478 0.21550
 C1565 C -0.04821 0.72359 0.22382
 C1566 C -0.04030 0.73140 0.23115
 H1567 H -0.07944 0.68151 0.21592
 H1568 H -0.07882 0.71574 0.18294
 H1569 H -0.09891 0.70330 0.16986
 H1570 H -0.09945 0.66879 0.20290
 C1571 C -0.08384 0.18644 0.70575
 C1572 C -0.07804 0.19972 0.70018
 C1573 C -0.08364 0.20559 0.68713
 C1574 C -0.09522 0.19841 0.67981
 C1575 C -0.10143 0.18524 0.68548
 C1576 C -0.09543 0.17922 0.69844
 C1577 C -0.06698 0.20783 0.70828
 C1578 C -0.05813 0.21497 0.71522
 C1579 C -0.04828 0.22370 0.72359
 C1580 C -0.04034 0.23143 0.73099
 H1581 H -0.07958 0.18181 0.71586
 H1582 H -0.07927 0.21590 0.68275
 H1583 H -0.09948 0.20343 0.66991
 H1584 H -0.09975 0.16904 0.70309
 C1585 C 0.31363 0.41659 0.29524
 C1586 C 0.30025 0.42228 0.30071
 C1587 C 0.29423 0.41642 0.31358
 C1588 C 0.30133 0.40466 0.32077
 C1589 C 0.31456 0.39853 0.31514
 C1590 C 0.32076 0.40483 0.30242
 C1591 C 0.29217 0.43338 0.29258
 C1592 C 0.28508 0.44221 0.28549
 C1593 C 0.27648 0.45200 0.27687
 C1594 C 0.26889 0.45987 0.26921
 H1595 H 0.31840 0.42105 0.28528
 H1596 H 0.28385 0.42070 0.31790
 H1597 H 0.29618 0.40017 0.33050
 H1598 H 0.33102 0.40059 0.29785
 C1599 C 0.31281 -0.08532 0.79389
 C1600 C 0.30128 -0.07758 0.80074
 C1601 C 0.29688 -0.08157 0.81487
 C1602 C 0.30365 -0.09359 0.82196
 C1603 C 0.31498 -0.10184 0.81499
 C1604 C 0.31966 -0.09728 0.80094
 C1605 C 0.29319 -0.06641 0.79278
 C1606 C 0.28605 -0.05761 0.78575
 C1607 C 0.27731 -0.04798 0.77712
 C1608 C 0.26958 -0.04028 0.76947
 H1609 H 0.31626 -0.08236 0.78291
 H1610 H 0.28797 -0.07562 0.82028
 H1611 H 0.29980 -0.09640 0.83281
 H1612 H 0.32828 -0.10314 0.79505
 C1613 C 0.81217 0.41476 0.79390
 C1614 C 0.80038 0.42220 0.80065
 C1615 C 0.79590 0.41800 0.81470
 C1616 C 0.80286 0.40610 0.82180
 C1617 C 0.81444 0.39810 0.81494
 C1618 C 0.81919 0.40287 0.80097
 C1619 C 0.79219 0.43338 0.79273
 C1620 C 0.78501 0.44224 0.78577
 C1621 C 0.77626 0.45201 0.77725
 C1622 C 0.76853 0.45982 0.76968
 H1623 H 0.81573 0.41792 0.78301
 H1624 H 0.78681 0.42374 0.82007
 H1625 H 0.79892 0.40314 0.83259
 H1626 H 0.82809 0.39730 0.79520
 C1627 C 0.81233 -0.08538 0.29362
 C1628 C 0.80062 -0.07780 0.30033
 C1629 C 0.79606 -0.08187 0.31438
 C1630 C 0.80287 -0.09382 0.32154
 C1631 C 0.81438 -0.10195 0.31471
 C1632 C 0.81921 -0.09729 0.30074
 C1633 C 0.79255 -0.06666 0.29230
 C1634 C 0.78547 -0.05786 0.28521
 C1635 C 0.77683 -0.04818 0.27655
 C1636 C 0.76918 -0.04040 0.26891
 H1637 H 0.81591 -0.08234 0.28270
 H1638 H 0.78701 -0.07602 0.31969
 H1639 H 0.79888 -0.09669 0.33233
 H1640 H 0.82801 -0.10301 0.29498
 C1641 C 0.31356 0.58348 0.70506
 C1642 C 0.30038 0.57753 0.69945
 C1643 C 0.29448 0.58317 0.68642
 C1644 C 0.30151 0.59495 0.67921
 C1645 C 0.31456 0.60132 0.68497
 C1646 C 0.32062 0.59526 0.69788
 C1647 C 0.29234 0.56643 0.70759
 C1648 C 0.28526 0.55760 0.71467
 C1649 C 0.27660 0.54785 0.72327
 C1650 C 0.26895 0.54001 0.73088
 H1651 H 0.31823 0.57921 0.71516
 H1652 H 0.28425 0.57869 0.68200
 H1653 H 0.29645 0.59925 0.66934
 H1654 H 0.33070 0.59971 0.70260
 C1655 C 0.29453 1.08270 0.18601
 C1656 C 0.30003 1.07732 0.19932
 C1657 C 0.31312 1.08327 0.20513
 C1658 C 0.32055 1.09473 0.19780
 C1659 C 0.31491 1.10050 0.18457
 C1660 C 0.30193 1.09415 0.17867
 C1661 C 0.29174 1.06635 0.20740
 C1662 C 0.28448 1.05761 0.21441
 C1663 C 0.27567 1.04790 0.22292
 C1664 C 0.26792 1.04007 0.23046
 H1665 H 0.28438 1.07821 0.18142
 H1666 H 0.31745 1.07922 0.21546
 H1667 H 0.33051 1.09920 0.20272
 H1668 H 0.29724 1.09815 0.16852
 C1669 C 0.79479 0.58339 0.18709
 C1670 C 0.80076 0.57781 0.20012
 C1671 C 0.81407 0.58365 0.20555
 C1672 C 0.82117 0.59528 0.19819
 C1673 C 0.81502 0.60130 0.18530
 C1674 C 0.80186 0.59502 0.17971
 C1675 C 0.79271 0.56677 0.20833
 C1676 C 0.78558 0.55795 0.21536
 C1677 C 0.77683 0.54814 0.22380
 C1678 C 0.76906 0.54027 0.23124
 H1679 H 0.78448 0.57897 0.18280
 H1680 H 0.81881 0.57941 0.21563
 H1681 H 0.83136 0.59964 0.20275
 H1682 H 0.79676 0.59929 0.16986
 C1683 C 0.81313 1.08332 0.70528
 C1684 C 0.79993 1.07749 0.69958
 C1685 C 0.79422 1.08305 0.68645
 C1686 C 0.80145 1.09465 0.67919
 C1687 C 0.81452 1.10091 0.68502
 C1688 C 0.82040 1.09492 0.69804
 C1689 C 0.79172 1.06652 0.70768
 C1690 C 0.78447 1.05778 0.71467
 C1691 C 0.77563 1.04810 0.72310
 C1692 C 0.76783 1.04028 0.73056
 H1693 H 0.81764 1.07908 0.71546
 H1694 H 0.78398 1.07864 0.68198
 H1695 H 0.79655 1.09888 0.66922
 H1696 H 0.83051 1.09927 0.70279
 C1697 C 0.68628 0.58350 0.29529
 C1698 C 0.69960 0.57760 0.30067
 C1699 C 0.70560 0.58311 0.31370
 C1700 C 0.69855 0.59475 0.32110
 C1701 C 0.68540 0.60112 0.31554
 C1702 C 0.67920 0.59514 0.30268
 C1703 C 0.70764 0.56664 0.29234
 C1704 C 0.71469 0.55790 0.28513
 C1705 C 0.72330 0.54819 0.27644
 C1706 C 0.73093 0.54035 0.26881
 H1707 H 0.68152 0.57931 0.28521
 H1708 H 0.71593 0.57864 0.31796
 H1709 H 0.70367 0.59896 0.33096
 H1710 H 0.66900 0.59954 0.29813
 C1711 C 0.70486 1.08226 0.81476
 C1712 C 0.70025 1.07806 0.80076
 C1713 C 0.68845 1.08553 0.79407
 C1714 C 0.68145 1.09737 0.80117
 C1715 C 0.68623 1.10208 0.81513
 C1716 C 0.69793 1.09414 0.82191
 C1717 C 0.70824 1.06681 0.79281
 C1718 C 0.71513 1.05788 0.78570
 C1719 C 0.72341 1.04804 0.77688
 C1720 C 0.73069 1.04016 0.76899
 H1721 H 0.71402 1.07654 0.82004
 H1722 H 0.68483 1.08241 0.78318
 H1723 H 0.67254 1.10295 0.79543
 H1724 H 0.70194 1.09709 0.83266
 C1725 C 0.20611 0.58340 0.81381
 C1726 C 0.20027 0.57786 0.80072
 C1727 C 0.18705 0.58383 0.79514
 C1728 C 0.17991 0.59552 0.80242
 C1729 C 0.18592 0.60148 0.81537
 C1730 C 0.19899 0.59508 0.82110
 C1731 C 0.20833 0.56677 0.79254
 C1732 C 0.21537 0.55792 0.78542
 C1733 C 0.22391 0.54807 0.77677
 C1734 C 0.23146 0.54015 0.76912
 H1735 H 0.21635 0.57889 0.81823
 H1736 H 0.18240 0.57963 0.78502
 H1737 H 0.16979 0.59995 0.79774
 H1738 H 0.20399 0.59928 0.83103
 C1739 C 0.20527 1.08333 0.31297
 C1740 C 0.19905 1.07753 0.30017
 C1741 C 0.18557 1.08322 0.29494
 C1742 C 0.17857 1.09497 0.30222
 C1743 C 0.18498 1.10121 0.31486
 C1744 C 0.19829 1.09506 0.32028
 C1745 C 0.20703 1.06652 0.29188
 C1746 C 0.21403 1.05774 0.28470
 C1747 C 0.22255 1.04798 0.27601
 C1748 C 0.23009 1.04011 0.26834
 H1749 H 0.21573 1.07904 0.31710
 H1750 H 0.18065 1.07880 0.28504
 H1751 H 0.16826 1.09926 0.29781
 H1752 H 0.20362 1.09956 0.32991
 C1753 C 0.68703 0.41626 0.70476
 C1754 C 0.70038 0.42192 0.69921
 C1755 C 0.70613 0.41624 0.68613
 C1756 C 0.69878 0.40471 0.67884
 C1757 C 0.68558 0.39860 0.68456
 C1758 C 0.67967 0.40472 0.69749
 C1759 C 0.70859 0.43290 0.70739
 C1760 C 0.71563 0.44170 0.71455
 C1761 C 0.72405 0.45155 0.72331
 C1762 C 0.73140 0.45950 0.73110
 H1763 H 0.68245 0.42058 0.71487
 H1764 H 0.71646 0.42050 0.68172
 H1765 H 0.70372 0.40037 0.66894
 H1766 H 0.66946 0.40051 0.70217
 C1767 C 0.68662 -0.08394 0.20553
 C1768 C 0.69992 -0.07813 0.20005
 C1769 C 0.70589 -0.08375 0.18706
 C1770 C 0.69877 -0.09537 0.17972
 C1771 C 0.68558 -0.10158 0.18532
 C1772 C 0.67947 -0.09555 0.19821
 C1773 C 0.70791 -0.06706 0.20823
 C1774 C 0.71491 -0.05821 0.21531
 C1775 C 0.72346 -0.04837 0.22387
 C1776 C 0.73105 -0.04046 0.23142
 H1777 H 0.68190 -0.07967 0.21559
 H1778 H 0.71622 -0.07936 0.18275
 H1779 H 0.70386 -0.09966 0.16987
 H1780 H 0.66926 -0.09987 0.20278
 C1781 C 0.20658 0.41626 0.18672
 C1782 C 0.20054 0.42215 0.19956
 C1783 C 0.18713 0.41656 0.20499
 C1784 C 0.17991 0.40492 0.19775
 C1785 C 0.18605 0.39865 0.18497
 C1786 C 0.19940 0.40463 0.17946
 C1787 C 0.20859 0.43327 0.20763
 C1788 C 0.21563 0.44215 0.21463
 C1789 C 0.22420 0.45200 0.22315
 C1790 C 0.23177 0.45990 0.23074
 H1791 H 0.21700 0.42047 0.18245
 H1792 H 0.18239 0.42101 0.21497
 H1793 H 0.16963 0.40077 0.20234
 H1794 H 0.20452 0.40022 0.16969
 C1795 C 0.20639 -0.08373 0.68688
 C1796 C 0.20050 -0.07812 0.69992
 C1797 C 0.18714 -0.08384 0.70537
 C1798 C 0.17987 -0.09536 0.69800
 C1799 C 0.18591 -0.10140 0.68508
 C1800 C 0.19914 -0.09525 0.67949
 C1801 C 0.20862 -0.06715 0.70815
 C1802 C 0.21567 -0.05836 0.71530
 C1803 C 0.22421 -0.04855 0.72395
 C1804 C 0.23175 -0.04063 0.73157
 H1805 H 0.21674 -0.07941 0.68256
 H1806 H 0.18247 -0.07955 0.71545
 H1807 H 0.16964 -0.09962 0.70258
 H1808 H 0.20418 -0.09953 0.66961
 C1809 C 0.31470 0.29532 0.41865
 C1810 C 0.30160 0.30129 0.42446
 C1811 C 0.29613 0.31480 0.41910
 C1812 C 0.30344 0.32209 0.40766
 C1813 C 0.31633 0.31591 0.40134
 C1814 C 0.32204 0.30257 0.40721
 C1815 C 0.29316 0.29297 0.43504
 C1816 C 0.28577 0.28571 0.44340
 C1817 C 0.27680 0.27691 0.45264
 C1818 C 0.26894 0.26918 0.46014
 H1819 H 0.31903 0.28485 0.42271
 H1820 H 0.28599 0.31952 0.42351
 H1821 H 0.29875 0.33238 0.40363
 H1822 H 0.33196 0.29747 0.40280
 C1823 C 0.29571 0.81504 -0.08117
 C1824 C 0.30180 0.80211 -0.07512
 C1825 C 0.31525 0.79654 -0.08051
 C1826 C 0.32231 0.80355 -0.09226
 C1827 C 0.31598 0.81623 -0.09886
 C1828 C 0.30275 0.82208 -0.09292
 C1829 C 0.29357 0.79379 -0.06439
 C1830 C 0.28633 0.78643 -0.05599
 C1831 C 0.27754 0.77744 -0.04679
 C1832 C 0.26982 0.76952 -0.03936
 H1833 H 0.28528 0.81943 -0.07708
 H1834 H 0.32005 0.78651 -0.07590
 H1835 H 0.33253 0.79876 -0.09633
 H1836 H 0.29754 0.83186 -0.09753
 C1837 C 0.79545 0.31467 -0.08118
 C1838 C 0.80150 0.30162 -0.07534
 C1839 C 0.81494 0.29611 -0.08079
 C1840 C 0.82207 0.30333 -0.09237
 C1841 C 0.81580 0.31618 -0.09874
 C1842 C 0.80255 0.32192 -0.09277
 C1843 C 0.79325 0.29322 -0.06468
 C1844 C 0.78596 0.28588 -0.05631
 C1845 C 0.77704 0.27701 -0.04710
 C1846 C 0.76918 0.26924 -0.03964
 H1847 H 0.78503 0.31903 -0.07705
 H1848 H 0.81972 0.28599 -0.07635
 H1849 H 0.83229 0.29859 -0.09650
 H1850 H 0.79739 0.33181 -0.09721
 C1851 C 0.79563 0.81535 0.41916
 C1852 C 0.80160 0.80225 0.42498
 C1853 C 0.81506 0.79673 0.41956
 C1854 C 0.82225 0.80396 0.40801
 C1855 C 0.81602 0.81682 0.40163
 C1856 C 0.80279 0.82261 0.40761
 C1857 C 0.79325 0.79377 0.43551
 C1858 C 0.78589 0.78633 0.44375
 C1859 C 0.77694 0.77733 0.45282
 C1860 C 0.76911 0.76949 0.46024
 H1861 H 0.78520 0.81972 0.42327
 H1862 H 0.81978 0.78658 0.42398
 H1863 H 0.83245 0.79918 0.40388
 H1864 H 0.79768 0.83254 0.40319
 C1865 C 0.70434 0.31437 0.58116
 C1866 C 0.69873 0.30102 0.57562
 C1867 C 0.68554 0.29517 0.58131
 C1868 C 0.67823 0.30238 0.59281
 C1869 C 0.68406 0.31555 0.59886
 C1870 C 0.69706 0.32161 0.59266
 C1871 C 0.70711 0.29276 0.56492
 C1872 C 0.71445 0.28555 0.55645
 C1873 C 0.72336 0.27680 0.54707
 C1874 C 0.73117 0.26908 0.53949
 H1875 H 0.71455 0.31901 0.57684
 H1876 H 0.68108 0.28484 0.57710
 H1877 H 0.66821 0.29740 0.59711
 H1878 H 0.70186 0.33177 0.59683
 C1879 C 0.70456 0.81455 1.08163
 C1880 C 0.69870 0.80143 1.07581
 C1881 C 0.68540 0.79570 1.08137
 C1882 C 0.67820 0.80281 1.09298
 C1883 C 0.68423 0.81578 1.09925
 C1884 C 0.69739 0.82169 1.09324
 C1885 C 0.70694 0.79322 1.06500
 C1886 C 0.71418 0.78599 1.05648
 C1887 C 0.72299 0.77717 1.04710
 C1888 C 0.73074 0.76937 1.03955
 H1889 H 0.71488 0.81906 1.07744
 H1890 H 0.68079 0.78552 1.07697
 H1891 H 0.66808 0.79792 1.09717
 H1892 H 0.70240 0.83165 1.09764
 C1893 C 0.20395 0.31475 1.08092
 C1894 C 0.19815 0.30146 1.07544
 C1895 C 0.18489 0.29579 1.08112
 C1896 C 0.17771 0.30310 1.09261
 C1897 C 0.18377 0.31617 1.09866
 C1898 C 0.19680 0.32209 1.09242
 C1899 C 0.20644 0.29300 1.06486
 C1900 C 0.21371 0.28562 1.05651
 C1901 C 0.22257 0.27671 1.04729
 C1902 C 0.23038 0.26891 1.03983
 H1903 H 0.21422 0.31924 1.07658
 H1904 H 0.18030 0.28550 1.07695
 H1905 H 0.16765 0.29824 1.09693
 H1906 H 0.20175 0.33218 1.09659
 C1907 C 0.20478 0.81466 0.58100
 C1908 C 0.19906 0.80133 0.57550
 C1909 C 0.18585 0.79558 0.58124
 C1910 C 0.17862 0.80288 0.59272
 C1911 C 0.18455 0.81603 0.59871
 C1912 C 0.19757 0.82199 0.59248
 C1913 C 0.20727 0.79299 0.56476
 C1914 C 0.21443 0.78568 0.55624
 C1915 C 0.22312 0.77680 0.54681
 C1916 C 0.23081 0.76900 0.53920
 H1917 H 0.21500 0.81922 0.57663
 H1918 H 0.18131 0.78526 0.57707
 H1919 H 0.16856 0.79797 0.59702
 H1920 H 0.20243 0.83214 0.59660
 C1921 C 0.29533 0.68592 0.58166
 C1922 C 0.30115 0.69910 0.57591
 C1923 C 0.31447 0.70479 0.58143
 C1924 C 0.32176 0.69755 0.59293
 C1925 C 0.31578 0.68451 0.59913
 C1926 C 0.30259 0.67865 0.59315
 C1927 C 0.29289 0.70733 0.56511
 C1928 C 0.28565 0.71449 0.55653
 C1929 C 0.27684 0.72318 0.54703
 C1930 C 0.26908 0.73085 0.53936
 H1931 H 0.28500 0.68144 0.57748
 H1932 H 0.31906 0.71502 0.57708
 H1933 H 0.33190 0.70240 0.59709
 H1934 H 0.29763 0.66862 0.59747
 C1935 C 0.31453 0.20471 1.08182
 C1936 C 0.30132 0.19890 1.07614
 C1937 C 0.29573 0.18549 1.08160
 C1938 C 0.30303 0.17816 1.09303
 C1939 C 0.31600 0.18422 1.09928
 C1940 C 0.32186 0.19740 1.09326
 C1941 C 0.29298 0.20720 1.06544
 C1942 C 0.28567 0.21444 1.05697
 C1943 C 0.27678 0.22322 1.04761
 C1944 C 0.26894 0.23095 1.04004
 H1945 H 0.31898 0.21507 1.07765
 H1946 H 0.28553 0.18087 1.07725
 H1947 H 0.29829 0.16793 1.09711
 H1948 H 0.33192 0.20233 1.09752
 C1949 C 0.81429 0.70509 1.08195
 C1950 C 0.80141 0.69895 1.07589
 C1951 C 0.79615 0.68529 1.08109
 C1952 C 0.80347 0.67803 1.09257
 C1953 C 0.81616 0.68435 1.09911
 C1954 C 0.82163 0.69786 1.09344
 C1955 C 0.79297 0.70720 1.06517
 C1956 C 0.78561 0.71442 1.05670
 C1957 C 0.77669 0.72321 1.04731
 C1958 C 0.76888 0.73095 1.03972
 H1959 H 0.81845 0.71568 1.07805
 H1960 H 0.78617 0.68043 1.07650
 H1961 H 0.79894 0.66761 1.09645
 H1962 H 0.83136 0.70311 1.09806
 C1963 C 0.79537 0.18577 0.58185
 C1964 C 0.80135 0.19882 0.57598
 C1965 C 0.81475 0.20438 0.58146
 C1966 C 0.82192 0.19717 0.59306
 C1967 C 0.81575 0.18429 0.59940
 C1968 C 0.80251 0.17853 0.59344
 C1969 C 0.79316 0.20710 0.56515
 C1970 C 0.78596 0.21433 0.55656
 C1971 C 0.77718 0.22310 0.54708
 C1972 C 0.76942 0.23082 0.53944
 H1973 H 0.78498 0.18137 0.57771
 H1974 H 0.81948 0.21450 0.57700
 H1975 H 0.83214 0.20191 0.59716
 H1976 H 0.79741 0.16863 0.59788
 C1977 C 0.68512 0.70422 0.41971
 C1978 C 0.69864 0.69877 0.42508
 C1979 C 0.70481 0.68588 0.41904
 C1980 C 0.69781 0.67877 0.40733
 C1981 C 0.68450 0.68448 0.40143
 C1982 C 0.67808 0.69713 0.40800
 C1983 C 0.70687 0.70711 0.43579
 C1984 C 0.71420 0.71441 0.44417
 C1985 C 0.72315 0.72327 0.45335
 C1986 C 0.73101 0.73108 0.46076
 H1987 H 0.68024 0.71420 0.42431
 H1988 H 0.71529 0.68157 0.42310
 H1989 H 0.70310 0.66905 0.40272
 H1990 H 0.66780 0.70182 0.40395
 C1991 C 0.68500 0.20381 -0.08065
 C1992 C 0.69866 0.19859 -0.07542
 C1993 C 0.70487 0.18567 -0.08136
 C1994 C 0.69773 0.17828 -0.09282
 C1995 C 0.68425 0.18375 -0.09858
 C1996 C 0.67782 0.19644 -0.09211
 C1997 C 0.70687 0.20712 -0.06484
 C1998 C 0.71411 0.21453 -0.05649
 C1999 C 0.72294 0.22347 -0.04725
 C2000 C 0.73071 0.23128 -0.03975
 H2001 H 0.68007 0.21381 -0.07613
 H2002 H 0.71545 0.18153 -0.07739
 H2003 H 0.70302 0.16851 -0.09735
 H2004 H 0.66743 0.20096 -0.09606
 C2005 C 0.20459 0.68608 -0.08114
 C2006 C 0.19894 0.69948 -0.07573
 C2007 C 0.18563 0.70518 -0.08134
 C2008 C 0.17821 0.69772 -0.09260
 C2009 C 0.18405 0.68446 -0.09849
 C2010 C 0.19721 0.67860 -0.09240
 C2011 C 0.20733 0.70786 -0.06516
 C2012 C 0.21472 0.71507 -0.05675
 C2013 C 0.22372 0.72373 -0.04742
 C2014 C 0.23163 0.73132 -0.03983
 H2015 H 0.21489 0.68156 -0.07688
 H2016 H 0.18115 0.71556 -0.07723
 H2017 H 0.16807 0.70257 -0.09682
 H2018 H 0.20204 0.66839 -0.09647
 C2019 C 0.20415 0.18526 0.41888
 C2020 C 0.19838 0.19857 0.42440
 C2021 C 0.18504 0.20422 0.41881
 C2022 C 0.17774 0.19685 0.40744
 C2023 C 0.18372 0.18372 0.40141
 C2024 C 0.19687 0.17786 0.40750
 C2025 C 0.20672 0.20702 0.43495
 C2026 C 0.21400 0.21439 0.44331
 C2027 C 0.22283 0.22331 0.45255
 C2028 C 0.23060 0.23111 0.46006
 H2029 H 0.21448 0.18078 0.42312
 H2030 H 0.18047 0.21453 0.42300
 H2031 H 0.16760 0.20169 0.40322
 H2032 H 0.20179 0.16774 0.40333
 C2033 C 0.29432 0.41662 0.68591
 C2034 C 0.30021 0.42230 0.69891
 C2035 C 0.31358 0.41659 0.70439
 C2036 C 0.32080 0.40493 0.69714
 C2037 C 0.31470 0.39877 0.68432
 C2038 C 0.30151 0.40498 0.67864
 C2039 C 0.29201 0.43323 0.70714
 C2040 C 0.28483 0.44193 0.71428
 C2041 C 0.27612 0.45160 0.72292
 C2042 C 0.26847 0.45943 0.73057
 H2043 H 0.28396 0.42094 0.68158
 H2044 H 0.31826 0.42091 0.71444
 H2045 H 0.33102 0.40065 0.70174
 H2046 H 0.29645 0.40063 0.66882
 C2047 C 0.31344 0.91699 0.20491
 C2048 C 0.30069 0.92345 0.19886
 C2049 C 0.29556 0.91869 0.18522
 C2050 C 0.30284 0.90716 0.17785
 C2051 C 0.31538 0.90019 0.18406
 C2052 C 0.32075 0.90546 0.19758
 C2053 C 0.29227 0.93414 0.20716
 C2054 C 0.28495 0.94259 0.21443
 C2055 C 0.27613 0.95196 0.22326
 C2056 C 0.26844 0.95959 0.23102
 H2057 H 0.31750 0.92060 0.21549
 H2058 H 0.28569 0.92362 0.18043
 H2059 H 0.29840 0.90358 0.16746
 H2060 H 0.33035 0.90048 0.20276
 C2061 C 0.81350 0.41665 0.20473
 C2062 C 0.80018 0.42250 0.19930
 C2063 C 0.79423 0.41694 0.18627
 C2064 C 0.80132 0.40529 0.17893
 C2065 C 0.81446 0.39896 0.18456
 C2066 C 0.82062 0.40500 0.19741
 C2067 C 0.79210 0.43344 0.20760
 C2068 C 0.78504 0.44216 0.21482
 C2069 C 0.77645 0.45185 0.22355
 C2070 C 0.76885 0.45967 0.23121
 H2071 H 0.81823 0.42089 0.21480
 H2072 H 0.78391 0.42139 0.18195
 H2073 H 0.79624 0.40104 0.16906
 H2074 H 0.83081 0.40063 0.20199
 C2075 C 0.81212 0.91721 0.70379
 C2076 C 0.79872 0.92264 0.69815
 C2077 C 0.79299 0.91673 0.68518
 C2078 C 0.80049 0.90524 0.67799
 C2079 C 0.81384 0.89949 0.68372
 C2080 C 0.81965 0.90573 0.69663
 C2081 C 0.79045 0.93363 0.70614
 C2082 C 0.78330 0.94240 0.71318
 C2083 C 0.77465 0.95209 0.72179
 C2084 C 0.76700 0.95986 0.72942
 H2085 H 0.81665 0.92172 0.71383
 H2086 H 0.78259 0.92082 0.68074
 H2087 H 0.79563 0.90066 0.66816
 H2088 H 0.82996 0.90173 0.70131
 C2089 C 0.68566 0.58338 0.70489
 C2090 C 0.69896 0.57739 0.69956
 C2091 C 0.70512 0.58297 0.68662
 C2092 C 0.69825 0.59477 0.67926
 C2093 C 0.68510 0.60121 0.68477
 C2094 C 0.67877 0.59518 0.69755
 C2095 C 0.70684 0.56634 0.70795
 C2096 C 0.71376 0.55758 0.71530
 C2097 C 0.72221 0.54791 0.72421
 C2098 C 0.72973 0.54014 0.73203
 H2099 H 0.68077 0.57915 0.71490
 H2100 H 0.71543 0.57844 0.68240
 H2101 H 0.70349 0.59906 0.66948
 H2102 H 0.66859 0.59965 0.70206
 C2103 C 0.68652 0.08334 0.20506
 C2104 C 0.69975 0.07737 0.19959
 C2105 C 0.70577 0.08290 0.18657
 C2106 C 0.69879 0.09463 0.17924
 C2107 C 0.68570 0.10105 0.18488
 C2108 C 0.67951 0.09507 0.19776
 C2109 C 0.70770 0.06634 0.20789
 C2110 C 0.71465 0.05758 0.21514
 C2111 C 0.72314 0.04788 0.22393
 C2112 C 0.73070 0.04007 0.23164
 H2113 H 0.68177 0.07914 0.21515
 H2114 H 0.71604 0.07836 0.18226
 H2115 H 0.70391 0.09887 0.16938
 H2116 H 0.66938 0.09954 0.20237
 C2117 C 0.20609 0.58402 0.18647
 C2118 C 0.20025 0.57836 0.19951
 C2119 C 0.18688 0.58406 0.20500
 C2120 C 0.17951 0.59553 0.19760
 C2121 C 0.18546 0.60154 0.18462
 C2122 C 0.19875 0.59547 0.17905
 C2123 C 0.20840 0.56731 0.20764
 C2124 C 0.21552 0.55842 0.21464
 C2125 C 0.22415 0.54851 0.22312
 C2126 C 0.23175 0.54054 0.23065
 H2127 H 0.21648 0.57976 0.18216
 H2128 H 0.18228 0.57980 0.21512
 H2129 H 0.16925 0.59975 0.20216
 H2130 H 0.20374 0.59977 0.16916
 C2131 C 0.18660 0.08336 0.70529
 C2132 C 0.19986 0.07742 0.69982
 C2133 C 0.20577 0.08291 0.68673
 C2134 C 0.19869 0.09455 0.67934
 C2135 C 0.18558 0.10094 0.68497
 C2136 C 0.17948 0.09500 0.69792
 C2137 C 0.20789 0.06641 0.70810
 C2138 C 0.21494 0.05763 0.71527
 C2139 C 0.22355 0.04787 0.72394
 C2140 C 0.23118 0.04002 0.73157
 H2141 H 0.18192 0.07920 0.71542
 H2142 H 0.21606 0.07841 0.68241
 H2143 H 0.20373 0.09872 0.66942
 H2144 H 0.16932 0.09941 0.70252
 C2145 C 0.31384 0.58357 0.29472
 C2146 C 0.30052 0.57779 0.30018
 C2147 C 0.29451 0.58343 0.31315
 C2148 C 0.30158 0.59508 0.32045
 C2149 C 0.31476 0.60131 0.31484
 C2150 C 0.32094 0.59523 0.30201
 C2151 C 0.29248 0.56677 0.29201
 C2152 C 0.28539 0.55797 0.28496
 C2153 C 0.27674 0.54822 0.27644
 C2154 C 0.26909 0.54038 0.26889
 H2155 H 0.31858 0.57928 0.28468
 H2156 H 0.28418 0.57905 0.31744
 H2157 H 0.29645 0.59939 0.33027
 H2158 H 0.33115 0.59956 0.29745
 C2159 C 0.29448 0.08308 0.81402
 C2160 C 0.30039 0.07753 0.80096
 C2161 C 0.31361 0.08346 0.79540
 C2162 C 0.32068 0.09517 0.80265
 C2163 C 0.31458 0.10118 0.81556
 C2164 C 0.30153 0.09479 0.82129
 C2165 C 0.29234 0.06651 0.79276
 C2166 C 0.28526 0.05775 0.78564
 C2167 C 0.27664 0.04803 0.77701
 C2168 C 0.26902 0.04018 0.76940
 H2169 H 0.28424 0.07858 0.81841
 H2170 H 0.31829 0.07923 0.78531
 H2171 H 0.33079 0.09960 0.79798
 H2172 H 0.29647 0.09902 0.83117
 C2173 C 0.81349 0.58277 0.79564
 C2174 C 0.80025 0.57696 0.80125
 C2175 C 0.79453 0.58250 0.81440
 C2176 C 0.80175 0.59412 0.82166
 C2177 C 0.81480 0.60042 0.81585
 C2178 C 0.82075 0.59437 0.80288
 C2179 C 0.79189 0.56618 0.79300
 C2180 C 0.78450 0.55762 0.78592
 C2181 C 0.77547 0.54809 0.77743
 C2182 C 0.76756 0.54034 0.77000
 H2183 H 0.81805 0.57859 0.78547
 H2184 H 0.78428 0.57810 0.81885
 H2185 H 0.79685 0.59832 0.83164
 H2186 H 0.83087 0.59870 0.79814
 C2187 C 0.81378 0.08326 0.29482
 C2188 C 0.80058 0.07729 0.30037
 C2189 C 0.79464 0.08282 0.31342
 C2190 C 0.80163 0.09455 0.32069
 C2191 C 0.81466 0.10097 0.31497
 C2192 C 0.82081 0.09499 0.30208
 C2193 C 0.79254 0.06628 0.29217
 C2194 C 0.78541 0.05753 0.28510
 C2195 C 0.77667 0.04784 0.27657
 C2196 C 0.76891 0.04004 0.26907
 H2197 H 0.81848 0.07907 0.28471
 H2198 H 0.78440 0.07831 0.31779
 H2199 H 0.79654 0.09877 0.33057
 H2200 H 0.83090 0.09946 0.29741
 C2201 C 0.68645 0.41654 0.29507
 C2202 C 0.69962 0.42248 0.30071
 C2203 C 0.70546 0.41690 0.31379
 C2204 C 0.69842 0.40513 0.32100
 C2205 C 0.68542 0.39872 0.31517
 C2206 C 0.67938 0.40478 0.30225
 C2207 C 0.70771 0.43352 0.29254
 C2208 C 0.71479 0.44229 0.28542
 C2209 C 0.72343 0.45199 0.27676
 C2210 C 0.73107 0.45980 0.26913
 H2211 H 0.68182 0.42079 0.28495
 H2212 H 0.71567 0.42141 0.31826
 H2213 H 0.70342 0.40087 0.33090
 H2214 H 0.66931 0.40033 0.29751
 C2215 C 0.68538 0.91673 0.79457
 C2216 C 0.69878 0.92247 0.79984
 C2217 C 0.70497 0.91677 0.81271
 C2218 C 0.69796 0.90513 0.82013
 C2219 C 0.68468 0.89896 0.81471
 C2220 C 0.67834 0.90509 0.80197
 C2221 C 0.70672 0.93345 0.79151
 C2222 C 0.71368 0.94218 0.78424
 C2223 C 0.72214 0.95186 0.77543
 C2224 C 0.72963 0.95968 0.76767
 H2225 H 0.68052 0.92105 0.78458
 H2226 H 0.71540 0.92109 0.81684
 H2227 H 0.70323 0.90074 0.82986
 H2228 H 0.66806 0.90081 0.79753
 C2229 C 0.18660 0.41625 0.79503
 C2230 C 0.19983 0.42212 0.80060
 C2231 C 0.20571 0.41651 0.81366
 C2232 C 0.19859 0.40483 0.82093
 C2233 C 0.18549 0.39853 0.81521
 C2234 C 0.17946 0.40457 0.80227
 C2235 C 0.20791 0.43316 0.79241
 C2236 C 0.21495 0.44194 0.78526
 C2237 C 0.22351 0.45168 0.77656
 C2238 C 0.23107 0.45951 0.76886
 H2239 H 0.18196 0.42051 0.78491
 H2240 H 0.21597 0.42093 0.81806
 H2241 H 0.20361 0.40055 0.83083
 H2242 H 0.16933 0.40020 0.79759
 C2243 C 0.20518 0.91658 0.31355
 C2244 C 0.19908 0.92242 0.30069
 C2245 C 0.18570 0.91672 0.29529
 C2246 C 0.17864 0.90496 0.30250
 C2247 C 0.18494 0.89866 0.31519
 C2248 C 0.19816 0.90482 0.32077
 C2249 C 0.20714 0.93343 0.29247
 C2250 C 0.21427 0.94215 0.28531
 C2251 C 0.22298 0.95178 0.27665
 C2252 C 0.23067 0.95956 0.26902
 H2253 H 0.21556 0.92088 0.31781
 H2254 H 0.18088 0.92117 0.28533
 H2255 H 0.16838 0.90072 0.29799
 H2256 H 0.20337 0.90035 0.33048
 C2257 C 0.41720 0.29458 0.68601
 C2258 C 0.42279 0.30054 0.69902
 C2259 C 0.41690 0.31383 0.70448
 C2260 C 0.40516 0.32089 0.69722
 C2261 C 0.39908 0.31471 0.68439
 C2262 C 0.40546 0.30161 0.67873
 C2263 C 0.43371 0.29241 0.70735
 C2264 C 0.44235 0.28526 0.71461
 C2265 C 0.45190 0.27655 0.72340
 C2266 C 0.45961 0.26887 0.73113
 H2267 H 0.42165 0.28427 0.68169
 H2268 H 0.42116 0.31856 0.71453
 H2269 H 0.40074 0.33105 0.70182
 H2270 H 0.40115 0.29649 0.66891
 C2271 C 0.41669 0.81326 0.20504
 C2272 C 0.42319 0.80056 0.19894
 C2273 C 0.41844 0.79549 0.18525
 C2274 C 0.40695 0.80283 0.17789
 C2275 C 0.40000 0.81537 0.18410
 C2276 C 0.40519 0.82063 0.19769
 C2277 C 0.43397 0.79218 0.20718
 C2278 C 0.44256 0.78494 0.21441
 C2279 C 0.45207 0.77623 0.22323
 C2280 C 0.45977 0.76859 0.23100
 H2281 H 0.42026 0.81726 0.21565
 H2282 H 0.42338 0.78566 0.18042
 H2283 H 0.40339 0.79847 0.16745
 H2284 H 0.40020 0.83020 0.20290
 C2285 C 0.91625 0.31376 0.20501
 C2286 C 0.92217 0.30045 0.19961
 C2287 C 0.91660 0.29441 0.18663
 C2288 C 0.90491 0.30143 0.17925
 C2289 C 0.89857 0.31460 0.18481
 C2290 C 0.90457 0.32080 0.19765
 C2291 C 0.93321 0.29248 0.20790
 C2292 C 0.94201 0.28546 0.21508
 C2293 C 0.95176 0.27685 0.22375
 C2294 C 0.95959 0.26918 0.23136
 H2295 H 0.92047 0.31854 0.21506
 H2296 H 0.92108 0.28409 0.18237
 H2297 H 0.90067 0.29629 0.16942
 H2298 H 0.90017 0.33100 0.20219
 C2299 C 0.91669 0.79466 0.68609
 C2300 C 0.92223 0.80036 0.69923
 C2301 C 0.91607 0.81333 0.70512
 C2302 C 0.90410 0.82030 0.69817
 C2303 C 0.89808 0.81436 0.68521
 C2304 C 0.90472 0.80160 0.67911
 C2305 C 0.93339 0.79228 0.70725
 C2306 C 0.94219 0.78517 0.71433
 C2307 C 0.95186 0.77649 0.72299
 C2308 C 0.95963 0.76884 0.73067
 H2309 H 0.92144 0.78467 0.68138
 H2310 H 0.92031 0.81787 0.71528
 H2311 H 0.89937 0.83011 0.70320
 H2312 H 0.90059 0.79684 0.66905
 C2313 C 0.58295 0.29482 0.31309
 C2314 C 0.57749 0.30082 0.30003
 C2315 C 0.58349 0.31404 0.29454
 C2316 C 0.59520 0.32101 0.30187
 C2317 C 0.60115 0.31480 0.31476
 C2318 C 0.59466 0.30176 0.32043
 C2319 C 0.56655 0.29279 0.29171
 C2320 C 0.55789 0.28567 0.28451
 C2321 C 0.54830 0.27694 0.27586
 C2322 C 0.54055 0.26921 0.26828
 H2323 H 0.57839 0.28457 0.31742
 H2324 H 0.57933 0.31878 0.28443
 H2325 H 0.59969 0.33113 0.29724
 H2326 H 0.59882 0.29664 0.33032
 C2327 C 0.58294 0.79429 0.81360
 C2328 C 0.57736 0.80012 0.80052
 C2329 C 0.58322 0.81335 0.79490
 C2330 C 0.59489 0.82051 0.80212
 C2331 C 0.60094 0.81448 0.81505
 C2332 C 0.59461 0.80141 0.82084
 C2333 C 0.56639 0.79197 0.79237
 C2334 C 0.55767 0.78479 0.78531
 C2335 C 0.54797 0.77606 0.77677
 C2336 C 0.54010 0.76839 0.76924
 H2337 H 0.57849 0.78404 0.81805
 H2338 H 0.57896 0.81798 0.78478
 H2339 H 0.59926 0.83063 0.79740
 H2340 H 0.59885 0.79642 0.83076
 C2341 C 0.08386 0.31273 0.79499
 C2342 C 0.07800 0.29951 0.80060
 C2343 C 0.08355 0.29369 0.81371
 C2344 C 0.09515 0.30088 0.82101
 C2345 C 0.10141 0.31401 0.81527
 C2346 C 0.09545 0.31996 0.80227
 C2347 C 0.06695 0.29146 0.79244
 C2348 C 0.05811 0.28452 0.78528
 C2349 C 0.04829 0.27614 0.77654
 C2350 C 0.04037 0.26875 0.76879
 H2351 H 0.07966 0.31733 0.78483
 H2352 H 0.07913 0.28342 0.81813
 H2353 H 0.09937 0.29592 0.83096
 H2354 H 0.09981 0.33009 0.79756
 C2355 C 0.08369 0.79323 0.31393
 C2356 C 0.07788 0.79913 0.30097
 C2357 C 0.08355 0.81243 0.29535
 C2358 C 0.09523 0.81965 0.30247
 C2359 C 0.10145 0.81362 0.31531
 C2360 C 0.09537 0.80043 0.32108
 C2361 C 0.06682 0.79106 0.29289
 C2362 C 0.05801 0.78410 0.28574
 C2363 C 0.04823 0.77575 0.27697
 C2364 C 0.04034 0.76839 0.26918
 H2365 H 0.07941 0.78290 0.31835
 H2366 H 0.07913 0.81708 0.28531
 H2367 H 0.09945 0.82986 0.29778
 H2368 H 0.09983 0.79540 0.33090
 C2369 C 0.58346 0.70631 0.68660
 C2370 C 0.57777 0.70025 0.69954
 C2371 C 0.58370 0.68698 0.70503
 C2372 C 0.59544 0.67993 0.69777
 C2373 C 0.60150 0.68610 0.68492
 C2374 C 0.59521 0.69929 0.67932
 C2375 C 0.56654 0.70812 0.70768
 C2376 C 0.55757 0.71498 0.71481
 C2377 C 0.54764 0.72335 0.72349
 C2378 C 0.53972 0.73082 0.73119
 H2379 H 0.57902 0.71663 0.68228
 H2380 H 0.57942 0.68221 0.71507
 H2381 H 0.59982 0.66974 0.70238
 H2382 H 0.59952 0.70442 0.66950
 C2383 C 0.58329 0.20527 0.18623
 C2384 C 0.57776 0.19935 0.19929
 C2385 C 0.58369 0.18611 0.20484
 C2386 C 0.59538 0.17901 0.19756
 C2387 C 0.60137 0.18512 0.18464
 C2388 C 0.59498 0.19820 0.17893
 C2389 C 0.56677 0.20745 0.20750
 C2390 C 0.55805 0.21462 0.21461
 C2391 C 0.54837 0.22338 0.22317
 C2392 C 0.54055 0.23112 0.23070
 H2393 H 0.57880 0.21554 0.18186
 H2394 H 0.57950 0.18144 0.21496
 H2395 H 0.59983 0.16888 0.20223
 H2396 H 0.59920 0.20327 0.16904
 C2397 C 0.08377 0.68724 0.20456
 C2398 C 0.07784 0.70046 0.19896
 C2399 C 0.08348 0.70639 0.18594
 C2400 C 0.09522 0.69932 0.17872
 C2401 C 0.10155 0.68622 0.18447
 C2402 C 0.09551 0.68014 0.19737
 C2403 C 0.06673 0.70845 0.20711
 C2404 C 0.05788 0.71539 0.21428
 C2405 C 0.04807 0.72379 0.22304
 C2406 C 0.04021 0.73125 0.23080
 H2407 H 0.07950 0.68256 0.21464
 H2408 H 0.07901 0.71666 0.18153
 H2409 H 0.09953 0.70437 0.16885
 H2410 H 0.09991 0.67001 0.20205
 C2411 C 0.08321 0.20507 0.68674
 C2412 C 0.07770 0.19917 0.69981
 C2413 C 0.08362 0.18590 0.70532
 C2414 C 0.09528 0.17877 0.69799
 C2415 C 0.10123 0.18488 0.68505
 C2416 C 0.09485 0.19799 0.67939
 C2417 C 0.06667 0.20728 0.70799
 C2418 C 0.05787 0.21449 0.71497
 C2419 C 0.04809 0.22335 0.72334
 C2420 C 0.04023 0.23118 0.73075
 H2421 H 0.07873 0.21536 0.68239
 H2422 H 0.07944 0.18121 0.71544
 H2423 H 0.09971 0.16862 0.70261
 H2424 H 0.09903 0.20305 0.66948
 C2425 C 0.41683 0.68590 0.29516
 C2426 C 0.42261 0.69922 0.30062
 C2427 C 0.41697 0.70517 0.31361
 C2428 C 0.40530 0.69808 0.32091
 C2429 C 0.39908 0.68491 0.31528
 C2430 C 0.40517 0.67877 0.30244
 C2431 C 0.43357 0.70732 0.29239
 C2432 C 0.44230 0.71446 0.28527
 C2433 C 0.45197 0.72318 0.27667
 C2434 C 0.45976 0.73089 0.26908
 H2435 H 0.42113 0.68118 0.28510
 H2436 H 0.42134 0.71550 0.31792
 H2437 H 0.40098 0.70317 0.33074
 H2438 H 0.40087 0.66855 0.29787
 C2439 C 0.41695 0.20518 0.81390
 C2440 C 0.42245 0.19929 0.80081
 C2441 C 0.41650 0.18606 0.79531
 C2442 C 0.40481 0.17899 0.80262
 C2443 C 0.39884 0.18510 0.81553
 C2444 C 0.40526 0.19815 0.82122
 C2445 C 0.43339 0.20740 0.79253
 C2446 C 0.44209 0.21456 0.78537
 C2447 C 0.45173 0.22331 0.77674
 C2448 C 0.45952 0.23103 0.76914
 H2449 H 0.42146 0.21543 0.81826
 H2450 H 0.42068 0.18138 0.78519
 H2451 H 0.40035 0.16888 0.79797
 H2452 H 0.40107 0.20321 0.83112
 C2453 C 0.91765 0.70470 0.81356
 C2454 C 0.92286 0.69901 0.80028
 C2455 C 0.91670 0.68596 0.79462
 C2456 C 0.90510 0.67883 0.80200
 C2457 C 0.89941 0.68472 0.81514
 C2458 C 0.90604 0.69761 0.82097
 C2459 C 0.93372 0.70719 0.79196
 C2460 C 0.94235 0.71444 0.78482
 C2461 C 0.95194 0.72332 0.77627
 C2462 C 0.95970 0.73114 0.76876
 H2463 H 0.92234 0.71482 0.81802
 H2464 H 0.92062 0.68144 0.78433
 H2465 H 0.90051 0.66885 0.79722
 H2466 H 0.90211 0.70246 0.83107
 C2467 C 0.91694 0.20478 0.31295
 C2468 C 0.92246 0.19874 0.29995
 C2469 C 0.91646 0.18552 0.29450
 C2470 C 0.90467 0.17860 0.30179
 C2471 C 0.89867 0.18488 0.31462
 C2472 C 0.90515 0.19791 0.32026
 C2473 C 0.93343 0.20678 0.29168
 C2474 C 0.94213 0.21399 0.28460
 C2475 C 0.95175 0.22287 0.27612
 C2476 C 0.95952 0.23075 0.26869
 H2477 H 0.92148 0.21504 0.31724
 H2478 H 0.92064 0.18074 0.28442
 H2479 H 0.90015 0.16850 0.29719
 H2480 H 0.90092 0.20310 0.33007
 C2481 C 0.31387 0.29507 0.58139
 C2482 C 0.30077 0.30105 0.57559
 C2483 C 0.29517 0.31443 0.58111
 C2484 C 0.30238 0.32158 0.59269
 C2485 C 0.31529 0.31538 0.59899
 C2486 C 0.32110 0.30218 0.59296
 C2487 C 0.29248 0.29286 0.56481
 C2488 C 0.28525 0.28563 0.55628
 C2489 C 0.27649 0.27682 0.54687
 C2490 C 0.26878 0.26905 0.53927
 H2491 H 0.31830 0.28470 0.57720
 H2492 H 0.28503 0.31916 0.57671
 H2493 H 0.29761 0.33178 0.59684
 H2494 H 0.33104 0.29709 0.59735
 C2495 C 0.31388 0.79508 0.08229
 C2496 C 0.30074 0.80099 0.07651
 C2497 C 0.29503 0.81430 0.08209
 C2498 C 0.30216 0.82145 0.09370
 C2499 C 0.31513 0.81534 0.09995
 C2500 C 0.32104 0.80219 0.09390
 C2501 C 0.29257 0.79285 0.06562
 C2502 C 0.28543 0.78569 0.05699
 C2503 C 0.27677 0.77694 0.04745
 C2504 C 0.26915 0.76920 0.03974
 H2505 H 0.31843 0.78480 0.07803
 H2506 H 0.28487 0.81899 0.07767
 H2507 H 0.29732 0.83160 0.09788
 H2508 H 0.33104 0.79719 0.09825
 C2509 C 0.81425 0.29575 0.08104
 C2510 C 0.80085 0.30139 0.07559
 C2511 C 0.79494 0.31450 0.08141
 C2512 C 0.80217 0.32173 0.09292
 C2513 C 0.81542 0.31590 0.09885
 C2514 C 0.82151 0.30295 0.09255
 C2515 C 0.79261 0.29310 0.06486
 C2516 C 0.78541 0.28581 0.05637
 C2517 C 0.77668 0.27694 0.04700
 C2518 C 0.76899 0.26914 0.03942
 H2519 H 0.81891 0.28558 0.07663
 H2520 H 0.78454 0.31895 0.07729
 H2521 H 0.79712 0.33169 0.09732
 H2522 H 0.83170 0.29814 0.09665
 C2523 C 0.81124 0.79411 0.58463
 C2524 C 0.79961 0.80143 0.57745
 C2525 C 0.79533 0.81567 0.58195
 C2526 C 0.80254 0.82251 0.59369
 C2527 C 0.81412 0.81515 0.60116
 C2528 C 0.81847 0.80091 0.59637
 C2529 C 0.79151 0.79390 0.56612
 C2530 C 0.78446 0.78718 0.55709
 C2531 C 0.77589 0.77880 0.54718
 C2532 C 0.76828 0.77119 0.53936
 H2533 H 0.81458 0.78303 0.58131
 H2534 H 0.78623 0.82137 0.57654
 H2535 H 0.79879 0.83341 0.59706
 H2536 H 0.82737 0.79492 0.60171
 C2537 C 0.31486 0.70401 0.41886
 C2538 C 0.30156 0.69833 0.42447
 C2539 C 0.29572 0.68513 0.41880
 C2540 C 0.30288 0.67790 0.40723
 C2541 C 0.31597 0.68383 0.40110
 C2542 C 0.32203 0.69682 0.40729
 C2543 C 0.29329 0.70671 0.43513
 C2544 C 0.28605 0.71408 0.44353
 C2545 C 0.27727 0.72306 0.45277
 C2546 C 0.26954 0.73094 0.46025
 H2547 H 0.31948 0.71423 0.42317
 H2548 H 0.28543 0.68063 0.42308
 H2549 H 0.29790 0.66788 0.40294
 H2550 H 0.33212 0.70169 0.40304
 C2551 C 0.31436 0.20417 0.91934
 C2552 C 0.30095 0.19856 0.92476
 C2553 C 0.29502 0.18550 0.91887
 C2554 C 0.30220 0.17835 0.90727
 C2555 C 0.31543 0.18419 0.90135
 C2556 C 0.32156 0.19705 0.90774
 C2557 C 0.29269 0.20684 0.93549
 C2558 C 0.28549 0.21413 0.94398
 C2559 C 0.27675 0.22300 0.95336
 C2560 C 0.26905 0.23081 0.96093
 H2561 H 0.31906 0.21426 0.92385
 H2562 H 0.28465 0.18104 0.92301
 H2563 H 0.29713 0.16846 0.90280
 H2564 H 0.33176 0.20185 0.90366
 C2565 C 0.81414 0.70551 0.91765
 C2566 C 0.80086 0.69980 0.92329
 C2567 C 0.79500 0.68665 0.91757
 C2568 C 0.80224 0.67933 0.90610
 C2569 C 0.81547 0.68510 0.90012
 C2570 C 0.82141 0.69822 0.90617
 C2571 C 0.79272 0.70794 0.93425
 C2572 C 0.78554 0.71496 0.94300
 C2573 C 0.77676 0.72348 0.95268
 C2574 C 0.76898 0.73103 0.96044
 H2575 H 0.81872 0.71578 0.92191
 H2576 H 0.78465 0.68219 0.92177
 H2577 H 0.79724 0.66932 0.90182
 H2578 H 0.83151 0.70308 0.90192
 C2579 C 0.81490 0.20373 0.41912
 C2580 C 0.80143 0.19821 0.42449
 C2581 C 0.79551 0.18514 0.41863
 C2582 C 0.80276 0.17788 0.40712
 C2583 C 0.81604 0.18364 0.40123
 C2584 C 0.82218 0.19650 0.40761
 C2585 C 0.79309 0.20659 0.43513
 C2586 C 0.78578 0.21393 0.44352
 C2587 C 0.77690 0.22285 0.45278
 C2588 C 0.76913 0.23068 0.46028
 H2589 H 0.81960 0.21385 0.42359
 H2590 H 0.78509 0.18075 0.42270
 H2591 H 0.79769 0.16798 0.40267
 H2592 H 0.83243 0.20124 0.40357
 C2593 C 0.68539 0.29557 0.41889
 C2594 C 0.69842 0.30160 0.42474
 C2595 C 0.70388 0.31506 0.41928
 C2596 C 0.69667 0.32219 0.40766
 C2597 C 0.68390 0.31588 0.40125
 C2598 C 0.67815 0.30266 0.40727
 C2599 C 0.70688 0.29331 0.43537
 C2600 C 0.71427 0.28600 0.44372
 C2601 C 0.72321 0.27707 0.45292
 C2602 C 0.73104 0.26922 0.46036
 H2603 H 0.68104 0.28515 0.42304
 H2604 H 0.71396 0.31985 0.42374
 H2605 H 0.70138 0.33242 0.40354
 H2606 H 0.66829 0.29750 0.40283
 C2607 C 0.68513 0.79612 0.91891
 C2608 C 0.69868 0.80154 0.92415
 C2609 C 0.70466 0.81456 0.91818
 C2610 C 0.69736 0.82187 0.90672
 C2611 C 0.68399 0.81619 0.90097
 C2612 C 0.67780 0.80340 0.90746
 C2613 C 0.70698 0.79318 0.93485
 C2614 C 0.71422 0.78588 0.94335
 C2615 C 0.72300 0.77702 0.95277
 C2616 C 0.73072 0.76923 0.96039
 H2617 H 0.68039 0.78604 0.92345
 H2618 H 0.71516 0.81886 0.92213
 H2619 H 0.70246 0.83173 0.90219
 H2620 H 0.66745 0.79877 0.90356
 C2621 C 0.18544 0.29544 0.91903
 C2622 C 0.19862 0.30129 0.92473
 C2623 C 0.20429 0.31460 0.91914
 C2624 C 0.19708 0.32182 0.90758
 C2625 C 0.18410 0.31575 0.90137
 C2626 C 0.17820 0.30263 0.90747
 C2627 C 0.20693 0.29301 0.93546
 C2628 C 0.21421 0.28573 0.94393
 C2629 C 0.22306 0.27687 0.95324
 C2630 C 0.23084 0.26907 0.96078
 H2631 H 0.18095 0.28513 0.92327
 H2632 H 0.21450 0.31923 0.92347
 H2633 H 0.20191 0.33196 0.90337
 H2634 H 0.16818 0.29765 0.90317
 C2635 C 0.18526 0.79515 0.41856
 C2636 C 0.19848 0.80094 0.42423
 C2637 C 0.20411 0.81431 0.41876
 C2638 C 0.19678 0.82171 0.40740
 C2639 C 0.18370 0.81578 0.40128
 C2640 C 0.17789 0.80252 0.40720
 C2641 C 0.20686 0.79261 0.43485
 C2642 C 0.21424 0.78540 0.44326
 C2643 C 0.22324 0.77669 0.45255
 C2644 C 0.23115 0.76904 0.46009
 H2645 H 0.18083 0.78476 0.42269
 H2646 H 0.21438 0.81886 0.42304
 H2647 H 0.20159 0.83190 0.40328
 H2648 H 0.16784 0.79759 0.40291
 C2649 C 0.68587 0.70531 0.58159
 C2650 C 0.69954 0.70005 0.57646
 C2651 C 0.70563 0.68705 0.58237
 C2652 C 0.69826 0.67951 0.59362
 C2653 C 0.68470 0.68494 0.59919
 C2654 C 0.67847 0.69780 0.59283
 C2655 C 0.70771 0.70849 0.56577
 C2656 C 0.71477 0.71584 0.55721
 C2657 C 0.72327 0.72475 0.54765
 C2658 C 0.73076 0.73257 0.53989
 H2659 H 0.68107 0.71539 0.57711
 H2660 H 0.71624 0.68290 0.57849
 H2661 H 0.70342 0.66964 0.59809
 H2662 H 0.66800 0.70228 0.59664
 C2663 C 0.68561 0.20403 0.08089
 C2664 C 0.69924 0.19868 0.07574
 C2665 C 0.70544 0.18585 0.08190
 C2666 C 0.69825 0.17861 0.09343
 C2667 C 0.68474 0.18415 0.09903
 C2668 C 0.67838 0.19681 0.09242
 C2669 C 0.70741 0.20698 0.06495
 C2670 C 0.71456 0.21425 0.05640
 C2671 C 0.72325 0.22309 0.04697
 C2672 C 0.73092 0.23089 0.03936
 H2673 H 0.68073 0.21399 0.07621
 H2674 H 0.71603 0.18165 0.07803
 H2675 H 0.70352 0.16891 0.09811
 H2676 H 0.66796 0.20137 0.09626
 C2677 C 0.18518 0.70438 0.08052
 C2678 C 0.19882 0.69905 0.07538
 C2679 C 0.20502 0.68620 0.08151
 C2680 C 0.19778 0.67889 0.09296
 C2681 C 0.18425 0.68437 0.09854
 C2682 C 0.17791 0.69708 0.09198
 C2683 C 0.20704 0.70736 0.06465
 C2684 C 0.21430 0.71459 0.05616
 C2685 C 0.22318 0.72332 0.04680
 C2686 C 0.23104 0.73100 0.03927
 H2687 H 0.18033 0.71438 0.07592
 H2688 H 0.21564 0.68204 0.07768
 H2689 H 0.20305 0.66917 0.09763
 H2690 H 0.16749 0.70163 0.09583
 C2691 C 0.18520 0.20438 0.58101
 C2692 C 0.19849 0.19869 0.57538
 C2693 C 0.20440 0.18552 0.58112
 C2694 C 0.19731 0.17832 0.59275
 C2695 C 0.18419 0.18421 0.59888
 C2696 C 0.17807 0.19720 0.59264
 C2697 C 0.20671 0.20699 0.56458
 C2698 C 0.21394 0.21425 0.55608
 C2699 C 0.22278 0.22308 0.54671
 C2700 C 0.23057 0.23085 0.53917
 H2701 H 0.18052 0.21458 0.57666
 H2702 H 0.21471 0.18102 0.57685
 H2703 H 0.20236 0.16833 0.59710
 H2704 H 0.16796 0.20207 0.59689
   
