data_POSCAR
  _audit_creation_date              2014-09-24
  _audit_creation_method            'ToBaCCo'
  _symmetry_space_group_name_H-M    'P1'
  _symmetry_Int_Tables_number       1
  _symmetry_cell_setting            triclinic
  loop_
  _symmetry_equiv_pos_as_xyz
 x,y,z
_cell_length_a 77.5146
_cell_length_b 77.0922
_cell_length_c 76.6821
_cell_angle_alpha 89.951100
_cell_angle_beta 89.979900
_cell_angle_gamma 89.939900
loop_
  _atom_site_label
  _atom_site_type_symbol
  _atom_site_fract_x
  _atom_site_fract_y
  _atom_site_fract_z
O1 O 0.34239 0.36589 0.01766
 O2 O 0.36724 0.34351 -0.01653
 O3 O 0.34270 0.36657 -0.01625
 O4 O 0.36694 0.34266 0.01742
 O5 O 0.34743 0.32177 0.01680
 O6 O 0.32320 0.34565 -0.01685
 O7 O 0.34773 0.32260 -0.01713
 O8 O 0.32289 0.34498 0.01704
 Cu9 Cu 0.35680 0.35676 0.00067
 Cu10 Cu 0.33335 0.33163 -0.00007
 C11 C 0.32839 0.35927 0.02304
 C12 C 0.36166 0.32929 -0.02262
 C13 C 0.32885 0.36014 -0.02223
 C14 C 0.36131 0.32814 0.02273
 O15 O 0.65491 0.63158 0.01545
 O16 O 0.63171 0.65484 -0.01939
 O17 O 0.65558 0.63100 -0.01854
 O18 O 0.63111 0.65550 0.01454
 O19 O 0.65125 0.67580 0.01451
 O20 O 0.67568 0.65134 -0.01852
 O21 O 0.65185 0.67514 -0.01939
 O22 O 0.67503 0.65190 0.01542
 Cu23 Cu 0.64130 0.64117 -0.00198
 Cu24 Cu 0.66549 0.66558 -0.00199
 C25 C 0.66890 0.63781 0.02130
 C26 C 0.63785 0.66894 -0.02524
 C27 C 0.66977 0.63705 -0.02411
 C28 C 0.63703 0.66982 0.02006
 O29 O 0.65868 0.36601 0.98287
 O30 O 0.63464 0.34280 1.01710
 O31 O 0.65878 0.36627 1.01674
 O32 O 0.63451 0.34244 0.98312
 O33 O 0.65438 0.32184 0.98327
 O34 O 0.67863 0.34565 1.01686
 O35 O 0.65450 0.32218 1.01723
 O36 O 0.67854 0.34539 0.98300
 Cu37 Cu 0.64463 0.35645 0.99993
 Cu38 Cu 0.66850 0.33167 1.00008
 C39 C 0.67274 0.35968 0.97726
 C40 C 0.64053 0.32859 1.02295
 C41 C 0.67284 0.36001 1.02243
 C42 C 0.64033 0.32809 0.97756
 O43 O 0.34328 0.63155 0.98477
 O44 O 0.36737 0.65480 1.01892
 O45 O 0.34382 0.63075 1.01870
 O46 O 0.36686 0.65573 0.98498
 O47 O 0.34649 0.67582 0.98581
 O48 O 0.32347 0.65086 1.01951
 O49 O 0.34700 0.67490 1.01973
 O50 O 0.32293 0.65166 0.98560
 Cu51 Cu 0.35739 0.64118 1.00173
 Cu52 Cu 0.33292 0.66534 1.00272
 C53 C 0.32900 0.63765 0.97948
 C54 C 0.36124 0.66877 1.02508
 C55 C 0.32975 0.63659 1.02480
 C56 C 0.36060 0.67003 0.97977
 O57 O 0.01449 0.34450 0.36916
 O58 O -0.01898 0.36947 0.34599
 O59 O -0.01907 0.34477 0.36920
 O60 O 0.01466 0.36928 0.34598
 O61 O 0.01454 0.34971 0.32491
 O62 O -0.01917 0.32522 0.34812
 O63 O -0.01908 0.34989 0.32493
 O64 O 0.01436 0.32495 0.34807
 Cu65 Cu -0.00220 0.35900 0.35970
 Cu66 Cu -0.00234 0.33549 0.33437
 C67 C 0.02001 0.33047 0.36255
 C68 C -0.02470 0.36387 0.33156
 C69 C -0.02478 0.33083 0.36260
 C70 C 0.02029 0.36363 0.33152
 O71 O 0.01867 0.65472 0.63020
 O72 O -0.01428 0.63067 0.65503
 O73 O -0.01496 0.65467 0.63104
 O74 O 0.01927 0.63062 0.65405
 O75 O 0.01976 0.65079 0.67454
 O76 O -0.01444 0.67483 0.65153
 O77 O -0.01375 0.65086 0.67550
 O78 O 0.01915 0.67487 0.65071
 Cu79 Cu 0.00212 0.64065 0.64050
 Cu80 Cu 0.00273 0.66488 0.66512
 C81 C 0.02447 0.66886 0.63629
 C82 C -0.01952 0.63668 0.66950
 C83 C -0.02048 0.66881 0.63740
 C84 C 0.02525 0.63662 0.66821
 O85 O 1.01650 0.63849 0.33777
 O86 O 0.98299 0.66209 0.36219
 O87 O 0.98297 0.63822 0.33809
 O88 O 1.01653 0.66244 0.36177
 O89 O 1.01611 0.68272 0.34137
 O90 O 0.98257 0.65853 0.31771
 O91 O 0.98258 0.68239 0.34180
 O92 O 1.01609 0.65879 0.31737
 Cu93 Cu 0.99978 0.64826 0.35202
 Cu94 Cu 0.99929 0.67266 0.32751
 C95 C 1.02189 0.64462 0.32342
 C96 C 0.97718 0.67626 0.35616
 C97 C 0.97717 0.64425 0.32385
 C98 C 1.02194 0.67670 0.35559
 O99 O 0.98360 0.34295 0.63172
 O100 O 1.01614 0.36779 0.65627
 O101 O 1.01715 0.34410 0.63201
 O102 O 0.98256 0.36677 0.65585
 O103 O 0.98302 0.34636 0.67612
 O104 O 1.01759 0.32368 0.65227
 O105 O 1.01657 0.34735 0.67652
 O106 O 0.98407 0.32256 0.65201
 Cu107 Cu 0.99982 0.35747 0.64192
 Cu108 Cu 1.00036 0.33294 0.66628
 C109 C 0.97839 0.32853 0.63770
 C110 C 1.02181 0.36177 0.67057
 C111 C 1.02316 0.33003 0.63808
 C112 C 0.97698 0.36041 0.67003
 O113 O 0.36969 0.01829 0.34650
 O114 O 0.34541 -0.01612 0.36902
 O115 O 0.36972 -0.01546 0.34550
 O116 O 0.34531 0.01767 0.36991
 O117 O 0.32564 0.01821 0.34903
 O118 O 0.35001 -0.01486 0.32466
 O119 O 0.32573 -0.01554 0.34816
 O120 O 0.35000 0.01886 0.32564
 Cu121 Cu 0.35952 0.00103 0.35984
 Cu122 Cu 0.33586 0.00172 0.33477
 C123 C 0.36396 0.02436 0.33225
 C124 C 0.33145 -0.02162 0.36241
 C125 C 0.36400 -0.02071 0.33093
 C126 C 0.33134 0.02353 0.36357
 O127 O 0.65710 -0.01728 0.63401
 O128 O 0.63207 0.01714 0.65573
 O129 O 0.65671 0.01644 0.63263
 O130 O 0.63235 -0.01662 0.65711
 O131 O 0.65173 -0.01561 0.67824
 O132 O 0.67608 0.01743 0.65378
 O133 O 0.65147 0.01812 0.67685
 O134 O 0.67646 -0.01627 0.65516
 Cu135 Cu 0.64260 -0.00020 0.64274
 Cu136 Cu 0.66589 0.00100 0.66814
 C137 C 0.67105 -0.02252 0.64088
 C138 C 0.63756 0.02344 0.66996
 C139 C 0.67052 0.02250 0.63907
 C140 C 0.63789 -0.02164 0.67184
 O141 O 0.36381 0.98306 0.65770
 O142 O 0.33968 1.01760 0.63514
 O143 O 0.36403 1.01682 0.65864
 O144 O 0.33943 0.98389 0.63433
 O145 O 0.31975 0.98352 0.65522
 O146 O 0.34434 1.01643 0.67951
 O147 O 0.32000 1.01721 0.65602
 O148 O 0.34413 0.98268 0.67858
 Cu149 Cu 0.35374 1.00040 0.64435
 Cu150 Cu 0.33008 0.99993 0.66945
 C151 C 0.35804 0.97705 0.67195
 C152 C 0.32572 1.02316 0.64171
 C153 C 0.35835 1.02214 0.67320
 C154 C 0.32541 0.97820 0.64065
 O155 O 0.63426 0.98133 0.34398
 O156 O 0.65863 1.01503 0.36748
 O157 O 0.63475 1.01510 0.34345
 O158 O 0.65793 0.98129 0.36807
 O159 O 0.67811 0.98061 0.34768
 O160 O 0.65492 1.01442 0.32307
 O161 O 0.67878 1.01433 0.34708
 O162 O 0.65445 0.98067 0.32361
 Cu163 Cu 0.64435 0.99828 0.35780
 Cu164 Cu 0.66859 0.99746 0.33330
 C165 C 0.64026 0.97531 0.32983
 C166 C 0.67288 1.02030 0.36128
 C167 C 0.64088 1.02042 0.32907
 C168 C 0.67194 0.97525 0.36204
 C169 C 0.81352 0.81172 0.51220
 C170 C 0.81347 0.81193 0.49442
 C171 C 0.82586 0.80140 0.48409
 C172 C 0.80132 0.82301 0.48435
 C173 C 0.80282 0.82400 0.52250
 C174 C 0.82459 0.79953 0.52223
 C175 C 0.84374 0.80295 0.48674
 C176 C 0.85526 0.79307 0.47684
 C177 C 0.84904 0.78169 0.46409
 C178 C 0.83127 0.78026 0.46124
 C179 C 0.81973 0.79012 0.47114
 C180 C 0.80776 0.83449 0.47171
 C181 C 0.79654 0.84513 0.46228
 C182 C 0.77874 0.84433 0.46528
 C183 C 0.77219 0.83272 0.47767
 C184 C 0.78341 0.82204 0.48711
 C185 C 0.79144 0.81764 0.53524
 C186 C 0.78121 0.82907 0.54491
 C187 C 0.78238 0.84697 0.54204
 C188 C 0.79392 0.85341 0.52957
 C189 C 0.80416 0.84200 0.51991
 C190 C 0.82392 0.78155 0.51922
 C191 C 0.83478 0.77031 0.52842
 C192 C 0.84628 0.77690 0.54084
 C193 C 0.84673 0.79474 0.54416
 C194 C 0.83590 0.80599 0.53495
 H195 H 0.84873 0.81185 0.49642
 H196 H 0.86900 0.79435 0.47908
 H197 H 0.82633 0.77154 0.45136
 H198 H 0.80601 0.78885 0.46882
 H199 H 0.82150 0.83538 0.46933
 H200 H 0.80174 0.85404 0.45269
 H201 H 0.77816 0.81304 0.49658
 H202 H 0.79032 0.80382 0.53751
 H203 H 0.77237 0.82396 0.55456
 H204 H 0.79499 0.86725 0.52732
 H205 H 0.81312 0.84718 0.51040
 H206 H 0.81506 0.77627 0.50968
 H207 H 0.83427 0.75651 0.52581
 H208 H 0.85555 0.79998 0.55376
 H209 H 0.83657 0.81979 0.53753
 H210 H 0.75843 0.83193 0.48004
 C211 C 0.18731 0.18911 0.50850
 C212 C 0.18709 0.18894 0.49071
 C213 C 0.17449 0.19947 0.48064
 C214 C 0.19910 0.17785 0.48048
 C215 C 0.19801 0.17670 0.51865
 C216 C 0.17644 0.20134 0.51871
 C217 C 0.15668 0.19790 0.48370
 C218 C 0.14495 0.20802 0.47430
 C219 C 0.15088 0.21967 0.46164
 C220 C 0.16858 0.22105 0.45829
 C221 C 0.18033 0.21094 0.46769
 C222 C 0.19250 0.16632 0.46799
 C223 C 0.20358 0.15545 0.45865
 C224 C 0.22139 0.15606 0.46159
 C225 C 0.22811 0.16779 0.47376
 C226 C 0.21703 0.17870 0.48310
 C227 C 0.20951 0.18290 0.53135
 C228 C 0.21955 0.17132 0.54105
 C229 C 0.21810 0.15344 0.53824
 C230 C 0.20650 0.14716 0.52577
 C231 C 0.19644 0.15872 0.51607
 C232 C 0.17713 0.21932 0.51569
 C233 C 0.16646 0.23059 0.52507
 C234 C 0.15513 0.22402 0.53768
 C235 C 0.15466 0.20618 0.54101
 C236 C 0.16530 0.19490 0.53163
 H237 H 0.15189 0.18886 0.49338
 H238 H 0.13127 0.20678 0.47692
 H239 H 0.17330 0.22999 0.44848
 H240 H 0.19400 0.21223 0.46506
 H241 H 0.17873 0.16552 0.46572
 H242 H 0.19824 0.14645 0.44925
 H243 H 0.22241 0.18771 0.49245
 H244 H 0.21079 0.19670 0.53362
 H245 H 0.22844 0.17630 0.55072
 H246 H 0.20519 0.13334 0.52358
 H247 H 0.18738 0.15367 0.50661
 H248 H 0.18586 0.22458 0.50601
 H249 H 0.16697 0.24439 0.52244
 H250 H 0.14597 0.20096 0.55075
 H251 H 0.16462 0.18110 0.53422
 H252 H 0.24188 0.16843 0.47608
 C253 C 0.18748 0.81276 0.48892
 C254 C 0.18759 0.81271 0.50670
 C255 C 0.17675 0.80048 0.51692
 C256 C 0.19816 0.82523 0.51682
 C257 C 0.19951 0.82378 0.47867
 C258 C 0.17497 0.80219 0.47883
 C259 C 0.16549 0.80693 0.52973
 C260 C 0.15491 0.79564 0.53914
 C261 C 0.15555 0.77778 0.53595
 C262 C 0.16698 0.77121 0.52343
 C263 C 0.17760 0.78250 0.51402
 C264 C 0.19653 0.84319 0.51403
 C265 C 0.20651 0.85485 0.52364
 C266 C 0.21807 0.84871 0.53625
 C267 C 0.21956 0.83086 0.53927
 C268 C 0.20960 0.81917 0.52965
 C269 C 0.21743 0.82299 0.48144
 C270 C 0.22853 0.83378 0.47200
 C271 C 0.22185 0.84531 0.45960
 C272 C 0.20406 0.84588 0.45653
 C273 C 0.19296 0.83514 0.46597
 C274 C 0.18091 0.79081 0.46585
 C275 C 0.16923 0.78090 0.45621
 C276 C 0.15149 0.78238 0.45935
 C277 C 0.14547 0.79387 0.47210
 C278 C 0.15713 0.80379 0.48174
 H279 H 0.16469 0.82073 0.53221
 H280 H 0.14613 0.80085 0.54880
 H281 H 0.16763 0.75740 0.52091
 H282 H 0.18641 0.77724 0.50442
 H283 H 0.18752 0.84814 0.50445
 H284 H 0.20518 0.86865 0.52128
 H285 H 0.21093 0.80539 0.53207
 H286 H 0.22278 0.81410 0.49096
 H287 H 0.24229 0.83319 0.47443
 H288 H 0.19876 0.85474 0.44694
 H289 H 0.17920 0.83589 0.46358
 H290 H 0.19460 0.78951 0.46332
 H291 H 0.17402 0.77210 0.44632
 H292 H 0.13176 0.79519 0.47455
 H293 H 0.15227 0.81277 0.49143
 H294 H 0.22842 0.82597 0.54903
 C295 C 0.81282 0.18619 0.49057
 C296 C 0.81316 0.18638 0.50836
 C297 C 0.82573 0.19717 0.51814
 C298 C 0.80131 0.17543 0.51891
 C299 C 0.80205 0.17359 0.48077
 C300 C 0.82360 0.19821 0.48004
 C301 C 0.84354 0.19563 0.51506
 C302 C 0.85524 0.20591 0.52428
 C303 C 0.84928 0.21770 0.53679
 C304 C 0.83157 0.21908 0.54014
 C305 C 0.81986 0.20881 0.53091
 C306 C 0.80811 0.16418 0.53158
 C307 C 0.79719 0.15342 0.54123
 C308 C 0.77936 0.15388 0.53843
 C309 C 0.77244 0.16534 0.52609
 C310 C 0.78335 0.17614 0.51643
 C311 C 0.79040 0.17955 0.46809
 C312 C 0.78021 0.16781 0.45879
 C313 C 0.78168 0.14998 0.46198
 C314 C 0.79346 0.14393 0.47442
 C315 C 0.80367 0.15566 0.48371
 C316 C 0.82289 0.21625 0.48268
 C317 C 0.83356 0.22732 0.47307
 C318 C 0.84491 0.22050 0.46062
 C319 C 0.84537 0.20259 0.45765
 C320 C 0.83474 0.19151 0.46725
 H321 H 0.84836 0.18647 0.50552
 H322 H 0.86892 0.20466 0.52166
 H323 H 0.82682 0.22811 0.54984
 H324 H 0.80619 0.21008 0.53357
 H325 H 0.82190 0.16349 0.53375
 H326 H 0.80268 0.14462 0.55076
 H327 H 0.77783 0.18495 0.50694
 H328 H 0.78907 0.19331 0.46555
 H329 H 0.77118 0.17263 0.44915
 H330 H 0.79479 0.13016 0.47690
 H331 H 0.81284 0.15078 0.49317
 H332 H 0.81417 0.22170 0.49226
 H333 H 0.83305 0.24117 0.47543
 H334 H 0.85408 0.19718 0.44803
 H335 H 0.83543 0.17767 0.46496
 H336 H 0.75865 0.16585 0.52386
 C337 C 0.50661 0.81171 0.81157
 C338 C 0.48902 0.81145 0.81204
 C339 C 0.47849 0.82234 0.80010
 C340 C 0.47943 0.80057 0.82478
 C341 C 0.51713 0.79955 0.82222
 C342 C 0.51621 0.82442 0.80069
 C343 C 0.46590 0.83352 0.80698
 C344 C 0.45619 0.84413 0.79593
 C345 C 0.45885 0.84357 0.77788
 C346 C 0.47113 0.83220 0.77089
 C347 C 0.48085 0.82156 0.78193
 C348 C 0.48266 0.80193 0.84277
 C349 C 0.47348 0.79169 0.85463
 C350 C 0.46089 0.78013 0.84865
 C351 C 0.45745 0.77889 0.83077
 C352 C 0.46663 0.78911 0.81890
 C353 C 0.51453 0.78153 0.82129
 C354 C 0.52428 0.77029 0.83169
 C355 C 0.53682 0.77695 0.84298
 C356 C 0.53971 0.79486 0.84370
 C357 C 0.52996 0.80610 0.83334
 C358 C 0.52882 0.81858 0.78891
 C359 C 0.53803 0.83043 0.77872
 C360 C 0.53483 0.84823 0.78029
 C361 C 0.52243 0.85416 0.79216
 C362 C 0.51322 0.84233 0.80237
 H363 H 0.46383 0.83425 0.82093
 H364 H 0.44670 0.85287 0.80147
 H365 H 0.47324 0.83162 0.75694
 H366 H 0.49027 0.81279 0.77635
 H367 H 0.49222 0.81095 0.84761
 H368 H 0.47617 0.79282 0.86844
 H369 H 0.46386 0.78797 0.80510
 H370 H 0.50492 0.77620 0.81256
 H371 H 0.52199 0.75645 0.83099
 H372 H 0.54940 0.80014 0.85238
 H373 H 0.53222 0.81993 0.83419
 H374 H 0.53141 0.80484 0.78752
 H375 H 0.54764 0.82570 0.76962
 H376 H 0.51993 0.86792 0.79356
 H377 H 0.50382 0.84712 0.81164
 H378 H 0.44769 0.77003 0.82601
 C379 C 0.51076 0.18804 0.18926
 C380 C 0.49317 0.18851 0.18931
 C381 C 0.48287 0.17786 0.20165
 C382 C 0.48334 0.19940 0.17676
 C383 C 0.52109 0.19999 0.17821
 C384 C 0.52055 0.17533 0.19999
 C385 C 0.46997 0.16679 0.19525
 C386 C 0.46050 0.15636 0.20666
 C387 C 0.46373 0.15697 0.22460
 C388 C 0.47631 0.16825 0.23114
 C389 C 0.48578 0.17872 0.21973
 C390 C 0.48604 0.19783 0.15870
 C391 C 0.47665 0.20808 0.14702
 C392 C 0.46436 0.21987 0.15325
 C393 C 0.46144 0.22132 0.17121
 C394 C 0.47083 0.21109 0.18290
 C395 C 0.51871 0.21805 0.17914
 C396 C 0.52826 0.22910 0.16836
 C397 C 0.54038 0.22222 0.15672
 C398 C 0.54304 0.20427 0.15600
 C399 C 0.53350 0.19322 0.16674
 C400 C 0.53353 0.18114 0.21134
 C401 C 0.54286 0.16930 0.22144
 C402 C 0.53941 0.15153 0.22020
 C403 C 0.52665 0.14561 0.20874
 C404 C 0.51732 0.15744 0.19861
 H405 H 0.46747 0.16600 0.18137
 H406 H 0.45078 0.14769 0.20148
 H407 H 0.47886 0.16887 0.24501
 H408 H 0.49545 0.18741 0.22496
 H409 H 0.49536 0.18863 0.15367
 H410 H 0.47894 0.20678 0.13314
 H411 H 0.46847 0.21238 0.19676
 H412 H 0.50943 0.22355 0.18813
 H413 H 0.52614 0.24297 0.16906
 H414 H 0.55240 0.19882 0.14705
 H415 H 0.53558 0.17935 0.16589
 H416 H 0.53630 0.19486 0.21248
 H417 H 0.55275 0.17401 0.23022
 H418 H 0.52395 0.13188 0.20759
 H419 H 0.50762 0.15266 0.18967
 H420 H 0.45191 0.23035 0.17617
 C421 C 0.49091 0.18933 0.81050
 C422 C 0.50849 0.18965 0.81047
 C423 C 0.51873 0.17886 0.79820
 C424 C 0.51836 0.20045 0.82303
 C425 C 0.48065 0.20142 0.82146
 C426 C 0.48105 0.17660 0.79991
 C427 C 0.53154 0.16769 0.80468
 C428 C 0.54090 0.15709 0.79334
 C429 C 0.53765 0.15762 0.77539
 C430 C 0.52516 0.16900 0.76878
 C431 C 0.51580 0.17965 0.78012
 C432 C 0.51564 0.19883 0.84109
 C433 C 0.52506 0.20898 0.85279
 C434 C 0.53740 0.22072 0.84659
 C435 C 0.54032 0.22223 0.82863
 C436 C 0.53090 0.21209 0.81691
 C437 C 0.48313 0.21945 0.82039
 C438 C 0.47370 0.23064 0.83112
 C439 C 0.46160 0.22392 0.84288
 C440 C 0.45883 0.20601 0.84374
 C441 C 0.46825 0.19481 0.83304
 C442 C 0.46810 0.18239 0.78850
 C443 C 0.45872 0.17052 0.77853
 C444 C 0.46210 0.15274 0.77997
 C445 C 0.47483 0.14685 0.79149
 C446 C 0.48421 0.15870 0.80148
 H447 H 0.53405 0.16696 0.81855
 H448 H 0.55055 0.14834 0.79858
 H449 H 0.52259 0.16956 0.75490
 H450 H 0.50620 0.18840 0.77483
 H451 H 0.50628 0.18966 0.84609
 H452 H 0.52277 0.20763 0.86666
 H453 H 0.53327 0.21342 0.80305
 H454 H 0.49242 0.22482 0.81133
 H455 H 0.47590 0.24450 0.83031
 H456 H 0.44948 0.20068 0.85278
 H457 H 0.46611 0.18096 0.83401
 H458 H 0.46539 0.19612 0.78721
 H459 H 0.44885 0.17521 0.76970
 H460 H 0.47748 0.13311 0.79279
 H461 H 0.49389 0.15394 0.81048
 H462 H 0.54988 0.23122 0.82369
 C463 C 0.49150 0.81239 0.18796
 C464 C 0.50909 0.81208 0.18747
 C465 C 0.51962 0.82285 0.19948
 C466 C 0.51866 0.80123 0.17469
 C467 C 0.48096 0.80028 0.17731
 C468 C 0.48192 0.82506 0.19891
 C469 C 0.53222 0.83406 0.19268
 C470 C 0.54186 0.84463 0.20380
 C471 C 0.53912 0.84400 0.22183
 C472 C 0.52685 0.83259 0.22874
 C473 C 0.51721 0.82199 0.21764
 C474 C 0.51536 0.80261 0.15671
 C475 C 0.52441 0.79230 0.14483
 C476 C 0.53697 0.78063 0.15076
 C477 C 0.54052 0.77940 0.16862
 C478 C 0.53146 0.78969 0.18052
 C479 C 0.48358 0.78225 0.17824
 C480 C 0.47389 0.77105 0.16779
 C481 C 0.46137 0.77775 0.15646
 C482 C 0.45845 0.79566 0.15577
 C483 C 0.46814 0.80686 0.16619
 C484 C 0.46939 0.81918 0.21075
 C485 C 0.46035 0.83098 0.22115
 C486 C 0.46364 0.84878 0.21972
 C487 C 0.47593 0.85475 0.20776
 C488 C 0.48497 0.84297 0.19734
 H489 H 0.53434 0.83485 0.17874
 H490 H 0.55135 0.85339 0.19832
 H491 H 0.52468 0.83196 0.24269
 H492 H 0.50778 0.81320 0.22317
 H493 H 0.50580 0.81169 0.15191
 H494 H 0.52164 0.79343 0.13103
 H495 H 0.53428 0.78853 0.19430
 H496 H 0.49319 0.77689 0.18698
 H497 H 0.47620 0.75721 0.16847
 H498 H 0.44877 0.80097 0.14708
 H499 H 0.46586 0.82070 0.16535
 H500 H 0.46676 0.80545 0.21206
 H501 H 0.45082 0.82623 0.23032
 H502 H 0.47851 0.86850 0.20648
 H503 H 0.49432 0.84779 0.18804
 H504 H 0.55025 0.77047 0.17335
 C505 C 0.81352 0.50929 0.81181
 C506 C 0.81322 0.49160 0.81192
 C507 C 0.80232 0.48176 0.82441
 C508 C 0.82412 0.48117 0.79990
 C509 C 0.82620 0.51908 0.80112
 C510 C 0.80153 0.51970 0.82275
 C511 C 0.80375 0.48451 0.84247
 C512 C 0.79352 0.47506 0.85409
 C513 C 0.78190 0.46267 0.84779
 C514 C 0.78057 0.45972 0.82983
 C515 C 0.79078 0.46917 0.81820
 C516 C 0.83507 0.46831 0.80670
 C517 C 0.84560 0.45857 0.79561
 C518 C 0.84522 0.46149 0.77760
 C519 C 0.83412 0.47408 0.77068
 C520 C 0.82355 0.48382 0.78176
 C521 C 0.82046 0.53185 0.78941
 C522 C 0.83228 0.54101 0.77918
 C523 C 0.84996 0.53760 0.78066
 C524 C 0.85580 0.52510 0.79253
 C525 C 0.84400 0.51595 0.80279
 C526 C 0.78358 0.51717 0.82186
 C527 C 0.77252 0.52664 0.83270
 C528 C 0.77927 0.53883 0.84438
 C529 C 0.79709 0.54169 0.84501
 C530 C 0.80815 0.53223 0.83421
 H531 H 0.81282 0.49391 0.84754
 H532 H 0.79471 0.47736 0.86797
 H533 H 0.77166 0.45011 0.82483
 H534 H 0.78960 0.46677 0.80433
 H535 H 0.83564 0.46600 0.82062
 H536 H 0.85412 0.44884 0.80110
 H537 H 0.81497 0.49345 0.77623
 H538 H 0.80680 0.53454 0.78805
 H539 H 0.82763 0.55070 0.77007
 H540 H 0.86946 0.52243 0.79386
 H541 H 0.84871 0.50641 0.81201
 H542 H 0.77818 0.50780 0.81289
 H543 H 0.75875 0.52437 0.83205
 H544 H 0.80245 0.55111 0.85397
 H545 H 0.82193 0.53443 0.83504
 H546 H 0.83368 0.47639 0.75675
 C547 C 0.18697 0.50753 0.18823
 C548 C 0.18683 0.48985 0.18846
 C549 C 0.19747 0.47953 0.17614
 C550 C 0.17569 0.47995 0.20072
 C551 C 0.17448 0.51789 0.19861
 C552 C 0.19930 0.51743 0.17720
 C553 C 0.19615 0.48215 0.15804
 C554 C 0.20634 0.47250 0.14656
 C555 C 0.21780 0.46000 0.15303
 C556 C 0.21895 0.45711 0.17102
 C557 C 0.20878 0.46678 0.18252
 C558 C 0.16442 0.46724 0.19424
 C559 C 0.15356 0.45815 0.20555
 C560 C 0.15393 0.46156 0.22347
 C561 C 0.16539 0.47395 0.23008
 C562 C 0.17629 0.48305 0.21878
 C563 C 0.18047 0.53086 0.20992
 C564 C 0.16882 0.54076 0.21964
 C565 C 0.15106 0.53789 0.21804
 C566 C 0.14498 0.52512 0.20662
 C567 C 0.15662 0.51522 0.19688
 C568 C 0.21717 0.51448 0.17830
 C569 C 0.22855 0.52363 0.16755
 C570 C 0.22220 0.53593 0.15573
 C571 C 0.20445 0.53916 0.15481
 C572 C 0.19306 0.53001 0.16553
 H573 H 0.18725 0.49168 0.15284
 H574 H 0.20529 0.47477 0.13266
 H575 H 0.22773 0.44743 0.17615
 H576 H 0.20987 0.46449 0.19642
 H577 H 0.16382 0.46460 0.18038
 H578 H 0.14477 0.44857 0.20030
 H579 H 0.18511 0.49256 0.22408
 H580 H 0.19418 0.53320 0.21132
 H581 H 0.17365 0.55065 0.22839
 H582 H 0.13126 0.52287 0.20520
 H583 H 0.15172 0.50553 0.18794
 H584 H 0.22226 0.50505 0.18743
 H585 H 0.24227 0.52109 0.16841
 H586 H 0.19940 0.54867 0.14574
 H587 H 0.17935 0.53253 0.16452
 H588 H 0.16583 0.47665 0.24394
 C589 C 0.81072 0.49220 0.18804
 C590 C 0.81080 0.50989 0.18792
 C591 C 0.79865 0.52004 0.17691
 C592 C 0.82339 0.51998 0.19841
 C593 C 0.82170 0.48210 0.20027
 C594 C 0.80005 0.48208 0.17559
 C595 C 0.80509 0.53263 0.16538
 C596 C 0.79387 0.54202 0.15470
 C597 C 0.77608 0.53904 0.15551
 C598 C 0.76952 0.52674 0.16721
 C599 C 0.78074 0.51733 0.17793
 C600 C 0.84121 0.51711 0.19665
 C601 C 0.85294 0.52675 0.20651
 C602 C 0.84699 0.53946 0.21808
 C603 C 0.82926 0.54254 0.21970
 C604 C 0.81752 0.53290 0.20987
 C605 C 0.82101 0.48506 0.21835
 C606 C 0.83178 0.47578 0.22964
 C607 C 0.84319 0.46335 0.22300
 C608 C 0.84367 0.46009 0.20505
 C609 C 0.83294 0.46936 0.19375
 C610 C 0.78871 0.46931 0.18183
 C611 C 0.77866 0.45968 0.17021
 C612 C 0.77994 0.46264 0.15224
 C613 C 0.79140 0.47519 0.14591
 C614 C 0.80147 0.48480 0.15751
 H615 H 0.81884 0.53496 0.16446
 H616 H 0.79908 0.55153 0.14572
 H617 H 0.75577 0.52439 0.16799
 H618 H 0.77549 0.50791 0.18696
 H619 H 0.84602 0.50745 0.18762
 H620 H 0.86664 0.52433 0.20507
 H621 H 0.80383 0.53540 0.21129
 H622 H 0.81221 0.49461 0.22368
 H623 H 0.83125 0.47835 0.24352
 H624 H 0.85243 0.45047 0.19977
 H625 H 0.83361 0.46683 0.17988
 H626 H 0.78754 0.46693 0.19570
 H627 H 0.76988 0.44996 0.17524
 H628 H 0.79258 0.47750 0.13203
 H629 H 0.81041 0.49433 0.15241
 H630 H 0.82453 0.55240 0.22856
 C631 C 0.18771 0.49000 0.81310
 C632 C 0.18826 0.50768 0.81300
 C633 C 0.19913 0.51752 0.82550
 C634 C 0.17765 0.51807 0.80068
 C635 C 0.17504 0.48025 0.80237
 C636 C 0.19952 0.47953 0.82418
 C637 C 0.19756 0.51486 0.84357
 C638 C 0.20781 0.52424 0.85521
 C639 C 0.21961 0.53649 0.84892
 C640 C 0.22105 0.53938 0.83095
 C641 C 0.21082 0.53000 0.81930
 C642 C 0.16658 0.53099 0.80713
 C643 C 0.15603 0.54040 0.79577
 C644 C 0.15654 0.53710 0.77783
 C645 C 0.16786 0.52454 0.77124
 C646 C 0.17844 0.51513 0.78260
 C647 C 0.18079 0.46733 0.79084
 C648 C 0.16899 0.45821 0.78057
 C649 C 0.15133 0.46181 0.78182
 C650 C 0.14548 0.47447 0.79350
 C651 C 0.15726 0.48359 0.80380
 C652 C 0.21750 0.48181 0.82332
 C653 C 0.22841 0.47216 0.83414
 C654 C 0.22148 0.46001 0.84578
 C655 C 0.20362 0.45743 0.84642
 C656 C 0.19270 0.46708 0.83564
 H657 H 0.18836 0.50556 0.84863
 H658 H 0.20651 0.52198 0.86909
 H659 H 0.23009 0.54888 0.82596
 H660 H 0.21212 0.53233 0.80543
 H661 H 0.16583 0.53352 0.82100
 H662 H 0.14733 0.55010 0.80099
 H663 H 0.18712 0.50545 0.77733
 H664 H 0.19442 0.46450 0.78965
 H665 H 0.17365 0.44840 0.77161
 H666 H 0.13183 0.47729 0.79465
 H667 H 0.15254 0.49326 0.81286
 H668 H 0.22304 0.49112 0.81434
 H669 H 0.24222 0.47421 0.83348
 H670 H 0.19812 0.44804 0.85535
 H671 H 0.17890 0.46506 0.83644
 H672 H 0.16839 0.52192 0.75738
 C673 C 0.31841 0.36827 0.03592
 C674 C 0.30984 0.37596 0.04651
 C675 C 0.29941 0.38529 0.05888
 C676 C 0.28399 0.39303 0.05345
 C677 C 0.27386 0.40224 0.06534
 C678 C 0.27904 0.40385 0.08285
 C679 C 0.29455 0.39597 0.08820
 C680 C 0.30467 0.38676 0.07627
 C681 C 0.26833 0.41377 0.09543
 C682 C 0.26583 0.40764 0.11253
 C683 C 0.25563 0.41696 0.12430
 C684 C 0.24782 0.43251 0.11914
 C685 C 0.25027 0.43874 0.10218
 C686 C 0.26045 0.42945 0.09039
 C687 C 0.23727 0.44209 0.13120
 C688 C 0.22840 0.45021 0.14120
 H689 H 0.27978 0.39193 0.04003
 H690 H 0.26188 0.40796 0.06088
 H691 H 0.29898 0.39715 0.10153
 H692 H 0.31663 0.38086 0.08059
 H693 H 0.27156 0.39552 0.11673
 H694 H 0.25378 0.41200 0.13740
 H695 H 0.24433 0.45080 0.09807
 H696 H 0.26232 0.43463 0.07740
 C697 C 0.67805 0.62871 0.03474
 C698 C 0.68592 0.62111 0.04595
 C699 C 0.69555 0.61207 0.05918
 C700 C 0.71340 0.61443 0.06041
 C701 C 0.72286 0.60556 0.07311
 C702 C 0.71458 0.59418 0.08477
 C703 C 0.69661 0.59192 0.08347
 C704 C 0.68716 0.60083 0.07075
 C705 C 0.72472 0.58457 0.09808
 C706 C 0.72117 0.56702 0.10167
 C707 C 0.73112 0.55784 0.11377
 C708 C 0.74470 0.56607 0.12247
 C709 C 0.74820 0.58357 0.11916
 C710 C 0.73828 0.59277 0.10706
 C711 C 0.75541 0.55647 0.13439
 C712 C 0.76468 0.54849 0.14415
 H713 H 0.72002 0.62305 0.05149
 H714 H 0.73670 0.60738 0.07362
 H715 H 0.68985 0.58341 0.09238
 H716 H 0.67334 0.59895 0.06994
 H717 H 0.71096 0.56029 0.09482
 H718 H 0.72836 0.54427 0.11618
 H719 H 0.75867 0.59006 0.12583
 H720 H 0.74118 0.60631 0.10476
 C721 C 0.68243 0.36904 0.96441
 C722 C 0.69076 0.37708 0.95388
 C723 C 0.70088 0.38684 0.94159
 C724 C 0.70886 0.40224 0.94683
 C725 C 0.71889 0.41168 0.93503
 C726 C 0.72109 0.40581 0.91780
 C727 C 0.71295 0.39034 0.91263
 C728 C 0.70292 0.38091 0.92447
 C729 C 0.73188 0.41578 0.90533
 C730 C 0.72665 0.41788 0.88788
 C731 C 0.73678 0.42737 0.87619
 C732 C 0.75226 0.43487 0.88178
 C733 C 0.75759 0.43281 0.89908
 C734 C 0.74748 0.42334 0.91079
 C735 C 0.76266 0.44467 0.86978
 C736 C 0.77142 0.45289 0.85975
 H737 H 0.70733 0.40697 0.96005
 H738 H 0.72479 0.42366 0.93934
 H739 H 0.71456 0.38538 0.89953
 H740 H 0.69685 0.36896 0.92030
 H741 H 0.71461 0.41239 0.88333
 H742 H 0.73252 0.42891 0.86283
 H743 H 0.76959 0.43851 0.90352
 H744 H 0.75198 0.42175 0.92406
 C745 C 0.31940 0.62841 0.96648
 C746 C 0.31116 0.62061 0.95571
 C747 C 0.30112 0.61127 0.94304
 C748 C 0.30563 0.59429 0.93849
 C749 C 0.29563 0.58507 0.92649
 C750 C 0.28095 0.59273 0.91890
 C751 C 0.27660 0.60986 0.92348
 C752 C 0.28662 0.61905 0.93547
 C753 C 0.27012 0.58285 0.90640
 C754 C 0.25201 0.58407 0.90703
 C755 C 0.24181 0.57468 0.89536
 C756 C 0.24955 0.56395 0.88289
 C757 C 0.26754 0.56265 0.88213
 C758 C 0.27777 0.57203 0.89380
 C759 C 0.23901 0.55426 0.87092
 C760 C 0.23017 0.54615 0.86089
 H761 H 0.31678 0.58811 0.94433
 H762 H 0.29919 0.57183 0.92341
 H763 H 0.26552 0.61620 0.91769
 H764 H 0.28303 0.63220 0.93888
 H765 H 0.24573 0.59209 0.91673
 H766 H 0.22789 0.57574 0.89609
 H767 H 0.27366 0.55441 0.87249
 H768 H 0.29167 0.57097 0.89284
 C769 C 0.03275 0.32052 0.37173
 C770 C 0.04329 0.31197 0.37948
 C771 C 0.05568 0.30157 0.38878
 C772 C 0.07288 0.30691 0.38998
 C773 C 0.08488 0.29677 0.39904
 C774 C 0.07980 0.28114 0.40703
 C775 C 0.06246 0.27589 0.40571
 C776 C 0.05050 0.28604 0.39665
 C777 C 0.09248 0.27036 0.41669
 C778 C 0.08786 0.26230 0.43249
 C779 C 0.09976 0.25206 0.44154
 C780 C 0.11643 0.24973 0.43494
 C781 C 0.12118 0.25771 0.41926
 C782 C 0.10930 0.26797 0.41019
 C783 C 0.12863 0.23913 0.44426
 C784 C 0.13880 0.23025 0.45214
 H785 H 0.07702 0.31893 0.38397
 H786 H 0.09807 0.30127 0.39999
 H787 H 0.05820 0.26382 0.41150
 H788 H 0.03723 0.28176 0.39574
 H789 H 0.07510 0.26408 0.43795
 H790 H 0.09596 0.24598 0.45369
 H791 H 0.13405 0.25596 0.41402
 H792 H 0.11319 0.27383 0.39797
 C793 C 0.03728 0.67829 0.62668
 C794 C 0.04800 0.68639 0.61872
 C795 C 0.06075 0.69626 0.60936
 C796 C 0.06180 0.71422 0.61175
 C797 C 0.07416 0.72388 0.60271
 C798 C 0.08566 0.71569 0.59113
 C799 C 0.08449 0.69762 0.58880
 C800 C 0.07212 0.68798 0.59787
 C801 C 0.09872 0.72601 0.58148
 C802 C 0.10223 0.72254 0.56381
 C803 C 0.11418 0.73259 0.55462
 C804 C 0.12280 0.74619 0.56296
 C805 C 0.11954 0.74962 0.58057
 C806 C 0.10759 0.73960 0.58978
 C807 C 0.13461 0.75698 0.55337
 C808 C 0.14428 0.76630 0.54539
 H809 H 0.05302 0.72077 0.62056
 H810 H 0.07455 0.73779 0.60459
 H811 H 0.09328 0.69093 0.58013
 H812 H 0.07145 0.67408 0.59596
 H813 H 0.09546 0.71230 0.55700
 H814 H 0.11655 0.72989 0.54096
 H815 H 0.12615 0.76011 0.58716
 H816 H 0.10536 0.74244 0.60342
 C817 C 0.96444 0.68566 0.36588
 C818 C 0.95392 0.69369 0.37418
 C819 C 0.94154 0.70339 0.38420
 C820 C 0.93523 0.71921 0.37790
 C821 C 0.92350 0.72884 0.38780
 C822 C 0.91795 0.72277 0.40418
 C823 C 0.92431 0.70681 0.41036
 C824 C 0.93603 0.69719 0.40043
 C825 C 0.90568 0.73312 0.41482
 C826 C 0.90792 0.73457 0.43297
 C827 C 0.89644 0.74441 0.44297
 C828 C 0.88257 0.75290 0.43497
 C829 C 0.88021 0.75152 0.41694
 C830 C 0.89169 0.74170 0.40691
 C831 C 0.87078 0.76305 0.44527
 C832 C 0.86089 0.77155 0.45387
 H833 H 0.93948 0.72416 0.36539
 H834 H 0.91902 0.74118 0.38279
 H835 H 0.92011 0.70169 0.42281
 H836 H 0.94083 0.68496 0.40542
 H837 H 0.91869 0.72832 0.43941
 H838 H 0.89840 0.74544 0.45692
 H839 H 0.86949 0.75801 0.41063
 H840 H 0.88950 0.74065 0.39301
 C841 C 0.96597 0.31866 0.62804
 C842 C 0.95567 0.31017 0.61995
 C843 C 0.94352 0.29983 0.61032
 C844 C 0.92732 0.30660 0.60595
 C845 C 0.91551 0.29648 0.59667
 C846 C 0.91976 0.27945 0.59163
 C847 C 0.93608 0.27279 0.59609
 C848 C 0.94786 0.28292 0.60537
 C849 C 0.90722 0.26865 0.58183
 C850 C 0.91279 0.25795 0.56807
 C851 C 0.90101 0.24768 0.55894
 C852 C 0.88351 0.24795 0.56342
 C853 C 0.87782 0.25858 0.57706
 C854 C 0.88958 0.26887 0.58620
 C855 C 0.87142 0.23731 0.55406
 C856 C 0.86132 0.22837 0.54620
 H857 H 0.92384 0.31969 0.60969
 H858 H 0.90313 0.30205 0.59326
 H859 H 0.93965 0.25965 0.59261
 H860 H 0.96034 0.27753 0.60874
 H861 H 0.92624 0.25767 0.56424
 H862 H 0.90554 0.23954 0.54837
 H863 H 0.86431 0.25886 0.58066
 H864 H 0.88493 0.27680 0.59686
 C865 C 0.37349 0.03761 0.32335
 C866 C 0.38152 0.04864 0.31573
 C867 C 0.39111 0.06169 0.30646
 C868 C 0.38430 0.07840 0.30447
 C869 C 0.39344 0.09095 0.29510
 C870 C 0.40952 0.08694 0.28758
 C871 C 0.41630 0.07014 0.28977
 C872 C 0.40714 0.05761 0.29914
 C873 C 0.41904 0.10009 0.27721
 C874 C 0.43709 0.10151 0.27854
 C875 C 0.44609 0.11352 0.26834
 C876 C 0.43718 0.12426 0.25670
 C877 C 0.41921 0.12308 0.25541
 C878 C 0.41019 0.11110 0.26560
 C879 C 0.44651 0.13608 0.24568
 C880 C 0.45435 0.14575 0.23620
 H881 H 0.37191 0.08170 0.31011
 H882 H 0.38797 0.10382 0.29382
 H883 H 0.42852 0.06658 0.28394
 H884 H 0.41249 0.04469 0.30054
 H885 H 0.44425 0.09338 0.28751
 H886 H 0.46000 0.11433 0.26944
 H887 H 0.41220 0.13127 0.24637
 H888 H 0.39633 0.11016 0.26410
 C889 C 0.62783 0.03678 0.67849
 C890 C 0.61969 0.04792 0.68582
 C891 C 0.61002 0.06113 0.69479
 C892 C 0.61661 0.07796 0.69615
 C893 C 0.60745 0.09066 0.70530
 C894 C 0.59155 0.08667 0.71320
 C895 C 0.58496 0.06974 0.71160
 C896 C 0.59416 0.05706 0.70247
 C897 C 0.58204 0.09997 0.72338
 C898 C 0.56396 0.10121 0.72230
 C899 C 0.55499 0.11336 0.73235
 C900 C 0.56396 0.12443 0.74359
 C901 C 0.58196 0.12342 0.74464
 C902 C 0.59095 0.11129 0.73459
 C903 C 0.55468 0.13641 0.75449
 C904 C 0.54691 0.14622 0.76388
 H905 H 0.62888 0.08125 0.69023
 H906 H 0.61275 0.10363 0.70612
 H907 H 0.57288 0.06620 0.71774
 H908 H 0.58897 0.04405 0.70155
 H909 H 0.55676 0.09281 0.71364
 H910 H 0.54106 0.11403 0.73145
 H911 H 0.58901 0.13186 0.75338
 H912 H 0.60484 0.11050 0.73590
 C913 C 0.36748 0.96369 0.68083
 C914 C 0.37542 0.95255 0.68841
 C915 C 0.38490 0.93936 0.69762
 C916 C 0.37647 0.92443 0.70355
 C917 C 0.38558 0.91180 0.71286
 C918 C 0.40327 0.91395 0.71637
 C919 C 0.41165 0.92895 0.71024
 C920 C 0.40251 0.94157 0.70094
 C921 C 0.41288 0.90078 0.72667
 C922 C 0.42983 0.89611 0.72207
 C923 C 0.43902 0.88407 0.73207
 C924 C 0.43139 0.87654 0.74678
 C925 C 0.41448 0.88099 0.75138
 C926 C 0.40527 0.89301 0.74139
 C927 C 0.44105 0.86465 0.75746
 C928 C 0.44916 0.85491 0.76664
 H929 H 0.36284 0.92258 0.70103
 H930 H 0.37883 0.90030 0.71722
 H931 H 0.42519 0.93110 0.71294
 H932 H 0.40914 0.95311 0.69648
 H933 H 0.43596 0.90171 0.71069
 H934 H 0.45210 0.88072 0.72840
 H935 H 0.40849 0.87531 0.76280
 H936 H 0.39234 0.89651 0.74541
 C937 C 0.63081 0.96223 0.32060
 C938 C 0.62293 0.95131 0.31267
 C939 C 0.61360 0.93836 0.30302
 C940 C 0.61928 0.93342 0.28643
 C941 C 0.61011 0.92105 0.27688
 C942 C 0.59510 0.91346 0.28381
 C943 C 0.58954 0.91845 0.30055
 C944 C 0.59874 0.93082 0.31008
 C945 C 0.58517 0.90057 0.27351
 C946 C 0.56702 0.90099 0.27337
 C947 C 0.55769 0.88916 0.26329
 C948 C 0.56636 0.87675 0.25326
 C949 C 0.58440 0.87612 0.25343
 C950 C 0.59376 0.88794 0.26349
 C951 C 0.55677 0.86497 0.24243
 C952 C 0.54873 0.85530 0.23315
 H953 H 0.63074 0.93922 0.28081
 H954 H 0.61459 0.91767 0.26395
 H955 H 0.57815 0.91269 0.30633
 H956 H 0.59425 0.93453 0.32293
 H957 H 0.56004 0.91069 0.28075
 H958 H 0.54373 0.88981 0.26317
 H959 H 0.59124 0.86656 0.24572
 H960 H 0.60771 0.88715 0.26351
 C961 C 0.37129 0.32056 0.96406
 C962 C 0.37934 0.31312 0.95289
 C963 C 0.38889 0.30407 0.93963
 C964 C 0.40547 0.29782 0.94320
 C965 C 0.41461 0.28867 0.93046
 C966 C 0.40725 0.28563 0.91397
 C967 C 0.39062 0.29208 0.91047
 C968 C 0.38151 0.30124 0.92322
 C969 C 0.41676 0.27547 0.90063
 C970 C 0.40811 0.26307 0.89041
 C971 C 0.41716 0.25308 0.87825
 C972 C 0.43494 0.25538 0.87612
 C973 C 0.44363 0.26782 0.88607
 C974 C 0.43460 0.27781 0.89826
 C975 C 0.44434 0.24460 0.86413
 C976 C 0.45221 0.23531 0.85430
 H977 H 0.41127 0.29989 0.95588
 H978 H 0.42728 0.28367 0.93363
 H979 H 0.38470 0.29012 0.89783
 H980 H 0.36869 0.30606 0.92032
 H981 H 0.39443 0.26080 0.89210
 H982 H 0.41033 0.24342 0.87068
 H983 H 0.45739 0.26970 0.88452
 H984 H 0.44157 0.28740 0.90577
 C985 C 0.62873 0.67815 0.96138
 C986 C 0.62107 0.68609 0.95026
 C987 C 0.61193 0.69579 0.93716
 C988 C 0.60044 0.68741 0.92590
 C989 C 0.59134 0.69694 0.91339
 C990 C 0.59364 0.71500 0.91198
 C991 C 0.60530 0.72327 0.92330
 C992 C 0.61437 0.71372 0.93580
 C993 C 0.58375 0.72523 0.89896
 C994 C 0.59169 0.73883 0.88972
 C995 C 0.58222 0.74885 0.87791
 C996 C 0.56472 0.74541 0.87516
 C997 C 0.55674 0.73179 0.88413
 C998 C 0.56618 0.72175 0.89595
 C999 C 0.55485 0.75621 0.86354
 C1000 C 0.54661 0.76552 0.85404
 H1001 H 0.59848 0.67353 0.92683
 H1002 H 0.58261 0.69018 0.90473
 H1003 H 0.60717 0.73717 0.92272
 H1004 H 0.62318 0.72035 0.94450
 H1005 H 0.60524 0.74169 0.89159
 H1006 H 0.58853 0.75936 0.87102
 H1007 H 0.54316 0.72908 0.88216
 H1008 H 0.55965 0.71152 0.90302
 C1009 C 0.37062 0.67789 0.03832
 C1010 C 0.37846 0.68571 0.04937
 C1011 C 0.38777 0.69523 0.06246
 C1012 C 0.37880 0.70397 0.07563
 C1013 C 0.38780 0.71363 0.08807
 C1014 C 0.40591 0.71469 0.08749
 C1015 C 0.41482 0.70571 0.07428
 C1016 C 0.40579 0.69605 0.06185
 C1017 C 0.41546 0.72539 0.10036
 C1018 C 0.43126 0.71962 0.10732
 C1019 C 0.44043 0.72993 0.11909
 C1020 C 0.43394 0.74613 0.12407
 C1021 C 0.41818 0.75193 0.11734
 C1022 C 0.40899 0.74165 0.10557
 C1023 C 0.44361 0.75701 0.13574
 C1024 C 0.45170 0.76635 0.14531
 H1025 H 0.36485 0.70339 0.07624
 H1026 H 0.38059 0.72020 0.09821
 H1027 H 0.42873 0.70645 0.07332
 H1028 H 0.41286 0.68938 0.05167
 H1029 H 0.43648 0.70708 0.10374
 H1030 H 0.45262 0.72532 0.12423
 H1031 H 0.41308 0.76449 0.12104
 H1032 H 0.39701 0.74658 0.10027
 C1033 C 0.63115 0.31951 0.03624
 C1034 C 0.62324 0.31180 0.04733
 C1035 C 0.61376 0.30248 0.06046
 C1036 C 0.59693 0.29691 0.05705
 C1037 C 0.58778 0.28758 0.06965
 C1038 C 0.59538 0.28369 0.08586
 C1039 C 0.61229 0.28943 0.08920
 C1040 C 0.62141 0.29877 0.07657
 C1041 C 0.58579 0.27346 0.09910
 C1042 C 0.59421 0.26048 0.10883
 C1043 C 0.58506 0.25051 0.12093
 C1044 C 0.56742 0.25338 0.12349
 C1045 C 0.55896 0.26636 0.11401
 C1046 C 0.56807 0.27635 0.10189
 C1047 C 0.55790 0.24267 0.13546
 C1048 C 0.54991 0.23347 0.14528
 H1049 H 0.59091 0.29966 0.04459
 H1050 H 0.57489 0.28313 0.06660
 H1051 H 0.61841 0.28682 0.10162
 H1052 H 0.63442 0.30306 0.07935
 H1053 H 0.60777 0.25779 0.10681
 H1054 H 0.59171 0.24042 0.12813
 H1055 H 0.54530 0.26869 0.11589
 H1056 H 0.56128 0.28638 0.09477
 C1057 C 0.31602 0.03619 0.63264
 C1058 C 0.30768 0.04690 0.62487
 C1059 C 0.29752 0.05940 0.61544
 C1060 C 0.30527 0.07426 0.60846
 C1061 C 0.29541 0.08619 0.59899
 C1062 C 0.27767 0.08338 0.59634
 C1063 C 0.26999 0.06846 0.60351
 C1064 C 0.27987 0.05656 0.61299
 C1065 C 0.26721 0.09587 0.58604
 C1066 C 0.25467 0.08988 0.57423
 C1067 C 0.24480 0.10162 0.56454
 C1068 C 0.24731 0.11947 0.56652
 C1069 C 0.25977 0.12557 0.57821
 C1070 C 0.26967 0.11386 0.58790
 C1071 C 0.23707 0.13151 0.55658
 C1072 C 0.22844 0.14153 0.54823
 H1073 H 0.31895 0.07654 0.61023
 H1074 H 0.30173 0.09745 0.59346
 H1075 H 0.25632 0.06606 0.60192
 H1076 H 0.27373 0.04512 0.61836
 H1077 H 0.25264 0.07612 0.57231
 H1078 H 0.23523 0.09676 0.55549
 H1079 H 0.26179 0.13938 0.57987
 H1080 H 0.27908 0.11887 0.59703
 C1081 C 0.68211 0.03238 0.37012
 C1082 C 0.69052 0.04293 0.37800
 C1083 C 0.70078 0.05532 0.38744
 C1084 C 0.71849 0.05247 0.38959
 C1085 C 0.72850 0.06435 0.39889
 C1086 C 0.72093 0.07928 0.40617
 C1087 C 0.70312 0.08207 0.40388
 C1088 C 0.69312 0.07015 0.39458
 C1089 C 0.73157 0.09185 0.41614
 C1090 C 0.72902 0.10982 0.41415
 C1091 C 0.73914 0.12162 0.42347
 C1092 C 0.75190 0.11563 0.43491
 C1093 C 0.75449 0.09778 0.43701
 C1094 C 0.74441 0.08596 0.42770
 C1095 C 0.76236 0.12777 0.44444
 C1096 C 0.77116 0.13790 0.45243
 H1097 H 0.72456 0.04106 0.38407
 H1098 H 0.74221 0.06196 0.40021
 H1099 H 0.69689 0.09332 0.40950
 H1100 H 0.67942 0.07245 0.39304
 H1101 H 0.71939 0.11475 0.40521
 H1102 H 0.73705 0.13541 0.42171
 H1103 H 0.76430 0.09300 0.44587
 H1104 H 0.74652 0.07222 0.42969
 C1105 C 0.68105 0.96442 0.63221
 C1106 C 0.68963 0.95363 0.62485
 C1107 C 0.70005 0.94096 0.61597
 C1108 C 0.69225 0.92729 0.60694
 C1109 C 0.70240 0.91519 0.59802
 C1110 C 0.72050 0.91663 0.59802
 C1111 C 0.72820 0.93037 0.60723
 C1112 C 0.71803 0.94245 0.61612
 C1113 C 0.73130 0.90398 0.58831
 C1114 C 0.74689 0.89785 0.59544
 C1115 C 0.75718 0.88617 0.58615
 C1116 C 0.75204 0.88045 0.56964
 C1117 C 0.73653 0.88641 0.56246
 C1118 C 0.72621 0.89809 0.57173
 C1119 C 0.76274 0.86860 0.55999
 C1120 C 0.77171 0.85872 0.55184
 H1121 H 0.67833 0.92600 0.60676
 H1122 H 0.69610 0.90463 0.59125
 H1123 H 0.74208 0.93197 0.60728
 H1124 H 0.72420 0.95303 0.62301
 H1125 H 0.75105 0.90198 0.60826
 H1126 H 0.76915 0.88160 0.59184
 H1127 H 0.73246 0.88210 0.54966
 H1128 H 0.71441 0.90274 0.56579
 C1129 C 0.32185 0.96516 0.37129
 C1130 C 0.31361 0.95421 0.37878
 C1131 C 0.30353 0.94132 0.38776
 C1132 C 0.31076 0.92522 0.39200
 C1133 C 0.30091 0.91276 0.40076
 C1134 C 0.28367 0.91626 0.40536
 C1135 C 0.27655 0.93251 0.40105
 C1136 C 0.28642 0.94494 0.39231
 C1137 C 0.27314 0.90309 0.41465
 C1138 C 0.25570 0.90063 0.41022
 C1139 C 0.24565 0.88852 0.41921
 C1140 C 0.25287 0.87871 0.43272
 C1141 C 0.27024 0.88095 0.43714
 C1142 C 0.28033 0.89305 0.42815
 C1143 C 0.24229 0.86665 0.44223
 C1144 C 0.23313 0.85678 0.45017
 H1145 H 0.32398 0.92227 0.38850
 H1146 H 0.30669 0.90031 0.40372
 H1147 H 0.26342 0.93570 0.40464
 H1148 H 0.28072 0.95739 0.38915
 H1149 H 0.24985 0.90798 0.39973
 H1150 H 0.23222 0.88688 0.41566
 H1151 H 0.27593 0.87347 0.44763
 H1152 H 0.29366 0.89479 0.43200
 C1153 C 0.03429 0.37149 0.68030
 C1154 C 0.04465 0.37963 0.68868
 C1155 C 0.05691 0.38929 0.69888
 C1156 C 0.05112 0.40145 0.71109
 C1157 C 0.06296 0.41065 0.72124
 C1158 C 0.08079 0.40778 0.71931
 C1159 C 0.08649 0.39556 0.70695
 C1160 C 0.07462 0.38639 0.69680
 C1161 C 0.09337 0.41740 0.73025
 C1162 C 0.10788 0.40892 0.73726
 C1163 C 0.11962 0.41794 0.74770
 C1164 C 0.11703 0.43555 0.75126
 C1165 C 0.10267 0.44413 0.74432
 C1166 C 0.09091 0.43513 0.73389
 C1167 C 0.12910 0.44480 0.76206
 C1168 C 0.13922 0.45255 0.77109
 H1169 H 0.03743 0.40374 0.71286
 H1170 H 0.05816 0.41978 0.73080
 H1171 H 0.10013 0.39322 0.70501
 H1172 H 0.07924 0.37702 0.68737
 H1173 H 0.11002 0.39524 0.73489
 H1174 H 0.13067 0.41116 0.75304
 H1175 H 0.10057 0.45777 0.74695
 H1176 H 0.07999 0.44208 0.72850
 C1177 C 0.03462 0.63519 0.31370
 C1178 C 0.04511 0.62711 0.30542
 C1179 C 0.05741 0.61730 0.29542
 C1180 C 0.05311 0.61155 0.27867
 C1181 C 0.06488 0.60175 0.26901
 C1182 C 0.08115 0.59755 0.27599
 C1183 C 0.08540 0.60347 0.29280
 C1184 C 0.07359 0.61327 0.30245
 C1185 C 0.09358 0.58696 0.26579
 C1186 C 0.11127 0.59102 0.26579
 C1187 C 0.12293 0.58105 0.25614
 C1188 C 0.11707 0.56690 0.24639
 C1189 C 0.09951 0.56273 0.24633
 C1190 C 0.08783 0.57268 0.25596
 C1191 C 0.12906 0.55667 0.23642
 C1192 C 0.13909 0.54810 0.22804
 H1193 H 0.04063 0.61463 0.27309
 H1194 H 0.06133 0.59759 0.25602
 H1195 H 0.09773 0.60028 0.29860
 H1196 H 0.07702 0.61761 0.31543
 H1197 H 0.11606 0.60205 0.27306
 H1198 H 0.13650 0.58442 0.25623
 H1199 H 0.09485 0.55177 0.23886
 H1200 H 0.07433 0.56908 0.25589
 C1201 C 0.96222 0.37349 0.32252
 C1202 C 0.95124 0.38147 0.31479
 C1203 C 0.93817 0.39086 0.30536
 C1204 C 0.93964 0.40881 0.30306
 C1205 C 0.92718 0.41785 0.29349
 C1206 C 0.91309 0.40903 0.28607
 C1207 C 0.91166 0.39101 0.28862
 C1208 C 0.92412 0.38200 0.29819
 C1209 C 0.90016 0.41852 0.27541
 C1210 C 0.89366 0.41115 0.25997
 C1211 C 0.88178 0.42021 0.24971
 C1212 C 0.87621 0.43674 0.25473
 C1213 C 0.88250 0.44415 0.27012
 C1214 C 0.89440 0.43511 0.28040
 C1215 C 0.86435 0.44619 0.24385
 C1216 C 0.85460 0.45404 0.23448
 H1217 H 0.95050 0.41578 0.30851
 H1218 H 0.92877 0.43167 0.29158
 H1219 H 0.90085 0.38389 0.28328
 H1220 H 0.92284 0.36811 0.29993
 H1221 H 0.89802 0.39852 0.25563
 H1222 H 0.87706 0.41439 0.23777
 H1223 H 0.87827 0.45694 0.27413
 H1224 H 0.89900 0.44104 0.29232
 C1225 C 0.96791 0.62719 0.67936
 C1226 C 0.95747 0.61923 0.68784
 C1227 C 0.94514 0.60974 0.69813
 C1228 C 0.95084 0.59859 0.71134
 C1229 C 0.93890 0.58949 0.72150
 C1230 C 0.92108 0.59145 0.71858
 C1231 C 0.91549 0.60267 0.70524
 C1232 C 0.92745 0.61175 0.69509
 C1233 C 0.90840 0.58189 0.72946
 C1234 C 0.89320 0.59007 0.73523
 C1235 C 0.88134 0.58110 0.74559
 C1236 C 0.88449 0.56385 0.75031
 C1237 C 0.89954 0.55558 0.74461
 C1238 C 0.91143 0.56452 0.73426
 C1239 C 0.87230 0.55464 0.76102
 C1240 C 0.86211 0.54689 0.76998
 H1241 H 0.96450 0.59700 0.71386
 H1242 H 0.94361 0.58114 0.73182
 H1243 H 0.90188 0.60428 0.70252
 H1244 H 0.92291 0.62033 0.68487
 H1245 H 0.89061 0.60348 0.73195
 H1246 H 0.86974 0.58764 0.74997
 H1247 H 0.90209 0.54220 0.74814
 H1248 H 0.92290 0.55780 0.72984
 C1249 C 0.67888 0.62805 0.96377
 C1250 C 0.68715 0.62016 0.95306
 C1251 C 0.69725 0.61085 0.94039
 C1252 C 0.68977 0.60534 0.92474
 C1253 C 0.69969 0.59644 0.91238
 C1254 C 0.71724 0.59297 0.91553
 C1255 C 0.72461 0.59853 0.93134
 C1256 C 0.71468 0.60740 0.94366
 C1257 C 0.72786 0.58361 0.90242
 C1258 C 0.74497 0.58874 0.89911
 C1259 C 0.75508 0.57976 0.88701
 C1260 C 0.74824 0.56556 0.87802
 C1261 C 0.73120 0.56041 0.88111
 C1262 C 0.72106 0.56938 0.89322
 C1263 C 0.75887 0.55611 0.86589
 C1264 C 0.76802 0.54822 0.85595
 H1265 H 0.67630 0.60798 0.92204
 H1266 H 0.69369 0.59252 0.90027
 H1267 H 0.73801 0.59584 0.93427
 H1268 H 0.72059 0.61157 0.95575
 H1269 H 0.75051 0.59978 0.90579
 H1270 H 0.76825 0.58387 0.88470
 H1271 H 0.72580 0.54939 0.87428
 H1272 H 0.70801 0.56499 0.89561
 C1273 C 0.31983 0.36896 0.96546
 C1274 C 0.31170 0.37677 0.95458
 C1275 C 0.30182 0.38604 0.94170
 C1276 C 0.31016 0.39482 0.92813
 C1277 C 0.30053 0.40387 0.91566
 C1278 C 0.28240 0.40422 0.91661
 C1279 C 0.27415 0.39534 0.93031
 C1280 C 0.28380 0.38633 0.94276
 C1281 C 0.27211 0.41387 0.90344
 C1282 C 0.25662 0.40690 0.89695
 C1283 C 0.24673 0.41616 0.88487
 C1284 C 0.25217 0.43249 0.87910
 C1285 C 0.26762 0.43948 0.88536
 C1286 C 0.27755 0.43024 0.89744
 C1287 C 0.24165 0.44221 0.86710
 C1288 C 0.23259 0.45033 0.85726
 H1289 H 0.32411 0.39465 0.92717
 H1290 H 0.30724 0.41040 0.90516
 H1291 H 0.26023 0.39558 0.93155
 H1292 H 0.27721 0.37963 0.95325
 H1293 H 0.25221 0.39424 0.90113
 H1294 H 0.23479 0.41061 0.88009
 H1295 H 0.27191 0.45215 0.88104
 H1296 H 0.28930 0.43604 0.90235
 C1297 C 0.32119 0.62737 0.03715
 C1298 C 0.31348 0.61917 0.04803
 C1299 C 0.30410 0.60936 0.06088
 C1300 C 0.30331 0.61511 0.07817
 C1301 C 0.29388 0.60576 0.09056
 C1302 C 0.28511 0.59050 0.08580
 C1303 C 0.28609 0.58477 0.06840
 C1304 C 0.29551 0.59415 0.05605
 C1305 C 0.27472 0.58077 0.09881
 C1306 C 0.27472 0.56251 0.09893
 C1307 C 0.26453 0.55337 0.11086
 C1308 C 0.25422 0.56235 0.12282
 C1309 C 0.25425 0.58050 0.12292
 C1310 C 0.26443 0.58966 0.11102
 C1311 C 0.24324 0.55296 0.13465
 C1312 C 0.23379 0.54516 0.14437
 H1313 H 0.30993 0.62686 0.08207
 H1314 H 0.29355 0.61039 0.10388
 H1315 H 0.27929 0.57323 0.06427
 H1316 H 0.29599 0.58961 0.04268
 H1317 H 0.28265 0.55529 0.08985
 H1318 H 0.26461 0.53932 0.11066
 H1319 H 0.24624 0.58757 0.13207
 H1320 H 0.26396 0.60369 0.11111
 C1321 C 0.68198 0.36892 0.03456
 C1322 C 0.69025 0.37687 0.04518
 C1323 C 0.70033 0.38640 0.05768
 C1324 C 0.69229 0.39460 0.07179
 C1325 C 0.70210 0.40399 0.08382
 C1326 C 0.72011 0.40528 0.08188
 C1327 C 0.72807 0.39695 0.06767
 C1328 C 0.71823 0.38758 0.05566
 C1329 C 0.73057 0.41534 0.09455
 C1330 C 0.74671 0.40910 0.10017
 C1331 C 0.75664 0.41867 0.11195
 C1332 C 0.75059 0.43458 0.11826
 C1333 C 0.73453 0.44087 0.11280
 C1334 C 0.72457 0.43132 0.10103
 C1335 C 0.76090 0.44447 0.13026
 C1336 C 0.76957 0.45275 0.14029
 H1337 H 0.67844 0.39373 0.07350
 H1338 H 0.69563 0.41008 0.09473
 H1339 H 0.74186 0.39790 0.06568
 H1340 H 0.72458 0.38134 0.04475
 H1341 H 0.75158 0.39675 0.09560
 H1342 H 0.76903 0.41366 0.11613
 H1343 H 0.72975 0.45319 0.11757
 H1344 H 0.71231 0.43657 0.09679
 C1345 C 0.96698 0.67773 0.62889
 C1346 C 0.95589 0.68575 0.62135
 C1347 C 0.94274 0.69547 0.61237
 C1348 C 0.93406 0.68818 0.59816
 C1349 C 0.92144 0.69774 0.58932
 C1350 C 0.91734 0.71473 0.59460
 C1351 C 0.92611 0.72191 0.60895
 C1352 C 0.93872 0.71233 0.61776
 C1353 C 0.90414 0.72503 0.58508
 C1354 C 0.89249 0.73568 0.59423
 C1355 C 0.88038 0.74574 0.58523
 C1356 C 0.87974 0.74528 0.56700
 C1357 C 0.89116 0.73461 0.55779
 C1358 C 0.90327 0.72453 0.56676
 C1359 C 0.86771 0.75613 0.55775
 C1360 C 0.85782 0.76547 0.55003
 H1361 H 0.93705 0.67512 0.59390
 H1362 H 0.91478 0.69178 0.57846
 H1363 H 0.92343 0.73503 0.61318
 H1364 H 0.94540 0.71813 0.62871
 H1365 H 0.89268 0.73618 0.60834
 H1366 H 0.87160 0.75395 0.59250
 H1367 H 0.89084 0.73422 0.54367
 H1368 H 0.91220 0.71664 0.55934
 C1369 C 0.96299 0.32164 0.37126
 C1370 C 0.95227 0.31330 0.37898
 C1371 C 0.93968 0.30309 0.38821
 C1372 C 0.94454 0.28733 0.39581
 C1373 C 0.93238 0.27728 0.40469
 C1374 C 0.91515 0.28288 0.40609
 C1375 C 0.91039 0.29880 0.39846
 C1376 C 0.92259 0.30882 0.38956
 C1377 C 0.90222 0.27211 0.41544
 C1378 C 0.88990 0.27984 0.42647
 C1379 C 0.87796 0.26961 0.43549
 C1380 C 0.87816 0.25155 0.43358
 C1381 C 0.89028 0.24377 0.42255
 C1382 C 0.90223 0.25396 0.41354
 C1383 C 0.86615 0.24092 0.44311
 C1384 C 0.85633 0.23176 0.45109
 H1385 H 0.95775 0.28280 0.39489
 H1386 H 0.93650 0.26523 0.41063
 H1387 H 0.89719 0.30336 0.39914
 H1388 H 0.91869 0.32099 0.38368
 H1389 H 0.88969 0.29375 0.42836
 H1390 H 0.86867 0.27576 0.44405
 H1391 H 0.89053 0.22981 0.42095
 H1392 H 0.91138 0.24764 0.40496
 C1393 C 0.03565 0.32149 0.62911
 C1394 C 0.04659 0.31378 0.62104
 C1395 C 0.05945 0.30441 0.61130
 C1396 C 0.07697 0.30640 0.61523
 C1397 C 0.08942 0.29713 0.60585
 C1398 C 0.08448 0.28576 0.59240
 C1399 C 0.06683 0.28391 0.58853
 C1400 C 0.05442 0.29317 0.59793
 C1401 C 0.09763 0.27568 0.58259
 C1402 C 0.09599 0.27325 0.56447
 C1403 C 0.10806 0.26330 0.55533
 C1404 C 0.12193 0.25565 0.56414
 C1405 C 0.12378 0.25814 0.58212
 C1406 C 0.11173 0.26811 0.59129
 C1407 C 0.13391 0.24481 0.55482
 C1408 C 0.14372 0.23548 0.54701
 H1409 H 0.08101 0.31511 0.62553
 H1410 H 0.10290 0.29899 0.60900
 H1411 H 0.06260 0.27507 0.57844
 H1412 H 0.04089 0.29149 0.59482
 H1413 H 0.08541 0.27910 0.55737
 H1414 H 0.10650 0.26146 0.54141
 H1415 H 0.13442 0.25221 0.58909
 H1416 H 0.11324 0.26955 0.60525
 C1417 C 0.03406 0.68581 0.36447
 C1418 C 0.04465 0.69404 0.37243
 C1419 C 0.05711 0.70404 0.38201
 C1420 C 0.05480 0.72194 0.38396
 C1421 C 0.06671 0.73168 0.39350
 C1422 C 0.08110 0.72362 0.40123
 C1423 C 0.08336 0.70563 0.39911
 C1424 C 0.07142 0.69591 0.38957
 C1425 C 0.09362 0.73394 0.41156
 C1426 C 0.11145 0.73075 0.41021
 C1427 C 0.12320 0.74052 0.41993
 C1428 C 0.11730 0.75358 0.43111
 C1429 C 0.09960 0.75683 0.43257
 C1430 C 0.08783 0.74709 0.42287
 C1431 C 0.12939 0.76368 0.44106
 C1432 C 0.13948 0.77219 0.44940
 H1433 H 0.04379 0.72837 0.37812
 H1434 H 0.06474 0.74553 0.39468
 H1435 H 0.09419 0.69902 0.40508
 H1436 H 0.07329 0.68205 0.38819
 H1437 H 0.11632 0.72087 0.40147
 H1438 H 0.13689 0.73793 0.41867
 H1439 H 0.09489 0.76687 0.44123
 H1440 H 0.07418 0.74969 0.42438
 C1441 C 0.62823 0.96575 0.68154
 C1442 C 0.62005 0.95531 0.68984
 C1443 C 0.61021 0.94303 0.69990
 C1444 C 0.61116 0.92529 0.69614
 C1445 C 0.60165 0.91339 0.70599
 C1446 C 0.59104 0.91908 0.71975
 C1447 C 0.59016 0.93695 0.72340
 C1448 C 0.59969 0.94882 0.71354
 C1449 C 0.58099 0.90646 0.73031
 C1450 C 0.56402 0.91032 0.73559
 C1451 C 0.55463 0.89850 0.74566
 C1452 C 0.56205 0.88268 0.75058
 C1453 C 0.57889 0.87870 0.74536
 C1454 C 0.58831 0.89049 0.73528
 C1455 C 0.55241 0.87057 0.76104
 C1456 C 0.54437 0.86041 0.76981
 H1457 H 0.61923 0.92066 0.68558
 H1458 H 0.60243 0.89975 0.70272
 H1459 H 0.58231 0.94173 0.73405
 H1460 H 0.59890 0.96252 0.71661
 H1461 H 0.55794 0.92239 0.73178
 H1462 H 0.54158 0.90170 0.74959
 H1463 H 0.58478 0.86651 0.74914
 H1464 H 0.60140 0.88723 0.73162
 C1465 C 0.37359 0.96660 0.32125
 C1466 C 0.38160 0.95605 0.31292
 C1467 C 0.39111 0.94357 0.30279
 C1468 C 0.40765 0.94759 0.29668
 C1469 C 0.41677 0.93563 0.28654
 C1470 C 0.40946 0.91946 0.28233
 C1471 C 0.39285 0.91552 0.28860
 C1472 C 0.38375 0.92750 0.29875
 C1473 C 0.41905 0.90685 0.27134
 C1474 C 0.41045 0.89721 0.25842
 C1475 C 0.41951 0.88544 0.24799
 C1476 C 0.43727 0.88313 0.25032
 C1477 C 0.44594 0.89262 0.26315
 C1478 C 0.43691 0.90440 0.27359
 C1479 C 0.44658 0.87104 0.23954
 C1480 C 0.45436 0.86091 0.23050
 H1481 H 0.41344 0.96002 0.29966
 H1482 H 0.42943 0.93916 0.28172
 H1483 H 0.38695 0.90311 0.28578
 H1484 H 0.37096 0.92424 0.30343
 H1485 H 0.39677 0.89896 0.25619
 H1486 H 0.41267 0.87819 0.23806
 H1487 H 0.45968 0.89089 0.26511
 H1488 H 0.44386 0.91145 0.28357
 C1489 C 0.63166 0.03332 0.31931
 C1490 C 0.62382 0.04402 0.31100
 C1491 C 0.61437 0.05665 0.30098
 C1492 C 0.62154 0.06358 0.28574
 C1493 C 0.61224 0.07560 0.27582
 C1494 C 0.59561 0.08083 0.28100
 C1495 C 0.58855 0.07383 0.29638
 C1496 C 0.59788 0.06182 0.30629
 C1497 C 0.58562 0.09342 0.27034
 C1498 C 0.56782 0.09108 0.26761
 C1499 C 0.55845 0.10285 0.25746
 C1500 C 0.56672 0.11713 0.24991
 C1501 C 0.58441 0.11961 0.25258
 C1502 C 0.59381 0.10784 0.26271
 C1503 C 0.55708 0.12923 0.23943
 C1504 C 0.54901 0.13937 0.23065
 H1505 H 0.63426 0.05960 0.28146
 H1506 H 0.61793 0.08057 0.26393
 H1507 H 0.57588 0.07776 0.30084
 H1508 H 0.59221 0.05655 0.31808
 H1509 H 0.56119 0.07999 0.27310
 H1510 H 0.54477 0.10078 0.25544
 H1511 H 0.59093 0.13066 0.24685
 H1512 H 0.60744 0.11014 0.26475
 C1513 C 0.36806 0.03474 0.68283
 C1514 C 0.37628 0.04519 0.69104
 C1515 C 0.38615 0.05752 0.70096
 C1516 C 0.38397 0.07533 0.69816
 C1517 C 0.39352 0.08729 0.70788
 C1518 C 0.40539 0.08158 0.72053
 C1519 C 0.40748 0.06364 0.72323
 C1520 C 0.39792 0.05171 0.71351
 C1521 C 0.41550 0.09425 0.73092
 C1522 C 0.43299 0.09116 0.73471
 C1523 C 0.44246 0.10304 0.74460
 C1524 C 0.43459 0.11815 0.75082
 C1525 C 0.41721 0.12138 0.74709
 C1526 C 0.40771 0.10952 0.73720
 C1527 C 0.44431 0.13033 0.76107
 C1528 C 0.45244 0.14053 0.76968
 H1529 H 0.37492 0.07997 0.68845
 H1530 H 0.39177 0.10100 0.70534
 H1531 H 0.41634 0.05883 0.73303
 H1532 H 0.39966 0.03795 0.71583
 H1533 H 0.43941 0.07964 0.72987
 H1534 H 0.45593 0.10044 0.74736
 H1535 H 0.41097 0.13302 0.75189
 H1536 H 0.39422 0.11216 0.73470
 C1537 C 0.62742 0.67953 0.03272
 C1538 C 0.61937 0.68788 0.04325
 C1539 C 0.60979 0.69802 0.05570
 C1540 C 0.61685 0.70162 0.07209
 C1541 C 0.60769 0.71176 0.08405
 C1542 C 0.59133 0.71844 0.07976
 C1543 C 0.58431 0.71467 0.06327
 C1544 C 0.59350 0.70453 0.05133
 C1545 C 0.58167 0.72940 0.09238
 C1546 C 0.56371 0.72755 0.09434
 C1547 C 0.55464 0.73794 0.10616
 C1548 C 0.56338 0.75031 0.11616
 C1549 C 0.58123 0.75224 0.11431
 C1550 C 0.59033 0.74187 0.10251
 C1551 C 0.55404 0.76100 0.12832
 C1552 C 0.54625 0.76996 0.13853
 H1553 H 0.62945 0.69662 0.07562
 H1554 H 0.61334 0.71423 0.09672
 H1555 H 0.57186 0.71980 0.05948
 H1556 H 0.58794 0.70188 0.03865
 H1557 H 0.55671 0.71793 0.08690
 H1558 H 0.54083 0.73629 0.10753
 H1559 H 0.58812 0.76181 0.12195
 H1560 H 0.60410 0.74379 0.10113
 C1561 C 0.37093 0.31863 0.03556
 C1562 C 0.37907 0.31050 0.04618
 C1563 C 0.38885 0.30063 0.05870
 C1564 C 0.38099 0.29466 0.07400
 C1565 C 0.39042 0.28481 0.08600
 C1566 C 0.40786 0.28080 0.08285
 C1567 C 0.41566 0.28694 0.06746
 C1568 C 0.40620 0.29677 0.05548
 C1569 C 0.41784 0.27014 0.09547
 C1570 C 0.43510 0.27423 0.09935
 C1571 C 0.44452 0.26408 0.11111
 C1572 C 0.43683 0.24973 0.11913
 C1573 C 0.41966 0.24557 0.11538
 C1574 C 0.41021 0.25570 0.10364
 C1575 C 0.44655 0.23923 0.13116
 C1576 C 0.45468 0.23041 0.14122
 H1577 H 0.36757 0.29759 0.07664
 H1578 H 0.38411 0.28048 0.09782
 H1579 H 0.42899 0.28388 0.06454
 H1580 H 0.41240 0.30126 0.04364
 H1581 H 0.44127 0.28538 0.09345
 H1582 H 0.45779 0.26744 0.11396
 H1583 H 0.41359 0.23446 0.12148
 H1584 H 0.39703 0.25208 0.10075
 C1585 C 0.63077 0.31865 0.96467
 C1586 C 0.62273 0.31055 0.95397
 C1587 C 0.61314 0.30070 0.94132
 C1588 C 0.59567 0.30429 0.93845
 C1589 C 0.58627 0.29449 0.92641
 C1590 C 0.59424 0.28094 0.91711
 C1591 C 0.61183 0.27750 0.92004
 C1592 C 0.62121 0.28733 0.93206
 C1593 C 0.58420 0.27033 0.90454
 C1594 C 0.58662 0.25226 0.90365
 C1595 C 0.57712 0.24225 0.89189
 C1596 C 0.56509 0.25016 0.88084
 C1597 C 0.56259 0.26813 0.88159
 C1598 C 0.57207 0.27816 0.89336
 C1599 C 0.55530 0.23983 0.86875
 C1600 C 0.54713 0.23113 0.85864
 H1601 H 0.58928 0.31457 0.94560
 H1602 H 0.57270 0.29731 0.92462
 H1603 H 0.61839 0.26732 0.91291
 H1604 H 0.63474 0.28446 0.93416
 H1605 H 0.59569 0.24582 0.91224
 H1606 H 0.57912 0.22835 0.89145
 H1607 H 0.55334 0.27439 0.87306
 H1608 H 0.57007 0.29206 0.89358
 C1609 C 0.36974 0.67996 0.96692
 C1610 C 0.37748 0.68844 0.95626
 C1611 C 0.38678 0.69869 0.94369
 C1612 C 0.40141 0.69189 0.93546
 C1613 C 0.41061 0.70195 0.92346
 C1614 C 0.40529 0.71897 0.91954
 C1615 C 0.39051 0.72566 0.92785
 C1616 C 0.38134 0.71558 0.93984
 C1617 C 0.41515 0.72974 0.90694
 C1618 C 0.40651 0.74052 0.89495
 C1619 C 0.41582 0.75070 0.88315
 C1620 C 0.43386 0.75028 0.88317
 C1621 C 0.44259 0.73961 0.89502
 C1622 C 0.43331 0.72940 0.90683
 C1623 C 0.44342 0.76080 0.87103
 C1624 C 0.45140 0.76961 0.86084
 H1625 H 0.40571 0.67882 0.93832
 H1626 H 0.42178 0.69634 0.91712
 H1627 H 0.38622 0.73878 0.92529
 H1628 H 0.37007 0.72100 0.94619
 H1629 H 0.39255 0.74091 0.89455
 H1630 H 0.40893 0.75888 0.87400
 H1631 H 0.45656 0.73921 0.89518
 H1632 H 0.44034 0.72143 0.91603
 C1633 C 0.68107 0.96220 0.37167
 C1634 C 0.68888 0.95131 0.37975
 C1635 C 0.69839 0.93842 0.38935
 C1636 C 0.69080 0.92995 0.40356
 C1637 C 0.70017 0.91759 0.41300
 C1638 C 0.71726 0.91355 0.40833
 C1639 C 0.72475 0.92211 0.39399
 C1640 C 0.71537 0.93446 0.38458
 C1641 C 0.72735 0.90062 0.41847
 C1642 C 0.73835 0.88883 0.40992
 C1643 C 0.74825 0.87703 0.41949
 C1644 C 0.74729 0.87681 0.43771
 C1645 C 0.73625 0.88834 0.44633
 C1646 C 0.72633 0.90016 0.43679
 C1647 C 0.75804 0.86513 0.44754
 C1648 C 0.76732 0.85554 0.45568
 H1649 H 0.67766 0.93291 0.40735
 H1650 H 0.69398 0.91109 0.42385
 H1651 H 0.73796 0.91948 0.39023
 H1652 H 0.72139 0.94099 0.37365
 H1653 H 0.73925 0.88870 0.39583
 H1654 H 0.75675 0.86815 0.41268
 H1655 H 0.73548 0.88834 0.46044
 H1656 H 0.71815 0.90920 0.44376
 C1657 C 0.31564 0.96563 0.63105
 C1658 C 0.30730 0.95521 0.62293
 C1659 C 0.29719 0.94293 0.61319
 C1660 C 0.30448 0.92721 0.60783
 C1661 C 0.29467 0.91535 0.59826
 C1662 C 0.27742 0.91909 0.59392
 C1663 C 0.27021 0.93493 0.59942
 C1664 C 0.28004 0.94675 0.60899
 C1665 C 0.26700 0.90658 0.58365
 C1666 C 0.25579 0.91246 0.57048
 C1667 C 0.24594 0.90069 0.56086
 C1668 C 0.24715 0.88290 0.56427
 C1669 C 0.25828 0.87690 0.57732
 C1670 C 0.26816 0.88865 0.58695
 C1671 C 0.23693 0.87082 0.55440
 C1672 C 0.22834 0.86073 0.54613
 H1673 H 0.31777 0.92414 0.61097
 H1674 H 0.30065 0.90337 0.59403
 H1675 H 0.25690 0.93808 0.59650
 H1676 H 0.27425 0.95887 0.61313
 H1677 H 0.25480 0.92615 0.56747
 H1678 H 0.23741 0.90546 0.55075
 H1679 H 0.25928 0.86315 0.58009
 H1680 H 0.27650 0.88373 0.59714
 C1681 C 0.32174 0.03636 0.37305
 C1682 C 0.31348 0.04708 0.38090
 C1683 C 0.30338 0.05978 0.39014
 C1684 C 0.28565 0.05723 0.39241
 C1685 C 0.27575 0.06960 0.40122
 C1686 C 0.28345 0.08472 0.40790
 C1687 C 0.30131 0.08714 0.40562
 C1688 C 0.31119 0.07475 0.39678
 C1689 C 0.27287 0.09789 0.41720
 C1690 C 0.27915 0.10606 0.43232
 C1691 C 0.26901 0.11820 0.44122
 C1692 C 0.25250 0.12236 0.43510
 C1693 C 0.24621 0.11440 0.41999
 C1694 C 0.25631 0.10226 0.41109
 C1695 C 0.24184 0.13449 0.44447
 C1696 C 0.23266 0.14445 0.45228
 H1697 H 0.27948 0.04568 0.38737
 H1698 H 0.26209 0.06723 0.40299
 H1699 H 0.30758 0.09873 0.41043
 H1700 H 0.32490 0.07689 0.39505
 H1701 H 0.29176 0.10283 0.43746
 H1702 H 0.27398 0.12422 0.45294
 H1703 H 0.23346 0.11754 0.41513
 H1704 H 0.25120 0.09639 0.39936
 C1705 C 0.68011 0.03525 0.62950
 C1706 C 0.68831 0.04587 0.62146
 C1707 C 0.69827 0.05843 0.61189
 C1708 C 0.69340 0.07592 0.61185
 C1709 C 0.70323 0.08813 0.60271
 C1710 C 0.71809 0.08299 0.59352
 C1711 C 0.72282 0.06535 0.59358
 C1712 C 0.71297 0.05318 0.60270
 C1713 C 0.72869 0.09594 0.58398
 C1714 C 0.74682 0.09494 0.58435
 C1715 C 0.75682 0.10699 0.57524
 C1716 C 0.74888 0.12021 0.56564
 C1717 C 0.73086 0.12139 0.56524
 C1718 C 0.72082 0.10934 0.57437
 C1719 C 0.75928 0.13238 0.55605
 C1720 C 0.76828 0.14233 0.54802
 H1721 H 0.68206 0.08014 0.61896
 H1722 H 0.69937 0.10162 0.60308
 H1723 H 0.73404 0.06095 0.58642
 H1724 H 0.71683 0.03967 0.60260
 H1725 H 0.75327 0.08494 0.59183
 H1726 H 0.77076 0.10599 0.57567
 H1727 H 0.72458 0.13154 0.55780
 H1728 H 0.70690 0.11034 0.57366
 C1729 C 0.96446 0.63462 0.31436
 C1730 C 0.95398 0.62645 0.30619
 C1731 C 0.94167 0.61663 0.29623
 C1732 C 0.94676 0.60860 0.28070
 C1733 C 0.93487 0.59903 0.27097
 C1734 C 0.91769 0.59736 0.27666
 C1735 C 0.91270 0.60548 0.29231
 C1736 C 0.92462 0.61505 0.30202
 C1737 C 0.90507 0.58719 0.26632
 C1738 C 0.89310 0.57626 0.27467
 C1739 C 0.88130 0.56660 0.26490
 C1740 C 0.88130 0.56774 0.24669
 C1741 C 0.89312 0.57859 0.23826
 C1742 C 0.90493 0.58826 0.24800
 C1743 C 0.86919 0.55776 0.23664
 C1744 C 0.85907 0.54941 0.22818
 H1745 H 0.95995 0.60969 0.27614
 H1746 H 0.93918 0.59275 0.25912
 H1747 H 0.89952 0.60461 0.29692
 H1748 H 0.92053 0.62125 0.31400
 H1749 H 0.89303 0.57499 0.28873
 H1750 H 0.87223 0.55820 0.27155
 H1751 H 0.89319 0.57961 0.22417
 H1752 H 0.91383 0.59672 0.24120
 C1753 C 0.96370 0.36938 0.67946
 C1754 C 0.95268 0.37698 0.68750
 C1755 C 0.93967 0.38613 0.69726
 C1756 C 0.93957 0.38523 0.71548
 C1757 C 0.92715 0.39432 0.72503
 C1758 C 0.91464 0.40447 0.71647
 C1759 C 0.91481 0.40523 0.69813
 C1760 C 0.92725 0.39611 0.68860
 C1761 C 0.90163 0.41435 0.72666
 C1762 C 0.89702 0.43134 0.72179
 C1763 C 0.88517 0.44081 0.73171
 C1764 C 0.87773 0.43343 0.74659
 C1765 C 0.88207 0.41647 0.75143
 C1766 C 0.89393 0.40699 0.74155
 C1767 C 0.86601 0.44337 0.75719
 C1768 C 0.85641 0.45166 0.76634
 H1769 H 0.94917 0.37760 0.72233
 H1770 H 0.92752 0.39366 0.73913
 H1771 H 0.90523 0.41276 0.69115
 H1772 H 0.92719 0.39687 0.67449
 H1773 H 0.90288 0.43745 0.71053
 H1774 H 0.88196 0.45396 0.72789
 H1775 H 0.87637 0.41062 0.76293
 H1776 H 0.89702 0.39386 0.74550
 C1777 C 0.03835 0.62711 0.67735
 C1778 C 0.04922 0.61908 0.68519
 C1779 C 0.06202 0.60946 0.69475
 C1780 C 0.07664 0.61787 0.70129
 C1781 C 0.08884 0.60861 0.71101
 C1782 C 0.08654 0.59081 0.71433
 C1783 C 0.07186 0.58245 0.70757
 C1784 C 0.05970 0.59172 0.69785
 C1785 C 0.09921 0.58107 0.72509
 C1786 C 0.09355 0.56887 0.73748
 C1787 C 0.10542 0.55992 0.74784
 C1788 C 0.12311 0.56301 0.74595
 C1789 C 0.12890 0.57505 0.73361
 C1790 C 0.11704 0.58404 0.72324
 C1791 C 0.13522 0.55395 0.75689
 C1792 C 0.14510 0.54631 0.76630
 H1793 H 0.07853 0.63161 0.69903
 H1794 H 0.09987 0.61546 0.71623
 H1795 H 0.06984 0.56872 0.70971
 H1796 H 0.04844 0.58508 0.69283
 H1797 H 0.07992 0.56648 0.73940
 H1798 H 0.10080 0.55068 0.75741
 H1799 H 0.14257 0.57753 0.73203
 H1800 H 0.12180 0.59320 0.71368
 C1801 C 0.03338 0.37318 0.32242
 C1802 C 0.04433 0.38116 0.31465
 C1803 C 0.05733 0.39064 0.30523
 C1804 C 0.05284 0.40559 0.29589
 C1805 C 0.06538 0.41462 0.28644
 C1806 C 0.08259 0.40880 0.28617
 C1807 C 0.08699 0.39382 0.29569
 C1808 C 0.07443 0.38481 0.30515
 C1809 C 0.09582 0.41817 0.27579
 C1810 C 0.10819 0.40894 0.26606
 C1811 C 0.12033 0.41775 0.25590
 C1812 C 0.12031 0.43589 0.25533
 C1813 C 0.10817 0.44521 0.26508
 C1814 C 0.09601 0.43642 0.27525
 C1815 C 0.13240 0.44494 0.24437
 C1816 C 0.14234 0.45251 0.23497
 H1817 H 0.03963 0.41018 0.29581
 H1818 H 0.06153 0.42596 0.27906
 H1819 H 0.10016 0.38913 0.29592
 H1820 H 0.07805 0.37327 0.31235
 H1821 H 0.10824 0.39489 0.26601
 H1822 H 0.12961 0.41041 0.24832
 H1823 H 0.10804 0.45926 0.26475
 H1824 H 0.08680 0.44390 0.28276
   
