data_POSCAR
  _audit_creation_date              2014-09-24
  _audit_creation_method            'ToBaCCo'
  _symmetry_space_group_name_H-M    'P1'
  _symmetry_Int_Tables_number       1
  _symmetry_cell_setting            triclinic
  loop_
  _symmetry_equiv_pos_as_xyz
 x,y,z
_cell_length_a 37.5072
_cell_length_b 37.3904
_cell_length_c 37.3949
_cell_angle_alpha 90.754900
_cell_angle_beta 90.138300
_cell_angle_gamma 90.421700
loop_
  _atom_site_label
  _atom_site_type_symbol
  _atom_site_fract_x
  _atom_site_fract_y
  _atom_site_fract_z
C1 C 0.10884 -0.00748 0.24065
 C2 C 0.37510 0.01115 0.74845
 C3 C 0.87699 0.49897 0.25142
 C4 C 0.61929 0.49265 0.74792
 C5 C 0.24786 0.12202 0.99463
 C6 C 0.75170 0.37244 1.00161
 C7 C 0.25881 0.87383 0.50102
 C8 C 0.74560 0.62477 0.49801
 C9 C 0.00043 0.25079 0.12347
 C10 C 0.01299 0.75214 0.37398
 C11 C 0.49657 0.24167 0.87464
 C12 C 0.48961 0.75087 0.63002
 C13 C 0.86056 0.99344 0.74074
 C14 C 0.36480 0.49473 0.24990
 C15 C 0.62752 0.99669 0.24861
 C16 C 0.12445 0.51116 0.75215
 C17 C 0.74635 0.87283 0.00199
 C18 C 0.24625 0.37236 0.49908
 C19 C 0.25478 0.61704 -0.00222
 C20 C 0.76204 0.12203 0.49803
 C21 C 0.98899 0.74794 0.87500
 C22 C 0.50134 0.24930 0.37238
 C23 C 0.99609 0.25618 0.62771
 C24 C 0.51032 0.74398 0.12471
 O25 O 0.08023 0.99849 1.04882
 O26 O 0.09136 0.95355 1.00414
 O27 O 0.05388 1.08963 0.98612
 O28 O 0.00982 1.10027 0.94094
 O29 O -0.01143 1.06091 1.07654
 O30 O -0.05601 1.01691 1.08579
 O31 O -0.04420 0.99621 0.89115
 O32 O 0.01083 1.02834 0.88226
 O33 O -0.01226 0.90571 0.94852
 O34 O 0.02182 0.89658 1.00404
 O35 O -0.10171 0.96101 0.98204
 O36 O -0.11047 1.01928 1.01582
 O37 O -0.09124 1.00387 0.92862
 O38 O -0.10495 1.04900 0.97230
 O39 O -0.06383 0.91473 0.99067
 O40 O -0.01879 0.90476 1.03773
 O41 O -0.00308 0.94258 0.90162
 O42 O 0.04542 0.98896 0.89224
 O43 O 0.03285 1.00727 1.08571
 O44 O -0.02164 0.97390 1.09341
 O45 O -0.00174 1.09916 1.03069
 O46 O -0.03338 1.10795 0.97514
 O47 O 0.09118 1.04274 0.99436
 O48 O 0.09990 0.98822 0.96158
 Zr49 Zr 0.05738 0.99781 0.99737
 O50 O 0.02718 0.96362 0.96372
 Zr51 Zr 0.00256 1.06584 0.98475
 O52 O -0.03003 1.03461 0.95029
 Zr53 Zr -0.01149 1.01036 1.05182
 O54 O -0.04476 0.97696 1.02071
 Zr55 Zr 0.00012 0.99404 0.92557
 O56 O 0.03373 1.02811 0.95673
 Zr57 Zr -0.01340 0.93922 0.99356
 O58 O 0.01957 0.96997 1.02810
 Zr59 Zr -0.06855 1.00681 0.98006
 O60 O -0.03862 1.04148 1.01413
 O61 O 0.02833 1.03704 1.02397
 O62 O -0.03978 0.96712 0.95352
 C63 C 0.06617 1.00219 1.07991
 C64 C 0.08515 1.07615 0.98961
 C65 C -0.00750 1.09236 1.06391
 C66 C -0.07761 1.00015 0.89734
 C67 C -0.00806 0.91150 0.91509
 C68 C -0.09510 0.92764 0.98661
 H69 H 0.04309 0.94585 0.95240
 H70 H -0.06258 0.96564 1.03646
 H71 H 0.04342 1.05248 1.03960
 H72 H -0.04113 1.05042 0.93252
 H73 H -0.00397 1.04992 0.88549
 H74 H 0.02710 1.08840 0.92480
 H75 H -0.03928 0.91308 1.05213
 H76 H -0.00569 0.95326 1.08934
 H77 H 0.05823 0.96706 0.89915
 H78 H 0.09523 1.00283 0.94021
 H79 H -0.11120 1.00056 1.03426
 H80 H -0.07226 1.03366 1.07369
 H81 H 0.07906 0.93721 1.02077
 H82 H 0.04144 0.89761 0.98645
 H83 H -0.05464 1.10325 0.99005
 H84 H -0.09346 1.06644 0.95628
 O85 O 0.48739 0.46505 0.40001
 O86 O 0.55026 0.47372 0.40813
 O87 O 0.45834 0.40214 0.49035
 O88 O 0.46526 0.40992 0.55341
 O89 O 0.39612 0.49413 0.46222
 O90 O 0.40434 0.55706 0.47094
 O91 O 0.54714 0.49903 0.58947
 O92 O 0.54989 0.43618 0.56790
 O93 O 0.58413 0.55539 0.49935
 O94 O 0.56541 0.55976 0.43775
 O95 O 0.49177 0.59060 0.55521
 O96 O 0.42959 0.57015 0.55682
 O97 O 0.50157 0.53787 0.59805
 O98 O 0.43674 0.52915 0.58956
 O99 O 0.53124 0.59928 0.51011
 O100 O 0.52345 0.59146 0.44399
 O101 O 0.59155 0.50951 0.53785
 O102 O 0.58450 0.44504 0.52869
 O103 O 0.44139 0.50353 0.40855
 O104 O 0.44023 0.56486 0.42874
 O105 O 0.40419 0.44746 0.49974
 O106 O 0.42286 0.44502 0.56111
 O107 O 0.49750 0.41065 0.44483
 O108 O 0.55828 0.43116 0.44290
 Zr109 Zr 0.51361 0.46464 0.44995
 O110 O 0.54758 0.49662 0.48218
 Zr111 Zr 0.45741 0.45204 0.51713
 O112 O 0.48894 0.48325 0.55237
 Zr113 Zr 0.44606 0.52024 0.46234
 O114 O 0.47696 0.55453 0.49531
 Zr115 Zr 0.54243 0.48187 0.53594
 O116 O 0.51150 0.44694 0.50312
 Zr117 Zr 0.53103 0.55021 0.48145
 O118 O 0.49957 0.51887 0.44550
 Zr119 Zr 0.47463 0.53729 0.54853
 O120 O 0.44010 0.50546 0.51619
 O121 O 0.46011 0.46662 0.46384
 O122 O 0.52866 0.53587 0.53516
 C123 C 0.45991 0.48207 0.38900
 C124 C 0.47611 0.39100 0.46313
 C125 C 0.38492 0.46638 0.47878
 C126 C 0.52887 0.52063 0.60902
 C127 C 0.60300 0.53707 0.52116
 C128 C 0.51372 0.61013 0.53764
 H129 H 0.57231 0.49397 0.47356
 H130 H 0.46819 0.57923 0.49284
 H131 H 0.44496 0.45118 0.44826
 H132 H 0.48589 0.47419 0.57689
 H133 H 0.53007 0.43512 0.58526
 H134 H 0.48973 0.40104 0.54927
 H135 H 0.50169 0.60463 0.45085
 H136 H 0.46263 0.56693 0.41495
 H137 H 0.59654 0.45072 0.50595
 H138 H 0.56068 0.41733 0.46516
 H139 H 0.42830 0.58708 0.53676
 H140 H 0.39496 0.55246 0.49519
 H141 H 0.54560 0.49811 0.39933
 H142 H 0.58012 0.53817 0.43420
 H143 H 0.40907 0.46738 0.56363
 H144 H 0.44285 0.50673 0.60183
 O145 O 0.45035 -0.08774 0.49392
 O146 O 0.49480 -0.09784 0.44997
 O147 O 0.51210 -0.06020 0.58675
 O148 O 0.55300 -0.01932 0.60258
 O149 O 0.42107 0.00393 0.55827
 O150 O 0.41079 0.04784 0.51498
 O151 O 0.60618 0.03936 0.49614
 O152 O 0.61428 -0.01170 0.53061
 O153 O 0.54968 0.00678 0.40515
 O154 O 0.49581 -0.02401 0.39231
 O155 O 0.51419 0.09787 0.46434
 O156 O 0.48365 0.10645 0.52021
 O157 O 0.56902 0.08634 0.50508
 O158 O 0.52369 0.09634 0.55388
 O159 O 0.50666 0.06039 0.41653
 O160 O 0.45938 0.01275 0.40444
 O161 O 0.59620 -0.00254 0.44285
 O162 O 0.60585 -0.05006 0.48620
 O163 O 0.41257 -0.04127 0.50341
 O164 O 0.40496 0.01403 0.47036
 O165 O 0.46692 -0.00411 0.59721
 O166 O 0.52290 0.02977 0.60560
 O167 O 0.50321 -0.09782 0.53915
 O168 O 0.53814 -0.10484 0.48518
 Zr169 Zr 0.50105 -0.06354 0.49498
 O170 O 0.53395 -0.03234 0.46204
 Zr171 Zr 0.51279 -0.00857 0.56455
 O172 O 0.54760 0.02432 0.53483
 Zr173 Zr 0.44582 0.00428 0.50799
 O174 O 0.47705 0.03887 0.47679
 Zr175 Zr 0.57209 -0.00530 0.49366
 O176 O 0.54129 -0.03937 0.52662
 Zr177 Zr 0.50450 0.00861 0.43822
 O178 O 0.47038 -0.02587 0.46719
 Zr179 Zr 0.51758 0.06302 0.50800
 O180 O 0.48301 0.03214 0.54045
 O181 O 0.47400 -0.03500 0.53443
 O182 O 0.54423 0.03501 0.46766
 C183 C 0.41906 -0.07463 0.49768
 C184 C 0.50799 -0.09161 0.57273
 C185 C 0.43375 0.00114 0.58998
 C186 C 0.60018 0.07288 0.50060
 C187 C 0.58297 0.00187 0.41151
 C188 C 0.50968 0.09176 0.43074
 H189 H 0.54502 -0.04805 0.44382
 H190 H 0.46119 0.05672 0.46593
 H191 H 0.45846 -0.05029 0.54928
 H192 H 0.56573 0.03524 0.55088
 H193 H 0.60633 -0.02994 0.54788
 H194 H 0.57528 -0.00817 0.59387
 H195 H 0.44615 0.03441 0.41178
 H196 H 0.40869 -0.00281 0.45009
 H197 H 0.59673 -0.06445 0.46574
 H198 H 0.55815 -0.10087 0.50212
 H199 H 0.46211 0.10375 0.50509
 H200 H 0.42263 0.06464 0.53197
 H201 H 0.47824 -0.08574 0.43349
 H202 H 0.50843 -0.04678 0.39612
 H203 H 0.50582 0.04949 0.60217
 H204 H 0.54549 0.08895 0.56667
 O205 O -0.05673 0.41221 0.99790
 O206 O -0.01272 0.40074 0.95416
 O207 O 0.00694 0.44370 1.08986
 O208 O 0.04625 0.48573 1.10393
 O209 O -0.08621 0.50478 1.05960
 O210 O -0.09659 0.54831 1.01527
 O211 O 0.09810 0.53999 0.99682
 O212 O 0.10652 0.48917 1.03199
 O213 O 0.04227 0.50535 0.90614
 O214 O -0.01285 0.47120 0.89532
 O215 O 0.00708 0.59628 0.96161
 O216 O -0.02436 0.60761 1.01626
 O217 O 0.06083 0.58711 1.00442
 O218 O 0.01425 0.59823 1.05181
 O219 O -0.00114 0.55748 0.91499
 O220 O -0.04743 0.51062 0.90386
 O221 O 0.08886 0.49774 0.94417
 O222 O 0.09895 0.45076 0.98781
 O223 O -0.09485 0.45878 1.00512
 O224 O -0.10306 0.51318 0.97165
 O225 O -0.03982 0.49720 1.09794
 O226 O 0.01489 0.53412 1.10501
 O227 O -0.00212 0.40470 1.04346
 O228 O 0.03066 0.39499 0.98860
 Zr229 Zr -0.00608 0.43672 0.99777
 O230 O 0.02670 0.46691 0.96380
 Zr231 Zr 0.00578 0.49398 1.06547
 O232 O 0.04009 0.52609 1.03478
 Zr233 Zr -0.06176 0.50448 1.00906
 O234 O -0.03084 0.53807 0.97649
 Zr235 Zr 0.06456 0.49513 0.99469
 O236 O 0.03412 0.46195 1.02854
 Zr237 Zr -0.00319 0.50680 0.93884
 O238 O -0.03714 0.47333 0.96906
 Zr239 Zr 0.00955 0.56352 1.00682
 O240 O -0.02463 0.53359 1.04046
 O241 O -0.03304 0.46620 1.03645
 O242 O 0.03635 0.53435 0.96750
 C243 C -0.08816 0.42531 1.00060
 C244 C 0.00346 0.41197 1.07677
 C245 C -0.07308 0.50182 1.09112
 C246 C 0.09203 0.57353 1.00081
 C247 C 0.07567 0.50175 0.91281
 C248 C 0.00251 0.58916 0.92819
 H249 H 0.03797 0.45080 0.94608
 H250 H -0.04672 0.55549 0.96497
 H251 H -0.04820 0.45091 1.05169
 H252 H 0.05802 0.53765 1.05062
 H253 H 0.09845 0.47121 1.04950
 H254 H 0.06838 0.49669 1.09465
 H255 H -0.06193 0.53118 0.91191
 H256 H -0.09873 0.49672 0.95120
 H257 H 0.09007 0.43596 0.96753
 H258 H 0.05146 0.40004 1.00427
 H259 H -0.04619 0.60368 1.00182
 H260 H -0.08473 0.56531 1.03206
 H261 H -0.02829 0.41285 0.93674
 H262 H 0.00368 0.45086 0.89756
 H263 H -0.00367 0.55252 1.10187
 H264 H 0.03578 0.59135 1.06532
 O265 O 0.09648 0.46770 0.50369
 O266 O 0.10253 0.52263 0.47162
 O267 O 0.04021 0.50511 0.59817
 O268 O -0.01091 0.53283 0.61007
 O269 O 0.00478 0.40883 0.54281
 O270 O -0.02717 0.39772 0.48848
 O271 O -0.06332 0.58892 0.50457
 O272 O -0.01974 0.60097 0.55164
 O273 O -0.00262 0.56136 0.41432
 O274 O 0.04489 0.51807 0.40250
 O275 O -0.08934 0.49791 0.44460
 O276 O -0.09764 0.45106 0.49089
 O277 O -0.09970 0.54042 0.49768
 O278 O -0.10644 0.48566 0.53130
 O279 O -0.04333 0.50681 0.40628
 O280 O 0.01375 0.47485 0.39647
 O281 O -0.01003 0.60039 0.46078
 O282 O 0.02129 0.61404 0.51222
 O283 O 0.05929 0.41970 0.49703
 O284 O 0.01461 0.40628 0.45339
 O285 O -0.00266 0.44765 0.58947
 O286 O -0.05009 0.49065 0.59845
 O287 O 0.08636 0.51245 0.55955
 O288 O 0.09506 0.55714 0.51529
 Zr289 Zr 0.06170 0.51166 0.50886
 O290 O 0.02948 0.54359 0.47610
 Zr291 Zr -0.00497 0.49813 0.56534
 O292 O -0.04012 0.52937 0.53490
 Zr293 Zr 0.00783 0.44151 0.49749
 O294 O -0.02651 0.47021 0.46399
 Zr295 Zr -0.01125 0.56776 0.50625
 O296 O 0.02383 0.53936 0.54012
 Zr297 Zr 0.00217 0.51116 0.43873
 O298 O 0.03757 0.47952 0.46885
 Zr299 Zr -0.06459 0.49708 0.49523
 O300 O -0.03260 0.46499 0.52852
 O301 O 0.03436 0.47198 0.53620
 O302 O -0.03788 0.53722 0.46741
 C303 C 0.09046 0.43403 0.49891
 C304 C 0.07343 0.51025 0.59121
 C305 C 0.00022 0.41596 0.57623
 C306 C -0.09432 0.57416 0.50156
 C307 C -0.00645 0.59305 0.42730
 C308 C -0.07649 0.50170 0.41308
 H309 H 0.04467 0.56157 0.46425
 H310 H -0.03769 0.45347 0.44657
 H311 H 0.05026 0.45746 0.55131
 H312 H -0.05770 0.54080 0.55094
 H313 H -0.00117 0.59496 0.56942
 H314 H -0.02704 0.55229 0.60291
 H315 H -0.00366 0.45489 0.39755
 H316 H 0.03071 0.41859 0.43651
 H317 H 0.04498 0.60828 0.50231
 H318 H 0.08363 0.57273 0.53347
 H319 H -0.08998 0.43711 0.46964
 H320 H -0.04855 0.40222 0.50329
 H321 H 0.09773 0.50720 0.45041
 H322 H 0.05951 0.53857 0.41112
 H323 H -0.06420 0.47069 0.58783
 H324 H -0.10455 0.50285 0.55156
 O325 O 0.59186 0.95257 0.00307
 O326 O 0.60106 1.00631 -0.02999
 O327 O 0.53730 0.99158 0.09613
 O328 O 0.48656 1.02017 0.10833
 O329 O 0.50037 0.89659 0.03967
 O330 O 0.46599 0.88738 -0.01367
 O331 O 0.43891 1.08096 0.00221
 O332 O 0.48059 1.09120 0.04842
 O333 O 0.49876 1.04995 -0.08804
 O334 O 0.54335 1.00397 -0.09986
 O335 O 0.40817 0.99066 -0.05828
 O336 O 0.39665 0.94500 -0.01265
 O337 O 0.40027 1.03439 -0.00565
 O338 O 0.39077 0.97881 0.02898
 O339 O 0.45452 0.99884 -0.09637
 O340 O 0.50953 0.96256 -0.10603
 O341 O 0.49038 1.08876 -0.04157
 O342 O 0.52593 1.09933 0.01260
 O343 O 0.55367 0.90572 -0.00580
 O344 O 0.50804 0.89493 -0.05008
 O345 O 0.49303 0.93518 0.08657
 O346 O 0.44598 0.97988 0.09524
 O347 O 0.58349 0.99851 0.05742
 O348 O 0.59388 1.04232 0.01258
 Zr349 Zr 0.55912 0.99785 0.00669
 O350 O 0.52867 1.03094 -0.02637
 Zr351 Zr 0.49190 0.98617 0.06300
 O352 O 0.45851 1.01939 0.03253
 Zr353 Zr 0.50296 0.92964 -0.00533
 O354 O 0.46966 0.95994 -0.03863
 Zr355 Zr 0.48921 1.05658 0.00414
 O356 O 0.52237 1.02651 0.03828
 Zr357 Zr 0.50018 0.99957 -0.06379
 O358 O 0.53427 0.96664 -0.03360
 Zr359 Zr 0.43271 0.98860 -0.00747
 O360 O 0.46321 0.95459 0.02559
 O361 O 0.53030 0.95906 0.03365
 O362 O 0.46147 1.02738 -0.03493
 C363 C 0.58514 0.91912 -0.00217
 C364 C 0.57062 0.99619 0.08910
 C365 C 0.49635 0.90353 0.07319
 C366 C 0.40735 1.06793 -0.00169
 C367 C 0.49470 1.08155 -0.07500
 C368 C 0.42112 0.99515 -0.08971
 H369 H 0.54472 1.04813 -0.03824
 H370 H 0.45768 0.94388 -0.05615
 H371 H 0.54577 0.94418 0.04883
 H372 H 0.44139 1.03165 0.04847
 H373 H 0.49664 1.08323 0.06777
 H374 H 0.47170 1.04061 0.10117
 H375 H 0.49039 0.94424 -0.10563
 H376 H 0.52517 0.90648 -0.06648
 H377 H 0.54525 1.09714 -0.00521
 H378 H 0.58230 1.05902 0.02963
 H379 H 0.40536 0.92923 -0.03213
 H380 H 0.44510 0.89282 0.00153
 H381 H 0.59595 0.99075 -0.05104
 H382 H 0.55947 1.02306 -0.09072
 H383 H 0.43173 0.96005 0.08456
 H384 H 0.39246 0.99700 0.04836
 O385 O 0.55898 0.40488 0.00296
 O386 O 0.51601 0.39346 0.04805
 O387 O 0.49199 0.43419 -0.08638
 O388 O 0.45024 0.47479 -0.09665
 O389 O 0.58492 0.49735 -0.06013
 O390 O 0.59776 0.54155 -0.01415
 O391 O 0.40546 0.53219 0.01279
 O392 O 0.39507 0.48076 -0.02458
 O393 O 0.46338 0.49629 0.10032
 O394 O 0.52001 0.46290 0.10684
 O395 O 0.49831 0.58809 0.04433
 O396 O 0.52923 0.59734 -0.01318
 O397 O 0.44340 0.57897 0.00432
 O398 O 0.48587 0.59106 -0.04373
 O399 O 0.50665 0.55004 0.09041
 O400 O 0.55269 0.50446 0.09965
 O401 O 0.41589 0.48838 0.06307
 O402 O 0.40245 0.44334 0.01957
 O403 O 0.59674 0.45183 -0.00568
 O404 O 0.60766 0.50578 0.02652
 O405 O 0.53681 0.48893 -0.09650
 O406 O 0.48297 0.52398 -0.10040
 O407 O 0.50302 0.39593 -0.04092
 O408 O 0.47197 0.38634 0.01446
 Zr409 Zr 0.50829 0.42867 0.00500
 O410 O 0.47680 0.45888 0.04059
 Zr411 Zr 0.49349 0.48485 -0.06137
 O412 O 0.46126 0.51751 -0.02870
 Zr413 Zr 0.56360 0.49685 -0.00787
 O414 O 0.53453 0.53003 0.02726
 Zr415 Zr 0.43809 0.48685 0.01175
 O416 O 0.46678 0.45309 -0.02356
 Zr417 Zr 0.50778 0.49906 0.06555
 O418 O 0.54052 0.46606 0.03294
 Zr419 Zr 0.49356 0.55503 -0.00123
 O420 O 0.52533 0.52502 -0.03720
 O421 O 0.53362 0.45793 -0.03451
 O422 O 0.46772 0.52628 0.03868
 C423 C 0.59030 0.41842 -0.00075
 C424 C 0.49625 0.40268 -0.07389
 C425 C 0.57024 0.49443 -0.09118
 C426 C 0.41224 0.56570 0.00935
 C427 C 0.42980 0.49186 0.09426
 C428 C 0.50336 0.58154 0.07756
 H429 H 0.46603 0.44267 0.05826
 H430 H 0.55107 0.54758 0.03847
 H431 H 0.54827 0.44281 -0.05060
 H432 H 0.44282 0.52908 -0.04340
 H433 H 0.40187 0.46180 -0.04197
 H434 H 0.42959 0.48852 -0.08768
 H435 H 0.56780 0.52404 0.09040
 H436 H 0.60285 0.49194 0.04840
 H437 H 0.41397 0.42630 0.03586
 H438 H 0.45074 0.39081 -0.00058
 H439 H 0.54949 0.59617 0.00374
 H440 H 0.58585 0.55759 -0.03124
 H441 H 0.53298 0.40553 0.06463
 H442 H 0.50225 0.44324 0.10582
 H443 H 0.50023 0.54379 -0.09634
 H444 H 0.46549 0.58220 -0.05825
 O445 O -0.08131 0.04435 0.52071
 O446 O -0.09633 -0.01172 0.49930
 O447 O -0.00636 0.01631 0.60667
 O448 O 0.04364 -0.01394 0.61079
 O449 O 0.01464 0.10347 0.54037
 O450 O 0.03940 0.10959 0.48224
 O451 O 0.06939 -0.08491 0.50220
 O452 O 0.03620 -0.09252 0.55311
 O453 O -0.00322 -0.05829 0.42081
 O454 O -0.04998 -0.01443 0.41476
 O455 O 0.08999 0.00073 0.43327
 O456 O 0.11132 0.04618 0.46924
 O457 O 0.10663 -0.03949 0.48655
 O458 O 0.12056 0.02156 0.51672
 O459 O 0.03768 -0.00700 0.40323
 O460 O -0.01977 0.02831 0.40330
 O461 O 0.01285 -0.09447 0.46638
 O462 O -0.01614 -0.09898 0.52775
 O463 O -0.04534 0.09027 0.50354
 O464 O -0.00619 0.09800 0.45243
 O465 O 0.03371 0.06864 0.58587
 O466 O 0.08213 0.02284 0.58696
 O467 O -0.05982 0.00586 0.57929
 O468 O -0.07785 -0.04460 0.53910
 Zr469 Zr -0.04692 0.00025 0.52407
 O470 O -0.02346 -0.03505 0.48657
 Zr471 Zr 0.03030 0.01604 0.56516
 O472 O 0.05645 -0.02079 0.53149
 Zr473 Zr 0.00560 0.06711 0.49787
 O474 O 0.03291 0.03408 0.46123
 Zr475 Zr 0.02058 -0.05933 0.51058
 O476 O -0.00446 -0.02600 0.54925
 Zr477 Zr -0.00174 -0.00671 0.44343
 O478 O -0.03014 0.02795 0.47808
 Zr479 Zr 0.07470 0.00690 0.48668
 O480 O 0.05102 0.04467 0.52193
 O481 O -0.01362 0.04101 0.54252
 O482 O 0.04127 -0.03318 0.46625
 C483 C -0.07601 0.07696 0.51144
 C484 C -0.04019 0.01213 0.60715
 C485 C 0.02577 0.09903 0.57254
 C486 C 0.10008 -0.07254 0.49354
 C487 C 0.00374 -0.08905 0.43367
 C488 C 0.07184 -0.00390 0.40453
 H489 H -0.04135 -0.05284 0.47828
 H490 H 0.04182 0.04883 0.44136
 H491 H -0.02642 0.05748 0.55888
 H492 H 0.07602 -0.03205 0.54495
 H493 H 0.02578 -0.08209 0.57516
 H494 H 0.05447 -0.03647 0.60216
 H495 H -0.00032 0.04553 0.39828
 H496 H -0.02700 0.08650 0.44056
 H497 H -0.03524 -0.10163 0.50961
 H498 H -0.06385 -0.05752 0.55725
 H499 H 0.09708 0.06663 0.46097
 H500 H 0.06259 0.10584 0.49427
 H501 H -0.09409 -0.00377 0.47425
 H502 H -0.06427 -0.03260 0.42743
 H503 H 0.09285 0.04417 0.57570
 H504 H 0.12545 0.00210 0.53369
 O505 O 0.71014 0.15146 0.25084
 O506 O 0.76417 0.14274 0.21787
 O507 O 0.75021 0.20641 0.34520
 O508 O 0.77682 0.25775 0.35883
 O509 O 0.65488 0.24259 0.28968
 O510 O 0.64619 0.27699 0.23702
 O511 O 0.83885 0.30646 0.25292
 O512 O 0.84868 0.26417 0.29835
 O513 O 0.80851 0.24714 0.16158
 O514 O 0.76372 0.20221 0.14826
 O515 O 0.74876 0.33664 0.19417
 O516 O 0.70358 0.34718 0.24014
 O517 O 0.79235 0.34449 0.24645
 O518 O 0.73692 0.35289 0.28182
 O519 O 0.75647 0.29061 0.15476
 O520 O 0.72114 0.23382 0.14433
 O521 O 0.84703 0.25495 0.20808
 O522 O 0.85726 0.21942 0.26109
 O523 O 0.66375 0.18952 0.24341
 O524 O 0.65376 0.23497 0.19996
 O525 O 0.69298 0.24976 0.33669
 O526 O 0.73796 0.29774 0.34602
 O527 O 0.75595 0.15999 0.30575
 O528 O 0.79973 0.15012 0.26029
 Zr529 Zr 0.75564 0.18461 0.25534
 O530 O 0.78895 0.21583 0.22275
 Zr531 Zr 0.74400 0.25171 0.31303
 O532 O 0.77744 0.28570 0.28324
 Zr533 Zr 0.68808 0.24032 0.24468
 O534 O 0.71851 0.27430 0.21211
 Zr535 Zr 0.81456 0.25556 0.25390
 O536 O 0.78424 0.22173 0.28743
 Zr537 Zr 0.75813 0.24441 0.18608
 O538 O 0.72506 0.20950 0.21562
 Zr539 Zr 0.74685 0.31141 0.24414
 O540 O 0.71267 0.28025 0.27653
 O541 O 0.71696 0.21297 0.28309
 O542 O 0.78569 0.28341 0.21568
 C543 C 0.67684 0.15806 0.24598
 C544 C 0.75448 0.17303 0.33767
 C545 C 0.66153 0.24657 0.32321
 C546 C 0.82574 0.33792 0.24999
 C547 C 0.84000 0.25118 0.17455
 C548 C 0.75251 0.32396 0.16236
 H549 H 0.80612 0.20006 0.21041
 H550 H 0.70252 0.28618 0.19500
 H551 H 0.70203 0.19720 0.29807
 H552 H 0.78963 0.30287 0.29954
 H553 H 0.84071 0.24755 0.31718
 H554 H 0.79821 0.27143 0.35157
 H555 H 0.70307 0.25295 0.14480
 H556 H 0.66511 0.21767 0.18336
 H557 H 0.85452 0.19958 0.24354
 H558 H 0.81638 0.16185 0.27743
 H559 H 0.68770 0.33824 0.22080
 H560 H 0.65126 0.29778 0.25294
 H561 H 0.74920 0.14804 0.19677
 H562 H 0.78133 0.18527 0.15789
 H563 H 0.71773 0.31143 0.33626
 H564 H 0.75528 0.35160 0.30078
 O565 O 0.68195 0.74900 0.66379
 O566 O 0.72676 0.79309 0.65403
 O567 O 0.74600 0.65743 0.69197
 O568 O 0.78499 0.64349 0.73410
 O569 O 0.65213 0.68572 0.75505
 O570 O 0.64124 0.73005 0.79926
 O571 O 0.83545 0.75001 0.79269
 O572 O 0.84422 0.71496 0.74024
 O573 O 0.77985 0.84051 0.75884
 O574 O 0.72406 0.84974 0.72405
 O575 O 0.74512 0.78573 0.84812
 O576 O 0.71076 0.72915 0.85704
 O577 O 0.79734 0.74243 0.83918
 O578 O 0.75194 0.69630 0.85004
 O579 O 0.73681 0.83208 0.81038
 O580 O 0.69098 0.84284 0.76519
 O581 O 0.82672 0.80302 0.75122
 O582 O 0.83841 0.76025 0.70426
 O583 O 0.64376 0.74050 0.71011
 O584 O 0.63450 0.77310 0.76517
 O585 O 0.69866 0.64814 0.74573
 O586 O 0.75261 0.64092 0.78172
 O587 O 0.73641 0.70389 0.65459
 O588 O 0.76922 0.75827 0.64661
 Zr589 Zr 0.73244 0.74895 0.68829
 O590 O 0.76511 0.78286 0.71956
 Zr591 Zr 0.74407 0.68113 0.74332
 O592 O 0.77766 0.71201 0.77694
 Zr593 Zr 0.67631 0.73659 0.75564
 O594 O 0.70664 0.76980 0.79007
 Zr595 Zr 0.80263 0.75229 0.74735
 O596 O 0.77258 0.71857 0.71268
 Zr597 Zr 0.73454 0.80751 0.75967
 O598 O 0.70086 0.77696 0.72558
 Zr599 Zr 0.74669 0.73985 0.81485
 O600 O 0.71337 0.70558 0.78371
 O601 O 0.70528 0.70973 0.71644
 O602 O 0.77383 0.77933 0.78682
 C603 C 0.65053 0.74596 0.67692
 C604 C 0.74257 0.67076 0.66067
 C605 C 0.66546 0.65442 0.75123
 C606 C 0.82873 0.74598 0.82607
 C607 C 0.81325 0.83421 0.75520
 C608 C 0.74101 0.81917 0.84165
 H609 H 0.77656 0.80065 0.70393
 H610 H 0.69067 0.78130 0.80769
 H611 H 0.69021 0.69438 0.70069
 H612 H 0.79536 0.69628 0.78827
 H613 H 0.83649 0.69810 0.72104
 H614 H 0.80675 0.65272 0.74615
 H615 H 0.67560 0.83386 0.78461
 H616 H 0.63932 0.79410 0.75003
 H617 H 0.82834 0.77861 0.68845
 H618 H 0.79027 0.74327 0.65158
 H619 H 0.69169 0.74726 0.85632
 H620 H 0.65348 0.71423 0.81632
 H621 H 0.71017 0.80980 0.66607
 H622 H 0.74257 0.84936 0.70526
 H623 H 0.73499 0.64477 0.80104
 H624 H 0.77123 0.68087 0.84079
 O625 O 0.20767 0.35618 0.74821
 O626 O 0.26119 0.36544 0.78042
 O627 O 0.24288 0.29911 0.65477
 O628 O 0.27125 0.24917 0.64139
 O629 O 0.15038 0.26327 0.71123
 O630 O 0.14116 0.23095 0.76450
 O631 O 0.33561 0.20286 0.74630
 O632 O 0.34488 0.24454 0.70168
 O633 O 0.30547 0.26047 0.83828
 O634 O 0.26210 0.30410 0.85270
 O635 O 0.24538 0.17039 0.80578
 O636 O 0.20193 0.15738 0.76218
 O637 O 0.28953 0.16387 0.75381
 O638 O 0.23169 0.15547 0.71731
 O639 O 0.25302 0.21624 0.84562
 O640 O 0.21750 0.27383 0.85506
 O641 O 0.34327 0.25264 0.79147
 O642 O 0.35202 0.29075 0.73795
 O643 O 0.16101 0.31806 0.75681
 O644 O 0.15120 0.27191 0.80158
 O645 O 0.18786 0.25513 0.66417
 O646 O 0.23310 0.20775 0.65522
 O647 O 0.25144 0.34623 0.69299
 O648 O 0.29734 0.35618 0.73866
 Zr649 Zr 0.25216 0.32255 0.74406
 O650 O 0.28530 0.29192 0.77716
 Zr651 Zr 0.23903 0.25443 0.68748
 O652 O 0.27333 0.22154 0.71688
 Zr653 Zr 0.18422 0.26662 0.75609
 O654 O 0.21497 0.23251 0.78813
 Zr655 Zr 0.31056 0.25272 0.74578
 O656 O 0.27981 0.28540 0.71193
 Zr657 Zr 0.25486 0.26279 0.81410
 O658 O 0.22203 0.29773 0.78450
 Zr659 Zr 0.24321 0.19565 0.75616
 O660 O 0.20803 0.22622 0.72456
 O661 O 0.21279 0.29346 0.71719
 O662 O 0.28220 0.22438 0.78425
 C663 C 0.17442 0.34965 0.75350
 C664 C 0.24760 0.33256 0.66144
 C665 C 0.15664 0.25849 0.67772
 C666 C 0.32288 0.17121 0.74974
 C667 C 0.33669 0.25606 0.82505
 C668 C 0.24914 0.18282 0.83766
 H669 H 0.30260 0.30788 0.78949
 H670 H 0.19911 0.22033 0.80525
 H671 H 0.19752 0.30880 0.70228
 H672 H 0.28535 0.20453 0.70052
 H673 H 0.33636 0.26024 0.68238
 H674 H 0.29295 0.23620 0.64852
 H675 H 0.20023 0.25373 0.85567
 H676 H 0.16208 0.29079 0.81697
 H677 H 0.35179 0.30821 0.75804
 H678 H 0.31245 0.34521 0.71990
 H679 H 0.18324 0.16864 0.77704
 H680 H 0.14604 0.20935 0.74977
 H681 H 0.24735 0.35986 0.80219
 H682 H 0.27711 0.32279 0.84170
 H683 H 0.21218 0.19443 0.66435
 H684 H 0.25218 0.15399 0.70077
 O685 O 0.20442 0.75514 0.33406
 O686 O 0.24247 0.70418 0.34110
 O687 O 0.28430 0.83746 0.31035
 O688 O 0.32713 0.84414 0.26926
 O689 O 0.18806 0.83012 0.24962
 O690 O 0.16928 0.79046 0.20019
 O691 O 0.35532 0.73800 0.20340
 O692 O 0.36963 0.76882 0.25945
 O693 O 0.28619 0.65442 0.23442
 O694 O 0.22898 0.65370 0.26972
 O695 O 0.25944 0.71940 0.14721
 O696 O 0.23469 0.78064 0.14261
 O697 O 0.31851 0.75351 0.15789
 O698 O 0.28119 0.80660 0.15040
 O699 O 0.24436 0.67332 0.18336
 O700 O 0.19817 0.66631 0.22828
 O701 O 0.33842 0.68484 0.24196
 O702 O 0.35846 0.71855 0.28851
 O703 O 0.16764 0.77199 0.28892
 O704 O 0.15258 0.74861 0.23224
 O705 O 0.24143 0.85764 0.26047
 O706 O 0.29331 0.85752 0.22218
 O707 O 0.26503 0.79200 0.34542
 O708 O 0.28880 0.73291 0.35145
 Zr709 Zr 0.25472 0.74920 0.30967
 O710 O 0.28132 0.71241 0.27627
 Zr711 Zr 0.27868 0.81671 0.25818
 O712 O 0.30532 0.78293 0.22183
 Zr713 Zr 0.20132 0.77501 0.24386
 O714 O 0.22501 0.73826 0.20778
 Zr715 Zr 0.32312 0.73795 0.24915
 O716 O 0.29987 0.77355 0.28663
 Zr717 Zr 0.24672 0.69477 0.23546
 O718 O 0.21867 0.72906 0.27100
 Zr719 Zr 0.26923 0.76247 0.18327
 O720 O 0.24345 0.80043 0.21695
 O721 O 0.23512 0.79376 0.28395
 O722 O 0.28975 0.71783 0.20885
 C723 C 0.17357 0.76314 0.32156
 C724 C 0.27677 0.82404 0.34085
 C725 C 0.20762 0.85804 0.25628
 C726 C 0.34911 0.74480 0.17039
 C727 C 0.32042 0.65597 0.23722
 C728 C 0.25013 0.68670 0.15249
 H729 H 0.29011 0.69238 0.29078
 H730 H 0.20704 0.73023 0.19001
 H731 H 0.22274 0.81003 0.30082
 H732 H 0.32528 0.79624 0.21092
 H733 H 0.36532 0.78287 0.28166
 H734 H 0.34575 0.83382 0.25364
 H735 H 0.18380 0.67923 0.21047
 H736 H 0.15451 0.72443 0.24251
 H737 H 0.34403 0.71324 0.30985
 H738 H 0.31137 0.74654 0.34888
 H739 H 0.21236 0.76648 0.14377
 H740 H 0.18368 0.80752 0.18613
 H741 H 0.22246 0.69153 0.32897
 H742 H 0.24800 0.64943 0.28750
 H743 H 0.27496 0.85773 0.20311
 H744 H 0.30279 0.81849 0.16022
 O745 O 0.20048 0.66969 0.77166
 O746 O 0.25562 0.65531 0.74973
 O747 O 0.22891 0.74191 0.86032
 O748 O 0.26034 0.79178 0.86701
 O749 O 0.14249 0.76496 0.79420
 O750 O 0.13540 0.79089 0.73766
 O751 O 0.33063 0.82140 0.75975
 O752 O 0.33857 0.78678 0.80869
 O753 O 0.30157 0.75171 0.67495
 O754 O 0.25854 0.70699 0.66485
 O755 O 0.24356 0.84557 0.69221
 O756 O 0.19955 0.86514 0.72996
 O757 O 0.28585 0.85908 0.74478
 O758 O 0.22603 0.87238 0.77729
 O759 O 0.25115 0.79458 0.65945
 O760 O 0.21395 0.73587 0.65747
 O761 O 0.33851 0.76634 0.72125
 O762 O 0.34304 0.73465 0.78151
 O763 O 0.15484 0.70575 0.75521
 O764 O 0.14718 0.74716 0.70536
 O765 O 0.17760 0.78261 0.84094
 O766 O 0.22413 0.83139 0.84458
 O767 O 0.23933 0.68936 0.83079
 O768 O 0.28983 0.67362 0.78941
 Zr769 Zr 0.24464 0.70429 0.77613
 O770 O 0.27917 0.72933 0.73949
 Zr771 Zr 0.22991 0.78013 0.82057
 O772 O 0.26667 0.80763 0.78840
 Zr773 Zr 0.17818 0.75734 0.75176
 O774 O 0.21070 0.78678 0.71682
 Zr775 Zr 0.30429 0.77246 0.76580
 O776 O 0.27139 0.74606 0.80340
 Zr777 Zr 0.25063 0.75293 0.69740
 O778 O 0.21671 0.72247 0.73062
 Zr779 Zr 0.23870 0.82763 0.74457
 O780 O 0.20111 0.80220 0.77819
 O781 O 0.20445 0.73680 0.79569
 O782 O 0.27790 0.79502 0.72253
 C783 C 0.16795 0.67491 0.76236
 C784 C 0.23283 0.70802 0.85936
 C785 C 0.14717 0.77497 0.82688
 C786 C 0.31881 0.85224 0.75153
 C787 C 0.33248 0.75813 0.68820
 C788 C 0.24807 0.82879 0.66257
 H789 H 0.29651 0.71173 0.73027
 H790 H 0.19580 0.79648 0.69744
 H791 H 0.18801 0.72335 0.81131
 H792 H 0.27846 0.82674 0.80273
 H793 H 0.32823 0.77605 0.83042
 H794 H 0.28300 0.80267 0.85902
 H795 H 0.19860 0.75640 0.65161
 H796 H 0.15745 0.72585 0.69337
 H797 H 0.34597 0.71683 0.76198
 H798 H 0.30194 0.68616 0.80956
 H799 H 0.17919 0.85128 0.72003
 H800 H 0.13995 0.81424 0.74968
 H801 H 0.24699 0.65792 0.72488
 H802 H 0.27218 0.68973 0.67916
 H803 H 0.20268 0.84235 0.83395
 H804 H 0.24654 0.87721 0.79336
 O805 O 0.25494 0.15150 0.18975
 O806 O 0.29947 0.14199 0.23455
 O807 O 0.16380 0.17903 0.25367
 O808 O 0.14889 0.22033 0.29391
 O809 O 0.19208 0.24258 0.16130
 O810 O 0.23606 0.28715 0.15132
 O811 O 0.25462 0.28045 0.34637
 O812 O 0.22036 0.22755 0.35437
 O813 O 0.34604 0.24698 0.28998
 O814 O 0.35715 0.21466 0.23535
 O815 O 0.28851 0.33663 0.25561
 O816 O 0.23271 0.34473 0.22222
 O817 O 0.24648 0.32661 0.30832
 O818 O 0.19953 0.33641 0.26306
 O819 O 0.33577 0.29983 0.24734
 O820 O 0.34667 0.25264 0.19975
 O821 O 0.30838 0.23873 0.33672
 O822 O 0.26578 0.19168 0.34777
 O823 O 0.24652 0.19816 0.15234
 O824 O 0.27945 0.25301 0.14440
 O825 O 0.15389 0.23397 0.20759
 O826 O 0.14623 0.26862 0.26320
 O827 O 0.21023 0.14121 0.24441
 O828 O 0.26455 0.13427 0.27772
 Zr829 Zr 0.25491 0.17573 0.24110
 O830 O 0.28828 0.20744 0.27435
 Zr831 Zr 0.18670 0.23055 0.25335
 O832 O 0.21688 0.26404 0.28789
 Zr833 Zr 0.24254 0.24338 0.18589
 O834 O 0.27477 0.27808 0.21698
 Zr835 Zr 0.25756 0.23496 0.31263
 O836 O 0.22432 0.20017 0.28174
 Zr837 Zr 0.31278 0.24814 0.24469
 O838 O 0.28294 0.21353 0.21041
 Zr839 Zr 0.24404 0.30231 0.25734
 O840 O 0.21078 0.27112 0.22317
 O841 O 0.21580 0.20397 0.21421
 O842 O 0.28394 0.27490 0.28435
 C843 C 0.25163 0.16482 0.15841
 C844 C 0.17701 0.14759 0.24994
 C845 C 0.16062 0.23934 0.17433
 C846 C 0.25024 0.31383 0.33975
 C847 C 0.33967 0.24301 0.32345
 C848 C 0.32196 0.33097 0.25134
 H849 H 0.30621 0.19195 0.28560
 H850 H 0.28597 0.29588 0.20117
 H851 H 0.20063 0.18838 0.19880
 H852 H 0.20099 0.27513 0.30586
 H853 H 0.20371 0.20838 0.34634
 H854 H 0.15804 0.23163 0.31619
 H855 H 0.33940 0.27401 0.18631
 H856 H 0.30017 0.23742 0.14884
 H857 H 0.28411 0.17590 0.33725
 H858 H 0.24911 0.13901 0.29866
 H859 H 0.24995 0.34351 0.20228
 H860 H 0.21930 0.30372 0.16333
 H861 H 0.31566 0.15407 0.21759
 H862 H 0.35377 0.19287 0.24969
 H863 H 0.14971 0.28812 0.24587
 H864 H 0.18523 0.32789 0.28348
 O865 O 0.84751 0.69313 0.24541
 O866 O 0.85714 0.73884 0.20117
 O867 O 0.81958 0.75679 0.33804
 O868 O 0.77815 0.79751 0.35186
 O869 O 0.75681 0.66336 0.30821
 O870 O 0.71206 0.65231 0.26344
 O871 O 0.71751 0.84596 0.24719
 O872 O 0.77068 0.85520 0.28360
 O873 O 0.75314 0.79174 0.15576
 O874 O 0.78785 0.73684 0.14478
 O875 O 0.66377 0.75425 0.21081
 O876 O 0.65623 0.71897 0.26740
 O877 O 0.67183 0.80653 0.25484
 O878 O 0.66108 0.76205 0.29963
 O879 O 0.70166 0.74734 0.16394
 O880 O 0.74792 0.70203 0.15187
 O881 O 0.76038 0.83864 0.19441
 O882 O 0.80517 0.85194 0.23600
 O883 O 0.80098 0.65478 0.25350
 O884 O 0.74728 0.64496 0.22076
 O885 O 0.76568 0.71002 0.34694
 O886 O 0.73038 0.76360 0.35565
 O887 O 0.85721 0.74796 0.29119
 O888 O 0.86547 0.78106 0.23759
 Zr889 Zr 0.82347 0.74416 0.24615
 O890 O 0.79214 0.77697 0.21335
 Zr891 Zr 0.76836 0.75550 0.31455
 O892 O 0.73439 0.78850 0.28459
 Zr893 Zr 0.75608 0.68741 0.25772
 O894 O 0.72205 0.71728 0.22507
 Zr895 Zr 0.76372 0.81421 0.24461
 O896 O 0.79878 0.78442 0.27723
 Zr897 Zr 0.75241 0.74601 0.18788
 O898 O 0.78625 0.71237 0.21761
 Zr899 Zr 0.69698 0.75670 0.25633
 O900 O 0.72814 0.72411 0.28990
 O901 O 0.79507 0.71682 0.28490
 O902 O 0.72475 0.78464 0.21721
 C903 C 0.83419 0.66150 0.24845
 C904 C 0.85095 0.75339 0.32463
 C905 C 0.76044 0.67665 0.33983
 C906 C 0.68424 0.83828 0.25123
 C907 C 0.75639 0.82535 0.16284
 C908 C 0.67033 0.75046 0.17723
 H909 H 0.80771 0.78892 0.19583
 H910 H 0.70470 0.70094 0.21330
 H911 H 0.81061 0.70180 0.29988
 H912 H 0.72279 0.80605 0.30067
 H913 H 0.79103 0.84819 0.29886
 H914 H 0.76447 0.81850 0.34396
 H915 H 0.72811 0.68663 0.16012
 H916 H 0.76185 0.65036 0.19943
 H917 H 0.82407 0.83983 0.22216
 H918 H 0.86087 0.80191 0.25347
 H919 H 0.65599 0.70086 0.24787
 H920 H 0.69609 0.66344 0.28136
 H921 H 0.84558 0.72112 0.18492
 H922 H 0.80736 0.75471 0.14664
 H923 H 0.71072 0.74627 0.35125
 H924 H 0.67095 0.78040 0.31624
 O925 O 0.68849 0.24057 0.83789
 O926 O 0.73302 0.19667 0.84789
 O927 O 0.75105 0.33290 0.80939
 O928 O 0.79454 0.34395 0.76483
 O929 O 0.65871 0.30274 0.74750
 O930 O 0.64756 0.25906 0.70242
 O931 O 0.84189 0.24087 0.70911
 O932 O 0.85195 0.27372 0.76558
 O933 O 0.78546 0.14941 0.74276
 O934 O 0.73077 0.13885 0.77602
 O935 O 0.75224 0.20496 0.65322
 O936 O 0.71766 0.25982 0.64386
 O937 O 0.80378 0.24918 0.66268
 O938 O 0.75725 0.29495 0.65269
 O939 O 0.74343 0.15822 0.69045
 O940 O 0.69614 0.14752 0.73635
 O941 O 0.83260 0.18712 0.75095
 O942 O 0.84447 0.23265 0.79827
 O943 O 0.65009 0.24762 0.79135
 O944 O 0.64114 0.21507 0.73581
 O945 O 0.70531 0.34128 0.75591
 O946 O 0.75931 0.35059 0.72197
 O947 O 0.74349 0.28628 0.84720
 O948 O 0.77608 0.23161 0.85511
 Zr949 Zr 0.73906 0.24075 0.81355
 O950 O 0.77145 0.20711 0.78210
 Zr951 Zr 0.75065 0.30865 0.75841
 O952 O 0.78415 0.27832 0.72491
 Zr953 Zr 0.68279 0.25228 0.74597
 O954 O 0.71298 0.21978 0.71128
 Zr955 Zr 0.80908 0.23810 0.75450
 O956 O 0.77912 0.27156 0.78910
 Zr957 Zr 0.74073 0.18229 0.74161
 O958 O 0.70741 0.21226 0.77606
 Zr959 Zr 0.75309 0.25040 0.68683
 O960 O 0.71975 0.28396 0.71793
 O961 O 0.71198 0.27943 0.78521
 O962 O 0.78014 0.21101 0.71477
 C963 C 0.65696 0.24293 0.82469
 C964 C 0.74839 0.31972 0.84078
 C965 C 0.67197 0.33427 0.75133
 C966 C 0.83519 0.24561 0.67579
 C967 C 0.81888 0.15579 0.74662
 C968 C 0.74826 0.17144 0.65932
 H969 H 0.78294 0.18945 0.79773
 H970 H 0.69702 0.20814 0.69351
 H971 H 0.69691 0.29450 0.80093
 H972 H 0.80161 0.29455 0.71365
 H973 H 0.85005 0.29399 0.74898
 H974 H 0.81144 0.33211 0.78116
 H975 H 0.68243 0.15473 0.71503
 H976 H 0.64576 0.19421 0.75113
 H977 H 0.83594 0.21242 0.81281
 H978 H 0.79705 0.24701 0.85028
 H979 H 0.69777 0.24242 0.64547
 H980 H 0.65994 0.27501 0.68547
 H981 H 0.71627 0.17985 0.83580
 H982 H 0.74723 0.14122 0.79663
 H983 H 0.74305 0.34609 0.70149
 H984 H 0.77749 0.30992 0.66119
 C985 C 0.08638 1.00114 1.20827
 C986 C 0.10023 1.00048 1.17536
 C987 C 0.07738 1.00535 1.14414
 C988 C 0.08990 1.00064 1.11105
 H989 H 0.12824 0.99455 1.17157
 H990 H 0.04948 1.01141 1.14847
 H991 H 0.05823 1.00680 1.21153
 H992 H 0.11781 0.99454 1.10684
 C993 C 0.60068 0.48733 0.71205
 C994 C 0.57570 0.50908 0.69914
 C995 C 0.56343 0.50412 0.66193
 C996 C 0.53977 0.52577 0.64671
 H997 H 0.56551 0.53095 0.71530
 H998 H 0.57464 0.48227 0.64637
 H999 H 0.61062 0.46639 0.69438
 H1000 H 0.52785 0.54721 0.66226
 C1001 C 0.40083 0.01149 0.71686
 C1002 C 0.39053 0.00898 0.68263
 C1003 C 0.41741 0.00653 0.65386
 C1004 C 0.40777 0.00371 0.61951
 H1005 H 0.36238 0.00767 0.67604
 H1006 H 0.44547 0.00688 0.66093
 H1007 H 0.42925 0.01286 0.72223
 H1008 H 0.37967 0.00403 0.61262
 C1009 C -0.09919 0.49760 1.21866
 C1010 C -0.11170 0.50062 1.18534
 C1011 C -0.08696 0.49914 1.15500
 C1012 C -0.09810 0.50310 1.12136
 H1013 H -0.13994 0.50454 1.18071
 H1014 H -0.05890 0.49490 1.16045
 H1015 H -0.07087 0.49306 1.22225
 H1016 H -0.12615 0.50731 1.11590
 C1017 C -0.10013 0.49913 0.28494
 C1018 C -0.11373 0.49877 0.31797
 C1019 C -0.08960 0.50060 0.34895
 C1020 C -0.10146 0.49986 0.38261
 H1021 H -0.14234 0.49748 0.32190
 H1022 H -0.06120 0.50256 0.34389
 H1023 H -0.07138 0.50097 0.28213
 H1024 H -0.12979 0.49748 0.38783
 C1025 C 0.39674 1.01056 -0.21700
 C1026 C 0.38315 1.00388 -0.18461
 C1027 C 0.40721 1.00342 -0.15332
 C1028 C 0.39595 0.99617 -0.12021
 H1029 H 0.35498 0.99814 -0.18151
 H1030 H 0.43528 1.00890 -0.15776
 H1031 H 0.42491 1.01720 -0.21842
 H1032 H 0.36791 0.99099 -0.11544
 C1033 C 0.59337 0.49393 -0.22082
 C1034 C 0.60515 0.49760 -0.18705
 C1035 C 0.58090 0.49570 -0.15626
 C1036 C 0.59359 0.49708 -0.12271
 H1037 H 0.63349 0.50094 -0.18211
 H1038 H 0.55254 0.49259 -0.16114
 H1039 H 0.56511 0.49003 -0.22584
 H1040 H 0.62201 0.50024 -0.11821
 C1041 C 0.08579 -0.00621 0.27402
 C1042 C 0.09990 -0.00599 0.30685
 C1043 C 0.07733 -0.00626 0.33889
 C1044 C 0.09240 -0.00529 0.37122
 H1045 H 0.12860 -0.00529 0.31015
 H1046 H 0.04856 -0.00668 0.33605
 H1047 H 0.05702 -0.00781 0.27129
 H1048 H 0.12124 -0.00446 0.37345
 C1049 C 0.21388 1.09947 0.99239
 C1050 C 0.18097 1.11315 0.99068
 C1051 C 0.14967 1.08895 0.99067
 C1052 C 0.11613 1.10089 0.98878
 H1053 H 0.17732 1.14185 0.98975
 H1054 H 0.15435 1.06044 0.99249
 H1055 H 0.21620 1.07062 0.99399
 H1056 H 0.11131 1.12933 0.98666
 C1057 C 0.70965 0.60668 0.49110
 C1058 C 0.69448 0.58274 0.51275
 C1059 C 0.65724 0.57118 0.50627
 C1060 C 0.64047 0.54799 0.52747
 H1061 H 0.70884 0.57292 0.53573
 H1062 H 0.64309 0.58232 0.48372
 H1063 H 0.69384 0.61613 0.46881
 H1064 H 0.65477 0.53611 0.54951
 C1065 C 0.71824 0.39519 0.00142
 C1066 C 0.68516 0.38155 0.00156
 C1067 C 0.65442 0.40577 0.00001
 C1068 C 0.62078 0.39374 0.00048
 H1069 H 0.68099 0.35286 0.00245
 H1070 H 0.65959 0.43429 -0.00143
 H1071 H 0.72114 0.42405 0.00031
 H1072 H 0.61551 0.36529 0.00237
 C1073 C 0.22670 -0.10170 0.49834
 C1074 C 0.19306 -0.11352 0.49571
 C1075 C 0.16372 -0.08771 0.49268
 C1076 C 0.12966 -0.09828 0.49281
 H1077 H 0.18736 -0.14197 0.49616
 H1078 H 0.17014 -0.05941 0.49170
 H1079 H 0.23122 -0.07301 0.49749
 H1080 H 0.12329 -0.12651 0.49488
 C1081 C 0.29218 -0.10299 0.50493
 C1082 C 0.32530 -0.11499 0.50003
 C1083 C 0.35556 -0.08986 0.50292
 C1084 C 0.38887 -0.10000 0.49586
 H1085 H 0.32979 -0.14274 0.49273
 H1086 H 0.35030 -0.06226 0.51035
 H1087 H 0.28904 -0.07530 0.51338
 H1088 H 0.39416 -0.12764 0.48869
 C1089 C -0.21567 0.39689 1.00142
 C1090 C -0.18220 0.38491 0.99974
 C1091 C -0.15217 0.41053 1.00091
 C1092 C -0.11833 0.39979 0.99902
 H1093 H -0.17716 0.35644 0.99774
 H1094 H -0.15797 0.43881 1.00348
 H1095 H -0.21950 0.42555 1.00389
 H1096 H -0.11256 0.37152 0.99628
 C1097 C -0.22372 0.59830 0.50015
 C1098 C -0.18983 0.60975 0.50371
 C1099 C -0.15933 0.58513 0.50239
 C1100 C -0.12572 0.59773 0.50304
 H1101 H -0.18450 0.63821 0.50639
 H1102 H -0.16447 0.55661 0.50041
 H1103 H -0.22924 0.56992 0.49704
 H1104 H -0.12103 0.62634 0.50504
 C1105 C 0.28011 1.09741 -0.00701
 C1106 C 0.31387 1.10891 -0.00353
 C1107 C 0.34349 1.08312 -0.00500
 C1108 C 0.37751 1.09355 -0.00128
 H1109 H 0.31943 1.13713 0.00076
 H1110 H 0.33721 1.05498 -0.00886
 H1111 H 0.27570 1.06902 -0.01173
 H1112 H 0.38370 1.12171 0.00255
 C1113 C 0.00011 1.21883 1.09784
 C1114 C -0.00534 1.18514 1.10790
 C1115 C -0.00399 1.15605 1.08100
 C1116 C -0.00915 1.12208 1.09007
 H1117 H -0.01074 1.17922 1.13568
 H1118 H 0.00145 1.16257 1.05336
 H1119 H 0.00669 1.22326 1.06999
 H1120 H -0.01445 1.11571 1.11777
 C1121 C 0.48296 0.71444 0.61227
 C1122 C 0.50380 0.70037 0.58667
 C1123 C 0.49825 0.66304 0.57436
 C1124 C 0.51909 0.64767 0.54957
 H1125 H 0.52548 0.71597 0.57564
 H1126 H 0.47674 0.64772 0.58618
 H1127 H 0.46218 0.69754 0.62332
 H1128 H 0.54020 0.66316 0.53730
 C1129 C 0.01608 0.71789 0.39556
 C1130 C 0.00193 0.68606 0.38619
 C1131 C 0.00285 0.65607 0.41149
 C1132 C -0.00668 0.62280 0.40174
 H1133 H -0.01133 0.68239 0.36063
 H1134 H 0.01147 0.66139 0.43877
 H1135 H 0.03088 0.71950 0.42053
 H1136 H -0.01353 0.61698 0.37409
 C1137 C 0.49509 1.20897 -0.10171
 C1138 C 0.49582 1.17537 -0.11434
 C1139 C 0.49374 1.14542 -0.08926
 C1140 C 0.49546 1.11139 -0.10036
 H1141 H 0.49814 1.17020 -0.14283
 H1142 H 0.49125 1.15149 -0.06094
 H1143 H 0.49208 1.21292 -0.07307
 H1144 H 0.49825 1.10530 -0.12863
 C1145 C 0.49860 0.27499 -0.10168
 C1146 C 0.49533 0.30821 -0.11398
 C1147 C 0.49814 0.33873 -0.08891
 C1148 C 0.49372 0.37240 -0.09940
 H1149 H 0.49030 0.31265 -0.14213
 H1150 H 0.50371 0.33335 -0.06103
 H1151 H 0.50459 0.27184 -0.07349
 H1152 H 0.48806 0.37785 -0.12724
 C1153 C 0.01196 -0.21638 0.40034
 C1154 C 0.00756 -0.18245 0.39049
 C1155 C 0.00827 -0.15323 0.41746
 C1156 C 0.00163 -0.11954 0.40827
 H1157 H 0.00365 -0.17633 0.36251
 H1158 H 0.01464 -0.15933 0.44500
 H1159 H 0.01583 -0.22149 0.42859
 H1160 H -0.00497 -0.11385 0.38067
 C1161 C 0.49234 -0.21917 0.60281
 C1162 C 0.49997 -0.18531 0.61270
 C1163 C 0.50120 -0.15597 0.58665
 C1164 C 0.50790 -0.12220 0.59737
 H1165 H 0.50501 -0.17915 0.64069
 H1166 H 0.49604 -0.16201 0.55868
 H1167 H 0.48670 -0.22518 0.57491
 H1168 H 0.51271 -0.11658 0.62550
 C1169 C 0.00086 0.28453 1.10132
 C1170 C 0.00430 0.31760 1.11492
 C1171 C 0.00271 0.34812 1.09051
 C1172 C 0.00553 0.38199 1.10192
 H1173 H 0.00794 0.32189 1.14342
 H1174 H -0.00102 0.34254 1.06220
 H1175 H -0.00377 0.28188 1.07273
 H1176 H 0.00936 0.38782 1.13014
 C1177 C 0.75261 0.34957 0.03490
 C1178 C 0.75186 0.36288 0.06827
 C1179 C 0.75340 0.33820 0.09858
 C1180 C 0.75186 0.34947 0.13260
 H1181 H 0.75008 0.39148 0.07296
 H1182 H 0.75549 0.30981 0.09270
 H1183 H 0.75470 0.32078 0.03161
 H1184 H 0.74947 0.37778 0.13867
 C1185 C 0.25599 0.84983 0.53342
 C1186 C 0.25290 0.86260 0.56676
 C1187 C 0.25196 0.83821 0.59739
 C1188 C 0.24953 0.85128 0.63060
 H1189 H 0.25149 0.89125 0.57136
 H1190 H 0.25324 0.80956 0.59275
 H1191 H 0.25802 0.82109 0.52967
 H1192 H 0.24810 0.88002 0.63469
 C1193 C 0.74262 0.64725 0.53201
 C1194 C 0.74717 0.63439 0.56494
 C1195 C 0.74262 0.65809 0.59621
 C1196 C 0.74591 0.64632 0.62965
 H1197 H 0.75438 0.60669 0.56875
 H1198 H 0.73674 0.68601 0.59161
 H1199 H 0.73395 0.67475 0.52953
 H1200 H 0.75167 0.61839 0.63430
 C1201 C 0.24754 0.14324 0.02961
 C1202 C 0.25090 0.12876 0.06200
 C1203 C 0.24939 0.15222 0.09393
 C1204 C 0.25318 0.14016 0.12724
 H1205 H 0.25488 0.10025 0.06473
 H1206 H 0.24515 0.18053 0.08981
 H1207 H 0.24254 0.17176 0.02843
 H1208 H 0.25745 0.11192 0.13167
 C1209 C 0.24973 0.14821 0.96378
 C1210 C 0.24832 0.13828 0.92933
 C1211 C 0.25038 0.16549 0.90114
 C1212 C 0.24849 0.15633 0.86657
 H1213 H 0.24538 0.11023 0.92211
 H1214 H 0.25302 0.19345 0.90886
 H1215 H 0.25329 0.17648 0.96984
 H1216 H 0.24567 0.12833 0.85909
 C1217 C 0.75299 0.64971 0.46700
 C1218 C 0.75545 0.63774 0.43324
 C1219 C 0.76017 0.66284 0.40377
 C1220 C 0.75857 0.65162 0.36976
 H1221 H 0.75256 0.60938 0.42739
 H1222 H 0.76367 0.69105 0.41004
 H1223 H 0.75596 0.67822 0.47217
 H1224 H 0.75461 0.62343 0.36370
 C1225 C 0.25999 0.85038 0.46757
 C1226 C 0.27051 0.86206 0.43564
 C1227 C 0.26938 0.83762 0.40459
 C1228 C 0.28046 0.84774 0.37237
 H1229 H 0.27980 0.88936 0.43256
 H1230 H 0.25858 0.81092 0.40814
 H1231 H 0.24958 0.82329 0.46918
 H1232 H 0.29102 0.87452 0.36876
 C1233 C 0.75154 0.34801 0.96873
 C1234 C 0.75186 0.36001 0.93522
 C1235 C 0.75000 0.33437 0.90503
 C1236 C 0.75057 0.34516 0.87116
 H1237 H 0.75308 0.38850 0.93030
 H1238 H 0.74803 0.30605 0.91073
 H1239 H 0.74987 0.31931 0.97241
 H1240 H 0.75285 0.37345 0.86552
 C1241 C 0.85252 0.46633 0.25079
 C1242 C 0.86472 0.43278 0.25151
 C1243 C 0.83965 0.40230 0.25007
 C1244 C 0.85088 0.36845 0.25100
 H1245 H 0.89315 0.42798 0.25304
 H1246 H 0.81135 0.40781 0.24836
 H1247 H 0.82394 0.47023 0.24897
 H1248 H 0.87917 0.36301 0.25295
 C1249 C 0.35083 0.97844 0.74524
 C1250 C 0.36204 0.94481 0.74804
 C1251 C 0.33589 0.91534 0.74541
 C1252 C 0.34523 0.88153 0.75075
 H1253 H 0.38991 0.93934 0.75324
 H1254 H 0.30817 0.92165 0.74032
 H1255 H 0.32282 0.98242 0.73924
 H1256 H 0.37288 0.87531 0.75624
 C1257 C 0.12182 0.95425 0.23582
 C1258 C 0.14900 0.94072 0.25411
 C1259 C 0.16018 0.90329 0.24888
 C1260 C 0.19165 0.89341 0.26168
 H1261 H 0.16398 0.95778 0.27244
 H1262 H 0.14385 0.88464 0.23346
 H1263 H 0.10685 0.93638 0.21814
 H1264 H 0.20809 0.91327 0.27546
 C1265 C 0.64415 0.46131 0.75345
 C1266 C 0.63241 0.42749 0.75316
 C1267 C 0.65764 0.39793 0.75574
 C1268 C 0.64685 0.36416 0.75090
 H1269 H 0.60425 0.42179 0.74936
 H1270 H 0.68558 0.40402 0.76048
 H1271 H 0.67244 0.46630 0.75748
 H1272 H 0.61889 0.35830 0.74600
 C1273 C 0.64174 0.52646 0.74597
 C1274 C 0.62891 0.55926 0.75183
 C1275 C 0.65264 0.59033 0.74854
 C1276 C 0.64093 0.62368 0.75310
 H1277 H 0.60131 0.56308 0.75935
 H1278 H 0.68052 0.58564 0.74259
 H1279 H 0.66915 0.52402 0.73704
 H1280 H 0.61303 0.62844 0.75882
 C1281 C 0.13911 0.02021 0.24284
 C1282 C 0.13233 0.05501 0.24863
 C1283 C 0.16033 0.08299 0.24754
 C1284 C 0.15144 0.11744 0.25166
 H1285 H 0.10501 0.06312 0.25332
 H1286 H 0.18780 0.07553 0.24283
 H1287 H 0.16617 0.01209 0.23694
 H1288 H 0.12371 0.12413 0.25618
 C1289 C 0.35164 0.04413 0.74882
 C1290 C 0.36389 0.07775 0.74800
 C1291 C 0.33827 0.10745 0.74987
 C1292 C 0.34866 0.14160 0.74862
 H1293 H 0.39225 0.08310 0.74602
 H1294 H 0.31011 0.10109 0.75204
 H1295 H 0.32308 0.04041 0.75185
 H1296 H 0.37678 0.14805 0.74619
 C1297 C 0.85494 0.53293 0.25133
 C1298 C 0.86933 0.56572 0.24881
 C1299 C 0.84608 0.59720 0.24977
 C1300 C 0.85855 0.63069 0.24680
 H1301 H 0.89792 0.56910 0.24610
 H1302 H 0.81770 0.59262 0.25310
 H1303 H 0.82628 0.53065 0.25461
 H1304 H 0.88686 0.63548 0.24333
 C1305 C 0.96737 0.25074 0.14709
 C1306 C 0.93395 0.25135 0.13453
 C1307 C 0.90388 0.25203 0.15987
 C1308 C 0.86993 0.25123 0.14895
 H1309 H 0.92901 0.25140 0.10596
 H1310 H 0.90980 0.25287 0.18827
 H1311 H 0.97091 0.25076 0.17589
 H1312 H 0.86393 0.24992 0.12059
 C1313 C 0.45902 0.75932 0.65545
 C1314 C 0.42481 0.75753 0.64556
 C1315 C 0.39617 0.76248 0.67201
 C1316 C 0.36239 0.75566 0.66294
 H1317 H 0.41801 0.75042 0.61816
 H1318 H 0.40286 0.77046 0.69920
 H1319 H 0.46507 0.76718 0.68287
 H1320 H 0.35625 0.74749 0.63565
 C1321 C 0.46333 0.24205 0.85127
 C1322 C 0.43052 0.24763 0.86401
 C1323 C 0.40004 0.24823 0.83917
 C1324 C 0.36688 0.25481 0.85031
 H1325 H 0.42644 0.25237 0.89236
 H1326 H 0.40506 0.24352 0.81096
 H1327 H 0.46613 0.23659 0.82284
 H1328 H 0.36178 0.25931 0.87852
 C1329 C 0.97937 0.75155 0.35063
 C1330 C 0.94605 0.75379 0.36338
 C1331 C 0.91536 0.75202 0.33847
 C1332 C 0.88161 0.75525 0.34964
 H1333 H 0.94158 0.75700 0.39185
 H1334 H 0.92066 0.74808 0.31021
 H1335 H 0.98245 0.74735 0.32205
 H1336 H 0.87629 0.75932 0.37788
 C1337 C 0.04554 0.75592 0.34976
 C1338 C 0.07928 0.75811 0.36165
 C1339 C 0.10917 0.76215 0.33612
 C1340 C 0.14326 0.76168 0.34685
 H1341 H 0.08475 0.75674 0.39007
 H1342 H 0.10310 0.76455 0.30789
 H1343 H 0.04135 0.75739 0.32110
 H1344 H 0.14921 0.75826 0.37498
 C1345 C 0.52937 0.24074 0.85082
 C1346 C 0.56273 0.23950 0.86347
 C1347 C 0.59298 0.24095 0.83848
 C1348 C 0.62679 0.24065 0.84982
 H1349 H 0.56751 0.23813 0.89201
 H1350 H 0.58733 0.24267 0.81011
 H1351 H 0.52578 0.24266 0.82211
 H1352 H 0.63248 0.23868 0.87816
 C1353 C 0.52319 0.74783 0.65245
 C1354 C 0.55621 0.75125 0.63955
 C1355 C 0.58673 0.74664 0.66361
 C1356 C 0.62028 0.74896 0.65208
 H1357 H 0.56062 0.75766 0.61174
 H1358 H 0.58147 0.74166 0.69162
 H1359 H 0.52019 0.73987 0.68011
 H1360 H 0.62562 0.75389 0.62409
 C1361 C 0.03341 0.24915 0.14724
 C1362 C 0.06672 0.24661 0.13477
 C1363 C 0.09674 0.24367 0.16009
 C1364 C 0.13051 0.24173 0.14901
 H1365 H 0.07157 0.24617 0.10621
 H1366 H 0.09100 0.24327 0.18850
 H1367 H 0.02994 0.24987 0.17604
 H1368 H 0.13632 0.24281 0.12066
 C1369 C -0.11036 0.99532 0.76937
 C1370 C -0.11886 0.99980 0.80393
 C1371 C -0.09212 0.99878 0.83274
 C1372 C -0.10254 1.00086 0.86691
 H1373 H -0.14663 1.00334 0.81112
 H1374 H -0.06417 0.99605 0.82605
 H1375 H -0.08279 0.99093 0.76199
 H1376 H -0.13067 1.00352 0.87295
 C1377 C 0.37984 0.50106 0.28732
 C1378 C 0.40799 0.48389 0.30072
 C1379 C 0.41973 0.49118 0.33778
 C1380 C 0.44851 0.47556 0.35165
 H1381 H 0.42236 0.46466 0.28445
 H1382 H 0.40436 0.50966 0.35402
 H1383 H 0.36560 0.51933 0.30492
 H1384 H 0.46387 0.45715 0.33532
 C1385 C 0.60553 -0.00318 0.28283
 C1386 C 0.61954 -0.00180 0.31582
 C1387 C 0.59560 0.00004 0.34705
 C1388 C 0.60768 0.00076 0.38077
 H1389 H 0.64821 -0.00158 0.31955
 H1390 H 0.56710 0.00058 0.34215
 H1391 H 0.57669 -0.00311 0.28051
 H1392 H 0.63609 -0.00044 0.38590
 C1393 C 0.10110 0.50998 0.78532
 C1394 C 0.11406 0.50667 0.81845
 C1395 C 0.08939 0.50630 0.84896
 C1396 C 0.10075 0.50228 0.88253
 H1397 H 0.14250 0.50409 0.82280
 H1398 H 0.06113 0.50926 0.84365
 H1399 H 0.07253 0.51320 0.78224
 H1400 H 0.12898 0.49927 0.88791
 C1401 C 0.10065 0.51100 0.71915
 C1402 C 0.11299 0.51351 0.68573
 C1403 C 0.08785 0.51145 0.65539
 C1404 C 0.09873 0.51316 0.62144
 H1405 H 0.14133 0.51660 0.68096
 H1406 H 0.05970 0.50812 0.66111
 H1407 H 0.07215 0.50727 0.72262
 H1408 H 0.12685 0.51655 0.61566
 C1409 C 0.60232 0.99504 0.21654
 C1410 C 0.61301 0.99792 0.18257
 C1411 C 0.58667 0.99557 0.15318
 C1412 C 0.59641 0.99853 0.11898
 H1413 H 0.64099 1.00212 0.17663
 H1414 H 0.55882 0.99136 0.15972
 H1415 H 0.57418 0.99012 0.22122
 H1416 H 0.62431 1.00267 0.11259
 C1417 C 0.39409 0.49353 0.22156
 C1418 C 0.38644 0.48929 0.18678
 C1419 C 0.41411 0.49149 0.15885
 C1420 C 0.40458 0.49023 0.12438
 H1421 H 0.35887 0.48526 0.17876
 H1422 H 0.44191 0.49440 0.16638
 H1423 H 0.42152 0.49859 0.22941
 H1424 H 0.37654 0.48738 0.11765
 C1425 C -0.12499 -0.01226 0.70321
 C1426 C -0.09889 0.00766 0.68963
 C1427 C -0.08705 0.00258 0.65242
 C1428 C -0.05623 0.01702 0.64252
 H1429 H -0.08557 0.02751 0.70638
 H1430 H -0.10245 -0.01388 0.63387
 H1431 H -0.13816 -0.03168 0.68572
 H1432 H -0.04046 0.03171 0.66225
 C1433 C -0.22158 0.89789 0.99967
 C1434 C -0.18819 0.88651 0.99505
 C1435 C -0.15879 0.91258 0.99169
 C1436 C -0.12507 0.90203 0.98807
 H1437 H -0.18278 0.85809 0.99338
 H1438 H -0.16482 0.94090 0.99282
 H1439 H -0.22584 0.92653 1.00146
 H1440 H -0.11907 0.87370 0.98784
 C1441 C 0.28401 0.38719 0.50158
 C1442 C 0.29636 0.41545 0.48374
 C1443 C 0.33380 0.42654 0.48865
 C1444 C 0.34754 0.45532 0.47282
 H1445 H 0.27914 0.43029 0.46611
 H1446 H 0.35043 0.41083 0.50616
 H1447 H 0.30279 0.37237 0.51774
 H1448 H 0.33101 0.47116 0.45535
 C1449 C 0.28549 0.59281 0.00769
 C1450 C 0.31912 0.60481 0.00930
 C1451 C 0.34869 0.57983 0.01374
 C1452 C 0.38239 0.59087 0.01023
 H1453 H 0.32483 0.63288 0.00488
 H1454 H 0.34270 0.55174 0.01770
 H1455 H 0.28048 0.56451 0.01163
 H1456 H 0.38811 0.61896 0.00595
 C1457 C -0.20463 0.09892 0.49959
 C1458 C -0.17155 0.11240 0.50350
 C1459 C -0.14064 0.08840 0.50728
 C1460 C -0.10712 0.10097 0.50928
 H1461 H -0.16749 0.14113 0.50452
 H1462 H -0.14544 0.05978 0.50788
 H1463 H -0.20772 0.07006 0.49851
 H1464 H -0.10225 0.12949 0.50741
 C1465 C 0.72881 0.09821 0.49611
 C1466 C 0.69549 0.11093 0.49798
 C1467 C 0.66459 0.08624 0.49678
 C1468 C 0.63104 0.09776 0.50071
 H1469 H 0.69119 0.13944 0.50108
 H1470 H 0.66957 0.05790 0.49316
 H1471 H 0.73214 0.06958 0.49263
 H1472 H 0.62612 0.12609 0.50452
 C1473 C 0.22047 0.59505 0.99781
 C1474 C 0.18786 0.60899 1.00154
 C1475 C 0.15633 0.58548 0.99937
 C1476 C 0.12306 0.59798 1.00186
 H1477 H 0.18445 0.63742 1.00618
 H1478 H 0.16064 0.55700 0.99588
 H1479 H 0.22243 0.56665 0.99177
 H1480 H 0.11863 0.62642 1.00535
 C1481 C 0.21793 0.40125 0.49618
 C1482 C 0.18330 0.39268 0.49305
 C1483 C 0.15494 0.41972 0.49557
 C1484 C 0.12074 0.40930 0.49572
 H1485 H 0.17572 0.36473 0.49025
 H1486 H 0.16197 0.44781 0.49800
 H1487 H 0.22538 0.42904 0.50051
 H1488 H 0.11443 0.38100 0.49329
 C1489 C 0.71262 0.89508 0.00391
 C1490 C 0.67969 0.88156 -0.00002
 C1491 C 0.64891 0.90571 0.00188
 C1492 C 0.61547 0.89424 -0.00352
 H1493 H 0.67568 0.85324 -0.00526
 H1494 H 0.65396 0.93383 0.00746
 H1495 H 0.71522 0.92342 0.01010
 H1496 H 0.61027 0.86614 -0.00900
 C1497 C -0.01434 0.78269 0.89630
 C1498 C -0.01298 0.81493 0.88109
 C1499 C -0.01451 0.84727 0.90366
 C1500 C -0.00879 0.88008 0.89085
 H1501 H -0.00937 0.81721 0.85246
 H1502 H -0.01934 0.84379 0.93199
 H1503 H -0.01819 0.78136 0.92500
 H1504 H -0.00384 0.88374 0.86259
 C1505 C 0.50508 0.28687 0.38829
 C1506 C 0.48498 0.30037 0.41466
 C1507 C 0.48990 0.33816 0.42575
 C1508 C 0.47101 0.35316 0.45218
 H1509 H 0.46511 0.28390 0.42764
 H1510 H 0.50962 0.35410 0.41183
 H1511 H 0.52382 0.30490 0.37550
 H1512 H 0.45154 0.33721 0.46638
 C1513 C -0.00483 0.28841 0.60338
 C1514 C -0.00469 0.32220 0.61558
 C1515 C -0.00295 0.35197 0.59024
 C1516 C -0.00157 0.38603 0.60145
 H1517 H -0.00491 0.32767 0.64412
 H1518 H -0.00260 0.34580 0.56183
 H1519 H -0.00423 0.28390 0.57465
 H1520 H -0.00238 0.39216 0.62985
 C1521 C 0.50990 0.77656 0.10066
 C1522 C 0.50375 0.80985 0.11269
 C1523 C 0.50325 0.83988 0.08753
 C1524 C 0.49650 0.87341 0.09833
 H1525 H 0.49862 0.81471 0.14084
 H1526 H 0.50852 0.83431 0.05952
 H1527 H 0.51570 0.77289 0.07245
 H1528 H 0.49155 0.87900 0.12639
 C1529 C 0.51182 0.71011 0.10175
 C1530 C 0.51018 0.67709 0.11519
 C1531 C 0.50848 0.64585 0.09081
 C1532 C 0.50586 0.61230 0.10265
 H1533 H 0.50883 0.67338 0.14385
 H1534 H 0.50898 0.65061 0.06227
 H1535 H 0.51305 0.71268 0.07291
 H1536 H 0.50604 0.60732 0.13113
 C1537 C -0.00323 0.22247 0.60442
 C1538 C 0.01271 0.19196 0.61346
 C1539 C 0.01243 0.16130 0.58843
 C1540 C 0.02803 0.13045 0.59657
 H1541 H 0.02614 0.18964 0.63899
 H1542 H -0.00134 0.16390 0.56307
 H1543 H -0.01776 0.22298 0.57928
 H1544 H 0.04102 0.12759 0.62230
 C1545 C 0.50078 0.22015 0.40062
 C1546 C 0.50066 0.18536 0.39117
 C1547 C 0.50429 0.15646 0.41747
 C1548 C 0.50700 0.12235 0.40631
 H1549 H 0.49925 0.17814 0.36302
 H1550 H 0.50484 0.16308 0.44577
 H1551 H 0.50278 0.22758 0.42867
 H1552 H 0.50606 0.11634 0.37787
 C1553 C -0.00840 0.71648 0.90023
 C1554 C -0.00508 0.68263 0.88859
 C1555 C -0.00162 0.65319 0.91415
 C1556 C 0.00064 0.61913 0.90302
 H1557 H -0.00480 0.67680 0.86012
 H1558 H -0.00149 0.65950 0.94254
 H1559 H -0.00853 0.72155 0.92885
 H1560 H -0.00022 0.61294 0.87462
 C1561 C 0.26113 0.62977 0.95978
 C1562 C 0.23957 0.65269 0.94359
 C1563 C 0.24547 0.66373 0.90631
 C1564 C 0.22656 0.69076 0.89375
 H1565 H 0.21755 0.66415 0.95840
 H1566 H 0.26617 0.65152 0.89019
 H1567 H 0.28302 0.61853 0.94448
 H1568 H 0.20758 0.70384 0.91135
 C1569 C 0.76322 0.14581 0.46525
 C1570 C 0.76150 0.13337 0.43153
 C1571 C 0.75988 0.15869 0.40159
 C1572 C 0.75739 0.14763 0.36749
 H1573 H 0.76010 0.10482 0.42627
 H1574 H 0.76020 0.18711 0.40776
 H1575 H 0.76479 0.17458 0.46924
 H1576 H 0.75756 0.11924 0.36126
 C1577 C 0.24488 0.34628 0.46744
 C1578 C 0.24647 0.35660 0.43334
 C1579 C 0.24804 0.32982 0.40403
 C1580 C 0.24917 0.33975 0.36984
 H1581 H 0.24706 0.38483 0.42714
 H1582 H 0.24813 0.30165 0.41054
 H1583 H 0.24519 0.31781 0.47266
 H1584 H 0.24848 0.36797 0.36356
 C1585 C 0.74549 0.84822 0.96922
 C1586 C 0.74314 0.86004 0.93575
 C1587 C 0.74338 0.83426 0.90569
 C1588 C 0.74096 0.84483 0.87186
 H1589 H 0.74128 0.88847 0.93077
 H1590 H 0.74554 0.80600 0.91146
 H1591 H 0.74749 0.81958 0.97294
 H1592 H 0.73858 0.87307 0.86614
 C1593 C 0.74888 0.85010 0.03528
 C1594 C 0.75153 0.86356 0.06852
 C1595 C 0.75268 0.83895 0.09894
 C1596 C 0.75549 0.85053 0.13279
 H1597 H 0.75259 0.89224 0.07304
 H1598 H 0.75112 0.81045 0.09332
 H1599 H 0.74749 0.82123 0.03221
 H1600 H 0.75724 0.87898 0.13856
 C1601 C 0.23911 0.35197 0.53329
 C1602 C 0.24344 0.36676 0.56589
 C1603 C 0.23988 0.34456 0.59778
 C1604 C 0.24827 0.35671 0.63061
 H1605 H 0.25161 0.39453 0.56874
 H1606 H 0.23152 0.31695 0.59391
 H1607 H 0.23060 0.32421 0.53139
 H1608 H 0.25625 0.38438 0.63471
 C1609 C 0.76063 0.14557 0.53155
 C1610 C 0.75620 0.13271 0.56449
 C1611 C 0.75508 0.15754 0.59535
 C1612 C 0.74942 0.14625 0.62864
 H1613 H 0.75307 0.10419 0.56843
 H1614 H 0.75883 0.18586 0.59054
 H1615 H 0.76414 0.17424 0.52888
 H1616 H 0.74568 0.11796 0.63351
 C1617 C 0.25372 0.64802 0.02489
 C1618 C 0.24785 0.64203 0.05968
 C1619 C 0.25085 0.67030 0.08756
 C1620 C 0.24586 0.66174 0.12185
 H1621 H 0.24194 0.61493 0.06795
 H1622 H 0.25796 0.69738 0.08029
 H1623 H 0.26044 0.67482 0.01633
 H1624 H 0.23879 0.63435 0.12817
 C1625 C 0.14707 0.54522 0.75384
 C1626 C 0.13314 0.57819 0.75534
 C1627 C 0.15663 0.60991 0.75926
 C1628 C 0.14398 0.64337 0.75945
 H1629 H 0.10449 0.58159 0.75418
 H1630 H 0.18509 0.60564 0.76168
 H1631 H 0.17583 0.54277 0.75533
 H1632 H 0.11565 0.64773 0.75605
 C1633 C 0.65046 0.03037 0.24805
 C1634 C 0.63760 0.06342 0.24507
 C1635 C 0.66252 0.09400 0.24648
 C1636 C 0.65156 0.12773 0.24389
 H1637 H 0.60922 0.06766 0.24185
 H1638 H 0.69070 0.08866 0.24994
 H1639 H 0.67895 0.02773 0.25237
 H1640 H 0.62343 0.13322 0.24039
 C1641 C 0.83860 0.02734 0.74077
 C1642 C 0.85296 0.06012 0.74401
 C1643 C 0.82999 0.09159 0.74277
 C1644 C 0.84291 0.12487 0.74647
 H1645 H 0.88139 0.06366 0.74799
 H1646 H 0.80158 0.08721 0.73922
 H1647 H 0.81017 0.02500 0.73566
 H1648 H 0.87129 0.12935 0.75008
 C1649 C 0.33996 0.52583 0.24183
 C1650 C 0.35219 0.55935 0.23891
 C1651 C 0.32799 0.59007 0.23583
 C1652 C 0.34169 0.62309 0.23568
 H1653 H 0.38068 0.56428 0.24065
 H1654 H 0.29937 0.58587 0.23556
 H1655 H 0.31136 0.52138 0.24078
 H1656 H 0.37045 0.62643 0.23652
 C1657 C 0.34298 0.46025 0.25004
 C1658 C 0.35715 0.42744 0.24951
 C1659 C 0.33362 0.39576 0.25149
 C1660 C 0.34615 0.36233 0.25046
 H1661 H 0.38573 0.42403 0.24751
 H1662 H 0.30512 0.40007 0.25346
 H1663 H 0.31430 0.46228 0.25309
 H1664 H 0.37458 0.35789 0.24814
 C1665 C 0.83659 0.96185 0.74895
 C1666 C 0.84958 0.92877 0.75108
 C1667 C 0.82562 0.89831 0.75613
 C1668 C 0.83775 0.86488 0.75461
 H1669 H 0.87789 0.92421 0.74759
 H1670 H 0.79737 0.90335 0.75939
 H1671 H 0.80812 0.96581 0.75203
 H1672 H 0.86599 0.86000 0.75098
 C1673 C 0.65217 0.96458 0.24716
 C1674 C 0.64127 0.93074 0.25075
 C1675 C 0.66759 0.90170 0.24874
 C1676 C 0.65806 0.86750 0.25218
 H1677 H 0.61336 0.92473 0.25542
 H1678 H 0.69542 0.90857 0.24470
 H1679 H 0.68022 0.96911 0.24155
 H1680 H 0.63021 0.86067 0.25617
 C1681 C 0.14849 0.47839 0.75053
 C1682 C 0.13621 0.44471 0.75317
 C1683 C 0.16095 0.41417 0.75140
 C1684 C 0.14971 0.38031 0.75522
 H1685 H 0.10796 0.43983 0.75701
 H1686 H 0.18901 0.41967 0.74703
 H1687 H 0.17680 0.48235 0.74604
 H1688 H 0.12164 0.37490 0.75963
 C1689 C 0.02231 0.74885 0.85197
 C1690 C 0.05377 0.76117 0.86396
 C1691 C 0.08462 0.76204 0.83998
 C1692 C 0.11586 0.77604 0.85042
 H1693 H 0.05646 0.77124 0.89115
 H1694 H 0.08167 0.75067 0.81330
 H1695 H 0.02083 0.73787 0.82499
 H1696 H 0.11894 0.78691 0.87728
 C1697 C 0.53371 0.24307 0.34856
 C1698 C 0.56717 0.24511 0.36112
 C1699 C 0.59762 0.24210 0.33665
 C1700 C 0.63113 0.24717 0.34807
 H1701 H 0.57188 0.25059 0.38929
 H1702 H 0.59234 0.23675 0.30856
 H1703 H 0.52978 0.23744 0.32028
 H1704 H 0.63631 0.25243 0.37619
 C1705 C 0.54271 0.74621 0.14924
 C1706 C 0.57629 0.74699 0.13726
 C1707 C 0.60623 0.74942 0.16282
 C1708 C 0.64012 0.74921 0.15188
 H1709 H 0.58150 0.74572 0.10877
 H1710 H 0.60034 0.75095 0.19117
 H1711 H 0.53860 0.74767 0.17793
 H1712 H 0.64592 0.74731 0.12353
 C1713 C 0.02895 0.25917 0.65170
 C1714 C 0.06228 0.25878 0.63909
 C1715 C 0.09263 0.26075 0.66404
 C1716 C 0.12620 0.25737 0.65274
 H1717 H 0.06696 0.25613 0.61058
 H1718 H 0.08725 0.26445 0.69232
 H1719 H 0.02535 0.26199 0.68038
 H1720 H 0.13149 0.25345 0.62447
 C1721 C 0.96290 0.25489 0.65095
 C1722 C 0.92969 0.25260 0.63783
 C1723 C 0.89922 0.24961 0.66247
 C1724 C 0.86552 0.24769 0.65079
 H1725 H 0.92520 0.25249 0.60918
 H1726 H 0.90462 0.24924 0.69097
 H1727 H 0.96613 0.25469 0.67979
 H1728 H 0.86001 0.24871 0.62236
 C1729 C 0.47664 0.74287 0.14725
 C1730 C 0.44377 0.74222 0.13327
 C1731 C 0.41281 0.74073 0.15723
 C1732 C 0.37934 0.74356 0.14531
 H1733 H 0.43995 0.74318 0.10455
 H1734 H 0.41776 0.73839 0.18569
 H1735 H 0.47925 0.74177 0.17612
 H1736 H 0.37426 0.74681 0.11700
 C1737 C 0.46793 0.24807 0.34911
 C1738 C 0.43469 0.24490 0.36185
 C1739 C 0.40398 0.24574 0.33709
 C1740 C 0.37026 0.24301 0.34850
 H1741 H 0.43023 0.24165 0.39023
 H1742 H 0.40924 0.24845 0.30875
 H1743 H 0.47101 0.25253 0.32066
 H1744 H 0.36498 0.24018 0.37681
 C1745 C 0.95636 0.74386 0.85119
 C1746 C 0.92313 0.74358 0.86409
 C1747 C 0.89263 0.74342 0.83939
 C1748 C 0.85905 0.74508 0.85111
 H1749 H 0.91866 0.74494 0.89271
 H1750 H 0.89790 0.74250 0.81089
 H1751 H 0.95994 0.74294 0.82241
 H1752 H 0.85371 0.74545 0.87959
   
