data_POSCAR
  _audit_creation_date              2014-09-24
  _audit_creation_method            'ToBaCCo'
  _symmetry_space_group_name_H-M    'P1'
  _symmetry_Int_Tables_number       1
  _symmetry_cell_setting            triclinic
  loop_
  _symmetry_equiv_pos_as_xyz
 x,y,z
_cell_length_a 51.0136
_cell_length_b 49.5544
_cell_length_c 53.2660
_cell_angle_alpha 89.959200
_cell_angle_beta 89.965700
_cell_angle_gamma 89.867800
loop_
  _atom_site_label
  _atom_site_type_symbol
  _atom_site_fract_x
  _atom_site_fract_y
  _atom_site_fract_z
O1 O 0.37327 0.32281 -0.03118
 O2 O 0.33827 0.36541 0.01444
 O3 O 0.37476 0.32943 0.01734
 O4 O 0.33639 0.35971 -0.03398
 O5 O 0.30590 0.32866 -0.02894
 O6 O 0.34562 0.29670 0.02054
 O7 O 0.30879 0.33326 0.01938
 O8 O 0.34218 0.29201 -0.02817
 Cu9 Cu 0.35875 0.34748 -0.00892
 Cu10 Cu 0.32266 0.30941 -0.00384
 C11 C 0.36352 0.30031 -0.03763
 C12 C 0.31765 0.35645 0.02485
 C13 C 0.36671 0.30790 0.02769
 C14 C 0.31433 0.34970 -0.03991
 O15 O 0.67742 0.65175 0.03055
 O16 O 0.63907 0.68765 -0.01789
 O17 O 0.67611 0.65149 -0.01841
 O18 O 0.63945 0.68757 0.03113
 O19 O 0.66897 0.72005 0.03058
 O20 O 0.70554 0.68403 -0.01894
 O21 O 0.66858 0.72016 -0.01827
 O22 O 0.70684 0.68432 0.02990
 Cu23 Cu 0.65506 0.66636 0.00650
 Cu24 Cu 0.69041 0.70538 0.00585
 C25 C 0.69883 0.66181 0.03829
 C26 C 0.64739 0.71001 -0.02641
 C27 C 0.69704 0.66164 -0.02725
 C28 C 0.64783 0.71009 0.03915
 O29 O 0.61817 0.33944 1.02614
 O30 O 0.64808 0.38342 0.97798
 O31 O 0.61517 0.34346 0.97751
 O32 O 0.64953 0.38086 1.02712
 O33 O 0.68348 0.35345 1.02367
 O34 O 0.64875 0.31548 0.97432
 O35 O 0.68171 0.35539 0.97545
 O36 O 0.65197 0.31175 1.02317
 Cu37 Cu 0.62939 0.36462 1.00253
 Cu38 Cu 0.66976 0.33111 0.99893
 C39 C 0.63003 0.31802 1.03279
 C40 C 0.67010 0.37680 0.96858
 C41 C 0.62607 0.32314 0.96740
 C42 C 0.67248 0.37381 1.03371
 O43 O 0.32106 0.64126 0.97604
 O44 O 0.35583 0.67929 1.02535
 O45 O 0.32076 0.64104 1.02502
 O46 O 0.35671 0.67856 0.97629
 O47 O 0.32568 0.70972 0.97601
 O48 O 0.28942 0.67180 1.02431
 O49 O 0.32468 0.71030 1.02450
 O50 O 0.28979 0.67217 0.97597
 Cu51 Cu 0.34175 0.65695 1.00078
 Cu52 Cu 0.30429 0.69412 1.00020
 C53 C 0.29932 0.65018 0.96783
 C54 C 0.34628 0.70150 1.03305
 C55 C 0.29872 0.64973 1.03270
 C56 C 0.34740 0.70059 0.96794
 O57 O 0.02341 0.34990 0.37742
 O58 O -0.02901 0.38635 0.34371
 O59 O -0.02764 0.35093 0.37956
 O60 O 0.02170 0.38651 0.34152
 O61 O 0.01996 0.35422 0.31302
 O62 O -0.02739 0.31727 0.35248
 O63 O -0.03102 0.35302 0.31630
 O64 O 0.02328 0.31837 0.34813
 Cu65 Cu -0.00264 0.37167 0.36343
 Cu66 Cu -0.00403 0.33247 0.32965
 C67 C 0.03236 0.32801 0.36838
 C68 C -0.03900 0.37576 0.32424
 C69 C -0.03574 0.32785 0.37272
 C70 C 0.02893 0.37667 0.32061
 O71 O -0.02990 0.62099 0.66727
 O72 O 0.02145 0.64790 0.62528
 O73 O 0.02072 0.61376 0.66237
 O74 O -0.02903 0.65453 0.62935
 O75 O -0.02377 0.68723 0.65697
 O76 O 0.02861 0.64810 0.68763
 O77 O 0.02626 0.68262 0.65086
 O78 O -0.02146 0.65344 0.69446
 Cu79 Cu -0.00493 0.63086 0.64345
 Cu80 Cu 0.00306 0.67118 0.67516
 C81 C -0.03403 0.63243 0.68825
 C82 C 0.03222 0.67022 0.63082
 C83 C 0.03343 0.62417 0.68042
 C84 C -0.03493 0.67786 0.63751
 O85 O 0.98593 0.65931 0.35939
 O86 O 1.03799 0.63044 0.32054
 O87 O 1.03695 0.66404 0.35817
 O88 O 0.98697 0.62842 0.31988
 O89 O 0.98348 0.66461 0.29591
 O90 O 1.03548 0.69801 0.33142
 O91 O 1.03479 0.66461 0.29408
 O92 O 0.98509 0.69563 0.33532
 Cu93 Cu 1.01221 0.64202 0.34204
 Cu94 Cu 1.00942 0.68416 0.31155
 C95 C 0.97692 0.68252 0.35428
 C96 C 1.04516 0.64234 0.30064
 C97 C 1.04489 0.68718 0.35105
 C98 C 0.97640 0.64085 0.30158
 O99 O 0.96735 0.33191 0.64282
 O100 O 1.01411 0.37447 0.67687
 O101 O 1.01840 0.33559 0.64376
 O102 O 0.96349 0.36918 0.67756
 O103 O 0.96670 0.33852 0.70746
 O104 O 1.02017 0.30494 0.67375
 O105 O 1.01756 0.34342 0.70646
 O106 O 0.96949 0.30128 0.67286
 Cu107 Cu 0.99055 0.35583 0.65722
 Cu108 Cu 0.99364 0.31902 0.69314
 C109 C 0.96049 0.30933 0.65189
 C110 C 1.02387 0.36623 0.69739
 C111 C 1.02858 0.31433 0.65309
 C112 C 0.95601 0.35959 0.69854
 O113 O 0.37433 0.03463 0.34900
 O114 O 0.34572 -0.01942 0.38837
 O115 O 0.37829 -0.01772 0.35080
 O116 O 0.34277 0.03326 0.38794
 O117 O 0.30925 0.03094 0.36185
 O118 O 0.34455 -0.02100 0.32506
 O119 O 0.31178 -0.02124 0.36272
 O120 O 0.34062 0.03138 0.32323
 Cu121 Cu 0.36363 0.00805 0.37165
 Cu122 Cu 0.32323 0.00475 0.34061
 C123 C 0.36235 0.04198 0.32920
 C124 C 0.32369 -0.02938 0.38220
 C125 C 0.36752 -0.02813 0.33164
 C126 C 0.31994 0.04073 0.38137
 O127 O 0.66061 -0.03431 0.62178
 O128 O 0.63392 0.01684 0.66473
 O129 O 0.66344 0.01787 0.62546
 O130 O 0.63080 -0.03533 0.66234
 O131 O 0.66616 -0.03965 0.68592
 O132 O 0.69880 0.01331 0.64903
 O133 O 0.66874 0.01241 0.68905
 O134 O 0.69531 -0.03887 0.64623
 Cu135 Cu 0.64363 -0.00852 0.64112
 Cu136 Cu 0.68582 -0.01352 0.66994
 C137 C 0.68265 -0.04511 0.62659
 C138 C 0.64669 0.02321 0.68426
 C139 C 0.68674 0.02461 0.63099
 C140 C 0.64282 -0.04631 0.68060
 O141 O 0.34111 1.02745 0.62855
 O142 O 0.37094 0.97219 0.66556
 O143 O 0.34039 0.97478 0.62639
 O144 O 0.37253 1.02476 0.66721
 O145 O 0.33799 1.02485 0.69218
 O146 O 0.30627 0.97407 0.65190
 O147 O 0.33660 0.97251 0.69079
 O148 O 0.30639 1.02635 0.65331
 Cu149 Cu 0.35970 0.99988 0.64439
 Cu150 Cu 0.31837 0.99956 0.67456
 C151 C 0.31842 1.03600 0.63450
 C152 C 0.35878 0.96299 0.68456
 C153 C 0.31791 0.96576 0.63228
 C154 C 0.36085 1.03319 0.68675
 O155 O 0.63389 0.97569 0.32903
 O156 O 0.67253 1.02634 0.36394
 O157 O 0.63794 1.02758 0.32759
 O158 O 0.66690 0.97417 0.36664
 O159 O 0.69952 0.97013 0.33962
 O160 O 0.67016 1.02335 0.30014
 O161 O 0.70438 1.02212 0.33619
 O162 O 0.66674 0.97087 0.30236
 Cu163 Cu 0.64960 1.00141 0.34959
 Cu164 Cu 0.68843 0.99618 0.31685
 C165 C 0.64386 0.96469 0.30970
 C166 C 0.69517 1.03285 0.35596
 C167 C 0.64887 1.03438 0.30715
 C168 C 0.68824 0.96313 0.35988
 C169 C 0.81804 0.80367 0.50504
 C170 C 0.82110 0.80648 0.47982
 C171 C 0.84219 0.79193 0.46644
 C172 C 0.80529 0.82528 0.46421
 C173 C 0.79922 0.82009 0.51993
 C174 C 0.83494 0.78473 0.51941
 C175 C 0.86827 0.80043 0.46870
 C176 C 0.88777 0.78860 0.45394
 C177 C 0.88142 0.76782 0.43712
 C178 C 0.85545 0.75868 0.43562
 C179 C 0.83586 0.77097 0.44993
 C180 C 0.81829 0.84381 0.44868
 C181 C 0.80424 0.86072 0.43271
 C182 C 0.77676 0.85944 0.43174
 C183 C 0.76360 0.84136 0.44772
 C184 C 0.77777 0.82420 0.46369
 C185 C 0.78413 0.80751 0.53864
 C186 C 0.76814 0.82277 0.55447
 C187 C 0.76664 0.85083 0.55159
 C188 C 0.78119 0.86347 0.53262
 C189 C 0.79780 0.84829 0.51725
 C190 C 0.83378 0.75682 0.51522
 C191 C 0.84978 0.73923 0.52894
 C192 C 0.86738 0.74927 0.54705
 C193 C 0.86807 0.77729 0.55135
 C194 C 0.85198 0.79479 0.53773
 H195 H 0.87331 0.81675 0.48131
 H196 H 0.90776 0.79570 0.45559
 H197 H 0.85019 0.74267 0.42275
 H198 H 0.81574 0.76438 0.44796
 H199 H 0.83946 0.84528 0.44893
 H200 H 0.81497 0.87501 0.42129
 H201 H 0.76736 0.80987 0.47534
 H202 H 0.78507 0.78585 0.54126
 H203 H 0.75703 0.81272 0.56907
 H204 H 0.78054 0.88519 0.53043
 H205 H 0.81001 0.85870 0.50375
 H206 H 0.82031 0.74869 0.50147
 H207 H 0.84790 0.71782 0.52554
 H208 H 0.88127 0.78581 0.56513
 H209 H 0.85300 0.81628 0.54129
 H210 H 0.74241 0.84009 0.44743
 C211 C 0.18276 0.19642 0.52206
 C212 C 0.18007 0.19602 0.49658
 C213 C 0.16104 0.21382 0.48332
 C214 C 0.19529 0.17682 0.48070
 C215 C 0.19839 0.17546 0.53513
 C216 C 0.16769 0.21546 0.53826
 C217 C 0.13460 0.21501 0.49072
 C218 C 0.11719 0.23254 0.47868
 C219 C 0.12566 0.24839 0.45841
 C220 C 0.15173 0.24625 0.45022
 C221 C 0.16933 0.22926 0.46270
 C222 C 0.18203 0.15927 0.46447
 C223 C 0.19594 0.14139 0.44914
 C224 C 0.22356 0.14092 0.44940
 C225 C 0.23678 0.15849 0.46582
 C226 C 0.22280 0.17635 0.48121
 C227 C 0.22112 0.18251 0.54835
 C228 C 0.23522 0.16284 0.56156
 C229 C 0.22626 0.13608 0.56234
 C230 C 0.20355 0.12908 0.54896
 C231 C 0.18983 0.14859 0.53531
 C232 C 0.16794 0.24346 0.53398
 C233 C 0.15136 0.26062 0.54766
 C234 C 0.13440 0.25010 0.56610
 C235 C 0.13530 0.22225 0.57117
 C236 C 0.15171 0.20518 0.55744
 H237 H 0.12746 0.20249 0.50590
 H238 H 0.09697 0.23329 0.48487
 H239 H 0.15858 0.25810 0.43444
 H240 H 0.18951 0.22833 0.45642
 H241 H 0.16080 0.15921 0.46389
 H242 H 0.18491 0.12770 0.43743
 H243 H 0.23345 0.18999 0.49334
 H244 H 0.22788 0.20321 0.54844
 H245 H 0.25265 0.16866 0.57180
 H246 H 0.19643 0.10851 0.54906
 H247 H 0.17222 0.14290 0.52529
 H248 H 0.18051 0.25193 0.51961
 H249 H 0.15189 0.28202 0.54372
 H250 H 0.12266 0.21341 0.58527
 H251 H 0.15114 0.18371 0.56119
 H252 H 0.25799 0.15870 0.46653
 C253 C 0.19191 0.80389 0.48973
 C254 C 0.18897 0.80377 0.51508
 C255 C 0.16843 0.78725 0.52715
 C256 C 0.20321 0.82302 0.53155
 C257 C 0.20715 0.82538 0.47718
 C258 C 0.17653 0.78546 0.47339
 C259 C 0.14199 0.79447 0.52439
 C260 C 0.12265 0.78064 0.53766
 C261 C 0.12946 0.75907 0.55345
 C262 C 0.15580 0.75116 0.55545
 C263 C 0.17527 0.76548 0.54266
 C264 C 0.18902 0.84014 0.54756
 C265 C 0.20197 0.85842 0.56309
 C266 C 0.22950 0.85984 0.56319
 C267 C 0.24372 0.84280 0.54700
 C268 C 0.23070 0.82444 0.53143
 C269 C 0.23056 0.81929 0.46459
 C270 C 0.24437 0.83965 0.45209
 C271 C 0.23443 0.86609 0.45141
 C272 C 0.21104 0.87211 0.46416
 C273 C 0.19761 0.85194 0.47711
 C274 C 0.17756 0.75734 0.47663
 C275 C 0.16167 0.74038 0.46217
 C276 C 0.14442 0.75125 0.44413
 C277 C 0.14412 0.77939 0.44051
 C278 C 0.15997 0.79625 0.45493
 H279 H 0.13651 0.81136 0.51257
 H280 H 0.10239 0.78694 0.53585
 H281 H 0.16137 0.73464 0.56767
 H282 H 0.19564 0.75983 0.54501
 H283 H 0.16780 0.83970 0.54776
 H284 H 0.19026 0.87177 0.57462
 H285 H 0.24206 0.81124 0.51940
 H286 H 0.23807 0.79883 0.46448
 H287 H 0.26234 0.83462 0.44230
 H288 H 0.20316 0.89242 0.46406
 H289 H 0.17949 0.85688 0.48669
 H290 H 0.19057 0.74856 0.49048
 H291 H 0.16315 0.71883 0.46506
 H292 H 0.13118 0.78854 0.42682
 H293 H 0.15875 0.81785 0.45209
 H294 H 0.26493 0.84343 0.54661
 C295 C 0.81823 0.18307 0.48782
 C296 C 0.81938 0.18227 0.51327
 C297 C 0.83648 0.20070 0.52780
 C298 C 0.80482 0.16163 0.52768
 C299 C 0.79979 0.16580 0.47355
 C300 C 0.83683 0.19955 0.47304
 C301 C 0.85463 0.19013 0.54498
 C302 C 0.87038 0.20733 0.55919
 C303 C 0.86831 0.23547 0.55651
 C304 C 0.84980 0.24603 0.53952
 C305 C 0.83401 0.22879 0.52537
 C306 C 0.81239 0.13444 0.52638
 C307 C 0.79956 0.11509 0.54093
 C308 C 0.77869 0.12261 0.55669
 C309 C 0.77079 0.14976 0.55754
 C310 C 0.78406 0.16922 0.54343
 C311 C 0.77267 0.16750 0.47769
 C312 C 0.75542 0.15097 0.46433
 C313 C 0.76503 0.13235 0.44658
 C314 C 0.79223 0.13110 0.44229
 C315 C 0.80940 0.14767 0.45558
 C316 C 0.82828 0.22305 0.46083
 C317 C 0.84575 0.23813 0.44626
 C318 C 0.87168 0.22929 0.44298
 C319 C 0.88015 0.20565 0.45505
 C320 C 0.86292 0.19105 0.47025
 H321 H 0.85672 0.16852 0.54728
 H322 H 0.88437 0.19857 0.57214
 H323 H 0.84703 0.26757 0.53753
 H324 H 0.81953 0.23737 0.51281
 H325 H 0.82850 0.12835 0.51437
 H326 H 0.80578 0.09422 0.53973
 H327 H 0.77810 0.19017 0.54465
 H328 H 0.76485 0.18180 0.49113
 H329 H 0.73463 0.15324 0.46768
 H330 H 0.80036 0.11706 0.42879
 H331 H 0.83025 0.14604 0.45208
 H332 H 0.80814 0.22973 0.46273
 H333 H 0.83890 0.25631 0.43703
 H334 H 0.90014 0.19863 0.45283
 H335 H 0.86971 0.17284 0.47945
 H336 H 0.75475 0.15596 0.56957
 C337 C 0.50982 0.80961 0.81281
 C338 C 0.48338 0.80644 0.81064
 C339 C 0.46783 0.82096 0.79129
 C340 C 0.46846 0.79029 0.82914
 C341 C 0.52508 0.79438 0.83192
 C342 C 0.52457 0.82889 0.79673
 C343 C 0.44724 0.83793 0.79879
 C344 C 0.43434 0.85413 0.78128
 C345 C 0.44170 0.85375 0.75583
 C346 C 0.46141 0.83561 0.74811
 C347 C 0.47427 0.81928 0.76569
 C348 C 0.46522 0.79971 0.85377
 C349 C 0.45047 0.78488 0.87103
 C350 C 0.43930 0.76014 0.86405
 C351 C 0.44274 0.75065 0.83941
 C352 C 0.45693 0.76584 0.82197
 C353 C 0.52452 0.76607 0.83264
 C354 C 0.53844 0.75197 0.85107
 C355 C 0.55335 0.76593 0.86909
 C356 C 0.55444 0.79426 0.86781
 C357 C 0.54045 0.80832 0.84942
 C358 C 0.54658 0.82002 0.78321
 C359 C 0.55973 0.83758 0.76699
 C360 C 0.55092 0.86424 0.76383
 C361 C 0.52948 0.87339 0.77807
 C362 C 0.51669 0.85600 0.79465
 H363 H 0.44186 0.83951 0.81840
 H364 H 0.41918 0.86771 0.78788
 H365 H 0.46704 0.83404 0.72859
 H366 H 0.48975 0.80587 0.75945
 H367 H 0.47387 0.81868 0.85948
 H368 H 0.44802 0.79256 0.88992
 H369 H 0.45915 0.75846 0.80295
 H370 H 0.51338 0.75489 0.81884
 H371 H 0.53782 0.73015 0.85086
 H372 H 0.56583 0.80562 0.88130
 H373 H 0.54129 0.83016 0.84906
 H374 H 0.55320 0.79930 0.78479
 H375 H 0.57638 0.83015 0.75641
 H376 H 0.52277 0.89408 0.77656
 H377 H 0.50036 0.86357 0.80558
 H378 H 0.43401 0.73178 0.83355
 C379 C 0.51099 0.18581 0.18659
 C380 C 0.48436 0.18624 0.18877
 C381 C 0.47032 0.17197 0.20934
 C382 C 0.46814 0.19888 0.16893
 C383 C 0.52442 0.20426 0.16875
 C384 C 0.52744 0.16658 0.20123
 C385 C 0.44946 0.15462 0.20367
 C386 C 0.43727 0.13977 0.22261
 C387 C 0.44562 0.14190 0.24769
 C388 C 0.46585 0.16012 0.25349
 C389 C 0.47800 0.17508 0.23450
 C390 C 0.46725 0.18717 0.14498
 C391 C 0.45168 0.19853 0.12621
 C392 C 0.43719 0.22207 0.13099
 C393 C 0.43833 0.23398 0.15488
 C394 C 0.45336 0.22215 0.17390
 C395 C 0.51996 0.23219 0.17000
 C396 C 0.53159 0.24955 0.15265
 C397 C 0.54809 0.23935 0.13371
 C398 C 0.55329 0.21146 0.13309
 C399 C 0.54155 0.19407 0.15045
 C400 C 0.55038 0.17541 0.21326
 C401 C 0.56512 0.15756 0.22798
 C402 C 0.55688 0.13078 0.23113
 C403 C 0.53458 0.12168 0.21834
 C404 C 0.52031 0.13926 0.20312
 H405 H 0.44310 0.15191 0.18445
 H406 H 0.42170 0.12602 0.21746
 H407 H 0.47227 0.16299 0.27266
 H408 H 0.49364 0.18885 0.23938
 H409 H 0.47849 0.16910 0.14096
 H410 H 0.45127 0.18920 0.10783
 H411 H 0.45384 0.23132 0.19235
 H412 H 0.50739 0.24053 0.18445
 H413 H 0.52788 0.27098 0.15434
 H414 H 0.56605 0.20301 0.11885
 H415 H 0.54539 0.17260 0.14931
 H416 H 0.55652 0.19625 0.21174
 H417 H 0.58241 0.16484 0.23759
 H418 H 0.52825 0.10091 0.22010
 H419 H 0.50338 0.13163 0.19317
 H420 H 0.42728 0.25217 0.15887
 C421 C 0.49807 0.17871 0.81357
 C422 C 0.52470 0.18000 0.81172
 C423 C 0.53900 0.16278 0.79370
 C424 C 0.54106 0.19705 0.82845
 C425 C 0.48337 0.19306 0.83367
 C426 C 0.48238 0.16243 0.79553
 C427 C 0.54090 0.13491 0.79782
 C428 C 0.55472 0.11868 0.78098
 C429 C 0.56621 0.13007 0.75953
 C430 C 0.56422 0.15797 0.75538
 C431 C 0.55103 0.17431 0.77262
 C432 C 0.56153 0.18514 0.84215
 C433 C 0.57640 0.20042 0.85886
 C434 C 0.57132 0.22811 0.86208
 C435 C 0.55108 0.24014 0.84799
 C436 C 0.53625 0.22480 0.83115
 C437 C 0.46124 0.20856 0.82741
 C438 C 0.44772 0.22288 0.84592
 C439 C 0.45639 0.22228 0.87088
 C440 C 0.47802 0.20622 0.87734
 C441 C 0.49107 0.19125 0.85897
 C442 C 0.48412 0.16707 0.76958
 C443 C 0.46991 0.15119 0.75274
 C444 C 0.45334 0.13060 0.76156
 C445 C 0.45085 0.12672 0.78760
 C446 C 0.46528 0.14245 0.80441
 H447 H 0.53183 0.12584 0.81416
 H448 H 0.55608 0.09718 0.78443
 H449 H 0.57319 0.16710 0.73902
 H450 H 0.54980 0.19586 0.76937
 H451 H 0.56552 0.16374 0.84048
 H452 H 0.59130 0.19025 0.86981
 H453 H 0.52079 0.23448 0.82050
 H454 H 0.45471 0.20996 0.80811
 H455 H 0.43092 0.23503 0.84064
 H456 H 0.48462 0.20504 0.89664
 H457 H 0.50738 0.17855 0.86445
 H458 H 0.49647 0.18303 0.76236
 H459 H 0.47166 0.15532 0.73286
 H460 H 0.43813 0.11113 0.79495
 H461 H 0.46341 0.13876 0.82438
 H462 H 0.54672 0.26142 0.85002
 C463 C 0.47558 0.81822 0.18798
 C464 C 0.50223 0.82036 0.18756
 C465 C 0.51660 0.83976 0.20378
 C466 C 0.51843 0.80365 0.17018
 C467 C 0.46186 0.80058 0.16988
 C468 C 0.45863 0.83453 0.20500
 C469 C 0.50956 0.86720 0.20475
 C470 C 0.52301 0.88494 0.22053
 C471 C 0.54427 0.87574 0.23495
 C472 C 0.55193 0.84859 0.23322
 C473 C 0.53811 0.83074 0.21791
 C474 C 0.53520 0.81624 0.15292
 C475 C 0.55043 0.80085 0.13640
 C476 C 0.54921 0.77250 0.13676
 C477 C 0.53281 0.75992 0.15453
 C478 C 0.51768 0.77535 0.17112
 C479 C 0.45023 0.77654 0.17810
 C480 C 0.43725 0.75984 0.16103
 C481 C 0.43512 0.76742 0.13571
 C482 C 0.44646 0.79172 0.12763
 C483 C 0.46003 0.80803 0.14455
 C484 C 0.46262 0.83490 0.23110
 C485 C 0.44716 0.85144 0.24651
 C486 C 0.42706 0.86749 0.23621
 C487 C 0.42284 0.86661 0.21012
 C488 C 0.43836 0.85026 0.19477
 H489 H 0.49368 0.87489 0.19331
 H490 H 0.51717 0.90595 0.22102
 H491 H 0.56839 0.84110 0.24403
 H492 H 0.54411 0.80976 0.21722
 H493 H 0.53627 0.83805 0.15205
 H494 H 0.56292 0.81119 0.12307
 H495 H 0.50551 0.76520 0.18483
 H496 H 0.45142 0.77066 0.19765
 H497 H 0.42834 0.74136 0.16770
 H498 H 0.44496 0.79793 0.10818
 H499 H 0.46883 0.82664 0.13803
 H500 H 0.47789 0.82265 0.23948
 H501 H 0.45088 0.85163 0.26652
 H502 H 0.40808 0.87916 0.20135
 H503 H 0.43496 0.85047 0.17470
 H504 H 0.53196 0.73816 0.15599
 C505 C 0.80065 0.52346 0.81473
 C506 C 0.80056 0.49600 0.81502
 C507 C 0.78648 0.48107 0.83489
 C508 C 0.81705 0.47988 0.79746
 C509 C 0.81859 0.53824 0.79787
 C510 C 0.78484 0.53960 0.83279
 C511 C 0.79620 0.48092 0.85950
 C512 C 0.78322 0.46648 0.87825
 C513 C 0.76005 0.45243 0.87271
 C514 C 0.75006 0.45306 0.84817
 C515 C 0.76345 0.46696 0.82926
 C516 C 0.83605 0.46213 0.80699
 C517 C 0.85267 0.44800 0.79077
 C518 C 0.85074 0.45133 0.76461
 C519 C 0.83113 0.46853 0.75505
 C520 C 0.81438 0.48255 0.77133
 C521 C 0.80894 0.55088 0.77621
 C522 C 0.82627 0.56264 0.75907
 C523 C 0.85338 0.56247 0.76378
 C524 C 0.86282 0.55070 0.78599
 C525 C 0.84558 0.53840 0.80279
 C526 C 0.75754 0.53653 0.83424
 C527 C 0.74300 0.55073 0.85219
 C528 C 0.75548 0.56841 0.86906
 C529 C 0.78272 0.57212 0.86691
 C530 C 0.79723 0.55788 0.84898
 H531 H 0.81398 0.49177 0.86407
 H532 H 0.79113 0.46643 0.89711
 H533 H 0.73226 0.44228 0.84354
 H534 H 0.75575 0.46698 0.81031
 H535 H 0.83848 0.45968 0.82706
 H536 H 0.86747 0.43488 0.79879
 H537 H 0.79939 0.49558 0.76354
 H538 H 0.78812 0.55086 0.77224
 H539 H 0.81853 0.57196 0.74224
 H540 H 0.88364 0.55037 0.78999
 H541 H 0.85324 0.52867 0.81946
 H542 H 0.74749 0.52306 0.82148
 H543 H 0.72197 0.54800 0.85258
 H544 H 0.79296 0.58564 0.87948
 H545 H 0.81826 0.56065 0.84817
 H546 H 0.82846 0.47099 0.73503
 C547 C 0.19017 0.50325 0.17828
 C548 C 0.18585 0.47618 0.17700
 C549 C 0.19982 0.45934 0.15827
 C550 C 0.16697 0.46192 0.19378
 C551 C 0.17694 0.52064 0.19696
 C552 C 0.20709 0.51726 0.15985
 C553 C 0.18545 0.44382 0.14115
 C554 C 0.19835 0.42759 0.12363
 C555 C 0.22589 0.42652 0.12306
 C556 C 0.24022 0.44204 0.14030
 C557 C 0.22729 0.45808 0.15794
 C558 C 0.14118 0.47134 0.19725
 C559 C 0.12387 0.45756 0.21308
 C560 C 0.13164 0.43349 0.22482
 C561 C 0.15712 0.42364 0.22084
 C562 C 0.17464 0.43780 0.20561
 C563 C 0.17942 0.51573 0.22278
 C564 C 0.16500 0.53102 0.24000
 C565 C 0.14784 0.55144 0.23161
 C566 C 0.14657 0.55710 0.20578
 C567 C 0.16100 0.54191 0.18866
 C568 C 0.23178 0.52683 0.16717
 C569 C 0.24724 0.54139 0.15027
 C570 C 0.23780 0.54732 0.12614
 C571 C 0.21301 0.53788 0.11890
 C572 C 0.19790 0.52260 0.13554
 H573 H 0.16423 0.44450 0.14122
 H574 H 0.18675 0.41631 0.11028
 H575 H 0.26144 0.44146 0.14038
 H576 H 0.23870 0.46936 0.17145
 H577 H 0.13434 0.48925 0.18761
 H578 H 0.10419 0.46533 0.21567
 H579 H 0.19430 0.42995 0.20309
 H580 H 0.19211 0.49974 0.22952
 H581 H 0.16728 0.52666 0.25978
 H582 H 0.13370 0.57272 0.19864
 H583 H 0.15892 0.54610 0.16881
 H584 H 0.23898 0.52305 0.18597
 H585 H 0.26621 0.54874 0.15626
 H586 H 0.20541 0.54232 0.10036
 H587 H 0.17875 0.51554 0.12975
 H588 H 0.16359 0.40519 0.22984
 C589 C 0.81475 0.48685 0.17972
 C590 C 0.81800 0.51417 0.17976
 C591 C 0.80084 0.53173 0.16413
 C592 C 0.83886 0.52749 0.19495
 C593 C 0.82924 0.46872 0.19710
 C594 C 0.79800 0.47351 0.16073
 C595 C 0.81180 0.54974 0.14675
 C596 C 0.79562 0.56535 0.13125
 C597 C 0.76817 0.56321 0.13283
 C598 C 0.75729 0.54588 0.15096
 C599 C 0.77346 0.53040 0.16650
 C600 C 0.86482 0.51788 0.19461
 C601 C 0.88392 0.52957 0.20991
 C602 C 0.87768 0.55173 0.22522
 C603 C 0.85209 0.56224 0.22460
 C604 C 0.83282 0.55013 0.20973
 C605 C 0.82917 0.47323 0.22313
 C606 C 0.84416 0.45687 0.23904
 C607 C 0.85911 0.43543 0.22927
 C608 C 0.85857 0.43061 0.20325
 C609 C 0.84369 0.44698 0.18740
 C610 C 0.77496 0.46024 0.16802
 C611 C 0.76001 0.44631 0.15028
 C612 C 0.76847 0.44466 0.12525
 C613 C 0.79152 0.45798 0.11798
 C614 C 0.80603 0.47257 0.13555
 H615 H 0.83288 0.55125 0.14480
 H616 H 0.80460 0.57866 0.11761
 H617 H 0.73628 0.54440 0.15336
 H618 H 0.76461 0.51725 0.18034
 H619 H 0.87030 0.50115 0.18262
 H620 H 0.90368 0.52155 0.20946
 H621 H 0.81306 0.55817 0.21008
 H622 H 0.81785 0.48966 0.23105
 H623 H 0.84415 0.46107 0.25898
 H624 H 0.87035 0.41481 0.19490
 H625 H 0.84417 0.44320 0.16738
 H626 H 0.76865 0.46067 0.18744
 H627 H 0.74230 0.43610 0.15620
 H628 H 0.79826 0.45704 0.09871
 H629 H 0.82391 0.48253 0.12973
 H630 H 0.84687 0.57948 0.23607
 C631 C 0.19185 0.48449 0.81340
 C632 C 0.19269 0.51196 0.81285
 C633 C 0.20966 0.52678 0.83063
 C634 C 0.17527 0.52867 0.79668
 C635 C 0.17198 0.46848 0.79945
 C636 C 0.21014 0.46900 0.82968
 C637 C 0.20294 0.52790 0.85613
 C638 C 0.21828 0.54265 0.87286
 C639 C 0.24091 0.55591 0.86444
 C640 C 0.24790 0.55439 0.83896
 C641 C 0.23212 0.54021 0.82207
 C642 C 0.16082 0.54981 0.80751
 C643 C 0.14403 0.56556 0.79295
 C644 C 0.14136 0.56070 0.76709
 C645 C 0.15584 0.53956 0.75616
 C646 C 0.17288 0.52386 0.77078
 C647 C 0.17983 0.44509 0.78656
 C648 C 0.16133 0.42873 0.77475
 C649 C 0.13466 0.43565 0.77536
 C650 C 0.12674 0.45909 0.78804
 C651 C 0.14516 0.47506 0.80046
 C652 C 0.23737 0.47090 0.82641
 C653 C 0.25439 0.45680 0.84228
 C654 C 0.24443 0.44040 0.86164
 C655 C 0.21711 0.43798 0.86432
 C656 C 0.20015 0.45215 0.84851
 H657 H 0.18555 0.51771 0.86292
 H658 H 0.21256 0.54364 0.89242
 H659 H 0.26512 0.56477 0.83206
 H660 H 0.23743 0.53956 0.80239
 H661 H 0.16208 0.55383 0.82745
 H662 H 0.13265 0.58113 0.80216
 H663 H 0.18409 0.50790 0.76192
 H664 H 0.20033 0.43941 0.78575
 H665 H 0.16787 0.41083 0.76489
 H666 H 0.10620 0.46461 0.78890
 H667 H 0.13841 0.49232 0.81111
 H668 H 0.24542 0.48329 0.81155
 H669 H 0.27526 0.45850 0.83911
 H670 H 0.20880 0.42547 0.87897
 H671 H 0.17918 0.45031 0.85120
 H672 H 0.15415 0.53535 0.73628
 C673 C 0.26673 0.37901 0.06977
 C674 C 0.27699 0.40362 0.07819
 N675 N 0.30029 0.41246 0.06907
 C676 C 0.31383 0.39775 0.05185
 C677 C 0.30366 0.37300 0.04342
 N678 N 0.28028 0.36426 0.05268
 N679 N 0.24339 0.37024 0.07881
 C680 C 0.22973 0.38505 0.09587
 C681 C 0.23992 0.40980 0.10437
 N682 N 0.26346 0.41834 0.09530
 H683 H 0.33237 0.40529 0.04490
 H684 H 0.21138 0.37729 0.10300
 C685 C 0.72063 0.60821 0.08242
 C686 C 0.74498 0.61810 0.09041
 N687 N 0.75361 0.64222 0.08167
 C688 C 0.73904 0.65689 0.06518
 C689 C 0.71469 0.64695 0.05691
 N690 N 0.70611 0.62276 0.06585
 N691 N 0.71207 0.58403 0.09109
 C692 C 0.72671 0.56927 0.10744
 C693 C 0.75122 0.57904 0.11554
 N694 N 0.75970 0.60331 0.10663
 H695 H 0.74652 0.67599 0.05844
 H696 H 0.71949 0.54983 0.11352
 C697 C 0.72181 0.40629 0.92844
 C698 C 0.70757 0.42441 0.91344
 N699 N 0.68133 0.42718 0.91709
 C700 C 0.66867 0.41254 0.93501
 C701 C 0.68284 0.39394 0.94965
 N702 N 0.70912 0.39135 0.94593
 N703 N 0.74810 0.40389 0.92530
 C704 C 0.76087 0.41879 0.90774
 C705 C 0.74667 0.43663 0.89234
 N706 N 0.72024 0.43896 0.89554
 H707 H 0.64774 0.41502 0.93747
 H708 H 0.78184 0.41637 0.90549
 C709 C 0.28427 0.60211 0.91648
 C710 C 0.25693 0.60472 0.91468
 N711 N 0.24412 0.62241 0.92976
 C712 C 0.25741 0.63760 0.94670
 C713 C 0.28473 0.63466 0.94898
 N714 N 0.29753 0.61689 0.93376
 N715 N 0.29708 0.58487 0.90087
 C716 C 0.28374 0.57004 0.88360
 C717 C 0.25630 0.57221 0.88218
 N718 N 0.24360 0.58955 0.89784
 H719 H 0.24667 0.65146 0.95859
 H720 H 0.29435 0.55632 0.87147
 C721 C 0.07207 0.29896 0.42005
 C722 C 0.08956 0.28230 0.40680
 N723 N 0.08851 0.28147 0.38137
 C724 C 0.07057 0.29637 0.36854
 C725 C 0.05305 0.31313 0.38171
 N726 N 0.05435 0.31413 0.40723
 N727 N 0.07254 0.29903 0.44554
 C728 C 0.08962 0.28305 0.45839
 C729 C 0.10720 0.26640 0.44517
 N730 N 0.10681 0.26663 0.41961
 H731 H 0.06996 0.29511 0.34826
 H732 H 0.08960 0.28348 0.47871
 C733 C 0.07269 0.72194 0.59945
 C734 C 0.08838 0.70633 0.58335
 N735 N 0.08504 0.67914 0.58260
 C736 C 0.06679 0.66686 0.59734
 C737 C 0.05155 0.68243 0.61390
 N738 N 0.05493 0.70964 0.61449
 N739 N 0.07539 0.74915 0.59978
 C740 C 0.09320 0.76154 0.58477
 C741 C 0.10935 0.74599 0.56902
 N742 N 0.10660 0.71864 0.56872
 H743 H 0.06455 0.64516 0.59647
 H744 H 0.09513 0.78328 0.58547
 C745 C 0.93779 0.73340 0.38867
 C746 C 0.92045 0.71704 0.40235
 N747 N 0.92188 0.68981 0.40008
 C748 C 0.93992 0.67816 0.38473
 C749 C 0.95702 0.69450 0.37071
 N750 N 0.95548 0.72181 0.37300
 N751 N 0.93683 0.76060 0.39149
 C752 C 0.91924 0.77221 0.40736
 C753 C 0.90156 0.75589 0.42074
 N754 N 0.90258 0.72863 0.41781
 H755 H 0.94072 0.65638 0.38330
 H756 H 0.91867 0.79396 0.40909
 C757 C 0.91736 0.28573 0.60049
 C758 C 0.90958 0.26028 0.60922
 N759 N 0.91811 0.25143 0.63192
 C760 C 0.93423 0.26687 0.64629
 C761 C 0.94226 0.29233 0.63751
 N762 N 0.93351 0.30110 0.61476
 N763 N 0.90900 0.29450 0.57773
 C764 C 0.89310 0.27899 0.56324
 C765 C 0.88517 0.25339 0.57187
 N766 N 0.89379 0.24474 0.59474
 H767 H 0.94085 0.25923 0.66424
 H768 H 0.88728 0.28642 0.54498
 C769 C 0.40997 0.09008 0.30121
 C770 C 0.39640 0.09873 0.27976
 N771 N 0.37185 0.08949 0.27531
 C772 C 0.36027 0.07173 0.29123
 C773 C 0.37391 0.06258 0.31259
 N774 N 0.39849 0.07217 0.31712
 N775 N 0.43469 0.09913 0.30536
 C776 C 0.44653 0.11633 0.28896
 C777 C 0.43308 0.12481 0.26720
 N778 N 0.40823 0.11568 0.26334
 H779 H 0.34073 0.06458 0.28703
 H780 H 0.46649 0.12249 0.29255
 C781 C 0.60496 0.07832 0.70876
 C782 C 0.61137 0.07813 0.73438
 N783 N 0.63001 0.06085 0.74297
 C784 C 0.64237 0.04350 0.72710
 C785 C 0.63538 0.04305 0.70158
 N786 N 0.61683 0.06059 0.69305
 N787 N 0.58673 0.09599 0.70006
 C788 C 0.57444 0.11339 0.71591
 C789 C 0.58027 0.11270 0.74168
 N790 N 0.59867 0.09504 0.75029
 H791 H 0.65695 0.02971 0.73446
 H792 H 0.55978 0.12713 0.70861
 C793 C 0.40601 0.91146 0.70774
 C794 C 0.39294 0.90154 0.72898
 N795 N 0.36893 0.91137 0.73503
 C796 C 0.35740 0.93087 0.72088
 C797 C 0.37052 0.94119 0.69971
 N798 N 0.39458 0.93108 0.69361
 N799 N 0.43017 0.90175 0.70195
 C800 C 0.44194 0.88267 0.71652
 C801 C 0.42900 0.87284 0.73806
 N802 N 0.40471 0.88268 0.74358
 H803 H 0.33827 0.93837 0.72629
 H804 H 0.46151 0.87603 0.71171
 C805 C 0.58747 0.92890 0.28123
 C806 C 0.60018 0.90955 0.26630
 N807 N 0.62674 0.90827 0.26614
 C808 C 0.64125 0.92560 0.28015
 C809 C 0.62862 0.94493 0.29525
 N810 N 0.60193 0.94602 0.29550
 N811 N 0.56091 0.93064 0.28079
 C812 C 0.54646 0.91393 0.26602
 C813 C 0.55914 0.89439 0.25116
 N814 N 0.58578 0.89266 0.25183
 H815 H 0.66242 0.92427 0.27953
 H816 H 0.52531 0.91564 0.26613
 C817 C 0.41696 0.26992 0.92470
 C818 C 0.40301 0.25243 0.90888
 N819 N 0.37657 0.25066 0.91102
 C820 C 0.36338 0.26566 0.92828
 C821 C 0.37722 0.28361 0.94378
 N822 N 0.40375 0.28532 0.94156
 N823 N 0.44349 0.27107 0.92306
 C824 C 0.45672 0.25556 0.90623
 C825 C 0.44276 0.23846 0.89002
 N826 N 0.41616 0.23737 0.89173
 H827 H 0.34228 0.26389 0.92961
 H828 H 0.47787 0.25696 0.90514
 C829 C 0.59607 0.72525 0.92619
 C830 C 0.60436 0.75032 0.91692
 N831 N 0.62637 0.76182 0.92632
 C832 C 0.64055 0.74936 0.94458
 C833 C 0.63235 0.72419 0.95395
 N834 N 0.61018 0.71278 0.94446
 N835 N 0.57401 0.71382 0.91680
 C836 C 0.55989 0.72625 0.89844
 C837 C 0.56819 0.75138 0.88893
 N838 N 0.59027 0.76276 0.89866
 H839 H 0.65805 0.75903 0.95166
 H840 H 0.54215 0.71676 0.89178
 C841 C 0.39264 0.72010 0.08381
 C842 C 0.38845 0.74804 0.08563
 N843 N 0.37029 0.76007 0.07075
 C844 C 0.35615 0.74544 0.05401
 C845 C 0.36063 0.71753 0.05174
 N846 N 0.37887 0.70552 0.06674
 N847 N 0.41036 0.70802 0.09920
 C848 C 0.42412 0.72266 0.11630
 C849 C 0.42029 0.75072 0.11781
 N850 N 0.40251 0.76270 0.10234
 H851 H 0.34190 0.75561 0.04227
 H852 H 0.43821 0.71260 0.12828
 C853 C 0.58285 0.29082 0.07941
 C854 C 0.59535 0.26696 0.08708
 N855 N 0.61891 0.26022 0.07701
 C856 C 0.63056 0.27628 0.05958
 C857 C 0.61808 0.30023 0.05180
 N858 N 0.59443 0.30687 0.06199
 N859 N 0.55924 0.29748 0.08940
 C860 C 0.54760 0.28145 0.10686
 C861 C 0.56013 0.25753 0.11480
 N862 N 0.58374 0.25090 0.10447
 H863 H 0.64934 0.27035 0.05187
 H864 H 0.52855 0.28715 0.11403
 C865 C 0.26580 0.07798 0.60666
 C866 C 0.27990 0.09524 0.59073
 N867 N 0.30639 0.09285 0.58929
 C868 C 0.31944 0.07394 0.60306
 C869 C 0.30537 0.05687 0.61928
 N870 N 0.27883 0.05943 0.62065
 N871 N 0.23929 0.07981 0.60769
 C872 C 0.22615 0.09814 0.59347
 C873 C 0.24014 0.11571 0.57765
 N874 N 0.26681 0.11389 0.57678
 H875 H 0.34054 0.07241 0.60152
 H876 H 0.20500 0.09929 0.59479
 C877 C 0.71598 0.07975 0.40474
 C878 C 0.74084 0.08719 0.39596
 N879 N 0.74988 0.07696 0.37401
 C880 C 0.73523 0.05942 0.36041
 C881 C 0.71026 0.05162 0.36915
 N882 N 0.70124 0.06219 0.39118
 N883 N 0.70723 0.08977 0.42693
 C884 C 0.72222 0.10691 0.44077
 C885 C 0.74728 0.11445 0.43203
 N886 N 0.75579 0.10421 0.40973
 H887 H 0.74318 0.05158 0.34302
 H888 H 0.71480 0.11391 0.45863
 C889 C 0.72466 0.90007 0.60212
 C890 C 0.71963 0.90142 0.57623
 N891 N 0.70152 0.91918 0.56744
 C892 C 0.68844 0.93593 0.58335
 C893 C 0.69420 0.93532 0.60915
 N894 N 0.71216 0.91727 0.61788
 N895 N 0.74233 0.88196 0.61103
 C896 C 0.75546 0.86526 0.59517
 C897 C 0.75114 0.86718 0.56918
 N898 N 0.73324 0.88524 0.56030
 H899 H 0.67438 0.95020 0.57584
 H900 H 0.76971 0.85119 0.60267
 C901 C 0.27250 0.92626 0.40871
 C902 C 0.28680 0.91015 0.42554
 N903 N 0.31297 0.91434 0.42826
 C904 C 0.32548 0.93388 0.41486
 C905 C 0.31123 0.94969 0.39767
 N906 N 0.28503 0.94538 0.39508
 N907 N 0.24629 0.92265 0.40632
 C908 C 0.23362 0.90360 0.42003
 C909 C 0.24785 0.88714 0.43668
 N910 N 0.27423 0.89076 0.43897
 H911 H 0.34634 0.93677 0.41732
 H912 H 0.21270 0.90102 0.41766
 C913 C 0.07855 0.38691 0.73884
 C914 C 0.07870 0.41501 0.73543
 N915 N 0.06105 0.42661 0.71970
 C916 C 0.04324 0.41136 0.70716
 C917 C 0.04281 0.38325 0.71076
 N918 N 0.06049 0.37171 0.72665
 N919 N 0.09671 0.37524 0.75400
 C920 C 0.11508 0.39042 0.76588
 C921 C 0.11510 0.41859 0.76272
 N922 N 0.09676 0.43021 0.74760
 H923 H 0.02940 0.42112 0.69469
 H924 H 0.12932 0.38065 0.77791
 C925 C 0.09444 0.59282 0.27890
 C926 C 0.10295 0.60429 0.25629
 N927 N 0.09287 0.62833 0.24869
 C928 C 0.07444 0.64135 0.26266
 C929 C 0.06563 0.62970 0.28520
 N930 N 0.07602 0.60571 0.29277
 N931 N 0.10417 0.56860 0.28631
 C932 C 0.12197 0.55515 0.27201
 C933 C 0.13042 0.56638 0.24908
 N934 N 0.12059 0.59083 0.24194
 H935 H 0.06662 0.66042 0.25611
 H936 H 0.12856 0.53549 0.27817
 C937 C 0.91116 0.39106 0.27570
 C938 C 0.90392 0.41757 0.28181
 N939 N 0.91469 0.42965 0.30220
 C940 C 0.93263 0.41648 0.31663
 C941 C 0.94035 0.39008 0.31023
 N942 N 0.92922 0.37800 0.28992
 N943 N 0.90040 0.37897 0.25534
 C944 C 0.88306 0.39237 0.24048
 C945 C 0.87632 0.41932 0.24602
 N946 N 0.88679 0.43107 0.26686
 H947 H 0.94109 0.42671 0.33262
 H948 H 0.87470 0.38198 0.22455
 C949 C 0.90832 0.59523 0.71275
 C950 C 0.91024 0.60029 0.73861
 N951 N 0.93001 0.61586 0.74745
 C952 C 0.94804 0.62662 0.73159
 C953 C 0.94650 0.62123 0.70571
 N954 N 0.92661 0.60558 0.69691
 N955 N 0.88815 0.58015 0.70392
 C956 C 0.86984 0.56981 0.71981
 C957 C 0.87200 0.57444 0.74578
 N958 N 0.89227 0.58958 0.75449
 H959 H 0.96364 0.63894 0.73916
 H960 H 0.85413 0.55758 0.71232
 C961 C 0.71396 0.61036 0.92633
 C962 C 0.73718 0.62080 0.91621
 N963 N 0.74671 0.64455 0.92496
 C964 C 0.73405 0.65839 0.94342
 C965 C 0.71068 0.64800 0.95374
 N966 N 0.70129 0.62410 0.94479
 N967 N 0.70453 0.58655 0.91764
 C968 C 0.71721 0.57270 0.89921
 C969 C 0.74054 0.58311 0.88883
 N970 N 0.74991 0.60699 0.89785
 H971 H 0.74223 0.67727 0.94991
 H972 H 0.70936 0.55352 0.89321
 C973 C 0.29326 0.39859 0.91315
 C974 C 0.26848 0.38863 0.90669
 N975 N 0.25960 0.36563 0.91754
 C976 C 0.27431 0.35218 0.93477
 C977 C 0.29912 0.36227 0.94164
 N978 N 0.30795 0.38529 0.93045
 N979 N 0.30201 0.42173 0.90243
 C980 C 0.28705 0.43543 0.88552
 C981 C 0.26204 0.42561 0.87906
 N982 N 0.25349 0.40234 0.88996
 H983 H 0.26652 0.33398 0.94316
 H984 H 0.29441 0.45413 0.87783
 C985 C 0.28184 0.59600 0.07650
 C986 C 0.25589 0.60273 0.08266
 N987 N 0.24494 0.62538 0.07285
 C988 C 0.25866 0.64155 0.05696
 C989 C 0.28449 0.63450 0.05011
 N990 N 0.29539 0.61180 0.06021
 N991 N 0.29304 0.57375 0.08687
 C992 C 0.27942 0.55786 0.10310
 C993 C 0.25325 0.56422 0.10887
 N994 N 0.24211 0.58658 0.09845
 H995 H 0.24922 0.65936 0.04938
 H996 H 0.28875 0.54021 0.11112
 C997 C 0.72589 0.39800 0.07296
 C998 C 0.71348 0.41854 0.08672
 N999 N 0.68772 0.42385 0.08268
 C1000 C 0.67376 0.40962 0.06547
 C1001 C 0.68600 0.38869 0.05184
 N1002 N 0.71186 0.38343 0.05612
 N1003 N 0.75187 0.39330 0.07632
 C1004 C 0.76605 0.40823 0.09284
 C1005 C 0.75361 0.42852 0.10694
 N1006 N 0.72751 0.43311 0.10359
 H1007 H 0.65327 0.41450 0.06265
 H1008 H 0.78674 0.40408 0.09522
 C1009 C 0.91878 0.69910 0.58928
 C1010 C 0.91165 0.72482 0.59783
 N1011 N 0.92186 0.73430 0.61961
 C1012 C 0.93908 0.71927 0.63321
 C1013 C 0.94653 0.69345 0.62464
 N1014 N 0.93597 0.68402 0.60283
 N1015 N 0.90892 0.68989 0.56725
 C1016 C 0.89220 0.70523 0.55333
 C1017 C 0.88488 0.73115 0.56182
 N1018 N 0.89499 0.74013 0.58398
 H1019 H 0.94697 0.72757 0.65041
 H1020 H 0.88538 0.69738 0.53559
 C1021 C 0.92363 0.27317 0.39661
 C1022 C 0.91147 0.28550 0.41730
 N1023 N 0.91707 0.31157 0.42285
 C1024 C 0.93430 0.32593 0.40868
 C1025 C 0.94628 0.31381 0.38763
 N1026 N 0.94045 0.28762 0.38215
 N1027 N 0.91877 0.24679 0.39160
 C1028 C 0.90229 0.23217 0.40635
 C1029 C 0.88977 0.24459 0.42683
 N1030 N 0.89462 0.27107 0.43175
 H1031 H 0.93837 0.34666 0.41374
 H1032 H 0.89874 0.21116 0.40201
 C1033 C 0.07737 0.29652 0.60545
 C1034 C 0.08802 0.27288 0.61576
 N1035 N 0.07928 0.26382 0.63825
 C1036 C 0.06017 0.27720 0.65093
 C1037 C 0.04899 0.30083 0.64062
 N1038 N 0.05809 0.30996 0.61804
 N1039 N 0.08611 0.30527 0.58277
 C1040 C 0.10487 0.29137 0.56988
 C1041 C 0.11540 0.26738 0.58005
 N1042 N 0.10654 0.25895 0.60288
 H1043 H 0.05367 0.26921 0.66879
 H1044 H 0.11078 0.29859 0.55158
 C1045 C 0.09146 0.70437 0.40064
 C1046 C 0.10005 0.72977 0.39253
 N1047 N 0.09070 0.74027 0.37082
 C1048 C 0.07292 0.72661 0.35682
 C1049 C 0.06388 0.70113 0.36488
 N1050 N 0.07359 0.69060 0.38668
 N1051 N 0.10071 0.69422 0.42261
 C1052 C 0.11809 0.70835 0.43688
 C1053 C 0.12666 0.73401 0.42885
 N1054 N 0.11726 0.74387 0.40673
 H1055 H 0.06585 0.73576 0.33964
 H1056 H 0.12445 0.69986 0.45455
 C1057 C 0.58963 0.91640 0.71293
 C1058 C 0.60389 0.89838 0.72804
 N1059 N 0.63046 0.89826 0.72691
 C1060 C 0.64348 0.91551 0.71148
 C1061 C 0.62929 0.93361 0.69629
 N1062 N 0.60261 0.93347 0.69733
 N1063 N 0.56309 0.91699 0.71455
 C1064 C 0.55012 0.90049 0.73073
 C1065 C 0.56432 0.88240 0.74594
 N1066 N 0.59095 0.88171 0.74402
 H1067 H 0.66469 0.91516 0.71114
 H1068 H 0.52893 0.90128 0.73150
 C1069 C 0.38356 0.92190 0.28181
 C1070 C 0.40928 0.91451 0.28815
 N1071 N 0.42073 0.92556 0.30869
 C1072 C 0.40767 0.94379 0.32315
 C1073 C 0.38194 0.95151 0.31674
 N1074 N 0.37050 0.94020 0.29617
 N1075 N 0.37213 0.91083 0.26128
 C1076 C 0.38536 0.89297 0.24656
 C1077 C 0.41142 0.88586 0.25249
 N1078 N 0.42256 0.89675 0.27342
 H1079 H 0.41740 0.95232 0.33935
 H1080 H 0.37547 0.88434 0.23052
 C1081 C 0.59686 0.07707 0.27940
 C1082 C 0.61058 0.09139 0.26083
 N1083 N 0.63669 0.08701 0.25783
 C1084 C 0.64969 0.06889 0.27250
 C1085 C 0.63600 0.05471 0.29123
 N1086 N 0.60988 0.05930 0.29422
 N1087 N 0.57064 0.08070 0.28197
 C1088 C 0.55741 0.09793 0.26670
 C1089 C 0.57104 0.11243 0.24816
 N1090 N 0.59743 0.10892 0.24576
 H1091 H 0.67047 0.06566 0.26963
 H1092 H 0.53646 0.10044 0.26907
 C1093 C 0.41168 0.07934 0.71188
 C1094 C 0.40095 0.08677 0.73513
 N1095 N 0.37708 0.07715 0.74193
 C1096 C 0.36348 0.06028 0.72659
 C1097 C 0.37433 0.05247 0.70340
 N1098 N 0.39824 0.06232 0.69665
 N1099 N 0.43553 0.08894 0.70506
 C1100 C 0.44920 0.10568 0.72043
 C1101 C 0.43864 0.11312 0.74389
 N1102 N 0.41468 0.10330 0.75060
 H1103 H 0.34458 0.05279 0.73261
 H1104 H 0.46837 0.11254 0.71460
 C1105 C 0.59501 0.72786 0.08444
 C1106 C 0.60320 0.75322 0.09300
 N1107 N 0.62593 0.76385 0.08423
 C1108 C 0.64083 0.75031 0.06717
 C1109 C 0.63261 0.72493 0.05833
 N1110 N 0.60980 0.71434 0.06731
 N1111 N 0.57221 0.71732 0.09314
 C1112 C 0.55720 0.73095 0.11007
 C1113 C 0.56528 0.75649 0.11876
 N1114 N 0.58819 0.76692 0.10980
 H1115 H 0.65879 0.75939 0.06045
 H1116 H 0.53890 0.72213 0.11615
 C1117 C 0.39246 0.25744 0.07284
 C1118 C 0.41007 0.27299 0.08699
 N1119 N 0.41336 0.29948 0.08139
 C1120 C 0.39984 0.31118 0.06226
 C1121 C 0.38192 0.29578 0.04826
 N1122 N 0.37864 0.26921 0.05400
 N1123 N 0.38973 0.23077 0.07796
 C1124 C 0.40388 0.21888 0.09657
 C1125 C 0.42131 0.23444 0.11095
 N1126 N 0.42389 0.26123 0.10583
 H1127 H 0.40282 0.33237 0.05822
 H1128 H 0.40139 0.19756 0.10028
 C1129 C 0.61225 0.27317 0.91724
 C1130 C 0.58650 0.27995 0.91043
 N1131 N 0.57423 0.30078 0.92210
 C1132 C 0.58652 0.31511 0.94037
 C1133 C 0.61228 0.30825 0.94744
 N1134 N 0.62452 0.28739 0.93557
 N1135 N 0.62454 0.25242 0.90549
 C1136 C 0.61214 0.23787 0.88743
 C1137 C 0.58608 0.24421 0.88082
 N1138 N 0.57406 0.26538 0.89247
 H1139 H 0.57620 0.33158 0.94937
 H1140 H 0.62269 0.22170 0.87825
 C1141 C 0.39494 0.71629 0.91731
 C1142 C 0.39100 0.74411 0.91400
 N1143 N 0.37257 0.75707 0.92791
 C1144 C 0.35793 0.74348 0.94510
 C1145 C 0.36218 0.71572 0.94885
 N1146 N 0.38067 0.70281 0.93479
 N1147 N 0.41293 0.70322 0.90297
 C1148 C 0.42724 0.71673 0.88546
 C1149 C 0.42368 0.74469 0.88240
 N1150 N 0.40561 0.75769 0.89686
 H1151 H 0.34347 0.75435 0.95603
 H1152 H 0.44158 0.70587 0.87437
 C1153 C 0.73615 0.91269 0.38310
 C1154 C 0.72529 0.90525 0.40630
 N1155 N 0.70211 0.91623 0.41364
 C1156 C 0.68942 0.93451 0.39891
 C1157 C 0.70049 0.94233 0.37581
 N1158 N 0.72359 0.93102 0.36848
 N1159 N 0.75933 0.90187 0.37574
 C1160 C 0.77244 0.88425 0.39072
 C1161 C 0.76204 0.87721 0.41434
 N1162 N 0.73843 0.88771 0.42138
 H1163 H 0.67108 0.94310 0.40534
 H1164 H 0.79080 0.87584 0.38417
 C1165 C 0.26888 0.91639 0.60952
 C1166 C 0.27993 0.90786 0.58675
 N1167 N 0.30331 0.91818 0.57928
 C1168 C 0.31611 0.93673 0.59355
 C1169 C 0.30498 0.94547 0.61633
 N1170 N 0.28157 0.93495 0.62372
 N1171 N 0.24563 0.90599 0.61711
 C1172 C 0.23270 0.88763 0.60282
 C1173 C 0.24340 0.87930 0.57967
 N1174 N 0.26700 0.88958 0.57238
 H1175 H 0.33469 0.94465 0.58710
 H1176 H 0.21443 0.87946 0.60973
 C1177 C 0.26699 0.08664 0.40344
 C1178 C 0.27753 0.09666 0.42588
 N1179 N 0.30183 0.08866 0.43318
 C1180 C 0.31605 0.07099 0.41911
 C1181 C 0.30547 0.06067 0.39668
 N1182 N 0.28111 0.06890 0.38942
 N1183 N 0.24278 0.09476 0.39607
 C1184 C 0.22845 0.11224 0.41023
 C1185 C 0.23868 0.12207 0.43306
 N1186 N 0.26322 0.11405 0.44010
 H1187 H 0.33530 0.06490 0.42551
 H1188 H 0.20947 0.11860 0.40341
 C1189 C 0.73978 0.06459 0.60144
 C1190 C 0.72551 0.08376 0.58761
 N1191 N 0.69891 0.08330 0.58820
 C1192 C 0.68590 0.06448 0.60199
 C1193 C 0.70013 0.04545 0.61610
 N1194 N 0.72681 0.04607 0.61550
 N1195 N 0.76635 0.06457 0.60030
 C1196 C 0.77935 0.08286 0.58592
 C1197 C 0.76516 0.10228 0.57224
 N1198 N 0.73848 0.10229 0.57355
 H1199 H 0.66468 0.06453 0.60207
 H1200 H 0.80056 0.08249 0.58546
 C1201 C 0.93533 0.58811 0.27139
 C1202 C 0.91753 0.60388 0.25759
 N1203 N 0.91919 0.63117 0.25853
 C1204 C 0.93790 0.64347 0.27258
 C1205 C 0.95568 0.62780 0.28661
 N1206 N 0.95385 0.60038 0.28573
 N1207 N 0.93402 0.56079 0.26989
 C1208 C 0.91580 0.54853 0.25515
 C1209 C 0.89782 0.56429 0.24141
 N1210 N 0.89913 0.59167 0.24315
 H1211 H 0.93877 0.66529 0.27290
 H1212 H 0.91513 0.52672 0.25443
 C1213 C 0.90566 0.40986 0.71841
 C1214 C 0.89787 0.39937 0.74170
 N1215 N 0.90853 0.37597 0.75009
 C1216 C 0.92684 0.36260 0.73634
 C1217 C 0.93509 0.37315 0.71308
 N1218 N 0.92413 0.39661 0.70464
 N1219 N 0.89502 0.43342 0.71022
 C1220 C 0.87699 0.44700 0.72428
 C1221 C 0.86926 0.43666 0.74783
 N1222 N 0.88007 0.41298 0.75581
 H1223 H 0.93508 0.34406 0.74368
 H1224 H 0.86942 0.46601 0.71740
 C1225 C 0.08642 0.60646 0.72511
 C1226 C 0.09149 0.57939 0.71907
 N1227 N 0.07786 0.56750 0.70019
 C1228 C 0.05927 0.58143 0.68718
 C1229 C 0.05392 0.60849 0.69341
 N1230 N 0.06781 0.62031 0.71223
 N1231 N 0.09996 0.61840 0.74394
 C1232 C 0.11812 0.60440 0.75733
 C1233 C 0.12290 0.57702 0.75181
 N1234 N 0.10956 0.56531 0.73251
 H1235 H 0.04863 0.57139 0.67232
 H1236 H 0.12872 0.61464 0.77208
 C1237 C 0.07855 0.39115 0.27146
 C1238 C 0.08210 0.41908 0.27421
 N1239 N 0.06866 0.43253 0.29232
 C1240 C 0.05174 0.41934 0.30778
 C1241 C 0.04776 0.39144 0.30478
 N1242 N 0.06132 0.37805 0.28659
 N1243 N 0.09247 0.37757 0.25378
 C1244 C 0.10981 0.39065 0.23869
 C1245 C 0.11316 0.41869 0.24112
 N1246 N 0.09908 0.43225 0.25885
 H1247 H 0.04120 0.43060 0.32198
 H1248 H 0.12059 0.37935 0.22468
   
