data_POSCAR
  _audit_creation_date              2014-09-24
  _audit_creation_method            'ToBaCCo'
  _symmetry_space_group_name_H-M    'P1'
  _symmetry_Int_Tables_number       1
  _symmetry_cell_setting            triclinic
  loop_
  _symmetry_equiv_pos_as_xyz
 x,y,z
_cell_length_a 61.4175
_cell_length_b 60.0642
_cell_length_c 60.1298
_cell_angle_alpha 91.062400
_cell_angle_beta 89.567000
_cell_angle_gamma 91.637500
loop_
  _atom_site_label
  _atom_site_type_symbol
  _atom_site_fract_x
  _atom_site_fract_y
  _atom_site_fract_z
C1 C 0.70740 0.65112 0.98283
 H2 H 0.72243 0.66062 0.98524
 C3 C 0.68893 0.66162 0.97510
 H4 H 0.68998 0.67921 0.97149
 C5 C 0.68762 0.61675 0.98497
 H6 H 0.68726 0.59927 0.98902
 C7 C 0.66881 0.62657 0.97748
 H8 H 0.65408 0.61638 0.97566
 N9 N 0.70640 0.62904 0.98748
 C10 C 0.75836 0.63569 1.02972
 H11 H 0.74859 0.62709 1.04200
 C12 C 0.77665 0.64804 1.03666
 H13 H 0.78031 0.64885 1.05424
 C14 C 0.76595 0.64413 0.99209
 H15 H 0.76186 0.64208 0.97469
 C16 C 0.78466 0.65658 0.99833
 H17 H 0.79477 0.66426 0.98562
 Zn18 Zn 0.73015 0.61387 0.99932
 N19 N 0.75337 0.63380 1.00777
 C20 C 0.76017 0.58357 0.98217
 N21 N 0.74114 0.59362 0.97787
 C22 C 0.73129 0.59110 0.95776
 C23 C 0.74084 0.57841 0.94084
 C24 C 0.77039 0.57088 0.96564
 C25 C 0.70754 0.61199 1.03890
 C26 C 0.70042 0.60395 1.05931
 C27 C 0.71739 0.56902 1.05045
 C28 C 0.72427 0.57788 1.03008
 N29 N 0.71962 0.59919 1.02499
 H30 H 0.76783 0.58614 0.99819
 H31 H 0.71639 0.59952 0.95449
 H32 H 0.73298 0.57714 0.92479
 H33 H 0.78585 0.56354 0.96922
 H34 H 0.70402 0.62885 1.03438
 H35 H 0.69123 0.61498 1.07003
 H36 H 0.72171 0.55216 1.05427
 H37 H 0.73375 0.56793 1.01865
 C38 C 0.79035 0.65840 1.02091
 C39 C 0.66926 0.64931 0.97245
 C40 C 0.70561 0.58226 1.06574
 C41 C 0.76090 0.56850 0.94450
 C42 C 0.73772 0.33359 0.50821
 H43 H 0.75272 0.32549 0.50399
 C44 C 0.71895 0.32074 0.51310
 H45 H 0.71972 0.30275 0.51274
 C46 C 0.71825 0.36682 0.51341
 H47 H 0.71813 0.38483 0.51341
 C48 C 0.69915 0.35470 0.51803
 H49 H 0.68444 0.36358 0.52179
 N50 N 0.73701 0.35621 0.50857
 C51 C 0.79153 0.36489 0.46807
 H52 H 0.78294 0.37685 0.45853
 C53 C 0.81024 0.35562 0.45912
 H54 H 0.81556 0.36041 0.44263
 C55 C 0.79546 0.34486 0.50131
 H56 H 0.78982 0.34122 0.51798
 C57 C 0.81425 0.33495 0.49286
 H58 H 0.82293 0.32356 0.50308
 Zn59 Zn 0.76085 0.37532 0.50099
 N60 N 0.78458 0.35958 0.48888
 C61 C 0.78812 0.40549 0.52519
 N62 N 0.77057 0.39125 0.52669
 C63 C 0.76060 0.38731 0.54656
 C64 C 0.76809 0.39803 0.56592
 C65 C 0.79609 0.41670 0.54416
 C66 C 0.73771 0.38433 0.46340
 C67 C 0.72828 0.39663 0.44682
 C68 C 0.74595 0.42988 0.46217
 C69 C 0.75462 0.41696 0.47894
 N70 N 0.75038 0.39459 0.47917
 H71 H 0.79610 0.40791 0.50929
 H72 H 0.74701 0.37557 0.54757
 H73 H 0.75993 0.39453 0.58154
 H74 H 0.81014 0.42787 0.54263
 H75 H 0.73471 0.36652 0.46388
 H76 H 0.71800 0.38818 0.43458
 H77 H 0.74930 0.44768 0.46213
 H78 H 0.76462 0.42484 0.49168
 C79 C 0.82203 0.34063 0.47161
 C80 C 0.69931 0.33135 0.51792
 C81 C 0.73237 0.41967 0.44609
 C82 C 0.78609 0.41293 0.56491
 C83 C 0.21273 -0.17079 -0.00149
 H84 H 0.22378 -0.18106 -0.01086
 C85 C 0.19204 -0.17942 0.00421
 H86 H 0.18744 -0.19624 -0.00097
 C87 C 0.20520 -0.13659 0.01677
 H88 H 0.21050 -0.12000 0.02196
 C89 C 0.18447 -0.14448 0.02278
 H90 H 0.17402 -0.13367 0.03239
 N91 N 0.21873 -0.14952 0.00447
 C92 C 0.28604 -0.15721 -0.00244
 H93 H 0.28922 -0.14608 0.01150
 C94 C 0.30241 -0.17127 -0.00976
 H95 H 0.31780 -0.17084 -0.00107
 C96 C 0.26281 -0.17033 -0.03136
 H97 H 0.24753 -0.16946 -0.04009
 C98 C 0.27888 -0.18449 -0.03943
 H99 H 0.27564 -0.19465 -0.05416
 Zn100 Zn 0.24568 -0.13563 -0.00401
 N101 N 0.26666 -0.15688 -0.01326
 C102 C 0.25973 -0.13063 0.04003
 N103 N 0.25630 -0.11923 0.02109
 C104 C 0.26014 -0.09683 0.02024
 C105 C 0.26800 -0.08507 0.03892
 C106 C 0.26826 -0.11965 0.05882
 C107 C 0.22483 -0.10053 -0.02503
 C108 C 0.21975 -0.08644 -0.04230
 C109 C 0.24724 -0.10395 -0.06500
 C110 C 0.25196 -0.11750 -0.04712
 N111 N 0.24050 -0.11590 -0.02773
 H112 H 0.25629 -0.14838 0.04032
 H113 H 0.25732 -0.08806 0.00506
 H114 H 0.27120 -0.06728 0.03799
 H115 H 0.27140 -0.12902 0.07362
 H116 H 0.21613 -0.09917 -0.00944
 H117 H 0.20701 -0.07459 -0.03947
 H118 H 0.25649 -0.10599 -0.08028
 H119 H 0.26476 -0.12937 -0.04888
 C120 C 0.29910 -0.18491 -0.02869
 C121 C 0.17749 -0.16607 0.01628
 C122 C 0.23070 -0.08821 -0.06295
 C123 C 0.27247 -0.09660 0.05834
 C124 C 0.22592 0.16253 0.46563
 H125 H 0.24109 0.16143 0.45647
 C126 C 0.20927 0.17541 0.45747
 H127 H 0.21198 0.18445 0.44224
 C128 C 0.20349 0.15082 0.49568
 H129 H 0.20100 0.14067 0.51017
 C130 C 0.18649 0.16365 0.48824
 H131 H 0.17118 0.16329 0.49727
 N132 N 0.22256 0.15004 0.48406
 C133 C 0.28513 0.12902 0.50875
 H134 H 0.28005 0.11235 0.51331
 C135 C 0.30600 0.13683 0.51412
 H136 H 0.31682 0.12578 0.52240
 C137 C 0.27664 0.16380 0.49362
 H138 H 0.26508 0.17435 0.48587
 C139 C 0.29749 0.17241 0.49883
 H140 H 0.30176 0.18949 0.49485
 Zn141 Zn 0.24338 0.12871 0.49186
 N142 N 0.27101 0.14229 0.49832
 C143 C 0.26164 0.09167 0.46945
 N144 N 0.24664 0.10780 0.46783
 C145 C 0.23499 0.10991 0.44884
 C146 C 0.23948 0.09679 0.43004
 C147 C 0.26648 0.07802 0.45114
 C148 C 0.23524 0.12601 0.53724
 C149 C 0.22975 0.11611 0.55739
 C150 C 0.22148 0.08169 0.53734
 C151 C 0.22727 0.09225 0.51753
 N152 N 0.23402 0.11401 0.51789
 H153 H 0.27031 0.08967 0.48476
 H154 H 0.22252 0.12214 0.44794
 H155 H 0.23057 0.09936 0.41487
 H156 H 0.27906 0.06588 0.45263
 H157 H 0.24076 0.14327 0.53700
 H158 H 0.23095 0.12600 0.57258
 H159 H 0.21622 0.06433 0.53676
 H160 H 0.22645 0.08306 0.50192
 C161 C 0.31253 0.15875 0.50907
 C162 C 0.18903 0.17560 0.46850
 C163 C 0.22282 0.09363 0.55765
 C164 C 0.25583 0.08100 0.43087
 C165 C 0.15906 0.48662 0.20866
 H166 H 0.16152 0.48072 0.22532
 C167 C 0.17120 0.47794 0.19090
 H168 H 0.18308 0.46546 0.19413
 C169 C 0.13994 0.50940 0.18418
 H170 H 0.12736 0.52122 0.18147
 C171 C 0.15156 0.50108 0.16597
 H172 H 0.14796 0.50697 0.14953
 N173 N 0.14387 0.50215 0.20504
 C174 C 0.13034 0.53314 0.26961
 H175 H 0.11279 0.53277 0.26813
 C176 C 0.13999 0.54114 0.28914
 H177 H 0.12970 0.54713 0.30254
 C178 C 0.16485 0.52529 0.25389
 H179 H 0.17441 0.51896 0.24013
 C180 C 0.17527 0.53350 0.27315
 H181 H 0.19286 0.53331 0.27411
 Zn182 Zn 0.12620 0.51210 0.22900
 N183 N 0.14272 0.52478 0.25277
 C184 C 0.11502 0.48008 0.26050
 N185 N 0.10999 0.48708 0.23984
 C186 C 0.09532 0.47543 0.22696
 C187 C 0.08489 0.45605 0.23500
 C188 C 0.10500 0.46109 0.26915
 C189 C 0.11990 0.55368 0.21310
 C190 C 0.10919 0.57233 0.20603
 C191 C 0.07481 0.55281 0.21239
 C192 C 0.08629 0.53434 0.21929
 N193 N 0.10845 0.53512 0.21931
 H194 H 0.12734 0.48881 0.27022
 H195 H 0.09195 0.48099 0.21036
 H196 H 0.07335 0.44690 0.22454
 H197 H 0.10958 0.45598 0.28560
 H198 H 0.13751 0.55390 0.21363
 H199 H 0.11881 0.58682 0.20109
 H200 H 0.05718 0.55197 0.21235
 H201 H 0.07752 0.51953 0.22472
 C202 C 0.16270 0.54105 0.29127
 C203 C 0.16736 0.48504 0.16916
 C204 C 0.08634 0.57212 0.20557
 C205 C 0.08979 0.44865 0.25640
 C206 C -0.16590 0.02151 0.23900
 H207 H -0.16684 0.02964 0.25517
 C208 C -0.17836 0.02904 0.22140
 H209 H -0.18897 0.04288 0.22441
 C210 C -0.15009 -0.00570 0.21544
 H211 H -0.13857 -0.01875 0.21288
 C212 C -0.16213 0.00128 0.19743
 H213 H -0.15981 -0.00698 0.18146
 N214 N -0.15204 0.00448 0.23572
 C215 C -0.13460 -0.01994 0.30087
 H216 H -0.11721 -0.02022 0.29791
 C217 C -0.14314 -0.02692 0.32115
 H218 H -0.13209 -0.03260 0.33364
 C219 C -0.16983 -0.01209 0.28787
 H220 H -0.18012 -0.00639 0.27475
 C221 C -0.17915 -0.01896 0.30806
 H222 H -0.19663 -0.01845 0.31031
 Zn223 Zn -0.13290 -0.00337 0.25874
 N224 N -0.14787 -0.01251 0.28481
 C225 C -0.11871 0.03254 0.28566
 N226 N -0.11519 0.02218 0.26571
 C227 C -0.10112 0.03113 0.25048
 C228 C -0.08977 0.05122 0.25523
 C229 C -0.10803 0.05268 0.29092
 C230 C -0.12892 -0.04702 0.24575
 C231 C -0.11950 -0.06631 0.23752
 C232 C -0.08454 -0.04681 0.23725
 C233 C -0.09472 -0.02773 0.24550
 N234 N -0.11664 -0.02810 0.24908
 H235 H -0.13042 0.02567 0.29731
 H236 H -0.09907 0.02293 0.23446
 H237 H -0.07884 0.05829 0.24287
 H238 H -0.11139 0.06071 0.30680
 H239 H -0.14626 -0.04690 0.24902
 H240 H -0.12981 -0.08097 0.23460
 H241 H -0.06718 -0.04614 0.23398
 H242 H -0.08517 -0.01264 0.24870
 C243 C -0.16570 -0.02643 0.32507
 C244 C -0.17630 0.01915 0.20006
 C245 C -0.09708 -0.06633 0.23280
 C246 C -0.09349 0.06239 0.27558
 C247 C 0.33484 0.49273 0.70370
 H248 H 0.32760 0.49042 0.71995
 C249 C 0.32201 0.49968 0.68610
 H250 H 0.30492 0.50270 0.68902
 C251 C 0.36590 0.49185 0.68011
 H252 H 0.38311 0.48898 0.67800
 C253 C 0.35369 0.49844 0.66208
 H254 H 0.36173 0.50064 0.64615
 N255 N 0.35644 0.48930 0.70044
 C256 C 0.36288 0.45038 0.75606
 H257 H 0.37291 0.43912 0.74663
 C258 C 0.35331 0.44309 0.77576
 H259 H 0.35595 0.42618 0.78084
 C260 C 0.34834 0.48617 0.76146
 H261 H 0.34686 0.50309 0.75592
 C262 C 0.33854 0.47959 0.78151
 H263 H 0.32933 0.49149 0.79119
 Zn264 Zn 0.37549 0.48110 0.72328
 N265 N 0.36020 0.47154 0.74916
 C266 C 0.40764 0.50413 0.74859
 N267 N 0.39338 0.50603 0.73158
 C268 C 0.39042 0.52594 0.72179
 C269 C 0.40181 0.54503 0.72927
 C270 C 0.41948 0.52282 0.75652
 C271 C 0.38054 0.43955 0.70330
 C272 C 0.39112 0.42067 0.69559
 C273 C 0.42560 0.43912 0.70413
 C274 C 0.41429 0.45767 0.71188
 N275 N 0.39213 0.45734 0.71174
 H276 H 0.40938 0.48819 0.75637
 H277 H 0.37874 0.52723 0.70858
 H278 H 0.39886 0.56076 0.72147
 H279 H 0.43044 0.52102 0.77035
 H280 H 0.36294 0.43988 0.70309
 H281 H 0.38146 0.40657 0.68935
 H282 H 0.44322 0.43949 0.70474
 H283 H 0.42323 0.47214 0.71825
 C284 C 0.34106 0.45776 0.78892
 C285 C 0.33149 0.50272 0.66497
 C286 C 0.41395 0.42015 0.69619
 C287 C 0.41637 0.54370 0.74705
 C288 C 0.64026 0.96214 0.74161
 H289 H 0.63322 0.95101 0.75381
 C290 C 0.65253 0.95351 0.72401
 H291 H 0.65481 0.93572 0.72295
 C292 C 0.64527 0.99872 0.72802
 H293 H 0.64203 1.01629 0.72955
 C294 C 0.65759 0.99078 0.71005
 H295 H 0.66387 1.00244 0.69789
 N296 N 0.63655 0.98431 0.74307
 C297 C 0.62020 1.01334 0.80797
 H298 H 0.60262 1.01163 0.80768
 C299 C 0.63055 1.02166 0.82706
 H300 H 0.62060 1.02636 0.84124
 C301 C 0.65412 1.00896 0.78968
 H302 H 0.66321 1.00382 0.77509
 C303 C 0.66519 1.01761 0.80832
 H304 H 0.68281 1.01901 0.80771
 Zn305 Zn 0.61675 0.99466 0.76489
 N306 N 0.63201 1.00694 0.78986
 C307 C 0.60036 0.96254 0.79512
 N308 N 0.59871 0.97001 0.77399
 C309 C 0.58545 0.95922 0.75898
 C310 C 0.57311 0.94034 0.76510
 C311 C 0.58805 0.94405 0.80203
 C312 C 0.59809 1.03736 0.76196
 C313 C 0.58744 1.05443 0.75142
 C314 C 0.58071 1.02951 0.72011
 C315 C 0.59133 1.01286 0.73134
 N316 N 0.59987 1.01702 0.75186
 H317 H 0.61165 0.97045 0.80662
 H318 H 0.58476 0.96494 0.74211
 H319 H 0.56278 0.93189 0.75290
 H320 H 0.58980 0.93841 0.81891
 H321 H 0.60541 1.04072 0.77795
 H322 H 0.58657 1.07056 0.75966
 H323 H 0.57447 1.02593 0.70360
 H324 H 0.59356 0.99689 0.72322
 C325 C 0.65342 1.02393 0.82752
 C326 C 0.66100 0.96782 0.70764
 C327 C 0.57886 1.05073 0.73006
 C328 C 0.57428 0.93261 0.78693
 C329 C 0.02879 0.23357 -0.14192
 H330 H 0.03546 0.25039 -0.14292
 C331 C 0.03810 0.21643 -0.15446
 H332 H 0.05188 0.22026 -0.16520
 C333 C 0.00317 0.20811 -0.12611
 H334 H -0.00990 0.20468 -0.11447
 C335 C 0.01182 0.19054 -0.13847
 H336 H 0.00498 0.17389 -0.13638
 N337 N 0.01157 0.22919 -0.12818
 C338 C -0.01610 0.29438 -0.11653
 H339 H -0.01643 0.29426 -0.09853
 C340 C -0.02251 0.31318 -0.12768
 H341 H -0.02793 0.32745 -0.11810
 C342 C -0.00844 0.27578 -0.15069
 H343 H -0.00294 0.26114 -0.15953
 C344 C -0.01504 0.29421 -0.16259
 H345 H -0.01442 0.29364 -0.18059
 Zn346 Zn 0.00096 0.25297 -0.11037
 N347 N -0.00876 0.27639 -0.12805
 C348 C 0.03430 0.28337 -0.09848
 N349 N 0.02457 0.26370 -0.09265
 C350 C 0.03336 0.25077 -0.07686
 C351 C 0.05293 0.25745 -0.06650
 C352 C 0.05382 0.29050 -0.08878
 C353 C -0.04012 0.23436 -0.10570
 C354 C -0.05879 0.22577 -0.09537
 C355 C -0.04377 0.23745 -0.05984
 C356 C -0.02495 0.24516 -0.07094
 N357 N -0.02340 0.24314 -0.09345
 H358 H 0.02762 0.29308 -0.11158
 H359 H 0.02565 0.23490 -0.07293
 H360 H 0.06011 0.24670 -0.05448
 H361 H 0.06150 0.30594 -0.09423
 H362 H -0.03867 0.23356 -0.12364
 H363 H -0.07146 0.21841 -0.10583
 H364 H -0.04450 0.23914 -0.04188
 H365 H -0.01166 0.25282 -0.06159
 C366 C -0.02184 0.31336 -0.15102
 C367 C 0.02961 0.19454 -0.15278
 C368 C -0.06096 0.22706 -0.07202
 C369 C 0.06365 0.27730 -0.07293
 C370 C 0.47926 0.23854 0.16442
 H371 H 0.47121 0.25432 0.16533
 C372 C 0.47049 0.22018 0.17574
 H373 H 0.45573 0.22206 0.18547
 C374 C 0.50772 0.21674 0.14977
 H375 H 0.52193 0.21526 0.13922
 C376 C 0.49950 0.19800 0.16069
 H377 H 0.50775 0.18240 0.15857
 N378 N 0.49750 0.23648 0.15167
 C379 C 0.52557 0.30285 0.14022
 H380 H 0.52782 0.30121 0.12240
 C381 C 0.53173 0.32266 0.15113
 H382 H 0.53886 0.33614 0.14155
 C383 C 0.51348 0.28707 0.17413
 H384 H 0.50635 0.27312 0.18297
 C385 C 0.51971 0.30657 0.18582
 H386 H 0.51722 0.30751 0.20365
 Zn387 Zn 0.50734 0.26066 0.13410
 N388 N 0.51615 0.28577 0.15166
 C389 C 0.47709 0.28979 0.11654
 N390 N 0.48409 0.26852 0.11540
 C391 C 0.47390 0.25287 0.10217
 C392 C 0.45608 0.25853 0.08918
 C393 C 0.45973 0.29621 0.10366
 C394 C 0.55062 0.25022 0.12947
 C395 C 0.56998 0.24429 0.11901
 C396 C 0.55111 0.24294 0.08386
 C397 C 0.53207 0.24912 0.09503
 N398 N 0.53216 0.25234 0.11748
 H399 H 0.48468 0.30187 0.12768
 H400 H 0.47947 0.23594 0.10188
 H401 H 0.44811 0.24593 0.07875
 H402 H 0.45453 0.31326 0.10497
 H403 H 0.55023 0.25307 0.14728
 H404 H 0.58438 0.24249 0.12901
 H405 H 0.55074 0.24021 0.06602
 H406 H 0.51728 0.25122 0.08578
 C407 C 0.52865 0.32481 0.17420
 C408 C 0.48047 0.19946 0.17367
 C409 C 0.57039 0.24039 0.09592
 C410 C 0.44893 0.28054 0.08978
 C411 C 0.98167 0.73295 0.66639
 H412 H 0.97368 0.74876 0.66734
 C413 C 0.97382 0.71508 0.67901
 H414 H 0.95980 0.71736 0.68974
 C415 C 1.00926 0.71067 0.65066
 H416 H 1.02276 0.70881 0.63925
 C417 C 1.00207 0.69246 0.66306
 H418 H 1.01031 0.67685 0.66107
 N419 N 0.99904 0.73042 0.65251
 C420 C 1.02702 0.79623 0.63938
 H421 H 1.02708 0.79513 0.62140
 C422 C 1.03462 0.81563 0.65009
 H423 H 1.04068 0.82937 0.64017
 C424 C 1.01887 0.77948 0.67397
 H425 H 1.01266 0.76532 0.68314
 C426 C 1.02670 0.79854 0.68543
 H427 H 1.02635 0.79897 0.70344
 Zn428 Zn 1.00782 0.75439 0.63421
 N429 N 1.01886 0.77887 0.65134
 C430 C 0.97585 0.78431 0.62261
 N431 N 0.98305 0.76347 0.61821
 C432 C 0.97184 0.74921 0.60431
 C433 C 0.95271 0.75592 0.59404
 C434 C 0.95707 0.79168 0.61271
 C435 C 1.05013 0.74302 0.62615
 C436 C 1.06860 0.73649 0.61449
 C437 C 1.04753 0.73539 0.58069
 C438 C 1.02938 0.74219 0.59306
 N439 N 1.03098 0.74554 0.61544
 H440 H 0.98427 0.79520 0.63432
 H441 H 0.97753 0.73250 0.60149
 H442 H 0.94390 0.74434 0.58315
 H443 H 0.95179 0.80832 0.61676
 H444 H 1.05096 0.74596 0.64393
 H445 H 1.08354 0.73439 0.62355
 H446 H 1.04597 0.73253 0.56293
 H447 H 1.01408 0.74461 0.58483
 C448 C 1.03436 0.81705 0.67340
 C449 C 0.98398 0.69443 0.67730
 C450 C 1.06746 0.73239 0.59146
 C451 C 0.94508 0.77745 0.59829
 C452 C 0.52165 0.74852 0.35872
 H453 H 0.52994 0.76464 0.35802
 C454 C 0.52994 0.73037 0.34689
 H455 H 0.54458 0.73271 0.33696
 C456 C 0.49305 0.72575 0.37335
 H457 H 0.47920 0.72369 0.38433
 C458 C 0.50060 0.70725 0.36159
 H459 H 0.49220 0.69130 0.36350
 N460 N 0.50359 0.74590 0.37173
 C461 C 0.48187 0.81362 0.38322
 H462 H 0.48255 0.81425 0.40119
 C463 C 0.47562 0.83226 0.37165
 H464 H 0.47153 0.84712 0.38107
 C465 C 0.48626 0.79312 0.34953
 H466 H 0.49025 0.77772 0.34105
 C467 C 0.47966 0.81126 0.33725
 H468 H 0.47884 0.80954 0.31932
 Zn469 Zn 0.49514 0.77047 0.38968
 N470 N 0.48731 0.79468 0.37208
 C471 C 0.53094 0.79769 0.40224
 N472 N 0.51957 0.77870 0.40738
 C473 C 0.52726 0.76431 0.42249
 C474 C 0.54720 0.76881 0.43303
 C475 C 0.55096 0.80268 0.41214
 C476 C 0.45258 0.75659 0.39377
 C477 C 0.43375 0.74766 0.40348
 C478 C 0.45041 0.75274 0.43958
 C479 C 0.46927 0.76119 0.42905
 N480 N 0.47015 0.76227 0.40646
 H481 H 0.52510 0.80850 0.38960
 H482 H 0.51829 0.74893 0.42573
 H483 H 0.55335 0.75696 0.44461
 H484 H 0.55990 0.81766 0.40735
 H485 H 0.45364 0.75800 0.37588
 H486 H 0.42028 0.74228 0.39296
 H487 H 0.45006 0.75111 0.45748
 H488 H 0.48329 0.76627 0.43885
 C489 C 0.47427 0.83129 0.34829
 C490 C 0.51948 0.70934 0.34843
 C491 C 0.43269 0.74520 0.42658
 C492 C 0.55952 0.78801 0.42747
 C493 C 0.37106 0.00488 0.24590
 C494 C 0.13785 1.01059 0.75670
 C495 C 0.62314 0.51710 0.27060
 C496 C 0.88413 0.49982 0.75949
 C497 C 0.26507 0.36951 -0.00869
 C498 C 0.74968 0.12751 1.01366
 C499 C 0.24528 0.62525 0.49431
 C500 C 0.75423 0.86952 0.51630
 C501 C 0.00542 0.25734 0.36153
 C502 C 0.98412 0.75263 0.10955
 C503 C 0.50992 0.23044 0.60381
 C504 C 0.48580 0.73245 0.86886
 C505 C 0.45251 -0.11489 0.31395
 N506 N 0.45646 -0.13441 0.30313
 N507 N 0.46382 -0.15170 0.31413
 C508 C 0.46729 -0.15025 0.33643
 N509 N 0.46339 -0.13060 0.34714
 N510 N 0.45621 -0.11327 0.33613
 C511 C 0.44331 -0.09619 0.30218
 N512 N 0.44198 -0.07587 0.31231
 N513 N 0.43242 -0.05923 0.30221
 C514 C 0.42371 -0.06234 0.28167
 N515 N 0.42518 -0.08261 0.27147
 N516 N 0.43489 -0.09921 0.28151
 C517 C 0.41157 -0.04460 0.27135
 N518 N 0.39850 -0.04931 0.25370
 N519 N 0.38616 -0.03370 0.24533
 C520 C 0.38652 -0.01265 0.25410
 N521 N 0.39987 -0.00793 0.27162
 N522 N 0.41209 -0.02361 0.28012
 C523 C 0.95966 0.37072 0.81598
 N524 N 0.96028 0.35083 0.80490
 N525 N 0.96640 0.33260 0.81524
 C526 C 0.97193 0.33355 0.83709
 N527 N 0.97138 0.35350 0.84806
 N528 N 0.96540 0.37171 0.83772
 C529 C 0.95188 0.39070 0.80518
 N530 N 0.95298 0.41071 0.81604
 N531 N 0.94461 0.42865 0.80709
 C532 C 0.93476 0.42725 0.78697
 N533 N 0.93386 0.40729 0.77597
 N534 N 0.94234 0.38934 0.78488
 C535 C 0.92365 0.44656 0.77829
 N536 N 0.91065 0.44438 0.76020
 N537 N 0.89877 0.46130 0.75378
 C538 C 0.89935 0.48109 0.76521
 N539 N 0.91293 0.48336 0.78292
 N540 N 0.92475 0.46644 0.78938
 C541 C 0.05900 1.14110 0.81389
 N542 N 0.06902 1.16154 0.81472
 N543 N 0.05953 1.17860 0.82496
 C544 C 0.03970 1.17587 0.83487
 N545 N 0.02966 1.15542 0.83388
 N546 N 0.03910 1.13838 0.82357
 C547 C 0.06992 1.12206 0.80355
 N548 N 0.05950 1.10187 0.80162
 N549 N 0.06976 1.08438 0.79309
 C550 C 0.09083 1.08644 0.78627
 N551 N 0.10120 1.10665 0.78811
 N552 N 0.09093 1.12415 0.79655
 C553 C 0.10255 1.06703 0.77783
 N554 N 0.12432 1.06862 0.77404
 N555 N 0.13521 1.05092 0.76713
 C556 C 0.12480 1.03092 0.76349
 N557 N 0.10295 1.02939 0.76736
 N558 N 0.09204 1.04709 0.77440
 C559 C 0.54727 0.65219 0.32056
 N560 N 0.52616 0.65170 0.32738
 N561 N 0.51718 0.66997 0.33582
 C562 C 0.52893 0.68945 0.33763
 N563 N 0.54996 0.68994 0.33050
 N564 N 0.55897 0.67166 0.32218
 C565 C 0.55772 0.63184 0.31261
 N566 N 0.57964 0.63173 0.30978
 N567 N 0.58943 0.61317 0.30340
 C568 C 0.57768 0.59404 0.29952
 N569 N 0.55570 0.59414 0.30218
 N570 N 0.54590 0.61271 0.30872
 C571 C 0.58885 0.57374 0.29268
 N572 N 0.57765 0.55531 0.28514
 N573 N 0.58821 0.53727 0.27835
 C574 C 0.61035 0.53698 0.27895
 N575 N 0.62138 0.55534 0.28692
 N576 N 0.61087 0.57335 0.29354
 C577 C 0.54709 0.38482 0.20658
 N578 N 0.54384 0.38402 0.18429
 N579 N 0.53784 0.36498 0.17411
 C580 C 0.53477 0.34599 0.18580
 N581 N 0.53779 0.34686 0.20817
 N582 N 0.54394 0.36590 0.21835
 C583 C 0.55504 0.40553 0.21747
 N584 N 0.56225 0.40547 0.23875
 N585 N 0.57093 0.42391 0.24809
 C586 C 0.57258 0.44312 0.23657
 N587 N 0.56507 0.44328 0.21540
 N588 N 0.55650 0.42480 0.20601
 C589 C 0.58391 0.46280 0.24626
 N590 N 0.58432 0.48264 0.23576
 N591 N 0.59606 0.49993 0.24384
 C592 C 0.60801 0.49801 0.26264
 N593 N 0.60734 0.47814 0.27315
 N594 N 0.59549 0.46094 0.26520
 C595 C 0.05660 0.87625 0.70480
 N596 N 0.05577 0.85688 0.71612
 N597 N 0.04843 0.83805 0.70631
 C598 C 0.04187 0.83789 0.68477
 N599 N 0.04264 0.85733 0.67357
 N600 N 0.04981 0.87613 0.68340
 C601 C 0.06566 0.89688 0.71495
 N602 N 0.06450 0.91640 0.70406
 N603 N 0.07394 0.93494 0.71234
 C604 C 0.08499 0.93464 0.73178
 N605 N 0.08599 0.91516 0.74281
 N606 N 0.07643 0.89662 0.73457
 C607 C 0.09707 0.95465 0.73969
 N608 N 0.11127 0.95356 0.75677
 N609 N 0.12371 0.97123 0.76256
 C610 C 0.12247 0.99071 0.75148
 N611 N 0.10779 0.99187 0.73475
 N612 N 0.09542 0.97418 0.72891
 C613 C 0.95831 0.63813 0.70978
 N614 N 0.94754 0.65756 0.71034
 N615 N 0.95587 0.67556 0.70041
 C616 C 0.97528 0.67482 0.68946
 N617 N 0.98610 0.65539 0.68910
 N618 N 0.97780 0.63741 0.69907
 C619 C 0.94849 0.61797 0.71958
 N620 N 0.95930 0.59854 0.71926
 N621 N 0.94988 0.57998 0.72708
 C622 C 0.92928 0.58019 0.73544
 N623 N 0.91856 0.59965 0.73590
 N624 N 0.92800 0.61820 0.72815
 C625 C 0.91826 0.55957 0.74283
 N626 N 0.89685 0.55961 0.74847
 N627 N 0.88638 0.54084 0.75413
 C628 C 0.89694 0.52126 0.75461
 N629 N 0.91843 0.52125 0.74895
 N630 N 0.92888 0.54006 0.74318
 C631 C 0.45159 0.14178 0.20092
 N632 N 0.46928 0.14048 0.18737
 N633 N 0.47863 0.15883 0.17908
 C634 C 0.47064 0.17923 0.18393
 N635 N 0.45299 0.18052 0.19763
 N636 N 0.44367 0.16215 0.20598
 C637 C 0.44075 0.12140 0.20917
 N638 N 0.42354 0.12252 0.22342
 N639 N 0.41324 0.10400 0.23018
 C640 C 0.41971 0.08368 0.22287
 N641 N 0.43697 0.08257 0.20871
 N642 N 0.44732 0.10108 0.20201
 C643 C 0.40776 0.06331 0.22953
 N644 N 0.41263 0.04327 0.22026
 N645 N 0.40120 0.02494 0.22562
 C646 C 0.38443 0.02587 0.24049
 N647 N 0.37982 0.04596 0.24994
 N648 N 0.39119 0.06431 0.24453
 C649 C 0.31625 0.43557 -0.14981
 N650 N 0.32564 0.42134 -0.16450
 N651 N 0.33323 0.42846 -0.18394
 C652 C 0.33173 0.45012 -0.18961
 N653 N 0.32217 0.46442 -0.17494
 N654 N 0.31456 0.45728 -0.15538
 C655 C 0.30848 0.42717 -0.12828
 N656 N 0.29924 0.44065 -0.11265
 N657 N 0.29253 0.43248 -0.09317
 C658 C 0.29488 0.41057 -0.08870
 N659 N 0.30410 0.39723 -0.10434
 N660 N 0.31077 0.40536 -0.12371
 C661 C 0.28749 0.40086 -0.06759
 N662 N 0.28992 0.37880 -0.06445
 N663 N 0.28302 0.36933 -0.04581
 C664 C 0.27337 0.38147 -0.02940
 N665 N 0.27108 0.40370 -0.03244
 N666 N 0.27801 0.41322 -0.05121
 C667 C 0.80929 0.95161 0.38638
 N668 N 0.83094 0.95133 0.38186
 N669 N 0.83874 0.95845 0.36248
 C670 C 0.82525 0.96610 0.34673
 N671 N 0.80354 0.96649 0.35130
 N672 N 0.79569 0.95936 0.37075
 C673 C 0.80098 0.94270 0.40751
 N674 N 0.77942 0.94274 0.41274
 N675 N 0.77209 0.93351 0.43149
 C676 C 0.78606 0.92393 0.44562
 N677 N 0.80760 0.92410 0.44043
 N678 N 0.81491 0.93336 0.42179
 C679 C 0.77810 0.91189 0.46527
 N680 N 0.79183 0.89895 0.47651
 N681 N 0.78451 0.88629 0.49304
 C682 C 0.76316 0.88613 0.49920
 N683 N 0.74952 0.89960 0.48825
 N684 N 0.75683 0.91217 0.47156
 C685 C 0.79366 0.04483 1.14534
 N686 N 0.80680 0.02716 1.14313
 N687 N 0.81609 0.01863 1.16087
 C688 C 0.81276 0.02745 1.18158
 N689 N 0.79935 0.04502 1.18374
 N690 N 0.78998 0.05353 1.16599
 C691 C 0.78462 0.05508 1.12555
 N692 N 0.77085 0.07230 1.12758
 N693 N 0.76369 0.08237 1.10959
 C694 C 0.77009 0.07565 1.08892
 N695 N 0.78372 0.05833 1.08689
 N696 N 0.79081 0.04820 1.10487
 C697 C 0.76348 0.08783 1.06921
 N698 N 0.77243 0.08336 1.04897
 N699 N 0.76766 0.09553 1.03144
 C700 C 0.75373 0.11268 1.03344
 N701 N 0.74445 0.11674 1.05367
 N702 N 0.74927 0.10463 1.07120
 C703 C 0.29701 0.52875 0.61182
 N704 N 0.31630 0.51878 0.60831
 N705 N 0.32695 0.51012 0.62514
 C706 C 0.31875 0.51102 0.64617
 N707 N 0.29925 0.52072 0.64962
 N708 N 0.28861 0.52948 0.63277
 C709 C 0.28634 0.53988 0.59345
 N710 N 0.26869 0.55256 0.59721
 N711 N 0.26024 0.56412 0.58081
 C712 C 0.26910 0.56337 0.56005
 N713 N 0.28654 0.55043 0.55624
 N714 N 0.29501 0.53892 0.57263
 C715 C 0.26125 0.57775 0.54248
 N716 N 0.27094 0.57765 0.52213
 N717 N 0.26536 0.59214 0.50683
 C718 C 0.24995 0.60745 0.51127
 N719 N 0.23988 0.60709 0.53150
 N720 N 0.24544 0.59257 0.54681
 C721 C 0.19070 0.56140 0.35202
 N722 N 0.16948 0.55464 0.35092
 N723 N 0.16071 0.54823 0.33160
 C724 C 0.17281 0.54819 0.31259
 N725 N 0.19414 0.55477 0.31372
 N726 N 0.20289 0.56137 0.33307
 C727 C 0.19995 0.56913 0.37335
 N728 N 0.21962 0.58000 0.37418
 N729 N 0.22744 0.58785 0.39349
 C730 C 0.21596 0.58498 0.41267
 N731 N 0.19640 0.57391 0.41186
 N732 N 0.18852 0.56619 0.39254
 C733 C 0.22410 0.59451 0.43378
 N734 N 0.21407 0.58954 0.45334
 N735 N 0.22100 0.59889 0.47238
 C736 C 0.23818 0.61370 0.47259
 N737 N 0.24814 0.61861 0.45293
 N738 N 0.24132 0.60915 0.43394
 C739 C 0.68445 0.04874 0.88379
 N740 N 0.66262 0.04465 0.88385
 N741 N 0.65266 0.03667 0.86568
 C742 C 0.66409 0.03229 0.84671
 N743 N 0.68601 0.03627 0.84679
 N744 N 0.69597 0.04444 0.86492
 C745 C 0.69523 0.05827 0.90365
 N746 N 0.71587 0.06687 0.90241
 N747 N 0.72526 0.07644 0.92021
 C748 C 0.71442 0.07757 0.93995
 N749 N 0.69386 0.06874 0.94125
 N750 N 0.68442 0.05933 0.92341
 C751 C 0.72431 0.08921 0.95922
 N752 N 0.71497 0.08787 0.97970
 N753 N 0.72337 0.09941 0.99690
 C754 C 0.74136 0.11287 0.99428
 N755 N 0.75066 0.11409 0.97371
 N756 N 0.74239 0.10242 0.95657
 C757 C 0.69093 0.94106 0.65047
 N758 N 0.68430 0.92774 0.66734
 N759 N 0.67518 0.93632 0.68559
 C760 C 0.67231 0.95860 0.68777
 N761 N 0.67911 0.97196 0.67092
 N762 N 0.68826 0.96336 0.65261
 C763 C 0.70029 0.93120 0.63012
 N764 N 0.70696 0.94406 0.61286
 N765 N 0.71513 0.93478 0.59438
 C766 C 0.71684 0.91232 0.59252
 N767 N 0.71018 0.89953 0.60979
 N768 N 0.70206 0.90878 0.62822
 C769 C 0.72590 0.90172 0.57239
 N770 N 0.72723 0.87925 0.57117
 N771 N 0.73578 0.86934 0.55333
 C772 C 0.74330 0.88142 0.53584
 N773 N 0.74195 0.90400 0.53708
 N774 N 0.73336 0.91396 0.55500
 C775 C 0.19988 0.45649 0.11443
 N776 N 0.18302 0.47018 0.11135
 N777 N 0.17289 0.47943 0.12872
 C778 C 0.17915 0.47531 0.14986
 N779 N 0.19609 0.46165 0.15288
 N780 N 0.20627 0.45245 0.13551
 C781 C 0.21066 0.44565 0.09538
 N782 N 0.22808 0.43275 0.09862
 N783 N 0.23745 0.42222 0.08155
 C784 C 0.22973 0.42414 0.06059
 N785 N 0.21236 0.43714 0.05729
 N786 N 0.20301 0.44774 0.07439
 C787 C 0.23957 0.41144 0.04216
 N788 N 0.23107 0.41138 0.02136
 N789 N 0.23945 0.39870 0.00515
 C790 C 0.25674 0.38567 0.00911
 N791 N 0.26520 0.38596 0.02995
 N792 N 0.25684 0.39858 0.04609
 C793 C -0.11947 0.31643 0.44548
 N794 N -0.12953 0.30602 0.46278
 N795 N -0.14809 0.31367 0.47124
 C796 C -0.15735 0.33187 0.46257
 N797 N -0.14720 0.34217 0.44530
 N798 N -0.12864 0.33464 0.43696
 C799 C -0.09924 0.30816 0.43557
 N800 N -0.08859 0.32032 0.41989
 N801 N -0.07077 0.31274 0.40998
 C802 C -0.06292 0.29266 0.41530
 N803 N -0.07347 0.28048 0.43111
 N804 N -0.09130 0.28813 0.44113
 C805 C -0.04410 0.28399 0.40304
 N806 N -0.03746 0.26287 0.40587
 N807 N -0.02141 0.25472 0.39335
 C808 C -0.01131 0.26741 0.37758
 N809 N -0.01793 0.28862 0.37504
 N810 N -0.03394 0.29673 0.38751
 C811 C 0.35139 0.77976 0.94433
 N812 N 0.33276 0.78179 0.93261
 N813 N 0.31593 0.79248 0.94138
 C814 C 0.31710 0.80166 0.96218
 N815 N 0.33569 0.79937 0.97395
 N816 N 0.35248 0.78861 0.96522
 C817 C 0.37053 0.76949 0.93404
 N818 N 0.38903 0.76703 0.94588
 N819 N 0.40686 0.75912 0.93613
 C820 C 0.40684 0.75346 0.91416
 N821 N 0.38828 0.75573 0.90239
 N822 N 0.37045 0.76356 0.91215
 C823 C 0.42688 0.74639 0.90289
 N824 N 0.42752 0.74441 0.88041
 N825 N 0.44595 0.73944 0.86990
 C826 C 0.46449 0.73598 0.88141
 N827 N 0.46377 0.73791 0.90399
 N828 N 0.44533 0.74302 0.91452
 C829 C 1.11436 0.81097 0.03329
 N830 N 1.12102 0.83226 0.03794
 N831 N 1.14100 0.83946 0.03244
 C832 C 1.15520 0.82568 0.02211
 N833 N 1.14848 0.80437 0.01734
 N834 N 1.12845 0.79713 0.02287
 C835 C 1.09262 0.80299 0.04044
 N836 N 1.08603 0.78139 0.03721
 N837 N 1.06685 0.77402 0.04513
 C838 C 1.05357 0.78798 0.05651
 N839 N 1.06006 0.80961 0.05945
 N840 N 1.07919 0.81698 0.05153
 C841 C 1.03366 0.77949 0.06755
 N842 N 1.02237 0.79300 0.08149
 N843 N 1.00606 0.78485 0.09387
 C844 C 1.00034 0.76281 0.09287
 N845 N 1.01111 0.74949 0.07818
 N846 N 1.02750 0.75764 0.06584
 C847 C 0.64172 0.29564 0.53373
 N848 N 0.66128 0.28571 0.53469
 N849 N 0.67959 0.29687 0.52930
 C850 C 0.67903 0.31843 0.52292
 N851 N 0.65942 0.32824 0.52184
 N852 N 0.64113 0.31707 0.52710
 C853 C 0.62164 0.28396 0.54095
 N854 N 0.60202 0.29348 0.53852
 N855 N 0.58391 0.28367 0.54642
 C856 C 0.58477 0.26403 0.55714
 N857 N 0.60436 0.25441 0.55938
 N858 N 0.62246 0.26416 0.55138
 C859 C 0.56517 0.25420 0.56760
 N860 N 0.56687 0.23707 0.58178
 N861 N 0.54945 0.22923 0.59272
 C862 C 0.52954 0.23808 0.58986
 N863 N 0.52784 0.25504 0.57534
 N864 N 0.54532 0.26298 0.56448
 C865 C 0.37533 0.18159 0.52712
 N866 N 0.36929 0.15980 0.52875
 N867 N 0.34947 0.15267 0.52276
 C868 C 0.33479 0.16700 0.51492
 N869 N 0.34090 0.18885 0.51308
 N870 N 0.36080 0.19603 0.51912
 C871 C 0.39689 0.18918 0.53511
 N872 N 0.40334 0.21102 0.53484
 N873 N 0.42245 0.21766 0.54350
 C874 C 0.43573 0.20270 0.55273
 N875 N 0.42933 0.18090 0.55274
 N876 N 0.41032 0.17428 0.54407
 C877 C 0.45589 0.20978 0.56414
 N878 N 0.46659 0.19489 0.57634
 N879 N 0.48390 0.20123 0.58825
 C880 C 0.49144 0.22273 0.58838
 N881 N 0.48088 0.23760 0.57579
 N882 N 0.46340 0.23127 0.56396
 C883 C 0.84904 0.68872 0.04283
 N884 N 0.84451 0.68752 0.02074
 N885 N 0.82572 0.67826 0.01363
 C886 C 0.81079 0.66992 0.02836
 N887 N 0.81539 0.67139 0.05038
 N888 N 0.83407 0.68058 0.05746
 C889 C 0.86984 0.69803 0.05127
 N890 N 0.87388 0.69735 0.07337
 N891 N 0.89258 0.70540 0.08158
 C892 C 0.90805 0.71449 0.06805
 N893 N 0.90409 0.71523 0.04585
 N894 N 0.88530 0.70708 0.03759
 C895 C 0.92836 0.72355 0.07786
 N896 N 0.94393 0.73422 0.06552
 N897 N 0.96180 0.74299 0.07519
 C898 C 0.96481 0.74133 0.09752
 N899 N 0.94916 0.73054 0.10964
 N900 N 0.93139 0.72183 0.10004
 C901 C 0.61267 0.67871 0.94930
 N902 N 0.61184 0.65785 0.95758
 N903 N 0.62979 0.64864 0.96504
 C904 C 0.64929 0.65990 0.96455
 N905 N 0.65005 0.68087 0.95640
 N906 N 0.63210 0.69007 0.94887
 C907 C 0.59302 0.68838 0.94015
 N908 N 0.59419 0.70820 0.92966
 N909 N 0.57658 0.71636 0.92031
 C910 C 0.55713 0.70504 0.92117
 N911 N 0.55591 0.68534 0.93186
 N912 N 0.57353 0.67715 0.94116
 C913 C 0.53817 0.71326 0.90939
 N914 N 0.51862 0.70215 0.91025
 N915 N 0.50193 0.70869 0.89816
 C916 C 0.50414 0.72657 0.88467
 N917 N 0.52371 0.73777 0.88411
 N918 N 0.54034 0.73130 0.89625
 C919 C 0.13460 0.20328 0.43895
 N920 N 0.15346 0.20098 0.42733
 N921 N 0.17092 0.19282 0.43693
 C922 C 0.17022 0.18656 0.45852
 N923 N 0.15137 0.18907 0.47019
 N924 N 0.13392 0.19734 0.46062
 C925 C 0.11508 0.21116 0.42791
 N926 N 0.09665 0.21538 0.43970
 N927 N 0.07885 0.22204 0.42947
 C928 C 0.07879 0.22452 0.40706
 N929 N 0.09721 0.22026 0.39531
 N930 N 0.11502 0.21373 0.40554
 C931 C 0.05932 0.23195 0.39561
 N932 N 0.05881 0.23207 0.37307
 N933 N 0.04156 0.23948 0.36253
 C934 C 0.02407 0.24711 0.37405
 N935 N 0.02460 0.24687 0.39667
 N936 N 0.04184 0.23934 0.40724
 C937 C 0.55375 0.10367 0.69459
 N938 N 0.55801 0.10604 0.71663
 N939 N 0.56564 0.08912 0.72799
 C940 C 0.56922 0.06916 0.71778
 N941 N 0.56471 0.06679 0.69577
 N942 N 0.55716 0.08371 0.68440
 C943 C 0.54638 0.12254 0.68171
 N944 N 0.54471 0.12066 0.65926
 N945 N 0.53874 0.13789 0.64735
 C946 C 0.53416 0.15764 0.65742
 N947 N 0.53570 0.15951 0.67990
 N948 N 0.54176 0.14227 0.69183
 C949 C 0.52795 0.17658 0.64399
 N950 N 0.52135 0.19588 0.65366
 N951 N 0.51566 0.21290 0.64121
 C952 C 0.51639 0.21127 0.61860
 N953 N 0.52325 0.19197 0.60908
 N954 N 0.52883 0.17497 0.62149
 C955 C 1.05489 0.62867 0.18332
 N956 N 1.07684 0.62722 0.18190
 N957 N 1.08668 0.60930 0.18906
 C958 C 1.07501 0.59201 0.19787
 N959 N 1.05299 0.59346 0.19931
 N960 N 1.04310 0.61147 0.19218
 C961 C 1.04431 0.64833 0.17469
 N962 N 1.02248 0.65086 0.17676
 N963 N 1.01307 0.66847 0.16816
 C964 C 1.02516 0.68412 0.15717
 N965 N 1.04697 0.68160 0.15524
 N966 N 1.05637 0.66408 0.16389
 C967 C 1.01483 0.70276 0.14632
 N968 N 1.02662 0.71599 0.13239
 N969 N 1.01711 0.73191 0.12119
 C970 C 0.99539 0.73528 0.12337
 N971 N 0.98379 0.72244 0.13795
 N972 N 0.99328 0.70640 0.14907
 C973 C 0.92958 0.87726 0.20195
 N974 N 0.90777 0.87883 0.20484
 N975 N 0.89948 0.89659 0.21493
 C976 C 0.91262 0.91360 0.22249
 N977 N 0.93452 0.91201 0.21968
 N978 N 0.94286 0.89414 0.20963
 C979 C 0.93826 0.85795 0.18984
 N980 N 0.96003 0.85471 0.18821
 N981 N 0.96756 0.83740 0.17655
 C982 C 0.95358 0.82283 0.16604
 N983 N 0.93187 0.82608 0.16777
 N984 N 0.92436 0.84325 0.17950
 C985 C 0.96153 0.80431 0.15222
 N986 N 0.94757 0.79283 0.13859
 N987 N 0.95458 0.77649 0.12539
 C988 C 0.97584 0.77076 0.12537
 N989 N 0.98979 0.78218 0.13923
 N990 N 0.98279 0.79869 0.15234
 C991 C 0.44571 0.36225 0.67548
 N992 N 0.45720 0.38168 0.67872
 N993 N 0.44718 0.40008 0.68538
 C994 C 0.42528 0.39979 0.68887
 N995 N 0.41388 0.38030 0.68562
 N996 N 0.42388 0.36191 0.67908
 C997 C 0.45647 0.34201 0.66759
 N998 N 0.44503 0.32238 0.66589
 N999 N 0.45440 0.30417 0.65785
 C1000 C 0.47556 0.30491 0.65116
 N1001 N 0.48707 0.32450 0.65299
 N1002 N 0.47771 0.34272 0.66112
 C1003 C 0.48533 0.28521 0.64075
 N1004 N 0.50534 0.28671 0.63110
 N1005 N 0.51341 0.26936 0.62002
 C1006 C 0.50179 0.24979 0.61812
 N1007 N 0.48199 0.24818 0.62834
 N1008 N 0.47390 0.26557 0.63935
 C1009 C 0.44517 0.60173 0.77529
 N1010 N 0.45141 0.58133 0.78168
 N1011 N 0.44259 0.56289 0.77243
 C1012 C 0.42722 0.56414 0.75640
 N1013 N 0.42121 0.58460 0.74987
 N1014 N 0.42997 0.60303 0.75915
 C1015 C 0.45374 0.62200 0.78659
 N1016 N 0.44538 0.64216 0.78228
 N1017 N 0.45208 0.66033 0.79363
 C1018 C 0.46744 0.65901 0.80963
 N1019 N 0.47599 0.63891 0.81372
 N1020 N 0.46925 0.62074 0.80243
 C1021 C 0.47357 0.67860 0.82344
 N1022 N 0.48884 0.67706 0.83946
 N1023 N 0.49317 0.69417 0.85326
 C1024 C 0.48234 0.71353 0.85175
 N1025 N 0.46735 0.71514 0.83535
 N1026 N 0.46305 0.69803 0.82149
 C1027 C -0.06460 0.12476 0.29146
 N1028 N -0.08350 0.11786 0.30125
 N1029 N -0.09258 0.09811 0.29606
 C1030 C -0.08321 0.08444 0.28077
 N1031 N -0.06436 0.09142 0.27074
 N1032 N -0.05514 0.11118 0.27609
 C1033 C -0.05449 0.14625 0.29830
 N1034 N -0.03367 0.15197 0.29248
 N1035 N -0.02435 0.17089 0.30022
 C1036 C -0.03559 0.18477 0.31392
 N1037 N -0.05645 0.17913 0.31942
 N1038 N -0.06570 0.16024 0.31180
 C1039 C -0.02519 0.20472 0.32420
 N1040 N -0.03695 0.21778 0.33812
 N1041 N -0.02746 0.23468 0.34928
 C1042 C -0.00575 0.23925 0.34711
 N1043 N 0.00592 0.22649 0.33264
 N1044 N -0.00360 0.20951 0.32145
 C1045 C 0.06318 0.38965 0.28313
 N1046 N 0.07626 0.40360 0.29536
 N1047 N 0.08442 0.42230 0.28679
 C1048 C 0.07987 0.42795 0.26562
 N1049 N 0.06664 0.41403 0.25332
 N1050 N 0.05843 0.39520 0.26193
 C1051 C 0.05470 0.36902 0.29319
 N1052 N 0.04147 0.35425 0.28195
 N1053 N 0.03400 0.33571 0.29172
 C1054 C 0.03957 0.33136 0.31302
 N1055 N 0.05280 0.34613 0.32411
 N1056 N 0.06022 0.36455 0.31440
 C1057 C 0.03122 0.31151 0.32458
 N1058 N 0.03648 0.30884 0.34620
 N1059 N 0.02864 0.29151 0.35742
 C1060 C 0.01529 0.27595 0.34750
 N1061 N 0.01003 0.27856 0.32575
 N1062 N 0.01789 0.29602 0.31448
 C1063 C 0.54075 0.87470 0.80758
 N1064 N 0.54412 0.87837 0.78558
 N1065 N 0.55441 0.89697 0.77891
 C1066 C 0.56183 0.91248 0.79400
 N1067 N 0.55830 0.90877 0.81595
 N1068 N 0.54792 0.89030 0.82260
 C1069 C 0.53031 0.85393 0.81536
 N1070 N 0.52545 0.85171 0.83725
 N1071 N 0.51699 0.83265 0.84483
 C1072 C 0.51317 0.81502 0.83084
 N1073 N 0.51791 0.81722 0.80886
 N1074 N 0.52630 0.83638 0.80124
 C1075 C 0.50493 0.79380 0.83983
 N1076 N 0.50331 0.77501 0.82694
 N1077 N 0.49692 0.75565 0.83577
 C1078 C 0.49183 0.75440 0.85779
 N1079 N 0.49336 0.77330 0.87052
 N1080 N 0.49977 0.79257 0.86174
 C1081 C 0.68856 0.56096 0.12765
 N1082 N 0.69900 0.54717 0.11322
 N1083 N 0.70454 0.55401 0.09289
 C1084 C 0.69976 0.57485 0.08614
 N1085 N 0.68920 0.58842 0.10072
 N1086 N 0.68375 0.58165 0.12097
 C1087 C 0.68211 0.55402 0.15010
 N1088 N 0.67294 0.56903 0.16415
 N1089 N 0.66607 0.56308 0.18425
 C1090 C 0.66811 0.54189 0.19115
 N1091 N 0.67748 0.52681 0.17721
 N1092 N 0.68442 0.53280 0.15702
 C1093 C 0.65868 0.53553 0.21272
 N1094 N 0.65925 0.51434 0.22018
 N1095 N 0.64886 0.50870 0.23893
 C1096 C 0.63745 0.52402 0.25086
 N1097 N 0.63729 0.54522 0.24339
 N1098 N 0.64771 0.55086 0.22482
 C1099 C 0.20590 1.06362 0.61814
 N1100 N 0.20230 1.05262 0.59853
 N1101 N 0.20783 1.06204 0.57932
 C1102 C 0.21706 1.08286 0.57897
 N1103 N 0.22071 1.09377 0.59865
 N1104 N 0.21524 1.08435 0.61785
 C1105 C 0.19889 1.05375 0.63928
 N1106 N 0.20268 1.06477 0.65886
 N1107 N 0.19520 1.05648 0.67794
 C1108 C 0.18365 1.03688 0.67814
 N1109 N 0.18007 1.02575 0.65859
 N1110 N 0.18759 1.03401 0.63951
 C1111 C 0.17366 1.02877 0.69884
 N1112 N 0.15980 1.01080 0.69841
 N1113 N 0.14903 1.00467 0.71670
 C1114 C 0.15159 1.01630 0.73618
 N1115 N 0.16607 1.03386 0.73669
 N1116 N 0.17680 1.04005 0.71837
 C1117 C 0.21246 0.94861 0.88441
 N1118 N 0.22844 0.93360 0.88204
 N1119 N 0.23470 0.92184 0.89933
 C1120 C 0.22512 0.92445 0.91969
 N1121 N 0.20926 0.93971 0.92193
 N1122 N 0.20308 0.95154 0.90470
 C1123 C 0.20444 0.96059 0.86519
 N1124 N 0.18908 0.97620 0.86805
 N1125 N 0.18057 0.98602 0.85060
 C1126 C 0.18704 0.98057 0.82962
 N1127 N 0.20258 0.96512 0.82673
 N1128 N 0.21117 0.95533 0.84421
 C1129 C 0.17608 0.99001 0.81048
 N1130 N 0.18036 0.98273 0.78943
 N1131 N 0.16890 0.98989 0.77237
 C1132 C 0.15279 1.00470 0.77569
 N1133 N 0.14873 1.01208 0.79678
 N1134 N 0.16016 1.00492 0.81381
 C1135 C 0.70223 0.45528 0.39632
 N1136 N 0.72263 0.46136 0.40310
 N1137 N 0.73220 0.45034 0.41924
 C1138 C 0.72179 0.43270 0.42893
 N1139 N 0.70143 0.42670 0.42208
 N1140 N 0.69179 0.43786 0.40620
 C1141 C 0.69138 0.46687 0.37844
 N1142 N 0.66949 0.46448 0.37622
 N1143 N 0.65936 0.47394 0.35954
 C1144 C 0.67075 0.48594 0.34426
 N1145 N 0.69270 0.48841 0.34643
 N1146 N 0.70285 0.47910 0.36332
 C1147 C 0.65917 0.49532 0.32553
 N1148 N 0.66983 0.50229 0.30691
 N1149 N 0.65872 0.50935 0.28952
 C1150 C 0.63657 0.50968 0.29014
 N1151 N 0.62611 0.50315 0.30901
 N1152 N 0.63715 0.49598 0.32625
 C1153 C 0.81087 0.44317 0.62331
 N1154 N 0.79504 0.42700 0.62431
 N1155 N 0.78706 0.41759 0.60575
 C1156 C 0.79463 0.42390 0.58547
 N1157 N 0.81045 0.44015 0.58451
 N1158 N 0.81840 0.44962 0.60307
 C1159 C 0.82015 0.45300 0.64380
 N1160 N 0.83524 0.46992 0.64290
 N1161 N 0.84419 0.47831 0.66146
 C1162 C 0.83841 0.47007 0.68160
 N1163 N 0.82324 0.45322 0.68252
 N1164 N 0.81424 0.44487 0.66396
 C1165 C 0.84910 0.47860 0.70192
 N1166 N 0.84529 0.46872 0.72174
 N1167 N 0.85591 0.47575 0.73992
 C1168 C 0.87066 0.49305 0.73905
 N1169 N 0.87430 0.50296 0.71914
 N1170 N 0.86374 0.49590 0.70097
 C1171 C 0.30066 -0.06323 0.11313
 N1172 N 0.28482 -0.05355 0.10135
 N1173 N 0.27585 -0.06412 0.08385
 C1174 C 0.28215 -0.08487 0.07776
 N1175 N 0.29784 -0.09459 0.08968
 N1176 N 0.30703 -0.08390 0.10695
 C1177 C 0.31098 -0.05159 0.13212
 N1178 N 0.33140 -0.05676 0.13827
 N1179 N 0.34085 -0.04646 0.15562
 C1180 C 0.33010 -0.03085 0.16765
 N1181 N 0.30961 -0.02573 0.16158
 N1182 N 0.30027 -0.03580 0.14400
 C1183 C 0.34041 -0.02029 0.18722
 N1184 N 0.32823 -0.01207 0.20424
 N1185 N 0.33773 -0.00388 0.22262
 C1186 C 0.35980 -0.00339 0.22462
 N1187 N 0.37190 -0.01114 0.20725
 N1188 N 0.36241 -0.01960 0.18903
 C1189 C 0.27900 0.04941 0.37295
 N1190 N 0.26490 0.06633 0.37164
 N1191 N 0.25694 0.07584 0.39005
 C1192 C 0.26284 0.06889 0.41048
 N1193 N 0.27671 0.05175 0.41171
 N1194 N 0.28459 0.04217 0.39332
 C1195 C 0.28947 0.04031 0.35287
 N1196 N 0.30347 0.02335 0.35444
 N1197 N 0.31453 0.01630 0.33665
 C1198 C 0.31206 0.02598 0.31665
 N1199 N 0.29784 0.04277 0.31498
 N1200 N 0.28673 0.04979 0.33278
 C1201 C 0.32584 0.01944 0.29771
 N1202 N 0.32534 0.03047 0.27821
 N1203 N 0.33921 0.02559 0.26178
 C1204 C 0.35422 0.00958 0.26423
 N1205 N 0.35425 -0.00171 0.28363
 N1206 N 0.34043 0.00315 0.30003
 C1207 C 0.79487 0.53965 0.89098
 N1208 N 0.77368 0.54499 0.88881
 N1209 N 0.76273 0.55363 0.90597
 C1210 C 0.77250 0.55720 0.92598
 N1211 N 0.79363 0.55153 0.92817
 N1212 N 0.80460 0.54296 0.91101
 C1213 C 0.80746 0.53171 0.87170
 N1214 N 0.82927 0.52917 0.87335
 N1215 N 0.84100 0.52322 0.85562
 C1216 C 0.83138 0.51953 0.83559
 N1217 N 0.80952 0.52185 0.83397
 N1218 N 0.79778 0.52790 0.85170
 C1219 C 0.84464 0.51389 0.81598
 N1220 N 0.83526 0.50866 0.79611
 N1221 N 0.84752 0.50398 0.77832
 C1222 C 0.86964 0.50433 0.77971
 N1223 N 0.87888 0.50983 0.79961
 N1224 N 0.86666 0.51440 0.81738
 C1225 C 0.12247 0.70848 0.55782
 N1226 N 0.10296 0.70896 0.54735
 N1227 N 0.08553 0.71691 0.55783
 C1228 C 0.08692 0.72460 0.57919
 N1229 N 0.10652 0.72425 0.58950
 N1230 N 0.12392 0.71637 0.57904
 C1231 C 0.14148 0.69858 0.54695
 N1232 N 0.16072 0.69794 0.55787
 N1233 N 0.17770 0.68787 0.54870
 C1234 C 0.17608 0.67805 0.52825
 N1235 N 0.15690 0.67886 0.51722
 N1236 N 0.13991 0.68895 0.52640
 C1237 C 0.19436 0.66567 0.51881
 N1238 N 0.19229 0.65462 0.49904
 N1239 N 0.20837 0.64226 0.49114
 C1240 C 0.22717 0.64035 0.50271
 N1241 N 0.22931 0.65181 0.52234
 N1242 N 0.21322 0.66417 0.53025
 C1243 C 0.62762 0.21786 1.06546
 N1244 N 0.60864 0.21772 1.05401
 N1245 N 0.59054 0.22529 1.06348
 C1246 C 0.59070 0.23318 1.08481
 N1247 N 0.60978 0.23349 1.09612
 N1248 N 0.62787 0.22600 1.08665
 C1249 C 0.64720 0.20801 1.05572
 N1250 N 0.66606 0.20803 1.06737
 N1251 N 0.68336 0.19757 1.05934
 C1252 C 0.68242 0.18668 1.03938
 N1253 N 0.66365 0.18690 1.02761
 N1254 N 0.64637 0.19740 1.03561
 C1255 C 0.70065 0.17324 1.03155
 N1256 N 0.69839 0.15991 1.01323
 N1257 N 0.71400 0.14604 1.00728
 C1258 C 0.73252 0.14480 1.01943
 N1259 N 0.73501 0.15874 1.03740
 N1260 N 0.71935 0.17258 1.04340
 C1261 C 0.88526 0.19965 0.95814
 N1262 N 0.89993 0.21205 0.97020
 N1263 N 0.91759 0.22103 0.96042
 C1264 C 0.92109 0.21828 0.93814
 N1265 N 0.90610 0.20607 0.92622
 N1266 N 0.88871 0.19680 0.93602
 C1267 C 0.86617 0.18889 0.96857
 N1268 N 0.85812 0.16931 0.96004
 N1269 N 0.84039 0.15959 0.96877
 C1270 C 0.82979 0.16928 0.98611
 N1271 N 0.83775 0.18895 0.99465
 N1272 N 0.85576 0.19852 0.98614
 C1273 C 0.80974 0.15872 0.99479
 N1274 N 0.79368 0.17104 1.00395
 N1275 N 0.77482 0.16137 1.01009
 C1276 C 0.77136 0.13898 1.00749
 N1277 N 0.78777 0.12671 0.99885
 N1278 N 0.80646 0.13640 0.99242
 C1279 C 0.37891 0.71046 0.45341
 N1280 N 0.38750 0.70448 0.43343
 N1281 N 0.40451 0.71569 0.42502
 C1282 C 0.41382 0.73317 0.43638
 N1283 N 0.40539 0.73908 0.45654
 N1284 N 0.38810 0.72800 0.46485
 C1285 C 0.35995 0.69789 0.46206
 N1286 N 0.34606 0.70704 0.47712
 N1287 N 0.32821 0.69571 0.48371
 C1288 C 0.32382 0.67479 0.47562
 N1289 N 0.33788 0.66563 0.46082
 N1290 N 0.35552 0.67701 0.45406
 C1291 C 0.30395 0.66224 0.48192
 N1292 N 0.30236 0.64007 0.47745
 N1293 N 0.28405 0.62858 0.48179
 C1294 C 0.26639 0.63880 0.49054
 N1295 N 0.26808 0.66106 0.49518
 N1296 N 0.28652 0.67256 0.49101
 C1297 C 0.62256 0.80057 0.45201
 N1298 N 0.61582 0.81018 0.43314
 N1299 N 0.59580 0.80616 0.42551
 C1300 C 0.58168 0.79231 0.43638
 N1301 N 0.58847 0.78250 0.45522
 N1302 N 0.60851 0.78666 0.46298
 C1303 C 0.64441 0.80612 0.46061
 N1304 N 0.65031 0.80055 0.48147
 N1305 N 0.66958 0.80737 0.48961
 C1306 C 0.68365 0.81984 0.47711
 N1307 N 0.67785 0.82503 0.45616
 N1308 N 0.65861 0.81832 0.44807
 C1309 C 0.70371 0.82980 0.48663
 N1310 N 0.71656 0.84342 0.47409
 N1311 N 0.73307 0.85506 0.48318
 C1312 C 0.73742 0.85370 0.50524
 N1313 N 0.72507 0.83927 0.51757
 N1314 N 0.70848 0.82762 0.50848
 C1315 C 0.12661 0.29550 -0.05137
 N1316 N 0.11369 0.28190 -0.03875
 N1317 N 0.09362 0.27597 -0.04545
 C1318 C 0.08571 0.28367 -0.06486
 N1319 N 0.09870 0.29726 -0.07731
 N1320 N 0.11871 0.30300 -0.07074
 C1321 C 0.14870 0.30258 -0.04458
 N1322 N 0.16190 0.31303 -0.05950
 N1323 N 0.18149 0.32090 -0.05361
 C1324 C 0.18870 0.31873 -0.03253
 N1325 N 0.17562 0.30806 -0.01753
 N1326 N 0.15596 0.30004 -0.02349
 C1327 C 0.20960 0.32949 -0.02624
 N1328 N 0.21664 0.33034 -0.00485
 N1329 N 0.23463 0.34218 0.00061
 C1330 C 0.24620 0.35362 -0.01510
 N1331 N 0.23920 0.35231 -0.03648
 N1332 N 0.22137 0.34050 -0.04192
 C1333 C 0.39501 0.30162 0.05421
 N1334 N 0.41059 0.31636 0.06154
 N1335 N 0.42779 0.30948 0.07247
 C1336 C 0.43024 0.28754 0.07646
 N1337 N 0.41480 0.27266 0.06884
 N1338 N 0.39743 0.27958 0.05796
 C1339 C 0.37569 0.31001 0.04323
 N1340 N 0.35828 0.29651 0.03788
 N1341 N 0.34051 0.30494 0.02895
 C1342 C 0.33961 0.32714 0.02511
 N1343 N 0.35708 0.34047 0.03032
 N1344 N 0.37473 0.33209 0.03923
 C1345 C 0.32014 0.33722 0.01605
 N1346 N 0.32029 0.35953 0.01310
 N1347 N 0.30287 0.36935 0.00537
 C1348 C 0.28446 0.35733 0.00029
 N1349 N 0.28429 0.33488 0.00313
 N1350 N 0.30182 0.32500 0.01093
 C1351 C 0.88667 0.80030 0.57220
 N1352 N 0.89985 0.81380 0.58480
 N1353 N 0.91836 0.80646 0.59280
 C1354 C 0.92459 0.78529 0.58856
 N1355 N 0.91143 0.77172 0.57582
 N1356 N 0.89279 0.77910 0.56776
 C1357 C 0.86619 0.80901 0.56390
 N1358 N 0.85227 0.79649 0.55100
 N1359 N 0.83384 0.80504 0.54371
 C1360 C 0.82873 0.82636 0.54913
 N1361 N 0.84265 0.83872 0.56204
 N1362 N 0.86098 0.83023 0.56927
 C1363 C 0.80888 0.83655 0.54105
 N1364 N 0.80517 0.85811 0.54649
 N1365 N 0.78775 0.86809 0.53894
 C1366 C 0.77316 0.85692 0.52570
 N1367 N 0.77680 0.83522 0.52027
 N1368 N 0.79435 0.82520 0.52783
   
