data_POSCAR
  _audit_creation_date              2014-09-24
  _audit_creation_method            'ToBaCCo'
  _symmetry_space_group_name_H-M    'P1'
  _symmetry_Int_Tables_number       1
  _symmetry_cell_setting            triclinic
  loop_
  _symmetry_equiv_pos_as_xyz
 x,y,z
_cell_length_a 56.0309
_cell_length_b 55.9754
_cell_length_c 59.7567
_cell_angle_alpha 90.058400
_cell_angle_beta 90.008700
_cell_angle_gamma 89.920200
loop_
  _atom_site_label
  _atom_site_type_symbol
  _atom_site_fract_x
  _atom_site_fract_y
  _atom_site_fract_z
C1 C 0.40052 -0.03145 0.25131
 C2 C 0.41088 -0.01028 0.24323
 C3 C 0.42187 -0.01021 0.22217
 C4 C 0.42285 -0.03108 0.20930
 C5 C 0.41223 -0.05213 0.21727
 C6 C 0.40091 -0.05234 0.23827
 C7 C 0.41115 0.01159 0.25706
 C8 C 0.42251 0.01136 0.27795
 C9 C 0.42403 0.03227 0.29077
 C10 C 0.41357 0.05348 0.28288
 C11 C 0.40191 0.05381 0.26207
 C12 C 0.40097 0.03292 0.24910
 H13 H 0.39195 -0.03152 0.26759
 H14 H 0.43013 0.00602 0.21602
 H15 H 0.43062 -0.00504 0.28397
 H16 H 0.39212 0.03316 0.23297
 H17 H 0.41275 -0.06821 0.20713
 H18 H 0.41444 0.06964 0.29288
 C19 C 0.09839 -0.03175 0.74879
 C20 C 0.08825 -0.01040 0.75682
 C21 C 0.07743 -0.01005 0.77797
 C22 C 0.07644 -0.03082 0.79095
 C23 C 0.08684 -0.05202 0.78300
 C24 C 0.09796 -0.05250 0.76194
 C25 C 0.08818 0.01141 0.74292
 C26 C 0.07725 0.01108 0.72181
 C27 C 0.07606 0.03190 0.70887
 C28 C 0.08640 0.05311 0.71685
 C29 C 0.09763 0.05354 0.73787
 C30 C 0.09824 0.03275 0.75095
 H31 H 0.10687 -0.03208 0.73248
 H32 H 0.06935 0.00630 0.78412
 H33 H 0.06923 -0.00532 0.71571
 H34 H 0.10680 0.03306 0.76722
 H35 H 0.08635 -0.06803 0.79319
 H36 H 0.08581 0.06920 0.70675
 C37 C 0.60008 0.46636 0.24918
 C38 C 0.58988 0.48771 0.25710
 C39 C 0.57851 0.48801 0.27798
 C40 C 0.57701 0.46717 0.29081
 C41 C 0.58749 0.44594 0.28300
 C42 C 0.59917 0.44553 0.26220
 C43 C 0.59012 0.50954 0.24326
 C44 C 0.57904 0.50943 0.22222
 C45 C 0.57797 0.53030 0.20939
 C46 C 0.58859 0.55136 0.21736
 C47 C 0.59998 0.55160 0.23830
 C48 C 0.60046 0.53074 0.25132
 H49 H 0.60895 0.46606 0.23305
 H50 H 0.57035 0.50438 0.28401
 H51 H 0.57077 0.49318 0.21608
 H52 H 0.60909 0.53090 0.26756
 H53 H 0.58660 0.42986 0.29307
 H54 H 0.58802 0.56746 0.20729
 C55 C 0.90169 0.46715 0.75146
 C56 C 0.91171 0.48846 0.74332
 C57 C 0.92255 0.48867 0.72219
 C58 C 0.92368 0.46780 0.70932
 C59 C 0.91340 0.44663 0.71736
 C60 C 0.90226 0.44629 0.73842
 C61 C 0.91174 0.51034 0.75715
 C62 C 0.92271 0.51012 0.77823
 C63 C 0.92391 0.53100 0.79110
 C64 C 0.91353 0.55219 0.78308
 C65 C 0.90226 0.55252 0.76208
 C66 C 0.90164 0.53166 0.74906
 H67 H 0.89322 0.46692 0.76777
 H68 H 0.93055 0.50500 0.71596
 H69 H 0.93076 0.49374 0.78437
 H70 H 0.89306 0.53189 0.73280
 H71 H 0.91400 0.43053 0.70727
 H72 H 0.91414 0.56834 0.79313
 C73 C 0.25936 0.35243 1.02727
 C74 C 0.25956 0.36822 1.00897
 C75 C 0.27928 0.38343 1.00578
 C76 C 0.29861 0.38285 1.02079
 C77 C 0.29816 0.36705 1.03896
 C78 C 0.27864 0.35183 1.04228
 C79 C 0.23943 0.36822 0.99290
 C80 C 0.21972 0.38353 0.99605
 C81 C 0.20043 0.38298 0.98098
 C82 C 0.20093 0.36713 0.96282
 C83 C 0.22043 0.35185 0.95957
 C84 C 0.23966 0.35240 0.97460
 H85 H 0.24422 0.34067 1.02974
 H86 H 0.27960 0.39554 0.99164
 H87 H 0.21938 0.39568 1.01017
 H88 H 0.25477 0.34057 0.97211
 H89 H 0.31306 0.36667 1.05056
 H90 H 0.18610 0.36673 0.95115
 C91 C 0.74051 0.14729 1.02736
 C92 C 0.74015 0.13170 1.00890
 C93 C 0.72032 0.11665 1.00558
 C94 C 0.70104 0.11721 1.02064
 C95 C 0.70164 0.13283 1.03897
 C96 C 0.72126 0.14789 1.04240
 C97 C 0.76027 0.13168 0.99285
 C98 C 0.78008 0.11654 0.99611
 C99 C 0.79940 0.11711 0.98109
 C100 C 0.79886 0.13285 0.96289
 C101 C 0.77928 0.14799 0.95952
 C102 C 0.75999 0.14739 0.97449
 H103 H 0.75574 0.15891 1.02994
 H104 H 0.71990 0.10468 0.99132
 H105 H 0.78046 0.10449 1.01029
 H106 H 0.74483 0.15912 0.97193
 H107 H 0.68677 0.13319 1.05061
 H108 H 0.81373 0.13328 0.95127
 C109 C 0.23853 0.64807 0.52566
 C110 C 0.23835 0.63227 0.50735
 C111 C 0.21871 0.61693 0.50420
 C112 C 0.19943 0.61744 0.51928
 C113 C 0.19988 0.63326 0.53746
 C114 C 0.21933 0.64856 0.54072
 C115 C 0.25847 0.63234 0.49127
 C116 C 0.27806 0.61685 0.49420
 C117 C 0.29742 0.61756 0.47923
 C118 C 0.29710 0.63374 0.46136
 C119 C 0.27771 0.64922 0.45832
 C120 C 0.25842 0.64852 0.47328
 H121 H 0.25359 0.65992 0.52815
 H122 H 0.21841 0.60480 0.49006
 H123 H 0.27828 0.60445 0.50812
 H124 H 0.24342 0.66052 0.47097
 H125 H 0.18507 0.63362 0.54914
 H126 H 0.31199 0.63427 0.44977
 C127 C 0.76202 0.85280 0.52593
 C128 C 0.76213 0.86881 0.50782
 C129 C 0.78167 0.88433 0.50491
 C130 C 0.80093 0.88379 0.52003
 C131 C 0.80052 0.86776 0.53804
 C132 C 0.78117 0.85228 0.54105
 C133 C 0.74212 0.86870 0.49163
 C134 C 0.72252 0.88422 0.49440
 C135 C 0.70326 0.88345 0.47930
 C136 C 0.70370 0.86719 0.46147
 C137 C 0.72310 0.85169 0.45858
 C138 C 0.74227 0.85243 0.47367
 H139 H 0.74705 0.84080 0.52822
 H140 H 0.78188 0.89658 0.49087
 H141 H 0.72221 0.89668 0.50829
 H142 H 0.75729 0.84041 0.47148
 H143 H 0.81528 0.86731 0.54980
 H144 H 0.68890 0.86662 0.44977
 C145 C -0.03251 0.24589 0.32591
 C146 C -0.01033 0.24051 0.33547
 C147 C -0.00781 0.22037 0.34913
 C148 C -0.02752 0.20596 0.35365
 C149 C -0.04956 0.21102 0.34386
 C150 C -0.05204 0.23099 0.33002
 C151 C 0.00901 0.25797 0.33502
 C152 C 0.00679 0.27858 0.34813
 C153 C 0.02658 0.29311 0.35187
 C154 C 0.04839 0.28772 0.34182
 C155 C 0.05057 0.26730 0.32850
 C156 C 0.03098 0.25226 0.32518
 H157 H -0.03467 0.26203 0.31607
 H158 H 0.00907 0.21699 0.35748
 H159 H -0.00985 0.28227 0.35676
 H160 H 0.03301 0.23579 0.31580
 H161 H -0.06500 0.20007 0.34780
 H162 H 0.06391 0.29872 0.34523
 C163 C -0.03165 0.75155 0.17377
 C164 C -0.00982 0.75756 0.16387
 C165 C -0.00812 0.77784 0.15031
 C166 C -0.02828 0.79178 0.14622
 C167 C -0.04998 0.78614 0.15632
 C168 C -0.05165 0.76602 0.17008
 C169 C 0.00999 0.74058 0.16377
 C170 C 0.00831 0.72045 0.14997
 C171 C 0.02854 0.70663 0.14563
 C172 C 0.05025 0.71226 0.15577
 C173 C 0.05185 0.73221 0.16977
 C174 C 0.03183 0.74653 0.17369
 H175 H -0.03319 0.73528 0.18351
 H176 H 0.00845 0.78173 0.14166
 H177 H -0.00831 0.71666 0.14134
 H178 H 0.03340 0.76268 0.18361
 H179 H -0.06572 0.79676 0.15265
 H180 H 0.06611 0.70185 0.15200
 C181 C 0.46850 0.25217 0.67387
 C182 C 0.49002 0.25837 0.66351
 C183 C 0.49114 0.27851 0.64971
 C184 C 0.47070 0.29212 0.64588
 C185 C 0.44931 0.28626 0.65643
 C186 C 0.44824 0.26629 0.67040
 C187 C 0.51012 0.24177 0.66339
 C188 C 0.50898 0.22182 0.64932
 C189 C 0.52943 0.20828 0.64526
 C190 C 0.55085 0.21403 0.65584
 C191 C 0.55193 0.23382 0.67008
 C192 C 0.53166 0.24786 0.67379
 H193 H 0.46735 0.23602 0.68383
 H194 H 0.50749 0.28256 0.64077
 H195 H 0.49261 0.21786 0.64035
 H196 H 0.53281 0.26387 0.68395
 H197 H 0.43330 0.29657 0.65300
 H198 H 0.56685 0.20379 0.65225
 C199 C 0.46807 0.74684 0.82731
 C200 C 0.48966 0.74089 0.83769
 C201 C 0.49091 0.72114 0.85197
 C202 C 0.47050 0.70764 0.85623
 C203 C 0.44902 0.71327 0.84565
 C204 C 0.44785 0.73286 0.83122
 C205 C 0.50972 0.75747 0.83728
 C206 C 0.50874 0.77768 0.85103
 C207 C 0.52919 0.79136 0.85450
 C208 C 0.55042 0.78547 0.84366
 C209 C 0.55134 0.76542 0.82973
 C210 C 0.53109 0.75124 0.82661
 H211 H 0.46684 0.76271 0.81696
 H212 H 0.50738 0.71732 0.86085
 H213 H 0.49252 0.78177 0.86018
 H214 H 0.53213 0.73505 0.81668
 H215 H 0.43302 0.70307 0.84930
 H216 H 0.56643 0.79584 0.84680
 C217 C -0.28396 0.65114 0.99808
 C218 C -0.26261 0.66126 1.00603
 C219 C -0.26223 0.67225 1.02710
 C220 C -0.28295 0.67345 1.04011
 C221 C -0.30417 0.66308 1.03228
 C222 C -0.30470 0.65177 1.01126
 C223 C -0.24086 0.66121 0.99207
 C224 C -0.24124 0.67209 0.97096
 C225 C -0.22045 0.67328 0.95799
 C226 C -0.19921 0.66297 0.96596
 C227 C -0.19873 0.65179 0.98699
 C228 C -0.21949 0.65119 1.00010
 H229 H -0.28426 0.64255 0.98180
 H230 H -0.24587 0.68032 1.03317
 H231 H -0.25765 0.68010 0.96488
 H232 H -0.21914 0.64269 1.01639
 H233 H -0.32013 0.66376 1.04254
 H234 H -0.18314 0.66359 0.95585
 C235 C -0.28456 0.34933 0.50149
 C236 C -0.26322 0.33916 0.49354
 C237 C -0.26298 0.32763 0.47272
 C238 C -0.28385 0.32594 0.45996
 C239 C -0.30507 0.33637 0.46778
 C240 C -0.30545 0.34823 0.48855
 C241 C -0.24133 0.33958 0.50729
 C242 C -0.24130 0.32864 0.52838
 C243 C -0.22036 0.32766 0.54111
 C244 C -0.19937 0.33822 0.53298
 C245 C -0.19929 0.34948 0.51198
 C246 C -0.22021 0.34988 0.49907
 H247 H -0.28474 0.35831 0.51758
 H248 H -0.24661 0.31951 0.46668
 H249 H -0.25748 0.32039 0.53464
 H250 H -0.22017 0.35838 0.48278
 H251 H -0.32115 0.33531 0.45773
 H252 H -0.18321 0.33772 0.54296
 C253 C 0.21850 -0.15211 0.00102
 C254 C 0.23976 -0.16227 -0.00709
 C255 C 0.23997 -0.17323 -0.02819
 C256 C 0.21910 -0.17437 -0.04106
 C257 C 0.19796 -0.16393 -0.03301
 C258 C 0.19766 -0.15266 -0.01198
 C259 C 0.26163 -0.16228 0.00672
 C260 C 0.26141 -0.17318 0.02783
 C261 C 0.28226 -0.17431 0.04071
 C262 C 0.30340 -0.16395 0.03267
 C263 C 0.30372 -0.15275 0.01164
 C264 C 0.28290 -0.15220 -0.00139
 H265 H 0.21828 -0.14353 0.01730
 H266 H 0.25631 -0.18132 -0.03435
 H267 H 0.24506 -0.18121 0.03398
 H268 H 0.28312 -0.14367 -0.01767
 H269 H 0.18183 -0.16448 -0.04304
 H270 H 0.31951 -0.16449 0.04273
 C271 C 0.21920 1.15110 0.49837
 C272 C 0.24037 1.16148 0.50640
 C273 C 0.24054 1.17241 0.52751
 C274 C 0.21975 1.17329 0.54045
 C275 C 0.19871 1.16265 0.53251
 C276 C 0.19843 1.15141 0.51148
 C277 C 0.26214 1.16181 0.49248
 C278 C 0.26170 1.17302 0.47152
 C279 C 0.28248 1.17451 0.45857
 C280 C 0.30377 1.16418 0.46639
 C281 C 0.30430 1.15267 0.48727
 C282 C 0.28355 1.15177 0.50037
 H283 H 0.21900 1.14256 0.48207
 H284 H 0.25677 1.18070 0.53364
 H285 H 0.24524 1.18103 0.46555
 H286 H 0.28394 1.14301 0.51654
 H287 H 0.18268 1.16306 0.54266
 H288 H 0.31983 1.16501 0.45628
 C289 C 0.10141 0.51161 0.22367
 C290 C 0.11753 0.51154 0.24170
 C291 C 0.13318 0.53098 0.24462
 C292 C 0.13265 0.55031 0.22960
 C293 C 0.11654 0.55009 0.21167
 C294 C 0.10093 0.53084 0.20863
 C295 C 0.11739 0.49145 0.25779
 C296 C 0.13299 0.47190 0.25503
 C297 C 0.13218 0.45255 0.27002
 C298 C 0.11583 0.45286 0.28775
 C299 C 0.10027 0.47221 0.29063
 C300 C 0.10103 0.49147 0.27563
 H301 H 0.08931 0.49671 0.22136
 H302 H 0.14554 0.53112 0.25858
 H303 H 0.14552 0.47170 0.24122
 H304 H 0.08896 0.50644 0.27782
 H305 H 0.11617 0.56493 0.20002
 H306 H 0.11524 0.43799 0.29937
 C307 C -0.10161 0.98840 0.22377
 C308 C -0.11764 0.98826 0.24188
 C309 C -0.13306 0.96865 0.24479
 C310 C -0.13243 0.94934 0.22970
 C311 C -0.11640 0.94976 0.21169
 C312 C -0.10099 0.96919 0.20864
 C313 C -0.11765 1.00833 0.25805
 C314 C -0.13332 1.02783 0.25530
 C315 C -0.13272 1.04712 0.27042
 C316 C -0.11649 1.04678 0.28828
 C317 C -0.10086 1.02747 0.29114
 C318 C -0.10143 1.00829 0.27602
 H319 H -0.08969 1.00347 0.22151
 H320 H -0.14533 0.96842 0.25883
 H321 H -0.14574 1.02799 0.24138
 H322 H -0.08932 0.99335 0.27820
 H323 H -0.11593 0.93492 0.19997
 H324 H -0.11600 1.06156 0.30004
 C325 C 0.39749 0.49085 -0.27694
 C326 C 0.38180 0.49061 -0.25856
 C327 C 0.36668 0.47082 -0.25531
 C328 C 0.36725 0.45147 -0.27034
 C329 C 0.38295 0.45196 -0.28857
 C330 C 0.39809 0.47154 -0.29196
 C331 C 0.38178 0.51076 -0.24248
 C332 C 0.36649 0.53049 -0.24561
 C333 C 0.36699 0.54979 -0.23049
 C334 C 0.38279 0.54926 -0.21231
 C335 C 0.39806 0.52974 -0.20909
 C336 C 0.39755 0.51051 -0.22417
 H337 H 0.40918 0.50605 -0.27946
 H338 H 0.35464 0.47047 -0.24112
 H339 H 0.35439 0.53079 -0.25977
 H340 H 0.40936 0.49538 -0.22169
 H341 H 0.38333 0.43704 -0.30018
 H342 H 0.38321 0.56406 -0.20056
 C343 C 0.60173 0.00978 -0.27762
 C344 C 0.61735 0.00999 -0.25918
 C345 C 0.63252 0.02971 -0.25584
 C346 C 0.63209 0.04905 -0.27084
 C347 C 0.61647 0.04861 -0.28914
 C348 C 0.60128 0.02909 -0.29261
 C349 C 0.61724 -0.01018 -0.24315
 C350 C 0.63239 -0.03000 -0.24634
 C351 C 0.63179 -0.04929 -0.23128
 C352 C 0.61603 -0.04870 -0.21310
 C353 C 0.60089 -0.02909 -0.20979
 C354 C 0.60150 -0.00984 -0.22481
 H355 H 0.59001 -0.00537 -0.28021
 H356 H 0.64450 0.03002 -0.24160
 H357 H 0.64449 -0.03042 -0.26049
 H358 H 0.58979 0.00536 -0.22228
 H359 H 0.61621 0.06353 -0.30073
 H360 H 0.61559 -0.06353 -0.20143
 C361 C -0.00220 0.21849 0.92386
 C362 C -0.00839 0.23992 0.91328
 C363 C -0.02839 0.24090 0.89930
 C364 C -0.04189 0.22038 0.89552
 C365 C -0.03605 0.19908 0.90628
 C366 C -0.01621 0.19816 0.92043
 C367 C 0.00813 0.26006 0.91313
 C368 C 0.02807 0.25887 0.89908
 C369 C 0.04155 0.27933 0.89501
 C370 C 0.03574 0.30079 0.90555
 C371 C 0.01597 0.30193 0.91975
 C372 C 0.00198 0.28166 0.92348
 H373 H 0.01384 0.21746 0.93396
 H374 H -0.03243 0.25718 0.89021
 H375 H 0.03207 0.24245 0.89017
 H376 H -0.01402 0.28284 0.93362
 H377 H -0.04627 0.18303 0.90290
 H378 H 0.04596 0.31679 0.90196
 C379 C 0.50236 0.21834 0.07705
 C380 C 0.50865 0.23994 0.08728
 C381 C 0.52890 0.24114 0.10094
 C382 C 0.54252 0.22069 0.10476
 C383 C 0.53656 0.19921 0.09434
 C384 C 0.51648 0.19807 0.08051
 C385 C 0.49207 0.26007 0.08741
 C386 C 0.47199 0.25883 0.10127
 C387 C 0.45835 0.27925 0.10525
 C388 C 0.46414 0.30073 0.09481
 C389 C 0.48405 0.30191 0.08078
 C390 C 0.49819 0.28168 0.07715
 H391 H 0.48615 0.21714 0.06720
 H392 H 0.53303 0.25755 0.10979
 H393 H 0.46797 0.24240 0.11011
 H394 H 0.51427 0.28290 0.06712
 H395 H 0.54688 0.18321 0.09776
 H396 H 0.45380 0.31670 0.09832
 C397 C 0.00142 0.71860 0.57733
 C398 C 0.00758 0.74026 0.58753
 C399 C 0.02787 0.74162 0.60111
 C400 C 0.04166 0.72128 0.60491
 C401 C 0.03584 0.69976 0.59451
 C402 C 0.01573 0.69845 0.58074
 C403 C -0.00919 0.76024 0.58781
 C404 C -0.02911 0.75880 0.60185
 C405 C -0.04277 0.77915 0.60616
 C406 C -0.03715 0.80076 0.59582
 C407 C -0.01740 0.80212 0.58161
 C408 C -0.00325 0.78197 0.57768
 H409 H -0.01483 0.71727 0.56756
 H410 H 0.03189 0.75807 0.60997
 H411 H -0.03292 0.74224 0.61058
 H412 H 0.01275 0.78335 0.56755
 H413 H 0.04629 0.68384 0.59791
 H414 H -0.04746 0.81671 0.59953
 C415 C 0.49771 0.71824 0.42394
 C416 C 0.49209 0.74027 0.41417
 C417 C 0.47179 0.74249 0.40069
 C418 C 0.45745 0.72262 0.39656
 C419 C 0.46275 0.70074 0.40653
 C420 C 0.48287 0.69858 0.42020
 C421 C 0.50939 0.75976 0.41429
 C422 C 0.52984 0.75757 0.40100
 C423 C 0.54416 0.77747 0.39701
 C424 C 0.53871 0.79935 0.40695
 C425 C 0.51845 0.80149 0.42042
 C426 C 0.50362 0.78180 0.42402
 H427 H 0.51394 0.71624 0.43364
 H428 H 0.46816 0.75920 0.39216
 H429 H 0.53356 0.74086 0.39246
 H430 H 0.48727 0.78378 0.43355
 H431 H 0.45188 0.68519 0.40286
 H432 H 0.54955 0.81493 0.40335
 Zr433 Zr 0.01360 -0.04341 1.03548
 O434 O 0.03905 -0.03390 1.06010
 O435 O 0.00353 -0.07747 1.04592
 O436 O -0.00240 -0.04081 1.06758
 O437 O 0.05495 -0.06038 0.99528
 O438 O -0.03476 -0.01666 1.06185
 O439 O 0.04553 -0.06374 1.03235
 O440 O -0.02658 -0.08769 1.02197
 O441 O -0.02323 -0.04358 1.02935
 O442 O 0.00859 -0.06073 1.00479
 O443 O 0.00292 -0.00736 1.03561
 O444 O 0.03398 -0.02396 1.01208
 Zr445 Zr -0.01990 -0.00469 0.97355
 Zr446 Zr -0.03355 -0.00771 1.02774
 Zr447 Zr 0.02701 -0.04047 0.98120
 Zr448 Zr -0.02782 -0.05977 0.99824
 O449 O 0.06030 -0.02622 0.97116
 O450 O -0.06295 -0.06542 1.01033
 O451 O -0.00944 -0.04098 0.97314
 O452 O -0.03989 -0.02439 0.99692
 O453 O -0.01506 0.01278 1.00423
 O454 O 0.01682 -0.00468 0.97987
 C455 C -0.01318 -0.09129 1.03911
 C456 C 0.05899 -0.06785 1.01522
 C457 C -0.02129 -0.02966 1.07427
 O458 O -0.06800 -0.02078 1.03547
 O459 O -0.05962 0.01521 1.01414
 O460 O -0.05074 0.01700 0.97687
 C461 C -0.06355 0.02247 0.99407
 O462 O 0.04789 0.01250 1.03646
 Zr463 Zr 0.02149 0.01141 1.01093
 O464 O -0.01062 0.03014 0.96409
 O465 O -0.03382 0.02419 1.04675
 O466 O 0.01303 0.04071 1.03204
 O467 O 0.05508 0.01981 0.99661
 O468 O 0.01648 0.04160 0.99058
 C469 C 0.00338 0.04539 0.97333
 O470 O -0.04630 -0.01342 0.94954
 O471 O 0.02852 -0.07366 0.96426
 O472 O -0.00542 -0.00925 0.94105
 O473 O 0.02575 -0.03497 0.94646
 O474 O -0.01882 -0.09128 0.98037
 O475 O -0.05049 -0.06320 0.96989
 C476 C 0.01218 -0.02211 0.93403
 H477 H 0.01440 -0.07744 1.00490
 H478 H -0.05707 -0.02428 0.99304
 H479 H 0.02605 0.00393 0.96829
 H480 H 0.00588 0.00008 1.05039
 H481 H -0.06679 -0.08254 1.00810
 H482 H -0.07536 -0.00919 1.04596
 H483 H -0.04960 0.02506 1.05420
 H484 H 0.02448 0.05370 1.02866
 H485 H -0.03076 -0.10361 0.98437
 H486 H 0.04428 -0.07447 0.95677
 H487 H 0.06761 -0.03798 0.96080
 H488 H 0.05831 0.03689 0.99979
 H489 H -0.05970 -0.07824 0.97103
 H490 H -0.04780 0.00043 0.93928
 H491 H 0.04069 -0.04776 1.07032
 H492 H 0.05491 0.02870 1.03719
 Zr493 Zr 0.51105 0.45666 0.53413
 O494 O 0.53653 0.46649 0.55862
 O495 O 0.50095 0.42276 0.54502
 O496 O 0.49512 0.45979 0.56623
 O497 O 0.55237 0.43912 0.49411
 O498 O 0.46275 0.48385 0.56023
 O499 O 0.54299 0.43630 0.53124
 O500 O 0.47085 0.41220 0.52119
 O501 O 0.47421 0.45641 0.52805
 O502 O 0.50600 0.43890 0.50368
 O503 O 0.50037 0.49271 0.53382
 O504 O 0.53140 0.47578 0.51048
 Zr505 Zr 0.47749 0.49450 0.47174
 Zr506 Zr 0.46390 0.49226 0.52599
 Zr507 Zr 0.52440 0.45883 0.47982
 Zr508 Zr 0.46958 0.43978 0.49713
 O509 O 0.55770 0.47290 0.46958
 O510 O 0.43447 0.43432 0.50934
 O511 O 0.48795 0.45821 0.47178
 O512 O 0.45752 0.47515 0.49539
 O513 O 0.48236 0.51240 0.50220
 O514 O 0.51422 0.49460 0.47804
 C515 C 0.48424 0.40884 0.53838
 C516 C 0.55645 0.43195 0.51415
 C517 C 0.47626 0.47105 0.57280
 O518 O 0.42946 0.47929 0.53392
 O519 O 0.43783 0.51500 0.51212
 O520 O 0.44666 0.51626 0.47482
 C521 C 0.43388 0.52198 0.49197
 O522 O 0.54535 0.51259 0.53437
 Zr523 Zr 0.51892 0.51113 0.50889
 O524 O 0.48673 0.52920 0.46182
 O525 O 0.46364 0.52444 0.54458
 O526 O 0.51049 0.54073 0.52963
 O527 O 0.55249 0.51932 0.49442
 O528 O 0.51386 0.54101 0.48815
 C529 C 0.50074 0.54457 0.47087
 O530 O 0.45109 0.48538 0.44787
 O531 O 0.52587 0.42539 0.46329
 O532 O 0.49200 0.48953 0.43930
 O533 O 0.52315 0.46386 0.44503
 O534 O 0.47856 0.40803 0.47965
 O535 O 0.44688 0.43595 0.46886
 C536 C 0.50962 0.47659 0.43244
 H537 H 0.51182 0.42220 0.50399
 H538 H 0.44034 0.47521 0.49151
 H539 H 0.52344 0.50304 0.46635
 H540 H 0.50336 0.50037 0.54849
 H541 H 0.43062 0.41718 0.50732
 H542 H 0.42211 0.49104 0.54426
 H543 H 0.44787 0.52543 0.55203
 H544 H 0.52192 0.55367 0.52606
 H545 H 0.46662 0.39576 0.48380
 H546 H 0.54162 0.42447 0.45580
 H547 H 0.56499 0.46100 0.45937
 H548 H 0.55570 0.53645 0.49736
 H549 H 0.43766 0.42094 0.47020
 H550 H 0.44957 0.49907 0.43743
 H551 H 0.53818 0.45277 0.56900
 H552 H 0.55238 0.52881 0.53487
 Zr553 Zr 0.48914 1.04403 0.53303
 O554 O 0.46364 1.03427 0.55749
 O555 O 0.49919 1.07799 0.54388
 O556 O 0.50501 1.04101 0.56515
 O557 O 0.44784 1.06137 0.49295
 O558 O 0.53742 1.01698 0.55923
 O559 O 0.45719 1.06434 0.53008
 O560 O 0.52929 1.08852 0.52006
 O561 O 0.52599 1.04432 0.52699
 O562 O 0.49419 1.06168 0.50255
 O563 O 0.49987 1.00800 0.53277
 O564 O 0.46884 1.02480 0.50937
 Zr565 Zr 0.52281 1.00600 0.47072
 Zr566 Zr 0.53635 1.00848 0.52499
 Zr567 Zr 0.47584 1.04164 0.47870
 Zr568 Zr 0.53062 1.06083 0.49605
 O569 O 0.44258 1.02748 0.46845
 O570 O 0.56571 1.06640 0.50829
 O571 O 0.51230 1.04228 0.47071
 O572 O 0.54273 1.02548 0.49437
 O573 O 0.51794 0.98821 0.50121
 O574 O 0.48608 1.00588 0.47699
 C575 C 0.51588 1.09192 0.53723
 C576 C 0.44374 1.06860 0.51297
 C577 C 0.52386 1.02978 0.57177
 O578 O 0.57074 1.02155 0.53296
 O579 O 0.56248 0.98575 0.51119
 O580 O 0.55370 0.98432 0.47388
 C581 C 0.56647 0.97870 0.49106
 O582 O 0.45490 0.98807 0.53329
 Zr583 Zr 0.48137 0.98946 0.50785
 O584 O 0.51365 0.97124 0.46087
 O585 O 0.53665 0.97635 0.54360
 O586 O 0.48981 0.95995 0.52865
 O587 O 0.44783 0.98116 0.49334
 O588 O 0.48651 0.95950 0.48718
 C589 C 0.49967 0.95588 0.46993
 O590 O 0.54922 1.01507 0.44686
 O591 O 0.47434 1.07501 0.46212
 O592 O 0.50831 1.01082 0.43826
 O593 O 0.47712 1.03647 0.44392
 O594 O 0.52161 1.09250 0.47850
 O595 O 0.55335 1.06458 0.46780
 C596 C 0.49068 1.02371 0.43137
 H597 H 0.48835 1.07838 0.50284
 H598 H 0.55992 1.02544 0.49052
 H599 H 0.47688 0.99738 0.46530
 H600 H 0.49687 1.00038 0.54745
 H601 H 0.56953 1.08354 0.50624
 H602 H 0.57810 1.00985 0.54333
 H603 H 0.55241 0.97542 0.55108
 H604 H 0.47838 0.94699 0.52510
 H605 H 0.53353 1.10481 0.48265
 H606 H 0.45859 1.07589 0.45463
 H607 H 0.43527 1.03934 0.45822
 H608 H 0.44464 0.96404 0.49630
 H609 H 0.56253 1.07962 0.46912
 H610 H 0.55076 1.00133 0.43645
 H611 H 0.46197 1.04802 0.56786
 H612 H 0.44789 0.97185 0.53381
 Zr613 Zr -0.01387 0.54389 1.03422
 O614 O -0.03943 0.53433 1.05870
 O615 O -0.00386 0.57794 1.04484
 O616 O 0.00194 0.54127 1.06639
 O617 O -0.05504 0.56086 0.99388
 O618 O 0.03435 0.51716 1.06076
 O619 O -0.04582 0.56416 1.03101
 O620 O 0.02644 0.58815 1.02112
 O621 O 0.02299 0.54408 1.02828
 O622 O -0.00870 0.56127 1.00362
 O623 O -0.00317 0.50785 1.03431
 O624 O -0.03410 0.52446 1.01066
 Zr625 Zr 0.02000 0.50526 0.97235
 Zr626 Zr 0.03334 0.50822 1.02662
 Zr627 Zr -0.02697 0.54102 0.97987
 Zr628 Zr 0.02775 0.56033 0.99725
 O629 O -0.06019 0.52678 0.96958
 O630 O 0.06284 0.56596 1.00947
 O631 O 0.00952 0.54155 0.97200
 O632 O 0.03985 0.52495 0.99589
 O633 O 0.01499 0.48775 1.00296
 O634 O -0.01676 0.50524 0.97849
 C635 C 0.01295 0.59172 1.03821
 C636 C -0.05921 0.56826 1.01383
 C637 C 0.02080 0.53014 1.07314
 O638 O 0.06774 0.52130 1.03456
 O639 O 0.05950 0.48532 1.01310
 O640 O 0.05084 0.48357 0.97578
 C641 C 0.06354 0.47808 0.99304
 O642 O -0.04813 0.48797 1.03487
 Zr643 Zr -0.02160 0.48910 1.00947
 O644 O 0.01078 0.47044 0.96273
 O645 O 0.03352 0.47630 1.04555
 O646 O -0.01324 0.45977 1.03052
 O647 O -0.05511 0.48071 0.99496
 O648 O -0.01647 0.45895 0.98905
 C649 C -0.00328 0.45518 0.97185
 O650 O 0.04653 0.51404 0.94851
 O651 O -0.02840 0.57425 0.96306
 O652 O 0.00569 0.50986 0.93980
 O653 O -0.02551 0.53558 0.94514
 O654 O 0.01881 0.59189 0.97950
 O655 O 0.05052 0.56382 0.96900
 C656 C -0.01188 0.52272 0.93273
 H657 H -0.01453 0.57797 1.00377
 H658 H 0.05705 0.52485 0.99209
 H659 H -0.02592 0.49665 0.96683
 H660 H -0.00621 0.50039 1.04904
 H661 H 0.06668 0.58308 1.00730
 H662 H 0.07505 0.50971 1.04506
 H663 H 0.04926 0.47544 1.05308
 H664 H -0.02466 0.44679 1.02705
 H665 H 0.03073 0.60421 0.98360
 H666 H -0.04412 0.57507 0.95549
 H667 H -0.06744 0.53856 0.95923
 H668 H -0.05834 0.46363 0.99806
 H669 H 0.05969 0.57887 0.97020
 H670 H 0.04808 0.50020 0.93821
 H671 H -0.04115 0.54818 1.06895
 H672 H -0.05514 0.47176 1.03551
 Zr673 Zr -0.01519 0.45798 0.46444
 O674 O -0.04086 0.46821 0.44027
 O675 O -0.00545 0.42406 0.45321
 O676 O 0.00047 0.46104 0.43224
 O677 O -0.05613 0.44052 0.50475
 O678 O 0.03300 0.48483 0.43809
 O679 O -0.04719 0.43786 0.46751
 O680 O 0.02494 0.41317 0.47660
 O681 O 0.02171 0.45743 0.47016
 O682 O -0.00988 0.44001 0.49472
 O683 O -0.00434 0.49394 0.46488
 O684 O -0.03519 0.47710 0.48843
 Zr685 Zr 0.01925 0.49523 0.52673
 Zr686 Zr 0.03222 0.49319 0.47236
 Zr687 Zr -0.02791 0.45993 0.51890
 Zr688 Zr 0.02662 0.44058 0.50089
 O689 O -0.06101 0.47420 0.52959
 O690 O 0.06156 0.43493 0.48831
 O691 O 0.00863 0.45901 0.52655
 O692 O 0.03886 0.47585 0.50277
 O693 O 0.01411 0.51333 0.49645
 O694 O -0.01755 0.49562 0.52080
 C695 C 0.01131 0.41000 0.45955
 C696 C -0.06047 0.43350 0.48470
 C697 C 0.01934 0.47215 0.42558
 O698 O 0.06654 0.48006 0.46405
 O699 O 0.05853 0.51570 0.48610
 O700 O 0.05012 0.51681 0.52349
 C701 C 0.06272 0.52255 0.50626
 O702 O -0.04922 0.51413 0.46489
 Zr703 Zr -0.02253 0.51235 0.49011
 O704 O 0.01023 0.52992 0.53698
 O705 O 0.03239 0.52543 0.45392
 O706 O -0.01419 0.54201 0.46950
 O707 O -0.05591 0.52070 0.50494
 O708 O -0.01714 0.54207 0.51100
 C709 C -0.00383 0.54544 0.52819
 O710 O 0.04590 0.48581 0.55026
 O711 O -0.02935 0.42641 0.53520
 O712 O 0.00513 0.49015 0.55928
 O713 O -0.02621 0.46474 0.55372
 O714 O 0.01769 0.40877 0.51822
 O715 O 0.04961 0.43639 0.52891
 C716 C -0.01244 0.47728 0.56624
 H717 H -0.01578 0.42335 0.49435
 H718 H 0.05609 0.47577 0.50648
 H719 H -0.02660 0.50405 0.53265
 H720 H -0.00744 0.50169 0.45027
 H721 H 0.06534 0.41774 0.49014
 H722 H 0.07381 0.49180 0.45369
 H723 H 0.04808 0.52633 0.44632
 H724 H -0.02553 0.55501 0.47325
 H725 H 0.02951 0.39644 0.51383
 H726 H -0.04502 0.42556 0.54285
 H727 H -0.06824 0.46228 0.53980
 H728 H -0.05909 0.53786 0.50214
 H729 H 0.05874 0.42132 0.52737
 H730 H 0.04759 0.49944 0.56078
 H731 H -0.04271 0.45456 0.42981
 H732 H -0.05617 0.53041 0.46455
 Zr733 Zr 0.48763 -0.04340 -0.03465
 O734 O 0.46208 -0.03391 -0.05920
 O735 O 0.49806 -0.07731 -0.04539
 O736 O 0.50354 -0.04040 -0.06674
 O737 O 0.44640 -0.06087 0.00539
 O738 O 0.53568 -0.01610 -0.06083
 O739 O 0.45587 -0.06391 -0.03171
 O740 O 0.52823 -0.08751 -0.02148
 O741 O 0.52446 -0.04339 -0.02853
 O742 O 0.49279 -0.06091 -0.00411
 O743 O 0.49798 -0.00729 -0.03449
 O744 O 0.46708 -0.02423 -0.01110
 Zr745 Zr 0.52077 -0.00491 0.02760
 Zr746 Zr 0.53445 -0.00747 -0.02662
 Zr747 Zr 0.47418 -0.04092 0.01964
 Zr748 Zr 0.52919 -0.05976 0.00247
 O749 O 0.44076 -0.02696 0.02979
 O750 O 0.56437 -0.06512 -0.00964
 O751 O 0.51063 -0.04126 0.02771
 O752 O 0.54094 -0.02432 0.00406
 O753 O 0.51579 0.01275 -0.00295
 O754 O 0.48406 -0.00507 0.02126
 C755 C 0.51490 -0.09107 -0.03867
 C756 C 0.44241 -0.06820 -0.01462
 C757 C 0.52229 -0.02906 -0.07335
 O758 O 0.56899 -0.02031 -0.03450
 O759 O 0.56035 0.01547 -0.01283
 O760 O 0.55146 0.01696 0.02445
 C761 C 0.56423 0.02260 0.00730
 O762 O 0.45284 0.01231 -0.03518
 Zr763 Zr 0.47924 0.01121 -0.00966
 O764 O 0.51121 0.02981 0.03733
 O765 O 0.53447 0.02460 -0.04533
 O766 O 0.48745 0.04071 -0.03053
 O767 O 0.44558 0.01929 0.00472
 O768 O 0.48399 0.04128 0.01094
 C769 C 0.49706 0.04503 0.02821
 O770 O 0.54721 -0.01367 0.05156
 O771 O 0.47298 -0.07424 0.03630
 O772 O 0.50628 -0.00973 0.06004
 O773 O 0.47535 -0.03563 0.05441
 O774 O 0.52045 -0.09145 0.02007
 O775 O 0.55186 -0.06324 0.03080
 C776 C 0.48878 -0.02273 0.06695
 H777 H 0.48711 -0.07765 -0.00436
 H778 H 0.55811 -0.02414 0.00795
 H779 H 0.47474 0.00339 0.03291
 H780 H 0.49494 0.00025 -0.04920
 H781 H 0.56837 -0.08222 -0.00752
 H782 H 0.57625 -0.00860 -0.04488
 H783 H 0.55024 0.02561 -0.05278
 H784 H 0.47588 0.05360 -0.02705
 H785 H 0.53251 -0.10368 0.01599
 H786 H 0.45722 -0.07521 0.04377
 H787 H 0.43355 -0.03884 0.04005
 H788 H 0.44220 0.03637 0.00169
 H789 H 0.56119 -0.07822 0.02957
 H790 H 0.54859 0.00012 0.06193
 H791 H 0.46057 -0.04771 -0.06953
 H792 H 0.44568 0.02848 -0.03578
 Zr793 Zr 0.51197 0.54360 -0.03414
 O794 O 0.53735 0.53412 -0.05886
 O795 O 0.50167 0.57763 -0.04459
 O796 O 0.49589 0.54083 -0.06619
 O797 O 0.55347 0.56069 0.00584
 O798 O 0.46366 0.51664 -0.06031
 O799 O 0.54384 0.56395 -0.03119
 O800 O 0.47170 0.58788 -0.02047
 O801 O 0.47516 0.54372 -0.02788
 O802 O 0.50704 0.56096 -0.00347
 O803 O 0.50145 0.50753 -0.03417
 O804 O 0.53254 0.52421 -0.01080
 Zr805 Zr 0.47895 0.50493 0.02799
 Zr806 Zr 0.46502 0.50784 -0.02616
 Zr807 Zr 0.52567 0.54077 0.02008
 Zr808 Zr 0.47066 0.55996 0.00325
 O809 O 0.55908 0.52661 0.03000
 O810 O 0.43547 0.56554 -0.00875
 O811 O 0.48926 0.54123 0.02830
 O812 O 0.45876 0.52456 0.00466
 O813 O 0.48371 0.48741 -0.00269
 O814 O 0.51563 0.50497 0.02150
 C815 C 0.48498 0.59147 -0.03768
 C816 C 0.55739 0.56810 -0.01413
 C817 C 0.47706 0.52959 -0.07281
 O818 O 0.43050 0.52088 -0.03380
 O819 O 0.43909 0.48493 -0.01241
 O820 O 0.44817 0.48319 0.02482
 C821 C 0.43529 0.47769 0.00768
 O822 O 0.54648 0.48771 -0.03519
 Zr823 Zr 0.52022 0.48882 -0.00954
 O824 O 0.48843 0.47014 0.03748
 O825 O 0.46476 0.47587 -0.04508
 O826 O 0.51176 0.45946 -0.03054
 O827 O 0.55394 0.48053 0.00464
 O828 O 0.51547 0.45868 0.01091
 C829 C 0.50248 0.45491 0.02822
 O830 O 0.45265 0.51368 0.05210
 O831 O 0.52711 0.57400 0.03695
 O832 O 0.49361 0.50954 0.06041
 O833 O 0.52464 0.53531 0.05481
 O834 O 0.47961 0.59148 0.02107
 O835 O 0.44810 0.56338 0.03166
 C836 C 0.51121 0.52242 0.06733
 H837 H 0.51279 0.57768 -0.00362
 H838 H 0.44160 0.52443 0.00862
 H839 H 0.52497 0.49640 0.03306
 H840 H 0.50438 0.50005 -0.04894
 H841 H 0.43156 0.58265 -0.00651
 H842 H 0.42313 0.50926 -0.04424
 H843 H 0.44895 0.47497 -0.05247
 H844 H 0.52328 0.44650 -0.02719
 H845 H 0.46759 0.60379 0.01713
 H846 H 0.54290 0.57485 0.04437
 H847 H 0.56639 0.53840 0.04030
 H848 H 0.55722 0.46345 0.00149
 H849 H 0.43880 0.57839 0.03053
 H850 H 0.45126 0.49985 0.06239
 H851 H 0.53887 0.54797 -0.06910
 H852 H 0.55356 0.47151 -0.03591
 Zr853 Zr 0.01426 1.04231 0.46528
 O854 O 0.03977 1.03191 0.44102
 O855 O 0.00466 1.07627 0.45413
 O856 O -0.00156 1.03923 0.43314
 O857 O 0.05549 1.05966 0.50541
 O858 O -0.03420 1.01564 0.43912
 O859 O 0.04635 1.06231 0.46822
 O860 O -0.02546 1.08743 0.47774
 O861 O -0.02261 1.04309 0.47116
 O862 O 0.00922 1.06034 0.49561
 O863 O 0.00321 1.00641 0.46575
 O864 O 0.03429 1.02311 0.48917
 Zr865 Zr -0.02004 1.00536 0.52772
 Zr866 Zr -0.03330 1.00739 0.47339
 Zr867 Zr 0.02728 1.04036 0.51970
 Zr868 Zr -0.02724 1.06000 0.50194
 O869 O 0.06038 1.02593 0.53017
 O870 O -0.06219 1.06584 0.48944
 O871 O -0.00921 1.04151 0.52751
 O872 O -0.03968 1.02480 0.50385
 O873 O -0.01517 0.98718 0.49739
 O874 O 0.01672 1.00474 0.52162
 C875 C -0.01190 1.09049 0.46061
 C876 C 0.05973 1.06665 0.48536
 C877 C -0.02051 1.02819 0.42654
 O878 O -0.06758 1.02071 0.46524
 O879 O -0.05964 0.98503 0.48724
 O880 O -0.05103 0.98393 0.52459
 C881 C -0.06375 0.97821 0.50741
 O882 O 0.04800 0.98596 0.46557
 Zr883 Zr 0.02144 0.98793 0.49090
 O884 O -0.01119 0.97063 0.53790
 O885 O -0.03376 0.97511 0.45495
 O886 O 0.01282 0.95830 0.47030
 O887 O 0.05484 0.97940 0.50559
 O888 O 0.01595 0.95827 0.51179
 C889 C 0.00271 0.95501 0.52903
 O890 O -0.04651 1.01499 0.55136
 O891 O 0.02898 1.07387 0.53605
 O892 O -0.00569 1.01037 0.56021
 O893 O 0.02579 1.03556 0.55451
 O894 O -0.01808 1.09175 0.51932
 O895 O -0.05012 1.06434 0.53003
 C896 C 0.01202 1.02311 0.56710
 H897 H 0.01520 1.07697 0.49524
 H898 H -0.05688 1.02498 0.50763
 H899 H 0.02579 0.99626 0.53341
 H900 H 0.00620 0.99861 0.45114
 H901 H -0.06586 1.08305 0.49129
 H902 H -0.07498 1.00899 0.45491
 H903 H -0.04950 0.97428 0.44742
 H904 H 0.02411 0.94524 0.47400
 H905 H -0.02985 1.10415 0.51501
 H906 H 0.04471 1.07465 0.54361
 H907 H 0.06774 1.03781 0.54035
 H908 H 0.05790 0.96221 0.50277
 H909 H -0.05920 1.07944 0.52851
 H910 H -0.04823 1.00139 0.56188
 H911 H 0.04163 1.04552 0.43054
 H912 H 0.05485 0.96965 0.46519
 Zr913 Zr 0.70750 0.26020 0.21678
 O914 O 0.71763 0.28574 0.19247
 O915 O 0.67360 0.25040 0.20567
 O916 O 0.71060 0.24437 0.18464
 O917 O 0.69008 0.30152 0.25689
 O918 O 0.73438 0.21178 0.19058
 O919 O 0.68737 0.29229 0.21971
 O920 O 0.66274 0.22022 0.22929
 O921 O 0.70697 0.22330 0.22268
 O922 O 0.68958 0.25514 0.24712
 O923 O 0.74344 0.24927 0.21722
 O924 O 0.72663 0.28035 0.24063
 Zr925 Zr 0.74480 0.22608 0.27919
 Zr926 Zr 0.74270 0.21273 0.22486
 Zr927 Zr 0.70950 0.27332 0.27116
 Zr928 Zr 0.69019 0.21865 0.25348
 O929 O 0.72377 0.30649 0.28165
 O930 O 0.68455 0.18360 0.24106
 O931 O 0.70861 0.23680 0.27901
 O932 O 0.72543 0.20632 0.25535
 O933 O 0.76284 0.23097 0.24884
 O934 O 0.74516 0.26287 0.27308
 C935 C 0.65955 0.23374 0.21216
 C936 C 0.68305 0.30573 0.23683
 C937 C 0.72173 0.22544 0.17803
 O938 O 0.72958 0.17837 0.21673
 O939 O 0.76523 0.18646 0.23868
 O940 O 0.76638 0.19510 0.27604
 C941 C 0.77212 0.18238 0.25884
 O942 O 0.76360 0.29418 0.21701
 Zr943 Zr 0.76185 0.26761 0.24234
 O944 O 0.77948 0.23505 0.28934
 O945 O 0.77491 0.21236 0.20638
 O946 O 0.79145 0.25907 0.22168
 O947 O 0.77021 0.30107 0.25704
 O948 O 0.79158 0.26220 0.26317
 C949 C 0.79498 0.24897 0.28041
 O950 O 0.73542 0.19958 0.30287
 O951 O 0.67603 0.27498 0.28750
 O952 O 0.73972 0.24048 0.31169
 O953 O 0.71432 0.27186 0.30596
 O954 O 0.65845 0.22776 0.27086
 O955 O 0.68609 0.19582 0.28162
 C956 C 0.72685 0.25816 0.31855
 H957 H 0.67294 0.26107 0.24675
 H958 H 0.72537 0.18911 0.25913
 H959 H 0.75360 0.27199 0.28486
 H960 H 0.75117 0.25228 0.20259
 H961 H 0.66739 0.17985 0.24297
 H962 H 0.74129 0.17099 0.20638
 H963 H 0.77581 0.19660 0.19885
 H964 H 0.80444 0.27041 0.22537
 H965 H 0.64613 0.21592 0.26658
 H966 H 0.67518 0.29072 0.29506
 H967 H 0.71187 0.31384 0.29183
 H968 H 0.78736 0.30418 0.25421
 H969 H 0.67104 0.18669 0.28015
 H970 H 0.74905 0.19793 0.31337
 H971 H 0.70398 0.28754 0.18202
 H972 H 0.77984 0.30111 0.21664
 Zr973 Zr 0.79334 0.73695 0.71523
 O974 O 0.78420 0.71154 0.69042
 O975 O 0.82742 0.74724 0.70509
 O976 O 0.79094 0.75305 0.68318
 O977 O 0.81009 0.69545 0.75535
 O978 O 0.76662 0.78530 0.68885
 O979 O 0.81374 0.70506 0.71835
 O980 O 0.83728 0.77732 0.72926
 O981 O 0.79329 0.77380 0.72151
 O982 O 0.81034 0.74193 0.74605
 O983 O 0.75728 0.74747 0.71488
 O984 O 0.77379 0.71637 0.73840
 Zr985 Zr 0.75394 0.77006 0.77701
 Zr986 Zr 0.75739 0.78394 0.72290
 Zr987 Zr 0.78997 0.72330 0.76942
 Zr988 Zr 0.80915 0.77834 0.75276
 O989 O 0.77579 0.68988 0.77924
 O990 O 0.81475 0.81358 0.74085
 O991 O 0.79023 0.75975 0.77764
 O992 O 0.77374 0.79026 0.75386
 O993 O 0.73679 0.76526 0.74618
 O994 O 0.75416 0.73333 0.77054
 C995 C 0.84109 0.76401 0.71208
 C996 C 0.81773 0.69151 0.73544
 C997 C 0.77977 0.77191 0.67648
 O998 O 0.77037 0.81851 0.71540
 O999 O 0.73426 0.80990 0.73643
 O1000 O 0.73215 0.80086 0.77365
 C1001 C 0.72680 0.81372 0.75646
 O1002 O 0.73764 0.70238 0.71369
 Zr1003 Zr 0.73839 0.72870 0.73935
 O1004 O 0.71911 0.76055 0.78620
 O1005 O 0.72568 0.78415 0.70367
 O1006 O 0.70926 0.73713 0.71808
 O1007 O 0.73004 0.69497 0.75346
 O1008 O 0.70803 0.73347 0.75952
 C1009 C 0.70403 0.74648 0.77680
 O1010 O 0.76229 0.79644 0.80120
 O1011 O 0.82300 0.72185 0.78656
 O1012 O 0.75830 0.75547 0.80948
 O1013 O 0.78419 0.72441 0.80411
 O1014 O 0.84050 0.76941 0.77083
 O1015 O 0.81220 0.80094 0.78123
 C1016 C 0.77118 0.73790 0.81652
 H1017 H 0.82706 0.73618 0.74604
 H1018 H 0.77351 0.80743 0.75782
 H1019 H 0.74551 0.72401 0.78203
 H1020 H 0.74999 0.74452 0.70004
 H1021 H 0.83180 0.81749 0.74325
 H1022 H 0.75886 0.82586 0.70485
 H1023 H 0.72481 0.79997 0.69628
 H1024 H 0.69631 0.72559 0.72131
 H1025 H 0.85279 0.78143 0.76699
 H1026 H 0.82381 0.70605 0.79399
 H1027 H 0.78749 0.68258 0.78964
 H1028 H 0.71303 0.69167 0.75015
 H1029 H 0.82719 0.81023 0.78025
 H1030 H 0.74835 0.79783 0.81136
 H1031 H 0.79815 0.70999 0.68030
 H1032 H 0.72149 0.69528 0.71282
 Zr1033 Zr 0.20646 0.23792 0.78450
 O1034 O 0.21581 0.21243 0.80916
 O1035 O 0.17247 0.24828 0.79495
 O1036 O 0.20920 0.25393 0.81660
 O1037 O 0.18938 0.19652 0.74437
 O1038 O 0.23347 0.28614 0.81084
 O1039 O 0.18606 0.20607 0.78144
 O1040 O 0.16236 0.27838 0.77092
 O1041 O 0.20644 0.27478 0.77835
 O1042 O 0.18919 0.24298 0.75383
 O1043 O 0.24252 0.24836 0.78460
 O1044 O 0.22582 0.21733 0.76112
 Zr1045 Zr 0.24530 0.27103 0.72252
 Zr1046 Zr 0.24232 0.28485 0.77670
 Zr1047 Zr 0.20936 0.22434 0.73024
 Zr1048 Zr 0.19030 0.27940 0.74723
 O1049 O 0.22346 0.19089 0.72022
 O1050 O 0.18479 0.31462 0.75932
 O1051 O 0.20901 0.26080 0.72214
 O1052 O 0.22570 0.29123 0.74588
 O1053 O 0.26273 0.26614 0.75320
 O1054 O 0.24516 0.23429 0.72888
 C1055 C 0.15870 0.26505 0.78809
 C1056 C 0.18192 0.19256 0.76433
 C1057 C 0.22047 0.27273 0.82328
 O1058 O 0.22936 0.31941 0.78444
 O1059 O 0.26529 0.31079 0.76305
 O1060 O 0.26708 0.30178 0.72579
 C1061 C 0.27257 0.31463 0.74297
 O1062 O 0.26217 0.20321 0.78550
 Zr1063 Zr 0.26120 0.22957 0.75994
 O1064 O 0.28006 0.26148 0.71305
 O1065 O 0.27423 0.28498 0.79564
 O1066 O 0.29051 0.23789 0.78100
 O1067 O 0.26944 0.19585 0.74565
 O1068 O 0.29138 0.23432 0.73955
 C1069 C 0.29523 0.24736 0.72229
 O1070 O 0.23668 0.29744 0.69847
 O1071 O 0.17619 0.22301 0.71334
 O1072 O 0.24072 0.25646 0.69005
 O1073 O 0.21488 0.22546 0.69551
 O1074 O 0.15882 0.27057 0.72935
 O1075 O 0.18699 0.30206 0.71887
 C1076 C 0.22781 0.23891 0.68306
 H1077 H 0.17248 0.23726 0.75395
 H1078 H 0.22587 0.30841 0.74198
 H1079 H 0.25372 0.22496 0.71731
 H1080 H 0.24995 0.24537 0.79937
 H1081 H 0.16771 0.31858 0.75707
 H1082 H 0.24098 0.32673 0.79491
 H1083 H 0.27515 0.30078 0.80308
 H1084 H 0.30343 0.22633 0.77764
 H1085 H 0.14654 0.28262 0.73331
 H1086 H 0.17532 0.20722 0.70587
 H1087 H 0.21168 0.18363 0.70988
 H1088 H 0.28649 0.19251 0.74882
 H1089 H 0.17202 0.31140 0.72001
 H1090 H 0.25053 0.29882 0.68820
 H1091 H 0.20194 0.21091 0.81938
 H1092 H 0.27833 0.19607 0.78622
 Zr1093 Zr 0.29265 0.76452 0.28435
 O1094 O 0.28240 0.79013 0.30861
 O1095 O 0.32657 0.75480 0.29549
 O1096 O 0.28959 0.74875 0.31650
 O1097 O 0.31000 0.80568 0.24418
 O1098 O 0.26592 0.71613 0.31055
 O1099 O 0.31271 0.79659 0.28137
 O1100 O 0.33755 0.72455 0.27191
 O1101 O 0.29330 0.72760 0.27848
 O1102 O 0.31060 0.75936 0.25402
 O1103 O 0.25675 0.75357 0.28390
 O1104 O 0.27348 0.78457 0.26046
 Zr1105 Zr 0.25551 0.73017 0.22195
 Zr1106 Zr 0.25761 0.71700 0.27628
 Zr1107 Zr 0.29064 0.77745 0.22993
 Zr1108 Zr 0.31013 0.72285 0.24770
 O1109 O 0.27629 0.81059 0.21942
 O1110 O 0.31587 0.68785 0.26018
 O1111 O 0.29166 0.74090 0.22214
 O1112 O 0.27492 0.71050 0.24582
 O1113 O 0.23743 0.73516 0.25228
 O1114 O 0.25502 0.76698 0.22802
 C1115 C 0.34069 0.73813 0.28903
 C1116 C 0.31703 0.80995 0.26423
 C1117 C 0.27852 0.72981 0.32311
 O1118 O 0.27081 0.68266 0.28444
 O1119 O 0.23516 0.69068 0.26246
 O1120 O 0.23402 0.69922 0.22510
 C1121 C 0.22830 0.68655 0.24230
 O1122 O 0.23647 0.79848 0.28404
 Zr1123 Zr 0.23830 0.77182 0.25875
 O1124 O 0.22081 0.73908 0.21179
 O1125 O 0.22540 0.71668 0.29475
 O1126 O 0.20872 0.76336 0.27941
 O1127 O 0.22983 0.80522 0.24400
 O1128 O 0.20858 0.76632 0.23792
 C1129 C 0.20525 0.75301 0.22070
 O1130 O 0.26501 0.70360 0.19832
 O1131 O 0.32410 0.77904 0.21358
 O1132 O 0.26052 0.74444 0.18945
 O1133 O 0.28581 0.77587 0.19512
 O1134 O 0.34185 0.73190 0.23033
 O1135 O 0.31434 0.69991 0.21961
 C1136 C 0.27332 0.76210 0.18255
 H1137 H 0.32722 0.76530 0.25438
 H1138 H 0.27505 0.69327 0.24205
 H1139 H 0.24655 0.77605 0.21622
 H1140 H 0.24900 0.75661 0.29852
 H1141 H 0.33305 0.68412 0.25831
 H1142 H 0.25911 0.67530 0.29478
 H1143 H 0.22453 0.70094 0.30228
 H1144 H 0.19570 0.77469 0.27571
 H1145 H 0.35421 0.72009 0.23464
 H1146 H 0.32490 0.79476 0.20600
 H1147 H 0.28816 0.81790 0.20923
 H1148 H 0.21267 0.80833 0.24683
 H1149 H 0.32941 0.69079 0.22110
 H1150 H 0.25140 0.70189 0.18781
 H1151 H 0.29603 0.79196 0.31907
 H1152 H 0.22021 0.80542 0.28440
 Zr1153 Zr 0.20661 0.76259 0.71580
 O1154 O 0.21621 0.78808 0.69126
 O1155 O 0.17261 0.75253 0.70520
 O1156 O 0.20931 0.74663 0.68368
 O1157 O 0.18957 0.80399 0.75599
 O1158 O 0.23338 0.71421 0.68942
 O1159 O 0.18635 0.79457 0.71889
 O1160 O 0.16232 0.72236 0.72905
 O1161 O 0.20640 0.72572 0.72185
 O1162 O 0.18919 0.75755 0.74640
 O1163 O 0.24262 0.75188 0.71579
 O1164 O 0.22598 0.78295 0.73932
 Zr1165 Zr 0.24506 0.72896 0.77781
 Zr1166 Zr 0.24222 0.71537 0.72358
 Zr1167 Zr 0.20937 0.77596 0.77011
 Zr1168 Zr 0.19012 0.72109 0.75289
 O1169 O 0.22359 0.80926 0.78029
 O1170 O 0.18449 0.68594 0.74072
 O1171 O 0.20882 0.73947 0.77810
 O1172 O 0.22545 0.70899 0.75431
 O1173 O 0.26262 0.73383 0.74721
 O1174 O 0.24511 0.76573 0.77157
 C1175 C 0.15879 0.73578 0.71192
 C1176 C 0.18221 0.80806 0.73601
 C1177 C 0.22045 0.72774 0.67699
 O1178 O 0.22917 0.68090 0.71574
 O1179 O 0.26508 0.68926 0.73720
 O1180 O 0.26676 0.69809 0.77449
 C1181 C 0.27229 0.68531 0.75728
 O1182 O 0.26250 0.79688 0.71512
 Zr1183 Zr 0.26130 0.77043 0.74059
 O1184 O 0.27981 0.73822 0.78746
 O1185 O 0.27414 0.71510 0.70468
 O1186 O 0.29064 0.76196 0.71959
 O1187 O 0.26967 0.80403 0.75502
 O1188 O 0.29138 0.76535 0.76106
 C1189 C 0.29509 0.75223 0.77831
 O1190 O 0.23623 0.70250 0.80172
 O1191 O 0.17614 0.77748 0.78689
 O1192 O 0.24039 0.74343 0.81032
 O1193 O 0.21474 0.77466 0.80486
 O1194 O 0.15858 0.73010 0.77063
 O1195 O 0.18659 0.69840 0.78119
 C1196 C 0.22754 0.76106 0.81732
 H1197 H 0.17251 0.76339 0.74623
 H1198 H 0.22554 0.69179 0.75816
 H1199 H 0.25367 0.77494 0.78321
 H1200 H 0.25010 0.75486 0.70105
 H1201 H 0.16738 0.68211 0.74290
 H1202 H 0.24077 0.67354 0.70527
 H1203 H 0.27502 0.69931 0.69719
 H1204 H 0.30361 0.77341 0.72305
 H1205 H 0.14627 0.71816 0.76657
 H1206 H 0.17532 0.79326 0.79441
 H1207 H 0.21181 0.81657 0.79060
 H1208 H 0.28674 0.80724 0.75193
 H1209 H 0.17157 0.68919 0.77999
 H1210 H 0.25003 0.70099 0.81204
 H1211 H 0.20240 0.78974 0.68099
 H1212 H 0.27870 0.80390 0.71448
 Zr1213 Zr 0.29302 0.23855 0.21600
 O1214 O 0.28331 0.21305 0.19146
 O1215 O 0.32696 0.24861 0.20526
 O1216 O 0.29008 0.25449 0.18391
 O1217 O 0.31027 0.19716 0.25605
 O1218 O 0.26604 0.28691 0.18983
 O1219 O 0.31331 0.20657 0.21895
 O1220 O 0.33743 0.27871 0.22918
 O1221 O 0.29327 0.27542 0.22211
 O1222 O 0.31059 0.24358 0.24653
 O1223 O 0.25701 0.24926 0.21618
 O1224 O 0.27377 0.21819 0.23956
 Zr1225 Zr 0.25490 0.27218 0.27827
 Zr1226 Zr 0.25745 0.28577 0.22404
 Zr1227 Zr 0.29054 0.22518 0.27030
 Zr1228 Zr 0.30971 0.28004 0.25310
 O1229 O 0.27636 0.19189 0.28046
 O1230 O 0.31528 0.31517 0.24091
 O1231 O 0.29114 0.26167 0.27836
 O1232 O 0.27439 0.29215 0.25471
 O1233 O 0.23718 0.26731 0.24773
 O1234 O 0.25480 0.23541 0.27195
 C1235 C 0.34087 0.26530 0.21199
 C1236 C 0.31754 0.19309 0.23604
 C1237 C 0.27887 0.27337 0.17730
 O1238 O 0.27049 0.32022 0.21618
 O1239 O 0.23470 0.31190 0.23783
 O1240 O 0.23322 0.30307 0.27511
 C1241 C 0.22761 0.31586 0.25795
 O1242 O 0.23712 0.20424 0.21553
 Zr1243 Zr 0.23845 0.23071 0.24103
 O1244 O 0.22016 0.26297 0.28803
 O1245 O 0.22540 0.28606 0.20532
 O1246 O 0.20901 0.23916 0.22016
 O1247 O 0.23016 0.19713 0.25546
 O1248 O 0.20848 0.23584 0.26162
 C1249 C 0.20483 0.24898 0.27889
 O1250 O 0.26388 0.29861 0.30220
 O1251 O 0.32386 0.22365 0.28694
 O1252 O 0.25973 0.25769 0.31072
 O1253 O 0.28537 0.22648 0.30507
 O1254 O 0.34131 0.27103 0.27074
 O1255 O 0.31340 0.30278 0.28139
 C1256 C 0.27264 0.24007 0.31762
 H1257 H 0.32727 0.23774 0.24628
 H1258 H 0.27432 0.30934 0.25860
 H1259 H 0.24630 0.22620 0.28361
 H1260 H 0.24943 0.24627 0.20148
 H1261 H 0.33240 0.31900 0.24301
 H1262 H 0.25882 0.32759 0.20579
 H1263 H 0.22448 0.30185 0.19788
 H1264 H 0.19606 0.22772 0.22366
 H1265 H 0.35361 0.28296 0.26664
 H1266 H 0.32471 0.20788 0.29441
 H1267 H 0.28820 0.18457 0.29072
 H1268 H 0.21306 0.19393 0.25246
 H1269 H 0.32841 0.31200 0.28011
 H1270 H 0.25013 0.30014 0.31258
 H1271 H 0.29707 0.21139 0.18112
 H1272 H 0.22092 0.19721 0.21498
 Zr1273 Zr 0.70887 0.73603 0.28465
 O1274 O 0.71913 0.71047 0.30891
 O1275 O 0.67499 0.74582 0.29583
 O1276 O 0.71199 0.75187 0.31679
 O1277 O 0.69137 0.69483 0.24450
 O1278 O 0.73575 0.78441 0.31083
 O1279 O 0.68876 0.70399 0.28170
 O1280 O 0.66404 0.77608 0.27230
 O1281 O 0.70831 0.77295 0.27880
 O1282 O 0.69088 0.74119 0.25435
 O1283 O 0.74480 0.74690 0.28416
 O1284 O 0.72794 0.71589 0.26073
 Zr1285 Zr 0.74598 0.77018 0.22222
 Zr1286 Zr 0.74402 0.78345 0.27655
 Zr1287 Zr 0.71074 0.72301 0.23024
 Zr1288 Zr 0.69143 0.77769 0.24805
 O1289 O 0.72499 0.68983 0.21966
 O1290 O 0.68580 0.81271 0.26057
 O1291 O 0.70980 0.75954 0.22246
 O1292 O 0.72666 0.78994 0.24612
 O1293 O 0.76411 0.76520 0.25252
 O1294 O 0.74639 0.73338 0.22828
 C1295 C 0.66090 0.76252 0.28941
 C1296 C 0.68438 0.69061 0.26456
 C1297 C 0.72311 0.77079 0.32339
 O1298 O 0.73092 0.81785 0.28475
 O1299 O 0.76649 0.80972 0.26271
 O1300 O 0.76754 0.80111 0.22535
 C1301 C 0.77331 0.81381 0.24254
 O1302 O 0.76497 0.70196 0.28429
 Zr1303 Zr 0.76315 0.72856 0.25898
 O1304 O 0.78064 0.76111 0.21199
 O1305 O 0.77627 0.78372 0.29497
 O1306 O 0.79281 0.73700 0.27957
 O1307 O 0.77147 0.69507 0.24425
 O1308 O 0.79281 0.73386 0.23808
 C1309 C 0.79616 0.74710 0.22085
 O1310 O 0.73655 0.79674 0.19859
 O1311 O 0.67723 0.72146 0.21396
 O1312 O 0.74082 0.75588 0.18971
 O1313 O 0.71546 0.72454 0.19542
 O1314 O 0.65966 0.76868 0.23071
 O1315 O 0.68721 0.80059 0.21998
 C1316 C 0.72794 0.73826 0.18283
 H1317 H 0.67424 0.73528 0.25474
 H1318 H 0.72657 0.80716 0.24235
 H1319 H 0.75479 0.72426 0.21646
 H1320 H 0.75257 0.74387 0.29877
 H1321 H 0.66862 0.81648 0.25872
 H1322 H 0.74266 0.82518 0.29508
 H1323 H 0.77718 0.79947 0.30252
 H1324 H 0.80579 0.72563 0.27585
 H1325 H 0.64733 0.78052 0.23506
 H1326 H 0.67637 0.70573 0.20637
 H1327 H 0.71308 0.68253 0.20949
 H1328 H 0.78862 0.69191 0.24706
 H1329 H 0.67217 0.80975 0.22151
 H1330 H 0.75015 0.79837 0.18807
 H1331 H 0.70551 0.70867 0.31938
 H1332 H 0.78122 0.69500 0.28464
 Zr1333 Zr 0.79352 0.26196 0.78476
 O1334 O 0.78417 0.28742 0.80948
 O1335 O 0.82746 0.25148 0.79525
 O1336 O 0.79068 0.24590 0.81680
 O1337 O 0.81074 0.30339 0.74481
 O1338 O 0.76638 0.21374 0.81088
 O1339 O 0.81398 0.29377 0.78185
 O1340 O 0.83753 0.22138 0.77116
 O1341 O 0.79347 0.22511 0.77848
 O1342 O 0.81084 0.25692 0.75410
 O1343 O 0.75744 0.25158 0.78476
 O1344 O 0.77424 0.28262 0.76141
 Zr1345 Zr 0.75473 0.22903 0.72259
 Zr1346 Zr 0.75758 0.21511 0.77673
 Zr1347 Zr 0.79074 0.27564 0.73055
 Zr1348 Zr 0.80967 0.22051 0.74737
 O1349 O 0.77674 0.30913 0.72062
 O1350 O 0.81508 0.18524 0.75930
 O1351 O 0.79104 0.23919 0.72231
 O1352 O 0.77425 0.20875 0.74592
 O1353 O 0.73726 0.23390 0.75325
 O1354 O 0.75493 0.26576 0.72909
 C1355 C 0.84118 0.23466 0.78839
 C1356 C 0.81817 0.30731 0.76480
 C1357 C 0.77938 0.22711 0.82339
 O1358 O 0.77046 0.18051 0.78436
 O1359 O 0.73457 0.18925 0.76294
 O1360 O 0.73288 0.19832 0.72572
 C1361 C 0.72732 0.18547 0.74284
 O1362 O 0.73787 0.29677 0.78577
 Zr1363 Zr 0.73883 0.27045 0.76012
 O1364 O 0.72000 0.23865 0.71309
 O1365 O 0.72565 0.21501 0.79562
 O1366 O 0.70948 0.26215 0.78112
 O1367 O 0.73066 0.30420 0.74593
 O1368 O 0.70868 0.26577 0.73967
 C1369 C 0.70484 0.25276 0.72236
 O1370 O 0.76336 0.20266 0.69847
 O1371 O 0.82394 0.27692 0.71371
 O1372 O 0.75936 0.24368 0.69018
 O1373 O 0.78526 0.27461 0.69580
 O1374 O 0.84122 0.22933 0.72963
 O1375 O 0.81299 0.19792 0.71892
 C1376 C 0.77231 0.26123 0.68328
 H1377 H 0.82756 0.26260 0.75429
 H1378 H 0.77405 0.19157 0.74196
 H1379 H 0.74640 0.27513 0.71753
 H1380 H 0.74999 0.25457 0.79952
 H1381 H 0.83216 0.18125 0.75707
 H1382 H 0.75881 0.17319 0.79478
 H1383 H 0.72468 0.19919 0.80300
 H1384 H 0.69658 0.27374 0.77776
 H1385 H 0.85346 0.21724 0.73358
 H1386 H 0.82486 0.29272 0.70630
 H1387 H 0.78856 0.31639 0.71033
 H1388 H 0.71362 0.30756 0.74908
 H1389 H 0.82796 0.18858 0.72003
 H1390 H 0.74953 0.20132 0.68817
 H1391 H 0.79802 0.28889 0.81974
 H1392 H 0.72172 0.30394 0.78649
 C1393 C 0.43580 1.03169 0.31077
 C1394 C 0.44625 1.03044 0.32841
 C1395 C 0.45817 1.02840 0.34920
 C1396 C 0.46770 1.02657 0.36723
 C1397 C 0.47769 1.02470 0.38891
 C1398 C 0.48472 1.02371 0.40798
 C1399 C -0.06475 0.53043 0.81131
 C1400 C -0.05467 0.52918 0.82914
 C1401 C -0.04317 0.52717 0.85013
 C1402 C -0.03399 0.52537 0.86832
 C1403 C -0.02438 0.52355 0.89014
 C1404 C -0.01762 0.52263 0.90930
 C1405 C 0.06461 -0.03006 0.81239
 C1406 C 0.05468 -0.02868 0.83027
 C1407 C 0.04333 -0.02659 0.85134
 C1408 C 0.03426 -0.02476 0.86958
 C1409 C 0.02473 -0.02293 0.89144
 C1410 C 0.01798 -0.02201 0.91061
 C1411 C 0.56455 0.46788 0.31193
 C1412 C 0.55408 0.46929 0.32954
 C1413 C 0.54214 0.47147 0.35031
 C1414 C 0.53261 0.47341 0.36833
 C1415 C 0.52262 0.47540 0.39000
 C1416 C 0.51559 0.47648 0.40906
 C1417 C 0.56576 0.52979 0.18814
 C1418 C 0.55546 0.52857 0.17042
 C1419 C 0.54368 0.52662 0.14956
 C1420 C 0.53424 0.52489 0.13147
 C1421 C 0.52431 0.52314 0.10977
 C1422 C 0.51727 0.52227 0.09069
 C1423 C 0.06477 1.03125 0.68862
 C1424 C 0.05474 1.02999 0.67077
 C1425 C 0.04329 1.02799 0.64974
 C1426 C 0.03415 1.02619 0.63152
 C1427 C 0.02456 1.02432 0.60969
 C1428 C 0.01779 1.02328 0.59053
 C1429 C -0.06446 0.46845 0.68790
 C1430 C -0.05451 0.46980 0.67003
 C1431 C -0.04316 0.47194 0.64899
 C1432 C -0.03411 0.47387 0.63075
 C1433 C -0.02466 0.47590 0.60889
 C1434 C -0.01804 0.47704 0.58970
 C1435 C 0.43494 -0.03058 0.18800
 C1436 C 0.44513 -0.02934 0.17023
 C1437 C 0.45678 -0.02734 0.14932
 C1438 C 0.46610 -0.02553 0.13119
 C1439 C 0.47590 -0.02368 0.10944
 C1440 C 0.48283 -0.02272 0.09034
 C1441 C 0.31916 0.39820 0.01790
 C1442 C 0.33682 0.41054 0.01633
 C1443 C 0.35784 0.42463 0.01508
 C1444 C 0.37584 0.43652 0.01412
 C1445 C 0.39691 0.45053 0.01275
 C1446 C 0.41465 0.46270 0.01098
 C1447 C -0.17976 0.89851 0.51746
 C1448 C -0.16222 0.91103 0.51596
 C1449 C -0.14130 0.92528 0.51476
 C1450 C -0.12334 0.93724 0.51384
 C1451 C -0.10229 0.95127 0.51249
 C1452 C -0.08451 0.96339 0.51072
 C1453 C -0.17998 0.10181 0.98403
 C1454 C -0.16228 0.08950 0.98560
 C1455 C -0.14121 0.07544 0.98686
 C1456 C -0.12316 0.06357 0.98781
 C1457 C -0.10204 0.04959 0.98914
 C1458 C -0.08425 0.03744 0.99087
 C1459 C 0.31789 0.60200 0.48192
 C1460 C 0.33548 0.58952 0.48337
 C1461 C 0.35645 0.57527 0.48454
 C1462 C 0.37442 0.56328 0.48546
 C1463 C 0.39547 0.54919 0.48683
 C1464 C 0.41321 0.53697 0.48862
 C1465 C 0.17893 0.60201 0.51641
 C1466 C 0.16131 0.58961 0.51486
 C1467 C 0.14032 0.57546 0.51361
 C1468 C 0.12233 0.56354 0.51265
 C1469 C 0.10125 0.54954 0.51128
 C1470 C 0.08347 0.53742 0.50952
 C1471 C 0.68042 0.10196 0.01767
 C1472 C 0.66273 0.08969 0.01606
 C1473 C 0.64168 0.07565 0.01478
 C1474 C 0.62366 0.06378 0.01380
 C1475 C 0.60259 0.04979 0.01241
 C1476 C 0.58485 0.03761 0.01062
 C1477 C 0.68276 0.89900 0.48184
 C1478 C 0.66513 0.91145 0.48313
 C1479 C 0.64411 0.92563 0.48412
 C1480 C 0.62609 0.93757 0.48489
 C1481 C 0.60498 0.95159 0.48609
 C1482 C 0.58719 0.96376 0.48778
 C1483 C 0.17989 0.39842 0.98378
 C1484 C 0.16223 0.41082 0.98523
 C1485 C 0.14119 0.42496 0.98632
 C1486 C 0.12316 0.43688 0.98712
 C1487 C 0.10205 0.45091 0.98830
 C1488 C 0.08426 0.46310 0.98992
 C1489 C 0.02534 0.31135 0.36855
 C1490 C 0.02424 0.32582 0.38331
 C1491 C 0.02270 0.34226 0.40092
 C1492 C 0.02096 0.35650 0.41582
 C1493 C 0.01831 0.37386 0.43252
 C1494 C 0.01543 0.38973 0.44572
 C1495 C 0.52901 -0.19056 -0.12863
 C1496 C 0.52851 -0.17610 -0.11383
 C1497 C 0.52730 -0.15955 -0.09629
 C1498 C 0.52558 -0.14514 -0.08154
 C1499 C 0.52269 -0.12755 -0.06510
 C1500 C 0.51948 -0.11149 -0.05217
 C1501 C -0.02742 -0.19027 1.12928
 C1502 C -0.02654 -0.17597 1.11440
 C1503 C -0.02512 -0.15961 1.09675
 C1504 C -0.02338 -0.14534 1.08192
 C1505 C -0.02061 -0.12785 1.06542
 C1506 C -0.01756 -0.11179 1.05250
 C1507 C 0.47101 0.31004 0.62890
 C1508 C 0.47154 0.32435 0.61401
 C1509 C 0.47267 0.34074 0.59636
 C1510 C 0.47424 0.35502 0.58152
 C1511 C 0.47691 0.37249 0.56497
 C1512 C 0.47990 0.38847 0.55196
 C1513 C 0.52908 1.19054 0.62808
 C1514 C 0.52853 1.17634 0.61306
 C1515 C 0.52739 1.16005 0.59531
 C1516 C 0.52581 1.14581 0.58040
 C1517 C 0.52316 1.12835 0.56382
 C1518 C 0.52018 1.11233 0.55080
 C1519 C 0.02773 0.68981 1.12938
 C1520 C 0.02681 0.67563 1.11436
 C1521 C 0.02529 0.65945 1.09654
 C1522 C 0.02343 0.64534 1.08156
 C1523 C 0.02052 0.62803 1.06486
 C1524 C 0.01738 0.61211 1.05178
 C1525 C 0.47098 0.69089 -0.12747
 C1526 C 0.47163 0.67663 -0.11253
 C1527 C 0.47291 0.66022 -0.09491
 C1528 C 0.47461 0.64584 -0.08016
 C1529 C 0.47740 0.62819 -0.06379
 C1530 C 0.48051 0.61203 -0.05099
 C1531 C -0.02598 1.18904 0.36975
 C1532 C -0.02466 1.17475 0.38462
 C1533 C -0.02298 1.15842 0.40228
 C1534 C -0.02123 1.14420 0.41716
 C1535 C -0.01865 1.12679 0.43379
 C1536 C -0.01588 1.11085 0.44690
 C1537 C 0.77884 0.68459 0.93777
 C1538 C 0.77751 0.69466 0.91996
 C1539 C 0.77543 0.70618 0.89898
 C1540 C 0.77361 0.71541 0.88081
 C1541 C 0.77181 0.72511 0.85903
 C1542 C 0.77095 0.73199 0.83991
 C1543 C 0.28169 0.18609 0.43849
 C1544 C 0.28023 0.19637 0.42078
 C1545 C 0.27796 0.20810 0.39993
 C1546 C 0.27594 0.21747 0.38184
 C1547 C 0.27387 0.22728 0.36012
 C1548 C 0.27275 0.23419 0.34102
 C1549 C 0.71689 0.31333 0.43891
 C1550 C 0.71841 0.30274 0.42135
 C1551 C 0.72082 0.29067 0.40065
 C1552 C 0.72299 0.28106 0.38267
 C1553 C 0.72527 0.27103 0.36104
 C1554 C 0.72656 0.26402 0.34197
 C1555 C 0.21966 0.81429 0.93871
 C1556 C 0.22091 0.80420 0.92088
 C1557 C 0.22293 0.79266 0.89988
 C1558 C 0.22475 0.78343 0.88169
 C1559 C 0.22662 0.77375 0.85988
 C1560 C 0.22758 0.76690 0.84074
 C1561 C 0.28169 0.81445 0.06097
 C1562 C 0.28044 0.80447 0.07884
 C1563 C 0.27841 0.79308 0.09987
 C1564 C 0.27655 0.78399 0.11810
 C1565 C 0.27461 0.77448 0.13994
 C1566 C 0.27352 0.76778 0.15911
 C1567 C 0.77929 0.31555 0.56240
 C1568 C 0.77818 0.30531 0.58015
 C1569 C 0.77633 0.29359 0.60103
 C1570 C 0.77467 0.28419 0.61914
 C1571 C 0.77298 0.27430 0.64085
 C1572 C 0.77215 0.26728 0.65992
 C1573 C 0.22032 0.18531 0.56181
 C1574 C 0.22157 0.19544 0.57962
 C1575 C 0.22355 0.20703 0.60059
 C1576 C 0.22531 0.21630 0.61876
 C1577 C 0.22708 0.22605 0.64054
 C1578 C 0.22795 0.23296 0.65966
 C1579 C 0.71791 0.68547 0.06147
 C1580 C 0.71947 0.69556 0.07928
 C1581 C 0.72186 0.70706 0.10024
 C1582 C 0.72401 0.71624 0.11842
 C1583 C 0.72626 0.72583 0.14023
 C1584 C 0.72757 0.73257 0.15938
 C1585 C 0.14832 0.57066 0.23231
 C1586 C 0.16087 0.58819 0.23377
 C1587 C 0.17517 0.60908 0.23495
 C1588 C 0.18718 0.62702 0.23587
 C1589 C 0.20126 0.64805 0.23723
 C1590 C 0.21343 0.66581 0.23900
 C1591 C 0.64746 0.06958 0.73219
 C1592 C 0.65983 0.08721 0.73385
 C1593 C 0.67398 0.10819 0.73520
 C1594 C 0.68593 0.12616 0.73624
 C1595 C 0.70002 0.14718 0.73768
 C1596 C 0.71226 0.16488 0.73951
 C1597 C 0.85241 0.06640 0.26802
 C1598 C 0.83978 0.08392 0.26669
 C1599 C 0.82542 0.10484 0.26570
 C1600 C 0.81337 0.12279 0.26494
 C1601 C 0.79925 0.14385 0.26377
 C1602 C 0.78704 0.16163 0.26210
 C1603 C 0.35234 0.56920 0.76685
 C1604 C 0.33987 0.58681 0.76534
 C1605 C 0.32563 0.60780 0.76419
 C1606 C 0.31364 0.62578 0.76335
 C1607 C 0.29954 0.64685 0.76212
 C1608 C 0.28731 0.66461 0.76046
 C1609 C 0.35197 0.43087 0.73262
 C1610 C 0.33968 0.41318 0.73424
 C1611 C 0.32562 0.39213 0.73555
 C1612 C 0.31374 0.37411 0.73655
 C1613 C 0.29975 0.35302 0.73795
 C1614 C 0.28757 0.33527 0.73972
 C1615 C 0.85291 0.92996 0.23230
 C1616 C 0.84044 0.91238 0.23383
 C1617 C 0.82624 0.89141 0.23507
 C1618 C 0.81430 0.87343 0.23604
 C1619 C 0.80029 0.85235 0.23743
 C1620 C 0.78816 0.83456 0.23922
 C1621 C 0.64713 0.93008 0.76589
 C1622 C 0.65947 0.91238 0.76442
 C1623 C 0.67357 0.89130 0.76331
 C1624 C 0.68547 0.87326 0.76248
 C1625 C 0.69951 0.85215 0.76126
 C1626 C 0.71173 0.83438 0.75962
 C1627 C 0.14778 0.43208 0.26746
 C1628 C 0.16026 0.41447 0.26612
 C1629 C 0.17448 0.39347 0.26506
 C1630 C 0.18644 0.37546 0.26423
 C1631 C 0.20048 0.35437 0.26296
 C1632 C 0.21266 0.33658 0.26124
 C1633 C 0.05933 0.27890 0.87791
 C1634 C 0.07360 0.27830 0.86299
 C1635 C 0.09001 0.27708 0.84536
 C1636 C 0.10438 0.27542 0.83060
 C1637 C 0.12201 0.27265 0.81421
 C1638 C 0.13815 0.26954 0.80139
 C1639 C 0.56226 0.77622 0.38023
 C1640 C 0.57666 0.77516 0.36544
 C1641 C 0.59307 0.77369 0.34782
 C1642 C 0.60731 0.77202 0.33295
 C1643 C 0.62470 0.76945 0.31630
 C1644 C 0.64061 0.76662 0.30316
 C1645 C 0.56056 0.22108 0.12164
 C1646 C 0.57496 0.22163 0.13646
 C1647 C 0.59143 0.22273 0.15405
 C1648 C 0.60575 0.22424 0.16886
 C1649 C 0.62324 0.22677 0.18542
 C1650 C 0.63921 0.22961 0.19848
 C1651 C 0.05968 0.72182 0.62179
 C1652 C 0.07406 0.72252 0.63662
 C1653 C 0.09049 0.72383 0.65422
 C1654 C 0.10480 0.72554 0.66902
 C1655 C 0.12231 0.72833 0.68551
 C1656 C 0.13834 0.73140 0.69845
 C1657 C 0.94043 0.77853 0.62240
 C1658 C 0.92617 0.77776 0.63733
 C1659 C 0.90979 0.77637 0.65496
 C1660 C 0.89546 0.77459 0.66973
 C1661 C 0.87785 0.77171 0.68611
 C1662 C 0.86169 0.76854 0.69888
 C1663 C 0.44039 0.27877 0.12219
 C1664 C 0.42599 0.27813 0.13700
 C1665 C 0.40947 0.27690 0.15453
 C1666 C 0.39506 0.27527 0.16926
 C1667 C 0.37743 0.27258 0.18565
 C1668 C 0.36133 0.26960 0.19854
 C1669 C 0.43942 0.72395 0.37972
 C1670 C 0.42504 0.72511 0.36491
 C1671 C 0.40863 0.72673 0.34731
 C1672 C 0.39437 0.72851 0.33246
 C1673 C 0.37694 0.73118 0.31586
 C1674 C 0.36101 0.73405 0.30276
 C1675 C 0.94027 0.22057 0.87845
 C1676 C 0.92599 0.22107 0.86353
 C1677 C 0.90960 0.22225 0.84588
 C1678 C 0.89527 0.22395 0.83109
 C1679 C 0.87772 0.22682 0.81464
 C1680 C 0.86165 0.23004 0.80176
 C1681 C 0.58652 1.02896 0.68916
 C1682 C 0.57411 1.02945 0.67260
 C1683 C 0.56052 1.03040 0.65262
 C1684 C 0.54990 1.03118 0.63503
 C1685 C 0.53885 1.03170 0.61370
 C1686 C 0.53095 1.03141 0.59488
 C1687 C 0.08490 0.53084 1.18969
 C1688 C 0.07218 0.53133 1.17335
 C1689 C 0.05823 0.53212 1.15359
 C1690 C 0.04734 0.53266 1.13614
 C1691 C 0.03602 0.53281 1.11494
 C1692 C 0.02796 0.53218 1.09619
 C1693 C -0.08587 -0.03063 1.19067
 C1694 C -0.07312 -0.03097 1.17434
 C1695 C -0.05912 -0.03167 1.15459
 C1696 C -0.04817 -0.03218 1.13717
 C1697 C -0.03675 -0.03232 1.11600
 C1698 C -0.02859 -0.03170 1.09729
 C1699 C 0.41294 0.47171 0.68988
 C1700 C 0.42544 0.47127 0.67338
 C1701 C 0.43916 0.47037 0.65347
 C1702 C 0.44988 0.46962 0.63593
 C1703 C 0.46107 0.46914 0.61466
 C1704 C 0.46907 0.46943 0.59588
 C1705 C 0.41380 0.52953 -0.18992
 C1706 C 0.42627 0.52997 -0.17341
 C1707 C 0.43994 0.53083 -0.15347
 C1708 C 0.45064 0.53150 -0.13591
 C1709 C 0.46180 0.53185 -0.11463
 C1710 C 0.46981 0.53141 -0.09585
 C1711 C -0.08472 1.02742 0.31001
 C1712 C -0.07194 1.02796 0.32631
 C1713 C -0.05794 1.02892 0.34605
 C1714 C -0.04702 1.02968 0.36348
 C1715 C -0.03569 1.03014 0.38468
 C1716 C -0.02763 1.02983 0.40345
 C1717 C 0.08399 0.47226 0.30938
 C1718 C 0.07109 0.47177 0.32559
 C1719 C 0.05695 0.47091 0.34523
 C1720 C 0.04593 0.47027 0.36260
 C1721 C 0.03452 0.46995 0.38375
 C1722 C 0.02644 0.47039 0.40250
 C1723 C 0.58519 -0.02882 -0.19061
 C1724 C 0.57276 -0.02923 -0.17408
 C1725 C 0.55913 -0.03008 -0.15412
 C1726 C 0.54849 -0.03076 -0.13654
 C1727 C 0.53740 -0.03116 -0.11523
 C1728 C 0.52946 -0.03078 -0.09643
 C1729 C 0.67490 0.64085 0.00394
 C1730 C 0.65693 0.63080 -0.00217
 C1731 C 0.63585 0.61851 -0.00852
 C1732 C 0.61782 0.60758 -0.01282
 C1733 C 0.59659 0.59424 -0.01608
 C1734 C 0.57852 0.58246 -0.01672
 C1735 C 0.17703 1.13964 0.50361
 C1736 C 0.15920 1.12940 0.49744
 C1737 C 0.13826 1.11693 0.49104
 C1738 C 0.12029 1.10591 0.48670
 C1739 C 0.09909 1.09253 0.48342
 C1740 C 0.08099 1.08081 0.48277
 C1741 C 0.17617 -0.14108 0.99599
 C1742 C 0.15830 -0.13095 1.00228
 C1743 C 0.13733 -0.11856 1.00886
 C1744 C 0.11936 -0.10755 1.01336
 C1745 C 0.09820 -0.09412 1.01685
 C1746 C 0.08015 -0.08227 1.01766
 C1747 C 0.67412 0.35918 0.49587
 C1748 C 0.65615 0.36926 0.50200
 C1749 C 0.63507 0.38158 0.50840
 C1750 C 0.61702 0.39253 0.51276
 C1751 C 0.59577 0.40587 0.51608
 C1752 C 0.57766 0.41764 0.51675
 C1753 C -0.17791 0.36110 0.50389
 C1754 C -0.16008 0.37120 0.49755
 C1755 C -0.13912 0.38352 0.49095
 C1756 C -0.12113 0.39442 0.48644
 C1757 C -0.09989 0.40768 0.48298
 C1758 C -0.08176 0.41935 0.48221
 C1759 C 0.32521 -0.14122 0.00372
 C1760 C 0.34311 -0.13113 -0.00249
 C1761 C 0.36411 -0.11880 -0.00892
 C1762 C 0.38210 -0.10783 -0.01327
 C1763 C 0.40328 -0.09444 -0.01657
 C1764 C 0.42131 -0.08261 -0.01722
 C1765 C 0.32594 1.14119 0.49499
 C1766 C 0.34394 1.13115 0.50107
 C1767 C 0.36505 1.11886 0.50739
 C1768 C 0.38312 1.10795 0.51168
 C1769 C 0.40440 1.09463 0.51493
 C1770 C 0.42252 1.08289 0.51556
 C1771 C -0.17713 0.64039 0.99489
 C1772 C -0.15913 0.63044 1.00111
 C1773 C -0.13802 0.61826 1.00760
 C1774 C -0.11993 0.60744 1.01204
 C1775 C -0.09863 0.59422 1.01546
 C1776 C -0.08048 0.58253 1.01625
 C1777 C 0.00893 0.67577 0.57191
 C1778 C 0.00421 0.65612 0.56531
 C1779 C 0.00003 0.63269 0.55818
 C1780 C -0.00236 0.61242 0.55215
 C1781 C -0.00383 0.58874 0.54475
 C1782 C -0.00419 0.56871 0.53772
 C1783 C 0.50953 0.17546 0.07160
 C1784 C 0.50468 0.15587 0.06494
 C1785 C 0.50038 0.13247 0.05775
 C1786 C 0.49796 0.11222 0.05171
 C1787 C 0.49654 0.08851 0.04438
 C1788 C 0.49635 0.06842 0.03748
 C1789 C -0.00934 0.17569 0.92967
 C1790 C -0.00454 0.15618 0.93657
 C1791 C -0.00026 0.13285 0.94394
 C1792 C 0.00217 0.11262 0.95006
 C1793 C 0.00365 0.08893 0.95738
 C1794 C 0.00394 0.06882 0.96421
 C1795 C 0.48915 0.67555 0.42858
 C1796 C 0.49353 0.65570 0.43486
 C1797 C 0.49742 0.63211 0.44167
 C1798 C 0.49964 0.61175 0.44747
 C1799 C 0.50099 0.58800 0.45465
 C1800 C 0.50124 0.56791 0.46152
 C1801 C 0.51196 0.82454 0.42865
 C1802 C 0.50743 0.84443 0.43476
 C1803 C 0.50338 0.86808 0.44134
 C1804 C 0.50105 0.88850 0.44696
 C1805 C 0.49959 0.91233 0.45394
 C1806 C 0.49925 0.93248 0.46068
 C1807 C 0.00916 0.32455 0.92876
 C1808 C 0.00443 0.34416 0.93547
 C1809 C 0.00025 0.36760 0.94265
 C1810 C -0.00211 0.38789 0.94863
 C1811 C -0.00353 0.41163 0.95587
 C1812 C -0.00380 0.43176 0.96267
 C1813 C 0.49079 0.32452 0.07177
 C1814 C 0.49546 0.34410 0.06501
 C1815 C 0.49955 0.36749 0.05773
 C1816 C 0.50183 0.38773 0.05164
 C1817 C 0.50311 0.41142 0.04429
 C1818 C 0.50323 0.43151 0.03741
 C1819 C -0.01074 0.82484 0.57280
 C1820 C -0.00604 0.84447 0.56620
 C1821 C -0.00178 0.86787 0.55905
 C1822 C 0.00074 0.88810 0.55299
 C1823 C 0.00241 0.91173 0.54557
 C1824 C 0.00293 0.93175 0.53853
 C1825 C 0.27849 0.33690 0.06039
 C1826 C 0.27894 0.32434 0.07683
 C1827 C 0.27983 0.31056 0.09670
 C1828 C 0.28054 0.29979 0.11421
 C1829 C 0.28096 0.28857 0.13546
 C1830 C 0.28060 0.28055 0.15423
 C1831 C 0.78102 0.83631 0.56004
 C1832 C 0.78141 0.82362 0.57640
 C1833 C 0.78211 0.80969 0.59617
 C1834 C 0.78258 0.79878 0.61361
 C1835 C 0.78264 0.78740 0.63479
 C1836 C 0.78193 0.77925 0.65349
 C1837 C 0.21952 0.66432 0.55990
 C1838 C 0.21916 0.67682 0.57640
 C1839 C 0.21848 0.69055 0.59633
 C1840 C 0.21799 0.70129 0.61388
 C1841 C 0.21787 0.71250 0.63516
 C1842 C 0.21848 0.72052 0.65393
 C1843 C 0.72156 0.16265 0.06065
 C1844 C 0.72127 0.17508 0.07720
 C1845 C 0.72056 0.18871 0.09718
 C1846 C 0.71998 0.19936 0.11478
 C1847 C 0.71967 0.21044 0.13610
 C1848 C 0.72007 0.21835 0.15492
 C1849 C 0.77911 0.16373 0.94037
 C1850 C 0.77958 0.17621 0.92388
 C1851 C 0.78048 0.18992 0.90398
 C1852 C 0.78119 0.20064 0.88645
 C1853 C 0.78159 0.21183 0.86519
 C1854 C 0.78118 0.21985 0.84643
 C1855 C 0.27771 0.66538 0.43947
 C1856 C 0.27829 0.67819 0.42320
 C1857 C 0.27928 0.69225 0.40351
 C1858 C 0.28005 0.70322 0.38611
 C1859 C 0.28052 0.71460 0.36494
 C1860 C 0.28019 0.72269 0.34619
 C1861 C 0.72325 0.83548 0.43974
 C1862 C 0.72282 0.82263 0.42348
 C1863 C 0.72199 0.80853 0.40378
 C1864 C 0.72135 0.79754 0.38638
 C1865 C 0.72100 0.78611 0.36521
 C1866 C 0.72141 0.77799 0.34647
 C1867 C 0.22060 0.33606 0.94041
 C1868 C 0.22013 0.32355 0.92391
 C1869 C 0.21924 0.30984 0.90398
 C1870 C 0.21855 0.29912 0.88642
 C1871 C 0.21818 0.28795 0.86513
 C1872 C 0.21862 0.27994 0.84635
 C1873 C 0.89082 0.42476 0.74638
 C1874 C 0.88082 0.40682 0.75261
 C1875 C 0.86857 0.38576 0.75907
 C1876 C 0.85767 0.36772 0.76344
 C1877 C 0.84435 0.34649 0.76675
 C1878 C 0.83256 0.32843 0.76740
 C1879 C 0.38981 0.92741 0.24573
 C1880 C 0.37962 0.90955 0.25194
 C1881 C 0.36722 0.88858 0.25838
 C1882 C 0.35624 0.87059 0.26277
 C1883 C 0.34291 0.84936 0.26610
 C1884 C 0.33120 0.83123 0.26679
 C1885 C 0.10953 0.92593 0.75410
 C1886 C 0.11962 0.90795 0.74799
 C1887 C 0.13194 0.88683 0.74167
 C1888 C 0.14287 0.86874 0.73739
 C1889 C 0.15618 0.84745 0.73415
 C1890 C 0.16792 0.82931 0.73349
 C1891 C 0.61075 0.42392 0.25447
 C1892 C 0.62084 0.40590 0.24844
 C1893 C 0.63314 0.38475 0.24219
 C1894 C 0.64403 0.36662 0.23797
 C1895 C 0.65727 0.34527 0.23480
 C1896 C 0.66892 0.32707 0.23421
 C1897 C 0.61167 0.57304 0.24620
 C1898 C 0.62185 0.59092 0.25239
 C1899 C 0.63424 0.61193 0.25881
 C1900 C 0.64521 0.62994 0.26317
 C1901 C 0.65852 0.65119 0.26648
 C1902 C 0.67022 0.66932 0.26714
 C1903 C 0.10912 0.07510 0.74575
 C1904 C 0.11917 0.09305 0.75193
 C1905 C 0.13146 0.11411 0.75838
 C1906 C 0.14239 0.13214 0.76276
 C1907 C 0.15573 0.15336 0.76612
 C1908 C 0.16753 0.17142 0.76683
 C1909 C 0.39034 0.07538 0.25427
 C1910 C 0.38024 0.09334 0.24815
 C1911 C 0.36791 0.11442 0.24177
 C1912 C 0.35696 0.13247 0.23743
 C1913 C 0.34362 0.15374 0.23413
 C1914 C 0.33185 0.17186 0.23346
 C1915 C 0.89074 0.57406 0.75415
 C1916 C 0.88067 0.59200 0.74794
 C1917 C 0.86836 0.61305 0.74148
 C1918 C 0.85740 0.63108 0.73708
 C1919 C 0.84402 0.65230 0.73371
 C1920 C 0.83218 0.67037 0.73297
 C1921 C 0.92671 0.75971 0.17815
 C1922 C 0.90700 0.75502 0.18454
 C1923 C 0.88350 0.75089 0.19141
 C1924 C 0.86319 0.74853 0.19724
 C1925 C 0.83948 0.74708 0.20445
 C1926 C 0.81942 0.74673 0.21138
 C1927 C 0.42569 0.25941 0.67939
 C1928 C 0.40612 0.25463 0.68608
 C1929 C 0.38273 0.25042 0.69324
 C1930 C 0.36247 0.24808 0.69921
 C1931 C 0.33876 0.24675 0.70641
 C1932 C 0.31864 0.24662 0.71318
 C1933 C 0.42526 0.73953 0.82211
 C1934 C 0.40572 0.74422 0.81528
 C1935 C 0.38238 0.74845 0.80794
 C1936 C 0.36218 0.75089 0.80181
 C1937 C 0.33853 0.75241 0.79443
 C1938 C 0.31846 0.75274 0.78753
 C1939 C 0.92603 0.23677 0.32226
 C1940 C 0.90613 0.24111 0.31611
 C1941 C 0.88250 0.24502 0.30945
 C1942 C 0.86213 0.24731 0.30375
 C1943 C 0.83837 0.24880 0.29666
 C1944 C 0.81829 0.24923 0.28981
 C1945 C 0.07359 0.26089 0.32019
 C1946 C 0.09345 0.25644 0.31403
 C1947 C 0.11709 0.25249 0.30740
 C1948 C 0.13748 0.25023 0.30177
 C1949 C 0.16129 0.24884 0.29480
 C1950 C 0.18144 0.24853 0.28809
 C1951 C 0.57376 0.75854 0.82040
 C1952 C 0.59323 0.75376 0.81343
 C1953 C 0.61654 0.74955 0.80599
 C1954 C 0.63676 0.74721 0.79986
 C1955 C 0.66045 0.74587 0.79256
 C1956 C 0.68057 0.74574 0.78580
 C1957 C 0.57448 0.24062 0.67913
 C1958 C 0.59404 0.24538 0.68588
 C1959 C 0.61740 0.24960 0.69311
 C1960 C 0.63764 0.25198 0.69914
 C1961 C 0.66134 0.25335 0.70641
 C1962 C 0.68144 0.25351 0.71322
 C1963 C 0.07469 0.73893 0.17826
 C1964 C 0.09440 0.74372 0.18458
 C1965 C 0.11788 0.74810 0.19142
 C1966 C 0.13817 0.75074 0.19723
 C1967 C 0.16187 0.75255 0.20442
 C1968 C 0.18194 0.75316 0.21131
   
