data_POSCAR
  _audit_creation_date              2014-09-24
  _audit_creation_method            'ToBaCCo'
  _symmetry_space_group_name_H-M    'P1'
  _symmetry_Int_Tables_number       1
  _symmetry_cell_setting            triclinic
  loop_
  _symmetry_equiv_pos_as_xyz
 x,y,z
_cell_length_a 62.8580
_cell_length_b 62.7985
_cell_length_c 35.4896
_cell_angle_alpha 89.982900
_cell_angle_beta 89.862200
_cell_angle_gamma 90.009900
loop_
  _atom_site_label
  _atom_site_type_symbol
  _atom_site_fract_x
  _atom_site_fract_y
  _atom_site_fract_z
C1 C -0.00069 0.26177 -0.01843
 C2 C -0.00028 0.26160 0.01999
 C3 C -0.02016 0.26279 0.04257
 C4 C 0.02003 0.25995 0.04111
 C5 C 0.01918 0.26300 -0.04102
 C6 C -0.02101 0.26038 -0.03959
 C7 C -0.03477 0.27943 0.03704
 C8 C -0.05409 0.27963 0.05661
 C9 C -0.05890 0.26331 0.08221
 C10 C -0.04407 0.24705 0.08873
 C11 C -0.02476 0.24686 0.06913
 C12 C 0.02524 0.27539 0.06817
 C13 C 0.04477 0.27451 0.08689
 C14 C 0.05917 0.25810 0.07897
 C15 C 0.05384 0.24234 0.05274
 C16 C 0.03431 0.24318 0.03405
 C17 C 0.02358 0.24729 -0.06808
 C18 C 0.04285 0.24752 -0.08777
 C19 C 0.05781 0.26355 -0.08084
 C20 C 0.05326 0.27963 -0.05474
 C21 C 0.03398 0.27944 -0.03506
 C22 C -0.03532 0.24357 -0.03301
 C23 C -0.05480 0.24289 -0.05184
 C24 C -0.06006 0.25885 -0.07773
 C25 C -0.04563 0.27531 -0.08519
 C26 C -0.02615 0.27603 -0.06632
 H27 H -0.03135 0.29204 0.01710
 H28 H -0.06534 0.29238 0.05134
 H29 H -0.04751 0.23433 0.10848
 H30 H -0.01365 0.23395 0.07387
 H31 H 0.01439 0.28836 0.07414
 H32 H 0.04873 0.28675 0.10722
 H33 H 0.03042 0.23091 0.01378
 H34 H 0.01234 0.23454 -0.07316
 H35 H 0.04623 0.23500 -0.10792
 H36 H 0.06471 0.29214 -0.04926
 H37 H 0.03072 0.29189 -0.01473
 H38 H -0.03147 0.23112 -0.01303
 H39 H -0.06581 0.23001 -0.04604
 H40 H -0.04954 0.28770 -0.10527
 H41 H -0.01526 0.28902 -0.07195
 H42 H 0.06483 0.22952 0.04655
 C43 C 0.50056 0.76274 0.48151
 C44 C 0.50083 0.76303 0.51994
 C45 C 0.48084 0.76469 0.54216
 C46 C 0.52102 0.76133 0.54138
 C47 C 0.52050 0.76377 0.45904
 C48 C 0.48027 0.76113 0.46031
 C49 C 0.46642 0.78140 0.53573
 C50 C 0.44692 0.78191 0.55469
 C51 C 0.44176 0.76588 0.58057
 C52 C 0.45638 0.74961 0.58806
 C53 C 0.47588 0.74906 0.56908
 C54 C 0.52617 0.77679 0.56843
 C55 C 0.54554 0.77579 0.58762
 C56 C 0.55984 0.75921 0.58019
 C57 C 0.55457 0.74344 0.55396
 C58 C 0.53520 0.74441 0.53480
 C59 C 0.52485 0.74799 0.43210
 C60 C 0.54408 0.74816 0.41227
 C61 C 0.55906 0.76422 0.41892
 C62 C 0.55458 0.78034 0.44500
 C63 C 0.53534 0.78020 0.46483
 C64 C 0.46593 0.74443 0.46750
 C65 C 0.44629 0.74378 0.44921
 C66 C 0.44090 0.75965 0.42323
 C67 C 0.45540 0.77594 0.41502
 C68 C 0.47505 0.77663 0.43336
 H69 H 0.47011 0.79378 0.51550
 H70 H 0.43574 0.79461 0.54877
 H71 H 0.45254 0.73714 0.60805
 H72 H 0.48682 0.73611 0.57450
 H73 H 0.51539 0.78987 0.57405
 H74 H 0.54946 0.78805 0.60793
 H75 H 0.53133 0.73209 0.51459
 H76 H 0.51358 0.73525 0.42716
 H77 H 0.54740 0.73561 0.39216
 H78 H 0.56605 0.79286 0.45030
 H79 H 0.53213 0.79271 0.48505
 H80 H 0.46984 0.73211 0.48769
 H81 H 0.43521 0.73105 0.45562
 H82 H 0.45140 0.78826 0.39486
 H83 H 0.48596 0.78954 0.42729
 H84 H 0.56549 0.73050 0.54813
 C85 C 1.00125 0.73885 -0.01962
 C86 C 1.00090 0.73860 0.01880
 C87 C 1.02074 0.74031 0.04120
 C88 C 0.98058 0.73699 0.04008
 C89 C 0.98134 0.74070 -0.04182
 C90 C 1.02153 0.73757 -0.04109
 C91 C 1.02539 0.72498 0.06879
 C92 C 1.04438 0.72611 0.08910
 C93 C 1.05880 0.74266 0.08222
 C94 C 1.05404 0.75826 0.05537
 C95 C 1.03505 0.75718 0.03511
 C96 C 0.96622 0.72031 0.03301
 C97 C 0.94658 0.71967 0.05151
 C98 C 0.94121 0.73555 0.07751
 C99 C 0.95571 0.75185 0.08552
 C100 C 0.97536 0.75251 0.06703
 C101 C 0.96712 0.75760 -0.03539
 C102 C 0.94793 0.75866 -0.05506
 C103 C 0.94288 0.74299 -0.08161
 C104 C 0.95725 0.72647 -0.08894
 C105 C 0.97645 0.72537 -0.06924
 C106 C 1.02641 0.75316 -0.06813
 C107 C 1.04592 0.75272 -0.08709
 C108 C 1.06066 0.73657 -0.07944
 C109 C 1.05565 0.72063 -0.05325
 C110 C 1.03613 0.72106 -0.03433
 H111 H 1.01450 0.71194 0.07404
 H112 H 1.04791 0.71399 0.10990
 H113 H 1.06506 0.77119 0.04996
 H114 H 1.03157 0.76939 0.01446
 H115 H 0.97011 0.70801 0.01277
 H116 H 0.93548 0.70697 0.04519
 H117 H 0.98625 0.76545 0.07294
 H118 H 0.97079 0.76978 -0.01482
 H119 H 0.93696 0.77157 -0.04932
 H120 H 0.95349 0.71430 -0.10952
 H121 H 0.98727 0.71230 -0.07470
 H122 H 1.01533 0.76596 -0.07385
 H123 H 1.04958 0.76513 -0.10732
 H124 H 1.06687 0.70800 -0.04716
 H125 H 1.03250 0.70868 -0.01406
 H126 H 0.95170 0.76422 0.10559
 C127 C 0.50031 0.23743 0.47991
 C128 C 0.49986 0.23726 0.51834
 C129 C 0.51971 0.23599 0.54085
 C130 C 0.47952 0.23868 0.53958
 C131 C 0.48045 0.23623 0.45740
 C132 C 0.52066 0.23907 0.45871
 C133 C 0.53449 0.21954 0.53480
 C134 C 0.55372 0.21927 0.55449
 C135 C 0.55824 0.23529 0.58071
 C136 C 0.54328 0.25134 0.58771
 C137 C 0.52406 0.25164 0.56801
 C138 C 0.47434 0.22304 0.56635
 C139 C 0.45482 0.22373 0.58525
 C140 C 0.44038 0.24017 0.57781
 C141 C 0.44568 0.25613 0.55187
 C142 C 0.46520 0.25547 0.53300
 C143 C 0.47594 0.25211 0.43074
 C144 C 0.45666 0.25189 0.41118
 C145 C 0.44182 0.23568 0.41782
 C146 C 0.44651 0.21943 0.44350
 C147 C 0.46578 0.21963 0.46306
 C148 C 0.53498 0.25579 0.46578
 C149 C 0.55454 0.25660 0.44703
 C150 C 0.55986 0.24087 0.42071
 C151 C 0.54542 0.22451 0.41277
 C152 C 0.52586 0.22366 0.43156
 H153 H 0.53127 0.20712 0.51442
 H154 H 0.56516 0.20675 0.54895
 H155 H 0.54663 0.26381 0.60795
 H156 H 0.51283 0.26439 0.57318
 H157 H 0.48524 0.21006 0.57198
 H158 H 0.45089 0.21135 0.60536
 H159 H 0.46908 0.26791 0.51300
 H160 H 0.48708 0.26499 0.42588
 H161 H 0.45319 0.26454 0.39135
 H162 H 0.43516 0.20678 0.44876
 H163 H 0.46913 0.20704 0.48305
 H164 H 0.53109 0.26805 0.48612
 H165 H 0.56556 0.26938 0.45326
 H166 H 0.54937 0.21229 0.39238
 H167 H 0.51498 0.21073 0.42558
 H168 H 0.43466 0.26897 0.54606
 C169 C 0.73881 -0.00030 -0.01998
 C170 C 0.73880 -0.00040 0.01845
 C171 C 0.73744 -0.02060 0.04009
 C172 C 0.74039 0.01966 0.04045
 C173 C 0.73756 0.01987 -0.04169
 C174 C 0.74030 -0.02037 -0.04196
 C175 C 0.72078 -0.03509 0.03374
 C176 C 0.72045 -0.05471 0.05234
 C177 C 0.73665 -0.05993 0.07777
 C178 C 0.75293 -0.04527 0.08507
 C179 C 0.75326 -0.02566 0.06646
 C180 C 0.72485 0.02460 0.06755
 C181 C 0.72561 0.04397 0.08690
 C182 C 0.74202 0.05849 0.07957
 C183 C 0.75790 0.05340 0.05335
 C184 C 0.75717 0.03403 0.03404
 C185 C 0.75327 0.02470 -0.06854
 C186 C 0.75295 0.04422 -0.08748
 C187 C 0.73679 0.05900 -0.08000
 C188 C 0.72072 0.05401 -0.05406
 C189 C 0.72103 0.03450 -0.03514
 C190 C 0.75708 -0.03475 -0.03587
 C191 C 0.75773 -0.05411 -0.05521
 C192 C 0.74176 -0.05919 -0.08116
 C193 C 0.72532 -0.04465 -0.08814
 C194 C 0.72465 -0.02529 -0.06875
 H195 H 0.70826 -0.03133 0.01391
 H196 H 0.70772 -0.06586 0.04650
 H197 H 0.76555 -0.04910 0.10469
 H198 H 0.76619 -0.01467 0.07179
 H199 H 0.71186 0.01368 0.07300
 H200 H 0.71328 0.04775 0.10720
 H201 H 0.76952 0.03035 0.01373
 H202 H 0.76609 0.01360 -0.07404
 H203 H 0.76547 0.04786 -0.10752
 H204 H 0.70808 0.06527 -0.04809
 H205 H 0.70858 0.03091 -0.01496
 H206 H 0.76949 -0.03107 -0.01579
 H207 H 0.77060 -0.06516 -0.04967
 H208 H 0.71289 -0.04836 -0.10821
 H209 H 0.71167 -0.01435 -0.07395
 H210 H 0.77071 0.06448 0.04759
 C211 C 0.23770 0.49955 0.48071
 C212 C 0.23807 0.49970 0.51914
 C213 C 0.23703 0.47965 0.54124
 C214 C 0.23974 0.51991 0.54068
 C215 C 0.23592 0.51959 0.45877
 C216 C 0.23927 0.47937 0.45902
 C217 C 0.22049 0.46495 0.53544
 C218 C 0.22040 0.44551 0.55460
 C219 C 0.23669 0.44069 0.58004
 C220 C 0.25284 0.45555 0.58682
 C221 C 0.25296 0.47499 0.56764
 C222 C 0.22446 0.52489 0.56823
 C223 C 0.22534 0.54435 0.58730
 C224 C 0.24159 0.55892 0.57925
 C225 C 0.25719 0.55382 0.55252
 C226 C 0.25635 0.53436 0.53348
 C227 C 0.25139 0.52464 0.43161
 C228 C 0.25071 0.54418 0.41279
 C229 C 0.23444 0.55874 0.42069
 C230 C 0.21857 0.55352 0.44684
 C231 C 0.21923 0.53398 0.46565
 C232 C 0.25616 0.46513 0.46520
 C233 C 0.25693 0.44570 0.44607
 C234 C 0.24098 0.44043 0.42024
 C235 C 0.22444 0.45480 0.41316
 C236 C 0.22363 0.47423 0.43234
 H237 H 0.20787 0.46841 0.51564
 H238 H 0.20779 0.43415 0.54926
 H239 H 0.26550 0.45198 0.60650
 H240 H 0.26579 0.48616 0.57259
 H241 H 0.21161 0.51392 0.57429
 H242 H 0.21321 0.54814 0.60798
 H243 H 0.26850 0.53066 0.51280
 H244 H 0.26434 0.51372 0.42586
 H245 H 0.26307 0.54808 0.39262
 H246 H 0.20589 0.56467 0.45309
 H247 H 0.20696 0.53023 0.48609
 H248 H 0.26859 0.46897 0.48517
 H249 H 0.26985 0.43473 0.45163
 H250 H 0.21205 0.45089 0.39315
 H251 H 0.21056 0.48505 0.42704
 H252 H 0.26988 0.56494 0.54618
 C253 C 0.26109 0.99979 -0.01971
 C254 C 0.26145 0.99992 0.01872
 C255 C 0.26286 1.02012 0.04034
 C256 C 0.26009 0.97990 0.04089
 C257 C 0.26218 0.97959 -0.04141
 C258 C 0.25933 1.01984 -0.04170
 C259 C 0.27930 1.03479 0.03336
 C260 C 0.27977 1.05428 0.05236
 C261 C 0.26394 1.05920 0.07882
 C262 C 0.24789 1.04436 0.08672
 C263 C 0.24741 1.02488 0.06770
 C264 C 0.27574 0.97518 0.06777
 C265 C 0.27493 0.95608 0.08794
 C266 C 0.25836 0.94162 0.08166
 C267 C 0.24243 0.94645 0.05552
 C268 C 0.24322 0.96555 0.03536
 C269 C 0.24626 0.97473 -0.06773
 C270 C 0.24649 0.95525 -0.08675
 C271 C 0.26276 0.94050 -0.07991
 C272 C 0.27902 0.94551 -0.05447
 C273 C 0.27880 0.96500 -0.03546
 C274 C 0.24261 1.03421 -0.03490
 C275 C 0.24172 1.05356 -0.05427
 C276 C 0.25738 1.05863 -0.08095
 C277 C 0.27373 1.04409 -0.08865
 C278 C 0.27464 1.02474 -0.06923
 H279 H 0.29157 1.03125 0.01282
 H280 H 0.29234 1.06556 0.04608
 H281 H 0.23556 1.04793 0.10717
 H282 H 0.23468 1.01374 0.07360
 H283 H 0.28879 0.98611 0.07258
 H284 H 0.28730 0.95250 0.10819
 H285 H 0.23076 0.96909 0.01528
 H286 H 0.23337 0.98581 -0.07280
 H287 H 0.23382 0.95159 -0.10637
 H288 H 0.29175 0.93430 -0.04900
 H289 H 0.29141 0.96861 -0.01572
 H290 H 0.23044 1.03054 -0.01426
 H291 H 0.22893 1.06462 -0.04815
 H292 H 0.28592 1.04779 -0.10930
 H293 H 0.28757 1.01381 -0.07500
 H294 H 0.22948 0.93541 0.05060
 C295 C 0.76305 0.50011 0.48137
 C296 C 0.76317 0.49992 0.51981
 C297 C 0.76460 0.51993 0.54196
 C298 C 0.76153 0.47970 0.54134
 C299 C 0.76426 0.48008 0.45923
 C300 C 0.76127 0.52030 0.45976
 C301 C 0.78104 0.53465 0.53528
 C302 C 0.78146 0.55404 0.55459
 C303 C 0.76561 0.55880 0.58103
 C304 C 0.74958 0.54392 0.58869
 C305 C 0.74913 0.52453 0.56939
 C306 C 0.77706 0.47448 0.56816
 C307 C 0.77611 0.45504 0.58730
 C308 C 0.75953 0.44073 0.58001
 C309 C 0.74370 0.44608 0.55401
 C310 C 0.74461 0.46552 0.53492
 C311 C 0.74848 0.47541 0.43256
 C312 C 0.74879 0.45605 0.41318
 C313 C 0.76500 0.44126 0.42004
 C314 C 0.78114 0.44609 0.44576
 C315 C 0.78085 0.46545 0.46514
 C316 C 0.74450 0.53458 0.46672
 C317 C 0.74334 0.55384 0.44710
 C318 C 0.75878 0.55890 0.42006
 C319 C 0.77523 0.54451 0.41233
 C320 C 0.77643 0.52525 0.43197
 H321 H 0.79332 0.53124 0.51469
 H322 H 0.79398 0.56541 0.54855
 H323 H 0.73724 0.54745 0.60913
 H324 H 0.73639 0.51336 0.57506
 H325 H 0.79015 0.48526 0.57364
 H326 H 0.78841 0.45106 0.60745
 H327 H 0.73227 0.46943 0.51483
 H328 H 0.73561 0.48652 0.42752
 H329 H 0.73624 0.45247 0.39330
 H330 H 0.79380 0.43479 0.45116
 H331 H 0.79336 0.46892 0.48516
 H332 H 0.73242 0.53087 0.48752
 H333 H 0.73048 0.56482 0.45314
 H334 H 0.78722 0.54826 0.39136
 H335 H 0.78938 0.51438 0.42603
 H336 H 0.73074 0.43517 0.54831
 O337 O 0.23211 0.26005 0.20122
 O338 O 0.28449 0.25409 0.24630
 O339 O 0.26160 0.23107 0.20080
 O340 O 0.25521 0.28328 0.24656
 O341 O 0.23997 0.26774 0.29561
 O342 O 0.24633 0.21550 0.24982
 O343 O 0.26922 0.23853 0.29532
 O344 O 0.21687 0.24451 0.25028
 Cu345 Cu 0.25987 0.25872 0.21877
 Cu346 Cu 0.24153 0.24002 0.27770
 C347 C 0.21567 0.25311 0.21802
 C348 C 0.28568 0.24535 0.27846
 C349 C 0.25499 0.21448 0.21754
 C350 C 0.24669 0.28430 0.27893
 O351 O 0.75396 0.78254 0.24509
 O352 O 0.75929 0.73028 0.29117
 O353 O 0.78273 0.75278 0.24525
 O354 O 0.73066 0.76005 0.29107
 O355 O 0.71492 0.74475 0.24242
 O356 O 0.76703 0.73748 0.19657
 O357 O 0.74357 0.71498 0.24250
 O358 O 0.73824 0.76724 0.19643
 Cu359 Cu 0.75827 0.75796 0.27304
 Cu360 Cu 0.73937 0.73956 0.21454
 C361 C 0.74524 0.78370 0.21296
 C362 C 0.75217 0.71383 0.27472
 C363 C 0.78366 0.74400 0.21312
 C364 C 0.71401 0.75352 0.27457
 O365 O 0.78533 0.24517 0.25236
 O366 O 0.73291 0.23924 0.29770
 O367 O 0.75610 0.21593 0.25250
 O368 O 0.76234 0.26829 0.29773
 O369 O 0.74712 0.28368 0.24863
 O370 O 0.74090 0.23129 0.20337
 O371 O 0.71772 0.25461 0.24856
 O372 O 0.77011 0.26055 0.20326
 Cu373 Cu 0.76068 0.24058 0.28004
 Cu374 Cu 0.74240 0.25906 0.22099
 C375 C 0.78655 0.25381 0.22011
 C376 C 0.71649 0.24609 0.28090
 C377 C 0.74762 0.21479 0.22018
 C378 C 0.75573 0.28481 0.28086
 O379 O 0.25888 0.77088 0.21202
 O380 O 0.25187 0.71838 0.25638
 O381 O 0.22919 0.74225 0.21185
 O382 O 0.28167 0.74710 0.25679
 O383 O 0.26671 0.76241 0.30632
 O384 O 0.21420 0.75755 0.26137
 O385 O 0.23690 0.73367 0.30592
 O386 O 0.24390 0.78621 0.26152
 Cu387 Cu 0.25695 0.74310 0.22930
 Cu388 Cu 0.23895 0.76151 0.28883
 C389 C 0.25235 0.78738 0.22910
 C390 C 0.24324 0.71717 0.28865
 C391 C 0.21286 0.74922 0.22891
 C392 C 0.28304 0.75547 0.28922
 O393 O 0.75959 0.26807 0.70427
 O394 O 0.75362 0.21574 0.74989
 O395 O 0.73050 0.23867 0.70447
 O396 O 0.78277 0.24502 0.74965
 O397 O 0.76736 0.26037 0.79870
 O398 O 0.71507 0.25403 0.75350
 O399 O 0.73820 0.23111 0.79893
 O400 O 0.74418 0.28342 0.75333
 Cu401 Cu 0.75819 0.24034 0.72210
 Cu402 Cu 0.73965 0.25881 0.78106
 C403 C 0.75276 0.28456 0.72101
 C404 C 0.74500 0.21461 0.78218
 C405 C 0.71398 0.24535 0.72129
 C406 C 0.78387 0.25360 0.78193
 O407 O 0.28432 0.74641 0.75070
 O408 O 0.23249 0.73904 0.79744
 O409 O 0.25568 0.71655 0.75125
 O410 O 0.26132 0.76871 0.79740
 O411 O 0.24532 0.78412 0.74912
 O412 O 0.23970 0.73190 0.70290
 O413 O 0.21651 0.75442 0.74911
 O414 O 0.26833 0.76180 0.70239
 Cu415 Cu 0.26007 0.74111 0.77907
 Cu416 Cu 0.24084 0.75961 0.72100
 C417 C 0.28506 0.75529 0.71861
 C418 C 0.21576 0.74559 0.78122
 C419 C 0.24683 0.71542 0.71924
 C420 C 0.25421 0.78521 0.78112
 O421 O 0.21511 0.24449 0.74658
 O422 O 0.26753 0.23816 0.70143
 O423 O 0.24407 0.21501 0.74649
 O424 O 0.23843 0.26750 0.70147
 O425 O 0.25373 0.28265 0.75071
 O426 O 0.25936 0.23014 0.79575
 O427 O 0.28281 0.25330 0.75070
 O428 O 0.23042 0.25963 0.79582
 Cu429 Cu 0.23976 0.23973 0.71902
 Cu430 Cu 0.25815 0.25794 0.77822
 C431 C 0.21393 0.25307 0.77888
 C432 C 0.28399 0.24484 0.71832
 C433 C 0.25250 0.21373 0.77885
 C434 C 0.24521 0.28392 0.71843
 O435 O 0.73250 0.76079 0.70183
 O436 O 0.78527 0.75613 0.74578
 O437 O 0.76246 0.73227 0.70140
 O438 O 0.75549 0.78469 0.74611
 O439 O 0.74087 0.76924 0.79585
 O440 O 0.74783 0.71681 0.75111
 O441 O 0.77065 0.74066 0.79551
 O442 O 0.71788 0.74534 0.75156
 Cu443 Cu 0.76038 0.76004 0.71873
 Cu444 Cu 0.74280 0.74145 0.77851
 C445 C 0.71630 0.75374 0.71918
 C446 C 0.78684 0.74773 0.77817
 C447 C 0.75626 0.71570 0.71866
 C448 C 0.74720 0.78580 0.77867
 C449 C 0.26004 0.15675 0.16500
 C450 C 0.27646 0.14232 0.17464
 C451 C 0.27766 0.12216 0.15656
 C452 C 0.26242 0.11655 0.12896
 C453 C 0.24616 0.13109 0.11898
 C454 C 0.24495 0.15124 0.13709
 C455 C 0.22851 0.16548 0.12673
 C456 C 0.21371 0.16000 0.09921
 C457 C 0.21493 0.14032 0.08144
 C458 C 0.23091 0.12596 0.09112
 C459 C 0.29420 0.10799 0.16668
 C460 C 0.30915 0.11360 0.19387
 C461 C 0.30798 0.13331 0.21155
 C462 C 0.29185 0.14757 0.20217
 C463 C 0.26332 0.09578 0.11107
 C464 C 0.26378 0.07856 0.09606
 C465 C 0.25857 0.17721 0.18387
 C466 C 0.25709 0.19421 0.19938
 H467 H 0.22691 0.18099 0.13970
 H468 H 0.20125 0.17109 0.09162
 H469 H 0.20341 0.13614 0.06004
 H470 H 0.23119 0.11085 0.07647
 H471 H 0.29579 0.09249 0.15366
 H472 H 0.32172 0.10258 0.20124
 H473 H 0.31963 0.13759 0.23265
 H474 H 0.29161 0.16272 0.21667
 C475 C 0.76151 0.65770 0.66717
 C476 C 0.77829 0.64357 0.67625
 C477 C 0.77944 0.62328 0.65863
 C478 C 0.76382 0.61725 0.63200
 C479 C 0.74716 0.63148 0.62263
 C480 C 0.74601 0.65176 0.64026
 C481 C 0.72920 0.66570 0.63045
 C482 C 0.71398 0.65978 0.60398
 C483 C 0.71510 0.63994 0.58673
 C484 C 0.73146 0.62589 0.59585
 C485 C 0.79632 0.60941 0.66822
 C486 C 0.81166 0.61543 0.69444
 C487 C 0.81055 0.63528 0.71163
 C488 C 0.79409 0.64926 0.70276
 C489 C 0.76480 0.59643 0.61431
 C490 C 0.76534 0.57921 0.59936
 C491 C 0.76005 0.67826 0.68567
 C492 C 0.75851 0.69535 0.70088
 H493 H 0.72765 0.68132 0.64305
 H494 H 0.70124 0.67064 0.59680
 H495 H 0.70324 0.63541 0.56618
 H496 H 0.73165 0.61064 0.58165
 H497 H 0.79787 0.59381 0.65557
 H498 H 0.82448 0.60463 0.70143
 H499 H 0.82251 0.63989 0.73195
 H500 H 0.79391 0.66454 0.71685
 C501 C 0.74051 0.84179 0.16145
 C502 C 0.72821 0.85816 0.17817
 C503 C 0.72706 0.87852 0.16074
 C504 C 0.73820 0.88237 0.12669
 C505 C 0.75036 0.86594 0.10979
 C506 C 0.75153 0.84559 0.12723
 C507 C 0.76384 0.82944 0.10988
 C508 C 0.77468 0.83328 0.07625
 C509 C 0.77352 0.85317 0.05919
 C510 C 0.76153 0.86937 0.07563
 C511 C 0.71472 0.89465 0.17804
 C512 C 0.70382 0.89079 0.21160
 C513 C 0.70493 0.87089 0.22862
 C514 C 0.71697 0.85471 0.21223
 C515 C 0.73736 0.90326 0.10924
 C516 C 0.73690 0.92059 0.09460
 C517 C 0.74203 0.82113 0.17965
 C518 C 0.74341 0.80403 0.19486
 H519 H 0.76522 0.81370 0.12206
 H520 H 0.78403 0.82075 0.06337
 H521 H 0.78198 0.85608 0.03309
 H522 H 0.76112 0.88456 0.06127
 H523 H 0.71335 0.91039 0.16585
 H524 H 0.69446 0.90332 0.22445
 H525 H 0.69643 0.86797 0.25468
 H526 H 0.71733 0.83949 0.22654
 C527 C 0.24082 0.34198 0.66684
 C528 C 0.22789 0.35822 0.68245
 C529 C 0.22680 0.37846 0.66465
 C530 C 0.23861 0.38233 0.63133
 C531 C 0.25139 0.36603 0.61552
 C532 C 0.25253 0.34580 0.63337
 C533 C 0.26548 0.32978 0.61713
 C534 C 0.27692 0.33362 0.58413
 C535 C 0.27575 0.35338 0.56660
 C536 C 0.26318 0.36946 0.58201
 C537 C 0.21380 0.39446 0.68081
 C538 C 0.20220 0.39056 0.71359
 C539 C 0.20325 0.37076 0.73099
 C540 C 0.21593 0.35471 0.71573
 C541 C 0.23773 0.40310 0.61342
 C542 C 0.23715 0.42029 0.59839
 C543 C 0.24216 0.32139 0.68529
 C544 C 0.24344 0.30429 0.70053
 H545 H 0.26689 0.31415 0.62970
 H546 H 0.28673 0.32118 0.57208
 H547 H 0.28463 0.35627 0.54093
 H548 H 0.26279 0.38457 0.56735
 H549 H 0.21245 0.41012 0.66829
 H550 H 0.19233 0.40297 0.72555
 H551 H 0.19420 0.36781 0.75644
 H552 H 0.21623 0.33957 0.73029
 C553 C 0.84446 0.25870 0.16813
 C554 C 0.84961 0.24442 0.13862
 C555 C 0.86980 0.24569 0.12066
 C556 C 0.88474 0.26121 0.13236
 C557 C 0.87952 0.27562 0.16164
 C558 C 0.85931 0.27437 0.17957
 C559 C 0.85443 0.28895 0.20874
 C560 C 0.86910 0.30434 0.21988
 C561 C 0.88887 0.30555 0.20237
 C562 C 0.89411 0.29139 0.17358
 C563 C 0.87458 0.23125 0.09118
 C564 C 0.85982 0.21601 0.07977
 C565 C 0.84008 0.21476 0.09736
 C566 C 0.83495 0.22874 0.12647
 C567 C 0.90547 0.26227 0.11435
 C568 C 0.92262 0.26290 0.09912
 C569 C 0.82394 0.25720 0.18678
 C570 C 0.80688 0.25577 0.20213
 H571 H 0.83926 0.28864 0.22320
 H572 H 0.86510 0.31539 0.24221
 H573 H 0.90021 0.31753 0.21113
 H574 H 0.90967 0.29297 0.16079
 H575 H 0.88972 0.23160 0.07662
 H576 H 0.86373 0.20512 0.05715
 H577 H 0.82867 0.20288 0.08840
 H578 H 0.81939 0.22714 0.13926
 C579 C 0.34261 0.76162 0.66582
 C580 C 0.35858 0.77485 0.68138
 C581 C 0.37884 0.77624 0.66366
 C582 C 0.38300 0.76441 0.63050
 C583 C 0.36690 0.75148 0.61455
 C584 C 0.34665 0.75006 0.63230
 C585 C 0.33084 0.73693 0.61596
 C586 C 0.33490 0.72559 0.58297
 C587 C 0.35468 0.72703 0.56556
 C588 C 0.37056 0.73979 0.58105
 C589 C 0.39457 0.78954 0.67976
 C590 C 0.39040 0.80113 0.71243
 C591 C 0.37059 0.79975 0.72977
 C592 C 0.35481 0.78678 0.71456
 C593 C 0.40390 0.76527 0.61308
 C594 C 0.42122 0.76571 0.59845
 C595 C 0.32215 0.75966 0.68455
 C596 C 0.30520 0.75779 0.70014
 H597 H 0.31520 0.73532 0.62843
 H598 H 0.32263 0.71564 0.57086
 H599 H 0.35776 0.71820 0.53993
 H600 H 0.38568 0.74039 0.56646
 H601 H 0.41020 0.79116 0.66725
 H602 H 0.40260 0.81125 0.72433
 H603 H 0.36744 0.80880 0.75514
 H604 H 0.33965 0.78626 0.72904
 C605 C 0.15522 0.74655 0.17600
 C606 C 0.15211 0.75870 0.14285
 C607 C 0.13223 0.75796 0.12390
 C608 C 0.11557 0.74510 0.13828
 C609 C 0.11866 0.73300 0.17149
 C610 C 0.13856 0.73371 0.19040
 C611 C 0.14130 0.72145 0.22350
 C612 C 0.12485 0.70883 0.23753
 C613 C 0.10539 0.70814 0.21906
 C614 C 0.10224 0.72005 0.18641
 C615 C 0.12951 0.77019 0.09074
 C616 C 0.14596 0.78280 0.07669
 C617 C 0.16540 0.78355 0.09525
 C618 C 0.16852 0.77169 0.12796
 C619 C 0.09534 0.74422 0.11875
 C620 C 0.07861 0.74350 0.10228
 C621 C 0.17557 0.74724 0.19519
 C622 C 0.19256 0.74799 0.21081
 H623 H 0.15615 0.72147 0.23886
 H624 H 0.12723 0.69954 0.26287
 H625 H 0.09266 0.69831 0.23008
 H626 H 0.08681 0.71900 0.17306
 H627 H 0.11467 0.77015 0.07532
 H628 H 0.14362 0.79203 0.05127
 H629 H 0.17813 0.79337 0.08423
 H630 H 0.18392 0.77281 0.14138
 C631 C 0.65623 0.24018 0.66922
 C632 C 0.65241 0.25198 0.63590
 C633 C 0.63232 0.25058 0.61776
 C634 C 0.61615 0.23745 0.63312
 C635 C 0.62002 0.22557 0.66630
 C636 C 0.64012 0.22692 0.68440
 C637 C 0.64362 0.21489 0.71754
 C638 C 0.62771 0.20188 0.73238
 C639 C 0.60804 0.20057 0.71470
 C640 C 0.60415 0.21225 0.68204
 C641 C 0.62889 0.26248 0.58442
 C642 C 0.64484 0.27540 0.56946
 C643 C 0.66446 0.27682 0.58726
 C644 C 0.66829 0.26528 0.62010
 C645 C 0.59553 0.23635 0.61490
 C646 C 0.57846 0.23570 0.59952
 C647 C 0.67668 0.24179 0.68794
 C648 C 0.69369 0.24329 0.70331
 H649 H 0.65865 0.21538 0.73230
 H650 H 0.63065 0.19277 0.75774
 H651 H 0.59573 0.19045 0.72635
 H652 H 0.58861 0.21069 0.66929
 H653 H 0.61389 0.26192 0.56956
 H654 H 0.64194 0.28437 0.54392
 H655 H 0.67679 0.28690 0.57555
 H656 H 0.68381 0.26690 0.63290
 C657 C 0.74046 0.15672 0.83436
 C658 C 0.75192 0.15303 0.86804
 C659 C 0.75078 0.13281 0.88596
 C660 C 0.73826 0.11639 0.86999
 C661 C 0.72667 0.12014 0.83648
 C662 C 0.72776 0.14038 0.81862
 C663 C 0.71605 0.14375 0.78512
 C664 C 0.70361 0.12760 0.76972
 C665 C 0.70254 0.10781 0.78718
 C666 C 0.71391 0.10403 0.82017
 C667 C 0.76232 0.12951 0.91968
 C668 C 0.77466 0.14571 0.93521
 C669 C 0.77584 0.16545 0.91762
 C670 C 0.76463 0.16916 0.88442
 C671 C 0.73748 0.09561 0.88785
 C672 C 0.73704 0.07838 0.90280
 C673 C 0.74186 0.17727 0.81577
 C674 C 0.74317 0.19432 0.80035
 H675 H 0.71637 0.15888 0.77051
 H676 H 0.69474 0.13046 0.74410
 H677 H 0.69285 0.09532 0.77510
 H678 H 0.71256 0.08839 0.83273
 H679 H 0.76191 0.11442 0.93440
 H680 H 0.78336 0.14292 0.96104
 H681 H 0.78547 0.17797 0.92977
 H682 H 0.76604 0.18479 0.87180
 C683 C 0.23761 0.65873 0.33848
 C684 C 0.24822 0.65479 0.37294
 C685 C 0.24721 0.63425 0.38966
 C686 C 0.23557 0.61779 0.37186
 C687 C 0.22480 0.62178 0.33759
 C688 C 0.22580 0.64233 0.32086
 C689 C 0.21493 0.64595 0.28658
 C690 C 0.20340 0.62973 0.26929
 C691 C 0.20245 0.60962 0.28561
 C692 C 0.21300 0.60561 0.31936
 C693 C 0.25805 0.63065 0.42400
 C694 C 0.26955 0.64689 0.44132
 C695 C 0.27050 0.66699 0.42502
 C696 C 0.25998 0.67099 0.39123
 C697 C 0.23484 0.59674 0.38870
 C698 C 0.23450 0.57934 0.40302
 C699 C 0.23923 0.67951 0.32081
 C700 C 0.24089 0.69673 0.30611
 H701 H 0.21519 0.66133 0.27281
 H702 H 0.19516 0.63277 0.24308
 H703 H 0.19349 0.59707 0.27205
 H704 H 0.21179 0.58971 0.33097
 H705 H 0.25779 0.61529 0.43781
 H706 H 0.27779 0.64383 0.46750
 H707 H 0.27944 0.67955 0.43861
 H708 H 0.26118 0.68689 0.37966
 C709 C 0.25880 0.84290 0.83398
 C710 C 0.24326 0.84869 0.86106
 C711 C 0.24437 0.86889 0.87903
 C712 C 0.26102 0.88318 0.86981
 C713 C 0.27670 0.87730 0.84304
 C714 C 0.27559 0.85710 0.82509
 C715 C 0.29144 0.85157 0.79844
 C716 C 0.30791 0.86561 0.78974
 C717 C 0.30898 0.88537 0.80726
 C718 C 0.29360 0.89124 0.83363
 C719 C 0.22863 0.87432 0.90597
 C720 C 0.21228 0.86020 0.91491
 C721 C 0.21119 0.84045 0.89736
 C722 C 0.22645 0.83467 0.87072
 C723 C 0.26193 0.90395 0.88773
 C724 C 0.26245 0.92116 0.90278
 C725 C 0.25740 0.82244 0.81509
 C726 C 0.25605 0.80545 0.79947
 H727 H 0.29130 0.83636 0.78410
 H728 H 0.31991 0.86112 0.76930
 H729 H 0.32180 0.89622 0.80040
 H730 H 0.29512 0.90677 0.84655
 H731 H 0.22881 0.88949 0.92042
 H732 H 0.20038 0.86461 0.93559
 H733 H 0.19845 0.82954 0.90441
 H734 H 0.22494 0.81912 0.85787
 C735 C 0.76069 0.34269 0.33283
 C736 C 0.74582 0.34812 0.36128
 C737 C 0.74703 0.36832 0.37922
 C738 C 0.76309 0.38297 0.36853
 C739 C 0.77808 0.37746 0.34034
 C740 C 0.77688 0.35724 0.32245
 C741 C 0.79205 0.35208 0.29436
 C742 C 0.80795 0.36647 0.28424
 C743 C 0.80910 0.38624 0.30172
 C744 C 0.79438 0.39176 0.32946
 C745 C 0.73201 0.37338 0.40762
 C746 C 0.71624 0.35890 0.41801
 C747 C 0.71503 0.33917 0.40042
 C748 C 0.72960 0.33375 0.37237
 C749 C 0.76408 0.40372 0.38646
 C750 C 0.76466 0.42090 0.40157
 C751 C 0.75923 0.32218 0.31416
 C752 C 0.75777 0.30513 0.29882
 H753 H 0.79181 0.33688 0.27999
 H754 H 0.81943 0.36225 0.26272
 H755 H 0.82149 0.39736 0.29376
 H756 H 0.79594 0.40731 0.34227
 H757 H 0.73229 0.38852 0.42214
 H758 H 0.70490 0.36302 0.43982
 H759 H 0.70274 0.32798 0.40856
 H760 H 0.72802 0.31820 0.35956
 C761 C 0.15605 0.25832 0.83085
 C762 C 0.14008 0.27170 0.81575
 C763 C 0.11991 0.27311 0.83379
 C764 C 0.11587 0.26115 0.86686
 C765 C 0.13191 0.24790 0.88216
 C766 C 0.15205 0.24645 0.86407
 C767 C 0.16781 0.23305 0.87982
 C768 C 0.16381 0.22146 0.91257
 C769 C 0.14413 0.22291 0.93031
 C770 C 0.12829 0.23593 0.91539
 C771 C 0.10418 0.28656 0.81813
 C772 C 0.10826 0.29832 0.78560
 C773 C 0.12798 0.29697 0.76798
 C774 C 0.14377 0.28383 0.78274
 C775 C 0.09520 0.26234 0.88505
 C776 C 0.07809 0.26306 0.90040
 C777 C 0.17655 0.25666 0.81218
 C778 C 0.19360 0.25513 0.79683
 H779 H 0.18338 0.23140 0.86707
 H780 H 0.17606 0.21131 0.92426
 H781 H 0.14110 0.21389 0.95578
 H782 H 0.11324 0.23651 0.93021
 H783 H 0.08860 0.28816 0.83085
 H784 H 0.09605 0.30855 0.77402
 H785 H 0.13108 0.30615 0.74273
 H786 H 0.15886 0.28331 0.76803
 C787 C 0.65658 0.75910 0.32799
 C788 C 0.65255 0.74652 0.36036
 C789 C 0.63259 0.74798 0.37907
 C790 C 0.61674 0.76196 0.36523
 C791 C 0.62083 0.77465 0.33303
 C792 C 0.64081 0.77322 0.31435
 C793 C 0.64452 0.78605 0.28220
 C794 C 0.62895 0.79993 0.26891
 C795 C 0.60941 0.80133 0.28718
 C796 C 0.60531 0.78887 0.31888
 C797 C 0.62895 0.73527 0.41142
 C798 C 0.64459 0.72154 0.42491
 C799 C 0.66410 0.72009 0.40658
 C800 C 0.66812 0.73238 0.37466
 C801 C 0.59622 0.76311 0.38397
 C802 C 0.57923 0.76378 0.39974
 C803 C 0.67690 0.75743 0.30870
 C804 C 0.69382 0.75580 0.29293
 H805 H 0.65947 0.78552 0.26704
 H806 H 0.63206 0.80964 0.24431
 H807 H 0.59737 0.81213 0.27675
 H808 H 0.58988 0.79053 0.33214
 H809 H 0.61403 0.73584 0.42666
 H810 H 0.64155 0.71197 0.44973
 H811 H 0.67619 0.70939 0.41717
 H812 H 0.68355 0.73069 0.36140
 C813 C 0.84496 0.74538 0.82942
 C814 C 0.84917 0.75942 0.85973
 C815 C 0.86933 0.75898 0.87777
 C816 C 0.88516 0.74453 0.86533
 C817 C 0.88092 0.73047 0.83509
 C818 C 0.86075 0.73089 0.81708
 C819 C 0.85687 0.71666 0.78694
 C820 C 0.87246 0.70239 0.77497
 C821 C 0.89219 0.70199 0.79255
 C822 C 0.89646 0.71583 0.82228
 C823 C 0.87317 0.77312 0.90806
 C824 C 0.85754 0.78730 0.92019
 C825 C 0.83783 0.78775 0.90254
 C826 C 0.83361 0.77402 0.87262
 C827 C 0.90573 0.74406 0.88379
 C828 C 0.92273 0.74362 0.89935
 C829 C 0.82439 0.74590 0.81096
 C830 C 0.80727 0.74656 0.79582
 H831 H 0.84177 0.71638 0.77236
 H832 H 0.86920 0.69159 0.75193
 H833 H 0.90425 0.69090 0.78312
 H834 H 0.91204 0.71490 0.83509
 H835 H 0.88826 0.77338 0.92267
 H836 H 0.86074 0.79800 0.94339
 H837 H 0.82573 0.79880 0.91206
 H838 H 0.81804 0.77499 0.85978
 C839 C 0.34352 0.24042 0.33026
 C840 C 0.34850 0.25451 0.36011
 C841 C 0.36865 0.25322 0.37807
 C842 C 0.38371 0.23787 0.36602
 C843 C 0.37865 0.22367 0.33637
 C844 C 0.35850 0.22495 0.31844
 C845 C 0.35381 0.21059 0.28886
 C846 C 0.36861 0.19540 0.27732
 C847 C 0.38832 0.19416 0.29485
 C848 C 0.39338 0.20809 0.32405
 C849 C 0.37325 0.26746 0.40788
 C850 C 0.35839 0.28256 0.41957
 C851 C 0.33871 0.28385 0.40196
 C852 C 0.33373 0.27003 0.37256
 C853 C 0.40440 0.23680 0.38403
 C854 C 0.42152 0.23614 0.39922
 C855 C 0.32303 0.24193 0.31165
 C856 C 0.30599 0.24337 0.29635
 H857 H 0.33868 0.21093 0.27438
 H858 H 0.36476 0.18454 0.25467
 H859 H 0.39977 0.18234 0.28578
 H860 H 0.40890 0.20649 0.33685
 H861 H 0.38834 0.26708 0.42247
 H862 H 0.36218 0.29333 0.44241
 H863 H 0.32723 0.29562 0.41111
 H864 H 0.31821 0.27165 0.35977
 C865 C 0.74351 0.84366 0.83108
 C866 C 0.73189 0.86065 0.81489
 C867 C 0.73144 0.88084 0.83298
 C868 C 0.74260 0.88390 0.86717
 C869 C 0.75410 0.86686 0.88350
 C870 C 0.75457 0.84668 0.86540
 C871 C 0.76622 0.82990 0.88223
 C872 C 0.77709 0.83297 0.91597
 C873 C 0.77662 0.85270 0.93367
 C874 C 0.76529 0.86951 0.91776
 C875 C 0.71974 0.89760 0.81623
 C876 C 0.70881 0.89451 0.78257
 C877 C 0.70925 0.87477 0.76488
 C878 C 0.72064 0.85798 0.78072
 C879 C 0.74227 0.90455 0.88552
 C880 C 0.74203 0.92164 0.90099
 C881 C 0.74436 0.82316 0.81225
 C882 C 0.74541 0.80611 0.79676
 H883 H 0.76704 0.81425 0.86956
 H884 H 0.78592 0.81997 0.92844
 H885 H 0.78511 0.85501 0.95986
 H886 H 0.76541 0.88456 0.93260
 H887 H 0.71892 0.91324 0.82894
 H888 H 0.69994 0.90750 0.77015
 H889 H 0.70072 0.87244 0.73873
 H890 H 0.72049 0.84291 0.76593
 C891 C 0.24314 0.34205 0.33187
 C892 C 0.23035 0.35859 0.31702
 C893 C 0.22989 0.37881 0.33502
 C894 C 0.24216 0.38234 0.36784
 C895 C 0.25480 0.36574 0.38290
 C896 C 0.25531 0.34554 0.36484
 C897 C 0.26811 0.32921 0.38038
 C898 C 0.28003 0.33272 0.41286
 C899 C 0.27950 0.35246 0.43054
 C900 C 0.26708 0.36884 0.41584
 C901 C 0.21705 0.39512 0.31956
 C902 C 0.20497 0.39155 0.28730
 C903 C 0.20539 0.37177 0.26975
 C904 C 0.21791 0.35543 0.28430
 C905 C 0.24175 0.40301 0.38615
 C906 C 0.24142 0.42013 0.40152
 C907 C 0.24401 0.32156 0.31299
 C908 C 0.24502 0.30455 0.29735
 H909 H 0.26902 0.31357 0.36768
 H910 H 0.28971 0.32005 0.42437
 H911 H 0.28877 0.35510 0.45578
 H912 H 0.26720 0.38392 0.43060
 H913 H 0.21619 0.41078 0.33222
 H914 H 0.19524 0.40421 0.27586
 H915 H 0.19595 0.36907 0.24473
 H916 H 0.21769 0.34031 0.26968
 C917 C 0.25527 0.15577 0.83116
 C918 C 0.27025 0.14023 0.81968
 C919 C 0.27069 0.12004 0.83777
 C920 C 0.25614 0.11552 0.86724
 C921 C 0.24124 0.13110 0.87887
 C922 C 0.24078 0.15129 0.86076
 C923 C 0.22571 0.16661 0.87284
 C924 C 0.21152 0.16212 0.90202
 C925 C 0.21200 0.14240 0.91978
 C926 C 0.22664 0.12700 0.90844
 C927 C 0.28582 0.10475 0.82583
 C928 C 0.30011 0.10929 0.79683
 C929 C 0.29967 0.12903 0.77913
 C930 C 0.28495 0.14438 0.79030
 C931 C 0.25656 0.09488 0.88567
 C932 C 0.25692 0.07781 0.90119
 C933 C 0.25465 0.17632 0.81244
 C934 C 0.25388 0.19339 0.79699
 H935 H 0.22473 0.18219 0.85993
 H936 H 0.20011 0.17402 0.91092
 H937 H 0.20096 0.13900 0.94246
 H938 H 0.22639 0.11190 0.92312
 H939 H 0.28679 0.08917 0.83875
 H940 H 0.31158 0.09742 0.78806
 H941 H 0.31081 0.13248 0.75662
 H942 H 0.28523 0.15951 0.77569
 C943 C 0.75515 0.65618 0.32810
 C944 C 0.77124 0.64127 0.31887
 C945 C 0.77194 0.62128 0.33761
 C946 C 0.75654 0.61630 0.36544
 C947 C 0.74048 0.63122 0.37473
 C948 C 0.73976 0.65121 0.35598
 C949 C 0.72353 0.66586 0.36571
 C950 C 0.70846 0.66091 0.39321
 C951 C 0.70918 0.64137 0.41159
 C952 C 0.72497 0.62664 0.40257
 C953 C 0.78820 0.60665 0.32795
 C954 C 0.80331 0.61163 0.30054
 C955 C 0.80261 0.63118 0.28220
 C956 C 0.78679 0.64589 0.29113
 C957 C 0.75727 0.59589 0.38460
 C958 C 0.75792 0.57898 0.40065
 C959 C 0.75439 0.67660 0.30895
 C960 C 0.75355 0.69358 0.29320
 H961 H 0.72230 0.68126 0.35221
 H962 H 0.69616 0.67229 0.40031
 H963 H 0.69745 0.63761 0.43295
 H964 H 0.72487 0.61166 0.41765
 H965 H 0.78941 0.59125 0.34145
 H966 H 0.81564 0.60026 0.29350
 H967 H 0.81439 0.63497 0.26093
 H968 H 0.78690 0.66088 0.27609
 C969 C 0.15829 0.74003 0.83451
 C970 C 0.15378 0.75340 0.86566
 C971 C 0.13358 0.75228 0.88365
 C972 C 0.11802 0.73782 0.87036
 C973 C 0.12263 0.72427 0.83954
 C974 C 0.14284 0.72536 0.82158
 C975 C 0.14710 0.71163 0.79085
 C976 C 0.13182 0.69724 0.77821
 C977 C 0.11205 0.69620 0.79574
 C978 C 0.10742 0.70952 0.82605
 C979 C 0.12944 0.76579 0.91475
 C980 C 0.14482 0.77999 0.92771
 C981 C 0.16455 0.78110 0.91008
 C982 C 0.16907 0.76801 0.87939
 C983 C 0.09723 0.73706 0.88824
 C984 C 0.08002 0.73669 0.90327
 C985 C 0.17870 0.74162 0.81550
 C986 C 0.19563 0.74325 0.79977
 H987 H 0.16226 0.71184 0.77634
 H988 H 0.13535 0.68684 0.75469
 H989 H 0.10024 0.68499 0.78582
 H990 H 0.09183 0.70810 0.83881
 H991 H 0.11433 0.76551 0.92940
 H992 H 0.14139 0.79017 0.95157
 H993 H 0.17644 0.79216 0.92024
 H994 H 0.18467 0.76944 0.86667
 C995 C 0.65852 0.24292 0.33320
 C996 C 0.64213 0.22986 0.31860
 C997 C 0.62188 0.22942 0.33651
 C998 C 0.61815 0.24203 0.36894
 C999 C 0.63459 0.25497 0.38372
 C1000 C 0.65482 0.25544 0.36576
 C1001 C 0.67099 0.26856 0.38098
 C1002 C 0.66728 0.28081 0.41307
 C1003 C 0.64752 0.28030 0.43068
 C1004 C 0.63129 0.26757 0.41628
 C1005 C 0.60574 0.21626 0.32137
 C1006 C 0.60949 0.20389 0.28946
 C1007 C 0.62929 0.20432 0.27194
 C1008 C 0.64548 0.21713 0.28622
 C1009 C 0.59742 0.24167 0.38710
 C1010 C 0.58025 0.24134 0.40230
 C1011 C 0.67909 0.24367 0.31455
 C1012 C 0.69617 0.24456 0.29910
 H1013 H 0.68664 0.26947 0.36832
 H1014 H 0.67983 0.29074 0.42433
 H1015 H 0.64473 0.28981 0.45564
 H1016 H 0.61618 0.26772 0.43096
 H1017 H 0.59008 0.21537 0.33401
 H1018 H 0.59697 0.19391 0.27826
 H1019 H 0.63213 0.19468 0.24716
 H1020 H 0.66062 0.21691 0.27164
 C1021 C 0.84158 0.25697 0.83455
 C1022 C 0.85710 0.27200 0.82309
 C1023 C 0.87727 0.27246 0.84110
 C1024 C 0.88180 0.25789 0.87047
 C1025 C 0.86622 0.24297 0.88215
 C1026 C 0.84606 0.24250 0.86412
 C1027 C 0.83076 0.22741 0.87622
 C1028 C 0.83524 0.21320 0.90532
 C1029 C 0.85494 0.21370 0.92299
 C1030 C 0.87031 0.22837 0.91166
 C1031 C 0.89253 0.28761 0.82914
 C1032 C 0.88799 0.30190 0.80021
 C1033 C 0.86827 0.30145 0.78259
 C1034 C 0.85294 0.28671 0.79379
 C1035 C 0.90247 0.25822 0.88862
 C1036 C 0.91960 0.25849 0.90382
 C1037 C 0.82112 0.25620 0.81570
 C1038 C 0.80412 0.25525 0.80016
 H1039 H 0.81519 0.22642 0.86339
 H1040 H 0.82336 0.20176 0.91419
 H1041 H 0.85834 0.20265 0.94561
 H1042 H 0.88540 0.22813 0.92628
 H1043 H 0.90809 0.28860 0.84201
 H1044 H 0.89985 0.31340 0.79142
 H1045 H 0.86483 0.31258 0.76013
 H1046 H 0.83782 0.28699 0.77928
 C1047 C 0.34128 0.75847 0.34010
 C1048 C 0.35784 0.77074 0.32388
 C1049 C 0.37826 0.77111 0.34098
 C1050 C 0.38200 0.75920 0.37420
 C1051 C 0.36538 0.74712 0.39068
 C1052 C 0.34496 0.74673 0.37356
 C1053 C 0.32861 0.73447 0.39046
 C1054 C 0.33232 0.72295 0.42337
 C1055 C 0.35227 0.72337 0.44016
 C1056 C 0.36867 0.73528 0.42413
 C1057 C 0.39457 0.78348 0.32424
 C1058 C 0.39081 0.79515 0.29152
 C1059 C 0.37084 0.79478 0.27478
 C1060 C 0.35449 0.78274 0.29065
 C1061 C 0.40295 0.75933 0.39134
 C1062 C 0.42031 0.75945 0.40569
 C1063 C 0.32057 0.75769 0.32212
 C1064 C 0.30342 0.75683 0.30709
 H1065 H 0.31282 0.73366 0.37847
 H1066 H 0.31964 0.71365 0.43590
 H1067 H 0.35507 0.71440 0.46572
 H1068 H 0.38391 0.73510 0.43823
 H1069 H 0.41035 0.78430 0.33624
 H1070 H 0.40345 0.80455 0.27911
 H1071 H 0.36800 0.80388 0.24937
 H1072 H 0.33923 0.78299 0.27661
 C1073 C 0.25562 0.84497 0.17568
 C1074 C 0.23923 0.85040 0.15011
 C1075 C 0.23983 0.87029 0.13101
 C1076 C 0.25680 0.88463 0.13764
 C1077 C 0.27322 0.87917 0.16314
 C1078 C 0.27262 0.85927 0.18223
 C1079 C 0.28921 0.85415 0.20757
 C1080 C 0.30592 0.86828 0.21385
 C1081 C 0.30652 0.88773 0.19517
 C1082 C 0.29039 0.89320 0.17009
 C1083 C 0.22331 0.87534 0.10549
 C1084 C 0.20665 0.86117 0.09905
 C1085 C 0.20603 0.84174 0.11778
 C1086 C 0.22208 0.83633 0.14304
 C1087 C 0.25740 0.90493 0.11810
 C1088 C 0.25784 0.92171 0.10164
 C1089 C 0.25495 0.82464 0.19513
 C1090 C 0.25404 0.80768 0.21092
 H1091 H 0.28944 0.83921 0.22275
 H1092 H 0.31849 0.86410 0.23332
 H1093 H 0.31955 0.89864 0.20013
 H1094 H 0.29156 0.90851 0.15622
 H1095 H 0.22308 0.89027 0.09024
 H1096 H 0.19415 0.86529 0.07942
 H1097 H 0.19304 0.83079 0.11272
 H1098 H 0.22089 0.82103 0.15691
 C1099 C 0.75639 0.34242 0.66849
 C1100 C 0.74224 0.34694 0.63854
 C1101 C 0.74296 0.36713 0.62045
 C1102 C 0.75779 0.38267 0.63246
 C1103 C 0.77203 0.37809 0.66224
 C1104 C 0.77133 0.35790 0.68031
 C1105 C 0.78572 0.35368 0.71001
 C1106 C 0.80040 0.36897 0.72151
 C1107 C 0.80109 0.38871 0.70384
 C1108 C 0.78710 0.39332 0.67454
 C1109 C 0.72868 0.37128 0.59053
 C1110 C 0.71412 0.35592 0.57882
 C1111 C 0.71339 0.33620 0.59656
 C1112 C 0.72725 0.33167 0.62609
 C1113 C 0.75842 0.40333 0.61413
 C1114 C 0.75892 0.42044 0.59873
 C1115 C 0.75545 0.32189 0.68726
 C1116 C 0.75442 0.30485 0.70277
 H1117 H 0.78581 0.33855 0.72460
 H1118 H 0.81131 0.36547 0.74424
 H1119 H 0.81253 0.40053 0.71287
 H1120 H 0.78825 0.40890 0.66166
 H1121 H 0.72863 0.38639 0.57586
 H1122 H 0.70333 0.35936 0.55587
 H1123 H 0.70203 0.32433 0.58738
 H1124 H 0.72608 0.31609 0.63896
 C1125 C 0.74414 0.15689 0.16779
 C1126 C 0.75594 0.15348 0.13429
 C1127 C 0.75540 0.13326 0.11632
 C1128 C 0.74308 0.11656 0.13199
 C1129 C 0.73118 0.12001 0.16535
 C1130 C 0.73169 0.14024 0.18329
 C1131 C 0.71963 0.14332 0.21659
 C1132 C 0.70743 0.12687 0.23175
 C1133 C 0.70696 0.10708 0.21426
 C1134 C 0.71866 0.10360 0.18142
 C1135 C 0.76731 0.13024 0.08283
 C1136 C 0.77942 0.14672 0.06754
 C1137 C 0.77999 0.16648 0.08514
 C1138 C 0.76842 0.16991 0.11814
 C1139 C 0.74267 0.09587 0.11376
 C1140 C 0.74238 0.07876 0.09837
 C1141 C 0.74500 0.17743 0.18650
 C1142 C 0.74599 0.19449 0.20198
 H1143 H 0.71948 0.15844 0.23121
 H1144 H 0.69830 0.12951 0.25722
 H1145 H 0.69748 0.09435 0.22618
 H1146 H 0.71776 0.08794 0.16881
 H1147 H 0.76739 0.11516 0.06810
 H1148 H 0.78843 0.14413 0.04191
 H1149 H 0.78943 0.17923 0.07316
 H1150 H 0.76935 0.18557 0.13076
 C1151 C 0.24340 0.65749 0.66694
 C1152 C 0.25402 0.65453 0.63210
 C1153 C 0.25375 0.63425 0.61433
 C1154 C 0.24278 0.61706 0.63144
 C1155 C 0.23210 0.62004 0.66622
 C1156 C 0.23239 0.64032 0.68401
 C1157 C 0.22161 0.64291 0.71878
 C1158 C 0.21088 0.62593 0.73552
 C1159 C 0.21062 0.60610 0.71816
 C1160 C 0.22107 0.60309 0.68390
 C1161 C 0.26462 0.63164 0.57966
 C1162 C 0.27546 0.64859 0.56303
 C1163 C 0.27565 0.66844 0.58031
 C1164 C 0.26507 0.67148 0.61443
 C1165 C 0.24242 0.59637 0.61321
 C1166 C 0.24208 0.57924 0.59789
 C1167 C 0.24418 0.67807 0.68554
 C1168 C 0.24518 0.69514 0.70095
 H1169 H 0.22135 0.65804 0.73336
 H1170 H 0.20272 0.62818 0.76212
 H1171 H 0.20228 0.59295 0.73131
 H1172 H 0.22043 0.58737 0.67151
 H1173 H 0.26493 0.61650 0.56510
 H1174 H 0.28379 0.64629 0.53663
 H1175 H 0.28407 0.68156 0.56723
 H1176 H 0.26567 0.68722 0.62676
 C1177 C 0.84156 0.73857 0.16117
 C1178 C 0.85673 0.72357 0.17397
 C1179 C 0.87711 0.72253 0.15663
 C1180 C 0.88219 0.73647 0.12656
 C1181 C 0.86690 0.75125 0.11337
 C1182 C 0.84653 0.75232 0.13076
 C1183 C 0.83154 0.76729 0.11719
 C1184 C 0.83653 0.78080 0.08729
 C1185 C 0.85644 0.77974 0.07028
 C1186 C 0.87150 0.76516 0.08303
 C1187 C 0.89204 0.70745 0.16999
 C1188 C 0.88697 0.69380 0.19965
 C1189 C 0.86703 0.69480 0.21656
 C1190 C 0.85202 0.70948 0.20400
 C1191 C 0.90318 0.73581 0.10946
 C1192 C 0.92057 0.73553 0.09508
 C1193 C 0.82097 0.74011 0.17961
 C1194 C 0.80391 0.74170 0.19494
 H1195 H 0.81583 0.76870 0.12947
 H1196 H 0.82487 0.79214 0.07726
 H1197 H 0.86024 0.79028 0.04706
 H1198 H 0.88675 0.76491 0.06881
 H1199 H 0.90773 0.70603 0.15764
 H1200 H 0.89859 0.68238 0.20954
 H1201 H 0.86316 0.68412 0.23953
 H1202 H 0.83671 0.70964 0.21802
 C1203 C 0.34186 0.24172 0.66574
 C1204 C 0.34619 0.25591 0.63565
 C1205 C 0.36639 0.25552 0.61759
 C1206 C 0.38216 0.24097 0.62977
 C1207 C 0.37778 0.22668 0.65967
 C1208 C 0.35757 0.22706 0.67772
 C1209 C 0.35356 0.21264 0.70758
 C1210 C 0.36908 0.19826 0.71926
 C1211 C 0.38884 0.19788 0.70160
 C1212 C 0.39323 0.21189 0.67214
 C1213 C 0.37034 0.26983 0.58754
 C1214 C 0.35479 0.28415 0.57572
 C1215 C 0.33505 0.28457 0.59344
 C1216 C 0.33071 0.27065 0.62306
 C1217 C 0.40286 0.24072 0.61156
 C1218 C 0.42001 0.24050 0.59630
 C1219 C 0.32134 0.24238 0.68456
 C1220 C 0.30429 0.24326 0.70010
 H1221 H 0.33843 0.21232 0.72216
 H1222 H 0.36575 0.18734 0.74214
 H1223 H 0.40083 0.18666 0.71077
 H1224 H 0.40883 0.21098 0.65927
 H1225 H 0.38545 0.27012 0.57288
 H1226 H 0.35808 0.29498 0.55269
 H1227 H 0.32303 0.29574 0.58418
 H1228 H 0.31510 0.27157 0.63590
 C1229 C 0.15776 0.25620 0.16596
 C1230 C 0.14136 0.26931 0.18052
 C1231 C 0.12112 0.26970 0.16272
 C1232 C 0.11742 0.25700 0.13043
 C1233 C 0.13387 0.24403 0.11567
 C1234 C 0.15409 0.24360 0.13352
 C1235 C 0.17026 0.23044 0.11832
 C1236 C 0.16657 0.21810 0.08635
 C1237 C 0.14683 0.21857 0.06884
 C1238 C 0.13059 0.23134 0.08322
 C1239 C 0.10497 0.28291 0.17783
 C1240 C 0.10870 0.29537 0.20961
 C1241 C 0.12849 0.29499 0.22700
 C1242 C 0.14469 0.28214 0.21276
 C1243 C 0.09671 0.25732 0.11237
 C1244 C 0.07956 0.25762 0.09726
 C1245 C 0.17831 0.25549 0.18452
 C1246 C 0.19537 0.25462 0.19990
 H1247 H 0.18589 0.22955 0.13090
 H1248 H 0.17913 0.20814 0.07509
 H1249 H 0.14405 0.20899 0.04398
 H1250 H 0.11550 0.23116 0.06862
 H1251 H 0.08933 0.28376 0.16527
 H1252 H 0.09617 0.30539 0.22078
 H1253 H 0.13131 0.30471 0.25168
 H1254 H 0.15981 0.28241 0.22724
 C1255 C 0.65808 0.75638 0.66819
 C1256 C 0.64196 0.77004 0.68213
 C1257 C 0.62173 0.77058 0.66431
 C1258 C 0.61776 0.75747 0.63264
 C1259 C 0.63391 0.74387 0.61861
 C1260 C 0.65412 0.74330 0.63646
 C1261 C 0.66999 0.72954 0.62197
 C1262 C 0.66603 0.71675 0.59069
 C1263 C 0.64628 0.71733 0.57319
 C1264 C 0.63034 0.73070 0.58687
 C1265 C 0.60587 0.78435 0.67876
 C1266 C 0.60986 0.79722 0.70993
 C1267 C 0.62964 0.79670 0.72734
 C1268 C 0.64556 0.78330 0.71372
 C1269 C 0.59713 0.75806 0.61436
 C1270 C 0.58007 0.75857 0.59896
 C1271 C 0.67869 0.75572 0.68651
 C1272 C 0.69584 0.75497 0.70157
 H1273 H 0.68561 0.72853 0.63459
 H1274 H 0.67835 0.70633 0.57996
 H1275 H 0.64328 0.70738 0.54888
 H1276 H 0.61523 0.73058 0.57231
 H1277 H 0.59023 0.78532 0.66617
 H1278 H 0.59755 0.80766 0.72062
 H1279 H 0.63267 0.80674 0.75153
 H1280 H 0.66069 0.78347 0.72820
   
