data_POSCAR
  _audit_creation_date              2014-09-24
  _audit_creation_method            'ToBaCCo'
  _symmetry_space_group_name_H-M    'P1'
  _symmetry_Int_Tables_number       1
  _symmetry_cell_setting            triclinic
  loop_
  _symmetry_equiv_pos_as_xyz
 x,y,z
_cell_length_a 28.6584
_cell_length_b 28.8374
_cell_length_c 35.1016
_cell_angle_alpha 89.569600
_cell_angle_beta 89.514000
_cell_angle_gamma 89.953400
loop_
  _atom_site_label
  _atom_site_type_symbol
  _atom_site_fract_x
  _atom_site_fract_y
  _atom_site_fract_z
Zr1 Zr 0.25535 0.24963 0.31908
 O2 O 0.29162 0.28844 0.36027
 O3 O 0.21068 0.20971 0.35324
 O4 O 0.20986 0.29366 0.34952
 O5 O 0.33942 0.16427 0.30651
 O6 O 0.17335 0.33492 0.30272
 O7 O 0.29826 0.20462 0.35126
 O8 O 0.16477 0.17363 0.30961
 O9 O 0.19388 0.25217 0.28724
 O10 O 0.25287 0.18788 0.28843
 O11 O 0.26077 0.30966 0.28495
 O12 O 0.31799 0.24774 0.28711
 Zr13 Zr 0.25880 0.24748 0.18618
 Zr14 Zr 0.20109 0.30968 0.25092
 Zr15 Zr 0.31267 0.18741 0.25425
 Zr16 Zr 0.19321 0.19150 0.25554
 O17 O 0.38647 0.18966 0.25239
 O18 O 0.12094 0.20720 0.25411
 O19 O 0.25281 0.18697 0.22020
 O20 O 0.19685 0.24886 0.21883
 O21 O 0.26104 0.30983 0.21633
 O22 O 0.31959 0.24513 0.21858
 C23 C 0.17674 0.18327 0.34398
 C24 C 0.32905 0.17428 0.34117
 C25 C 0.18011 0.32406 0.33798
 O26 O 0.12755 0.30809 0.24658
 O27 O 0.17830 0.33664 0.19827
 O28 O 0.21552 0.29241 0.15389
 C29 C 0.18656 0.32471 0.16357
 O30 O 0.35231 0.33081 0.30057
 Zr31 Zr 0.32043 0.30567 0.25034
 O32 O 0.30437 0.28890 0.15320
 O33 O 0.21097 0.38234 0.25191
 O34 O 0.31266 0.37882 0.24976
 O35 O 0.39336 0.29327 0.24775
 O36 O 0.34473 0.33033 0.19716
 C37 C 0.33429 0.31996 0.16272
 O38 O 0.22318 0.21095 0.14322
 O39 O 0.30313 0.11480 0.25872
 O40 O 0.29992 0.19844 0.15651
 O41 O 0.33455 0.15582 0.20335
 O42 O 0.19765 0.11831 0.26073
 O43 O 0.16605 0.15944 0.20612
 C44 C 0.32603 0.16484 0.16816
 H45 H 0.25177 0.15987 0.30488
 H46 H 0.16901 0.24882 0.20233
 H47 H 0.34827 0.24268 0.20281
 H48 H 0.26223 0.33781 0.30087
 H49 H 0.10384 0.17902 0.26252
 H50 H 0.11657 0.34063 0.24818
 H51 H 0.17951 0.39654 0.25080
 H52 H 0.34336 0.39243 0.24288
 H53 H 0.16623 0.10683 0.26808
 H54 H 0.33465 0.10064 0.25935
 H55 H 0.39753 0.15709 0.25238
 H56 H 0.40877 0.32304 0.24110
 H57 H 0.13824 0.14085 0.21324
 H58 H 0.23520 0.22247 0.11828
 H59 H 0.28044 0.27756 0.38562
 H60 H 0.37484 0.35559 0.29374
 Zr61 Zr 0.76355 0.76148 0.31368
 O62 O 0.72969 0.73019 0.36119
 O63 O 0.81017 0.80676 0.33961
 O64 O 0.81067 0.72272 0.34690
 O65 O 0.67696 0.84257 0.29654
 O66 O 0.84609 0.67490 0.30393
 O67 O 0.72060 0.80866 0.34330
 O68 O 0.85312 0.83574 0.28986
 O69 O 0.82309 0.75468 0.27926
 O70 O 0.76306 0.81819 0.27627
 O71 O 0.75714 0.69647 0.28744
 O72 O 0.69936 0.75750 0.28497
 Zr73 Zr 0.75292 0.74291 0.18265
 Zr74 Zr 0.81512 0.69160 0.25094
 Zr75 Zr 0.70143 0.81267 0.24557
 Zr76 Zr 0.82069 0.80991 0.24062
 O77 O 0.62766 0.81024 0.24882
 O78 O 0.89316 0.79622 0.23536
 O79 O 0.75911 0.80851 0.20843
 O80 O 0.81659 0.74684 0.21177
 O81 O 0.75335 0.68557 0.21964
 O82 O 0.69403 0.74973 0.21762
 C83 C 0.84389 0.83094 0.32562
 C84 C 0.68826 0.83613 0.33158
 C85 C 0.84007 0.69076 0.33795
 O86 O 0.88846 0.69412 0.24377
 O87 O 0.83382 0.65635 0.20048
 O88 O 0.79291 0.69304 0.15347
 C89 C 0.82207 0.66236 0.16540
 O90 O 0.66833 0.67400 0.30963
 Zr91 Zr 0.69568 0.69427 0.25555
 O92 O 0.70619 0.69739 0.15654
 O93 O 0.80754 0.61965 0.26148
 O94 O 0.70568 0.62157 0.25976
 O95 O 0.62265 0.70591 0.25840
 O96 O 0.66552 0.66519 0.20631
 C97 C 0.67412 0.67100 0.17051
 O98 O 0.78865 0.77143 0.13488
 O99 O 0.71046 0.88511 0.23919
 O100 O 0.70950 0.78589 0.14947
 O101 O 0.67397 0.83334 0.19255
 O102 O 0.81538 0.88325 0.23850
 O103 O 0.84218 0.83414 0.18589
 C104 C 0.68060 0.81834 0.15843
 H105 H 0.76445 0.84835 0.28950
 H106 H 0.84338 0.74429 0.19391
 H107 H 0.66427 0.74968 0.20360
 H108 H 0.75697 0.67106 0.30657
 H109 H 0.90973 0.82607 0.23854
 H110 H 0.90013 0.66208 0.24761
 H111 H 0.83918 0.60592 0.25973
 H112 H 0.67501 0.60671 0.25555
 H113 H 0.84727 0.89590 0.24151
 H114 H 0.67890 0.89908 0.24063
 H115 H 0.61625 0.84247 0.24551
 H116 H 0.60698 0.67556 0.25526
 H117 H 0.86933 0.85506 0.18851
 H118 H 0.77474 0.75782 0.11170
 H119 H 0.74269 0.74438 0.38449
 H120 H 0.64752 0.64693 0.30651
 Zr121 Zr 0.75255 0.25057 -0.31507
 O122 O 0.71070 0.28110 -0.35793
 O123 O 0.79949 0.21188 -0.34770
 O124 O 0.79130 0.29726 -0.34905
 O125 O 0.67839 0.15829 -0.29531
 O126 O 0.82438 0.34648 -0.30629
 O127 O 0.71204 0.20066 -0.34348
 O128 O 0.84913 0.18214 -0.30320
 O129 O 0.81458 0.26140 -0.28525
 O130 O 0.76169 0.19187 -0.28068
 O131 O 0.74257 0.31256 -0.28485
 O132 O 0.69148 0.24568 -0.28143
 Zr133 Zr 0.75313 0.25926 -0.18245
 Zr134 Zr 0.80303 0.32090 -0.25239
 Zr135 Zr 0.70330 0.18877 -0.24504
 Zr136 Zr 0.82179 0.20370 -0.24970
 O137 O 0.62958 0.18415 -0.24371
 O138 O 0.89225 0.22599 -0.25236
 O139 O 0.76388 0.19671 -0.21242
 O140 O 0.81382 0.26348 -0.21666
 O141 O 0.74426 0.31846 -0.21657
 O142 O 0.69209 0.24879 -0.21344
 C143 C 0.83507 0.18786 -0.33775
 C144 C 0.68513 0.16820 -0.33072
 C145 C 0.81613 0.33278 -0.34045
 O146 O 0.87669 0.32550 -0.25260
 O147 O 0.82481 0.35322 -0.20158
 O148 O 0.79161 0.31048 -0.15354
 C149 C 0.81709 0.34429 -0.16597
 O150 O 0.64987 0.32508 -0.29988
 Zr151 Zr 0.68465 0.30620 -0.24880
 O152 O 0.70585 0.30022 -0.15105
 O153 O 0.78677 0.39232 -0.25623
 O154 O 0.68620 0.37966 -0.25177
 O155 O 0.61306 0.28793 -0.24554
 O156 O 0.65836 0.33105 -0.19661
 C157 C 0.67086 0.32495 -0.16182
 O158 O 0.79506 0.23019 -0.13899
 O159 O 0.72054 0.11752 -0.24186
 O160 O 0.71541 0.21075 -0.14873
 O161 O 0.68221 0.16207 -0.19167
 O162 O 0.82392 0.13019 -0.24879
 O163 O 0.85441 0.17927 -0.19922
 C164 C 0.68912 0.17613 -0.15748
 H165 H 0.76471 0.16272 -0.29521
 H166 H 0.84201 0.26743 -0.20091
 H167 H 0.66377 0.24554 -0.19733
 H168 H 0.73757 0.33916 -0.30233
 H169 H 0.91155 0.19882 -0.25949
 H170 H 0.88450 0.35886 -0.25505
 H171 H 0.81687 0.40922 -0.25698
 H172 H 0.65458 0.39100 -0.24497
 H173 H 0.85594 0.12071 -0.25628
 H174 H 0.69067 0.10024 -0.24223
 H175 H 0.62164 0.15082 -0.24118
 H176 H 0.59516 0.31668 -0.24043
 H177 H 0.88370 0.16293 -0.20599
 H178 H 0.78220 0.24100 -0.11426
 H179 H 0.72266 0.26995 -0.38284
 H180 H 0.62663 0.34962 -0.29441
 Zr181 Zr 0.24157 0.76341 -0.31787
 O182 O 0.27986 0.73459 -0.36379
 O183 O 0.19035 0.80215 -0.34611
 O184 O 0.19950 0.71807 -0.34921
 O185 O 0.33074 0.83756 -0.30579
 O186 O 0.16534 0.67183 -0.30368
 O187 O 0.27638 0.81636 -0.34897
 O188 O 0.14292 0.82492 -0.29769
 O189 O 0.18271 0.75353 -0.28309
 O190 O 0.23788 0.82178 -0.28320
 O191 O 0.25278 0.70039 -0.28837
 O192 O 0.30591 0.76430 -0.28904
 Zr193 Zr 0.25273 0.75223 -0.18593
 Zr194 Zr 0.19521 0.69294 -0.25165
 Zr195 Zr 0.30003 0.82117 -0.25254
 Zr196 Zr 0.18071 0.81076 -0.24737
 O197 O 0.37351 0.82746 -0.24861
 O198 O 0.10968 0.79430 -0.23676
 O199 O 0.24228 0.81534 -0.21546
 O200 O 0.18914 0.74990 -0.21526
 O201 O 0.25681 0.69302 -0.21997
 O202 O 0.31153 0.76095 -0.22085
 C203 C 0.15243 0.82074 -0.33351
 C204 C 0.31377 0.83803 -0.33966
 C205 C 0.17162 0.68549 -0.33845
 O206 O 0.12193 0.69058 -0.24411
 O207 O 0.17990 0.65879 -0.19945
 O208 O 0.21642 0.70079 -0.15437
 C209 C 0.19042 0.66658 -0.16426
 O210 O 0.34463 0.68264 -0.30860
 Zr211 Zr 0.31394 0.70357 -0.25613
 O212 O 0.30243 0.71239 -0.15712
 O213 O 0.20789 0.62133 -0.25930
 O214 O 0.30967 0.63029 -0.25916
 O215 O 0.38580 0.72121 -0.25709
 O216 O 0.34258 0.67661 -0.20512
 C217 C 0.33380 0.68451 -0.16970
 O218 O 0.21469 0.78103 -0.13983
 O219 O 0.28667 0.89318 -0.25709
 O220 O 0.29309 0.80009 -0.15522
 O221 O 0.32031 0.85074 -0.20062
 O222 O 0.17865 0.88401 -0.25316
 O223 O 0.16157 0.83941 -0.19385
 C224 C 0.31563 0.83665 -0.16591
 H225 H 0.23398 0.85080 -0.29810
 H226 H 0.16265 0.74627 -0.19720
 H227 H 0.34085 0.76377 -0.20637
 H228 H 0.25507 0.67411 -0.30628
 H229 H 0.09147 0.82310 -0.24086
 H230 H 0.11269 0.65762 -0.24634
 H231 H 0.17736 0.60552 -0.25647
 H232 H 0.34108 0.61767 -0.25359
 H233 H 0.14553 0.89285 -0.25663
 H234 H 0.31717 0.90829 -0.26195
 H235 H 0.38126 0.86082 -0.25132
 H236 H 0.40367 0.69265 -0.25119
 H237 H 0.13434 0.86021 -0.19696
 H238 H 0.22933 0.76968 -0.11599
 H239 H 0.26572 0.74659 -0.38761
 H240 H 0.36971 0.65982 -0.30353
 Zr241 Zr 1.25922 1.24757 0.81896
 O242 O 1.22923 1.20763 0.86367
 O243 O 1.30045 1.29331 0.84939
 O244 O 1.31141 1.20844 0.84715
 O245 O 1.16671 1.32343 0.80846
 O246 O 1.34863 1.16881 0.79970
 O247 O 1.21313 1.28768 0.85248
 O248 O 1.33693 1.33514 0.80324
 O249 O 1.31877 1.25059 0.78421
 O250 O 1.25316 1.30842 0.78647
 O251 O 1.25805 1.18632 0.78710
 O252 O 1.19520 1.24249 0.79006
 Zr253 Zr 1.24847 1.24579 0.68657
 Zr254 Zr 1.31523 1.19154 0.74991
 Zr255 Zr 1.19212 1.30207 0.75524
 Zr256 Zr 1.31113 1.31011 0.75086
 O257 O 1.11896 1.29245 0.75832
 O258 O 1.38461 1.30183 0.74871
 O259 O 1.24975 1.30773 0.71821
 O260 O 1.31181 1.25146 0.71605
 O261 O 1.25404 1.18433 0.71843
 O262 O 1.18966 1.24284 0.72214
 C263 C 1.32826 1.32542 0.83860
 C264 C 1.17953 1.31498 0.84283
 C265 C 1.34255 1.17963 0.83484
 O266 O 1.38793 1.20112 0.74237
 O267 O 1.33453 1.16433 0.69682
 O268 O 1.29305 1.20462 0.65275
 C269 C 1.32380 1.17429 0.66216
 O270 O 1.17241 1.15428 0.80781
 Zr271 Zr 1.19676 1.18341 0.75549
 O272 O 1.20501 1.20016 0.65688
 O273 O 1.31398 1.11826 0.75379
 O274 O 1.21315 1.11178 0.75298
 O275 O 1.12311 1.18729 0.76041
 O276 O 1.16907 1.15854 0.70433
 C277 C 1.17558 1.16977 0.66917
 O278 O 1.28051 1.28339 0.64134
 O279 O 1.19441 1.37541 0.75541
 O280 O 1.20104 1.28910 0.65764
 O281 O 1.16267 1.32840 0.70453
 O282 O 1.29877 1.38261 0.75204
 O283 O 1.33456 1.34194 0.69934
 C284 C 1.17013 1.31832 0.66931
 H285 H 1.25170 1.33701 0.80186
 H286 H 1.33868 1.25349 0.69820
 H287 H 1.15976 1.24232 0.70832
 H288 H 1.26038 1.15856 0.80376
 H289 H 1.39865 1.33192 0.75577
 H290 H 1.40227 1.16985 0.74258
 H291 H 1.34644 1.10734 0.74975
 H292 H 1.18378 1.09492 0.74786
 H293 H 1.32884 1.39794 0.75770
 H294 H 1.16179 1.38628 0.75849
 H295 H 1.10465 1.32375 0.75828
 H296 H 1.11056 1.15605 0.75492
 H297 H 1.36072 1.36321 0.70485
 H298 H 1.26730 1.27184 0.61713
 H299 H 1.24213 1.21957 0.88783
 H300 H 1.15538 1.12513 0.80276
 Zr301 Zr 0.76075 0.75306 0.81580
 O302 O 0.79374 0.79699 0.85534
 O303 O 0.71810 0.71261 0.85154
 O304 O 0.70954 0.79388 0.84391
 O305 O 0.85503 0.67882 0.80664
 O306 O 0.66686 0.82529 0.79560
 O307 O 0.80756 0.71491 0.85001
 O308 O 0.67969 0.66825 0.80834
 O309 O 0.70036 0.74483 0.78356
 O310 O 0.76762 0.68975 0.78737
 O311 O 0.75819 0.81135 0.77951
 O312 O 0.82323 0.75814 0.78349
 Zr313 Zr 0.76466 0.74341 0.68325
 Zr314 Zr 0.69937 0.80091 0.74574
 Zr315 Zr 0.82733 0.69576 0.75299
 Zr316 Zr 0.70869 0.68284 0.75420
 O317 O 0.89992 0.70913 0.75295
 O318 O 0.63514 0.68433 0.74844
 O319 O 0.76838 0.68453 0.71911
 O320 O 0.70326 0.73838 0.71595
 O321 O 0.75838 0.80720 0.71091
 O322 O 0.82543 0.75182 0.71507
 C323 C 0.68646 0.68343 0.84233
 C324 C 0.84194 0.68819 0.84091
 C325 C 0.67527 0.81850 0.83112
 O326 O 0.62686 0.78814 0.74362
 O327 O 0.67502 0.82152 0.69202
 O328 O 0.71788 0.78112 0.64837
 C329 C 0.68491 0.80933 0.65769
 O330 O 0.84697 0.84553 0.79308
 Zr331 Zr 0.81766 0.81362 0.74443
 O332 O 0.80333 0.78757 0.64773
 O333 O 0.69838 0.87425 0.74407
 O334 O 0.79960 0.88491 0.74188
 O335 O 0.89150 0.81210 0.74054
 O336 O 0.83557 0.83856 0.68946
 C337 C 0.82699 0.82387 0.65567
 O338 O 0.73112 0.70160 0.64236
 O339 O 0.82813 0.62256 0.75753
 O340 O 0.81076 0.69718 0.65628
 O341 O 0.85683 0.66728 0.70283
 O342 O 0.72259 0.61184 0.76568
 O343 O 0.69130 0.64319 0.70554
 C344 C 0.84527 0.67220 0.66760
 H345 H 0.76956 0.66288 0.80498
 H346 H 0.67584 0.73363 0.69950
 H347 H 0.85407 0.75292 0.69911
 H348 H 0.75567 0.84035 0.79431
 H349 H 0.62314 0.65407 0.75780
 H350 H 0.61132 0.81876 0.74141
 H351 H 0.66528 0.88366 0.74152
 H352 H 0.82773 0.90220 0.73338
 H353 H 0.69246 0.59710 0.77267
 H354 H 0.86125 0.61321 0.76003
 H355 H 0.91576 0.67861 0.75439
 H356 H 0.90177 0.84345 0.73235
 H357 H 0.66814 0.61913 0.71272
 H358 H 0.74330 0.71091 0.61686
 H359 H 0.78218 0.78770 0.88099
 H360 H 0.86520 0.87313 0.78506
 Zr361 Zr 1.25328 0.75431 0.18775
 O362 O 1.22065 0.79603 0.14583
 O363 O 1.29426 0.70959 0.15443
 O364 O 1.30300 0.79494 0.15792
 O365 O 1.16128 0.67852 0.20012
 O366 O 1.34361 0.83132 0.20465
 O367 O 1.20599 0.71519 0.15495
 O368 O 1.33201 0.66559 0.19897
 O369 O 1.31434 0.75035 0.22002
 O370 O 1.24904 0.69263 0.21917
 O371 O 1.25301 0.81420 0.22170
 O372 O 1.19063 0.75873 0.21977
 Zr373 Zr 1.24854 0.75080 0.32112
 Zr374 Zr 1.31216 0.80809 0.25592
 Zr375 Zr 1.18936 0.69781 0.25278
 Zr376 Zr 1.30851 0.68977 0.25246
 O377 O 1.11625 0.70787 0.25319
 O378 O 1.38192 0.69888 0.25115
 O379 O 1.24843 0.69056 0.28736
 O380 O 1.31052 0.74704 0.28866
 O381 O 1.25256 0.81342 0.29052
 O382 O 1.18799 0.75517 0.28843
 C383 C 1.32207 0.67676 0.16438
 C384 C 1.17200 0.68854 0.16534
 C385 C 1.33549 0.82226 0.16943
 O386 O 1.38508 0.79899 0.26124
 O387 O 1.33374 0.83407 0.30876
 O388 O 1.29318 0.79294 0.35380
 C389 C 1.32351 0.82373 0.34363
 O390 O 1.16360 0.84609 0.20701
 Zr391 Zr 1.19333 0.81594 0.25664
 O392 O 1.20659 0.79405 0.35467
 O393 O 1.31015 0.88140 0.25313
 O394 O 1.20883 0.88782 0.25732
 O395 O 1.11952 0.81068 0.25907
 O396 O 1.17236 0.84135 0.31056
 C397 C 1.18022 0.82815 0.34510
 O398 O 1.28396 0.71162 0.36317
 O399 O 1.19105 0.62452 0.24998
 O400 O 1.20294 0.70514 0.35082
 O401 O 1.16318 0.66873 0.30354
 O402 O 1.29615 0.61731 0.25120
 O403 O 1.33479 0.65676 0.30221
 C404 C 1.17211 0.67625 0.33878
 H405 H 1.24663 0.66475 0.20317
 H406 H 1.33814 0.74468 0.30532
 H407 H 1.15901 0.75535 0.30397
 H408 H 1.25434 0.84256 0.20566
 H409 H 1.39602 0.66903 0.24329
 H410 H 1.39917 0.83036 0.26041
 H411 H 1.34275 0.89237 0.25552
 H412 H 1.18003 0.90434 0.26519
 H413 H 1.32584 0.60201 0.24384
 H414 H 1.15825 0.61396 0.24815
 H415 H 1.10180 0.67666 0.25279
 H416 H 1.10719 0.84118 0.26727
 H417 H 1.36102 0.63609 0.29510
 H418 H 1.27216 0.72207 0.38834
 H419 H 1.23193 0.78509 0.12065
 H420 H 1.14363 0.87266 0.21438
 Zr421 Zr 0.74462 1.24848 0.17951
 O422 O 0.77821 1.20775 0.13748
 O423 O 0.70089 1.28973 0.14585
 O424 O 0.69691 1.20391 0.15251
 O425 O 0.83290 1.32916 0.18768
 O426 O 0.66012 1.16607 0.20158
 O427 O 0.79029 1.28833 0.14470
 O428 O 0.65654 1.32665 0.18990
 O429 O 0.68403 1.24953 0.21328
 O430 O 0.74544 1.31148 0.20853
 O431 O 0.74868 1.18962 0.21513
 O432 O 0.80782 1.24903 0.20992
 Zr433 Zr 0.75131 1.25511 0.31246
 Zr434 Zr 0.68999 1.19322 0.25100
 Zr435 Zr 0.80575 1.31066 0.24132
 Zr436 Zr 0.68663 1.31133 0.24338
 O437 O 0.87952 1.30651 0.24125
 O438 O 0.61381 1.29944 0.24847
 O439 O 0.74694 1.31473 0.27716
 O440 O 0.68892 1.25526 0.28144
 O441 O 0.75057 1.19177 0.28373
 O442 O 0.81133 1.25404 0.27822
 C443 C 0.66697 1.31648 0.15508
 C444 C 0.82252 1.31746 0.15351
 C445 C 0.66685 1.17468 0.16596
 O446 O 0.61659 1.19855 0.25618
 O447 O 0.66735 1.16972 0.30499
 O448 O 0.70876 1.21234 0.34758
 C449 C 0.67779 1.18181 0.33908
 O450 O 0.83864 1.16357 0.19771
 Zr451 Zr 0.80911 1.19254 0.24794
 O452 O 0.79455 1.21224 0.34556
 O453 O 0.69698 1.12019 0.25217
 O454 O 0.79869 1.11985 0.25149
 O455 O 0.88248 1.20215 0.24733
 O456 O 0.83417 1.17060 0.30119
 C457 C 0.82467 1.18140 0.33594
 O458 O 0.71551 1.29338 0.35489
 O459 O 0.79827 1.38334 0.23531
 O460 O 0.79526 1.30313 0.33967
 O461 O 0.83070 1.34252 0.29085
 O462 O 0.69391 1.38389 0.23501
 O463 O 0.66249 1.34710 0.29248
 C464 C 0.82291 1.33481 0.32650
 H465 H 0.74524 1.33870 0.19117
 H466 H 0.66167 1.25723 0.29874
 H467 H 0.84052 1.25585 0.29301
 H468 H 0.74883 1.16074 0.20004
 H469 H 0.59771 1.32796 0.23968
 H470 H 0.60419 1.16648 0.25732
 H471 H 0.66508 1.10732 0.25504
 H472 H 0.82906 1.10553 0.25801
 H473 H 0.66285 1.39620 0.22791
 H474 H 0.83015 1.39624 0.23236
 H475 H 0.89146 1.33872 0.23965
 H476 H 0.89697 1.17228 0.25486
 H477 H 0.63607 1.36753 0.28550
 H478 H 0.72848 1.28391 0.37989
 H479 H 0.76567 1.21764 0.11243
 H480 H 0.86009 1.13800 0.20469
 O481 O 0.45068 1.08564 0.02772
 O482 O 0.55600 0.90200 0.01493
 O483 O 0.41544 0.94567 0.02734
 O484 O 0.59196 1.04079 0.03221
 O485 O 0.47904 0.91227 0.04222
 O486 O 0.52730 1.06841 0.05221
 O487 O 0.58257 0.96106 0.04176
 O488 O 0.42645 1.02166 0.04788
 C489 C 0.42999 1.06349 0.05314
 C490 C 0.57944 0.91859 0.04108
 C491 C 0.43798 0.92112 0.05041
 C492 C 0.56926 1.06170 0.05756
 O493 O 0.56267 1.08675 -0.01690
 O494 O 0.44327 0.91075 -0.02826
 O495 O 0.41887 1.05336 -0.02696
 O496 O 0.58802 0.94626 -0.03561
 O497 O 0.52238 0.91984 -0.05429
 O498 O 0.48514 1.08179 -0.04335
 O499 O 0.58425 1.02727 -0.04585
 O500 O 0.42374 0.97678 -0.04766
 Co501 Co 0.50625 1.07164 0.00434
 Co502 Co 0.50037 0.92010 -0.00589
 Co503 Co 0.42874 0.99917 0.00007
 Co504 Co 0.57889 0.99409 -0.00191
 O505 O 0.50348 0.99623 -0.00112
 C506 C 0.58533 1.06983 -0.04356
 C507 C 0.42123 0.93469 -0.05170
 C508 C 0.44286 1.07750 -0.04955
 C509 C 0.56496 0.92445 -0.05993
 O510 O 0.98169 0.56330 0.55024
 O511 O 1.04518 0.40317 0.52851
 O512 O 0.90490 0.45901 0.51664
 O513 O 1.07027 0.54708 0.54501
 O514 O 0.95934 0.41421 0.54046
 O515 O 1.04283 0.61078 0.51848
 O516 O 1.07175 0.46455 0.55334
 O517 O 0.91640 0.54258 0.52518
 C518 C 0.93816 0.56144 0.55205
 C519 C 1.06937 0.42177 0.55321
 C520 C 0.91838 0.42922 0.54114
 C521 C 1.07099 0.59129 0.54266
 O522 O 1.02978 0.57008 0.45465
 O523 O 0.94532 0.40818 0.46836
 O524 O 0.94469 0.54807 0.44955
 O525 O 1.09270 0.45021 0.47750
 O526 O 1.03229 0.41024 0.45683
 O527 O 0.95969 0.60186 0.48594
 O528 O 1.09229 0.53564 0.46941
 O529 O 0.93485 0.47218 0.44144
 Co530 Co 1.00734 0.56332 0.50246
 Co531 Co 0.99596 0.41731 0.49847
 Co532 Co 0.93069 0.50458 0.48467
 Co533 Co 1.07446 0.49897 0.50992
 O534 O 1.00027 0.49359 0.49812
 C535 C 1.07100 0.56193 0.44719
 C536 C 0.93238 0.42999 0.43985
 C537 C 0.93970 0.58971 0.45640
 C538 C 1.07435 0.42218 0.45380
 O539 O 1.06591 0.47378 0.06506
 O540 O 1.06982 0.52230 -0.06426
 O541 O 1.06160 0.42326 -0.02526
 O542 O 1.06483 0.57586 0.03026
 O543 O 1.03243 0.44744 -0.07595
 O544 O 1.03107 0.55031 0.07916
 O545 O 1.05291 0.58649 -0.03593
 O546 O 1.04335 0.41145 0.03814
 C547 C 1.07289 0.43208 0.05829
 C548 C 1.07923 0.56367 -0.05810
 C549 C 1.06335 0.42485 -0.05998
 C550 C 1.06170 0.57564 0.06515
 O551 O 0.94760 0.51623 0.06682
 O552 O 0.94934 0.48718 -0.06609
 O553 O 0.94822 0.42337 0.02012
 O554 O 0.95616 0.58346 -0.02131
 O555 O 0.98833 0.56272 -0.07217
 O556 O 0.97976 0.43840 0.07206
 O557 O 0.96832 0.58234 0.04389
 O558 O 0.96608 0.42007 -0.04456
 Co559 Co 1.00654 0.49516 0.06310
 Co560 Co 1.00963 0.50424 -0.06217
 Co561 Co 1.00509 0.42678 -0.00261
 Co562 Co 1.01049 0.57474 0.00389
 O563 O 1.00794 0.50037 0.00053
 C564 C 0.93925 0.55815 0.06270
 C565 C 0.93945 0.44554 -0.06416
 C566 C 0.94682 0.42034 0.05495
 C567 C 0.95651 0.58414 -0.05617
 O568 O 0.53466 0.94306 0.57764
 O569 O 0.53260 1.05449 0.42834
 O570 O 0.54282 0.91193 0.46163
 O571 O 0.54186 1.08377 0.54429
 O572 O 0.56323 0.97573 0.43486
 O573 O 0.56501 1.02062 0.56902
 O574 O 0.56270 1.07655 0.47976
 O575 O 0.56396 0.91796 0.52669
 C576 C 0.56449 0.91862 0.56184
 C577 C 0.56314 1.07743 0.44461
 C578 C 0.56818 0.93301 0.43813
 C579 C 0.56862 1.06342 0.56652
 O580 O 0.47789 1.05166 0.57699
 O581 O 0.47689 0.94388 0.43011
 O582 O 0.47103 0.91031 0.54636
 O583 O 0.46948 1.08425 0.46218
 O584 O 0.44501 1.02143 0.43894
 O585 O 0.44684 0.97454 0.56862
 O586 O 0.44878 1.07443 0.52594
 O587 O 0.44985 0.91658 0.48154
 Co588 Co 0.50615 0.99740 0.56566
 Co589 Co 0.50462 0.99896 0.44046
 Co590 Co 0.50700 0.92217 0.50394
 Co591 Co 0.50593 1.07182 0.50320
 O592 O 0.50646 0.99754 0.50328
 C593 C 0.44555 1.07166 0.56075
 C594 C 0.44591 0.92142 0.44677
 C595 C 0.44003 0.93256 0.56356
 C596 C 0.43865 1.06338 0.44447
 O597 O 1.09261 1.04259 0.47089
 O598 O 0.90673 1.04201 0.53386
 O599 O 0.95699 1.03518 0.42259
 O600 O 1.04186 1.02601 0.58197
 O601 O 0.92595 1.06243 0.47181
 O602 O 1.07440 1.05729 0.53469
 O603 O 0.96837 1.06114 0.56349
 O604 O 1.03238 1.06564 0.44008
 C605 C 1.07325 1.07227 0.44974
 C606 C 0.92762 1.06999 0.55499
 C607 C 0.93310 1.06605 0.43749
 C608 C 1.06622 1.05797 0.56908
 O609 O 1.07640 0.96269 0.55122
 O610 O 0.92130 0.97021 0.44982
 O611 O 1.06771 0.98124 0.43359
 O612 O 0.92994 0.97710 0.56738
 O613 O 0.91670 0.94809 0.51399
 O614 O 1.08200 0.94749 0.48541
 O615 O 1.00700 0.94256 0.56637
 O616 O 0.98928 0.94934 0.43201
 Co617 Co 1.07385 1.00259 0.50972
 Co618 Co 0.92519 1.00542 0.49318
 Co619 Co 1.01027 1.00739 0.43917
 Co620 Co 0.98808 1.00192 0.56254
 O621 O 0.99941 1.00419 0.50113
 C622 C 1.04924 0.93438 0.56746
 C623 C 0.94681 0.94253 0.43162
 C624 C 1.08492 0.94755 0.45043
 C625 C 0.91246 0.94550 0.54875
 O626 O 0.57799 0.56704 -0.02458
 O627 O 0.42026 0.56220 0.02360
 O628 O 0.47454 0.56912 -0.06264
 O629 O 0.52286 0.56105 0.06687
 O630 O 0.41013 0.54363 -0.04135
 O631 O 0.58722 0.54194 0.03978
 O632 O 0.44453 0.53049 0.07423
 O633 O 0.55245 0.54038 -0.07589
 C634 C 0.57285 0.57215 -0.05932
 C635 C 0.42110 0.56150 0.05868
 C636 C 0.43191 0.57385 -0.05966
 C637 C 0.56527 0.56797 0.06215
 O638 O 0.58156 0.45076 0.01690
 O639 O 0.42092 0.45106 -0.02373
 O640 O 0.52138 0.45309 -0.06876
 O641 O 0.47762 0.44393 0.06207
 O642 O 0.41342 0.46918 0.04074
 O643 O 0.58640 0.47570 -0.04733
 O644 O 0.55610 0.47541 0.06901
 O645 O 0.44338 0.48278 -0.07420
 Co646 Co 0.57537 0.50883 -0.00361
 Co647 Co 0.42426 0.50683 -0.00042
 Co648 Co 0.49808 0.51092 -0.06326
 Co649 Co 0.50003 0.50304 0.06100
 O650 O 0.49954 0.50750 -0.00152
 C651 C 0.57619 0.44399 0.05135
 C652 C 0.42451 0.44907 -0.05855
 C653 C 0.56358 0.44574 -0.06486
 C654 C 0.43522 0.43785 0.05756
 C655 C 0.35829 1.08763 0.14408
 C656 C 0.34999 1.13594 0.13907
 C657 C 0.36859 1.15849 0.10694
 C658 C 0.39520 1.13454 0.08027
 C659 C 0.40529 1.08719 0.08499
 C660 C 0.38848 1.06376 0.11824
 C661 C 0.33657 1.06215 0.17382
 C662 C 0.34794 1.01583 0.18049
 C663 C 0.38107 0.99395 0.15776
 C664 C 0.40129 1.01749 0.12700
 H665 H 0.30982 1.07732 0.19160
 H666 H 0.33133 0.99697 0.20368
 H667 H 0.39086 0.95838 0.16378
 H668 H 0.42779 0.99915 0.11116
 H669 H 0.36292 1.19531 0.10257
 H670 H 0.40772 1.15341 0.05541
 C671 C 0.86998 0.65977 0.59846
 C672 C 0.87263 0.64713 0.63765
 C673 C 0.89858 0.60750 0.64766
 C674 C 0.91983 0.58002 0.61975
 C675 C 0.91229 0.58880 0.58098
 C676 C 0.88487 0.62784 0.57020
 C677 C 0.85408 0.70395 0.58640
 C678 C 0.84527 0.71331 0.54819
 C679 C 0.85268 0.67915 0.52122
 C680 C 0.87287 0.63711 0.53189
 H681 H 0.84976 0.73220 0.60599
 H682 H 0.83213 0.74698 0.53960
 H683 H 0.84399 0.68572 0.49172
 H684 H 0.87773 0.61205 0.50982
 H685 H 0.90237 0.59752 0.67728
 H686 H 0.94108 0.55078 0.62845
 C687 C 0.63610 0.81615 0.09535
 C688 C 0.65307 0.84049 0.12755
 C689 C 0.64453 0.88808 0.13035
 C690 C 0.62069 0.91186 0.10210
 C691 C 0.60538 0.88953 0.06907
 C692 C 0.61458 0.84115 0.06483
 C693 C 0.63915 0.76736 0.09300
 C694 C 0.62571 0.74403 0.06033
 C695 C 0.60920 0.76873 0.02918
 C696 C 0.60384 0.81668 0.03114
 H697 H 0.65088 0.74650 0.11653
 H698 H 0.62875 0.70666 0.05900
 H699 H 0.60022 0.75061 0.00335
 H700 H 0.59247 0.83353 0.00543
 H701 H 0.65664 0.90737 0.15473
 H702 H 0.61428 0.94852 0.10629
 C703 C 1.12544 0.31883 0.60690
 C704 C 1.14123 0.34191 0.63998
 C705 C 1.13197 0.38930 0.64401
 C706 C 1.10888 0.41415 0.61565
 C707 C 1.09546 0.39302 0.58152
 C708 C 1.10583 0.34494 0.57625
 C709 C 1.12815 0.27008 0.60379
 C710 C 1.11723 0.24798 0.56991
 C711 C 1.10373 0.27396 0.53842
 C712 C 1.09829 0.32186 0.54131
 H713 H 1.13771 0.24854 0.62770
 H714 H 1.11994 0.21062 0.56793
 H715 H 1.09700 0.25687 0.51166
 H716 H 1.08961 0.33996 0.51539
 H717 H 1.14327 0.40751 0.66919
 H718 H 1.10173 0.45054 0.62046
 C719 C 0.64267 1.17422 -0.09500
 C720 C 0.66364 1.15119 -0.12645
 C721 C 0.65921 1.10296 -0.12910
 C722 C 0.63457 1.07759 -0.10171
 C723 C 0.61496 1.09902 -0.06954
 C724 C 0.62192 1.14777 -0.06475
 C725 C 0.64031 1.22310 -0.09344
 C726 C 0.62340 1.24549 -0.06117
 C727 C 0.60955 1.21976 -0.02951
 C728 C 0.60908 1.17148 -0.03101
 H729 H 0.65014 1.24451 -0.11737
 H730 H 0.62182 1.28297 -0.06055
 H731 H 0.59863 1.23728 -0.00375
 H732 H 0.60006 1.15379 -0.00490
 H733 H 0.67434 1.08467 -0.15307
 H734 H 0.63057 1.04065 -0.10602
 C735 C 1.09536 0.64410 0.36332
 C736 C 1.14436 0.64936 0.36692
 C737 C 1.16788 0.62413 0.39497
 C738 C 1.14380 0.59386 0.41919
 C739 C 1.09549 0.58686 0.41562
 C740 C 1.07134 0.61039 0.38593
 C741 C 1.06950 0.67228 0.33806
 C742 C 1.02220 0.66420 0.33217
 C743 C 0.99992 0.62782 0.35107
 C744 C 1.02403 0.60112 0.37773
 H745 H 1.08542 0.70118 0.32314
 H746 H 1.00296 0.68572 0.31236
 H747 H 0.96372 0.62043 0.34518
 H748 H 1.00552 0.57249 0.39080
 H749 H 1.20531 0.62762 0.39799
 H750 H 1.16311 0.57661 0.44160
 C751 C 0.32864 0.91083 -0.12927
 C752 C 0.33920 0.86374 -0.13631
 C753 C 0.37370 0.84162 -0.11516
 C754 C 0.39957 0.86563 -0.08853
 C755 C 0.39091 0.91262 -0.08090
 C756 C 0.35363 0.93541 -0.10065
 C757 C 0.29242 0.93341 -0.14925
 C758 C 0.28046 0.97907 -0.14120
 C759 C 0.30343 1.00269 -0.11263
 C760 C 0.33909 0.98117 -0.09229
 H761 H 0.27248 0.91586 -0.17082
 H762 H 0.25263 0.99593 -0.15673
 H763 H 0.29332 1.03791 -0.10593
 H764 H 0.35384 1.00127 -0.06988
 H765 H 0.38146 0.80551 -0.11997
 H766 H 0.42702 0.84700 -0.07389
 C767 C 0.86326 0.40920 0.34816
 C768 C 0.84995 0.36226 0.35435
 C769 C 0.86651 0.33892 0.38659
 C770 C 0.89451 0.36087 0.41294
 C771 C 0.90870 0.40693 0.40752
 C772 C 0.89551 0.43057 0.37337
 C773 C 0.84478 0.43578 0.31786
 C774 C 0.86162 0.48009 0.30973
 C775 C 0.89710 0.49876 0.33151
 C776 C 0.91397 0.47447 0.36299
 H777 H 0.81655 0.42316 0.30067
 H778 H 0.84754 0.49975 0.28606
 H779 H 0.91131 0.53250 0.32426
 H780 H 0.94261 0.49009 0.37792
 H781 H 0.85793 0.30301 0.39140
 H782 H 0.90461 0.34155 0.43815
 C783 C 1.14473 0.33065 0.09883
 C784 C 1.16100 0.35090 0.13316
 C785 C 1.15250 0.39827 0.13913
 C786 C 1.12675 0.42473 0.11334
 C787 C 1.10946 0.40545 0.07968
 C788 C 1.12202 0.35893 0.07087
 C789 C 1.14883 0.28267 0.09192
 C790 C 1.13701 0.26407 0.05678
 C791 C 1.12023 0.29270 0.02799
 C792 C 1.11249 0.33957 0.03494
 H793 H 1.15973 0.25875 0.11371
 H794 H 1.14118 0.22729 0.05180
 H795 H 1.11237 0.27840 0.00035
 H796 H 1.10022 0.36044 0.01155
 H797 H 1.16480 0.41491 0.16473
 H798 H 1.11873 0.46026 0.12076
 C799 C 0.60479 0.82837 0.63556
 C800 C 0.65331 0.82808 0.62817
 C801 C 0.67090 0.85297 0.59679
 C802 C 0.64118 0.88056 0.57457
 C803 C 0.59397 0.88648 0.58479
 C804 C 0.57568 0.86078 0.61656
 C805 C 0.58491 0.79729 0.66246
 C806 C 0.53877 0.80191 0.67427
 C807 C 0.51156 0.83715 0.65917
 C808 C 0.52939 0.86587 0.63040
 H809 H 0.60508 0.76919 0.67452
 H810 H 0.52439 0.77862 0.69566
 H811 H 0.47614 0.84180 0.66937
 H812 H 0.50604 0.89200 0.62014
 H813 H 0.70793 0.85258 0.59040
 H814 H 0.65576 0.89963 0.55058
 C815 C 1.18026 0.64071 -0.09628
 C816 C 1.17112 0.63808 -0.13666
 C817 C 1.13769 0.60508 -0.14820
 C818 C 1.11048 0.58047 -0.12216
 C819 C 1.11429 0.58745 -0.08301
 C820 C 1.14999 0.61690 -0.06964
 C821 C 1.21957 0.66397 -0.08122
 C822 C 1.22621 0.66747 -0.04204
 C823 C 1.19496 0.64691 -0.01665
 C824 C 1.15760 0.62129 -0.03020
 H825 H 1.24732 0.67766 -0.09879
 H826 H 1.25639 0.68560 -0.03131
 H827 H 1.20058 0.64956 0.01372
 H828 H 1.13559 0.60386 -0.00952
 H829 H 1.13033 0.59921 -0.17801
 H830 H 1.08425 0.55722 -0.13311
 C831 C 0.60097 1.17104 0.37307
 C832 C 0.64926 1.16103 0.37008
 C833 C 0.66906 1.12809 0.39470
 C834 C 0.64112 1.10291 0.42045
 C835 C 0.59276 1.11021 0.42230
 C836 C 0.57264 1.14580 0.39945
 C837 C 0.58015 1.20593 0.35033
 C838 C 0.53269 1.21574 0.35338
 C839 C 0.50512 1.19156 0.37944
 C840 C 0.52484 1.15726 0.40236
 H841 H 0.60028 1.22638 0.33034
 H842 H 0.51737 1.24259 0.33576
 H843 H 0.46838 1.19970 0.38218
 H844 H 0.50240 1.14081 0.42283
 H845 H 0.70597 1.12024 0.39269
 H846 H 0.65700 1.07598 0.43769
 C847 C 0.84294 0.58401 0.13737
 C848 C 0.84506 0.63303 0.13644
 C849 C 0.87066 0.65517 0.10760
 C850 C 0.89796 0.62983 0.08228
 C851 C 0.90032 0.58116 0.08438
 C852 C 0.86954 0.55764 0.11045
 C853 C 0.81390 0.56074 0.16401
 C854 C 0.81046 0.51260 0.16409
 C855 C 0.83489 0.48687 0.13723
 C856 C 0.86363 0.50894 0.11046
 H857 H 0.79292 0.57951 0.18451
 H858 H 0.78795 0.49523 0.18460
 H859 H 0.83106 0.44956 0.13684
 H860 H 0.87912 0.48721 0.08914
 H861 H 0.87171 0.69271 0.10603
 H862 H 0.91949 0.64900 0.06214
 C863 C 0.33569 1.13749 0.59519
 C864 C 0.35157 1.15001 0.63224
 C865 C 0.39653 1.13671 0.64321
 C866 C 0.42496 1.11100 0.61974
 C867 C 0.41056 1.09750 0.58353
 C868 C 0.36508 1.10969 0.57115
 C869 C 0.29135 1.15058 0.58150
 C870 C 0.27572 1.13573 0.54611
 C871 C 0.30337 1.10696 0.52379
 C872 C 0.34741 1.09362 0.53621
 H873 H 0.26791 1.17224 0.59744
 H874 H 0.24154 1.14606 0.53621
 H875 H 0.29055 1.09472 0.49674
 H876 H 0.36682 1.07012 0.51828
 H877 H 0.41041 1.14626 0.67067
 H878 H 0.45918 1.10192 0.63036
 C879 C 0.84470 0.42277 -0.14130
 C880 C 0.84103 0.37391 -0.13738
 C881 C 0.86388 0.35206 -0.10713
 C882 C 0.89306 0.37677 -0.08302
 C883 C 0.90149 0.42453 -0.08819
 C884 C 0.87586 0.44842 -0.11749
 C885 C 0.81720 0.44672 -0.16827
 C886 C 0.82187 0.49426 -0.17378
 C887 C 0.85362 0.51901 -0.15241
 C888 C 0.88003 0.49675 -0.12455
 H889 H 0.79110 0.42912 -0.18485
 H890 H 0.80073 0.51201 -0.19474
 H891 H 0.85745 0.55595 -0.15715
 H892 H 0.90287 0.51897 -0.10917
 H893 H 0.86089 0.31488 -0.10310
 H894 H 0.91085 0.35747 -0.06089
 C895 C 0.33340 0.86450 0.40856
 C896 C 0.35132 0.84779 0.37320
 C897 C 0.39829 0.85567 0.36410
 C898 C 0.42727 0.87936 0.38845
 C899 C 0.41140 0.89536 0.42385
 C900 C 0.36389 0.88804 0.43431
 C901 C 0.28567 0.86047 0.41829
 C902 C 0.26849 0.87769 0.45266
 C903 C 0.29818 0.89987 0.47781
 C904 C 0.34531 0.90548 0.46872
 H905 H 0.26085 0.84501 0.39935
 H906 H 0.23176 0.87428 0.45961
 H907 H 0.28443 0.91344 0.50429
 H908 H 0.36650 0.92429 0.48863
 H909 H 0.41302 0.84355 0.33743
 H910 H 0.46290 0.88527 0.37916
 C911 C 1.10511 1.17499 0.38576
 C912 C 1.15066 1.16099 0.37516
 C913 C 1.17214 1.12423 0.39431
 C914 C 1.14759 1.09830 0.42128
 C915 C 1.10087 1.10862 0.42997
 C916 C 1.08017 1.14909 0.41399
 C917 C 1.08399 1.21435 0.36908
 C918 C 1.03949 1.22843 0.38052
 C919 C 1.01546 1.20384 0.40877
 C920 C 1.03550 1.16465 0.42553
 H921 H 1.10192 1.23474 0.34749
 H922 H 1.02377 1.25885 0.36771
 H923 H 0.98123 1.21538 0.41791
 H924 H 1.01622 1.14757 0.44821
 H925 H 1.20746 1.11402 0.38689
 H926 H 1.16435 1.06794 0.43338
 C927 C 0.60615 0.66103 -0.13718
 C928 C 0.65360 0.66668 -0.12814
 C929 C 0.66991 0.65071 -0.09302
 C930 C 0.64152 0.62312 -0.06960
 C931 C 0.59681 0.60961 -0.08142
 C932 C 0.57839 0.62964 -0.11556
 C933 C 0.58608 0.68579 -0.16789
 C934 C 0.54087 0.67656 -0.17959
 C935 C 0.51502 0.64260 -0.16092
 C936 C 0.53338 0.61979 -0.12924
 H937 H 0.60524 0.71267 -0.18289
 H938 H 0.52609 0.69543 -0.20339
 H939 H 0.48008 0.63468 -0.17038
 H940 H 0.51127 0.59530 -0.11576
 H941 H 0.70551 0.65737 -0.08467
 H942 H 0.65610 0.60920 -0.04353
 C943 C 0.90236 1.17637 0.61583
 C944 C 0.85913 1.16229 0.63184
 C945 C 0.83658 1.12313 0.61771
 C946 C 0.85784 1.09566 0.59025
 C947 C 0.90226 1.10662 0.57593
 C948 C 0.92375 1.14871 0.58704
 C949 C 0.92464 1.21735 0.62761
 C950 C 0.96653 1.23149 0.61062
 C951 C 0.98680 1.20519 0.58175
 C952 C 0.96575 1.16419 0.56994
 H953 H 0.90966 1.23886 0.64972
 H954 H 0.98320 1.26315 0.61973
 H955 H 1.01903 1.21658 0.56844
 H956 H 0.98226 1.14514 0.54705
 H957 H 0.80285 1.11275 0.62910
 H958 H 0.84051 1.06412 0.58185
 C959 C 0.33141 0.59948 0.13282
 C960 C 0.34191 0.64741 0.13426
 C961 C 0.37290 0.66690 0.10758
 C962 C 0.39649 0.63885 0.08151
 C963 C 0.38975 0.59077 0.08177
 C964 C 0.35554 0.57090 0.10644
 C965 C 0.29679 0.57943 0.15670
 C966 C 0.28654 0.53229 0.15490
 C967 C 0.31012 0.50429 0.12913
 C968 C 0.34403 0.52331 0.10504
 H969 H 0.27671 0.59993 0.17646
 H970 H 0.25984 0.51755 0.17332
 H971 H 0.30175 0.46776 0.12746
 H972 H 0.36007 0.50054 0.08486
 H973 H 0.38032 0.70373 0.10801
 H974 H 0.42177 0.65447 0.06223
 C975 C 1.07387 0.84770 0.64924
 C976 C 1.12186 0.83842 0.64064
 C977 C 1.13867 0.85085 0.60417
 C978 C 1.11293 0.87947 0.58029
 C979 C 1.06868 0.89580 0.59095
 C980 C 1.04736 0.87759 0.62486
 C981 C 1.05062 0.82528 0.68001
 C982 C 1.00442 0.83528 0.68907
 C983 C 0.97977 0.86698 0.66729
 C984 C 1.00060 0.88768 0.63551
 H985 H 1.06693 0.79796 0.69626
 H986 H 0.98751 0.81776 0.71280
 H987 H 0.94375 0.87466 0.67435
 H988 H 0.97826 0.91023 0.61959
 H989 H 1.17394 0.84247 0.59514
 H990 H 1.12908 0.89106 0.55385
 C991 C 0.64753 0.33593 0.08415
 C992 C 0.63910 0.33983 0.12432
 C993 C 0.60468 0.37094 0.13657
 C994 C 0.58359 0.40148 0.11168
 C995 C 0.59620 0.40380 0.07301
 C996 C 0.62733 0.36936 0.05842
 C997 C 0.67459 0.29949 0.06854
 C998 C 0.68519 0.29812 0.02981
 C999 C 0.66822 0.33204 0.00542
 C1000 C 0.63898 0.36672 0.01922
 H1001 H 0.68644 0.27035 0.08513
 H1002 H 0.70631 0.27016 0.01855
 H1003 H 0.67688 0.33088 -0.02463
 H1004 H 0.62575 0.39036 -0.00179
 H1005 H 0.59488 0.37352 0.16635
 H1006 H 0.55834 0.42526 0.12375
 C1007 C 0.92280 0.85318 0.35223
 C1008 C 0.87340 0.85555 0.35293
 C1009 C 0.85075 0.88057 0.38137
 C1010 C 0.87585 0.90585 0.40744
 C1011 C 0.92488 0.90774 0.40610
 C1012 C 0.94919 0.87966 0.37882
 C1013 C 0.94636 0.82333 0.32673
 C1014 C 0.99480 0.82086 0.32597
 C1015 C 1.02071 0.84734 0.35088
 C1016 C 0.99848 0.87588 0.37731
 H1017 H 0.92773 0.80069 0.30781
 H1018 H 1.01231 0.79791 0.30619
 H1019 H 1.05836 0.84518 0.35008
 H1020 H 1.02111 0.89333 0.39660
 H1021 H 0.81296 0.88153 0.38289
 H1022 H 0.85605 0.92550 0.42821
 C1023 C 0.35087 0.34519 -0.09137
 C1024 C 0.35131 0.35433 -0.13175
 C1025 C 0.37635 0.39285 -0.14540
 C1026 C 0.39991 0.42183 -0.12120
 C1027 C 0.40187 0.41293 -0.08202
 C1028 C 0.38008 0.37236 -0.06723
 C1029 C 0.32330 0.31002 -0.07371
 C1030 C 0.32857 0.29858 -0.03535
 C1031 C 0.36181 0.32086 -0.01369
 C1032 C 0.38752 0.35724 -0.02939
 H1033 H 0.29682 0.29072 -0.08794
 H1034 H 0.30764 0.27121 -0.02265
 H1035 H 0.36738 0.31026 0.01557
 H1036 H 0.41389 0.37235 -0.01164
 H1037 H 0.37724 0.40180 -0.17541
 H1038 H 0.41680 0.45194 -0.13375
 C1039 C 1.17389 0.37146 -0.10214
 C1040 C 1.15309 0.33942 -0.12741
 C1041 C 1.10447 0.33553 -0.12868
 C1042 C 1.07620 0.36330 -0.10620
 C1043 C 1.09568 0.39550 -0.08146
 C1044 C 1.14474 0.39950 -0.07861
 C1045 C 1.22264 0.37817 -0.10110
 C1046 C 1.24218 0.41099 -0.07698
 C1047 C 1.21365 0.43803 -0.05380
 C1048 C 1.16537 0.43251 -0.05449
 H1049 H 1.24599 0.35881 -0.11922
 H1050 H 1.27961 0.41590 -0.07658
 H1051 H 1.22896 0.46391 -0.03556
 H1052 H 1.14448 0.45487 -0.03655
 H1053 H 1.08816 0.31172 -0.14826
 H1054 H 1.03864 0.35998 -0.10842
 C1055 C 0.61739 0.83673 0.37342
 C1056 C 0.65869 0.85863 0.36048
 C1057 C 0.66956 0.90326 0.37288
 C1058 C 0.63996 0.92657 0.39813
 C1059 C 0.59846 0.90606 0.41152
 C1060 C 0.58634 0.86062 0.39843
 C1061 C 0.60590 0.79157 0.36100
 C1062 C 0.56419 0.77066 0.37198
 C1063 C 0.53291 0.79428 0.39511
 C1064 C 0.54351 0.83858 0.40803
 H1065 H 0.62885 0.77204 0.34248
 H1066 H 0.55581 0.73623 0.36205
 H1067 H 0.49996 0.77833 0.40291
 H1068 H 0.51658 0.85476 0.42459
 H1069 H 0.70096 0.92033 0.36266
 H1070 H 0.64957 0.96105 0.40727
 C1071 C 0.84695 0.63235 -0.10304
 C1072 C 0.86798 0.66492 -0.12844
 C1073 C 0.91634 0.67125 -0.12804
 C1074 C 0.94414 0.64566 -0.10344
 C1075 C 0.92439 0.61345 -0.07808
 C1076 C 0.87542 0.60708 -0.07701
 C1077 C 0.79888 0.62193 -0.10462
 C1078 C 0.77928 0.58825 -0.08063
 C1079 C 0.80686 0.56471 -0.05442
 C1080 C 0.85449 0.57385 -0.05252
 H1081 H 0.77625 0.63876 -0.12492
 H1082 H 0.74257 0.57999 -0.08257
 H1083 H 0.79141 0.53861 -0.03593
 H1084 H 0.87478 0.55373 -0.03250
 H1085 H 0.93289 0.69525 -0.14783
 H1086 H 0.98164 0.65043 -0.10468
 C1087 C 0.37053 1.16696 0.40485
 C1088 C 0.35323 1.14706 0.37106
 C1089 C 0.35895 1.09929 0.36513
 C1090 C 0.38334 1.07168 0.39088
 C1091 C 0.40207 1.09058 0.42405
 C1092 C 0.39233 1.13804 0.43260
 C1093 C 0.36845 1.21527 0.41119
 C1094 C 0.38246 1.23404 0.44566
 C1095 C 0.39913 1.20523 0.47431
 C1096 C 0.40420 1.15792 0.46785
 H1097 H 0.35717 1.23919 0.38945
 H1098 H 0.38003 1.27105 0.45024
 H1099 H 0.40881 1.21965 0.50151
 H1100 H 0.41632 1.13728 0.49118
 H1101 H 0.34555 1.08331 0.33962
 H1102 H 0.38960 1.03572 0.38369
 C1103 C 1.09327 0.66786 0.13911
 C1104 C 1.14257 0.66689 0.13594
 C1105 C 1.16365 0.63992 0.10754
 C1106 C 1.13675 0.61169 0.08408
 C1107 C 1.08817 0.60887 0.08889
 C1108 C 1.06586 0.63802 0.11616
 C1109 C 1.07062 0.69857 0.16451
 C1110 C 1.02227 0.69852 0.16855
 C1111 C 0.99548 0.66864 0.14697
 C1112 C 1.01682 0.63912 0.12082
 H1113 H 1.08995 0.72355 0.18089
 H1114 H 1.00550 0.72203 0.18830
 H1115 H 0.95788 0.66879 0.15014
 H1116 H 0.99420 0.61785 0.10428
 H1117 H 1.20132 0.63897 0.10471
 H1118 H 1.15425 0.59022 0.06317
 C1119 C 0.61309 1.16232 0.63019
 C1120 C 0.65620 1.14334 0.64163
 C1121 C 0.66936 1.09910 0.62933
 C1122 C 0.64059 1.07365 0.60520
 C1123 C 0.59755 1.09147 0.59305
 C1124 C 0.58283 1.13612 0.60660
 C1125 C 0.59893 1.20671 0.64293
 C1126 C 0.55546 1.22466 0.63361
 C1127 C 0.52500 1.19875 0.61196
 C1128 C 0.53816 1.15515 0.59883
 H1129 H 0.62107 1.22790 0.66051
 H1130 H 0.54509 1.25852 0.64377
 H1131 H 0.49069 1.21231 0.60552
 H1132 H 0.51170 1.13701 0.58365
 H1133 H 0.70211 1.08413 0.63855
 H1134 H 0.65217 1.03981 0.59579
 C1135 C 0.83273 0.36528 0.09230
 C1136 C 0.85130 0.33913 0.12312
 C1137 C 0.89958 0.33825 0.12860
 C1138 C 0.92941 0.36383 0.10542
 C1139 C 0.91232 0.39107 0.07549
 C1140 C 0.86362 0.39120 0.06795
 C1141 C 0.78417 0.36856 0.08641
 C1142 C 0.76641 0.39578 0.05691
 C1143 C 0.79641 0.42046 0.03292
 C1144 C 0.84449 0.41856 0.03839
 H1145 H 0.75939 0.35085 0.10470
 H1146 H 0.72912 0.39819 0.05290
 H1147 H 0.78228 0.44180 0.01028
 H1148 H 0.86604 0.43956 0.01973
 H1149 H 0.91436 0.31863 0.15204
 H1150 H 0.96645 0.36291 0.11143
 C1151 C 0.32281 0.89781 0.61099
 C1152 C 0.33909 0.85942 0.63305
 C1153 C 0.38497 0.84407 0.62780
 C1154 C 0.41437 0.86540 0.60160
 C1155 C 0.40200 0.90712 0.58381
 C1156 C 0.35525 0.92300 0.58732
 C1157 C 0.27643 0.91410 0.61405
 C1158 C 0.26210 0.95339 0.59386
 C1159 C 0.29358 0.97757 0.57071
 C1160 C 0.33975 0.96267 0.56739
 H1161 H 0.25099 0.89691 0.63218
 H1162 H 0.22638 0.96531 0.59633
 H1163 H 0.28209 1.00796 0.55512
 H1164 H 0.36283 0.98202 0.54864
 H1165 H 0.39770 0.81372 0.64296
 H1166 H 0.44800 0.84979 0.59637
 C1167 C 0.39561 1.17987 -0.10758
 C1168 C 0.37256 1.15587 -0.13696
 C1169 C 0.37669 1.10742 -0.13873
 C1170 C 0.40091 1.08273 -0.11083
 C1171 C 0.41978 1.10543 -0.07946
 C1172 C 0.41645 1.15434 -0.07734
 C1173 C 0.39969 1.22859 -0.10796
 C1174 C 0.42153 1.25133 -0.07804
 C1175 C 0.43635 1.22668 -0.04626
 C1176 C 0.43300 1.17860 -0.04560
 H1177 H 0.38734 1.24917 -0.13170
 H1178 H 0.42577 1.28838 -0.07875
 H1179 H 0.45066 1.24485 -0.02215
 H1180 H 0.44265 1.16065 -0.02003
 H1181 H 0.36045 1.08843 -0.16160
 H1182 H 0.40458 1.04558 -0.11356
 C1183 C 0.89125 0.69394 0.39779
 C1184 C 0.86721 0.66879 0.36923
 C1185 C 0.86688 0.62052 0.37114
 C1186 C 0.88937 0.59698 0.40025
 C1187 C 0.91407 0.62027 0.42886
 C1188 C 0.91444 0.66973 0.42812
 C1189 C 0.89356 0.74272 0.39644
 C1190 C 0.91593 0.76754 0.42483
 C1191 C 0.93738 0.74436 0.45467
 C1192 C 0.93701 0.69612 0.45629
 H1193 H 0.87852 0.76204 0.37331
 H1194 H 0.91649 0.80496 0.42387
 H1195 H 0.95437 0.76391 0.47681
 H1196 H 0.95348 0.68080 0.48056
 H1197 H 0.84835 0.60058 0.35003
 H1198 H 0.88737 0.55954 0.40007
 C1199 C 0.59155 1.13613 0.14518
 C1200 C 0.63925 1.14736 0.13872
 C1201 C 0.66274 1.12830 0.10746
 C1202 C 0.64008 1.09854 0.08279
 C1203 C 0.59329 1.08596 0.08887
 C1204 C 0.56929 1.10299 0.12154
 C1205 C 0.56501 1.15794 0.17402
 C1206 C 0.51933 1.14414 0.18197
 C1207 C 0.49920 1.10847 0.16139
 C1208 C 0.52375 1.08798 0.13147
 H1209 H 0.57882 1.18655 0.19004
 H1210 H 0.49964 1.16089 0.20444
 H1211 H 0.46422 1.09694 0.16842
 H1212 H 0.50695 1.05971 0.11696
 H1213 H 0.69917 1.13630 0.10215
 H1214 H 0.65917 1.08623 0.05807
 C1215 C 1.09582 0.67178 0.62727
 C1216 C 1.14405 0.66290 0.63166
 C1217 C 1.16683 0.63283 0.60656
 C1218 C 1.14238 0.61063 0.57780
 C1219 C 1.09461 0.61863 0.57255
 C1220 C 1.07071 0.64963 0.59751
 C1221 C 1.07202 0.70239 0.65196
 C1222 C 1.02444 0.71066 0.64790
 C1223 C 0.99974 0.68883 0.61929
 C1224 C 1.02236 0.65848 0.59451
 H1225 H 1.08993 0.72003 0.67465
 H1226 H 1.00652 0.73392 0.66716
 H1227 H 0.96277 0.69537 0.61633
 H1228 H 1.00116 0.64226 0.57343
 H1229 H 1.20381 0.62603 0.60959
 H1230 H 1.16103 0.58692 0.55932
 C1231 C 0.59501 0.84662 -0.14610
 C1232 C 0.64410 0.84229 -0.14104
 C1233 C 0.66487 0.86484 -0.11050
 C1234 C 0.63859 0.89195 -0.08574
 C1235 C 0.59028 0.89854 -0.09062
 C1236 C 0.56832 0.87681 -0.12210
 C1237 C 0.57158 0.82078 -0.17407
 C1238 C 0.52424 0.82749 -0.18087
 C1239 C 0.49922 0.85997 -0.15997
 C1240 C 0.52080 0.88443 -0.13090
 H1241 H 0.58930 0.79450 -0.19037
 H1242 H 0.50697 0.80759 -0.20265
 H1243 H 0.46271 0.86589 -0.16602
 H1244 H 0.49980 0.90996 -0.11646
 H1245 H 0.70215 0.86208 -0.10603
 H1246 H 0.65663 0.90769 -0.06213
 C1247 C 1.10402 0.35972 0.36116
 C1248 C 1.15162 0.34855 0.36719
 C1249 C 1.17310 0.36339 0.40079
 C1250 C 1.14840 0.38897 0.42800
 C1251 C 1.10189 0.40193 0.42188
 C1252 C 1.08037 0.38970 0.38692
 C1253 C 1.07880 0.34082 0.33057
 C1254 C 1.03376 0.35585 0.32249
 C1255 C 1.01293 0.38978 0.34474
 C1256 C 1.03574 0.40658 0.37673
 H1257 H 1.09306 0.31344 0.31327
 H1258 H 1.01520 0.34152 0.29856
 H1259 H 0.97869 0.40259 0.33743
 H1260 H 1.01840 0.43344 0.39282
 H1261 H 1.20933 0.35497 0.40610
 H1262 H 1.16548 0.39785 0.45437
 C1263 C 0.41352 0.85218 0.14313
 C1264 C 0.36448 0.84614 0.13992
 C1265 C 0.34156 0.86548 0.10853
 C1266 C 0.36589 0.89050 0.08074
 C1267 C 0.41417 0.89784 0.08334
 C1268 C 0.43814 0.88015 0.11578
 C1269 C 0.43896 0.83025 0.17247
 C1270 C 0.48641 0.83885 0.17699
 C1271 C 0.50947 0.86933 0.15248
 C1272 C 0.48578 0.88995 0.12225
 H1273 H 0.42281 0.80561 0.19174
 H1274 H 0.50529 0.82210 0.19987
 H1275 H 0.54601 0.87685 0.15681
 H1276 H 0.50515 0.91434 0.10488
 H1277 H 0.30419 0.86142 0.10552
 H1278 H 0.34660 0.90371 0.05656
 C1279 C 0.83064 0.40795 0.62318
 C1280 C 0.83708 0.35945 0.62776
 C1281 C 0.86499 0.33544 0.60176
 C1282 C 0.88919 0.35894 0.57317
 C1283 C 0.88570 0.40728 0.56895
 C1284 C 0.85499 0.43213 0.59344
 C1285 C 0.79996 0.43285 0.64720
 C1286 C 0.79438 0.48061 0.64287
 C1287 C 0.81863 0.50430 0.61432
 C1288 C 0.84841 0.48036 0.58976
 H1289 H 0.77954 0.41569 0.66913
 H1290 H 0.77089 0.49927 0.66158
 H1291 H 0.81405 0.54137 0.61094
 H1292 H 0.86548 0.49996 0.56774
 H1293 H 0.86945 0.29826 0.60444
 H1294 H 0.91185 0.33909 0.55453
 C1295 C 1.09644 1.14388 0.64800
 C1296 C 1.14513 1.14716 0.64152
 C1297 C 1.16526 1.12516 0.61021
 C1298 C 1.13832 1.09829 0.58625
 C1299 C 1.09092 1.09046 0.59419
 C1300 C 1.06956 1.11297 0.62581
 C1301 C 1.07387 1.17104 0.67600
 C1302 C 1.02679 1.16473 0.68452
 C1303 C 1.00133 1.13163 0.66514
 C1304 C 1.02226 1.10640 0.63590
 H1305 H 1.09219 1.19786 0.69105
 H1306 H 1.01006 1.18547 0.70629
 H1307 H 0.96485 1.12625 0.67212
 H1308 H 1.00068 1.08222 0.62155
 H1309 H 1.20234 1.12711 0.60517
 H1310 H 1.15536 1.08133 0.56245
 C1311 C 0.59745 0.66020 0.13628
 C1312 C 0.64429 0.64677 0.14311
 C1313 C 0.66460 0.61190 0.12123
 C1314 C 0.63870 0.58842 0.09425
 C1315 C 0.59166 0.59959 0.08748
 C1316 C 0.57127 0.63739 0.10746
 C1317 C 0.57659 0.69701 0.15657
 C1318 C 0.53170 0.71209 0.14793
 C1319 C 0.50689 0.69119 0.11885
 C1320 C 0.52633 0.65432 0.09868
 H1321 H 0.59501 0.71499 0.17875
 H1322 H 0.51636 0.74064 0.16346
 H1323 H 0.47255 0.70396 0.11165
 H1324 H 0.50635 0.64060 0.07543
 H1325 H 0.70070 0.60208 0.12564
 H1326 H 0.65554 0.56019 0.07928
 C1327 C 1.12906 0.83538 0.40458
 C1328 C 1.15808 0.85525 0.37577
 C1329 C 1.16509 0.90316 0.37479
 C1330 C 1.14295 0.93177 0.40082
 C1331 C 1.11296 0.91359 0.42886
 C1332 C 1.10643 0.86489 0.43158
 C1333 C 1.11957 0.78732 0.40571
 C1334 C 1.08932 0.76866 0.43310
 C1335 C 1.06767 0.79736 0.45962
 C1336 C 1.07580 0.84504 0.45886
 H1337 H 1.13452 0.76384 0.38510
 H1338 H 1.08230 0.73177 0.43351
 H1339 H 1.04404 0.78264 0.48066
 H1340 H 1.05739 0.86601 0.47949
 H1341 H 1.18734 0.91874 0.35311
 H1342 H 1.14829 0.96889 0.39833
 C1343 C 0.59301 0.34283 -0.13087
 C1344 C 0.64215 0.34806 -0.13247
 C1345 C 0.66386 0.37894 -0.10795
 C1346 C 0.63750 0.40800 -0.08478
 C1347 C 0.58833 0.40708 -0.08497
 C1348 C 0.56568 0.37201 -0.10664
 C1349 C 0.57059 0.30852 -0.15264
 C1350 C 0.52228 0.30408 -0.15201
 C1351 C 0.49555 0.33235 -0.12863
 C1352 C 0.51687 0.36472 -0.10519
 H1353 H 0.59016 0.28445 -0.17001
 H1354 H 0.50555 0.27813 -0.16933
 H1355 H 0.45803 0.32873 -0.12833
 H1356 H 0.49438 0.38240 -0.08548
 H1357 H 0.70150 0.38266 -0.10844
 H1358 H 0.65611 0.43311 -0.06789
 C1359 C 0.86177 1.17098 0.40298
 C1360 C 0.85032 1.15474 0.36574
 C1361 C 0.86662 1.11100 0.35447
 C1362 C 0.89414 1.08411 0.37783
 C1363 C 0.90699 1.09941 0.41384
 C1364 C 0.89177 1.14354 0.42660
 C1365 C 0.84519 1.21358 0.41753
 C1366 C 0.85934 1.22972 0.45296
 C1367 C 0.89036 1.20411 0.47481
 C1368 C 0.90656 1.16151 0.46189
 H1369 H 0.82089 1.23516 0.40259
 H1370 H 0.84642 1.26261 0.46337
 H1371 H 0.90190 1.21728 0.50195
 H1372 H 0.93153 1.14364 0.47957
 H1373 H 0.85783 1.09678 0.32697
 H1374 H 0.90476 1.05027 0.36765
 C1375 C 0.40087 0.67723 -0.12358
 C1376 C 0.36065 0.65885 -0.14110
 C1377 C 0.34308 0.61598 -0.12930
 C1378 C 0.36570 0.59022 -0.10150
 C1379 C 0.40635 0.60681 -0.08422
 C1380 C 0.42315 0.65158 -0.09399
 C1381 C 0.41955 0.72042 -0.13490
 C1382 C 0.45791 0.73903 -0.11615
 C1383 C 0.47821 0.71509 -0.08593
 C1384 C 0.46106 0.67176 -0.07479
 H1385 H 0.40460 0.74005 -0.15819
 H1386 H 0.47166 0.77240 -0.12482
 H1387 H 0.50761 0.73001 -0.07125
 H1388 H 0.47766 0.65438 -0.05108
 H1389 H 0.31181 0.60205 -0.14207
 H1390 H 0.35205 0.55617 -0.09439
 C1391 C 0.82075 0.89409 0.61393
 C1392 C 0.84358 0.85225 0.62370
 C1393 C 0.88362 0.83840 0.60372
 C1394 C 0.90345 0.86742 0.57613
 C1395 C 0.88345 0.91063 0.56803
 C1396 C 0.84080 0.92348 0.58568
 C1397 C 0.77869 0.90764 0.63202
 C1398 C 0.75681 0.94917 0.62210
 C1399 C 0.77642 0.97795 0.59429
 C1400 C 0.81805 0.96536 0.57623
 H1401 H 0.76218 0.88615 0.65364
 H1402 H 0.72444 0.95900 0.63598
 H1403 H 0.75927 1.01011 0.58662
 H1404 H 0.83189 0.98825 0.55446
 H1405 H 0.90100 0.80618 0.61098
 H1406 H 0.93637 0.85762 0.56306
 C1407 C 0.33480 0.36757 0.10165
 C1408 C 0.35877 0.34596 0.13213
 C1409 C 0.40731 0.35043 0.13442
 C1410 C 0.43208 0.37739 0.10816
 C1411 C 0.40927 0.40040 0.07827
 C1412 C 0.36043 0.39267 0.07336
 C1413 C 0.28562 0.36640 0.09939
 C1414 C 0.26242 0.38525 0.06826
 C1415 C 0.28768 0.40573 0.03883
 C1416 C 0.33595 0.40955 0.04133
 H1417 H 0.26454 0.35185 0.12185
 H1418 H 0.22478 0.38356 0.06675
 H1419 H 0.26984 0.41900 0.01403
 H1420 H 0.35357 0.42406 0.01703
 H1421 H 0.42612 0.33401 0.15754
 H1422 H 0.46916 0.38204 0.11250
   
