data_POSCAR
  _audit_creation_date              2014-09-24
  _audit_creation_method            'ToBaCCo'
  _symmetry_space_group_name_H-M    'P1'
  _symmetry_Int_Tables_number       1
  _symmetry_cell_setting            triclinic
  loop_
  _symmetry_equiv_pos_as_xyz
 x,y,z
_cell_length_a 60.2783
_cell_length_b 61.4018
_cell_length_c 61.1592
_cell_angle_alpha 89.885300
_cell_angle_beta 89.916100
_cell_angle_gamma 89.952900
loop_
  _atom_site_label
  _atom_site_type_symbol
  _atom_site_fract_x
  _atom_site_fract_y
  _atom_site_fract_z
N1 N 0.32825 0.34657 0.34673
 N2 N 0.36363 0.86438 -0.13391
 N3 N 0.85108 0.36162 -0.13933
 N4 N 0.85063 0.86275 0.34565
 N5 N 0.65080 0.65226 0.36677
 N6 N 0.66516 0.16901 -0.17622
 N7 N 0.17372 0.66461 -0.16936
 N8 N 0.14857 0.15994 0.32208
 N9 N 0.67042 0.34712 0.66018
 N10 N 0.64028 0.84131 1.15008
 N11 N 0.14036 0.35245 1.13623
 N12 N 0.18009 0.82161 0.66338
 N13 N 0.36829 0.65718 0.65914
 N14 N 0.33092 0.14146 1.13973
 N15 N 0.83316 0.64226 1.17436
 N16 N 0.85218 0.15229 0.65099
 N17 N 0.32986 0.33173 0.64586
 N18 N 0.34918 0.84098 0.16003
 N19 N 0.83380 0.36427 0.14294
 N20 N 0.85853 0.86087 0.65557
 N21 N 0.69045 0.68840 0.68331
 N22 N 0.64002 0.16294 0.15375
 N23 N 0.14840 0.65662 0.15131
 N24 N 0.15268 0.15371 0.66623
 N25 N 0.36329 0.61613 0.35740
 N26 N 0.33477 0.17034 0.81988
 N27 N 0.85827 0.65199 0.85688
 N28 N 0.83837 0.15164 0.33790
 N29 N 0.64227 0.32144 0.33740
 N30 N 0.67665 0.84583 0.85477
 N31 N 0.14585 0.36963 0.85013
 N32 N 0.14908 0.83970 0.35872
 O33 O 0.23356 1.01498 0.21680
 O34 O 0.20453 0.96671 0.23932
 O35 O 0.19961 1.00894 0.24272
 O36 O 0.23618 0.97337 0.21094
 O37 O 0.25923 0.97106 0.23888
 O38 O 0.22374 1.00942 0.26985
 O39 O 0.22723 0.96696 0.26758
 O40 O 0.25726 1.01335 0.24429
 Cu41 Cu 0.21605 0.99105 0.22475
 Cu42 Cu 0.24421 0.98993 0.25792
 C43 C 0.25036 1.02239 0.22693
 C44 C 0.21091 0.95873 0.25749
 C45 C 0.20564 1.01583 0.26132
 C46 C 0.25386 0.96605 0.21940
 O47 O 0.25387 0.52045 0.69638
 O48 O 0.21781 0.48235 0.72596
 O49 O 0.21970 0.52511 0.72199
 O50 O 0.25277 0.47867 0.70187
 O51 O 0.27552 0.48244 0.72993
 O52 O 0.24034 0.52609 0.75175
 O53 O 0.23997 0.48369 0.75462
 O54 O 0.27444 0.52445 0.72596
 Cu55 Cu 0.23371 0.50144 0.70873
 Cu56 Cu 0.25967 0.50436 0.74354
 C57 C 0.27019 0.52910 0.70613
 C58 C 0.22301 0.47599 0.74503
 C59 C 0.22449 0.53356 0.74035
 C60 C 0.27006 0.47300 0.71231
 O61 O 0.74373 -0.02447 0.26397
 O62 O 0.70454 0.01665 0.24262
 O63 O 0.71217 -0.02459 0.23507
 O64 O 0.73560 0.01582 0.27275
 O65 O 0.76029 0.02502 0.24767
 O66 O 0.73545 -0.01425 0.20918
 O67 O 0.72946 0.02683 0.21819
 O68 O 0.76737 -0.01596 0.23767
 Cu69 Cu 0.72148 -0.00503 0.25608
 Cu70 Cu 0.75060 0.00639 0.22567
 C71 C 0.76213 -0.02738 0.25422
 C72 C 0.71045 0.02892 0.22686
 C73 C 0.71974 -0.02641 0.21577
 C74 C 0.75216 0.02710 0.26675
 O75 O 0.77697 0.48484 0.76055
 O76 O 0.75077 0.53145 0.73294
 O77 O 0.74703 0.48881 0.73021
 O78 O 0.78096 0.52679 0.76249
 O79 O 0.80748 0.52477 0.73764
 O80 O 0.77232 0.48910 0.70406
 O81 O 0.77707 0.53093 0.70777
 O82 O 0.80193 0.48283 0.73417
 Cu83 Cu 0.76123 0.50804 0.74903
 Cu84 Cu 0.79231 0.50687 0.71834
 C85 C 0.79380 0.47576 0.75200
 C86 C 0.75967 0.53940 0.71587
 C87 C 0.75390 0.48248 0.71162
 C88 C 0.80014 0.53206 0.75569
 O89 O 0.29310 0.51479 0.22467
 O90 O 0.25922 0.47958 0.18975
 O91 O 0.26430 0.52134 0.19455
 O92 O 0.28735 0.47251 0.22148
 O93 O 0.26141 0.47444 0.24692
 O94 O 0.23656 0.52120 0.21818
 O95 O 0.23311 0.47884 0.21511
 O96 O 0.26611 0.51644 0.24908
 Cu97 Cu 0.27874 0.49681 0.20519
 Cu98 Cu 0.24656 0.49781 0.23475
 C99 C 0.28525 0.52212 0.24245
 C100 C 0.24048 0.47301 0.19653
 C101 C 0.24642 0.52957 0.20183
 C102 C 0.27844 0.46527 0.23892
 O103 O 0.78139 1.02948 0.80658
 O104 O 0.81351 0.98471 0.78153
 O105 O 0.81376 1.02705 0.77797
 O106 O 0.78221 0.98735 0.81069
 O107 O 0.75793 0.98412 0.78393
 O108 O 0.78810 1.02563 0.75228
 O109 O 0.78920 0.98361 0.75458
 O110 O 0.75635 1.02649 0.78044
 Cu111 Cu 0.80023 1.00743 0.79687
 Cu112 Cu 0.77036 1.00466 0.76521
 C113 C 0.76336 1.03558 0.79770
 C114 C 0.80683 0.97673 0.76355
 C115 C 0.80619 1.03327 0.75962
 C116 C 0.76486 0.97872 0.80280
 O117 O 0.75069 0.51168 0.25697
 O118 O 0.71553 0.47126 0.28484
 O119 O 0.72223 0.51348 0.28902
 O120 O 0.74585 0.46973 0.25432
 O121 O 0.77065 0.46310 0.28003
 O122 O 0.74999 0.50910 0.31212
 O123 O 0.74097 0.46750 0.31049
 O124 O 0.77783 0.50480 0.28015
 Cu125 Cu 0.73082 0.49207 0.26893
 Cu126 Cu 0.76242 0.48556 0.29819
 C127 C 0.77039 0.51489 0.26351
 C128 C 0.72220 0.46253 0.30247
 C129 C 0.73267 0.51921 0.30615
 C130 C 0.76223 0.45879 0.26154
 O131 O 0.29396 0.01527 0.73483
 O132 O 0.25933 -0.02925 0.71274
 O133 O 0.26086 0.01287 0.70732
 O134 O 0.29334 -0.02719 0.73812
 O135 O 0.27071 -0.02380 0.76632
 O136 O 0.23811 0.01687 0.73535
 O137 O 0.23608 -0.02511 0.74038
 O138 O 0.27061 0.01873 0.76246
 Cu139 Cu 0.27920 -0.00736 0.72047
 Cu140 Cu 0.25162 -0.00309 0.75400
 C141 C 0.28788 0.02479 0.75230
 C142 C 0.24174 -0.03467 0.72287
 C143 C 0.24404 0.02181 0.71601
 C144 C 0.28748 -0.03261 0.75728
 O145 O 0.23872 0.22606 0.96489
 O146 O 0.21825 0.26215 1.00874
 O147 O 0.21991 0.26458 0.96644
 O148 O 0.23579 0.22366 1.00735
 O149 O 0.26940 0.23777 1.00898
 O150 O 0.25286 0.28003 0.96913
 O151 O 0.25175 0.27629 1.01186
 O152 O 0.27143 0.24219 0.96649
 Cu153 Cu 0.22486 0.24259 0.98651
 Cu154 Cu 0.26469 0.26058 0.98938
 C155 C 0.25852 0.22825 0.95805
 C156 C 0.23167 0.27510 1.01805
 C157 C 0.23353 0.27935 0.96088
 C158 C 0.25524 0.22374 1.01527
 O159 O 0.26765 0.75804 0.47238
 O160 O 0.29035 0.72577 0.51798
 O161 O 0.28866 0.72095 0.47552
 O162 O 0.26787 0.76174 0.51502
 O163 O 0.23691 0.74279 0.51846
 O164 O 0.25629 0.70424 0.47699
 O165 O 0.25900 0.70733 0.51997
 O166 O 0.23535 0.74154 0.47611
 Cu167 Cu 0.28182 0.74338 0.49487
 Cu168 Cu 0.24379 0.72204 0.49794
 C169 C 0.24757 0.75558 0.46667
 C170 C 0.27840 0.71133 0.52707
 C171 C 0.27574 0.70588 0.46920
 C172 C 0.24904 0.75872 0.52395
 O173 O 0.26973 0.77252 -0.01993
 O174 O 0.24409 0.73185 0.01595
 O175 O 0.24146 0.74049 -0.02558
 O176 O 0.26738 0.76715 0.02253
 O177 O 0.23735 0.78746 0.02615
 O178 O 0.21104 0.75957 -0.01943
 O179 O 0.21516 0.75338 0.02115
 O180 O 0.23966 0.79286 -0.01771
 Cu181 Cu 0.25869 0.75104 -0.00221
 Cu182 Cu 0.22344 0.77596 0.00228
 C183 C 0.25898 0.78939 -0.02538
 C184 C 0.22552 0.73569 0.02491
 C185 C 0.22139 0.74518 -0.03022
 C186 C 0.25635 0.78163 0.03279
 O187 O 0.24161 0.25605 0.47171
 O188 O 0.21496 0.22624 0.51762
 O189 O 0.21636 0.22153 0.47530
 O190 O 0.24307 0.25786 0.51432
 O191 O 0.21454 0.28037 0.51295
 O192 O 0.18803 0.24420 0.47225
 O193 O 0.18595 0.24803 0.51480
 O194 O 0.21273 0.27817 0.47036
 Cu195 Cu 0.23186 0.23822 0.49489
 Cu196 Cu 0.19741 0.26491 0.49258
 C197 C 0.23143 0.27210 0.46308
 C198 C 0.19570 0.23209 0.52386
 C199 C 0.19791 0.22670 0.46687
 C200 C 0.23347 0.27511 0.52056
 O201 O 0.80249 0.75730 1.03558
 O202 O 0.76656 0.78384 0.99437
 O203 O 0.77001 0.78414 1.03689
 O204 O 0.80179 0.75959 0.99235
 O205 O 0.77960 0.73101 0.99226
 O206 O 0.74732 0.75586 1.03739
 O207 O 0.74412 0.75541 0.99539
 O208 O 0.78042 0.72864 1.03519
 Cu209 Cu 0.78757 0.77395 1.01461
 Cu210 Cu 0.76078 0.73976 1.01504
 C211 C 0.79707 0.73863 1.04289
 C212 C 0.74899 0.77417 0.98820
 C213 C 0.75341 0.77425 1.04483
 C214 C 0.79601 0.74144 0.98435
 O215 O 0.73169 0.26078 0.47438
 O216 O 0.77176 0.24293 0.51539
 O217 O 0.76380 0.23291 0.47422
 O218 O 0.73695 0.26781 0.51601
 O219 O 0.71350 0.24109 0.52327
 O220 O 0.73908 0.20726 0.48122
 O221 O 0.75000 0.21528 0.52376
 O222 O 0.70850 0.23443 0.48353
 Cu223 Cu 0.75346 0.25370 0.49423
 Cu224 Cu 0.72651 0.22142 0.50461
 C225 C 0.71336 0.25095 0.47188
 C226 C 0.76764 0.22623 0.52681
 C227 C 0.75510 0.21452 0.46990
 C228 C 0.72026 0.26038 0.52638
 O229 O 0.72075 0.29177 0.02034
 O230 O 0.69560 0.26084 -0.02387
 O231 O 0.69955 0.25666 0.01703
 O232 O 0.72362 0.29477 -0.02366
 O233 O 0.75415 0.27498 -0.02444
 O234 O 0.72921 0.23585 0.01326
 O235 O 0.72674 0.24248 -0.02878
 O236 O 0.75144 0.27223 0.01784
 Cu237 Cu 0.70741 0.27854 -0.00292
 Cu238 Cu 0.74339 0.25438 -0.00577
 C239 C 0.74000 0.28703 0.02713
 C240 C 0.70663 0.24640 -0.03389
 C241 C 0.71041 0.23950 0.02181
 C242 C 0.74316 0.29135 -0.03085
 O243 O 0.77399 0.77305 0.47691
 O244 O 0.75165 0.74474 0.52587
 O245 O 0.74555 0.74172 0.48366
 O246 O 0.78448 0.77163 0.51812
 O247 O 0.75941 0.79737 0.52309
 O248 O 0.71982 0.76697 0.48839
 O249 O 0.72549 0.76990 0.52826
 O250 O 0.74722 0.79742 0.48015
 Cu251 Cu 0.76647 0.75527 0.50074
 Cu252 Cu 0.73637 0.78606 0.50573
 C253 C 0.76391 0.78995 0.47003
 C254 C 0.73428 0.75242 0.53499
 C255 C 0.72611 0.74887 0.48039
 C256 C 0.77863 0.78950 0.52662
 O257 O 0.96247 0.24898 0.20526
 O258 O 1.00620 0.22565 0.24005
 O259 O 0.96325 0.22777 0.24214
 O260 O 1.00594 0.24725 0.20375
 O261 O 1.00818 0.27794 0.22233
 O262 O 0.96426 0.25921 0.25955
 O263 O 1.00712 0.25613 0.25916
 O264 O 0.96508 0.28020 0.22286
 Cu265 Cu 0.98422 0.23434 0.22088
 Cu266 Cu 0.98646 0.27152 0.24274
 C267 C 0.95623 0.26854 0.20814
 C268 C 1.01387 0.23682 0.25575
 C269 C 0.95637 0.24019 0.25731
 C270 C 1.01459 0.26586 0.20672
 O271 O 0.51733 0.30771 0.75154
 O272 O 0.48131 0.27190 0.78475
 O273 O 0.52403 0.27816 0.78088
 O274 O 0.47435 0.30207 0.75591
 O275 O 0.47651 0.27858 0.72873
 O276 O 0.52389 0.25184 0.75634
 O277 O 0.48067 0.24808 0.75776
 O278 O 0.52002 0.28174 0.72675
 Cu279 Cu 0.49911 0.29249 0.77084
 Cu280 Cu 0.50036 0.26260 0.73974
 C281 C 0.52558 0.30035 0.73390
 C282 C 0.47431 0.25417 0.77657
 C283 C 0.53248 0.26096 0.77294
 C284 C 0.46683 0.29441 0.73815
 O285 O 0.02238 0.25037 0.78725
 O286 O -0.02361 0.22424 0.75846
 O287 O 0.01935 0.22687 0.75210
 O288 O -0.02081 0.24878 0.79216
 O289 O -0.02487 0.27810 0.77156
 O290 O 0.01607 0.25693 0.73251
 O291 O -0.02727 0.25315 0.73717
 O292 O 0.01796 0.28030 0.76769
 Cu293 Cu -0.00017 0.23460 0.77448
 Cu294 Cu -0.00496 0.27001 0.75008
 C295 C 0.02808 0.26971 0.78253
 C296 C -0.03354 0.23431 0.74326
 C297 C 0.02499 0.23849 0.73577
 C298 C -0.02994 0.26710 0.78844
 O299 O 0.45008 0.24860 0.26500
 O300 O 0.49772 0.22138 0.23863
 O301 O 0.45442 0.21748 0.23647
 O302 O 0.49232 0.25437 0.26464
 O303 O 0.49451 0.23130 0.29237
 O304 O 0.45735 0.19324 0.26301
 O305 O 0.50014 0.19880 0.26669
 O306 O 0.45139 0.22428 0.29164
 Cu307 Cu 0.47335 0.23765 0.24832
 Cu308 Cu 0.47590 0.20958 0.28121
 C309 C 0.44261 0.24091 0.28286
 C310 C 0.50746 0.20587 0.24859
 C311 C 0.44930 0.19921 0.24473
 C312 C 0.49994 0.24917 0.28322
 O313 O 1.02666 0.75859 0.72655
 O314 O 0.98249 0.73049 0.75743
 O315 O 1.02596 0.72910 0.75666
 O316 O 0.98326 0.75967 0.72622
 O317 O 0.98201 0.73352 0.70149
 O318 O 1.02436 0.70291 0.73203
 O319 O 0.98102 0.70506 0.73197
 O320 O 1.02532 0.73294 0.70135
 Cu321 Cu 1.00466 0.74705 0.74424
 Cu322 Cu 1.00328 0.71598 0.71421
 C323 C 1.03361 0.75048 0.70873
 C324 C 0.97392 0.71324 0.74970
 C325 C 1.03249 0.71081 0.74944
 C326 C 0.97510 0.75160 0.70886
 O327 O 0.52018 0.74963 0.23255
 O328 O 0.48123 0.72668 0.27223
 O329 O 0.52421 0.72482 0.26684
 O330 O 0.47768 0.74984 0.23696
 O331 O 0.47416 0.71987 0.21739
 O332 O 0.52177 0.69574 0.24578
 O333 O 0.47897 0.69649 0.25283
 O334 O 0.51723 0.72029 0.21192
 Cu335 Cu 0.50113 0.74065 0.25426
 Cu336 Cu 0.49763 0.70509 0.22998
 C337 C 0.52536 0.73905 0.21550
 C338 C 0.47334 0.70778 0.26936
 C339 C 0.53123 0.70618 0.26100
 C340 C 0.46793 0.73906 0.22209
 O341 O 0.01310 0.73180 0.29894
 O342 O -0.02803 0.70750 0.26194
 O343 O 0.01467 0.70393 0.26775
 O344 O -0.03013 0.73505 0.29377
 O345 O -0.02529 0.76198 0.27030
 O346 O 0.01984 0.73079 0.24420
 O347 O -0.02239 0.73405 0.23813
 O348 O 0.01775 0.75907 0.27579
 Cu349 Cu -0.00821 0.71696 0.28304
 Cu350 Cu -0.00205 0.74928 0.25483
 C351 C 0.02279 0.74933 0.29344
 C352 C -0.03203 0.71650 0.24365
 C353 C 0.02498 0.71210 0.25159
 C354 C -0.03564 0.75360 0.28635
 O355 O 0.49335 0.77836 0.78267
 O356 O 0.53752 0.75246 0.74933
 O357 O 0.49440 0.75791 0.74543
 O358 O 0.53641 0.77497 0.78522
 O359 O 0.53290 0.74375 0.80284
 O360 O 0.48989 0.72693 0.76327
 O361 O 0.53209 0.72155 0.76705
 O362 O 0.48917 0.74743 0.80060
 Cu363 Cu 0.51585 0.76900 0.76387
 Cu364 Cu 0.51045 0.73195 0.78542
 C365 C 0.48355 0.76708 0.79722
 C366 C 0.54229 0.73250 0.75261
 C367 C 0.48492 0.73958 0.74752
 C368 C 0.54227 0.76217 0.80045
 C369 C 0.34901 0.31368 0.33554
 C370 C 0.36728 0.30377 0.32545
 C371 C 0.38410 0.31681 0.31602
 C372 C 0.38271 0.33955 0.31755
 C373 C 0.36468 0.34929 0.32808
 C374 C 0.34748 0.33648 0.33681
 C375 C 0.40202 0.30692 0.30525
 C376 C 0.40359 0.28414 0.30428
 C377 C 0.38715 0.27112 0.31442
 C378 C 0.36896 0.28101 0.32468
 C379 C 0.38925 0.24838 0.31425
 C380 C 0.40747 0.23860 0.30414
 C381 C 0.42354 0.25137 0.29355
 C382 C 0.42148 0.27413 0.29356
 H383 H 0.33582 0.30370 0.34225
 H384 H 0.39556 0.34981 0.31064
 H385 H 0.36397 0.36687 0.32922
 H386 H 0.41478 0.31691 0.29777
 H387 H 0.35621 0.27102 0.33219
 H388 H 0.37689 0.23818 0.32207
 H389 H 0.40886 0.22101 0.30427
 H390 H 0.43407 0.28403 0.28567
 C391 C 0.38695 0.83302 0.85471
 C392 C 0.40592 0.82455 0.84443
 C393 C 0.42168 0.83887 0.83509
 C394 C 0.41848 0.86143 0.83678
 C395 C 0.39973 0.86972 0.84739
 C396 C 0.38366 0.85565 0.85627
 C397 C 0.44026 0.83041 0.82408
 C398 C 0.44342 0.80780 0.82256
 C399 C 0.42797 0.79354 0.83252
 C400 C 0.40927 0.80199 0.84323
 C401 C 0.43139 0.77101 0.83149
 C402 C 0.44975 0.76259 0.82044
 C403 C 0.46494 0.77649 0.80994
 C404 C 0.46172 0.79916 0.81115
 H405 H 0.37454 0.82200 0.86123
 H406 H 0.43044 0.87267 0.82985
 H407 H 0.39762 0.88719 0.84850
 H408 H 0.45218 0.84140 0.81667
 H409 H 0.39730 0.79100 0.85059
 H410 H 0.41978 0.75986 0.83912
 H411 H 0.45178 0.74508 0.81971
 H412 H 0.47340 0.81005 0.80325
 C413 C -0.12484 0.33043 0.85033
 C414 C -0.10556 0.32220 0.84038
 C415 C -0.08975 0.33677 0.83152
 C416 C -0.09294 0.35926 0.83371
 C417 C -0.11192 0.36730 0.84399
 C418 C -0.12833 0.35305 0.85194
 C419 C -0.07122 0.32867 0.82028
 C420 C -0.06813 0.30616 0.81799
 C421 C -0.08331 0.29154 0.82779
 C422 C -0.10202 0.29965 0.83881
 C423 C -0.07972 0.26902 0.82602
 C424 C -0.06170 0.26107 0.81402
 C425 C -0.04720 0.27548 0.80333
 C426 C -0.05032 0.29803 0.80566
 H427 H -0.13740 0.31929 0.85632
 H428 H -0.08086 0.37066 0.82726
 H429 H -0.11408 0.38475 0.84537
 H430 H -0.05940 0.33989 0.81304
 H431 H -0.11395 0.28843 0.84588
 H432 H -0.09107 0.25757 0.83358
 H433 H -0.05961 0.24363 0.81235
 H434 H -0.03904 0.30923 0.79761
 C435 C -0.13031 0.82951 0.33283
 C436 C -0.11234 0.81915 0.32275
 C437 C -0.09599 0.83167 0.31194
 C438 C -0.09794 0.85447 0.31162
 C439 C -0.11561 0.86473 0.32238
 C440 C -0.13188 0.85235 0.33321
 C441 C -0.07784 0.82120 0.30203
 C442 C -0.07558 0.79844 0.30339
 C443 C -0.09183 0.78609 0.31461
 C444 C -0.11023 0.79647 0.32390
 C445 C -0.08931 0.76351 0.31662
 C446 C -0.07084 0.75316 0.30767
 C447 C -0.05471 0.76512 0.29621
 C448 C -0.05723 0.78781 0.29400
 H449 H -0.14289 0.81979 0.34092
 H450 H -0.08554 0.86437 0.30350
 H451 H -0.11637 0.88234 0.32262
 H452 H -0.06531 0.83076 0.29364
 H453 H -0.12269 0.78693 0.33242
 H454 H -0.10159 0.75385 0.32523
 H455 H -0.06936 0.73566 0.30944
 H456 H -0.04479 0.79717 0.28529
 C457 C 0.62917 0.66151 0.33373
 C458 C 0.61100 0.67155 0.32363
 C459 C 0.59639 0.68458 0.33614
 C460 C 0.60007 0.68701 0.35862
 C461 C 0.61782 0.67634 0.36868
 C462 C 0.63244 0.66334 0.35640
 C463 C 0.57821 0.69469 0.32604
 C464 C 0.57406 0.69135 0.30374
 C465 C 0.58841 0.67786 0.29138
 C466 C 0.60698 0.66838 0.30131
 C467 C 0.58376 0.67382 0.26934
 C468 C 0.56499 0.68291 0.25962
 C469 C 0.55084 0.69659 0.27163
 C470 C 0.55556 0.70094 0.29366
 H471 H 0.64065 0.65194 0.32404
 H472 H 0.58901 0.69686 0.36849
 H473 H 0.61987 0.67808 0.38612
 H474 H 0.56709 0.70480 0.33561
 H475 H 0.61804 0.65816 0.29178
 H476 H 0.59451 0.66346 0.25966
 H477 H 0.56167 0.67948 0.24256
 H478 H 0.54455 0.71133 0.30304
 C479 C 0.63913 0.19912 0.81526
 C480 C 0.61876 0.20674 0.80724
 C481 C 0.60324 0.19188 0.79851
 C482 C 0.60809 0.16955 0.79868
 C483 C 0.62818 0.16203 0.80728
 C484 C 0.64409 0.17672 0.81535
 C485 C 0.58313 0.19960 0.78984
 C486 C 0.57816 0.22194 0.79030
 C487 C 0.59340 0.23664 0.79981
 C488 C 0.61369 0.22900 0.80795
 C489 C 0.58813 0.25882 0.80104
 C490 C 0.56804 0.26646 0.79275
 C491 C 0.55303 0.25217 0.78267
 C492 C 0.55817 0.22987 0.78147
 H493 H 0.65119 0.21067 0.82138
 H494 H 0.59629 0.15787 0.79232
 H495 H 0.63131 0.14467 0.80759
 H496 H 0.57135 0.18823 0.78285
 H497 H 0.62547 0.24036 0.81494
 H498 H 0.59956 0.27027 0.80839
 H499 H 0.56447 0.28373 0.79372
 H500 H 0.54657 0.21873 0.77388
 C501 C 1.13680 0.66489 0.81256
 C502 C 1.11931 0.67612 0.80239
 C503 C 1.11991 0.69910 0.80105
 C504 C 1.13820 0.71040 0.80941
 C505 C 1.15583 0.69906 0.81887
 C506 C 1.15535 0.67621 0.82066
 C507 C 1.10236 0.71042 0.79115
 C508 C 1.08454 0.69902 0.78191
 C509 C 1.08424 0.67599 0.78267
 C510 C 1.10143 0.66471 0.79323
 C511 C 1.06689 0.66464 0.77254
 C512 C 1.05009 0.67598 0.76162
 C513 C 1.05004 0.69884 0.76118
 C514 C 1.06722 0.71028 0.77153
 H515 H 1.13605 0.64732 0.81405
 H516 H 1.13901 0.72800 0.80837
 H517 H 1.16998 0.70818 0.82473
 H518 H 1.10276 0.72807 0.79030
 H519 H 1.10110 0.64706 0.79396
 H520 H 1.06645 0.64700 0.77282
 H521 H 1.03697 0.66690 0.75370
 H522 H 1.06744 0.72793 0.77093
 C523 C 1.11216 0.17790 0.31689
 C524 C 1.09551 0.18619 0.30326
 C525 C 1.09610 0.18176 0.28060
 C526 C 1.11364 0.16947 0.27195
 C527 C 1.13074 0.16213 0.28551
 C528 C 1.13022 0.16627 0.30813
 C529 C 1.07948 0.19014 0.26693
 C530 C 1.06282 0.20364 0.27551
 C531 C 1.06266 0.20860 0.29809
 C532 C 1.07871 0.19945 0.31189
 C533 C 1.04665 0.22293 0.30645
 C534 C 1.03099 0.23238 0.29255
 C535 C 1.03072 0.22719 0.27022
 C536 C 1.04658 0.21267 0.26180
 H537 H 1.11147 0.18110 0.33429
 H538 H 1.11448 0.16608 0.25458
 H539 H 1.14460 0.15359 0.27824
 H540 H 1.07983 0.18662 0.24955
 H541 H 1.07848 0.20314 0.32923
 H542 H 1.04638 0.22701 0.32368
 H543 H 1.01882 0.24349 0.29931
 H544 H 1.04657 0.20883 0.24450
 C545 C 0.63247 0.34716 0.67603
 C546 C 0.61394 0.33598 0.68433
 C547 C 0.61346 0.31297 0.68364
 C548 C 0.63160 0.30153 0.67506
 C549 C 0.65021 0.31273 0.66748
 C550 C 0.65085 0.33563 0.66774
 C551 C 0.59509 0.30169 0.69196
 C552 C 0.57750 0.31307 0.70169
 C553 C 0.57810 0.33606 0.70281
 C554 C 0.59614 0.34741 0.69376
 C555 C 0.56088 0.34723 0.71348
 C556 C 0.54353 0.33569 0.72339
 C557 C 0.54279 0.31287 0.72219
 C558 C 0.55966 0.30170 0.71099
 H559 H 0.63281 0.36480 0.67631
 H560 H 0.63157 0.28389 0.67461
 H561 H 0.66427 0.30347 0.66157
 H562 H 0.59474 0.28404 0.69137
 H563 H 0.59660 0.36505 0.69455
 H564 H 0.56110 0.36484 0.71461
 H565 H 0.53073 0.34458 0.73203
 H566 H 0.55942 0.28405 0.71037
 C567 C 0.61636 0.80909 0.15630
 C568 C 0.59719 0.79965 0.16520
 C569 C 0.58093 0.81309 0.17502
 C570 C 0.58358 0.83576 0.17474
 C571 C 0.60263 0.84502 0.16567
 C572 C 0.61944 0.83179 0.15690
 C573 C 0.56267 0.80364 0.18556
 C574 C 0.56050 0.78093 0.18648
 C575 C 0.57611 0.76750 0.17571
 C576 C 0.59438 0.77696 0.16511
 C577 C 0.57353 0.74479 0.17635
 C578 C 0.55625 0.73545 0.18842
 C579 C 0.54148 0.74869 0.20017
 C580 C 0.54336 0.77143 0.19868
 H581 H 0.62931 0.79874 0.14971
 H582 H 0.57117 0.84630 0.18199
 H583 H 0.60461 0.86254 0.16605
 H584 H 0.55051 0.81393 0.19360
 H585 H 0.60670 0.76665 0.15734
 H586 H 0.58522 0.73425 0.16802
 H587 H 0.55505 0.71787 0.18939
 H588 H 0.53181 0.78174 0.20751
 C589 C 1.11327 0.32344 0.14489
 C590 C 1.09365 0.31654 0.15511
 C591 C 1.07966 0.33201 0.16531
 C592 C 1.08508 0.35418 0.16433
 C593 C 1.10458 0.36091 0.15403
 C594 C 1.11905 0.34561 0.14464
 C595 C 1.06079 0.32504 0.17676
 C596 C 1.05573 0.30279 0.17814
 C597 C 1.06922 0.28739 0.16722
 C598 C 1.08811 0.29436 0.15579
 C599 C 1.06381 0.26521 0.16830
 C600 C 1.04558 0.25828 0.18061
 C601 C 1.03262 0.27338 0.19222
 C602 C 1.03762 0.29567 0.19065
 H603 H 1.12446 0.31156 0.13782
 H604 H 1.07446 0.36627 0.17190
 H605 H 1.10872 0.37807 0.15381
 H606 H 1.05032 0.33687 0.18494
 H607 H 1.09871 0.28251 0.14779
 H608 H 1.07387 0.25320 0.15992
 H609 H 1.04203 0.24102 0.18159
 H610 H 1.02755 0.30746 0.19936
 C611 C 1.14155 0.80748 0.66304
 C612 C 1.12274 0.79970 0.67411
 C613 C 1.12142 0.80158 0.69710
 C614 C 1.13903 0.81107 0.70861
 C615 C 1.15808 0.81798 0.69754
 C616 C 1.15967 0.81610 0.67467
 C617 C 1.10284 0.79339 0.70827
 C618 C 1.08596 0.78259 0.69680
 C619 C 1.08747 0.78040 0.67383
 C620 C 1.10562 0.78936 0.66259
 C621 C 1.07107 0.76881 0.66253
 C622 C 1.05353 0.75911 0.67390
 C623 C 1.05177 0.76132 0.69669
 C624 C 1.06790 0.77336 0.70802
 H625 H 1.14249 0.80612 0.64540
 H626 H 1.13836 0.81254 0.72625
 H627 H 1.17184 0.82430 0.70694
 H628 H 1.10183 0.79484 0.72591
 H629 H 1.10676 0.78766 0.64497
 H630 H 1.07201 0.76690 0.64494
 H631 H 1.04125 0.74994 0.66487
 H632 H 1.06680 0.77489 0.72565
 C633 C 0.39344 0.68615 0.67244
 C634 C 0.41177 0.69253 0.68508
 C635 C 0.42558 0.67647 0.69462
 C636 C 0.42142 0.65440 0.69061
 C637 C 0.40321 0.64823 0.67803
 C638 C 0.38880 0.66396 0.66925
 C639 C 0.44300 0.68267 0.70845
 C640 C 0.44688 0.70474 0.71283
 C641 C 0.43365 0.72085 0.70263
 C642 C 0.41614 0.71465 0.68887
 C643 C 0.43801 0.74292 0.70660
 C644 C 0.45502 0.74896 0.72085
 C645 C 0.46772 0.73306 0.73166
 C646 C 0.46365 0.71095 0.72746
 H647 H 0.38224 0.69832 0.66586
 H648 H 0.43193 0.64190 0.69764
 H649 H 0.39990 0.63107 0.67565
 H650 H 0.45329 0.67031 0.71607
 H651 H 0.40572 0.72700 0.68141
 H652 H 0.42816 0.75550 0.69882
 H653 H 0.45790 0.76611 0.72384
 H654 H 0.47358 0.69859 0.73553
 C655 C 0.36055 0.14386 0.16788
 C656 C 0.37443 0.15637 0.18142
 C657 C 0.37264 0.17935 0.18108
 C658 C 0.35663 0.18939 0.16794
 C659 C 0.34272 0.17687 0.15487
 C660 C 0.34473 0.15405 0.15437
 C661 C 0.38695 0.19203 0.19377
 C662 C 0.40293 0.18210 0.20705
 C663 C 0.40434 0.15914 0.20811
 C664 C 0.39016 0.14638 0.19514
 C665 C 0.42003 0.14944 0.22205
 C666 C 0.43440 0.16239 0.23448
 C667 C 0.43354 0.18519 0.23283
 C668 C 0.41762 0.19489 0.21921
 H669 H 0.36219 0.12629 0.16760
 H670 H 0.35490 0.20696 0.16770
 H671 H 0.33041 0.18506 0.14494
 H672 H 0.38574 0.20965 0.19320
 H673 H 0.39142 0.12877 0.19567
 H674 H 0.42128 0.13187 0.22322
 H675 H 0.44655 0.15460 0.24493
 H676 H 0.41662 0.21250 0.21812
 C677 C -0.13007 0.65940 0.18057
 C678 C -0.11453 0.66918 0.19453
 C679 C -0.11928 0.67106 0.21710
 C680 C -0.13976 0.66390 0.22518
 C681 C -0.15540 0.65490 0.21108
 C682 C -0.15069 0.65229 0.18869
 C683 C -0.10359 0.68022 0.23123
 C684 C -0.08347 0.68819 0.22300
 C685 C -0.07903 0.68713 0.20030
 C686 C -0.09443 0.67729 0.18625
 C687 C -0.05933 0.69612 0.19204
 C688 C -0.04416 0.70602 0.20614
 C689 C -0.04818 0.70651 0.22874
 C690 C -0.06781 0.69749 0.23710
 H691 H -0.12621 0.65738 0.16338
 H692 H -0.14377 0.66545 0.24239
 H693 H -0.17127 0.64989 0.21769
 H694 H -0.10715 0.68137 0.24859
 H695 H -0.09091 0.67621 0.16889
 H696 H -0.05572 0.69562 0.17469
 H697 H -0.02907 0.71293 0.19947
 H698 H -0.07108 0.69817 0.25453
 C699 C -0.12815 0.17185 0.68053
 C700 C -0.10997 0.18386 0.68815
 C701 C -0.09237 0.18908 0.67376
 C702 C -0.09322 0.18193 0.65201
 C703 C -0.11127 0.16968 0.64463
 C704 C -0.12890 0.16452 0.65879
 C705 C -0.07419 0.20119 0.68142
 C706 C -0.07319 0.20766 0.70342
 C707 C -0.09075 0.20208 0.71780
 C708 C -0.10910 0.19051 0.71001
 C709 C -0.08949 0.20779 0.73992
 C710 C -0.07084 0.21852 0.74788
 C711 C -0.05340 0.22425 0.73381
 C712 C -0.05471 0.21913 0.71149
 H713 H -0.14180 0.16827 0.69151
 H714 H -0.07987 0.18570 0.64074
 H715 H -0.11150 0.16416 0.62783
 H716 H -0.06070 0.20524 0.67039
 H717 H -0.12254 0.18633 0.72107
 H718 H -0.10274 0.20356 0.75115
 H719 H -0.06995 0.22237 0.76515
 H720 H -0.04107 0.22331 0.70071
 C721 C 0.31853 0.36743 0.31323
 C722 C 0.30988 0.38604 0.30300
 C723 C 0.29902 0.40208 0.31564
 C724 C 0.29740 0.39936 0.33837
 C725 C 0.30684 0.38114 0.34854
 C726 C 0.31760 0.36499 0.33614
 C727 C 0.29027 0.42068 0.30538
 C728 C 0.29286 0.42373 0.28274
 C729 C 0.30428 0.40792 0.27024
 C730 C 0.31239 0.38903 0.28038
 C731 C 0.30757 0.41136 0.24779
 C732 C 0.29956 0.43024 0.23774
 C733 C 0.28773 0.44581 0.24986
 C734 C 0.28440 0.44242 0.27239
 H735 H 0.32638 0.35498 0.30335
 H736 H 0.28924 0.41154 0.34834
 H737 H 0.30601 0.37983 0.36617
 H738 H 0.28176 0.43291 0.31504
 H739 H 0.32100 0.37685 0.27074
 H740 H 0.31640 0.39947 0.23801
 H741 H 0.30224 0.43247 0.22037
 H742 H 0.27546 0.45446 0.28191
 C743 C 0.35010 -0.11712 0.83273
 C744 C 0.33838 -0.10024 0.82246
 C745 C 0.32840 -0.08371 0.83520
 C746 C 0.33089 -0.08407 0.85800
 C747 C 0.34289 -0.10080 0.86807
 C748 C 0.35235 -0.11762 0.85558
 C749 C 0.31607 -0.06718 0.82493
 C750 C 0.31393 -0.06682 0.80207
 C751 C 0.32449 -0.08308 0.78939
 C752 C 0.33645 -0.09976 0.79966
 C753 C 0.32297 -0.08240 0.76656
 C754 C 0.31109 -0.06580 0.75632
 C755 C 0.30016 -0.04978 0.76868
 C756 C 0.30153 -0.05041 0.79161
 H757 H 0.35722 -0.13010 0.82299
 H758 H 0.32351 -0.07147 0.86803
 H759 H 0.34462 -0.10081 0.88569
 H760 H 0.30821 -0.05463 0.83470
 H761 H 0.34431 -0.11233 0.78989
 H762 H 0.33102 -0.09468 0.75662
 H763 H 0.31016 -0.06569 0.73863
 H764 H 0.29330 -0.03798 0.80123
 C765 C 0.84069 0.38179 0.82711
 C766 C 0.83124 0.39991 0.81672
 C767 C 0.82099 0.41635 0.82937
 C768 C 0.82089 0.41460 0.85224
 C769 C 0.83091 0.39678 0.86248
 C770 C 0.84076 0.38012 0.85005
 C771 C 0.81119 0.43432 0.81899
 C772 C 0.81202 0.43633 0.79614
 C773 C 0.82284 0.42020 0.78355
 C774 C 0.83211 0.40195 0.79389
 C775 C 0.82433 0.42267 0.76079
 C776 C 0.81516 0.44093 0.75058
 C777 C 0.80394 0.45678 0.76289
 C778 C 0.80237 0.45435 0.78569
 H779 H 0.84813 0.36898 0.81738
 H780 H 0.81328 0.42712 0.86221
 H781 H 0.83103 0.39597 0.88016
 H782 H 0.80314 0.44682 0.82868
 H783 H 0.84022 0.38947 0.78420
 H784 H 0.83267 0.41053 0.75091
 H785 H 0.81649 0.44249 0.73299
 H786 H 0.79396 0.46667 0.79531
 C787 C 0.83536 -0.11542 0.31483
 C788 C 0.82255 -0.09788 0.30710
 C789 C 0.81284 -0.08323 0.32215
 C790 C 0.81698 -0.08572 0.34454
 C791 C 0.83009 -0.10290 0.35204
 C792 C 0.83900 -0.11826 0.33740
 C793 C 0.79898 -0.06646 0.31462
 C794 C 0.79506 -0.06384 0.29218
 C795 C 0.80561 -0.07783 0.27703
 C796 C 0.81908 -0.09492 0.28459
 C797 C 0.80243 -0.07453 0.25455
 C798 C 0.78868 -0.05772 0.24715
 C799 C 0.77746 -0.04434 0.26210
 C800 C 0.78073 -0.04743 0.28461
 H801 H 0.84198 -0.12715 0.30333
 H802 H 0.80992 -0.07447 0.35628
 H803 H 0.83294 -0.10448 0.36945
 H804 H 0.79120 -0.05550 0.32623
 H805 H 0.82680 -0.10592 0.27299
 H806 H 0.81052 -0.08496 0.24269
 H807 H 0.78633 -0.05552 0.22973
 H808 H 0.77232 -0.03690 0.29618
 C809 C 0.34576 0.62343 0.65962
 C810 C 0.33302 0.60797 0.67097
 C811 C 0.32996 0.61008 0.69381
 C812 C 0.33927 0.62783 0.70481
 C813 C 0.35150 0.64337 0.69332
 C814 C 0.35493 0.64132 0.67068
 C815 C 0.31755 0.59449 0.70528
 C816 C 0.30769 0.57709 0.69414
 C817 C 0.31029 0.57526 0.67122
 C818 C 0.32317 0.59055 0.65982
 C819 C 0.29974 0.55826 0.66005
 C820 C 0.28663 0.54331 0.67145
 C821 C 0.28424 0.54481 0.69425
 C822 C 0.29498 0.56165 0.70554
 H823 H 0.34857 0.62165 0.64221
 H824 H 0.33700 0.62976 0.72228
 H825 H 0.35838 0.65708 0.70211
 H826 H 0.31536 0.59604 0.72282
 H827 H 0.32530 0.58904 0.64227
 H828 H 0.30145 0.55666 0.64249
 H829 H 0.27850 0.53040 0.66246
 H830 H 0.29296 0.56305 0.72310
 C831 C 0.31344 1.11936 0.16909
 C832 C 0.30202 1.10069 0.17606
 C833 C 0.29643 1.08434 0.16078
 C834 C 0.30297 1.08670 0.13890
 C835 C 0.31473 1.10515 0.13218
 C836 C 0.31990 1.12181 0.14711
 C837 C 0.28443 1.06594 0.16762
 C838 C 0.27844 1.06343 0.18967
 C839 C 0.28467 1.07952 0.20504
 C840 C 0.29613 1.09814 0.19809
 C841 C 0.27953 1.07662 0.22719
 C842 C 0.26845 1.05791 0.23414
 C843 C 0.26180 1.04206 0.21902
 C844 C 0.26661 1.04496 0.19673
 H845 H 0.31702 1.13214 0.18075
 H846 H 0.29901 1.07428 0.12697
 H847 H 0.31967 1.10653 0.11521
 H848 H 0.27995 1.05351 0.15585
 H849 H 0.30066 1.11055 0.20986
 H850 H 0.28428 1.08871 0.23919
 H851 H 0.26480 1.05592 0.25139
 H852 H 0.26173 1.03258 0.18508
 C853 C 0.82923 0.60808 0.19555
 C854 C 0.81595 0.59210 0.20546
 C855 C 0.79277 0.59221 0.20195
 C856 C 0.78329 0.60836 0.18866
 C857 C 0.79658 0.62455 0.17935
 C858 C 0.81963 0.62464 0.18275
 C859 C 0.77939 0.57648 0.21214
 C860 C 0.78883 0.56096 0.22621
 C861 C 0.81199 0.56097 0.22986
 C862 C 0.82543 0.57637 0.21926
 C863 C 0.82128 0.54577 0.24434
 C864 C 0.80775 0.53082 0.25528
 C865 C 0.78472 0.53059 0.25173
 C866 C 0.77540 0.54565 0.23700
 H867 H 0.84700 0.60805 0.19822
 H868 H 0.76555 0.60876 0.18589
 H869 H 0.78880 0.63731 0.16981
 H870 H 0.76161 0.57659 0.20945
 H871 H 0.84320 0.57638 0.22208
 H872 H 0.83898 0.54557 0.24736
 H873 H 0.81534 0.51935 0.26648
 H874 H 0.75764 0.54575 0.23423
 C875 C 0.85252 1.12316 0.67918
 C876 C 0.84124 1.10851 0.69293
 C877 C 0.81778 1.10774 0.69251
 C878 C 0.80601 1.12205 0.67899
 C879 C 0.81731 1.13685 0.66576
 C880 C 0.84064 1.13735 0.66539
 C881 C 0.80643 1.09268 0.70559
 C882 C 0.81816 1.07861 0.71943
 C883 C 0.84157 1.07983 0.72049
 C884 C 0.85299 1.09465 0.70706
 C885 C 0.85310 1.06617 0.73496
 C886 C 0.84157 1.05128 0.74807
 C887 C 0.81839 1.04956 0.74659
 C888 C 0.80679 1.06334 0.73227
 H889 H 0.87049 1.12350 0.67907
 H890 H 0.78803 1.12184 0.67868
 H891 H 0.80777 1.14794 0.65569
 H892 H 0.78846 1.09192 0.70501
 H893 H 0.87096 1.09540 0.70764
 H894 H 0.87102 1.06695 0.73612
 H895 H 0.85081 1.04078 0.75902
 H896 H 0.78886 1.06229 0.73127
 C897 C 0.67857 0.62244 0.36162
 C898 C 0.68442 0.60225 0.35254
 C899 C 0.66801 0.58912 0.34269
 C900 C 0.64580 0.59579 0.34336
 C901 C 0.64010 0.61588 0.35247
 C902 C 0.65651 0.63006 0.36063
 C903 C 0.67411 0.56977 0.33202
 C904 C 0.69645 0.56336 0.33117
 C905 C 0.71269 0.57600 0.34199
 C906 C 0.70659 0.59535 0.35255
 C907 C 0.73489 0.56929 0.34175
 C908 C 0.74109 0.55051 0.33051
 C909 C 0.72530 0.53825 0.31899
 C910 C 0.70292 0.54467 0.31949
 H911 H 0.69148 0.63245 0.36861
 H912 H 0.63288 0.58571 0.33640
 H913 H 0.62282 0.62069 0.35243
 H914 H 0.66155 0.55995 0.32406
 H915 H 0.71917 0.60526 0.36036
 H916 H 0.74751 0.57870 0.35007
 H917 H 0.75844 0.54589 0.33033
 H918 H 0.69061 0.53515 0.31083
 C919 C 0.68768 1.13569 0.82867
 C920 C 0.69969 1.11815 0.82006
 C921 C 0.69917 1.11411 0.79733
 C922 C 0.68698 1.12795 0.78358
 C923 C 0.67570 1.14586 0.79223
 C924 C 0.67587 1.14989 0.81484
 C925 C 0.71117 1.09657 0.78867
 C926 C 0.72421 1.08345 0.80238
 C927 C 0.72516 1.08782 0.82505
 C928 C 0.71261 1.10494 0.83380
 C929 C 0.73889 1.07513 0.83853
 C930 C 0.75158 1.05827 0.82963
 C931 C 0.75037 1.05356 0.80722
 C932 C 0.73658 1.06619 0.79370
 H933 H 0.68789 1.13863 0.84614
 H934 H 0.68657 1.12520 0.76609
 H935 H 0.66709 1.15679 0.78122
 H936 H 0.71067 1.09337 0.77124
 H937 H 0.71323 1.10824 0.85121
 H938 H 0.73991 1.07834 0.85592
 H939 H 0.76209 1.04869 0.84031
 H940 H 0.73579 1.06282 0.77632
 C941 C 0.17985 0.63822 0.80048
 C942 C 0.18682 0.61770 0.79303
 C943 C 0.19500 0.60222 0.80816
 C944 C 0.19523 0.60717 0.83051
 C945 C 0.18779 0.62740 0.83781
 C946 C 0.18032 0.64327 0.82292
 C947 C 0.20308 0.58215 0.80073
 C948 C 0.20290 0.57724 0.77836
 C949 C 0.19384 0.59229 0.76328
 C950 C 0.18597 0.61250 0.77070
 C951 C 0.19323 0.58700 0.74098
 C952 C 0.20225 0.56735 0.73359
 C953 C 0.21225 0.55280 0.74835
 C954 C 0.21212 0.55769 0.77078
 H955 H 0.17432 0.65036 0.78881
 H956 H 0.20123 0.59541 0.84234
 H957 H 0.18803 0.63078 0.85518
 H958 H 0.20977 0.57048 0.81231
 H959 H 0.17942 0.62423 0.75910
 H960 H 0.18619 0.59825 0.72920
 H961 H 0.20223 0.56393 0.71622
 H962 H 0.21961 0.54645 0.78231
 C963 C 0.15083 1.12135 0.31032
 C964 C 0.16338 1.10290 0.30471
 C965 C 0.18668 1.10318 0.30737
 C966 C 0.19701 1.12188 0.31559
 C967 C 0.18447 1.14036 0.32054
 C968 C 0.16131 1.14040 0.31777
 C969 C 0.19935 1.08503 0.30119
 C970 C 0.18912 1.06689 0.29163
 C971 C 0.16582 1.06664 0.28888
 C972 C 0.15306 1.08446 0.29584
 C973 C 0.15575 1.04891 0.27845
 C974 C 0.16871 1.03201 0.27003
 C975 C 0.19186 1.03221 0.27251
 C976 C 0.20193 1.04942 0.28385
 H977 H 0.13296 1.12111 0.30841
 H978 H 0.21485 1.12241 0.31768
 H979 H 0.19295 1.15483 0.32617
 H980 H 0.21724 1.08533 0.30312
 H981 H 0.13521 1.08429 0.29361
 H982 H 0.13794 1.04846 0.27614
 H983 H 0.16068 1.01888 0.26128
 H984 H 0.21984 1.04984 0.28545
 C985 C 0.68835 0.38340 0.66154
 C986 C 0.69763 0.40068 0.67341
 C987 C 0.69655 0.40052 0.69652
 C988 C 0.68641 0.38301 0.70732
 C989 C 0.67781 0.36560 0.69541
 C990 C 0.67868 0.36557 0.67242
 C991 C 0.70609 0.41757 0.70847
 C992 C 0.71739 0.43441 0.69766
 C993 C 0.71872 0.43443 0.67456
 C994 C 0.70848 0.41779 0.66257
 C995 C 0.73081 0.45080 0.66387
 C996 C 0.74199 0.46664 0.67595
 C997 C 0.74076 0.46674 0.69888
 C998 C 0.72806 0.45082 0.70963
 H999 H 0.68903 0.38355 0.64383
 H1000 H 0.68557 0.38255 0.72502
 H1001 H 0.67073 0.35194 0.70418
 H1002 H 0.70528 0.41741 0.72619
 H1003 H 0.70952 0.41781 0.64486
 H1004 H 0.73207 0.45104 0.64619
 H1005 H 0.75170 0.47880 0.66737
 H1006 H 0.72733 0.45063 0.72735
 C1007 C 0.66180 -0.12458 0.15483
 C1008 C 0.67144 -0.10875 0.16841
 C1009 C 0.66977 -0.11093 0.19139
 C1010 C 0.65903 -0.12906 0.20040
 C1011 C 0.64975 -0.14479 0.18682
 C1012 C 0.65072 -0.14261 0.16394
 C1013 C 0.67883 -0.09497 0.20506
 C1014 C 0.68981 -0.07693 0.19611
 C1015 C 0.69199 -0.07491 0.17318
 C1016 C 0.68265 -0.09076 0.15944
 C1017 C 0.70351 -0.05705 0.16441
 C1018 C 0.71271 -0.04134 0.17824
 C1019 C 0.71025 -0.04303 0.20103
 C1020 C 0.69875 -0.06092 0.20982
 H1021 H 0.66267 -0.12283 0.13721
 H1022 H 0.65779 -0.13107 0.21797
 H1023 H 0.64169 -0.15875 0.19420
 H1024 H 0.67735 -0.09661 0.22267
 H1025 H 0.68413 -0.08913 0.14184
 H1026 H 0.70544 -0.05526 0.14689
 H1027 H 0.72152 -0.02770 0.17108
 H1028 H 0.69699 -0.06254 0.22740
 C1029 C 0.16616 0.38370 0.13969
 C1030 C 0.17844 0.39817 0.15269
 C1031 C 0.17805 0.39596 0.17573
 C1032 C 0.16600 0.37896 0.18533
 C1033 C 0.15416 0.36446 0.17230
 C1034 C 0.15382 0.36683 0.14941
 C1035 C 0.18969 0.41073 0.18883
 C1036 C 0.20217 0.42745 0.17922
 C1037 C 0.20316 0.42930 0.15618
 C1038 C 0.19108 0.41482 0.14306
 C1039 C 0.21638 0.44554 0.14665
 C1040 C 0.22858 0.45972 0.15982
 C1041 C 0.22733 0.45824 0.18271
 C1042 C 0.21396 0.44216 0.19232
 H1043 H 0.16595 0.38566 0.12208
 H1044 H 0.16571 0.37689 0.20293
 H1045 H 0.14507 0.35139 0.18012
 H1046 H 0.18917 0.40912 0.20650
 H1047 H 0.19163 0.41640 0.12540
 H1048 H 0.21746 0.44714 0.12904
 H1049 H 0.23884 0.47202 0.15212
 H1050 H 0.21321 0.44075 0.20999
 C1051 C 0.18396 -0.14081 0.67774
 C1052 C 0.19722 -0.12337 0.68475
 C1053 C 0.22060 -0.12532 0.68420
 C1054 C 0.23029 -0.14487 0.67729
 C1055 C 0.21699 -0.16232 0.67090
 C1056 C 0.19372 -0.16042 0.67076
 C1057 C 0.23393 -0.10780 0.69074
 C1058 C 0.22420 -0.08854 0.69846
 C1059 C 0.20082 -0.08681 0.69967
 C1060 C 0.18748 -0.10409 0.69248
 C1061 C 0.19118 -0.06792 0.70835
 C1062 C 0.20456 -0.05098 0.71594
 C1063 C 0.22775 -0.05239 0.71440
 C1064 C 0.23750 -0.07112 0.70543
 H1065 H 0.16606 -0.13917 0.67768
 H1066 H 0.24817 -0.14675 0.67699
 H1067 H 0.22490 -0.17736 0.66598
 H1068 H 0.25186 -0.10927 0.69011
 H1069 H 0.16956 -0.10267 0.69321
 H1070 H 0.17331 -0.06636 0.70953
 H1071 H 0.19679 -0.03664 0.72285
 H1072 H 0.25543 -0.07240 0.70455
 C1073 C 0.29651 0.33329 0.36885
 C1074 C 0.28821 0.32227 0.38729
 C1075 C 0.30296 0.31492 0.40370
 C1076 C 0.32569 0.31930 0.40168
 C1077 C 0.33378 0.33038 0.38337
 C1078 C 0.31937 0.33720 0.36663
 C1079 C 0.29481 0.30316 0.42172
 C1080 C 0.27202 0.29889 0.42373
 C1081 C 0.25724 0.30680 0.40758
 C1082 C 0.26543 0.31825 0.38942
 C1083 C 0.23443 0.30317 0.40987
 C1084 C 0.22627 0.29193 0.42801
 C1085 C 0.24076 0.28368 0.44399
 C1086 C 0.26370 0.28704 0.44169
 H1087 H 0.28533 0.33830 0.35592
 H1088 H 0.33724 0.31394 0.41414
 H1089 H 0.35144 0.33332 0.38200
 H1090 H 0.30618 0.29734 0.43417
 H1091 H 0.25406 0.32405 0.37695
 H1092 H 0.22286 0.30916 0.39771
 H1093 H 0.20854 0.28943 0.42943
 H1094 H 0.27493 0.28092 0.45409
 C1095 C 0.33047 0.85259 -0.11282
 C1096 C 0.32082 0.84196 -0.09486
 C1097 C 0.33454 0.83186 -0.07909
 C1098 C 0.35766 0.83344 -0.08105
 C1099 C 0.36713 0.84457 -0.09868
 C1100 C 0.35371 0.85392 -0.11500
 C1101 C 0.32494 0.82015 -0.06179
 C1102 C 0.30178 0.81870 -0.05988
 C1103 C 0.28805 0.82968 -0.07505
 C1104 C 0.29766 0.84110 -0.09255
 C1105 C 0.26492 0.82874 -0.07264
 C1106 C 0.25543 0.81642 -0.05581
 C1107 C 0.26892 0.80459 -0.04134
 C1108 C 0.29211 0.80609 -0.04325
 H1109 H 0.31987 0.85956 -0.12531
 H1110 H 0.36842 0.82602 -0.06897
 H1111 H 0.38502 0.84569 -0.09974
 H1112 H 0.33547 0.81199 -0.04996
 H1113 H 0.28713 0.84914 -0.10447
 H1114 H 0.25415 0.83722 -0.08401
 H1115 H 0.23753 0.81543 -0.05464
 H1116 H 0.30263 0.79718 -0.03198
 C1117 C 0.81719 0.35040 -0.11911
 C1118 C 0.80691 0.34052 -0.10104
 C1119 C 0.82009 0.33091 -0.08453
 C1120 C 0.84327 0.33207 -0.08596
 C1121 C 0.85335 0.34243 -0.10371
 C1122 C 0.84050 0.35144 -0.12064
 C1123 C 0.80992 0.32013 -0.06696
 C1124 C 0.78673 0.31906 -0.06554
 C1125 C 0.77348 0.32945 -0.08152
 C1126 C 0.78367 0.34001 -0.09927
 C1127 C 0.75027 0.32875 -0.07962
 C1128 C 0.74027 0.31720 -0.06249
 C1129 C 0.75334 0.30598 -0.04719
 C1130 C 0.77657 0.30735 -0.04860
 H1131 H 0.80706 0.35714 -0.13209
 H1132 H 0.85361 0.32499 -0.07332
 H1133 H 0.87128 0.34336 -0.10428
 H1134 H 0.82006 0.31239 -0.05453
 H1135 H 0.77354 0.34765 -0.11177
 H1136 H 0.73986 0.33677 -0.09162
 H1137 H 0.72234 0.31630 -0.06172
 H1138 H 0.78678 0.29892 -0.03668
 C1139 C 0.82097 0.84913 0.37010
 C1140 C 0.81418 0.83812 0.38908
 C1141 C 0.83025 0.83030 0.40400
 C1142 C 0.85280 0.83423 0.39998
 C1143 C 0.85938 0.84549 0.38120
 C1144 C 0.84359 0.85277 0.36596
 C1145 C 0.82352 0.81863 0.42261
 C1146 C 0.80090 0.81508 0.42673
 C1147 C 0.78484 0.82351 0.41211
 C1148 C 0.79159 0.83474 0.39327
 C1149 C 0.76224 0.82071 0.41665
 C1150 C 0.75556 0.80981 0.43558
 C1151 C 0.77135 0.80103 0.44997
 C1152 C 0.79403 0.80352 0.44539
 H1153 H 0.80873 0.85452 0.35831
 H1154 H 0.86534 0.82851 0.41130
 H1155 H 0.87688 0.84823 0.37830
 H1156 H 0.83585 0.81244 0.43393
 H1157 H 0.77926 0.84095 0.38195
 H1158 H 0.74972 0.82715 0.40570
 H1159 H 0.73800 0.80801 0.43889
 H1160 H 0.80624 0.79701 0.45665
 C1161 C 0.67175 0.32975 0.62364
 C1162 C 0.68365 0.31979 0.60665
 C1163 C 0.70711 0.31975 0.60707
 C1164 C 0.71821 0.32952 0.62461
 C1165 C 0.70622 0.33868 0.64188
 C1166 C 0.68286 0.33882 0.64166
 C1167 C 0.71904 0.30939 0.59031
 C1168 C 0.70779 0.29829 0.57362
 C1169 C 0.68430 0.29805 0.57347
 C1170 C 0.67242 0.30920 0.58968
 C1171 C 0.67305 0.28610 0.55746
 C1172 C 0.68491 0.27401 0.54209
 C1173 C 0.70819 0.27422 0.54200
 C1174 C 0.71960 0.28673 0.55753
 H1175 H 0.65378 0.32988 0.62325
 H1176 H 0.73617 0.32953 0.62530
 H1177 H 0.71521 0.34528 0.65566
 H1178 H 0.73703 0.30936 0.59064
 H1179 H 0.65442 0.30899 0.58952
 H1180 H 0.65508 0.28566 0.55716
 H1181 H 0.67589 0.26446 0.53017
 H1182 H 0.73759 0.28665 0.55766
 C1183 C 0.67490 0.82919 1.13195
 C1184 C 0.68586 0.81906 1.11447
 C1185 C 0.67362 0.81198 1.09610
 C1186 C 0.65072 0.81586 1.09523
 C1187 C 0.63997 0.82620 1.11260
 C1188 C 0.65185 0.83261 1.13129
 C1189 C 0.68443 0.80106 1.07899
 C1190 C 0.70741 0.79751 1.07984
 C1191 C 0.71972 0.80524 1.09793
 C1192 C 0.70884 0.81573 1.11521
 C1193 C 0.74280 0.80251 1.09836
 C1194 C 0.75363 0.79236 1.08098
 C1195 C 0.74152 0.78425 1.06320
 C1196 C 0.71839 0.78664 1.06275
 H1197 H 0.68419 0.83390 1.14633
 H1198 H 0.64109 0.81073 1.08121
 H1199 H 0.62224 0.82885 1.11168
 H1200 H 0.67500 0.79542 1.06501
 H1201 H 0.71827 0.82139 1.12919
 H1202 H 0.75249 0.80844 1.11202
 H1203 H 0.77152 0.79065 1.08146
 H1204 H 0.70910 0.78068 1.04882
 C1205 C 0.17134 0.33833 1.11351
 C1206 C 0.17911 0.32812 1.09445
 C1207 C 0.16399 0.32254 1.07771
 C1208 C 0.14155 0.32807 1.07994
 C1209 C 0.13402 0.33850 1.09881
 C1210 C 0.14870 0.34337 1.11598
 C1211 C 0.17148 0.31130 1.05917
 C1212 C 0.19396 0.30578 1.05701
 C1213 C 0.20923 0.31212 1.07334
 C1214 C 0.20169 0.32311 1.09202
 C1215 C 0.23179 0.30714 1.07081
 C1216 C 0.23911 0.29561 1.05250
 C1217 C 0.22397 0.28855 1.03657
 C1218 C 0.20140 0.29384 1.03885
 H1219 H 0.18282 0.34183 1.12666
 H1220 H 0.12977 0.32414 1.06718
 H1221 H 0.11658 0.34249 1.10018
 H1222 H 0.15979 0.30668 1.04653
 H1223 H 0.21335 0.32762 1.10472
 H1224 H 0.24374 0.31201 1.08307
 H1225 H 0.25658 0.29169 1.05109
 H1226 H 0.18965 0.28866 1.02651
 C1227 C 0.19821 0.81747 0.62714
 C1228 C 0.20619 0.80432 0.61010
 C1229 C 0.20292 0.78153 0.61102
 C1230 C 0.19245 0.77223 0.62924
 C1231 C 0.18526 0.78534 0.64644
 C1232 C 0.18776 0.80810 0.64549
 C1233 C 0.21034 0.76835 0.59385
 C1234 C 0.22160 0.77755 0.57604
 C1235 C 0.22565 0.80022 0.57540
 C1236 C 0.21761 0.81353 0.59229
 C1237 C 0.23784 0.80909 0.55793
 C1238 C 0.24585 0.79561 0.54123
 C1239 C 0.24125 0.77321 0.54151
 C1240 C 0.22911 0.76431 0.55895
 H1241 H 0.20027 0.83499 0.62628
 H1242 H 0.19007 0.75477 0.63032
 H1243 H 0.17773 0.77770 0.66057
 H1244 H 0.20757 0.75090 0.59447
 H1245 H 0.22045 0.83097 0.59172
 H1246 H 0.24128 0.82639 0.55724
 H1247 H 0.25526 0.80270 0.52791
 H1248 H 0.22587 0.74694 0.55942
 C1249 C 0.33819 0.66690 0.63308
 C1250 C 0.33104 0.67482 0.61275
 C1251 C 0.34666 0.68338 0.59779
 C1252 C 0.36926 0.68325 0.60324
 C1253 C 0.37633 0.67462 0.62324
 C1254 C 0.36092 0.66639 0.63848
 C1255 C 0.33944 0.69185 0.57766
 C1256 C 0.31682 0.69145 0.57214
 C1257 C 0.30134 0.68215 0.58682
 C1258 C 0.30851 0.67412 0.60711
 C1259 C 0.27887 0.68118 0.58106
 C1260 C 0.27165 0.68986 0.56119
 C1261 C 0.28670 0.69990 0.54679
 C1262 C 0.30937 0.70040 0.55228
 H1263 H 0.32598 0.66103 0.64468
 H1264 H 0.38151 0.68959 0.59191
 H1265 H 0.39392 0.67425 0.62671
 H1266 H 0.35139 0.69873 0.56632
 H1267 H 0.29655 0.66728 0.61847
 H1268 H 0.26682 0.67397 0.59206
 H1269 H 0.25410 0.68937 0.55743
 H1270 H 0.32116 0.70800 0.54125
 C1271 C 0.30386 0.15252 1.11144
 C1272 C 0.29878 0.16407 1.09227
 C1273 C 0.31604 0.17367 1.07987
 C1274 C 0.33814 0.17074 1.08636
 C1275 C 0.34303 0.15923 1.10547
 C1276 C 0.32596 0.15047 1.11843
 C1277 C 0.31089 0.18656 1.06159
 C1278 C 0.28870 0.19004 1.05561
 C1279 C 0.27152 0.17974 1.06753
 C1280 C 0.27667 0.16680 1.08575
 C1281 C 0.24940 0.18294 1.06133
 C1282 C 0.24425 0.19675 1.04391
 C1283 C 0.26111 0.20776 1.03245
 C1284 C 0.28338 0.20407 1.03821
 H1285 H 0.29061 0.14600 1.12150
 H1286 H 0.35158 0.17784 1.07699
 H1287 H 0.36015 0.15772 1.11061
 H1288 H 0.32411 0.19428 1.05235
 H1289 H 0.26344 0.15928 1.09515
 H1290 H 0.23604 0.17507 1.07020
 H1291 H 0.22697 0.19930 1.03981
 H1292 H 0.29652 0.21232 1.02936
 C1293 C 0.83193 0.67298 1.14778
 C1294 C 0.82747 0.68117 1.12679
 C1295 C 0.81966 0.66698 1.11034
 C1296 C 0.81761 0.64469 1.11483
 C1297 C 0.82269 0.63657 1.13558
 C1298 C 0.82944 0.65063 1.15245
 C1299 C 0.81363 0.67536 1.08984
 C1300 C 0.81552 0.69773 1.08550
 C1301 C 0.82453 0.71173 1.10152
 C1302 C 0.83034 0.70338 1.12211
 C1303 C 0.82693 0.73399 1.09689
 C1304 C 0.81935 0.74252 1.07704
 C1305 C 0.80908 0.72897 1.06160
 C1306 C 0.80779 0.70646 1.06569
 H1307 H 0.83692 0.68409 1.16060
 H1308 H 0.81193 0.63353 1.10233
 H1309 H 0.82102 0.61927 1.13857
 H1310 H 0.80705 0.66455 1.07743
 H1311 H 0.83669 0.71423 1.13460
 H1312 H 0.83400 0.74492 1.10889
 H1313 H 0.82042 0.75992 1.07430
 H1314 H 0.80002 0.69586 1.05379
 C1315 C 0.84027 0.17869 0.62279
 C1316 C 0.82814 0.18354 0.60386
 C1317 C 0.81828 0.16653 0.59171
 C1318 C 0.82176 0.14486 0.59809
 C1319 C 0.83400 0.14016 0.61690
 C1320 C 0.84276 0.15703 0.62978
 C1321 C 0.80467 0.17149 0.57377
 C1322 C 0.80095 0.19325 0.56775
 C1323 C 0.81172 0.21016 0.57931
 C1324 C 0.82515 0.20521 0.59732
 C1325 C 0.80863 0.23184 0.57289
 C1326 C 0.79466 0.23681 0.55544
 C1327 C 0.78321 0.22026 0.54437
 C1328 C 0.78647 0.19845 0.55051
 H1329 H 0.84686 0.19179 0.63268
 H1330 H 0.81457 0.13159 0.58886
 H1331 H 0.83596 0.12335 0.62193
 H1332 H 0.79671 0.15847 0.56476
 H1333 H 0.83295 0.21824 0.60646
 H1334 H 0.81686 0.24496 0.58146
 H1335 H 0.79232 0.25374 0.55097
 H1336 H 0.77785 0.18561 0.54184
 C1337 C 0.66158 0.67037 0.40108
 C1338 C 0.67507 0.68514 0.41243
 C1339 C 0.69396 0.69409 0.40201
 C1340 C 0.69845 0.68887 0.38013
 C1341 C 0.68422 0.67512 0.36863
 C1342 C 0.66594 0.66554 0.37909
 C1343 C 0.70784 0.70836 0.41349
 C1344 C 0.70255 0.71456 0.43493
 C1345 C 0.68300 0.70654 0.44494
 C1346 C 0.66965 0.69151 0.43380
 C1347 C 0.67716 0.71372 0.46595
 C1348 C 0.69077 0.72838 0.47710
 C1349 C 0.71064 0.73560 0.46762
 C1350 C 0.71646 0.72872 0.44653
 H1351 H 0.64734 0.66309 0.40906
 H1352 H 0.71267 0.69580 0.37180
 H1353 H 0.68746 0.67176 0.35154
 H1354 H 0.72256 0.71488 0.40564
 H1355 H 0.65488 0.68505 0.44163
 H1356 H 0.66215 0.70791 0.47379
 H1357 H 0.68623 0.73348 0.49346
 H1358 H 0.73180 0.73443 0.43922
 C1359 C 0.66424 0.18648 -0.13987
 C1360 C 0.67505 0.19676 -0.12242
 C1361 C 0.69809 0.20102 -0.12376
 C1362 C 0.70979 0.19531 -0.14272
 C1363 C 0.69884 0.18528 -0.16008
 C1364 C 0.67607 0.18058 -0.15873
 C1365 C 0.70903 0.21091 -0.10617
 C1366 C 0.69716 0.21696 -0.08740
 C1367 C 0.67404 0.21308 -0.08627
 C1368 C 0.66319 0.20282 -0.10368
 C1369 C 0.66208 0.21976 -0.06782
 C1370 C 0.67282 0.23046 -0.05076
 C1371 C 0.69579 0.23423 -0.05162
 C1372 C 0.70796 0.22720 -0.06987
 H1373 H 0.64670 0.18276 -0.13874
 H1374 H 0.72741 0.19855 -0.14410
 H1375 H 0.70817 0.18094 -0.17458
 H1376 H 0.72671 0.21406 -0.10716
 H1377 H 0.64550 0.19972 -0.10272
 H1378 H 0.64436 0.21698 -0.06670
 H1379 H 0.66317 0.23575 -0.03678
 H1380 H 0.72564 0.23034 -0.07073
 C1381 C 0.17441 0.68424 -0.13411
 C1382 C 0.18607 0.69382 -0.11678
 C1383 C 0.20954 0.69343 -0.11670
 C1384 C 0.22091 0.68359 -0.13410
 C1385 C 0.20915 0.67427 -0.15140
 C1386 C 0.18583 0.67447 -0.15154
 C1387 C 0.22122 0.70297 -0.09932
 C1388 C 0.20973 0.71315 -0.08216
 C1389 C 0.18625 0.71366 -0.08243
 C1390 C 0.17460 0.70388 -0.09961
 C1391 C 0.17474 0.72414 -0.06558
 C1392 C 0.18631 0.73424 -0.04869
 C1393 C 0.20963 0.73386 -0.04813
 C1394 C 0.22128 0.72307 -0.06485
 H1395 H 0.15642 0.68430 -0.13408
 H1396 H 0.23887 0.68318 -0.13439
 H1397 H 0.21822 0.66692 -0.16478
 H1398 H 0.23922 0.70263 -0.09925
 H1399 H 0.15661 0.70427 -0.09973
 H1400 H 0.15677 0.72470 -0.06554
 H1401 H 0.17692 0.74233 -0.03596
 H1402 H 0.23926 0.72280 -0.06465
 C1403 C 0.15927 0.16550 0.36067
 C1404 C 0.16472 0.17933 0.37810
 C1405 C 0.16560 0.20211 0.37466
 C1406 C 0.16152 0.21062 0.35378
 C1407 C 0.15644 0.19672 0.33649
 C1408 C 0.15497 0.17411 0.33982
 C1409 C 0.17076 0.21602 0.39207
 C1410 C 0.17568 0.20741 0.41275
 C1411 C 0.17526 0.18459 0.41608
 C1412 C 0.16945 0.17073 0.39883
 C1413 C 0.18123 0.17599 0.43650
 C1414 C 0.18815 0.18982 0.45326
 C1415 C 0.18846 0.21245 0.45008
 C1416 C 0.18180 0.22122 0.42996
 H1417 H 0.15817 0.14807 0.36329
 H1418 H 0.16232 0.22800 0.35081
 H1419 H 0.15344 0.20360 0.32044
 H1420 H 0.17137 0.23348 0.38943
 H1421 H 0.16902 0.15325 0.40142
 H1422 H 0.18113 0.15856 0.43932
 H1423 H 0.19344 0.18287 0.46869
 H1424 H 0.18252 0.23869 0.42738
 C1425 C 0.32662 0.36848 0.66234
 C1426 C 0.31373 0.38512 0.67165
 C1427 C 0.29064 0.38204 0.67447
 C1428 C 0.28104 0.36205 0.66893
 C1429 C 0.29407 0.34540 0.66026
 C1430 C 0.31685 0.34857 0.65638
 C1431 C 0.27750 0.39897 0.68274
 C1432 C 0.28722 0.41877 0.68880
 C1433 C 0.31046 0.42153 0.68697
 C1434 C 0.32353 0.40480 0.67811
 C1435 C 0.32021 0.44100 0.69408
 C1436 C 0.30704 0.45763 0.70276
 C1437 C 0.28392 0.45525 0.70385
 C1438 C 0.27407 0.43582 0.69683
 H1439 H 0.34417 0.37105 0.65947
 H1440 H 0.26344 0.35930 0.67129
 H1441 H 0.28627 0.33005 0.65623
 H1442 H 0.25974 0.39670 0.68453
 H1443 H 0.34128 0.40707 0.67632
 H1444 H 0.33799 0.44335 0.69300
 H1445 H 0.31483 0.47256 0.70818
 H1446 H 0.25622 0.43389 0.69800
 C1447 C 0.32650 0.87448 0.16369
 C1448 C 0.31480 0.88947 0.17667
 C1449 C 0.31340 0.88623 0.19954
 C1450 C 0.32334 0.86786 0.20898
 C1451 C 0.33468 0.85292 0.19593
 C1452 C 0.33658 0.85614 0.17322
 C1453 C 0.30197 0.90129 0.21261
 C1454 C 0.29151 0.91935 0.20307
 C1455 C 0.29257 0.92238 0.18014
 C1456 C 0.30442 0.90758 0.16713
 C1457 C 0.28146 0.94000 0.17054
 C1458 C 0.26908 0.95427 0.18346
 C1459 C 0.26802 0.95150 0.20624
 C1460 C 0.27955 0.93417 0.21603
 H1461 H 0.32797 0.87712 0.14622
 H1462 H 0.32229 0.86502 0.22644
 H1463 H 0.34206 0.83876 0.20361
 H1464 H 0.30099 0.89880 0.23015
 H1465 H 0.30531 0.91000 0.14958
 H1466 H 0.28203 0.94255 0.15301
 H1467 H 0.26031 0.96756 0.17562
 H1468 H 0.27853 0.93179 0.23357
 C1469 C 0.81868 0.37835 0.17778
 C1470 C 0.80648 0.39379 0.18962
 C1471 C 0.79575 0.41103 0.17849
 C1472 C 0.79746 0.41246 0.15564
 C1473 C 0.80992 0.39712 0.14399
 C1474 C 0.82074 0.38002 0.15495
 C1475 C 0.78376 0.42667 0.19041
 C1476 C 0.78280 0.42550 0.21334
 C1477 C 0.79367 0.40825 0.22437
 C1478 C 0.80518 0.39240 0.21244
 C1479 C 0.79327 0.40735 0.24725
 C1480 C 0.78270 0.42368 0.25918
 C1481 C 0.77193 0.44096 0.24849
 C1482 C 0.77167 0.44160 0.22550
 H1483 H 0.82669 0.36502 0.18633
 H1484 H 0.78938 0.42555 0.14681
 H1485 H 0.81132 0.39868 0.12641
 H1486 H 0.77557 0.43993 0.18190
 H1487 H 0.81352 0.37922 0.22096
 H1488 H 0.80152 0.39426 0.25594
 H1489 H 0.78302 0.42283 0.27687
 H1490 H 0.76359 0.45502 0.21716
 C1491 C 0.85464 0.88373 0.68868
 C1492 C 0.84680 0.90262 0.69899
 C1493 C 0.83617 0.91893 0.68643
 C1494 C 0.83437 0.91650 0.66373
 C1495 C 0.84242 0.89777 0.65360
 C1496 C 0.85227 0.88108 0.66597
 C1497 C 0.82706 0.93718 0.69678
 C1498 C 0.82848 0.93938 0.71953
 C1499 C 0.83991 0.92358 0.73204
 C1500 C 0.84896 0.90523 0.72169
 C1501 C 0.84168 0.92624 0.75477
 C1502 C 0.83160 0.94402 0.76505
 C1503 C 0.81938 0.95918 0.75278
 C1504 C 0.81821 0.95695 0.72999
 H1505 H 0.86199 0.87080 0.69834
 H1506 H 0.82642 0.92893 0.65386
 H1507 H 0.84059 0.89604 0.63608
 H1508 H 0.81850 0.94946 0.68719
 H1509 H 0.85734 0.89286 0.73130
 H1510 H 0.85053 0.91439 0.76461
 H1511 H 0.83269 0.94550 0.78266
 H1512 H 0.80905 0.96879 0.72040
 C1513 C 0.70680 0.65150 0.68007
 C1514 C 0.71437 0.63205 0.68950
 C1515 C 0.71190 0.62863 0.71224
 C1516 C 0.70215 0.64488 0.72516
 C1517 C 0.69515 0.66445 0.71570
 C1518 C 0.69737 0.66799 0.69307
 C1519 C 0.71949 0.60917 0.72170
 C1520 C 0.73006 0.59337 0.70880
 C1521 C 0.73288 0.59701 0.68612
 C1522 C 0.72473 0.61617 0.67657
 C1523 C 0.74416 0.58156 0.67341
 C1524 C 0.75285 0.56280 0.68312
 C1525 C 0.74994 0.55892 0.70557
 C1526 C 0.73830 0.57418 0.71829
 H1527 H 0.70840 0.65389 0.66258
 H1528 H 0.70024 0.64259 0.74263
 H1529 H 0.68819 0.67696 0.72611
 H1530 H 0.71753 0.60650 0.73914
 H1531 H 0.72683 0.61891 0.65916
 H1532 H 0.74654 0.58413 0.65603
 H1533 H 0.76175 0.55122 0.67303
 H1534 H 0.73626 0.57142 0.73570
 C1535 C 0.64620 0.12712 0.17190
 C1536 C 0.66042 0.11152 0.18126
 C1537 C 0.68360 0.11498 0.18092
 C1538 C 0.69211 0.13421 0.17188
 C1539 C 0.67784 0.14992 0.16324
 C1540 C 0.65473 0.14655 0.16288
 C1541 C 0.69792 0.09925 0.18975
 C1542 C 0.68935 0.08030 0.19940
 C1543 C 0.66614 0.07713 0.20044
 C1544 C 0.65182 0.09263 0.19111
 C1545 C 0.65768 0.05849 0.21083
 C1546 C 0.67208 0.04304 0.21990
 C1547 C 0.69516 0.04575 0.21835
 C1548 C 0.70367 0.06448 0.20811
 H1549 H 0.62849 0.12418 0.17171
 H1550 H 0.70982 0.13724 0.17173
 H1551 H 0.68496 0.16484 0.15692
 H1552 H 0.71571 0.10183 0.18922
 H1553 H 0.63403 0.09007 0.19167
 H1554 H 0.63995 0.05585 0.21191
 H1555 H 0.66517 0.02870 0.22768
 H1556 H 0.72147 0.06684 0.20709
 C1557 C 0.18043 0.63205 0.15845
 C1558 C 0.18900 0.61192 0.16545
 C1559 C 0.17434 0.59506 0.17171
 C1560 C 0.15141 0.59823 0.16984
 C1561 C 0.14303 0.61811 0.16240
 C1562 C 0.15735 0.63546 0.15715
 C1563 C 0.18280 0.57539 0.17993
 C1564 C 0.20578 0.57218 0.18157
 C1565 C 0.22047 0.58864 0.17430
 C1566 C 0.21200 0.60849 0.16651
 C1567 C 0.24343 0.58503 0.17514
 C1568 C 0.25178 0.56548 0.18348
 C1569 C 0.23735 0.54942 0.19157
 C1570 C 0.21434 0.55281 0.19047
 H1571 H 0.19173 0.64519 0.15451
 H1572 H 0.13993 0.58538 0.17425
 H1573 H 0.12523 0.62005 0.16109
 H1574 H 0.17151 0.56264 0.18515
 H1575 H 0.22328 0.62127 0.16137
 H1576 H 0.25493 0.59738 0.16948
 H1577 H 0.26958 0.56317 0.18425
 H1578 H 0.20313 0.54034 0.19646
 C1579 C 0.17520 0.11999 0.66722
 C1580 C 0.18612 0.10350 0.67894
 C1581 C 0.18547 0.10353 0.70207
 C1582 C 0.17421 0.12021 0.71306
 C1583 C 0.16368 0.13672 0.70128
 C1584 C 0.16395 0.13672 0.67830
 C1585 C 0.19619 0.08698 0.71384
 C1586 C 0.20791 0.07060 0.70281
 C1587 C 0.20887 0.07076 0.67970
 C1588 C 0.19779 0.08708 0.66790
 C1589 C 0.22112 0.05469 0.66877
 C1590 C 0.23249 0.03875 0.68061
 C1591 C 0.23149 0.03835 0.70356
 C1592 C 0.21898 0.05424 0.71456
 H1593 H 0.17539 0.11989 0.64950
 H1594 H 0.17366 0.12057 0.73077
 H1595 H 0.15530 0.14961 0.71010
 H1596 H 0.19560 0.08698 0.73157
 H1597 H 0.19845 0.08713 0.65017
 H1598 H 0.22209 0.05459 0.65107
 H1599 H 0.24201 0.02664 0.67179
 H1600 H 0.21834 0.05420 0.73228
 C1601 C 0.34818 0.60068 0.32318
 C1602 C 0.33553 0.58522 0.31199
 C1603 C 0.32307 0.56967 0.32382
 C1604 C 0.32398 0.56964 0.34676
 C1605 C 0.33726 0.58475 0.35781
 C1606 C 0.34946 0.60046 0.34614
 C1607 C 0.31013 0.55437 0.31249
 C1608 C 0.31008 0.55410 0.28950
 C1609 C 0.32318 0.56932 0.27781
 C1610 C 0.33549 0.58496 0.28911
 C1611 C 0.32393 0.56857 0.25495
 C1612 C 0.31183 0.55290 0.24366
 C1613 C 0.29835 0.53802 0.25497
 C1614 C 0.29740 0.53874 0.27793
 H1615 H 0.35719 0.61289 0.31394
 H1616 H 0.31466 0.55777 0.35614
 H1617 H 0.33808 0.58416 0.37548
 H1618 H 0.30036 0.54255 0.32152
 H1619 H 0.34533 0.59674 0.28008
 H1620 H 0.33397 0.58004 0.24579
 H1621 H 0.31265 0.55268 0.22596
 H1622 H 0.28716 0.52714 0.28673
 C1623 C 0.33487 0.13317 0.80385
 C1624 C 0.32356 0.11505 0.79541
 C1625 C 0.30011 0.11462 0.79591
 C1626 C 0.28840 0.13254 0.80412
 C1627 C 0.29975 0.15080 0.81172
 C1628 C 0.32309 0.15127 0.81198
 C1629 C 0.28871 0.09641 0.78798
 C1630 C 0.30039 0.07888 0.77888
 C1631 C 0.32380 0.07956 0.77759
 C1632 C 0.33528 0.09751 0.78620
 C1633 C 0.33526 0.06234 0.76753
 C1634 C 0.32363 0.04460 0.75891
 C1635 C 0.30045 0.04356 0.76076
 C1636 C 0.28895 0.06075 0.77080
 H1637 H 0.35285 0.13334 0.80390
 H1638 H 0.27042 0.13258 0.80434
 H1639 H 0.29024 0.16467 0.81733
 H1640 H 0.27073 0.09601 0.78862
 H1641 H 0.35325 0.09796 0.78546
 H1642 H 0.35319 0.06266 0.76623
 H1643 H 0.33274 0.03149 0.75119
 H1644 H 0.27100 0.06020 0.77192
 C1645 C 0.85543 0.61981 0.83254
 C1646 C 0.84266 0.60515 0.82027
 C1647 C 0.81923 0.60627 0.82125
 C1648 C 0.80901 0.62227 0.83408
 C1649 C 0.82183 0.63721 0.84566
 C1650 C 0.84514 0.63615 0.84508
 C1651 C 0.80638 0.59160 0.80916
 C1652 C 0.81661 0.57620 0.79560
 C1653 C 0.84002 0.57538 0.79416
 C1654 C 0.85291 0.58966 0.80675
 C1655 C 0.85010 0.56044 0.77994
 C1656 C 0.83713 0.54649 0.76723
 C1657 C 0.81389 0.54693 0.76888
 C1658 C 0.80375 0.56178 0.78319
 H1659 H 0.87337 0.61880 0.83208
 H1660 H 0.79109 0.62347 0.83487
 H1661 H 0.81352 0.64979 0.85495
 H1662 H 0.78842 0.59240 0.81006
 H1663 H 0.87086 0.58895 0.80576
 H1664 H 0.86801 0.55965 0.77853
 H1665 H 0.84527 0.53512 0.75633
 H1666 H 0.78580 0.56241 0.78435
 C1667 C 0.81446 0.11923 0.33246
 C1668 C 0.80255 0.10541 0.31839
 C1669 C 0.80011 0.11112 0.29608
 C1670 C 0.80869 0.13089 0.28843
 C1671 C 0.82030 0.14454 0.30250
 C1672 C 0.82376 0.13867 0.32447
 C1673 C 0.78952 0.09683 0.28164
 C1674 C 0.78105 0.07696 0.28919
 C1675 C 0.78257 0.07161 0.31165
 C1676 C 0.79345 0.08580 0.32610
 C1677 C 0.77333 0.05203 0.31922
 C1678 C 0.76300 0.03778 0.30463
 C1679 C 0.76218 0.04263 0.28220
 C1680 C 0.77117 0.06230 0.27458
 H1681 H 0.81717 0.11460 0.34935
 H1682 H 0.80677 0.13561 0.27145
 H1683 H 0.82716 0.15956 0.29611
 H1684 H 0.78807 0.10109 0.26447
 H1685 H 0.79501 0.08149 0.34323
 H1686 H 0.77417 0.04771 0.33638
 H1687 H 0.75613 0.02267 0.31080
 H1688 H 0.77029 0.06625 0.25731
 C1689 C 0.65503 0.35955 0.34088
 C1690 C 0.66323 0.37865 0.33126
 C1691 C 0.66118 0.38179 0.30846
 C1692 C 0.65060 0.36586 0.29579
 C1693 C 0.64341 0.34638 0.30539
 C1694 C 0.64612 0.34276 0.32794
 C1695 C 0.67064 0.40027 0.29862
 C1696 C 0.68305 0.41504 0.31116
 C1697 C 0.68507 0.41181 0.33398
 C1698 C 0.67466 0.39396 0.34395
 C1699 C 0.69826 0.42598 0.34634
 C1700 C 0.71005 0.44271 0.33610
 C1701 C 0.70834 0.44597 0.31345
 C1702 C 0.69435 0.43240 0.30112
 H1703 H 0.65688 0.35708 0.35834
 H1704 H 0.64885 0.36799 0.27828
 H1705 H 0.63666 0.33376 0.29502
 H1706 H 0.66926 0.40260 0.28109
 H1707 H 0.67642 0.39139 0.36142
 H1708 H 0.70002 0.42370 0.36383
 H1709 H 0.72067 0.45304 0.34589
 H1710 H 0.69316 0.43466 0.28358
 C1711 C 0.69830 0.87998 0.85330
 C1712 C 0.70783 0.89719 0.84148
 C1713 C 0.70401 0.89894 0.81873
 C1714 C 0.69076 0.88340 0.80823
 C1715 C 0.68167 0.86609 0.82007
 C1716 C 0.68540 0.86419 0.84267
 C1717 C 0.71379 0.91596 0.80682
 C1718 C 0.72770 0.93099 0.81729
 C1719 C 0.73160 0.92913 0.84002
 C1720 C 0.72144 0.91239 0.85201
 C1721 C 0.74590 0.94384 0.85034
 C1722 C 0.75656 0.96004 0.83823
 C1723 C 0.75286 0.96204 0.81563
 C1724 C 0.73817 0.94759 0.80530
 H1725 H 0.70112 0.87863 0.87075
 H1726 H 0.68772 0.88444 0.79080
 H1727 H 0.67195 0.85396 0.81156
 H1728 H 0.71090 0.91729 0.78936
 H1729 H 0.72447 0.91097 0.86943
 H1730 H 0.74908 0.94264 0.86774
 H1731 H 0.76774 0.97103 0.84657
 H1732 H 0.73533 0.94888 0.78784
 C1733 C 0.15976 0.38921 0.81740
 C1734 C 0.17173 0.40627 0.80774
 C1735 C 0.18296 0.42146 0.82107
 C1736 C 0.18146 0.41961 0.84389
 C1737 C 0.16904 0.40284 0.85338
 C1738 C 0.15820 0.38735 0.84028
 C1739 C 0.19544 0.43821 0.81137
 C1740 C 0.19645 0.44018 0.78851
 C1741 C 0.18463 0.42531 0.77526
 C1742 C 0.17257 0.40835 0.78494
 C1743 C 0.18505 0.42764 0.75248
 C1744 C 0.19720 0.44442 0.74283
 C1745 C 0.20947 0.45899 0.75573
 C1746 C 0.20904 0.45678 0.77862
 H1747 H 0.15174 0.37726 0.80707
 H1748 H 0.18981 0.43118 0.85439
 H1749 H 0.16792 0.40190 0.87103
 H1750 H 0.20426 0.44972 0.82159
 H1751 H 0.16374 0.39682 0.77473
 H1752 H 0.17600 0.41646 0.74212
 H1753 H 0.19738 0.44573 0.72517
 H1754 H 0.21832 0.46806 0.78870
 C1755 C 0.16047 0.86141 0.32626
 C1756 C 0.17066 0.87980 0.31699
 C1757 C 0.18215 0.89457 0.33057
 C1758 C 0.18288 0.89092 0.35319
 C1759 C 0.17208 0.87296 0.36236
 C1760 C 0.16072 0.85801 0.34906
 C1761 C 0.19252 0.91287 0.32136
 C1762 C 0.19109 0.91688 0.29880
 C1763 C 0.17913 0.90241 0.28528
 C1764 C 0.16923 0.88380 0.29442
 C1765 C 0.17721 0.90688 0.26285
 C1766 C 0.18715 0.92543 0.25385
 C1767 C 0.19950 0.93963 0.26706
 C1768 C 0.20136 0.93523 0.28957
 H1769 H 0.15206 0.84986 0.31578
 H1770 H 0.19151 0.90214 0.36385
 H1771 H 0.17238 0.87083 0.37993
 H1772 H 0.20150 0.92410 0.33177
 H1773 H 0.16019 0.87261 0.28402
 H1774 H 0.16800 0.89603 0.25226
 H1775 H 0.18554 0.92845 0.23647
 H1776 H 0.21067 0.94620 0.29996
 C1777 C 0.35727 0.32807 0.67588
 C1778 C 0.37845 0.32232 0.68347
 C1779 C 0.39454 0.31442 0.66863
 C1780 C 0.38945 0.31333 0.64630
 C1781 C 0.36850 0.31960 0.63881
 C1782 C 0.35202 0.32663 0.65352
 C1783 C 0.41536 0.30761 0.67637
 C1784 C 0.42042 0.30899 0.69873
 C1785 C 0.40461 0.31782 0.71337
 C1786 C 0.38368 0.32422 0.70570
 C1787 C 0.40989 0.31993 0.73555
 C1788 C 0.43046 0.31295 0.74330
 C1789 C 0.44601 0.30338 0.72912
 C1790 C 0.44094 0.30156 0.70676
 H1791 H 0.34475 0.33335 0.68744
 H1792 H 0.40165 0.30758 0.63463
 H1793 H 0.36502 0.31871 0.62147
 H1794 H 0.42755 0.30116 0.66504
 H1795 H 0.37145 0.33060 0.71704
 H1796 H 0.39804 0.32680 0.74696
 H1797 H 0.43394 0.31443 0.76061
 H1798 H 0.45291 0.29435 0.69568
 C1799 C 0.37257 0.80896 0.16826
 C1800 C 0.39123 0.79961 0.17820
 C1801 C 0.40667 0.81307 0.18915
 C1802 C 0.40343 0.83567 0.18950
 C1803 C 0.38484 0.84484 0.17946
 C1804 C 0.36916 0.83157 0.16899
 C1805 C 0.42492 0.80370 0.19978
 C1806 C 0.42798 0.78106 0.19954
 C1807 C 0.41283 0.76766 0.18816
 C1808 C 0.39451 0.77701 0.17761
 C1809 C 0.41618 0.74507 0.18765
 C1810 C 0.43426 0.73581 0.19848
 C1811 C 0.44915 0.74894 0.21020
 C1812 C 0.44593 0.77160 0.21059
 H1813 H 0.36039 0.79865 0.16038
 H1814 H 0.41514 0.84623 0.19771
 H1815 H 0.38248 0.86231 0.18007
 H1816 H 0.43662 0.81399 0.20837
 H1817 H 0.38276 0.76671 0.16909
 H1818 H 0.40479 0.73457 0.17895
 H1819 H 0.43641 0.71830 0.19796
 H1820 H 0.45745 0.78189 0.21940
 C1821 C 0.85890 0.33354 0.15171
 C1822 C 0.87809 0.32528 0.16163
 C1823 C 0.89267 0.33957 0.17262
 C1824 C 0.88811 0.36196 0.17292
 C1825 C 0.86907 0.37009 0.16277
 C1826 C 0.85416 0.35596 0.15230
 C1827 C 0.91138 0.33120 0.18336
 C1828 C 0.91571 0.30874 0.18319
 C1829 C 0.90146 0.29456 0.17164
 C1830 C 0.88272 0.30291 0.16098
 C1831 C 0.90603 0.27218 0.17123
 C1832 C 0.92424 0.26382 0.18259
 C1833 C 0.93810 0.27766 0.19469
 C1834 C 0.93388 0.30019 0.19467
 H1835 H 0.84738 0.32249 0.14390
 H1836 H 0.89917 0.37317 0.18115
 H1837 H 0.86579 0.38742 0.16326
 H1838 H 0.92240 0.34212 0.19207
 H1839 H 0.87162 0.29198 0.15240
 H1840 H 0.89535 0.26109 0.16237
 H1841 H 0.92712 0.24641 0.18236
 H1842 H 0.94456 0.31106 0.20381
 C1843 C 0.88050 0.82717 0.66177
 C1844 C 0.89974 0.81673 0.66939
 C1845 C 0.91774 0.82930 0.67712
 C1846 C 0.91665 0.85206 0.67598
 C1847 C 0.89762 0.86230 0.66801
 C1848 C 0.87906 0.85005 0.66144
 C1849 C 0.93638 0.81894 0.68613
 C1850 C 0.93741 0.79613 0.68719
 C1851 C 0.91989 0.78357 0.67842
 C1852 C 0.90110 0.79393 0.66977
 C1853 C 0.92134 0.76079 0.67871
 C1854 C 0.93972 0.75053 0.68801
 C1855 C 0.95675 0.76283 0.69759
 C1856 C 0.95559 0.78566 0.69703
 H1857 H 0.86640 0.81747 0.65677
 H1858 H 0.93042 0.86195 0.68150
 H1859 H 0.89719 0.87992 0.66744
 H1860 H 0.94996 0.82861 0.69249
 H1861 H 0.88746 0.78427 0.66352
 H1862 H 0.90816 0.75091 0.67192
 H1863 H 0.94030 0.73289 0.68835
 H1864 H 0.96882 0.79522 0.70421
 C1865 C 0.60369 0.31467 0.32519
 C1866 C 0.58689 0.30017 0.31875
 C1867 C 0.59181 0.27775 0.31633
 C1868 C 0.61346 0.27031 0.31984
 C1869 C 0.63005 0.28482 0.32605
 C1870 C 0.62531 0.30703 0.32911
 C1871 C 0.57507 0.26311 0.31037
 C1872 C 0.55352 0.27061 0.30624
 C1873 C 0.54864 0.29308 0.30818
 C1874 C 0.56528 0.30767 0.31472
 C1875 C 0.52730 0.30062 0.30303
 C1876 C 0.51119 0.28615 0.29544
 C1877 C 0.51591 0.26385 0.29365
 C1878 C 0.53696 0.25607 0.29946
 H1879 H 0.59994 0.33177 0.32759
 H1880 H 0.61757 0.25323 0.31787
 H1881 H 0.64665 0.27865 0.32875
 H1882 H 0.57888 0.24593 0.30862
 H1883 H 0.56150 0.32487 0.31634
 H1884 H 0.52328 0.31778 0.30427
 H1885 H 0.49505 0.29237 0.29074
 H1886 H 0.54075 0.23891 0.29754
 C1887 C 0.64847 0.81662 0.85055
 C1888 C 0.62706 0.80997 0.84436
 C1889 C 0.61105 0.82582 0.83858
 C1890 C 0.61626 0.84797 0.84027
 C1891 C 0.63747 0.85442 0.84658
 C1892 C 0.65401 0.83889 0.85110
 C1893 C 0.59035 0.81934 0.83050
 C1894 C 0.58542 0.79719 0.82802
 C1895 C 0.60087 0.78126 0.83492
 C1896 C 0.62161 0.78776 0.84308
 C1897 C 0.59556 0.75911 0.83279
 C1898 C 0.57569 0.75282 0.82280
 C1899 C 0.56096 0.76858 0.81463
 C1900 C 0.56564 0.79074 0.81788
 H1901 H 0.66106 0.80450 0.85402
 H1902 H 0.60408 0.86032 0.83621
 H1903 H 0.64120 0.87164 0.84735
 H1904 H 0.57836 0.83154 0.82547
 H1905 H 0.63373 0.77555 0.84778
 H1906 H 0.60708 0.74666 0.83818
 H1907 H 0.57243 0.73565 0.82040
 H1908 H 0.55423 0.80299 0.81179
 C1909 C 0.12385 0.33800 0.83772
 C1910 C 0.10532 0.32914 0.82718
 C1911 C 0.08947 0.34308 0.81745
 C1912 C 0.09227 0.36572 0.81886
 C1913 C 0.11060 0.37443 0.82977
 C1914 C 0.12664 0.36068 0.83917
 C1915 C 0.07112 0.33415 0.80653
 C1916 C 0.06828 0.31146 0.80556
 C1917 C 0.08395 0.29762 0.81578
 C1918 C 0.10243 0.30652 0.82633
 C1919 C 0.08088 0.27503 0.81532
 C1920 C 0.06253 0.26613 0.80476
 C1921 C 0.04703 0.27962 0.79418
 C1922 C 0.05002 0.30234 0.79461
 H1923 H 0.13621 0.32727 0.84476
 H1924 H 0.08024 0.37668 0.81161
 H1925 H 0.11235 0.39194 0.83087
 H1926 H 0.05904 0.34482 0.79890
 H1927 H 0.11450 0.29585 0.83399
 H1928 H 0.09269 0.26421 0.82313
 H1929 H 0.06066 0.24859 0.80457
 H1930 H 0.03806 0.31288 0.78664
 C1931 C 0.12327 0.80989 0.34879
 C1932 C 0.10342 0.80254 0.33943
 C1933 C 0.08864 0.81766 0.32983
 C1934 C 0.09344 0.83997 0.33079
 C1935 C 0.11290 0.84720 0.34080
 C1936 C 0.12830 0.83225 0.34945
 C1937 C 0.06941 0.81021 0.31931
 C1938 C 0.06455 0.78787 0.31872
 C1939 C 0.07876 0.77290 0.32938
 C1940 C 0.09822 0.78029 0.33943
 C1941 C 0.07344 0.75069 0.32953
 C1942 C 0.05458 0.74325 0.31865
 C1943 C 0.04095 0.75783 0.30710
 C1944 C 0.04587 0.78019 0.30740
 H1945 H 0.13495 0.79817 0.35537
 H1946 H 0.08215 0.85182 0.32382
 H1947 H 0.11610 0.86453 0.34157
 H1948 H 0.05833 0.82177 0.31150
 H1949 H 0.10937 0.76873 0.34716
 H1950 H 0.08404 0.73902 0.33777
 H1951 H 0.05114 0.72594 0.31852
 H1952 H 0.03530 0.79154 0.29866
 C1953 C 0.65182 0.68868 0.69712
 C1954 C 0.63325 0.69990 0.70522
 C1955 C 0.63396 0.72282 0.70742
 C1956 C 0.65322 0.73411 0.70133
 C1957 C 0.67168 0.72279 0.69342
 C1958 C 0.67124 0.70000 0.69141
 C1959 C 0.61553 0.73401 0.71592
 C1960 C 0.59655 0.72253 0.72261
 C1961 C 0.59589 0.69961 0.72029
 C1962 C 0.61412 0.68849 0.71142
 C1963 C 0.57719 0.68806 0.72738
 C1964 C 0.55958 0.69897 0.73734
 C1965 C 0.56011 0.72169 0.74004
 C1966 C 0.57846 0.73348 0.73219
 H1967 H 0.65125 0.67114 0.69528
 H1968 H 0.65409 0.75166 0.70287
 H1969 H 0.68649 0.73179 0.68906
 H1970 H 0.61614 0.75157 0.71773
 H1971 H 0.61359 0.67091 0.70978
 H1972 H 0.57640 0.67051 0.72571
 H1973 H 0.54557 0.68957 0.74318
 H1974 H 0.57910 0.75098 0.73442
 C1975 C 0.61387 0.16652 0.18475
 C1976 C 0.59291 0.17233 0.19286
 C1977 C 0.57568 0.17784 0.17816
 C1978 C 0.57941 0.17641 0.15560
 C1979 C 0.60025 0.17042 0.14767
 C1980 C 0.61779 0.16591 0.16212
 C1981 C 0.55520 0.18518 0.18623
 C1982 C 0.55167 0.18687 0.20883
 C1983 C 0.56857 0.18039 0.22351
 C1984 C 0.58911 0.17328 0.21544
 C1985 C 0.56478 0.18141 0.24608
 C1986 C 0.54460 0.18918 0.25407
 C1987 C 0.52802 0.19644 0.23966
 C1988 C 0.53158 0.19516 0.21702
 H1989 H 0.62738 0.16332 0.19598
 H1990 H 0.56636 0.18037 0.14409
 H1991 H 0.60298 0.16995 0.13017
 H1992 H 0.54216 0.18985 0.17495
 H1993 H 0.60221 0.16878 0.22673
 H1994 H 0.57748 0.17638 0.25756
 H1995 H 0.54218 0.19012 0.27160
 H1996 H 0.51874 0.20055 0.20585
 C1997 C 0.12276 0.66148 0.18260
 C1998 C 0.10345 0.67056 0.19161
 C1999 C 0.08879 0.68255 0.17812
 C2000 C 0.09318 0.68441 0.15569
 C2001 C 0.11227 0.67508 0.14682
 C2002 C 0.12745 0.66393 0.16021
 C2003 C 0.07021 0.69281 0.18730
 C2004 C 0.06595 0.69104 0.20976
 C2005 C 0.08006 0.67826 0.22310
 C2006 C 0.09880 0.66823 0.21397
 C2007 C 0.07529 0.67595 0.24543
 C2008 C 0.05698 0.68653 0.25455
 C2009 C 0.04341 0.69992 0.24158
 C2010 C 0.04789 0.70201 0.21916
 H2011 H 0.13450 0.65309 0.19305
 H2012 H 0.08203 0.69336 0.14508
 H2013 H 0.11557 0.67701 0.12952
 H2014 H 0.05923 0.70235 0.17701
 H2015 H 0.10987 0.65880 0.22428
 H2016 H 0.08581 0.66610 0.25586
 H2017 H 0.05377 0.68475 0.27189
 H2018 H 0.03727 0.71212 0.20905
 C2019 C 0.12510 0.18263 0.67439
 C2020 C 0.10497 0.18919 0.68397
 C2021 C 0.09045 0.17337 0.69284
 C2022 C 0.09569 0.15124 0.69087
 C2023 C 0.11559 0.14485 0.68110
 C2024 C 0.13080 0.16044 0.67336
 C2025 C 0.07123 0.17992 0.70401
 C2026 C 0.06623 0.20211 0.70632
 C2027 C 0.08014 0.21788 0.69644
 C2028 C 0.09945 0.21134 0.68542
 C2029 C 0.07474 0.24001 0.69818
 C2030 C 0.05621 0.24653 0.71023
 C2031 C 0.04291 0.23108 0.72103
 C2032 C 0.04783 0.20883 0.71875
 H2033 H 0.13672 0.19479 0.66856
 H2034 H 0.08463 0.13888 0.69730
 H2035 H 0.11949 0.12766 0.68019
 H2036 H 0.06041 0.16778 0.71128
 H2037 H 0.11040 0.22349 0.67835
 H2038 H 0.08508 0.25231 0.69056
 H2039 H 0.05277 0.26377 0.71180
 H2040 H 0.03753 0.19680 0.72686
 C2041 C 0.38682 0.64632 0.34411
 C2042 C 0.40446 0.65395 0.33127
 C2043 C 0.41871 0.63895 0.32074
 C2044 C 0.41562 0.61655 0.32408
 C2045 C 0.39806 0.60909 0.33704
 C2046 C 0.38321 0.62388 0.34672
 C2047 C 0.43544 0.64657 0.30668
 C2048 C 0.43815 0.66901 0.30315
 C2049 C 0.42442 0.68397 0.31442
 C2050 C 0.40763 0.67635 0.32832
 C2051 C 0.42748 0.70637 0.31140
 C2052 C 0.44374 0.71395 0.29705
 C2053 C 0.45700 0.69929 0.28520
 C2054 C 0.45421 0.67678 0.28839
 H2055 H 0.37530 0.65782 0.35134
 H2056 H 0.42647 0.60480 0.31631
 H2057 H 0.39555 0.59173 0.33896
 H2058 H 0.44610 0.63506 0.29828
 H2059 H 0.39685 0.68785 0.33659
 H2060 H 0.41720 0.71805 0.32000
 H2061 H 0.44558 0.73136 0.29482
 H2062 H 0.46455 0.66539 0.27948
 C2063 C 0.37226 0.18691 0.82080
 C2064 C 0.39044 0.19638 0.81003
 C2065 C 0.39163 0.19569 0.78695
 C2066 C 0.37459 0.18570 0.77507
 C2067 C 0.35615 0.17710 0.78589
 C2068 C 0.35469 0.17772 0.80883
 C2069 C 0.40944 0.20562 0.77606
 C2070 C 0.42561 0.21701 0.78789
 C2071 C 0.42429 0.21797 0.81095
 C2072 C 0.40696 0.20726 0.82191
 C2073 C 0.43997 0.23020 0.82260
 C2074 C 0.45645 0.24182 0.81147
 C2075 C 0.45788 0.24091 0.78858
 C2076 C 0.44263 0.22813 0.77692
 H2077 H 0.37132 0.18739 0.83849
 H2078 H 0.37517 0.18515 0.75737
 H2079 H 0.34273 0.17040 0.77628
 H2080 H 0.41032 0.20511 0.75835
 H2081 H 0.40591 0.20802 0.83960
 H2082 H 0.43916 0.23120 0.84027
 H2083 H 0.46805 0.25158 0.82075
 H2084 H 0.44342 0.22761 0.75921
 C2085 C 0.87846 0.66486 0.82385
 C2086 C 0.89724 0.67397 0.81385
 C2087 C 0.91510 0.68130 0.82683
 C2088 C 0.91412 0.67867 0.84960
 C2089 C 0.89567 0.66883 0.85938
 C2090 C 0.87755 0.66192 0.84668
 C2091 C 0.93366 0.69096 0.81682
 C2092 C 0.93486 0.69271 0.79394
 C2093 C 0.91729 0.68456 0.78099
 C2094 C 0.89847 0.67561 0.79103
 C2095 C 0.91888 0.68536 0.75815
 C2096 C 0.93761 0.69425 0.74816
 C2097 C 0.95485 0.70300 0.76079
 C2098 C 0.95338 0.70229 0.78372
 H2099 H 0.86454 0.65998 0.81381
 H2100 H 0.92773 0.68400 0.85983
 H2101 H 0.89554 0.66658 0.87694
 H2102 H 0.94724 0.69686 0.82680
 H2103 H 0.88491 0.66965 0.78105
 H2104 H 0.90564 0.67905 0.74800
 H2105 H 0.93841 0.69478 0.73047
 H2106 H 0.96676 0.70886 0.79352
 C2107 C 0.86367 0.18124 0.32664
 C2108 C 0.88209 0.18850 0.31466
 C2109 C 0.89580 0.17320 0.30384
 C2110 C 0.89126 0.15090 0.30577
 C2111 C 0.87288 0.14384 0.31772
 C2112 C 0.85880 0.15892 0.32798
 C2113 C 0.91349 0.18045 0.29085
 C2114 C 0.91763 0.20280 0.28850
 C2115 C 0.90435 0.21806 0.29985
 C2116 C 0.88666 0.21082 0.31286
 C2117 C 0.90882 0.24037 0.29775
 C2118 C 0.92601 0.24752 0.28420
 C2119 C 0.93887 0.23251 0.27236
 C2120 C 0.93470 0.21013 0.27474
 H2121 H 0.85261 0.19291 0.33427
 H2122 H 0.90162 0.13896 0.29766
 H2123 H 0.86923 0.12659 0.31857
 H2124 H 0.92378 0.16874 0.28228
 H2125 H 0.87625 0.22254 0.32128
 H2126 H 0.89889 0.25229 0.30641
 H2127 H 0.92895 0.26485 0.28264
 H2128 H 0.94470 0.19842 0.26586
 C2129 C 0.30587 0.32929 0.61306
 C2130 C 0.29454 0.31693 0.59739
 C2131 C 0.29807 0.29419 0.59639
 C2132 C 0.31250 0.28418 0.61130
 C2133 C 0.32304 0.29650 0.62736
 C2134 C 0.31989 0.31916 0.62843
 C2135 C 0.28686 0.28174 0.58076
 C2136 C 0.27168 0.29164 0.56651
 C2137 C 0.26765 0.31427 0.56782
 C2138 C 0.27936 0.32685 0.58307
 C2139 C 0.25185 0.32385 0.55393
 C2140 C 0.24028 0.31112 0.53878
 C2141 C 0.24464 0.28873 0.53706
 C2142 C 0.26033 0.27913 0.55105
 H2143 H 0.30337 0.34676 0.61372
 H2144 H 0.31523 0.26674 0.61085
 H2145 H 0.33341 0.28827 0.63922
 H2146 H 0.28971 0.26432 0.57989
 H2147 H 0.27641 0.34426 0.58403
 H2148 H 0.24844 0.34116 0.55479
 H2149 H 0.22827 0.31883 0.52812
 H2150 H 0.26359 0.26178 0.55005
 C2151 C 0.31832 0.83055 0.13540
 C2152 C 0.31067 0.82201 0.11552
 C2153 C 0.32600 0.81626 0.09898
 C2154 C 0.34870 0.81982 0.10238
 C2155 C 0.35615 0.82856 0.12212
 C2156 C 0.34113 0.83370 0.13897
 C2157 C 0.31843 0.80692 0.07941
 C2158 C 0.29565 0.80354 0.07605
 C2159 C 0.28032 0.80992 0.09239
 C2160 C 0.28792 0.81893 0.11204
 C2161 C 0.25756 0.80718 0.08883
 C2162 C 0.25000 0.79819 0.06931
 C2163 C 0.26502 0.79137 0.05311
 C2164 C 0.28790 0.79398 0.05660
 H2165 H 0.30658 0.83426 0.14831
 H2166 H 0.36070 0.81570 0.08984
 H2167 H 0.37378 0.83105 0.12440
 H2168 H 0.33022 0.80228 0.06685
 H2169 H 0.27613 0.82353 0.12463
 H2170 H 0.24559 0.81205 0.10113
 H2171 H 0.23229 0.79622 0.06702
 H2172 H 0.29957 0.78893 0.04409
 C2173 C 0.80273 0.34948 0.12120
 C2174 C 0.79478 0.33858 0.10268
 C2175 C 0.80960 0.33281 0.08570
 C2176 C 0.83202 0.33867 0.08727
 C2177 C 0.83976 0.34967 0.10571
 C2178 C 0.82530 0.35485 0.12300
 C2179 C 0.80182 0.32112 0.06756
 C2180 C 0.77934 0.31539 0.06607
 C2181 C 0.76445 0.32175 0.08281
 C2182 C 0.77229 0.33314 0.10105
 C2183 C 0.74189 0.31667 0.08102
 C2184 C 0.73409 0.30543 0.06280
 C2185 C 0.74875 0.29868 0.04629
 C2186 C 0.77143 0.30356 0.04805
 H2187 H 0.79149 0.35323 0.13453
 H2188 H 0.84360 0.33454 0.07436
 H2189 H 0.85718 0.35382 0.10673
 H2190 H 0.81324 0.31648 0.05465
 H2191 H 0.76088 0.33775 0.11399
 H2192 H 0.73025 0.32149 0.09364
 H2193 H 0.71654 0.30176 0.06173
 H2194 H 0.78275 0.29860 0.03519
 C2195 C 0.84990 0.84296 0.62035
 C2196 C 0.83438 0.83472 0.60538
 C2197 C 0.81155 0.83458 0.61084
 C2198 C 0.80469 0.84226 0.63131
 C2199 C 0.82022 0.85029 0.64611
 C2200 C 0.84290 0.85097 0.64071
 C2201 C 0.79593 0.82676 0.59581
 C2202 C 0.80284 0.81866 0.57550
 C2203 C 0.82570 0.81843 0.57017
 C2204 C 0.84129 0.82668 0.58503
 C2205 C 0.83265 0.80958 0.55020
 C2206 C 0.81717 0.80057 0.53588
 C2207 C 0.79445 0.80080 0.54098
 C2208 C 0.78730 0.81022 0.56065
 H2209 H 0.86736 0.84355 0.61610
 H2210 H 0.78730 0.84215 0.63584
 H2211 H 0.81454 0.85625 0.66181
 H2212 H 0.77844 0.82675 0.60002
 H2213 H 0.85879 0.82660 0.58087
 H2214 H 0.85008 0.80919 0.54587
 H2215 H 0.82295 0.79329 0.52078
 H2216 H 0.76981 0.81006 0.56480
 C2217 C 0.33305 0.63197 0.37994
 C2218 C 0.32599 0.64428 0.39797
 C2219 C 0.34173 0.65191 0.41327
 C2220 C 0.36412 0.64626 0.41078
 C2221 C 0.37097 0.63374 0.39295
 C2222 C 0.35563 0.62684 0.37710
 C2223 C 0.33489 0.66534 0.43056
 C2224 C 0.31246 0.67103 0.43290
 C2225 C 0.29661 0.66260 0.41812
 C2226 C 0.30349 0.64942 0.40068
 C2227 C 0.27412 0.66769 0.42089
 C2228 C 0.26740 0.68133 0.43789
 C2229 C 0.28306 0.69044 0.45218
 C2230 C 0.30560 0.68514 0.44967
 H2231 H 0.32108 0.62701 0.36773
 H2232 H 0.37640 0.65177 0.42244
 H2233 H 0.38840 0.62985 0.39118
 H2234 H 0.34704 0.67153 0.44204
 H2235 H 0.29137 0.64334 0.38911
 H2236 H 0.26175 0.66126 0.40981
 H2237 H 0.24995 0.68524 0.43951
 H2238 H 0.31774 0.69192 0.46081
 C2239 C 0.31477 0.17333 0.85537
 C2240 C 0.30545 0.18598 0.87218
 C2241 C 0.30784 0.20889 0.87166
 C2242 C 0.31859 0.21880 0.85395
 C2243 C 0.32699 0.20619 0.83690
 C2244 C 0.32554 0.18331 0.83751
 C2245 C 0.29929 0.22156 0.88874
 C2246 C 0.28769 0.21173 0.90599
 C2247 C 0.28433 0.18893 0.90605
 C2248 C 0.29358 0.17615 0.88934
 C2249 C 0.27170 0.17937 0.92282
 C2250 C 0.26270 0.19226 0.93948
 C2251 C 0.26675 0.21475 0.93993
 C2252 C 0.27923 0.22440 0.92314
 H2253 H 0.31352 0.15574 0.85607
 H2254 H 0.32027 0.23636 0.85314
 H2255 H 0.33468 0.21436 0.82315
 H2256 H 0.30148 0.23910 0.88849
 H2257 H 0.29135 0.15862 0.88956
 H2258 H 0.26877 0.16197 0.92304
 H2259 H 0.25309 0.18460 0.95235
 H2260 H 0.28210 0.24183 0.92333
 C2261 C 0.85001 0.68157 0.88315
 C2262 C 0.84067 0.68878 0.90288
 C2263 C 0.83150 0.67352 0.91770
 C2264 C 0.83266 0.65124 0.91290
 C2265 C 0.84225 0.64419 0.89334
 C2266 C 0.85062 0.65927 0.87809
 C2267 C 0.82104 0.68080 0.93689
 C2268 C 0.81988 0.70315 0.94155
 C2269 C 0.82983 0.71830 0.92708
 C2270 C 0.84001 0.71104 0.90781
 C2271 C 0.82927 0.74054 0.93201
 C2272 C 0.81868 0.74781 0.95092
 C2273 C 0.80812 0.73304 0.96511
 C2274 C 0.80882 0.71066 0.96037
 H2275 H 0.85623 0.69333 0.87141
 H2276 H 0.82591 0.63928 0.92413
 H2277 H 0.84270 0.62692 0.88980
 H2278 H 0.81368 0.66912 0.94807
 H2279 H 0.84726 0.72273 0.89656
 H2280 H 0.83691 0.75235 0.92117
 H2281 H 0.81827 0.76514 0.95417
 H2282 H 0.80088 0.69916 0.97133
 C2283 C 0.80950 0.16068 0.36563
 C2284 C 0.80339 0.16968 0.38586
 C2285 C 0.81988 0.17791 0.40002
 C2286 C 0.84226 0.17584 0.39427
 C2287 C 0.84824 0.16636 0.37438
 C2288 C 0.83198 0.15925 0.35947
 C2289 C 0.81373 0.18826 0.41958
 C2290 C 0.79129 0.19002 0.42542
 C2291 C 0.77489 0.18069 0.41180
 C2292 C 0.78101 0.17084 0.39201
 C2293 C 0.75256 0.18154 0.41810
 C2294 C 0.74645 0.19192 0.43746
 C2295 C 0.76245 0.20208 0.45062
 C2296 C 0.78491 0.20105 0.44458
 H2297 H 0.79667 0.15534 0.35448
 H2298 H 0.85517 0.18171 0.40507
 H2299 H 0.86570 0.16501 0.37045
 H2300 H 0.82639 0.19501 0.43018
 H2301 H 0.76834 0.16417 0.38137
 H2302 H 0.73980 0.17433 0.40797
 H2303 H 0.72903 0.19266 0.44181
 H2304 H 0.79732 0.20871 0.45480
 C2305 C 0.64848 0.30217 0.37239
 C2306 C 0.66275 0.29406 0.38856
 C2307 C 0.68586 0.29764 0.38670
 C2308 C 0.69433 0.30876 0.36850
 C2309 C 0.68005 0.31637 0.35229
 C2310 C 0.65701 0.31341 0.35421
 C2311 C 0.70017 0.28996 0.40298
 C2312 C 0.69173 0.27841 0.42092
 C2313 C 0.66871 0.27432 0.42259
 C2314 C 0.65432 0.28235 0.40647
 C2315 C 0.66055 0.26220 0.44033
 C2316 C 0.67506 0.25430 0.45632
 C2317 C 0.69787 0.25874 0.45497
 C2318 C 0.70607 0.27079 0.43720
 H2319 H 0.63073 0.29975 0.37386
 H2320 H 0.71201 0.31143 0.36673
 H2321 H 0.68697 0.32458 0.33816
 H2322 H 0.71787 0.29287 0.40163
 H2323 H 0.63663 0.27940 0.40779
 H2324 H 0.64297 0.25881 0.44183
 H2325 H 0.66843 0.24503 0.46992
 H2326 H 0.72371 0.27403 0.43587
 C2327 C 0.68306 0.82754 0.89041
 C2328 C 0.69759 0.81830 0.90582
 C2329 C 0.72040 0.81617 0.90074
 C2330 C 0.72815 0.82256 0.88012
 C2331 C 0.71358 0.83148 0.86484
 C2332 C 0.69102 0.83450 0.86994
 C2333 C 0.73514 0.80780 0.91636
 C2334 C 0.72733 0.80106 0.93688
 C2335 C 0.70440 0.80248 0.94172
 C2336 C 0.68972 0.81133 0.92626
 C2337 C 0.69650 0.79482 0.96189
 C2338 C 0.71114 0.78566 0.97703
 C2339 C 0.73394 0.78464 0.97251
 C2340 C 0.74203 0.79255 0.95252
 H2341 H 0.66572 0.82986 0.89449
 H2342 H 0.74551 0.82083 0.87586
 H2343 H 0.72001 0.83644 0.84906
 H2344 H 0.75266 0.80642 0.91251
 H2345 H 0.67220 0.81268 0.93010
 H2346 H 0.67899 0.79563 0.96583
 H2347 H 0.70470 0.77948 0.99238
 H2348 H 0.75961 0.79137 0.94890
 C2349 C 0.17641 0.35458 0.87270
 C2350 C 0.18370 0.34240 0.89078
 C2351 C 0.16806 0.33459 0.90617
 C2352 C 0.14559 0.33991 0.90376
 C2353 C 0.13852 0.35219 0.88586
 C2354 C 0.15373 0.35922 0.86990
 C2355 C 0.17503 0.32120 0.92343
 C2356 C 0.19747 0.31560 0.92560
 C2357 C 0.21329 0.32417 0.91081
 C2358 C 0.20629 0.33746 0.89343
 C2359 C 0.23580 0.31898 0.91347
 C2360 C 0.24250 0.30494 0.93025
 C2361 C 0.22677 0.29563 0.94440
 C2362 C 0.20430 0.30125 0.94215
 H2363 H 0.18824 0.35978 0.86039
 H2364 H 0.13341 0.33424 0.91551
 H2365 H 0.12103 0.35578 0.88409
 H2366 H 0.16295 0.31485 0.93495
 H2367 H 0.21835 0.34366 0.88180
 H2368 H 0.24817 0.32552 0.90240
 H2369 H 0.25991 0.30080 0.93173
 H2370 H 0.19211 0.29432 0.95320
 C2371 C 0.18115 0.82348 0.37826
 C2372 C 0.18995 0.81155 0.39586
 C2373 C 0.17574 0.80421 0.41275
 C2374 C 0.15312 0.80952 0.41210
 C2375 C 0.14458 0.82164 0.39469
 C2376 C 0.15838 0.82844 0.37743
 C2377 C 0.18430 0.79160 0.42995
 C2378 C 0.20699 0.78649 0.43068
 C2379 C 0.22132 0.79441 0.41415
 C2380 C 0.21269 0.80673 0.39676
 C2381 C 0.24409 0.78986 0.41528
 C2382 C 0.25258 0.77748 0.43254
 C2383 C 0.23844 0.76907 0.44876
 C2384 C 0.21560 0.77364 0.44771
 H2385 H 0.19190 0.82860 0.36499
 H2386 H 0.14202 0.80420 0.42499
 H2387 H 0.12705 0.82552 0.39451
 H2388 H 0.17333 0.78575 0.44275
 H2389 H 0.22366 0.81255 0.38394
 H2390 H 0.25533 0.79589 0.40283
 H2391 H 0.27023 0.77415 0.43300
 H2392 H 0.20461 0.76743 0.46031
 C2393 C 0.69044 0.70304 0.64577
 C2394 C 0.70175 0.71027 0.62709
 C2395 C 0.72519 0.71138 0.62712
 C2396 C 0.73689 0.70529 0.64599
 C2397 C 0.72546 0.69808 0.66455
 C2398 C 0.70219 0.69682 0.66453
 C2399 C 0.73650 0.71864 0.60838
 C2400 C 0.72461 0.72510 0.58973
 C2401 C 0.70114 0.72400 0.58984
 C2402 C 0.68991 0.71642 0.60840
 C2403 C 0.68917 0.73097 0.57153
 C2404 C 0.70025 0.73963 0.55353
 C2405 C 0.72348 0.74101 0.55327
 C2406 C 0.73570 0.73328 0.57119
 H2407 H 0.67250 0.70189 0.64569
 H2408 H 0.75484 0.70607 0.64638
 H2409 H 0.73473 0.69337 0.67895
 H2410 H 0.75447 0.71956 0.60842
 H2411 H 0.67193 0.71562 0.60842
 H2412 H 0.67121 0.73023 0.57136
 H2413 H 0.69062 0.74553 0.53978
 H2414 H 0.75364 0.73463 0.57111
 C2415 C 0.65947 0.17084 0.11890
 C2416 C 0.66664 0.18569 0.10289
 C2417 C 0.66174 0.20811 0.10522
 C2418 C 0.65016 0.21535 0.12369
 C2419 C 0.64343 0.20055 0.13969
 C2420 C 0.64786 0.17818 0.13741
 C2421 C 0.66860 0.22297 0.08914
 C2422 C 0.68076 0.21580 0.07099
 C2423 C 0.68607 0.19344 0.06887
 C2424 C 0.67874 0.17850 0.08468
 C2425 C 0.69893 0.18646 0.05110
 C2426 C 0.70672 0.20149 0.03576
 C2427 C 0.70135 0.22368 0.03761
 C2428 C 0.68812 0.23071 0.05513
 H2429 H 0.66281 0.15360 0.11703
 H2430 H 0.64638 0.23248 0.12582
 H2431 H 0.63466 0.20654 0.15393
 H2432 H 0.66472 0.24013 0.09091
 H2433 H 0.68271 0.16135 0.08297
 H2434 H 0.70323 0.16942 0.04924
 H2435 H 0.71689 0.19577 0.02233
 H2436 H 0.68419 0.24787 0.05680
 C2437 C 0.17007 0.66470 0.11778
 C2438 C 0.17994 0.67985 0.10352
 C2439 C 0.18015 0.70221 0.10913
 C2440 C 0.17140 0.70891 0.12923
 C2441 C 0.16188 0.69374 0.14337
 C2442 C 0.16065 0.67162 0.13762
 C2443 C 0.18887 0.71757 0.09450
 C2444 C 0.19778 0.71088 0.07444
 C2445 C 0.19843 0.68846 0.06915
 C2446 C 0.18930 0.67310 0.08363
 C2447 C 0.20824 0.68181 0.04946
 C2448 C 0.21725 0.69722 0.03513
 C2449 C 0.21603 0.71951 0.04000
 C2450 C 0.20621 0.72628 0.05964
 H2451 H 0.16913 0.64767 0.11324
 H2452 H 0.17164 0.72593 0.13389
 H2453 H 0.15494 0.69934 0.15871
 H2454 H 0.18868 0.73473 0.09870
 H2455 H 0.18945 0.65595 0.07941
 H2456 H 0.20906 0.66471 0.04519
 H2457 H 0.22488 0.69177 0.02005
 H2458 H 0.20562 0.74348 0.06359
 C2459 C 0.15197 0.17174 0.62983
 C2460 C 0.16298 0.18180 0.61222
 C2461 C 0.18630 0.18424 0.61278
 C2462 C 0.19813 0.17709 0.63113
 C2463 C 0.18703 0.16749 0.64872
 C2464 C 0.16389 0.16446 0.64822
 C2465 C 0.19743 0.19389 0.59506
 C2466 C 0.18549 0.20163 0.57697
 C2467 C 0.16210 0.19969 0.57666
 C2468 C 0.15103 0.18955 0.59413
 C2469 C 0.15012 0.20817 0.55896
 C2470 C 0.16115 0.21868 0.54183
 C2471 C 0.18439 0.22042 0.54182
 C2472 C 0.19652 0.21166 0.55935
 H2473 H 0.13416 0.16943 0.62920
 H2474 H 0.21598 0.17901 0.63194
 H2475 H 0.19659 0.16238 0.66279
 H2476 H 0.21533 0.19560 0.59547
 H2477 H 0.13311 0.18792 0.59377
 H2478 H 0.13220 0.20693 0.55847
 H2479 H 0.15151 0.22532 0.52846
 H2480 H 0.21443 0.21323 0.55957
   
