data_POSCAR
  _audit_creation_date              2014-09-24
  _audit_creation_method            'ToBaCCo'
  _symmetry_space_group_name_H-M    'P1'
  _symmetry_Int_Tables_number       1
  _symmetry_cell_setting            triclinic
  loop_
  _symmetry_equiv_pos_as_xyz
 x,y,z
_cell_length_a 48.5582
_cell_length_b 47.8668
_cell_length_c 49.4014
_cell_angle_alpha 89.982500
_cell_angle_beta 89.672400
_cell_angle_gamma 89.647400
loop_
  _atom_site_label
  _atom_site_type_symbol
  _atom_site_fract_x
  _atom_site_fract_y
  _atom_site_fract_z
C1 C 0.30625 0.45928 0.93903
 N2 N 0.33075 0.45424 0.95155
 C3 C 0.33507 0.42958 0.96475
 N4 N 0.31477 0.41014 0.96531
 C5 C 0.29046 0.41499 0.95280
 N6 N 0.28636 0.43950 0.93958
 C7 C 0.46368 0.84227 0.41464
 N8 N 0.47268 0.82405 0.39532
 C9 C 0.47066 0.79617 0.39901
 N10 N 0.45925 0.78630 0.42203
 C11 C 0.44966 0.80387 0.44142
 N12 N 0.45181 0.83213 0.43786
 C13 C 0.92621 0.94731 0.80189
 N14 N 0.94109 0.94603 0.82503
 C15 C 0.92887 0.95087 0.84952
 N16 N 0.90113 0.95551 0.85069
 C17 C 0.88601 0.95568 0.82746
 N18 N 0.89875 0.95206 0.80328
 C19 C 0.45944 -0.08127 0.29817
 N20 N 0.46323 -0.05661 0.31114
 C21 C 0.44172 -0.03855 0.31436
 N22 N 0.41624 -0.04566 0.30543
 C23 C 0.41243 -0.07074 0.29325
 N24 N 0.43408 -0.08815 0.28945
 C25 C 0.83995 0.28098 0.34296
 N26 N 0.86359 0.28439 0.32856
 C27 C 0.86660 0.30681 0.31197
 N28 N 0.84595 0.32589 0.30982
 C29 C 0.82234 0.32277 0.32421
 N30 N 0.81947 0.30038 0.34093
 C31 C -0.22681 0.83291 0.81451
 N32 N -0.20613 0.83942 0.79704
 C33 C -0.18589 0.82073 0.79113
 N34 N -0.18672 0.79490 0.80236
 C35 C -0.20747 0.78795 0.81974
 N36 N -0.22729 0.80718 0.82612
 C37 C 0.96280 0.33123 0.47725
 N38 N 0.94373 0.31117 0.48095
 C39 C 0.94109 0.29042 0.46262
 N40 N 0.95753 0.28975 0.44014
 C41 C 0.97646 0.31020 0.43617
 N42 N 0.97896 0.33081 0.45485
 C43 C 0.43141 0.44373 0.84482
 N44 N 0.41318 0.46529 0.84519
 C45 C 0.39516 0.46859 0.82443
 N46 N 0.39552 0.45036 0.80335
 C47 C 0.41390 0.42888 0.80313
 N48 N 0.43161 0.42575 0.82377
 C49 C 0.78248 0.89361 0.93450
 N50 N 0.80064 0.90180 0.95421
 C51 C 0.80229 0.92954 0.96086
 N52 N 0.78640 0.94828 0.94770
 C53 C 0.76997 0.94092 0.92723
 N54 N 0.76802 0.91355 0.92050
 C55 C 0.30218 0.81495 0.31068
 N56 N 0.32368 0.81294 0.29316
 C57 C 0.34639 0.79750 0.29917
 N58 N 0.34759 0.78401 0.32334
 C59 C 0.32622 0.78608 0.34141
 N60 N 0.30354 0.80154 0.33497
 C61 C 0.82382 0.40864 0.45113
 N62 N 0.83942 0.41568 0.47297
 C63 C 0.85029 0.44200 0.47459
 N64 N 0.84561 0.46073 0.45448
 C65 C 0.82960 0.45372 0.43325
 N66 N 0.81901 0.42788 0.43171
 C67 C 0.94661 0.82609 -0.05775
 N68 N 0.93125 0.80271 -0.05947
 C69 C 0.92871 0.78910 -0.08319
 N70 N 0.94140 0.79894 -0.10561
 C71 C 0.95679 0.82244 -0.10435
 N72 N 0.95936 0.83620 -0.08033
 C73 C 0.28683 0.36085 0.81701
 N74 N 0.28336 0.33752 0.83208
 C75 C 0.29496 0.31298 0.82460
 N76 N 0.31057 0.31169 0.80170
 C77 C 0.31393 0.33488 0.78607
 N78 N 0.30203 0.35955 0.79381
 C79 C 0.17632 0.56928 0.57110
 N80 N 0.17100 0.55790 0.59585
 C81 C 0.18609 0.56550 0.61777
 N82 N 0.20657 0.58428 0.61477
 C83 C 0.21197 0.59588 0.59027
 N84 N 0.19671 0.58853 0.56845
 C85 C 0.60471 0.66264 0.04774
 N86 N 0.58586 0.64176 0.04808
 C87 C 0.56049 0.64587 0.05898
 N88 N 0.55396 0.67112 0.06989
 C89 C 0.57243 0.69237 0.06909
 N90 N 0.59786 0.68804 0.05807
 C91 C 0.67796 0.21243 0.66254
 N92 N 0.65527 0.21984 0.67733
 C93 C 0.64708 0.20380 0.69863
 N94 N 0.66145 0.18019 0.70484
 C95 C 0.68387 0.17264 0.69007
 N96 N 0.69203 0.18884 0.66897
 C97 C 1.07697 0.03757 0.18872
 N98 N 1.07837 0.05821 0.20744
 C99 C 1.05591 0.07452 0.21279
 N100 N 1.03183 0.06983 0.19967
 C101 C 1.03024 0.04865 0.18141
 N102 N 1.05286 0.03293 0.17591
 C103 C 0.03431 0.15548 1.07428
 N104 N 0.03980 0.17171 1.09631
 C105 C 0.06120 0.18995 1.09572
 N106 N 0.07659 0.19226 1.07267
 C107 C 0.07112 0.17638 1.05060
 N108 N 0.05022 0.15774 1.05166
 C109 C 0.16069 0.73832 0.68863
 N110 N 0.15926 0.72056 0.70998
 C111 C 0.18176 0.70559 0.71755
 N112 N 0.20585 0.70868 0.70387
 C113 C 0.20753 0.72683 0.68280
 N114 N 0.18486 0.74138 0.67504
 C115 C 1.21337 0.14251 0.17017
 N116 N 1.20239 0.15019 0.19438
 C117 C 1.18716 0.17387 0.19647
 N118 N 1.18193 0.18929 0.17410
 C119 C 1.19261 0.18182 0.14972
 N120 N 1.20876 0.15858 0.14784
 C121 C 0.66404 1.04820 0.54551
 N122 N 0.68203 1.06978 0.54606
 C123 C 0.69891 1.07336 0.56747
 N124 N 0.69800 1.05503 0.58833
 C125 C 0.68028 1.03330 0.58797
 N126 N 0.66293 1.03005 0.56666
 C127 C 0.56910 0.53159 0.17137
 N128 N 0.55573 0.55611 0.16703
 C129 C 0.55941 0.57816 0.18383
 N130 N 0.57656 0.57550 0.20536
 C131 C 0.59015 0.55097 0.20997
 N132 N 0.58657 0.52912 0.19273
 C133 C 0.68940 0.69585 0.17135
 N134 N 0.69315 0.67793 0.19219
 C135 C 0.71521 0.66046 0.19236
 N136 N 0.73364 0.66095 0.17176
 C137 C 0.73019 0.67910 0.15098
 N138 N 0.70800 0.69647 0.15071
 C139 C 0.14514 0.03374 1.06299
 N140 N 0.16732 0.02287 1.07591
 C141 C 0.19306 0.03216 1.07062
 N142 N 0.19668 0.05353 1.05282
 C143 C 0.17457 0.06482 1.03994
 N144 N 0.14887 0.05449 1.04465
 C145 C 0.58267 0.21013 0.52710
 N146 N 0.57788 0.22990 0.54628
 C147 C 0.55436 0.22897 0.56128
 N148 N 0.53625 0.20796 0.55763
 C149 C 0.54111 0.18809 0.53875
 N150 N 0.56430 0.18922 0.52351
 C151 C 0.07029 0.59105 0.72345
 N152 N 0.07581 0.57341 0.70257
 C153 C 0.06504 0.57832 0.67775
 N154 N 0.04877 0.60101 0.67385
 C155 C 0.04353 0.61911 0.69441
 N156 N 0.05437 0.61418 0.71928
 C157 C 0.68271 0.52981 0.05254
 N158 N 0.70395 0.54663 0.04588
 C159 C 0.72463 0.55111 0.06356
 N160 N 0.72382 0.53893 0.08857
 C161 C 0.70229 0.52208 0.09538
 N162 N 0.68191 0.51764 0.07722
 C163 C 0.06047 0.71751 0.57384
 N164 N 0.05886 0.69274 0.56063
 C165 C 0.08153 0.68119 0.54903
 N166 N 0.10613 0.69447 0.55052
 C167 C 0.10814 0.71901 0.56406
 N168 N 0.08522 0.73046 0.57584
 C169 C 0.53429 1.04864 0.64812
 N170 N 0.51941 1.07273 0.64814
 C171 C 0.52063 1.09074 0.66937
 N172 N 0.53689 1.08443 0.69080
 C173 C 0.55192 1.06031 0.69098
 N174 N 0.55072 1.04260 0.66956
 C175 C 0.44108 0.32085 0.92623
 N176 N 0.43773 0.31109 0.90044
 C177 C 0.41536 0.29552 0.89397
 N178 N 0.39679 0.28910 0.91349
 C179 C 0.40001 0.29827 0.93917
 N180 N 0.42193 0.31458 0.94548
 C181 C 0.94980 0.44640 0.35470
 N182 N 0.92830 0.44842 0.33722
 C183 C 0.92968 0.43632 0.31242
 N184 N 0.95271 0.42184 0.30509
 C185 C 0.97451 0.42016 0.32213
 N186 N 0.97299 0.43249 0.34693
 C187 C 0.28876 0.93903 0.40074
 N188 N 0.30880 0.95870 0.39897
 C189 C 0.32831 0.96026 0.41845
 N190 N 0.32758 0.94244 0.43950
 C191 C 0.30786 0.92287 0.44151
 N192 N 0.28845 0.92080 0.42195
 O193 O 0.15187 0.57360 0.80357
 O194 O 0.16857 0.57616 0.84833
 O195 O 0.21496 0.60967 0.75592
 O196 O 0.26007 0.60327 0.74836
 O197 O 0.18133 0.52950 0.73120
 O198 O 0.18398 0.48360 0.74811
 O199 O 0.30257 0.54587 0.81906
 O200 O 0.29075 0.59237 0.81314
 O201 O 0.24458 0.50861 0.86757
 O202 O 0.19154 0.51348 0.86887
 O203 O 0.26348 0.46724 0.79927
 O204 O 0.25619 0.47344 0.75112
 O205 O 0.29883 0.50594 0.79437
 O206 O 0.28292 0.50494 0.74471
 O207 O 0.23557 0.46990 0.83635
 O208 O 0.18681 0.47982 0.84348
 O209 O 0.27468 0.54384 0.85934
 O210 O 0.26182 0.59518 0.84835
 O211 O 0.14854 0.53841 0.77275
 O212 O 0.15944 0.48883 0.78284
 O213 O 0.21171 0.56418 0.72168
 O214 O 0.26217 0.56485 0.72602
 O215 O 0.18778 0.61222 0.79364
 O216 O 0.19908 0.60686 0.84144
 Zr217 Zr 0.19385 0.57394 0.81343
 O218 O 0.22289 0.55300 0.83780
 Zr219 Zr 0.23371 0.56977 0.75831
 O220 O 0.26493 0.54943 0.78056
 Zr221 Zr 0.18822 0.51994 0.77200
 O222 O 0.21771 0.49678 0.79367
 Zr223 Zr 0.26218 0.56036 0.82172
 O224 O 0.23349 0.58374 0.79889
 Zr225 Zr 0.21740 0.50970 0.83435
 O226 O 0.18567 0.53082 0.81314
 Zr227 Zr 0.25781 0.50610 0.77989
 O228 O 0.22787 0.52628 0.75552
 O229 O 0.19423 0.56276 0.77260
 O230 O 0.25707 0.51723 0.82042
 C231 C 0.13855 0.55934 0.78603
 C232 C 0.19760 0.62233 0.77155
 C233 C 0.19264 0.54695 0.71493
 C234 C 0.31239 0.52317 0.80918
 C235 C 0.26607 0.52295 0.87333
 C236 C 0.25293 0.45706 0.82101
 H237 H 0.22135 0.55923 0.85680
 H238 H 0.21334 0.47674 0.79167
 H239 H 0.18084 0.57306 0.76128
 H240 H 0.28319 0.55431 0.77305
 H241 H 0.28037 0.60762 0.80418
 H242 H 0.27685 0.60093 0.75940
 H243 H 0.18429 0.46830 0.82707
 H244 H 0.15124 0.49452 0.80041
 H245 H 0.25446 0.58922 0.86613
 H246 H 0.21560 0.61729 0.83554
 H247 H 0.23976 0.46211 0.75543
 H248 H 0.20100 0.48206 0.73707
 H249 H 0.16291 0.55678 0.85239
 H250 H 0.19974 0.52730 0.88128
 H251 H 0.25977 0.54568 0.71893
 H252 H 0.29715 0.51952 0.74643
 O253 O 0.17883 0.01176 0.21039
 O254 O 0.18335 0.01711 0.25841
 O255 O 0.26273 0.03357 0.18438
 O256 O 0.30526 0.01852 0.19687
 O257 O 0.22132 -0.03176 0.14970
 O258 O 0.21681 -0.08192 0.16298
 O259 O 0.30949 -0.04437 0.27096
 O260 O 0.30857 0.00584 0.26238
 O261 O 0.22698 -0.05960 0.29953
 O262 O 0.18087 -0.04923 0.27995
 O263 O 0.26651 -0.11007 0.24548
 O264 O 0.26760 -0.10820 0.19205
 O265 O 0.30701 -0.08199 0.24287
 O266 O 0.30481 -0.08654 0.19435
 O267 O 0.22843 -0.09987 0.27064
 O268 O 0.18098 -0.08321 0.25444
 O269 O 0.26744 -0.03598 0.30159
 O270 O 0.27404 0.01029 0.29262
 O271 O 0.17808 -0.02577 0.18205
 O272 O 0.18086 -0.07425 0.18588
 O273 O 0.26176 -0.00812 0.15252
 O274 O 0.30640 -0.02028 0.17158
 O275 O 0.22489 0.04432 0.20988
 O276 O 0.21759 0.04177 0.25842
 Zr277 Zr 0.21621 0.00724 0.23176
 O278 O 0.23069 -0.01792 0.26373
 Zr279 Zr 0.27089 -0.00826 0.19388
 O280 O 0.28759 -0.03432 0.22390
 Zr281 Zr 0.21491 -0.04728 0.18950
 O282 O 0.22853 -0.07501 0.22000
 Zr283 Zr 0.27389 -0.02071 0.26213
 O284 O 0.25962 0.00765 0.23226
 Zr285 Zr 0.21729 -0.05925 0.25821
 O286 O 0.20046 -0.03353 0.22767
 Zr287 Zr 0.27166 -0.07496 0.22003
 O288 O 0.25806 -0.04962 0.18751
 O289 O 0.22805 -0.00638 0.19369
 O290 O 0.26005 -0.06137 0.25834
 C291 C 0.16731 -0.00363 0.19240
 C292 C 0.24363 0.05035 0.19227
 C293 C 0.24061 -0.01653 0.13950
 C294 C 0.31856 -0.06772 0.26152
 C295 C 0.24804 -0.05053 0.31227
 C296 C 0.24920 -0.11546 0.26454
 H297 H 0.22439 -0.01006 0.28123
 H298 H 0.22122 -0.09397 0.21701
 H299 H 0.21993 0.00595 0.17976
 H300 H 0.30788 -0.03399 0.22231
 H301 H 0.30291 0.02363 0.25374
 H302 H 0.31777 0.01052 0.21060
 H303 H 0.18573 -0.10076 0.24488
 H304 H 0.17127 -0.07373 0.20360
 H305 H 0.25920 0.02363 0.28807
 H306 H 0.23643 0.04950 0.25724
 H307 H 0.25422 -0.12171 0.19952
 H308 H 0.23577 -0.08261 0.15552
 H309 H 0.17118 0.00061 0.25874
 H310 H 0.18472 -0.03266 0.29126
 H311 H 0.30207 -0.03817 0.16255
 H312 H 0.31813 -0.07099 0.19450
 O313 O 0.59004 0.72108 0.21116
 O314 O 0.58041 0.71618 0.26255
 O315 O 0.51318 0.69212 0.17928
 O316 O 0.46875 0.70518 0.18006
 O317 O 0.55199 0.77071 0.15360
 O318 O 0.54951 0.81775 0.17449
 O319 O 0.44654 0.75785 0.26301
 O320 O 0.45172 0.71100 0.24575
 O321 O 0.51815 0.77701 0.30258
 O322 O 0.56999 0.76944 0.28957
 O323 O 0.48913 0.83072 0.24693
 O324 O 0.49113 0.83204 0.19421
 O325 O 0.44882 0.79706 0.23716
 O326 O 0.45642 0.80856 0.19284
 O327 O 0.52491 0.82176 0.27522
 O328 O 0.57034 0.80824 0.27259
 O329 O 0.48492 0.74434 0.29642
 O330 O 0.48455 0.70074 0.27812
 O331 O 0.59001 0.76206 0.18780
 O332 O 0.58300 0.80895 0.20053
 O333 O 0.51925 0.73735 0.14833
 O334 O 0.47023 0.74556 0.15902
 O335 O 0.54727 0.68314 0.20960
 O336 O 0.55520 0.68269 0.25296
 Zr337 Zr 0.55096 0.72056 0.23137
 O338 O 0.52752 0.73884 0.26288
 Zr339 Zr 0.50104 0.73377 0.18706
 O340 O 0.47661 0.75441 0.21641
 Zr341 Zr 0.55143 0.77923 0.19542
 O342 O 0.53041 0.80069 0.22635
 Zr343 Zr 0.48497 0.73777 0.25471
 O344 O 0.50804 0.71536 0.22523
 Zr345 Zr 0.53701 0.78147 0.26412
 O346 O 0.56199 0.76286 0.23367
 Zr347 Zr 0.48809 0.79661 0.21970
 O348 O 0.50925 0.77700 0.18710
 O349 O 0.54311 0.73663 0.19332
 O350 O 0.49452 0.77999 0.25809
 C351 C 0.60127 0.73909 0.19507
 C352 C 0.53121 0.67595 0.19031
 C353 C 0.53904 0.75258 0.13941
 C354 C 0.43613 0.78065 0.25345
 C355 C 0.49885 0.76097 0.31122
 C356 C 0.50525 0.83716 0.26655
 H357 H 0.53171 0.72926 0.28012
 H358 H 0.53639 0.82039 0.22625
 H359 H 0.55375 0.72599 0.17961
 H360 H 0.45693 0.75259 0.21179
 H361 H 0.45929 0.69574 0.23437
 H362 H 0.45285 0.71089 0.19141
 H363 H 0.57329 0.81984 0.25627
 H364 H 0.59300 0.80360 0.21717
 H365 H 0.49319 0.68600 0.26683
 H366 H 0.53931 0.68177 0.26552
 H367 H 0.50547 0.84440 0.20166
 H368 H 0.53249 0.81753 0.16355
 H369 H 0.59420 0.73109 0.25989
 H370 H 0.56330 0.75473 0.30200
 H371 H 0.47528 0.76418 0.15186
 H372 H 0.45016 0.79127 0.18389
 O373 O -0.04720 0.87485 0.71866
 O374 O -0.05108 0.86194 0.67251
 O375 O -0.08281 0.80423 0.75964
 O376 O -0.07412 0.75935 0.76513
 O377 O -0.00373 0.84018 0.78682
 O378 O 0.04184 0.83713 0.76963
 O379 O -0.01753 0.72452 0.68830
 O380 O -0.06405 0.73451 0.69766
 O381 O 0.01662 0.78721 0.64544
 O382 O 0.00993 0.84120 0.64863
 O383 O 0.05792 0.76281 0.70936
 O384 O 0.05368 0.76699 0.75877
 O385 O 0.01997 0.72530 0.71571
 O386 O 0.02378 0.73898 0.76450
 O387 O 0.05497 0.79549 0.67603
 O388 O 0.04392 0.84454 0.67341
 O389 O -0.01956 0.75772 0.65048
 O390 O -0.06866 0.76531 0.66468
 O391 O -0.01198 0.87589 0.74888
 O392 O 0.03640 0.86598 0.73715
 O393 O -0.03746 0.80808 0.79356
 O394 O -0.03599 0.75688 0.78569
 O395 O -0.08581 0.83620 0.72559
 O396 O -0.08078 0.83087 0.67714
 Zr397 Zr -0.04791 0.83328 0.70491
 O398 O -0.02733 0.80634 0.67766
 Zr399 Zr -0.04242 0.78794 0.75581
 O400 O -0.02212 0.75875 0.73064
 Zr401 Zr 0.00592 0.83581 0.74570
 O402 O 0.02879 0.80846 0.72084
 Zr403 Zr -0.03360 0.76501 0.69016
 O404 O -0.05675 0.79170 0.71569
 Zr405 Zr 0.01531 0.81221 0.68063
 O406 O -0.00549 0.84203 0.70515
 Zr407 Zr 0.02052 0.76659 0.73117
 O408 O 0.00036 0.79420 0.75856
 O409 O -0.03638 0.82930 0.74524
 O410 O 0.00889 0.77061 0.69100
 C411 C -0.03263 0.88705 0.73674
 C412 C -0.09590 0.82289 0.74594
 C413 C -0.02110 0.82731 0.80183
 C414 C 0.00358 0.71301 0.69920
 C415 C 0.00140 0.76702 0.63742
 C416 C 0.06776 0.77618 0.68892
 H417 H -0.03379 0.80960 0.65901
 H418 H 0.04851 0.81307 0.72270
 H419 H -0.04691 0.84174 0.75757
 H420 H -0.02657 0.73958 0.73663
 H421 H -0.07906 0.74390 0.70789
 H422 H -0.07202 0.74346 0.75249
 H423 H 0.05540 0.84614 0.68980
 H424 H 0.03064 0.87581 0.72045
 H425 H -0.06558 0.77884 0.64985
 H426 H -0.08990 0.81274 0.68044
 H427 H 0.06488 0.78370 0.75478
 H428 H 0.04274 0.81912 0.77946
 H429 H -0.03213 0.86836 0.66863
 H430 H -0.00249 0.83286 0.63509
 H431 H -0.01757 0.76022 0.79351
 H432 H 0.00744 0.72674 0.76445
 O433 O 0.03934 0.02462 0.03692
 O434 O 0.03333 0.02467 -0.01214
 O435 O -0.03974 0.06205 0.06111
 O436 O -0.08457 0.05244 0.04953
 O437 O -0.00852 -0.00559 0.10246
 O438 O -0.00922 -0.05685 0.09394
 O439 O -0.10043 -0.01900 -0.01402
 O440 O -0.09269 0.03144 -0.01256
 O441 O -0.02095 -0.04710 -0.04381
 O442 O 0.02647 -0.04217 -0.02635
 O443 O -0.06050 -0.08808 0.02150
 O444 O -0.06522 -0.07500 0.07209
 O445 O -0.10088 -0.05447 0.01670
 O446 O -0.09957 -0.05195 0.06352
 O447 O -0.02486 -0.08470 -0.00837
 O448 O 0.02375 -0.07212 0.00178
 O449 O -0.05884 -0.01943 -0.04814
 O450 O -0.05895 0.02742 -0.04378
 O451 O 0.03463 -0.00820 0.06995
 O452 O 0.02670 -0.05591 0.07044
 O453 O -0.04450 0.02468 0.09731
 O454 O -0.09048 0.01779 0.08032
 O455 O -0.00116 0.06362 0.03470
 O456 O 0.00289 0.05539 -0.01321
 Zr457 Zr 0.00079 0.02360 0.01646
 O458 O -0.01833 -0.00244 -0.01236
 Zr459 Zr -0.05443 0.02110 0.05623
 O460 O -0.07527 -0.00604 0.02990
 Zr461 Zr -0.00420 -0.02532 0.06434
 O462 O -0.02178 -0.05385 0.03728
 Zr463 Zr -0.06157 0.00043 -0.00998
 O464 O -0.04238 0.03000 0.01607
 Zr465 Zr -0.00997 -0.04426 -0.00271
 O466 O 0.01107 -0.01833 0.02480
 Zr467 Zr -0.06452 -0.04788 0.03822
 O468 O -0.04708 -0.02084 0.06727
 O469 O -0.01182 0.01634 0.05589
 O470 O -0.05283 -0.04129 -0.00199
 C471 C 0.04853 0.01025 0.05711
 C472 C -0.01820 0.07443 0.05188
 C473 C -0.02509 0.01355 0.11121
 C474 C -0.11199 -0.03981 -0.00194
 C475 C -0.04080 -0.03661 -0.05770
 C476 C -0.04446 -0.09805 0.00312
 H477 H -0.01176 0.00253 -0.03071
 H478 H -0.01640 -0.07304 0.04251
 H479 H -0.00184 0.02852 0.06861
 H480 H -0.09528 -0.00265 0.03186
 H481 H -0.08452 0.04918 -0.00621
 H482 H -0.09928 0.04412 0.03842
 H483 H 0.01914 -0.08550 0.01636
 H484 H 0.03637 -0.05803 0.05286
 H485 H -0.04360 0.04027 -0.04005
 H486 H -0.01510 0.06524 -0.01290
 H487 H -0.04997 -0.08865 0.06997
 H488 H -0.02734 -0.05356 0.10271
 H489 H 0.04400 0.00717 -0.00972
 H490 H 0.02461 -0.02614 -0.03887
 H491 H -0.08880 0.00019 0.09073
 H492 H -0.10920 -0.03369 0.06363
 O493 O -0.02026 0.43529 0.53507
 O494 O -0.00560 0.45241 0.57884
 O495 O -0.06455 0.50218 0.50187
 O496 O -0.05603 0.55070 0.50061
 O497 O -0.00629 0.46434 0.45198
 O498 O 0.04410 0.46296 0.45072
 O499 O 0.03353 0.58195 0.54070
 O500 O -0.01654 0.57956 0.54791
 O501 O 0.06596 0.51159 0.57855
 O502 O 0.06148 0.46079 0.57209
 O503 O 0.08674 0.53863 0.49921
 O504 O 0.06453 0.52521 0.45278
 O505 O 0.05317 0.57537 0.49925
 O506 O 0.03853 0.55940 0.45536
 O507 O 0.09296 0.51195 0.53677
 O508 O 0.08392 0.45889 0.53673
 O509 O 0.03680 0.54893 0.58143
 O510 O -0.01113 0.55233 0.58442
 O511 O 0.00202 0.42886 0.49478
 O512 O 0.04835 0.43432 0.48230
 O513 O -0.03730 0.49978 0.45776
 O514 O -0.03075 0.54885 0.46117
 O515 O -0.05650 0.47433 0.53836
 O516 O -0.03567 0.48449 0.58112
 Zr517 Zr -0.01395 0.47742 0.54451
 O518 O 0.01707 0.50304 0.55984
 Zr519 Zr -0.02539 0.51997 0.49324
 O520 O 0.00603 0.54750 0.50567
 Zr521 Zr 0.02005 0.46777 0.48624
 O522 O 0.05323 0.49244 0.49966
 Zr523 Zr 0.01065 0.54487 0.54782
 O524 O -0.02309 0.51960 0.53577
 Zr525 Zr 0.05499 0.49178 0.54220
 O526 O 0.02427 0.46404 0.52868
 Zr527 Zr 0.04442 0.53409 0.48999
 O528 O 0.01242 0.50921 0.47437
 O529 O -0.01785 0.47846 0.50267
 O530 O 0.04854 0.53333 0.53186
 C531 C -0.01279 0.42032 0.51476
 C532 C -0.07222 0.48415 0.51982
 C533 C -0.02746 0.47888 0.44459
 C534 C 0.04895 0.58968 0.52072
 C535 C 0.05648 0.53351 0.59045
 C536 C 0.10123 0.52992 0.51932
 H537 H 0.01701 0.50076 0.57972
 H538 H 0.07073 0.48612 0.49134
 H539 H -0.03198 0.46569 0.49554
 H540 H 0.00158 0.56685 0.50011
 H541 H -0.03545 0.57200 0.54683
 H542 H -0.04658 0.56877 0.50305
 H543 H 0.09631 0.46385 0.52152
 H544 H 0.05588 0.43108 0.50061
 H545 H -0.01285 0.53421 0.59384
 H546 H -0.04566 0.50246 0.57903
 H547 H 0.08132 0.51413 0.45664
 H548 H 0.04098 0.47993 0.43968
 H549 H 0.01007 0.44004 0.57395
 H550 H 0.04860 0.46477 0.58722
 H551 H -0.01562 0.54539 0.44807
 H552 H 0.02276 0.57201 0.45918
 O553 O 0.48839 0.08054 0.52341
 O554 O 0.44584 0.06671 0.52710
 O555 O 0.52957 -0.00013 0.54205
 O556 O 0.52985 -0.04377 0.51959
 O557 O 0.56606 0.05366 0.48238
 O558 O 0.55653 0.06809 0.43980
 O559 O 0.46269 -0.05387 0.45188
 O560 O 0.45841 -0.05711 0.49736
 O561 O 0.42350 0.02728 0.43567
 O562 O 0.42913 0.07088 0.45446
 O563 O 0.49138 0.00233 0.39530
 O564 O 0.54270 0.00567 0.40438
 O565 O 0.49518 -0.04257 0.42045
 O566 O 0.54472 -0.03091 0.42468
 O567 O 0.45894 0.03581 0.40339
 O568 O 0.46402 0.08308 0.42705
 O569 O 0.42410 -0.01567 0.45548
 O570 O 0.43256 -0.02482 0.50838
 O571 O 0.52418 0.09062 0.49514
 O572 O 0.52311 0.09393 0.44531
 O573 O 0.56783 0.01264 0.50565
 O574 O 0.55859 -0.03462 0.48914
 O575 O 0.49643 0.03230 0.55123
 O576 O 0.44551 0.02498 0.53864
 Zr577 Zr 0.47759 0.03978 0.51333
 O578 O 0.45217 0.02403 0.48249
 Zr579 Zr 0.52828 -0.00462 0.49981
 O580 O 0.50442 -0.02399 0.46978
 Zr581 Zr 0.52579 0.05651 0.46798
 O582 O 0.50360 0.03949 0.43556
 Zr583 Zr 0.46188 -0.01840 0.47713
 O584 O 0.48598 -0.00314 0.50974
 Zr585 Zr 0.46177 0.04297 0.44522
 O586 O 0.48372 0.06189 0.47675
 Zr587 Zr 0.51111 -0.00372 0.43264
 O588 O 0.53682 0.01423 0.46226
 O589 O 0.51968 0.03757 0.50536
 O590 O 0.46916 0.00031 0.43993
 C591 C 0.50727 0.09671 0.51445
 C592 C 0.51604 0.01573 0.55837
 C593 C 0.57876 0.03515 0.49640
 C594 C 0.47701 -0.05911 0.43054
 C595 C 0.41299 0.00346 0.44054
 C596 C 0.47116 0.01796 0.38804
 H597 H 0.43255 0.02695 0.48724
 H598 H 0.50823 0.04927 0.41853
 H599 H 0.53107 0.04656 0.51942
 H600 H 0.50955 -0.04401 0.46920
 H601 H 0.47744 -0.06352 0.50095
 H602 H 0.51160 -0.04647 0.52819
 H603 H 0.47686 0.08212 0.41145
 H604 H 0.50565 0.10324 0.45063
 H605 H 0.41578 -0.01398 0.50387
 H606 H 0.45216 0.00746 0.54712
 H607 H 0.53765 0.02320 0.39499
 H608 H 0.56172 0.05075 0.43007
 H609 H 0.43333 0.06962 0.51163
 H610 H 0.43609 0.08387 0.46838
 H611 H 0.56870 -0.02701 0.47334
 H612 H 0.54304 -0.04705 0.43707
 O613 O 0.50418 0.53804 0.05347
 O614 O 0.45928 0.51759 0.05688
 O615 O 0.55588 0.46704 0.07380
 O616 O 0.56198 0.42270 0.05676
 O617 O 0.57625 0.51845 0.00349
 O618 O 0.55768 0.52542 -0.03943
 O619 O 0.48454 0.39556 -0.00806
 O620 O 0.49876 0.39418 0.04312
 O621 O 0.43540 0.46107 -0.01782
 O622 O 0.43613 0.50952 -0.01123
 O623 O 0.50685 0.44682 -0.06719
 O624 O 0.55630 0.45805 -0.06232
 O625 O 0.51668 0.40592 -0.04002
 O626 O 0.56495 0.42431 -0.03933
 O627 O 0.46691 0.47018 -0.05817
 O628 O 0.46421 0.52186 -0.04009
 O629 O 0.44570 0.42379 0.00894
 O630 O 0.46436 0.41720 0.05431
 O631 O 0.53319 0.54933 0.01886
 O632 O 0.52198 0.54700 -0.02940
 O633 O 0.58750 0.48207 0.03115
 O634 O 0.58503 0.43154 0.02175
 O635 O 0.51904 0.49499 0.08356
 O636 O 0.47033 0.48233 0.07988
 Zr637 Zr 0.49576 0.49525 0.04738
 O638 O 0.47079 0.47021 0.02241
 Zr639 Zr 0.55137 0.45751 0.03263
 O640 O 0.52886 0.43007 0.00782
 Zr641 Zr 0.53466 0.51294 -0.00510
 O642 O 0.51243 0.48800 -0.03213
 Zr643 Zr 0.48721 0.42945 0.01977
 O644 O 0.51064 0.45380 0.04727
 Zr645 Zr 0.47174 0.48476 -0.01788
 O646 O 0.49342 0.51219 0.00803
 Zr647 Zr 0.52828 0.44704 -0.03116
 O648 O 0.55292 0.47291 -0.00718
 O649 O 0.53633 0.49821 0.03444
 O650 O 0.48706 0.44422 -0.01963
 C651 C 0.51972 0.55528 0.04059
 C652 C 0.54167 0.48248 0.08995
 C653 C 0.59331 0.50449 0.01791
 C654 C 0.49764 0.39031 -0.03029
 C655 C 0.42921 0.43800 -0.00611
 C656 C 0.48285 0.45547 -0.07357
 H657 H 0.45189 0.47036 0.02996
 H658 H 0.51333 0.49619 -0.05048
 H659 H 0.54779 0.51020 0.04612
 H660 H 0.53710 0.41115 0.00806
 H661 H 0.51053 0.38193 0.03174
 H662 H 0.54434 0.41444 0.06278
 H663 H 0.47452 0.52062 -0.05738
 H664 H 0.50376 0.55315 -0.02246
 H665 H 0.45180 0.43287 0.05888
 H666 H 0.47768 0.46410 0.08611
 H667 H 0.54864 0.47443 -0.07198
 H668 H 0.56861 0.50891 -0.04516
 H669 H 0.45534 0.52970 0.04110
 H670 H 0.43072 0.50691 0.00793
 H671 H 0.59195 0.43842 0.00409
 H672 H 0.56557 0.40800 -0.02704
 O673 O 0.80289 0.30675 0.48735
 O674 O 0.80110 0.31015 0.53131
 O675 O 0.84601 0.22225 0.48575
 O676 O 0.83504 0.17845 0.49176
 O677 O 0.78613 0.24704 0.42438
 O678 O 0.73821 0.24657 0.42290
 O679 O 0.75789 0.17646 0.55619
 O680 O 0.80178 0.18691 0.56378
 O681 O 0.71566 0.25518 0.55880
 O682 O 0.72132 0.29692 0.53897
 O683 O 0.69600 0.19864 0.49659
 O684 O 0.71433 0.18153 0.45845
 O685 O 0.73125 0.16453 0.52034
 O686 O 0.74753 0.15858 0.47001
 O687 O 0.68854 0.24101 0.51623
 O688 O 0.70355 0.28953 0.49984
 O689 O 0.74495 0.22302 0.57669
 O690 O 0.79903 0.22987 0.57688
 O691 O 0.77889 0.29504 0.44964
 O692 O 0.72962 0.28283 0.44412
 O693 O 0.81767 0.21593 0.44040
 O694 O 0.80485 0.16901 0.46401
 O695 O 0.84176 0.26719 0.50012
 O696 O 0.82047 0.27616 0.54865
 Zr697 Zr 0.79931 0.27103 0.51167
 O698 O 0.76725 0.25739 0.53759
 Zr699 Zr 0.80573 0.20938 0.48143
 O700 O 0.77718 0.19198 0.50865
 Zr701 Zr 0.76121 0.25583 0.45794
 O702 O 0.72966 0.23814 0.48125
 Zr703 Zr 0.77398 0.21489 0.54506
 O704 O 0.80692 0.22867 0.52000
 Zr705 Zr 0.72848 0.25873 0.51863
 O706 O 0.75963 0.27766 0.49483
 Zr707 Zr 0.73837 0.19612 0.49097
 O708 O 0.76724 0.21239 0.46284
 O709 O 0.80032 0.25185 0.47412
 O710 O 0.73485 0.21672 0.52799
 C711 C 0.79368 0.31191 0.46361
 C712 C 0.85587 0.24636 0.49053
 C713 C 0.80765 0.23171 0.42165
 C714 C 0.74126 0.16015 0.54409
 C715 C 0.72395 0.23962 0.57822
 C716 C 0.68021 0.21776 0.50612
 H717 H 0.76698 0.26856 0.55443
 H718 H 0.71231 0.24005 0.47102
 H719 H 0.81445 0.26052 0.46237
 H720 H 0.78238 0.17229 0.51204
 H721 H 0.81908 0.18784 0.55317
 H722 H 0.83234 0.17466 0.51126
 H723 H 0.69267 0.28035 0.48554
 H724 H 0.72952 0.29939 0.45612
 H725 H 0.78844 0.24407 0.58719
 H726 H 0.83468 0.26126 0.54948
 H727 H 0.71164 0.19763 0.44617
 H728 H 0.73928 0.22607 0.42046
 H729 H 0.78212 0.31443 0.53740
 H730 H 0.73647 0.30946 0.53349
 H731 H 0.79498 0.17064 0.44659
 H732 H 0.75778 0.14613 0.48244
 O733 O 0.83810 0.71216 -0.07184
 O734 O 0.83690 0.66436 -0.06291
 O735 O 0.75864 0.73317 -0.09854
 O736 O 0.71314 0.72285 -0.08161
 O737 O 0.79370 0.78564 -0.03985
 O738 O 0.80243 0.78246 0.00581
 O739 O 0.71024 0.66000 -0.00637
 O740 O 0.71238 0.65312 -0.05265
 O741 O 0.79114 0.64202 0.02100
 O742 O 0.83701 0.65826 0.00608
 O743 O 0.75000 0.70777 0.05130
 O744 O 0.74087 0.75636 0.03758
 O745 O 0.70754 0.69785 0.02133
 O746 O 0.70951 0.74966 0.01206
 O747 O 0.79055 0.68374 0.04929
 O748 O 0.83683 0.69357 0.02878
 O749 O 0.75219 0.63169 -0.00214
 O750 O 0.75037 0.63237 -0.05643
 O751 O 0.83828 0.75038 -0.04427
 O752 O 0.83572 0.75503 0.00590
 O753 O 0.75594 0.77523 -0.06487
 O754 O 0.71044 0.75584 -0.05359
 O755 O 0.79543 0.70352 -0.10103
 O756 O 0.80051 0.65502 -0.08488
 Zr757 Zr 0.80241 0.69142 -0.06071
 O758 O 0.78901 0.66521 -0.02920
 Zr759 Zr 0.74742 0.73257 -0.05724
 O760 O 0.73027 0.70712 -0.02668
 Zr761 Zr 0.80213 0.74736 -0.02008
 O762 O 0.78668 0.72389 0.01268
 Zr763 Zr 0.74601 0.66601 -0.02885
 O764 O 0.75932 0.69036 -0.06228
 Zr765 Zr 0.80041 0.68249 0.00812
 O766 O 0.81756 0.70632 -0.02347
 Zr767 Zr 0.74327 0.72150 0.01129
 O768 O 0.75860 0.74866 -0.01925
 O769 O 0.79004 0.73313 -0.05767
 O770 O 0.75750 0.68059 0.00897
 C771 C 0.84871 0.73472 -0.06304
 C772 C 0.77836 0.72099 -0.11151
 C773 C 0.77444 0.79236 -0.05640
 C774 C 0.69853 0.67434 0.01230
 C775 C 0.77053 0.62635 0.01597
 C776 C 0.76958 0.69345 0.06206
 H777 H 0.79627 0.64603 -0.03165
 H778 H 0.79309 0.73216 0.02983
 H779 H 0.79771 0.74535 -0.07195
 H780 H 0.71000 0.70751 -0.02848
 H781 H 0.70250 0.67034 -0.05808
 H782 H 0.71676 0.70409 -0.08932
 H783 H 0.83268 0.71012 0.04010
 H784 H 0.84907 0.73956 0.00315
 H785 H 0.76252 0.61812 -0.04812
 H786 H 0.78180 0.65440 -0.09270
 H787 H 0.75941 0.75938 0.04519
 H788 H 0.78302 0.78567 0.01128
 H789 H 0.84764 0.66761 -0.04625
 H790 H 0.83385 0.64252 -0.00646
 H791 H 0.71301 0.76895 -0.03833
 H792 H 0.69558 0.74259 -0.00072
 O793 O 1.03405 0.17993 0.23898
 O794 O 0.98732 0.19834 0.23800
 O795 O 1.07831 0.24581 0.19879
 O796 O 1.09001 0.28941 0.20541
 O797 O 1.10707 0.20794 0.27536
 O798 O 1.09435 0.21641 0.32158
 O799 O 1.01590 0.33378 0.26833
 O800 O 1.02640 0.32420 0.22046
 O801 O 0.96801 0.27350 0.29746
 O802 O 0.96876 0.22395 0.30144
 O803 O 1.04153 0.29726 0.33690
 O804 O 1.09124 0.28441 0.33023
 O805 O 1.05005 0.33088 0.29950
 O806 O 1.09719 0.31261 0.30062
 O807 O 1.00262 0.27106 0.33747
 O808 O 0.99780 0.21830 0.33006
 O809 O 0.97605 0.30369 0.26277
 O810 O 0.98942 0.29684 0.21604
 O811 O 1.06287 0.17732 0.27508
 O812 O 1.05886 0.19155 0.32132
 O813 O 1.11439 0.23709 0.23962
 O814 O 1.11353 0.28950 0.24183
 O815 O 1.04116 0.21708 0.19821
 O816 O 0.99334 0.22679 0.20642
 Zr817 Zr 1.02327 0.22303 0.23714
 O818 O 1.00007 0.25384 0.25792
 Zr819 Zr 1.07911 0.26286 0.23793
 O820 O 1.05823 0.29560 0.25810
 Zr821 Zr 1.06716 0.21844 0.28834
 O822 O 1.04608 0.24895 0.31105
 Zr823 Zr 1.01600 0.29386 0.24985
 O824 O 1.03731 0.26337 0.22652
 Zr825 Zr 1.00431 0.24922 0.30008
 O826 O 1.02491 0.21625 0.27935
 Zr827 Zr 1.06081 0.28848 0.29993
 O828 O 1.08441 0.25763 0.27981
 O829 O 1.06479 0.22303 0.24643
 O830 O 1.01879 0.28905 0.29158
 C831 C 1.04969 0.16628 0.25544
 C832 C 1.06222 0.22853 0.18687
 C833 C 1.12153 0.21702 0.25545
 C834 C 1.03066 0.34410 0.28741
 C835 C 0.96089 0.29355 0.28161
 C836 C 1.01910 0.28895 0.34801
 H837 H 0.98062 0.25224 0.25235
 H838 H 1.04857 0.24515 0.33055
 H839 H 1.07472 0.20849 0.23593
 H840 H 1.06587 0.31394 0.25288
 H841 H 1.03476 0.31396 0.20502
 H842 H 1.07998 0.30724 0.20812
 H843 H 1.01182 0.22082 0.34429
 H844 H 1.03949 0.18554 0.31947
 H845 H 0.97563 0.28179 0.21757
 H846 H 0.99760 0.24418 0.19643
 H847 H 1.08464 0.27061 0.34365
 H848 H 1.10695 0.23250 0.31981
 H849 H 0.98638 0.18978 0.25623
 H850 H 0.96187 0.22241 0.28271
 H851 H 1.12284 0.28441 0.25893
 H852 H 1.09853 0.32271 0.28320
 O853 O 0.64640 1.04416 0.75724
 O854 O 0.65709 1.05493 0.80028
 O855 O 0.72419 1.06127 0.71535
 O856 O 0.76774 1.04392 0.71614
 O857 O 0.67724 0.98645 0.69567
 O858 O 0.66946 0.94443 0.71607
 O859 O 0.78389 0.99604 0.80391
 O860 O 0.78318 1.04317 0.79043
 O861 O 0.71314 0.97677 0.84167
 O862 O 0.66419 0.98609 0.83387
 O863 O 0.73932 0.92397 0.78306
 O864 O 0.74154 0.92187 0.73594
 O865 O 0.77940 0.95485 0.78148
 O866 O 0.77156 0.95143 0.72780
 O867 O 0.70640 0.93456 0.81439
 O868 O 0.65693 0.95332 0.80801
 O869 O 0.74729 1.00864 0.83615
 O870 O 0.75010 1.05757 0.81251
 O871 O 0.64016 1.00514 0.73176
 O872 O 0.64388 0.95546 0.74835
 O873 O 0.71389 1.01463 0.68733
 O874 O 0.76342 1.00450 0.69925
 O875 O 0.69138 1.07571 0.74538
 O876 O 0.69412 1.07584 0.79637
 Zr877 Zr 0.68645 1.04063 0.77170
 O878 O 0.70589 1.01851 0.80331
 Zr879 Zr 0.73257 1.02005 0.72575
 O880 O 0.75621 1.00016 0.75590
 Zr881 Zr 0.67712 0.98168 0.73762
 O882 O 0.69926 0.95745 0.76587
 Zr883 Zr 0.74797 1.01762 0.79429
 O884 O 0.72882 1.04094 0.76333
 Zr885 Zr 0.69401 0.97599 0.80395
 O886 O 0.67067 0.99967 0.77583
 Zr887 Zr 0.74222 0.95915 0.75884
 O888 O 0.71945 0.97848 0.72745
 O889 O 0.69052 1.02262 0.73363
 O890 O 0.73622 0.97602 0.79704
 C891 C 0.63189 1.02860 0.74191
 C892 C 0.70783 1.07978 0.72511
 C893 C 0.69287 1.00034 0.67974
 C894 C 0.79174 0.97122 0.79822
 C895 C 0.73346 0.99100 0.85031
 C896 C 0.72479 0.91819 0.80391
 H897 H 0.70212 1.02788 0.82077
 H898 H 0.69240 0.93805 0.76539
 H899 H 0.68038 1.03321 0.71960
 H900 H 0.77603 1.00082 0.75130
 H901 H 0.79206 1.03854 0.77293
 H902 H 0.77258 1.05404 0.73290
 H903 H 0.65898 0.93583 0.79751
 H904 H 0.63312 0.96535 0.76253
 H905 H 0.73732 1.05783 0.82818
 H906 H 0.71137 1.08442 0.78967
 H907 H 0.72204 0.91616 0.73479
 H908 H 0.68770 0.93717 0.71029
 H909 H 0.64993 1.03798 0.80932
 H910 H 0.66860 1.00480 0.84107
 H911 H 0.75648 0.98679 0.69162
 H912 H 0.78947 0.95894 0.73374
 O913 O 0.74959 0.56105 0.22655
 O914 O 0.79795 0.54393 0.21885
 O915 O 0.70628 0.48366 0.20843
 O916 O 0.70248 0.44075 0.22681
 O917 O 0.68684 0.53640 0.27781
 O918 O 0.70826 0.53587 0.32421
 O919 O 0.78473 0.41638 0.27850
 O920 O 0.76629 0.41787 0.23201
 O921 O 0.83366 0.48412 0.28791
 O922 O 0.82677 0.53653 0.27187
 O923 O 0.77561 0.47154 0.34373
 O924 O 0.72215 0.47897 0.34474
 O925 O 0.76076 0.42669 0.31693
 O926 O 0.71774 0.44015 0.32740
 O927 O 0.80792 0.50239 0.32915
 O928 O 0.81113 0.54541 0.30909
 O929 O 0.82281 0.44773 0.26053
 O930 O 0.80256 0.44182 0.21856
 O931 O 0.72814 0.56912 0.26689
 O932 O 0.73644 0.56579 0.31233
 O933 O 0.67656 0.49947 0.25083
 O934 O 0.68208 0.45059 0.26558
 O935 O 0.73865 0.51521 0.19533
 O936 O 0.78583 0.51223 0.19313
 Zr937 Zr 0.76386 0.51888 0.22963
 O938 O 0.79377 0.49424 0.24948
 Zr939 Zr 0.71374 0.47622 0.24975
 O940 O 0.74137 0.45114 0.27224
 Zr941 Zr 0.72915 0.53124 0.28675
 O942 O 0.75899 0.50980 0.30925
 Zr943 Zr 0.78049 0.45267 0.25419
 O944 O 0.75255 0.47619 0.23031
 Zr945 Zr 0.79738 0.50910 0.28906
 O946 O 0.76865 0.53502 0.26890
 Zr947 Zr 0.74732 0.46782 0.31126
 O948 O 0.71594 0.48992 0.29026
 O949 O 0.72496 0.51789 0.24695
 O950 O 0.78628 0.46731 0.29344
 C951 C 0.73656 0.57686 0.24360
 C952 C 0.71777 0.49963 0.19075
 C953 C 0.67024 0.52256 0.26269
 C954 C 0.77526 0.41017 0.30216
 C955 C 0.83973 0.46139 0.27522
 C956 C 0.79723 0.48665 0.34715
 H957 H 0.81151 0.49523 0.23962
 H958 H 0.76002 0.51874 0.32725
 H959 H 0.71230 0.52936 0.23586
 H960 H 0.73444 0.43179 0.27323
 H961 H 0.75554 0.42535 0.21661
 H962 H 0.71207 0.42429 0.23447
 H963 H 0.79563 0.55214 0.32045
 H964 H 0.75550 0.57192 0.30854
 H965 H 0.81017 0.45922 0.21088
 H966 H 0.78430 0.49205 0.18907
 H967 H 0.73145 0.49418 0.35462
 H968 H 0.69394 0.52126 0.32502
 H969 H 0.79977 0.55829 0.23313
 H970 H 0.83962 0.52542 0.26051
 H971 H 0.67573 0.45922 0.28275
 H972 H 0.70596 0.43455 0.31210
 O973 O 0.53598 0.22372 0.73455
 O974 O 0.51079 0.21564 0.77339
 O975 O 0.47587 0.20422 0.67288
 O976 O 0.43549 0.22119 0.65810
 O977 O 0.52803 0.27840 0.66437
 O978 O 0.53078 0.32097 0.68477
 O979 O 0.39260 0.28059 0.73757
 O980 O 0.39216 0.23446 0.72326
 O981 O 0.45064 0.29174 0.79429
 O982 O 0.49722 0.29068 0.79850
 O983 O 0.44450 0.34716 0.72210
 O984 O 0.45780 0.34358 0.67663
 O985 O 0.40574 0.31756 0.71177
 O986 O 0.42946 0.31485 0.66337
 O987 O 0.45665 0.33508 0.76488
 O988 O 0.51066 0.32123 0.77180
 O989 O 0.41664 0.26360 0.77866
 O990 O 0.41708 0.21545 0.75492
 O991 O 0.55119 0.26070 0.70984
 O992 O 0.54386 0.31083 0.72362
 O993 O 0.49498 0.25031 0.64678
 O994 O 0.44320 0.25986 0.64328
 O995 O 0.49647 0.19174 0.71229
 O996 O 0.47685 0.19498 0.75913
 Zr997 Zr 0.49315 0.22857 0.73640
 O998 O 0.46511 0.25316 0.75893
 Zr999 Zr 0.46493 0.24614 0.67789
 O1000 O 0.43334 0.26870 0.69792
 Zr1001 Zr 0.51497 0.28498 0.70399
 O1002 O 0.48556 0.31149 0.72236
 Zr1003 Zr 0.42765 0.25458 0.73797
 O1004 O 0.45524 0.22836 0.71597
 Zr1005 Zr 0.47714 0.29552 0.76096
 O1006 O 0.50789 0.26951 0.74315
 Zr1007 Zr 0.44757 0.30955 0.70196
 O1008 O 0.47856 0.28750 0.68074
 O1009 O 0.50225 0.24397 0.69816
 O1010 O 0.43974 0.29585 0.74125
 C1011 C 0.55513 0.23786 0.72310
 C1012 C 0.48778 0.18634 0.68824
 C1013 C 0.51760 0.26423 0.64513
 C1014 C 0.38833 0.30473 0.72700
 C1015 C 0.42813 0.27825 0.79731
 C1016 C 0.44564 0.35188 0.74742
 H1017 H 0.46346 0.24459 0.77707
 H1018 H 0.49272 0.33077 0.72314
 H1019 H 0.51605 0.23246 0.68833
 H1020 H 0.41587 0.26786 0.68777
 H1021 H 0.39795 0.22448 0.70666
 H1022 H 0.42524 0.21123 0.67249
 H1023 H 0.50583 0.34073 0.76707
 H1024 H 0.54908 0.30133 0.74066
 H1025 H 0.42658 0.21390 0.77253
 H1026 H 0.46201 0.18663 0.74818
 H1027 H 0.47601 0.35036 0.68252
 H1028 H 0.51600 0.32806 0.67285
 H1029 H 0.51873 0.23258 0.78167
 H1030 H 0.49853 0.27033 0.80175
 H1031 H 0.45305 0.27636 0.63611
 H1032 H 0.41030 0.30797 0.66425
 O1033 O 0.32329 0.82671 0.51052
 O1034 O 0.32745 0.82216 0.55841
 O1035 O 0.36319 0.74618 0.48932
 O1036 O 0.35287 0.70010 0.49729
 O1037 O 0.29278 0.77558 0.44558
 O1038 O 0.24221 0.77288 0.45863
 O1039 O 0.28722 0.68860 0.57010
 O1040 O 0.33633 0.69442 0.56109
 O1041 O 0.25550 0.76263 0.59416
 O1042 O 0.26737 0.81155 0.57983
 O1043 O 0.21543 0.72543 0.53494
 O1044 O 0.22637 0.71698 0.48397
 O1045 O 0.25135 0.68478 0.54093
 O1046 O 0.25029 0.68311 0.49347
 O1047 O 0.21938 0.76492 0.56020
 O1048 O 0.23092 0.80983 0.54782
 O1049 O 0.29052 0.73137 0.59938
 O1050 O 0.33641 0.73001 0.59063
 O1051 O 0.28983 0.82193 0.47882
 O1052 O 0.24509 0.81183 0.47659
 O1053 O 0.32426 0.74088 0.45182
 O1054 O 0.31845 0.69482 0.46944
 O1055 O 0.36324 0.78835 0.51066
 O1056 O 0.35794 0.79194 0.55850
 Zr1057 Zr 0.32506 0.78850 0.53082
 O1058 O 0.30154 0.76999 0.56168
 Zr1059 Zr 0.32225 0.73146 0.49311
 O1060 O 0.29714 0.71070 0.52174
 Zr1061 Zr 0.27530 0.78117 0.48507
 O1062 O 0.24902 0.76378 0.51480
 Zr1063 Zr 0.30612 0.72645 0.56020
 O1064 O 0.33312 0.74523 0.53199
 Zr1065 Zr 0.25982 0.77715 0.55390
 O1066 O 0.28328 0.79787 0.52400
 Zr1067 Zr 0.25499 0.72035 0.51593
 O1068 O 0.28008 0.73751 0.48450
 O1069 O 0.31692 0.77458 0.49179
 O1070 O 0.26416 0.73394 0.55467
 C1071 C 0.30798 0.83613 0.49152
 C1072 C 0.37482 0.76919 0.49643
 C1073 C 0.31159 0.75859 0.43682
 C1074 C 0.26591 0.67612 0.56094
 C1075 C 0.26963 0.74511 0.60825
 C1076 C 0.20564 0.74416 0.55133
 H1077 H 0.30681 0.77758 0.57953
 H1078 H 0.22981 0.76900 0.51047
 H1079 H 0.32824 0.78447 0.47815
 H1080 H 0.30058 0.69034 0.52085
 H1081 H 0.35336 0.70220 0.55299
 H1082 H 0.34577 0.68589 0.51003
 H1083 H 0.24111 0.82548 0.53938
 H1084 H 0.23584 0.81602 0.49401
 H1085 H 0.34329 0.74936 0.58994
 H1086 H 0.36794 0.77384 0.55824
 H1087 H 0.21341 0.73294 0.48548
 H1088 H 0.24624 0.75475 0.44977
 H1089 H 0.30927 0.83162 0.55824
 H1090 H 0.25170 0.81300 0.59273
 H1091 H 0.30019 0.69576 0.46066
 H1092 H 0.26892 0.67510 0.49080
 O1093 O 0.24398 0.27235 0.90955
 O1094 O 0.19315 0.26499 0.90994
 O1095 O 0.25760 0.31377 0.98371
 O1096 O 0.24636 0.30560 1.02823
 O1097 O 0.30714 0.24476 0.96065
 O1098 O 0.29932 0.19332 0.96411
 O1099 O 0.18236 0.23564 1.04511
 O1100 O 0.18232 0.28343 1.03410
 O1101 O 0.15997 0.19541 0.97207
 O1102 O 0.17837 0.20537 0.92220
 O1103 O 0.21912 0.16389 1.01406
 O1104 O 0.27218 0.17550 1.01787
 O1105 O 0.21519 0.20188 1.05026
 O1106 O 0.26373 0.20215 1.04931
 O1107 O 0.19830 0.16209 0.97303
 O1108 O 0.20611 0.17302 0.92735
 O1109 O 0.15286 0.22716 1.00564
 O1110 O 0.15620 0.27942 0.99777
 O1111 O 0.27712 0.23916 0.91600
 O1112 O 0.27897 0.19192 0.92700
 O1113 O 0.29776 0.27706 0.99325
 O1114 O 0.27844 0.27353 1.03691
 O1115 O 0.23016 0.31142 0.94655
 O1116 O 0.18628 0.29828 0.93644
 Zr1117 Zr 0.21840 0.26955 0.94440
 O1118 O 0.18863 0.24427 0.96357
 Zr1119 Zr 0.25559 0.27307 1.00053
 O1120 O 0.22872 0.24633 1.02151
 Zr1121 Zr 0.26911 0.22387 0.95500
 O1122 O 0.24121 0.19551 0.97281
 Zr1123 Zr 0.18894 0.25098 1.00569
 O1124 O 0.21546 0.27948 0.98599
 Zr1125 Zr 0.20094 0.20270 0.95870
 O1126 O 0.22965 0.22769 0.93755
 Zr1127 Zr 0.23869 0.20383 1.01446
 O1128 O 0.26843 0.23096 0.99694
 O1129 O 0.25822 0.26569 0.95921
 O1130 O 0.19897 0.20906 1.00032
 C1131 C 0.26542 0.25832 0.90193
 C1132 C 0.24567 0.32473 0.96297
 C1133 C 0.31417 0.26461 0.97680
 C1134 C 0.19465 0.21646 1.05883
 C1135 C 0.14550 0.20611 0.99145
 C1136 C 0.20438 0.15153 0.99600
 H1137 H 0.17024 0.24758 0.95571
 H1138 H 0.24739 0.17616 0.96912
 H1139 H 0.27116 0.27852 0.95001
 H1140 H 0.22959 0.25118 1.04092
 H1141 H 0.19063 0.30055 1.02636
 H1142 H 0.23433 0.29784 1.04257
 H1143 H 0.22476 0.16489 0.92937
 H1144 H 0.26249 0.18949 0.91557
 H1145 H 0.14405 0.27132 0.98385
 H1146 H 0.17757 0.30235 0.95418
 H1147 H 0.26855 0.15934 1.00598
 H1148 H 0.30604 0.19746 0.98255
 H1149 H 0.20004 0.24842 0.89995
 H1150 H 0.15988 0.21309 0.92643
 H1151 H 0.28852 0.25552 1.03786
 H1152 H 0.26275 0.22082 1.05787
 C1153 C 0.27466 0.38721 0.82682
 C1154 C 0.26208 0.38978 0.85184
 C1155 C 0.25288 0.41657 0.85312
 C1156 C 0.26051 0.42846 0.82881
 O1157 O 0.27387 0.41074 0.81274
 H1158 H 0.25967 0.37388 0.86725
 H1159 H 0.24159 0.42621 0.86965
 C1160 C 0.27940 -0.16866 0.30357
 C1161 C 0.25582 -0.16524 0.31898
 C1162 C 0.24015 -0.14621 0.30520
 C1163 C 0.25527 -0.13945 0.28237
 O1164 O 0.27904 -0.15311 0.28136
 H1165 H 0.25103 -0.17471 0.33833
 H1166 H 0.22078 -0.13714 0.31180
 C1167 C 0.75290 0.85297 0.81973
 C1168 C 0.73091 0.85111 0.83757
 C1169 C 0.71681 0.87602 0.83500
 C1170 C 0.73124 0.89077 0.81563
 O1171 O 0.75297 0.87689 0.80665
 H1172 H 0.72576 0.83382 0.85074
 H1173 H 0.69819 0.88235 0.84551
 C1174 C 0.48074 0.89989 0.29384
 C1175 C 0.50704 0.90171 0.30408
 C1176 C 0.52010 0.87798 0.29530
 C1177 C 0.50081 0.86397 0.28008
 O1178 O 0.47702 0.87714 0.27926
 H1179 H 0.51544 0.91794 0.31680
 H1180 H 0.54111 0.87168 0.29938
 C1181 C -0.06134 0.94005 0.77567
 C1182 C -0.07211 0.94832 0.75115
 C1183 C -0.06001 0.93134 0.73235
 C1184 C -0.04273 0.91400 0.74681
 O1185 O -0.04339 0.91938 0.77307
 H1186 H -0.08861 0.96319 0.74772
 H1187 H -0.06519 0.92991 0.71111
 C1188 C -0.05322 -0.15928 -0.03352
 C1189 C -0.06733 -0.16745 -0.01044
 C1190 C -0.06504 -0.14574 0.00712
 C1191 C -0.04950 -0.12624 -0.00648
 O1192 O -0.04213 -0.13438 -0.03103
 H1193 H -0.07899 -0.18639 -0.00726
 H1194 H -0.07436 -0.14389 0.02700
 C1195 C -0.03442 0.35369 0.49693
 C1196 C -0.04794 0.35497 0.52153
 C1197 C -0.04066 0.38001 0.53234
 C1198 C -0.02330 0.39190 0.51342
 O1199 O -0.01945 0.37598 0.49198
 H1200 H -0.06190 0.33981 0.53018
 H1201 H -0.04785 0.38896 0.55124
 C1202 C 0.46775 -0.12907 0.41026
 C1203 C 0.47835 -0.11855 0.38629
 C1204 C 0.48192 -0.09082 0.39056
 C1205 C 0.47325 -0.08614 0.41678
 O1206 O 0.46436 -0.10928 0.42886
 H1207 H 0.48367 -0.12991 0.36802
 H1208 H 0.49065 -0.07590 0.37650
 C1209 C 0.46375 0.33759 -0.06734
 C1210 C 0.48575 0.34181 -0.08462
 C1211 C 0.50235 0.36019 -0.07167
 C1212 C 0.48930 0.36638 -0.04746
 O1213 O 0.46584 0.35245 -0.04465
 H1214 H 0.48905 0.33298 -0.10455
 H1215 H 0.52105 0.36929 -0.07967
 C1216 C 0.81294 0.38034 0.44648
 C1217 C 0.80123 0.37275 0.42213
 C1218 C 0.79300 0.34598 0.42535
 C1219 C 0.80021 0.33903 0.45141
 O1220 O 0.81248 0.35979 0.46442
 H1221 H 0.79878 0.38538 0.40411
 H1222 H 0.78266 0.33314 0.41056
 C1223 C 0.77718 0.86519 -0.07103
 C1224 C 0.75976 0.85684 -0.09152
 C1225 C 0.75728 0.82872 -0.08893
 C1226 C 0.77328 0.82144 -0.06706
 O1227 O 0.78569 0.84355 -0.05614
 H1228 H 0.74940 0.86986 -0.10626
 H1229 H 0.74476 0.81513 -0.10124
 C1230 C 0.83732 0.25787 0.36247
 C1231 C 0.85695 0.23747 0.36724
 C1232 C 0.84764 0.22308 0.38941
 C1233 C 0.82299 0.23575 0.39629
 O1234 O 0.81677 0.25673 0.37997
 H1235 H 0.87636 0.23442 0.35675
 H1236 H 0.85827 0.20658 0.40017
 C1237 C 0.79228 0.76176 -0.16801
 C1238 C 0.81055 0.74034 -0.17385
 C1239 C 0.80544 0.72030 -0.15491
 C1240 C 0.78445 0.73096 -0.13894
 O1241 O 0.77624 0.75596 -0.14708
 H1242 H 0.82668 0.74003 -0.18907
 H1243 H 0.81724 0.70134 -0.15167
 C1244 C 0.30130 0.48525 0.92364
 C1245 C 0.31907 0.50757 0.92224
 C1246 C 0.30735 0.52574 0.90424
 C1247 C 0.28325 0.51320 0.89606
 O1248 O 0.27960 0.48863 0.90781
 H1249 H 0.33861 0.50988 0.93239
 H1250 H 0.31599 0.54516 0.89699
 C1251 C 0.26866 -0.06324 0.37889
 C1252 C 0.24566 -0.07999 0.37932
 C1253 C 0.23395 -0.07663 0.35447
 C1254 C 0.25082 -0.05818 0.34085
 O1255 O 0.27184 -0.05004 0.35562
 H1256 H 0.23862 -0.09339 0.39556
 H1257 H 0.21587 -0.08708 0.34687
 C1258 C -0.05508 -0.04952 -0.12691
 C1259 C -0.02795 -0.05838 -0.12653
 C1260 C -0.01963 -0.05543 -0.10048
 C1261 C -0.04199 -0.04450 -0.08668
 O1262 O -0.06374 -0.04099 -0.10264
 H1263 H -0.01569 -0.06626 -0.14327
 H1264 H 0.00062 -0.06010 -0.09255
 C1265 C -0.05228 0.45821 0.38052
 C1266 C -0.07547 0.47212 0.38976
 C1267 C -0.06917 0.48081 0.41510
 C1268 C -0.04261 0.47156 0.41974
 O1269 O -0.03222 0.45766 0.39877
 H1270 H -0.09463 0.47578 0.37919
 H1271 H -0.08231 0.49285 0.42856
 C1272 C 0.44554 -0.01290 0.32996
 C1273 C 0.42727 0.00926 0.33078
 C1274 C 0.43630 0.02590 0.35128
 C1275 C 0.45928 0.01249 0.36143
 O1276 O 0.46497 -0.01090 0.34837
 H1277 H 0.40871 0.01200 0.31903
 H1278 H 0.42603 0.04425 0.35935
 C1279 C 0.45062 0.44024 -0.13489
 C1280 C 0.47109 0.42014 -0.13597
 C1281 C 0.48599 0.42400 -0.11334
 C1282 C 0.47336 0.44593 -0.09992
 O1283 O 0.45174 0.45595 -0.11288
 H1284 H 0.47492 0.40469 -0.15157
 H1285 H 0.50382 0.41199 -0.10713
 C1286 C 0.47926 0.77670 0.37767
 C1287 C 0.47477 0.74829 0.37873
 C1288 C 0.48260 0.73848 0.35404
 C1289 C 0.49164 0.76157 0.33996
 O1290 O 0.48964 0.78486 0.35418
 H1291 H 0.46573 0.73639 0.39512
 H1292 H 0.48115 0.71720 0.34680
 C1293 C -0.03173 0.83255 0.87181
 C1294 C -0.01588 0.85625 0.86914
 C1295 C -0.00964 0.85774 0.84214
 C1296 C -0.02237 0.83497 0.83055
 O1297 O -0.03572 0.81977 0.84848
 H1298 H -0.00965 0.87061 0.88485
 H1299 H 0.00262 0.87350 0.83211
 C1300 C 0.36939 0.79655 0.27931
 C1301 C 0.36846 0.81157 0.25553
 C1302 C 0.39297 0.80692 0.24314
 C1303 C 0.40741 0.78917 0.25997
 O1304 O 0.39313 0.78267 0.28218
 H1305 H 0.35194 0.82479 0.24823
 H1306 H 0.39971 0.81571 0.22404
 C1307 C -0.16292 0.82900 0.77327
 C1308 C -0.16337 0.85261 0.75727
 C1309 C -0.13837 0.85320 0.74471
 C1310 C -0.12431 0.83007 0.75416
 O1311 O -0.13918 0.81524 0.77152
 H1312 H -0.17995 0.86764 0.75509
 H1313 H -0.13108 0.86884 0.73060
 C1314 C 0.92037 0.26911 0.46756
 C1315 C 0.92224 0.24212 0.45825
 C1316 C 0.89905 0.22957 0.46760
 C1317 C 0.88461 0.24999 0.48171
 O1318 O 0.89763 0.27408 0.48178
 H1319 H 0.93844 0.23284 0.44603
 H1320 H 0.89272 0.20836 0.46346
 C1321 C 0.90903 0.76656 -0.08494
 C1322 C 0.90712 0.74780 -0.10596
 C1323 C 0.88435 0.73243 -0.10008
 C1324 C 0.87415 0.74344 -0.07615
 O1325 O 0.88911 0.76405 -0.06692
 H1326 H 0.92034 0.74599 -0.12359
 H1327 H 0.87568 0.71584 -0.11217
 C1328 C -0.17911 -0.05920 -0.02063
 C1329 C -0.18457 -0.03366 -0.00844
 C1330 C -0.16017 -0.02410 0.00047
 C1331 C -0.14133 -0.04422 -0.00679
 O1332 O -0.15255 -0.06598 -0.01932
 H1333 H -0.20395 -0.02235 -0.00787
 H1334 H -0.15627 -0.00424 0.01018
 C1335 C -0.13142 0.45029 0.49678
 C1336 C -0.12979 0.43722 0.52153
 C1337 C -0.10893 0.45039 0.53472
 C1338 C -0.09926 0.47052 0.51699
 O1339 O -0.11303 0.47049 0.49396
 H1340 H -0.14166 0.41961 0.52867
 H1341 H -0.10044 0.44464 0.55416
 C1342 C 0.34990 -0.02116 0.41704
 C1343 C 0.35324 -0.00047 0.39792
 C1344 C 0.37736 0.01212 0.40467
 C1345 C 0.38688 -0.00218 0.42711
 O1346 O 0.37028 -0.02231 0.43463
 H1347 H 0.33981 0.00478 0.38124
 H1348 H 0.38713 0.02932 0.39422
 C1349 C 0.36031 0.42366 -0.02293
 C1350 C 0.36599 0.39916 -0.00916
 C1351 C 0.39255 0.40142 -0.00083
 C1352 C 0.40126 0.42706 -0.01016
 O1353 O 0.38175 0.44067 -0.02359
 H1354 H 0.35244 0.38162 -0.00570
 H1355 H 0.40428 0.38611 0.01047
 C1356 C 0.37569 0.49198 0.82458
 C1357 C 0.37851 0.51545 0.84041
 C1358 C 0.35569 0.53114 0.83538
 C1359 C 0.34061 0.51593 0.81697
 O1360 O 0.35274 0.49212 0.81031
 H1361 H 0.39496 0.52026 0.85431
 H1362 H 0.35008 0.55074 0.84492
 C1363 C 0.38518 -0.07978 0.28465
 C1364 C 0.37946 -0.10676 0.27669
 C1365 C 0.35295 -0.10603 0.26822
 C1366 C 0.34455 -0.07870 0.27172
 O1367 O 0.36398 -0.06267 0.28185
 H1368 H 0.39324 -0.12463 0.27638
 H1369 H 0.34139 -0.12309 0.25961
 C1370 C 0.08294 0.58555 0.74983
 C1371 C 0.07850 0.60101 0.77300
 C1372 C 0.09732 0.59114 0.79115
 C1373 C 0.11164 0.57030 0.77769
 O1374 O 0.10284 0.56687 0.75268
 H1375 H 0.06444 0.61842 0.77577
 H1376 H 0.10153 0.59958 0.81101
 C1377 C 0.09994 0.02120 0.18241
 C1378 C 0.09995 0.00042 0.16303
 C1379 C 0.12565 -0.01086 0.16361
 C1380 C 0.13949 0.00380 0.18328
 O1381 O 0.12398 0.02338 0.19476
 H1382 H 0.08308 -0.00605 0.15032
 H1383 H 0.13320 -0.02826 0.15163
 C1384 C 0.66551 0.71460 0.17140
 C1385 C 0.66233 0.73645 0.15357
 C1386 C 0.63805 0.74863 0.16064
 C1387 C 0.62808 0.73320 0.18220
 O1388 O 0.64473 0.71240 0.18882
 H1389 H 0.67612 0.74277 0.13744
 H1390 H 0.62848 0.76646 0.15093
 C1391 C 0.13607 0.75375 0.68014
 C1392 C 0.13481 0.77096 0.65779
 C1393 C 0.10861 0.78130 0.65772
 C1394 C 0.09593 0.76958 0.68004
 O1395 O 0.11252 0.75280 0.69365
 H1396 H 0.15109 0.77558 0.64345
 H1397 H 0.09990 0.79592 0.64336
 C1398 C 0.60874 0.20929 0.51218
 C1399 C 0.61314 0.19203 0.49025
 C1400 C 0.64041 0.19390 0.48478
 C1401 C 0.65069 0.21219 0.50376
 O1402 O 0.63148 0.22180 0.52044
 H1403 H 0.59839 0.17879 0.48019
 H1404 H 0.65171 0.18262 0.46926
 C1405 C 0.63270 0.65693 0.03742
 C1406 C 0.64156 0.63051 0.03031
 C1407 C 0.66770 0.63378 0.02119
 C1408 C 0.67311 0.66198 0.02339
 O1409 O 0.65187 0.67623 0.03341
 H1410 H 0.63014 0.61117 0.03130
 H1411 H 0.68112 0.61757 0.01320
 C1412 C 0.11902 0.02321 0.06876
 C1413 C 0.11441 0.00410 0.08917
 C1414 C 0.08729 -0.00186 0.08794
 C1415 C 0.07704 0.01377 0.06672
 O1416 O 0.09629 0.02929 0.05498
 H1417 H 0.12921 -0.00478 0.10309
 H1418 H 0.07639 -0.01674 0.10048
 C1419 C 0.15958 0.56124 0.54749
 C1420 C 0.16213 0.57257 0.52190
 C1421 C 0.14136 0.56109 0.50711
 C1422 C 0.12785 0.54338 0.52468
 O1423 O 0.13885 0.54350 0.54918
 H1424 H 0.17670 0.58813 0.51513
 H1425 H 0.13597 0.56593 0.48640
 C1426 C 0.64453 0.04638 0.52304
 C1427 C 0.64760 0.06134 0.49937
 C1428 C 0.62368 0.05784 0.48579
 C1429 C 0.60777 0.04093 0.50210
 O1430 O 0.62037 0.03376 0.52478
 H1431 H 0.66474 0.07434 0.49336
 H1432 H 0.61800 0.06738 0.46673
 C1433 C 0.65974 0.52647 0.03393
 C1434 C 0.65707 0.54107 0.01002
 C1435 C 0.63185 0.53409 0.00050
 C1436 C 0.62120 0.51563 0.01924
 O1437 O 0.63806 0.51092 0.03959
 H1438 H 0.67136 0.55578 0.00115
 H1439 H 0.62208 0.54197 -0.01763
 C1440 C 0.00619 0.04306 0.16739
 C1441 C -0.01835 0.05757 0.16965
 C1442 C -0.03479 0.04663 0.14997
 C1443 C -0.01904 0.02614 0.13751
 O1444 O 0.00567 0.02393 0.14817
 H1445 H -0.02317 0.07490 0.18295
 H1446 H -0.05505 0.05396 0.14421
 C1447 C 0.07070 0.55935 0.65509
 C1448 C 0.08849 0.53682 0.65590
 C1449 C 0.08659 0.52463 0.63102
 C1450 C 0.06770 0.54064 0.61704
 O1451 O 0.05805 0.56170 0.63160
 H1452 H 0.10085 0.52983 0.67277
 H1453 H 0.09693 0.50578 0.62424
 C1454 C 0.53341 0.03089 0.62575
 C1455 C 0.54835 0.00637 0.62326
 C1456 C 0.54294 -0.00318 0.59787
 C1457 C 0.52495 0.01605 0.58680
 O1458 O 0.51907 0.03673 0.60369
 H1459 H 0.56216 -0.00298 0.63786
 H1460 H 0.55168 -0.02154 0.58826
 C1461 C 0.56551 0.50861 0.15195
 C1462 C 0.58056 0.48410 0.15191
 C1463 C 0.57271 0.47034 0.12906
 C1464 C 0.55323 0.48734 0.11702
 O1465 O 0.54886 0.51061 0.13087
 H1466 H 0.59618 0.47761 0.16618
 H1467 H 0.58086 0.45071 0.12155
 C1468 C 0.18037 0.55392 0.64484
 C1469 C 0.16088 0.53389 0.65021
 C1470 C 0.16255 0.52908 0.67734
 C1471 C 0.18299 0.54654 0.68660
 O1472 O 0.19391 0.56165 0.66686
 H1473 H 0.14736 0.52377 0.63597
 H1474 H 0.15059 0.51425 0.68896
 C1475 C 0.21516 0.01969 0.08387
 C1476 C 0.24249 0.02640 0.08014
 C1477 C 0.25635 0.01097 0.09895
 C1478 C 0.23646 -0.00413 0.11263
 O1479 O 0.21151 0.00105 0.10333
 H1480 H 0.25111 0.04167 0.06637
 H1481 H 0.27806 0.01226 0.10359
 C1482 C 0.68693 0.22919 0.63911
 C1483 C 0.67472 0.25399 0.63148
 C1484 C 0.68788 0.26159 0.60826
 C1485 C 0.70729 0.24094 0.60335
 O1486 O 0.70679 0.22117 0.62212
 H1487 H 0.65782 0.26486 0.64133
 H1488 H 0.68334 0.27969 0.59589
 C1489 C 0.75022 0.67962 0.12885
 C1490 C 0.77526 0.66593 0.12932
 C1491 C 0.78654 0.67043 0.10447
 C1492 C 0.76745 0.68648 0.09079
 O1493 O 0.74538 0.69216 0.10554
 H1494 H 0.78394 0.65364 0.14561
 H1495 H 0.80589 0.66217 0.09687
 C1496 C 0.56585 0.71891 0.08264
 C1497 C 0.58123 0.74293 0.08043
 C1498 C 0.57110 0.76044 0.09994
 C1499 C 0.55026 0.74576 0.11255
 O1500 O 0.54700 0.72065 0.10196
 H1501 H 0.59888 0.74651 0.06743
 H1502 H 0.57944 0.78045 0.10579
 C1503 C 0.03546 0.72955 0.58631
 C1504 C 0.00934 0.71938 0.58192
 C1505 C -0.00737 0.73373 0.59927
 C1506 C 0.00972 0.75176 0.61289
 O1507 O 0.03578 0.74932 0.60504
 H1508 H 0.00340 0.70261 0.56852
 H1509 H -0.02914 0.73038 0.60269
 C1510 C 0.54555 0.60497 0.17798
 C1511 C 0.52768 0.60921 0.15670
 C1512 C 0.51987 0.63657 0.15836
 C1513 C 0.53366 0.64704 0.18044
 O1514 O 0.54928 0.62793 0.19238
 H1515 H 0.52115 0.59416 0.14174
 H1516 H 0.50586 0.64758 0.14508
 C1517 C 0.02625 0.64378 0.68922
 C1518 C 0.00829 0.64547 0.66777
 C1519 C -0.00290 0.67147 0.66922
 C1520 C 0.00925 0.68392 0.69129
 O1521 O 0.02702 0.66714 0.70360
 H1522 H 0.00403 0.62964 0.65275
 H1523 H -0.01774 0.68055 0.65545
 C1524 C 0.01307 0.13597 0.07482
 C1525 C -0.00626 0.13351 0.09525
 C1526 C -0.02204 0.11122 0.08815
 C1527 C -0.01100 0.10152 0.06406
 O1528 O 0.01024 0.11658 0.05590
 H1529 H -0.00826 0.14605 0.11339
 H1530 H -0.03856 0.10211 0.09993
 C1531 C 0.07932 0.65450 0.53487
 C1532 C 0.09777 0.64556 0.51545
 C1533 C 0.08808 0.62047 0.50714
 C1534 C 0.06460 0.61579 0.52239
 O1535 O 0.05917 0.63646 0.53934
 H1536 H 0.11596 0.65618 0.50812
 H1537 H 0.09736 0.60684 0.49213
 C1538 C 0.52309 0.16390 0.53698
 C1539 C 0.50014 0.15992 0.55305
 C1540 C 0.49105 0.13396 0.54665
 C1541 C 0.50920 0.12417 0.52720
 O1542 O 0.52866 0.14228 0.52125
 H1543 H 0.49149 0.17399 0.56804
 H1544 H 0.47345 0.12333 0.55528
 C1545 C 0.54079 0.62260 0.05965
 C1546 C 0.51780 0.62128 0.07614
 C1547 C 0.50655 0.59567 0.07125
 C1548 C 0.52334 0.58349 0.05189
 O1549 O 0.54416 0.59973 0.04493
 H1550 H 0.51052 0.63682 0.09043
 H1551 H 0.48840 0.58690 0.08070
 C1552 C 0.71584 0.09654 0.56865
 C1553 C 0.73271 0.10272 0.59019
 C1554 C 0.74442 0.12755 0.58372
 C1555 C 0.73385 0.13463 0.55872
 O1556 O 0.71650 0.11584 0.54947
 H1557 H 0.73582 0.09078 0.60855
 H1558 H 0.75889 0.13920 0.59582
 C1559 C 0.74657 0.57039 0.05543
 C1560 C 0.77069 0.57475 0.06927
 C1561 C 0.78388 0.59529 0.05516
 C1562 C 0.76676 0.60193 0.03379
 O1563 O 0.74412 0.58680 0.03396
 H1564 H 0.77747 0.56470 0.08771
 H1565 H 0.80306 0.60519 0.06055
 C1566 C 0.17975 0.68528 0.73963
 C1567 C 0.15959 0.68579 0.75937
 C1568 C 0.16439 0.66270 0.77476
 C1569 C 0.18694 0.64969 0.76303
 O1570 O 0.19637 0.66339 0.74171
 H1571 H 0.14318 0.70097 0.76196
 H1572 H 0.15231 0.65562 0.79189
 C1573 C 0.22777 0.11740 0.16834
 C1574 C 0.24226 0.10825 0.14589
 C1575 C 0.25170 0.08229 0.15267
 C1576 C 0.24187 0.07746 0.17853
 O1577 O 0.22745 0.09874 0.18811
 H1578 H 0.24519 0.11896 0.12680
 H1579 H 0.26314 0.06800 0.13980
 C1580 C 0.69883 1.14663 0.69608
 C1581 C 0.72271 1.13900 0.68280
 C1582 C 0.72921 1.11339 0.69258
 C1583 C 0.70883 1.10706 0.71121
 O1584 O 0.69024 1.12732 0.71350
 H1585 H 0.73379 1.15055 0.66740
 H1586 H 0.74658 1.10054 0.68649
 C1587 C 0.71908 0.64128 0.21481
 C1588 C 0.70856 0.64613 0.24027
 C1589 C 0.71521 0.62302 0.25463
 C1590 C 0.72909 0.60566 0.23670
 O1591 O 0.73165 0.61678 0.21241
 H1592 H 0.69703 0.66417 0.24732
 H1593 H 0.70966 0.61883 0.27548
 C1594 C 0.50519 0.11737 0.66829
 C1595 C 0.48783 0.12409 0.64728
 C1596 C 0.47892 0.15044 0.65253
 C1597 C 0.49140 0.15813 0.67644
 O1598 O 0.50745 0.13799 0.68620
 H1599 H 0.48267 0.11143 0.62990
 H1600 H 0.46516 0.16281 0.64013
 C1601 C 1.05799 0.09706 0.23272
 C1602 C 1.07516 0.09565 0.25474
 C1603 C 1.07292 0.12098 0.26688
 C1604 C 1.05475 0.13621 0.25119
 O1605 O 1.04549 0.12166 0.23037
 H1606 H 1.08820 0.07836 0.26084
 H1607 H 1.08415 0.12796 0.28446
 C1608 C 0.23419 0.61641 0.58791
 C1609 C 0.25490 0.61889 0.60671
 C1610 C 0.27010 0.64103 0.59839
 C1611 C 0.25744 0.65060 0.57520
 O1612 O 0.23559 0.63564 0.56868
 H1613 H 0.25822 0.60630 0.62462
 H1614 H 0.28781 0.64973 0.60848
 C1615 C 0.17822 0.08751 1.02034
 C1616 C 0.16193 0.09027 0.99782
 C1617 C 0.17077 0.11383 0.98543
 C1618 C 0.19166 0.12412 1.00145
 O1619 O 0.19633 0.10808 1.02284
 H1620 H 0.14540 0.07678 0.99139
 H1621 H 0.16223 0.12307 0.96729
 C1622 C 0.23336 0.72986 0.66765
 C1623 C 0.25800 0.71761 0.67490
 C1624 C 0.27562 0.72331 0.65412
 C1625 C 0.26039 0.73871 0.63584
 O1626 O 0.23474 0.74277 0.64402
 H1627 H 0.26226 0.70512 0.69267
 H1628 H 0.29664 0.71598 0.65191
 C1629 C 0.18609 0.19744 1.12681
 C1630 C 0.16765 0.21956 1.12660
 C1631 C 0.16739 0.22888 1.10057
 C1632 C 0.18579 0.21190 1.08688
 O1633 O 0.19711 0.19274 1.10270
 H1634 H 0.15593 0.22800 1.14345
 H1635 H 0.15589 0.24651 1.09270
 C1636 C 0.69979 0.50943 0.12249
 C1637 C 0.67888 0.49137 0.12958
 C1638 C 0.68296 0.48527 0.15612
 C1639 C 0.70600 0.50010 0.16339
 O1640 O 0.71635 0.51484 0.14302
 H1641 H 0.66244 0.48373 0.11691
 H1642 H 0.67051 0.47177 0.16874
 C1643 C 0.67898 1.01490 0.61160
 C1644 C 0.66167 0.99237 0.61425
 C1645 C 0.66550 0.98310 0.64004
 C1646 C 0.68494 1.00064 0.65109
 O1647 O 0.69319 1.01993 0.63385
 H1648 H 0.64737 0.98431 0.59949
 H1649 H 0.65474 0.96616 0.64993
 C1650 C 0.54956 0.24829 0.58359
 C1651 C 0.56660 0.26997 0.59063
 C1652 C 0.55608 0.27979 0.61444
 C1653 C 0.53347 0.26328 0.61992
 O1654 O 0.52943 0.24425 0.60121
 H1655 H 0.58501 0.27695 0.58028
 H1656 H 0.56445 0.29629 0.62683
 C1657 C 1.06819 0.20567 0.11866
 C1658 C 1.09019 0.22378 0.11916
 C1659 C 1.09070 0.23428 0.14467
 C1660 C 1.06897 0.22200 0.15820
 O1661 O 1.05513 0.20451 0.14243
 H1662 H 1.10433 0.22870 0.10285
 H1663 H 1.10522 0.24928 0.15250
 C1664 C 0.62231 0.21101 0.71459
 C1665 C 0.61594 0.19820 0.73880
 C1666 C 0.59052 0.20788 0.74566
 C1667 C 0.58312 0.22602 0.72522
 O1668 O 0.60245 0.22811 0.70624
 H1669 H 0.62801 0.18282 0.74967
 H1670 H 0.57830 0.20164 0.76301
 C1671 C 1.17438 0.18196 0.22213
 C1672 C 1.17646 0.16749 0.24619
 C1673 C 1.15802 0.18021 0.26323
 C1674 C 1.14641 0.20149 0.24817
 O1675 O 1.15638 0.20259 0.22337
 H1676 H 1.18871 0.14902 0.25029
 H1677 H 1.15246 0.17369 0.28350
 C1678 C 0.13503 0.73291 0.56636
 C1679 C 0.13916 0.75589 0.58253
 C1680 C 0.16610 0.76243 0.57918
 C1681 C 0.17670 0.74307 0.56107
 O1682 O 0.15780 0.72491 0.55323
 H1683 H 0.12425 0.76662 0.59521
 H1684 H 0.17676 0.77960 0.58869
 C1685 C 0.08830 0.17898 1.02600
 C1686 C 0.08669 0.16195 1.00350
 C1687 C 0.10743 0.17048 0.98662
 C1688 C 0.11990 0.19227 0.99996
 O1689 O 0.10839 0.19736 1.02384
 H1690 H 0.07267 0.14481 1.00021
 H1691 H 0.11331 0.16136 0.96738
 C1692 C 0.60960 0.54857 0.23281
 C1693 C 0.61150 0.56789 0.25342
 C1694 C 0.63347 0.55954 0.26856
 C1695 C 0.64344 0.53567 0.25618
 O1696 O 0.62893 0.52893 0.23446
 H1697 H 0.59899 0.58643 0.25644
 H1698 H 0.64208 0.57038 0.28575
 C1699 C 0.57032 1.05410 0.71375
 C1700 C 0.56878 1.06779 0.73822
 C1701 C 0.59080 1.05843 0.75247
 C1702 C 0.60425 1.03964 0.73571
 O1703 O 0.59179 1.03684 0.71210
 H1704 H 0.55394 1.08349 0.74450
 H1705 H 0.59710 1.06543 0.77232
 C1706 C 0.90609 0.43838 0.29388
 C1707 C 0.90362 0.42282 0.27055
 C1708 C 0.87859 0.42989 0.26023
 C1709 C 0.86769 0.44949 0.27784
 O1710 O 0.88432 0.45466 0.29839
 H1711 H 0.91806 0.40763 0.26242
 H1712 H 0.86918 0.42147 0.24221
 C1713 C 0.85575 0.95751 0.82791
 C1714 C 0.83964 0.95476 0.85077
 C1715 C 0.81322 0.95722 0.84186
 C1716 C 0.81511 0.96095 0.81421
 O1717 O 0.84096 0.96143 0.80568
 H1718 H 0.84635 0.95173 0.87142
 H1719 H 0.79473 0.95759 0.85419
 C1720 C 0.33180 0.33348 0.76184
 C1721 C 0.33507 0.35477 0.74328
 C1722 C 0.35550 0.34589 0.72615
 C1723 C 0.36317 0.31981 0.73548
 O1724 O 0.34878 0.31227 0.75711
 H1725 H 0.32465 0.37481 0.74299
 H1726 H 0.36478 0.35767 0.70981
 C1727 C 0.89263 0.31115 0.29756
 C1728 C 0.89762 0.33296 0.27999
 C1729 C 0.92416 0.32932 0.27163
 C1730 C 0.93331 0.30566 0.28490
 O1731 O 0.91425 0.29460 0.30067
 H1732 H 0.88362 0.34951 0.27404
 H1733 H 0.93552 0.34235 0.25763
 C1734 C 0.43611 0.79098 0.46503
 C1735 C 0.44563 0.76614 0.47588
 C1736 C 0.42415 0.75527 0.49009
 C1737 C 0.40306 0.77426 0.48705
 O1738 O 0.41009 0.79596 0.47180
 H1739 H 0.46523 0.75600 0.47189
 H1740 H 0.42346 0.73528 0.50031
 C1741 C 0.37910 0.29091 0.95942
 C1742 C 0.37835 0.30066 0.98564
 C1743 C 0.35432 0.29072 0.99620
 C1744 C 0.34241 0.27543 0.97568
 O1745 O 0.35741 0.27553 0.95333
 H1746 H 0.39294 0.31426 0.99547
 H1747 H 0.34592 0.29500 1.01612
 C1748 C 0.82477 0.47276 0.41084
 C1749 C 0.83862 0.49735 0.40634
 C1750 C 0.82963 0.50628 0.38173
 C1751 C 0.81090 0.48646 0.37339
 O1752 O 0.80791 0.46615 0.39101
 H1753 H 0.85409 0.50694 0.41893
 H1754 H 0.83630 0.52470 0.37087
 C1755 C 0.75739 0.96350 0.91120
 C1756 C 0.76102 0.99148 0.91716
 C1757 C 0.75151 1.00576 0.89532
 C1758 C 0.74237 0.98550 0.87791
 O1759 O 0.74589 0.95981 0.88733
 H1760 H 0.77101 1.00036 0.93467
 H1761 H 0.75205 1.02810 0.89201
 C1762 C 0.32786 0.77144 0.36772
 C1763 C 0.34693 0.75073 0.37276
 C1764 C 0.34251 0.74296 0.39882
 C1765 C 0.32110 0.75957 0.40818
 O1766 O 0.31201 0.77700 0.38922
 H1767 H 0.36238 0.74238 0.35905
 H1768 H 0.35402 0.72734 0.40995
 C1769 C 0.29123 0.28870 0.84234
 C1770 C 0.30571 0.26393 0.84051
 C1771 C 0.29743 0.24871 0.86245
 C1772 C 0.27832 0.26530 0.87579
 O1773 O 0.27458 0.28956 0.86365
 H1774 H 0.32111 0.25811 0.82559
 H1775 H 0.30485 0.22825 0.86837
 C1776 C 0.41039 0.28613 0.86596
 C1777 C 0.38729 0.27160 0.85804
 C1778 C 0.39059 0.26697 0.83099
 C1779 C 0.41540 0.27908 0.82437
 O1780 O 0.42747 0.29078 0.84552
 H1781 H 0.37010 0.26508 0.87053
 H1782 H 0.37671 0.25593 0.81774
 C1783 C 0.99440 0.31069 0.41203
 C1784 C 1.01519 0.32992 0.40884
 C1785 C 1.02691 0.32404 0.38455
 C1786 C 1.01244 0.30166 0.37445
 O1787 O 0.99252 0.29340 0.39109
 H1788 H 1.02112 0.34634 0.42266
 H1789 H 1.04397 0.33492 0.37519
 C1790 C 0.41649 0.40991 0.78026
 C1791 C 0.40405 0.41378 0.75560
 C1792 C 0.41405 0.39273 0.73986
 C1793 C 0.43172 0.37758 0.75623
 O1794 O 0.43317 0.38793 0.78084
 H1795 H 0.38990 0.43021 0.74971
 H1796 H 0.40887 0.38868 0.71895
 C1797 C 0.99918 0.40407 0.31429
 C1798 C 1.02449 0.40707 0.32637
 C1799 C 1.04049 0.38628 0.31583
 C1800 C 1.02379 0.37202 0.29808
 O1801 O 0.99866 0.38288 0.29703
 H1802 H 1.03017 0.42186 0.34191
 H1803 H 1.06130 0.38095 0.32174
 C1804 C 0.30971 0.90314 0.46387
 C1805 C 0.32499 0.90843 0.48675
 C1806 C 0.32600 0.88388 0.50029
 C1807 C 0.31132 0.86547 0.48459
 O1808 O 0.30119 0.87706 0.46249
 H1809 H 0.33512 0.92766 0.49229
 H1810 H 0.33661 0.87969 0.51909
 C1811 C 0.26936 0.39313 0.95217
 C1812 C 0.24543 0.39512 0.93739
 C1813 C 0.23305 0.36988 0.94024
 C1814 C 0.25020 0.35440 0.95672
 O1815 O 0.27233 0.36845 0.96402
 H1816 H 0.23835 0.41254 0.92526
 H1817 H 0.21407 0.36326 0.93089
 C1818 C 0.80102 0.34470 0.32308
 C1819 C 0.77860 0.34601 0.34027
 C1820 C 0.76573 0.37056 0.33424
 C1821 C 0.78108 0.38233 0.31362
 O1822 O 0.80259 0.36669 0.30679
 H1823 H 0.77286 0.33128 0.35592
 H1824 H 0.74756 0.37914 0.34402
   
