data_POSCAR
  _audit_creation_date              2014-09-24
  _audit_creation_method            'ToBaCCo'
  _symmetry_space_group_name_H-M    'P1'
  _symmetry_Int_Tables_number       1
  _symmetry_cell_setting            triclinic
  loop_
  _symmetry_equiv_pos_as_xyz
 x,y,z
_cell_length_a 71.5132
_cell_length_b 72.7373
_cell_length_c 71.9770
_cell_angle_alpha 89.814600
_cell_angle_beta 89.976000
_cell_angle_gamma 90.119500
loop_
  _atom_site_label
  _atom_site_type_symbol
  _atom_site_fract_x
  _atom_site_fract_y
  _atom_site_fract_z
N1 N 0.18051 0.22359 0.22865
 N2 N 0.18475 0.20828 0.23740
 C3 C 0.17265 0.20575 0.25153
 C4 C 0.16028 0.22036 0.25173
 C5 C 0.16574 0.23145 0.23704
 H6 H 0.17284 0.19421 0.26103
 H7 H 0.15908 0.24400 0.23244
 Cu8 Cu 0.20568 0.19317 0.22946
 Cu9 Cu 0.19362 0.23155 0.20630
 Cu10 Cu 0.22941 0.20355 0.19045
 N11 N 0.22618 0.17792 0.22075
 N12 N 0.23503 0.18174 0.20520
 C13 C 0.24840 0.16904 0.20236
 C14 C 0.24803 0.15669 0.21702
 C15 C 0.23375 0.16276 0.22843
 H16 H 0.25805 0.16911 0.19080
 H17 H 0.22920 0.15653 0.24133
 N18 N 0.22173 0.22629 0.17759
 N19 N 0.20842 0.23716 0.18388
 C20 C 0.20676 0.25170 0.17238
 C21 C 0.21961 0.24992 0.15811
 C22 C 0.22885 0.23362 0.16189
 H23 H 0.19672 0.26265 0.17410
 H24 H 0.24013 0.22768 0.15394
 H25 H 0.20162 0.20549 0.19819
 H26 H 0.21889 0.21895 0.21208
 N27 N 0.67763 0.72344 0.72436
 N28 N 0.68197 0.70819 0.73318
 C29 C 0.66974 0.70555 0.74718
 C30 C 0.65715 0.71999 0.74720
 C31 C 0.66262 0.73109 0.73252
 H32 H 0.67020 0.69422 0.75693
 H33 H 0.65607 0.74372 0.72801
 Cu34 Cu 0.70360 0.69356 0.72614
 Cu35 Cu 0.69166 0.73216 0.70295
 Cu36 Cu 0.73162 0.70810 0.69124
 N37 N 0.72670 0.68091 0.71982
 N38 N 0.73761 0.68665 0.70629
 C39 C 0.75240 0.67531 0.70491
 C40 C 0.75075 0.66173 0.71837
 C41 C 0.73425 0.66578 0.72757
 H42 H 0.76355 0.67691 0.69490
 H43 H 0.72805 0.65814 0.73891
 N44 N 0.72318 0.73010 0.67760
 N45 N 0.70763 0.73891 0.68174
 C46 C 0.70512 0.75265 0.66942
 C47 C 0.71989 0.75261 0.65703
 C48 C 0.73112 0.73817 0.66266
 H49 H 0.69350 0.76213 0.66952
 H50 H 0.74386 0.73362 0.65606
 H51 H 0.70302 0.70716 0.69508
 H52 H 0.71680 0.72118 0.71201
 N53 N 0.32108 0.77673 0.72702
 N54 N 0.31913 0.79367 0.73298
 C55 C 0.33156 0.79678 0.74666
 C56 C 0.34184 0.78089 0.74948
 C57 C 0.33476 0.76845 0.73674
 H58 H 0.33285 0.80959 0.75413
 H59 H 0.33946 0.75452 0.73445
 Cu60 Cu 0.30049 0.81014 0.72258
 Cu61 Cu 0.30633 0.76698 0.70655
 Cu62 Cu 0.26899 0.79343 0.69218
 N63 N 0.27729 0.82296 0.71720
 N64 N 0.26482 0.81615 0.70574
 C65 C 0.24998 0.82745 0.70503
 C66 C 0.25328 0.84235 0.71663
 C67 C 0.27089 0.83894 0.72408
 H68 H 0.23786 0.82500 0.69643
 H69 H 0.27844 0.84716 0.73407
 N70 N 0.27569 0.77003 0.68027
 N71 N 0.28976 0.75975 0.68596
 C72 C 0.29107 0.74493 0.67487
 C73 C 0.27724 0.74600 0.66146
 C74 C 0.26776 0.76210 0.66534
 H75 H 0.30174 0.73448 0.67602
 H76 H 0.25603 0.76772 0.65776
 H77 H 0.29787 0.79154 0.69464
 H78 H 0.28350 0.78245 0.71448
 N79 N 0.82164 0.27703 0.22714
 N80 N 0.81549 0.29037 0.23775
 C81 C 0.82674 0.29189 0.25268
 C82 C 0.84093 0.27891 0.25127
 C83 C 0.83711 0.26975 0.23479
 H84 H 0.82503 0.30211 0.26339
 H85 H 0.84481 0.25847 0.22879
 Cu86 Cu 0.79418 0.30525 0.23024
 Cu87 Cu 0.80908 0.26987 0.20429
 Cu88 Cu 0.77122 0.29625 0.19049
 N89 N 0.77284 0.31990 0.22237
 N90 N 0.76431 0.31662 0.20655
 C91 C 0.75072 0.32914 0.20402
 C92 C 0.75065 0.34090 0.21909
 C93 C 0.76486 0.33458 0.23050
 H94 H 0.74147 0.32955 0.19215
 H95 H 0.76933 0.34053 0.24350
 N96 N 0.78029 0.27497 0.17622
 N97 N 0.79453 0.26477 0.18165
 C98 C 0.79673 0.25083 0.16960
 C99 C 0.78327 0.25232 0.15587
 C100 C 0.77314 0.26784 0.16049
 H101 H 0.80731 0.24030 0.17073
 H102 H 0.76108 0.27319 0.15324
 H103 H 0.79902 0.29580 0.19811
 H104 H 0.78292 0.28004 0.21102
 N105 N 0.82239 0.72294 0.27336
 N106 N 0.81999 0.70626 0.26682
 C107 C 0.83222 0.70339 0.25292
 C108 C 0.84287 0.71916 0.25057
 C109 C 0.83619 0.73129 0.26380
 H110 H 0.83313 0.69082 0.24500
 H111 H 0.84123 0.74504 0.26653
 Cu112 Cu 0.80109 0.68979 0.27685
 Cu113 Cu 0.80795 0.73226 0.29425
 Cu114 Cu 0.77035 0.70578 0.30836
 N115 N 0.77781 0.67703 0.28218
 N116 N 0.76573 0.68344 0.29429
 C117 C 0.75083 0.67214 0.29499
 C118 C 0.75370 0.65783 0.28266
 C119 C 0.77103 0.66140 0.27480
 H120 H 0.73887 0.67412 0.30395
 H121 H 0.77806 0.65343 0.26425
 N122 N 0.77747 0.72885 0.32075
 N123 N 0.79167 0.73910 0.31520
 C124 C 0.79316 0.75375 0.32651
 C125 C 0.77928 0.75262 0.33990
 C126 C 0.76961 0.73664 0.33577
 H127 H 0.80389 0.76418 0.32542
 H128 H 0.75773 0.73106 0.34319
 H129 H 0.79919 0.70747 0.30548
 H130 H 0.78467 0.71738 0.28622
 N131 N 0.32253 0.22310 -0.22551
 N132 N 0.32020 0.20638 -0.23192
 C133 C 0.33246 0.20345 -0.24578
 C134 C 0.34303 0.21932 -0.24840
 C135 C 0.33621 0.23149 -0.23519
 H136 H 0.33318 0.19082 -0.25360
 H137 H 0.34096 0.24533 -0.23247
 Cu138 Cu 0.30092 0.19017 -0.22212
 Cu139 Cu 0.30809 0.23252 -0.20473
 Cu140 Cu 0.26922 0.20724 -0.19201
 N141 N 0.27725 0.17788 -0.21734
 N142 N 0.26478 0.18473 -0.20590
 C143 C 0.24982 0.17349 -0.20533
 C144 C 0.25307 0.15874 -0.21704
 C145 C 0.27067 0.16203 -0.22443
 H146 H 0.23764 0.17573 -0.19673
 H147 H 0.27810 0.15366 -0.23437
 N148 N 0.27642 0.23029 -0.17959
 N149 N 0.29162 0.23961 -0.18408
 C150 C 0.29363 0.25378 -0.17227
 C151 C 0.27890 0.25346 -0.15983
 C152 C 0.26820 0.23844 -0.16493
 H153 H 0.30503 0.26357 -0.17259
 H154 H 0.25579 0.23342 -0.15797
 H155 H 0.29809 0.20793 -0.19365
 H156 H 0.28472 0.21813 -0.21361
 N157 N 0.67855 0.27591 -0.22796
 N158 N 0.68262 0.29138 -0.23651
 C159 C 0.67033 0.29404 -0.25044
 C160 C 0.65789 0.27931 -0.25078
 C161 C 0.66366 0.26811 -0.23619
 H162 H 0.67079 0.30559 -0.25989
 H163 H 0.65751 0.25528 -0.23169
 Cu164 Cu 0.70432 0.30575 -0.22901
 Cu165 Cu 0.69285 0.26683 -0.20681
 Cu166 Cu 0.73211 0.29200 -0.19411
 N167 N 0.72611 0.32009 -0.22175
 N168 N 0.73721 0.31429 -0.20842
 C169 C 0.75144 0.32626 -0.20644
 C170 C 0.74913 0.34038 -0.21917
 C171 C 0.73288 0.33600 -0.22865
 H172 H 0.76247 0.32494 -0.19626
 H173 H 0.72664 0.34370 -0.23992
 N174 N 0.72436 0.26917 -0.18134
 N175 N 0.70912 0.25992 -0.18585
 C176 C 0.70696 0.24577 -0.17393
 C177 C 0.72159 0.24602 -0.16139
 C178 C 0.73240 0.26099 -0.16654
 H179 H 0.69560 0.23597 -0.17431
 H180 H 0.74485 0.26588 -0.15962
 H181 H 0.70357 0.29185 -0.19820
 H182 H 0.71797 0.27839 -0.21492
 N183 N 0.17670 0.77635 0.27518
 N184 N 0.17908 0.79311 0.26873
 C185 C 0.16676 0.79615 0.25493
 C186 C 0.15610 0.78040 0.25255
 C187 C 0.16284 0.76812 0.26568
 H188 H 0.16585 0.80878 0.24702
 H189 H 0.15788 0.75431 0.26830
 Cu190 Cu 0.19826 0.80934 0.27859
 Cu191 Cu 0.19144 0.76663 0.29569
 Cu192 Cu 0.22988 0.79226 0.30876
 N193 N 0.22181 0.82180 0.28347
 N194 N 0.23431 0.81486 0.29484
 C195 C 0.24933 0.82600 0.29527
 C196 C 0.24612 0.84092 0.28357
 C197 C 0.22838 0.83768 0.27635
 H198 H 0.26150 0.82345 0.30377
 H199 H 0.22081 0.84598 0.26642
 N200 N 0.22282 0.76906 0.32114
 N201 N 0.20810 0.75931 0.31617
 C202 C 0.20650 0.74469 0.32758
 C203 C 0.22092 0.74523 0.34043
 C204 C 0.23100 0.76090 0.33585
 H205 H 0.19553 0.73451 0.32668
 H206 H 0.24309 0.76629 0.34302
 H207 H 0.20099 0.79115 0.30692
 H208 H 0.21463 0.78139 0.28700
 N209 N 0.47639 0.43087 0.47866
 N210 N 0.46230 0.43646 0.48890
 C211 C 0.45996 0.42468 0.50320
 C212 C 0.47342 0.41107 0.50193
 C213 C 0.48360 0.41549 0.48618
 H214 H 0.44938 0.42598 0.51384
 H215 H 0.49520 0.40788 0.48042
 Cu216 Cu 0.44831 0.45858 0.48266
 Cu217 Cu 0.48414 0.44368 0.45620
 Cu218 Cu 0.45844 0.48188 0.44332
 N219 N 0.43368 0.47973 0.47464
 N220 N 0.43735 0.48837 0.45899
 C221 C 0.42477 0.50187 0.45647
 C222 C 0.41265 0.50183 0.47143
 C223 C 0.41873 0.48763 0.48273
 H224 H 0.42462 0.51123 0.44477
 H225 H 0.41249 0.48318 0.49568
 N226 N 0.48029 0.47323 0.42925
 N227 N 0.48987 0.45846 0.43395
 C228 C 0.50377 0.45601 0.42157
 C229 C 0.50301 0.47004 0.40858
 C230 C 0.48796 0.48071 0.41389
 H231 H 0.51398 0.44509 0.42217
 H232 H 0.48291 0.49294 0.40697
 H233 H 0.47445 0.46937 0.46368
 H234 H 0.45795 0.45429 0.45048
 N235 N -0.02964 -0.07298 0.97367
 N236 N -0.04346 -0.06720 0.98415
 C237 C -0.04590 -0.07908 0.99834
 C238 C -0.03296 -0.09310 0.99662
 C239 C -0.02290 -0.08877 0.98075
 H240 H -0.05632 -0.07765 1.00913
 H241 H -0.01117 -0.09625 0.97508
 Cu242 Cu -0.05677 -0.04462 0.97832
 Cu243 Cu -0.02063 -0.05904 0.95233
 Cu244 Cu -0.04255 -0.01749 0.94310
 N245 N -0.06929 -0.02159 0.97262
 N246 N -0.06344 -0.01086 0.95909
 C247 C -0.07464 0.00395 0.95799
 C248 C -0.08835 0.00239 0.97150
 C249 C -0.08448 -0.01400 0.98054
 H250 H -0.07327 0.01474 0.94770
 H251 H -0.09220 -0.01997 0.99198
 N252 N -0.02129 -0.02673 0.92842
 N253 N -0.01345 -0.04287 0.93150
 C254 C 0.00004 -0.04561 0.91876
 C255 C 0.00085 -0.03041 0.90719
 C256 C -0.01285 -0.01870 0.91375
 H257 H 0.00890 -0.05761 0.91812
 H258 H -0.01659 -0.00547 0.90801
 H259 H -0.02877 -0.03369 0.96239
 H260 H -0.04540 -0.04556 0.94639
 N261 N 1.02804 0.57176 0.97541
 N262 N 1.04016 0.56488 0.98724
 C263 C 1.04150 0.57609 1.00202
 C264 C 1.02955 0.59086 0.99933
 C265 C 1.02127 0.58762 0.98222
 H266 H 1.05040 0.57359 1.01388
 H267 H 1.01123 0.59620 0.97509
 Cu268 Cu 1.05325 0.54213 0.98196
 Cu269 Cu 1.02248 0.55983 0.95183
 Cu270 Cu 1.03609 0.51409 0.94943
 N271 N 1.06699 0.52054 0.97394
 N272 N 1.06003 0.50932 0.96145
 C273 C 1.07175 0.49506 0.95916
 C274 C 1.08705 0.49756 0.97073
 C275 C 1.08350 0.51393 0.97989
 H276 H 1.06934 0.48384 0.94963
 H277 H 1.09207 0.52036 0.99041
 N278 N 1.01734 0.52500 0.93271
 N279 N 1.01270 0.54253 0.93315
 C280 C 1.00017 0.54589 0.91961
 C281 C 0.99676 0.52967 0.91013
 C282 C 1.00793 0.51672 0.91887
 H283 H 0.99378 0.55912 0.91709
 H284 H 1.00944 0.50239 0.91522
 H285 H 1.02426 0.53542 0.96527
 H286 H 1.04418 0.54067 0.94935
 N287 N 0.52402 0.07031 0.47764
 N288 N 0.53951 0.06602 0.48646
 C289 C 0.54232 0.07822 0.50024
 C290 C 0.52774 0.09072 0.50011
 C291 C 0.51639 0.08524 0.48557
 H292 H 0.55395 0.07790 0.50982
 H293 H 0.50364 0.09177 0.48094
 Cu294 Cu 0.55429 0.04478 0.47917
 Cu295 Cu 0.51496 0.05645 0.45634
 Cu296 Cu 0.53942 0.01695 0.44510
 N297 N 0.56919 0.02394 0.47091
 N298 N 0.56317 0.01307 0.45765
 C299 C 0.57550 -0.00064 0.45518
 C300 C 0.59014 0.00172 0.46754
 C301 C 0.58567 0.01754 0.47727
 H302 H 0.57385 -0.01155 0.44515
 H303 H 0.59355 0.02361 0.48851
 N304 N 0.51753 0.02555 0.43096
 N305 N 0.50811 0.04050 0.43533
 C306 C 0.49404 0.04272 0.42309
 C307 C 0.49476 0.02858 0.41029
 C308 C 0.50986 0.01799 0.41570
 H309 H 0.48423 0.05400 0.42322
 H310 H 0.51486 0.00564 0.40905
 H311 H 0.52573 0.03216 0.46553
 H312 H 0.54038 0.04511 0.44841
 N313 N -0.02858 0.07340 0.52682
 N314 N -0.04222 0.06750 0.51615
 C315 C -0.04469 0.07951 0.50209
 C316 C -0.03193 0.09372 0.50406
 C317 C -0.02196 0.08938 0.51997
 H318 H -0.05500 0.07802 0.49122
 H319 H -0.01037 0.09696 0.52581
 Cu320 Cu -0.05521 0.04457 0.52149
 Cu321 Cu -0.01962 0.05937 0.54808
 Cu322 Cu -0.04194 0.01799 0.55748
 N323 N -0.06848 0.02204 0.52782
 N324 N -0.06299 0.01150 0.54164
 C325 C -0.07462 -0.00301 0.54306
 C326 C -0.08823 -0.00146 0.52947
 C327 C -0.08387 0.01463 0.52006
 H328 H -0.07357 -0.01360 0.55358
 H329 H -0.09136 0.02051 0.50845
 N330 N -0.02049 0.02708 0.57199
 N331 N -0.01249 0.04316 0.56886
 C332 C 0.00115 0.04578 0.58147
 C333 C 0.00187 0.03057 0.59302
 C334 C -0.01202 0.01897 0.58658
 H335 H 0.01016 0.05771 0.58204
 H336 H -0.01587 0.00575 0.59233
 H337 H -0.02764 0.03389 0.53826
 H338 H -0.04463 0.04602 0.55363
 N339 N 0.46997 0.57384 0.02523
 N340 N 0.45639 0.56792 0.01450
 C341 C 0.45412 0.57982 0.00030
 C342 C 0.46693 0.59399 0.00229
 C343 C 0.47672 0.58973 0.01831
 H344 H 0.44390 0.57833 -0.01065
 H345 H 0.48828 0.59733 0.02420
 Cu346 Cu 0.44312 0.54516 0.02003
 Cu347 Cu 0.47871 0.55996 0.04669
 Cu348 Cu 0.45593 0.51894 0.05646
 N349 N 0.42957 0.52284 0.02661
 N350 N 0.43493 0.51244 0.04058
 C351 C 0.42321 0.49802 0.04214
 C352 C 0.40965 0.49949 0.02849
 C353 C 0.41413 0.51545 0.01890
 H354 H 0.42415 0.48754 0.05278
 H355 H 0.40670 0.52123 0.00719
 N356 N 0.47736 0.52798 0.07101
 N357 N 0.48560 0.54391 0.06768
 C358 C 0.49923 0.54651 0.08031
 C359 C 0.49968 0.53145 0.09209
 C360 C 0.48564 0.51997 0.08575
 H361 H 0.50841 0.55832 0.08073
 H362 H 0.48157 0.50688 0.09166
 H363 H 0.47049 0.53445 0.03712
 H364 H 0.45353 0.54695 0.05222
 N365 N 0.52791 -0.07171 0.02355
 N366 N 0.54278 -0.06669 0.01406
 C367 C 0.54513 -0.07832 -0.00027
 C368 C 0.53089 -0.09125 0.00020
 C369 C 0.52021 -0.08659 0.01551
 H370 H 0.55623 -0.07737 -0.01043
 H371 H 0.50791 -0.09367 0.02060
 Cu372 Cu 0.55746 -0.04533 0.02136
 Cu373 Cu 0.51978 -0.05885 0.04582
 Cu374 Cu 0.54551 -0.02054 0.05884
 N375 N 0.57156 -0.02359 0.02858
 N376 N 0.56706 -0.01424 0.04353
 C377 C 0.57933 -0.00038 0.04578
 C378 C 0.59213 -0.00093 0.03139
 C379 C 0.58674 -0.01581 0.02069
 H380 H 0.57884 0.00952 0.05695
 H381 H 0.59362 -0.02078 0.00831
 N382 N 0.52326 -0.02913 0.07255
 N383 N 0.51377 -0.04399 0.06788
 C384 C 0.49977 -0.04652 0.08016
 C385 C 0.50035 -0.03247 0.09303
 C386 C 0.51539 -0.02167 0.08776
 H387 H 0.48965 -0.05757 0.07961
 H388 H 0.52035 -0.00944 0.09468
 H389 H 0.53045 -0.03351 0.03814
 H390 H 0.54563 -0.04834 0.05302
 N391 N 1.02554 0.42834 0.52302
 N392 N 1.04101 0.43267 0.51415
 C393 C 1.04383 0.42047 0.50040
 C394 C 1.02927 0.40792 0.50058
 C395 C 1.01789 0.41337 0.51510
 H396 H 1.05538 0.42088 0.49071
 H397 H 1.00516 0.40675 0.51975
 Cu398 Cu 1.05529 0.45447 0.52073
 Cu399 Cu 1.01681 0.44199 0.54459
 Cu400 Cu 1.04470 0.47823 0.55917
 N401 N 1.06927 0.47636 0.52771
 N402 N 1.06491 0.48571 0.54267
 C403 C 1.07667 0.50007 0.54433
 C404 C 1.08914 0.49979 0.52955
 C405 C 1.08392 0.48450 0.51929
 H406 H 1.07624 0.50983 0.55561
 H407 H 1.09026 0.47965 0.50660
 N408 N 1.02120 0.47131 0.57167
 N409 N 1.01065 0.45743 0.56621
 C410 C 0.99595 0.45585 0.57782
 C411 C 0.99721 0.46950 0.59111
 C412 C 1.01334 0.47909 0.58671
 H413 H 0.98508 0.44557 0.57668
 H414 H 1.01912 0.49065 0.59418
 H415 H 1.02907 0.46708 0.53796
 H416 H 1.04296 0.45043 0.55213
 C417 C 0.40223 0.00485 0.22698
 H418 H 0.40417 0.01615 0.23653
 C419 C 0.41495 0.00219 0.21252
 H420 H 0.42677 0.01143 0.21126
 C421 C 0.38488 -0.02132 0.21773
 H422 H 0.37334 -0.03064 0.21990
 C423 C 0.39708 -0.02431 0.20290
 H424 H 0.39434 -0.03566 0.19360
 N425 N 0.38748 -0.00676 0.22927
 C426 C 0.34157 0.02169 0.25633
 H427 H 0.33896 0.01230 0.26773
 C428 C 0.32974 0.03666 0.25345
 H429 H 0.31789 0.03849 0.26261
 C430 C 0.35984 0.03009 0.23017
 H431 H 0.37154 0.02743 0.22108
 C432 C 0.34852 0.04540 0.22694
 H433 H 0.35190 0.05453 0.21551
 Zn434 Zn 0.37125 -0.00217 0.24958
 N435 N 0.35627 0.01870 0.24477
 C436 C 0.38554 0.01834 0.27992
 N437 N 0.38642 0.00209 0.27068
 C438 C 0.39874 -0.01121 0.27576
 C439 C 0.41052 -0.00862 0.29099
 C440 C 0.39721 0.02159 0.29512
 C441 C 0.34245 -0.02711 0.24053
 C442 C 0.33033 -0.04198 0.24319
 C443 C 0.34337 -0.04621 0.27384
 C444 C 0.35537 -0.03141 0.27051
 N445 N 0.35496 -0.02239 0.25393
 H446 H 0.37594 0.02890 0.27540
 H447 H 0.39930 -0.02392 0.26801
 H448 H 0.41988 -0.01959 0.29504
 H449 H 0.39651 0.03476 0.30206
 H450 H 0.34203 -0.01939 0.22766
 H451 H 0.32092 -0.04583 0.23208
 H452 H 0.34382 -0.05301 0.28723
 H453 H 0.36485 -0.02706 0.28130
 C454 C 0.33317 0.04886 0.23863
 C455 C 0.41242 -0.01249 0.20011
 C456 C 0.33076 -0.05185 0.26001
 C457 C 0.40990 0.00799 0.30090
 C458 C 0.10031 -0.00839 0.72626
 H459 H 0.09865 -0.02010 0.73543
 C460 C 0.08795 -0.00584 0.71147
 H461 H 0.07667 -0.01559 0.70954
 C462 C 0.11657 0.01894 0.71835
 H463 H 0.12758 0.02870 0.72119
 C464 C 0.10470 0.02189 0.70325
 H465 H 0.10707 0.03373 0.69441
 N466 N 0.11429 0.00390 0.72940
 C467 C 0.15821 -0.02546 0.75918
 H468 H 0.15897 -0.01767 0.77194
 C469 C 0.17014 -0.04039 0.75645
 H470 H 0.17976 -0.04420 0.76740
 C471 C 0.14449 -0.02997 0.72960
 H472 H 0.13465 -0.02571 0.71905
 C473 C 0.15631 -0.04482 0.72618
 H474 H 0.15546 -0.05173 0.71290
 Zn475 Zn 0.12978 -0.00030 0.75030
 N476 N 0.14549 -0.02076 0.74597
 C477 C 0.11575 -0.01969 0.78191
 N478 N 0.11383 -0.00458 0.77090
 C479 C 0.09988 0.00774 0.77385
 C480 C 0.08728 0.00523 0.78846
 C481 C 0.10362 -0.02261 0.79684
 C482 C 0.15881 0.02431 0.74207
 C483 C 0.17072 0.03931 0.74473
 C484 C 0.15499 0.04548 0.77376
 C485 C 0.14336 0.03039 0.77052
 N486 N 0.14531 0.02029 0.75477
 H487 H 0.12666 -0.02954 0.77920
 H488 H 0.09848 0.01948 0.76469
 H489 H 0.07608 0.01505 0.79027
 H490 H 0.10574 -0.03449 0.80567
 H491 H 0.16023 0.01589 0.72979
 H492 H 0.18110 0.04251 0.73426
 H493 H 0.15332 0.05324 0.78646
 H494 H 0.13285 0.02672 0.78066
 C495 C 0.16929 -0.05035 0.73975
 C496 C 0.09005 0.00946 0.69967
 C497 C 0.16884 0.05017 0.76073
 C498 C 0.08908 -0.01009 0.80027
 C499 C 0.59749 0.49307 0.22608
 H500 H 0.59532 0.48193 0.23585
 C501 C 0.58496 0.49566 0.21144
 H502 H 0.57307 0.48652 0.21019
 C503 C 0.61521 0.51895 0.21649
 H504 H 0.62688 0.52814 0.21858
 C505 C 0.60316 0.52193 0.20154
 H506 H 0.60601 0.53321 0.19210
 N507 N 0.61230 0.50461 0.22831
 C508 C 0.65889 0.47774 0.25592
 H509 H 0.66190 0.48776 0.26659
 C510 C 0.67080 0.46277 0.25338
 H511 H 0.68310 0.46152 0.26205
 C512 C 0.63948 0.46767 0.23128
 H513 H 0.62731 0.46965 0.22265
 C514 C 0.65092 0.45242 0.22837
 H515 H 0.64717 0.44267 0.21767
 Zn516 Zn 0.62823 0.50065 0.24899
 N517 N 0.64356 0.47988 0.24496
 C518 C 0.61701 0.48324 0.28254
 N519 N 0.61300 0.49680 0.27013
 C520 C 0.59775 0.50771 0.27227
 C521 C 0.58570 0.50509 0.28731
 C522 C 0.60549 0.48031 0.29793
 C523 C 0.65760 0.52495 0.24024
 C524 C 0.66964 0.53987 0.24282
 C525 C 0.65366 0.54661 0.27157
 C526 C 0.64187 0.53163 0.26839
 N527 N 0.64393 0.52125 0.25285
 H528 H 0.62919 0.47471 0.28058
 H529 H 0.59483 0.51832 0.26212
 H530 H 0.57338 0.51363 0.28844
 H531 H 0.60919 0.46970 0.30783
 H532 H 0.65910 0.51630 0.22813
 H533 H 0.68019 0.54279 0.23242
 H534 H 0.65194 0.55453 0.28416
 H535 H 0.63116 0.52826 0.27843
 C536 C 0.66686 0.44981 0.23948
 C537 C 0.58772 0.51025 0.19887
 C538 C 0.66775 0.55095 0.25866
 C539 C 0.58949 0.49123 0.30045
 C540 C 0.90305 0.50699 0.72778
 H541 H 0.90651 0.51688 0.73843
 C542 C 0.91528 0.50434 0.71289
 H543 H 0.92816 0.51217 0.71237
 C544 C 0.88253 0.48421 0.71613
 H545 H 0.86992 0.47619 0.71743
 C546 C 0.89421 0.48131 0.70088
 H547 H 0.89007 0.47136 0.69050
 N548 N 0.88702 0.49698 0.72916
 C549 C 0.83839 0.52186 0.75186
 H550 H 0.83258 0.50971 0.75833
 C551 C 0.82711 0.53728 0.74922
 H552 H 0.81255 0.53667 0.75333
 C553 C 0.86439 0.53745 0.73874
 H554 H 0.87897 0.53748 0.73484
 C555 C 0.85358 0.55318 0.73581
 H556 H 0.86001 0.56527 0.72974
 Zn557 Zn 0.87159 0.50097 0.75030
 N558 N 0.85664 0.52214 0.74649
 C559 C 0.88452 0.51944 0.78237
 N560 N 0.88733 0.50477 0.77106
 C561 C 0.90150 0.49271 0.77417
 C562 C 0.91355 0.49516 0.78922
 C563 C 0.89622 0.52239 0.79761
 C564 C 0.84228 0.47623 0.74207
 C565 C 0.83047 0.46116 0.74481
 C566 C 0.84620 0.45505 0.77385
 C567 C 0.85780 0.47017 0.77048
 N568 N 0.85581 0.48031 0.75469
 H569 H 0.87313 0.52881 0.77965
 H570 H 0.90347 0.48122 0.76487
 H571 H 0.92490 0.48556 0.79131
 H572 H 0.89358 0.53399 0.80662
 H573 H 0.84063 0.48476 0.72984
 H574 H 0.82012 0.45796 0.73434
 H575 H 0.84790 0.44732 0.78661
 H576 H 0.86833 0.47382 0.78058
 C577 C 0.83466 0.55320 0.74104
 C578 C 0.91093 0.49135 0.69912
 C579 C 0.83235 0.45029 0.76086
 C580 C 0.91099 0.51017 0.80120
 C581 C 0.22294 0.40330 0.00889
 H582 H 0.23120 0.40422 0.02145
 C583 C 0.20769 0.41497 0.00630
 H584 H 0.20411 0.42466 0.01710
 C585 C 0.21760 0.38935 -0.02035
 H586 H 0.22169 0.37953 -0.03081
 C587 C 0.20226 0.40079 -0.02354
 H588 H 0.19472 0.39967 -0.03653
 N589 N 0.22750 0.39073 -0.00428
 C590 C 0.25854 0.34811 0.02519
 H591 H 0.27132 0.34791 0.01714
 C592 C 0.25627 0.33601 0.04013
 H593 H 0.26753 0.32672 0.04367
 C594 C 0.22844 0.36065 0.03032
 H595 H 0.21747 0.37001 0.02625
 C596 C 0.22554 0.34875 0.04532
 H597 H 0.21231 0.34912 0.05262
 Zn598 Zn 0.24875 0.37590 -0.00001
 N599 N 0.24482 0.36027 0.02074
 C600 C 0.27914 0.39103 0.02039
 N601 N 0.26927 0.39189 0.00427
 C602 C 0.27340 0.40463 -0.00899
 C603 C 0.28848 0.41663 -0.00666
 C604 C 0.29424 0.40286 0.02337
 C605 C 0.24105 0.34659 -0.02373
 C606 C 0.24359 0.33460 -0.03862
 C607 C 0.27112 0.35184 -0.04739
 C608 C 0.26823 0.36330 -0.03214
 N609 N 0.25324 0.36065 -0.02081
 H610 H 0.27528 0.38127 0.03106
 H611 H 0.26506 0.40531 -0.02151
 H612 H 0.29185 0.42626 -0.01766
 H613 H 0.30179 0.40203 0.03638
 H614 H 0.22938 0.34463 -0.01435
 H615 H 0.23391 0.32329 -0.04038
 H616 H 0.28285 0.35461 -0.05650
 H617 H 0.27797 0.37431 -0.02948
 C618 C 0.23959 0.33625 0.05045
 C619 C 0.19712 0.41383 -0.01012
 C620 C 0.25875 0.33718 -0.05082
 C621 C 0.29923 0.41577 0.00966
 C622 C 0.72806 0.09453 -0.00662
 H623 H 0.73800 0.09230 -0.01771
 C624 C 0.71333 0.08216 -0.00395
 H625 H 0.71225 0.07032 -0.01296
 C626 C 0.71806 0.11228 0.01904
 H627 H 0.72001 0.12387 0.02814
 C628 C 0.70297 0.10042 0.02204
 H629 H 0.69330 0.10340 0.03319
 N630 N 0.73011 0.10930 0.00474
 C631 C 0.75815 0.15429 -0.02377
 H632 H 0.76914 0.15713 -0.01385
 C633 C 0.75568 0.16583 -0.03909
 H634 H 0.76471 0.17769 -0.04066
 C635 C 0.73263 0.13571 -0.03318
 H636 H 0.72362 0.12401 -0.03077
 C637 C 0.72982 0.14674 -0.04885
 H638 H 0.71882 0.14314 -0.05850
 Zn639 Zn 0.75082 0.12505 0.00031
 N640 N 0.74669 0.13959 -0.02110
 C641 C 0.78218 0.11120 -0.01923
 N642 N 0.77206 0.11002 -0.00327
 C643 C 0.77644 0.09762 0.01020
 C644 C 0.79179 0.08600 0.00808
 C645 C 0.79758 0.09976 -0.02198
 C646 C 0.74153 0.15399 0.02450
 C647 C 0.74408 0.16629 0.03916
 C648 C 0.77433 0.15270 0.04489
 C649 C 0.77113 0.14058 0.03024
 N650 N 0.75482 0.14123 0.02055
 H651 H 0.77825 0.12090 -0.02993
 H652 H 0.76801 0.09685 0.02267
 H653 H 0.79525 0.07649 0.01915
 H654 H 0.80527 0.10071 -0.03491
 H655 H 0.72889 0.15456 0.01628
 H656 H 0.73311 0.17600 0.04237
 H657 H 0.78752 0.15207 0.05222
 H658 H 0.78184 0.13084 0.02651
 C659 C 0.74139 0.16211 -0.05196
 C660 C 0.70045 0.08505 0.01050
 C661 C 0.76065 0.16569 0.04965
 C662 C 0.80260 0.08696 -0.00820
 C663 C 0.23102 0.58895 0.50177
 H664 H 0.24448 0.58296 0.49894
 C665 C 0.21554 0.57740 0.50374
 H666 H 0.21750 0.56266 0.50299
 C667 C 0.21199 0.61522 0.50574
 H668 H 0.21047 0.62994 0.50589
 C669 C 0.19612 0.60416 0.50781
 H670 H 0.18262 0.61058 0.50979
 N671 N 0.22914 0.60752 0.50326
 C672 C 0.25321 0.65630 0.48085
 H673 H 0.25982 0.66155 0.49326
 C674 C 0.25080 0.66781 0.46548
 H675 H 0.25532 0.68200 0.46631
 C676 C 0.23922 0.63144 0.46475
 H677 H 0.23484 0.61719 0.46460
 C678 C 0.23647 0.64249 0.44909
 H679 H 0.23006 0.63661 0.43684
 Zn680 Zn 0.25061 0.62307 0.50110
 N681 N 0.24735 0.63851 0.48023
 C682 C 0.28338 0.61129 0.48251
 N683 N 0.27240 0.60854 0.49770
 C684 C 0.27673 0.59549 0.51057
 C685 C 0.29224 0.58416 0.50810
 C686 C 0.29925 0.60049 0.47967
 C687 C 0.23996 0.65034 0.52699
 C688 C 0.24186 0.66180 0.54239
 C689 C 0.27187 0.64800 0.54859
 C690 C 0.26934 0.63671 0.53312
 N691 N 0.25349 0.63793 0.52272
 H692 H 0.27988 0.62191 0.47257
 H693 H 0.26785 0.59366 0.52262
 H694 H 0.29490 0.57343 0.51821
 H695 H 0.30792 0.60317 0.46763
 H696 H 0.22786 0.65177 0.51819
 H697 H 0.23077 0.67139 0.54559
 H698 H 0.28476 0.64702 0.55640
 H699 H 0.28028 0.62726 0.52929
 C700 C 0.24227 0.66095 0.44935
 C701 C 0.19782 0.58497 0.50701
 C702 C 0.25801 0.66077 0.55342
 C703 C 0.30377 0.58651 0.49245
 C704 C 0.72512 0.90611 0.50683
 H705 H 0.73317 0.90656 0.51954
 C706 C 0.71028 0.91831 0.50421
 H707 H 0.70679 0.92786 0.51517
 C708 C 0.71991 0.89297 0.47721
 H709 H 0.72392 0.88336 0.46654
 C710 C 0.70505 0.90496 0.47397
 H711 H 0.69778 0.90437 0.46079
 N712 N 0.72941 0.89351 0.49357
 C713 C 0.75730 0.84798 0.52171
 H714 H 0.76903 0.84623 0.51239
 C715 C 0.75474 0.83581 0.53654
 H716 H 0.76448 0.82458 0.53830
 C717 C 0.72998 0.86436 0.53002
 H718 H 0.72021 0.87533 0.52734
 C719 C 0.72706 0.85270 0.54521
 H720 H 0.71525 0.85523 0.55426
 Zn721 Zn 0.74974 0.87737 0.49801
 N722 N 0.74505 0.86196 0.51877
 C723 C 0.78071 0.89084 0.51864
 N724 N 0.77110 0.89208 0.50239
 C725 C 0.77606 0.90441 0.48903
 C726 C 0.79148 0.91591 0.49159
 C727 C 0.79617 0.90216 0.52184
 C728 C 0.73978 0.85005 0.47247
 C729 C 0.74202 0.83815 0.45746
 C730 C 0.77316 0.85030 0.45296
 C731 C 0.77028 0.86203 0.46800
 N732 N 0.75370 0.86187 0.47727
 H733 H 0.77629 0.88122 0.52924
 H734 H 0.76802 0.90523 0.47632
 H735 H 0.79540 0.92536 0.48061
 H736 H 0.80344 0.90118 0.53499
 H737 H 0.72685 0.84998 0.48028
 H738 H 0.73058 0.82916 0.45361
 H739 H 0.78655 0.85049 0.44594
 H740 H 0.78142 0.87108 0.47237
 C741 C 0.73951 0.83813 0.54866
 C742 C 0.69992 0.91775 0.48764
 C743 C 0.75889 0.83819 0.44744
 C744 C 0.80176 0.91491 0.50820
 C745 C 0.00884 0.22556 0.40601
 H746 H 0.02162 0.23353 0.40651
 C747 C 0.00618 0.21097 0.41841
 H748 H 0.01718 0.20758 0.42816
 C749 C -0.02095 0.22037 0.39265
 H750 H -0.03171 0.22430 0.38292
 C751 C -0.02425 0.20577 0.40485
 H752 H -0.03754 0.19864 0.40426
 N753 N -0.00447 0.22972 0.39318
 C754 C 0.02339 0.25682 0.34654
 H755 H 0.01376 0.26807 0.34433
 C756 C 0.03834 0.25426 0.33434
 H757 H 0.03989 0.26352 0.32263
 C758 C 0.03240 0.23072 0.36409
 H759 H 0.02996 0.22140 0.37552
 C760 C 0.04769 0.22781 0.35240
 H761 H 0.05705 0.21650 0.35538
 Zn762 Zn -0.00007 0.24975 0.37677
 N763 N 0.02077 0.24521 0.36115
 C764 C 0.01879 0.28235 0.38820
 N765 N 0.00419 0.27080 0.39149
 C766 C -0.00777 0.27368 0.40586
 C767 C -0.00526 0.28865 0.41767
 C768 C 0.02166 0.29768 0.39950
 C769 C -0.02624 0.23993 0.34951
 C770 C -0.04150 0.24224 0.33765
 C771 C -0.04524 0.27306 0.34946
 C772 C -0.03012 0.27002 0.36135
 N773 N -0.02105 0.25362 0.36124
 H774 H 0.02820 0.27978 0.37676
 H775 H -0.01918 0.26416 0.40825
 H776 H -0.01469 0.29033 0.42930
 H777 H 0.03312 0.30692 0.39634
 H778 H -0.01860 0.22710 0.34953
 H779 H -0.04570 0.23090 0.32889
 H780 H -0.05193 0.28639 0.34951
 H781 H -0.02549 0.28089 0.37047
 C782 C 0.05086 0.23966 0.33724
 C783 C -0.01052 0.20076 0.41784
 C784 C -0.05123 0.25903 0.33744
 C785 C 0.00959 0.30098 0.41456
 C786 C -0.00024 0.73026 0.08843
 H787 H -0.00563 0.74292 0.08270
 C788 C 0.00223 0.71516 0.07679
 H789 H -0.00084 0.71657 0.06213
 C790 C 0.01009 0.71300 0.11440
 H791 H 0.01293 0.71212 0.12909
 C792 C 0.01276 0.69753 0.10325
 H793 H 0.01757 0.68486 0.10955
 N794 N 0.00387 0.72903 0.10685
 C795 C -0.02329 0.75748 0.15233
 H796 H -0.01350 0.76859 0.15469
 C797 C -0.03833 0.75486 0.16442
 H798 H -0.03987 0.76393 0.17622
 C799 C -0.03267 0.73183 0.13435
 H800 H -0.03040 0.72294 0.12256
 C801 C -0.04798 0.72877 0.14603
 H802 H -0.05749 0.71759 0.14297
 Zn803 Zn 0.00021 0.74996 0.12220
 N804 N -0.02073 0.74599 0.13769
 C805 C -0.02035 0.78036 0.10829
 N806 N -0.00404 0.77087 0.10688
 C807 C 0.00911 0.77560 0.09406
 C808 C 0.00621 0.79049 0.08215
 C809 C -0.02388 0.79529 0.09657
 C810 C 0.02368 0.74219 0.15245
 C811 C 0.03847 0.74470 0.16485
 C812 C 0.04821 0.77120 0.14702
 C813 C 0.03315 0.76827 0.13504
 N814 N 0.02135 0.75381 0.13778
 H815 H -0.03079 0.77621 0.11832
 H816 H 0.02183 0.76764 0.09297
 H817 H 0.01701 0.79415 0.07226
 H818 H -0.03711 0.80241 0.09768
 H819 H 0.01373 0.73123 0.15484
 H820 H 0.03979 0.73550 0.17663
 H821 H 0.05759 0.78261 0.14435
 H822 H 0.03092 0.77770 0.12369
 C823 C -0.05094 0.74033 0.16137
 C824 C 0.00886 0.69851 0.08415
 C825 C 0.05102 0.75936 0.16221
 C826 C -0.01051 0.80053 0.08324
 C827 C 0.49213 0.22713 0.59233
 H828 H 0.48169 0.23742 0.58916
 C829 C 0.49457 0.21216 0.58049
 H830 H 0.48608 0.21119 0.56808
 C831 C 0.51625 0.21635 0.61208
 H832 H 0.52463 0.21804 0.62446
 C833 C 0.51904 0.20107 0.60074
 H834 H 0.52945 0.19101 0.60468
 N835 N 0.50296 0.22898 0.60773
 C836 C 0.47615 0.25698 0.65368
 H837 H 0.48660 0.26728 0.65682
 C838 C 0.46102 0.25443 0.66566
 H839 H 0.46021 0.26270 0.67810
 C840 C 0.46527 0.23314 0.63412
 H841 H 0.46703 0.22479 0.62186
 C842 C 0.44972 0.23034 0.64555
 H843 H 0.43953 0.22002 0.64168
 Zn844 Zn 0.49961 0.24966 0.62325
 N845 N 0.47810 0.24630 0.63834
 C846 C 0.48541 0.28485 0.61397
 N847 N 0.49677 0.27098 0.60831
 C848 C 0.50609 0.27198 0.59187
 C849 C 0.50395 0.28725 0.58026
 C850 C 0.48300 0.30045 0.60288
 C851 C 0.52083 0.24473 0.65590
 C852 C 0.53605 0.24716 0.66777
 C853 C 0.55149 0.26469 0.64365
 C854 C 0.53587 0.26207 0.63230
 N855 N 0.52087 0.25241 0.63865
 H856 H 0.47819 0.28388 0.62711
 H857 H 0.51509 0.26080 0.58767
 H858 H 0.51116 0.28752 0.56703
 H859 H 0.47410 0.31142 0.60782
 H860 H 0.50890 0.23680 0.66053
 H861 H 0.53542 0.24140 0.68164
 H862 H 0.56335 0.27229 0.63825
 H863 H 0.53571 0.26782 0.61844
 C864 C 0.44750 0.24095 0.66170
 C865 C 0.50818 0.19883 0.58462
 C866 C 0.55166 0.25734 0.66174
 C867 C 0.49223 0.30176 0.58569
 C868 C 0.50901 0.72628 0.90546
 H869 H 0.52146 0.73467 0.90669
 C870 C 0.50621 0.71149 0.91758
 H871 H 0.51681 0.70837 0.92784
 C872 C 0.48016 0.72024 0.89050
 H873 H 0.46990 0.72384 0.88012
 C874 C 0.47672 0.70543 0.90241
 H875 H 0.46374 0.69787 0.90106
 N876 N 0.49618 0.73022 0.89209
 C877 C 0.52307 0.75779 0.84539
 H878 H 0.51301 0.76862 0.84295
 C879 C 0.53775 0.75516 0.83288
 H880 H 0.53870 0.76394 0.82075
 C881 C 0.53337 0.73271 0.86373
 H882 H 0.53155 0.72382 0.87563
 C883 C 0.54840 0.72973 0.85173
 H884 H 0.55816 0.71881 0.85486
 Zn885 Zn 0.50036 0.75075 0.87632
 N886 N 0.52117 0.74667 0.86049
 C887 C 0.51753 0.78447 0.88666
 N888 N 0.50457 0.77159 0.89142
 C889 C 0.49431 0.77316 0.90724
 C890 C 0.49696 0.78812 0.91906
 C891 C 0.52048 0.79977 0.89797
 C892 C 0.47601 0.74280 0.84698
 C893 C 0.46084 0.74538 0.83506
 C894 C 0.45239 0.77241 0.85256
 C895 C 0.46780 0.76938 0.86408
 N896 N 0.47918 0.75472 0.86114
 H897 H 0.52553 0.78298 0.87402
 H898 H 0.48414 0.76268 0.91074
 H899 H 0.48893 0.78884 0.93178
 H900 H 0.53059 0.81004 0.89370
 H901 H 0.48541 0.73136 0.84486
 H902 H 0.45881 0.73592 0.82365
 H903 H 0.44332 0.78398 0.85532
 H904 H 0.47062 0.77872 0.87538
 C905 C 0.55073 0.74099 0.83598
 C906 C 0.48988 0.70080 0.91614
 C907 C 0.44876 0.76035 0.83776
 C908 C 0.51017 0.80174 0.91447
 C909 C 0.11382 0.22859 0.28831
 C910 C 0.12275 0.24389 0.28028
 C911 C 0.13791 0.24111 0.26824
 C912 C 0.14432 0.22321 0.26448
 C913 C 0.13533 0.20804 0.27281
 C914 C 0.11996 0.21065 0.28462
 C915 C 0.09773 0.23142 0.30080
 C916 C 0.08861 0.21612 0.30856
 C917 C 0.07321 0.21887 0.32030
 C918 C 0.06708 0.23680 0.32457
 C919 C 0.07655 0.25199 0.31670
 C920 C 0.09177 0.24937 0.30471
 C921 C 0.11052 0.19567 0.29272
 C922 C 0.09506 0.19836 0.30443
 C923 C 0.11634 0.26165 0.28448
 C924 C 0.10116 0.26434 0.29654
 H925 H 0.11509 0.18176 0.28995
 H926 H 0.08815 0.18643 0.31034
 H927 H 0.12313 0.27357 0.27841
 H928 H 0.09669 0.27827 0.29944
 H929 H 0.14486 0.25287 0.26203
 H930 H 0.14004 0.19421 0.26984
 H931 H 0.06591 0.20704 0.32592
 H932 H 0.07226 0.26586 0.32007
 C933 C 0.61179 0.72892 0.78498
 C934 C 0.61799 0.71092 0.78166
 C935 C 0.63293 0.70807 0.76937
 C936 C 0.64146 0.72306 0.76024
 C937 C 0.63497 0.74101 0.76364
 C938 C 0.62022 0.74403 0.77611
 C939 C 0.59619 0.73200 0.79801
 C940 C 0.59018 0.75002 0.80154
 C941 C 0.57543 0.75289 0.81404
 C942 C 0.56650 0.73788 0.82282
 C943 C 0.57268 0.71988 0.81896
 C944 C 0.58760 0.71688 0.80668
 C945 C 0.61377 0.76185 0.77995
 C946 C 0.59905 0.76480 0.79249
 C947 C 0.60907 0.69613 0.79065
 C948 C 0.59409 0.69906 0.80289
 H949 H 0.62019 0.77363 0.77322
 H950 H 0.59454 0.77877 0.79509
 H951 H 0.61368 0.68217 0.78817
 H952 H 0.58758 0.68727 0.80950
 H953 H 0.63770 0.69420 0.76670
 H954 H 0.64157 0.75264 0.75685
 H955 H 0.57107 0.76681 0.81708
 H956 H 0.56578 0.70818 0.82531
 C957 C 0.38684 0.77222 0.78782
 C958 C 0.37697 0.75703 0.78085
 C959 C 0.36223 0.75995 0.76835
 C960 C 0.35726 0.77792 0.76290
 C961 C 0.36722 0.79300 0.77018
 C962 C 0.38209 0.79022 0.78258
 C963 C 0.40253 0.76920 0.80077
 C964 C 0.41256 0.78437 0.80755
 C965 C 0.42762 0.78141 0.81967
 C966 C 0.43261 0.76344 0.82512
 C967 C 0.42223 0.74840 0.81828
 C968 C 0.40725 0.75120 0.80604
 C969 C 0.39240 0.80506 0.78973
 C970 C 0.40740 0.80218 0.80197
 C971 C 0.38207 0.73922 0.78649
 C972 C 0.39693 0.73636 0.79891
 H973 H 0.38889 0.81902 0.78577
 H974 H 0.41503 0.81401 0.80710
 H975 H 0.37454 0.72739 0.78125
 H976 H 0.40043 0.72241 0.80287
 H977 H 0.35455 0.74825 0.76303
 H978 H 0.36367 0.80687 0.76597
 H979 H 0.43563 0.79308 0.82459
 H980 H 0.42572 0.73454 0.82258
 C981 C -0.11369 0.27028 0.28787
 C982 C -0.11382 0.26158 0.27052
 C983 C -0.12903 0.26427 0.25855
 C984 C -0.14399 0.27595 0.26357
 C985 C -0.14343 0.28467 0.28110
 C986 C -0.12845 0.28174 0.29333
 C987 C -0.09776 0.26738 0.30056
 C988 C -0.09778 0.27583 0.31806
 C989 C -0.08266 0.27292 0.33012
 C990 C -0.06738 0.26192 0.32467
 C991 C -0.06759 0.25372 0.30693
 C992 C -0.08281 0.25625 0.29492
 C993 C -0.12794 0.29002 0.31094
 C994 C -0.11291 0.28704 0.32313
 C995 C -0.09865 0.25042 0.26541
 C996 C -0.08336 0.24789 0.27736
 H997 H -0.13927 0.29885 0.31536
 H998 H -0.11310 0.29366 0.33659
 H999 H -0.09855 0.24366 0.25202
 H1000 H -0.07192 0.23924 0.27285
 H1001 H -0.12883 0.25755 0.24517
 H1002 H -0.15474 0.29349 0.28553
 H1003 H -0.08292 0.27908 0.34380
 H1004 H -0.05584 0.24554 0.30232
 C1005 C -0.11236 0.72817 0.21195
 C1006 C -0.11758 0.71012 0.21658
 C1007 C -0.13235 0.70724 0.22909
 C1008 C -0.14176 0.72228 0.23709
 C1009 C -0.13631 0.74030 0.23226
 C1010 C -0.12165 0.74333 0.21966
 C1011 C -0.09679 0.73128 0.19886
 C1012 C -0.09159 0.74933 0.19419
 C1013 C -0.07673 0.75221 0.18179
 C1014 C -0.06695 0.73719 0.17419
 C1015 C -0.07241 0.71916 0.17905
 C1016 C -0.08734 0.71613 0.19133
 C1017 C -0.11608 0.76120 0.21461
 C1018 C -0.10133 0.76415 0.20207
 C1019 C -0.10785 0.69530 0.20870
 C1020 C -0.09296 0.69826 0.19632
 H1021 H -0.12317 0.77300 0.22043
 H1022 H -0.09746 0.77815 0.19858
 H1023 H -0.11173 0.68130 0.21218
 H1024 H -0.08578 0.68645 0.19060
 H1025 H -0.13627 0.69332 0.23281
 H1026 H -0.14356 0.75198 0.23814
 H1027 H -0.07289 0.76613 0.17796
 H1028 H -0.06484 0.70749 0.17353
 C1029 C 0.38646 0.22856 0.71281
 C1030 C 0.37934 0.21073 0.71521
 C1031 C 0.36473 0.20775 0.72790
 C1032 C 0.35745 0.22240 0.73854
 C1033 C 0.36497 0.24022 0.73590
 C1034 C 0.37930 0.24337 0.72297
 C1035 C 0.40181 0.23176 0.69947
 C1036 C 0.40877 0.24965 0.69691
 C1037 C 0.42339 0.25262 0.68427
 C1038 C 0.43140 0.23780 0.67450
 C1039 C 0.42420 0.21992 0.67732
 C1040 C 0.40932 0.21686 0.68966
 C1041 C 0.38663 0.26109 0.72002
 C1042 C 0.40104 0.26419 0.70714
 C1043 C 0.38708 0.19618 0.70498
 C1044 C 0.40188 0.19918 0.69249
 H1045 H 0.38117 0.27267 0.72774
 H1046 H 0.40629 0.27806 0.70530
 H1047 H 0.38174 0.18233 0.70672
 H1048 H 0.40753 0.18756 0.68499
 H1049 H 0.35947 0.19390 0.72968
 H1050 H 0.35958 0.25182 0.74357
 H1051 H 0.42846 0.26649 0.68203
 H1052 H 0.43037 0.20832 0.67021
 C1053 C 0.61332 0.26990 0.71183
 C1054 C 0.61843 0.25609 0.72445
 C1055 C 0.63311 0.25933 0.73692
 C1056 C 0.64297 0.27621 0.73674
 C1057 C 0.63760 0.28987 0.72378
 C1058 C 0.62275 0.28683 0.71143
 C1059 C 0.59775 0.26660 0.69881
 C1060 C 0.59241 0.28054 0.68639
 C1061 C 0.57741 0.27743 0.67425
 C1062 C 0.56785 0.26044 0.67434
 C1063 C 0.57361 0.24654 0.68677
 C1064 C 0.58843 0.24960 0.69912
 C1065 C 0.61707 0.30042 0.69871
 C1066 C 0.60213 0.29736 0.68645
 C1067 C 0.60878 0.23923 0.72434
 C1068 C 0.59408 0.23602 0.71185
 H1069 H 0.62421 0.31357 0.69827
 H1070 H 0.59815 0.30824 0.67693
 H1071 H 0.61263 0.22842 0.73399
 H1072 H 0.58700 0.22284 0.71223
 H1073 H 0.63690 0.24847 0.74649
 H1074 H 0.64467 0.30303 0.72334
 H1075 H 0.57297 0.28836 0.66499
 H1076 H 0.56663 0.23331 0.68680
 C1077 C 0.11160 0.77145 0.21370
 C1078 C 0.11662 0.78950 0.21847
 C1079 C 0.13129 0.79236 0.23108
 C1080 C 0.14080 0.77732 0.23902
 C1081 C 0.13554 0.75930 0.23407
 C1082 C 0.12099 0.75629 0.22137
 C1083 C 0.09618 0.76836 0.20046
 C1084 C 0.09122 0.75031 0.19562
 C1085 C 0.07654 0.74745 0.18303
 C1086 C 0.06673 0.76247 0.17539
 C1087 C 0.07191 0.78049 0.18048
 C1088 C 0.08666 0.78351 0.19294
 C1089 C 0.11564 0.73843 0.21618
 C1090 C 0.10103 0.73549 0.20350
 C1091 C 0.10680 0.80431 0.21061
 C1092 C 0.09204 0.80137 0.19809
 H1093 H 0.12280 0.72662 0.22197
 H1094 H 0.09735 0.72150 0.19987
 H1095 H 0.11051 0.81831 0.21420
 H1096 H 0.08481 0.81318 0.19239
 H1097 H 0.13506 0.80627 0.23490
 H1098 H 0.14286 0.74762 0.23991
 H1099 H 0.07289 0.73354 0.17905
 H1100 H 0.06430 0.79216 0.17497
 C1101 C 0.28447 0.11090 0.22616
 C1102 C 0.28082 0.11676 0.20791
 C1103 C 0.26897 0.13184 0.20499
 C1104 C 0.26057 0.14083 0.22015
 C1105 C 0.26429 0.13467 0.23834
 C1106 C 0.27635 0.11980 0.24144
 C1107 C 0.29703 0.09513 0.22933
 C1108 C 0.30087 0.08944 0.24758
 C1109 C 0.31286 0.07448 0.25053
 C1110 C 0.32076 0.06499 0.23539
 C1111 C 0.31665 0.07090 0.21715
 C1112 C 0.30490 0.08603 0.21406
 C1113 C 0.28051 0.11368 0.25950
 C1114 C 0.29262 0.09881 0.26252
 C1115 C 0.28905 0.10737 0.19297
 C1116 C 0.30082 0.09222 0.19599
 H1117 H 0.27438 0.12047 0.27141
 H1118 H 0.29547 0.09455 0.27668
 H1119 H 0.28633 0.11172 0.17883
 H1120 H 0.30683 0.08532 0.18408
 H1121 H 0.26606 0.13639 0.19093
 H1122 H 0.25808 0.14163 0.25011
 H1123 H 0.31613 0.07036 0.26464
 H1124 H 0.32234 0.06359 0.20534
 C1125 C 0.78738 0.61611 0.72846
 C1126 C 0.78866 0.62576 0.71159
 C1127 C 0.77676 0.64076 0.70840
 C1128 C 0.76358 0.64609 0.72193
 C1129 C 0.76259 0.63626 0.73882
 C1130 C 0.77445 0.62127 0.74215
 C1131 C 0.79972 0.60021 0.73180
 C1132 C 0.79833 0.59049 0.74863
 C1133 C 0.80992 0.57524 0.75165
 C1134 C 0.82280 0.56967 0.73796
 C1135 C 0.82410 0.57970 0.72122
 C1136 C 0.81256 0.59496 0.71805
 C1137 C 0.77358 0.61128 0.75888
 C1138 C 0.78532 0.59616 0.76206
 C1139 C 0.80172 0.62013 0.69818
 C1140 C 0.81347 0.60499 0.70136
 H1141 H 0.76368 0.61515 0.76957
 H1142 H 0.78414 0.58879 0.77512
 H1143 H 0.80284 0.62745 0.68509
 H1144 H 0.82330 0.60107 0.69063
 H1145 H 0.77760 0.64804 0.69529
 H1146 H 0.75271 0.64028 0.74945
 H1147 H 0.80899 0.56778 0.76467
 H1148 H 0.83381 0.57539 0.71052
 C1149 C 0.78453 0.38733 0.77257
 C1150 C 0.76573 0.38814 0.76703
 C1151 C 0.75422 0.37271 0.76969
 C1152 C 0.76136 0.35662 0.77799
 C1153 C 0.78023 0.35611 0.78357
 C1154 C 0.79191 0.37140 0.78081
 C1155 C 0.79672 0.40346 0.76968
 C1156 C 0.81557 0.40259 0.77505
 C1157 C 0.82715 0.41791 0.77213
 C1158 C 0.81997 0.43412 0.76403
 C1159 C 0.80096 0.43475 0.75887
 C1160 C 0.78931 0.41944 0.76157
 C1161 C 0.81083 0.37106 0.78604
 C1162 C 0.82247 0.38637 0.78317
 C1163 C 0.75881 0.40437 0.75896
 C1164 C 0.77039 0.41977 0.75632
 H1165 H 0.81671 0.35883 0.79238
 H1166 H 0.83699 0.38552 0.78737
 H1167 H 0.74432 0.40518 0.75465
 H1168 H 0.76449 0.43202 0.75005
 H1169 H 0.73968 0.37335 0.76552
 H1170 H 0.78594 0.34376 0.78980
 H1171 H 0.84179 0.41712 0.77591
 H1172 H 0.79517 0.44719 0.75291
 C1173 C 0.28202 -0.11393 0.27306
 C1174 C 0.26381 -0.11380 0.26584
 C1175 C 0.25200 -0.12889 0.26919
 C1176 C 0.25814 -0.14403 0.27995
 C1177 C 0.27656 -0.14375 0.28709
 C1178 C 0.28853 -0.12884 0.28360
 C1179 C 0.29451 -0.09812 0.26956
 C1180 C 0.31278 -0.09834 0.27666
 C1181 C 0.32459 -0.08329 0.27331
 C1182 C 0.31819 -0.06791 0.26317
 C1183 C 0.29977 -0.06795 0.25617
 C1184 C 0.28791 -0.08306 0.25925
 C1185 C 0.30693 -0.12857 0.29047
 C1186 C 0.31886 -0.11360 0.28701
 C1187 C 0.25773 -0.09852 0.25548
 C1188 C 0.26955 -0.08339 0.25230
 H1189 H 0.31215 -0.14002 0.29860
 H1190 H 0.33294 -0.11395 0.29256
 H1191 H 0.24369 -0.09822 0.24985
 H1192 H 0.26428 -0.07187 0.24431
 H1193 H 0.23796 -0.12852 0.26361
 H1194 H 0.28186 -0.15514 0.29520
 H1195 H 0.33881 -0.08363 0.27849
 H1196 H 0.29454 -0.05615 0.24858
 C1197 C 0.21775 -0.11235 0.72669
 C1198 C 0.23601 -0.11220 0.73378
 C1199 C 0.24771 -0.12733 0.73057
 C1200 C 0.24141 -0.14252 0.72005
 C1201 C 0.22296 -0.14225 0.71298
 C1202 C 0.21109 -0.12731 0.71637
 C1203 C 0.20536 -0.09652 0.73010
 C1204 C 0.18702 -0.09680 0.72320
 C1205 C 0.17526 -0.08177 0.72655
 C1206 C 0.18180 -0.06635 0.73649
 C1207 C 0.20033 -0.06632 0.74323
 C1208 C 0.21211 -0.08141 0.74018
 C1209 C 0.19264 -0.12707 0.70965
 C1210 C 0.18079 -0.11210 0.71307
 C1211 C 0.24225 -0.09686 0.74389
 C1212 C 0.23053 -0.08170 0.74697
 H1213 H 0.18730 -0.13856 0.70170
 H1214 H 0.16666 -0.11248 0.70765
 H1215 H 0.25634 -0.09654 0.74941
 H1216 H 0.23592 -0.07014 0.75478
 H1217 H 0.26179 -0.12695 0.73606
 H1218 H 0.21754 -0.15369 0.70507
 H1219 H 0.16097 -0.08218 0.72157
 H1220 H 0.20568 -0.05448 0.75063
 C1221 C 0.71500 0.38734 0.22785
 C1222 C 0.71815 0.38103 0.20970
 C1223 C 0.72974 0.36576 0.20694
 C1224 C 0.73832 0.35693 0.22215
 C1225 C 0.73508 0.36352 0.24025
 C1226 C 0.72334 0.37866 0.24319
 C1227 C 0.70272 0.40333 0.23084
 C1228 C 0.69942 0.40953 0.24899
 C1229 C 0.68764 0.42467 0.25175
 C1230 C 0.67932 0.43373 0.23650
 C1231 C 0.68294 0.42734 0.21838
 C1232 C 0.69453 0.41210 0.21548
 C1233 C 0.71973 0.38529 0.26115
 C1234 C 0.70793 0.40043 0.26401
 C1235 C 0.70968 0.39016 0.19468
 C1236 C 0.69811 0.40546 0.19751
 H1237 H 0.72606 0.37870 0.27311
 H1238 H 0.70549 0.40507 0.27809
 H1239 H 0.71203 0.38545 0.18061
 H1240 H 0.69186 0.41211 0.18555
 H1241 H 0.73229 0.36096 0.19294
 H1242 H 0.74146 0.35673 0.25207
 H1243 H 0.68477 0.42925 0.26578
 H1244 H 0.67691 0.43434 0.20650
 C1245 C 0.71698 0.61246 0.27178
 C1246 C 0.70977 0.62856 0.27971
 C1247 C 0.72185 0.64336 0.28322
 C1248 C 0.74100 0.64218 0.27877
 C1249 C 0.74796 0.62594 0.27069
 C1250 C 0.73601 0.61101 0.26724
 C1251 C 0.70437 0.59679 0.26824
 C1252 C 0.71161 0.58061 0.26048
 C1253 C 0.69958 0.56568 0.25732
 C1254 C 0.68042 0.56688 0.26179
 C1255 C 0.67342 0.58331 0.26943
 C1256 C 0.68534 0.59827 0.27275
 C1257 C 0.74273 0.59462 0.25943
 C1258 C 0.73074 0.57966 0.25614
 C1259 C 0.69063 0.62954 0.28399
 C1260 C 0.67861 0.61466 0.28055
 H1261 H 0.75739 0.59331 0.25588
 H1262 H 0.73650 0.56725 0.25016
 H1263 H 0.68489 0.64191 0.29008
 H1264 H 0.66395 0.61597 0.28408
 H1265 H 0.71626 0.65583 0.28923
 H1266 H 0.76267 0.62477 0.26736
 H1267 H 0.70520 0.55304 0.25169
 H1268 H 0.65867 0.58452 0.27266
 C1269 C 0.21708 0.11256 0.77307
 C1270 C 0.20962 0.12868 0.78075
 C1271 C 0.22144 0.14375 0.78391
 C1272 C 0.24060 0.14282 0.77940
 C1273 C 0.24780 0.12654 0.77161
 C1274 C 0.23611 0.11136 0.76846
 C1275 C 0.20473 0.09662 0.76984
 C1276 C 0.21221 0.08047 0.76226
 C1277 C 0.20043 0.06532 0.75931
 C1278 C 0.18127 0.06626 0.76384
 C1279 C 0.17403 0.08263 0.77138
 C1280 C 0.18570 0.09784 0.77444
 C1281 C 0.24308 0.09497 0.76088
 C1282 C 0.23134 0.07978 0.75785
 C1283 C 0.19049 0.12939 0.78513
 C1284 C 0.17872 0.11423 0.78201
 H1285 H 0.25775 0.09386 0.75728
 H1286 H 0.23729 0.06739 0.75199
 H1287 H 0.18455 0.14175 0.79104
 H1288 H 0.16406 0.11534 0.78560
 H1289 H 0.21565 0.15622 0.78971
 H1290 H 0.26252 0.12553 0.76824
 H1291 H 0.20622 0.05273 0.75374
 H1292 H 0.15927 0.08361 0.77466
 C1293 C 0.22843 0.28678 0.11228
 C1294 C 0.21922 0.29309 0.12825
 C1295 C 0.21638 0.28098 0.14319
 C1296 C 0.22274 0.26267 0.14228
 C1297 C 0.23203 0.25662 0.12615
 C1298 C 0.23487 0.26861 0.11109
 C1299 C 0.23137 0.29945 0.09649
 C1300 C 0.24049 0.29311 0.08047
 C1301 C 0.24315 0.30518 0.06546
 C1302 C 0.23682 0.32351 0.06641
 C1303 C 0.22776 0.32961 0.08266
 C1304 C 0.22496 0.31763 0.09771
 C1305 C 0.24396 0.26277 0.09483
 C1306 C 0.24670 0.27481 0.07978
 C1307 C 0.21303 0.31140 0.12896
 C1308 C 0.21587 0.32347 0.11396
 H1309 H 0.24898 0.24877 0.09373
 H1310 H 0.25375 0.26974 0.06750
 H1311 H 0.20593 0.31645 0.14122
 H1312 H 0.21087 0.33747 0.11508
 H1313 H 0.20940 0.28591 0.15556
 H1314 H 0.23684 0.24255 0.12516
 H1315 H 0.24990 0.30025 0.05296
 H1316 H 0.22307 0.34373 0.08367
 C1317 C 0.72828 0.78890 0.61081
 C1318 C 0.74386 0.78129 0.61986
 C1319 C 0.74104 0.76924 0.63487
 C1320 C 0.72282 0.76510 0.64104
 C1321 C 0.70736 0.77297 0.63189
 C1322 C 0.71001 0.78476 0.61665
 C1323 C 0.73115 0.80146 0.59493
 C1324 C 0.71557 0.80881 0.58569
 C1325 C 0.71837 0.82063 0.57050
 C1326 C 0.73660 0.82542 0.56470
 C1327 C 0.75206 0.81799 0.57432
 C1328 C 0.74941 0.80589 0.58931
 C1329 C 0.69477 0.79244 0.60710
 C1330 C 0.69750 0.80419 0.59182
 C1331 C 0.76193 0.78596 0.61376
 C1332 C 0.76465 0.79812 0.59880
 H1333 H 0.68060 0.78930 0.61143
 H1334 H 0.68536 0.80978 0.58481
 H1335 H 0.77406 0.78022 0.62064
 H1336 H 0.77882 0.80141 0.59459
 H1337 H 0.75300 0.76336 0.64195
 H1338 H 0.69329 0.76969 0.63642
 H1339 H 0.70633 0.82590 0.56309
 H1340 H 0.76616 0.82175 0.57031
 C1341 C 0.77011 0.78928 0.38552
 C1342 C 0.78003 0.79551 0.36988
 C1343 C 0.78297 0.78347 0.35498
 C1344 C 0.77596 0.76535 0.35560
 C1345 C 0.76593 0.75940 0.37138
 C1346 C 0.76302 0.77129 0.38640
 C1347 C 0.76714 0.80182 0.40131
 C1348 C 0.75736 0.79554 0.41702
 C1349 C 0.75469 0.80747 0.43205
 C1350 C 0.76165 0.82562 0.43143
 C1351 C 0.77135 0.83169 0.41547
 C1352 C 0.77418 0.81983 0.40041
 C1353 C 0.75326 0.76551 0.40234
 C1354 C 0.75050 0.77742 0.41740
 C1355 C 0.78684 0.81364 0.36948
 C1356 C 0.78394 0.82560 0.38447
 H1357 H 0.74775 0.75165 0.40320
 H1358 H 0.74294 0.77241 0.42944
 H1359 H 0.79450 0.81863 0.35748
 H1360 H 0.78944 0.83947 0.38360
 H1361 H 0.79054 0.78829 0.34286
 H1362 H 0.76064 0.74546 0.37215
 H1363 H 0.74745 0.80255 0.44433
 H1364 H 0.77653 0.84568 0.41470
 C1365 C 0.27023 0.28911 -0.11346
 C1366 C 0.28852 0.28539 -0.11944
 C1367 C 0.29125 0.27389 -0.13479
 C1368 C 0.27586 0.26586 -0.14389
 C1369 C 0.25761 0.26957 -0.13761
 C1370 C 0.25470 0.28137 -0.12249
 C1371 C 0.26728 0.30133 -0.09742
 C1372 C 0.24899 0.30535 -0.09165
 C1373 C 0.24627 0.31715 -0.07652
 C1374 C 0.26168 0.32468 -0.06692
 C1375 C 0.27994 0.32026 -0.07283
 C1376 C 0.28281 0.30877 -0.08817
 C1377 C 0.23661 0.28562 -0.11625
 C1378 C 0.23380 0.29748 -0.10115
 C1379 C 0.30371 0.29316 -0.10988
 C1380 C 0.30090 0.30457 -0.09445
 H1381 H 0.22451 0.27978 -0.12313
 H1382 H 0.21961 0.30046 -0.09683
 H1383 H 0.31789 0.29034 -0.11432
 H1384 H 0.31301 0.31024 -0.08744
 H1385 H 0.30534 0.27091 -0.13941
 H1386 H 0.24571 0.26354 -0.14465
 H1387 H 0.23214 0.32063 -0.07240
 H1388 H 0.29196 0.32558 -0.06542
 C1389 C 0.73012 0.20988 -0.11513
 C1390 C 0.71190 0.21301 -0.12165
 C1391 C 0.70923 0.22470 -0.13694
 C1392 C 0.72458 0.23345 -0.14548
 C1393 C 0.74275 0.23025 -0.13869
 C1394 C 0.74562 0.21834 -0.12359
 C1395 C 0.73301 0.19755 -0.09908
 C1396 C 0.75124 0.19423 -0.09270
 C1397 C 0.75392 0.18246 -0.07746
 C1398 C 0.73850 0.17426 -0.06839
 C1399 C 0.72030 0.17785 -0.07500
 C1400 C 0.71749 0.18937 -0.09041
 C1401 C 0.76365 0.21471 -0.11678
 C1402 C 0.76642 0.20279 -0.10164
 C1403 C 0.69672 0.20449 -0.11267
 C1404 C 0.69946 0.19293 -0.09727
 H1405 H 0.77573 0.22111 -0.12321
 H1406 H 0.78056 0.20035 -0.09684
 H1407 H 0.68259 0.20684 -0.11754
 H1408 H 0.68737 0.18669 -0.09070
 H1409 H 0.69517 0.22725 -0.14193
 H1410 H 0.75466 0.23680 -0.14530
 H1411 H 0.76801 0.17960 -0.07279
 H1412 H 0.70828 0.17193 -0.06802
 C1413 C 0.23042 0.70859 0.38633
 C1414 C 0.24458 0.72086 0.38089
 C1415 C 0.24148 0.73270 0.36578
 C1416 C 0.22431 0.73237 0.35614
 C1417 C 0.21031 0.71985 0.36178
 C1418 C 0.21328 0.70796 0.37686
 C1419 C 0.23354 0.69624 0.40232
 C1420 C 0.21933 0.68403 0.40780
 C1421 C 0.22231 0.67242 0.42311
 C1422 C 0.23933 0.67303 0.43295
 C1423 C 0.25345 0.68534 0.42720
 C1424 C 0.25063 0.69698 0.41189
 C1425 C 0.19940 0.69553 0.38274
 C1426 C 0.20238 0.68376 0.39795
 C1427 C 0.26155 0.72110 0.39073
 C1428 C 0.26452 0.70937 0.40597
 H1429 H 0.18611 0.69491 0.37555
 H1430 H 0.19130 0.67441 0.40205
 H1431 H 0.27261 0.73049 0.38666
 H1432 H 0.27778 0.71004 0.41321
 H1433 H 0.25247 0.74207 0.36156
 H1434 H 0.19697 0.71949 0.35468
 H1435 H 0.21129 0.66315 0.42757
 H1436 H 0.26667 0.68575 0.43455
 C1437 C 0.26846 0.70943 0.61572
 C1438 C 0.27739 0.70291 0.63180
 C1439 C 0.28020 0.71492 0.64676
 C1440 C 0.27400 0.73328 0.64576
 C1441 C 0.26492 0.73951 0.62955
 C1442 C 0.26221 0.72767 0.61446
 C1443 C 0.26568 0.69694 0.59985
 C1444 C 0.25698 0.70354 0.58368
 C1445 C 0.25454 0.69167 0.56856
 C1446 C 0.26058 0.67325 0.56956
 C1447 C 0.26920 0.66686 0.58597
 C1448 C 0.27186 0.67867 0.60112
 C1449 C 0.25349 0.73375 0.59807
 C1450 C 0.25097 0.72190 0.58292
 C1451 C 0.28335 0.68453 0.63257
 C1452 C 0.28059 0.67260 0.61751
 H1453 H 0.24864 0.74781 0.59691
 H1454 H 0.24423 0.72716 0.57052
 H1455 H 0.29023 0.67931 0.64492
 H1456 H 0.28541 0.65853 0.61868
 H1457 H 0.28705 0.70993 0.65921
 H1458 H 0.26029 0.75364 0.62851
 H1459 H 0.24820 0.69687 0.55593
 H1460 H 0.27368 0.65267 0.58703
 C1461 C 0.77347 0.21547 0.11057
 C1462 C 0.78297 0.20916 0.12641
 C1463 C 0.78625 0.22132 0.14112
 C1464 C 0.77995 0.23964 0.14015
 C1465 C 0.77036 0.24571 0.12418
 C1466 C 0.76716 0.23369 0.10930
 C1467 C 0.77006 0.20273 0.09503
 C1468 C 0.76072 0.20907 0.07910
 C1469 C 0.75765 0.19693 0.06430
 C1470 C 0.76374 0.17853 0.06540
 C1471 C 0.77294 0.17242 0.08160
 C1472 C 0.77623 0.18448 0.09639
 C1473 C 0.75781 0.23952 0.09316
 C1474 C 0.75469 0.22743 0.07829
 C1475 C 0.78894 0.19078 0.12726
 C1476 C 0.78559 0.17864 0.11252
 H1477 H 0.75290 0.25356 0.09198
 H1478 H 0.74747 0.23250 0.06609
 H1479 H 0.79625 0.18574 0.13943
 H1480 H 0.79041 0.16457 0.11373
 H1481 H 0.79343 0.21641 0.15342
 H1482 H 0.76559 0.25981 0.12321
 H1483 H 0.75079 0.20189 0.05184
 H1484 H 0.77741 0.15824 0.08278
 C1485 C 0.48154 0.36478 0.53798
 C1486 C 0.49660 0.37144 0.52740
 C1487 C 0.49385 0.38659 0.51561
 C1488 C 0.47624 0.39517 0.51451
 C1489 C 0.46132 0.38839 0.52536
 C1490 C 0.46387 0.37312 0.53703
 C1491 C 0.48430 0.34873 0.55024
 C1492 C 0.46918 0.34191 0.56063
 C1493 C 0.47183 0.32654 0.57214
 C1494 C 0.48952 0.31808 0.57346
 C1495 C 0.50456 0.32523 0.56299
 C1496 C 0.50200 0.34048 0.55129
 C1497 C 0.44908 0.36594 0.54770
 C1498 C 0.45168 0.35057 0.55926
 C1499 C 0.51411 0.36283 0.52882
 C1500 C 0.51678 0.34763 0.54060
 H1501 H 0.43537 0.37222 0.54707
 H1502 H 0.43989 0.34544 0.56721
 H1503 H 0.52586 0.36787 0.52076
 H1504 H 0.53051 0.34140 0.54129
 H1505 H 0.50548 0.39181 0.50750
 H1506 H 0.44767 0.39476 0.52448
 H1507 H 0.46006 0.32103 0.57985
 H1508 H 0.51830 0.31906 0.56407
 C1509 C -0.02396 0.86134 0.03342
 C1510 C -0.01778 0.86026 0.01494
 C1511 C -0.02081 0.87519 0.00295
 C1512 C -0.03004 0.89107 0.00929
 C1513 C -0.03628 0.89184 0.02785
 C1514 C -0.03319 0.87704 0.04000
 C1515 C -0.02061 0.84576 0.04615
 C1516 C -0.02660 0.84691 0.06469
 C1517 C -0.02324 0.83212 0.07677
 C1518 C -0.01406 0.81619 0.07040
 C1519 C -0.00828 0.81527 0.05169
 C1520 C -0.01145 0.83004 0.03954
 C1521 C -0.03904 0.87766 0.05863
 C1522 C -0.03576 0.86287 0.07077
 C1523 C -0.00868 0.84428 0.00883
 C1524 C -0.00561 0.82941 0.02091
 H1525 H -0.04616 0.88971 0.06389
 H1526 H -0.04046 0.86393 0.08504
 H1527 H -0.00388 0.84327 -0.00541
 H1528 H 0.00147 0.81734 0.01564
 H1529 H -0.01612 0.87435 -0.01134
 H1530 H -0.04323 0.90403 0.03296
 H1531 H -0.02753 0.83311 0.09117
 H1532 H -0.00151 0.80300 0.04652
 C1533 C 0.02046 0.63648 0.03585
 C1534 C 0.03637 0.62547 0.03822
 C1535 C 0.03926 0.61056 0.02626
 C1536 C 0.02640 0.60664 0.01195
 C1537 C 0.01051 0.61789 0.00980
 C1538 C 0.00746 0.63281 0.02172
 C1539 C 0.01737 0.65221 0.04836
 C1540 C 0.00147 0.66325 0.04597
 C1541 C -0.00133 0.67826 0.05782
 C1542 C 0.01167 0.68232 0.07194
 C1543 C 0.02751 0.67102 0.07419
 C1544 C 0.03042 0.65595 0.06243
 C1545 C -0.00833 0.64412 0.01981
 C1546 C -0.01128 0.65908 0.03173
 C1547 C 0.04911 0.62962 0.05247
 C1548 C 0.04619 0.64461 0.06437
 H1549 H -0.01848 0.64142 0.00898
 H1550 H -0.02362 0.66748 0.02975
 H1551 H 0.06146 0.62123 0.05444
 H1552 H 0.05637 0.64735 0.07515
 H1553 H 0.05164 0.60219 0.02800
 H1554 H 0.00040 0.61498 -0.00099
 H1555 H -0.01370 0.68669 0.05613
 H1556 H 0.03772 0.67415 0.08485
 C1557 C 0.51940 0.13661 0.53636
 C1558 C 0.53754 0.12977 0.53364
 C1559 C 0.54018 0.11464 0.52189
 C1560 C 0.52487 0.10652 0.51272
 C1561 C 0.50678 0.11362 0.51557
 C1562 C 0.50395 0.12860 0.52745
 C1563 C 0.51653 0.15248 0.54873
 C1564 C 0.49837 0.15921 0.55158
 C1565 C 0.49570 0.17427 0.56340
 C1566 C 0.51106 0.18275 0.57221
 C1567 C 0.52921 0.17582 0.56908
 C1568 C 0.53200 0.16064 0.55744
 C1569 C 0.48599 0.13572 0.53063
 C1570 C 0.48324 0.15073 0.54253
 C1571 C 0.55267 0.13827 0.54266
 C1572 C 0.54995 0.15347 0.55431
 H1573 H 0.47395 0.12964 0.52388
 H1574 H 0.46915 0.15579 0.54462
 H1575 H 0.56674 0.13315 0.54065
 H1576 H 0.56201 0.15964 0.56096
 H1577 H 0.55418 0.10942 0.51966
 H1578 H 0.49486 0.10736 0.50876
 H1579 H 0.48165 0.17923 0.56590
 H1580 H 0.54119 0.18237 0.57549
 C1581 C -0.02303 0.13952 0.46746
 C1582 C -0.03235 0.12384 0.46088
 C1583 C -0.03537 0.10898 0.47296
 C1584 C -0.02902 0.10964 0.49148
 C1585 C -0.01967 0.12550 0.49783
 C1586 C -0.01669 0.14051 0.48589
 C1587 C -0.01979 0.15519 0.45479
 C1588 C -0.01053 0.17091 0.46138
 C1589 C -0.00754 0.18579 0.44928
 C1590 C -0.01364 0.18498 0.43067
 C1591 C -0.02281 0.16901 0.42432
 C1592 C -0.02598 0.15412 0.43633
 C1593 C -0.00748 0.15648 0.49198
 C1594 C -0.00449 0.17143 0.47995
 C1595 C -0.03837 0.12330 0.44231
 C1596 C -0.03521 0.13818 0.43023
 H1597 H -0.00255 0.15742 0.50618
 H1598 H 0.00267 0.18348 0.48521
 H1599 H -0.04556 0.11127 0.43705
 H1600 H -0.04006 0.13719 0.41601
 H1601 H -0.04238 0.09680 0.46782
 H1602 H -0.01487 0.12627 0.51207
 H1603 H -0.00069 0.19807 0.45441
 H1604 H -0.02729 0.16808 0.40997
 C1605 C 0.47642 0.63965 0.96567
 C1606 C 0.48199 0.64088 0.98432
 C1607 C 0.47882 0.62591 0.99626
 C1608 C 0.47001 0.60985 0.98968
 C1609 C 0.46437 0.60894 0.97095
 C1610 C 0.46764 0.62376 0.95886
 C1611 C 0.47989 0.65528 0.95301
 C1612 C 0.47450 0.65397 0.93431
 C1613 C 0.47791 0.66883 0.92231
 C1614 C 0.48649 0.68502 0.92891
 C1615 C 0.49175 0.68607 0.94777
 C1616 C 0.48855 0.67122 0.95985
 C1617 C 0.46240 0.62298 0.94006
 C1618 C 0.46581 0.63781 0.92799
 C1619 C 0.49063 0.65706 0.99066
 C1620 C 0.49381 0.67199 0.97864
 H1621 H 0.45565 0.61079 0.93462
 H1622 H 0.46159 0.63663 0.91359
 H1623 H 0.49497 0.65820 1.00503
 H1624 H 0.50050 0.68421 0.98409
 H1625 H 0.48305 0.62686 1.01067
 H1626 H 0.45778 0.59660 0.96567
 H1627 H 0.47406 0.66770 0.90780
 H1628 H 0.49810 0.69852 0.95311
 C1629 C 0.52200 0.86357 0.96317
 C1630 C 0.50676 0.87102 0.97285
 C1631 C 0.50976 0.88579 0.98497
 C1632 C 0.52781 0.89324 0.98728
 C1633 C 0.54290 0.88571 0.97731
 C1634 C 0.54009 0.87078 0.96533
 C1635 C 0.51896 0.84788 0.95059
 C1636 C 0.53424 0.84024 0.94114
 C1637 C 0.53130 0.82516 0.92938
 C1638 C 0.51320 0.81782 0.92687
 C1639 C 0.49802 0.82584 0.93636
 C1640 C 0.50084 0.84077 0.94832
 C1641 C 0.55503 0.86283 0.95555
 C1642 C 0.55216 0.84778 0.94371
 C1643 C 0.48883 0.86355 0.97021
 C1644 C 0.48591 0.84872 0.95811
 H1645 H 0.56906 0.86823 0.95711
 H1646 H 0.56407 0.84201 0.93649
 H1647 H 0.47694 0.86920 0.97756
 H1648 H 0.47186 0.84336 0.95648
 H1649 H 0.49802 0.89161 0.99242
 H1650 H 0.55687 0.89121 0.97912
 H1651 H 0.54316 0.81898 0.92243
 H1652 H 0.48399 0.82059 0.93434
 C1653 C 0.02091 0.36260 0.46369
 C1654 C 0.00535 0.37119 0.47179
 C1655 C 0.00818 0.38591 0.48400
 C1656 C 0.02639 0.39224 0.48787
 C1657 C 0.04182 0.38357 0.47951
 C1658 C 0.03917 0.36862 0.46753
 C1659 C 0.01802 0.34697 0.45100
 C1660 C 0.03358 0.33814 0.44320
 C1661 C 0.03077 0.32311 0.43135
 C1662 C 0.01252 0.31704 0.42703
 C1663 C -0.00291 0.32628 0.43485
 C1664 C -0.00024 0.34112 0.44696
 C1665 C 0.05439 0.35951 0.45935
 C1666 C 0.05165 0.34448 0.44747
 C1667 C -0.01271 0.36491 0.46744
 C1668 C -0.01547 0.35019 0.45517
 H1669 H 0.06855 0.36400 0.46223
 H1670 H 0.06377 0.33780 0.44152
 H1671 H -0.02483 0.37146 0.47355
 H1672 H -0.02963 0.34580 0.45218
 H1673 H -0.00378 0.39263 0.49023
 H1674 H 0.05588 0.38823 0.48256
 H1675 H 0.04280 0.31599 0.42576
 H1676 H -0.01703 0.32204 0.43144
 C1677 C 0.36649 0.53809 0.48041
 C1678 C 0.37168 0.53354 0.46219
 C1679 C 0.38690 0.52176 0.45934
 C1680 C 0.39665 0.51428 0.47457
 C1681 C 0.39113 0.51881 0.49276
 C1682 C 0.37617 0.53088 0.49576
 C1683 C 0.35061 0.55063 0.48348
 C1684 C 0.34563 0.55544 0.50169
 C1685 C 0.33056 0.56742 0.50453
 C1686 C 0.32019 0.57429 0.48934
 C1687 C 0.32540 0.56917 0.47116
 C1688 C 0.34069 0.55751 0.46816
 C1689 C 0.37072 0.53596 0.51378
 C1690 C 0.35577 0.54811 0.51669
 C1691 C 0.36149 0.54081 0.44719
 C1692 C 0.34619 0.55251 0.45013
 H1693 H 0.37811 0.53055 0.52574
 H1694 H 0.35205 0.55170 0.53081
 H1695 H 0.36533 0.53737 0.43306
 H1696 H 0.33866 0.55774 0.43818
 H1697 H 0.39096 0.51819 0.44530
 H1698 H 0.39870 0.51324 0.50454
 H1699 H 0.32702 0.57146 0.51857
 H1700 H 0.31742 0.57400 0.45934
 C1701 C 0.86548 0.03869 -0.01919
 C1702 C 0.88154 0.04534 -0.02823
 C1703 C 0.89664 0.03343 -0.03119
 C1704 C 0.89580 0.01502 -0.02508
 C1705 C 0.87961 0.00865 -0.01590
 C1706 C 0.86439 0.02040 -0.01299
 C1707 C 0.84946 0.05108 -0.01625
 C1708 C 0.83333 0.04436 -0.00741
 C1709 C 0.81806 0.05614 -0.00482
 C1710 C 0.81888 0.07457 -0.01089
 C1711 C 0.83527 0.08109 -0.01963
 C1712 C 0.85057 0.06938 -0.02241
 C1713 C 0.84802 0.01419 -0.00414
 C1714 C 0.83274 0.02596 -0.00143
 C1715 C 0.88214 0.06376 -0.03416
 C1716 C 0.86693 0.07559 -0.03127
 H1717 H 0.84700 0.00010 0.00069
 H1718 H 0.82037 0.02061 0.00541
 H1719 H 0.89446 0.06907 -0.04112
 H1720 H 0.86796 0.08968 -0.03607
 H1721 H 0.90907 0.03855 -0.03811
 H1722 H 0.87867 -0.00552 -0.01131
 H1723 H 0.80545 0.05087 0.00165
 H1724 H 0.83620 0.09530 -0.02411
 C1725 C 0.63848 0.03539 0.02245
 C1726 C 0.62997 0.02685 0.00716
 C1727 C 0.61491 0.01480 0.01016
 C1728 C 0.60818 0.01156 0.02827
 C1729 C 0.61682 0.02034 0.04344
 C1730 C 0.63208 0.03215 0.04062
 C1731 C 0.65438 0.04799 0.01939
 C1732 C 0.66306 0.05631 0.03471
 C1733 C 0.67821 0.06822 0.03174
 C1734 C 0.68454 0.07212 0.01357
 C1735 C 0.67554 0.06368 -0.00163
 C1736 C 0.66057 0.05150 0.00122
 C1737 C 0.64110 0.04077 0.05560
 C1738 C 0.65638 0.05258 0.05270
 C1739 C 0.63663 0.03062 -0.01083
 C1740 C 0.65161 0.04280 -0.01376
 H1741 H 0.63633 0.03834 0.06968
 H1742 H 0.66296 0.05892 0.06463
 H1743 H 0.63015 0.02416 -0.02276
 H1744 H 0.65626 0.04539 -0.02786
 H1745 H 0.60823 0.00823 -0.00159
 H1746 H 0.61186 0.01776 0.05744
 H1747 H 0.68516 0.07429 0.04360
 H1748 H 0.67999 0.06675 -0.01569
 C1749 C 0.13480 0.53686 0.51904
 C1750 C 0.13286 0.52101 0.50816
 C1751 C 0.11786 0.50901 0.51157
 C1752 C 0.10482 0.51274 0.52577
 C1753 C 0.10698 0.52883 0.53646
 C1754 C 0.12195 0.54090 0.53318
 C1755 C 0.15069 0.54940 0.51567
 C1756 C 0.15272 0.56519 0.52666
 C1757 C 0.16802 0.57690 0.52361
 C1758 C 0.18128 0.57288 0.50970
 C1759 C 0.17889 0.55706 0.49869
 C1760 C 0.16365 0.54525 0.50164
 C1761 C 0.12438 0.55690 0.54382
 C1762 C 0.13951 0.56883 0.54062
 C1763 C 0.14603 0.51739 0.49415
 C1764 C 0.16116 0.52932 0.49094
 H1765 H 0.11455 0.56018 0.55477
 H1766 H 0.14091 0.58097 0.54920
 H1767 H 0.14469 0.50520 0.48564
 H1768 H 0.17104 0.52598 0.48005
 H1769 H 0.11658 0.49670 0.50326
 H1770 H 0.09709 0.53205 0.54734
 H1771 H 0.16986 0.58890 0.53231
 H1772 H 0.18886 0.55398 0.48780
 C1773 C 0.13421 0.46198 -0.02177
 C1774 C 0.11791 0.45509 -0.03011
 C1775 C 0.10257 0.46682 -0.03269
 C1776 C 0.10341 0.48529 -0.02688
 C1777 C 0.11994 0.49195 -0.01859
 C1778 C 0.13538 0.48037 -0.01603
 C1779 C 0.15035 0.44969 -0.01892
 C1780 C 0.16664 0.45659 -0.01057
 C1781 C 0.18191 0.44483 -0.00782
 C1782 C 0.18094 0.42625 -0.01326
 C1783 C 0.16447 0.41959 -0.02165
 C1784 C 0.14914 0.43126 -0.02453
 C1785 C 0.15195 0.48680 -0.00779
 C1786 C 0.16732 0.47511 -0.00513
 C1787 C 0.11725 0.43657 -0.03559
 C1788 C 0.13259 0.42486 -0.03284
 H1789 H 0.15303 0.50097 -0.00333
 H1790 H 0.17982 0.48061 0.00131
 H1791 H 0.10475 0.43108 -0.04203
 H1792 H 0.13147 0.41066 -0.03724
 H1793 H 0.08992 0.46144 -0.03893
 H1794 H 0.12090 0.50617 -0.01426
 H1795 H 0.19460 0.45020 -0.00162
 H1796 H 0.16347 0.40528 -0.02568
 C1797 C 0.63716 0.96612 0.47591
 C1798 C 0.62118 0.95943 0.46682
 C1799 C 0.60593 0.97118 0.46402
 C1800 C 0.60648 0.98950 0.47033
 C1801 C 0.62264 0.99597 0.47945
 C1802 C 0.63804 0.98435 0.48223
 C1803 C 0.65324 0.95379 0.47890
 C1804 C 0.66925 0.96048 0.48794
 C1805 C 0.68451 0.94869 0.49073
 C1806 C 0.68379 0.93029 0.48463
 C1807 C 0.66754 0.92384 0.47565
 C1808 C 0.65227 0.93554 0.47270
 C1809 C 0.65432 0.99055 0.49120
 C1810 C 0.66966 0.97884 0.49398
 C1811 C 0.62075 0.94108 0.46080
 C1812 C 0.63601 0.92933 0.46371
 H1813 H 0.65520 1.00459 0.49612
 H1814 H 0.68193 0.98418 0.50095
 H1815 H 0.60849 0.93574 0.45379
 H1816 H 0.63509 0.91527 0.45887
 H1817 H 0.59354 0.96592 0.45719
 H1818 H 0.62334 1.01006 0.48423
 H1819 H 0.69700 0.95389 0.49743
 H1820 H 0.66667 0.90966 0.47117
 C1821 C 0.86500 0.96277 0.52024
 C1822 C 0.88079 0.95605 0.52962
 C1823 C 0.89607 0.96781 0.53262
 C1824 C 0.89566 0.98612 0.52618
 C1825 C 0.87972 0.99257 0.51671
 C1826 C 0.86432 0.98098 0.51377
 C1827 C 0.84884 0.95052 0.51717
 C1828 C 0.83299 0.95730 0.50794
 C1829 C 0.81763 0.94563 0.50512
 C1830 C 0.81808 0.92723 0.51133
 C1831 C 0.83416 0.92067 0.52054
 C1832 C 0.84955 0.93227 0.52355
 C1833 C 0.84822 0.98726 0.50457
 C1834 C 0.83281 0.97563 0.50173
 C1835 C 0.88098 0.93770 0.53581
 C1836 C 0.86564 0.92601 0.53279
 H1837 H 0.84752 1.00130 0.49954
 H1838 H 0.82065 0.98103 0.49459
 H1839 H 0.89309 0.93234 0.54304
 H1840 H 0.86636 0.91196 0.53777
 H1841 H 0.90830 0.96262 0.53977
 H1842 H 0.87912 1.00668 0.51188
 H1843 H 0.80526 0.95095 0.49831
 H1844 H 0.83479 0.90648 0.52515
 C1845 C 0.36274 0.46372 0.02003
 C1846 C 0.37870 0.45702 0.02913
 C1847 C 0.39403 0.46878 0.03182
 C1848 C 0.39351 0.48708 0.02535
 C1849 C 0.37743 0.49350 0.01610
 C1850 C 0.36195 0.48191 0.01350
 C1851 C 0.34650 0.45147 0.01736
 C1852 C 0.33045 0.45822 0.00845
 C1853 C 0.31500 0.44655 0.00606
 C1854 C 0.31557 0.42817 0.01235
 C1855 C 0.33188 0.42165 0.02118
 C1856 C 0.34733 0.43325 0.02379
 C1857 C 0.34566 0.48815 0.00460
 C1858 C 0.33016 0.47653 0.00216
 C1859 C 0.37902 0.43870 0.03537
 C1860 C 0.36361 0.42700 0.03271
 H1861 H 0.34487 0.50217 -0.00048
 H1862 H 0.31787 0.48191 -0.00474
 H1863 H 0.39127 0.43335 0.04238
 H1864 H 0.36444 0.41297 0.03773
 H1865 H 0.40639 0.46361 0.03877
 H1866 H 0.37677 0.50760 0.01124
 H1867 H 0.30247 0.45184 -0.00050
 H1868 H 0.33265 0.40748 0.02582
 C1869 C 0.53987 0.47906 0.36255
 C1870 C 0.53082 0.49410 0.37075
 C1871 C 0.51863 0.49104 0.38571
 C1872 C 0.51571 0.47314 0.39265
 C1873 C 0.52502 0.45822 0.38435
 C1874 C 0.53701 0.46109 0.36919
 C1875 C 0.55260 0.48218 0.34672
 C1876 C 0.56144 0.46711 0.33835
 C1877 C 0.57339 0.47014 0.32319
 C1878 C 0.57678 0.48811 0.31654
 C1879 C 0.56787 0.50306 0.32527
 C1880 C 0.55567 0.50016 0.34026
 C1881 C 0.54616 0.44637 0.36049
 C1882 C 0.55811 0.44932 0.34528
 C1883 C 0.53419 0.51189 0.36385
 C1884 C 0.54646 0.51488 0.34891
 H1885 H 0.54403 0.43244 0.36545
 H1886 H 0.56485 0.43758 0.33894
 H1887 H 0.52732 0.52362 0.37009
 H1888 H 0.54870 0.52882 0.34405
 H1889 H 0.51168 0.50262 0.39214
 H1890 H 0.52271 0.44438 0.38948
 H1891 H 0.57984 0.45846 0.31644
 H1892 H 0.57055 0.51698 0.32055
 C1893 C 0.03808 -0.02168 0.86139
 C1894 C 0.03098 -0.00647 0.87105
 C1895 C 0.01862 -0.00939 0.88591
 C1896 C 0.01362 -0.02737 0.89131
 C1897 C 0.02095 -0.04247 0.88152
 C1898 C 0.03308 -0.03969 0.86646
 C1899 C 0.05103 -0.01870 0.84571
 C1900 C 0.05794 -0.03390 0.83592
 C1901 C 0.07020 -0.03100 0.82099
 C1902 C 0.07583 -0.01306 0.81598
 C1903 C 0.06878 0.00202 0.82607
 C1904 C 0.05629 -0.00072 0.84085
 C1905 C 0.04031 -0.05456 0.85634
 C1906 C 0.05246 -0.05171 0.84128
 C1907 C 0.03648 0.01133 0.86570
 C1908 C 0.04897 0.01416 0.85090
 H1909 H 0.03652 -0.06852 0.86008
 H1910 H 0.05770 -0.06356 0.83384
 H1911 H 0.03114 0.02319 0.87306
 H1912 H 0.05291 0.02811 0.84728
 H1913 H 0.01319 0.00230 0.89348
 H1914 H 0.01702 -0.05634 0.88545
 H1915 H 0.07519 -0.04272 0.81318
 H1916 H 0.07319 0.01587 0.82261
 C1917 C 0.03929 0.02152 0.63853
 C1918 C 0.03197 0.00637 0.62890
 C1919 C 0.01956 0.00939 0.61412
 C1920 C 0.01473 0.02742 0.60879
 C1921 C 0.02230 0.04245 0.61854
 C1922 C 0.03448 0.03957 0.63352
 C1923 C 0.05226 0.01842 0.65416
 C1924 C 0.05936 0.03356 0.66395
 C1925 C 0.07158 0.03054 0.67887
 C1926 C 0.07697 0.01255 0.68388
 C1927 C 0.06976 -0.00246 0.67376
 C1928 C 0.05730 0.00040 0.65899
 C1929 C 0.04192 0.05437 0.64362
 C1930 C 0.05409 0.05141 0.65863
 C1931 C 0.03728 -0.01148 0.63420
 C1932 C 0.04979 -0.01441 0.64894
 H1933 H 0.03828 0.06836 0.63992
 H1934 H 0.05948 0.06321 0.66608
 H1935 H 0.03177 -0.02328 0.62685
 H1936 H 0.05356 -0.02840 0.65254
 H1937 H 0.01395 -0.00224 0.60658
 H1938 H 0.01850 0.05635 0.61466
 H1939 H 0.07669 0.04221 0.68670
 H1940 H 0.07399 -0.01635 0.67721
 C1941 C 0.53689 0.52238 0.13782
 C1942 C 0.52885 0.50724 0.12876
 C1943 C 0.51653 0.51028 0.11390
 C1944 C 0.51246 0.52831 0.10795
 C1945 C 0.52071 0.54333 0.11717
 C1946 C 0.53285 0.54044 0.13219
 C1947 C 0.54981 0.51927 0.15348
 C1948 C 0.55769 0.53441 0.16265
 C1949 C 0.56993 0.53139 0.17756
 C1950 C 0.57453 0.51335 0.18318
 C1951 C 0.56649 0.49833 0.17373
 C1952 C 0.55405 0.50121 0.15894
 C1953 C 0.54103 0.55525 0.14171
 C1954 C 0.55319 0.55229 0.15672
 C1955 C 0.53337 0.48937 0.13468
 C1956 C 0.54580 0.48640 0.14948
 H1957 H 0.53799 0.56925 0.13753
 H1958 H 0.55918 0.56409 0.16370
 H1959 H 0.52729 0.47757 0.12778
 H1960 H 0.54895 0.47240 0.15356
 H1961 H 0.51041 0.49863 0.10679
 H1962 H 0.51751 0.55725 0.11284
 H1963 H 0.57571 0.54308 0.18489
 H1964 H 0.57009 0.48439 0.17769
 C1965 C 0.46321 -0.02398 0.13885
 C1966 C 0.46681 -0.04195 0.13276
 C1967 C 0.47888 -0.04465 0.11765
 C1968 C 0.48758 -0.02954 0.10890
 C1969 C 0.48398 -0.01163 0.11532
 C1970 C 0.47165 -0.00875 0.13019
 C1971 C 0.45033 -0.02105 0.15457
 C1972 C 0.44643 -0.00307 0.16041
 C1973 C 0.43397 -0.00035 0.17520
 C1974 C 0.42565 -0.01546 0.18439
 C1975 C 0.42996 -0.03343 0.17842
 C1976 C 0.44213 -0.03628 0.16342
 C1977 C 0.46750 0.00903 0.13652
 C1978 C 0.45503 0.01183 0.15131
 C1979 C 0.45829 -0.05685 0.14193
 C1980 C 0.44624 -0.05407 0.15706
 H1981 H 0.47388 0.02090 0.12992
 H1982 H 0.45216 0.02578 0.15570
 H1983 H 0.46100 -0.07079 0.13741
 H1984 H 0.43999 -0.06595 0.16377
 H1985 H 0.48172 -0.05848 0.11290
 H1986 H 0.49047 0.00007 0.10854
 H1987 H 0.43058 0.01355 0.17935
 H1988 H 0.42401 -0.04522 0.18551
 C1989 C 0.96040 0.47889 0.63704
 C1990 C 0.96200 0.46112 0.62966
 C1991 C 0.97391 0.45817 0.61449
 C1992 C 0.98441 0.47278 0.60690
 C1993 C 0.98273 0.49050 0.61457
 C1994 C 0.97062 0.49366 0.62956
 C1995 C 0.94779 0.48209 0.65293
 C1996 C 0.94599 0.49990 0.66015
 C1997 C 0.93386 0.50289 0.67517
 C1998 C 0.92376 0.48817 0.68315
 C1999 C 0.92595 0.47035 0.67577
 C2000 C 0.93780 0.46727 0.66059
 C2001 C 0.96850 0.51129 0.63721
 C2002 C 0.95633 0.51437 0.65219
 C2003 C 0.95172 0.44664 0.63766
 C2004 C 0.93988 0.44965 0.65291
 H2005 H 0.97628 0.52281 0.63154
 H2006 H 0.95508 0.52818 0.65764
 H2007 H 0.95287 0.43285 0.63213
 H2008 H 0.93224 0.43810 0.65870
 H2009 H 0.97528 0.44445 0.60884
 H2010 H 0.99063 0.50186 0.60872
 H2011 H 0.93214 0.51671 0.68046
 H2012 H 0.91860 0.45881 0.68195
 C2013 C 0.96009 0.52137 0.86373
 C2014 C 0.96577 0.53927 0.86832
 C2015 C 0.97771 0.54192 0.88354
 C2016 C 0.98404 0.52681 0.89411
 C2017 C 0.97818 0.50894 0.88925
 C2018 C 0.96619 0.50615 0.87410
 C2019 C 0.94752 0.51851 0.84774
 C2020 C 0.94180 0.50061 0.84318
 C2021 C 0.92984 0.49796 0.82798
 C2022 C 0.92363 0.51306 0.81732
 C2023 C 0.92956 0.53092 0.82211
 C2024 C 0.94148 0.53372 0.83732
 C2025 C 0.96014 0.48844 0.86912
 C2026 C 0.94815 0.48572 0.85393
 C2027 C 0.95944 0.55416 0.85755
 C2028 C 0.94751 0.55143 0.84231
 H2029 H 0.96473 0.47658 0.87702
 H2030 H 0.94383 0.47184 0.85056
 H2031 H 0.96374 0.56804 0.86094
 H2032 H 0.94296 0.56329 0.83438
 H2033 H 0.98223 0.55571 0.88696
 H2034 H 0.98275 0.49719 0.89733
 H2035 H 0.92517 0.48419 0.82460
 H2036 H 0.92511 0.54261 0.81387
 C2037 C 0.45863 0.01996 0.36363
 C2038 C 0.47683 0.01276 0.36334
 C2039 C 0.48855 0.01553 0.37870
 C2040 C 0.48227 0.02561 0.39417
 C2041 C 0.46400 0.03284 0.39415
 C2042 C 0.45208 0.02996 0.37895
 C2043 C 0.44619 0.01696 0.34758
 C2044 C 0.42792 0.02396 0.34795
 C2045 C 0.41610 0.02093 0.33271
 C2046 C 0.42248 0.01114 0.31706
 C2047 C 0.44095 0.00435 0.31693
 C2048 C 0.45280 0.00712 0.33218
 C2049 C 0.43372 0.03681 0.37879
 C2050 C 0.42183 0.03381 0.36358
 C2051 C 0.48294 0.00297 0.34769
 C2052 C 0.47115 0.00025 0.33234
 H2053 H 0.42849 0.04452 0.39055
 H2054 H 0.40776 0.03929 0.36404
 H2055 H 0.49697 -0.00262 0.34728
 H2056 H 0.47643 -0.00737 0.32054
 H2057 H 0.50264 0.01008 0.37847
 H2058 H 0.45895 0.04045 0.40605
 H2059 H 0.40186 0.02600 0.33315
 H2060 H 0.44618 -0.00292 0.30489
   
