data_POSCAR
  _audit_creation_date              2014-09-24
  _audit_creation_method            'ToBaCCo'
  _symmetry_space_group_name_H-M    'P1'
  _symmetry_Int_Tables_number       1
  _symmetry_cell_setting            triclinic
  loop_
  _symmetry_equiv_pos_as_xyz
 x,y,z
_cell_length_a 105.5071
_cell_length_b 106.1745
_cell_length_c 107.2659
_cell_angle_alpha 89.995500
_cell_angle_beta 89.976200
_cell_angle_gamma 89.661000
loop_
  _atom_site_label
  _atom_site_type_symbol
  _atom_site_fract_x
  _atom_site_fract_y
  _atom_site_fract_z
N1 N 0.35508 0.32001 0.33134
 N2 N 0.35522 0.32864 0.32256
 C3 C 0.36517 0.32642 0.31495
 C4 C 0.37162 0.31581 0.31921
 C5 C 0.36487 0.31205 0.32964
 H6 H 0.36752 0.33209 0.30692
 H7 H 0.36679 0.30403 0.33554
 Cu8 Cu 0.34218 0.34175 0.32189
 Cu9 Cu 0.34221 0.31944 0.34436
 Cu10 Cu 0.31929 0.34277 0.34367
 N11 N 0.32936 0.35511 0.32196
 N12 N 0.32045 0.35524 0.33052
 C13 C 0.31276 0.36515 0.32864
 C14 C 0.31699 0.37177 0.31834
 C15 C 0.32758 0.36507 0.31430
 H16 H 0.30460 0.36728 0.33435
 H17 H 0.33357 0.36729 0.30643
 N18 N 0.31961 0.32939 0.35631
 N19 N 0.32837 0.32050 0.35669
 C20 C 0.32605 0.31294 0.36654
 C21 C 0.31529 0.31732 0.37266
 C22 C 0.31151 0.32775 0.36584
 H23 H 0.33183 0.30492 0.36910
 H24 H 0.30342 0.33375 0.36764
 H25 H 0.32824 0.32826 0.33413
 H26 H 0.33846 0.33849 0.34408
 N27 N 0.35413 0.82058 -0.16851
 N28 N 0.35408 0.82883 -0.17764
 C29 C 0.36390 0.82631 -0.18532
 C30 C 0.37054 0.81595 -0.18067
 C31 C 0.36396 0.81265 -0.16996
 H32 H 0.36613 0.83176 -0.19353
 H33 H 0.36598 0.80493 -0.16370
 Cu34 Cu 0.34133 0.84224 -0.17825
 Cu35 Cu 0.34141 0.82034 -0.15542
 Cu36 Cu 0.31855 0.84369 -0.15632
 N37 N 0.32837 0.85547 -0.17843
 N38 N 0.31958 0.85582 -0.16977
 C39 C 0.31175 0.86557 -0.17188
 C40 C 0.31573 0.87187 -0.18250
 C41 C 0.32640 0.86513 -0.18640
 H42 H 0.30375 0.86781 -0.16600
 H43 H 0.33224 0.86701 -0.19445
 N44 N 0.31901 0.83061 -0.14341
 N45 N 0.32771 0.82168 -0.14303
 C46 C 0.32536 0.81412 -0.13321
 C47 C 0.31462 0.81852 -0.12710
 C48 C 0.31090 0.82901 -0.13387
 H49 H 0.33104 0.80600 -0.13076
 H50 H 0.30284 0.83504 -0.13206
 H51 H 0.32738 0.82907 -0.16573
 H52 H 0.33769 0.83941 -0.15597
 N53 N 0.85494 0.32104 -0.16875
 N54 N 0.85448 0.32927 -0.17791
 C55 C 0.86434 0.32714 -0.18565
 C56 C 0.87137 0.31711 -0.18103
 C57 C 0.86510 0.31350 -0.17030
 H58 H 0.86638 0.33259 -0.19392
 H59 H 0.86763 0.30583 -0.16414
 Cu60 Cu 0.84119 0.34211 -0.17866
 Cu61 Cu 0.84232 0.32042 -0.15556
 Cu62 Cu 0.81907 0.34341 -0.15606
 N63 N 0.82833 0.35543 -0.17825
 N64 N 0.81980 0.35576 -0.16935
 C65 C 0.81203 0.36564 -0.17113
 C66 C 0.81578 0.37201 -0.18180
 C67 C 0.82625 0.36519 -0.18606
 H68 H 0.80419 0.36789 -0.16505
 H69 H 0.83191 0.36711 -0.19423
 N70 N 0.81980 0.33015 -0.14333
 N71 N 0.82868 0.32137 -0.14305
 C72 C 0.82654 0.31373 -0.13325
 C73 C 0.81577 0.31792 -0.12704
 C74 C 0.81179 0.32834 -0.13376
 H75 H 0.83243 0.30575 -0.13080
 H76 H 0.80358 0.33417 -0.13191
 H77 H 0.82789 0.32879 -0.16558
 H78 H 0.83833 0.33943 -0.15627
 N79 N 0.85426 0.82002 0.33136
 N80 N 0.85414 0.82843 0.32237
 C81 C 0.86379 0.82592 0.31447
 C82 C 0.87028 0.81534 0.31874
 C83 C 0.86390 0.81193 0.32951
 H84 H 0.86587 0.83135 0.30620
 H85 H 0.86609 0.80415 0.33564
 Cu86 Cu 0.84128 0.84175 0.32196
 Cu87 Cu 0.84193 0.81989 0.34483
 Cu88 Cu 0.81956 0.84373 0.34488
 N89 N 0.82875 0.85539 0.32242
 N90 N 0.82040 0.85597 0.33148
 C91 C 0.81271 0.86590 0.32969
 C92 C 0.81629 0.87205 0.31883
 C93 C 0.82660 0.86505 0.31448
 H94 H 0.80499 0.86828 0.33587
 H95 H 0.83206 0.86673 0.30612
 N96 N 0.82016 0.83051 0.35767
 N97 N 0.82866 0.82137 0.35768
 C98 C 0.82642 0.81372 0.36745
 C99 C 0.81596 0.81826 0.37393
 C100 C 0.81229 0.82894 0.36741
 H101 H 0.83194 0.80540 0.36959
 H102 H 0.80441 0.83510 0.36951
 H103 H 0.82761 0.82890 0.33514
 H104 H 0.83860 0.83904 0.34437
 N105 N 0.64503 0.68147 0.33166
 N106 N 0.64529 0.67272 0.32301
 C107 C 0.63568 0.67483 0.31497
 C108 C 0.62906 0.68550 0.31882
 C109 C 0.63533 0.68939 0.32947
 H110 H 0.63368 0.66905 0.30692
 H111 H 0.63302 0.69735 0.33531
 Cu112 Cu 0.65821 0.65948 0.32339
 Cu113 Cu 0.65721 0.68226 0.34516
 Cu114 Cu 0.68073 0.65951 0.34573
 N115 N 0.67177 0.64690 0.32370
 N116 N 0.68046 0.64702 0.33247
 C117 C 0.68856 0.63739 0.33066
 C118 C 0.68482 0.63076 0.32017
 C119 C 0.67409 0.63712 0.31599
 H120 H 0.69654 0.63535 0.33665
 H121 H 0.66836 0.63481 0.30798
 N122 N 0.67937 0.67296 0.35832
 N123 N 0.67035 0.68159 0.35808
 C124 C 0.67192 0.68948 0.36776
 C125 C 0.68248 0.68569 0.37448
 C126 C 0.68695 0.67515 0.36818
 H127 H 0.66582 0.69744 0.36970
 H128 H 0.69513 0.66948 0.37055
 H129 H 0.67173 0.67337 0.33553
 H130 H 0.66154 0.66321 0.34559
 N131 N 0.64648 0.18082 -0.16738
 N132 N 0.64639 0.17227 -0.17623
 C133 C 0.63664 0.17472 -0.18401
 C134 C 0.63029 0.18540 -0.17979
 C135 C 0.63685 0.18894 -0.16919
 H136 H 0.63440 0.16918 -0.19216
 H137 H 0.63483 0.19684 -0.16315
 Cu138 Cu 0.65906 0.15879 -0.17656
 Cu139 Cu 0.65906 0.18112 -0.15415
 Cu140 Cu 0.68215 0.15795 -0.15495
 N141 N 0.67242 0.14597 -0.17697
 N142 N 0.68132 0.14581 -0.16842
 C143 C 0.68923 0.13610 -0.17055
 C144 C 0.68517 0.12966 -0.18105
 C145 C 0.67441 0.13628 -0.18490
 H146 H 0.69730 0.13396 -0.16473
 H147 H 0.66840 0.13420 -0.19277
 N148 N 0.68147 0.17102 -0.14202
 N149 N 0.67264 0.17984 -0.14163
 C150 C 0.67482 0.18736 -0.13174
 C151 C 0.68557 0.18305 -0.12560
 C152 C 0.68949 0.17267 -0.13243
 H153 H 0.66900 0.19537 -0.12923
 H154 H 0.69769 0.16681 -0.13066
 H155 H 0.67300 0.17233 -0.16448
 H156 H 0.66295 0.16208 -0.15438
 N157 N 0.14494 0.67739 -0.17065
 N158 N 0.14565 0.66829 -0.17892
 C159 C 0.13621 0.66976 -0.18726
 C160 C 0.12917 0.68035 -0.18403
 C161 C 0.13504 0.68492 -0.17341
 H162 H 0.13467 0.66362 -0.19513
 H163 H 0.13237 0.69311 -0.16803
 Cu164 Cu 0.15889 0.65547 -0.17804
 Cu165 Cu 0.15695 0.67899 -0.15702
 Cu166 Cu 0.18114 0.65689 -0.15556
 N167 N 0.17283 0.64340 -0.17726
 N168 N 0.18144 0.64400 -0.16844
 C169 C 0.18992 0.63464 -0.17004
 C170 C 0.18650 0.62771 -0.18046
 C171 C 0.17557 0.63360 -0.18480
 H172 H 0.19796 0.63303 -0.16402
 H173 H 0.17002 0.63100 -0.19284
 N174 N 0.17923 0.67064 -0.14338
 N175 N 0.17001 0.67905 -0.14393
 C176 C 0.17135 0.68727 -0.13449
 C177 C 0.18197 0.68392 -0.12761
 C178 C 0.18670 0.67330 -0.13357
 H179 H 0.16508 0.69516 -0.13281
 H180 H 0.19503 0.66792 -0.13104
 H181 H 0.17178 0.67023 -0.16625
 H182 H 0.16179 0.66012 -0.15594
 N183 N 0.14393 0.17948 0.33088
 N184 N 0.14405 0.17069 0.32226
 C185 C 0.13430 0.17260 0.31442
 C186 C 0.12759 0.18315 0.31828
 C187 C 0.13403 0.18730 0.32879
 H188 H 0.13235 0.16681 0.30639
 H189 H 0.13171 0.19537 0.33452
 Cu190 Cu 0.15690 0.15758 0.32186
 Cu191 Cu 0.15680 0.18007 0.34395
 Cu192 Cu 0.18016 0.15684 0.34311
 N193 N 0.17006 0.14475 0.32142
 N194 N 0.17917 0.14448 0.32975
 C195 C 0.18700 0.13475 0.32723
 C196 C 0.18257 0.12855 0.31672
 C197 C 0.17178 0.13522 0.31332
 H198 H 0.19533 0.13245 0.33265
 H199 H 0.16561 0.13331 0.30553
 N200 N 0.17954 0.17015 0.35589
 N201 N 0.17069 0.17897 0.35628
 C202 C 0.17297 0.18657 0.36609
 C203 C 0.18378 0.18232 0.37219
 C204 C 0.18765 0.17189 0.36540
 H205 H 0.16715 0.19457 0.36862
 H206 H 0.19583 0.16601 0.36717
 H207 H 0.17089 0.17129 0.33372
 H208 H 0.16099 0.16109 0.34394
 N209 N 0.64468 0.32143 0.67010
 N210 N 0.64534 0.33055 0.67833
 C211 C 0.63594 0.32918 0.68670
 C212 C 0.62896 0.31861 0.68358
 C213 C 0.63483 0.31395 0.67294
 H214 H 0.63435 0.33541 0.69451
 H215 H 0.63225 0.30569 0.66767
 Cu216 Cu 0.65860 0.34318 0.67749
 Cu217 Cu 0.65674 0.31976 0.65642
 Cu218 Cu 0.68045 0.34215 0.65469
 N219 N 0.67198 0.35568 0.67639
 N220 N 0.68048 0.35519 0.66746
 C221 C 0.68869 0.36472 0.66891
 C222 C 0.68519 0.37162 0.67936
 C223 C 0.67450 0.36556 0.68385
 H224 H 0.69667 0.36639 0.66284
 H225 H 0.66898 0.36809 0.69196
 N226 N 0.67884 0.32823 0.64264
 N227 N 0.66983 0.31970 0.64329
 C228 C 0.67134 0.31146 0.63385
 C229 C 0.68182 0.31494 0.62687
 C230 C 0.68631 0.32565 0.63277
 H231 H 0.66525 0.30348 0.63223
 H232 H 0.69443 0.33118 0.63012
 H233 H 0.67157 0.32858 0.66537
 H234 H 0.66119 0.33865 0.65535
 N235 N 0.64426 0.82105 1.17068
 N236 N 0.64510 0.82994 1.17914
 C237 C 0.63568 0.82853 1.18748
 C238 C 0.62851 0.81815 1.18410
 C239 C 0.63429 0.81368 1.17335
 H240 H 0.63419 0.83458 1.19545
 H241 H 0.63156 0.80561 1.16786
 Cu242 Cu 0.65858 0.84237 1.17844
 Cu243 Cu 0.65620 0.81955 1.15690
 Cu244 Cu 0.68003 0.84181 1.15521
 N245 N 0.67187 0.85495 1.17727
 N246 N 0.68022 0.85467 1.16818
 C247 C 0.68836 0.86427 1.16965
 C248 C 0.68498 0.87098 1.18025
 C249 C 0.67442 0.86474 1.18481
 H250 H 0.69621 0.86613 1.16346
 H251 H 0.66900 0.86711 1.19303
 N252 N 0.67822 0.82804 1.14299
 N253 N 0.66915 0.81958 1.14367
 C254 C 0.67048 0.81140 1.13417
 C255 C 0.68090 0.81482 1.12710
 C256 C 0.68556 0.82546 1.13301
 H257 H 0.66432 0.80347 1.13260
 H258 H 0.69372 0.83091 1.13031
 H259 H 0.67134 0.82806 1.16574
 H260 H 0.66082 0.83844 1.15617
 N261 N 0.14451 0.32160 1.17045
 N262 N 0.14539 0.33049 1.17892
 C263 C 0.13591 0.32916 1.18721
 C264 C 0.12864 0.31887 1.18379
 C265 C 0.13444 0.31432 1.17307
 H266 H 0.13448 0.33520 1.19520
 H267 H 0.13160 0.30632 1.16755
 Cu268 Cu 0.15891 0.34289 1.17832
 Cu269 Cu 0.15657 0.32002 1.15678
 Cu270 Cu 0.18050 0.34222 1.15524
 N271 N 0.17221 0.35549 1.17716
 N272 N 0.18062 0.35517 1.16813
 C273 C 0.18870 0.36483 1.16956
 C274 C 0.18520 0.37164 1.18008
 C275 C 0.17465 0.36538 1.18463
 H276 H 0.19659 0.36667 1.16341
 H277 H 0.16913 0.36782 1.19276
 N278 N 0.17878 0.32838 1.14307
 N279 N 0.16965 0.31996 1.14365
 C280 C 0.17103 0.31178 1.13415
 C281 C 0.18155 0.31516 1.12718
 C282 C 0.18620 0.32576 1.13317
 H283 H 0.16481 0.30392 1.13247
 H284 H 0.19440 0.33119 1.13054
 H285 H 0.17164 0.32852 1.16569
 H286 H 0.16123 0.33893 1.15605
 N287 N 0.14381 0.82129 0.66962
 N288 N 0.14403 0.82994 0.67838
 C289 C 0.13430 0.82809 0.68624
 C290 C 0.12750 0.81773 0.68226
 C291 C 0.13387 0.81362 0.67165
 H292 H 0.13243 0.83379 0.69437
 H293 H 0.13146 0.80568 0.66583
 Cu294 Cu 0.15700 0.84278 0.67884
 Cu295 Cu 0.15663 0.82075 0.65641
 Cu296 Cu 0.18001 0.84375 0.65743
 N297 N 0.17004 0.85559 0.67942
 N298 N 0.17908 0.85594 0.67103
 C299 C 0.18680 0.86567 0.67356
 C300 C 0.18235 0.87180 0.68415
 C301 C 0.17167 0.86507 0.68758
 H302 H 0.19500 0.86809 0.66805
 H303 H 0.16551 0.86693 0.69541
 N304 N 0.17931 0.83062 0.64443
 N305 N 0.17046 0.82190 0.64397
 C306 C 0.17266 0.81443 0.63402
 C307 C 0.18344 0.81864 0.62790
 C308 C 0.18735 0.82893 0.63483
 H309 H 0.16683 0.80653 0.63143
 H310 H 0.19550 0.83476 0.63307
 H311 H 0.17086 0.82919 0.66654
 H312 H 0.16084 0.83970 0.65664
 N313 N 0.35464 0.68057 0.66859
 N314 N 0.35527 0.67204 0.67744
 C315 C 0.36512 0.67468 0.68497
 C316 C 0.37104 0.68546 0.68061
 C317 C 0.36408 0.68890 0.67017
 H318 H 0.36784 0.66910 0.69296
 H319 H 0.36566 0.69693 0.66418
 Cu320 Cu 0.34315 0.65828 0.67826
 Cu321 Cu 0.34167 0.68026 0.65566
 Cu322 Cu 0.31963 0.65624 0.65721
 N323 N 0.33047 0.64503 0.67915
 N324 N 0.32131 0.64429 0.67090
 C325 C 0.31390 0.63440 0.67368
 C326 C 0.31863 0.62855 0.68429
 C327 C 0.32918 0.63562 0.68748
 H328 H 0.30566 0.63173 0.66835
 H329 H 0.33546 0.63407 0.69528
 N330 N 0.31946 0.66920 0.64405
 N331 N 0.32783 0.67835 0.64345
 C332 C 0.32515 0.68567 0.63351
 C333 C 0.31454 0.68092 0.62753
 C334 C 0.31123 0.67046 0.63453
 H335 H 0.33054 0.69386 0.63087
 H336 H 0.30337 0.66422 0.63288
 H337 H 0.32826 0.67108 0.66630
 H338 H 0.33858 0.66108 0.65613
 N339 N 0.35456 0.17939 1.16754
 N340 N 0.35441 0.17107 1.17661
 C341 C 0.36426 0.17328 1.18431
 C342 C 0.37095 0.18357 1.17982
 C343 C 0.36445 0.18714 1.16915
 H344 H 0.36637 0.16782 1.19255
 H345 H 0.36662 0.19489 1.16301
 Cu346 Cu 0.34118 0.15829 1.17748
 Cu347 Cu 0.34192 0.17982 1.15431
 Cu348 Cu 0.31884 0.15690 1.15517
 N349 N 0.32823 0.14519 1.17755
 N350 N 0.31961 0.14480 1.16873
 C351 C 0.31182 0.13508 1.17081
 C352 C 0.31564 0.12892 1.18156
 C353 C 0.32616 0.13563 1.18558
 H354 H 0.30395 0.13270 1.16484
 H355 H 0.33185 0.13374 1.19376
 N356 N 0.31952 0.16990 1.14215
 N357 N 0.32829 0.17868 1.14177
 C358 C 0.32607 0.18620 1.13186
 C359 C 0.31535 0.18194 1.12568
 C360 C 0.31151 0.17158 1.13254
 H361 H 0.33181 0.19420 1.12937
 H362 H 0.30340 0.16570 1.13076
 H363 H 0.32760 0.17156 1.16447
 H364 H 0.33802 0.16084 1.15512
 N365 N 0.85580 0.67870 1.17117
 N366 N 0.85530 0.66991 1.17976
 C367 C 0.86481 0.67163 1.18793
 C368 C 0.87169 0.68210 1.18431
 C369 C 0.86565 0.68633 1.17359
 H370 H 0.86653 0.66571 1.19594
 H371 H 0.86814 0.69438 1.16797
 Cu372 Cu 0.84219 0.65718 1.17945
 Cu373 Cu 0.84353 0.67951 1.15758
 Cu374 Cu 0.82011 0.65651 1.15692
 N375 N 0.82924 0.64430 1.17913
 N376 N 0.82057 0.64397 1.17035
 C377 C 0.81281 0.63415 1.17253
 C378 C 0.81686 0.62799 1.18327
 C379 C 0.82732 0.63477 1.18714
 H380 H 0.80480 0.63173 1.16675
 H381 H 0.83309 0.63301 1.19526
 N382 N 0.82141 0.67009 1.14427
 N383 N 0.83031 0.67877 1.14462
 C384 C 0.82870 0.68667 1.13495
 C385 C 0.81829 0.68287 1.12807
 C386 C 0.81391 0.67229 1.13431
 H387 H 0.83468 0.69468 1.13312
 H388 H 0.80585 0.66660 1.13180
 H389 H 0.82867 0.67077 1.16679
 H390 H 0.83919 0.66049 1.15718
 N391 N 0.85428 0.17875 0.66914
 N392 N 0.85533 0.16917 0.67684
 C393 C 0.86461 0.17150 0.68511
 C394 C 0.86972 0.18315 0.68242
 C395 C 0.86296 0.18748 0.67220
 H396 H 0.86751 0.16512 0.69246
 H397 H 0.86408 0.19643 0.66752
 Cu398 Cu 0.84447 0.15457 0.67550
 Cu399 Cu 0.84148 0.17931 0.65600
 Cu400 Cu 0.81898 0.15572 0.65682
 N401 N 0.83066 0.14274 0.67735
 N402 N 0.82060 0.14336 0.67017
 C403 C 0.81243 0.13431 0.67358
 C404 C 0.81765 0.12761 0.68344
 C405 C 0.82927 0.13326 0.68556
 H406 H 0.80330 0.13284 0.66927
 H407 H 0.83625 0.13067 0.69249
 N408 N 0.81906 0.16904 0.64403
 N409 N 0.82764 0.17802 0.64365
 C410 C 0.82521 0.18554 0.63381
 C411 C 0.81457 0.18109 0.62764
 C412 C 0.81098 0.17059 0.63444
 H413 H 0.83081 0.19365 0.63133
 H414 H 0.80310 0.16444 0.63255
 H415 H 0.82906 0.16912 0.66677
 H416 H 0.83796 0.16030 0.65443
 N417 N 0.32065 0.35415 0.66856
 N418 N 0.32973 0.35462 0.67693
 C419 C 0.32751 0.36444 0.68462
 C420 C 0.31644 0.37047 0.68085
 C421 C 0.31239 0.36361 0.67062
 H422 H 0.33353 0.36699 0.69234
 H423 H 0.30406 0.36532 0.66501
 Cu424 Cu 0.34356 0.34234 0.67699
 Cu425 Cu 0.32018 0.34151 0.65544
 Cu426 Cu 0.34410 0.31920 0.65553
 N427 N 0.35650 0.32912 0.67723
 N428 N 0.35654 0.32018 0.66878
 C429 C 0.36621 0.31223 0.67099
 C430 C 0.37273 0.31633 0.68142
 C431 C 0.36625 0.32712 0.68515
 H432 H 0.36821 0.30398 0.66542
 H433 H 0.36842 0.33306 0.69304
 N434 N 0.33070 0.31964 0.64285
 N435 N 0.32139 0.32798 0.64290
 C436 C 0.31373 0.32572 0.63310
 C437 C 0.31854 0.31552 0.62654
 C438 C 0.32928 0.31192 0.63301
 H439 H 0.30543 0.33123 0.63075
 H440 H 0.33556 0.30417 0.63076
 H441 H 0.32980 0.32803 0.66559
 H442 H 0.33942 0.33819 0.65498
 N443 N 0.32085 0.85616 0.16894
 N444 N 0.33003 0.85620 0.17721
 C445 C 0.32823 0.86600 0.18503
 C446 C 0.31734 0.87245 0.18141
 C447 C 0.31295 0.86585 0.17118
 H448 H 0.33443 0.86831 0.19271
 H449 H 0.30455 0.86784 0.16576
 Cu450 Cu 0.34335 0.84337 0.17682
 Cu451 Cu 0.31967 0.84375 0.15575
 Cu452 Cu 0.34245 0.82032 0.15512
 N453 N 0.35573 0.82965 0.17662
 N454 N 0.35525 0.82076 0.16812
 C455 C 0.36472 0.81248 0.17008
 C456 C 0.37160 0.81632 0.18038
 C457 C 0.36558 0.82729 0.18430
 H458 H 0.36634 0.80421 0.16443
 H459 H 0.36815 0.83314 0.19214
 N460 N 0.32870 0.82149 0.14276
 N461 N 0.31999 0.83043 0.14308
 C462 C 0.31187 0.82873 0.13358
 C463 C 0.31562 0.81819 0.12688
 C464 C 0.32636 0.81385 0.13301
 H465 H 0.30377 0.83470 0.13175
 H466 H 0.33208 0.80576 0.13056
 H467 H 0.32892 0.82962 0.16556
 H468 H 0.33882 0.83942 0.15485
 N469 N 0.81946 0.35789 0.16903
 N470 N 0.82798 0.35806 0.17794
 C471 C 0.82575 0.36805 0.18538
 C472 C 0.81523 0.37451 0.18089
 C473 C 0.81153 0.36774 0.17048
 H474 H 0.83131 0.37036 0.19351
 H475 H 0.80353 0.36963 0.16448
 Cu476 Cu 0.84086 0.34493 0.17906
 Cu477 Cu 0.81888 0.34469 0.15652
 Cu478 Cu 0.84206 0.32143 0.15794
 N479 N 0.85390 0.33195 0.17968
 N480 N 0.85440 0.32281 0.17143
 C481 C 0.86430 0.31522 0.17411
 C482 C 0.87037 0.31984 0.18463
 C483 C 0.86345 0.33049 0.18786
 H484 H 0.86685 0.30696 0.16877
 H485 H 0.86519 0.33675 0.19559
 N486 N 0.82867 0.32178 0.14506
 N487 N 0.81981 0.33061 0.14468
 C488 C 0.81176 0.32808 0.13532
 C489 C 0.81569 0.31716 0.12945
 C490 C 0.82650 0.31344 0.13583
 H491 H 0.80359 0.33378 0.13293
 H492 H 0.83213 0.30509 0.13408
 H493 H 0.82754 0.33068 0.16704
 H494 H 0.83809 0.34041 0.15696
 N495 N 0.81958 0.85653 0.66935
 N496 N 0.82822 0.85724 0.67813
 C497 C 0.82553 0.86713 0.68555
 C498 C 0.81461 0.87297 0.68119
 C499 C 0.81112 0.86593 0.67087
 H500 H 0.83112 0.86982 0.69354
 H501 H 0.80298 0.86741 0.66493
 Cu502 Cu 0.84204 0.84509 0.67922
 Cu503 Cu 0.81979 0.84342 0.65670
 Cu504 Cu 0.84354 0.82093 0.65888
 N505 N 0.85496 0.83201 0.68051
 N506 N 0.85547 0.82261 0.67257
 C507 C 0.86523 0.81501 0.67556
 C508 C 0.87124 0.81986 0.68600
 C509 C 0.86440 0.83068 0.68886
 H510 H 0.86776 0.80661 0.67043
 H511 H 0.86613 0.83712 0.69646
 N512 N 0.83062 0.82083 0.64567
 N513 N 0.82159 0.82942 0.64479
 C514 C 0.81433 0.82679 0.63481
 C515 C 0.81899 0.81600 0.62911
 C516 C 0.82934 0.81252 0.63630
 H517 H 0.80626 0.83237 0.63192
 H518 H 0.83550 0.80448 0.63488
 H519 H 0.82884 0.83026 0.66782
 H520 H 0.83905 0.83986 0.65725
 N521 N 0.67875 0.64489 0.67085
 N522 N 0.67025 0.64581 0.67976
 C523 C 0.67187 0.63625 0.68783
 C524 C 0.68196 0.62886 0.68384
 C525 C 0.68610 0.63469 0.67299
 H526 H 0.66611 0.63481 0.69602
 H527 H 0.69381 0.63172 0.66703
 Cu528 Cu 0.65759 0.65919 0.68011
 Cu529 Cu 0.67959 0.65698 0.65718
 Cu530 Cu 0.65632 0.68007 0.65657
 N531 N 0.64428 0.67193 0.67908
 N532 N 0.64373 0.67988 0.66972
 C533 C 0.63352 0.68738 0.67107
 C534 C 0.62728 0.68400 0.68190
 C535 C 0.63440 0.67415 0.68677
 H536 H 0.63090 0.69484 0.66471
 H537 H 0.63240 0.66886 0.69514
 N538 N 0.66980 0.67888 0.64404
 N539 N 0.67873 0.67014 0.64416
 C540 C 0.68656 0.67207 0.63440
 C541 C 0.68231 0.68255 0.62782
 C542 C 0.67168 0.68657 0.63428
 H543 H 0.69472 0.66628 0.63225
 H544 H 0.66581 0.69465 0.63217
 H545 H 0.67110 0.67169 0.66647
 H546 H 0.66046 0.66086 0.65763
 N547 N 0.68068 0.14439 0.16960
 N548 N 0.67183 0.14453 0.17821
 C549 C 0.67400 0.13492 0.18621
 C550 C 0.68482 0.12846 0.18235
 C551 C 0.68871 0.13479 0.17175
 H552 H 0.66820 0.13285 0.19424
 H553 H 0.69677 0.13260 0.16592
 Cu554 Cu 0.65845 0.15735 0.17788
 Cu555 Cu 0.68158 0.15666 0.15626
 Cu556 Cu 0.65853 0.17986 0.15565
 N557 N 0.64576 0.17084 0.17762
 N558 N 0.64589 0.17947 0.16884
 C559 C 0.63626 0.18758 0.17068
 C560 C 0.62961 0.18394 0.18121
 C561 C 0.63596 0.17323 0.18537
 H562 H 0.63429 0.19555 0.16471
 H563 H 0.63364 0.16758 0.19343
 N564 N 0.67214 0.17869 0.14313
 N565 N 0.68099 0.16987 0.14347
 C566 C 0.68927 0.17186 0.13415
 C567 C 0.68549 0.18244 0.12759
 C568 C 0.67455 0.18650 0.13352
 H569 H 0.69752 0.16607 0.13230
 H570 H 0.66900 0.19478 0.13125
 H571 H 0.67246 0.17095 0.16591
 H572 H 0.66240 0.16080 0.15572
 N573 N 0.18004 0.64456 0.16994
 N574 N 0.17111 0.64457 0.17846
 C575 C 0.17338 0.63506 0.18653
 C576 C 0.18436 0.62878 0.18281
 C577 C 0.18824 0.63513 0.17222
 H578 H 0.16750 0.63288 0.19448
 H579 H 0.19636 0.63303 0.16645
 Cu580 Cu 0.15742 0.65706 0.17788
 Cu581 Cu 0.18064 0.65655 0.15636
 Cu582 Cu 0.15722 0.67932 0.15531
 N583 N 0.14458 0.67038 0.17740
 N584 N 0.14462 0.67892 0.16853
 C585 C 0.13496 0.68700 0.17036
 C586 C 0.12840 0.68343 0.18097
 C587 C 0.13482 0.67279 0.18519
 H588 H 0.13298 0.69496 0.16439
 H589 H 0.13263 0.66725 0.19335
 N590 N 0.17083 0.67814 0.14279
 N591 N 0.17977 0.66943 0.14329
 C592 C 0.18779 0.67108 0.13370
 C593 C 0.18376 0.68133 0.12675
 C594 C 0.17295 0.68558 0.13283
 H595 H 0.19607 0.66529 0.13203
 H596 H 0.16705 0.69350 0.13022
 H597 H 0.17118 0.67082 0.16581
 H598 H 0.16136 0.66036 0.15569
 N599 N 0.17925 0.14430 0.66954
 N600 N 0.17075 0.14518 0.67845
 C601 C 0.17218 0.13542 0.68633
 C602 C 0.18216 0.12798 0.68220
 C603 C 0.18642 0.13394 0.67148
 H604 H 0.16649 0.13402 0.69458
 H605 H 0.19416 0.13102 0.66552
 Cu606 Cu 0.15888 0.15916 0.67930
 Cu607 Cu 0.18044 0.15684 0.65634
 Cu608 Cu 0.15716 0.18007 0.65576
 N609 N 0.14501 0.17114 0.67796
 N610 N 0.14432 0.17938 0.66885
 C611 C 0.13397 0.18669 0.67054
 C612 C 0.12781 0.18277 0.68129
 C613 C 0.13514 0.17286 0.68571
 H614 H 0.13117 0.19429 0.66441
 H615 H 0.13357 0.16743 0.69407
 N616 N 0.17102 0.17910 0.64341
 N617 N 0.17996 0.17037 0.64377
 C618 C 0.18828 0.17248 0.63450
 C619 C 0.18438 0.18302 0.62792
 C620 C 0.17337 0.18695 0.63383
 H621 H 0.19655 0.16673 0.63262
 H622 H 0.16768 0.19512 0.63149
 H623 H 0.17198 0.17190 0.66548
 H624 H 0.16123 0.16103 0.65684
 N625 N 0.32076 0.64376 0.33023
 N626 N 0.32982 0.64412 0.32183
 C627 C 0.32817 0.63466 0.31366
 C628 C 0.31749 0.62792 0.31705
 C629 C 0.31304 0.63401 0.32767
 H630 H 0.33430 0.63288 0.30579
 H631 H 0.30477 0.63164 0.33309
 Cu632 Cu 0.34293 0.65694 0.32205
 Cu633 Cu 0.31962 0.65611 0.34374
 Cu634 Cu 0.34227 0.67960 0.34380
 N635 N 0.35534 0.67047 0.32215
 N636 N 0.35493 0.67932 0.33068
 C637 C 0.36442 0.68746 0.32874
 C638 C 0.37126 0.68358 0.31839
 C639 C 0.36517 0.67273 0.31443
 H640 H 0.36614 0.69565 0.33446
 H641 H 0.36773 0.66687 0.30658
 N642 N 0.32883 0.67847 0.35639
 N643 N 0.32019 0.66954 0.35656
 C644 C 0.31252 0.67145 0.36649
 C645 C 0.31658 0.68208 0.37286
 C646 C 0.32692 0.68623 0.36610
 H647 H 0.30463 0.66549 0.36893
 H648 H 0.33263 0.69440 0.36803
 H649 H 0.32828 0.67019 0.33383
 H650 H 0.33859 0.66035 0.34416
 N651 N 0.32080 0.14379 0.82995
 N652 N 0.32931 0.14424 0.82100
 C653 C 0.32759 0.13450 0.81322
 C654 C 0.31749 0.12742 0.81744
 C655 C 0.31336 0.13365 0.82811
 H656 H 0.33323 0.13279 0.80500
 H657 H 0.30559 0.13100 0.83412
 Cu658 Cu 0.34193 0.15738 0.82026
 Cu659 Cu 0.32024 0.15655 0.84316
 Cu660 Cu 0.34310 0.18008 0.84173
 N661 N 0.35476 0.17036 0.81953
 N662 N 0.35521 0.17930 0.82797
 C663 C 0.36499 0.18696 0.82539
 C664 C 0.37104 0.18259 0.81471
 C665 C 0.36422 0.17201 0.81130
 H666 H 0.36749 0.19509 0.83091
 H667 H 0.36607 0.16587 0.80349
 N668 N 0.33008 0.17926 0.85489
 N669 N 0.32140 0.17038 0.85553
 C670 C 0.31402 0.17257 0.86559
 C671 C 0.31828 0.18334 0.87158
 C672 C 0.32846 0.18728 0.86446
 H673 H 0.30616 0.16672 0.86836
 H674 H 0.33425 0.19548 0.86604
 H675 H 0.32829 0.17084 0.83293
 H676 H 0.33922 0.16096 0.84252
 N677 N 0.82122 0.64264 0.82944
 N678 N 0.82992 0.64339 0.82073
 C679 C 0.82842 0.63385 0.81264
 C680 C 0.81822 0.62665 0.81643
 C681 C 0.81387 0.63256 0.82718
 H682 H 0.83426 0.63238 0.80449
 H683 H 0.80596 0.62977 0.83294
 Cu684 Cu 0.84232 0.65678 0.82067
 Cu685 Cu 0.82015 0.65498 0.84287
 Cu686 Cu 0.84242 0.67907 0.84293
 N687 N 0.85476 0.67012 0.82075
 N688 N 0.85490 0.67889 0.82938
 C689 C 0.86458 0.68681 0.82704
 C690 C 0.87084 0.68274 0.81634
 C691 C 0.86427 0.67212 0.81268
 H692 H 0.86689 0.69487 0.83274
 H693 H 0.86626 0.66618 0.80476
 N694 N 0.82898 0.67749 0.85575
 N695 N 0.82059 0.66832 0.85565
 C696 C 0.81270 0.66976 0.86539
 C697 C 0.81621 0.68036 0.87206
 C698 C 0.82661 0.68501 0.86563
 H699 H 0.80490 0.66355 0.86740
 H700 H 0.83205 0.69328 0.86794
 H701 H 0.82830 0.66989 0.83331
 H702 H 0.83914 0.65995 0.84296
 N703 N 0.82139 0.14265 0.32912
 N704 N 0.83027 0.14309 0.32056
 C705 C 0.82865 0.13352 0.31252
 C706 C 0.81816 0.12664 0.31618
 C707 C 0.81380 0.13276 0.32681
 H708 H 0.83462 0.13179 0.30452
 H709 H 0.80566 0.13032 0.33241
 Cu710 Cu 0.84287 0.15631 0.32060
 Cu711 Cu 0.82026 0.15518 0.34241
 Cu712 Cu 0.84277 0.17905 0.34230
 N713 N 0.85538 0.16961 0.32042
 N714 N 0.85538 0.17855 0.32888
 C715 C 0.86500 0.18650 0.32648
 C716 C 0.87139 0.18230 0.31591
 C717 C 0.86494 0.17154 0.31238
 H718 H 0.86716 0.19470 0.33204
 H719 H 0.86702 0.16553 0.30453
 N720 N 0.82921 0.17779 0.35501
 N721 N 0.82073 0.16871 0.35501
 C722 C 0.81278 0.17042 0.36468
 C723 C 0.81635 0.18111 0.37117
 C724 C 0.82685 0.18552 0.36473
 H725 H 0.80491 0.16432 0.36677
 H726 H 0.83236 0.19377 0.36691
 H727 H 0.82870 0.16977 0.33268
 H728 H 0.83926 0.15998 0.34274
 N729 N 0.67940 0.35507 0.33106
 N730 N 0.67067 0.35575 0.32236
 C731 C 0.67310 0.36571 0.31497
 C732 C 0.68395 0.37163 0.31926
 C733 C 0.68765 0.36455 0.32952
 H734 H 0.66736 0.36844 0.30707
 H735 H 0.69579 0.36610 0.33542
 Cu736 Cu 0.65700 0.34351 0.32147
 Cu737 Cu 0.67945 0.34193 0.34375
 Cu738 Cu 0.65569 0.31963 0.34209
 N739 N 0.64396 0.33061 0.32047
 N740 N 0.64351 0.32134 0.32855
 C741 C 0.63374 0.31378 0.32571
 C742 C 0.62767 0.31852 0.31522
 C743 C 0.63448 0.32924 0.31218
 H744 H 0.63135 0.30539 0.33087
 H745 H 0.63270 0.33558 0.30450
 N746 N 0.66885 0.31945 0.35512
 N747 N 0.67791 0.32793 0.35575
 C748 C 0.68540 0.32526 0.36559
 C749 C 0.68085 0.31457 0.37149
 C750 C 0.67033 0.31118 0.36454
 H751 H 0.69356 0.33074 0.36822
 H752 H 0.66416 0.30328 0.36620
 H753 H 0.67031 0.32867 0.33295
 H754 H 0.66020 0.33851 0.34348
 N755 N 0.67936 0.85575 0.83117
 N756 N 0.67076 0.85574 0.82233
 C757 C 0.67295 0.86550 0.81458
 C758 C 0.68350 0.87199 0.81882
 C759 C 0.68728 0.86545 0.82939
 H760 H 0.66726 0.86771 0.80649
 H761 H 0.69525 0.86751 0.83535
 Cu762 Cu 0.65778 0.84276 0.82191
 Cu763 Cu 0.67973 0.84319 0.84437
 Cu764 Cu 0.65650 0.82018 0.84399
 N765 N 0.64474 0.82988 0.82170
 N766 N 0.64421 0.82109 0.83032
 C767 C 0.63442 0.81339 0.82781
 C768 C 0.62852 0.81752 0.81698
 C769 C 0.63535 0.82803 0.81342
 H770 H 0.63194 0.80526 0.83334
 H771 H 0.63360 0.83394 0.80539
 N772 N 0.66986 0.82099 0.85696
 N773 N 0.67865 0.82977 0.85696
 C774 C 0.68639 0.82795 0.86675
 C775 C 0.68236 0.81753 0.87337
 C776 C 0.67182 0.81332 0.86684
 H777 H 0.69447 0.83377 0.86881
 H778 H 0.66599 0.80532 0.86913
 H779 H 0.67101 0.82881 0.83450
 H780 H 0.66052 0.83909 0.84418
 N781 N 0.17874 0.35521 0.82785
 N782 N 0.16978 0.35519 0.81934
 C783 C 0.17183 0.36459 0.81121
 C784 C 0.18267 0.37098 0.81474
 C785 C 0.18680 0.36471 0.82539
 H786 H 0.16580 0.36666 0.80334
 H787 H 0.19508 0.36682 0.83093
 Cu788 Cu 0.15635 0.34280 0.81967
 Cu789 Cu 0.17907 0.34276 0.84140
 Cu790 Cu 0.15512 0.32019 0.84116
 N791 N 0.14324 0.33007 0.81913
 N792 N 0.14275 0.32117 0.82762
 C793 C 0.13285 0.31360 0.82513
 C794 C 0.12678 0.31801 0.81448
 C795 C 0.13373 0.32846 0.81095
 H796 H 0.13028 0.30552 0.83069
 H797 H 0.13208 0.33443 0.80296
 N798 N 0.16851 0.32082 0.85402
 N799 N 0.17759 0.32933 0.85418
 C800 C 0.18517 0.32708 0.86407
 C801 C 0.18068 0.31663 0.87044
 C802 C 0.17011 0.31296 0.86374
 H803 H 0.19335 0.33266 0.86645
 H804 H 0.16403 0.30506 0.86570
 H805 H 0.16987 0.32875 0.83174
 H806 H 0.15991 0.33908 0.84183
 N807 N 0.18056 0.85631 0.33129
 N808 N 0.17201 0.85703 0.32242
 C809 C 0.17470 0.86690 0.31500
 C810 C 0.18554 0.87272 0.31946
 C811 C 0.18895 0.86567 0.32983
 H812 H 0.16917 0.86960 0.30695
 H813 H 0.19701 0.86714 0.33586
 Cu814 Cu 0.15828 0.84490 0.32130
 Cu815 Cu 0.18031 0.84323 0.34402
 Cu816 Cu 0.15662 0.82094 0.34184
 N817 N 0.14531 0.83198 0.32003
 N818 N 0.14476 0.82265 0.32805
 C819 C 0.13502 0.81512 0.32503
 C820 C 0.12908 0.81994 0.31452
 C821 C 0.13593 0.83068 0.31163
 H822 H 0.13252 0.80673 0.33015
 H823 H 0.13421 0.83710 0.30399
 N824 N 0.16948 0.82079 0.35515
 N825 N 0.17849 0.82929 0.35602
 C826 C 0.18572 0.82665 0.36605
 C827 C 0.18105 0.81594 0.37181
 C828 C 0.17074 0.81252 0.36459
 H829 H 0.19377 0.83216 0.36893
 H830 H 0.16459 0.80456 0.36604
 H831 H 0.17140 0.83004 0.33296
 H832 H 0.16107 0.83983 0.34334
 C833 C 0.24936 1.00037 0.25737
 C834 C 0.25915 1.00035 0.24905
 C835 C 0.26466 1.01224 0.24415
 C836 C 0.26493 0.98843 0.24444
 C837 C 0.24303 0.98856 0.26140
 C838 C 0.24462 1.01222 0.26314
 C839 C 0.25697 1.02158 0.23872
 C840 C 0.26232 1.03267 0.23413
 C841 C 0.27551 1.03454 0.23466
 C842 C 0.28319 1.02508 0.23994
 C843 C 0.27782 1.01405 0.24461
 C844 C 0.26629 0.98648 0.23158
 C845 C 0.27181 0.97542 0.22708
 C846 C 0.27610 0.96604 0.23534
 C847 C 0.27489 0.96808 0.24825
 C848 C 0.26945 0.97921 0.25275
 C849 C 0.24157 0.98608 0.27416
 C850 C 0.23556 0.97513 0.27818
 C851 C 0.23086 0.96639 0.26951
 C852 C 0.23215 0.96898 0.25671
 C853 C 0.23810 0.98000 0.25269
 C854 C 0.25289 1.02046 0.26929
 C855 C 0.24825 1.03146 0.27484
 C856 C 0.23523 1.03434 0.27451
 C857 C 0.22696 1.02596 0.26850
 C858 C 0.23161 1.01502 0.26288
 H859 H 0.24682 1.02029 0.23805
 H860 H 0.25612 1.03981 0.23023
 H861 H 0.29338 1.02611 0.24029
 H862 H 0.28395 1.00692 0.24865
 H863 H 0.26301 0.99354 0.22502
 H864 H 0.27285 0.97427 0.21710
 H865 H 0.26874 0.98064 0.26273
 H866 H 0.24516 0.99261 0.28104
 H867 H 0.23448 0.97358 0.28809
 H868 H 0.22868 0.96241 0.24980
 H869 H 0.23887 0.98185 0.24279
 H870 H 0.26293 1.01835 0.26983
 H871 H 0.25488 1.03776 0.27931
 H872 H 0.21685 1.02775 0.26830
 H873 H 0.22506 1.00871 0.25831
 H874 H 0.27804 0.96101 0.25485
 C875 C 0.24819 0.49931 0.75521
 C876 C 0.25721 0.49939 0.74607
 C877 C 0.26129 0.51125 0.73991
 C878 C 0.26347 0.48762 0.74165
 C879 C 0.24358 0.48742 0.76095
 C880 C 0.24236 0.51114 0.75997
 C881 C 0.25251 0.51940 0.73420
 C882 C 0.25659 0.53049 0.72845
 C883 C 0.26955 0.53355 0.72813
 C884 C 0.27831 0.52522 0.73363
 C885 C 0.27423 0.51420 0.73945
 C886 C 0.26363 0.48490 0.72886
 C887 C 0.26941 0.47393 0.72446
 C888 C 0.27517 0.46539 0.73276
 C889 C 0.27521 0.46824 0.74557
 C890 C 0.26950 0.47931 0.74996
 C891 C 0.24366 0.48614 0.77397
 C892 C 0.23916 0.47517 0.77959
 C893 C 0.23446 0.46523 0.77230
 C894 C 0.23431 0.46657 0.75924
 C895 C 0.23873 0.47760 0.75363
 C896 C 0.24982 0.52091 0.76476
 C897 C 0.24413 0.53198 0.76915
 C898 C 0.23086 0.53340 0.76898
 C899 C 0.22343 0.52349 0.76437
 C900 C 0.22913 0.51248 0.75993
 H901 H 0.24251 0.51718 0.73420
 H902 H 0.24958 0.53673 0.72436
 H903 H 0.28838 0.52713 0.73331
 H904 H 0.28118 0.50797 0.74365
 H905 H 0.25917 0.49126 0.72227
 H906 H 0.26946 0.47218 0.71451
 H907 H 0.26973 0.48136 0.75985
 H908 H 0.24722 0.49365 0.77979
 H909 H 0.23918 0.47457 0.78966
 H910 H 0.23086 0.45907 0.75335
 H911 H 0.23834 0.47848 0.74358
 H912 H 0.26004 0.51997 0.76507
 H913 H 0.25012 0.53947 0.77256
 H914 H 0.21319 0.52419 0.76434
 H915 H 0.22320 0.50499 0.75638
 H916 H 0.27951 0.46185 0.75222
 C917 C 0.74381 -0.00115 0.24675
 C918 C 0.75352 -0.00104 0.25514
 C919 C 0.76014 -0.01279 0.25908
 C920 C 0.75788 0.01081 0.26113
 C921 C 0.73792 0.01068 0.24200
 C922 C 0.73842 -0.01313 0.24199
 C923 C 0.76140 -0.01544 0.27183
 C924 C 0.76760 -0.02636 0.27578
 C925 C 0.77268 -0.03491 0.26707
 C926 C 0.77167 -0.03212 0.25429
 C927 C 0.76550 -0.02112 0.25033
 C928 C 0.74935 0.01887 0.26731
 C929 C 0.75366 0.02985 0.27306
 C930 C 0.76663 0.03288 0.27292
 C931 C 0.77516 0.02464 0.26693
 C932 C 0.77082 0.01374 0.26110
 C933 C 0.74535 0.02035 0.23694
 C934 C 0.73967 0.03145 0.23264
 C935 C 0.72642 0.03301 0.23305
 C936 C 0.71901 0.02321 0.23792
 C937 C 0.72470 0.01217 0.24234
 C938 C 0.73726 -0.01504 0.22911
 C939 C 0.73191 -0.02610 0.22449
 C940 C 0.72756 -0.03547 0.23269
 C941 C 0.72867 -0.03350 0.24561
 C942 C 0.73396 -0.02240 0.25022
 H943 H 0.75748 -0.00908 0.27874
 H944 H 0.76847 -0.02809 0.28569
 H945 H 0.77546 -0.03853 0.24737
 H946 H 0.76487 -0.01911 0.24045
 H947 H 0.73935 0.01664 0.26771
 H948 H 0.74684 0.03602 0.27754
 H949 H 0.77759 0.00756 0.25653
 H950 H 0.75555 0.01932 0.23635
 H951 H 0.74569 0.03885 0.22908
 H952 H 0.70877 0.02398 0.23815
 H953 H 0.71877 0.00479 0.24610
 H954 H 0.74050 -0.00795 0.22261
 H955 H 0.73097 -0.02721 0.21450
 H956 H 0.72550 -0.04057 0.25216
 H957 H 0.73453 -0.02101 0.26020
 H958 H 0.78523 0.02652 0.26689
 C959 C 0.74616 0.49949 0.74381
 C960 C 0.75518 0.49946 0.75290
 C961 C 0.76123 0.48758 0.75733
 C962 C 0.75944 0.51129 0.75899
 C963 C 0.74160 0.51140 0.73796
 C964 C 0.74033 0.48763 0.73925
 C965 C 0.76194 0.48509 0.77016
 C966 C 0.76786 0.47416 0.77450
 C967 C 0.77322 0.46545 0.76611
 C968 C 0.77263 0.46801 0.75326
 C969 C 0.76675 0.47901 0.74892
 C970 C 0.75067 0.51982 0.76416
 C971 C 0.75484 0.53074 0.77012
 C972 C 0.76786 0.53324 0.77119
 C973 C 0.77661 0.52457 0.76617
 C974 C 0.77243 0.51372 0.76014
 C975 C 0.75017 0.52014 0.73299
 C976 C 0.74575 0.53119 0.72734
 C977 C 0.73267 0.53364 0.72641
 C978 C 0.72412 0.52477 0.73124
 C979 C 0.72854 0.51377 0.73694
 C980 C 0.73956 0.48529 0.72641
 C981 C 0.73385 0.47434 0.72200
 C982 C 0.72878 0.46548 0.73035
 C983 C 0.72947 0.46789 0.74322
 C984 C 0.73510 0.47891 0.74762
 H985 H 0.75787 0.49163 0.77682
 H986 H 0.76838 0.47261 0.78446
 H987 H 0.77659 0.46146 0.74656
 H988 H 0.76654 0.48086 0.73899
 H989 H 0.74059 0.51799 0.76362
 H990 H 0.74786 0.53726 0.77382
 H991 H 0.77937 0.50720 0.75635
 H992 H 0.76028 0.51839 0.73344
 H993 H 0.75258 0.53787 0.72380
 H994 H 0.71399 0.52623 0.73044
 H995 H 0.72176 0.50709 0.74059
 H996 H 0.74340 0.49196 0.71979
 H997 H 0.73323 0.47290 0.71202
 H998 H 0.72574 0.46123 0.74990
 H999 H 0.73533 0.48066 0.75757
 H1000 H 0.78671 0.52607 0.76706
 C1001 C 0.24421 0.49948 0.24691
 C1002 C 0.25394 0.49973 0.25530
 C1003 C 0.26069 0.48805 0.25927
 C1004 C 0.25820 0.51167 0.26123
 C1005 C 0.23820 0.51125 0.24218
 C1006 C 0.23891 0.48745 0.24212
 C1007 C 0.26227 0.48560 0.27202
 C1008 C 0.26854 0.47472 0.27599
 C1009 C 0.27331 0.46598 0.26730
 C1010 C 0.27199 0.46858 0.25451
 C1011 C 0.26582 0.47957 0.25053
 C1012 C 0.24961 0.51969 0.26739
 C1013 C 0.25384 0.53074 0.27311
 C1014 C 0.26678 0.53388 0.27298
 C1015 C 0.27537 0.52569 0.26699
 C1016 C 0.27112 0.51473 0.26118
 C1017 C 0.24553 0.52094 0.23702
 C1018 C 0.23975 0.53198 0.23271
 C1019 C 0.22649 0.53346 0.23322
 C1020 C 0.21918 0.52362 0.23817
 C1021 C 0.22498 0.51265 0.24260
 C1022 C 0.23766 0.48563 0.22922
 C1023 C 0.23229 0.47461 0.22455
 C1024 C 0.22801 0.46515 0.23268
 C1025 C 0.22925 0.46701 0.24561
 C1026 C 0.23457 0.47808 0.25028
 H1027 H 0.25856 0.49208 0.27892
 H1028 H 0.26968 0.47319 0.28591
 H1029 H 0.27553 0.46203 0.24758
 H1030 H 0.26499 0.48143 0.24064
 H1031 H 0.23964 0.51739 0.26780
 H1032 H 0.24696 0.53685 0.27757
 H1033 H 0.27794 0.50859 0.25664
 H1034 H 0.25573 0.51997 0.23636
 H1035 H 0.24569 0.53940 0.22908
 H1036 H 0.20894 0.52433 0.23848
 H1037 H 0.21913 0.50524 0.24643
 H1038 H 0.24082 0.49280 0.22275
 H1039 H 0.23127 0.47360 0.21455
 H1040 H 0.22615 0.45987 0.25213
 H1041 H 0.23521 0.47938 0.26027
 H1042 H 0.28542 0.52765 0.26695
 C1043 C 0.74096 1.00060 0.75240
 C1044 C 0.75077 1.00070 0.74411
 C1045 C 0.75554 1.01259 0.73850
 C1046 C 0.75717 0.98890 0.74000
 C1047 C 0.73531 0.98864 0.75699
 C1048 C 0.73535 1.01246 0.75735
 C1049 C 0.74731 1.02097 0.73234
 C1050 C 0.75201 1.03190 0.72679
 C1051 C 0.76505 1.03458 0.72712
 C1052 C 0.77326 1.02610 0.73319
 C1053 C 0.76855 1.01522 0.73881
 C1054 C 0.75851 0.98645 0.72722
 C1055 C 0.76451 0.97546 0.72314
 C1056 C 0.76931 0.96667 0.73176
 C1057 C 0.76815 0.96924 0.74457
 C1058 C 0.76221 0.98031 0.74866
 C1059 C 0.73400 0.98665 0.76985
 C1060 C 0.72863 0.97555 0.77435
 C1061 C 0.72442 0.96619 0.76607
 C1062 C 0.72560 0.96828 0.75317
 C1063 C 0.73090 0.97943 0.74867
 C1064 C 0.74298 1.02164 0.76297
 C1065 C 0.73758 1.03277 0.76753
 C1066 C 0.72442 1.03484 0.76676
 C1067 C 0.71680 1.02553 0.76130
 C1068 C 0.72221 1.01445 0.75667
 H1069 H 0.73727 1.01900 0.73175
 H1070 H 0.74542 1.03828 0.72227
 H1071 H 0.78338 1.02774 0.73341
 H1072 H 0.77508 1.00881 0.74338
 H1073 H 0.75484 0.99303 0.72039
 H1074 H 0.76550 0.97391 0.71321
 H1075 H 0.76152 0.98215 0.75856
 H1076 H 0.73720 0.99368 0.77643
 H1077 H 0.72762 0.97438 0.78433
 H1078 H 0.72252 0.96124 0.74655
 H1079 H 0.73158 0.98088 0.73870
 H1080 H 0.75311 1.02020 0.76380
 H1081 H 0.74373 1.03979 0.77158
 H1082 H 0.70662 1.02674 0.76076
 H1083 H 0.71615 1.00742 0.75248
 H1084 H 0.77170 0.96264 0.75144
 C1085 C 0.74211 0.50097 0.25455
 C1086 C 0.75161 0.50122 0.24592
 C1087 C 0.75591 0.51317 0.24005
 C1088 C 0.75810 0.48953 0.24165
 C1089 C 0.73671 0.48891 0.25918
 C1090 C 0.73647 0.51274 0.25969
 C1091 C 0.74730 0.52142 0.23421
 C1092 C 0.75160 0.53236 0.22835
 C1093 C 0.76461 0.53519 0.22805
 C1094 C 0.77319 0.52681 0.23377
 C1095 C 0.76889 0.51595 0.23970
 C1096 C 0.75923 0.48714 0.22884
 C1097 C 0.76535 0.47629 0.22460
 C1098 C 0.77045 0.46753 0.23308
 C1099 C 0.76951 0.47003 0.24593
 C1100 C 0.76347 0.48098 0.25017
 C1101 C 0.73567 0.48678 0.27205
 C1102 C 0.73037 0.47564 0.27654
 C1103 C 0.72596 0.46638 0.26825
 C1104 C 0.72694 0.46858 0.25535
 C1105 C 0.73216 0.47977 0.25087
 C1106 C 0.74412 0.52213 0.26492
 C1107 C 0.73868 0.53321 0.26957
 C1108 C 0.72546 0.53501 0.26925
 C1109 C 0.71783 0.52546 0.26425
 C1110 C 0.72328 0.51443 0.25953
 H1111 H 0.73727 0.51933 0.23411
 H1112 H 0.74473 0.53865 0.22411
 H1113 H 0.78329 0.52853 0.23348
 H1114 H 0.77571 0.50964 0.24400
 H1115 H 0.75530 0.49368 0.22210
 H1116 H 0.76617 0.47481 0.21464
 H1117 H 0.76294 0.48276 0.26009
 H1118 H 0.73898 0.49377 0.27862
 H1119 H 0.72952 0.47438 0.28652
 H1120 H 0.72373 0.46162 0.24871
 H1121 H 0.73262 0.48133 0.24090
 H1122 H 0.75431 0.52092 0.26536
 H1123 H 0.74483 0.54042 0.27327
 H1124 H 0.70761 0.52644 0.26409
 H1125 H 0.71720 0.50725 0.25565
 H1126 H 0.77329 0.46344 0.25270
 C1127 C 0.24820 0.00012 0.74304
 C1128 C 0.25661 0.00000 0.75269
 C1129 C 0.26273 -0.01186 0.75704
 C1130 C 0.26035 0.01174 0.75929
 C1131 C 0.24354 0.01207 0.73742
 C1132 C 0.24336 -0.01173 0.73742
 C1133 C 0.26255 -0.01490 0.76975
 C1134 C 0.26846 -0.02586 0.77404
 C1135 C 0.27468 -0.03403 0.76569
 C1136 C 0.27504 -0.03086 0.75297
 C1137 C 0.26918 -0.01983 0.74869
 C1138 C 0.25123 0.02011 0.76415
 C1139 C 0.25499 0.03104 0.77039
 C1140 C 0.26792 0.03372 0.77201
 C1141 C 0.27698 0.02513 0.76741
 C1142 C 0.27324 0.01430 0.76110
 C1143 C 0.25204 0.02122 0.73311
 C1144 C 0.24753 0.03225 0.72750
 C1145 C 0.23444 0.03427 0.72597
 C1146 C 0.22597 0.02502 0.73018
 C1147 C 0.23049 0.01403 0.73583
 C1148 C 0.24391 -0.01341 0.72446
 C1149 C 0.23930 -0.02441 0.71901
 C1150 C 0.23402 -0.03397 0.72642
 C1151 C 0.23338 -0.03221 0.73940
 C1152 C 0.23792 -0.02116 0.74484
 H1153 H 0.25779 -0.00879 0.77637
 H1154 H 0.26826 -0.02787 0.78393
 H1155 H 0.27970 -0.03698 0.74630
 H1156 H 0.26970 -0.01750 0.73888
 H1157 H 0.24122 0.01818 0.76311
 H1158 H 0.24778 0.03748 0.77379
 H1159 H 0.28043 0.00790 0.75757
 H1160 H 0.26217 0.01978 0.73400
 H1161 H 0.25429 0.03923 0.72442
 H1162 H 0.21585 0.02616 0.72892
 H1163 H 0.22378 0.00702 0.73896
 H1164 H 0.24796 -0.00621 0.71855
 H1165 H 0.23973 -0.02536 0.70897
 H1166 H 0.22946 -0.03943 0.74538
 H1167 H 0.23718 -0.01996 0.75484
 H1168 H 0.28701 0.02674 0.76875
 C1169 C 0.25481 0.24718 0.99827
 C1170 C 0.24615 0.25679 0.99814
 C1171 C 0.24099 0.26231 1.00987
 C1172 C 0.24158 0.26250 0.98627
 C1173 C 0.25904 0.24078 0.98662
 C1174 C 0.26071 0.24265 1.01007
 C1175 C 0.23560 0.25468 1.01915
 C1176 C 0.23101 0.26001 1.03020
 C1177 C 0.23155 0.27311 1.03212
 C1178 C 0.23665 0.28074 1.02266
 C1179 C 0.24130 0.27539 1.01167
 C1180 C 0.22853 0.26394 0.98418
 C1181 C 0.22408 0.26953 0.97322
 C1182 C 0.23260 0.27384 0.96410
 C1183 C 0.24569 0.27250 0.96626
 C1184 C 0.25013 0.26698 0.97728
 C1185 C 0.27205 0.23928 0.98427
 C1186 C 0.27625 0.23312 0.97354
 C1187 C 0.26754 0.22831 0.96485
 C1188 C 0.25449 0.22967 0.96730
 C1189 C 0.25029 0.23577 0.97811
 C1190 C 0.26667 0.25102 1.01831
 C1191 C 0.27237 0.24656 1.02924
 C1192 C 0.27243 0.23361 1.03204
 C1193 C 0.26667 0.22525 1.02363
 C1194 C 0.26087 0.22972 1.01278
 H1195 H 0.23503 0.24458 1.01786
 H1196 H 0.22722 0.25386 1.03731
 H1197 H 0.23696 0.29087 1.02372
 H1198 H 0.24527 0.28148 1.00459
 H1199 H 0.22176 0.26071 0.99106
 H1200 H 0.21395 0.27065 0.97199
 H1201 H 0.26025 0.26623 0.97880
 H1202 H 0.27897 0.24294 0.99076
 H1203 H 0.28635 0.23200 0.97211
 H1204 H 0.24753 0.22614 0.96078
 H1205 H 0.24021 0.23658 0.97985
 H1206 H 0.26694 0.26100 1.01627
 H1207 H 0.27666 0.25327 1.03553
 H1208 H 0.26679 0.21520 1.02532
 H1209 H 0.25650 0.22308 1.00647
 H1210 H 0.25251 0.27563 0.95940
 C1211 C 0.25192 0.74401 0.49992
 C1212 C 0.24297 0.75335 0.49992
 C1213 C 0.23712 0.75803 0.51170
 C1214 C 0.23861 0.75943 0.48815
 C1215 C 0.25629 0.73789 0.48816
 C1216 C 0.25792 0.73949 0.51169
 C1217 C 0.23182 0.74966 0.52038
 C1218 C 0.22623 0.75419 0.53133
 C1219 C 0.22563 0.76721 0.53375
 C1220 C 0.23077 0.77556 0.52494
 C1221 C 0.23644 0.77102 0.51405
 C1222 C 0.22560 0.76071 0.48575
 C1223 C 0.22137 0.76661 0.47487
 C1224 C 0.23007 0.77139 0.46615
 C1225 C 0.24311 0.77021 0.46864
 C1226 C 0.24733 0.76437 0.47957
 C1227 C 0.26931 0.73651 0.48583
 C1228 C 0.27358 0.73058 0.47498
 C1229 C 0.26493 0.72590 0.46617
 C1230 C 0.25187 0.72718 0.46858
 C1231 C 0.24760 0.73303 0.47950
 C1232 C 0.26334 0.74799 0.52016
 C1233 C 0.26915 0.74363 0.53105
 C1234 C 0.26986 0.73065 0.53362
 C1235 C 0.26459 0.72216 0.52502
 C1236 C 0.25870 0.72654 0.51418
 H1237 H 0.23200 0.73961 0.51867
 H1238 H 0.22247 0.74749 0.53796
 H1239 H 0.23026 0.78565 0.52637
 H1240 H 0.24035 0.77767 0.50744
 H1241 H 0.21870 0.75711 0.49230
 H1242 H 0.21126 0.76759 0.47337
 H1243 H 0.25742 0.76373 0.48136
 H1244 H 0.27620 0.74006 0.49242
 H1245 H 0.28370 0.72952 0.47359
 H1246 H 0.24495 0.72377 0.46197
 H1247 H 0.23751 0.73374 0.48122
 H1248 H 0.26311 0.75802 0.51830
 H1249 H 0.27302 0.75043 0.53751
 H1250 H 0.26519 0.71209 0.52656
 H1251 H 0.25473 0.71980 0.50771
 H1252 H 0.25006 0.77370 0.46209
 C1253 C 0.24598 0.74424 -0.00008
 C1254 C 0.25578 0.75254 0.00013
 C1255 C 0.26149 0.75751 -0.01153
 C1256 C 0.26144 0.75701 0.01200
 C1257 C 0.23943 0.74021 0.01150
 C1258 C 0.24149 0.73847 -0.01189
 C1259 C 0.27465 0.75681 -0.01325
 C1260 C 0.28017 0.76142 -0.02414
 C1261 C 0.27262 0.76686 -0.03353
 C1262 C 0.25944 0.76768 -0.03172
 C1263 C 0.25394 0.76314 -0.02077
 C1264 C 0.26586 0.74845 0.02102
 C1265 C 0.27136 0.75282 0.03204
 C1266 C 0.27271 0.76582 0.03416
 C1267 C 0.26847 0.77433 0.02500
 C1268 C 0.26290 0.76996 0.01404
 C1269 C 0.23444 0.74906 0.01996
 C1270 C 0.22847 0.74505 0.03089
 C1271 C 0.22724 0.73212 0.03346
 C1272 C 0.23191 0.72333 0.02478
 C1273 C 0.23795 0.72733 0.01394
 C1274 C 0.22854 0.73876 -0.01484
 C1275 C 0.22413 0.73313 -0.02575
 C1276 C 0.23260 0.72707 -0.03395
 C1277 C 0.24557 0.72671 -0.03093
 C1278 C 0.24995 0.73225 -0.01995
 H1279 H 0.28066 0.75261 -0.00618
 H1280 H 0.29037 0.76087 -0.02515
 H1281 H 0.25335 0.77171 -0.03881
 H1282 H 0.24378 0.76399 -0.01952
 H1283 H 0.26507 0.73841 0.01951
 H1284 H 0.27448 0.74604 0.03894
 H1285 H 0.25970 0.77670 0.00713
 H1286 H 0.23524 0.75905 0.01812
 H1287 H 0.22499 0.75205 0.03740
 H1288 H 0.23085 0.71331 0.02634
 H1289 H 0.24158 0.72036 0.00747
 H1290 H 0.22184 0.74337 -0.00867
 H1291 H 0.21406 0.73335 -0.02766
 H1292 H 0.25235 0.72221 -0.03709
 H1293 H 0.25995 0.73167 -0.01772
 H1294 H 0.26961 0.78438 0.02622
 C1295 C 0.24308 0.24698 0.49978
 C1296 C 0.25299 0.25508 0.50008
 C1297 C 0.25976 0.25921 0.48865
 C1298 C 0.25744 0.26026 0.51209
 C1299 C 0.23729 0.24246 0.51150
 C1300 C 0.23730 0.24257 0.48796
 C1301 C 0.26442 0.25041 0.47997
 C1302 C 0.27049 0.25446 0.46910
 C1303 C 0.27216 0.26739 0.46678
 C1304 C 0.26783 0.27613 0.47569
 C1305 C 0.26171 0.27208 0.48649
 C1306 C 0.26774 0.25471 0.51825
 C1307 C 0.27204 0.25969 0.52953
 C1308 C 0.26620 0.27043 0.53474
 C1309 C 0.25578 0.27588 0.52851
 C1310 C 0.25140 0.27078 0.51733
 C1311 C 0.22683 0.24878 0.51659
 C1312 C 0.22122 0.24442 0.52756
 C1313 C 0.22587 0.23350 0.53352
 C1314 C 0.23646 0.22726 0.52836
 C1315 C 0.24218 0.23178 0.51751
 C1316 C 0.23312 0.25119 0.47890
 C1317 C 0.22765 0.24693 0.46782
 C1318 C 0.22613 0.23396 0.46565
 C1319 C 0.23013 0.22538 0.47484
 C1320 C 0.23564 0.22964 0.48588
 H1321 H 0.26327 0.24041 0.48156
 H1322 H 0.27368 0.24749 0.46241
 H1323 H 0.26922 0.28613 0.47433
 H1324 H 0.25833 0.27906 0.49307
 H1325 H 0.27239 0.24649 0.51434
 H1326 H 0.27989 0.25509 0.53420
 H1327 H 0.24341 0.27514 0.51264
 H1328 H 0.22305 0.25713 0.51208
 H1329 H 0.21328 0.24963 0.53140
 H1330 H 0.24018 0.21873 0.53253
 H1331 H 0.25029 0.22683 0.51367
 H1332 H 0.23409 0.26122 0.48041
 H1333 H 0.22472 0.25377 0.46089
 H1334 H 0.22887 0.21535 0.47357
 H1335 H 0.23869 0.22280 0.49275
 H1336 H 0.25117 0.28425 0.53214
 C1337 C 0.75406 0.74321 0.99992
 C1338 C 0.74474 0.75218 0.99989
 C1339 C 0.74019 0.75814 1.01166
 C1340 C 0.73867 0.75663 0.98812
 C1341 C 0.76025 0.73888 0.98818
 C1342 C 0.75859 0.73728 1.01172
 C1343 C 0.72715 0.75896 1.01412
 C1344 C 0.72274 0.76483 1.02495
 C1345 C 0.73129 0.77004 1.03357
 C1346 C 0.74435 0.76927 1.03104
 C1347 C 0.74875 0.76347 1.02016
 C1348 C 0.73379 0.74808 0.97938
 C1349 C 0.72790 0.75242 0.96849
 C1350 C 0.72660 0.76542 0.96621
 C1351 C 0.73129 0.77394 0.97511
 C1352 C 0.73727 0.76959 0.98591
 C1353 C 0.76528 0.74753 0.97962
 C1354 C 0.77117 0.74332 0.96869
 C1355 C 0.77233 0.73036 0.96620
 C1356 C 0.76752 0.72173 0.97493
 C1357 C 0.76156 0.72595 0.98579
 C1358 C 0.77163 0.73646 1.01420
 C1359 C 0.77602 0.73072 1.02511
 C1360 C 0.76747 0.72566 1.03381
 C1361 C 0.75440 0.72639 1.03125
 C1362 C 0.75002 0.73205 1.02029
 H1363 H 0.72037 0.75505 1.00763
 H1364 H 0.71261 0.76548 1.02647
 H1365 H 0.75119 0.77309 1.03752
 H1366 H 0.75884 0.76319 1.01833
 H1367 H 0.73450 0.73803 0.98100
 H1368 H 0.72448 0.74560 0.96181
 H1369 H 0.74081 0.77637 0.99258
 H1370 H 0.76465 0.75756 0.98140
 H1371 H 0.77471 0.75022 0.96215
 H1372 H 0.76850 0.71169 0.97345
 H1373 H 0.75791 0.71910 0.99233
 H1374 H 0.77843 0.74030 1.00768
 H1375 H 0.78615 0.73010 1.02664
 H1376 H 0.74755 0.72267 1.03778
 H1377 H 0.73993 0.73233 1.01847
 H1378 H 0.73020 0.78400 0.97382
 C1379 C 0.75730 0.24707 0.49890
 C1380 C 0.74804 0.25611 0.49913
 C1381 C 0.74332 0.26160 0.51103
 C1382 C 0.74248 0.26145 0.48750
 C1383 C 0.76297 0.24251 0.48701
 C1384 C 0.76263 0.24157 0.51056
 C1385 C 0.73026 0.26185 0.51348
 C1386 C 0.72561 0.26726 0.52445
 C1387 C 0.73394 0.27255 0.53321
 C1388 C 0.74703 0.27236 0.53068
 C1389 C 0.75166 0.26704 0.51966
 C1390 C 0.73722 0.25370 0.47825
 C1391 C 0.73230 0.25896 0.46730
 C1392 C 0.73241 0.27209 0.46545
 C1393 C 0.73737 0.27981 0.47489
 C1394 C 0.74234 0.27455 0.48578
 C1395 C 0.76827 0.25091 0.47837
 C1396 C 0.77372 0.24642 0.46734
 C1397 C 0.77420 0.23342 0.46483
 C1398 C 0.76908 0.22503 0.47363
 C1399 C 0.76354 0.22954 0.48459
 C1400 C 0.77578 0.24163 0.51246
 C1401 C 0.78100 0.23685 0.52345
 C1402 C 0.77317 0.23188 0.53284
 C1403 C 0.75999 0.23156 0.53081
 C1404 C 0.75479 0.23627 0.51974
 H1405 H 0.72365 0.25786 0.50686
 H1406 H 0.71547 0.26749 0.52596
 H1407 H 0.75372 0.27627 0.53726
 H1408 H 0.76175 0.26720 0.51783
 H1409 H 0.73702 0.24358 0.47948
 H1410 H 0.72860 0.25276 0.46018
 H1411 H 0.74622 0.28072 0.49283
 H1412 H 0.76821 0.26094 0.48018
 H1413 H 0.77750 0.25314 0.46074
 H1414 H 0.76953 0.21496 0.47213
 H1415 H 0.75968 0.22288 0.49122
 H1416 H 0.78203 0.24555 0.50546
 H1417 H 0.79119 0.23699 0.52457
 H1418 H 0.75369 0.22787 0.53786
 H1419 H 0.74462 0.23591 0.51839
 H1420 H 0.73736 0.28995 0.47390
 C1421 C 0.74664 0.24705 0.00117
 C1422 C 0.75718 0.25429 0.00111
 C1423 C 0.76345 0.25836 -0.01058
 C1424 C 0.76295 0.25848 0.01294
 C1425 C 0.74097 0.24285 0.01304
 C1426 C 0.74023 0.24296 -0.01044
 C1427 C 0.76743 0.24955 -0.01955
 C1428 C 0.77299 0.25358 -0.03068
 C1429 C 0.77477 0.26649 -0.03297
 C1430 C 0.77110 0.27524 -0.02380
 C1431 C 0.76551 0.27121 -0.01273
 C1432 C 0.77301 0.25164 0.01815
 C1433 C 0.77864 0.25569 0.02923
 C1434 C 0.77439 0.26676 0.03517
 C1435 C 0.76421 0.27353 0.02987
 C1436 C 0.75848 0.26935 0.01891
 C1437 C 0.73086 0.24960 0.01828
 C1438 C 0.72511 0.24536 0.02921
 C1439 C 0.72926 0.23415 0.03498
 C1440 C 0.73955 0.22752 0.02971
 C1441 C 0.74542 0.23190 0.01890
 C1442 C 0.73610 0.25176 -0.01936
 C1443 C 0.73028 0.24770 -0.03036
 C1444 C 0.72840 0.23479 -0.03255
 C1445 C 0.73226 0.22606 -0.02343
 C1446 C 0.73810 0.23011 -0.01250
 H1447 H 0.76613 0.23956 -0.01797
 H1448 H 0.77570 0.24663 -0.03758
 H1449 H 0.77258 0.28523 -0.02517
 H1450 H 0.76261 0.27818 -0.00592
 H1451 H 0.77646 0.24315 0.01366
 H1452 H 0.78627 0.25012 0.03316
 H1453 H 0.75068 0.27470 0.01496
 H1454 H 0.72743 0.25814 0.01386
 H1455 H 0.71740 0.25084 0.03314
 H1456 H 0.74287 0.21876 0.03375
 H1457 H 0.75324 0.22661 0.01492
 H1458 H 0.73746 0.26174 -0.01785
 H1459 H 0.72744 0.25464 -0.03722
 H1460 H 0.73070 0.21608 -0.02471
 H1461 H 0.74112 0.22316 -0.00574
 H1462 H 0.76082 0.28219 0.03405
 C1463 C 0.74971 0.74278 0.50196
 C1464 C 0.75811 0.75248 0.50178
 C1465 C 0.76384 0.75710 0.48996
 C1466 C 0.76214 0.75896 0.51339
 C1467 C 0.74518 0.73711 0.51382
 C1468 C 0.74460 0.73725 0.49028
 C1469 C 0.76992 0.74879 0.48168
 C1470 C 0.77534 0.75330 0.47067
 C1471 C 0.77499 0.76624 0.46783
 C1472 C 0.76909 0.77454 0.47628
 C1473 C 0.76358 0.77001 0.48722
 C1474 C 0.77510 0.76046 0.51585
 C1475 C 0.77909 0.76656 0.52666
 C1476 C 0.77020 0.77130 0.53525
 C1477 C 0.75720 0.76998 0.53267
 C1478 C 0.75321 0.76394 0.52179
 C1479 C 0.73213 0.73559 0.51580
 C1480 C 0.72770 0.72999 0.52671
 C1481 C 0.73621 0.72578 0.53592
 C1482 C 0.74929 0.72720 0.53388
 C1483 C 0.75374 0.73273 0.52289
 C1484 C 0.73889 0.74486 0.48114
 C1485 C 0.73418 0.73952 0.47020
 C1486 C 0.73490 0.72642 0.46827
 C1487 C 0.74041 0.71882 0.47756
 C1488 C 0.74520 0.72418 0.48845
 H1489 H 0.77049 0.73882 0.48374
 H1490 H 0.77973 0.74664 0.46433
 H1491 H 0.76889 0.78458 0.47454
 H1492 H 0.75907 0.77660 0.49355
 H1493 H 0.78214 0.75682 0.50942
 H1494 H 0.78915 0.76766 0.52823
 H1495 H 0.74316 0.76312 0.51994
 H1496 H 0.72537 0.73876 0.50886
 H1497 H 0.71758 0.72879 0.52785
 H1498 H 0.75610 0.72412 0.54081
 H1499 H 0.76386 0.73356 0.52144
 H1500 H 0.73811 0.75495 0.48248
 H1501 H 0.73009 0.74565 0.46319
 H1502 H 0.74089 0.70869 0.47648
 H1503 H 0.74944 0.71812 0.49544
 H1504 H 0.75013 0.77348 0.53913
 C1505 C 0.99987 0.25635 0.24620
 C1506 C 0.99977 0.24876 0.25646
 C1507 C 1.01167 0.24460 0.26265
 C1508 C 0.98778 0.24405 0.26203
 C1509 C 0.98797 0.26104 0.24036
 C1510 C 1.01188 0.26043 0.24022
 C1511 C 1.01381 0.23171 0.26461
 C1512 C 1.02487 0.22755 0.27045
 C1513 C 1.03405 0.23619 0.27446
 C1514 C 1.03179 0.24914 0.27270
 C1515 C 1.02066 0.25331 0.26691
 C1516 C 0.97878 0.23764 0.25482
 C1517 C 0.96762 0.23322 0.26027
 C1518 C 0.96536 0.23488 0.27311
 C1519 C 0.97452 0.24110 0.28032
 C1520 C 0.98559 0.24563 0.27484
 C1521 C 0.97874 0.26744 0.24738
 C1522 C 0.96756 0.27165 0.24174
 C1523 C 0.96551 0.26978 0.22891
 C1524 C 0.97491 0.26359 0.22187
 C1525 C 0.98602 0.25928 0.22754
 C1526 C 1.01403 0.27331 0.23830
 C1527 C 1.02514 0.27739 0.23257
 C1528 C 1.03437 0.26866 0.22859
 C1529 C 1.03213 0.25573 0.23036
 C1530 C 1.02095 0.25165 0.23607
 H1531 H 1.00693 0.22485 0.26153
 H1532 H 1.02618 0.21753 0.27191
 H1533 H 1.03870 0.25602 0.27565
 H1534 H 1.01906 0.26333 0.26571
 H1535 H 0.98040 0.23606 0.24497
 H1536 H 0.96073 0.22858 0.25441
 H1537 H 0.99249 0.25040 0.28061
 H1538 H 0.98016 0.26912 0.25724
 H1539 H 0.96046 0.27627 0.24746
 H1540 H 0.97377 0.26222 0.21194
 H1541 H 0.99309 0.25448 0.22193
 H1542 H 1.00708 0.28023 0.24129
 H1543 H 1.02643 0.28738 0.23109
 H1544 H 1.03907 0.24878 0.22744
 H1545 H 1.01937 0.24165 0.23723
 H1546 H 0.97322 0.24230 0.29026
 C1547 C 0.50101 0.25554 0.74698
 C1548 C 0.50102 0.24623 0.75575
 C1549 C 0.51296 0.24031 0.76028
 C1550 C 0.48909 0.24147 0.76135
 C1551 C 0.48913 0.26191 0.74288
 C1552 C 0.51286 0.25976 0.74080
 C1553 C 0.51427 0.22716 0.76003
 C1554 C 0.52534 0.22139 0.76439
 C1555 C 0.53533 0.22867 0.76912
 C1556 C 0.53395 0.24186 0.76943
 C1557 C 0.52283 0.24762 0.76515
 C1558 C 0.47923 0.23684 0.75389
 C1559 C 0.46806 0.23247 0.75936
 C1560 C 0.46663 0.23247 0.77241
 C1561 C 0.47664 0.23688 0.77983
 C1562 C 0.48776 0.24131 0.77436
 C1563 C 0.48079 0.26758 0.75144
 C1564 C 0.46962 0.27341 0.74731
 C1565 C 0.46671 0.27383 0.73451
 C1566 C 0.47530 0.26847 0.72597
 C1567 C 0.48635 0.26256 0.73011
 C1568 C 0.51582 0.27262 0.74066
 C1569 C 0.52677 0.27684 0.73472
 C1570 C 0.53500 0.26828 0.72878
 C1571 C 0.53194 0.25540 0.72880
 C1572 C 0.52091 0.25119 0.73467
 H1573 H 0.50671 0.22134 0.75642
 H1574 H 0.52598 0.21121 0.76424
 H1575 H 0.54151 0.24775 0.77292
 H1576 H 0.52193 0.25777 0.76564
 H1577 H 0.48017 0.23666 0.74384
 H1578 H 0.46050 0.22921 0.75338
 H1579 H 0.49532 0.24470 0.78028
 H1580 H 0.48289 0.26744 0.76132
 H1581 H 0.46319 0.27742 0.75412
 H1582 H 0.47353 0.26890 0.71604
 H1583 H 0.49273 0.25839 0.72333
 H1584 H 0.50964 0.27940 0.74518
 H1585 H 0.52868 0.28684 0.73463
 H1586 H 0.53811 0.24856 0.72436
 H1587 H 0.51866 0.24126 0.73443
 H1588 H 0.47595 0.23676 0.78990
 C1589 C -0.00136 0.24818 0.74107
 C1590 C -0.00164 0.25610 0.75100
 C1591 C -0.01384 0.26121 0.75561
 C1592 C 0.01000 0.26014 0.75766
 C1593 C 0.01064 0.24382 0.73521
 C1594 C -0.01329 0.24367 0.73542
 C1595 C -0.01940 0.27167 0.74978
 C1596 C -0.03069 0.27679 0.75438
 C1597 C -0.03671 0.27142 0.76480
 C1598 C -0.03119 0.26072 0.77042
 C1599 C -0.01979 0.25572 0.76591
 C1600 C 0.01214 0.27299 0.75977
 C1601 C 0.02306 0.27696 0.76592
 C1602 C 0.03211 0.26817 0.77013
 C1603 C 0.02984 0.25526 0.76825
 C1604 C 0.01886 0.25128 0.76213
 C1605 C 0.01271 0.23092 0.73319
 C1606 C 0.02389 0.22669 0.72760
 C1607 C 0.03326 0.23527 0.72388
 C1608 C 0.03110 0.24822 0.72573
 C1609 C 0.01986 0.25246 0.73128
 C1610 C -0.01934 0.23301 0.74022
 C1611 C -0.03033 0.22845 0.73457
 C1612 C -0.03561 0.23462 0.72415
 C1613 C -0.02961 0.24552 0.71960
 C1614 C -0.01849 0.24992 0.72511
 H1615 H -0.01485 0.27599 0.74181
 H1616 H -0.03454 0.28512 0.74993
 H1617 H -0.03568 0.25618 0.77829
 H1618 H -0.01563 0.24756 0.77041
 H1619 H 0.00543 0.28000 0.75652
 H1620 H 0.02438 0.28695 0.76744
 H1621 H 0.01729 0.24130 0.76082
 H1622 H 0.00572 0.22408 0.73603
 H1623 H 0.02514 0.21668 0.72607
 H1624 H 0.03815 0.25506 0.72301
 H1625 H 0.01834 0.26248 0.73251
 H1626 H -0.01541 0.22810 0.74819
 H1627 H -0.03451 0.21993 0.73822
 H1628 H -0.03352 0.25068 0.71178
 H1629 H -0.01395 0.25823 0.72139
 H1630 H 0.03665 0.24826 0.77134
 C1631 C 0.49941 0.24310 0.24595
 C1632 C 0.49956 0.25285 0.25424
 C1633 C 0.48772 0.25924 0.25847
 C1634 C 0.51157 0.25749 0.25985
 C1635 C 0.51133 0.23736 0.24107
 C1636 C 0.48737 0.23749 0.24141
 C1637 C 0.47890 0.26418 0.24992
 C1638 C 0.46785 0.27016 0.25415
 C1639 C 0.46550 0.27147 0.26700
 C1640 C 0.47452 0.26678 0.27549
 C1641 C 0.48548 0.26073 0.27127
 C1642 C 0.51431 0.27040 0.25957
 C1643 C 0.52530 0.27500 0.26517
 C1644 C 0.53382 0.26677 0.27119
 C1645 C 0.53103 0.25382 0.27148
 C1646 C 0.51997 0.24925 0.26597
 C1647 C 0.51311 0.22427 0.24174
 C1648 C 0.52423 0.21872 0.23723
 C1649 C 0.53383 0.22614 0.23193
 C1650 C 0.53195 0.23925 0.23113
 C1651 C 0.52077 0.24479 0.23555
 C1652 C 0.47812 0.23312 0.24975
 C1653 C 0.46697 0.22764 0.24530
 C1654 C 0.46495 0.22625 0.23240
 C1655 C 0.47434 0.23045 0.22410
 C1656 C 0.48541 0.23600 0.22856
 H1657 H 0.48057 0.26338 0.23999
 H1658 H 0.46108 0.27362 0.24737
 H1659 H 0.47317 0.26789 0.28544
 H1660 H 0.49221 0.25714 0.27803
 H1661 H 0.50789 0.27695 0.25503
 H1662 H 0.52700 0.28504 0.26499
 H1663 H 0.51792 0.23929 0.26654
 H1664 H 0.50590 0.21835 0.24584
 H1665 H 0.52525 0.20858 0.23777
 H1666 H 0.53917 0.24526 0.22719
 H1667 H 0.51949 0.25488 0.23471
 H1668 H 0.47955 0.23390 0.25972
 H1669 H 0.45991 0.22458 0.25194
 H1670 H 0.47323 0.22929 0.21414
 H1671 H 0.49249 0.23914 0.22196
 H1672 H 0.53741 0.24721 0.27595
 C1673 C 1.00027 0.75359 0.74555
 C1674 C 1.00030 0.74584 0.75569
 C1675 C 1.01228 0.74137 0.76150
 C1676 C 0.98837 0.74137 0.76156
 C1677 C 0.98831 0.75864 0.74015
 C1678 C 1.01217 0.75757 0.73929
 C1679 C 1.01430 0.72842 0.76317
 C1680 C 1.02544 0.72400 0.76868
 C1681 C 1.03480 0.73247 0.77267
 C1682 C 1.03267 0.74547 0.77115
 C1683 C 1.02148 0.74989 0.76568
 C1684 C 0.97898 0.73534 0.75452
 C1685 C 0.96781 0.73126 0.76021
 C1686 C 0.96593 0.73287 0.77311
 C1687 C 0.97547 0.73871 0.78015
 C1688 C 0.98656 0.74290 0.77443
 C1689 C 0.97950 0.76527 0.74750
 C1690 C 0.96828 0.76986 0.74223
 C1691 C 0.96576 0.76809 0.72947
 C1692 C 0.97476 0.76171 0.72210
 C1693 C 0.98591 0.75704 0.72739
 C1694 C 1.01436 0.77043 0.73735
 C1695 C 1.02535 0.77443 0.73136
 C1696 C 1.03444 0.76566 0.72719
 C1697 C 1.03214 0.75274 0.72894
 C1698 C 1.02106 0.74873 0.73488
 H1699 H 1.00725 0.72171 0.76014
 H1700 H 1.02667 0.71395 0.76997
 H1701 H 1.03972 0.75222 0.77409
 H1702 H 1.01999 0.75994 0.76470
 H1703 H 0.98028 0.73381 0.74462
 H1704 H 0.96062 0.72692 0.75447
 H1705 H 0.99375 0.74740 0.78006
 H1706 H 0.98130 0.76684 0.75731
 H1707 H 0.96150 0.77465 0.74817
 H1708 H 0.97325 0.76042 0.71220
 H1709 H 0.99267 0.75210 0.72154
 H1710 H 1.00755 0.77739 0.74053
 H1711 H 1.02666 0.78443 0.72989
 H1712 H 1.03897 0.74576 0.72586
 H1713 H 1.01943 0.73874 0.73603
 H1714 H 0.97446 0.73986 0.79013
 C1715 C 0.49968 0.75322 0.24422
 C1716 C 0.49950 0.74338 0.25239
 C1717 C 0.51138 0.73758 0.25724
 C1718 C 0.48744 0.73779 0.25689
 C1719 C 0.48786 0.75973 0.24018
 C1720 C 0.51168 0.75783 0.23859
 C1721 C 0.51306 0.72447 0.25664
 C1722 C 0.52409 0.71885 0.26126
 C1723 C 0.53370 0.72623 0.26659
 C1724 C 0.53195 0.73937 0.26724
 C1725 C 0.52085 0.74496 0.26274
 C1726 C 0.47821 0.73349 0.24849
 C1727 C 0.46704 0.72803 0.25289
 C1728 C 0.46497 0.72661 0.26577
 C1729 C 0.47433 0.73076 0.27413
 C1730 C 0.48543 0.73628 0.26973
 C1731 C 0.47920 0.76468 0.24888
 C1732 C 0.46810 0.77068 0.24485
 C1733 C 0.46555 0.77197 0.23204
 C1734 C 0.47442 0.76730 0.22339
 C1735 C 0.48544 0.76125 0.22742
 C1736 C 0.51452 0.77072 0.23900
 C1737 C 0.52556 0.77527 0.23345
 C1738 C 0.53400 0.76702 0.22736
 C1739 C 0.53110 0.75410 0.22692
 C1740 C 0.51999 0.74958 0.23238
 H1741 H 0.50582 0.71858 0.25255
 H1742 H 0.52501 0.70870 0.26083
 H1743 H 0.53920 0.74535 0.27116
 H1744 H 0.51965 0.75507 0.26353
 H1745 H 0.47968 0.73431 0.23854
 H1746 H 0.45999 0.72500 0.24622
 H1747 H 0.49250 0.73938 0.27636
 H1748 H 0.48102 0.76384 0.25879
 H1749 H 0.46143 0.77414 0.25173
 H1750 H 0.47288 0.76839 0.21347
 H1751 H 0.49206 0.75764 0.22055
 H1752 H 0.50815 0.77727 0.24360
 H1753 H 0.52736 0.78529 0.23374
 H1754 H 0.53743 0.74748 0.22239
 H1755 H 0.51785 0.73964 0.23172
 H1756 H 0.47316 0.72957 0.28408
 C1757 C 0.00021 0.74639 0.24522
 C1758 C 0.00011 0.75562 0.25407
 C1759 C -0.01189 0.76134 0.25870
 C1760 C 0.01201 0.76047 0.25968
 C1761 C 0.01213 0.74007 0.24113
 C1762 C -0.01162 0.74209 0.23904
 C1763 C -0.01340 0.77448 0.25855
 C1764 C -0.02456 0.78005 0.26293
 C1765 C -0.03446 0.77260 0.26760
 C1766 C -0.03288 0.75943 0.26785
 C1767 C -0.02167 0.75386 0.26354
 C1768 C 0.02182 0.76524 0.25222
 C1769 C 0.03295 0.76970 0.25770
 C1770 C 0.03440 0.76963 0.27074
 C1771 C 0.02444 0.76508 0.27816
 C1772 C 0.01336 0.76057 0.27268
 C1773 C 0.02040 0.73433 0.24972
 C1774 C 0.03150 0.72837 0.24561
 C1775 C 0.03444 0.72789 0.23282
 C1776 C 0.02597 0.73339 0.22426
 C1777 C 0.01496 0.73941 0.22838
 C1778 C -0.01443 0.72920 0.23880
 C1779 C -0.02539 0.72491 0.23295
 C1780 C -0.03382 0.73342 0.22721
 C1781 C -0.03088 0.74634 0.22729
 C1782 C -0.01984 0.75062 0.23306
 H1783 H -0.00592 0.78042 0.25498
 H1784 H -0.02536 0.79022 0.26283
 H1785 H -0.04035 0.75341 0.27130
 H1786 H -0.02061 0.74372 0.26397
 H1787 H 0.02087 0.76546 0.24217
 H1788 H 0.04048 0.77307 0.25172
 H1789 H 0.00585 0.75707 0.27860
 H1790 H 0.01825 0.73448 0.25959
 H1791 H 0.03785 0.72428 0.25244
 H1792 H 0.02777 0.73292 0.21433
 H1793 H 0.00863 0.74362 0.22158
 H1794 H -0.00814 0.72244 0.24321
 H1795 H -0.02720 0.71488 0.23282
 H1796 H -0.03720 0.75314 0.22300
 H1797 H -0.01771 0.76058 0.23289
 H1798 H 0.02515 0.76512 0.28823
 C1799 C 0.49914 0.74447 0.74813
 C1800 C 0.49908 0.75452 0.75595
 C1801 C 0.48706 0.76031 0.76025
 C1802 C 0.51096 0.75914 0.76172
 C1803 C 0.51125 0.73899 0.74370
 C1804 C 0.48726 0.73910 0.74297
 C1805 C 0.48361 0.77245 0.75636
 C1806 C 0.47230 0.77793 0.76049
 C1807 C 0.46417 0.77131 0.76852
 C1808 C 0.46760 0.75903 0.77223
 C1809 C 0.47897 0.75361 0.76817
 C1810 C 0.51580 0.77102 0.75870
 C1811 C 0.52673 0.77548 0.76457
 C1812 C 0.53314 0.76807 0.77347
 C1813 C 0.52835 0.75606 0.77630
 C1814 C 0.51732 0.75170 0.77055
 C1815 C 0.51624 0.72803 0.74913
 C1816 C 0.52759 0.72285 0.74473
 C1817 C 0.53419 0.72861 0.73488
 C1818 C 0.52925 0.73977 0.72967
 C1819 C 0.51786 0.74489 0.73403
 C1820 C 0.48423 0.72646 0.74521
 C1821 C 0.47309 0.72133 0.74043
 C1822 C 0.46468 0.72874 0.73332
 C1823 C 0.46778 0.74140 0.73102
 C1824 C 0.47899 0.74651 0.73575
 H1825 H 0.48956 0.77768 0.75001
 H1826 H 0.47002 0.78742 0.75754
 H1827 H 0.46146 0.75358 0.77823
 H1828 H 0.48147 0.74418 0.77119
 H1829 H 0.51118 0.77687 0.75180
 H1830 H 0.53001 0.78484 0.76227
 H1831 H 0.51370 0.74251 0.77304
 H1832 H 0.51140 0.72351 0.75680
 H1833 H 0.53108 0.71422 0.74889
 H1834 H 0.53423 0.74460 0.72226
 H1835 H 0.51418 0.75346 0.72987
 H1836 H 0.49038 0.72054 0.75077
 H1837 H 0.47112 0.71149 0.74221
 H1838 H 0.46147 0.74741 0.72570
 H1839 H 0.48122 0.75625 0.73378
 H1840 H 0.53313 0.74999 0.78292
 C1841 C 0.39942 0.29340 0.31502
 C1842 C 0.40460 0.29709 0.30343
 C1843 C 0.39892 0.30751 0.29728
 C1844 C 0.38822 0.31358 0.30241
 C1845 C 0.38305 0.30960 0.31380
 C1846 C 0.38888 0.29953 0.32005
 C1847 C 0.40395 0.31184 0.28605
 C1848 C 0.41460 0.30617 0.28082
 C1849 C 0.42057 0.29571 0.28651
 C1850 C 0.41528 0.29090 0.29784
 C1851 C 0.42072 0.27995 0.30313
 C1852 C 0.43118 0.27412 0.29782
 C1853 C 0.43676 0.27895 0.28708
 C1854 C 0.43161 0.28981 0.28124
 C1855 C 0.43785 0.29434 0.27043
 C1856 C 0.44870 0.28834 0.26577
 C1857 C 0.45371 0.27763 0.27164
 C1858 C 0.44755 0.27294 0.28223
 H1859 H 0.40337 0.28592 0.32061
 H1860 H 0.38394 0.32140 0.29744
 H1861 H 0.38541 0.29630 0.32897
 H1862 H 0.39965 0.31978 0.28128
 H1863 H 0.41781 0.31013 0.27214
 H1864 H 0.41700 0.27546 0.31134
 H1865 H 0.43502 0.26574 0.30225
 H1866 H 0.43477 0.30263 0.26549
 H1867 H 0.45335 0.29230 0.25767
 H1868 H 0.45118 0.26452 0.28674
 C1869 C 0.39869 0.79474 0.81663
 C1870 C 0.40388 0.79818 0.80498
 C1871 C 0.39736 0.80746 0.79793
 C1872 C 0.38647 0.81344 0.80275
 C1873 C 0.38152 0.81007 0.81446
 C1874 C 0.38776 0.80053 0.82121
 C1875 C 0.40169 0.81068 0.78607
 C1876 C 0.41225 0.80476 0.78094
 C1877 C 0.41917 0.79556 0.78765
 C1878 C 0.41518 0.79258 0.80005
 C1879 C 0.42276 0.78431 0.80722
 C1880 C 0.43367 0.77886 0.80236
 C1881 C 0.43736 0.78121 0.79012
 C1882 C 0.43011 0.78944 0.78249
 C1883 C 0.43410 0.79109 0.76999
 C1884 C 0.44500 0.78511 0.76547
 C1885 C 0.45233 0.77730 0.77320
 C1886 C 0.44837 0.77538 0.78552
 H1887 H 0.40267 0.78740 0.82237
 H1888 H 0.38176 0.82056 0.79716
 H1889 H 0.38440 0.79747 0.83022
 H1890 H 0.39677 0.81778 0.78062
 H1891 H 0.41495 0.80786 0.77177
 H1892 H 0.42074 0.78210 0.81680
 H1893 H 0.43924 0.77266 0.80827
 H1894 H 0.42891 0.79675 0.76339
 H1895 H 0.44762 0.78652 0.75581
 H1896 H 0.45400 0.76947 0.79165
 C1897 C -0.09773 0.29900 0.81660
 C1898 C -0.09468 0.29994 0.80378
 C1899 C -0.10325 0.30662 0.79599
 C1900 C -0.11415 0.31240 0.80099
 C1901 C -0.11696 0.31138 0.81372
 C1902 C -0.10867 0.30460 0.82142
 C1903 C -0.10097 0.30744 0.78321
 C1904 C -0.09046 0.30161 0.77790
 C1905 C -0.08160 0.29488 0.78523
 C1906 C -0.08354 0.29437 0.79844
 C1907 C -0.07420 0.28847 0.80588
 C1908 C -0.06343 0.28310 0.80064
 C1909 C -0.06160 0.28314 0.78778
 C1910 C -0.07072 0.28885 0.77984
 C1911 C -0.06856 0.28817 0.76682
 C1912 C -0.05768 0.28240 0.76201
 C1913 C -0.04852 0.27714 0.76994
 C1914 C -0.05062 0.27752 0.78284
 H1915 H -0.09202 0.29382 0.82317
 H1916 H -0.12060 0.31745 0.79490
 H1917 H -0.11057 0.30366 0.83129
 H1918 H -0.10746 0.31256 0.77721
 H1919 H -0.08941 0.30281 0.76799
 H1920 H -0.07474 0.28807 0.81589
 H1921 H -0.05647 0.27879 0.80676
 H1922 H -0.07518 0.29181 0.76006
 H1923 H -0.05652 0.28197 0.75199
 H1924 H -0.04358 0.27362 0.78912
 C1925 C -0.10322 0.79164 0.31338
 C1926 C -0.09659 0.79674 0.30311
 C1927 C -0.10141 0.80801 0.29777
 C1928 C -0.11217 0.81402 0.30283
 C1929 C -0.11846 0.80895 0.31320
 C1930 C -0.11389 0.79764 0.31829
 C1931 C -0.09545 0.81326 0.28741
 C1932 C -0.08483 0.80758 0.28216
 C1933 C -0.07957 0.79641 0.28717
 C1934 C -0.08542 0.79102 0.29797
 C1935 C -0.07979 0.78023 0.30338
 C1936 C -0.06893 0.77479 0.29842
 C1937 C -0.06326 0.77975 0.28778
 C1938 C -0.06853 0.79054 0.28190
 C1939 C -0.06248 0.79496 0.27095
 C1940 C -0.05158 0.78907 0.26632
 C1941 C -0.04629 0.77859 0.27236
 C1942 C -0.05226 0.77396 0.28307
 H1943 H -0.10055 0.78293 0.31782
 H1944 H -0.11556 0.82270 0.29868
 H1945 H -0.11856 0.79326 0.32612
 H1946 H -0.09906 0.82188 0.28329
 H1947 H -0.08083 0.81235 0.27425
 H1948 H -0.08340 0.77580 0.31167
 H1949 H -0.06492 0.76657 0.30297
 H1950 H -0.06596 0.80286 0.26565
 H1951 H -0.04734 0.79270 0.25786
 H1952 H -0.04821 0.76593 0.28792
 C1953 C 0.60224 0.70863 0.31288
 C1954 C 0.59557 0.70305 0.30290
 C1955 C 0.60056 0.69174 0.29779
 C1956 C 0.61144 0.68604 0.30295
 C1957 C 0.61771 0.69154 0.31310
 C1958 C 0.61305 0.70297 0.31784
 C1959 C 0.59466 0.68617 0.28757
 C1960 C 0.58399 0.69163 0.28218
 C1961 C 0.57857 0.70282 0.28700
 C1962 C 0.58424 0.70839 0.29778
 C1963 C 0.57823 0.71895 0.30325
 C1964 C 0.56728 0.72411 0.29824
 C1965 C 0.56193 0.71913 0.28746
 C1966 C 0.56753 0.70851 0.28157
 C1967 C 0.56186 0.70413 0.27043
 C1968 C 0.55100 0.70991 0.26559
 C1969 C 0.54537 0.72022 0.27164
 C1970 C 0.55094 0.72475 0.28259
 H1971 H 0.59953 0.71751 0.31696
 H1972 H 0.61495 0.67729 0.29904
 H1973 H 0.61774 0.70773 0.32543
 H1974 H 0.59839 0.67751 0.28362
 H1975 H 0.58003 0.68666 0.27437
 H1976 H 0.58158 0.72333 0.31167
 H1977 H 0.56298 0.73217 0.30283
 H1978 H 0.56568 0.69640 0.26509
 H1979 H 0.54709 0.70637 0.25694
 H1980 H 0.54662 0.73262 0.28747
 C1981 C 0.60381 0.20912 0.81494
 C1982 C 0.59708 0.20396 0.80477
 C1983 C 0.60179 0.19263 0.79948
 C1984 C 0.61256 0.18661 0.80450
 C1985 C 0.61897 0.19175 0.81475
 C1986 C 0.61449 0.20311 0.81980
 C1987 C 0.59575 0.18734 0.78920
 C1988 C 0.58516 0.19308 0.78394
 C1989 C 0.58002 0.20433 0.78890
 C1990 C 0.58592 0.20971 0.79966
 C1991 C 0.58035 0.22053 0.80508
 C1992 C 0.56954 0.22604 0.80010
 C1993 C 0.56387 0.22113 0.78946
 C1994 C 0.56905 0.21029 0.78359
 C1995 C 0.56301 0.20593 0.77262
 C1996 C 0.55221 0.21194 0.76794
 C1997 C 0.54701 0.22249 0.77395
 C1998 C 0.55296 0.22703 0.78470
 H1999 H 0.60122 0.21789 0.81932
 H2000 H 0.61587 0.17788 0.80040
 H2001 H 0.61925 0.20755 0.82754
 H2002 H 0.59928 0.17866 0.78511
 H2003 H 0.58109 0.18829 0.77607
 H2004 H 0.58397 0.22492 0.81337
 H2005 H 0.56559 0.23430 0.80465
 H2006 H 0.56644 0.19799 0.76733
 H2007 H 0.54797 0.20837 0.75946
 H2008 H 0.54897 0.23509 0.78954
 C2009 C 1.10176 0.68430 0.79334
 C2010 C 1.09626 0.69590 0.79709
 C2011 C 1.10184 0.70221 0.80734
 C2012 C 1.11253 0.69715 0.81335
 C2013 C 1.11789 0.68568 0.80949
 C2014 C 1.11235 0.67933 0.79944
 C2015 C 1.09675 0.71356 0.81159
 C2016 C 1.08608 0.71878 0.80603
 C2017 C 1.08007 0.71289 0.79584
 C2018 C 1.08540 0.70139 0.79113
 C2019 C 1.07975 0.69581 0.78057
 C2020 C 1.06912 0.70107 0.77497
 C2021 C 1.06360 0.71203 0.77967
 C2022 C 1.06894 0.71813 0.79017
 C2023 C 1.06277 0.72914 0.79462
 C2024 C 1.05184 0.73380 0.78888
 C2025 C 1.04664 0.72770 0.77852
 C2026 C 1.05266 0.71686 0.77392
 H2027 H 1.09805 0.67870 0.78583
 H2028 H 1.11663 0.70225 0.82108
 H2029 H 1.11612 0.67040 0.79624
 H2030 H 1.10102 0.71845 0.81939
 H2031 H 1.08286 0.72757 0.80993
 H2032 H 1.08335 0.68736 0.77628
 H2033 H 1.06511 0.69641 0.76690
 H2034 H 1.06598 0.73431 0.80264
 H2035 H 1.04727 0.74207 0.79276
 H2036 H 1.04882 0.71216 0.76579
 C2037 C 1.09954 0.18724 0.29660
 C2038 C 1.09475 0.19927 0.29983
 C2039 C 1.10069 0.20572 0.30980
 C2040 C 1.11135 0.20048 0.31581
 C2041 C 1.11618 0.18868 0.31222
 C2042 C 1.11002 0.18211 0.30268
 C2043 C 1.09596 0.21735 0.31373
 C2044 C 1.08532 0.22267 0.30813
 C2045 C 1.07912 0.21667 0.29810
 C2046 C 1.08419 0.20498 0.29363
 C2047 C 1.07866 0.19945 0.28298
 C2048 C 1.06823 0.20484 0.27719
 C2049 C 1.06278 0.21587 0.28178
 C2050 C 1.06809 0.22200 0.29229
 C2051 C 1.06198 0.23310 0.29660
 C2052 C 1.05109 0.23778 0.29074
 C2053 C 1.04592 0.23160 0.28040
 C2054 C 1.05196 0.22074 0.27590
 H2055 H 1.09529 0.18138 0.28958
 H2056 H 1.11589 0.20568 0.32324
 H2057 H 1.11318 0.17284 0.29984
 H2058 H 1.10045 0.22236 0.32132
 H2059 H 1.08232 0.23165 0.31177
 H2060 H 1.08230 0.19102 0.27868
 H2061 H 1.06429 0.20022 0.26906
 H2062 H 1.06517 0.23826 0.30464
 H2063 H 1.04652 0.24610 0.29452
 H2064 H 1.04818 0.21600 0.26777
 C2065 C 0.60307 0.31393 0.70772
 C2066 C 0.59661 0.30319 0.70325
 C2067 C 0.60097 0.29772 0.69197
 C2068 C 0.61147 0.30274 0.68566
 C2069 C 0.61783 0.31333 0.69027
 C2070 C 0.61345 0.31886 0.70134
 C2071 C 0.59484 0.28728 0.68699
 C2072 C 0.58432 0.28218 0.69283
 C2073 C 0.57951 0.28728 0.70405
 C2074 C 0.58594 0.29777 0.70951
 C2075 C 0.58155 0.30245 0.72106
 C2076 C 0.57111 0.29728 0.72697
 C2077 C 0.56450 0.28735 0.72159
 C2078 C 0.56853 0.28219 0.71005
 C2079 C 0.56127 0.27225 0.70495
 C2080 C 0.55054 0.26772 0.71107
 C2081 C 0.54665 0.27285 0.72248
 C2082 C 0.55378 0.28261 0.72772
 H2083 H 0.60029 0.31889 0.71604
 H2084 H 0.61460 0.29835 0.67708
 H2085 H 0.61800 0.32707 0.70520
 H2086 H 0.59818 0.28301 0.67840
 H2087 H 0.58025 0.27410 0.68833
 H2088 H 0.58605 0.31007 0.72594
 H2089 H 0.56810 0.30120 0.73583
 H2090 H 0.56344 0.26790 0.69614
 H2091 H 0.54511 0.26033 0.70668
 H2092 H 0.55099 0.28654 0.73664
 C2093 C 0.60218 0.81337 0.20781
 C2094 C 0.59577 0.80268 0.20313
 C2095 C 0.60032 0.79732 0.19187
 C2096 C 0.61094 0.80236 0.18579
 C2097 C 0.61725 0.81289 0.19060
 C2098 C 0.61270 0.81833 0.20165
 C2099 C 0.59428 0.78694 0.18668
 C2100 C 0.58365 0.78180 0.19228
 C2101 C 0.57865 0.78678 0.20346
 C2102 C 0.58499 0.79721 0.20914
 C2103 C 0.58040 0.80173 0.22069
 C2104 C 0.56988 0.79645 0.22639
 C2105 C 0.56338 0.78656 0.22079
 C2106 C 0.56759 0.78161 0.20922
 C2107 C 0.56041 0.77176 0.20385
 C2108 C 0.54965 0.76706 0.20977
 C2109 C 0.54563 0.77191 0.22125
 C2110 C 0.55261 0.78165 0.22672
 H2111 H 0.59926 0.81825 0.21613
 H2112 H 0.61420 0.79801 0.17724
 H2113 H 0.61722 0.82650 0.20563
 H2114 H 0.59777 0.78276 0.17811
 H2115 H 0.57968 0.77376 0.18763
 H2116 H 0.58482 0.80930 0.22571
 H2117 H 0.56674 0.80024 0.23526
 H2118 H 0.56266 0.76761 0.19496
 H2119 H 0.54431 0.75973 0.20517
 H2120 H 0.54969 0.78542 0.23568
 C2121 C 1.10126 0.31555 0.20652
 C2122 C 1.09567 0.30402 0.20290
 C2123 C 1.10110 0.29757 0.19262
 C2124 C 1.11178 0.30242 0.18647
 C2125 C 1.11728 0.31380 0.19026
 C2126 C 1.11184 0.32029 0.20032
 C2127 C 1.09587 0.28629 0.18849
 C2128 C 1.08525 0.28126 0.19423
 C2129 C 1.07943 0.28728 0.20451
 C2130 C 1.08487 0.29874 0.20906
 C2131 C 1.07938 0.30449 0.21965
 C2132 C 1.06881 0.29945 0.22544
 C2133 C 1.06319 0.28852 0.22093
 C2134 C 1.06838 0.28223 0.21043
 C2135 C 1.06216 0.27120 0.20625
 C2136 C 1.05129 0.26677 0.21222
 C2137 C 1.04620 0.27310 0.22253
 C2138 C 1.05232 0.28392 0.22689
 H2139 H 1.09765 0.32127 0.21402
 H2140 H 1.11581 0.29722 0.17873
 H2141 H 1.11568 0.32916 0.20346
 H2142 H 1.10000 0.28130 0.18065
 H2143 H 1.08189 0.27253 0.19040
 H2144 H 1.08308 0.31291 0.22383
 H2145 H 1.06492 0.30424 0.23352
 H2146 H 1.06529 0.26585 0.19829
 H2147 H 1.04667 0.25847 0.20854
 H2148 H 1.04860 0.28880 0.23500
 C2149 C 1.09950 0.81401 0.70404
 C2150 C 1.09475 0.80200 0.70092
 C2151 C 1.10063 0.79546 0.69093
 C2152 C 1.11124 0.80058 0.68481
 C2153 C 1.11608 0.81234 0.68834
 C2154 C 1.10993 0.81902 0.69788
 C2155 C 1.09589 0.78386 0.68709
 C2156 C 1.08532 0.77864 0.69283
 C2157 C 1.07921 0.78471 0.70291
 C2158 C 1.08427 0.79639 0.70727
 C2159 C 1.07884 0.80199 0.71796
 C2160 C 1.06851 0.79670 0.72391
 C2161 C 1.06306 0.78569 0.71943
 C2162 C 1.06827 0.77948 0.70888
 C2163 C 1.06215 0.76840 0.70470
 C2164 C 1.05134 0.76384 0.71071
 C2165 C 1.04626 0.77010 0.72109
 C2166 C 1.05233 0.78093 0.72547
 H2167 H 1.09526 0.81995 0.71105
 H2168 H 1.11576 0.79532 0.67737
 H2169 H 1.11307 0.82828 0.70064
 H2170 H 1.10033 0.77878 0.67947
 H2171 H 1.08231 0.76966 0.68926
 H2172 H 1.08250 0.81042 0.72218
 H2173 H 1.06466 0.80138 0.73207
 H2174 H 1.06528 0.76318 0.69665
 H2175 H 1.04675 0.75554 0.70702
 H2176 H 1.04864 0.78573 0.73363
 C2177 C 0.39927 0.70725 0.68401
 C2178 C 0.40425 0.70390 0.69583
 C2179 C 0.39783 0.69443 0.70263
 C2180 C 0.38708 0.68850 0.69765
 C2181 C 0.38236 0.69184 0.68588
 C2182 C 0.38856 0.70131 0.67917
 C2183 C 0.40215 0.69086 0.71439
 C2184 C 0.41271 0.69649 0.71965
 C2185 C 0.41950 0.70595 0.71330
 C2186 C 0.41531 0.70960 0.70112
 C2187 C 0.42241 0.71871 0.69457
 C2188 C 0.43320 0.72405 0.69969
 C2189 C 0.43732 0.72072 0.71159
 C2190 C 0.43047 0.71175 0.71866
 C2191 C 0.43493 0.70898 0.73082
 C2192 C 0.44584 0.71461 0.73552
 C2193 C 0.45277 0.72319 0.72836
 C2194 C 0.44835 0.72628 0.71641
 H2195 H 0.40335 0.71446 0.67824
 H2196 H 0.38236 0.68132 0.70307
 H2197 H 0.38523 0.70416 0.67006
 H2198 H 0.39731 0.68359 0.71962
 H2199 H 0.41540 0.69302 0.72871
 H2200 H 0.42000 0.72183 0.68532
 H2201 H 0.43838 0.73091 0.69424
 H2202 H 0.43018 0.70259 0.73703
 H2203 H 0.44882 0.71227 0.74491
 H2204 H 0.45364 0.73285 0.71072
 C2205 C 0.39905 0.20537 0.18383
 C2206 C 0.40412 0.20171 0.19550
 C2207 C 0.39819 0.19158 0.20180
 C2208 C 0.38744 0.18571 0.19670
 C2209 C 0.38242 0.18963 0.18521
 C2210 C 0.38844 0.19945 0.17884
 C2211 C 0.40302 0.18733 0.21315
 C2212 C 0.41369 0.19280 0.21840
 C2213 C 0.41994 0.20294 0.21255
 C2214 C 0.41490 0.20765 0.20105
 C2215 C 0.42071 0.21824 0.19554
 C2216 C 0.43124 0.22385 0.20086
 C2217 C 0.43652 0.21914 0.21182
 C2218 C 0.43101 0.20862 0.21786
 C2219 C 0.43694 0.20418 0.22888
 C2220 C 0.44781 0.20994 0.23360
 C2221 C 0.45316 0.22034 0.22758
 C2222 C 0.44736 0.22492 0.21672
 H2223 H 0.40313 0.21268 0.17818
 H2224 H 0.38301 0.17810 0.20177
 H2225 H 0.38505 0.20264 0.16987
 H2226 H 0.39852 0.17961 0.21804
 H2227 H 0.41671 0.18891 0.22718
 H2228 H 0.41726 0.22259 0.18713
 H2229 H 0.43535 0.23195 0.19626
 H2230 H 0.43359 0.19613 0.23400
 H2231 H 0.45219 0.20605 0.24189
 H2232 H 0.45127 0.23308 0.21206
 C2233 C -0.10171 0.68702 0.20760
 C2234 C -0.09562 0.69795 0.20307
 C2235 C -0.10043 0.70345 0.19198
 C2236 C -0.11106 0.69832 0.18596
 C2237 C -0.11706 0.68756 0.19066
 C2238 C -0.11219 0.68198 0.20151
 C2239 C -0.09461 0.71403 0.18692
 C2240 C -0.08396 0.71922 0.19248
 C2241 C -0.07875 0.71410 0.20351
 C2242 C -0.08488 0.70348 0.20907
 C2243 C -0.08015 0.69883 0.22050
 C2244 C -0.06963 0.70409 0.22616
 C2245 C -0.06328 0.71411 0.22065
 C2246 C -0.06767 0.71928 0.20924
 C2247 C -0.06064 0.72931 0.20400
 C2248 C -0.04980 0.73393 0.20986
 C2249 C -0.04556 0.72878 0.22115
 C2250 C -0.05246 0.71893 0.22652
 H2251 H -0.09854 0.68197 0.21573
 H2252 H -0.11458 0.70276 0.17755
 H2253 H -0.11641 0.67361 0.20541
 H2254 H -0.09827 0.71834 0.17848
 H2255 H -0.08013 0.72740 0.18794
 H2256 H -0.08446 0.69116 0.22548
 H2257 H -0.06636 0.70017 0.23493
 H2258 H -0.06308 0.73366 0.19525
 H2259 H -0.04455 0.74140 0.20538
 H2260 H -0.04941 0.71498 0.23535
 C2261 C -0.10763 0.19308 0.70789
 C2262 C -0.09930 0.20131 0.70154
 C2263 C -0.10145 0.20334 0.68864
 C2264 C -0.11175 0.19769 0.68258
 C2265 C -0.11981 0.18952 0.68900
 C2266 C -0.11763 0.18724 0.70167
 C2267 C -0.09322 0.21086 0.68178
 C2268 C -0.08262 0.21615 0.68731
 C2269 C -0.07998 0.21437 0.70009
 C2270 C -0.08877 0.20731 0.70744
 C2271 C -0.08681 0.20662 0.72044
 C2272 C -0.07640 0.21224 0.72603
 C2273 C -0.06737 0.21851 0.71890
 C2274 C -0.06892 0.21955 0.70581
 C2275 C -0.05916 0.22551 0.69898
 C2276 C -0.04849 0.23036 0.70494
 C2277 C -0.04714 0.22958 0.71792
 C2278 C -0.05671 0.22367 0.72483
 H2279 H -0.10651 0.19069 0.71759
 H2280 H -0.11326 0.19934 0.67271
 H2281 H -0.12374 0.18096 0.70685
 H2282 H -0.09487 0.21253 0.67193
 H2283 H -0.07680 0.22184 0.68132
 H2284 H -0.09332 0.20201 0.72665
 H2285 H -0.07532 0.21148 0.73605
 H2286 H -0.05927 0.22627 0.68897
 H2287 H -0.04113 0.23451 0.69926
 H2288 H -0.05591 0.22306 0.73488
 C2289 C 0.29547 0.40018 0.31466
 C2290 C 0.29886 0.40499 0.30285
 C2291 C 0.30903 0.39906 0.29645
 C2292 C 0.31498 0.38827 0.30148
 C2293 C 0.31113 0.38336 0.31302
 C2294 C 0.30149 0.38962 0.31959
 C2295 C 0.31320 0.40393 0.28510
 C2296 C 0.30764 0.41468 0.28002
 C2297 C 0.29735 0.42082 0.28595
 C2298 C 0.29262 0.41559 0.29732
 C2299 C 0.28162 0.42095 0.30269
 C2300 C 0.27576 0.43140 0.29749
 C2301 C 0.28065 0.43704 0.28682
 C2302 C 0.29152 0.43191 0.28086
 C2303 C 0.29613 0.43826 0.27017
 C2304 C 0.29020 0.44918 0.26571
 C2305 C 0.27946 0.45414 0.27169
 C2306 C 0.27468 0.44787 0.28215
 H2307 H 0.28839 0.40451 0.32051
 H2308 H 0.32254 0.38369 0.29632
 H2309 H 0.29851 0.38646 0.32870
 H2310 H 0.32097 0.39946 0.28013
 H2311 H 0.31146 0.41781 0.27124
 H2312 H 0.27706 0.41712 0.31081
 H2313 H 0.26735 0.43519 0.30197
 H2314 H 0.30448 0.43522 0.26520
 H2315 H 0.29421 0.45392 0.25770
 H2316 H 0.26622 0.45144 0.28672
 C2317 C 0.29294 -0.10180 0.81189
 C2318 C 0.29786 -0.09598 0.80111
 C2319 C 0.30930 -0.10088 0.79610
 C2320 C 0.31516 -0.11155 0.80144
 C2321 C 0.30999 -0.11741 0.81204
 C2322 C 0.29885 -0.11224 0.81718
 C2323 C 0.31486 -0.09506 0.78582
 C2324 C 0.30947 -0.08434 0.78052
 C2325 C 0.29804 -0.07914 0.78514
 C2326 C 0.29192 -0.08534 0.79533
 C2327 C 0.27997 -0.08083 0.79931
 C2328 C 0.27441 -0.07031 0.79393
 C2329 C 0.28053 -0.06377 0.78446
 C2330 C 0.29242 -0.06802 0.77988
 C2331 C 0.29823 -0.06082 0.77036
 C2332 C 0.29244 -0.04991 0.76569
 C2333 C 0.28070 -0.04581 0.77031
 C2334 C 0.27476 -0.05291 0.77960
 H2335 H 0.28463 -0.09840 0.81669
 H2336 H 0.32382 -0.11513 0.79732
 H2337 H 0.29447 -0.11617 0.82540
 H2338 H 0.32360 -0.09875 0.78189
 H2339 H 0.31441 -0.08046 0.77264
 H2340 H 0.27446 -0.08535 0.80645
 H2341 H 0.26524 -0.06719 0.79734
 H2342 H 0.30736 -0.06317 0.76649
 H2343 H 0.29734 -0.04451 0.75863
 H2344 H 0.26557 -0.04996 0.78310
 C2345 C 0.79331 0.39882 0.81346
 C2346 C 0.79773 0.40437 0.80232
 C2347 C 0.80874 0.39911 0.79676
 C2348 C 0.81470 0.38844 0.80198
 C2349 C 0.81001 0.38283 0.81294
 C2350 C 0.79930 0.38832 0.81859
 C2351 C 0.81378 0.40455 0.78602
 C2352 C 0.80823 0.41520 0.78073
 C2353 C 0.79720 0.42074 0.78586
 C2354 C 0.79168 0.41502 0.79665
 C2355 C 0.78019 0.42002 0.80133
 C2356 C 0.77449 0.43048 0.79597
 C2357 C 0.77999 0.43647 0.78579
 C2358 C 0.79141 0.43176 0.78054
 C2359 C 0.79657 0.43839 0.77027
 C2360 C 0.79062 0.44919 0.76554
 C2361 C 0.77936 0.45376 0.77083
 C2362 C 0.77406 0.44724 0.78089
 H2363 H 0.78534 0.40243 0.81862
 H2364 H 0.82302 0.38459 0.79744
 H2365 H 0.79533 0.38462 0.82711
 H2366 H 0.82219 0.40059 0.78168
 H2367 H 0.81276 0.41875 0.77246
 H2368 H 0.77516 0.41596 0.80906
 H2369 H 0.76569 0.43398 0.79993
 H2370 H 0.80530 0.43565 0.76581
 H2371 H 0.79503 0.45414 0.75787
 H2372 H 0.76523 0.45055 0.78494
 C2373 C 0.79367 -0.10131 0.31405
 C2374 C 0.79780 -0.09598 0.30271
 C2375 C 0.80875 -0.10125 0.29704
 C2376 C 0.81486 -0.11182 0.30233
 C2377 C 0.81041 -0.11723 0.31348
 C2378 C 0.79982 -0.11165 0.31926
 C2379 C 0.81356 -0.09590 0.28615
 C2380 C 0.80788 -0.08532 0.28085
 C2381 C 0.79689 -0.07980 0.28609
 C2382 C 0.79154 -0.08550 0.29697
 C2383 C 0.78000 -0.08065 0.30168
 C2384 C 0.77417 -0.07026 0.29637
 C2385 C 0.77958 -0.06418 0.28619
 C2386 C 0.79098 -0.06882 0.28083
 C2387 C 0.79601 -0.06211 0.27053
 C2388 C 0.79001 -0.05126 0.26596
 C2389 C 0.77882 -0.04673 0.27144
 C2390 C 0.77360 -0.05340 0.28144
 H2391 H 0.78584 -0.09757 0.31935
 H2392 H 0.82312 -0.11572 0.29770
 H2393 H 0.79606 -0.11517 0.32795
 H2394 H 0.82192 -0.09986 0.28172
 H2395 H 0.81225 -0.08180 0.27248
 H2396 H 0.77503 -0.08482 0.30939
 H2397 H 0.76536 -0.06685 0.30037
 H2398 H 0.80470 -0.06482 0.26597
 H2399 H 0.79433 -0.04623 0.25829
 H2400 H 0.76480 -0.05013 0.28560
 C2401 C 0.31459 0.60214 0.70785
 C2402 C 0.30377 0.59571 0.70341
 C2403 C 0.29801 0.60031 0.69236
 C2404 C 0.30284 0.61096 0.68624
 C2405 C 0.31352 0.61728 0.69082
 C2406 C 0.31932 0.61268 0.70167
 C2407 C 0.28746 0.59424 0.68743
 C2408 C 0.28252 0.58359 0.69309
 C2409 C 0.28790 0.57856 0.70409
 C2410 C 0.29855 0.58487 0.70947
 C2411 C 0.30357 0.58019 0.72077
 C2412 C 0.29860 0.56959 0.72649
 C2413 C 0.28849 0.56313 0.72120
 C2414 C 0.28297 0.56746 0.70992
 C2415 C 0.27282 0.56037 0.70492
 C2416 C 0.26845 0.54952 0.71086
 C2417 C 0.27397 0.54532 0.72200
 C2418 C 0.28394 0.55227 0.72714
 H2419 H 0.31976 0.59923 0.71602
 H2420 H 0.29821 0.61426 0.67784
 H2421 H 0.32761 0.61720 0.70550
 H2422 H 0.28297 0.59775 0.67901
 H2423 H 0.27435 0.57958 0.68863
 H2424 H 0.31135 0.58455 0.72557
 H2425 H 0.30281 0.56636 0.73515
 H2426 H 0.26815 0.56279 0.69632
 H2427 H 0.26088 0.54424 0.70655
 H2428 H 0.28817 0.54925 0.73586
 C2429 C 0.29286 1.10199 0.18726
 C2430 C 0.29816 1.09576 0.19769
 C2431 C 0.30923 1.10100 0.20305
 C2432 C 0.31489 1.11175 0.19782
 C2433 C 0.30964 1.11764 0.18729
 C2434 C 0.29850 1.11266 0.18219
 C2435 C 0.31462 1.09546 0.21359
 C2436 C 0.30925 1.08489 0.21903
 C2437 C 0.29828 1.07924 0.21402
 C2438 C 0.29281 1.08461 0.20300
 C2439 C 0.28231 1.07853 0.19754
 C2440 C 0.27719 1.06773 0.20271
 C2441 C 0.28217 1.06257 0.21360
 C2442 C 0.29270 1.06827 0.21952
 C2443 C 0.29713 1.06275 0.23073
 C2444 C 0.29150 1.05194 0.23562
 C2445 C 0.28128 1.04622 0.22957
 C2446 C 0.27665 1.05166 0.21856
 H2447 H 0.28424 1.09900 0.18282
 H2448 H 0.32343 1.11548 0.20198
 H2449 H 0.29397 1.11699 0.17424
 H2450 H 0.32310 1.09939 0.21773
 H2451 H 0.31410 1.08122 0.22709
 H2452 H 0.27790 1.08174 0.18906
 H2453 H 0.26918 1.06337 0.19811
 H2454 H 0.30483 1.06660 0.23608
 H2455 H 0.29511 1.04813 0.24430
 H2456 H 0.26883 1.04727 0.21369
 C2457 C 0.81212 0.60136 0.20636
 C2458 C 0.80077 0.59569 0.20227
 C2459 C 0.79498 0.60061 0.19136
 C2460 C 0.80018 0.61111 0.18520
 C2461 C 0.81131 0.61679 0.18958
 C2462 C 0.81723 0.61166 0.20014
 C2463 C 0.78406 0.59502 0.18665
 C2464 C 0.77882 0.58452 0.19239
 C2465 C 0.78418 0.57930 0.20332
 C2466 C 0.79511 0.58522 0.20854
 C2467 C 0.79994 0.58062 0.21995
 C2468 C 0.79459 0.57034 0.22587
 C2469 C 0.78430 0.56412 0.22065
 C2470 C 0.77892 0.56842 0.20930
 C2471 C 0.76861 0.56153 0.20437
 C2472 C 0.76393 0.55089 0.21049
 C2473 C 0.76929 0.54674 0.22173
 C2474 C 0.77942 0.55352 0.22678
 H2475 H 0.81748 0.59796 0.21422
 H2476 H 0.79551 0.61482 0.17698
 H2477 H 0.82595 0.61550 0.20373
 H2478 H 0.77954 0.59874 0.17834
 H2479 H 0.77038 0.58084 0.18812
 H2480 H 0.80777 0.58489 0.22475
 H2481 H 0.79866 0.56716 0.23461
 H2482 H 0.76409 0.56392 0.19568
 H2483 H 0.75625 0.54572 0.20623
 H2484 H 0.78355 0.55055 0.23556
 C2485 C 0.81193 1.10231 0.70780
 C2486 C 0.80141 1.09571 0.70288
 C2487 C 0.79634 1.09999 0.69139
 C2488 C 0.80160 1.11038 0.68521
 C2489 C 0.81205 1.11674 0.69016
 C2490 C 0.81713 1.11259 0.70152
 C2491 C 0.78606 1.09387 0.68603
 C2492 C 0.78072 1.08343 0.69169
 C2493 C 0.78545 1.07865 0.70307
 C2494 C 0.79584 1.08501 0.70887
 C2495 C 0.80030 1.08046 0.72045
 C2496 C 0.79495 1.07001 0.72610
 C2497 C 0.78501 1.06357 0.72047
 C2498 C 0.78011 1.06773 0.70886
 C2499 C 0.77013 1.06067 0.70351
 C2500 C 0.76529 1.05005 0.70946
 C2501 C 0.77013 1.04605 0.72096
 C2502 C 0.77999 1.05291 0.72641
 H2503 H 0.81646 1.09976 0.71643
 H2504 H 0.79760 1.11336 0.67639
 H2505 H 0.82513 1.11733 0.70568
 H2506 H 0.78209 1.09715 0.67728
 H2507 H 0.77280 1.07936 0.68687
 H2508 H 0.80794 1.08480 0.72548
 H2509 H 0.79873 1.06687 0.73499
 H2510 H 0.76594 1.06294 0.69464
 H2511 H 0.75785 1.04480 0.70488
 H2512 H 0.78374 1.05000 0.73537
 C2513 C 0.70771 0.60346 0.31538
 C2514 C 0.70252 0.59707 0.30502
 C2515 C 0.69146 0.60227 0.29949
 C2516 C 0.68575 0.61319 0.30442
 C2517 C 0.69092 0.61929 0.31483
 C2518 C 0.70200 0.61431 0.32015
 C2519 C 0.68610 0.59655 0.28907
 C2520 C 0.69150 0.58581 0.28389
 C2521 C 0.70249 0.58020 0.28904
 C2522 C 0.70794 0.58578 0.29994
 C2523 C 0.71851 0.57979 0.30549
 C2524 C 0.72370 0.56885 0.30054
 C2525 C 0.71870 0.56347 0.28978
 C2526 C 0.70811 0.56909 0.28378
 C2527 C 0.70366 0.56334 0.27271
 C2528 C 0.70932 0.55240 0.26804
 C2529 C 0.71962 0.54677 0.27417
 C2530 C 0.72427 0.55242 0.28503
 H2531 H 0.71627 0.60045 0.31999
 H2532 H 0.67724 0.61688 0.30009
 H2533 H 0.70642 0.61878 0.32808
 H2534 H 0.67762 0.60045 0.28483
 H2535 H 0.68666 0.58201 0.27592
 H2536 H 0.72295 0.58318 0.31386
 H2537 H 0.73177 0.56457 0.30518
 H2538 H 0.69591 0.56709 0.26731
 H2539 H 0.70570 0.54841 0.25947
 H2540 H 0.73216 0.54811 0.28994
 C2541 C 0.70702 1.10235 0.81413
 C2542 C 0.70193 1.09644 0.80347
 C2543 C 0.69123 1.10216 0.79778
 C2544 C 0.68571 1.11311 0.80288
 C2545 C 0.69073 1.11876 0.81365
 C2546 C 0.70154 1.11322 0.81907
 C2547 C 0.68607 1.09693 0.78700
 C2548 C 0.69132 1.08618 0.78167
 C2549 C 0.70192 1.08005 0.78703
 C2550 C 0.70715 1.08512 0.79826
 C2551 C 0.71728 1.07862 0.80403
 C2552 C 0.72231 1.06769 0.79894
 C2553 C 0.71758 1.06281 0.78785
 C2554 C 0.70739 1.06891 0.78164
 C2555 C 0.70316 1.06360 0.77027
 C2556 C 0.70871 1.05264 0.76548
 C2557 C 0.71864 1.04658 0.77179
 C2558 C 0.72301 1.05176 0.78298
 H2559 H 0.71536 1.09896 0.81887
 H2560 H 0.67748 1.11717 0.79835
 H2561 H 0.70596 1.11716 0.82726
 H2562 H 0.67787 1.10123 0.78259
 H2563 H 0.68668 1.08279 0.77340
 H2564 H 0.72148 1.08158 0.81268
 H2565 H 0.73006 1.06301 0.80375
 H2566 H 0.69571 1.06772 0.76474
 H2567 H 0.70529 1.04898 0.75668
 H2568 H 0.73059 1.04709 0.78804
 C2569 C 0.21047 0.60130 0.81493
 C2570 C 0.20569 0.59481 0.80442
 C2571 C 0.19449 0.59960 0.79883
 C2572 C 0.18830 0.61025 0.80376
 C2573 C 0.19309 0.61648 0.81427
 C2574 C 0.20427 0.61189 0.81972
 C2575 C 0.18945 0.59374 0.78833
 C2576 C 0.19530 0.58323 0.78316
 C2577 C 0.20645 0.57802 0.78837
 C2578 C 0.21164 0.58381 0.79929
 C2579 C 0.22250 0.57831 0.80478
 C2580 C 0.22814 0.56759 0.79983
 C2581 C 0.22332 0.56194 0.78914
 C2582 C 0.21248 0.56710 0.78315
 C2583 C 0.20818 0.56106 0.77217
 C2584 C 0.21421 0.55028 0.76759
 C2585 C 0.22474 0.54510 0.77371
 C2586 C 0.22928 0.55106 0.78446
 H2587 H 0.21904 0.59856 0.81966
 H2588 H 0.17971 0.61362 0.79935
 H2589 H 0.20837 0.61645 0.82776
 H2590 H 0.18087 0.59734 0.78402
 H2591 H 0.19068 0.57931 0.77511
 H2592 H 0.22686 0.58195 0.81309
 H2593 H 0.23642 0.56368 0.80445
 H2594 H 0.20024 0.56444 0.76680
 H2595 H 0.21066 0.54604 0.75911
 H2596 H 0.23735 0.54708 0.78935
 C2597 C 0.18790 1.10217 0.29339
 C2598 C 0.19877 1.09595 0.29812
 C2599 C 0.20410 1.10062 0.30932
 C2600 C 0.19885 1.11122 0.31528
 C2601 C 0.18814 1.11735 0.31039
 C2602 C 0.18274 1.11265 0.29941
 C2603 C 0.21463 1.09469 0.31458
 C2604 C 0.21994 1.08406 0.30910
 C2605 C 0.21499 1.07897 0.29797
 C2606 C 0.20444 1.08521 0.29221
 C2607 C 0.19999 1.08059 0.28067
 C2608 C 0.20542 1.07009 0.27509
 C2609 C 0.21538 1.06364 0.28079
 C2610 C 0.22030 1.06790 0.29234
 C2611 C 0.23024 1.06077 0.29781
 C2612 C 0.23507 1.05001 0.29199
 C2613 C 0.23023 1.04594 0.28054
 C2614 C 0.22041 1.05288 0.27497
 H2615 H 0.18300 1.09914 0.28513
 H2616 H 0.20314 1.11460 0.32380
 H2617 H 0.17444 1.11702 0.29535
 H2618 H 0.21880 1.09827 0.32310
 H2619 H 0.22808 1.08016 0.31378
 H2620 H 0.19239 1.08497 0.27556
 H2621 H 0.20167 1.06691 0.26622
 H2622 H 0.23436 1.06307 0.30670
 H2623 H 0.24247 1.04469 0.29665
 H2624 H 0.21667 1.04992 0.26603
 C2625 C 0.70825 0.39863 0.68347
 C2626 C 0.70412 0.40433 0.69470
 C2627 C 0.69339 0.39910 0.70069
 C2628 C 0.68732 0.38848 0.69570
 C2629 C 0.69162 0.38287 0.68462
 C2630 C 0.70211 0.38813 0.67857
 C2631 C 0.68872 0.40448 0.71163
 C2632 C 0.69431 0.41510 0.71671
 C2633 C 0.70499 0.42074 0.71112
 C2634 C 0.71017 0.41507 0.70010
 C2635 C 0.72129 0.42025 0.69492
 C2636 C 0.72699 0.43076 0.70010
 C2637 C 0.72183 0.43665 0.71054
 C2638 C 0.71073 0.43180 0.71621
 C2639 C 0.70579 0.43837 0.72666
 C2640 C 0.71167 0.44918 0.73122
 C2641 C 0.72268 0.45384 0.72561
 C2642 C 0.72772 0.44744 0.71530
 H2643 H 0.71609 0.40212 0.67808
 H2644 H 0.67922 0.38463 0.70054
 H2645 H 0.70565 0.38422 0.66994
 H2646 H 0.68056 0.40048 0.71629
 H2647 H 0.69009 0.41856 0.72519
 H2648 H 0.72599 0.41632 0.68690
 H2649 H 0.73552 0.43438 0.69578
 H2650 H 0.69727 0.43558 0.73141
 H2651 H 0.70741 0.45405 0.73905
 H2652 H 0.73633 0.45084 0.71097
 C2653 C 0.70774 -0.10177 0.18459
 C2654 C 0.70358 -0.09625 0.19591
 C2655 C 0.69299 -0.10176 0.20190
 C2656 C 0.68704 -0.11238 0.19680
 C2657 C 0.69132 -0.11777 0.18561
 C2658 C 0.70171 -0.11229 0.17958
 C2659 C 0.68834 -0.09665 0.21297
 C2660 C 0.69383 -0.08608 0.21822
 C2661 C 0.70436 -0.08016 0.21265
 C2662 C 0.70946 -0.08546 0.20142
 C2663 C 0.72030 -0.07985 0.19611
 C2664 C 0.72585 -0.06932 0.20141
 C2665 C 0.72082 -0.06386 0.21215
 C2666 C 0.71001 -0.06915 0.21795
 C2667 C 0.70525 -0.06307 0.22877
 C2668 C 0.71100 -0.05229 0.23353
 C2669 C 0.72169 -0.04714 0.22775
 C2670 C 0.72657 -0.05305 0.21708
 H2671 H 0.71555 -0.09814 0.17925
 H2672 H 0.67904 -0.11641 0.20165
 H2673 H 0.70527 -0.11607 0.17089
 H2674 H 0.68027 -0.10086 0.21762
 H2675 H 0.68960 -0.08284 0.22678
 H2676 H 0.72487 -0.08341 0.18785
 H2677 H 0.73416 -0.06534 0.19698
 H2678 H 0.69699 -0.06625 0.23371
 H2679 H 0.70688 -0.04780 0.24165
 H2680 H 0.73494 -0.04926 0.21261
 C2681 C 0.20767 0.39919 0.18419
 C2682 C 0.20359 0.40466 0.19556
 C2683 C 0.19310 0.39906 0.20163
 C2684 C 0.18719 0.38838 0.19658
 C2685 C 0.19144 0.38301 0.18536
 C2686 C 0.20171 0.38860 0.17924
 C2687 C 0.18852 0.40412 0.21276
 C2688 C 0.19404 0.41469 0.21802
 C2689 C 0.20451 0.42066 0.21239
 C2690 C 0.20948 0.41546 0.20106
 C2691 C 0.22022 0.42118 0.19565
 C2692 C 0.22580 0.43168 0.20098
 C2693 C 0.22093 0.43702 0.21185
 C2694 C 0.21021 0.43164 0.21774
 C2695 C 0.20563 0.43757 0.22871
 C2696 C 0.21146 0.44830 0.23352
 C2697 C 0.22205 0.45353 0.22766
 C2698 C 0.22675 0.44777 0.21683
 H2699 H 0.21540 0.40289 0.17878
 H2700 H 0.17926 0.38428 0.20149
 H2701 H 0.20523 0.38484 0.17053
 H2702 H 0.18051 0.39987 0.21746
 H2703 H 0.18987 0.41788 0.22662
 H2704 H 0.22466 0.41771 0.18729
 H2705 H 0.23403 0.43573 0.19646
 H2706 H 0.19747 0.43430 0.23375
 H2707 H 0.20746 0.45265 0.24177
 H2708 H 0.23505 0.45163 0.21228
 C2709 C 0.18670 -0.10125 0.70701
 C2710 C 0.19761 -0.09510 0.70241
 C2711 C 0.20357 -0.10030 0.69172
 C2712 C 0.19859 -0.11102 0.68584
 C2713 C 0.18768 -0.11691 0.69043
 C2714 C 0.18187 -0.11191 0.70112
 C2715 C 0.21447 -0.09479 0.68689
 C2716 C 0.21970 -0.08423 0.69245
 C2717 C 0.21415 -0.07862 0.70309
 C2718 C 0.20281 -0.08403 0.70805
 C2719 C 0.19696 -0.07811 0.71836
 C2720 C 0.20199 -0.06736 0.72371
 C2721 C 0.21313 -0.06209 0.71915
 C2722 C 0.21947 -0.06768 0.70886
 C2723 C 0.23090 -0.06206 0.70482
 C2724 C 0.23559 -0.05126 0.71058
 C2725 C 0.22912 -0.04565 0.72056
 C2726 C 0.21791 -0.05119 0.72482
 H2727 H 0.18168 -0.09818 0.71520
 H2728 H 0.20329 -0.11474 0.67765
 H2729 H 0.17350 -0.11618 0.70505
 H2730 H 0.21904 -0.09869 0.67869
 H2731 H 0.22806 -0.08058 0.68801
 H2732 H 0.18831 -0.08144 0.72249
 H2733 H 0.19710 -0.06312 0.73157
 H2734 H 0.23656 -0.06579 0.69732
 H2735 H 0.24443 -0.04735 0.70726
 H2736 H 0.21274 -0.04688 0.73247
 C2737 C 0.29313 0.31402 0.40030
 C2738 C 0.29690 0.30242 0.40567
 C2739 C 0.30721 0.29592 0.40007
 C2740 C 0.31314 0.30074 0.38934
 C2741 C 0.30913 0.31217 0.38404
 C2742 C 0.29913 0.31875 0.38973
 C2743 C 0.31157 0.28464 0.40521
 C2744 C 0.30606 0.27969 0.41590
 C2745 C 0.29575 0.28577 0.42183
 C2746 C 0.29090 0.29717 0.41645
 C2747 C 0.28014 0.30288 0.42193
 C2748 C 0.27450 0.29789 0.43248
 C2749 C 0.27935 0.28707 0.43810
 C2750 C 0.29004 0.28081 0.43292
 C2751 C 0.29459 0.26992 0.43918
 C2752 C 0.28876 0.26555 0.45005
 C2753 C 0.27822 0.27182 0.45508
 C2754 C 0.27353 0.28252 0.44895
 H2755 H 0.28570 0.31985 0.40412
 H2756 H 0.32089 0.29552 0.38515
 H2757 H 0.29587 0.32771 0.38613
 H2758 H 0.31942 0.27959 0.40097
 H2759 H 0.31005 0.27095 0.41920
 H2760 H 0.27565 0.31119 0.41820
 H2761 H 0.26626 0.30264 0.43635
 H2762 H 0.30275 0.26466 0.43607
 H2763 H 0.29270 0.25735 0.45468
 H2764 H 0.26524 0.28734 0.45261
 C2765 C 0.29158 0.81400 -0.10034
 C2766 C 0.29650 0.80326 -0.09416
 C2767 C 0.30744 0.79744 -0.09930
 C2768 C 0.31329 0.80244 -0.10996
 C2769 C 0.30840 0.81321 -0.11585
 C2770 C 0.29744 0.81885 -0.11094
 C2771 C 0.31253 0.78666 -0.09379
 C2772 C 0.30696 0.78140 -0.08331
 C2773 C 0.29607 0.78682 -0.07778
 C2774 C 0.29091 0.79809 -0.08314
 C2775 C 0.28048 0.80393 -0.07718
 C2776 C 0.27516 0.79891 -0.06648
 C2777 C 0.27986 0.78779 -0.06133
 C2778 C 0.29028 0.78147 -0.06694
 C2779 C 0.29440 0.77002 -0.06146
 C2780 C 0.28861 0.76530 -0.05075
 C2781 C 0.27854 0.77177 -0.04510
 C2782 C 0.27419 0.78300 -0.05050
 H2783 H 0.28312 0.81885 -0.09736
 H2784 H 0.32169 0.79785 -0.11362
 H2785 H 0.29325 0.82708 -0.11525
 H2786 H 0.32093 0.78220 -0.09764
 H2787 H 0.31162 0.77315 -0.07964
 H2788 H 0.27627 0.81259 -0.08042
 H2789 H 0.26722 0.80379 -0.06220
 H2790 H 0.30195 0.76435 -0.06528
 H2791 H 0.29198 0.75644 -0.04695
 H2792 H 0.26646 0.78816 -0.04616
 C2793 C 0.79389 0.31396 -0.09930
 C2794 C 0.79776 0.30226 -0.09422
 C2795 C 0.80800 0.29589 -0.10009
 C2796 C 0.81379 0.30097 -0.11076
 C2797 C 0.80971 0.31251 -0.11575
 C2798 C 0.79976 0.31894 -0.10982
 C2799 C 0.81245 0.28450 -0.09526
 C2800 C 0.80712 0.27934 -0.08460
 C2801 C 0.79691 0.28529 -0.07838
 C2802 C 0.79195 0.29677 -0.08347
 C2803 C 0.78127 0.30235 -0.07770
 C2804 C 0.77588 0.29720 -0.06710
 C2805 C 0.78091 0.28632 -0.06174
 C2806 C 0.79146 0.28015 -0.06726
 C2807 C 0.79618 0.26917 -0.06127
 C2808 C 0.79068 0.26468 -0.05029
 C2809 C 0.78033 0.27093 -0.04489
 C2810 C 0.77542 0.28166 -0.05078
 H2811 H 0.78648 0.31968 -0.09528
 H2812 H 0.82149 0.29584 -0.11516
 H2813 H 0.79647 0.32798 -0.11320
 H2814 H 0.82024 0.27956 -0.09973
 H2815 H 0.81118 0.27054 -0.08154
 H2816 H 0.77668 0.31070 -0.08122
 H2817 H 0.76773 0.30187 -0.06298
 H2818 H 0.80424 0.26394 -0.06466
 H2819 H 0.79475 0.25644 -0.04585
 H2820 H 0.76726 0.28645 -0.04680
 C2821 C 0.79301 0.81331 0.40072
 C2822 C 0.79781 0.80234 0.40659
 C2823 C 0.80899 0.79685 0.40158
 C2824 C 0.81482 0.80203 0.39098
 C2825 C 0.80983 0.81282 0.38519
 C2826 C 0.79891 0.81839 0.39025
 C2827 C 0.81433 0.78623 0.40716
 C2828 C 0.80897 0.78098 0.41776
 C2829 C 0.79787 0.78608 0.42318
 C2830 C 0.79200 0.79673 0.41729
 C2831 C 0.78045 0.80132 0.42221
 C2832 C 0.77497 0.79596 0.43267
 C2833 C 0.78081 0.78592 0.43880
 C2834 C 0.79237 0.78084 0.43422
 C2835 C 0.79799 0.77083 0.44103
 C2836 C 0.79232 0.76610 0.45180
 C2837 C 0.78085 0.77111 0.45620
 C2838 C 0.77512 0.78098 0.44956
 H2839 H 0.78479 0.81834 0.40405
 H2840 H 0.82331 0.79761 0.38733
 H2841 H 0.79479 0.82678 0.38617
 H2842 H 0.82283 0.78194 0.40333
 H2843 H 0.81371 0.77275 0.42138
 H2844 H 0.77522 0.80899 0.41808
 H2845 H 0.76609 0.79982 0.43609
 H2846 H 0.80691 0.76658 0.43846
 H2847 H 0.79711 0.75864 0.45687
 H2848 H 0.76616 0.78484 0.45275
 C2849 C 0.68636 0.29182 0.60015
 C2850 C 0.69748 0.29626 0.59424
 C2851 C 0.70323 0.30716 0.59928
 C2852 C 0.69812 0.31313 0.60985
 C2853 C 0.68716 0.30856 0.61565
 C2854 C 0.68134 0.29786 0.61063
 C2855 C 0.71408 0.31211 0.59377
 C2856 C 0.71931 0.30662 0.58321
 C2857 C 0.71394 0.29580 0.57773
 C2858 C 0.70301 0.29036 0.58350
 C2859 C 0.69805 0.27917 0.57839
 C2860 C 0.70336 0.27361 0.56790
 C2861 C 0.71375 0.27899 0.56195
 C2862 C 0.71919 0.29019 0.56672
 C2863 C 0.72958 0.29535 0.56013
 C2864 C 0.73432 0.28959 0.54938
 C2865 C 0.72897 0.27849 0.54479
 C2866 C 0.71869 0.27322 0.55119
 H2867 H 0.68118 0.28377 0.59686
 H2868 H 0.70279 0.32140 0.61350
 H2869 H 0.67282 0.29407 0.61473
 H2870 H 0.71857 0.32040 0.59763
 H2871 H 0.72771 0.31106 0.57966
 H2872 H 0.69008 0.27432 0.58236
 H2873 H 0.69921 0.26501 0.56434
 H2874 H 0.73416 0.30395 0.56285
 H2875 H 0.74209 0.29403 0.54451
 H2876 H 0.71452 0.26455 0.54783
 C2877 C 0.68460 0.79164 1.10035
 C2878 C 0.69584 0.79570 1.09440
 C2879 C 0.70194 0.80646 1.09935
 C2880 C 0.69707 0.81262 1.10994
 C2881 C 0.68601 0.80837 1.11582
 C2882 C 0.67983 0.79786 1.11082
 C2883 C 0.71288 0.81105 1.09371
 C2884 C 0.71789 0.80532 1.08316
 C2885 C 0.71220 0.79459 1.07782
 C2886 C 0.70114 0.78953 1.08370
 C2887 C 0.69584 0.77842 1.07876
 C2888 C 0.70094 0.77257 1.06833
 C2889 C 0.71145 0.77757 1.06227
 C2890 C 0.71724 0.78867 1.06686
 C2891 C 0.72776 0.79341 1.06016
 C2892 C 0.73229 0.78735 1.04948
 C2893 C 0.72656 0.77635 1.04506
 C2894 C 0.71616 0.77150 1.05159
 H2895 H 0.67912 0.78378 1.09710
 H2896 H 0.70199 0.82075 1.11356
 H2897 H 0.67119 0.79435 1.11494
 H2898 H 0.71763 0.81924 1.09748
 H2899 H 0.72639 0.80949 1.07950
 H2900 H 0.68776 0.77383 1.08283
 H2901 H 0.69652 0.76405 1.06490
 H2902 H 0.73262 0.80190 1.06276
 H2903 H 0.74018 0.79146 1.04451
 H2904 H 0.71173 0.76290 1.04838
 C2905 C 0.18547 0.29214 1.10027
 C2906 C 0.19624 0.29680 1.09391
 C2907 C 0.20222 0.30758 1.09895
 C2908 C 0.19743 0.31347 1.10972
 C2909 C 0.18666 0.30883 1.11582
 C2910 C 0.18081 0.29806 1.11098
 C2911 C 0.21297 0.31249 1.09323
 C2912 C 0.21802 0.30695 1.08260
 C2913 C 0.21245 0.29621 1.07715
 C2914 C 0.20127 0.29115 1.08280
 C2915 C 0.19542 0.28071 1.07706
 C2916 C 0.20028 0.27537 1.06624
 C2917 C 0.21123 0.28007 1.06072
 C2918 C 0.21758 0.29047 1.06613
 C2919 C 0.22884 0.29463 1.06026
 C2920 C 0.23333 0.28893 1.04939
 C2921 C 0.22684 0.27887 1.04392
 C2922 C 0.21583 0.27444 1.04973
 H2923 H 0.18042 0.28389 1.09730
 H2924 H 0.20217 0.32173 1.11329
 H2925 H 0.17256 0.29408 1.11542
 H2926 H 0.21756 0.32076 1.09701
 H2927 H 0.22626 0.31147 1.07880
 H2928 H 0.18690 0.27648 1.08060
 H2929 H 0.19539 0.26743 1.06215
 H2930 H 0.23450 0.30221 1.06385
 H2931 H 0.24204 0.29236 1.04530
 H2932 H 0.21066 0.26671 1.04557
 C2933 C 0.20589 0.81452 0.60050
 C2934 C 0.20164 0.80326 0.59486
 C2935 C 0.19097 0.79728 0.60023
 C2936 C 0.18511 0.80227 0.61095
 C2937 C 0.18956 0.81336 0.61651
 C2938 C 0.19996 0.81942 0.61108
 C2939 C 0.18616 0.78634 0.59487
 C2940 C 0.19157 0.78124 0.58419
 C2941 C 0.20222 0.78680 0.57845
 C2942 C 0.20751 0.79783 0.58406
 C2943 C 0.21859 0.80298 0.57875
 C2944 C 0.22415 0.79777 0.56822
 C2945 C 0.21889 0.78729 0.56242
 C2946 C 0.20783 0.78165 0.56737
 C2947 C 0.20281 0.77116 0.56091
 C2948 C 0.20860 0.76651 0.55012
 C2949 C 0.21959 0.77208 0.54535
 C2950 C 0.22469 0.78246 0.55163
 H2951 H 0.21368 0.81993 0.59690
 H2952 H 0.17707 0.79743 0.61494
 H2953 H 0.20361 0.82809 0.61492
 H2954 H 0.17803 0.78168 0.59896
 H2955 H 0.18724 0.77277 0.58074
 H2956 H 0.22338 0.81101 0.58262
 H2957 H 0.23265 0.80207 0.56451
 H2958 H 0.19431 0.76643 0.56379
 H2959 H 0.20429 0.75863 0.54536
 H2960 H 0.23328 0.78677 0.54815
 C2961 C 0.29126 0.68451 0.60072
 C2962 C 0.29543 0.69560 0.59468
 C2963 C 0.30626 0.70165 0.59961
 C2964 C 0.31240 0.69688 0.61026
 C2965 C 0.30806 0.68595 0.61622
 C2966 C 0.29746 0.67983 0.61126
 C2967 C 0.31095 0.71246 0.59391
 C2968 C 0.30524 0.71739 0.58331
 C2969 C 0.29444 0.71174 0.57798
 C2970 C 0.28929 0.70081 0.58390
 C2971 C 0.27813 0.69552 0.57894
 C2972 C 0.27230 0.70055 0.56845
 C2973 C 0.27736 0.71097 0.56238
 C2974 C 0.28852 0.71672 0.56698
 C2975 C 0.29333 0.72715 0.56026
 C2976 C 0.28726 0.73163 0.54956
 C2977 C 0.27618 0.72595 0.54513
 C2978 C 0.27129 0.71563 0.55167
 H2979 H 0.28332 0.67909 0.59750
 H2980 H 0.32060 0.70176 0.61386
 H2981 H 0.29385 0.67132 0.61545
 H2982 H 0.31921 0.71717 0.59767
 H2983 H 0.30950 0.72578 0.57960
 H2984 H 0.27349 0.68752 0.58301
 H2985 H 0.26373 0.69616 0.56501
 H2986 H 0.30187 0.73198 0.56287
 H2987 H 0.29142 0.73947 0.54459
 H2988 H 0.26263 0.71123 0.54845
 C2989 C 0.29236 0.18653 1.09881
 C2990 C 0.29680 0.19763 1.09299
 C2991 C 0.30781 0.20329 1.09800
 C2992 C 0.31380 0.19820 1.10861
 C2993 C 0.30913 0.18731 1.11439
 C2994 C 0.29841 0.18153 1.10927
 C2995 C 0.31283 0.21402 1.09241
 C2996 C 0.30728 0.21920 1.08183
 C2997 C 0.29629 0.21394 1.07646
 C2998 C 0.29077 0.20318 1.08234
 C2999 C 0.27932 0.19841 1.07748
 C3000 C 0.27363 0.20372 1.06707
 C3001 C 0.27912 0.21388 1.06095
 C3002 C 0.29055 0.21915 1.06547
 C3003 C 0.29581 0.22931 1.05867
 C3004 C 0.28990 0.23399 1.04796
 C3005 C 0.27856 0.22879 1.04361
 C3006 C 0.27320 0.21877 1.05025
 H3007 H 0.28433 0.18133 1.09545
 H3008 H 0.32212 0.20279 1.11231
 H3009 H 0.29458 0.17302 1.11327
 H3010 H 0.32121 0.21845 1.09622
 H3011 H 0.31177 0.22750 1.07818
 H3012 H 0.27434 0.19065 1.08162
 H3013 H 0.26483 0.19972 1.06370
 H3014 H 0.30460 0.23372 1.06121
 H3015 H 0.29442 0.24157 1.04290
 H3016 H 0.26434 0.21475 1.04712
 C3017 C 0.81448 0.70522 1.10066
 C3018 C 0.80310 0.70116 1.09501
 C3019 C 0.79695 0.69060 1.10032
 C3020 C 0.80188 0.68468 1.11104
 C3021 C 0.81307 0.68898 1.11665
 C3022 C 0.81931 0.69925 1.11123
 C3023 C 0.78590 0.68597 1.09490
 C3024 C 0.78086 0.69147 1.08423
 C3025 C 0.78659 0.70202 1.07857
 C3026 C 0.79772 0.70713 1.08424
 C3027 C 0.80302 0.71814 1.07905
 C3028 C 0.79789 0.72378 1.06853
 C3029 C 0.78734 0.71868 1.06263
 C3030 C 0.78152 0.70771 1.06750
 C3031 C 0.77096 0.70287 1.06095
 C3032 C 0.76642 0.70871 1.05014
 C3033 C 0.77218 0.71958 1.04545
 C3034 C 0.78262 0.72452 1.05183
 H3035 H 0.82005 0.71287 1.09708
 H3036 H 0.79693 0.67672 1.11498
 H3037 H 0.82807 0.70277 1.11507
 H3038 H 0.78111 0.67793 1.09893
 H3039 H 0.77230 0.68729 1.08074
 H3040 H 0.81110 0.72282 1.08300
 H3041 H 0.80231 0.73222 1.06491
 H3042 H 0.76608 0.69445 1.06377
 H3043 H 0.75849 0.70451 1.04530
 H3044 H 0.78707 0.73303 1.04843
 C3045 C 0.79144 0.18562 0.60083
 C3046 C 0.79637 0.19621 0.59448
 C3047 C 0.80742 0.20185 0.59945
 C3048 C 0.81331 0.19688 0.61015
 C3049 C 0.80835 0.18632 0.61628
 C3050 C 0.79734 0.18081 0.61148
 C3051 C 0.81259 0.21243 0.59373
 C3052 C 0.80702 0.21765 0.58320
 C3053 C 0.79603 0.21241 0.57781
 C3054 C 0.79072 0.20139 0.58344
 C3055 C 0.78005 0.19584 0.57775
 C3056 C 0.77474 0.20081 0.56697
 C3057 C 0.77970 0.21159 0.56145
 C3058 C 0.79030 0.21767 0.56686
 C3059 C 0.79468 0.22880 0.56103
 C3060 C 0.78903 0.23339 0.55017
 C3061 C 0.77881 0.22712 0.54467
 C3062 C 0.77412 0.21627 0.55047
 H3063 H 0.78298 0.18085 0.59793
 H3064 H 0.82180 0.20132 0.61366
 H3065 H 0.79312 0.17273 0.61593
 H3066 H 0.82106 0.21676 0.59746
 H3067 H 0.81173 0.22575 0.57939
 H3068 H 0.77561 0.18747 0.58128
 H3069 H 0.76663 0.19613 0.56290
 H3070 H 0.80239 0.23430 0.56465
 H3071 H 0.79264 0.24199 0.54611
 H3072 H 0.76625 0.21128 0.54630
 C3073 C 0.68699 0.70820 0.40159
 C3074 C 0.69782 0.70326 0.40768
 C3075 C 0.70365 0.69243 0.40241
 C3076 C 0.69862 0.68675 0.39168
 C3077 C 0.68779 0.69170 0.38584
 C3078 C 0.68210 0.70251 0.39092
 C3079 C 0.71450 0.68729 0.40785
 C3080 C 0.71983 0.69271 0.41836
 C3081 C 0.71444 0.70351 0.42399
 C3082 C 0.70309 0.70871 0.41872
 C3083 C 0.69729 0.71907 0.42476
 C3084 C 0.70243 0.72427 0.43547
 C3085 C 0.71362 0.71952 0.44055
 C3086 C 0.71990 0.70917 0.43484
 C3087 C 0.73144 0.70500 0.44022
 C3088 C 0.73628 0.71066 0.45094
 C3089 C 0.72985 0.72067 0.45669
 C3090 C 0.71854 0.72508 0.45138
 H3091 H 0.68208 0.71654 0.40470
 H3092 H 0.70323 0.67845 0.38792
 H3093 H 0.67382 0.70673 0.38667
 H3094 H 0.71895 0.67897 0.40391
 H3095 H 0.72813 0.68802 0.42197
 H3096 H 0.68860 0.72332 0.42157
 H3097 H 0.69758 0.73216 0.43981
 H3098 H 0.73709 0.69749 0.43634
 H3099 H 0.74520 0.70726 0.45466
 H3100 H 0.71341 0.73275 0.45579
 C3101 C 0.70766 0.18686 -0.09802
 C3102 C 0.70397 0.19865 -0.09299
 C3103 C 0.69370 0.20505 -0.09875
 C3104 C 0.68775 0.19997 -0.10933
 C3105 C 0.69171 0.18839 -0.11433
 C3106 C 0.70165 0.18189 -0.10847
 C3107 C 0.68939 0.21650 -0.09393
 C3108 C 0.69492 0.22170 -0.08339
 C3109 C 0.70520 0.21573 -0.07730
 C3110 C 0.71000 0.20418 -0.08239
 C3111 C 0.72077 0.19860 -0.07680
 C3112 C 0.72641 0.20383 -0.06637
 C3113 C 0.72155 0.21477 -0.06100
 C3114 C 0.71090 0.22094 -0.06634
 C3115 C 0.70635 0.23198 -0.06034
 C3116 C 0.71211 0.23654 -0.04952
 C3117 C 0.72256 0.23030 -0.04431
 C3118 C 0.72730 0.21950 -0.05022
 H3119 H 0.71503 0.18109 -0.09403
 H3120 H 0.68005 0.20514 -0.11366
 H3121 H 0.70483 0.17282 -0.11185
 H3122 H 0.68157 0.22147 -0.09831
 H3123 H 0.69099 0.23056 -0.08033
 H3124 H 0.72526 0.19021 -0.08035
 H3125 H 0.73464 0.19916 -0.06240
 H3126 H 0.69822 0.23720 -0.06359
 H3127 H 0.70817 0.24483 -0.04506
 H3128 H 0.73553 0.21472 -0.04639
 C3129 C 0.18652 0.70763 -0.10151
 C3130 C 0.19737 0.70295 -0.09523
 C3131 C 0.20291 0.69165 -0.09977
 C3132 C 0.19790 0.68556 -0.11028
 C3133 C 0.18722 0.69040 -0.11647
 C3134 C 0.18160 0.70147 -0.11191
 C3135 C 0.21343 0.68642 -0.09382
 C3136 C 0.21851 0.69202 -0.08328
 C3137 C 0.21334 0.70324 -0.07830
 C3138 C 0.20281 0.70898 -0.08457
 C3139 C 0.19815 0.72061 -0.08006
 C3140 C 0.20336 0.72631 -0.06963
 C3141 C 0.21330 0.72063 -0.06316
 C3142 C 0.21843 0.70898 -0.06732
 C3143 C 0.22832 0.70352 -0.06018
 C3144 C 0.23290 0.70942 -0.04948
 C3145 C 0.22786 0.72097 -0.04550
 C3146 C 0.21809 0.72654 -0.05247
 H3147 H 0.18147 0.71596 -0.09857
 H3148 H 0.20237 0.67698 -0.11354
 H3149 H 0.17331 0.70549 -0.11634
 H3150 H 0.21776 0.67783 -0.09730
 H3151 H 0.22667 0.68735 -0.07935
 H3152 H 0.19053 0.72572 -0.08447
 H3153 H 0.19945 0.73525 -0.06653
 H3154 H 0.23259 0.69457 -0.06240
 H3155 H 0.24028 0.70476 -0.04415
 H3156 H 0.21420 0.73555 -0.04958
 C3157 C 0.20601 0.18620 0.39969
 C3158 C 0.20213 0.19784 0.40491
 C3159 C 0.19179 0.20418 0.39921
 C3160 C 0.18587 0.19914 0.38859
 C3161 C 0.18996 0.18766 0.38346
 C3162 C 0.20004 0.18126 0.38920
 C3163 C 0.18737 0.21554 0.40414
 C3164 C 0.19285 0.22071 0.41471
 C3165 C 0.20316 0.21478 0.42078
 C3166 C 0.20806 0.20329 0.41562
 C3167 C 0.21879 0.19770 0.42128
 C3168 C 0.22434 0.20290 0.43178
 C3169 C 0.21943 0.21381 0.43717
 C3170 C 0.20878 0.21995 0.43180
 C3171 C 0.20415 0.23094 0.43782
 C3172 C 0.20984 0.23551 0.44866
 C3173 C 0.22033 0.22934 0.45390
 C3174 C 0.22513 0.21855 0.44800
 H3175 H 0.21353 0.18051 0.40355
 H3176 H 0.17809 0.20425 0.38434
 H3177 H 0.20337 0.17229 0.38569
 H3178 H 0.17950 0.22047 0.39980
 H3179 H 0.18882 0.22950 0.41782
 H3180 H 0.22329 0.18931 0.41775
 H3181 H 0.23255 0.19823 0.43580
 H3182 H 0.19601 0.23613 0.43456
 H3183 H 0.20582 0.24376 0.45312
 H3184 H 0.23337 0.21380 0.45186
 C3185 C 0.29339 0.39754 0.68610
 C3186 C 0.29819 0.40343 0.69693
 C3187 C 0.30937 0.39831 0.70228
 C3188 C 0.31523 0.38759 0.69708
 C3189 C 0.31025 0.38180 0.68641
 C3190 C 0.29931 0.38696 0.68099
 C3191 C 0.31471 0.40392 0.71277
 C3192 C 0.30932 0.41464 0.71803
 C3193 C 0.29820 0.42015 0.71307
 C3194 C 0.29236 0.41426 0.70253
 C3195 C 0.28083 0.41931 0.69802
 C3196 C 0.27534 0.42991 0.70336
 C3197 C 0.28113 0.43602 0.71331
 C3198 C 0.29265 0.43131 0.71833
 C3199 C 0.29817 0.43809 0.72831
 C3200 C 0.29246 0.44902 0.73301
 C3201 C 0.28107 0.45358 0.72800
 C3202 C 0.27542 0.44692 0.71821
 H3203 H 0.28517 0.40094 0.68117
 H3204 H 0.32370 0.38383 0.70141
 H3205 H 0.29523 0.38292 0.67267
 H3206 H 0.32323 0.40003 0.71694
 H3207 H 0.31407 0.41830 0.72612
 H3208 H 0.27564 0.41521 0.69042
 H3209 H 0.26649 0.43344 0.69954
 H3210 H 0.30701 0.43539 0.73257
 H3211 H 0.29716 0.45407 0.74045
 H3212 H 0.26649 0.45021 0.71437
 C3213 C 0.29590 0.90079 0.18604
 C3214 C 0.29961 0.90541 0.19784
 C3215 C 0.30977 0.89918 0.20397
 C3216 C 0.31554 0.88848 0.19863
 C3217 C 0.31149 0.88386 0.18706
 C3218 C 0.30172 0.89025 0.18081
 C3219 C 0.31414 0.90366 0.21540
 C3220 C 0.30880 0.91433 0.22082
 C3221 C 0.29864 0.92086 0.21512
 C3222 C 0.29371 0.91607 0.20364
 C3223 C 0.28293 0.92198 0.19841
 C3224 C 0.27742 0.93247 0.20391
 C3225 C 0.28246 0.93762 0.21475
 C3226 C 0.29315 0.93195 0.22054
 C3227 C 0.29796 0.93778 0.23143
 C3228 C 0.29238 0.94871 0.23625
 C3229 C 0.28181 0.95421 0.23046
 C3230 C 0.27685 0.94849 0.21977
 H3231 H 0.28867 0.90521 0.18044
 H3232 H 0.32313 0.88373 0.20358
 H3233 H 0.29855 0.88723 0.17171
 H3234 H 0.32187 0.89892 0.22017
 H3235 H 0.31276 0.91709 0.22965
 H3236 H 0.27830 0.91860 0.19013
 H3237 H 0.26916 0.93669 0.19953
 H3238 H 0.30619 0.93433 0.23631
 H3239 H 0.29654 0.95303 0.24441
 H3240 H 0.26855 0.95253 0.21531
 C3241 C 0.79237 0.40185 0.18522
 C3242 C 0.79621 0.40709 0.19673
 C3243 C 0.80690 0.40166 0.20271
 C3244 C 0.81307 0.39111 0.19753
 C3245 C 0.80893 0.38584 0.18626
 C3246 C 0.79861 0.39145 0.18014
 C3247 C 0.81139 0.40676 0.21383
 C3248 C 0.80563 0.41728 0.21910
 C3249 C 0.79492 0.42303 0.21356
 C3250 C 0.78991 0.41760 0.20239
 C3251 C 0.77865 0.42273 0.19734
 C3252 C 0.77271 0.43305 0.20272
 C3253 C 0.77778 0.43881 0.21324
 C3254 C 0.78897 0.43396 0.21884
 C3255 C 0.79377 0.44040 0.22939
 C3256 C 0.78771 0.45115 0.23406
 C3257 C 0.77667 0.45585 0.22845
 C3258 C 0.77170 0.44949 0.21812
 H3259 H 0.78470 0.40565 0.17974
 H3260 H 0.82110 0.38703 0.20238
 H3261 H 0.79526 0.38787 0.17131
 H3262 H 0.81953 0.40263 0.21848
 H3263 H 0.80971 0.42056 0.22770
 H3264 H 0.77398 0.41885 0.18931
 H3265 H 0.76409 0.43666 0.19849
 H3266 H 0.80234 0.43758 0.23410
 H3267 H 0.79188 0.45598 0.24194
 H3268 H 0.76304 0.45289 0.21382
 C3269 C 0.79118 0.89991 0.68520
 C3270 C 0.79506 0.90551 0.69654
 C3271 C 0.80580 0.90027 0.70261
 C3272 C 0.81208 0.88971 0.69762
 C3273 C 0.80800 0.88418 0.68645
 C3274 C 0.79753 0.88947 0.68031
 C3275 C 0.81026 0.90560 0.71363
 C3276 C 0.80443 0.91617 0.71873
 C3277 C 0.79372 0.92179 0.71306
 C3278 C 0.78877 0.91616 0.70196
 C3279 C 0.77761 0.92130 0.69670
 C3280 C 0.77169 0.93176 0.70184
 C3281 C 0.77667 0.93765 0.71233
 C3282 C 0.78775 0.93280 0.71814
 C3283 C 0.79244 0.93934 0.72868
 C3284 C 0.78640 0.95018 0.73314
 C3285 C 0.77549 0.95490 0.72731
 C3286 C 0.77062 0.94846 0.71699
 H3287 H 0.78339 0.90344 0.67972
 H3288 H 0.82018 0.88583 0.70252
 H3289 H 0.79418 0.88563 0.67158
 H3290 H 0.81843 0.90161 0.71835
 H3291 H 0.80851 0.91961 0.72726
 H3292 H 0.77304 0.91736 0.68864
 H3293 H 0.76316 0.93538 0.69744
 H3294 H 0.80090 0.93651 0.73357
 H3295 H 0.79048 0.95506 0.74103
 H3296 H 0.76205 0.95189 0.71253
 C3297 C 0.68554 0.60122 0.70602
 C3298 C 0.69691 0.59538 0.70196
 C3299 C 0.70312 0.60067 0.69148
 C3300 C 0.69825 0.61152 0.68563
 C3301 C 0.68708 0.61730 0.68992
 C3302 C 0.68078 0.61195 0.70011
 C3303 C 0.71417 0.59511 0.68688
 C3304 C 0.71920 0.58433 0.69234
 C3305 C 0.71342 0.57868 0.70281
 C3306 C 0.70223 0.58446 0.70786
 C3307 C 0.69683 0.57921 0.71871
 C3308 C 0.70196 0.56858 0.72432
 C3309 C 0.71261 0.56263 0.71933
 C3310 C 0.71851 0.56752 0.70849
 C3311 C 0.72919 0.56092 0.70375
 C3312 C 0.73376 0.55004 0.70959
 C3313 C 0.72791 0.54534 0.72034
 C3314 C 0.71736 0.55175 0.72517
 H3315 H 0.67996 0.59770 0.71364
 H3316 H 0.70326 0.61545 0.67774
 H3317 H 0.67203 0.61595 0.70359
 H3318 H 0.71899 0.59912 0.67889
 H3319 H 0.72777 0.58075 0.68818
 H3320 H 0.68866 0.58318 0.72329
 H3321 H 0.69747 0.56492 0.73265
 H3322 H 0.73414 0.56375 0.69545
 H3323 H 0.74179 0.54516 0.70551
 H3324 H 0.71284 0.54832 0.73358
 C3325 C 0.70861 0.10227 0.18836
 C3326 C 0.70290 0.09527 0.19804
 C3327 C 0.69129 0.09985 0.20299
 C3328 C 0.68542 0.11064 0.19792
 C3329 C 0.69104 0.11723 0.18803
 C3330 C 0.70277 0.11298 0.18349
 C3331 C 0.68559 0.09362 0.21295
 C3332 C 0.69119 0.08299 0.21821
 C3333 C 0.70265 0.07794 0.21350
 C3334 C 0.70840 0.08398 0.20301
 C3335 C 0.71928 0.07839 0.19764
 C3336 C 0.72457 0.06745 0.20247
 C3337 C 0.71938 0.06171 0.21295
 C3338 C 0.70844 0.06690 0.21874
 C3339 C 0.70385 0.06082 0.22958
 C3340 C 0.70972 0.04995 0.23421
 C3341 C 0.72033 0.04472 0.22825
 C3342 C 0.72510 0.05071 0.21761
 H3343 H 0.71770 0.09988 0.18444
 H3344 H 0.67643 0.11383 0.20167
 H3345 H 0.70765 0.11794 0.17613
 H3346 H 0.67671 0.09705 0.21679
 H3347 H 0.68610 0.07877 0.22582
 H3348 H 0.72383 0.08204 0.18943
 H3349 H 0.73287 0.06348 0.19796
 H3350 H 0.69587 0.06431 0.23483
 H3351 H 0.70599 0.04572 0.24262
 H3352 H 0.73321 0.04672 0.21280
 C3353 C 0.20824 0.60268 0.18874
 C3354 C 0.20256 0.59562 0.19839
 C3355 C 0.19097 0.60017 0.20340
 C3356 C 0.18506 0.61097 0.19839
 C3357 C 0.19064 0.61759 0.18849
 C3358 C 0.20238 0.61340 0.18393
 C3359 C 0.18532 0.59391 0.21337
 C3360 C 0.19097 0.58328 0.21858
 C3361 C 0.20241 0.57825 0.21379
 C3362 C 0.20808 0.58432 0.20328
 C3363 C 0.21890 0.57872 0.19779
 C3364 C 0.22423 0.56779 0.20257
 C3365 C 0.21915 0.56205 0.21310
 C3366 C 0.20826 0.56723 0.21899
 C3367 C 0.20378 0.56115 0.22988
 C3368 C 0.20972 0.55031 0.23448
 C3369 C 0.22030 0.54511 0.22843
 C3370 C 0.22494 0.55108 0.21773
 H3371 H 0.21735 0.60034 0.18481
 H3372 H 0.17608 0.61414 0.20218
 H3373 H 0.20724 0.61839 0.17658
 H3374 H 0.17645 0.59731 0.21725
 H3375 H 0.18592 0.57901 0.22620
 H3376 H 0.22335 0.58236 0.18952
 H3377 H 0.23249 0.56380 0.19798
 H3378 H 0.19585 0.56464 0.23520
 H3379 H 0.20609 0.54609 0.24293
 H3380 H 0.23302 0.54709 0.21285
 C3381 C 0.18563 0.10009 0.70404
 C3382 C 0.19744 0.09480 0.70050
 C3383 C 0.20392 0.10045 0.69038
 C3384 C 0.19891 0.11117 0.68442
 C3385 C 0.18732 0.11645 0.68825
 C3386 C 0.18072 0.11069 0.69802
 C3387 C 0.21541 0.09541 0.68625
 C3388 C 0.22061 0.08479 0.69185
 C3389 C 0.21460 0.07882 0.70200
 C3390 C 0.20296 0.08408 0.70658
 C3391 C 0.19732 0.07857 0.71719
 C3392 C 0.20263 0.06812 0.72295
 C3393 C 0.21371 0.06262 0.71837
 C3394 C 0.21987 0.06782 0.70782
 C3395 C 0.23100 0.06168 0.70350
 C3396 C 0.23572 0.05093 0.70943
 C3397 C 0.22959 0.04590 0.71987
 C3398 C 0.21861 0.05188 0.72432
 H3399 H 0.17981 0.09621 0.71132
 H3400 H 0.20415 0.11544 0.67686
 H3401 H 0.17163 0.11429 0.70108
 H3402 H 0.22043 0.09971 0.67854
 H3403 H 0.22951 0.08160 0.68806
 H3404 H 0.18882 0.08221 0.72145
 H3405 H 0.19794 0.06423 0.73107
 H3406 H 0.23619 0.06477 0.69542
 H3407 H 0.24409 0.04637 0.70565
 H3408 H 0.21387 0.04818 0.73249
 C3409 C 0.31266 0.60181 0.29333
 C3410 C 0.30183 0.59548 0.29788
 C3411 C 0.29634 0.59998 0.30911
 C3412 C 0.30141 0.61052 0.31528
 C3413 C 0.31208 0.61676 0.31056
 C3414 C 0.31762 0.61221 0.29955
 C3415 C 0.28583 0.59393 0.31416
 C3416 C 0.28070 0.58338 0.30844
 C3417 C 0.28582 0.57847 0.29727
 C3418 C 0.29638 0.58481 0.29175
 C3419 C 0.30107 0.58033 0.28022
 C3420 C 0.29589 0.56988 0.27444
 C3421 C 0.28592 0.56334 0.27989
 C3422 C 0.28071 0.56748 0.29139
 C3423 C 0.27072 0.56030 0.29655
 C3424 C 0.26618 0.54955 0.29054
 C3425 C 0.27137 0.54555 0.27917
 C3426 C 0.28119 0.55260 0.27388
 H3427 H 0.31767 0.59892 0.28506
 H3428 H 0.29700 0.61378 0.32381
 H3429 H 0.32589 0.61664 0.29559
 H3430 H 0.28153 0.59736 0.32270
 H3431 H 0.27258 0.57937 0.31299
 H3432 H 0.30871 0.58478 0.27527
 H3433 H 0.29986 0.56680 0.26561
 H3434 H 0.26633 0.56256 0.30533
 H3435 H 0.25875 0.54419 0.29499
 H3436 H 0.28518 0.54975 0.26499
 C3437 C 0.31458 0.09946 0.79577
 C3438 C 0.30265 0.09439 0.79890
 C3439 C 0.29594 0.09994 0.80898
 C3440 C 0.30077 0.11065 0.81508
 C3441 C 0.31241 0.11585 0.81148
 C3442 C 0.31931 0.10994 0.80194
 C3443 C 0.28448 0.09477 0.81289
 C3444 C 0.27958 0.08411 0.80712
 C3445 C 0.28580 0.07837 0.79690
 C3446 C 0.29730 0.08389 0.79247
 C3447 C 0.30295 0.07892 0.78159
 C3448 C 0.29793 0.06858 0.77554
 C3449 C 0.28714 0.06267 0.78010
 C3450 C 0.28088 0.06740 0.79084
 C3451 C 0.27006 0.06081 0.79509
 C3452 C 0.26578 0.05002 0.78894
 C3453 C 0.27208 0.04544 0.77835
 C3454 C 0.28265 0.05196 0.77392
 H3455 H 0.32068 0.09541 0.78877
 H3456 H 0.29538 0.11496 0.82256
 H3457 H 0.32854 0.11331 0.79916
 H3458 H 0.27929 0.09893 0.82059
 H3459 H 0.27071 0.08073 0.81076
 H3460 H 0.31118 0.08299 0.77727
 H3461 H 0.30264 0.06509 0.76723
 H3462 H 0.26485 0.06355 0.80331
 H3463 H 0.25767 0.04508 0.79267
 H3464 H 0.28747 0.04867 0.76560
 C3465 C 0.81477 0.59949 0.79377
 C3466 C 0.80322 0.59390 0.79745
 C3467 C 0.79691 0.59906 0.80796
 C3468 C 0.80180 0.60968 0.81413
 C3469 C 0.81310 0.61528 0.81013
 C3470 C 0.81956 0.60995 0.79998
 C3471 C 0.78575 0.59362 0.81228
 C3472 C 0.78074 0.58304 0.80651
 C3473 C 0.78662 0.57757 0.79597
 C3474 C 0.79785 0.58332 0.79116
 C3475 C 0.80324 0.57842 0.78011
 C3476 C 0.79812 0.56805 0.77417
 C3477 C 0.78751 0.56203 0.77900
 C3478 C 0.78158 0.56663 0.78997
 C3479 C 0.77094 0.55995 0.79451
 C3480 C 0.76647 0.54924 0.78839
 C3481 C 0.77239 0.54481 0.77753
 C3482 C 0.78285 0.55135 0.77286
 H3483 H 0.82050 0.59593 0.78624
 H3484 H 0.79670 0.61357 0.82201
 H3485 H 0.82845 0.61376 0.79676
 H3486 H 0.78084 0.59753 0.82029
 H3487 H 0.77209 0.57950 0.81046
 H3488 H 0.81134 0.58253 0.77562
 H3489 H 0.80261 0.56463 0.76571
 H3490 H 0.76599 0.56256 0.80291
 H3491 H 0.75850 0.54426 0.79234
 H3492 H 0.78741 0.54814 0.76437
 C3493 C 0.81329 0.10021 0.29289
 C3494 C 0.80230 0.09415 0.29740
 C3495 C 0.79681 0.09883 0.30856
 C3496 C 0.80196 0.10938 0.31461
 C3497 C 0.81274 0.11541 0.30987
 C3498 C 0.81835 0.11062 0.29900
 C3499 C 0.78621 0.09297 0.31364
 C3500 C 0.78100 0.08242 0.30803
 C3501 C 0.78609 0.07736 0.29691
 C3502 C 0.79669 0.08355 0.29132
 C3503 C 0.80124 0.07904 0.27976
 C3504 C 0.79592 0.06865 0.27402
 C3505 C 0.78595 0.06220 0.27958
 C3506 C 0.78088 0.06639 0.29111
 C3507 C 0.77091 0.05927 0.29641
 C3508 C 0.76626 0.04853 0.29047
 C3509 C 0.77131 0.04451 0.27906
 C3510 C 0.78109 0.05150 0.27364
 H3511 H 0.81837 0.09708 0.28475
 H3512 H 0.79753 0.11282 0.32306
 H3513 H 0.82674 0.11484 0.29508
 H3514 H 0.78192 0.09654 0.32213
 H3515 H 0.77280 0.07855 0.31258
 H3516 H 0.80885 0.08346 0.27473
 H3517 H 0.79976 0.06554 0.26515
 H3518 H 0.76665 0.06154 0.30525
 H3519 H 0.75885 0.04320 0.29500
 H3520 H 0.78497 0.04861 0.26471
 C3521 C 0.70639 0.39925 0.31545
 C3522 C 0.70230 0.40483 0.30414
 C3523 C 0.69187 0.39924 0.29796
 C3524 C 0.68601 0.38847 0.30288
 C3525 C 0.69022 0.38302 0.31406
 C3526 C 0.70046 0.38858 0.32026
 C3527 C 0.68730 0.40442 0.28689
 C3528 C 0.69271 0.41514 0.28182
 C3529 C 0.70307 0.42115 0.28760
 C3530 C 0.70811 0.41577 0.29882
 C3531 C 0.71883 0.42145 0.30428
 C3532 C 0.72431 0.43211 0.29915
 C3533 C 0.71933 0.43765 0.28844
 C3534 C 0.70862 0.43232 0.28249
 C3535 C 0.70387 0.43851 0.27175
 C3536 C 0.70953 0.44943 0.26717
 C3537 C 0.72014 0.45460 0.27306
 C3538 C 0.72500 0.44859 0.28368
 H3539 H 0.71406 0.40294 0.32093
 H3540 H 0.67814 0.38436 0.29789
 H3541 H 0.70393 0.38477 0.32897
 H3542 H 0.67936 0.40015 0.28209
 H3543 H 0.68856 0.41841 0.27324
 H3544 H 0.72335 0.41783 0.31254
 H3545 H 0.73253 0.43611 0.30371
 H3546 H 0.69566 0.43532 0.26673
 H3547 H 0.70539 0.45398 0.25909
 H3548 H 0.73330 0.45240 0.28825
 C3549 C 0.70536 0.89993 0.81445
 C3550 C 0.70140 0.90502 0.80289
 C3551 C 0.69116 0.89907 0.79674
 C3552 C 0.68541 0.88834 0.80190
 C3553 C 0.68955 0.88335 0.81332
 C3554 C 0.69954 0.88934 0.81952
 C3555 C 0.68666 0.90386 0.78546
 C3556 C 0.69195 0.91456 0.78019
 C3557 C 0.70214 0.92089 0.78593
 C3558 C 0.70715 0.91585 0.79731
 C3559 C 0.71780 0.92174 0.80268
 C3560 C 0.72318 0.93234 0.79736
 C3561 C 0.71815 0.93763 0.78654
 C3562 C 0.70755 0.93204 0.78064
 C3563 C 0.70276 0.93798 0.76977
 C3564 C 0.70828 0.94892 0.76506
 C3565 C 0.71876 0.95436 0.77093
 C3566 C 0.72369 0.94856 0.78164
 H3567 H 0.71281 0.90398 0.81998
 H3568 H 0.67770 0.88391 0.79695
 H3569 H 0.70292 0.88594 0.82842
 H3570 H 0.67888 0.89932 0.78068
 H3571 H 0.68788 0.91754 0.77147
 H3572 H 0.72238 0.91831 0.81099
 H3573 H 0.73135 0.93652 0.80185
 H3574 H 0.69461 0.93458 0.76479
 H3575 H 0.70412 0.95330 0.75689
 H3576 H 0.73191 0.95254 0.78619
 C3577 C 0.18836 0.39692 0.79106
 C3578 C 0.19849 0.40377 0.79633
 C3579 C 0.20369 0.39925 0.80769
 C3580 C 0.19857 0.38861 0.81365
 C3581 C 0.18832 0.38210 0.80841
 C3582 C 0.18342 0.38635 0.79700
 C3583 C 0.21396 0.40540 0.81309
 C3584 C 0.21930 0.41588 0.80743
 C3585 C 0.21442 0.42084 0.79618
 C3586 C 0.20365 0.41485 0.79070
 C3587 C 0.19826 0.42026 0.77988
 C3588 C 0.20328 0.43100 0.77448
 C3589 C 0.21395 0.43675 0.77949
 C3590 C 0.21979 0.43173 0.79033
 C3591 C 0.23079 0.43784 0.79480
 C3592 C 0.23554 0.44856 0.78891
 C3593 C 0.22955 0.45361 0.77835
 C3594 C 0.21877 0.44758 0.77369
 H3595 H 0.18410 0.39934 0.78226
 H3596 H 0.20256 0.38547 0.82242
 H3597 H 0.17570 0.38151 0.79247
 H3598 H 0.21796 0.40204 0.82179
 H3599 H 0.22716 0.42003 0.81230
 H3600 H 0.18994 0.41657 0.77542
 H3601 H 0.19875 0.43483 0.76622
 H3602 H 0.23608 0.43452 0.80275
 H3603 H 0.24405 0.45284 0.79258
 H3604 H 0.21394 0.45145 0.76563
 C3605 C 0.20888 0.89952 0.31567
 C3606 C 0.20500 0.90526 0.30437
 C3607 C 0.19431 0.90014 0.29823
 C3608 C 0.18805 0.88958 0.30313
 C3609 C 0.19212 0.88392 0.31426
 C3610 C 0.20256 0.88908 0.32046
 C3611 C 0.18987 0.90559 0.28723
 C3612 C 0.19569 0.91615 0.28221
 C3613 C 0.20635 0.92165 0.28796
 C3614 C 0.21126 0.91593 0.29907
 C3615 C 0.22231 0.92101 0.30446
 C3616 C 0.22820 0.93148 0.29943
 C3617 C 0.22331 0.93742 0.28888
 C3618 C 0.21234 0.93264 0.28295
 C3619 C 0.20777 0.93920 0.27233
 C3620 C 0.21383 0.95000 0.26793
 C3621 C 0.22464 0.95466 0.27390
 C3622 C 0.22938 0.94820 0.28431
 H3623 H 0.21667 0.90291 0.32117
 H3624 H 0.17998 0.88580 0.29818
 H3625 H 0.20593 0.88514 0.32915
 H3626 H 0.18173 0.90170 0.28245
 H3627 H 0.19162 0.91970 0.27370
 H3628 H 0.22682 0.91704 0.31257
 H3629 H 0.23664 0.93505 0.30394
 H3630 H 0.19941 0.93641 0.26731
 H3631 H 0.20985 0.95489 0.25997
 H3632 H 0.23786 0.95156 0.28889
 C3633 C 0.40016 0.29376 0.68674
 C3634 C 0.40531 0.29789 0.69818
 C3635 C 0.39981 0.30869 0.70382
 C3636 C 0.38921 0.31467 0.69841
 C3637 C 0.38402 0.31022 0.68720
 C3638 C 0.38975 0.29981 0.68141
 C3639 C 0.40496 0.31349 0.71481
 C3640 C 0.41561 0.30798 0.72021
 C3641 C 0.42140 0.29717 0.71498
 C3642 C 0.41585 0.29178 0.70405
 C3643 C 0.42089 0.28035 0.69943
 C3644 C 0.43134 0.27466 0.70490
 C3645 C 0.43730 0.28015 0.71510
 C3646 C 0.43248 0.29147 0.72034
 C3647 C 0.43913 0.29668 0.73058
 C3648 C 0.45008 0.29089 0.73527
 C3649 C 0.45477 0.27974 0.72998
 C3650 C 0.44816 0.27435 0.72001
 H3651 H 0.40409 0.28604 0.68147
 H3652 H 0.38504 0.32279 0.70298
 H3653 H 0.38632 0.29623 0.67262
 H3654 H 0.40079 0.32172 0.71922
 H3655 H 0.41895 0.31230 0.72866
 H3656 H 0.41683 0.27536 0.69168
 H3657 H 0.43489 0.26591 0.70098
 H3658 H 0.43633 0.30537 0.73499
 H3659 H 0.45508 0.29537 0.74287
 H3660 H 0.45153 0.26558 0.71598
 C3661 C 0.39887 0.79338 0.18489
 C3662 C 0.40421 0.79723 0.19635
 C3663 C 0.39877 0.80787 0.20234
 C3664 C 0.38817 0.81404 0.19717
 C3665 C 0.38286 0.80993 0.18589
 C3666 C 0.38843 0.79961 0.17982
 C3667 C 0.40395 0.81232 0.21344
 C3668 C 0.41457 0.80660 0.21867
 C3669 C 0.42035 0.79598 0.21309
 C3670 C 0.41485 0.79100 0.20194
 C3671 C 0.42006 0.77987 0.19681
 C3672 C 0.43056 0.77405 0.20206
 C3673 C 0.43638 0.77909 0.21256
 C3674 C 0.43142 0.79010 0.21829
 C3675 C 0.43790 0.79482 0.22886
 C3676 C 0.44883 0.78887 0.23340
 C3677 C 0.45366 0.77805 0.22761
 C3678 C 0.44725 0.77314 0.21728
 H3679 H 0.40263 0.78572 0.17942
 H3680 H 0.38408 0.82205 0.20199
 H3681 H 0.38483 0.79627 0.17099
 H3682 H 0.39981 0.82042 0.21811
 H3683 H 0.41792 0.81068 0.22724
 H3684 H 0.41614 0.77523 0.18878
 H3685 H 0.43424 0.76555 0.19774
 H3686 H 0.43497 0.80323 0.23370
 H3687 H 0.45368 0.79296 0.24131
 H3688 H 0.45077 0.76462 0.21286
 C3689 C 0.89757 0.31624 0.20751
 C3690 C 0.90380 0.30519 0.20333
 C3691 C 0.89850 0.29879 0.19299
 C3692 C 0.88767 0.30357 0.18694
 C3693 C 0.88176 0.31468 0.19107
 C3694 C 0.88682 0.32087 0.20147
 C3695 C 0.90404 0.28766 0.18869
 C3696 C 0.91469 0.28262 0.19447
 C3697 C 0.92041 0.28864 0.20476
 C3698 C 0.91503 0.30026 0.20908
 C3699 C 0.92118 0.30669 0.21887
 C3700 C 0.93209 0.30191 0.22436
 C3701 C 0.93725 0.29047 0.22048
 C3702 C 0.93145 0.28355 0.21074
 C3703 C 0.93695 0.27181 0.20747
 C3704 C 0.94786 0.26736 0.21342
 C3705 C 0.95371 0.27441 0.22282
 C3706 C 0.94828 0.28595 0.22632
 H3707 H 0.90064 0.32152 0.21551
 H3708 H 0.88387 0.29855 0.17901
 H3709 H 0.88252 0.32938 0.20508
 H3710 H 0.90007 0.28274 0.18075
 H3711 H 0.91837 0.27406 0.19044
 H3712 H 0.91797 0.31564 0.22241
 H3713 H 0.93651 0.30725 0.23178
 H3714 H 0.93300 0.26571 0.20047
 H3715 H 0.95166 0.25826 0.21072
 H3716 H 0.95276 0.29157 0.23349
 C3717 C 0.89868 0.81623 0.70867
 C3718 C 0.90448 0.80484 0.70474
 C3719 C 0.89883 0.79835 0.69464
 C3720 C 0.88807 0.80327 0.68865
 C3721 C 0.88255 0.81466 0.69252
 C3722 C 0.88795 0.82101 0.70265
 C3723 C 0.90395 0.78697 0.69049
 C3724 C 0.91453 0.78176 0.69618
 C3725 C 0.92058 0.78780 0.70627
 C3726 C 0.91562 0.79966 0.71046
 C3727 C 0.92209 0.80603 0.72008
 C3728 C 0.93297 0.80102 0.72546
 C3729 C 0.93776 0.78939 0.72165
 C3730 C 0.93156 0.78249 0.71214
 C3731 C 0.93662 0.77053 0.70895
 C3732 C 0.94756 0.76590 0.71467
 C3733 C 0.95387 0.77294 0.72377
 C3734 C 0.94882 0.78465 0.72729
 H3735 H 0.90210 0.82167 0.71642
 H3736 H 0.88404 0.79811 0.68093
 H3737 H 0.88394 0.82978 0.70600
 H3738 H 0.89971 0.78202 0.68272
 H3739 H 0.91789 0.77303 0.69224
 H3740 H 0.91914 0.81508 0.72357
 H3741 H 0.93767 0.80633 0.73273
 H3742 H 0.93232 0.76441 0.70219
 H3743 H 0.95103 0.75666 0.71201
 H3744 H 0.95363 0.79023 0.73427
 C3745 C 0.60147 0.31367 0.29140
 C3746 C 0.59511 0.30290 0.29600
 C3747 C 0.59966 0.29752 0.30724
 C3748 C 0.61020 0.30261 0.31340
 C3749 C 0.61647 0.31321 0.30866
 C3750 C 0.61193 0.31867 0.29763
 C3751 C 0.59368 0.28704 0.31234
 C3752 C 0.58315 0.28182 0.30664
 C3753 C 0.57816 0.28682 0.29546
 C3754 C 0.58440 0.29738 0.28990
 C3755 C 0.57978 0.30198 0.27840
 C3756 C 0.56934 0.29664 0.27263
 C3757 C 0.56295 0.28661 0.27808
 C3758 C 0.56719 0.28155 0.28960
 C3759 C 0.56014 0.27152 0.29481
 C3760 C 0.54947 0.26675 0.28880
 C3761 C 0.54539 0.27172 0.27738
 C3762 C 0.55225 0.28164 0.27207
 H3763 H 0.59858 0.31856 0.28308
 H3764 H 0.61344 0.29827 0.32196
 H3765 H 0.61643 0.32687 0.29368
 H3766 H 0.59716 0.28284 0.32090
 H3767 H 0.57923 0.27371 0.31122
 H3768 H 0.58412 0.30967 0.27348
 H3769 H 0.56617 0.30051 0.26380
 H3770 H 0.56245 0.26725 0.30363
 H3771 H 0.54422 0.25927 0.29328
 H3772 H 0.54931 0.28550 0.26316
 C3773 C 0.60434 0.81028 0.79186
 C3774 C 0.59630 0.80142 0.79769
 C3775 C 0.59909 0.79803 0.81019
 C3776 C 0.60962 0.80317 0.81638
 C3777 C 0.61749 0.81192 0.81042
 C3778 C 0.61469 0.81539 0.79812
 C3779 C 0.59131 0.78959 0.81650
 C3780 C 0.58068 0.78453 0.81078
 C3781 C 0.57744 0.78759 0.79837
 C3782 C 0.58556 0.79593 0.79161
 C3783 C 0.58275 0.79843 0.77897
 C3784 C 0.57227 0.79319 0.77318
 C3785 C 0.56404 0.78540 0.77972
 C3786 C 0.56641 0.78253 0.79243
 C3787 C 0.55751 0.77482 0.79866
 C3788 C 0.54685 0.77017 0.79251
 C3789 C 0.54465 0.77292 0.77991
 C3790 C 0.55338 0.78051 0.77358
 H3791 H 0.60285 0.81362 0.78250
 H3792 H 0.61155 0.80047 0.82593
 H3793 H 0.62055 0.82205 0.79318
 H3794 H 0.59341 0.78691 0.82603
 H3795 H 0.57528 0.77806 0.81636
 H3796 H 0.58856 0.80429 0.77315
 H3797 H 0.57053 0.79539 0.76345
 H3798 H 0.55833 0.77238 0.80837
 H3799 H 0.54017 0.76458 0.79777
 H3800 H 0.55193 0.78260 0.76379
 C3801 C 0.09917 0.31467 0.79210
 C3802 C 0.09367 0.30310 0.79568
 C3803 C 0.09919 0.29661 0.80590
 C3804 C 0.10995 0.30144 0.81196
 C3805 C 0.11538 0.31284 0.80815
 C3806 C 0.10978 0.31939 0.79821
 C3807 C 0.09393 0.28534 0.81004
 C3808 C 0.08321 0.28039 0.80439
 C3809 C 0.07734 0.28646 0.79417
 C3810 C 0.08284 0.29785 0.78957
 C3811 C 0.07743 0.30357 0.77892
 C3812 C 0.06682 0.29859 0.77318
 C3813 C 0.06108 0.28778 0.77779
 C3814 C 0.06620 0.28150 0.78833
 C3815 C 0.05982 0.27060 0.79262
 C3816 C 0.04890 0.26624 0.78667
 C3817 C 0.04392 0.27254 0.77628
 C3818 C 0.05017 0.28325 0.77186
 H3819 H 0.09542 0.32048 0.78473
 H3820 H 0.11406 0.29624 0.81966
 H3821 H 0.11349 0.32832 0.79510
 H3822 H 0.09811 0.28030 0.81783
 H3823 H 0.07983 0.27165 0.80820
 H3824 H 0.08125 0.31187 0.77462
 H3825 H 0.06300 0.30335 0.76505
 H3826 H 0.06287 0.26532 0.80066
 H3827 H 0.04417 0.25803 0.79040
 H3828 H 0.04654 0.28810 0.76370
 C3829 C 0.10271 0.81566 0.29078
 C3830 C 0.09615 0.80502 0.29538
 C3831 C 0.10088 0.79928 0.30639
 C3832 C 0.11153 0.80417 0.31252
 C3833 C 0.11784 0.81478 0.30791
 C3834 C 0.11332 0.82041 0.29695
 C3835 C 0.09495 0.78869 0.31130
 C3836 C 0.08441 0.78356 0.30554
 C3837 C 0.07926 0.78889 0.29458
 C3838 C 0.08513 0.79989 0.28949
 C3839 C 0.07970 0.80546 0.27878
 C3840 C 0.06894 0.80052 0.27322
 C3841 C 0.06320 0.78976 0.27797
 C3842 C 0.06831 0.78368 0.28863
 C3843 C 0.06221 0.77263 0.29288
 C3844 C 0.05138 0.76809 0.28698
 C3845 C 0.04620 0.77432 0.27665
 C3846 C 0.05226 0.78511 0.27213
 H3847 H 0.09998 0.82053 0.28239
 H3848 H 0.11482 0.79963 0.32096
 H3849 H 0.11796 0.82854 0.29300
 H3850 H 0.09850 0.78429 0.31973
 H3851 H 0.08044 0.77546 0.31007
 H3852 H 0.08343 0.81382 0.27449
 H3853 H 0.06508 0.80521 0.26507
 H3854 H 0.06556 0.76717 0.30067
 H3855 H 0.04708 0.75956 0.29050
 H3856 H 0.04830 0.79007 0.26419
 C3857 C 0.59623 0.70190 0.68389
 C3858 C 0.59298 0.70085 0.69666
 C3859 C 0.60147 0.69417 0.70454
 C3860 C 0.61251 0.68855 0.69967
 C3861 C 0.61551 0.68967 0.68700
 C3862 C 0.60729 0.69642 0.67921
 C3863 C 0.59896 0.69317 0.71725
 C3864 C 0.58828 0.69880 0.72243
 C3865 C 0.57950 0.70554 0.71503
 C3866 C 0.58172 0.70630 0.70187
 C3867 C 0.57253 0.71233 0.69435
 C3868 C 0.56167 0.71763 0.69946
 C3869 C 0.55955 0.71731 0.71227
 C3870 C 0.56845 0.71139 0.72029
 C3871 C 0.56592 0.71166 0.73327
 C3872 C 0.55491 0.71731 0.73794
 C3873 C 0.54604 0.72289 0.72992
 C3874 C 0.54848 0.72287 0.71708
 H3875 H 0.59056 0.70704 0.67726
 H3876 H 0.61890 0.68352 0.70584
 H3877 H 0.60931 0.69742 0.66937
 H3878 H 0.60540 0.68805 0.72332
 H3879 H 0.58709 0.69748 0.73231
 H3880 H 0.57330 0.71295 0.68437
 H3881 H 0.55486 0.72209 0.69328
 H3882 H 0.57229 0.70776 0.74010
 H3883 H 0.55342 0.71743 0.74793
 H3884 H 0.54164 0.72703 0.71074
 C3885 C 0.60253 0.20713 0.18601
 C3886 C 0.59605 0.20215 0.19644
 C3887 C 0.60116 0.19116 0.20207
 C3888 C 0.61205 0.18527 0.19712
 C3889 C 0.61819 0.19020 0.18661
 C3890 C 0.61333 0.20126 0.18123
 C3891 C 0.59539 0.18607 0.21261
 C3892 C 0.58469 0.19168 0.21778
 C3893 C 0.57914 0.20258 0.21249
 C3894 C 0.58476 0.20774 0.20147
 C3895 C 0.57879 0.21817 0.19574
 C3896 C 0.56784 0.22351 0.20062
 C3897 C 0.56243 0.21881 0.21150
 C3898 C 0.56803 0.20838 0.21770
 C3899 C 0.56226 0.20425 0.22890
 C3900 C 0.55130 0.21006 0.23349
 C3901 C 0.54566 0.22018 0.22714
 C3902 C 0.55135 0.22451 0.21616
 H3903 H 0.59963 0.21566 0.18137
 H3904 H 0.61567 0.17680 0.20151
 H3905 H 0.61784 0.20553 0.17325
 H3906 H 0.59923 0.17766 0.21695
 H3907 H 0.58084 0.18705 0.22586
 H3908 H 0.58219 0.22237 0.18724
 H3909 H 0.56357 0.23145 0.19582
 H3910 H 0.56603 0.19665 0.23445
 H3911 H 0.54731 0.20668 0.24216
 H3912 H 0.54704 0.23225 0.21108
 C3913 C 0.10153 0.70678 0.18593
 C3914 C 0.09585 0.70258 0.19711
 C3915 C 0.10091 0.69156 0.20273
 C3916 C 0.11148 0.68536 0.19751
 C3917 C 0.11715 0.68983 0.18653
 C3918 C 0.11194 0.70054 0.18080
 C3919 C 0.09537 0.68675 0.21352
 C3920 C 0.08478 0.69250 0.21879
 C3921 C 0.07939 0.70351 0.21358
 C3922 C 0.08526 0.70883 0.20277
 C3923 C 0.08045 0.72032 0.19805
 C3924 C 0.07001 0.72619 0.20337
 C3925 C 0.06383 0.72085 0.21353
 C3926 C 0.06837 0.70945 0.21883
 C3927 C 0.06153 0.70442 0.22905
 C3928 C 0.05068 0.71046 0.23366
 C3929 C 0.04627 0.72170 0.22831
 C3930 C 0.05304 0.72689 0.21835
 H3931 H 0.09806 0.71476 0.18073
 H3932 H 0.11524 0.67703 0.20203
 H3933 H 0.11583 0.70423 0.17224
 H3934 H 0.09921 0.67835 0.21791
 H3935 H 0.08115 0.68814 0.22712
 H3936 H 0.08465 0.72520 0.19031
 H3937 H 0.06665 0.73498 0.19938
 H3938 H 0.06412 0.69571 0.23354
 H3939 H 0.04555 0.70612 0.24126
 H3940 H 0.04988 0.73571 0.21426
 C3941 C 0.09937 0.18648 0.70257
 C3942 C 0.09443 0.19842 0.69921
 C3943 C 0.10045 0.20492 0.68931
 C3944 C 0.11124 0.19979 0.68344
 C3945 C 0.11619 0.18809 0.68715
 C3946 C 0.11002 0.18147 0.69666
 C3947 C 0.09569 0.21652 0.68532
 C3948 C 0.08497 0.22179 0.69081
 C3949 C 0.07866 0.21576 0.70076
 C3950 C 0.08368 0.20404 0.70523
 C3951 C 0.07790 0.19839 0.71570
 C3952 C 0.06734 0.20372 0.72134
 C3953 C 0.06202 0.21483 0.71678
 C3954 C 0.06755 0.22106 0.70645
 C3955 C 0.06158 0.23227 0.70219
 C3956 C 0.05061 0.23692 0.70793
 C3957 C 0.04520 0.23064 0.71808
 C3958 C 0.05108 0.21967 0.72253
 H3959 H 0.09514 0.18062 0.70961
 H3960 H 0.11584 0.20503 0.67607
 H3961 H 0.11334 0.17227 0.69957
 H3962 H 0.10025 0.22156 0.67778
 H3963 H 0.08198 0.23076 0.68713
 H3964 H 0.08142 0.18988 0.71994
 H3965 H 0.06323 0.19900 0.72933
 H3966 H 0.06496 0.23754 0.69431
 H3967 H 0.04618 0.24534 0.70419
 H3968 H 0.04712 0.21483 0.73052
 C3969 C 0.39903 0.70571 0.31418
 C3970 C 0.40414 0.70201 0.30254
 C3971 C 0.39834 0.69177 0.29632
 C3972 C 0.38767 0.68581 0.30147
 C3973 C 0.38260 0.68976 0.31293
 C3974 C 0.38849 0.69970 0.31922
 C3975 C 0.40320 0.68750 0.28498
 C3976 C 0.41382 0.69304 0.27971
 C3977 C 0.41997 0.70327 0.28550
 C3978 C 0.41486 0.70802 0.29696
 C3979 C 0.42054 0.71871 0.30239
 C3980 C 0.43105 0.72436 0.29707
 C3981 C 0.43642 0.71958 0.28619
 C3982 C 0.43102 0.70898 0.28020
 C3983 C 0.43705 0.70448 0.26925
 C3984 C 0.44791 0.71025 0.26455
 C3985 C 0.45317 0.72072 0.27054
 C3986 C 0.44726 0.72538 0.28130
 H3987 H 0.40302 0.71309 0.31979
 H3988 H 0.38331 0.67811 0.29646
 H3989 H 0.38508 0.70289 0.32819
 H3990 H 0.39879 0.67970 0.28015
 H3991 H 0.41688 0.68915 0.27094
 H3992 H 0.41702 0.72311 0.31075
 H3993 H 0.43508 0.73253 0.30162
 H3994 H 0.43378 0.69637 0.26418
 H3995 H 0.45238 0.70632 0.25633
 H3996 H 0.45112 0.73359 0.28593
 C3997 C 0.39753 0.18727 0.79124
 C3998 C 0.40433 0.19754 0.79626
 C3999 C 0.39967 0.20303 0.80742
 C4000 C 0.38887 0.19817 0.81336
 C4001 C 0.38237 0.18785 0.80836
 C4002 C 0.38681 0.18255 0.79719
 C4003 C 0.40582 0.21333 0.81265
 C4004 C 0.41648 0.21842 0.80705
 C4005 C 0.42156 0.21331 0.79595
 C4006 C 0.41552 0.20254 0.79059
 C4007 C 0.42098 0.19703 0.77984
 C4008 C 0.43185 0.20189 0.77445
 C4009 C 0.43769 0.21250 0.77939
 C4010 C 0.43260 0.21847 0.79013
 C4011 C 0.43879 0.22940 0.79454
 C4012 C 0.44969 0.23393 0.78872
 C4013 C 0.45482 0.22780 0.77830
 C4014 C 0.44869 0.21712 0.77365
 H4015 H 0.40013 0.18269 0.78265
 H4016 H 0.38560 0.20246 0.82194
 H4017 H 0.38201 0.17471 0.79290
 H4018 H 0.40234 0.21754 0.82121
 H4019 H 0.42064 0.22629 0.81182
 H4020 H 0.41720 0.18877 0.77542
 H4021 H 0.43572 0.19727 0.76626
 H4022 H 0.43544 0.23478 0.80239
 H4023 H 0.45405 0.24237 0.79235
 H4024 H 0.45262 0.21222 0.76565
 C4025 C 0.89765 0.68732 0.79326
 C4026 C 0.90419 0.69781 0.79810
 C4027 C 0.89914 0.70372 0.80889
 C4028 C 0.88831 0.69884 0.81482
 C4029 C 0.88216 0.68818 0.81008
 C4030 C 0.88691 0.68264 0.79915
 C4031 C 0.90494 0.71444 0.81369
 C4032 C 0.91556 0.71955 0.80797
 C4033 C 0.92104 0.71393 0.79729
 C4034 C 0.91547 0.70267 0.79251
 C4035 C 0.92150 0.69645 0.78247
 C4036 C 0.93240 0.70119 0.77706
 C4037 C 0.93768 0.71239 0.78128
 C4038 C 0.93204 0.71904 0.79134
 C4039 C 0.93766 0.73057 0.79495
 C4040 C 0.94851 0.73505 0.78898
 C4041 C 0.95419 0.72825 0.77925
 C4042 C 0.94866 0.71692 0.77546
 H4043 H 0.90041 0.68259 0.78481
 H4044 H 0.88472 0.70339 0.82315
 H4045 H 0.88239 0.67458 0.79496
 H4046 H 0.90117 0.71901 0.82195
 H4047 H 0.91945 0.72779 0.81235
 H4048 H 0.91823 0.68766 0.77870
 H4049 H 0.93673 0.69603 0.76943
 H4050 H 0.93380 0.73647 0.80220
 H4051 H 0.95239 0.74399 0.79193
 H4052 H 0.95301 0.71146 0.76805
 C4053 C 0.89847 0.18707 0.29313
 C4054 C 0.90450 0.19798 0.29771
 C4055 C 0.89909 0.20395 0.30830
 C4056 C 0.88836 0.19884 0.31421
 C4057 C 0.88266 0.18785 0.30967
 C4058 C 0.88782 0.18214 0.29901
 C4059 C 0.90441 0.21498 0.31296
 C4060 C 0.91491 0.22034 0.30728
 C4061 C 0.92072 0.21474 0.29677
 C4062 C 0.91562 0.20319 0.29211
 C4063 C 0.92194 0.19711 0.28217
 C4064 C 0.93274 0.20217 0.27681
 C4065 C 0.93760 0.21359 0.28097
 C4066 C 0.93160 0.22016 0.29088
 C4067 C 0.93676 0.23192 0.29441
 C4068 C 0.94755 0.23668 0.28857
 C4069 C 0.95363 0.22995 0.27902
 C4070 C 0.94851 0.21841 0.27526
 H4071 H 0.90159 0.18215 0.28489
 H4072 H 0.88449 0.20349 0.32235
 H4073 H 0.88367 0.17376 0.29504
 H4074 H 0.90037 0.21956 0.32108
 H4075 H 0.91843 0.22879 0.31157
 H4076 H 0.91897 0.18820 0.27842
 H4077 H 0.93731 0.19708 0.26927
 H4078 H 0.93260 0.23779 0.30152
 H4079 H 0.95107 0.24578 0.29148
 H4080 H 0.95316 0.21302 0.26797
 C4081 C 0.31701 0.29734 0.59624
 C4082 C 0.30409 0.29845 0.59282
 C4083 C 0.29593 0.30522 0.60097
 C4084 C 0.30070 0.31093 0.61181
 C4085 C 0.31353 0.30976 0.61498
 C4086 C 0.32158 0.30287 0.60712
 C4087 C 0.28303 0.30619 0.59831
 C4088 C 0.27795 0.30044 0.58783
 C4089 C 0.28565 0.29363 0.57939
 C4090 C 0.29900 0.29298 0.58171
 C4091 C 0.30684 0.28707 0.57275
 C4092 C 0.30184 0.28179 0.56202
 C4093 C 0.28883 0.28193 0.55984
 C4094 C 0.28049 0.28767 0.56855
 C4095 C 0.26733 0.28708 0.56606
 C4096 C 0.26276 0.28139 0.55524
 C4097 C 0.27108 0.27610 0.54647
 C4098 C 0.28413 0.27638 0.54891
 H4099 H 0.32383 0.29207 0.59086
 H4100 H 0.29433 0.31607 0.61792
 H4101 H 0.33155 0.30181 0.60930
 H4102 H 0.27675 0.31139 0.60446
 H4103 H 0.26792 0.30175 0.58648
 H4104 H 0.31700 0.28660 0.57359
 H4105 H 0.30827 0.27745 0.55537
 H4106 H 0.26026 0.29073 0.57237
 H4107 H 0.25261 0.28102 0.55380
 H4108 H 0.29072 0.27244 0.54219
 C4109 C 0.29337 0.81423 0.09942
 C4110 C 0.29712 0.80247 0.09437
 C4111 C 0.30743 0.79612 0.10012
 C4112 C 0.31338 0.80123 0.11067
 C4113 C 0.30939 0.81280 0.11567
 C4114 C 0.29939 0.81924 0.10984
 C4115 C 0.31178 0.78469 0.09531
 C4116 C 0.30627 0.77946 0.08477
 C4117 C 0.29598 0.78538 0.07868
 C4118 C 0.29111 0.79691 0.08377
 C4119 C 0.28030 0.80242 0.07818
 C4120 C 0.27466 0.79712 0.06778
 C4121 C 0.27958 0.78619 0.06242
 C4122 C 0.29031 0.78014 0.06773
 C4123 C 0.29498 0.76916 0.06171
 C4124 C 0.28921 0.76450 0.05095
 C4125 C 0.27860 0.77055 0.04581
 C4126 C 0.27380 0.78134 0.05169
 H4127 H 0.28595 0.81995 0.09545
 H4128 H 0.32112 0.79610 0.11498
 H4129 H 0.29617 0.82830 0.11323
 H4130 H 0.31962 0.77975 0.09969
 H4131 H 0.31023 0.77061 0.08175
 H4132 H 0.27578 0.81080 0.08172
 H4133 H 0.26638 0.80171 0.06382
 H4134 H 0.30322 0.76407 0.06489
 H4135 H 0.29326 0.75626 0.04649
 H4136 H 0.26548 0.78600 0.04790
 C4137 C 0.79029 0.30713 0.10675
 C4138 C 0.79693 0.29909 0.09846
 C4139 C 0.81007 0.29717 0.10061
 C4140 C 0.81609 0.30282 0.11086
 C4141 C 0.80933 0.31077 0.11892
 C4142 C 0.79641 0.31285 0.11674
 C4143 C 0.81717 0.28974 0.09244
 C4144 C 0.81163 0.28443 0.08196
 C4145 C 0.79861 0.28613 0.07933
 C4146 C 0.79105 0.29315 0.08800
 C4147 C 0.77784 0.29390 0.08599
 C4148 C 0.77225 0.28845 0.07563
 C4149 C 0.77957 0.28221 0.06674
 C4150 C 0.79286 0.28098 0.06838
 C4151 C 0.79984 0.27488 0.05882
 C4152 C 0.79383 0.27023 0.04819
 C4153 C 0.78068 0.27138 0.04670
 C4154 C 0.77362 0.27729 0.05612
 H4155 H 0.78041 0.30947 0.10564
 H4156 H 0.82615 0.30130 0.11236
 H4157 H 0.79090 0.31890 0.12283
 H4158 H 0.82719 0.28815 0.09407
 H4159 H 0.81781 0.27882 0.07618
 H4160 H 0.77144 0.29847 0.09240
 H4161 H 0.76207 0.28931 0.07449
 H4162 H 0.80999 0.27384 0.05908
 H4163 H 0.79961 0.26596 0.04097
 H4164 H 0.76342 0.27811 0.05520
 C4165 C 0.81590 0.79298 0.60225
 C4166 C 0.80452 0.79688 0.59639
 C4167 C 0.79809 0.80747 0.60146
 C4168 C 0.80279 0.81360 0.61209
 C4169 C 0.81402 0.80952 0.61785
 C4170 C 0.82052 0.79920 0.61275
 C4171 C 0.78702 0.81194 0.59587
 C4172 C 0.78221 0.80625 0.58525
 C4173 C 0.78820 0.79566 0.57982
 C4174 C 0.79939 0.79073 0.58566
 C4175 C 0.80502 0.77975 0.58063
 C4176 C 0.80013 0.77394 0.57014
 C4177 C 0.78950 0.77883 0.56413
 C4178 C 0.78335 0.78977 0.56881
 C4179 C 0.77268 0.79437 0.56215
 C4180 C 0.76840 0.78834 0.55138
 C4181 C 0.77454 0.77754 0.54686
 C4182 C 0.78503 0.77281 0.55338
 H4183 H 0.82163 0.78527 0.59891
 H4184 H 0.79760 0.82157 0.61584
 H4185 H 0.82930 0.79584 0.61677
 H4186 H 0.78204 0.82002 0.59972
 H4187 H 0.77363 0.81035 0.58159
 H4188 H 0.81321 0.77524 0.58468
 H4189 H 0.80481 0.76553 0.56663
 H4190 H 0.76754 0.80272 0.56485
 H4191 H 0.76038 0.79233 0.54643
 H4192 H 0.78974 0.76433 0.55009
 C4193 C 0.31307 0.70359 0.40087
 C4194 C 0.30115 0.70024 0.40583
 C4195 C 0.29459 0.69019 0.40005
 C4196 C 0.29959 0.68425 0.38935
 C4197 C 0.31127 0.68799 0.38433
 C4198 C 0.31798 0.69758 0.39037
 C4199 C 0.28308 0.68612 0.40498
 C4200 C 0.27799 0.69168 0.41562
 C4201 C 0.28408 0.70181 0.42164
 C4202 C 0.29565 0.70641 0.41641
 C4203 C 0.30123 0.71719 0.42177
 C4204 C 0.29601 0.72301 0.43214
 C4205 C 0.28509 0.71831 0.43772
 C4206 C 0.27895 0.70764 0.43263
 C4207 C 0.26801 0.70319 0.43888
 C4208 C 0.26346 0.70914 0.44964
 C4209 C 0.26957 0.71973 0.45455
 C4210 C 0.28033 0.72429 0.44842
 H4211 H 0.31903 0.71064 0.40500
 H4212 H 0.29432 0.67676 0.38492
 H4213 H 0.32719 0.70051 0.38711
 H4214 H 0.27798 0.67845 0.40062
 H4215 H 0.26908 0.68794 0.41876
 H4216 H 0.30956 0.72159 0.41801
 H4217 H 0.30065 0.73126 0.43591
 H4218 H 0.26290 0.69499 0.43587
 H4219 H 0.25525 0.70525 0.45428
 H4220 H 0.28505 0.73259 0.45197
 C4221 C 0.31487 0.20570 0.89898
 C4222 C 0.30328 0.20202 0.90448
 C4223 C 0.29690 0.19160 0.89916
 C4224 C 0.30179 0.18551 0.88852
 C4225 C 0.31315 0.18951 0.88300
 C4226 C 0.31964 0.19957 0.88848
 C4227 C 0.28566 0.18731 0.90448
 C4228 C 0.28061 0.19305 0.91504
 C4229 C 0.28653 0.20352 0.92065
 C4230 C 0.29790 0.20825 0.91509
 C4231 C 0.30342 0.21918 0.92022
 C4232 C 0.29828 0.22509 0.93058
 C4233 C 0.28750 0.22037 0.93637
 C4234 C 0.28143 0.20951 0.93156
 C4235 C 0.27059 0.20510 0.93800
 C4236 C 0.26606 0.21122 0.94867
 C4237 C 0.27212 0.22195 0.95332
 C4238 C 0.28279 0.22649 0.94701
 H4239 H 0.32063 0.21317 0.90262
 H4240 H 0.29666 0.17769 0.88452
 H4241 H 0.32857 0.20279 0.88474
 H4242 H 0.28071 0.17937 0.90047
 H4243 H 0.27189 0.18914 0.91847
 H4244 H 0.31168 0.22359 0.91632
 H4245 H 0.30289 0.23345 0.93416
 H4246 H 0.26549 0.19682 0.93519
 H4247 H 0.25792 0.20737 0.95344
 H4248 H 0.28746 0.23490 0.95037
 C4249 C 0.79377 0.68383 0.89953
 C4250 C 0.79762 0.69525 0.90511
 C4251 C 0.80810 0.70156 0.89974
 C4252 C 0.81411 0.69673 0.88902
 C4253 C 0.81000 0.68549 0.88348
 C4254 C 0.79983 0.67910 0.88896
 C4255 C 0.81254 0.71266 0.90509
 C4256 C 0.80693 0.71761 0.91576
 C4257 C 0.79645 0.71172 0.92147
 C4258 C 0.79153 0.70052 0.91587
 C4259 C 0.78058 0.69504 0.92111
 C4260 C 0.77482 0.70007 0.93161
 C4261 C 0.77974 0.71069 0.93744
 C4262 C 0.79063 0.71670 0.93252
 C4263 C 0.79526 0.72736 0.93900
 C4264 C 0.78931 0.73178 0.94980
 C4265 C 0.77853 0.72581 0.95456
 C4266 C 0.77378 0.71530 0.94823
 H4267 H 0.78620 0.67815 0.90317
 H4268 H 0.82201 0.70180 0.88502
 H4269 H 0.79644 0.67032 0.88517
 H4270 H 0.82052 0.71757 0.90102
 H4271 H 0.81097 0.72621 0.91921
 H4272 H 0.77604 0.68690 0.91721
 H4273 H 0.76644 0.69551 0.93528
 H4274 H 0.80360 0.73239 0.93612
 H4275 H 0.79334 0.73979 0.95460
 H4276 H 0.76533 0.71070 0.95168
 C4277 C 0.79365 0.18574 0.39830
 C4278 C 0.79798 0.19700 0.40389
 C4279 C 0.80876 0.20282 0.39857
 C4280 C 0.81467 0.19768 0.38794
 C4281 C 0.81015 0.18658 0.38243
 C4282 C 0.79962 0.18070 0.38781
 C4283 C 0.81363 0.21376 0.40387
 C4284 C 0.80818 0.21900 0.41447
 C4285 C 0.79744 0.21358 0.42017
 C4286 C 0.79208 0.20256 0.41462
 C4287 C 0.78093 0.19754 0.41989
 C4288 C 0.77537 0.20286 0.43037
 C4289 C 0.78070 0.21331 0.43614
 C4290 C 0.79182 0.21884 0.43119
 C4291 C 0.79690 0.22934 0.43761
 C4292 C 0.79114 0.23406 0.44839
 C4293 C 0.78013 0.22856 0.45317
 C4294 C 0.77493 0.21823 0.44691
 H4295 H 0.78576 0.18046 0.40185
 H4296 H 0.82283 0.20238 0.38403
 H4297 H 0.79587 0.17207 0.38399
 H4298 H 0.82183 0.21831 0.39982
 H4299 H 0.81256 0.22745 0.41788
 H4300 H 0.77609 0.18953 0.41606
 H4301 H 0.76681 0.19865 0.43407
 H4302 H 0.80544 0.23401 0.43471
 H4303 H 0.79552 0.24191 0.45314
 H4304 H 0.76631 0.21398 0.45039
 C4305 C 0.68524 0.29128 0.39812
 C4306 C 0.69601 0.29599 0.40442
 C4307 C 0.70179 0.30692 0.39946
 C4308 C 0.69683 0.31288 0.38882
 C4309 C 0.68608 0.30817 0.38275
 C4310 C 0.68040 0.29728 0.38753
 C4311 C 0.71251 0.31192 0.40515
 C4312 C 0.71776 0.30629 0.41562
 C4313 C 0.71242 0.29538 0.42096
 C4314 C 0.70125 0.29025 0.41539
 C4315 C 0.69561 0.27965 0.42106
 C4316 C 0.70068 0.27423 0.43175
 C4317 C 0.71165 0.27899 0.43718
 C4318 C 0.71779 0.28953 0.43181
 C4319 C 0.72909 0.29375 0.43754
 C4320 C 0.73379 0.28798 0.44827
 C4321 C 0.72750 0.27780 0.45374
 C4322 C 0.71647 0.27327 0.44803
 H4323 H 0.68033 0.28292 0.40104
 H4324 H 0.70143 0.32125 0.38532
 H4325 H 0.67216 0.29326 0.38311
 H4326 H 0.71694 0.32032 0.40144
 H4327 H 0.72595 0.31091 0.41942
 H4328 H 0.68710 0.27537 0.41758
 H4329 H 0.69594 0.26617 0.43580
 H4330 H 0.73463 0.30141 0.43394
 H4331 H 0.74252 0.29148 0.45227
 H4332 H 0.71148 0.26542 0.45218
 C4333 C 0.70395 0.81391 0.90141
 C4334 C 0.70062 0.80200 0.90627
 C4335 C 0.69054 0.79549 0.90041
 C4336 C 0.68456 0.80054 0.88975
 C4337 C 0.68830 0.81220 0.88483
 C4338 C 0.69791 0.81885 0.89094
 C4339 C 0.68649 0.78399 0.90522
 C4340 C 0.69210 0.77884 0.91581
 C4341 C 0.70227 0.78487 0.92190
 C4342 C 0.70683 0.79646 0.91681
 C4343 C 0.71762 0.80201 0.92226
 C4344 C 0.72350 0.79673 0.93257
 C4345 C 0.71885 0.78578 0.93800
 C4346 C 0.70815 0.77967 0.93283
 C4347 C 0.70374 0.76870 0.93895
 C4348 C 0.70975 0.76408 0.94965
 C4349 C 0.72036 0.77014 0.95464
 C4350 C 0.72489 0.78095 0.94865
 H4351 H 0.71103 0.81981 0.90560
 H4352 H 0.67705 0.79530 0.88528
 H4353 H 0.70085 0.82803 0.88774
 H4354 H 0.67881 0.77893 0.90080
 H4355 H 0.68839 0.76993 0.91885
 H4356 H 0.72199 0.81038 0.91862
 H4357 H 0.73177 0.80135 0.93641
 H4358 H 0.69552 0.76361 0.93587
 H4359 H 0.70587 0.75584 0.95418
 H4360 H 0.73322 0.78564 0.95226
 C4361 C 0.18440 0.29470 0.89818
 C4362 C 0.19608 0.29844 0.90346
 C4363 C 0.20249 0.30863 0.89775
 C4364 C 0.19749 0.31450 0.88703
 C4365 C 0.18598 0.31053 0.88183
 C4366 C 0.17950 0.30063 0.88762
 C4367 C 0.21385 0.31296 0.90276
 C4368 C 0.21899 0.30750 0.91340
 C4369 C 0.21303 0.29728 0.91943
 C4370 C 0.20152 0.29252 0.91422
 C4371 C 0.19590 0.28190 0.91985
 C4372 C 0.20113 0.27628 0.93034
 C4373 C 0.21210 0.28103 0.93576
 C4374 C 0.21824 0.29160 0.93045
 C4375 C 0.22927 0.29608 0.93651
 C4376 C 0.23391 0.29028 0.94729
 C4377 C 0.22780 0.27982 0.95245
 C4378 C 0.21693 0.27522 0.94654
 H4379 H 0.17866 0.28733 0.90206
 H4380 H 0.20266 0.32215 0.88277
 H4381 H 0.17051 0.29739 0.88408
 H4382 H 0.21882 0.32073 0.89844
 H4383 H 0.22778 0.31145 0.91659
 H4384 H 0.18748 0.27751 0.91629
 H4385 H 0.19645 0.26815 0.93432
 H4386 H 0.23446 0.30416 0.93331
 H4387 H 0.24221 0.29419 0.95175
 H4388 H 0.21221 0.26701 0.95030
 C4389 C 0.18414 0.79304 0.39887
 C4390 C 0.19541 0.79698 0.40485
 C4391 C 0.20177 0.80752 0.39977
 C4392 C 0.19710 0.81361 0.38905
 C4393 C 0.18599 0.80950 0.38318
 C4394 C 0.17957 0.79919 0.38828
 C4395 C 0.21277 0.81199 0.40540
 C4396 C 0.21760 0.80631 0.41606
 C4397 C 0.21166 0.79578 0.42153
 C4398 C 0.20051 0.79089 0.41569
 C4399 C 0.19489 0.78001 0.42082
 C4400 C 0.19980 0.77423 0.43137
 C4401 C 0.21044 0.77905 0.43735
 C4402 C 0.21654 0.78990 0.43258
 C4403 C 0.22721 0.79443 0.43919
 C4404 C 0.23157 0.78841 0.44996
 C4405 C 0.22552 0.77766 0.45456
 C4406 C 0.21497 0.77302 0.44813
 H4407 H 0.17850 0.78532 0.40218
 H4408 H 0.20223 0.82157 0.38532
 H4409 H 0.17090 0.79579 0.38415
 H4410 H 0.21770 0.82002 0.40154
 H4411 H 0.22614 0.81039 0.41973
 H4412 H 0.18669 0.77558 0.41683
 H4413 H 0.19513 0.76590 0.43494
 H4414 H 0.23234 0.80272 0.43643
 H4415 H 0.23961 0.79235 0.45484
 H4416 H 0.21029 0.76461 0.45148
 C4417 C 0.68636 0.70402 0.59989
 C4418 C 0.69851 0.70070 0.59535
 C4419 C 0.70504 0.69073 0.60141
 C4420 C 0.69977 0.68481 0.61194
 C4421 C 0.68786 0.68849 0.61652
 C4422 C 0.68119 0.69802 0.61025
 C4423 C 0.71680 0.68671 0.59694
 C4424 C 0.72218 0.69224 0.58646
 C4425 C 0.71611 0.70227 0.58014
 C4426 C 0.70427 0.70683 0.58492
 C4427 C 0.69867 0.71750 0.57925
 C4428 C 0.70415 0.72325 0.56900
 C4429 C 0.71535 0.71858 0.56387
 C4430 C 0.72151 0.70801 0.56929
 C4431 C 0.73274 0.70356 0.56347
 C4432 C 0.73754 0.70939 0.55278
 C4433 C 0.73138 0.71984 0.54753
 C4434 C 0.72035 0.72444 0.55325
 H4435 H 0.68044 0.71104 0.59555
 H4436 H 0.70504 0.67738 0.61657
 H4437 H 0.67183 0.70091 0.61322
 H4438 H 0.72188 0.67912 0.60153
 H4439 H 0.73128 0.68855 0.58368
 H4440 H 0.69010 0.72185 0.58265
 H4441 H 0.69948 0.73142 0.56498
 H4442 H 0.73791 0.69544 0.56674
 H4443 H 0.74596 0.70549 0.54845
 H4444 H 0.71559 0.73264 0.54940
 C4445 C 0.71136 0.19173 0.10500
 C4446 C 0.70500 0.20004 0.09675
 C4447 C 0.69186 0.20213 0.09872
 C4448 C 0.68559 0.19648 0.10882
 C4449 C 0.69210 0.18841 0.11696
 C4450 C 0.70500 0.18605 0.11489
 C4451 C 0.68500 0.20979 0.09057
 C4452 C 0.69081 0.21526 0.08032
 C4453 C 0.70387 0.21349 0.07792
 C4454 C 0.71117 0.20615 0.08655
 C4455 C 0.72441 0.20533 0.08480
 C4456 C 0.73029 0.21107 0.07475
 C4457 C 0.72324 0.21767 0.06590
 C4458 C 0.70992 0.21892 0.06726
 C4459 C 0.70321 0.22536 0.05775
 C4460 C 0.70950 0.23034 0.04743
 C4461 C 0.72268 0.22921 0.04622
 C4462 C 0.72948 0.22294 0.05560
 H4463 H 0.72121 0.18922 0.10397
 H4464 H 0.67555 0.19821 0.11019
 H4465 H 0.71030 0.17986 0.12101
 H4466 H 0.67497 0.21149 0.09206
 H4467 H 0.68481 0.22108 0.07456
 H4468 H 0.73061 0.20049 0.09120
 H4469 H 0.74049 0.21017 0.07381
 H4470 H 0.69305 0.22641 0.05777
 H4471 H 0.70392 0.23484 0.04020
 H4472 H 0.73970 0.22210 0.05490
 C4473 C 0.20613 0.68506 0.09938
 C4474 C 0.20235 0.69672 0.09415
 C4475 C 0.19186 0.70302 0.09962
 C4476 C 0.18583 0.69802 0.11021
 C4477 C 0.18993 0.68659 0.11545
 C4478 C 0.20004 0.68015 0.10980
 C4479 C 0.18741 0.71428 0.09451
 C4480 C 0.19300 0.71937 0.08394
 C4481 C 0.20351 0.71350 0.07815
 C4482 C 0.20851 0.70220 0.08360
 C4483 C 0.21961 0.69684 0.07844
 C4484 C 0.22538 0.70202 0.06805
 C4485 C 0.22030 0.71264 0.06228
 C4486 C 0.20930 0.71858 0.06718
 C4487 C 0.20449 0.72924 0.06073
 C4488 C 0.21036 0.73369 0.04993
 C4489 C 0.22121 0.72773 0.04518
 C4490 C 0.22619 0.71730 0.05153
 H4491 H 0.21362 0.67932 0.09553
 H4492 H 0.17798 0.70311 0.11435
 H4493 H 0.20331 0.67116 0.11333
 H4494 H 0.17941 0.71918 0.09867
 H4495 H 0.18895 0.72808 0.08064
 H4496 H 0.22429 0.68872 0.08234
 H4497 H 0.23388 0.69755 0.06442
 H4498 H 0.19605 0.73420 0.06360
 H4499 H 0.20621 0.74167 0.04511
 H4500 H 0.23472 0.71274 0.04807
 C4501 C 0.20985 0.19241 0.60489
 C4502 C 0.20320 0.20030 0.59646
 C4503 C 0.19004 0.20214 0.59852
 C4504 C 0.18401 0.19663 0.60884
 C4505 C 0.19078 0.18894 0.61713
 C4506 C 0.20371 0.18683 0.61499
 C4507 C 0.18291 0.20940 0.59024
 C4508 C 0.18847 0.21469 0.57976
 C4509 C 0.20152 0.21314 0.57724
 C4510 C 0.20910 0.20624 0.58599
 C4511 C 0.22233 0.20567 0.58408
 C4512 C 0.22795 0.21127 0.57380
 C4513 C 0.22063 0.21746 0.56486
 C4514 C 0.20730 0.21840 0.56635
 C4515 C 0.20032 0.22437 0.55673
 C4516 C 0.20635 0.22926 0.54622
 C4517 C 0.21955 0.22850 0.54490
 C4518 C 0.22662 0.22264 0.55436
 H4519 H 0.21975 0.19013 0.60384
 H4520 H 0.17395 0.19816 0.61026
 H4521 H 0.20921 0.18092 0.62122
 H4522 H 0.17286 0.21092 0.59180
 H4523 H 0.18226 0.22021 0.57391
 H4524 H 0.22872 0.20114 0.59053
 H4525 H 0.23815 0.21059 0.57275
 H4526 H 0.19013 0.22512 0.55683
 H4527 H 0.20056 0.23340 0.53895
 H4528 H 0.23685 0.22209 0.55359
   
