data_POSCAR
  _audit_creation_date              2014-09-24
  _audit_creation_method            'ToBaCCo'
  _symmetry_space_group_name_H-M    'P1'
  _symmetry_Int_Tables_number       1
  _symmetry_cell_setting            triclinic
  loop_
  _symmetry_equiv_pos_as_xyz
 x,y,z
_cell_length_a 71.5169
_cell_length_b 71.4927
_cell_length_c 71.6087
_cell_angle_alpha 89.831500
_cell_angle_beta 90.124800
_cell_angle_gamma 89.868900
loop_
  _atom_site_label
  _atom_site_type_symbol
  _atom_site_fract_x
  _atom_site_fract_y
  _atom_site_fract_z
N1 N 0.35627 1.34348 0.30375
 N2 N 0.34397 1.35711 0.30457
 C3 C 0.34687 1.36883 0.29003
 C4 C 0.36186 1.36209 0.27955
 C5 C 0.36730 1.34592 0.28883
 H6 H 0.33876 1.38134 0.28741
 H7 H 0.37868 1.33665 0.28536
 Cu8 Cu 0.32576 1.35797 0.32496
 Cu9 Cu 0.35820 1.32388 0.32234
 Cu10 Cu 0.32584 1.32408 0.35797
 N11 N 0.30692 1.35716 0.34474
 N12 N 0.30716 1.34383 0.35741
 C13 C 0.29304 1.34648 0.36945
 C14 C 0.28321 1.36243 0.36424
 C15 C 0.29251 1.36881 0.34837
 H16 H 0.29036 1.33740 0.38121
 H17 H 0.28917 1.38103 0.34009
 N18 N 0.34586 1.30525 0.35609
 N19 N 0.35811 1.30518 0.34238
 C20 C 0.37023 1.29102 0.34504
 C21 C 0.36549 1.28165 0.36128
 C22 C 0.34989 1.29108 0.36789
 H23 H 0.38180 1.28794 0.33589
 H24 H 0.34219 1.28808 0.38050
 H25 H 0.33013 1.32448 0.32959
 H26 H 0.34643 1.33873 0.34425
 N27 N 0.35605 0.84478 0.80621
 N28 N 0.34232 0.85701 0.80578
 C29 C 0.34538 0.86942 0.79200
 C30 C 0.36193 0.86476 0.78314
 C31 C 0.36831 0.84896 0.79257
 H32 H 0.33621 0.88099 0.78872
 H33 H 0.38102 0.84122 0.78994
 Cu34 Cu 0.32215 0.85570 0.82365
 Cu35 Cu 0.35713 0.82471 0.82492
 Cu36 Cu 0.32168 0.82459 0.85831
 N37 N 0.30311 0.85678 0.84276
 N38 N 0.30294 0.84441 0.85635
 C39 C 0.28860 0.84824 0.86787
 C40 C 0.27928 0.86393 0.86116
 C41 C 0.28898 0.86895 0.84519
 H42 H 0.28540 0.84026 0.88029
 H43 H 0.28606 0.88062 0.83601
 N44 N 0.34195 0.80585 0.85773
 N45 N 0.35539 0.80580 0.84512
 C46 C 0.36694 0.79128 0.84863
 C47 C 0.36048 0.78170 0.86421
 C48 C 0.34460 0.79142 0.86954
 H49 H 0.37915 0.78796 0.84042
 H50 H 0.33560 0.78830 0.88122
 H51 H 0.32894 0.82300 0.83041
 H52 H 0.34281 0.83932 0.84515
 N53 N 0.85715 1.34606 0.80482
 N54 N 0.84411 1.35901 0.80503
 C55 C 0.84722 1.37126 0.79112
 C56 C 0.86313 1.36582 0.78146
 C57 C 0.86904 1.34965 0.79067
 H58 H 0.83849 1.38327 0.78837
 H59 H 0.88108 1.34112 0.78744
 Cu60 Cu 0.82435 1.35915 0.82355
 Cu61 Cu 0.85774 1.32582 0.82325
 Cu62 Cu 0.82293 1.32620 0.85700
 N63 N 0.80528 1.35935 0.84279
 N64 N 0.80474 1.34645 0.85585
 C65 C 0.79041 1.35011 0.86745
 C66 C 0.78144 1.36624 0.86135
 C67 C 0.79135 1.37168 0.84565
 H68 H 0.78688 1.34165 0.87946
 H69 H 0.78876 1.38381 0.83701
 N70 N 0.84252 1.30687 0.85589
 N71 N 0.85579 1.30663 0.84313
 C72 C 0.86702 1.29177 0.84635
 C73 C 0.86049 1.28218 0.86191
 C74 C 0.84493 1.29225 0.86751
 H75 H 0.87905 1.28823 0.83798
 H76 H 0.83605 1.28930 0.87933
 H77 H 0.82950 1.32578 0.82879
 H78 H 0.84449 1.34069 0.84404
 N79 N 0.85675 0.84623 0.30545
 N80 N 0.84370 0.85916 0.30580
 C81 C 0.84661 0.87142 0.29189
 C82 C 0.86243 0.86610 0.28207
 C83 C 0.86850 0.84991 0.29117
 H84 H 0.83778 0.88338 0.28926
 H85 H 0.88062 0.84150 0.28787
 Cu86 Cu 0.82402 0.85910 0.32435
 Cu87 Cu 0.85735 0.82586 0.32389
 Cu88 Cu 0.82190 0.82579 0.35714
 N89 N 0.80429 0.85891 0.34287
 N90 N 0.80346 0.84582 0.35572
 C91 C 0.78857 0.84906 0.36676
 C92 C 0.77954 0.86507 0.36044
 C93 C 0.78999 0.87089 0.34525
 H94 H 0.78471 0.84041 0.37853
 H95 H 0.78755 0.88308 0.33667
 N96 N 0.84178 0.80673 0.35635
 N97 N 0.85529 0.80660 0.34381
 C98 C 0.86659 0.79183 0.34729
 C99 C 0.85983 0.78220 0.36274
 C100 C 0.84411 0.79217 0.36804
 H101 H 0.87881 0.78834 0.33915
 H102 H 0.83507 0.78919 0.37972
 H103 H 0.82907 0.82571 0.32905
 H104 H 0.84387 0.84026 0.34479
 N105 N 0.64188 0.65791 0.30517
 N106 N 0.65411 0.64420 0.30548
 C107 C 0.65031 0.63237 0.29138
 C108 C 0.63478 0.63904 0.28175
 C109 C 0.62992 0.65534 0.29093
 H110 H 0.65800 0.61966 0.28862
 H111 H 0.61832 0.66453 0.28780
 Cu112 Cu 0.67318 0.64301 0.32485
 Cu113 Cu 0.64129 0.67731 0.32397
 Cu114 Cu 0.67494 0.67549 0.35888
 N115 N 0.69246 0.64244 0.34397
 N116 N 0.69312 0.65506 0.35727
 C117 C 0.70762 0.65112 0.36867
 C118 C 0.71656 0.63515 0.36219
 C119 C 0.70648 0.63011 0.34645
 H120 H 0.71124 0.65924 0.38086
 H121 H 0.70908 0.61831 0.33744
 N122 N 0.65522 0.69497 0.35773
 N123 N 0.64273 0.69566 0.34416
 C124 C 0.63090 0.70991 0.34725
 C125 C 0.63597 0.71872 0.36364
 C126 C 0.65157 0.70890 0.36988
 H127 H 0.61924 0.71343 0.33830
 H128 H 0.65937 0.71139 0.38257
 H129 H 0.66962 0.67634 0.33075
 H130 H 0.65363 0.66181 0.34538
 N131 N 0.64083 0.15515 0.80714
 N132 N 0.65506 0.14366 0.80554
 C133 C 0.65171 0.13196 0.79114
 C134 C 0.63439 0.13649 0.78330
 C135 C 0.62806 0.15132 0.79399
 H136 H 0.66119 0.12103 0.78676
 H137 H 0.61517 0.15904 0.79238
 Cu138 Cu 0.67632 0.14525 0.82275
 Cu139 Cu 0.63963 0.17480 0.82554
 Cu140 Cu 0.67807 0.18063 0.85406
 N141 N 0.69498 0.14594 0.84276
 N142 N 0.69548 0.15978 0.85479
 C143 C 0.70969 0.15706 0.86679
 C144 C 0.71873 0.14053 0.86223
 C145 C 0.70894 0.13386 0.84683
 H146 H 0.71311 0.16656 0.87798
 H147 H 0.71172 0.12118 0.83913
 N148 N 0.65571 0.19667 0.85547
 N149 N 0.64093 0.19407 0.84480
 C150 C 0.62772 0.20666 0.84928
 C151 C 0.63438 0.21777 0.86358
 C152 C 0.65225 0.21102 0.86715
 H153 H 0.61428 0.20773 0.84247
 H154 H 0.66191 0.21592 0.87768
 H155 H 0.66801 0.17836 0.82681
 H156 H 0.65773 0.16273 0.84510
 N157 N 1.14428 0.65580 0.80429
 N158 N 1.15746 0.64298 0.80449
 C159 C 1.15491 0.63128 0.79007
 C160 C 1.13925 0.63694 0.78018
 C161 C 1.13278 0.65258 0.78970
 H162 H 1.16369 0.61932 0.78716
 H163 H 1.12068 0.66103 0.78629
 Cu164 Cu 1.17684 0.64261 0.82340
 Cu165 Cu 1.14325 0.67552 0.82321
 Cu166 Cu 1.17814 0.67469 0.85720
 N167 N 1.19622 0.64218 0.84235
 N168 N 1.19669 0.65480 0.85561
 C169 C 1.21132 0.65124 0.86694
 C170 C 1.22061 0.63552 0.86037
 C171 C 1.21058 0.63022 0.84469
 H172 H 1.21475 0.65943 0.87913
 H173 H 1.21342 0.61845 0.83569
 N174 N 1.15820 0.69368 0.85644
 N175 N 1.14490 0.69411 0.84363
 C176 C 1.13351 0.70875 0.84714
 C177 C 1.13999 0.71799 0.86290
 C178 C 1.15564 0.70794 0.86837
 H179 H 1.12145 0.71245 0.83878
 H180 H 1.16446 0.71066 0.88031
 H181 H 1.17147 0.67576 0.82897
 H182 H 1.15655 0.66054 0.84396
 N183 N 1.13827 0.15313 0.30713
 N184 N 1.15350 0.14365 0.30322
 C185 C 1.15077 0.13407 0.28728
 C186 C 1.13281 0.13782 0.28086
 C187 C 1.12532 0.14997 0.29390
 H188 H 1.16104 0.12497 0.28094
 H189 H 1.11137 0.15582 0.29404
 Cu190 Cu 1.17496 0.14409 0.31995
 Cu191 Cu 1.13598 0.16806 0.32957
 Cu192 Cu 1.17751 0.17754 0.35270
 N193 N 1.19336 0.14294 0.33995
 N194 N 1.19456 0.15609 0.35267
 C195 C 1.20876 0.15197 0.36438
 C196 C 1.21686 0.13520 0.35877
 C197 C 1.20662 0.12996 0.34317
 H198 H 1.21279 0.16058 0.37609
 H199 H 1.20857 0.11764 0.33470
 N200 N 1.15462 0.19269 0.35598
 N201 N 1.13875 0.18853 0.34758
 C202 C 1.12570 0.20118 0.35231
 C203 C 1.13359 0.21405 0.36439
 C204 C 1.15203 0.20814 0.36643
 H205 H 1.11158 0.20114 0.34691
 H206 H 1.16284 0.21462 0.37474
 H207 H 1.16340 0.17553 0.32695
 H208 H 1.15833 0.15841 0.34600
 N209 N 0.64173 1.34241 0.69350
 N210 N 0.65434 1.35576 0.69355
 C211 C 0.65040 1.36775 0.70755
 C212 C 0.63444 1.36155 0.71674
 C213 C 0.62945 1.34540 0.70735
 H214 H 0.65844 1.38013 0.71069
 H215 H 0.61774 1.33637 0.71033
 Cu216 Cu 0.67451 1.35608 0.67508
 Cu217 Cu 0.64164 1.32215 0.67545
 Cu218 Cu 0.67628 1.32274 0.64200
 N219 N 0.69349 1.35648 0.65535
 N220 N 0.69397 1.34318 0.64273
 C221 C 0.70787 1.34654 0.63065
 C222 C 0.71674 1.36292 0.63572
 C223 C 0.70725 1.36885 0.65159
 H224 H 0.71121 1.33763 0.61897
 H225 H 0.70995 1.38136 0.65959
 N226 N 0.65722 1.30311 0.64331
 N227 N 0.64389 1.30285 0.65598
 C228 C 0.63272 1.28804 0.65275
 C229 C 0.63934 1.27853 0.63724
 C230 C 0.65491 1.28855 0.63170
 H231 H 0.62057 1.28458 0.66099
 H232 H 0.66373 1.28572 0.61982
 H233 H 0.66989 1.32261 0.67025
 H234 H 0.65468 1.33731 0.65476
 N235 N 0.64448 0.84553 1.19711
 N236 N 0.65791 0.85800 1.19663
 C237 C 0.65575 0.86991 1.21095
 C238 C 0.64012 0.86470 1.22107
 C239 C 0.63332 0.84908 1.21182
 H240 H 0.66476 0.88170 1.21359
 H241 H 0.62113 0.84094 1.21540
 Cu242 Cu 0.67665 0.85802 1.17712
 Cu243 Cu 0.64236 0.82605 1.17828
 Cu244 Cu 0.67516 0.82621 1.14255
 N245 N 0.69462 0.85817 1.15691
 N246 N 0.69410 0.84588 1.14332
 C247 C 0.70791 0.84976 1.13111
 C248 C 0.71754 0.86540 1.13738
 C249 C 0.70867 0.87022 1.15383
 H250 H 0.71052 0.84195 1.11849
 H251 H 0.71207 0.88175 1.16290
 N252 N 0.65489 0.80749 1.14439
 N253 N 0.64250 0.80748 1.15802
 C254 C 0.63046 0.79330 1.15536
 C255 C 0.63537 0.78383 1.13925
 C256 C 0.65099 0.79327 1.13269
 H257 H 0.61890 0.79018 1.16452
 H258 H 0.65885 0.79016 1.12022
 H259 H 0.67037 0.82510 1.17091
 H260 H 0.65506 0.84108 1.15695
 N261 N 1.14330 1.34329 1.19492
 N262 N 1.15618 1.35636 1.19461
 C263 C 1.15355 1.36778 1.20939
 C264 C 1.13820 1.36140 1.21946
 C265 C 1.13214 1.34586 1.20974
 H266 H 1.16217 1.37974 1.21262
 H267 H 1.12026 1.33715 1.21299
 Cu268 Cu 1.17489 1.35683 1.17466
 Cu269 Cu 1.14142 1.32390 1.17613
 Cu270 Cu 1.17464 1.32359 1.14119
 N271 N 1.19401 1.35602 1.15514
 N272 N 1.19374 1.34300 1.14222
 C273 C 1.20823 1.34557 1.13055
 C274 C 1.21829 1.36108 1.13635
 C275 C 1.20878 1.36734 1.15206
 H276 H 1.21108 1.33682 1.11863
 H277 H 1.21236 1.37921 1.16065
 N278 N 1.15416 1.30513 1.14258
 N279 N 1.14158 1.30532 1.15600
 C280 C 1.12937 1.29131 1.15322
 C281 C 1.13439 1.28172 1.13722
 C282 C 1.15025 1.29091 1.13087
 H283 H 1.11765 1.28837 1.16222
 H284 H 1.15826 1.28764 1.11853
 H285 H 1.16965 1.32357 1.16945
 H286 H 1.15417 1.33861 1.15462
 N287 N 1.14456 0.84429 0.69434
 N288 N 1.15762 0.85717 0.69351
 C289 C 1.15530 0.86920 0.70773
 C290 C 1.13994 0.86365 0.71813
 C291 C 1.13349 0.84773 0.70914
 H292 H 1.16413 0.88117 0.71024
 H293 H 1.12167 0.83920 0.71304
 Cu294 Cu 1.17648 0.85716 0.67396
 Cu295 Cu 1.14287 0.82401 0.67616
 Cu296 Cu 1.17681 0.82324 0.64178
 N297 N 1.19575 0.85601 0.65479
 N298 N 1.19561 0.84264 0.64228
 C299 C 1.21014 0.84485 0.63066
 C300 C 1.22011 0.86048 0.63610
 C301 C 1.21052 0.86725 0.65152
 H302 H 1.21308 0.83576 0.61901
 H303 H 1.21405 0.87937 0.65979
 N304 N 1.15679 0.80470 0.64334
 N305 N 1.14378 0.80475 0.65636
 C306 C 1.13232 0.79005 0.65350
 C307 C 1.13854 0.78029 0.63794
 C308 C 1.15401 0.79011 0.63192
 H309 H 1.12047 0.78659 0.66218
 H310 H 1.16261 0.78696 0.61996
 H311 H 1.17092 0.82377 0.67030
 H312 H 1.15555 0.83829 0.65484
 N313 N 0.35577 0.65388 0.69504
 N314 N 0.34106 0.64294 0.69533
 C315 C 0.34277 0.63073 0.70959
 C316 C 0.35947 0.63426 0.71882
 C317 C 0.36732 0.64908 0.70911
 H318 H 0.33255 0.62018 0.71302
 H319 H 0.38041 0.65599 0.71204
 Cu320 Cu 0.32106 0.64553 0.67707
 Cu321 Cu 0.35858 0.67404 0.67704
 Cu322 Cu 0.32201 0.68092 0.64595
 N323 N 0.30413 0.64647 0.65580
 N324 N 0.30447 0.66033 0.64375
 C325 C 0.29089 0.65784 0.63098
 C326 C 0.28147 0.64141 0.63517
 C327 C 0.29035 0.63459 0.65104
 H328 H 0.28804 0.66745 0.61965
 H329 H 0.28703 0.62199 0.65870
 N330 N 0.34453 0.69668 0.64634
 N331 N 0.35863 0.69381 0.65790
 C332 C 0.37200 0.70657 0.65448
 C333 C 0.36610 0.71807 0.64001
 C334 C 0.34859 0.71131 0.63519
 H335 H 0.38510 0.70736 0.66197
 H336 H 0.33942 0.71660 0.62438
 H337 H 0.33056 0.67839 0.67379
 H338 H 0.34169 0.66264 0.65625
 N339 N 0.35702 0.15722 1.19207
 N340 N 0.34455 0.14375 1.19211
 C341 C 0.34845 0.13192 1.20632
 C342 C 0.36426 0.13833 1.21564
 C343 C 0.36919 0.15447 1.20613
 H344 H 0.34051 0.11947 1.20949
 H345 H 0.38081 0.16361 1.20911
 Cu346 Cu 0.32472 0.14302 1.17326
 Cu347 Cu 0.35715 0.17725 1.17366
 Cu348 Cu 0.32180 0.17702 1.14075
 N349 N 0.30442 0.14361 1.15488
 N350 N 0.30358 0.15703 1.14233
 C351 C 0.28863 0.15440 1.13131
 C352 C 0.27937 0.13846 1.13714
 C353 C 0.28986 0.13191 1.15218
 H354 H 0.28495 0.16340 1.11973
 H355 H 0.28707 0.11964 1.16056
 N356 N 0.34144 0.19615 1.14131
 N357 N 0.35492 0.19632 1.15388
 C358 C 0.36618 0.21102 1.15048
 C359 C 0.35946 0.22059 1.13499
 C360 C 0.34374 0.21069 1.12959
 H361 H 0.37837 0.21445 1.15870
 H362 H 0.33468 0.21372 1.11788
 H363 H 0.32874 0.17658 1.16885
 H364 H 0.34384 0.16252 1.15285
 N365 N 0.85588 0.65487 1.19673
 N366 N 0.84064 0.64480 1.19837
 C367 C 0.84256 0.63293 1.21284
 C368 C 0.86002 0.63569 1.22082
 C369 C 0.86806 0.64979 1.21018
 H370 H 0.83200 0.62302 1.21714
 H371 H 0.88179 0.65583 1.21195
 Cu372 Cu 0.82003 0.64757 1.18108
 Cu373 Cu 0.85857 0.67394 1.17743
 Cu374 Cu 0.82222 0.67780 1.14534
 N375 N 0.80420 0.64485 1.15931
 N376 N 0.80500 0.65663 1.14523
 C377 C 0.79231 0.65156 1.13227
 C378 C 0.78317 0.63561 1.13855
 C379 C 0.79116 0.63181 1.15580
 H380 H 0.79002 0.65891 1.11924
 H381 H 0.78764 0.62057 1.16529
 N382 N 0.84449 0.69410 1.14489
 N383 N 0.85837 0.69244 1.15696
 C384 C 0.87133 0.70550 1.15317
 C385 C 0.86545 0.71596 1.13792
 C386 C 0.84833 0.70825 1.13305
 H387 H 0.88401 0.70737 1.16114
 H388 H 0.83924 0.71261 1.12178
 H389 H 0.83069 0.67926 1.17316
 H390 H 0.84126 0.66079 1.15819
 N391 N 0.85924 0.15555 0.68995
 N392 N 0.84498 0.14425 0.69238
 C393 C 0.84788 0.13403 0.70797
 C394 C 0.86492 0.13923 0.71572
 C395 C 0.87171 0.15289 0.70377
 H396 H 0.83825 0.12370 0.71331
 H397 H 0.88479 0.16035 0.70489
 Cu398 Cu 0.82424 0.14396 0.67460
 Cu399 Cu 0.86080 0.17274 0.66888
 Cu400 Cu 0.81788 0.18251 0.64868
 N401 N 0.80427 0.14546 0.65599
 N402 N 0.80184 0.16078 0.64608
 C403 C 0.78715 0.15858 0.63459
 C404 C 0.77992 0.14080 0.63721
 C405 C 0.79116 0.13288 0.65101
 H406 H 0.78219 0.16925 0.62506
 H407 H 0.79000 0.11899 0.65689
 N408 N 0.83978 0.19878 0.64580
 N409 N 0.85634 0.19472 0.65288
 C410 C 0.86863 0.20793 0.64756
 C411 C 0.85936 0.22090 0.63644
 C412 C 0.84107 0.21460 0.63568
 H413 H 0.88327 0.20792 0.65134
 H414 H 0.82953 0.22085 0.62813
 H415 H 0.83331 0.17688 0.67309
 H416 H 0.83908 0.16392 0.65125
 N417 N 1.34601 0.35548 0.69669
 N418 N 1.35907 0.34257 0.69585
 C419 C 1.37113 0.34501 0.71006
 C420 C 1.36535 0.36026 0.72047
 C421 C 1.34932 0.36657 0.71150
 H422 H 1.38325 0.33635 0.71255
 H423 H 1.34066 0.37832 0.71538
 Cu424 Cu 1.35909 0.32402 0.67617
 Cu425 Cu 1.32592 0.35702 0.67839
 Cu426 Cu 1.32570 0.32374 0.64307
 N427 N 1.35889 0.30539 0.65656
 N428 N 1.34589 0.30524 0.64358
 C429 C 1.34931 0.29100 0.63176
 C430 C 1.36541 0.28168 0.63765
 C431 C 1.37098 0.29134 0.65349
 H432 H 1.34072 0.28780 0.61977
 H433 H 1.38297 0.28850 0.66220
 N434 N 1.30663 0.34372 0.64515
 N435 N 1.30682 0.35630 0.65860
 C436 C 1.29227 0.36802 0.65627
 C437 C 1.28230 0.36267 0.64059
 C438 C 1.29186 0.34717 0.63389
 H439 H 1.28926 0.37969 0.66532
 H440 H 1.28831 0.33893 0.62178
 H441 H 1.32569 0.32883 0.67140
 H442 H 1.34021 0.34457 0.65653
 N443 N 1.34291 0.85939 1.19407
 N444 N 1.35651 0.84703 1.19471
 C445 C 1.36799 0.85121 1.20902
 C446 C 1.36127 0.86713 1.21792
 C447 C 1.34523 0.87183 1.20793
 H448 H 1.38036 0.84326 1.21256
 H449 H 1.33593 0.88349 1.21034
 Cu450 Cu 1.35798 0.82696 1.17645
 Cu451 Cu 1.32335 0.85874 1.17508
 Cu452 Cu 1.32576 0.82295 1.14255
 N453 N 1.35913 0.80677 1.15830
 N454 N 1.34651 0.80539 1.14503
 C455 C 1.35067 0.79067 1.13414
 C456 C 1.36688 0.78222 1.14086
 C457 C 1.37177 0.79292 1.15631
 H458 H 1.34245 0.78661 1.12216
 H459 H 1.38373 0.79098 1.16535
 N460 N 1.30586 0.84209 1.14241
 N461 N 1.30493 0.85568 1.15479
 C462 C 1.28999 0.86651 1.15089
 C463 C 1.28101 0.85944 1.13526
 C464 C 1.29153 0.84392 1.13031
 H465 H 1.28597 0.87866 1.15887
 H466 H 1.28908 0.83473 1.11861
 H467 H 1.32460 0.83028 1.17041
 H468 H 1.33903 0.84544 1.15486
 N469 N 0.84503 0.35825 1.19595
 N470 N 0.85794 0.34521 1.19667
 C471 C 0.86966 0.34898 1.21096
 C472 C 0.86372 0.36538 1.21965
 C473 C 0.84798 0.37071 1.20961
 H474 H 0.88168 0.34052 1.21456
 H475 H 0.83931 0.38288 1.21179
 Cu476 Cu 0.85823 0.32495 1.17841
 Cu477 Cu 0.82573 0.35889 1.17702
 Cu478 Cu 0.82651 0.32455 1.14316
 N479 N 0.85877 0.30604 1.15883
 N480 N 0.84644 0.30594 1.14519
 C481 C 0.85030 0.29165 1.13360
 C482 C 0.86594 0.28220 1.14026
 C483 C 0.87089 0.29181 1.15634
 H484 H 0.84233 0.28852 1.12117
 H485 H 0.88255 0.28883 1.16548
 N486 N 0.80750 0.34469 1.14373
 N487 N 0.80726 0.35756 1.15688
 C488 C 0.79316 0.36955 1.15357
 C489 C 0.78398 0.36418 1.13747
 C490 C 0.79343 0.34825 1.13162
 H491 H 0.78991 0.38142 1.16226
 H492 H 0.79053 0.34008 1.11928
 H493 H 0.82530 0.33035 1.17110
 H494 H 0.84130 0.34507 1.15662
 N495 N 0.84335 0.85759 0.69246
 N496 N 0.85611 0.84435 0.69332
 C497 C 0.86786 0.84811 0.70759
 C498 C 0.86212 0.86460 0.71610
 C499 C 0.84648 0.87011 0.70604
 H500 H 0.87976 0.83954 0.71137
 H501 H 0.83795 0.88237 0.70830
 Cu502 Cu 0.85603 0.82366 0.67554
 Cu503 Cu 0.82373 0.85819 0.67369
 Cu504 Cu 0.82386 0.82270 0.64116
 N505 N 0.85614 0.80413 0.65647
 N506 N 0.84337 0.80404 0.64326
 C507 C 0.84622 0.78938 0.63198
 C508 C 0.86161 0.77951 0.63835
 C509 C 0.86765 0.78935 0.65395
 H510 H 0.83777 0.78630 0.61986
 H511 H 0.87940 0.78592 0.66286
 N512 N 0.80518 0.84276 0.64118
 N513 N 0.80506 0.85635 0.65357
 C514 C 0.79083 0.86808 0.64961
 C515 C 0.78153 0.86155 0.63392
 C516 C 0.79106 0.84544 0.62904
 H517 H 0.78764 0.88055 0.65747
 H518 H 0.78810 0.83636 0.61739
 H519 H 0.82304 0.82978 0.66920
 H520 H 0.83896 0.84386 0.65397
 N521 N 0.65741 0.64502 0.69539
 N522 N 0.64437 0.65790 0.69384
 C523 C 0.63171 0.65542 0.70752
 C524 C 0.63705 0.64013 0.71827
 C525 C 0.65351 0.63395 0.71009
 H526 H 0.61935 0.66394 0.70926
 H527 H 0.66187 0.62203 0.71421
 Cu528 Cu 0.64460 0.67626 0.67372
 Cu529 Cu 0.67776 0.64275 0.67752
 Cu530 Cu 0.67684 0.67296 0.63967
 N531 N 0.64456 0.69309 0.65228
 N532 N 0.65701 0.69153 0.63893
 C533 C 0.65386 0.70479 0.62595
 C534 C 0.63854 0.71535 0.63137
 C535 C 0.63300 0.70744 0.64819
 H536 H 0.66225 0.70664 0.61356
 H537 H 0.62152 0.71186 0.65692
 N538 N 0.69594 0.65342 0.64287
 N539 N 0.69694 0.64257 0.65779
 C540 C 0.71212 0.63146 0.65632
 C541 C 0.72087 0.63535 0.63955
 C542 C 0.71023 0.64930 0.63139
 H543 H 0.71632 0.62100 0.66646
 H544 H 0.71297 0.65615 0.61819
 H545 H 0.67779 0.67022 0.66844
 H546 H 0.66235 0.65354 0.65559
 N547 N 0.65821 1.14180 1.19648
 N548 N 0.64514 1.15469 1.19691
 C549 C 0.63381 1.15134 1.21155
 C550 C 0.64016 1.13542 1.22086
 C551 C 0.65575 1.12985 1.21076
 H552 H 0.62183 1.15984 1.21504
 H553 H 0.66462 1.11789 1.21335
 Cu554 Cu 0.64428 1.17437 1.17806
 Cu555 Cu 0.67714 1.14096 1.17714
 Cu556 Cu 0.67546 1.17512 1.14271
 N557 N 0.64332 1.19339 1.15860
 N558 N 0.65546 1.19372 1.14485
 C559 C 0.65147 1.20830 1.13354
 C560 C 0.63597 1.21766 1.14057
 C561 C 0.63124 1.20769 1.15649
 H562 H 0.65935 1.21183 1.12116
 H563 H 0.61978 1.21054 1.16585
 N564 N 0.69456 1.15498 1.14324
 N565 N 0.69513 1.14219 1.15654
 C566 C 0.70928 1.13029 1.15318
 C567 C 0.71817 1.13565 1.13690
 C568 C 0.70846 1.15146 1.13099
 H569 H 0.71276 1.11849 1.16196
 H570 H 0.71111 1.15964 1.11857
 H571 H 0.67720 1.16937 1.17073
 H572 H 0.66137 1.15428 1.15654
 N573 N 0.15571 0.64123 1.19461
 N574 N 0.14308 0.65458 1.19482
 C575 C 0.13104 0.65122 1.20894
 C576 C 0.13648 0.63480 1.21805
 C577 C 0.15225 0.62901 1.20841
 H578 H 0.11920 0.66002 1.21221
 H579 H 0.16070 0.61675 1.21103
 Cu580 Cu 0.14386 0.67482 1.17634
 Cu581 Cu 0.17570 0.64005 1.17645
 Cu582 Cu 0.17700 0.67464 1.14278
 N583 N 0.14447 0.69387 1.15667
 N584 N 0.15755 0.69365 1.14382
 C585 C 0.15493 0.70806 1.13203
 C586 C 0.13926 0.71807 1.13760
 C587 C 0.13299 0.70853 1.15339
 H588 H 0.16383 0.71082 1.12019
 H589 H 0.12098 0.71191 1.16187
 N590 N 0.19545 0.65417 1.14406
 N591 N 0.19491 0.64103 1.15698
 C592 C 0.20895 0.62886 1.15407
 C593 C 0.21890 0.63452 1.13849
 C594 C 0.20991 0.65069 1.13254
 H595 H 0.21157 0.61665 1.16259
 H596 H 0.21346 0.65921 1.12059
 H597 H 0.17696 0.66850 1.17088
 H598 H 0.16128 0.65423 1.15560
 N599 N 0.15416 1.14460 0.69585
 N600 N 0.14184 1.15821 0.69486
 C601 C 0.12952 1.15630 0.70896
 C602 C 0.13442 1.14060 0.71945
 C603 C 0.15021 1.13363 0.71057
 H604 H 0.11787 1.16564 0.71130
 H605 H 0.15822 1.12136 0.71427
 Cu606 Cu 0.14306 1.17697 0.67506
 Cu607 Cu 0.17420 1.14165 0.67783
 Cu608 Cu 0.17619 1.17396 0.64184
 N609 N 0.14411 1.19466 0.65430
 N610 N 0.15717 1.19340 0.64150
 C611 C 0.15474 1.20708 0.62881
 C612 C 0.13919 1.21762 0.63376
 C613 C 0.13283 1.20921 0.65011
 H614 H 0.16362 1.20895 0.61679
 H615 H 0.12088 1.21327 0.65838
 N616 N 0.19420 1.15327 0.64455
 N617 N 0.19344 1.14095 0.65826
 C618 C 0.20733 1.12841 0.65608
 C619 C 0.21735 1.13298 0.64017
 C620 C 0.20858 1.14889 0.63328
 H621 H 0.20982 1.11671 0.66533
 H622 H 0.21226 1.15665 0.62087
 H623 H 0.17602 1.16952 0.67036
 H624 H 0.16015 1.15457 0.65603
 N625 N 1.34312 0.64361 0.30648
 N626 N 1.35618 0.65651 0.30630
 C627 C 1.36773 0.65323 0.29179
 C628 C 1.36152 0.63744 0.28236
 C629 C 1.34587 0.63178 0.29221
 H630 H 1.37966 0.66179 0.28828
 H631 H 1.33706 0.61988 0.28931
 Cu632 Cu 1.35659 0.67637 0.32507
 Cu633 Cu 1.32318 0.64291 0.32489
 Cu634 Cu 1.32405 0.67694 0.35892
 N635 N 1.35719 0.69490 0.34517
 N636 N 1.34429 0.69481 0.35819
 C637 C 1.34763 0.70859 0.37040
 C638 C 1.36359 0.71811 0.36496
 C639 C 1.36928 0.70894 0.34875
 H640 H 1.33893 0.71131 0.38239
 H641 H 1.38132 0.71212 0.34024
 N642 N 1.30459 0.65776 0.35759
 N643 N 1.30423 0.64462 0.34474
 C644 C 1.28930 0.63354 0.34779
 C645 C 1.27981 0.64012 0.36330
 C646 C 1.28996 0.65547 0.36912
 H647 H 1.28554 0.62168 0.33927
 H648 H 1.28707 0.66419 0.38106
 H649 H 1.32334 0.67106 0.33052
 H650 H 1.33862 0.65579 0.34538
 N651 N 1.34382 1.14450 0.80655
 N652 N 1.35655 1.15772 0.80659
 C653 C 1.36834 1.15499 0.79226
 C654 C 1.36284 1.13917 0.78259
 C655 C 1.34714 1.13287 0.79213
 H656 H 1.38016 1.16384 0.78921
 H657 H 1.33876 1.12074 0.78890
 Cu658 Cu 1.35656 1.17728 0.82531
 Cu659 Cu 1.32398 1.14358 0.82535
 Cu660 Cu 1.32421 1.17869 0.85896
 N661 N 1.35675 1.19680 0.84409
 N662 N 1.34405 1.19734 0.85729
 C663 C 1.34743 1.21210 0.86844
 C664 C 1.36316 1.22137 0.86186
 C665 C 1.36863 1.21119 0.84637
 H666 H 1.33906 1.21573 0.88044
 H667 H 1.38051 1.21389 0.83749
 N668 N 1.30534 1.15859 0.85829
 N669 N 1.30520 1.14523 0.84559
 C670 C 1.29067 1.13374 0.84903
 C671 C 1.28116 1.14015 0.86464
 C672 C 1.29095 1.15594 0.87008
 H673 H 1.28721 1.12166 0.84070
 H674 H 1.28791 1.16483 0.88186
 H675 H 1.32339 1.17190 0.83084
 H676 H 1.33863 1.15715 0.84609
 N677 N 0.84280 0.64103 0.80432
 N678 N 0.85509 0.65458 0.80314
 C679 C 0.86613 0.65149 0.78820
 C680 C 0.86035 0.63511 0.77956
 C681 C 0.84550 0.62892 0.79028
 H682 H 0.87745 0.66050 0.78392
 H683 H 0.83733 0.61641 0.78821
 Cu684 Cu 0.85541 0.67475 0.82140
 Cu685 Cu 0.82424 0.63983 0.82396
 Cu686 Cu 0.82456 0.67495 0.85712
 N687 N 0.85595 0.69392 0.84066
 N688 N 0.84388 0.69404 0.85447
 C689 C 0.84764 0.70860 0.86575
 C690 C 0.86295 0.71818 0.85868
 C691 C 0.86780 0.70837 0.84272
 H692 H 0.83984 0.71183 0.87824
 H693 H 0.87923 0.71136 0.83336
 N694 N 0.80624 0.65426 0.85728
 N695 N 0.80647 0.64079 0.84473
 C696 C 0.79302 0.62834 0.84878
 C697 C 0.78378 0.63415 0.86464
 C698 C 0.79246 0.65073 0.86964
 H699 H 0.79008 0.61594 0.84071
 H700 H 0.78926 0.65930 0.88163
 H701 H 0.82285 0.66839 0.82928
 H702 H 0.83965 0.65450 0.84379
 N703 N 0.84649 1.14371 0.30522
 N704 N 0.85862 1.15747 0.30594
 C705 C 0.87108 1.15538 0.29200
 C706 C 0.86656 1.13944 0.28194
 C707 C 0.85081 1.13245 0.29081
 H708 H 0.88267 1.16471 0.28950
 H709 H 0.84304 1.12004 0.28719
 Cu710 Cu 0.85718 1.17662 0.32522
 Cu711 Cu 0.82622 1.14117 0.32320
 Cu712 Cu 0.82385 1.17431 0.35828
 N713 N 0.85592 1.19473 0.34549
 N714 N 0.84284 1.19374 0.35830
 C715 C 0.84532 1.20762 0.37071
 C716 C 0.86085 1.21795 0.36550
 C717 C 0.86719 1.20930 0.34936
 H718 H 0.83650 1.20985 0.38272
 H719 H 0.87922 1.21316 0.34113
 N720 N 0.80586 1.15361 0.35601
 N721 N 0.80673 1.14096 0.34267
 C722 C 0.79275 1.12858 0.34509
 C723 C 0.78254 1.13364 0.36074
 C724 C 0.79133 1.14962 0.36724
 H725 H 0.79026 1.11672 0.33612
 H726 H 0.78758 1.15768 0.37941
 H727 H 0.82421 1.16916 0.32987
 H728 H 0.84005 1.15453 0.34472
 N729 N 0.65521 0.35598 0.30641
 N730 N 0.64298 0.34233 0.30598
 C731 C 0.63048 0.34557 0.29233
 C732 C 0.63510 0.36217 0.28337
 C733 C 0.65099 0.36838 0.29280
 H734 H 0.61897 0.33633 0.28923
 H735 H 0.65887 0.38098 0.29015
 Cu736 Cu 0.64454 0.32131 0.32293
 Cu737 Cu 0.67529 0.35661 0.32505
 Cu738 Cu 0.67435 0.32165 0.35898
 N739 N 0.64207 0.30374 0.34334
 N740 N 0.65395 0.30359 0.35732
 C741 C 0.64926 0.28978 0.36924
 C742 C 0.63344 0.28077 0.36237
 C743 C 0.62933 0.29019 0.34587
 H744 H 0.65683 0.28669 0.38195
 H745 H 0.61800 0.28750 0.33626
 N746 N 0.69372 0.34126 0.35811
 N747 N 0.69415 0.35454 0.34527
 C748 C 0.70892 0.36573 0.34866
 C749 C 0.71827 0.35921 0.36440
 C750 C 0.70815 0.34365 0.36995
 H751 H 0.71257 0.37775 0.34025
 H752 H 0.71095 0.33476 0.38185
 H753 H 0.67693 0.32840 0.33095
 H754 H 0.65976 0.34235 0.34472
 N755 N 0.65594 0.85651 0.80544
 N756 N 0.64507 0.84180 0.80389
 C757 C 0.63265 0.84467 0.79007
 C758 C 0.63584 0.86217 0.78241
 C759 C 0.65082 0.86927 0.79251
 H760 H 0.62208 0.83470 0.78599
 H761 H 0.65728 0.88283 0.79087
 Cu762 Cu 0.64744 0.82044 0.82029
 Cu763 Cu 0.67544 0.85797 0.82457
 Cu764 Cu 0.67469 0.82314 0.85830
 N765 N 0.64438 0.80342 0.84106
 N766 N 0.65501 0.80452 0.85598
 C767 C 0.64967 0.79137 0.86832
 C768 C 0.63481 0.78150 0.86074
 C769 C 0.63188 0.78960 0.84336
 H770 H 0.65599 0.78939 0.88191
 H771 H 0.62144 0.78582 0.83311
 N772 N 0.69343 0.84323 0.85802
 N773 N 0.69379 0.85655 0.84524
 C774 C 0.70818 0.86810 0.84894
 C775 C 0.71734 0.86175 0.86487
 C776 C 0.70753 0.84592 0.87016
 H777 H 0.71165 0.88025 0.84066
 H778 H 0.71039 0.83695 0.88197
 H779 H 0.67862 0.82982 0.83028
 H780 H 0.65952 0.84252 0.84285
 N781 N 0.15883 0.35816 0.80631
 N782 N 0.14522 0.34586 0.80586
 C783 C 0.13406 0.34963 0.79115
 C784 C 0.14101 0.36517 0.78183
 C785 C 0.15679 0.37015 0.79193
 H786 H 0.12175 0.34168 0.78756
 H787 H 0.16611 0.38170 0.78917
 Cu788 Cu 0.14337 0.32631 0.82474
 Cu789 Cu 0.17808 0.35792 0.82563
 Cu790 Cu 0.17523 0.32294 0.85916
 N791 N 0.14208 0.30654 0.84345
 N792 N 0.15455 0.30536 0.85689
 C793 C 0.15036 0.29076 0.86800
 C794 C 0.13429 0.28218 0.86123
 C795 C 0.12952 0.29268 0.84554
 H796 H 0.15849 0.28683 0.88012
 H797 H 0.11774 0.29056 0.83634
 N798 N 0.19510 0.34205 0.85906
 N799 N 0.19619 0.35534 0.84629
 C800 C 0.21104 0.36624 0.85011
 C801 C 0.21980 0.35955 0.86609
 C802 C 0.20924 0.34416 0.87133
 H803 H 0.21510 0.37821 0.84186
 H804 H 0.21155 0.33522 0.88330
 H805 H 0.17671 0.32955 0.83109
 H806 H 0.16213 0.34517 0.84602
 N807 N 0.15256 0.85532 0.30531
 N808 N 0.14026 0.84175 0.30652
 C809 C 0.12761 0.84373 0.29269
 C810 C 0.13218 0.85943 0.28222
 C811 C 0.14816 0.86637 0.29071
 H812 H 0.11586 0.83452 0.29054
 H813 H 0.15601 0.87862 0.28672
 Cu814 Cu 0.14186 0.82310 0.32632
 Cu815 Cu 0.17314 0.85800 0.32296
 Cu816 Cu 0.17658 0.82459 0.35798
 N817 N 0.14415 0.80425 0.34588
 N818 N 0.15777 0.80494 0.35817
 C819 C 0.15602 0.79060 0.37023
 C820 C 0.14038 0.78020 0.36532
 C821 C 0.13325 0.78939 0.34969
 H822 H 0.16545 0.78814 0.38178
 H823 H 0.12097 0.78571 0.34172
 N824 N 0.19425 0.84555 0.35545
 N825 N 0.19295 0.85828 0.34214
 C826 C 0.20674 0.87087 0.34440
 C827 C 0.21728 0.86588 0.35991
 C828 C 0.20889 0.84970 0.36651
 H829 H 0.20880 0.88290 0.33548
 H830 H 0.21301 0.84159 0.37858
 H831 H 0.17507 0.82994 0.32963
 H832 H 0.16023 0.84477 0.34512
 O833 O 1.06562 1.01708 1.09181
 O834 O 1.08725 1.01691 1.11379
 C835 C 1.07225 1.02358 1.10692
 C836 C 1.06292 1.03956 1.11624
 C837 C 1.07079 1.04731 1.13242
 H838 H 1.08304 1.04088 1.13866
 O839 O 0.93105 0.98206 1.09195
 O840 O 0.90896 0.98225 1.11337
 C841 C 0.92413 0.97559 1.10697
 C842 C 0.93352 0.95967 1.11658
 C843 C 0.92587 0.95173 1.13290
 H844 H 0.91333 0.95764 1.13897
 O845 O 1.01754 1.09320 1.06590
 O846 O 1.01781 1.11512 1.08750
 C847 C 1.02430 1.10823 1.07249
 C848 C 1.04035 1.11732 1.06298
 C849 C 1.04855 1.13355 1.07045
 H850 H 1.04272 1.13989 1.08287
 O851 O 0.97972 0.90582 1.06684
 O852 O 0.97909 0.88420 1.08885
 C853 C 0.97291 0.89085 1.07355
 C854 C 0.95720 0.88155 1.06377
 C855 C 0.94908 0.86522 1.07113
 H856 H 0.95474 0.85897 1.08374
 O857 O 1.09326 1.06587 1.01740
 O858 O 1.11539 1.08730 1.01763
 C859 C 1.10845 1.07225 1.02404
 C860 C 1.11773 1.06238 1.03978
 C861 C 1.13447 1.06923 1.04751
 H862 H 1.14112 1.08142 1.04146
 O863 O 0.90638 0.93308 1.01627
 O864 O 0.88417 0.91174 1.01601
 C865 C 0.89106 0.92672 1.02256
 C866 C 0.88152 0.93627 1.03822
 C867 C 0.86533 0.92843 1.04597
 H868 H 0.85924 0.91607 1.03972
 O869 O 0.98049 1.06828 1.09148
 O870 O 0.98069 1.09007 1.11320
 C871 C 0.97407 1.07498 1.10659
 C872 C 0.95831 1.06543 1.11614
 C873 C 0.95043 1.07296 1.13248
 H874 H 0.95624 1.08558 1.13847
 O875 O 1.01636 0.93104 1.09249
 O876 O 1.01598 0.90942 1.11451
 C877 C 1.02266 0.92443 1.10775
 C878 C 1.03837 0.93398 1.11729
 C879 C 1.04633 0.92635 1.13361
 H880 H 1.04057 0.91369 1.13962
 O881 O 1.09129 0.97998 1.06704
 O882 O 1.11292 0.97993 1.08904
 C883 C 1.10638 0.97347 1.07387
 C884 C 1.11610 0.95785 1.06440
 C885 C 1.13315 0.95094 1.07138
 H886 H 1.13953 0.95746 1.08345
 O887 O 0.90632 1.01892 1.06561
 O888 O 0.88415 1.01931 1.08695
 C889 C 0.89114 1.02566 1.07190
 C890 C 0.88198 1.04151 1.06198
 C891 C 0.86568 1.04982 1.06923
 H892 H 0.85939 1.04425 1.08181
 O893 O 0.93273 1.09396 1.01557
 O894 O 0.91086 1.11574 1.01506
 C895 C 0.92590 1.10910 1.02188
 C896 C 0.93510 1.11865 1.03781
 C897 C 0.92714 1.13482 1.04559
 H898 H 0.91485 1.14099 1.03917
 O899 O 1.06565 0.90400 1.01900
 O900 O 1.08754 0.88223 1.01933
 C901 C 1.07232 0.88888 1.02561
 C902 C 1.06251 0.87939 1.04120
 C903 C 1.06958 0.86275 1.04906
 H904 H 1.08188 0.85623 1.04311
 O905 O 0.93157 1.01872 1.09158
 O906 O 0.90948 1.01901 1.11300
 C907 C 0.92476 1.02535 1.10655
 C908 C 0.93428 1.04109 1.11610
 C909 C 0.92669 1.04879 1.13244
 H910 H 0.91447 1.04244 1.13869
 O911 O 1.06546 0.98038 1.09236
 O912 O 1.08711 0.98031 1.11433
 C913 C 1.07200 0.97391 1.10759
 C914 C 1.06241 0.95825 1.11717
 C915 C 1.07010 0.95044 1.13348
 H916 H 1.08243 0.95666 1.13968
 O917 O 1.01626 0.90512 1.06730
 O918 O 1.01565 0.88347 1.08929
 C919 C 1.02238 0.88987 1.07417
 C920 C 1.03793 0.87987 1.06487
 C921 C 1.04512 0.86320 1.07245
 H922 H 1.03881 0.85728 1.08487
 O923 O 0.98089 1.09383 1.06573
 O924 O 0.98100 1.11570 1.08737
 C925 C 0.97449 1.10906 1.07225
 C926 C 0.95884 1.11867 1.06249
 C927 C 0.95062 1.13485 1.07007
 H928 H 0.95618 1.14074 1.08285
 O929 O 0.90760 1.06799 1.01538
 O930 O 0.88573 1.08978 1.01486
 C931 C 0.89239 1.07470 1.02161
 C932 C 0.88268 1.06538 1.03738
 C933 C 0.86643 1.07339 1.04486
 H934 H 0.86045 1.08576 1.03840
 O935 O 1.09116 0.92962 1.01906
 O936 O 1.11314 0.90794 1.01933
 C937 C 1.10639 0.92312 1.02558
 C938 C 1.11604 0.93311 1.04091
 C939 C 1.13304 0.92634 1.04817
 H940 H 1.13955 0.91413 1.04203
 O941 O 0.97982 0.93185 1.09189
 O942 O 0.97942 0.91025 1.11393
 C943 C 0.97319 0.92544 1.10705
 C944 C 0.95758 0.93527 1.11646
 C945 C 0.94980 0.92767 1.13274
 H946 H 0.95598 0.91528 1.13896
 O947 O 1.01705 1.06764 1.09152
 O948 O 1.01737 1.08946 1.11321
 C949 C 1.02364 1.07419 1.10662
 C950 C 1.03923 1.06432 1.11618
 C951 C 1.04739 1.07186 1.13238
 H952 H 1.04186 1.08465 1.13830
 O953 O 0.90594 0.98229 1.06585
 O954 O 0.88378 0.98254 1.08720
 C955 C 0.89065 0.97594 1.07224
 C956 C 0.88121 0.96022 1.06257
 C957 C 0.86498 0.95208 1.07012
 H958 H 0.85889 0.95770 1.08276
 O959 O 1.09173 1.01652 1.06674
 O960 O 1.11332 1.01632 1.08878
 C961 C 1.10694 1.02273 1.07348
 C962 C 1.11701 1.03802 1.06381
 C963 C 1.13384 1.04493 1.07116
 H964 H 1.13981 1.03859 1.08359
 O965 O 0.93127 0.90679 1.01683
 O966 O 0.90903 0.88547 1.01667
 C967 C 0.92421 0.89183 1.02333
 C968 C 0.93337 0.88212 1.03922
 C969 C 0.92544 0.86586 1.04682
 H970 H 0.91312 0.85984 1.04042
 O971 O 1.06760 1.09153 1.01706
 O972 O 1.08970 1.11297 1.01728
 C973 C 1.07438 1.10657 1.02357
 C974 C 1.06480 1.11637 1.03910
 C975 C 1.07270 1.13257 1.04678
 H976 H 1.08522 1.13845 1.04064
 Cu977 Cu 1.07633 0.99850 1.07729
 Cu978 Cu 1.10227 0.99837 1.10373
 Cu979 Cu 0.92092 1.00045 1.07663
 Cu980 Cu 0.89438 1.00083 1.10227
 Cu981 Cu 0.99894 1.07859 1.07649
 Cu982 Cu 0.99924 1.10479 1.10247
 Cu983 Cu 0.99811 0.92061 1.07741
 Cu984 Cu 0.99747 0.89468 1.10387
 C985 C 1.04704 1.04806 1.10830
 H986 H 1.04111 1.04237 1.09560
 C987 C 1.06330 1.06354 1.14046
 C988 C 0.94947 0.95137 1.10858
 H989 H 0.95524 0.95710 1.09581
 C990 C 0.93385 0.93559 1.14093
 C991 C 1.04853 1.10893 1.04720
 H992 H 1.04257 1.09622 1.04157
 C993 C 1.06483 1.14115 1.06253
 C994 C 0.94934 0.88976 1.04770
 H995 H 0.95531 0.90251 1.04211
 C996 C 0.93311 0.85738 1.06281
 C997 C 1.10921 1.04668 1.04797
 H998 H 1.09610 1.04156 1.04239
 C999 C 1.14261 1.06056 1.06319
 C1000 C 0.88929 0.95226 1.04652
 H1001 H 0.90200 0.95816 1.04083
 C1002 C 0.85712 0.93603 1.06202
 C1003 C 0.95020 1.04941 1.10817
 H1004 H 0.95593 1.04374 1.09539
 C1005 C 0.93453 1.06482 1.14065
 C1006 C 1.04643 0.95003 1.10928
 H1007 H 1.04064 0.95577 1.09650
 C1008 C 1.06232 0.93439 1.14167
 C1009 C 1.10777 0.94896 1.04903
 H1010 H 1.09450 0.95406 1.04374
 C1011 C 1.14168 0.93518 1.06339
 C1012 C 0.89029 1.04934 1.04595
 H1013 H 0.90305 1.04330 1.04047
 C1014 C 0.85796 1.06588 1.06085
 C1015 C 0.95105 1.11080 1.04627
 H1016 H 0.95705 1.09813 1.04055
 C1017 C 0.93467 1.14294 1.06180
 C1018 C 1.04659 0.88771 1.04912
 H1019 H 1.04127 0.90071 1.04339
 C1020 C 1.06096 0.85455 1.06470
 O1021 O 1.06737 0.97988 0.90634
 O1022 O 1.08946 0.97934 0.88491
 C1023 C 1.07415 0.97314 0.89139
 C1024 C 1.06445 0.95754 0.88184
 C1025 C 1.07143 0.95023 0.86502
 H1026 H 1.08352 0.95657 0.85851
 O1027 O 0.93409 1.01822 0.90428
 O1028 O 0.91243 1.01826 0.88232
 C1029 C 0.92756 1.02467 0.88905
 C1030 C 0.93724 1.04025 0.87944
 C1031 C 0.93016 1.04749 0.86260
 H1032 H 0.91792 1.04121 0.85630
 O1033 O 0.98294 1.09321 0.93043
 O1034 O 0.98342 1.11500 0.90858
 C1035 C 0.97676 1.10848 0.92370
 C1036 C 0.96124 1.11835 0.93319
 C1037 C 0.95417 1.13522 0.92595
 H1038 H 0.96053 1.14138 0.91368
 O1039 O 1.01766 0.90488 0.93253
 O1040 O 1.01765 0.88303 0.91085
 C1041 C 1.02395 0.88958 0.92609
 C1042 C 1.03916 0.87962 0.93607
 C1043 C 1.04626 0.86272 0.92909
 H1044 H 1.04015 0.85661 0.91667
 O1045 O 1.09093 0.93005 0.98268
 O1046 O 1.11292 0.90837 0.98290
 C1047 C 1.10623 0.92357 0.97644
 C1048 C 1.11607 0.93349 0.96116
 C1049 C 1.13317 0.92659 0.95447
 H1050 H 1.13938 0.91428 0.96083
 O1051 O 0.90766 1.06815 0.97878
 O1052 O 0.88575 1.08989 0.97829
 C1053 C 0.89252 1.07470 0.97207
 C1054 C 0.88303 1.06483 0.95651
 C1055 C 0.86603 1.07159 0.94919
 H1056 H 0.85936 1.08364 0.95547
 O1057 O 1.01923 1.06686 0.90543
 O1058 O 1.01974 1.08854 0.88347
 C1059 C 1.02588 1.07327 0.89029
 C1060 C 1.04132 1.06319 0.88088
 C1061 C 1.04889 1.07011 0.86417
 H1062 H 1.04277 1.08237 0.85763
 O1063 O 0.98175 0.93105 0.90641
 O1064 O 0.98176 0.90916 0.88478
 C1065 C 0.97542 0.92444 0.89122
 C1066 C 0.96006 0.93421 0.88128
 C1067 C 0.95237 0.92641 0.86505
 H1068 H 0.95841 0.91380 0.85924
 O1069 O 1.09305 1.01643 0.93186
 O1070 O 1.11517 1.01581 0.91047
 C1071 C 1.10842 1.02255 0.92541
 C1072 C 1.11821 1.03806 0.93504
 C1073 C 1.13504 1.04521 0.92789
 H1074 H 1.14120 1.03896 0.91558
 O1075 O 0.90818 0.98196 0.93002
 O1076 O 0.88652 0.98211 0.90804
 C1077 C 0.89301 0.97565 0.92329
 C1078 C 0.88314 0.96017 0.93285
 C1079 C 0.86675 0.95274 0.92507
 H1080 H 0.86077 0.95907 0.91265
 O1081 O 1.06821 1.09177 0.98050
 O1082 O 1.09029 1.11324 0.98073
 C1083 C 1.07513 1.10682 0.97408
 C1084 C 1.06586 1.11657 0.95826
 C1085 C 1.07370 1.13290 0.95069
 H1086 H 1.08597 1.13897 0.95715
 O1087 O 0.93173 0.90645 0.98033
 O1088 O 0.90953 0.88509 0.98025
 C1089 C 0.92492 0.89133 0.97400
 C1090 C 0.93465 0.88127 0.95879
 C1091 C 0.92746 0.86442 0.95177
 H1092 H 0.91502 0.85841 0.95794
 O1093 O 0.93362 0.98154 0.90440
 O1094 O 0.91197 0.98161 0.88243
 C1095 C 0.92697 0.97496 0.88931
 C1096 C 0.93638 0.95891 0.88018
 C1097 C 0.92885 0.95084 0.86392
 H1098 H 0.91646 0.95682 0.85752
 O1099 O 1.06745 1.01652 0.90618
 O1100 O 1.08954 1.01599 0.88476
 C1101 C 1.07437 1.02275 0.89108
 C1102 C 1.06502 1.03846 0.88119
 C1103 C 1.07240 1.04563 0.86446
 H1104 H 1.08473 1.03926 0.85842
 O1105 O 0.98116 0.90519 0.93177
 O1106 O 0.98115 0.88328 0.91015
 C1107 C 0.97462 0.89007 0.92516
 C1108 C 0.95888 0.88068 0.93477
 C1109 C 0.95140 0.86389 0.92786
 H1110 H 0.95772 0.85725 0.91584
 O1111 O 1.01948 1.09280 0.93056
 O1112 O 1.02005 1.11456 0.90868
 C1113 C 1.02628 1.10782 0.92392
 C1114 C 1.04201 1.11710 0.93371
 C1115 C 1.05011 1.13344 0.92634
 H1116 H 1.04445 1.13963 0.91370
 O1117 O 0.90662 0.93268 0.97968
 O1118 O 0.88441 0.91133 0.97946
 C1119 C 0.89145 0.92631 0.97300
 C1120 C 0.88229 0.93604 0.95711
 C1121 C 0.86589 0.92879 0.94905
 H1122 H 0.85953 0.91634 0.95487
 O1123 O 1.09350 1.06578 0.98083
 O1124 O 1.11560 1.08723 0.98104
 C1125 C 1.10879 1.07220 0.97450
 C1126 C 1.11837 1.06241 0.95897
 C1127 C 1.13514 1.06943 0.95151
 H1128 H 1.14161 1.08163 0.95770
 O1129 O 1.01824 0.93041 0.90673
 O1130 O 1.01824 0.90860 0.88502
 C1131 C 1.02471 0.92374 0.89164
 C1132 C 1.04025 0.93343 0.88198
 C1133 C 1.04736 0.92641 0.86512
 H1134 H 1.04113 0.91410 0.85892
 O1135 O 0.98276 1.06783 0.90470
 O1136 O 0.98318 1.08954 0.88277
 C1137 C 0.97651 1.07447 0.88943
 C1138 C 0.96100 1.06479 0.87967
 C1139 C 0.95362 1.07192 0.86285
 H1140 H 0.95979 1.08421 0.85651
 O1141 O 0.90829 1.01849 0.92967
 O1142 O 0.88660 1.01858 0.90773
 C1143 C 0.89315 1.02498 0.92293
 C1144 C 0.88335 1.04048 0.93257
 C1145 C 0.86633 1.04740 0.92554
 H1146 H 0.86014 1.04105 0.91329
 O1147 O 1.09197 0.97990 0.93292
 O1148 O 1.11413 0.97928 0.91156
 C1149 C 1.10716 0.97315 0.92671
 C1150 C 1.11652 0.95763 0.93687
 C1151 C 1.13359 0.95044 0.93039
 H1152 H 1.14035 0.95680 0.91844
 O1153 O 1.06601 0.90388 0.98249
 O1154 O 1.08789 0.88209 0.98268
 C1155 C 1.07276 0.88875 0.97609
 C1156 C 1.06317 0.87922 0.96042
 C1157 C 1.07022 0.86239 0.95310
 H1158 H 1.08233 0.85582 0.95945
 O1159 O 0.93331 1.09376 0.97899
 O1160 O 0.91145 1.11555 0.97848
 C1161 C 0.92673 1.10891 0.97233
 C1162 C 0.93665 1.11851 0.95688
 C1163 C 0.92970 1.13534 0.94933
 H1164 H 0.91744 1.14184 0.95539
 Cu1165 Cu 1.07773 0.99826 0.92143
 Cu1166 Cu 1.10429 0.99753 0.89579
 Cu1167 Cu 0.92326 1.00006 0.91925
 Cu1168 Cu 0.89722 1.00018 0.89292
 Cu1169 Cu 1.07846 1.07657 0.99892
 Cu1170 Cu 1.10494 1.10235 0.99920
 Cu1171 Cu 1.07620 0.91901 1.00081
 Cu1172 Cu 1.10257 0.89296 1.00106
 Cu1173 Cu 0.92252 1.07880 0.99718
 Cu1174 Cu 0.89625 1.10490 0.99660
 Cu1175 Cu 0.92122 0.92190 0.99825
 Cu1176 Cu 0.89453 0.89630 0.99807
 Cu1177 Cu 1.00104 1.07802 0.91997
 Cu1178 Cu 1.00165 1.10410 0.89369
 Cu1179 Cu 0.99972 0.92006 0.92155
 Cu1180 Cu 0.99973 0.89383 0.89551
 C1181 C 1.04876 0.94912 0.89011
 H1182 H 1.04351 0.95445 0.90324
 C1183 C 1.06295 0.93468 0.85656
 C1184 C 0.95279 1.04886 0.88774
 H1185 H 0.95815 1.04349 0.90086
 C1186 C 0.93820 1.06332 0.85421
 C1187 C 0.95252 1.11024 0.94880
 H1188 H 0.95774 1.09709 0.95429
 C1189 C 0.93838 1.14378 0.93387
 C1190 C 1.04754 0.88762 0.95188
 H1191 H 1.04228 0.90079 0.95718
 C1192 C 1.06180 0.85405 0.93746
 C1193 C 1.10792 0.94915 0.95238
 H1194 H 1.09457 0.95437 0.95725
 C1195 C 1.14195 0.93490 0.93906
 C1196 C 0.89148 1.04917 0.94817
 H1197 H 0.90474 1.04407 0.95350
 C1198 C 0.85757 1.06295 0.93371
 C1199 C 1.04936 1.04724 0.88917
 H1200 H 1.04379 1.04202 0.90223
 C1201 C 1.06446 1.06150 0.85590
 C1202 C 0.95209 0.95056 0.88865
 H1203 H 0.95775 0.95643 0.90138
 C1204 C 0.93667 0.93446 0.85640
 C1205 C 1.11012 1.04663 0.95071
 H1206 H 1.09702 1.04136 0.95613
 C1207 C 1.14356 1.06093 0.93596
 C1208 C 0.89073 0.95184 0.94897
 H1209 H 0.90357 0.95729 0.95484
 C1210 C 0.85814 0.93697 0.93293
 C1211 C 1.04991 1.10888 0.94977
 H1212 H 1.04399 1.09610 0.95533
 C1213 C 1.06605 1.14134 0.93466
 C1214 C 0.95049 0.88914 0.95034
 H1215 H 0.95595 0.90226 0.95553
 C1216 C 0.93569 0.85566 0.93628
 O1217 O 0.98308 0.43297 0.40808
 O1218 O 0.98301 0.41135 0.38617
 C1219 C 0.97649 0.42642 0.39298
 C1220 C 0.96057 0.43588 0.38359
 C1221 C 0.95293 0.42814 0.36732
 H1222 H 0.95940 0.41595 0.36111
 O1223 O 1.01823 0.56887 0.40867
 O1224 O 1.01787 0.59079 0.38693
 C1225 C 1.02450 0.57565 0.39350
 C1226 C 1.04007 0.56628 0.38367
 C1227 C 1.04733 0.57414 0.36726
 H1228 H 1.04082 0.58648 0.36128
 O1229 O 0.90626 0.48195 0.43306
 O1230 O 0.88472 0.48229 0.41098
 C1231 C 0.89111 0.47571 0.42622
 C1232 C 0.88125 0.46017 0.43574
 C1233 C 0.86447 0.45306 0.42847
 H1234 H 0.85831 0.45942 0.41615
 O1235 O 1.09307 0.51877 0.43276
 O1236 O 1.11472 0.51924 0.41087
 C1237 C 1.10823 0.52526 0.42624
 C1238 C 1.11810 0.54039 0.43628
 C1239 C 1.13512 0.54730 0.42945
 H1240 H 1.14136 0.54112 0.41714
 O1241 O 0.93216 0.40709 0.48096
 O1242 O 0.91068 0.38502 0.48084
 C1243 C 0.92575 0.39189 0.47442
 C1244 C 0.93563 0.38247 0.45881
 C1245 C 0.92815 0.36624 0.45064
 H1246 H 0.91534 0.36029 0.45607
 O1247 O 1.06829 0.59345 0.48264
 O1248 O 1.09002 0.61529 0.48263
 C1249 C 1.07481 0.60870 0.47627
 C1250 C 1.06487 0.61852 0.46092
 C1251 C 1.07190 0.63531 0.45351
 H1252 H 1.08424 0.64161 0.45961
 O1253 O 0.93268 0.51829 0.40808
 O1254 O 0.91133 0.51847 0.38581
 C1255 C 0.92640 0.52479 0.39277
 C1256 C 0.93635 0.54029 0.38330
 C1257 C 0.92979 0.54730 0.36614
 H1258 H 0.91793 0.54078 0.35936
 O1259 O 1.06740 0.48284 0.40658
 O1260 O 1.08891 0.48344 0.38456
 C1261 C 1.07390 0.47673 0.39127
 C1262 C 1.06437 0.46114 0.38160
 C1263 C 1.07144 0.45416 0.36473
 H1264 H 1.08350 0.46074 0.35837
 O1265 O 1.01997 0.40675 0.43284
 O1266 O 1.01992 0.38515 0.41093
 C1267 C 1.02650 0.39169 0.42605
 C1268 C 1.04241 0.38219 0.43546
 C1269 C 1.05038 0.36587 0.42790
 H1270 H 1.04440 0.35966 0.41547
 O1271 O 0.98144 0.59434 0.43411
 O1272 O 0.98131 0.61617 0.41229
 C1273 C 0.97493 0.60951 0.42743
 C1274 C 0.95937 0.61920 0.43701
 C1275 C 0.95223 0.63609 0.42988
 H1276 H 0.95857 0.64236 0.41766
 O1277 O 0.90702 0.56778 0.48223
 O1278 O 0.88511 0.58953 0.48246
 C1279 C 0.89185 0.57448 0.47582
 C1280 C 0.88236 0.56511 0.45999
 C1281 C 0.86619 0.57300 0.45210
 H1282 H 0.86005 0.58536 0.45832
 O1283 O 1.09546 0.43303 0.48078
 O1284 O 1.11741 0.41132 0.48060
 C1285 C 1.11052 0.42640 0.47409
 C1286 C 1.11959 0.43600 0.45810
 C1287 C 1.13577 0.42854 0.44977
 H1288 H 1.14211 0.41597 0.45545
 O1289 O 0.98176 0.56824 0.40896
 O1290 O 0.98153 0.59007 0.38714
 C1291 C 0.97536 0.57475 0.39372
 C1292 C 0.96026 0.56468 0.38378
 C1293 C 0.95355 0.57140 0.36658
 H1294 H 0.95977 0.58372 0.36033
 O1295 O 1.01962 0.43246 0.40713
 O1296 O 1.01953 0.41087 0.38521
 C1297 C 1.02591 0.42604 0.39182
 C1298 C 1.04114 0.43608 0.38197
 C1299 C 1.04858 0.42917 0.36515
 H1300 H 1.04270 0.41673 0.35887
 O1301 O 1.09351 0.48231 0.43167
 O1302 O 1.11502 0.48281 0.40965
 C1303 C 1.10862 0.47603 0.42475
 C1304 C 1.11851 0.46027 0.43398
 C1305 C 1.13469 0.45267 0.42593
 H1306 H 1.14051 0.45905 0.41350
 O1307 O 0.90662 0.51853 0.43308
 O1308 O 0.88519 0.51895 0.41090
 C1309 C 0.89168 0.52529 0.42616
 C1310 C 0.88220 0.54112 0.43566
 C1311 C 0.86598 0.54928 0.42798
 H1312 H 0.85993 0.54359 0.41533
 O1313 O 0.93183 0.59403 0.48241
 O1314 O 0.90999 0.61585 0.48270
 C1315 C 0.92513 0.60930 0.47614
 C1316 C 0.93483 0.61911 0.46070
 C1317 C 0.92775 0.63595 0.45326
 H1318 H 0.91545 0.64233 0.45935
 O1319 O 1.06990 0.40754 0.48114
 O1320 O 1.09180 0.38578 0.48120
 C1321 C 1.07657 0.39237 0.47479
 C1322 C 1.06693 0.38267 0.45929
 C1323 C 1.07470 0.36643 0.45152
 H1324 H 1.08724 0.36041 0.45758
 O1325 O 1.06769 0.51947 0.40689
 O1326 O 1.08927 0.52007 0.38496
 C1327 C 1.07418 0.52635 0.39185
 C1328 C 1.06439 0.54225 0.38272
 C1329 C 1.07150 0.55039 0.36628
 H1330 H 1.08394 0.54466 0.35983
 O1331 O 0.93240 0.48172 0.40804
 O1332 O 0.91093 0.48183 0.38590
 C1333 C 0.92598 0.47527 0.39281
 C1334 C 0.93580 0.45959 0.38343
 C1335 C 0.92838 0.45154 0.36710
 H1336 H 0.91567 0.45713 0.36098
 O1337 O 1.01805 0.59415 0.43446
 O1338 O 1.01783 0.61603 0.41268
 C1339 C 1.02441 0.60933 0.42780
 C1340 C 1.04008 0.61890 0.43734
 C1341 C 1.04728 0.63571 0.43019
 H1342 H 1.04090 0.64204 0.41797
 O1343 O 0.98321 0.40685 0.43306
 O1344 O 0.98319 0.38523 0.41116
 C1345 C 0.97662 0.39184 0.42625
 C1346 C 0.96060 0.38242 0.43544
 C1347 C 0.95286 0.36622 0.42754
 H1348 H 0.95937 0.35999 0.41540
 O1349 O 1.09371 0.56763 0.48249
 O1350 O 1.11555 0.58936 0.48243
 C1351 C 1.10885 0.57422 0.47602
 C1352 C 1.11838 0.56445 0.46049
 C1353 C 1.13533 0.57126 0.45333
 H1354 H 1.14192 0.58331 0.45967
 O1355 O 0.90610 0.43232 0.48138
 O1356 O 0.88451 0.41036 0.48132
 C1357 C 0.89095 0.42566 0.47496
 C1358 C 0.88120 0.43554 0.45951
 C1359 C 0.86445 0.42855 0.45197
 H1360 H 0.85805 0.41626 0.45808
 Cu1361 Cu 1.00158 0.42188 0.42250
 Cu1362 Cu 1.00140 0.39597 0.39621
 Cu1363 Cu 0.99986 0.57923 0.42378
 Cu1364 Cu 0.99957 0.60547 0.39759
 Cu1365 Cu 0.92162 0.50008 0.42279
 Cu1366 Cu 0.89590 0.50041 0.39617
 Cu1367 Cu 1.07822 0.50081 0.42164
 Cu1368 Cu 1.10412 0.50146 0.39529
 C1369 C 0.95200 0.45169 0.39150
 H1370 H 0.95761 0.45752 0.40428
 C1371 C 0.93677 0.43568 0.35912
 C1372 C 1.04858 0.55024 0.39122
 H1373 H 1.04322 0.54431 0.40406
 C1374 C 1.06312 0.56646 0.35857
 C1375 C 0.88935 0.45147 0.45139
 H1376 H 0.90243 0.45673 0.45689
 C1377 C 0.85598 0.43723 0.43645
 C1378 C 1.10996 0.54889 0.45196
 H1379 H 1.09669 0.54379 0.45712
 C1380 C 1.14375 0.56276 0.43781
 C1381 C 0.95195 0.39036 0.45117
 H1382 H 0.95761 0.40306 0.45712
 C1383 C 0.93658 0.35814 0.43490
 C1384 C 1.04886 0.61053 0.45283
 H1385 H 1.04356 0.59740 0.45823
 C1386 C 1.06321 0.64398 0.43813
 C1387 C 0.95171 0.54898 0.39193
 H1388 H 0.95662 0.54389 0.40534
 C1389 C 0.93828 0.56286 0.35773
 C1390 C 1.04906 0.45216 0.38997
 H1391 H 1.04370 0.45734 0.40311
 C1392 C 1.06372 0.43817 0.35643
 C1393 C 1.05070 0.39035 0.45127
 H1394 H 1.04487 0.40310 0.45698
 C1395 C 1.06663 0.35802 0.43578
 C1396 C 0.95073 0.61097 0.45254
 H1397 H 0.95606 0.59782 0.45793
 C1398 C 0.93642 0.64455 0.43786
 C1399 C 0.89018 0.54907 0.45176
 H1400 H 0.90287 0.54312 0.45757
 C1401 C 0.85802 0.56534 0.43602
 C1402 C 1.11117 0.45195 0.45015
 H1403 H 1.09852 0.45758 0.45625
 C1404 C 1.14332 0.43672 0.43356
 O1405 O 1.01943 0.43206 0.59204
 O1406 O 1.01947 0.40998 0.61361
 C1407 C 1.02581 0.42528 0.60721
 C1408 C 1.04119 0.43494 0.61715
 C1409 C 1.04812 0.42782 0.63413
 H1410 H 1.04178 0.41553 0.64029
 O1411 O 0.98244 0.56620 0.59283
 O1412 O 0.98243 0.58779 0.61476
 C1413 C 0.97604 0.57268 0.60804
 C1414 C 0.96063 0.56289 0.61771
 C1415 C 0.95363 0.56984 0.63463
 H1416 H 0.95993 0.58209 0.64089
 O1417 O 0.90715 0.51733 0.56733
 O1418 O 0.88551 0.51720 0.58922
 C1419 C 0.89198 0.52369 0.57401
 C1420 C 0.88216 0.53923 0.56434
 C1421 C 0.86504 0.54599 0.57114
 H1422 H 0.85850 0.53934 0.58307
 O1423 O 1.09492 0.48130 0.56762
 O1424 O 1.11662 0.48107 0.58954
 C1425 C 1.11012 0.47485 0.57425
 C1426 C 1.11999 0.45962 0.56428
 C1427 C 1.13683 0.45220 0.57131
 H1428 H 1.14309 0.45813 0.58373
 O1429 O 1.07026 0.40752 0.51756
 O1430 O 1.09221 0.38580 0.51771
 C1431 C 1.07699 0.39240 0.52410
 C1432 C 1.06729 0.38279 0.53969
 C1433 C 1.07487 0.36645 0.54775
 H1434 H 1.08764 0.36049 0.54222
 O1435 O 0.93251 0.59316 0.51880
 O1436 O 0.91066 0.61497 0.51922
 C1437 C 0.92594 0.60826 0.52543
 C1438 C 0.93596 0.61771 0.54086
 C1439 C 0.92924 0.63460 0.54833
 H1440 H 0.91696 0.64122 0.54235
 O1441 O 0.93297 0.48066 0.59271
 O1442 O 0.91145 0.48045 0.61471
 C1443 C 0.92652 0.47402 0.60786
 C1444 C 0.93632 0.45821 0.61712
 C1445 C 0.92907 0.45003 0.63347
 H1446 H 0.91653 0.45571 0.63977
 O1447 O 1.06896 0.51741 0.59326
 O1448 O 1.09058 0.51736 0.61527
 C1449 C 1.07541 0.52376 0.60852
 C1450 C 1.06539 0.53912 0.61814
 C1451 C 1.07213 0.54640 0.63510
 H1452 H 1.08438 0.54030 0.64165
 O1453 O 0.98322 0.40655 0.56579
 O1454 O 0.98349 0.38441 0.58730
 C1455 C 0.97694 0.39122 0.57223
 C1456 C 0.96137 0.38157 0.56257
 C1457 C 0.95433 0.36467 0.56968
 H1458 H 0.96077 0.35831 0.58185
 O1459 O 1.01889 0.59214 0.56756
 O1460 O 1.01878 0.61369 0.58953
 C1461 C 1.02518 0.60729 0.57431
 C1462 C 1.04051 0.61726 0.56470
 C1463 C 1.04723 0.63425 0.57177
 H1464 H 1.04074 0.64040 0.58396
 O1465 O 0.90637 0.43181 0.51790
 O1466 O 0.88484 0.40979 0.51802
 C1467 C 0.89140 0.42495 0.52454
 C1468 C 0.88205 0.43440 0.54044
 C1469 C 0.86581 0.42686 0.54862
 H1470 H 0.85956 0.41433 0.54288
 O1471 O 1.09410 0.56757 0.51895
 O1472 O 1.11590 0.58933 0.51899
 C1473 C 1.10930 0.57412 0.52538
 C1474 C 1.11903 0.56425 0.54083
 C1475 C 1.13592 0.57118 0.54805
 H1476 H 1.14236 0.58332 0.54170
 O1477 O 1.01896 0.56614 0.59289
 O1478 O 1.01881 0.58772 0.61484
 C1479 C 1.02527 0.57260 0.60816
 C1480 C 1.04070 0.56282 0.61797
 C1481 C 1.04748 0.56972 0.63500
 H1482 H 1.04096 0.58186 0.64127
 O1483 O 0.98285 0.43192 0.59160
 O1484 O 0.98304 0.40973 0.61305
 C1485 C 0.97644 0.42495 0.60661
 C1486 C 0.96073 0.43423 0.61637
 C1487 C 0.95331 0.42630 0.63269
 H1488 H 0.95978 0.41395 0.63868
 O1489 O 1.09446 0.51777 0.56772
 O1490 O 1.11621 0.51766 0.58960
 C1491 C 1.10958 0.52420 0.57444
 C1492 C 1.11918 0.53981 0.56479
 C1493 C 1.13608 0.54693 0.57179
 H1494 H 1.14238 0.54064 0.58407
 O1495 O 0.90734 0.48078 0.56720
 O1496 O 0.88578 0.48066 0.58917
 C1497 C 0.89230 0.47426 0.57397
 C1498 C 0.88264 0.45859 0.56455
 C1499 C 0.86648 0.45087 0.57245
 H1500 H 0.86051 0.45710 0.58485
 O1501 O 1.06842 0.59310 0.51904
 O1502 O 1.09011 0.61498 0.51917
 C1503 C 1.07497 0.60825 0.52554
 C1504 C 1.06506 0.61772 0.54101
 C1505 C 1.07175 0.63462 0.54844
 H1506 H 1.08393 0.64125 0.54240
 O1507 O 0.93260 0.40683 0.51739
 O1508 O 0.91118 0.38469 0.51743
 C1509 C 0.92634 0.39149 0.52376
 C1510 C 0.93649 0.38179 0.53905
 C1511 C 0.92960 0.36496 0.54649
 H1512 H 0.91723 0.35860 0.54051
 O1513 O 1.06899 0.48093 0.59282
 O1514 O 1.09059 0.48075 0.61485
 C1515 C 1.07548 0.47437 0.60802
 C1516 C 1.06560 0.45883 0.61749
 C1517 C 1.07236 0.45146 0.63443
 H1518 H 1.08444 0.45772 0.64106
 O1519 O 0.93290 0.51722 0.59286
 O1520 O 0.91134 0.51708 0.61483
 C1521 C 0.92643 0.52356 0.60810
 C1522 C 0.93625 0.53900 0.61774
 C1523 C 0.92935 0.54627 0.63460
 H1524 H 0.91716 0.54006 0.64107
 O1525 O 0.98242 0.59209 0.56741
 O1526 O 0.98245 0.61366 0.58937
 C1527 C 0.97606 0.60725 0.57412
 C1528 C 0.96067 0.61724 0.56448
 C1529 C 0.95393 0.63423 0.57156
 H1530 H 0.96047 0.64038 0.58374
 O1531 O 1.01992 0.40707 0.56590
 O1532 O 1.02003 0.38503 0.58751
 C1533 C 1.02656 0.39194 0.57252
 C1534 C 1.04254 0.38263 0.56322
 C1535 C 1.05029 0.36633 0.57099
 H1536 H 1.04385 0.35999 0.58313
 O1537 O 1.09561 0.43332 0.51736
 O1538 O 1.11762 0.41167 0.51724
 C1539 C 1.11087 0.42676 0.52373
 C1540 C 1.12046 0.43632 0.53935
 C1541 C 1.13735 0.42923 0.54649
 H1542 H 1.14376 0.41713 0.54003
 O1543 O 0.90686 0.56769 0.51876
 O1544 O 0.88489 0.58937 0.51910
 C1545 C 0.89169 0.57415 0.52535
 C1546 C 0.88218 0.56410 0.54077
 C1547 C 0.86526 0.57088 0.54807
 H1548 H 0.85875 0.58323 0.54209
 Cu1549 Cu 1.00134 0.42161 0.57666
 Cu1550 Cu 1.00151 0.39505 0.60249
 Cu1551 Cu 1.00068 0.57696 0.57796
 Cu1552 Cu 1.00061 0.60287 0.60434
 Cu1553 Cu 0.92141 0.42174 0.49940
 Cu1554 Cu 0.89565 0.39525 0.49939
 Cu1555 Cu 1.08064 0.42255 0.49922
 Cu1556 Cu 1.10698 0.39648 0.49921
 Cu1557 Cu 0.92174 0.57850 0.50053
 Cu1558 Cu 0.89542 0.60458 0.50093
 Cu1559 Cu 1.07896 0.57826 0.50078
 Cu1560 Cu 1.10510 0.60442 0.50080
 Cu1561 Cu 0.92227 0.49904 0.57785
 Cu1562 Cu 0.89635 0.49887 0.60418
 Cu1563 Cu 1.07966 0.49935 0.57817
 Cu1564 Cu 1.10568 0.49918 0.60452
 C1565 C 1.04990 0.45057 0.60907
 H1566 H 1.04481 0.45594 0.59584
 C1567 C 1.06373 0.43595 0.64283
 C1568 C 0.95200 0.54733 0.60949
 H1569 H 0.95718 0.54207 0.59631
 C1570 C 0.93797 0.56169 0.64312
 C1571 C 0.89048 0.54822 0.54897
 H1572 H 0.90376 0.54318 0.54373
 C1573 C 0.85663 0.56186 0.56317
 C1574 C 1.11202 0.45167 0.54821
 H1575 H 1.09884 0.45703 0.54293
 C1576 C 1.14558 0.43700 0.56248
 C1577 C 1.05103 0.39068 0.54747
 H1578 H 1.04531 0.40345 0.54162
 C1579 C 1.06653 0.35826 0.56352
 C1580 C 0.95178 0.60922 0.54896
 H1581 H 0.95681 0.59599 0.54358
 C1582 C 0.93821 0.64294 0.56365
 C1583 C 0.95225 0.45027 0.60879
 H1584 H 0.95772 0.45625 0.59601
 C1585 C 0.93741 0.43396 0.64125
 C1586 C 1.04958 0.54736 0.60977
 H1587 H 1.04453 0.54213 0.59651
 C1588 C 1.06320 0.56168 0.64360
 C1589 C 0.95248 0.38991 0.54711
 H1590 H 0.95764 0.40310 0.54174
 C1591 C 0.93840 0.35635 0.56182
 C1592 C 1.04934 0.60924 0.54917
 H1593 H 1.04433 0.59602 0.54381
 C1594 C 1.06285 0.64298 0.56379
 C1595 C 0.89023 0.45038 0.54846
 H1596 H 0.90291 0.45609 0.54252
 C1597 C 0.85808 0.43493 0.56476
 C1598 C 1.11087 0.54846 0.54919
 H1599 H 1.09768 0.54323 0.54391
 C1600 C 1.14452 0.56264 0.56355
 O1601 O 0.48191 0.93304 0.40715
 O1602 O 0.48243 0.91129 0.38538
 C1603 C 0.47563 0.92631 0.39198
 C1604 C 0.45979 0.93560 0.38229
 C1605 C 0.45229 0.92781 0.36594
 H1606 H 0.45881 0.91559 0.35984
 O1607 O 0.51671 1.06723 0.40654
 O1608 O 0.51655 1.08930 0.38495
 C1609 C 0.52310 1.07407 0.39148
 C1610 C 0.53879 1.06460 0.38189
 C1611 C 0.54585 1.07175 0.36505
 H1612 H 0.53933 1.08390 0.35869
 O1613 O 0.40611 0.98125 0.43179
 O1614 O 0.38428 0.98101 0.41000
 C1615 C 0.39103 0.97462 0.42516
 C1616 C 0.38171 0.95884 0.43481
 C1617 C 0.36542 0.95081 0.42734
 H1618 H 0.35923 0.95659 0.41475
 O1619 O 0.59296 1.01997 0.43307
 O1620 O 0.61488 1.02014 0.41146
 C1621 C 0.60809 1.02655 0.42654
 C1622 C 0.61745 1.04224 0.43627
 C1623 C 0.63377 1.05032 0.42891
 H1624 H 0.63992 1.04465 0.41633
 O1625 O 0.43278 0.90631 0.48127
 O1626 O 0.41118 0.88436 0.48123
 C1627 C 0.42627 0.89113 0.47478
 C1628 C 0.43604 0.88176 0.45911
 C1629 C 0.42871 0.86548 0.45088
 H1630 H 0.41610 0.85922 0.45643
 O1631 O 0.56563 1.09280 0.48268
 O1632 O 0.58686 1.11511 0.48290
 C1633 C 0.57197 1.10808 0.47624
 C1634 C 0.56251 1.11741 0.46030
 C1635 C 0.57026 1.13364 0.45252
 H1636 H 0.58246 1.13991 0.45893
 O1637 O 0.43133 1.01810 0.40635
 O1638 O 0.40959 1.01786 0.38448
 C1639 C 0.42462 1.02451 0.39119
 C1640 C 0.43396 1.04036 0.38167
 C1641 C 0.42616 1.04813 0.36541
 H1642 H 0.41388 1.04179 0.35923
 O1643 O 0.56780 0.98319 0.40765
 O1644 O 0.58962 0.98323 0.38594
 C1645 C 0.57447 0.97676 0.39254
 C1646 C 0.56472 0.96129 0.38287
 C1647 C 0.57162 0.95415 0.36596
 H1648 H 0.58379 0.96043 0.35952
 O1649 O 0.51888 0.90779 0.43279
 O1650 O 0.51946 0.88608 0.41098
 C1651 C 0.52569 0.89276 0.42618
 C1652 C 0.54143 0.88338 0.43596
 C1653 C 0.54960 0.86705 0.42864
 H1654 H 0.54397 0.86079 0.41607
 O1655 O 0.48026 1.09235 0.43241
 O1656 O 0.48006 1.11458 0.41099
 C1657 C 0.47372 1.10762 0.42605
 C1658 C 0.45810 1.11693 0.43590
 C1659 C 0.45016 1.13347 0.42873
 H1660 H 0.45589 1.13984 0.41625
 O1661 O 0.40536 1.06583 0.48159
 O1662 O 0.38349 1.08763 0.48164
 C1663 C 0.39021 1.07258 0.47508
 C1664 C 0.38068 1.06333 0.45921
 C1665 C 0.36444 1.07124 0.45144
 H1666 H 0.35825 1.08349 0.45784
 O1667 O 0.59307 0.93410 0.48298
 O1668 O 0.61525 0.91261 0.48317
 C1669 C 0.60842 0.92773 0.47673
 C1670 C 0.61811 0.93762 0.46135
 C1671 C 0.63503 0.93061 0.45433
 H1672 H 0.64132 0.91830 0.46062
 O1673 O 0.48015 1.06754 0.40617
 O1674 O 0.47991 1.08968 0.38468
 C1675 C 0.47353 1.07441 0.39114
 C1676 C 0.45783 1.06483 0.38156
 C1677 C 0.44976 1.07243 0.36524
 H1678 H 0.45544 1.08510 0.35919
 O1679 O 0.51847 0.93385 0.40754
 O1680 O 0.51890 0.91216 0.38572
 C1681 C 0.52503 0.92741 0.39239
 C1682 C 0.54037 0.93736 0.38275
 C1683 C 0.54736 0.93055 0.36578
 H1684 H 0.54109 0.91834 0.35944
 O1685 O 0.59317 0.98345 0.43344
 O1686 O 0.61511 0.98347 0.41185
 C1687 C 0.60842 0.97705 0.42699
 C1688 C 0.61809 0.96159 0.43692
 C1689 C 0.63495 0.95425 0.43001
 H1690 H 0.64139 0.96044 0.41780
 O1691 O 0.40549 1.01776 0.43157
 O1692 O 0.38369 1.01766 0.40976
 C1693 C 0.39028 1.02414 0.42491
 C1694 C 0.38063 1.03972 0.43458
 C1695 C 0.36436 1.04788 0.42699
 H1696 H 0.35840 1.04236 0.41423
 O1697 O 0.43126 1.09117 0.48199
 O1698 O 0.40930 1.11288 0.48193
 C1699 C 0.42455 1.10635 0.47559
 C1700 C 0.43411 1.11621 0.46014
 C1701 C 0.42642 1.13272 0.45278
 H1702 H 0.41410 1.13880 0.45914
 O1703 O 0.56762 0.90844 0.48266
 O1704 O 0.58979 0.88694 0.48274
 C1705 C 0.57457 0.89346 0.47619
 C1706 C 0.56529 0.88385 0.46045
 C1707 C 0.57323 0.86761 0.45293
 H1708 H 0.58558 0.86154 0.45934
 O1709 O 0.56739 1.01962 0.40741
 O1710 O 0.58921 1.01976 0.38570
 C1711 C 0.57391 1.02602 0.39220
 C1712 C 0.56381 1.04124 0.38232
 C1713 C 0.57072 1.04864 0.36550
 H1714 H 0.58312 1.04265 0.35923
 O1715 O 0.43168 0.98154 0.40631
 O1716 O 0.40994 0.98120 0.38443
 C1717 C 0.42517 0.97493 0.39119
 C1718 C 0.43509 0.95934 0.38182
 C1719 C 0.42779 0.95129 0.36547
 H1720 H 0.41511 0.95690 0.35931
 O1721 O 0.51677 1.09262 0.43220
 O1722 O 0.51669 1.11476 0.41070
 C1723 C 0.52320 1.10788 0.42576
 C1724 C 0.53884 1.11736 0.43555
 C1725 C 0.54692 1.13362 0.42797
 H1726 H 0.54136 1.13960 0.41519
 O1727 O 0.48232 0.90753 0.43285
 O1728 O 0.48292 0.88580 0.41106
 C1729 C 0.47620 0.89231 0.42612
 C1730 C 0.46057 0.88245 0.43539
 C1731 C 0.45310 0.86621 0.42744
 H1732 H 0.45959 0.86024 0.41516
 O1733 O 0.59217 1.06819 0.48282
 O1734 O 0.61340 1.09051 0.48303
 C1735 C 0.60715 1.07527 0.47644
 C1736 C 0.61696 1.06608 0.46070
 C1737 C 0.63324 1.07398 0.45310
 H1738 H 0.63926 1.08631 0.45946
 O1739 O 0.40717 0.93198 0.48112
 O1740 O 0.38554 0.91004 0.48125
 C1741 C 0.39204 0.92523 0.47472
 C1742 C 0.38228 0.93470 0.45905
 C1743 C 0.36600 0.92690 0.45138
 H1744 H 0.35998 0.91450 0.45765
 Cu1745 Cu 0.50037 0.92273 0.42229
 Cu1746 Cu 0.50100 0.89666 0.39610
 Cu1747 Cu 0.49847 1.07771 0.42146
 Cu1748 Cu 0.49830 1.10431 0.39568
 Cu1749 Cu 0.42082 0.99969 0.42119
 Cu1750 Cu 0.39470 0.99941 0.39496
 Cu1751 Cu 0.57816 1.00156 0.42257
 Cu1752 Cu 0.60443 1.00166 0.39658
 C1753 C 0.45120 0.95147 0.39002
 H1754 H 0.45671 0.95734 0.40282
 C1755 C 0.43621 0.93542 0.35753
 C1756 C 0.54773 1.04921 0.39029
 H1757 H 0.54253 1.04382 0.40344
 C1758 C 0.56182 1.06391 0.35679
 C1759 C 0.38993 0.95078 0.45078
 H1760 H 0.40269 0.95666 0.45641
 C1761 C 0.35757 0.93474 0.43545
 C1762 C 0.60929 1.05011 0.45227
 H1763 H 0.59655 1.04416 0.45783
 C1764 C 0.64169 1.06627 0.43716
 C1765 C 0.45207 0.89002 0.45132
 H1766 H 0.45760 0.90277 0.45730
 C1767 C 0.43709 0.85774 0.43490
 C1768 C 0.54669 1.10941 0.45181
 H1769 H 0.54085 1.09667 0.45753
 C1770 C 0.56277 1.14169 0.43627
 C1771 C 0.44989 1.04871 0.38954
 H1772 H 0.45577 1.04297 0.40228
 C1773 C 0.43381 1.06423 0.35719
 C1774 C 0.54899 0.95288 0.39108
 H1775 H 0.54380 0.95803 0.40430
 C1776 C 0.56300 0.93879 0.35734
 C1777 C 0.54930 0.89156 0.45199
 H1778 H 0.54333 0.90432 0.45753
 C1779 C 0.56562 0.85923 0.43697
 C1780 C 0.45006 1.10850 0.45173
 H1781 H 0.45584 1.09554 0.45712
 C1782 C 0.43420 1.14131 0.43700
 C1783 C 0.38856 1.04747 0.45079
 H1784 H 0.40129 1.04153 0.45653
 C1785 C 0.35629 1.06378 0.43525
 C1786 C 0.60986 0.95326 0.45270
 H1787 H 0.59665 0.95856 0.45787
 C1788 C 0.64347 0.93874 0.43863
 O1789 O 0.51812 0.93232 0.59364
 O1790 O 0.51848 0.91035 0.61531
 C1791 C 0.52469 0.92565 0.60876
 C1792 C 0.54016 0.93550 0.61839
 C1793 C 0.54824 0.92802 0.63472
 H1794 H 0.54274 0.91526 0.64076
 O1795 O 0.47976 1.06702 0.59503
 O1796 O 0.47943 1.08901 0.61655
 C1797 C 0.47325 1.07367 0.61011
 C1798 C 0.45790 1.06369 0.61978
 C1799 C 0.45035 1.07053 0.63655
 H1800 H 0.45637 1.08280 0.64304
 O1801 O 0.40631 1.01747 0.56866
 O1802 O 0.38426 1.01707 0.59014
 C1803 C 0.39098 1.02369 0.57511
 C1804 C 0.38126 1.03917 0.56531
 C1805 C 0.36497 1.04718 0.57284
 H1806 H 0.35912 1.04163 0.58564
 O1807 O 0.59166 0.98310 0.56840
 O1808 O 0.61341 0.98307 0.59029
 C1809 C 0.60684 0.97671 0.57511
 C1810 C 0.61664 0.96123 0.56561
 C1811 C 0.63305 0.95373 0.57335
 H1812 H 0.63913 0.96003 0.58569
 O1813 O 0.56784 0.90765 0.51912
 O1814 O 0.58995 0.88610 0.51919
 C1815 C 0.57466 0.89250 0.52553
 C1816 C 0.56505 0.88266 0.54098
 C1817 C 0.57258 0.86615 0.54868
 H1818 H 0.58520 0.86015 0.54286
 O1819 O 0.43077 1.09121 0.51853
 O1820 O 0.40882 1.11293 0.51826
 C1821 C 0.42394 1.10633 0.52489
 C1822 C 0.43318 1.11605 0.54063
 C1823 C 0.42535 1.13252 0.54782
 H1824 H 0.41317 1.13863 0.54114
 O1825 O 0.43196 0.98087 0.59417
 O1826 O 0.40987 0.98017 0.61560
 C1827 C 0.42521 0.97404 0.60910
 C1828 C 0.43501 0.95837 0.61853
 C1829 C 0.42771 0.95027 0.63488
 H1830 H 0.41510 0.95591 0.64108
 O1831 O 0.56588 1.01940 0.59400
 O1832 O 0.58776 1.01929 0.61575
 C1833 C 0.57258 1.02577 0.60914
 C1834 C 0.56310 1.04136 0.61880
 C1835 C 0.57111 1.04915 0.63485
 H1836 H 0.58365 1.04298 0.64077
 O1837 O 0.48191 0.90667 0.56780
 O1838 O 0.48204 0.88469 0.58947
 C1839 C 0.47554 0.89144 0.57435
 C1840 C 0.45994 0.88189 0.56462
 C1841 C 0.45197 0.86558 0.57220
 H1842 H 0.45767 0.85956 0.58490
 O1843 O 0.51566 1.09249 0.56863
 O1844 O 0.51534 1.11468 0.58996
 C1845 C 0.52185 1.10787 0.57492
 C1846 C 0.53722 1.11760 0.56504
 C1847 C 0.54419 1.13455 0.57198
 H1848 H 0.53789 1.14082 0.58420
 O1849 O 0.40727 0.93203 0.51763
 O1850 O 0.38557 0.91017 0.51775
 C1851 C 0.39215 0.92539 0.52411
 C1852 C 0.38247 0.93516 0.53957
 C1853 C 0.36545 0.92832 0.54657
 H1854 H 0.35895 0.91623 0.54021
 O1855 O 0.59213 1.06811 0.51934
 O1856 O 0.61340 1.09039 0.51954
 C1857 C 0.60713 1.07503 0.52587
 C1858 C 0.61694 1.06535 0.54138
 C1859 C 0.63396 1.07216 0.54849
 H1860 H 0.64049 1.08420 0.54205
 O1861 O 0.51625 1.06787 0.59511
 O1862 O 0.51613 1.08993 0.61656
 C1863 C 0.52280 1.07481 0.61007
 C1864 C 0.53880 1.06545 0.61944
 C1865 C 0.54708 1.07310 0.63557
 H1866 H 0.54131 1.08565 0.64177
 O1867 O 0.48163 0.93213 0.59339
 O1868 O 0.48198 0.91017 0.61508
 C1869 C 0.47532 0.92530 0.60850
 C1870 C 0.45960 0.93459 0.61815
 C1871 C 0.45212 0.92672 0.63444
 H1872 H 0.45858 0.91441 0.64055
 O1873 O 0.59178 1.01953 0.56870
 O1874 O 0.61361 1.01937 0.59050
 C1875 C 0.60702 1.02582 0.57531
 C1876 C 0.61685 1.04115 0.56552
 C1877 C 0.63389 1.04804 0.57237
 H1878 H 0.64015 1.04172 0.58466
 O1879 O 0.40725 0.98108 0.56770
 O1880 O 0.38507 0.98063 0.58905
 C1881 C 0.39198 0.97453 0.57389
 C1882 C 0.38239 0.95930 0.56372
 C1883 C 0.36529 0.95239 0.57031
 H1884 H 0.35886 0.95862 0.58249
 O1885 O 0.56554 1.09288 0.51926
 O1886 O 0.58678 1.11519 0.51945
 C1887 C 0.57173 1.10819 0.52576
 C1888 C 0.56168 1.11767 0.54118
 C1889 C 0.56850 1.13457 0.54848
 H1890 H 0.58069 1.14109 0.54233
 O1891 O 0.43310 0.90664 0.51781
 O1892 O 0.41145 0.88473 0.51783
 C1893 C 0.42653 0.89148 0.52433
 C1894 C 0.43604 0.88198 0.54014
 C1895 C 0.42833 0.86571 0.54792
 H1896 H 0.41604 0.85951 0.54162
 O1897 O 0.56613 0.98278 0.59389
 O1898 O 0.58793 0.98279 0.61572
 C1899 C 0.57287 0.97623 0.60898
 C1900 C 0.56362 0.96032 0.61841
 C1901 C 0.57148 0.95262 0.63467
 H1902 H 0.58368 0.95906 0.64091
 O1903 O 0.43179 1.01739 0.59442
 O1904 O 0.40979 1.01676 0.61594
 C1905 C 0.42493 1.02348 0.60958
 C1906 C 0.43433 1.03898 0.61953
 C1907 C 0.42706 1.04592 0.63635
 H1908 H 0.41481 1.03945 0.64243
 O1909 O 0.47920 1.09231 0.56909
 O1910 O 0.47873 1.11442 0.59049
 C1911 C 0.47245 1.10746 0.57542
 C1912 C 0.45676 1.11668 0.56541
 C1913 C 0.44864 1.13317 0.57241
 H1914 H 0.45418 1.13951 0.58498
 O1915 O 0.51843 0.90704 0.56783
 O1916 O 0.51859 0.88503 0.58948
 C1917 C 0.52500 0.89186 0.57441
 C1918 C 0.54072 0.88244 0.56487
 C1919 C 0.54842 0.86597 0.57235
 H1920 H 0.54212 0.85957 0.58453
 O1921 O 0.59275 0.93386 0.51940
 O1922 O 0.61488 0.91232 0.51958
 C1923 C 0.60795 0.92737 0.52596
 C1924 C 0.61727 0.93706 0.54162
 C1925 C 0.63370 0.92972 0.54959
 H1926 H 0.64000 0.91720 0.54385
 O1927 O 0.40549 1.06537 0.51823
 O1928 O 0.38363 1.08718 0.51811
 C1929 C 0.39035 1.07207 0.52466
 C1930 C 0.38093 1.06271 0.54049
 C1931 C 0.36468 1.07048 0.54821
 H1932 H 0.35834 1.08268 0.54177
 Cu1933 Cu 0.50002 0.92175 0.57848
 Cu1934 Cu 0.50030 0.89534 0.60451
 Cu1935 Cu 0.49772 1.07768 0.57987
 Cu1936 Cu 0.49737 1.10424 0.60553
 Cu1937 Cu 0.42226 0.92142 0.49943
 Cu1938 Cu 0.39627 0.89512 0.49955
 Cu1939 Cu 0.57809 0.92317 0.50106
 Cu1940 Cu 0.60469 0.89732 0.50115
 Cu1941 Cu 0.42040 1.07617 0.50008
 Cu1942 Cu 0.39411 1.10232 0.49995
 Cu1943 Cu 0.57676 1.07823 0.50106
 Cu1944 Cu 0.60220 1.10507 0.50127
 Cu1945 Cu 0.42157 0.99928 0.57912
 Cu1946 Cu 0.39503 0.99858 0.60484
 Cu1947 Cu 0.57663 1.00125 0.57906
 Cu1948 Cu 0.60283 1.00114 0.60531
 C1949 C 0.54786 0.95177 0.61045
 H1950 H 0.54197 0.95743 0.59768
 C1951 C 0.56403 0.93642 0.64280
 C1952 C 0.44989 1.04781 0.61152
 H1953 H 0.45538 1.04267 0.59841
 C1954 C 0.43494 1.06169 0.64495
 C1955 C 0.38902 1.04694 0.54903
 H1956 H 0.40178 1.04109 0.54335
 C1957 C 0.35671 1.06295 0.56446
 C1958 C 0.60893 0.95293 0.54963
 H1959 H 0.59606 0.95846 0.54381
 C1960 C 0.64155 0.93789 0.56557
 C1961 C 0.54901 0.89058 0.54908
 H1962 H 0.54333 0.90348 0.54347
 C1963 C 0.56442 0.85782 0.56447
 C1964 C 0.44899 1.10831 0.54941
 H1965 H 0.45492 1.09543 0.54410
 C1966 C 0.43283 1.14108 0.56376
 C1967 C 0.45107 0.95052 0.61039
 H1968 H 0.45659 0.95644 0.59760
 C1969 C 0.43611 0.93433 0.64280
 C1970 C 0.54686 1.04948 0.61130
 H1971 H 0.54084 1.04369 0.59869
 C1972 C 0.56338 1.06509 0.64321
 C1973 C 0.45195 0.88989 0.54849
 H1974 H 0.45775 0.90266 0.54277
 C1975 C 0.43605 0.85754 0.56403
 C1976 C 0.54594 1.10935 0.54949
 H1977 H 0.54083 1.09612 0.54423
 C1978 C 0.55988 1.14304 0.56389
 C1979 C 0.39077 0.95076 0.54818
 H1980 H 0.40410 0.95588 0.54316
 C1981 C 0.35680 0.93690 0.56191
 C1982 C 0.60863 1.04974 0.54989
 H1983 H 0.59536 1.04462 0.54471
 C1984 C 0.64256 1.06353 0.56398
 O1985 O 0.48198 0.43345 0.90712
 O1986 O 0.48139 0.41146 0.88560
 C1987 C 0.47530 0.42683 0.89209
 C1988 C 0.45982 0.43679 0.88253
 C1989 C 0.45244 0.43000 0.86568
 H1990 H 0.45872 0.41791 0.85908
 O1991 O 0.51987 0.56700 0.90551
 O1992 O 0.52001 0.58869 0.88356
 C1993 C 0.52640 0.57353 0.89035
 C1994 C 0.54209 0.56377 0.88100
 C1995 C 0.55027 0.57124 0.86477
 H1996 H 0.54463 0.58391 0.85860
 O1997 O 0.40723 0.48284 0.93359
 O1998 O 0.38512 0.48315 0.91208
 C1999 C 0.39187 0.47662 0.92718
 C2000 C 0.38209 0.46126 0.93708
 C2001 C 0.36531 0.45395 0.92998
 H2002 H 0.35919 0.45995 0.91747
 O2003 O 0.59358 0.51765 0.93274
 O2004 O 0.61577 0.51722 0.91141
 C2005 C 0.60884 0.52399 0.92627
 C2006 C 0.61821 0.53985 0.93572
 C2007 C 0.63438 0.54797 0.92803
 H2008 H 0.64037 0.54225 0.91539
 O2009 O 0.43250 0.40918 0.98375
 O2010 O 0.41079 0.38734 0.98402
 C2011 C 0.42587 0.39399 0.97740
 C2012 C 0.43536 0.38428 0.96174
 C2013 C 0.42807 0.36746 0.95476
 H2014 H 0.41584 0.36132 0.96121
 O2015 O 0.56789 0.59284 0.98202
 O2016 O 0.58982 0.61447 0.98166
 C2017 C 0.57463 0.60785 0.97532
 C2018 C 0.56523 0.61729 0.95946
 C2019 C 0.57283 0.63370 0.95189
 H2020 H 0.58491 0.64008 0.95842
 O2021 O 0.43293 0.51902 0.90757
 O2022 O 0.41082 0.51932 0.88605
 C2023 C 0.42620 0.52548 0.89241
 C2024 C 0.43613 0.54062 0.88238
 C2025 C 0.42909 0.54770 0.86545
 H2026 H 0.41674 0.54150 0.85925
 O2027 O 0.56809 0.48093 0.90735
 O2028 O 0.59027 0.48046 0.88601
 C2029 C 0.57494 0.47422 0.89244
 C2030 C 0.56539 0.45854 0.88288
 C2031 C 0.57313 0.45065 0.86673
 H2032 H 0.58558 0.45676 0.86067
 O2033 O 0.51783 0.40723 0.93304
 O2034 O 0.51739 0.38514 0.91162
 C2035 C 0.52396 0.39184 0.92668
 C2036 C 0.53936 0.38207 0.93655
 C2037 C 0.54740 0.36579 0.92901
 H2038 H 0.54188 0.35994 0.91621
 O2039 O 0.48366 0.59295 0.93111
 O2040 O 0.48377 0.61467 0.90918
 C2041 C 0.47744 0.60824 0.92446
 C2042 C 0.46233 0.61837 0.93433
 C2043 C 0.45528 0.63525 0.92710
 H2044 H 0.46126 0.64114 0.91450
 O2045 O 0.40988 0.56971 0.98215
 O2046 O 0.38825 0.59174 0.98181
 C2047 C 0.39466 0.57634 0.97574
 C2048 C 0.38457 0.56635 0.96073
 C2049 C 0.36753 0.57338 0.95388
 H2050 H 0.36152 0.58588 0.95995
 O2051 O 0.59175 0.43180 0.98320
 O2052 O 0.61324 0.40962 0.98330
 C2053 C 0.60681 0.42490 0.97681
 C2054 C 0.61667 0.43433 0.96125
 C2055 C 0.63306 0.42646 0.95389
 H2056 H 0.63901 0.41406 0.96029
 O2057 O 0.48328 0.56699 0.90599
 O2058 O 0.48333 0.58863 0.88399
 C2059 C 0.47677 0.57359 0.89084
 C2060 C 0.46098 0.56404 0.88151
 C2061 C 0.45374 0.57089 0.86457
 H2062 H 0.46015 0.58292 0.85797
 O2063 O 0.51855 0.43239 0.90701
 O2064 O 0.51810 0.41038 0.88552
 C2065 C 0.52494 0.42542 0.89201
 C2066 C 0.54095 0.43463 0.88252
 C2067 C 0.54896 0.42691 0.86630
 H2068 H 0.54301 0.41442 0.86019
 O2069 O 0.59325 0.48100 0.93337
 O2070 O 0.61547 0.48053 0.91207
 C2071 C 0.60844 0.47427 0.92712
 C2072 C 0.61759 0.45848 0.93703
 C2073 C 0.63398 0.45034 0.92986
 H2074 H 0.64034 0.45607 0.91738
 O2075 O 0.40806 0.51940 0.93376
 O2076 O 0.38590 0.51974 0.91229
 C2077 C 0.39290 0.52608 0.92732
 C2078 C 0.38367 0.54182 0.93706
 C2079 C 0.36669 0.54912 0.93035
 H2080 H 0.35981 0.54264 0.91854
 O2081 O 0.43573 0.59508 0.98161
 O2082 O 0.41411 0.61711 0.98122
 C2083 C 0.42916 0.61017 0.97484
 C2084 C 0.43873 0.61935 0.95895
 C2085 C 0.43180 0.63617 0.95142
 H2086 H 0.41990 0.64299 0.95783
 O2087 O 0.56591 0.40649 0.98342
 O2088 O 0.58747 0.38439 0.98351
 C2089 C 0.57242 0.39127 0.97701
 C2090 C 0.56296 0.38185 0.96126
 C2091 C 0.57075 0.36560 0.95356
 H2092 H 0.58298 0.35930 0.95996
 O2093 O 0.56842 0.51746 0.90672
 O2094 O 0.59059 0.51701 0.88537
 C2095 C 0.57538 0.52368 0.89163
 C2096 C 0.56607 0.53936 0.88170
 C2097 C 0.57405 0.54702 0.86551
 H2098 H 0.58648 0.54070 0.85962
 O2099 O 0.43280 0.48263 0.90796
 O2100 O 0.41074 0.48292 0.88638
 C2101 C 0.42601 0.47639 0.89282
 C2102 C 0.43569 0.46105 0.88292
 C2103 C 0.42858 0.45414 0.86602
 H2104 H 0.41621 0.46045 0.85989
 O2105 O 0.51998 0.59231 0.93127
 O2106 O 0.52016 0.61407 0.90939
 C2107 C 0.52646 0.60745 0.92465
 C2108 C 0.54183 0.61709 0.93455
 C2109 C 0.54965 0.63353 0.92718
 H2110 H 0.54408 0.63954 0.91442
 O2111 O 0.48138 0.40836 0.93323
 O2112 O 0.48078 0.38624 0.91184
 C2113 C 0.47457 0.39324 0.92693
 C2114 C 0.45895 0.38399 0.93697
 C2115 C 0.45132 0.36722 0.93019
 H2116 H 0.45731 0.36064 0.91797
 O2117 O 0.59333 0.56707 0.98208
 O2118 O 0.61520 0.58877 0.98172
 C2119 C 0.60845 0.57361 0.97547
 C2120 C 0.61794 0.56399 0.95984
 C2121 C 0.63415 0.57174 0.95204
 H2122 H 0.64030 0.58407 0.95829
 O2123 O 0.40662 0.43454 0.98376
 O2124 O 0.38486 0.41274 0.98398
 C2125 C 0.39147 0.42784 0.97736
 C2126 C 0.38188 0.43738 0.96160
 C2127 C 0.36514 0.43021 0.95422
 H2128 H 0.35865 0.41815 0.96069
 Cu2129 Cu 0.50000 0.42259 0.92220
 Cu2130 Cu 0.49932 0.39609 0.89649
 Cu2131 Cu 0.50169 0.57758 0.92062
 Cu2132 Cu 0.50181 0.60366 0.89428
 Cu2133 Cu 0.42245 0.50092 0.92290
 Cu2134 Cu 0.39589 0.50130 0.89707
 Cu2135 Cu 0.57864 0.49932 0.92220
 Cu2136 Cu 0.60526 0.49874 0.89659
 C2137 C 0.45146 0.45243 0.89094
 H2138 H 0.45683 0.45751 0.90413
 C2139 C 0.43680 0.43858 0.85738
 C2140 C 0.54999 0.54771 0.88921
 H2141 H 0.54399 0.54209 0.90191
 C2142 C 0.56636 0.56305 0.85703
 C2143 C 0.39014 0.45300 0.95301
 H2144 H 0.40322 0.45838 0.95840
 C2145 C 0.35676 0.43839 0.93840
 C2146 C 0.61016 0.54793 0.95170
 H2147 H 0.59746 0.54207 0.95747
 C2148 C 0.64233 0.56405 0.93602
 C2149 C 0.45093 0.39235 0.95285
 H2150 H 0.45648 0.40546 0.95798
 C2151 C 0.43588 0.35889 0.93897
 C2152 C 0.54961 0.60917 0.95081
 H2153 H 0.54390 0.59630 0.95639
 C2154 C 0.56526 0.64180 0.93569
 C2155 C 0.45218 0.54877 0.89020
 H2156 H 0.45750 0.54359 0.90342
 C2157 C 0.43778 0.56285 0.85647
 C2158 C 0.54921 0.45053 0.89056
 H2159 H 0.54338 0.45637 0.90322
 C2160 C 0.56518 0.43476 0.85842
 C2161 C 0.54715 0.38989 0.95279
 H2162 H 0.54131 0.40265 0.95846
 C2163 C 0.56324 0.35762 0.93735
 C2164 C 0.45411 0.61064 0.95039
 H2165 H 0.45931 0.59748 0.95588
 C2166 C 0.43998 0.64419 0.93549
 C2167 C 0.39243 0.55043 0.95236
 H2168 H 0.40572 0.54512 0.95738
 C2169 C 0.35857 0.56493 0.93865
 C2170 C 0.60912 0.45044 0.95284
 H2171 H 0.59628 0.45638 0.95823
 C2172 C 0.64170 0.43424 0.93812
 O2173 O 0.51906 0.43402 1.09549
 O2174 O 0.51890 0.41241 1.11752
 C2175 C 0.52561 0.42735 1.11061
 C2176 C 0.54168 0.43673 1.11973
 C2177 C 0.54978 0.42930 1.13609
 H2178 H 0.54383 0.41696 1.14255
 O2179 O 0.48338 0.56933 1.09389
 O2180 O 0.48396 0.59094 1.11580
 C2181 C 0.47720 0.57595 1.10913
 C2182 C 0.46155 0.56648 1.11884
 C2183 C 0.45456 0.57364 1.13569
 H2184 H 0.46105 0.58581 1.14191
 O2185 O 0.40833 0.52078 1.06800
 O2186 O 0.38644 0.52151 1.08962
 C2187 C 0.39328 0.52764 1.07443
 C2188 C 0.38410 0.54339 1.06450
 C2189 C 0.36759 0.55140 1.07152
 H2190 H 0.36112 0.54562 1.08392
 O2191 O 0.59471 0.48149 1.06764
 O2192 O 0.61672 0.48138 1.08925
 C2193 C 0.60981 0.47484 1.07427
 C2194 C 0.61889 0.45882 1.06484
 C2195 C 0.63526 0.45061 1.07215
 H2196 H 0.64184 0.45649 1.08444
 O2197 O 0.56618 0.40656 1.02003
 O2198 O 0.58765 0.38438 1.01996
 C2199 C 0.57267 0.39130 1.02650
 C2200 C 0.56312 0.38186 1.04225
 C2201 C 0.56996 0.36482 1.04930
 H2202 H 0.58191 0.35824 1.04275
 O2203 O 0.43563 0.59566 1.01829
 O2204 O 0.41396 0.61766 1.01785
 C2205 C 0.42896 0.61088 1.02459
 C2206 C 0.43821 0.62029 1.04052
 C2207 C 0.43020 0.63632 1.04850
 H2208 H 0.41790 0.64255 1.04218
 O2209 O 0.43351 0.48430 1.09421
 O2210 O 0.41166 0.48489 1.11587
 C2211 C 0.42681 0.47818 1.10944
 C2212 C 0.43635 0.46270 1.11944
 C2213 C 0.42895 0.45574 1.13619
 H2214 H 0.41656 0.46214 1.14210
 O2215 O 0.56919 0.51844 1.09245
 O2216 O 0.59116 0.51843 1.11412
 C2217 C 0.57594 0.52491 1.10750
 C2218 C 0.56641 0.54054 1.11712
 C2219 C 0.57406 0.54786 1.13358
 H2220 H 0.58637 0.54143 1.13970
 O2221 O 0.48217 0.40911 1.06995
 O2222 O 0.48186 0.38736 1.09185
 C2223 C 0.47560 0.39400 1.07657
 C2224 C 0.46019 0.38437 1.06666
 C2225 C 0.45322 0.36732 1.07345
 H2226 H 0.45947 0.36094 1.08572
 O2227 O 0.52006 0.59459 1.06829
 O2228 O 0.52057 0.61635 1.09005
 C2229 C 0.52679 0.60964 1.07486
 C2230 C 0.54245 0.61898 1.06506
 C2231 C 0.55064 0.63528 1.07235
 H2232 H 0.54506 0.64149 1.08496
 O2233 O 0.40679 0.43465 1.02036
 O2234 O 0.38504 0.41284 1.02061
 C2235 C 0.39168 0.42803 1.02695
 C2236 C 0.38215 0.43781 1.04254
 C2237 C 0.36545 0.43076 1.05015
 H2238 H 0.35899 0.41852 1.04404
 O2239 O 0.59385 0.56741 1.01855
 O2240 O 0.61574 0.58909 1.01804
 C2241 C 0.60915 0.57400 1.02468
 C2242 C 0.61906 0.56444 1.04015
 C2243 C 0.63543 0.57219 1.04766
 H2244 H 0.64137 0.58463 1.04140
 O2245 O 0.51992 0.56848 1.09335
 O2246 O 0.52057 0.59014 1.11520
 C2247 C 0.52671 0.57491 1.10841
 C2248 C 0.54237 0.56493 1.11771
 C2249 C 0.55029 0.57203 1.13420
 H2250 H 0.54453 0.58451 1.14055
 O2251 O 0.48240 0.43444 1.09569
 O2252 O 0.48205 0.41286 1.11773
 C2253 C 0.47577 0.42804 1.11085
 C2254 C 0.46016 0.43805 1.12015
 C2255 C 0.45237 0.43117 1.13684
 H2256 H 0.45828 0.41886 1.14346
 O2257 O 0.59523 0.51808 1.06744
 O2258 O 0.61724 0.51805 1.08905
 C2259 C 0.61046 0.52450 1.07395
 C2260 C 0.61988 0.54018 1.06423
 C2261 C 0.63630 0.54814 1.07157
 H2262 H 0.64265 0.54229 1.08403
 O2263 O 0.40740 0.48417 1.06906
 O2264 O 0.38549 0.48485 1.09066
 C2265 C 0.39211 0.47803 1.07571
 C2266 C 0.38232 0.46236 1.06629
 C2267 C 0.36558 0.45516 1.07361
 H2268 H 0.35948 0.46149 1.08591
 O2269 O 0.56845 0.59337 1.01863
 O2270 O 0.59042 0.61497 1.01810
 C2271 C 0.57533 0.60852 1.02483
 C2272 C 0.56615 0.61836 1.04053
 C2273 C 0.57411 0.63464 1.04801
 H2274 H 0.58640 0.64064 1.04154
 O2275 O 0.43266 0.40919 1.02034
 O2276 O 0.41096 0.38733 1.02057
 C2277 C 0.42615 0.39402 1.02690
 C2278 C 0.43600 0.38439 1.04243
 C2279 C 0.42918 0.36739 1.04955
 H2280 H 0.41714 0.36085 1.04313
 O2281 O 0.56930 0.48200 1.09332
 O2282 O 0.59130 0.48200 1.11495
 C2283 C 0.57601 0.47568 1.10853
 C2284 C 0.56632 0.46037 1.11854
 C2285 C 0.57412 0.45281 1.13489
 H2286 H 0.58666 0.45894 1.14074
 O2287 O 0.43335 0.52082 1.09422
 O2288 O 0.41149 0.52142 1.11589
 C2289 C 0.42678 0.52754 1.10927
 C2290 C 0.43676 0.54297 1.11885
 C2291 C 0.42990 0.55044 1.13566
 H2292 H 0.41762 0.54440 1.14211
 O2293 O 0.48361 0.59495 1.06829
 O2294 O 0.48395 0.61664 1.09011
 C2295 C 0.47735 0.61016 1.07496
 C2296 C 0.46179 0.61994 1.06530
 C2297 C 0.45355 0.63598 1.07310
 H2298 H 0.45900 0.64166 1.08602
 O2299 O 0.51853 0.40797 1.07048
 O2300 O 0.51832 0.38626 1.09242
 C2301 C 0.52473 0.39266 1.07716
 C2302 C 0.53987 0.38257 1.06723
 C2303 C 0.54701 0.36555 1.07417
 H2304 H 0.54094 0.35929 1.08654
 O2305 O 0.59219 0.43175 1.01962
 O2306 O 0.61361 0.40950 1.01958
 C2307 C 0.60734 0.42484 1.02591
 C2308 C 0.61746 0.43433 1.04118
 C2309 C 0.63376 0.42633 1.04866
 H2310 H 0.63948 0.41372 1.04254
 O2311 O 0.41010 0.57009 1.01850
 O2312 O 0.38846 0.59212 1.01807
 C2313 C 0.39494 0.57693 1.02472
 C2314 C 0.38505 0.56752 1.04025
 C2315 C 0.36856 0.57528 1.04747
 H2316 H 0.36257 0.58765 1.04102
 Cu2317 Cu 0.50058 0.42359 1.08077
 Cu2318 Cu 0.50022 0.39760 1.10713
 Cu2319 Cu 0.50169 0.57968 1.07877
 Cu2320 Cu 0.50231 0.60568 1.10500
 Cu2321 Cu 0.42179 0.42409 1.00205
 Cu2322 Cu 0.39575 0.39787 1.00232
 Cu2323 Cu 0.57680 0.42136 1.00159
 Cu2324 Cu 0.60262 0.39473 1.00159
 Cu2325 Cu 0.42508 0.58048 1.00015
 Cu2326 Cu 0.39907 0.60691 0.99967
 Cu2327 Cu 0.57864 0.57801 1.00040
 Cu2328 Cu 0.60498 0.60401 0.99984
 Cu2329 Cu 0.42281 0.50247 1.07919
 Cu2330 Cu 0.39656 0.50321 1.10516
 Cu2331 Cu 0.57996 0.49999 1.07797
 Cu2332 Cu 0.60631 0.49998 1.10402
 C2333 C 0.55000 0.45236 1.11117
 H2334 H 0.54411 0.45795 1.09836
 C2335 C 0.56612 0.43718 1.14365
 C2336 C 0.45268 0.55101 1.11065
 H2337 H 0.45785 0.54558 1.09753
 C2338 C 0.43872 0.56578 1.14418
 C2339 C 0.39263 0.55146 1.04874
 H2340 H 0.40555 0.54560 1.04345
 C2341 C 0.35984 0.56744 1.06316
 C2342 C 0.61023 0.45066 1.04923
 H2343 H 0.59744 0.45666 1.04371
 C2344 C 0.64265 0.43424 1.06421
 C2345 C 0.54794 0.39050 1.05118
 H2346 H 0.54277 0.40377 1.04594
 C2347 C 0.56205 0.35656 1.06525
 C2348 C 0.45412 0.61233 1.04891
 H2349 H 0.46014 0.59975 1.04303
 C2350 C 0.43762 0.64415 1.06489
 C2351 C 0.45210 0.45392 1.11166
 H2352 H 0.45772 0.45907 1.09859
 C2353 C 0.43677 0.43997 1.14493
 C2354 C 0.55045 0.54906 1.10934
 H2355 H 0.54469 0.54370 1.09643
 C2356 C 0.56624 0.56366 1.14208
 C2357 C 0.45162 0.39269 1.05100
 H2358 H 0.45674 0.40597 1.04584
 C2359 C 0.43770 0.35880 1.06505
 C2360 C 0.55022 0.61075 1.04904
 H2361 H 0.54423 0.59800 1.04353
 C2362 C 0.56658 0.64312 1.06399
 C2363 C 0.39036 0.45369 1.05065
 H2364 H 0.40339 0.45900 1.04510
 C2365 C 0.35705 0.43934 1.06570
 C2366 C 0.61150 0.54834 1.04841
 H2367 H 0.59865 0.54253 1.04289
 C2368 C 0.64403 0.56428 1.06345
 C2369 C 1.10692 1.13845 1.25720
 C2370 C 1.09768 1.13094 1.24176
 C2371 C 1.10463 1.11495 1.23282
 C2372 C 1.12101 1.10648 1.23982
 C2373 C 1.13030 1.11404 1.25525
 C2374 C 1.12332 1.13008 1.26416
 C2375 C 1.09403 1.10726 1.21674
 C2376 C 1.10163 1.09599 1.20387
 C2377 C 1.09119 1.08829 1.18771
 C2378 C 1.10144 1.08153 1.17246
 C2379 C 1.09236 1.07368 1.15711
 C2380 C 1.07277 1.07227 1.15669
 C2381 C 1.06244 1.07905 1.17189
 C2382 C 1.07153 1.08689 1.18732
 H2383 H 1.10120 1.15090 1.26360
 H2384 H 1.08505 1.13770 1.23673
 H2385 H 1.12653 1.09377 1.23379
 H2386 H 1.14271 1.10704 1.26041
 H2387 H 1.07969 1.11183 1.21514
 H2388 H 1.11641 1.09282 1.20459
 H2389 H 1.11656 1.08236 1.17240
 H2390 H 1.10069 1.06881 1.14548
 H2391 H 1.04734 1.07790 1.17204
 H2392 H 1.06310 1.09137 1.19899
 C2393 C 1.14169 0.61406 0.75385
 C2394 C 1.13436 0.60517 0.73817
 C2395 C 1.11653 0.60977 0.73142
 C2396 C 1.10627 0.62388 0.74056
 C2397 C 1.11362 0.63279 0.75635
 C2398 C 1.13138 0.62788 0.76326
 C2399 C 1.10965 0.59983 0.71460
 C2400 C 1.09164 0.59913 0.70935
 C2401 C 1.08499 0.58876 0.69266
 C2402 C 1.06586 0.58466 0.69115
 C2403 C 1.05884 0.57547 0.67544
 C2404 C 1.07083 0.57014 0.66088
 C2405 C 1.08998 0.57408 0.66237
 C2406 C 1.09699 0.58342 0.67800
 H2407 H 1.15555 0.61005 0.75843
 H2408 H 1.14270 0.59457 0.73129
 H2409 H 1.09271 0.62832 0.73551
 H2410 H 1.10532 0.64344 0.76315
 H2411 H 1.11994 0.59193 0.70687
 H2412 H 1.08111 0.60571 0.71795
 H2413 H 1.05626 0.58866 0.70213
 H2414 H 1.04400 0.57259 0.67462
 H2415 H 1.09945 0.57053 0.65114
 H2416 H 1.11170 0.58682 0.67814
 C2417 C 0.60745 1.13501 0.76213
 C2418 C 0.59812 1.12708 0.74702
 C2419 C 0.60604 1.11223 0.73711
 C2420 C 0.62354 1.10518 0.74289
 C2421 C 0.63296 1.11313 0.75810
 C2422 C 0.62508 1.12825 0.76797
 C2423 C 0.59527 1.10446 0.72120
 C2424 C 0.60288 1.09448 0.70734
 C2425 C 0.59209 1.08763 0.69100
 C2426 C 0.60195 1.08265 0.67484
 C2427 C 0.59255 1.07576 0.65923
 C2428 C 0.57302 1.07359 0.65942
 C2429 C 0.56305 1.07872 0.67546
 C2430 C 0.57248 1.08553 0.69117
 H2431 H 0.60055 1.14649 0.76906
 H2432 H 0.58463 1.13272 0.74297
 H2433 H 0.62991 1.09337 0.73596
 H2434 H 0.64636 1.10730 0.76207
 H2435 H 0.58064 1.10825 0.72043
 H2436 H 0.61782 1.09203 0.70729
 H2437 H 0.61702 1.08409 0.67429
 H2438 H 0.60057 1.07207 0.64696
 H2439 H 0.54803 1.07689 0.67604
 H2440 H 0.56433 1.08863 0.70348
 C2441 C 0.60809 0.63800 1.25895
 C2442 C 0.59873 0.62978 1.24398
 C2443 C 0.60598 0.61380 1.23533
 C2444 C 0.62267 0.60590 1.24224
 C2445 C 0.63207 0.61414 1.25722
 C2446 C 0.62493 0.63033 1.26574
 C2447 C 0.59553 0.60564 1.21947
 C2448 C 0.60355 0.59488 1.20645
 C2449 C 0.59338 0.58723 1.19015
 C2450 C 0.60381 0.58155 1.17460
 C2451 C 0.59496 0.57404 1.15899
 C2452 C 0.57544 0.57192 1.15862
 C2453 C 0.56493 0.57755 1.17414
 C2454 C 0.57380 0.58502 1.18984
 H2455 H 0.60197 0.65033 1.26516
 H2456 H 0.58580 0.63602 1.23906
 H2457 H 0.62841 0.59320 1.23639
 H2458 H 0.64490 0.60773 1.26208
 H2459 H 0.58101 0.60964 1.21801
 H2460 H 0.61845 0.59232 1.20704
 H2461 H 0.61888 0.58305 1.17448
 H2462 H 0.60338 0.57001 1.14710
 H2463 H 0.54989 0.57580 1.17428
 H2464 H 0.56528 0.58866 1.20174
 C2465 C 0.86235 0.89208 1.25957
 C2466 C 0.87007 0.90139 1.24430
 C2467 C 0.88596 0.89436 1.23535
 C2468 C 0.89422 0.87782 1.24224
 C2469 C 0.88652 0.86846 1.25763
 C2470 C 0.87039 0.87541 1.26655
 C2471 C 0.89354 0.90501 1.21923
 C2472 C 0.90421 0.89737 1.20589
 C2473 C 0.91101 0.90784 1.18929
 C2474 C 0.91657 0.89761 1.17356
 C2475 C 0.92353 0.90669 1.15778
 C2476 C 0.92528 0.92627 1.15736
 C2477 C 0.91955 0.93661 1.17298
 C2478 C 0.91259 0.92750 1.18885
 H2479 H 0.85004 0.89824 1.26575
 H2480 H 0.86347 0.91414 1.23937
 H2481 H 0.90680 0.87220 1.23605
 H2482 H 0.89333 0.85582 1.26245
 H2483 H 0.88906 0.91941 1.21781
 H2484 H 0.90733 0.88256 1.20647
 H2485 H 0.91551 0.88250 1.17348
 H2486 H 0.92761 0.89835 1.14585
 H2487 H 0.92100 0.95168 1.17312
 H2488 H 0.90897 0.93593 1.20083
 C2489 C 0.86345 0.39149 0.75861
 C2490 C 0.87151 0.40059 0.74338
 C2491 C 0.88758 0.39341 0.73484
 C2492 C 0.89571 0.37701 0.74217
 C2493 C 0.88765 0.36784 0.75746
 C2494 C 0.87132 0.37490 0.76595
 C2495 C 0.89558 0.40382 0.71878
 C2496 C 0.90684 0.39608 0.70599
 C2497 C 0.91420 0.40638 0.68954
 C2498 C 0.92035 0.39602 0.67412
 C2499 C 0.92768 0.40499 0.65843
 C2500 C 0.92917 0.42458 0.65782
 C2501 C 0.92305 0.43502 0.67324
 C2502 C 0.91574 0.42603 0.68900
 H2503 H 0.85099 0.39768 0.76446
 H2504 H 0.86503 0.41328 0.73815
 H2505 H 0.90845 0.37131 0.73636
 H2506 H 0.89439 0.35527 0.76257
 H2507 H 0.89103 0.41815 0.71697
 H2508 H 0.91006 0.38132 0.70688
 H2509 H 0.91939 0.38090 0.67416
 H2510 H 0.93204 0.39657 0.64667
 H2511 H 0.92431 0.45011 0.67326
 H2512 H 0.91174 0.43453 0.70080
 C2513 C 0.36352 0.89198 0.76099
 C2514 C 0.37160 0.90133 0.74593
 C2515 C 0.38702 0.89371 0.73660
 C2516 C 0.39453 0.87661 0.74299
 C2517 C 0.38643 0.86721 0.75809
 C2518 C 0.37075 0.87473 0.76723
 C2519 C 0.39497 0.90425 0.72063
 C2520 C 0.40544 0.89638 0.70727
 C2521 C 0.41283 0.90673 0.69090
 C2522 C 0.41860 0.89642 0.67530
 C2523 C 0.42595 0.90542 0.65965
 C2524 C 0.42779 0.92497 0.65928
 C2525 C 0.42199 0.93537 0.67482
 C2526 C 0.41471 0.92636 0.69055
 H2527 H 0.35164 0.89842 0.76772
 H2528 H 0.36565 0.91456 0.74144
 H2529 H 0.40679 0.87052 0.73661
 H2530 H 0.39246 0.85404 0.76252
 H2531 H 0.39101 0.91881 0.71940
 H2532 H 0.40799 0.88146 0.70767
 H2533 H 0.41737 0.88132 0.67518
 H2534 H 0.43012 0.89707 0.64776
 H2535 H 0.42352 0.95044 0.67496
 H2536 H 0.41101 0.93484 0.70246
 C2537 C 0.38528 0.36062 1.25465
 C2538 C 0.39389 0.36824 1.23897
 C2539 C 0.38793 0.38536 1.23152
 C2540 C 0.37272 0.39459 1.23993
 C2541 C 0.36399 0.38692 1.25571
 C2542 C 0.37022 0.36984 1.26343
 C2543 C 0.39778 0.39259 1.21479
 C2544 C 0.39753 0.41052 1.20927
 C2545 C 0.40818 0.41751 1.19288
 C2546 C 0.41203 0.43671 1.19159
 C2547 C 0.42170 0.44395 1.17626
 C2548 C 0.42773 0.43212 1.16184
 C2549 C 0.42397 0.41291 1.16309
 C2550 C 0.41418 0.40567 1.17835
 H2551 H 0.39064 0.34740 1.25967
 H2552 H 0.40544 0.36072 1.23269
 H2553 H 0.36731 0.40757 1.23430
 H2554 H 0.35241 0.39451 1.26177
 H2555 H 0.40654 0.38271 1.20745
 H2556 H 0.39009 0.42077 1.21751
 H2557 H 0.40751 0.44617 1.20249
 H2558 H 0.42443 0.45883 1.17564
 H2559 H 0.42805 0.40356 1.15194
 H2560 H 0.41097 0.39091 1.17834
 C2561 C 0.88937 1.14129 0.74085
 C2562 C 0.89816 1.13434 0.75688
 C2563 C 0.89200 1.11775 0.76534
 C2564 C 0.87644 1.10848 0.75765
 C2565 C 0.86760 1.11546 0.74161
 C2566 C 0.87404 1.13189 0.73293
 C2567 C 0.90188 1.11097 0.78234
 C2568 C 0.90166 1.09309 0.78810
 C2569 C 0.91181 1.08612 0.80489
 C2570 C 0.91499 1.06681 0.80664
 C2571 C 0.92391 1.05947 0.82243
 C2572 C 0.92981 1.07128 0.83693
 C2573 C 0.92677 1.09063 0.83518
 C2574 C 0.91778 1.09799 0.81941
 H2575 H 0.89458 1.15413 0.73481
 H2576 H 0.90993 1.14191 0.76263
 H2577 H 0.87083 1.09599 0.76407
 H2578 H 0.85580 1.10788 0.73599
 H2579 H 0.91043 1.12102 0.78967
 H2580 H 0.89442 1.08277 0.77978
 H2581 H 0.91050 1.05733 0.79575
 H2582 H 0.92615 1.04451 0.82333
 H2583 H 0.93081 1.10002 0.84631
 H2584 H 0.91512 1.11287 0.81899
 C2585 C 0.85933 0.60994 0.24474
 C2586 C 0.86695 0.60066 0.26017
 C2587 C 0.88372 0.60677 0.26827
 C2588 C 0.89262 0.62262 0.26074
 C2589 C 0.88499 0.63191 0.24529
 C2590 C 0.86825 0.62570 0.23709
 C2591 C 0.89092 0.59674 0.28496
 C2592 C 0.90876 0.59755 0.29075
 C2593 C 0.91580 0.58787 0.30772
 C2594 C 0.93514 0.58510 0.30972
 C2595 C 0.94246 0.57671 0.32581
 C2596 C 0.93055 0.57093 0.34026
 C2597 C 0.91120 0.57364 0.33830
 C2598 C 0.90388 0.58212 0.32228
 H2599 H 0.84646 0.60466 0.23886
 H2600 H 0.85970 0.58860 0.26578
 H2601 H 0.90521 0.62822 0.26693
 H2602 H 0.89215 0.64413 0.24002
 H2603 H 0.88114 0.58782 0.29224
 H2604 H 0.91890 0.60510 0.28248
 H2605 H 0.94465 0.58950 0.29880
 H2606 H 0.95743 0.57473 0.32696
 H2607 H 0.90175 0.56971 0.34943
 H2608 H 0.88898 0.58458 0.32171
 C2609 C 0.39118 1.13723 0.23826
 C2610 C 0.40048 1.12936 0.25355
 C2611 C 0.39295 1.11398 0.26307
 C2612 C 0.37596 1.10636 0.25668
 C2613 C 0.36662 1.11425 0.24134
 C2614 C 0.37408 1.12984 0.23196
 C2615 C 0.40355 1.10615 0.27919
 C2616 C 0.39581 1.09559 0.29261
 C2617 C 0.40621 1.08817 0.30905
 C2618 C 0.39590 1.08195 0.32451
 C2619 C 0.40488 1.07445 0.34016
 C2620 C 0.42447 1.07285 0.34072
 C2621 C 0.43488 1.07914 0.32534
 C2622 C 0.42587 1.08661 0.30960
 H2623 H 0.39759 1.14906 0.23139
 H2624 H 0.41362 1.13541 0.25802
 H2625 H 0.36991 1.09415 0.26322
 H2626 H 0.35357 1.10807 0.23689
 H2627 H 0.41806 1.11018 0.28040
 H2628 H 0.38093 1.09290 0.29218
 H2629 H 0.38077 1.08293 0.32451
 H2630 H 0.39648 1.06995 0.35190
 H2631 H 0.44997 1.07784 0.32531
 H2632 H 0.43439 1.09069 0.29784
 C2633 C 0.35851 0.60842 0.74273
 C2634 C 0.36583 0.59931 0.75843
 C2635 C 0.38206 0.60593 0.76719
 C2636 C 0.39062 0.62219 0.76017
 C2637 C 0.38330 0.63131 0.74449
 C2638 C 0.36719 0.62452 0.73550
 C2639 C 0.38922 0.59600 0.78396
 C2640 C 0.40710 0.59690 0.78962
 C2641 C 0.41438 0.58740 0.80659
 C2642 C 0.43374 0.58455 0.80825
 C2643 C 0.44133 0.57634 0.82430
 C2644 C 0.42969 0.57087 0.83910
 C2645 C 0.41031 0.57369 0.83747
 C2646 C 0.40272 0.58194 0.82145
 H2647 H 0.34608 0.60275 0.73628
 H2648 H 0.35883 0.58695 0.76368
 H2649 H 0.40273 0.62819 0.76693
 H2650 H 0.39025 0.64381 0.73963
 H2651 H 0.37950 0.58708 0.79133
 H2652 H 0.41715 0.60440 0.78117
 H2653 H 0.44306 0.58872 0.79709
 H2654 H 0.45631 0.57423 0.82513
 H2655 H 0.40105 0.57000 0.84884
 H2656 H 0.38782 0.58447 0.82107
 C2657 C 1.14150 0.88802 0.74334
 C2658 C 1.13422 0.89674 0.75918
 C2659 C 1.11739 0.89065 0.76713
 C2660 C 1.10814 0.87529 0.75905
 C2661 C 1.11543 0.86656 0.74318
 C2662 C 1.13218 0.87284 0.73506
 C2663 C 1.11042 0.90031 0.78410
 C2664 C 1.09258 0.89967 0.78989
 C2665 C 1.08559 0.90935 0.80686
 C2666 C 1.06625 0.91210 0.80879
 C2667 C 1.05892 0.92057 0.82476
 C2668 C 1.07080 0.92648 0.83922
 C2669 C 1.09016 0.92382 0.83733
 C2670 C 1.09750 0.91525 0.82140
 H2671 H 1.15452 0.89322 0.73773
 H2672 H 1.14177 0.90838 0.76521
 H2673 H 1.09546 0.86972 0.76505
 H2674 H 1.10786 0.85487 0.73734
 H2675 H 1.12034 0.90893 0.79153
 H2676 H 1.08233 0.89237 0.78154
 H2677 H 1.05673 0.90763 0.79790
 H2678 H 1.04394 0.92254 0.82579
 H2679 H 1.09962 0.92787 0.84843
 H2680 H 1.11242 0.91289 0.82087
 C2681 C 1.11653 0.35874 0.24681
 C2682 C 1.10793 0.36609 0.26265
 C2683 C 1.11211 0.38419 0.26885
 C2684 C 1.12558 0.39467 0.25900
 C2685 C 1.13423 0.38727 0.24307
 C2686 C 1.12966 0.36926 0.23668
 C2687 C 1.10234 0.39113 0.28579
 C2688 C 1.10124 0.40919 0.29076
 C2689 C 1.09093 0.41595 0.30751
 C2690 C 1.08678 0.43511 0.30885
 C2691 C 1.07760 0.44226 0.32451
 C2692 C 1.07231 0.43039 0.33924
 C2693 C 1.07629 0.41121 0.33792
 C2694 C 1.08562 0.40406 0.32232
 H2695 H 1.11283 0.34470 0.24265
 H2696 H 1.09783 0.35758 0.27003
 H2697 H 1.12968 0.40846 0.26357
 H2698 H 1.14434 0.39574 0.23569
 H2699 H 1.09493 0.38076 0.29389
 H2700 H 1.10744 0.41973 0.28187
 H2701 H 1.09072 0.44463 0.29775
 H2702 H 1.07465 0.45711 0.32514
 H2703 H 1.07275 0.40180 0.34925
 H2704 H 1.08899 0.38932 0.32232
 C2705 C 0.64191 0.88913 0.24612
 C2706 C 0.63459 0.89818 0.26171
 C2707 C 0.61751 0.89255 0.26944
 C2708 C 0.60803 0.87732 0.26140
 C2709 C 0.61536 0.86825 0.24575
 C2710 C 0.63236 0.87410 0.23784
 C2711 C 0.61051 0.90260 0.28611
 C2712 C 0.59256 0.90256 0.29151
 C2713 C 0.58561 0.91265 0.30821
 C2714 C 0.56635 0.91615 0.30969
 C2715 C 0.55904 0.92501 0.32544
 C2716 C 0.57086 0.93054 0.34009
 C2717 C 0.59014 0.92719 0.33862
 C2718 C 0.59745 0.91822 0.32292
 H2719 H 0.65512 0.89400 0.24068
 H2720 H 0.64230 0.90974 0.26772
 H2721 H 0.59513 0.87210 0.26728
 H2722 H 0.60764 0.85665 0.23992
 H2723 H 0.62054 0.91105 0.29360
 H2724 H 0.58224 0.89543 0.28307
 H2725 H 0.55689 0.91192 0.29866
 H2726 H 0.54411 0.92748 0.32620
 H2727 H 0.59950 0.93094 0.34991
 H2728 H 0.61227 0.91525 0.32274
 C2729 C 0.60708 0.36332 0.73865
 C2730 C 0.59779 0.37117 0.75389
 C2731 C 0.60574 0.38597 0.76393
 C2732 C 0.62315 0.39306 0.75807
 C2733 C 0.63247 0.38519 0.74277
 C2734 C 0.62459 0.37014 0.73291
 C2735 C 0.59515 0.39374 0.78002
 C2736 C 0.60300 0.40368 0.79384
 C2737 C 0.59260 0.41096 0.81029
 C2738 C 0.60293 0.41673 0.82593
 C2739 C 0.59399 0.42415 0.84158
 C2740 C 0.57443 0.42608 0.84199
 C2741 C 0.56400 0.42018 0.82647
 C2742 C 0.57296 0.41281 0.81072
 H2743 H 0.60034 0.35194 0.73138
 H2744 H 0.58434 0.36553 0.75792
 H2745 H 0.62956 0.40483 0.76501
 H2746 H 0.64586 0.39091 0.73875
 H2747 H 0.58051 0.39013 0.78086
 H2748 H 0.61795 0.40596 0.79370
 H2749 H 0.61803 0.41552 0.82605
 H2750 H 0.60242 0.42834 0.85342
 H2751 H 0.54893 0.42175 0.82630
 H2752 H 0.56441 0.40906 0.79885
 C2753 C 1.25182 1.14080 1.11553
 C2754 C 1.23599 1.13326 1.10706
 C2755 C 1.23000 1.11510 1.11138
 C2756 C 1.24006 1.10475 1.12487
 C2757 C 1.25601 1.11233 1.13338
 C2758 C 1.26218 1.13040 1.12868
 C2759 C 1.21306 1.10797 1.10169
 C2760 C 1.20802 1.08990 1.10105
 C2761 C 1.19128 1.08299 1.09078
 C2762 C 1.18984 1.06375 1.08717
 C2763 C 1.17423 1.05650 1.07793
 C2764 C 1.15968 1.06836 1.07203
 C2765 C 1.16107 1.08760 1.07553
 C2766 C 1.17659 1.09485 1.08493
 H2767 H 1.25581 1.15487 1.11172
 H2768 H 1.22843 1.14167 1.09693
 H2769 H 1.23569 1.09091 1.12908
 H2770 H 1.26355 1.10394 1.14350
 H2771 H 1.20500 1.11819 1.09396
 H2772 H 1.21682 1.07946 1.10762
 H2773 H 1.20084 1.05425 1.09155
 H2774 H 1.17352 1.04159 1.07538
 H2775 H 1.14984 1.09700 1.07151
 H2776 H 1.17664 1.10965 1.08789
 C2777 C 1.25837 0.64138 0.60861
 C2778 C 1.24288 0.63383 0.59942
 C2779 C 1.23390 0.61787 0.60644
 C2780 C 1.24058 0.60977 0.62310
 C2781 C 1.25605 0.61733 0.63231
 C2782 C 1.26517 0.63323 0.62520
 C2783 C 1.21724 0.61062 0.59646
 C2784 C 1.21121 0.59292 0.59802
 C2785 C 1.19430 0.58570 0.58842
 C2786 C 1.19241 0.56631 0.58610
 C2787 C 1.17640 0.55882 0.57779
 C2788 C 1.16185 0.57059 0.57170
 C2789 C 1.16370 0.59001 0.57402
 C2790 C 1.17969 0.59750 0.58236
 H2791 H 1.26492 0.65362 0.60265
 H2792 H 1.23792 0.64046 0.58671
 H2793 H 1.23368 0.59787 0.62937
 H2794 H 1.26064 0.61075 0.64515
 H2795 H 1.21022 0.62013 0.58697
 H2796 H 1.21929 0.58297 0.60613
 H2797 H 1.20337 0.55689 0.59075
 H2798 H 1.17541 0.54381 0.57609
 H2799 H 1.15252 0.59939 0.56986
 H2800 H 1.18024 0.61246 0.58447
 C2801 C 0.75622 1.14110 0.61131
 C2802 C 0.74082 1.13349 0.60207
 C2803 C 0.73259 1.11686 0.60838
 C2804 C 0.74011 1.10801 0.62433
 C2805 C 0.75557 1.11565 0.63360
 C2806 C 0.76377 1.13234 0.62724
 C2807 C 0.71583 1.10982 0.59834
 C2808 C 0.70955 1.09218 0.59949
 C2809 C 0.69263 1.08541 0.58950
 C2810 C 0.69043 1.06610 0.58682
 C2811 C 0.67440 1.05903 0.57817
 C2812 C 0.66012 1.07113 0.57207
 C2813 C 0.66232 1.09047 0.57462
 C2814 C 0.67833 1.09755 0.58333
 H2815 H 0.76218 1.15386 0.60582
 H2816 H 0.73532 1.14066 0.58989
 H2817 H 0.73390 1.09546 0.63003
 H2818 H 0.76085 1.10861 0.64593
 H2819 H 0.70889 1.11958 0.58905
 H2820 H 0.71740 1.08196 0.60747
 H2821 H 0.70115 1.05641 0.59149
 H2822 H 0.67315 1.04406 0.57630
 H2823 H 0.65137 1.10011 0.57043
 H2824 H 0.67908 1.11246 0.58565
 C2825 C 0.76264 0.60731 1.13593
 C2826 C 0.74792 0.59756 1.12763
 C2827 C 0.73801 0.60529 1.11256
 C2828 C 0.74357 0.62284 1.10552
 C2829 C 0.75833 0.63261 1.11383
 C2830 C 0.76792 0.62505 1.12926
 C2831 C 0.72224 0.59449 1.10450
 C2832 C 0.70822 0.60237 1.09477
 C2833 C 0.69196 0.59191 1.08725
 C2834 C 0.67611 0.60214 1.08170
 C2835 C 0.66055 0.59313 1.07418
 C2836 C 0.66046 0.57362 1.07194
 C2837 C 0.67621 0.56328 1.07755
 C2838 C 0.69188 0.57232 1.08500
 H2839 H 0.76985 0.60084 1.14757
 H2840 H 0.74413 0.58397 1.13318
 H2841 H 0.73675 0.62905 1.09351
 H2842 H 0.76204 0.64616 1.10823
 H2843 H 0.72176 0.57973 1.10778
 H2844 H 0.70802 0.61740 1.09293
 H2845 H 0.67575 0.61721 1.08322
 H2846 H 0.64849 0.60145 1.07021
 H2847 H 0.67657 0.54825 1.07575
 H2848 H 0.70393 0.56388 1.08856
 C2849 C 1.25573 0.89003 0.86132
 C2850 C 1.24014 0.89895 0.86890
 C2851 C 1.23122 0.89162 0.88471
 C2852 C 1.23802 0.87490 0.89262
 C2853 C 1.25363 0.86595 0.88502
 C2854 C 1.26272 0.87342 0.86930
 C2855 C 1.21451 0.90142 0.89198
 C2856 C 1.20841 0.89966 0.90959
 C2857 C 1.19154 0.90935 0.91668
 C2858 C 1.18969 0.91205 0.93599
 C2859 C 1.17373 0.92063 0.94327
 C2860 C 1.15927 0.92661 0.93136
 C2861 C 1.16108 0.92388 0.91204
 C2862 C 1.17698 0.91525 0.90476
 H2863 H 1.26223 0.89628 0.84921
 H2864 H 1.23507 0.91171 0.86242
 H2865 H 1.23116 0.86843 0.90442
 H2866 H 1.25838 0.85307 0.89144
 H2867 H 1.20755 0.91106 0.88258
 H2868 H 1.21640 0.89144 0.91951
 H2869 H 1.20063 0.90751 0.94547
 H2870 H 1.17270 0.92262 0.95822
 H2871 H 1.14992 0.92792 0.90260
 H2872 H 1.17749 0.91279 0.88988
 C2873 C 1.26008 0.36196 0.38955
 C2874 C 1.24479 0.36983 0.39873
 C2875 C 1.23631 0.38619 0.39201
 C2876 C 1.24368 0.39474 0.37590
 C2877 C 1.25905 0.38689 0.36666
 C2878 C 1.26755 0.37034 0.37333
 C2879 C 1.22027 0.39406 0.40256
 C2880 C 1.20749 0.40562 0.39506
 C2881 C 1.19116 0.41303 0.40551
 C2882 C 1.17564 0.41946 0.39533
 C2883 C 1.16008 0.42689 0.40445
 C2884 C 1.15972 0.42826 0.42403
 C2885 C 1.17522 0.42180 0.43429
 C2886 C 1.19083 0.41435 0.42515
 H2887 H 1.26593 0.34930 0.39541
 H2888 H 1.23949 0.36300 0.41117
 H2889 H 1.23792 0.40768 0.37054
 H2890 H 1.26424 0.39400 0.35439
 H2891 H 1.21848 0.38921 0.41677
 H2892 H 1.20833 0.40912 0.38038
 H2893 H 1.17550 0.41866 0.38022
 H2894 H 1.14825 0.43149 0.39615
 H2895 H 1.17545 0.42293 0.44937
 H2896 H 1.20271 0.41011 0.43352
 C2897 C 0.75424 0.88943 0.35887
 C2898 C 0.73853 0.89829 0.36627
 C2899 C 0.73087 0.89238 0.38328
 C2900 C 0.73902 0.87699 0.39256
 C2901 C 0.75479 0.86812 0.38516
 C2902 C 0.76267 0.87430 0.36827
 C2903 C 0.71415 0.90229 0.39046
 C2904 C 0.70888 0.90201 0.40842
 C2905 C 0.69225 0.91213 0.41558
 C2906 C 0.69096 0.91551 0.43484
 C2907 C 0.67530 0.92446 0.44230
 C2908 C 0.66056 0.93023 0.43064
 C2909 C 0.66182 0.92695 0.41136
 C2910 C 0.67742 0.91789 0.40390
 H2911 H 0.75964 0.89450 0.34571
 H2912 H 0.73239 0.90994 0.35870
 H2913 H 0.73318 0.87153 0.40537
 H2914 H 0.76074 0.85643 0.39275
 H2915 H 0.70654 0.91087 0.38057
 H2916 H 0.71747 0.89478 0.41860
 H2917 H 0.70210 0.91115 0.44418
 H2918 H 0.67467 0.92686 0.45722
 H2919 H 0.65045 0.93086 0.40212
 H2920 H 0.67745 0.91502 0.38910
 C2921 C 0.75716 0.39172 0.86132
 C2922 C 0.74194 0.40087 0.86940
 C2923 C 0.73413 0.39430 0.88610
 C2924 C 0.74216 0.37855 0.89483
 C2925 C 0.75741 0.36939 0.88676
 C2926 C 0.76509 0.37582 0.86986
 C2927 C 0.71812 0.40462 0.89424
 C2928 C 0.70580 0.39679 0.90597
 C2929 C 0.68954 0.40692 0.91384
 C2930 C 0.67428 0.39647 0.92028
 C2931 C 0.65876 0.40534 0.92807
 C2932 C 0.65822 0.42492 0.92976
 C2933 C 0.67353 0.43543 0.92344
 C2934 C 0.68909 0.42654 0.91564
 H2935 H 0.76258 0.39718 0.84833
 H2936 H 0.73614 0.41307 0.86247
 H2937 H 0.73698 0.37341 0.90806
 H2938 H 0.76320 0.35736 0.89391
 H2939 H 0.71594 0.41884 0.88951
 H2940 H 0.70698 0.38206 0.90929
 H2941 H 0.67429 0.38136 0.91914
 H2942 H 0.64706 0.39688 0.93257
 H2943 H 0.67360 0.45050 0.92485
 H2944 H 0.70082 0.43507 0.91143
 C2945 C 0.73967 0.89254 1.13557
 C2946 C 0.75473 0.90188 1.12747
 C2947 C 0.76423 0.89418 1.11222
 C2948 C 0.75802 0.87698 1.10494
 C2949 C 0.74290 0.86759 1.11308
 C2950 C 0.73357 0.87523 1.12855
 C2951 C 0.78009 0.90486 1.10418
 C2952 C 0.79348 0.89721 1.09357
 C2953 C 0.80968 0.90779 1.08607
 C2954 C 0.82540 0.89769 1.08011
 C2955 C 0.84085 0.90690 1.07258
 C2956 C 0.84091 0.92647 1.07071
 C2957 C 0.82527 0.93667 1.07675
 C2958 C 0.80974 0.92744 1.08423
 H2959 H 0.73280 0.89910 1.14728
 H2960 H 0.75904 0.91518 1.13326
 H2961 H 0.76456 0.87078 1.09284
 H2962 H 0.73859 0.85436 1.10721
 H2963 H 0.78118 0.91940 1.10813
 H2964 H 0.79325 0.88232 1.09099
 H2965 H 0.82577 0.88258 1.08131
 H2966 H 0.85282 0.89869 1.06825
 H2967 H 0.82485 0.95174 1.07523
 H2968 H 0.79775 0.93578 1.08809
 C2969 C 0.73773 0.36577 0.60785
 C2970 C 0.75282 0.37373 0.59848
 C2971 C 0.76335 0.38801 0.60672
 C2972 C 0.75810 0.39451 0.62454
 C2973 C 0.74290 0.38650 0.63397
 C2974 C 0.73263 0.37191 0.62579
 C2975 C 0.77934 0.39575 0.59599
 C2976 C 0.79354 0.40527 0.60368
 C2977 C 0.80996 0.41221 0.59300
 C2978 C 0.82600 0.41742 0.60302
 C2979 C 0.84168 0.42443 0.59379
 C2980 C 0.84171 0.42648 0.57427
 C2981 C 0.82580 0.42111 0.56413
 C2982 C 0.81002 0.41418 0.57338
 H2983 H 0.73006 0.35483 0.60084
 H2984 H 0.75637 0.36857 0.58472
 H2985 H 0.76546 0.40588 0.63120
 H2986 H 0.73933 0.39166 0.64769
 H2987 H 0.77982 0.39237 0.58129
 H2988 H 0.79377 0.40735 0.61863
 H2989 H 0.82642 0.41609 0.61809
 H2990 H 0.85384 0.42827 0.60196
 H2991 H 0.82538 0.42280 0.54910
 H2992 H 0.79785 0.41088 0.56506
 C2993 C 0.24628 0.85794 0.61300
 C2994 C 0.26206 0.86514 0.60417
 C2995 C 0.26914 0.88271 0.60909
 C2996 C 0.26031 0.89279 0.62348
 C2997 C 0.24445 0.88557 0.63233
 C2998 C 0.23715 0.86811 0.62709
 C2999 C 0.28595 0.88960 0.59917
 C3000 C 0.29098 0.90764 0.59844
 C3001 C 0.30768 0.91448 0.58824
 C3002 C 0.30901 0.93368 0.58430
 C3003 C 0.32475 0.94091 0.57533
 C3004 C 0.33950 0.92907 0.57007
 C3005 C 0.33816 0.90985 0.57381
 C3006 C 0.32251 0.90262 0.58292
 H3007 H 0.24137 0.84433 0.60870
 H3008 H 0.26871 0.85696 0.59332
 H3009 H 0.26567 0.90610 0.62817
 H3010 H 0.23791 0.89376 0.64319
 H3011 H 0.29381 0.87933 0.59139
 H3012 H 0.28219 0.91808 0.60492
 H3013 H 0.29789 0.94316 0.58829
 H3014 H 0.32546 0.95580 0.57259
 H3015 H 0.34955 0.90050 0.57028
 H3016 H 0.32248 0.88786 0.58619
 C3017 C 0.24433 0.35964 1.11281
 C3018 C 0.26026 0.36711 1.10435
 C3019 C 0.26767 0.38429 1.11020
 C3020 C 0.25889 0.39369 1.12507
 C3021 C 0.24291 0.38620 1.13356
 C3022 C 0.23536 0.36909 1.12750
 C3023 C 0.28478 0.39141 1.10075
 C3024 C 0.29053 0.40929 1.10133
 C3025 C 0.30753 0.41639 1.09162
 C3026 C 0.30944 0.43577 1.08897
 C3027 C 0.32534 0.44319 1.08036
 C3028 C 0.33980 0.43139 1.07420
 C3029 C 0.33794 0.41199 1.07682
 C3030 C 0.32207 0.40456 1.08550
 H3031 H 0.23920 0.34636 1.10779
 H3032 H 0.26679 0.35942 1.09309
 H3033 H 0.26439 0.40668 1.13045
 H3034 H 0.23651 0.39388 1.14486
 H3035 H 0.29237 0.38150 1.09227
 H3036 H 0.28209 0.41953 1.10857
 H3037 H 0.29857 0.44525 1.09358
 H3038 H 0.32630 0.45818 1.07845
 H3039 H 0.34901 0.40257 1.07259
 H3040 H 0.32158 0.38962 1.08774
 C3041 C 0.74302 1.14068 0.88767
 C3042 C 0.75871 1.13308 0.89652
 C3043 C 0.76709 1.11666 0.88985
 C3044 C 0.75948 1.10807 0.87388
 C3045 C 0.74373 1.11571 0.86499
 C3046 C 0.73530 1.13214 0.87174
 C3047 C 0.78408 1.10957 0.89956
 C3048 C 0.79045 1.09194 0.89823
 C3049 C 0.80749 1.08506 0.90804
 C3050 C 0.80974 1.06572 0.91072
 C3051 C 0.82580 1.05857 0.91936
 C3052 C 0.84006 1.07061 0.92545
 C3053 C 0.83783 1.08997 0.92283
 C3054 C 0.82180 1.09713 0.91414
 H3055 H 0.73705 1.15331 0.89341
 H3056 H 0.76432 1.14008 0.90869
 H3057 H 0.76580 1.09571 0.86793
 H3058 H 0.73836 1.10878 0.85270
 H3059 H 0.79108 1.11921 0.90884
 H3060 H 0.78256 1.08181 0.89028
 H3061 H 0.79903 1.05609 0.90610
 H3062 H 0.82708 1.04359 0.92128
 H3063 H 0.84876 1.09956 0.92699
 H3064 H 0.82101 1.11205 0.91179
 C3065 C 0.73935 0.60831 0.36271
 C3066 C 0.75476 0.59899 0.37034
 C3067 C 0.76439 0.60642 0.38568
 C3068 C 0.75801 0.62333 0.39348
 C3069 C 0.74257 0.63268 0.38583
 C3070 C 0.73304 0.62532 0.37032
 C3071 C 0.78054 0.59580 0.39337
 C3072 C 0.79400 0.60354 0.40386
 C3073 C 0.81032 0.59309 0.41145
 C3074 C 0.82585 0.60335 0.41761
 C3075 C 0.84136 0.59431 0.42536
 C3076 C 0.84169 0.57475 0.42724
 C3077 C 0.82625 0.56439 0.42100
 C3078 C 0.81065 0.57345 0.41330
 H3079 H 0.73240 0.60202 0.35089
 H3080 H 0.75922 0.58591 0.36416
 H3081 H 0.76461 0.62927 0.40569
 H3082 H 0.73814 0.64565 0.39218
 H3083 H 0.78169 0.58126 0.38938
 H3084 H 0.79363 0.61844 0.40647
 H3085 H 0.82599 0.61846 0.41642
 H3086 H 0.85317 0.60265 0.42980
 H3087 H 0.82606 0.54932 0.42251
 H3088 H 0.79881 0.56500 0.40927
 C3089 C 0.23971 1.10839 0.35948
 C3090 C 0.25474 1.09880 0.36755
 C3091 C 0.26351 1.10561 0.38368
 C3092 C 0.25660 1.12214 0.39183
 C3093 C 0.24153 1.13175 0.38375
 C3094 C 0.23290 1.12504 0.36742
 C3095 C 0.27940 1.09481 0.39173
 C3096 C 0.29240 1.10232 0.40296
 C3097 C 0.30864 1.09180 0.41067
 C3098 C 0.32394 1.10202 0.41745
 C3099 C 0.33940 1.09291 0.42522
 C3100 C 0.33993 1.07329 0.42653
 C3101 C 0.32469 1.06299 0.41972
 C3102 C 0.30914 1.07212 0.41196
 H3103 H 0.23351 1.10264 0.34697
 H3104 H 0.25964 1.08603 0.36105
 H3105 H 0.26251 1.12758 0.40461
 H3106 H 0.23663 1.14438 0.39044
 H3107 H 0.28086 1.08044 0.38730
 H3108 H 0.29177 1.11712 0.40603
 H3109 H 0.32395 1.11716 0.41670
 H3110 H 0.35105 1.10124 0.43010
 H3111 H 0.32461 1.04788 0.42079
 H3112 H 0.29747 1.06369 0.40744
 C3113 C 0.24460 0.60980 0.86035
 C3114 C 0.26037 0.60103 0.86788
 C3115 C 0.26927 0.60835 0.88370
 C3116 C 0.26230 0.62493 0.89164
 C3117 C 0.24651 0.63372 0.88410
 C3118 C 0.23741 0.62623 0.86839
 C3119 C 0.28611 0.59867 0.89099
 C3120 C 0.29221 0.60034 0.90862
 C3121 C 0.30907 0.59063 0.91585
 C3122 C 0.31103 0.58816 0.93521
 C3123 C 0.32696 0.57955 0.94263
 C3124 C 0.34129 0.57328 0.93081
 C3125 C 0.33939 0.57577 0.91145
 C3126 C 0.32352 0.58445 0.90403
 H3127 H 0.23812 0.60356 0.84823
 H3128 H 0.26558 0.58841 0.86136
 H3129 H 0.26915 0.63142 0.90342
 H3130 H 0.24160 0.64645 0.89057
 H3131 H 0.29308 0.58908 0.88162
 H3132 H 0.28419 0.60851 0.91849
 H3133 H 0.30018 0.59289 0.94463
 H3134 H 0.32808 0.57776 0.95761
 H3135 H 0.35045 0.57149 0.90206
 H3136 H 0.32294 0.58668 0.88910
 C3137 C 1.10761 1.25900 1.13623
 C3138 C 1.09834 1.24377 1.12834
 C3139 C 1.10582 1.23443 1.11287
 C3140 C 1.12274 1.24093 1.10520
 C3141 C 1.13204 1.25620 1.11311
 C3142 C 1.12462 1.26543 1.12877
 C3143 C 1.09525 1.21842 1.10496
 C3144 C 1.10303 1.20510 1.09431
 C3145 C 1.09260 1.18884 1.08672
 C3146 C 1.10284 1.17320 1.08078
 C3147 C 1.09381 1.15771 1.07314
 C3148 C 1.07425 1.15751 1.07113
 C3149 C 1.06392 1.17310 1.07711
 C3150 C 1.07298 1.18867 1.08472
 H3151 H 1.10126 1.26571 1.14814
 H3152 H 1.08527 1.23920 1.13444
 H3153 H 1.12873 1.23454 1.09292
 H3154 H 1.14501 1.26074 1.10687
 H3155 H 1.08074 1.21719 1.10897
 H3156 H 1.11791 1.20549 1.09168
 H3157 H 1.11794 1.17293 1.08210
 H3158 H 1.10214 1.14579 1.06890
 H3159 H 1.04887 1.17343 1.07548
 H3160 H 1.06456 1.20061 1.08857
 C3161 C 1.14120 0.75320 0.61603
 C3162 C 1.13391 0.73735 0.60743
 C3163 C 1.11594 0.73095 0.61180
 C3164 C 1.10552 0.74057 0.62544
 C3165 C 1.11285 0.75653 0.63407
 C3166 C 1.13073 0.76312 0.62933
 C3167 C 1.10908 0.71401 0.60204
 C3168 C 1.09108 0.70883 0.60123
 C3169 C 1.08447 0.69204 0.59097
 C3170 C 1.06534 0.69056 0.58679
 C3171 C 1.05836 0.67482 0.57760
 C3172 C 1.07040 0.66022 0.57235
 C3173 C 1.08954 0.66168 0.57639
 C3174 C 1.09650 0.67732 0.58573
 H3175 H 1.15516 0.75751 0.61222
 H3176 H 1.14237 0.73011 0.59719
 H3177 H 1.09183 0.73582 0.62968
 H3178 H 1.10443 0.76375 0.64432
 H3179 H 1.11941 0.70609 0.59440
 H3180 H 1.08051 0.71755 0.60760
 H3181 H 1.05572 0.70159 0.59071
 H3182 H 1.04353 0.67403 0.57464
 H3183 H 1.09903 0.65040 0.57287
 H3184 H 1.11121 0.67742 0.58919
 C3185 C 0.64078 1.25301 0.61327
 C3186 C 0.63313 1.23747 0.60436
 C3187 C 0.61579 1.23026 0.60990
 C3188 C 0.60640 1.23872 0.62495
 C3189 C 0.61405 1.25433 0.63387
 C3190 C 0.63129 1.26175 0.62807
 C3191 C 0.60843 1.21364 0.59999
 C3192 C 0.59039 1.20851 0.60015
 C3193 C 0.58314 1.19185 0.59018
 C3194 C 0.56384 1.19061 0.58677
 C3195 C 0.55629 1.17492 0.57795
 C3196 C 0.56791 1.16013 0.57235
 C3197 C 0.58722 1.16133 0.57569
 C3198 C 0.59476 1.17694 0.58461
 H3199 H 0.65417 1.25805 0.60849
 H3200 H 0.64079 1.23110 0.59298
 H3201 H 0.59331 1.23326 0.63012
 H3202 H 0.60636 1.26053 0.64528
 H3203 H 0.61829 1.20592 0.59155
 H3204 H 0.58024 1.21718 0.60723
 H3205 H 0.55454 1.20180 0.59099
 H3206 H 0.54135 1.17435 0.57550
 H3207 H 0.59643 1.14992 0.57190
 H3208 H 0.60959 1.17691 0.58752
 C3209 C 0.60892 0.76070 1.13843
 C3210 C 0.59976 0.74541 1.13049
 C3211 C 0.60718 0.73633 1.11483
 C3212 C 0.62390 0.74314 1.10703
 C3213 C 0.63309 0.75846 1.11499
 C3214 C 0.62574 0.76744 1.13082
 C3215 C 0.59672 0.72027 1.10685
 C3216 C 0.60448 0.70728 1.09579
 C3217 C 0.59416 0.69100 1.08808
 C3218 C 0.60452 0.67565 1.08157
 C3219 C 0.59556 0.66013 1.07388
 C3220 C 0.57597 0.65961 1.07239
 C3221 C 0.56554 0.67493 1.07886
 C3222 C 0.57451 0.69052 1.08652
 H3223 H 0.60263 0.76721 1.15049
 H3224 H 0.58682 0.74060 1.13670
 H3225 H 0.62985 0.73697 1.09462
 H3226 H 0.64593 0.76322 1.10863
 H3227 H 0.58231 0.71875 1.11109
 H3228 H 0.61929 0.70793 1.09287
 H3229 H 0.61964 0.67562 1.08252
 H3230 H 0.60398 0.64843 1.06926
 H3231 H 0.55044 0.67502 1.07764
 H3232 H 0.56598 0.70224 1.09079
 C3233 C 0.85890 1.25625 0.88563
 C3234 C 0.86633 1.24033 0.89425
 C3235 C 0.88348 1.23281 0.88846
 C3236 C 0.89291 1.24141 0.87349
 C3237 C 0.88547 1.25739 0.86485
 C3238 C 0.86839 1.26507 0.87086
 C3239 C 0.89059 1.21578 0.89809
 C3240 C 0.90852 1.21016 0.89772
 C3241 C 0.91558 1.19321 0.90758
 C3242 C 0.93490 1.19147 0.91069
 C3243 C 0.94228 1.17559 0.91947
 C3244 C 0.93049 1.16103 0.92533
 C3245 C 0.91115 1.16273 0.92226
 C3246 C 0.90377 1.17856 0.91338
 H3247 H 0.84564 1.26149 0.89061
 H3248 H 0.85863 1.23390 0.90558
 H3249 H 0.90586 1.23576 0.86814
 H3250 H 0.89317 1.26365 0.85347
 H3251 H 0.88065 1.20817 0.90654
 H3252 H 0.91877 1.21865 0.89057
 H3253 H 0.94435 1.20244 0.90629
 H3254 H 0.95724 1.17470 0.92172
 H3255 H 0.90177 1.15154 0.92625
 H3256 H 0.88889 1.17892 0.91073
 C3257 C 0.85753 0.75610 0.38619
 C3258 C 0.86477 0.74026 0.39509
 C3259 C 0.88229 0.73301 0.39013
 C3260 C 0.89230 0.74181 0.37563
 C3261 C 0.88504 0.75773 0.36670
 C3262 C 0.86759 0.76515 0.37194
 C3263 C 0.88916 0.71607 0.40012
 C3264 C 0.90713 0.71060 0.40058
 C3265 C 0.91395 0.69381 0.41092
 C3266 C 0.93320 0.69216 0.41450
 C3267 C 0.94043 0.67640 0.42361
 C3268 C 0.92856 0.66185 0.42936
 C3269 C 0.90929 0.66351 0.42596
 C3270 C 0.90205 0.67923 0.41674
 H3271 H 0.84395 0.76109 0.39053
 H3272 H 0.85662 0.73368 0.40602
 H3273 H 0.90558 0.73638 0.37091
 H3274 H 0.89316 0.76418 0.35572
 H3275 H 0.87893 0.70841 0.40817
 H3276 H 0.91758 0.71911 0.39376
 H3277 H 0.94273 0.70308 0.41015
 H3278 H 0.95535 0.67554 0.42611
 H3279 H 0.89987 0.65233 0.42988
 H3280 H 0.88722 0.67952 0.41381
 C3281 C 0.39192 1.25845 0.36196
 C3282 C 0.40127 1.24332 0.37006
 C3283 C 0.39426 1.23470 0.38618
 C3284 C 0.37783 1.24183 0.39431
 C3285 C 0.36845 1.25697 0.38619
 C3286 C 0.37535 1.26547 0.36988
 C3287 C 0.40470 1.21869 0.39425
 C3288 C 0.39677 1.20575 0.40523
 C3289 C 0.40696 1.18942 0.41298
 C3290 C 0.39654 1.17391 0.41890
 C3291 C 0.40542 1.15829 0.42657
 C3292 C 0.42495 1.15788 0.42862
 C3293 C 0.43545 1.17336 0.42274
 C3294 C 0.42655 1.18906 0.41510
 H3295 H 0.39784 1.26461 0.34951
 H3296 H 0.41399 1.23823 0.36363
 H3297 H 0.37229 1.23601 0.40711
 H3298 H 0.35585 1.26200 0.39282
 H3299 H 0.41913 1.21705 0.39006
 H3300 H 0.38191 1.20646 0.40795
 H3301 H 0.38145 1.17384 0.41749
 H3302 H 0.39700 1.14644 0.43077
 H3303 H 0.45050 1.17348 0.42442
 H3304 H 0.43507 1.20094 0.41129
 C3305 C 0.35975 0.75647 0.88870
 C3306 C 0.36741 0.74068 0.89735
 C3307 C 0.38421 0.73288 0.89097
 C3308 C 0.39305 0.74103 0.87540
 C3309 C 0.38539 0.75686 0.86674
 C3310 C 0.36866 0.76484 0.87331
 C3311 C 0.39158 0.71599 0.90061
 C3312 C 0.40943 0.71024 0.89957
 C3313 C 0.41672 0.69339 0.90936
 C3314 C 0.43612 0.69158 0.91187
 C3315 C 0.44368 0.67575 0.92058
 C3316 C 0.43197 0.66136 0.92697
 C3317 C 0.41257 0.66311 0.92448
 C3318 C 0.40501 0.67887 0.91567
 H3319 H 0.34680 0.76198 0.89417
 H3320 H 0.36018 0.73459 0.90916
 H3321 H 0.40569 0.73512 0.86961
 H3322 H 0.39263 0.76274 0.85486
 H3323 H 0.38195 0.70861 0.90959
 H3324 H 0.41944 0.71855 0.89190
 H3325 H 0.44548 0.70246 0.90707
 H3326 H 0.45869 0.67477 0.92237
 H3327 H 0.40326 0.65202 0.92888
 H3328 H 0.39006 0.67929 0.91346
 C3329 C 1.14217 0.74400 0.88627
 C3330 C 1.13474 0.75964 0.89522
 C3331 C 1.11702 0.76657 0.89036
 C3332 C 1.10702 0.75768 0.87594
 C3333 C 1.11446 0.74196 0.86697
 C3334 C 1.13209 0.73484 0.87212
 C3335 C 1.10993 0.78331 0.90035
 C3336 C 1.09186 0.78842 0.90082
 C3337 C 1.08480 0.80510 0.91100
 C3338 C 1.06551 0.80659 0.91429
 C3339 C 1.05807 0.82229 0.92321
 C3340 C 1.06979 0.83687 0.92908
 C3341 C 1.08910 0.83540 0.92594
 C3342 C 1.09654 0.81978 0.91689
 H3343 H 1.15590 0.73923 0.89049
 H3344 H 1.14288 0.76633 0.90608
 H3345 H 1.09359 0.76288 0.87128
 H3346 H 1.10632 0.73539 0.85608
 H3347 H 1.12008 0.79111 0.90835
 H3348 H 1.08152 0.77975 0.89405
 H3349 H 1.05611 0.79559 0.90987
 H3350 H 1.04312 0.82306 0.92550
 H3351 H 1.09840 0.84664 0.92997
 H3352 H 1.11139 0.81964 0.91417
 C3353 C 1.10544 0.23471 0.36853
 C3354 C 1.09658 0.25029 0.37621
 C3355 C 1.10620 0.26236 0.38823
 C3356 C 1.12499 0.25828 0.39267
 C3357 C 1.13391 0.24265 0.38493
 C3358 C 1.12426 0.23067 0.37273
 C3359 C 1.09583 0.27859 0.39606
 C3360 C 1.10402 0.29345 0.40403
 C3361 C 1.09370 0.30983 0.41167
 C3362 C 1.10407 0.32563 0.41693
 C3363 C 1.09526 0.34127 0.42458
 C3364 C 1.07580 0.34154 0.42716
 C3365 C 1.06531 0.32589 0.42179
 C3366 C 1.07413 0.31013 0.41426
 H3367 H 1.09739 0.22592 0.35930
 H3368 H 1.08208 0.25295 0.37264
 H3369 H 1.13286 0.26683 0.40229
 H3370 H 1.14833 0.23998 0.38864
 H3371 H 1.08083 0.27838 0.39438
 H3372 H 1.11911 0.29414 0.40455
 H3373 H 1.11911 0.32588 0.41515
 H3374 H 1.10368 0.35324 0.42840
 H3375 H 1.05031 0.32567 0.42383
 H3376 H 1.06548 0.29826 0.41087
 C3377 C 0.60830 0.74012 0.36624
 C3378 C 0.59893 0.75510 0.37443
 C3379 C 0.60707 0.76506 0.38916
 C3380 C 0.62473 0.75937 0.39588
 C3381 C 0.63415 0.74432 0.38764
 C3382 C 0.62609 0.73459 0.37263
 C3383 C 0.59642 0.78095 0.39714
 C3384 C 0.60424 0.79475 0.40705
 C3385 C 0.59369 0.81111 0.41423
 C3386 C 0.60379 0.82705 0.41950
 C3387 C 0.59462 0.84272 0.42661
 C3388 C 0.57510 0.84280 0.42868
 C3389 C 0.56489 0.82696 0.42334
 C3390 C 0.57407 0.81119 0.41633
 H3391 H 0.60138 0.73286 0.35497
 H3392 H 0.58527 0.75901 0.36911
 H3393 H 0.63127 0.76626 0.40761
 H3394 H 0.64777 0.74041 0.39301
 H3395 H 0.58173 0.78174 0.39360
 H3396 H 0.61922 0.79476 0.40923
 H3397 H 0.61886 0.82740 0.41807
 H3398 H 0.60282 0.85484 0.43045
 H3399 H 0.54985 0.82661 0.42507
 H3400 H 0.56573 0.79906 0.41301
 C3401 C 0.60505 0.23597 0.86976
 C3402 C 0.59546 0.25060 0.87834
 C3403 C 0.60483 0.26300 0.89020
 C3404 C 0.62401 0.26018 0.89372
 C3405 C 0.63363 0.24547 0.88515
 C3406 C 0.62428 0.23326 0.87296
 C3407 C 0.59397 0.27830 0.89891
 C3408 C 0.60162 0.29459 0.90407
 C3409 C 0.59106 0.31042 0.91241
 C3410 C 0.60130 0.32578 0.91900
 C3411 C 0.59225 0.34107 0.92701
 C3412 C 0.57269 0.34141 0.92861
 C3413 C 0.56234 0.32623 0.92183
 C3414 C 0.57138 0.31087 0.91382
 H3415 H 0.59722 0.22677 0.86071
 H3416 H 0.58066 0.25235 0.87554
 H3417 H 0.63159 0.26909 0.90328
 H3418 H 0.64839 0.24378 0.88805
 H3419 H 0.57913 0.27604 0.90031
 H3420 H 0.61645 0.29668 0.90194
 H3421 H 0.61641 0.32596 0.91798
 H3422 H 0.60058 0.35276 0.93180
 H3423 H 0.54724 0.32614 0.92294
 H3424 H 0.56274 0.29962 0.90875
 C3425 C 0.89280 0.73791 1.13575
 C3426 C 0.90192 0.75316 1.12767
 C3427 C 0.89375 0.76306 1.11281
 C3428 C 0.87633 0.75706 1.10589
 C3429 C 0.86717 0.74180 1.11400
 C3430 C 0.87523 0.73207 1.12911
 C3431 C 0.90408 0.77918 1.10477
 C3432 C 0.89595 0.79280 1.09467
 C3433 C 0.90610 0.80918 1.08691
 C3434 C 0.89560 0.82469 1.08089
 C3435 C 0.90437 0.84032 1.07316
 C3436 C 0.92391 0.84081 1.07123
 C3437 C 0.93449 0.82536 1.07724
 C3438 C 0.92571 0.80964 1.08488
 H3439 H 0.89963 0.73080 1.14723
 H3440 H 0.91541 0.75732 1.13316
 H3441 H 0.86978 0.76384 1.09404
 H3442 H 0.85378 0.73768 1.10833
 H3443 H 0.91876 0.78017 1.10823
 H3444 H 0.88097 0.79256 1.09258
 H3445 H 0.88051 0.82475 1.08221
 H3446 H 0.89587 0.85213 1.06886
 H3447 H 0.94955 0.82529 1.07567
 H3448 H 0.93437 0.79785 1.08877
 C3449 C 0.85731 0.24674 0.61270
 C3450 C 0.86486 0.26229 0.60362
 C3451 C 0.88263 0.26902 0.60844
 C3452 C 0.89260 0.26000 0.62288
 C3453 C 0.88506 0.24439 0.63193
 C3454 C 0.86735 0.23754 0.62692
 C3455 C 0.88985 0.28574 0.59847
 C3456 C 0.90797 0.29061 0.59805
 C3457 C 0.91517 0.30739 0.58814
 C3458 C 0.93443 0.30858 0.58456
 C3459 C 0.94197 0.32433 0.57579
 C3460 C 0.93037 0.33927 0.57038
 C3461 C 0.91110 0.33814 0.57390
 C3462 C 0.90357 0.32246 0.58279
 H3463 H 0.84367 0.24187 0.60837
 H3464 H 0.85679 0.26904 0.59268
 H3465 H 0.90604 0.26507 0.62754
 H3466 H 0.89306 0.23788 0.64303
 H3467 H 0.87976 0.29380 0.59056
 H3468 H 0.91825 0.28164 0.60465
 H3469 H 0.94372 0.29728 0.58862
 H3470 H 0.95687 0.32483 0.57321
 H3471 H 0.90191 0.34965 0.57025
 H3472 H 0.88878 0.32255 0.58580
 C3473 C 0.39277 0.74092 0.63986
 C3474 C 0.40233 0.75601 0.63197
 C3475 C 0.39562 0.76475 0.61572
 C3476 C 0.37930 0.75775 0.60723
 C3477 C 0.36974 0.74265 0.61513
 C3478 C 0.37631 0.73408 0.63158
 C3479 C 0.40623 0.78072 0.60784
 C3480 C 0.39844 0.79380 0.59681
 C3481 C 0.40872 0.81002 0.58899
 C3482 C 0.39832 0.82537 0.58247
 C3483 C 0.40722 0.84080 0.57454
 C3484 C 0.42677 0.84121 0.57281
 C3485 C 0.43726 0.82590 0.57936
 C3486 C 0.42835 0.81039 0.58727
 H3487 H 0.39830 0.73477 0.65253
 H3488 H 0.41494 0.76100 0.63870
 H3489 H 0.37401 0.76361 0.59432
 H3490 H 0.35732 0.73763 0.60814
 H3491 H 0.42066 0.78214 0.61215
 H3492 H 0.38358 0.79321 0.59398
 H3493 H 0.38321 0.82547 0.58356
 H3494 H 0.39878 0.85252 0.56986
 H3495 H 0.45234 0.82576 0.57796
 H3496 H 0.43688 0.79865 0.59158
 C3497 C 0.35787 0.24642 1.11117
 C3498 C 0.36536 0.26225 1.10255
 C3499 C 0.38257 0.26958 1.10839
 C3500 C 0.39200 0.26092 1.12338
 C3501 C 0.38451 0.24505 1.13200
 C3502 C 0.36738 0.23754 1.12596
 C3503 C 0.38975 0.28656 1.09887
 C3504 C 0.40771 0.29193 1.09937
 C3505 C 0.41483 0.30899 1.08993
 C3506 C 0.43415 0.31063 1.08692
 C3507 C 0.44158 0.32667 1.07862
 C3508 C 0.42981 0.34144 1.07312
 C3509 C 0.41048 0.33985 1.07607
 C3510 C 0.40305 0.32388 1.08450
 H3511 H 0.34457 0.24129 1.10619
 H3512 H 0.35768 0.26875 1.09120
 H3513 H 0.40498 0.26644 1.12878
 H3514 H 0.39224 0.23874 1.14339
 H3515 H 0.37983 0.29437 1.09050
 H3516 H 0.41793 0.28321 1.10638
 H3517 H 0.44356 0.29945 1.09106
 H3518 H 0.45653 0.32753 1.07644
 H3519 H 0.40115 0.35123 1.07234
 H3520 H 0.38818 0.32359 1.08712
 C3521 C 1.10907 1.14156 0.74260
 C3522 C 1.10015 1.13403 0.75828
 C3523 C 1.10714 1.11792 0.76709
 C3524 C 1.12358 1.10972 0.76016
 C3525 C 1.13251 1.11718 0.74451
 C3526 C 1.12539 1.13319 0.73536
 C3527 C 1.09738 1.11052 0.78381
 C3528 C 1.09888 1.09269 0.78960
 C3529 C 1.08953 1.08521 0.80652
 C3530 C 1.08731 1.06577 0.80830
 C3531 C 1.07908 1.05805 0.82423
 C3532 C 1.07294 1.06962 0.83881
 C3533 C 1.07527 1.08907 0.83712
 C3534 C 1.08354 1.09679 0.82122
 H3535 H 1.10302 1.15390 0.73626
 H3536 H 1.08764 1.14079 0.76348
 H3537 H 1.12989 1.09774 0.76696
 H3538 H 1.14511 1.11028 0.73983
 H3539 H 1.08808 1.11999 0.79103
 H3540 H 1.10676 1.08282 0.78131
 H3541 H 1.09193 1.05651 0.79728
 H3542 H 1.07738 1.04302 0.82510
 H3543 H 1.07109 1.09831 0.84833
 H3544 H 1.08559 1.11176 0.82079
 C3545 C 1.13557 0.60888 0.24056
 C3546 C 1.12736 0.59978 0.25570
 C3547 C 1.11151 0.60722 0.26439
 C3548 C 1.10377 0.62395 0.25736
 C3549 C 1.11197 0.63310 0.24211
 C3550 C 1.12807 0.62574 0.23345
 C3551 C 1.10345 0.59678 0.28040
 C3552 C 1.09248 0.60455 0.29341
 C3553 C 1.08536 0.59420 0.30993
 C3554 C 1.07969 0.60449 0.32558
 C3555 C 1.07274 0.59545 0.34141
 C3556 C 1.07116 0.57586 0.34192
 C3557 C 1.07683 0.56549 0.32630
 C3558 C 1.08374 0.57455 0.31041
 H3559 H 1.14781 0.60242 0.23457
 H3560 H 1.13356 0.58687 0.26074
 H3561 H 1.09123 0.62990 0.26333
 H3562 H 1.10554 0.64590 0.23717
 H3563 H 1.10784 0.58238 0.28205
 H3564 H 1.08944 0.61936 0.29268
 H3565 H 1.08074 0.61960 0.32562
 H3566 H 1.06869 0.60380 0.35333
 H3567 H 1.07548 0.55040 0.32622
 H3568 H 1.08737 0.56609 0.29846
 C3569 C 0.64090 1.11052 0.24452
 C3570 C 0.63331 1.10176 0.26019
 C3571 C 0.61705 1.10869 0.26857
 C3572 C 0.60869 1.12493 0.26116
 C3573 C 0.61629 1.13376 0.24547
 C3574 C 0.63250 1.12666 0.23680
 C3575 C 0.60976 1.09894 0.28533
 C3576 C 0.59196 1.10012 0.29105
 C3577 C 0.58477 1.09021 0.30777
 C3578 C 0.56547 1.08700 0.30921
 C3579 C 0.55804 1.07816 0.32495
 C3580 C 0.56977 1.07242 0.33966
 C3581 C 0.58908 1.07563 0.33827
 C3582 C 0.59651 1.08452 0.32256
 H3583 H 0.65340 1.10445 0.23862
 H3584 H 0.64016 1.08939 0.26573
 H3585 H 0.59649 1.13110 0.26760
 H3586 H 0.60934 1.14619 0.24029
 H3587 H 0.61934 1.08970 0.29259
 H3588 H 0.58194 1.10795 0.28278
 H3589 H 0.55610 1.09134 0.29809
 H3590 H 0.54310 1.07580 0.32563
 H3591 H 0.59839 1.07176 0.34959
 H3592 H 0.61136 1.08731 0.32237
 C3593 C 0.61000 0.63943 0.74071
 C3594 C 0.60045 0.63141 0.75574
 C3595 C 0.60766 0.61563 0.76499
 C3596 C 0.62455 0.60781 0.75861
 C3597 C 0.63411 0.61584 0.74360
 C3598 C 0.62699 0.63177 0.73443
 C3599 C 0.59690 0.60749 0.78077
 C3600 C 0.60463 0.59657 0.79399
 C3601 C 0.59418 0.58843 0.80997
 C3602 C 0.60442 0.58174 0.82534
 C3603 C 0.59539 0.57358 0.84057
 C3604 C 0.57583 0.57180 0.84078
 C3605 C 0.56550 0.57846 0.82542
 C3606 C 0.57455 0.58659 0.81011
 H3607 H 0.60392 0.65159 0.73403
 H3608 H 0.58738 0.63763 0.76021
 H3609 H 0.63033 0.59529 0.76487
 H3610 H 0.64702 0.60935 0.73915
 H3611 H 0.58235 0.61145 0.78186
 H3612 H 0.61954 0.59404 0.79373
 H3613 H 0.61952 0.58290 0.82562
 H3614 H 0.60372 0.56883 0.85231
 H3615 H 0.55043 0.57704 0.82510
 H3616 H 0.56611 0.59103 0.79836
 C3617 C 0.86361 0.89182 0.73817
 C3618 C 0.87161 0.90118 0.75327
 C3619 C 0.88684 0.89346 0.76294
 C3620 C 0.89419 0.87621 0.75691
 C3621 C 0.88617 0.86681 0.74176
 C3622 C 0.87073 0.87447 0.73222
 C3623 C 0.89481 0.90410 0.77885
 C3624 C 0.90504 0.89624 0.79250
 C3625 C 0.91256 0.90671 0.80874
 C3626 C 0.91811 0.89652 0.82459
 C3627 C 0.92569 0.90557 0.84008
 C3628 C 0.92801 0.92508 0.84008
 C3629 C 0.92239 0.93538 0.82431
 C3630 C 0.91485 0.92630 0.80873
 H3631 H 0.85186 0.89836 0.73121
 H3632 H 0.86576 0.91451 0.75748
 H3633 H 0.90630 0.87002 0.76358
 H3634 H 0.89216 0.85358 0.73757
 H3635 H 0.89112 0.91874 0.77973
 H3636 H 0.90732 0.88128 0.79243
 H3637 H 0.91655 0.88145 0.82501
 H3638 H 0.92967 0.89729 0.85215
 H3639 H 0.92426 0.95040 0.82386
 H3640 H 0.91130 0.93468 0.79665
 C3641 C 0.86392 0.39162 0.24165
 C3642 C 0.87188 0.40110 0.25667
 C3643 C 0.88784 0.39410 0.26563
 C3644 C 0.89598 0.37748 0.25896
 C3645 C 0.88804 0.36794 0.24385
 C3646 C 0.87183 0.37483 0.23494
 C3647 C 0.89564 0.40482 0.28153
 C3648 C 0.90651 0.39721 0.29481
 C3649 C 0.91363 0.40772 0.31119
 C3650 C 0.91957 0.39752 0.32688
 C3651 C 0.92677 0.40665 0.34250
 C3652 C 0.92831 0.42624 0.34276
 C3653 C 0.92227 0.43654 0.32715
 C3654 C 0.91511 0.42738 0.31144
 H3655 H 0.85155 0.39771 0.23543
 H3656 H 0.86539 0.41394 0.26142
 H3657 H 0.90865 0.37190 0.26510
 H3658 H 0.89478 0.35523 0.23922
 H3659 H 0.89121 0.41923 0.28282
 H3660 H 0.90956 0.38239 0.29437
 H3661 H 0.91862 0.38240 0.32708
 H3662 H 0.93111 0.39837 0.35444
 H3663 H 0.92358 0.45163 0.32691
 H3664 H 0.91124 0.43578 0.29946
 C3665 C 0.36047 0.89265 0.24084
 C3666 C 0.36825 0.90197 0.25612
 C3667 C 0.38472 0.89542 0.26456
 C3668 C 0.39350 0.87949 0.25712
 C3669 C 0.38575 0.87014 0.24185
 C3670 C 0.36906 0.87652 0.23343
 C3671 C 0.39253 0.90586 0.28067
 C3672 C 0.40400 0.89810 0.29338
 C3673 C 0.41176 0.90826 0.30968
 C3674 C 0.41856 0.89775 0.32483
 C3675 C 0.42639 0.90658 0.34034
 C3676 C 0.42774 0.92617 0.34103
 C3677 C 0.42098 0.93675 0.32588
 C3678 C 0.41315 0.92791 0.31031
 H3679 H 0.34770 0.89827 0.23497
 H3680 H 0.36128 0.91431 0.26146
 H3681 H 0.40658 0.87434 0.26276
 H3682 H 0.39309 0.85799 0.23669
 H3683 H 0.38782 0.92012 0.28252
 H3684 H 0.40728 0.88335 0.29242
 H3685 H 0.41773 0.88263 0.32472
 H3686 H 0.43123 0.89805 0.35191
 H3687 H 0.42210 0.95185 0.32592
 H3688 H 0.40862 0.93652 0.29872
 C3689 C 0.39015 0.35926 0.74534
 C3690 C 0.39891 0.36675 0.76106
 C3691 C 0.39240 0.38340 0.76908
 C3692 C 0.37660 0.39222 0.76126
 C3693 C 0.36785 0.38474 0.74550
 C3694 C 0.37454 0.36818 0.73730
 C3695 C 0.40214 0.39066 0.78583
 C3696 C 0.40115 0.40853 0.79143
 C3697 C 0.41090 0.41571 0.80823
 C3698 C 0.41381 0.43505 0.80983
 C3699 C 0.42244 0.44248 0.82566
 C3700 C 0.42835 0.43069 0.84024
 C3701 C 0.42546 0.41135 0.83871
 C3702 C 0.41673 0.40392 0.82294
 H3703 H 0.39568 0.34641 0.73965
 H3704 H 0.41092 0.35954 0.76692
 H3705 H 0.37071 0.40473 0.76738
 H3706 H 0.35581 0.39198 0.73985
 H3707 H 0.41109 0.38095 0.79325
 H3708 H 0.39356 0.41862 0.78305
 H3709 H 0.40936 0.44447 0.79879
 H3710 H 0.42455 0.45745 0.82650
 H3711 H 0.42946 0.40200 0.84996
 H3712 H 0.41419 0.38903 0.82266
 C3713 C 1.10599 0.85847 1.25866
 C3714 C 1.09644 0.86600 1.24331
 C3715 C 1.10276 0.88240 1.23461
 C3716 C 1.11866 0.89139 1.24187
 C3717 C 1.12820 0.88389 1.25721
 C3718 C 1.12204 0.86730 1.26581
 C3719 C 1.09214 0.89001 1.21843
 C3720 C 1.09986 0.90117 1.20548
 C3721 C 1.08960 0.90902 1.18920
 C3722 C 1.10003 0.91573 1.17404
 C3723 C 1.09116 0.92380 1.15861
 C3724 C 1.07159 0.92550 1.15803
 C3725 C 1.06107 0.91875 1.17315
 C3726 C 1.06997 0.91068 1.18865
 H3727 H 1.10070 0.84575 1.26487
 H3728 H 1.08413 0.85888 1.23813
 H3729 H 1.12363 0.90442 1.23603
 H3730 H 1.14033 0.89128 1.26234
 H3731 H 1.07781 0.88549 1.21682
 H3732 H 1.11466 0.90419 1.20628
 H3733 H 1.11515 0.91470 1.17410
 H3734 H 1.09964 0.92860 1.14705
 H3735 H 1.04599 0.92011 1.17318
 H3736 H 1.06141 0.90621 1.20025
 C3737 C 1.14215 0.39014 0.75701
 C3738 C 1.13479 0.39895 0.74116
 C3739 C 1.11824 0.39251 0.73287
 C3740 C 1.10936 0.37674 0.74059
 C3741 C 1.11672 0.36793 0.75645
 C3742 C 1.13319 0.37453 0.76492
 C3743 C 1.11116 0.40218 0.71587
 C3744 C 1.09338 0.40117 0.70990
 C3745 C 1.08633 0.41072 0.69282
 C3746 C 1.06697 0.41333 0.69074
 C3747 C 1.05964 0.42172 0.67464
 C3748 C 1.07152 0.42764 0.66021
 C3749 C 1.09089 0.42502 0.66224
 C3750 C 1.09824 0.41657 0.67829
 H3751 H 1.15490 0.39565 0.76295
 H3752 H 1.14204 0.41093 0.73540
 H3753 H 1.09693 0.37089 0.73430
 H3754 H 1.10945 0.35588 0.76195
 H3755 H 1.12094 0.41108 0.70856
 H3756 H 1.08322 0.39364 0.71817
 H3757 H 1.05746 0.40887 0.70162
 H3758 H 1.04465 0.42363 0.67350
 H3759 H 1.10036 0.42906 0.65115
 H3760 H 1.11316 0.41426 0.67894
 C3761 C 0.60786 0.86402 0.76131
 C3762 C 0.59804 0.87217 0.74651
 C3763 C 0.60540 0.88757 0.73688
 C3764 C 0.62260 0.89508 0.74280
 C3765 C 0.63244 0.88693 0.75766
 C3766 C 0.62527 0.87119 0.76697
 C3767 C 0.59455 0.89546 0.72102
 C3768 C 0.60233 0.90538 0.70715
 C3769 C 0.59184 0.91276 0.69079
 C3770 C 0.60207 0.91862 0.67514
 C3771 C 0.59300 0.92607 0.65953
 C3772 C 0.57345 0.92789 0.65920
 C3773 C 0.56311 0.92193 0.67475
 C3774 C 0.57220 0.91456 0.69046
 H3775 H 0.60169 0.85214 0.76833
 H3776 H 0.58471 0.86626 0.74243
 H3777 H 0.62847 0.90735 0.73619
 H3778 H 0.64574 0.89289 0.76168
 H3779 H 0.57989 0.89190 0.72035
 H3780 H 0.61731 0.90751 0.70717
 H3781 H 0.61718 0.91743 0.67497
 H3782 H 0.60130 0.93035 0.64763
 H3783 H 0.54804 0.92341 0.67491
 H3784 H 0.56375 0.91075 0.70236
 C3785 C 0.60928 0.36254 1.26073
 C3786 C 0.59998 0.37071 1.24562
 C3787 C 0.60679 0.38705 1.23727
 C3788 C 0.62301 0.39536 1.24466
 C3789 C 0.63234 0.38723 1.25987
 C3790 C 0.62569 0.37060 1.26813
 C3791 C 0.59629 0.39510 1.22125
 C3792 C 0.60404 0.40625 1.20834
 C3793 C 0.59373 0.41365 1.19189
 C3794 C 0.60402 0.41935 1.17624
 C3795 C 0.59502 0.42671 1.16054
 C3796 C 0.57547 0.42872 1.16017
 C3797 C 0.56509 0.42300 1.17579
 C3798 C 0.57411 0.41563 1.19155
 H3799 H 0.60336 0.34991 1.26649
 H3800 H 0.58743 0.36410 1.24031
 H3801 H 0.62842 0.40828 1.23897
 H3802 H 0.64477 0.39409 1.26503
 H3803 H 0.58194 0.39064 1.21952
 H3804 H 0.61884 0.40929 1.20914
 H3805 H 0.61912 0.41802 1.17612
 H3806 H 0.60338 0.43075 1.14861
 H3807 H 0.55003 0.42465 1.17598
 H3808 H 0.56568 0.41196 1.20352
 C3809 C 0.89214 1.14055 1.25779
 C3810 C 0.90146 1.13300 1.24238
 C3811 C 0.89531 1.11632 1.23415
 C3812 C 0.87982 1.10709 1.24197
 C3813 C 0.87051 1.11461 1.25738
 C3814 C 0.87649 1.13148 1.26550
 C3815 C 0.90568 1.10873 1.21786
 C3816 C 0.89793 1.09721 1.20526
 C3817 C 0.90793 1.08956 1.18877
 C3818 C 0.89726 1.08262 1.17386
 C3819 C 0.90590 1.07477 1.15826
 C3820 C 0.92548 1.07349 1.15721
 C3821 C 0.93623 1.08046 1.17210
 C3822 C 0.92757 1.08834 1.18776
 H3823 H 0.89728 1.15350 1.26359
 H3824 H 0.91346 1.14032 1.23677
 H3825 H 0.87500 1.09386 1.23650
 H3826 H 0.85870 1.10703 1.26295
 H3827 H 0.91983 1.11362 1.21580
 H3828 H 0.88326 1.09376 1.20648
 H3829 H 0.88213 1.08332 1.17425
 H3830 H 0.89720 1.06983 1.14690
 H3831 H 0.95134 1.07944 1.17181
 H3832 H 0.93632 1.09301 1.19915
 C3833 C 0.85879 0.61093 0.75429
 C3834 C 0.86620 0.60208 0.73862
 C3835 C 0.88324 0.60791 0.73097
 C3836 C 0.89258 0.62317 0.73913
 C3837 C 0.88516 0.63205 0.75486
 C3838 C 0.86821 0.62597 0.76271
 C3839 C 0.89034 0.59801 0.71423
 C3840 C 0.90826 0.59827 0.70875
 C3841 C 0.91528 0.58816 0.69208
 C3842 C 0.93456 0.58477 0.69059
 C3843 C 0.94190 0.57582 0.67490
 C3844 C 0.93009 0.57009 0.66031
 C3845 C 0.91079 0.57338 0.66178
 C3846 C 0.90345 0.58242 0.67742
 H3847 H 0.84559 0.60596 0.75967
 H3848 H 0.85858 0.59053 0.73250
 H3849 H 0.90545 0.62853 0.73333
 H3850 H 0.89278 0.64363 0.76087
 H3851 H 0.88041 0.58943 0.70677
 H3852 H 0.91852 0.60551 0.71717
 H3853 H 0.94401 0.58911 0.70159
 H3854 H 0.95683 0.57342 0.67413
 H3855 H 0.90143 0.56950 0.65054
 H3856 H 0.88862 0.58531 0.67760
 C3857 C 0.38720 1.14010 0.75737
 C3858 C 0.39587 1.13258 0.74164
 C3859 C 0.38966 1.11571 0.73389
 C3860 C 0.37425 1.10664 0.74210
 C3861 C 0.36555 1.11419 0.75791
 C3862 C 0.37196 1.13100 0.76580
 C3863 C 0.39928 1.10862 0.71695
 C3864 C 0.39844 1.09084 0.71104
 C3865 C 0.40841 1.08393 0.69421
 C3866 C 0.41154 1.06463 0.69238
 C3867 C 0.42045 1.05744 0.67658
 C3868 C 0.42638 1.06941 0.66218
 C3869 C 0.42326 1.08872 0.66395
 C3870 C 0.41428 1.09591 0.67971
 H3871 H 0.39256 1.15312 0.76279
 H3872 H 0.40755 1.13999 0.73553
 H3873 H 0.36862 1.09391 0.73627
 H3874 H 0.35379 1.10682 0.76386
 H3875 H 0.40819 1.11842 0.70967
 H3876 H 0.39087 1.08062 0.71921
 H3877 H 0.40709 1.05505 0.70324
 H3878 H 0.42273 1.04249 0.67563
 H3879 H 0.42727 1.09823 0.65287
 H3880 H 0.41157 1.11078 0.68013
 C3881 C 0.35998 0.61382 1.25648
 C3882 C 0.36740 0.60527 1.24064
 C3883 C 0.38461 0.61100 1.23326
 C3884 C 0.39415 0.62584 1.24199
 C3885 C 0.38670 0.63442 1.25791
 C3886 C 0.36954 0.62848 1.26541
 C3887 C 0.39163 0.60146 1.21623
 C3888 C 0.40950 0.60182 1.21054
 C3889 C 0.41639 0.59197 1.19361
 C3890 C 0.43568 0.58871 1.19183
 C3891 C 0.44289 0.57994 1.17597
 C3892 C 0.43097 0.57423 1.16145
 C3893 C 0.41167 0.57743 1.16319
 C3894 C 0.40445 0.58630 1.17901
 H3895 H 0.34665 0.60890 1.26157
 H3896 H 0.35963 0.59403 1.23413
 H3897 H 0.40717 0.63111 1.23648
 H3898 H 0.39444 0.64571 1.26428
 H3899 H 0.38163 0.59305 1.20866
 H3900 H 0.41983 0.60893 1.21897
 H3901 H 0.44523 0.59299 1.20277
 H3902 H 0.45783 0.57759 1.17505
 H3903 H 0.40219 0.57356 1.15204
 H3904 H 0.38959 0.58906 1.17939
 C3905 C 1.10870 1.25930 0.86005
 C3906 C 1.09939 1.24382 0.86753
 C3907 C 1.10600 1.23497 0.88375
 C3908 C 1.12200 1.24219 0.89259
 C3909 C 1.13134 1.25764 0.88514
 C3910 C 1.12489 1.26649 0.86870
 C3911 C 1.09554 1.21870 0.89130
 C3912 C 1.10332 1.20574 0.90250
 C3913 C 1.09316 1.18935 0.91018
 C3914 C 1.10366 1.17415 0.91692
 C3915 C 1.09486 1.15859 0.92474
 C3916 C 1.07528 1.15788 0.92614
 C3917 C 1.06470 1.17306 0.91942
 C3918 C 1.07352 1.18869 0.91160
 H3919 H 1.10303 1.26549 0.84747
 H3920 H 1.08699 1.23867 0.86052
 H3921 H 1.12721 1.23623 0.90549
 H3922 H 1.14353 1.26261 0.89252
 H3923 H 1.08123 1.21701 0.88669
 H3924 H 1.11809 1.20658 0.90566
 H3925 H 1.11879 1.17429 0.91608
 H3926 H 1.10340 1.14700 0.92953
 H3927 H 1.04960 1.17301 0.92057
 H3928 H 1.06489 1.20030 0.90713
 C3929 C 1.14205 0.75667 0.39035
 C3930 C 1.13483 0.74094 0.39940
 C3931 C 1.11853 0.73227 0.39288
 C3932 C 1.10982 0.73941 0.37674
 C3933 C 1.11701 0.75515 0.36765
 C3934 C 1.13322 0.76415 0.37435
 C3935 C 1.11147 0.71554 0.40291
 C3936 C 1.09361 0.70988 0.40215
 C3937 C 1.08642 0.69314 0.41211
 C3938 C 1.06708 0.69161 0.41503
 C3939 C 1.05957 0.67582 0.42374
 C3940 C 1.07125 0.66115 0.42969
 C3941 C 1.09062 0.66265 0.42682
 C3942 C 1.09814 0.67841 0.41805
 H3943 H 1.15457 0.76285 0.39610
 H3944 H 1.14196 0.73559 0.41168
 H3945 H 1.09762 0.73274 0.37083
 H3946 H 1.10976 0.76008 0.35533
 H3947 H 1.12126 0.70827 0.41190
 H3948 H 1.08349 0.71820 0.39452
 H3949 H 1.05771 0.70267 0.41051
 H3950 H 1.04460 0.67509 0.42586
 H3951 H 1.09992 0.65136 0.43087
 H3952 H 1.11303 0.67868 0.41554
 C3953 C 0.60762 1.25820 0.36148
 C3954 C 0.59806 1.24302 0.36916
 C3955 C 0.60434 1.23449 0.38565
 C3956 C 0.62025 1.24178 0.39461
 C3957 C 0.62983 1.25701 0.38698
 C3958 C 0.62373 1.26547 0.37022
 C3959 C 0.59364 1.21845 0.39325
 C3960 C 0.60115 1.20550 0.40459
 C3961 C 0.59070 1.18920 0.41200
 C3962 C 0.60092 1.17374 0.41852
 C3963 C 0.59182 1.15827 0.42613
 C3964 C 0.57223 1.15795 0.42755
 C3965 C 0.56191 1.17335 0.42095
 C3966 C 0.57104 1.18889 0.41335
 H3967 H 0.60216 1.26412 0.34869
 H3968 H 0.58575 1.23780 0.36205
 H3969 H 0.62522 1.23600 0.40769
 H3970 H 0.64200 1.26205 0.39438
 H3971 H 0.57940 1.21682 0.38842
 H3972 H 0.61589 1.20623 0.40798
 H3973 H 0.61605 1.17360 0.41770
 H3974 H 0.60012 1.14648 0.43086
 H3975 H 0.54681 1.17355 0.42212
 H3976 H 0.56264 1.20073 0.40902
 C3977 C 0.60773 0.75919 0.86109
 C3978 C 0.59800 0.74426 0.86907
 C3979 C 0.60466 0.73553 0.88533
 C3980 C 0.62098 0.74244 0.89385
 C3981 C 0.63072 0.75735 0.88587
 C3982 C 0.62430 0.76584 0.86933
 C3983 C 0.59410 0.71953 0.89315
 C3984 C 0.60209 0.70629 0.90380
 C3985 C 0.59202 0.68990 0.91147
 C3986 C 0.60262 0.67461 0.91783
 C3987 C 0.59391 0.65899 0.92557
 C3988 C 0.57436 0.65833 0.92720
 C3989 C 0.56367 0.67356 0.92083
 C3990 C 0.57240 0.68927 0.91314
 H3991 H 0.60216 0.76549 0.84851
 H3992 H 0.58532 0.73937 0.86238
 H3993 H 0.62621 0.73656 0.90678
 H3994 H 0.64334 0.76210 0.89271
 H3995 H 0.57961 0.71821 0.88901
 H3996 H 0.61699 0.70687 0.90642
 H3997 H 0.61773 0.67472 0.91677
 H3998 H 0.60247 0.64732 0.93014
 H3999 H 0.54859 0.67347 0.92216
 H4000 H 0.56371 0.70094 0.90896
 C4001 C 0.89147 1.25785 1.14033
 C4002 C 0.90060 1.24255 1.13230
 C4003 C 0.89400 1.23460 1.11566
 C4004 C 0.87813 1.24253 1.10704
 C4005 C 0.86899 1.25784 1.11507
 C4006 C 0.87552 1.26574 1.13183
 C4007 C 0.90442 1.21858 1.10748
 C4008 C 0.89683 1.20639 1.09542
 C4009 C 0.90709 1.19025 1.08728
 C4010 C 0.89671 1.17537 1.07989
 C4011 C 0.90565 1.16004 1.07173
 C4012 C 0.92526 1.15928 1.07059
 C4013 C 0.93571 1.17419 1.07792
 C4014 C 0.92675 1.18956 1.08610
 H4015 H 0.89703 1.26346 1.15319
 H4016 H 0.91287 1.23686 1.13917
 H4017 H 0.87289 1.23726 1.09390
 H4018 H 0.85689 1.26353 1.10795
 H4019 H 0.91859 1.21638 1.11233
 H4020 H 0.88216 1.20763 1.09189
 H4021 H 0.88157 1.17553 1.08052
 H4022 H 0.89718 1.14867 1.06648
 H4023 H 0.95082 1.17413 1.07701
 H4024 H 0.93530 1.20097 1.09107
 C4025 C 0.85905 0.75225 0.61669
 C4026 C 0.86648 0.73646 0.60810
 C4027 C 0.88457 0.73023 0.61240
 C4028 C 0.89499 0.73997 0.62597
 C4029 C 0.88752 0.75589 0.63461
 C4030 C 0.86952 0.76232 0.62990
 C4031 C 0.89159 0.71338 0.60258
 C4032 C 0.90964 0.70835 0.60167
 C4033 C 0.91635 0.69167 0.59128
 C4034 C 0.93544 0.69038 0.58692
 C4035 C 0.94249 0.67476 0.57756
 C4036 C 0.93057 0.66010 0.57233
 C4037 C 0.91147 0.66137 0.57655
 C4038 C 0.90443 0.67688 0.58607
 H4039 H 0.84500 0.75644 0.61294
 H4040 H 0.85803 0.72912 0.59791
 H4041 H 0.90878 0.73536 0.63015
 H4042 H 0.89592 0.76324 0.64479
 H4043 H 0.88129 0.70540 0.59496
 H4044 H 0.92015 0.71713 0.60803
 H4045 H 0.94497 0.70146 0.59083
 H4046 H 0.95729 0.67409 0.57447
 H4047 H 0.90208 0.65003 0.57305
 H4048 H 0.88978 0.67682 0.58968
 C4049 C 0.39078 1.25850 0.63741
 C4050 C 0.39975 1.24320 0.62934
 C4051 C 0.39263 1.23489 0.61315
 C4052 C 0.37637 1.24245 0.60496
 C4053 C 0.36733 1.25781 0.61304
 C4054 C 0.37436 1.26610 0.62946
 C4055 C 0.40294 1.21881 0.60511
 C4056 C 0.39519 1.20621 0.59364
 C4057 C 0.40539 1.18970 0.58633
 C4058 C 0.39498 1.17430 0.58016
 C4059 C 0.40392 1.15851 0.57301
 C4060 C 0.42351 1.15779 0.57173
 C4061 C 0.43399 1.17319 0.57782
 C4062 C 0.42504 1.18905 0.58495
 H4063 H 0.39693 1.26419 0.64995
 H4064 H 0.41232 1.23776 0.63588
 H4065 H 0.37071 1.23682 0.59215
 H4066 H 0.35491 1.26314 0.60623
 H4067 H 0.41718 1.21675 0.60983
 H4068 H 0.38048 1.20731 0.59024
 H4069 H 0.37986 1.17442 0.58101
 H4070 H 0.39548 1.14675 0.56861
 H4071 H 0.44909 1.17313 0.57669
 H4072 H 0.43359 1.20083 0.58897
 C4073 C 0.39272 0.75948 1.14200
 C4074 C 0.40222 0.74416 1.13444
 C4075 C 0.39567 0.73538 1.11822
 C4076 C 0.37949 0.74247 1.10951
 C4077 C 0.36995 0.75774 1.11706
 C4078 C 0.37639 0.76658 1.13343
 C4079 C 0.40643 0.71940 1.11047
 C4080 C 0.39894 0.70660 1.09902
 C4081 C 0.40947 0.69065 1.09092
 C4082 C 0.39930 0.67558 1.08363
 C4083 C 0.40844 0.66050 1.07530
 C4084 C 0.42804 0.66017 1.07395
 C4085 C 0.43829 0.67521 1.08126
 C4086 C 0.42913 0.69036 1.08958
 H4087 H 0.39835 0.76564 1.15457
 H4088 H 0.41473 0.73909 1.14137
 H4089 H 0.37430 0.73659 1.09662
 H4090 H 0.35764 0.76264 1.10973
 H4091 H 0.42077 0.71785 1.11505
 H4092 H 0.38415 0.70728 1.09585
 H4093 H 0.38417 0.67544 1.08439
 H4094 H 0.40016 0.64898 1.07005
 H4095 H 0.45339 0.67543 1.08018
 H4096 H 0.43751 0.70191 1.09448
 C4097 C 0.88736 0.74342 0.85711
 C4098 C 0.89628 0.75913 0.86451
 C4099 C 0.89054 0.76680 0.88158
 C4100 C 0.87535 0.75855 0.89096
 C4101 C 0.86643 0.74281 0.88356
 C4102 C 0.87234 0.73499 0.86656
 C4103 C 0.90038 0.78366 0.88863
 C4104 C 0.89993 0.78933 0.90650
 C4105 C 0.90977 0.80622 0.91354
 C4106 C 0.91246 0.80810 0.93288
 C4107 C 0.92110 0.82399 0.94025
 C4108 C 0.92726 0.83841 0.92842
 C4109 C 0.92465 0.83657 0.90907
 C4110 C 0.91590 0.82073 0.90169
 H4111 H 0.89232 0.73802 0.84394
 H4112 H 0.90779 0.76527 0.85685
 H4113 H 0.87003 0.76432 0.90384
 H4114 H 0.85485 0.73687 0.89123
 H4115 H 0.90896 0.79113 0.87870
 H4116 H 0.89263 0.78094 0.91673
 H4117 H 0.90781 0.79724 0.94236
 H4118 H 0.92301 0.82498 0.95522
 H4119 H 0.92888 0.84765 0.89965
 H4120 H 0.91361 0.82027 0.88678
 C4121 C 0.86110 0.24112 0.39192
 C4122 C 0.86891 0.25641 0.40121
 C4123 C 0.88476 0.26547 0.39410
 C4124 C 0.89287 0.25864 0.37757
 C4125 C 0.88506 0.24334 0.36826
 C4126 C 0.86906 0.23436 0.37529
 C4127 C 0.89265 0.28150 0.40465
 C4128 C 0.90377 0.29451 0.39698
 C4129 C 0.91166 0.31069 0.40732
 C4130 C 0.91860 0.32586 0.39698
 C4131 C 0.92657 0.34123 0.40593
 C4132 C 0.92791 0.34179 0.42550
 C4133 C 0.92097 0.32666 0.43593
 C4134 C 0.91303 0.31120 0.42695
 H4135 H 0.84886 0.23464 0.39791
 H4136 H 0.86245 0.26123 0.41400
 H4137 H 0.90545 0.26476 0.37189
 H4138 H 0.89174 0.23854 0.35561
 H4139 H 0.88834 0.28295 0.41904
 H4140 H 0.90672 0.29389 0.38218
 H4141 H 0.91779 0.32586 0.38187
 H4142 H 0.93155 0.35280 0.39752
 H4143 H 0.92205 0.32660 0.45101
 H4144 H 0.90840 0.29962 0.43549
 C4145 C 0.36414 0.74056 0.39080
 C4146 C 0.37225 0.75564 0.40004
 C4147 C 0.38826 0.76431 0.39296
 C4148 C 0.39626 0.75731 0.37644
 C4149 C 0.38816 0.74211 0.36713
 C4150 C 0.37191 0.73347 0.37415
 C4151 C 0.39622 0.78022 0.40358
 C4152 C 0.40736 0.79327 0.39608
 C4153 C 0.41444 0.80966 0.40662
 C4154 C 0.42035 0.82540 0.39653
 C4155 C 0.42738 0.84107 0.40574
 C4156 C 0.42881 0.84133 0.42533
 C4157 C 0.42282 0.82565 0.43551
 C4158 C 0.41583 0.80991 0.42628
 H4159 H 0.35176 0.73460 0.39700
 H4160 H 0.36584 0.76064 0.41279
 H4161 H 0.40893 0.76327 0.37077
 H4162 H 0.39478 0.73719 0.35450
 H4163 H 0.39163 0.78176 0.41788
 H4164 H 0.41062 0.79265 0.38135
 H4165 H 0.41948 0.82561 0.38142
 H4166 H 0.43167 0.85305 0.39752
 H4167 H 0.42403 0.82538 0.45059
 H4168 H 0.41198 0.79789 0.43460
 C4169 C 0.38728 0.24683 0.86020
 C4170 C 0.39604 0.26263 0.86753
 C4171 C 0.39022 0.27030 0.88457
 C4172 C 0.37505 0.26200 0.89394
 C4173 C 0.36627 0.24616 0.88661
 C4174 C 0.37234 0.23829 0.86968
 C4175 C 0.39993 0.28723 0.89158
 C4176 C 0.39957 0.29281 0.90946
 C4177 C 0.40947 0.30966 0.91645
 C4178 C 0.41269 0.31132 0.93573
 C4179 C 0.42151 0.32713 0.94302
 C4180 C 0.42728 0.34171 0.93118
 C4181 C 0.42406 0.34012 0.91190
 C4182 C 0.41516 0.32435 0.90460
 H4183 H 0.39229 0.24143 0.84705
 H4184 H 0.40751 0.26885 0.85986
 H4185 H 0.36967 0.26780 0.90678
 H4186 H 0.35476 0.24011 0.89428
 H4187 H 0.40847 0.29475 0.88164
 H4188 H 0.39238 0.28436 0.91972
 H4189 H 0.40837 0.30031 0.94520
 H4190 H 0.42387 0.32796 0.95794
 H4191 H 0.42797 0.35133 0.90249
 H4192 H 0.41240 0.32406 0.88976
 C4193 C 1.14001 0.74204 1.11298
 C4194 C 1.13245 0.75786 1.10431
 C4195 C 1.11613 0.76625 1.11112
 C4196 C 1.10767 0.75866 1.12716
 C4197 C 1.11525 0.74280 1.13592
 C4198 C 1.13154 0.73415 1.12894
 C4199 C 1.10889 0.78315 1.10134
 C4200 C 1.09115 0.78919 1.10246
 C4201 C 1.08397 0.80584 1.09220
 C4202 C 1.06462 0.80756 1.08929
 C4203 C 1.05718 0.82317 1.08008
 C4204 C 1.06894 0.83751 1.07363
 C4205 C 1.08831 0.83585 1.07652
 C4206 C 1.09575 0.82026 1.08579
 H4207 H 1.15256 0.73619 1.10699
 H4208 H 1.13938 0.76350 1.09210
 H4209 H 1.09539 0.76504 1.13322
 H4210 H 1.10825 0.73747 1.14819
 H4211 H 1.11848 0.79021 1.09205
 H4212 H 1.08112 0.78118 1.11045
 H4213 H 1.05520 0.79675 1.09414
 H4214 H 1.04221 0.82402 1.07798
 H4215 H 1.09767 0.84688 1.07210
 H4216 H 1.11066 0.81989 1.08828
 C4217 C 1.13993 0.24002 0.60769
 C4218 C 1.13240 0.25537 0.59819
 C4219 C 1.11640 0.26448 0.60486
 C4220 C 1.10782 0.25763 0.62116
 C4221 C 1.11535 0.24227 0.63072
 C4222 C 1.13157 0.23318 0.62418
 C4223 C 1.10890 0.28065 0.59414
 C4224 C 1.09794 0.29386 0.60168
 C4225 C 1.09059 0.31029 0.59125
 C4226 C 1.08410 0.32566 0.60152
 C4227 C 1.07654 0.34126 0.59248
 C4228 C 1.07516 0.34183 0.57291
 C4229 C 1.08174 0.32654 0.56255
 C4230 C 1.08929 0.31086 0.57161
 H4231 H 1.15235 0.23365 0.60193
 H4232 H 1.13922 0.26025 0.58559
 H4233 H 1.09510 0.26383 0.62647
 H4234 H 1.10821 0.23755 0.64316
 H4235 H 1.11344 0.28208 0.57982
 H4236 H 1.09480 0.29323 0.61645
 H4237 H 1.08488 0.32562 0.61663
 H4238 H 1.07181 0.35295 0.60084
 H4239 H 1.08060 0.32652 0.54746
 H4240 H 1.09361 0.29913 0.56315
 C4241 C 0.63828 0.73866 0.60498
 C4242 C 0.63054 0.75410 0.59577
 C4243 C 0.61463 0.76308 0.60286
 C4244 C 0.60631 0.75597 0.61919
 C4245 C 0.61405 0.74051 0.62841
 C4246 C 0.63020 0.73169 0.62149
 C4247 C 0.60694 0.77944 0.59259
 C4248 C 0.59633 0.79260 0.60069
 C4249 C 0.58875 0.80922 0.59076
 C4250 C 0.58259 0.82443 0.60146
 C4251 C 0.57489 0.84022 0.59290
 C4252 C 0.57305 0.84115 0.57339
 C4253 C 0.57925 0.82600 0.56259
 C4254 C 0.58692 0.81013 0.57117
 H4255 H 0.65065 0.73230 0.59909
 H4256 H 0.63713 0.75916 0.58312
 H4257 H 0.59365 0.76204 0.62478
 H4258 H 0.60722 0.73548 0.64090
 H4259 H 0.61110 0.78108 0.57817
 H4260 H 0.59369 0.79175 0.61554
 H4261 H 0.58378 0.82411 0.61655
 H4262 H 0.57046 0.85180 0.60157
 H4263 H 0.57775 0.82627 0.54754
 H4264 H 0.59095 0.79853 0.56239
 C4265 C 0.61177 0.24313 1.14282
 C4266 C 0.60276 0.25899 1.13573
 C4267 C 0.60804 0.26673 1.11853
 C4268 C 0.62289 0.25839 1.10867
 C4269 C 0.63193 0.24248 1.11578
 C4270 C 0.62646 0.23459 1.13293
 C4271 C 0.59812 0.28378 1.11184
 C4272 C 0.59788 0.28948 1.09395
 C4273 C 0.58785 0.30649 1.08727
 C4274 C 0.58424 0.30837 1.06807
 C4275 C 0.57551 0.32440 1.06099
 C4276 C 0.57020 0.33901 1.07295
 C4277 C 0.57364 0.33714 1.09218
 C4278 C 0.58247 0.32113 1.09928
 H4279 H 0.60717 0.23771 1.15614
 H4280 H 0.59153 0.26521 1.14375
 H4281 H 0.62785 0.26422 1.09565
 H4282 H 0.64322 0.23644 1.10777
 H4283 H 0.58999 0.29132 1.12208
 H4284 H 0.60472 0.28104 1.08347
 H4285 H 0.58827 0.29740 1.05847
 H4286 H 0.57294 0.32540 1.04611
 H4287 H 0.57007 0.34834 1.10169
 H4288 H 0.58547 0.32064 1.11407
 C4289 C 1.25484 1.14182 0.88782
 C4290 C 1.23904 1.13423 0.89640
 C4291 C 1.23220 1.11662 0.89117
 C4292 C 1.24142 1.10688 0.87678
 C4293 C 1.25728 1.11448 0.86819
 C4294 C 1.26425 1.13202 0.87365
 C4295 C 1.21521 1.10938 0.90071
 C4296 C 1.20988 1.09136 0.90054
 C4297 C 1.19293 1.08417 0.91022
 C4298 C 1.19127 1.06479 0.91310
 C4299 C 1.17539 1.05727 0.92164
 C4300 C 1.16075 1.06896 0.92754
 C4301 C 1.16235 1.08834 0.92469
 C4302 C 1.17817 1.09587 0.91605
 H4303 H 1.25952 1.15545 0.89232
 H4304 H 1.23214 1.14217 0.90725
 H4305 H 1.23638 1.09354 0.87185
 H4306 H 1.26405 1.10651 0.85731
 H4307 H 1.20733 1.11936 0.90886
 H4308 H 1.21858 1.08110 0.89363
 H4309 H 1.20232 1.05541 0.90871
 H4310 H 1.17459 1.04228 0.92371
 H4311 H 1.15110 1.09765 0.92871
 H4312 H 1.17844 1.11079 0.91361
 C4313 C 1.25257 0.64330 0.38497
 C4314 C 1.23674 0.63607 0.39370
 C4315 C 1.23064 0.61786 0.38990
 C4316 C 1.24047 0.60714 0.37666
 C4317 C 1.25636 0.61439 0.36790
 C4318 C 1.26269 0.63249 0.37209
 C4319 C 1.21376 0.61094 0.39970
 C4320 C 1.20950 0.59277 0.40161
 C4321 C 1.19271 0.58574 0.41159
 C4322 C 1.19137 0.56645 0.41511
 C4323 C 1.17564 0.55899 0.42391
 C4324 C 1.16092 0.57071 0.42949
 C4325 C 1.16225 0.59001 0.42619
 C4326 C 1.17788 0.59746 0.41723
 H4327 H 1.25675 0.65743 0.38830
 H4328 H 1.22929 0.64475 0.40360
 H4329 H 1.23590 0.59328 0.37280
 H4330 H 1.26375 0.60571 0.35799
 H4331 H 1.20515 0.62144 0.40628
 H4332 H 1.21898 0.58234 0.39613
 H4333 H 1.20249 0.55706 0.41091
 H4334 H 1.17495 0.54405 0.42635
 H4335 H 1.15090 0.59928 0.43002
 H4336 H 1.17788 0.61231 0.41448
 C4337 C 0.75968 1.10688 0.36168
 C4338 C 0.74431 1.09776 0.36958
 C4339 C 0.73483 1.10549 0.38487
 C4340 C 0.74133 1.12248 0.39233
 C4341 C 0.75667 1.13161 0.38443
 C4342 C 0.76608 1.12396 0.36898
 C4343 C 0.71871 1.09516 0.39295
 C4344 C 0.70557 1.10322 0.40365
 C4345 C 0.68939 1.09312 0.41188
 C4346 C 0.67425 1.10371 0.41852
 C4347 C 0.65884 1.09500 0.42673
 C4348 C 0.65821 1.07545 0.42858
 C4349 C 0.67335 1.06479 0.42202
 C4350 C 0.68884 1.07351 0.41386
 H4351 H 0.76657 1.10039 0.34993
 H4352 H 0.73976 1.08460 0.36365
 H4353 H 0.73492 1.12868 0.40449
 H4354 H 0.76113 1.14465 0.39058
 H4355 H 0.71737 1.08058 0.38920
 H4356 H 0.70610 1.11814 0.40602
 H4357 H 0.67430 1.11881 0.41728
 H4358 H 0.64728 1.10359 0.43141
 H4359 H 0.67336 1.04972 0.42352
 H4360 H 0.70040 1.06480 0.40951
 C4361 C 0.76589 0.60495 0.87156
 C4362 C 0.75113 0.59553 0.88010
 C4363 C 0.73824 0.60521 0.89119
 C4364 C 0.74078 0.62451 0.89411
 C4365 C 0.75572 0.63394 0.88571
 C4366 C 0.76830 0.62427 0.87417
 C4367 C 0.72269 0.59458 0.89973
 C4368 C 0.70594 0.60219 0.90341
 C4369 C 0.68991 0.59174 0.91147
 C4370 C 0.67466 0.60207 0.91822
 C4371 C 0.65922 0.59307 0.92601
 C4372 C 0.65862 0.57345 0.92725
 C4373 C 0.67366 0.56303 0.92016
 C4374 C 0.68913 0.57204 0.91231
 H4375 H 0.77552 0.59699 0.86305
 H4376 H 0.74962 0.58063 0.87783
 H4377 H 0.73144 0.63232 0.90306
 H4378 H 0.75726 0.64881 0.88803
 H4379 H 0.72515 0.57989 0.90231
 H4380 H 0.70372 0.61687 0.90038
 H4381 H 0.67471 0.61721 0.91756
 H4382 H 0.64766 0.60151 0.93095
 H4383 H 0.67358 0.54790 0.92091
 H4384 H 0.70022 0.56340 0.90683
 C4385 C 1.25544 0.85698 1.11122
 C4386 C 1.23955 0.86409 1.10227
 C4387 C 1.23189 0.88137 1.10754
 C4388 C 1.24031 0.89125 1.12229
 C4389 C 1.25623 0.88416 1.13122
 C4390 C 1.26405 0.86695 1.12578
 C4391 C 1.21482 0.88816 1.09778
 C4392 C 1.20922 0.90610 1.09776
 C4393 C 1.19200 0.91294 1.08827
 C4394 C 1.19003 0.93223 1.08504
 C4395 C 1.17383 0.93944 1.07676
 C4396 C 1.15918 0.92749 1.07153
 C4397 C 1.16109 0.90819 1.07471
 C4398 C 1.17725 0.90097 1.08309
 H4399 H 1.26084 0.84360 1.10672
 H4400 H 1.23323 0.85606 1.09113
 H4401 H 1.23456 0.90430 1.12728
 H4402 H 1.26233 0.89226 1.14240
 H4403 H 1.20710 0.87796 1.08975
 H4404 H 1.21786 0.91655 1.10442
 H4405 H 1.20108 0.94179 1.08898
 H4406 H 1.17276 0.95437 1.07440
 H4407 H 1.14984 0.89871 1.07119
 H4408 H 1.17780 0.88612 1.08586
 C4409 C 1.25638 0.38635 0.64249
 C4410 C 1.24061 0.39521 0.63508
 C4411 C 1.23337 0.38993 0.61767
 C4412 C 1.24209 0.37522 0.60795
 C4413 C 1.25792 0.36633 0.61538
 C4414 C 1.26533 0.37184 0.63272
 C4415 C 1.21652 0.39983 0.61056
 C4416 C 1.21136 0.40014 0.59252
 C4417 C 1.19461 0.41028 0.58545
 C4418 C 1.19331 0.41408 0.56624
 C4419 C 1.17758 0.42307 0.55882
 C4420 C 1.16275 0.42846 0.57047
 C4421 C 1.16402 0.42476 0.58970
 C4422 C 1.17970 0.41566 0.59711
 H4423 H 1.26142 0.39094 0.65596
 H4424 H 1.23408 0.40636 0.64298
 H4425 H 1.23666 0.37028 0.59476
 H4426 H 1.26432 0.35518 0.60745
 H4427 H 1.20869 0.40791 0.62061
 H4428 H 1.22010 0.39337 0.58224
 H4429 H 1.20449 0.41002 0.55690
 H4430 H 1.17698 0.42581 0.54395
 H4431 H 1.15260 0.42837 0.59893
 H4432 H 1.17972 0.41248 0.61187
 C4433 C 0.75796 0.86192 0.60787
 C4434 C 0.74278 0.87001 0.59859
 C4435 C 0.73442 0.88634 0.60543
 C4436 C 0.74182 0.89470 0.62160
 C4437 C 0.75701 0.88661 0.63089
 C4438 C 0.76527 0.87009 0.62417
 C4439 C 0.71840 0.89444 0.59505
 C4440 C 0.70565 0.90562 0.60297
 C4441 C 0.68938 0.91348 0.59282
 C4442 C 0.67391 0.91946 0.60322
 C4443 C 0.65836 0.92726 0.59434
 C4444 C 0.65801 0.92937 0.57483
 C4445 C 0.67347 0.92343 0.56436
 C4446 C 0.68909 0.91566 0.57325
 H4447 H 0.76391 0.84929 0.60211
 H4448 H 0.73746 0.86339 0.58608
 H4449 H 0.73619 0.90765 0.62698
 H4450 H 0.76227 0.89344 0.64327
 H4451 H 0.71661 0.89012 0.58069
 H4452 H 0.70649 0.90845 0.61779
 H4453 H 0.67380 0.91800 0.61828
 H4454 H 0.64652 0.93149 0.60273
 H4455 H 0.67363 0.92516 0.54933
 H4456 H 0.70096 0.91180 0.56477
 C4457 C 0.76261 0.39190 1.13454
 C4458 C 0.74752 0.40119 1.12635
 C4459 C 0.73727 0.39286 1.11192
 C4460 C 0.74277 0.37506 1.10551
 C4461 C 0.75794 0.36571 1.11374
 C4462 C 0.76797 0.37398 1.12845
 C4463 C 0.72131 0.40348 1.10389
 C4464 C 0.70731 0.39558 1.09428
 C4465 C 0.69091 0.40614 1.08704
 C4466 C 0.67482 0.39608 1.08217
 C4467 C 0.65911 0.40526 1.07503
 C4468 C 0.65914 0.42475 1.07250
 C4469 C 0.67516 0.43492 1.07742
 C4470 C 0.69096 0.42572 1.08448
 H4471 H 0.77009 0.39897 1.14557
 H4472 H 0.74375 0.41495 1.13143
 H4473 H 0.73563 0.36836 1.09402
 H4474 H 0.76171 0.35200 1.10860
 H4475 H 0.72065 0.41823 1.10713
 H4476 H 0.70718 0.38058 1.09241
 H4477 H 0.67437 0.38104 1.08394
 H4478 H 0.64686 0.39709 1.07153
 H4479 H 0.67561 0.44992 1.07534
 H4480 H 0.70321 0.43402 1.08747
 C4481 C 0.74047 1.10859 1.13454
 C4482 C 0.75553 1.09945 1.12621
 C4483 C 0.76489 1.10746 1.11100
 C4484 C 0.75857 1.12483 1.10404
 C4485 C 0.74344 1.13402 1.11242
 C4486 C 0.73423 1.12604 1.12783
 C4487 C 0.78075 1.09692 1.10273
 C4488 C 0.79395 1.10466 1.09191
 C4489 C 0.81017 1.09412 1.08433
 C4490 C 0.82583 1.10424 1.07830
 C4491 C 0.84136 1.09505 1.07087
 C4492 C 0.84156 1.07547 1.06918
 C4493 C 0.82594 1.06527 1.07519
 C4494 C 0.81033 1.07448 1.08256
 H4495 H 0.73372 1.10175 1.14618
 H4496 H 0.75994 1.08603 1.13177
 H4497 H 0.76500 1.13128 1.09200
 H4498 H 0.73901 1.14737 1.10679
 H4499 H 0.78203 1.08237 1.10669
 H4500 H 0.79356 1.11955 1.08922
 H4501 H 0.82611 1.11935 1.07943
 H4502 H 0.85330 1.10328 1.06655
 H4503 H 0.82563 1.05020 1.07378
 H4504 H 0.79837 1.06612 1.08643
 C4505 C 0.75247 0.62084 0.64371
 C4506 C 0.76888 0.61324 0.63626
 C4507 C 0.77070 0.61070 0.61694
 C4508 C 0.75600 0.61627 0.60510
 C4509 C 0.73982 0.62432 0.61249
 C4510 C 0.73789 0.62660 0.63186
 C4511 C 0.78830 0.60304 0.60934
 C4512 C 0.78855 0.59132 0.59477
 C4513 C 0.80616 0.58389 0.58698
 C4514 C 0.80687 0.56534 0.58070
 C4515 C 0.82335 0.55808 0.57311
 C4516 C 0.83919 0.56947 0.57116
 C4517 C 0.83838 0.58815 0.57709
 C4518 C 0.82205 0.59527 0.58509
 H4519 H 0.75137 0.62265 0.65867
 H4520 H 0.78012 0.60919 0.64559
 H4521 H 0.75720 0.61484 0.59010
 H4522 H 0.72874 0.62861 0.60308
 H4523 H 0.80126 0.60651 0.61644
 H4524 H 0.77548 0.58628 0.58895
 H4525 H 0.79472 0.55641 0.58189
 H4526 H 0.82369 0.54366 0.56853
 H4527 H 0.85048 0.59714 0.57571
 H4528 H 0.82173 0.60976 0.58943
 C4529 C 0.24072 1.10662 0.64064
 C4530 C 0.25591 1.09708 0.63290
 C4531 C 0.26445 1.10361 0.61654
 C4532 C 0.25719 1.11971 0.60779
 C4533 C 0.24203 1.12926 0.61551
 C4534 C 0.23360 1.12288 0.63207
 C4535 C 0.28046 1.09299 0.60875
 C4536 C 0.29328 1.10071 0.59748
 C4537 C 0.30942 1.09041 0.58958
 C4538 C 0.32457 1.10080 0.58275
 C4539 C 0.33991 1.09187 0.57472
 C4540 C 0.34043 1.07229 0.57321
 C4541 C 0.32532 1.06182 0.58004
 C4542 C 0.30990 1.07077 0.58806
 H4543 H 0.23463 1.10113 0.65331
 H4544 H 0.26109 1.08459 0.63981
 H4545 H 0.26290 1.12486 0.59478
 H4546 H 0.23691 1.14157 0.60833
 H4547 H 0.28209 1.07862 0.61325
 H4548 H 0.29251 1.11554 0.59447
 H4549 H 0.32456 1.11593 0.58369
 H4550 H 0.35148 1.10029 0.56981
 H4551 H 0.32527 1.04672 0.57882
 H4552 H 0.29830 1.06224 0.59260
 C4553 C 0.24236 0.60830 1.13760
 C4554 C 0.25759 0.59924 1.12947
 C4555 C 0.26622 0.60665 1.11354
 C4556 C 0.25902 0.62323 1.10565
 C4557 C 0.24377 0.63232 1.11379
 C4558 C 0.23524 0.62500 1.12990
 C4559 C 0.28227 0.59640 1.10540
 C4560 C 0.29511 0.60448 1.09443
 C4561 C 0.31149 0.59442 1.08670
 C4562 C 0.32695 0.60494 1.08086
 C4563 C 0.34264 0.59616 1.07331
 C4564 C 0.34317 0.57663 1.07131
 C4565 C 0.32770 0.56604 1.07705
 C4566 C 0.31194 0.57484 1.08456
 H4567 H 0.23623 0.60208 1.14991
 H4568 H 0.26273 0.58640 1.13574
 H4569 H 0.26485 0.62910 1.09301
 H4570 H 0.23866 0.64502 1.10731
 H4571 H 0.28401 0.58193 1.10952
 H4572 H 0.29430 0.61936 1.09173
 H4573 H 0.32696 0.62003 1.08227
 H4574 H 0.35447 0.60466 1.06922
 H4575 H 0.32765 0.55099 1.07538
 H4576 H 0.30010 0.56624 1.08828
 C4577 C 0.74095 0.86209 0.89093
 C4578 C 0.75627 0.87001 0.90005
 C4579 C 0.76498 0.88601 0.89286
 C4580 C 0.75782 0.89416 0.87640
 C4581 C 0.74247 0.88623 0.86726
 C4582 C 0.73382 0.87009 0.87440
 C4583 C 0.78105 0.89400 0.90324
 C4584 C 0.79392 0.90512 0.89538
 C4585 C 0.81022 0.91284 0.90560
 C4586 C 0.82566 0.91896 0.89522
 C4587 C 0.84122 0.92665 0.90411
 C4588 C 0.84164 0.92854 0.92364
 C4589 C 0.82621 0.92245 0.93409
 C4590 C 0.81059 0.91478 0.92518
 H4591 H 0.73473 0.84974 0.89701
 H4592 H 0.76139 0.86352 0.91277
 H4593 H 0.76372 0.90684 0.87068
 H4594 H 0.73738 0.89291 0.85467
 H4595 H 0.78274 0.88969 0.91764
 H4596 H 0.79315 0.90802 0.88056
 H4597 H 0.82575 0.91769 0.88015
 H4598 H 0.85302 0.93097 0.89570
 H4599 H 0.82607 0.92400 0.94913
 H4600 H 0.79876 0.91081 0.93368
 C4601 C 0.74390 0.35769 0.38847
 C4602 C 0.75971 0.36513 0.39717
 C4603 C 0.76726 0.38224 0.39128
 C4604 C 0.75878 0.39162 0.37614
 C4605 C 0.74292 0.38418 0.36743
 C4606 C 0.73521 0.36713 0.37352
 C4607 C 0.78422 0.38936 0.40095
 C4608 C 0.78981 0.40727 0.40041
 C4609 C 0.80670 0.41436 0.41026
 C4610 C 0.80840 0.43370 0.41316
 C4611 C 0.82423 0.44110 0.42190
 C4612 C 0.83879 0.42931 0.42792
 C4613 C 0.83715 0.40995 0.42506
 C4614 C 0.82136 0.40254 0.41623
 H4615 H 0.73862 0.34446 0.39352
 H4616 H 0.76604 0.35747 0.40864
 H4617 H 0.76444 0.40455 0.37072
 H4618 H 0.73676 0.39185 0.35592
 H4619 H 0.79179 0.37944 0.40953
 H4620 H 0.78134 0.41751 0.39313
 H4621 H 0.79742 0.44315 0.40863
 H4622 H 0.82507 0.45607 0.42399
 H4623 H 0.84834 0.40057 0.42918
 H4624 H 0.82103 0.38765 0.41376
 C4625 C 0.24062 0.89221 0.35954
 C4626 C 0.25593 0.90161 0.36724
 C4627 C 0.26476 0.89482 0.38341
 C4628 C 0.25769 0.87859 0.39198
 C4629 C 0.24240 0.86920 0.38430
 C4630 C 0.23366 0.87584 0.36796
 C4631 C 0.28086 0.90532 0.39121
 C4632 C 0.29386 0.89743 0.40225
 C4633 C 0.31006 0.90761 0.41023
 C4634 C 0.32534 0.89713 0.41681
 C4635 C 0.34073 0.90595 0.42491
 C4636 C 0.34117 0.92550 0.42673
 C4637 C 0.32591 0.93606 0.42018
 C4638 C 0.31045 0.92722 0.41209
 H4639 H 0.23431 0.89788 0.34701
 H4640 H 0.26096 0.91419 0.36045
 H4641 H 0.26362 0.87324 0.40484
 H4642 H 0.23743 0.85680 0.39137
 H4643 H 0.28236 0.91975 0.38692
 H4644 H 0.29320 0.88256 0.40506
 H4645 H 0.32541 0.88203 0.41562
 H4646 H 0.35240 0.89745 0.42958
 H4647 H 0.32578 0.95113 0.42165
 H4648 H 0.29876 0.93581 0.40775
 C4649 C 0.24431 0.35835 0.89138
 C4650 C 0.26000 0.36572 0.90040
 C4651 C 0.26832 0.38230 0.89403
 C4652 C 0.26083 0.39115 0.87809
 C4653 C 0.24513 0.38378 0.86907
 C4654 C 0.23659 0.36732 0.87563
 C4655 C 0.28507 0.38949 0.90398
 C4656 C 0.29071 0.40738 0.90312
 C4657 C 0.30750 0.41472 0.91291
 C4658 C 0.30924 0.43416 0.91512
 C4659 C 0.32507 0.44182 0.92362
 C4660 C 0.33958 0.43022 0.93009
 C4661 C 0.33787 0.41076 0.92795
 C4662 C 0.32207 0.40308 0.91938
 H4663 H 0.23833 0.34558 0.89682
 H4664 H 0.26559 0.35848 0.91250
 H4665 H 0.26717 0.40358 0.87228
 H4666 H 0.23980 0.39107 0.85693
 H4667 H 0.29242 0.37973 0.91295
 H4668 H 0.28234 0.41744 0.89546
 H4669 H 0.29831 0.44348 0.91020
 H4670 H 0.32595 0.45686 0.92517
 H4671 H 0.34902 0.40149 0.93244
 H4672 H 0.32168 0.38810 0.91745
   
