data_POSCAR
  _audit_creation_date              2014-09-24
  _audit_creation_method            'ToBaCCo'
  _symmetry_space_group_name_H-M    'P1'
  _symmetry_Int_Tables_number       1
  _symmetry_cell_setting            triclinic
  loop_
  _symmetry_equiv_pos_as_xyz
 x,y,z
_cell_length_a 48.8541
_cell_length_b 48.7340
_cell_length_c 48.7862
_cell_angle_alpha 89.514400
_cell_angle_beta 89.909200
_cell_angle_gamma 88.924200
loop_
  _atom_site_label
  _atom_site_type_symbol
  _atom_site_fract_x
  _atom_site_fract_y
  _atom_site_fract_z
C1 C 0.73072 0.65723 0.96903
 H2 H 0.74961 0.65819 0.95749
 C3 C 0.70676 0.66931 0.95841
 H4 H 0.70722 0.67979 0.93876
 C5 C 0.70647 0.64081 1.00780
 H6 H 0.70607 0.62892 1.02654
 C7 C 0.68214 0.65259 0.99797
 H8 H 0.66331 0.65000 1.00938
 N9 N 0.73011 0.64309 0.99319
 C10 C 0.81258 0.63300 1.02612
 H11 H 0.81198 0.61122 1.03054
 C12 C 0.83498 0.64812 1.03443
 H13 H 0.85162 0.63796 1.04538
 C14 C 0.79127 0.67285 1.00698
 H15 H 0.77406 0.68241 0.99653
 C16 C 0.81355 0.68873 1.01460
 H17 H 0.81352 0.71046 1.00978
 Zn18 Zn 0.76165 0.62263 1.00422
 N19 N 0.79124 0.64549 1.01284
 C20 C 0.79670 0.60140 0.96319
 N21 N 0.77140 0.59956 0.97469
 C22 C 0.75179 0.58370 0.96345
 C23 C 0.75708 0.56947 0.93919
 C24 C 0.80283 0.58752 0.93901
 C25 C 0.74887 0.61703 1.05919
 C26 C 0.74136 0.60412 1.08355
 C27 C 0.74453 0.56054 1.06050
 C28 C 0.75193 0.57442 1.03647
 N29 N 0.75350 0.60220 1.03619
 H30 H 0.81183 0.61448 0.97213
 H31 H 0.73170 0.58299 0.97277
 H32 H 0.74114 0.55755 0.92989
 H33 H 0.82274 0.58981 0.92954
 H34 H 0.75004 0.63917 1.05828
 H35 H 0.73553 0.61711 1.10055
 H36 H 0.74403 0.53836 1.05999
 H37 H 0.75618 0.56297 1.01803
 C38 C 0.83545 0.67638 1.02899
 C39 C 0.68209 0.66643 0.97273
 C40 C 0.73911 0.57525 1.08491
 C41 C 0.78267 0.57192 0.92648
 C42 C 0.72213 0.33956 0.53110
 H43 H 0.74207 0.33711 0.54053
 C44 C 0.69956 0.32633 0.54241
 H45 H 0.70209 0.31350 0.56050
 C46 C 0.69398 0.36058 0.49705
 H47 H 0.69163 0.37466 0.47999
 C48 C 0.67092 0.34785 0.50774
 H49 H 0.65102 0.35191 0.49866
 N50 N 0.71896 0.35637 0.50887
 C51 C 0.80047 0.36898 0.47478
 H52 H 0.79937 0.39114 0.47339
 C53 C 0.82356 0.35490 0.46516
 H54 H 0.84030 0.36623 0.45627
 C55 C 0.77969 0.32718 0.48762
 H56 H 0.76239 0.31651 0.49608
 C57 C 0.80254 0.31221 0.47824
 H58 H 0.80289 0.29002 0.47966
 Zn59 Zn 0.74906 0.37730 0.49690
 N60 N 0.77918 0.35508 0.48583
 C61 C 0.78469 0.39603 0.53791
 N62 N 0.75942 0.39958 0.52657
 C63 C 0.74071 0.41750 0.53740
 C64 C 0.74735 0.43312 0.56028
 C65 C 0.79209 0.41109 0.56080
 C66 C 0.73228 0.38423 0.44318
 C67 C 0.72425 0.39787 0.41924
 C68 C 0.73061 0.44109 0.44211
 C69 C 0.73844 0.42657 0.46578
 N70 N 0.73881 0.39864 0.46593
 H71 H 0.79898 0.38112 0.52960
 H72 H 0.72054 0.41945 0.52837
 H73 H 0.73239 0.44733 0.56884
 H74 H 0.81220 0.40802 0.56977
 H75 H 0.73297 0.36204 0.44386
 H76 H 0.71845 0.38612 0.40149
 H77 H 0.73011 0.46332 0.44218
 H78 H 0.74419 0.43762 0.48392
 C79 C 0.82465 0.32621 0.46664
 C80 C 0.67363 0.33084 0.53084
 C81 C 0.72354 0.42663 0.41849
 C82 C 0.77332 0.42987 0.57210
 C83 C 0.22808 -0.15170 0.03414
 H84 H 0.24697 -0.15133 0.04567
 C85 C 0.20511 -0.16436 0.04527
 H86 H 0.20632 -0.17398 0.06534
 C87 C 0.20284 -0.13838 -0.00544
 H88 H 0.20177 -0.12761 -0.02484
 C89 C 0.17947 -0.15092 0.00485
 H90 H 0.16060 -0.14994 -0.00676
 N91 N 0.22647 -0.13881 0.00933
 C92 C 0.30749 -0.12844 -0.02609
 H93 H 0.30574 -0.10680 -0.03105
 C94 C 0.33077 -0.14335 -0.03391
 H95 H 0.34699 -0.13320 -0.04500
 C96 C 0.28832 -0.16813 -0.00585
 H97 H 0.27160 -0.17768 0.00490
 C98 C 0.31137 -0.18386 -0.01327
 H99 H 0.31236 -0.20556 -0.00831
 Zn100 Zn 0.25668 -0.11811 -0.00272
 N101 N 0.28698 -0.14087 -0.01212
 C102 C 0.29323 -0.09376 0.03426
 N103 N 0.26662 -0.09455 0.02614
 C104 C 0.24667 -0.08017 0.03963
 C105 C 0.25320 -0.06437 0.06244
 C106 C 0.30067 -0.07797 0.05662
 C107 C 0.24451 -0.11225 -0.05801
 C108 C 0.23808 -0.09889 -0.08260
 C109 C 0.23656 -0.05589 -0.05837
 C110 C 0.24331 -0.07014 -0.03424
 N111 N 0.24698 -0.09782 -0.03451
 H112 H 0.30875 -0.10571 0.02376
 H113 H 0.22561 -0.08151 0.03303
 H114 H 0.23721 -0.05335 0.07340
 H115 H 0.32187 -0.07768 0.06306
 H116 H 0.24726 -0.13433 -0.05755
 H117 H 0.23467 -0.11143 -0.10045
 H118 H 0.23450 -0.03377 -0.05742
 H119 H 0.24569 -0.05903 -0.01535
 C120 C 0.33294 -0.17130 -0.02728
 C121 C 0.18042 -0.16360 0.03067
 C122 C 0.23434 -0.07008 -0.08346
 C123 C 0.28051 -0.06324 0.07099
 C124 C 0.22495 0.16436 0.46476
 H125 H 0.24456 0.16562 0.45453
 C126 C 0.20216 0.17852 0.45404
 H127 H 0.20426 0.19085 0.43560
 C128 C 0.19772 0.14532 0.50012
 H129 H 0.19567 0.13163 0.51745
 C130 C 0.17449 0.15906 0.49009
 H131 H 0.15491 0.15618 0.50005
 N132 N 0.22239 0.14823 0.48750
 C133 C 0.30283 0.13442 0.52437
 H134 H 0.30119 0.11260 0.52807
 C135 C 0.32557 0.14829 0.53387
 H136 H 0.34140 0.13711 0.54505
 C137 C 0.28396 0.17561 0.50556
 H138 H 0.26759 0.18619 0.49473
 C139 C 0.30665 0.19025 0.51436
 H140 H 0.30778 0.21203 0.51002
 Zn141 Zn 0.25283 0.12655 0.49954
 N142 N 0.28257 0.14815 0.51059
 C143 C 0.28959 0.10548 0.45991
 N144 N 0.26365 0.10406 0.46994
 C145 C 0.24445 0.08853 0.45757
 C146 C 0.25095 0.07402 0.43377
 C147 C 0.29693 0.09130 0.43623
 C148 C 0.23517 0.11937 0.55314
 C149 C 0.22516 0.10554 0.57605
 C150 C 0.23258 0.06265 0.55238
 C151 C 0.24207 0.07737 0.52967
 N152 N 0.24248 0.10527 0.53025
 H153 H 0.30441 0.11828 0.46972
 H154 H 0.22388 0.08809 0.46579
 H155 H 0.23542 0.06221 0.42364
 H156 H 0.31744 0.09310 0.42801
 H157 H 0.23621 0.14153 0.55316
 H158 H 0.21839 0.11710 0.59376
 H159 H 0.23189 0.04047 0.55168
 H160 H 0.24868 0.06656 0.51152
 C161 C 0.32753 0.17657 0.52910
 C162 C 0.17660 0.17583 0.46680
 C163 C 0.22311 0.07691 0.57552
 C164 C 0.27733 0.07583 0.42268
 C165 C 0.15955 0.46157 0.22419
 H166 H 0.16124 0.45159 0.24402
 C167 C 0.17292 0.45022 0.20147
 H168 H 0.18505 0.43153 0.20382
 C169 C 0.14047 0.49721 0.19645
 H170 H 0.12712 0.51498 0.19427
 C171 C 0.15336 0.48652 0.17326
 H172 H 0.15021 0.49639 0.15351
 N173 N 0.14389 0.48482 0.22136
 C174 C 0.13473 0.52185 0.30202
 H175 H 0.11296 0.52621 0.30097
 C176 C 0.14972 0.53064 0.32445
 H177 H 0.13947 0.54187 0.34068
 C178 C 0.17467 0.50226 0.28187
 H179 H 0.18434 0.49151 0.26509
 C180 C 0.19045 0.51045 0.30418
 H181 H 0.21219 0.50570 0.30464
 Zn182 Zn 0.12406 0.49834 0.25204
 N183 N 0.14728 0.50792 0.28133
 C184 C 0.10124 0.46091 0.28980
 N185 N 0.09997 0.47064 0.26361
 C186 C 0.08293 0.45951 0.24485
 C187 C 0.06635 0.43753 0.25217
 C188 C 0.08490 0.43919 0.29802
 C189 C 0.12006 0.55221 0.23396
 C190 C 0.10766 0.57702 0.22622
 C191 C 0.06359 0.55778 0.23675
 C192 C 0.07685 0.53305 0.24385
 N193 N 0.10460 0.53073 0.24211
 H194 H 0.11536 0.46951 0.30424
 H195 H 0.08268 0.46737 0.22404
 H196 H 0.05321 0.42844 0.23702
 H197 H 0.08645 0.43127 0.31879
 H198 H 0.14210 0.54981 0.23304
 H199 H 0.12023 0.59359 0.21880
 H200 H 0.04149 0.55945 0.23807
 H201 H 0.06502 0.51581 0.25083
 C202 C 0.17794 0.52515 0.32558
 C203 C 0.16985 0.46284 0.17569
 C204 C 0.07911 0.58016 0.22792
 C205 C 0.06727 0.42727 0.27908
 C206 C -0.16653 0.02400 0.22777
 H207 H -0.17252 0.03176 0.24764
 C208 C -0.17891 0.03478 0.20407
 H209 H -0.19463 0.05061 0.20602
 C210 C -0.13741 -0.00457 0.20106
 H211 H -0.12076 -0.01938 0.19978
 C212 C -0.14870 0.00611 0.17693
 H213 H -0.14122 -0.00141 0.15741
 N214 N -0.14607 0.00479 0.22586
 C215 C -0.13273 -0.02878 0.30843
 H216 H -0.11059 -0.02866 0.30804
 C217 C -0.14632 -0.03888 0.33141
 H218 H -0.13467 -0.04663 0.34879
 C219 C -0.17496 -0.01900 0.28614
 H220 H -0.18599 -0.01161 0.26831
 C221 C -0.18943 -0.02880 0.30888
 H222 H -0.21159 -0.02877 0.30860
 Zn223 Zn -0.12539 -0.00549 0.25729
 N224 N -0.14709 -0.01881 0.28653
 C225 C -0.11185 0.03699 0.29365
 N226 N -0.10684 0.02622 0.26845
 C227 C -0.09046 0.03915 0.25001
 C228 C -0.07825 0.06391 0.25673
 C229 C -0.10018 0.06171 0.30112
 C230 C -0.11252 -0.05813 0.24078
 C231 C -0.09659 -0.07985 0.23080
 C232 C -0.05635 -0.05232 0.23648
 C233 C -0.07310 -0.03105 0.24647
 N234 N -0.10072 -0.03412 0.24768
 H235 H -0.12547 0.02686 0.30776
 H236 H -0.08731 0.03044 0.22991
 H237 H -0.06543 0.07421 0.24188
 H238 H -0.10448 0.07026 0.32113
 H239 H -0.13451 -0.05999 0.24214
 H240 H -0.10631 -0.09853 0.22441
 H241 H -0.03449 -0.04952 0.23461
 H242 H -0.06411 -0.01194 0.25249
 C243 C -0.17495 -0.03868 0.33183
 C244 C -0.16905 0.02681 0.17814
 C245 C -0.06832 -0.07674 0.22797
 C246 C -0.08348 0.07554 0.28240
 C247 C 0.34950 0.53291 0.72327
 H248 H 0.35562 0.54791 0.73813
 C249 C 0.33763 0.54172 0.69869
 H250 H 0.33445 0.56347 0.69484
 C251 C 0.34699 0.48645 0.70959
 H252 H 0.35134 0.46498 0.71378
 C253 C 0.33525 0.49442 0.68454
 H254 H 0.33039 0.47905 0.66950
 N255 N 0.35457 0.50574 0.72797
 C256 C 0.36823 0.48126 0.81315
 H257 H 0.38965 0.48617 0.81496
 C258 C 0.35381 0.47231 0.83613
 H259 H 0.36415 0.47019 0.85568
 C260 C 0.32866 0.47770 0.78537
 H261 H 0.31906 0.47979 0.76549
 C262 C 0.31350 0.46841 0.80785
 H263 H 0.29218 0.46330 0.80528
 Zn264 Zn 0.37689 0.49571 0.75828
 N265 N 0.35556 0.48372 0.78840
 C266 C 0.38554 0.54329 0.78860
 N267 N 0.39660 0.52700 0.76880
 C268 C 0.42003 0.53398 0.75552
 C269 C 0.43325 0.55826 0.76204
 C270 C 0.39811 0.56761 0.79579
 C271 C 0.40521 0.44450 0.76347
 C272 C 0.42085 0.42222 0.75411
 C273 C 0.42795 0.44664 0.71148
 C274 C 0.41254 0.46864 0.72181
 N275 N 0.40122 0.46709 0.74726
 H276 H 0.36659 0.53769 0.79845
 H277 H 0.42830 0.52093 0.73964
 H278 H 0.45179 0.56376 0.75128
 H279 H 0.38914 0.58035 0.81166
 H280 H 0.39573 0.44335 0.78343
 H281 H 0.42343 0.40418 0.76703
 H282 H 0.43571 0.44766 0.69069
 H283 H 0.40858 0.48652 0.70904
 C284 C 0.32615 0.46580 0.83355
 C285 C 0.33140 0.52243 0.67860
 C286 C 0.43223 0.42306 0.72772
 C287 C 0.42197 0.57553 0.78210
 C288 C 0.66263 0.96226 0.72531
 H289 H 0.66545 0.95214 0.74494
 C290 C 0.67486 0.95107 0.70190
 H291 H 0.68744 0.93261 0.70360
 C292 C 0.64094 0.99718 0.69855
 H293 H 0.62693 1.01450 0.69700
 C294 C 0.65274 0.98668 0.67470
 H295 H 0.64805 0.99619 0.65508
 N296 N 0.64578 0.98478 0.72325
 C297 C 0.63585 1.02295 0.80318
 H298 H 0.61456 1.02894 0.80081
 C299 C 0.65033 1.03202 0.82580
 H300 H 0.63984 1.04506 0.84047
 C301 C 0.67529 0.99997 0.78599
 H302 H 0.68499 0.98749 0.77048
 C303 C 0.69063 1.00857 0.80847
 H304 H 0.71174 1.00164 0.81033
 Zn305 Zn 0.62538 0.99669 0.75443
 N306 N 0.64831 1.00711 0.78387
 C307 C 0.59065 0.96878 0.79146
 N308 N 0.60275 0.96760 0.76633
 C309 C 0.60074 0.94488 0.75044
 C310 C 0.58782 0.92153 0.76045
 C311 C 0.57750 0.94590 0.80223
 C312 C 0.61848 1.05070 0.73765
 C313 C 0.60481 1.07488 0.73005
 C314 C 0.56177 1.05265 0.73862
 C315 C 0.57634 1.02860 0.74564
 N316 N 0.60418 1.02811 0.74489
 H317 H 0.59206 0.98706 0.80364
 H318 H 0.60985 0.94449 0.73026
 H319 H 0.58735 0.90318 0.74810
 H320 H 0.56889 0.94664 0.82269
 H321 H 0.64062 1.04968 0.73733
 H322 H 0.61653 1.09237 0.72339
 H323 H 0.53961 1.05288 0.73913
 H324 H 0.56545 1.01038 0.75161
 C325 C 0.67834 1.02533 0.82862
 C326 C 0.66939 0.96305 0.67625
 C327 C 0.57611 1.07620 0.73085
 C328 C 0.57688 0.92169 0.78697
 C329 C 0.02590 0.22575 -0.16221
 H330 H 0.03689 0.24481 -0.16183
 C331 C 0.03767 0.20267 -0.17467
 H332 H 0.05767 0.20400 -0.18414
 C333 C -0.01264 0.20005 -0.14854
 H334 H -0.03180 0.19885 -0.13756
 C335 C -0.00165 0.17652 -0.16081
 H336 H -0.01246 0.15736 -0.15939
 N337 N 0.00144 0.22390 -0.14903
 C338 C -0.03391 0.30519 -0.13420
 H339 H -0.03765 0.30296 -0.11244
 C340 C -0.04259 0.32899 -0.14789
 H341 H -0.05310 0.34515 -0.13669
 C342 C -0.01589 0.28670 -0.17542
 H343 H -0.00565 0.27004 -0.18602
 C344 C -0.02413 0.31032 -0.18994
 H345 H -0.02028 0.31184 -0.21176
 Zn346 Zn -0.01017 0.25357 -0.12687
 N347 N -0.02070 0.28473 -0.14799
 C348 C 0.02893 0.28857 -0.10399
 N349 N 0.01972 0.26240 -0.10415
 C350 C 0.03332 0.24181 -0.09052
 C351 C 0.05743 0.24718 -0.07628
 C352 C 0.05279 0.29483 -0.08995
 C353 C -0.06516 0.24281 -0.11945
 C354 C -0.08899 0.23530 -0.10583
 C355 C -0.06246 0.22825 -0.06459
 C356 C -0.03915 0.23630 -0.07900
 N357 N -0.04091 0.24317 -0.10597
 H358 H 0.01831 0.30454 -0.11542
 H359 H 0.02593 0.22106 -0.09152
 H360 H 0.06859 0.23062 -0.06609
 H361 H 0.06029 0.31561 -0.09045
 H362 H -0.06599 0.24853 -0.14091
 H363 H -0.10796 0.23642 -0.11724
 H364 H -0.05976 0.22085 -0.04377
 H365 H -0.01957 0.23639 -0.06875
 C366 C -0.03751 0.33176 -0.17600
 C367 C 0.02411 0.17760 -0.17333
 C368 C -0.08828 0.22793 -0.07771
 C369 C 0.06740 0.27392 -0.07627
 C370 C 0.46107 0.22172 0.14955
 H371 H 0.44637 0.23552 0.13990
 C372 C 0.45190 0.19834 0.16321
 H373 H 0.43020 0.19419 0.16386
 C374 C 0.50716 0.20961 0.15977
 H375 H 0.52871 0.21370 0.15799
 C376 C 0.49884 0.18603 0.17375
 H377 H 0.51401 0.17221 0.18275
 N378 N 0.48836 0.22644 0.14724
 C379 C 0.52263 0.30589 0.12602
 H380 H 0.52658 0.30244 0.10448
 C381 C 0.53043 0.33036 0.13805
 H382 H 0.54070 0.34569 0.12579
 C383 C 0.50488 0.28978 0.16836
 H384 H 0.49492 0.27381 0.17997
 C385 C 0.51232 0.31409 0.18125
 H386 H 0.50817 0.31680 0.20288
 Zn387 Zn 0.49984 0.25431 0.12243
 N388 N 0.50995 0.28632 0.14116
 C389 C 0.45936 0.28872 0.09801
 N390 N 0.47022 0.26280 0.09840
 C391 C 0.45844 0.24224 0.08411
 C392 C 0.43441 0.24725 0.06924
 C393 C 0.43535 0.29458 0.08351
 C394 C 0.55505 0.24048 0.11684
 C395 C 0.57848 0.22887 0.10503
 C396 C 0.55250 0.22053 0.06393
 C397 C 0.52948 0.23236 0.07654
 N398 N 0.53096 0.24127 0.10287
 H399 H 0.46861 0.30470 0.10985
 H400 H 0.46703 0.22164 0.08527
 H401 H 0.42473 0.23062 0.05859
 H402 H 0.42640 0.31508 0.08410
 H403 H 0.55590 0.24839 0.13746
 H404 H 0.59735 0.22763 0.11664
 H405 H 0.55097 0.21265 0.04331
 H406 H 0.51042 0.23378 0.06546
 C407 C 0.52491 0.33483 0.16588
 C408 C 0.47098 0.17975 0.17461
 C409 C 0.57706 0.21806 0.07859
 C410 C 0.42232 0.27355 0.06952
 C411 C 0.97090 0.72640 0.66036
 H412 H 0.96028 0.74607 0.66065
 C413 C 0.95900 0.70350 0.67265
 H414 H 0.93924 0.70555 0.68260
 C415 C 1.00867 0.69912 0.64535
 H416 H 1.02760 0.69727 0.63399
 C417 C 0.99750 0.67576 0.65729
 H418 H 1.00794 0.65608 0.65525
 N419 N 0.99509 0.72372 0.64669
 C420 C 1.03188 0.80361 0.63413
 H421 H 1.03557 0.80223 0.61231
 C422 C 1.04148 0.82594 0.64867
 H423 H 1.05263 0.84184 0.63807
 C424 C 1.01339 0.78423 0.67475
 H425 H 1.00274 0.76773 0.68481
 C426 C 1.02251 0.80640 0.69010
 H427 H 1.01887 0.80698 0.71200
 Zn428 Zn 1.00748 0.75356 0.62528
 N429 N 1.01816 0.78333 0.64726
 C430 C 0.96976 0.79135 0.60110
 N431 N 0.97829 0.76462 0.60195
 C432 C 0.96481 0.74498 0.58794
 C433 C 0.94172 0.75195 0.57230
 C434 C 0.94691 0.79921 0.58563
 C435 C 1.06254 0.73956 0.61853
 C436 C 1.08604 0.72986 0.60525
 C437 C 1.05960 0.72542 0.56375
 C438 C 1.03663 0.73558 0.57774
 N439 N 1.03843 0.74202 0.60475
 H440 H 0.98023 0.80656 0.61290
 H441 H 0.97163 0.72377 0.58948
 H442 H 0.93083 0.73613 0.56162
 H443 H 0.93997 0.82046 0.58557
 H444 H 1.06335 0.74473 0.64003
 H445 H 1.10502 0.72765 0.61657
 H446 H 1.05774 0.71939 0.54253
 H447 H 1.01729 0.73766 0.56717
 C448 C 1.03691 0.82735 0.67696
 C449 C 0.97212 0.67780 0.67052
 C450 C 1.08469 0.72255 0.57756
 C451 C 0.93265 0.77939 0.57103
 C452 C 0.52796 0.72564 0.33963
 H453 H 0.53832 0.74506 0.33877
 C454 C 0.53869 0.70304 0.32552
 H455 H 0.55727 0.70504 0.31359
 C456 C 0.49231 0.69860 0.35794
 H457 H 0.47490 0.69661 0.37140
 C458 C 0.50228 0.67554 0.34407
 H459 H 0.49235 0.65601 0.34671
 N460 N 0.50543 0.72294 0.35580
 C461 C 0.47610 0.80586 0.37488
 H462 H 0.47638 0.80417 0.39701
 C463 C 0.46797 0.83051 0.36239
 H464 H 0.46253 0.84772 0.37533
 C465 C 0.48382 0.78534 0.33169
 H466 H 0.48964 0.76750 0.31987
 C467 C 0.47553 0.80960 0.31827
 H468 H 0.47429 0.80973 0.29611
 Zn469 Zn 0.49588 0.75234 0.37927
 N470 N 0.48435 0.78411 0.35952
 C471 C 0.53969 0.78493 0.39643
 N472 N 0.52776 0.76010 0.39969
 C473 C 0.53974 0.73990 0.41526
 C474 C 0.56452 0.74451 0.42866
 C475 C 0.56446 0.79029 0.40924
 C476 C 0.44199 0.73892 0.38945
 C477 C 0.41929 0.73009 0.40419
 C478 C 0.44704 0.72858 0.44517
 C479 C 0.46925 0.73766 0.42964
 N480 N 0.46645 0.74207 0.40219
 H481 H 0.53050 0.80041 0.38324
 H482 H 0.53028 0.72006 0.41686
 H483 H 0.57405 0.72833 0.44087
 H484 H 0.57393 0.81001 0.40624
 H485 H 0.44034 0.74271 0.36763
 H486 H 0.40012 0.72691 0.39365
 H487 H 0.44955 0.72442 0.46687
 H488 H 0.48872 0.74072 0.43948
 C489 C 0.46812 0.83305 0.33358
 C490 C 0.52603 0.67759 0.32819
 C491 C 0.42178 0.72467 0.43233
 C492 C 0.57714 0.76988 0.42536
 C493 C 0.40976 -0.02186 0.28361
 H494 H 0.40958 -0.00224 0.29381
 C495 C 0.42405 -0.04422 0.29513
 H496 H 0.43507 -0.04179 0.31417
 C497 C 0.39457 -0.04945 0.24704
 H498 H 0.38242 -0.05169 0.22876
 C499 C 0.40875 -0.07226 0.25773
 H500 H 0.40767 -0.09185 0.24751
 N501 N 0.39534 -0.02484 0.26001
 C502 C 0.38181 0.05602 0.22296
 H503 H 0.35989 0.05495 0.22018
 C504 C 0.39577 0.07895 0.21361
 H505 H 0.38460 0.09556 0.20351
 C506 C 0.42313 0.03554 0.23937
 H507 H 0.43366 0.01849 0.24929
 C508 C 0.43795 0.05819 0.23027
 H509 H 0.45990 0.05861 0.23327
 Zn510 Zn 0.37370 0.00539 0.24734
 N511 N 0.39552 0.03503 0.23576
 C512 C 0.35190 0.04317 0.28550
 N513 N 0.35083 0.01682 0.27663
 C514 C 0.33494 -0.00196 0.28957
 C515 C 0.31923 0.00559 0.31240
 C516 C 0.33639 0.05161 0.30798
 C517 C 0.36707 -0.01087 0.19347
 C518 C 0.35339 -0.01765 0.16950
 C519 C 0.31036 -0.01120 0.19333
 C520 C 0.32492 -0.00465 0.21699
 N521 N 0.35278 -0.00477 0.21663
 H522 H 0.36519 0.05763 0.27557
 H523 H 0.33487 -0.02291 0.28241
 H524 H 0.30692 -0.00952 0.32284
 H525 H 0.33770 0.07255 0.31506
 H526 H 0.38921 -0.01050 0.19371
 H527 H 0.36506 -0.02294 0.15135
 H528 H 0.28819 -0.01113 0.19376
 H529 H 0.31396 0.00071 0.23550
 C530 C 0.42414 0.08012 0.21717
 C531 C 0.42356 -0.06973 0.28210
 C532 C 0.32469 -0.01752 0.16918
 C533 C 0.31984 0.03272 0.32163
 C534 C 0.07788 1.03171 0.77163
 H535 H 0.06772 1.01231 0.77003
 C536 C 0.06365 1.05445 0.78229
 H537 H 0.04266 1.05241 0.78905
 C538 C 0.11744 1.05839 0.76494
 H539 H 0.13830 1.05994 0.75775
 C540 C 0.10403 1.08153 0.77535
 H541 H 0.11470 1.10078 0.77647
 N542 N 0.10451 1.03394 0.76377
 C543 C 0.10603 0.96560 0.71304
 H544 H 0.11842 0.97679 0.69861
 C545 C 0.09370 0.94156 0.70462
 H546 H 0.09652 0.93457 0.68377
 C547 C 0.08827 0.95997 0.75796
 H548 H 0.08707 0.96678 0.77897
 C549 C 0.07556 0.93567 0.75034
 H550 H 0.06428 0.92397 0.76541
 Zn551 Zn 0.12576 1.00377 0.75064
 N552 N 0.10367 0.97407 0.73947
 C553 C 0.15217 0.96423 0.78487
 N554 N 0.15029 0.99146 0.77855
 C555 C 0.16541 1.01011 0.79223
 C556 C 0.18254 1.00173 0.81374
 C557 C 0.16902 0.95498 0.80622
 C558 C 0.13255 1.03233 0.70148
 C559 C 0.14566 1.04052 0.67748
 C560 C 0.18608 1.01499 0.69201
 C561 C 0.17225 1.00746 0.71595
 N562 N 0.14589 1.01599 0.72002
 H563 H 0.14058 0.94957 0.77344
 H564 H 0.16400 1.03157 0.78674
 H565 H 0.19414 1.01680 0.82475
 H566 H 0.16989 0.93333 0.81143
 H567 H 0.11155 1.03867 0.70521
 H568 H 0.13485 1.05361 0.66289
 H569 H 0.20693 1.00780 0.68868
 H570 H 0.18230 0.99431 0.73097
 C571 C 0.07896 0.92597 0.72358
 C572 C 0.07705 1.07951 0.78472
 C573 C 0.17251 1.03129 0.67227
 C574 C 0.18438 0.97387 0.82092
 C575 C 0.58495 0.53141 0.28043
 H576 H 0.58318 0.51131 0.28976
 C577 C 0.57125 0.55397 0.29195
 H578 H 0.55872 0.55123 0.31006
 C579 C 0.60470 0.55999 0.24646
 H580 H 0.61847 0.56255 0.22937
 C581 C 0.59129 0.58303 0.25724
 H582 H 0.59457 0.60307 0.24818
 N583 N 0.60141 0.53479 0.25817
 C584 C 0.61489 0.45532 0.21915
 H585 H 0.63690 0.45619 0.21701
 C586 C 0.60086 0.43316 0.20852
 H587 H 0.61211 0.41698 0.19806
 C588 C 0.57341 0.47540 0.23538
 H589 H 0.56283 0.49195 0.24580
 C590 C 0.55856 0.45342 0.22521
 H591 H 0.53658 0.45302 0.22800
 Zn592 Zn 0.62288 0.50427 0.24619
 N593 N 0.60112 0.47578 0.23241
 C594 C 0.64284 0.46434 0.28420
 N595 N 0.64329 0.49129 0.27670
 C596 C 0.65775 0.50979 0.29126
 C597 C 0.67281 0.50133 0.31425
 C598 C 0.65782 0.45498 0.30684
 C599 C 0.63576 0.52457 0.19393
 C600 C 0.65258 0.53353 0.17264
 C601 C 0.69209 0.52076 0.19998
 C602 C 0.67451 0.51246 0.22094
 N603 N 0.64691 0.51502 0.21777
 H604 H 0.63085 0.45005 0.27271
 H605 H 0.65749 0.53114 0.28500
 H606 H 0.68428 0.51613 0.32577
 H607 H 0.65747 0.43348 0.31262
 H608 H 0.61374 0.52572 0.19170
 H609 H 0.64347 0.54178 0.15402
 H610 H 0.71403 0.51870 0.20269
 H611 H 0.68297 0.50399 0.23970
 C612 C 0.57237 0.43212 0.21142
 C613 C 0.57478 0.58014 0.28050
 C614 C 0.68109 0.53218 0.17582
 C615 C 0.67302 0.47361 0.32199
 C616 C 0.90649 0.47859 0.77639
 H617 H 0.90759 0.49788 0.78710
 C618 C 0.92105 0.45557 0.78620
 H619 H 0.93344 0.45715 0.80448
 C620 C 0.88769 0.45243 0.74050
 H621 H 0.87414 0.45103 0.72313
 C622 C 0.90178 0.42895 0.74965
 H623 H 0.89916 0.40968 0.73915
 N624 N 0.89016 0.47661 0.75396
 C625 C 0.87506 0.55815 0.71914
 H626 H 0.85304 0.55726 0.71726
 C627 C 0.88888 0.58081 0.70891
 H628 H 0.87750 0.59747 0.69912
 C629 C 0.91686 0.53732 0.73383
 H630 H 0.92766 0.52017 0.74326
 C631 C 0.93152 0.55972 0.72394
 H632 H 0.95360 0.55982 0.72583
 Zn633 Zn 0.86790 0.50713 0.74340
 N634 N 0.88911 0.53704 0.73138
 C635 C 0.84726 0.54397 0.78308
 N636 N 0.84657 0.51762 0.77417
 C637 C 0.83246 0.49814 0.78815
 C638 C 0.81830 0.50494 0.81218
 C639 C 0.83324 0.55166 0.80678
 C640 C 0.85875 0.49438 0.68912
 C641 C 0.84442 0.48644 0.66593
 C642 C 0.80319 0.48466 0.69332
 C643 C 0.81831 0.49292 0.71604
 N644 N 0.84566 0.49722 0.71357
 H645 H 0.85914 0.55902 0.77222
 H646 H 0.83272 0.47721 0.78094
 H647 H 0.80747 0.48926 0.82345
 H648 H 0.83430 0.57261 0.81389
 H649 H 0.88050 0.49795 0.68778
 H650 H 0.85519 0.48372 0.64669
 H651 H 0.78156 0.48067 0.69548
 H652 H 0.80830 0.49546 0.73564
 C653 C 0.91742 0.58159 0.71112
 C654 C 0.91857 0.43039 0.77280
 C655 C 0.81636 0.48143 0.66796
 C656 C 0.81858 0.53203 0.82157
 C657 C 0.27722 0.40023 -0.02515
 H658 H 0.28800 0.39911 -0.00581
 C659 C 0.28786 0.41557 -0.04690
 H660 H 0.30692 0.42624 -0.04428
 C661 C 0.24022 0.38629 -0.05278
 H662 H 0.22212 0.37425 -0.05539
 C663 C 0.24997 0.40156 -0.07493
 H664 H 0.23907 0.40143 -0.09424
 N665 N 0.25379 0.38598 -0.02843
 C666 C 0.21617 0.36977 0.05103
 H667 H 0.21275 0.34806 0.04860
 C668 C 0.20715 0.38303 0.07468
 H669 H 0.19666 0.37154 0.09049
 C670 C 0.23412 0.41125 0.03339
 H671 H 0.24455 0.42212 0.01720
 C672 C 0.22551 0.42531 0.05685
 H673 H 0.22928 0.44705 0.05867
 Zn674 Zn 0.24182 0.36310 0.00074
 N675 N 0.22964 0.38388 0.03114
 C676 C 0.28026 0.34077 0.03809
 N677 N 0.27178 0.34033 0.01155
 C678 C 0.28574 0.32553 -0.00765
 C679 C 0.30933 0.31045 -0.00038
 C680 C 0.30350 0.32591 0.04624
 C681 C 0.18826 0.35639 -0.01618
 C682 C 0.16534 0.34291 -0.02578
 C683 C 0.19091 0.30002 -0.02301
 C684 C 0.21351 0.31440 -0.01360
 N685 N 0.21190 0.34216 -0.01092
 H686 H 0.26945 0.35318 0.05295
 H687 H 0.27888 0.32598 -0.02873
 H688 H 0.32062 0.29911 -0.01584
 H689 H 0.31032 0.32690 0.06732
 H690 H 0.18746 0.37840 -0.01339
 H691 H 0.14685 0.35458 -0.03056
 H692 H 0.19236 0.27797 -0.02545
 H693 H 0.23233 0.30344 -0.00871
 C694 C 0.21215 0.41099 0.07787
 C695 C 0.27406 0.41644 -0.07212
 C696 C 0.16672 0.31449 -0.02976
 C697 C 0.31829 0.31055 0.02691
 C698 C 0.78041 0.07589 1.03025
 H699 H 0.78693 0.06944 1.01008
 C700 C 0.79118 0.06267 1.05350
 H701 H 0.80554 0.04564 1.05114
 C702 C 0.75468 0.10653 1.05812
 H703 H 0.74082 0.12394 1.05993
 C704 C 0.76542 0.09434 1.08182
 H705 H 0.75967 0.10243 1.10166
 N706 N 0.76269 0.09760 1.03294
 C707 C 0.73892 0.11079 0.94712
 H708 H 0.74102 0.13274 0.94614
 C709 C 0.73178 0.09675 0.92353
 H710 H 0.72841 0.10807 0.90459
 C711 C 0.73911 0.06951 0.97313
 H712 H 0.74120 0.05910 0.99267
 C713 C 0.73179 0.05461 0.94992
 H714 H 0.72858 0.03273 0.95161
 Zn715 Zn 0.75139 0.11900 1.00208
 N716 N 0.74271 0.09713 0.97128
 C717 C 0.77386 0.16577 0.97673
 N718 N 0.77993 0.14311 0.99222
 C719 C 0.80618 0.13690 0.99968
 C720 C 0.82764 0.15324 0.99068
 C721 C 0.79469 0.18256 0.96717
 C722 C 0.69511 0.12724 1.00889
 C723 C 0.67126 0.14006 1.01852
 C724 C 0.69837 0.17802 1.03376
 C725 C 0.72175 0.16449 1.02378
 N726 N 0.71972 0.13944 1.01191
 H727 H 0.75283 0.17064 0.97145
 H728 H 0.81066 0.11889 1.01201
 H729 H 0.84854 0.14770 0.99602
 H730 H 0.78972 0.20013 0.95425
 H731 H 0.69412 0.10717 0.99970
 H732 H 0.65181 0.12993 1.01659
 H733 H 0.70020 0.19759 1.04389
 H734 H 0.74162 0.17350 1.02641
 C735 C 0.72832 0.06832 0.92472
 C736 C 0.78448 0.07264 1.07964
 C737 C 0.67293 0.16542 1.03165
 C738 C 0.82191 0.17614 0.97398
 C739 C 0.28803 0.57520 0.52779
 H740 H 0.29776 0.57340 0.50794
 C741 C 0.29900 0.56103 0.55039
 H742 H 0.31699 0.54798 0.54785
 C743 C 0.25357 0.59546 0.55575
 H744 H 0.23635 0.60949 0.55798
 C745 C 0.26407 0.58196 0.57889
 H746 H 0.25472 0.58552 0.59872
 N747 N 0.26587 0.59223 0.53090
 C748 C 0.23197 0.60984 0.44979
 H749 H 0.22935 0.63180 0.45208
 C750 C 0.22376 0.59733 0.42569
 H751 H 0.21448 0.60966 0.40950
 C752 C 0.24676 0.56698 0.46841
 H753 H 0.25550 0.55525 0.48523
 C754 C 0.23888 0.55359 0.44448
 H755 H 0.24167 0.53156 0.44291
 Zn756 Zn 0.25465 0.61503 0.50120
 N757 N 0.24359 0.59471 0.47038
 C758 C 0.29490 0.63596 0.46540
 N759 N 0.28480 0.63702 0.49140
 C760 C 0.29671 0.65270 0.51086
 C761 C 0.31921 0.66881 0.50421
 C762 C 0.31734 0.65162 0.45794
 C763 C 0.20023 0.62382 0.51590
 C764 C 0.17683 0.63830 0.52428
 C765 C 0.20307 0.67984 0.52426
 C766 C 0.22593 0.66461 0.51551
 N767 N 0.22420 0.63703 0.51194
 H768 H 0.28576 0.62283 0.45040
 H769 H 0.28867 0.65270 0.53154
 H770 H 0.32847 0.68143 0.51969
 H771 H 0.32514 0.65075 0.43716
 H772 H 0.19942 0.60190 0.51277
 H773 H 0.15794 0.62747 0.52764
 H774 H 0.20487 0.70162 0.52789
 H775 H 0.24504 0.67482 0.51196
 C776 C 0.22770 0.56897 0.42262
 C777 C 0.28748 0.56514 0.57644
 C778 C 0.17812 0.66665 0.52858
 C779 C 0.32953 0.66833 0.47743
 C780 C 0.77797 0.90322 0.47675
 H781 H 0.78776 0.90537 0.49647
 C782 C 0.78735 0.91810 0.45409
 H783 H 0.80434 0.93185 0.45637
 C784 C 0.74499 0.88146 0.44919
 H785 H 0.72905 0.86659 0.44707
 C786 C 0.75381 0.89579 0.42604
 H787 H 0.74440 0.89211 0.40635
 N788 N 0.75712 0.88532 0.47393
 C789 C 0.72341 0.86888 0.55521
 H790 H 0.72345 0.84671 0.55426
 C791 C 0.71245 0.88216 0.57802
 H792 H 0.70403 0.87022 0.59474
 C793 C 0.73406 0.91154 0.53439
 H794 H 0.74220 0.92287 0.51718
 C795 C 0.72335 0.92570 0.55695
 H796 H 0.72333 0.94792 0.55712
 Zn797 Zn 0.74733 0.86279 0.50413
 N798 N 0.73402 0.88361 0.53405
 C799 C 0.78910 0.84548 0.54060
 N800 N 0.77908 0.84259 0.51480
 C801 C 0.79285 0.82745 0.49572
 C802 C 0.81789 0.81467 0.50230
 C803 C 0.81396 0.83307 0.54801
 C804 C 0.69425 0.85266 0.48880
 C805 C 0.67201 0.83809 0.47927
 C806 C 0.70001 0.79665 0.48055
 C807 C 0.72184 0.81208 0.49018
 N808 N 0.71869 0.83967 0.49350
 H809 H 0.77830 0.85810 0.55530
 H810 H 0.78470 0.82592 0.47519
 H811 H 0.82896 0.80302 0.48692
 H812 H 0.82199 0.83596 0.56845
 H813 H 0.69232 0.87458 0.49183
 H814 H 0.65287 0.84880 0.47486
 H815 H 0.70274 0.77484 0.47720
 H816 H 0.74133 0.80212 0.49443
 C817 C 0.71219 0.91087 0.57889
 C818 C 0.77525 0.91427 0.42838
 C819 C 0.67498 0.80992 0.47457
 C820 C 0.82880 0.81790 0.52861
 C821 C -0.03456 0.28817 0.39674
 H822 H -0.02110 0.30282 0.38727
 C823 C -0.05792 0.29756 0.41056
 H824 H -0.06245 0.31938 0.41146
 C825 C -0.04565 0.24200 0.40669
 H826 H -0.04108 0.22036 0.40484
 C827 C -0.06922 0.25053 0.42074
 H828 H -0.08264 0.23543 0.42967
 N829 N -0.02931 0.26076 0.39429
 C830 C 0.04971 0.22240 0.37570
 H831 H 0.04665 0.21842 0.35415
 C832 C 0.07375 0.21343 0.38855
 H833 H 0.08924 0.20236 0.37693
 C834 C 0.03327 0.24186 0.41714
 H835 H 0.01740 0.25307 0.42804
 C836 C 0.05714 0.23332 0.43082
 H837 H 0.05960 0.23773 0.45238
 Zn838 Zn -0.00090 0.24882 0.37022
 N839 N 0.03018 0.23646 0.39002
 C840 C 0.03536 0.28754 0.34811
 N841 N 0.00910 0.27876 0.34731
 C842 C -0.01040 0.29259 0.33245
 C843 C -0.00390 0.31666 0.31826
 C844 C 0.04272 0.31139 0.33421
 C845 C -0.01429 0.19424 0.36265
 C846 C -0.02493 0.17142 0.34970
 C847 C -0.03276 0.19931 0.30918
 C848 C -0.02190 0.22168 0.32293
 N849 N -0.01354 0.21892 0.34944
 H850 H 0.05052 0.27668 0.36032
 H851 H -0.03128 0.28558 0.33260
 H852 H -0.01967 0.32802 0.30718
 H853 H 0.06351 0.31860 0.33565
 H854 H -0.00691 0.19238 0.38349
 H855 H -0.02605 0.15206 0.36068
 H856 H -0.03999 0.20176 0.28831
 H857 H -0.02064 0.24125 0.31254
 C858 C 0.07774 0.21917 0.41631
 C859 C -0.07594 0.27856 0.42193
 C860 C -0.03483 0.17405 0.32291
 C861 C 0.02284 0.32646 0.31962
 C862 C 1.03418 0.78849 0.08546
 H863 H 1.01399 0.79773 0.08323
 C864 C 1.05658 0.80027 0.07230
 H865 H 1.05364 0.81848 0.05969
 C866 C 1.06312 0.75458 0.10600
 H867 H 1.06593 0.73754 0.12002
 C868 C 1.08600 0.76559 0.09313
 H869 H 1.10612 0.75667 0.09695
 N870 N 1.03781 0.76611 0.10203
 C871 C 0.95721 0.73128 0.11552
 H872 H 0.95887 0.72898 0.13753
 C873 C 0.93364 0.72300 0.10221
 H874 H 0.91725 0.71396 0.11399
 C875 C 0.97684 0.74552 0.07337
 H876 H 0.99382 0.75420 0.06228
 C877 C 0.95340 0.73758 0.05916
 H878 H 0.95237 0.74019 0.03712
 Zn879 Zn 1.00757 0.75399 0.12302
 N880 N 0.97804 0.74263 0.10112
 C881 C 0.97074 0.79562 0.14016
 N882 N 0.99588 0.78399 0.14467
 C883 C 1.01358 0.79480 0.16301
 C884 C 1.00607 0.81816 0.17791
 C885 C 0.96253 0.81903 0.15440
 C886 C 1.02817 0.70105 0.13227
 C887 C 1.03721 0.67822 0.14734
 C888 C 1.02255 0.70104 0.18877
 C889 C 1.01444 0.72379 0.17294
 N890 N 1.01794 0.72359 0.14526
 H891 H 0.95723 0.78722 0.12501
 H892 H 1.03365 0.78543 0.16581
 H893 H 1.02027 0.82679 0.19236
 H894 H 0.94260 0.82833 0.15045
 H895 H 1.02994 0.70115 0.11016
 H896 H 1.04620 0.66079 0.13677
 H897 H 1.01959 0.70133 0.21077
 H898 H 1.00522 0.74149 0.18275
 C899 C 0.93129 0.72667 0.07379
 C900 C 1.08283 0.78894 0.07650
 C901 C 1.03496 0.67829 0.17600
 C902 C 0.98040 0.83058 0.17331
 C903 C 0.52842 0.28135 0.58646
 H904 H 0.50805 0.28971 0.58290
 C905 C 0.55087 0.29301 0.57330
 H906 H 0.54775 0.31008 0.55923
 C907 C 0.55764 0.24993 0.61022
 H908 H 0.56044 0.23394 0.62544
 C909 C 0.58062 0.26104 0.59762
 H910 H 0.60084 0.25314 0.60282
 N911 N 0.53214 0.26017 0.60451
 C912 C 0.45078 0.22673 0.61737
 H913 H 0.45207 0.22496 0.63945
 C914 C 0.42704 0.21906 0.60397
 H915 H 0.41015 0.21099 0.61575
 C916 C 0.47146 0.23912 0.57514
 H917 H 0.48891 0.24678 0.56404
 C918 C 0.44787 0.23182 0.56085
 H919 H 0.44719 0.23396 0.53875
 Zn920 Zn 0.50160 0.24817 0.62512
 N921 N 0.47220 0.23695 0.60298
 C922 C 0.46558 0.29121 0.64038
 N923 N 0.48983 0.27838 0.64640
 C924 C 0.50678 0.28823 0.66596
 C925 C 0.49933 0.31171 0.68064
 C926 C 0.45755 0.31490 0.65426
 C927 C 0.52319 0.19569 0.63482
 C928 C 0.53236 0.17303 0.65007
 C929 C 0.51505 0.19489 0.69101
 C930 C 0.50687 0.21754 0.67504
 N931 N 0.51165 0.21777 0.64755
 H932 H 0.45272 0.28353 0.62428
 H933 H 0.52617 0.27789 0.67000
 H934 H 0.51279 0.31923 0.69640
 H935 H 0.43835 0.32511 0.64903
 H936 H 0.52599 0.19610 0.61282
 H937 H 0.54247 0.15605 0.63974
 H938 H 0.51112 0.19486 0.71286
 H939 H 0.49662 0.23482 0.68460
 C940 C 0.42513 0.22223 0.57546
 C941 C 0.57735 0.28316 0.57936
 C942 C 0.52888 0.17274 0.67860
 C943 C 0.47466 0.32557 0.67442
 C944 C 0.47777 0.77449 0.92030
 H945 H 0.49732 0.78434 0.92225
 C946 C 0.45519 0.78446 0.93505
 H947 H 0.45747 0.80182 0.94852
 C948 C 0.45020 0.74167 0.89851
 H949 H 0.44793 0.72568 0.88357
 C950 C 0.42717 0.75094 0.91286
 H951 H 0.40751 0.74179 0.90907
 N952 N 0.47488 0.75363 0.90219
 C953 C 0.55419 0.71537 0.88410
 H954 H 0.55073 0.71157 0.86260
 C955 C 0.57762 0.70455 0.89668
 H956 H 0.59237 0.69282 0.88475
 C957 C 0.53883 0.73436 0.92610
 H958 H 0.52355 0.74564 0.93760
 C959 C 0.56213 0.72391 0.93954
 H960 H 0.56473 0.72731 0.96128
 Zn961 Zn 0.50450 0.74330 0.87875
 N962 N 0.53544 0.73015 0.89876
 C963 C 0.53816 0.77294 0.84222
 N964 N 0.51465 0.77418 0.85721
 C965 C 0.49933 0.79779 0.85846
 C966 C 0.50846 0.82179 0.84589
 C967 C 0.54801 0.79645 0.82932
 C968 C 0.48851 0.69006 0.86925
 C969 C 0.47817 0.66806 0.85478
 C970 C 0.47917 0.69581 0.81347
 C971 C 0.48930 0.71748 0.82884
 N972 N 0.49323 0.71433 0.85629
 H973 H 0.54981 0.75398 0.84099
 H974 H 0.48033 0.79830 0.86979
 H975 H 0.49667 0.84071 0.84791
 H976 H 0.56726 0.79550 0.81829
 H977 H 0.49205 0.68816 0.89107
 H978 H 0.47369 0.64911 0.86551
 H979 H 0.47561 0.69851 0.79170
 H980 H 0.49342 0.73694 0.81901
 C981 C 0.58165 0.70867 0.92472
 C982 C 0.42949 0.77275 0.93114
 C983 C 0.47282 0.67104 0.82672
 C984 C 0.53349 0.82135 0.83191
 C985 C 0.42583 -0.10424 0.31924
 C986 C 0.43675 -0.12766 0.33185
 C987 C 0.45945 -0.14199 0.32070
 C988 C 0.47216 -0.13081 0.29675
 C989 C 0.46039 -0.10724 0.28355
 C990 C 0.43695 -0.09413 0.29488
 C991 C 0.47318 -0.09680 0.25992
 N992 N 0.49680 -0.10847 0.25073
 N993 N 0.50865 -0.12963 0.26378
 C994 C 0.49742 -0.14091 0.28657
 H995 H 0.40797 -0.09430 0.32822
 H996 H 0.42626 -0.13532 0.34985
 H997 H 0.46494 -0.07912 0.24897
 H998 H 0.50892 -0.15702 0.29690
 C999 C 0.91396 0.38462 0.79407
 C1000 C 0.92450 0.36089 0.80647
 C1001 C 0.95279 0.35676 0.80933
 C1002 C 0.97085 0.37692 0.79927
 C1003 C 0.96009 0.40115 0.78663
 C1004 C 0.93136 0.40507 0.78437
 C1005 C 0.97855 0.42055 0.77646
 N1006 N 1.00589 0.41615 0.77940
 N1007 N 1.01597 0.39368 0.79175
 C1008 C 0.99942 0.37396 0.80183
 H1009 H 0.89194 0.38732 0.79253
 H1010 H 0.91046 0.34568 0.81415
 H1011 H 0.97154 0.43907 0.76608
 H1012 H 1.00874 0.35620 0.81174
 C1013 C 0.04036 1.11534 0.78389
 C1014 C 0.02781 1.13923 0.79377
 C1015 C 0.03781 1.15209 0.81718
 C1016 C 0.06028 1.14008 0.83154
 C1017 C 0.07296 1.11572 0.82157
 C1018 C 0.06318 1.10363 0.79721
 C1019 C 0.09473 1.10392 0.83674
 N1020 N 0.10330 1.11601 0.86006
 N1021 N 0.09147 1.13895 0.86935
 C1022 C 0.07024 1.15134 0.85598
 H1023 H 0.03257 1.10623 0.76535
 H1024 H 0.01041 1.14802 0.78285
 H1025 H 0.10479 1.08503 0.83054
 H1026 H 0.06120 1.16968 0.86477
 C1027 C 0.54103 0.61873 0.28059
 C1028 C 0.52927 0.64229 0.29204
 C1029 C 0.53910 0.65262 0.31676
 C1030 C 0.56105 0.63887 0.33035
 C1031 C 0.57299 0.61492 0.31873
 C1032 C 0.56272 0.60475 0.29371
 C1033 C 0.59519 0.60214 0.33244
 N1034 N 0.60430 0.61249 0.35640
 N1035 N 0.59281 0.63476 0.36752
 C1036 C 0.57152 0.64829 0.35535
 H1037 H 0.53312 0.61125 0.26136
 H1038 H 0.51246 0.65263 0.28150
 H1039 H 0.60547 0.58412 0.32432
 H1040 H 0.56302 0.66627 0.36532
 C1041 C 0.56460 0.38215 0.21081
 C1042 C 0.55287 0.35869 0.20019
 C1043 C 0.53370 0.36060 0.17892
 C1044 C 0.52526 0.38690 0.16906
 C1045 C 0.53756 0.41080 0.17955
 C1046 C 0.55753 0.40828 0.20054
 C1047 C 0.52991 0.43638 0.16804
 N1048 N 0.51037 0.43787 0.14834
 N1049 N 0.49811 0.41555 0.13925
 C1050 C 0.50484 0.39016 0.14893
 H1051 H 0.57979 0.37986 0.22687
 H1052 H 0.55958 0.33878 0.20796
 H1053 H 0.53929 0.45519 0.17434
 H1054 H 0.49403 0.37281 0.14095
 C1055 C 0.04052 0.89548 0.71239
 C1056 C 0.03034 0.87153 0.70106
 C1057 C 0.04817 0.85041 0.69254
 C1058 C 0.07665 0.85274 0.69697
 C1059 C 0.08699 0.87698 0.70857
 C1060 C 0.06877 0.89883 0.71546
 C1061 C 0.11539 0.87853 0.71290
 N1062 N 0.13214 0.85725 0.70579
 N1063 N 0.12242 0.83452 0.69473
 C1064 C 0.09529 0.83152 0.69010
 H1065 H 0.02638 0.91199 0.71768
 H1066 H 0.00849 0.86995 0.69782
 H1067 H 0.12441 0.89632 0.72212
 H1068 H 0.08852 0.81250 0.68134
 C1069 C 0.94454 0.62339 0.71778
 C1070 C 0.95727 0.64693 0.70805
 C1071 C 0.95827 0.65273 0.67992
 C1072 C 0.94627 0.63446 0.66117
 C1073 C 0.93342 0.61049 0.67105
 C1074 C 0.93233 0.60517 0.69963
 C1075 C 0.92223 0.59246 0.65187
 N1076 N 0.92335 0.59853 0.62472
 N1077 N 0.93493 0.62133 0.61547
 C1078 C 0.94638 0.63950 0.63272
 H1079 H 0.94378 0.61958 0.73968
 H1080 H 0.96641 0.66076 0.72255
 H1081 H 0.91274 0.57354 0.65815
 H1082 H 0.95538 0.65772 0.62402
 C1083 C 0.43317 0.12975 0.21926
 C1084 C 0.44438 0.15381 0.20897
 C1085 C 0.46166 0.15326 0.18604
 C1086 C 0.46794 0.12779 0.17335
 C1087 C 0.45659 0.10326 0.18393
 C1088 C 0.43892 0.10440 0.20698
 C1089 C 0.46247 0.07849 0.17034
 N1090 N 0.47874 0.07839 0.14781
 N1091 N 0.48930 0.10139 0.13780
 C1092 C 0.48435 0.12605 0.14965
 H1093 H 0.41945 0.13096 0.23670
 H1094 H 0.43915 0.17312 0.21868
 H1095 H 0.45413 0.05923 0.17721
 H1096 H 0.49307 0.14401 0.14021
 C1097 C 0.29120 0.41560 -0.11985
 C1098 C 0.30353 0.42749 -0.14267
 C1099 C 0.31102 0.45505 -0.14250
 C1100 C 0.30500 0.47126 -0.11919
 C1101 C 0.29214 0.45923 -0.09601
 C1102 C 0.28580 0.43093 -0.09618
 C1103 C 0.28552 0.47620 -0.07368
 N1104 N 0.29192 0.50315 -0.07443
 N1105 N 0.30427 0.51434 -0.09604
 C1106 C 0.31095 0.49937 -0.11845
 H1107 H 0.28642 0.39399 -0.12044
 H1108 H 0.30797 0.41487 -0.16036
 H1109 H 0.27499 0.46845 -0.05582
 H1110 H 0.32052 0.50965 -0.13559
 C1111 C 0.79889 0.91085 0.38377
 C1112 C 0.81090 0.92215 0.36049
 C1113 C 0.81058 0.95057 0.35614
 C1114 C 0.79773 0.96798 0.37560
 C1115 C 0.78555 0.95647 0.39938
 C1116 C 0.78646 0.92765 0.40355
 C1117 C 0.77262 0.97428 0.41809
 N1118 N 0.77247 1.00176 0.41343
 N1119 N 0.78430 1.01259 0.39134
 C1120 C 0.79695 0.99667 0.37229
 H1121 H 0.79977 0.88878 0.38667
 H1122 H 0.82077 0.90862 0.34582
 H1123 H 0.76252 0.96663 0.43628
 H1124 H 0.80623 1.00657 0.35476
 C1125 C 0.78111 0.05208 1.12610
 C1126 C 0.79231 0.04174 1.15038
 C1127 C 0.82079 0.03944 1.15394
 C1128 C 0.83824 0.05000 1.13301
 C1129 C 0.82669 0.06099 1.10842
 C1130 C 0.79786 0.06125 1.10471
 C1131 C 0.84439 0.07273 1.08892
 N1132 N 0.87168 0.07328 1.09367
 N1133 N 0.88249 0.06339 1.11681
 C1134 C 0.86678 0.05215 1.13670
 H1135 H 0.75904 0.05268 1.12388
 H1136 H 0.77848 0.03426 1.16603
 H1137 H 0.83689 0.08220 1.07025
 H1138 H 0.87679 0.04594 1.15551
 C1139 C 0.28524 0.53542 0.61785
 C1140 C 0.29587 0.52487 0.64236
 C1141 C 0.32210 0.53184 0.65113
 C1142 C 0.33834 0.54899 0.63430
 C1143 C 0.32730 0.56028 0.60971
 C1144 C 0.30051 0.55325 0.60139
 C1145 C 0.34331 0.57885 0.59465
 N1146 N 0.36909 0.58439 0.60295
 N1147 N 0.37988 0.57281 0.62535
 C1148 C 0.36545 0.55530 0.64126
 H1149 H 0.26472 0.52995 0.61184
 H1150 H 0.28325 0.51175 0.65495
 H1151 H 0.33565 0.58922 0.57650
 H1152 H 0.37540 0.54638 0.65908
 C1153 C 0.19847 0.53569 0.39900
 C1154 C 0.18624 0.52545 0.37554
 C1155 C 0.19383 0.53478 0.34939
 C1156 C 0.21501 0.55417 0.34687
 C1157 C 0.22787 0.56415 0.37078
 C1158 C 0.21872 0.55557 0.39706
 C1159 C 0.24948 0.58259 0.36757
 N1160 N 0.25679 0.59131 0.34218
 N1161 N 0.24399 0.58282 0.31982
 C1162 C 0.22330 0.56469 0.32128
 H1163 H 0.19122 0.52890 0.41889
 H1164 H 0.17011 0.51064 0.37783
 H1165 H 0.26076 0.59001 0.38497
 H1166 H 0.21355 0.55886 0.30241
 C1167 C 0.69267 0.04231 0.90120
 C1168 C 0.68012 0.03291 0.87761
 C1169 C 0.69297 0.03459 0.85176
 C1170 C 0.71967 0.04604 0.85028
 C1171 C 0.73266 0.05489 0.87467
 C1172 C 0.71857 0.05387 0.90006
 C1173 C 0.75932 0.06518 0.87284
 N1174 N 0.77144 0.06818 0.84804
 N1175 N 0.75861 0.06179 0.82498
 C1176 C 0.73313 0.05122 0.82520
 H1177 H 0.68155 0.04148 0.92042
 H1178 H 0.66008 0.02398 0.87976
 H1179 H 0.77058 0.07094 0.89090
 H1180 H 0.72356 0.04781 0.80566
 C1181 C 0.71736 0.93895 0.62055
 C1182 C 0.70716 0.95102 0.64438
 C1183 C 0.67928 0.94976 0.65089
 C1184 C 0.66129 0.93608 0.63304
 C1185 C 0.67164 0.92394 0.60875
 C1186 C 0.69998 0.92515 0.60272
 C1187 C 0.65314 0.91111 0.59113
 N1188 N 0.62625 0.90996 0.59791
 N1189 N 0.61663 0.92079 0.62104
 C1190 C 0.63320 0.93375 0.63885
 H1191 H 0.73908 0.93993 0.61621
 H1192 H 0.72109 0.96143 0.65786
 H1193 H 0.65972 0.90212 0.57197
 H1194 H 0.62423 0.94199 0.65738
 C1195 C 0.17453 0.42795 0.10736
 C1196 C 0.16438 0.44047 0.13090
 C1197 C 0.18213 0.45034 0.15090
 C1198 C 0.21080 0.44791 0.14683
 C1199 C 0.22117 0.43509 0.12284
 C1200 C 0.20277 0.42513 0.10298
 C1201 C 0.24971 0.43232 0.11977
 N1202 N 0.26659 0.44241 0.13913
 N1203 N 0.25687 0.45500 0.16133
 C1204 C 0.22959 0.45813 0.16583
 H1205 H 0.16023 0.42035 0.09240
 H1206 H 0.14240 0.44219 0.13372
 H1207 H 0.25878 0.42218 0.10225
 H1208 H 0.22289 0.46867 0.18413
 C1209 C -0.10171 0.30420 0.45742
 C1210 C -0.12572 0.31557 0.46823
 C1211 C -0.15106 0.31129 0.45571
 C1212 C -0.15222 0.29495 0.43184
 C1213 C -0.12774 0.28335 0.42081
 C1214 C -0.10231 0.28818 0.43376
 C1215 C -0.12948 0.26816 0.39648
 N1216 N -0.15410 0.26469 0.38433
 N1217 N -0.17704 0.27558 0.39466
 C1218 C -0.17694 0.29069 0.41786
 H1219 H -0.08240 0.30830 0.46734
 H1220 H -0.12448 0.32826 0.48630
 H1221 H -0.11155 0.25925 0.38680
 H1222 H -0.19615 0.29940 0.42494
 C1223 C 0.38469 0.79622 0.92552
 C1224 C 0.36150 0.80977 0.93550
 C1225 C 0.35731 0.81271 0.96372
 C1226 C 0.37686 0.80146 0.98230
 C1227 C 0.40050 0.78751 0.97211
 C1228 C 0.40455 0.78529 0.94343
 C1229 C 0.41920 0.77606 0.99107
 N1230 N 0.41480 0.77912 1.01834
 N1231 N 0.39298 0.79279 1.02789
 C1232 C 0.37391 0.80410 1.01084
 H1233 H 0.38748 0.79478 0.90354
 H1234 H 0.34678 0.81834 0.92104
 H1235 H 0.43716 0.76459 0.98451
 H1236 H 0.35670 0.81507 1.01976
 C1237 C 1.12127 0.78951 0.04343
 C1238 C 1.14487 0.80093 0.03242
 C1239 C 1.15522 0.82528 0.04292
 C1240 C 1.14129 0.83867 0.06467
 C1241 C 1.11729 0.82707 0.07587
 C1242 C 1.10725 0.80233 0.06502
 C1243 C 1.10431 0.84054 0.09788
 N1244 N 1.11446 0.86431 0.10747
 N1245 N 1.13670 0.87547 0.09662
 C1246 C 1.15044 0.86352 0.07555
 H1247 H 1.11387 0.77051 0.03508
 H1248 H 1.15529 0.79057 0.01572
 H1249 H 1.08625 0.83240 0.10760
 H1250 H 1.16831 0.87359 0.06751
 C1251 C 0.61920 0.28077 0.55071
 C1252 C 0.64254 0.29215 0.53913
 C1253 C 0.64903 0.31951 0.54401
 C1254 C 0.63195 0.33565 0.56125
 C1255 C 0.60833 0.32404 0.57323
 C1256 C 0.60174 0.29644 0.56751
 C1257 C 0.59249 0.34035 0.59117
 N1258 N 0.59961 0.36661 0.59609
 N1259 N 0.62157 0.37761 0.58451
 C1260 C 0.63801 0.36305 0.56733
 H1261 H 0.61459 0.25958 0.54639
 H1262 H 0.65553 0.27959 0.52607
 H1263 H 0.57473 0.33246 0.60158
 H1264 H 0.65576 0.37295 0.55878
 C1265 C 0.40132 0.19350 0.54172
 C1266 C 0.37771 0.18223 0.53095
 C1267 C 0.35167 0.19133 0.53945
 C1268 C 0.34947 0.21308 0.55853
 C1269 C 0.37356 0.22506 0.56891
 C1270 C 0.39966 0.21435 0.56125
 C1271 C 0.37071 0.24739 0.58686
 N1272 N 0.34546 0.25613 0.59486
 N1273 N 0.32289 0.24408 0.58612
 C1274 C 0.32401 0.22281 0.56839
 H1275 H 0.42106 0.18507 0.53561
 H1276 H 0.37977 0.16568 0.51636
 H1277 H 0.38829 0.25810 0.59446
 H1278 H 0.30498 0.21371 0.56239
 C1279 C 0.90843 0.69724 0.03999
 C1280 C 0.88523 0.68482 0.02958
 C1281 C 0.85895 0.69255 0.03862
 C1282 C 0.85601 0.71415 0.05780
 C1283 C 0.87964 0.72725 0.06785
 C1284 C 0.90607 0.71786 0.05971
 C1285 C 0.87602 0.74930 0.08601
 N1286 N 0.85054 0.75677 0.09447
 N1287 N 0.82845 0.74370 0.08600
 C1288 C 0.83030 0.72260 0.06812
 H1289 H 0.92844 0.68979 0.03353
 H1290 H 0.88785 0.66839 0.01493
 H1291 H 0.89319 0.76079 0.09342
 H1292 H 0.81165 0.71263 0.06236
 C1293 C 0.62618 0.71469 0.94781
 C1294 C 0.65074 0.70452 0.95875
 C1295 C 0.65594 0.67622 0.96058
 C1296 C 0.63599 0.65774 0.95122
 C1297 C 0.61094 0.66807 0.94032
 C1298 C 0.60626 0.69681 0.93829
 C1299 C 0.59125 0.64919 0.93194
 N1300 N 0.59678 0.62186 0.93365
 N1301 N 0.62060 0.61216 0.94321
 C1302 C 0.64039 0.62911 0.95199
 H1303 H 0.62290 0.73670 0.94627
 H1304 H 0.66582 0.71884 0.96586
 H1305 H 0.57147 0.65584 0.92420
 H1306 H 0.65938 0.62002 0.95934
 C1307 C 0.10768 0.18126 0.43283
 C1308 C 0.13146 0.17086 0.44501
 C1309 C 0.15160 0.18846 0.45462
 C1310 C 0.14742 0.21724 0.45222
 C1311 C 0.12318 0.22786 0.43972
 C1312 C 0.10317 0.20960 0.43006
 C1313 C 0.12001 0.25648 0.43695
 N1314 N 0.13951 0.27322 0.44677
 N1315 N 0.16194 0.26327 0.45908
 C1316 C 0.16655 0.23589 0.46219
 H1317 H 0.09261 0.16706 0.42545
 H1318 H 0.13435 0.14881 0.44667
 H1319 H 0.10231 0.26573 0.42701
 H1320 H 0.18503 0.22901 0.47251
 C1321 C 0.53148 0.12266 0.68732
 C1322 C 0.54242 0.09935 0.70018
 C1323 C 0.56145 0.10157 0.72146
 C1324 C 0.56834 0.12802 0.73093
 C1325 C 0.55814 0.15180 0.71704
 C1326 C 0.53948 0.14900 0.69497
 C1327 C 0.56778 0.17750 0.72530
 N1328 N 0.58475 0.17922 0.74716
 N1329 N 0.59298 0.15702 0.76116
 C1330 C 0.58534 0.13152 0.75384
 H1331 H 0.51718 0.12009 0.67062
 H1332 H 0.53685 0.07938 0.69263
 H1333 H 0.56230 0.19625 0.71456
 H1334 H 0.59247 0.11426 0.76611
 C1335 C 1.03555 0.62830 0.18515
 C1336 C 1.04578 0.60465 0.19794
 C1337 C 1.06568 0.60615 0.21847
 C1338 C 1.07435 0.63229 0.22723
 C1339 C 1.06482 0.65637 0.21340
 C1340 C 1.04516 0.65425 0.19213
 C1341 C 1.07605 0.68163 0.22089
 N1342 N 1.09396 0.68276 0.24204
 N1343 N 1.10163 0.66035 0.25603
 C1344 C 1.09242 0.63521 0.24940
 H1345 H 1.02047 0.62627 0.16906
 H1346 H 1.03886 0.58492 0.19094
 H1347 H 1.07104 0.70049 0.21011
 H1348 H 1.09916 0.61778 0.26165
 C1349 C 0.96402 0.85399 0.21511
 C1350 C 0.95203 0.87645 0.22831
 C1351 C 0.94801 0.90148 0.21441
 C1352 C 0.95708 0.90422 0.18693
 C1353 C 0.96930 0.88138 0.17356
 C1354 C 0.97206 0.85595 0.18763
 C1355 C 0.97803 0.88464 0.14625
 N1356 N 0.97428 0.90911 0.13322
 N1357 N 0.96235 0.93044 0.14562
 C1358 C 0.95353 0.92883 0.17194
 H1359 H 0.96592 0.83459 0.22603
 H1360 H 0.94498 0.87405 0.24924
 H1361 H 0.98789 0.86803 0.13521
 H1362 H 0.94383 0.94678 0.18082
 C1363 C 0.44100 0.35054 0.70306
 C1364 C 0.43094 0.37386 0.71615
 C1365 C 0.44573 0.39823 0.71603
 C1366 C 0.47176 0.39867 0.70310
 C1367 C 0.48171 0.37507 0.68907
 C1368 C 0.46611 0.35078 0.68918
 C1369 C 0.50669 0.37693 0.67483
 N1370 N 0.52128 0.40029 0.67593
 N1371 N 0.51253 0.42196 0.69013
 C1372 C 0.48834 0.42194 0.70378
 H1373 H 0.42881 0.33219 0.70337
 H1374 H 0.41097 0.37308 0.72580
 H1375 H 0.51474 0.36019 0.66268
 H1376 H 0.48243 0.44003 0.71518
 C1377 C 0.47412 0.62294 0.81111
 C1378 C 0.46197 0.59988 0.80013
 C1379 C 0.43537 0.60144 0.78955
 C1380 C 0.42131 0.62716 0.78863
 C1381 C 0.43343 0.65055 0.80033
 C1382 C 0.46004 0.64825 0.81184
 C1383 C 0.41802 0.67525 0.80082
 N1384 N 0.39287 0.67659 0.78911
 N1385 N 0.38198 0.65491 0.77715
 C1386 C 0.39532 0.63028 0.77649
 H1387 H 0.49442 0.62085 0.81988
 H1388 H 0.47301 0.58040 0.80096
 H1389 H 0.42556 0.69348 0.81044
 H1390 H 0.38556 0.61345 0.76631
 C1391 C -0.03176 0.12726 0.30387
 C1392 C -0.04347 0.10351 0.29387
 C1393 C -0.07177 0.10221 0.28984
 C1394 C -0.08849 0.12572 0.29485
 C1395 C -0.07661 0.14986 0.30518
 C1396 C -0.04801 0.15043 0.30989
 C1397 C -0.09399 0.17240 0.31111
 N1398 N -0.12123 0.17099 0.30613
 N1399 N -0.13227 0.14856 0.29578
 C1400 C -0.11687 0.12591 0.28997
 H1401 H -0.00989 0.12740 0.30751
 H1402 H -0.03047 0.08567 0.29014
 H1403 H -0.08628 0.19109 0.31970
 H1404 H -0.12693 0.10834 0.28145
 C1405 C 0.04803 0.35324 0.28494
 C1406 C 0.05856 0.37773 0.27491
 C1407 C 0.05162 0.40280 0.28719
 C1408 C 0.03237 0.40335 0.30894
 C1409 C 0.02172 0.37842 0.31923
 C1410 C 0.03009 0.35318 0.30734
 C1411 C 0.00367 0.37963 0.34172
 N1412 N -0.00374 0.40425 0.35246
 N1413 N 0.00579 0.42769 0.34237
 C1414 C 0.02357 0.42809 0.32101
 H1415 H 0.05470 0.33407 0.27578
 H1416 H 0.07334 0.37697 0.25834
 H1417 H -0.00462 0.36131 0.35089
 H1418 H 0.03053 0.44773 0.31356
 C1419 C 0.53206 0.86078 0.79953
 C1420 C 0.54262 0.88489 0.78858
 C1421 C 0.56647 0.89611 0.79931
 C1422 C 0.58014 0.88261 0.82137
 C1423 C 0.56924 0.85826 0.83270
 C1424 C 0.54519 0.84715 0.82137
 C1425 C 0.58272 0.84597 0.85528
 N1426 N 0.60604 0.85688 0.86506
 N1427 N 0.61675 0.87926 0.85387
 C1428 C 0.60468 0.89245 0.83237
 H1429 H 0.51362 0.85253 0.79076
 H1430 H 0.53206 0.89496 0.77165
 H1431 H 0.57491 0.82789 0.86536
 H1432 H 0.61449 0.91039 0.82405
 C1433 C 0.69717 0.53028 0.12785
 C1434 C 0.71220 0.53993 0.10564
 C1435 C 0.72972 0.56253 0.10818
 C1436 C 0.73446 0.57264 0.13525
 C1437 C 0.71814 0.56356 0.15757
 C1438 C 0.69913 0.54237 0.15362
 C1439 C 0.72148 0.57613 0.18320
 N1440 N 0.74187 0.59418 0.18693
 N1441 N 0.75905 0.60055 0.16678
 C1442 C 0.75631 0.59013 0.14128
 H1443 H 0.68308 0.51370 0.12464
 H1444 H 0.70771 0.53104 0.08594
 H1445 H 0.70830 0.57168 0.20040
 H1446 H 0.77152 0.59530 0.12606
 C1447 C 0.21051 1.05435 0.64835
 C1448 C 0.22250 1.06559 0.62501
 C1449 C 0.21067 1.06237 0.59910
 C1450 C 0.18660 1.04670 0.59662
 C1451 C 0.17488 1.03459 0.62033
 C1452 C 0.18639 1.03941 0.64649
 C1453 C 0.15184 1.01803 0.61704
 N1454 N 0.14055 1.01509 0.59190
 N1455 N 0.15074 1.02754 0.56985
 C1456 C 0.17324 1.04333 0.57135
 H1457 H 0.21961 1.05820 0.66816
 H1458 H 0.24085 1.07750 0.62726
 H1459 H 0.14280 1.00723 0.63415
 H1460 H 0.18024 1.05315 0.55278
 C1461 C 0.19497 0.97542 0.87037
 C1462 C 0.20768 0.96519 0.89392
 C1463 C 0.22687 0.94315 0.89275
 C1464 C 0.23602 0.93458 0.86616
 C1465 C 0.22265 0.94488 0.84223
 C1466 C 0.20117 0.96457 0.84463
 C1467 C 0.23206 0.93600 0.81644
 N1468 N 0.25415 0.91890 0.81468
 N1469 N 0.26768 0.91039 0.83692
 C1470 C 0.25971 0.91796 0.86242
 H1471 H 0.17897 0.99097 0.87246
 H1472 H 0.20003 0.97292 0.91326
 H1473 H 0.22263 0.94315 0.79760
 H1474 H 0.27252 0.91160 0.87944
 C1475 C 0.67816 0.46955 0.37221
 C1476 C 0.69051 0.45833 0.39556
 C1477 C 0.71382 0.44125 0.39347
 C1478 C 0.72584 0.43677 0.36735
 C1479 C 0.71306 0.44794 0.34358
 C1480 C 0.68871 0.46391 0.34613
 C1481 C 0.72521 0.44284 0.31793
 N1482 N 0.74880 0.42783 0.31639
 N1483 N 0.76104 0.41766 0.33874
 C1484 C 0.75045 0.42168 0.36413
 H1485 H 0.65959 0.48186 0.37440
 H1486 H 0.68110 0.46204 0.41535
 H1487 H 0.71635 0.45090 0.29914
 H1488 H 0.76156 0.41336 0.38155
 C1489 C 0.79240 0.44384 0.64510
 C1490 C 0.78235 0.43123 0.62177
 C1491 C 0.78099 0.44537 0.59670
 C1492 C 0.78894 0.47313 0.59530
 C1493 C 0.79922 0.48597 0.61904
 C1494 C 0.80161 0.47087 0.64391
 C1495 C 0.80690 0.51357 0.61703
 N1496 N 0.80481 0.52711 0.59269
 N1497 N 0.79557 0.51490 0.57029
 C1498 C 0.78763 0.48838 0.57073
 H1499 H 0.79421 0.43200 0.66393
 H1500 H 0.77636 0.40996 0.62307
 H1501 H 0.81435 0.52456 0.63460
 H1502 H 0.78033 0.47952 0.55192
 C1503 C 0.29299 -0.04822 0.14518
 C1504 C 0.28221 -0.05928 0.12136
 C1505 C 0.28827 -0.04790 0.09567
 C1506 C 0.30393 -0.02382 0.09404
 C1507 C 0.31462 -0.01233 0.11828
 C1508 C 0.31004 -0.02541 0.14393
 C1509 C 0.32950 0.01203 0.11598
 N1510 N 0.33378 0.02357 0.09098
 N1511 N 0.32408 0.01251 0.06818
 C1512 C 0.30930 -0.01076 0.06884
 H1513 H 0.28915 -0.05841 0.16460
 H1514 H 0.27021 -0.07772 0.12286
 H1515 H 0.33745 0.02219 0.13381
 H1516 H 0.30162 -0.01866 0.04974
 C1517 C 0.31334 0.03026 0.37180
 C1518 C 0.30336 0.04101 0.39631
 C1519 C 0.28441 0.06294 0.39623
 C1520 C 0.27454 0.07360 0.37092
 C1521 C 0.28464 0.06257 0.34599
 C1522 C 0.30482 0.04132 0.34656
 C1523 C 0.27438 0.07345 0.32119
 N1524 N 0.25570 0.09438 0.32148
 N1525 N 0.24666 0.10516 0.34487
 C1526 C 0.25549 0.09559 0.36957
 H1527 H 0.32887 0.01410 0.37255
 H1528 H 0.31115 0.03277 0.41552
 H1529 H 0.28090 0.06539 0.30159
 H1530 H 0.24754 0.10530 0.38782
 C1531 C 0.81604 0.52850 0.87206
 C1532 C 0.80764 0.53845 0.89747
 C1533 C 0.78816 0.55981 0.89929
 C1534 C 0.77617 0.57073 0.87499
 C1535 C 0.78463 0.56049 0.84915
 C1536 C 0.80535 0.53981 0.84776
 C1537 C 0.77220 0.57153 0.82542
 N1538 N 0.75309 0.59194 0.82754
 N1539 N 0.74562 0.60204 0.85176
 C1540 C 0.75655 0.59225 0.87551
 H1541 H 0.83199 0.51277 0.87132
 H1542 H 0.81705 0.53003 0.91588
 H1543 H 0.77738 0.56402 0.80523
 H1544 H 0.74979 0.60143 0.89450
 C1545 C 0.14266 0.67254 0.56425
 C1546 C 0.12049 0.68617 0.57619
 C1547 C 0.10890 0.70976 0.56397
 C1548 C 0.12016 0.71987 0.53911
 C1549 C 0.14239 0.70554 0.52654
 C1550 C 0.15396 0.68188 0.53954
 C1551 C 0.15198 0.71522 0.50111
 N1552 N 0.14097 0.73844 0.48986
 N1553 N 0.12096 0.75254 0.50224
 C1554 C 0.11025 0.74413 0.52647
 H1555 H 0.15124 0.65456 0.57453
 H1556 H 0.11214 0.67806 0.59512
 H1557 H 0.16796 0.70450 0.48993
 H1558 H 0.09425 0.75660 0.53567
 C1559 C 0.63776 0.20260 1.03325
 C1560 C 0.61435 0.21506 1.04427
 C1561 C 0.60100 0.20336 1.06681
 C1562 C 0.61118 0.17835 1.07824
 C1563 C 0.63515 0.16584 1.06722
 C1564 C 0.64833 0.17803 1.04438
 C1565 C 0.64535 0.14162 1.07977
 N1566 N 0.63179 0.13034 1.10122
 N1567 N 0.60882 0.14164 1.11103
 C1568 C 0.59802 0.16519 1.10028
 H1569 H 0.64767 0.21213 1.01581
 H1570 H 0.60676 0.23417 1.03537
 H1571 H 0.66402 0.13162 1.07287
 H1572 H 0.57920 0.17327 1.10898
 C1573 C 0.84797 0.19059 0.93343
 C1574 C 0.86951 0.20370 0.92057
 C1575 C 0.88873 0.21895 0.93552
 C1576 C 0.88351 0.22285 0.96422
 C1577 C 0.86189 0.20856 0.97733
 C1578 C 0.84443 0.19199 0.96173
 C1579 C 0.85753 0.21237 1.00556
 N1580 N 0.87276 0.23053 1.01947
 N1581 N 0.89171 0.24539 1.00696
 C1582 C 0.89724 0.24257 0.97988
 H1583 H 0.83449 0.17822 0.92120
 H1584 H 0.87212 0.19962 0.89894
 H1585 H 0.84170 0.20164 1.01656
 H1586 H 0.91162 0.25651 0.97075
 C1587 C 0.37899 0.67222 0.46834
 C1588 C 0.40139 0.68599 0.45765
 C1589 C 0.39848 0.71289 0.44753
 C1590 C 0.37278 0.72670 0.44972
 C1591 C 0.34999 0.71266 0.46062
 C1592 C 0.35315 0.68505 0.46942
 C1593 C 0.32460 0.72666 0.46185
 N1594 N 0.32246 0.75312 0.45317
 N1595 N 0.34395 0.76644 0.44330
 C1596 C 0.36901 0.75417 0.44129
 H1597 H 0.38161 0.65105 0.47495
 H1598 H 0.42087 0.67512 0.45605
 H1599 H 0.30650 0.71685 0.46974
 H1600 H 0.38579 0.76605 0.43336
 C1601 C 0.62833 0.79142 0.47785
 C1602 C 0.60458 0.78153 0.46596
 C1603 C 0.60389 0.77532 0.43803
 C1604 C 0.62799 0.77761 0.42207
 C1605 C 0.65216 0.78768 0.43412
 C1606 C 0.65204 0.79512 0.46214
 C1607 C 0.67536 0.79090 0.41735
 N1608 N 0.67441 0.78380 0.39055
 N1609 N 0.65183 0.77391 0.37936
 C1610 C 0.62859 0.77062 0.39416
 H1611 H 0.62793 0.79725 0.49923
 H1612 H 0.58622 0.78001 0.47833
 H1613 H 0.69421 0.79898 0.42522
 H1614 H 0.61085 0.76248 0.38404
 C1615 C 0.11812 0.30169 -0.02650
 C1616 C 0.09405 0.29174 -0.03761
 C1617 C 0.09399 0.28014 -0.06372
 C1618 C 0.11877 0.27779 -0.07868
 C1619 C 0.14325 0.28817 -0.06753
 C1620 C 0.14276 0.30045 -0.04126
 C1621 C 0.16714 0.28692 -0.08368
 N1622 N 0.16651 0.27537 -0.10886
 N1623 N 0.14359 0.26525 -0.11912
 C1624 C 0.11970 0.26616 -0.10496
 H1625 H 0.11737 0.31120 -0.00651
 H1626 H 0.07514 0.29391 -0.02614
 H1627 H 0.18625 0.29517 -0.07674
 H1628 H 0.10167 0.25784 -0.11440
 C1629 C 0.36868 0.30612 0.02395
 C1630 C 0.39387 0.29753 0.03462
 C1631 C 0.39531 0.27906 0.05675
 C1632 C 0.37082 0.26817 0.06766
 C1633 C 0.34520 0.27674 0.05659
 C1634 C 0.34420 0.29661 0.03522
 C1635 C 0.32128 0.26533 0.06755
 N1636 N 0.32300 0.24718 0.08872
 N1637 N 0.34699 0.23973 0.09966
 C1638 C 0.37091 0.24966 0.08998
 H1639 H 0.36825 0.32142 0.00770
 H1640 H 0.41241 0.30608 0.02617
 H1641 H 0.30127 0.27054 0.05937
 H1642 H 0.38966 0.24302 0.09992
 C1643 C 0.85739 0.78562 0.55597
 C1644 C 0.88251 0.77609 0.56602
 C1645 C 0.90704 0.78720 0.55651
 C1646 C 0.90623 0.80732 0.53535
 C1647 C 0.88064 0.81717 0.52523
 C1648 C 0.85605 0.80638 0.53598
 C1649 C 0.88059 0.83811 0.50520
 N1650 N 0.90461 0.84772 0.49541
 N1651 N 0.92863 0.83794 0.50439
 C1652 C 0.93027 0.81809 0.52399
 H1653 H 0.83876 0.77728 0.56445
 H1654 H 0.88277 0.76077 0.58225
 H1655 H 0.86176 0.84699 0.49724
 H1656 H 0.95033 0.81080 0.53037
   
