data_POSCAR
  _audit_creation_date              2014-09-24
  _audit_creation_method            'ToBaCCo'
  _symmetry_space_group_name_H-M    'P1'
  _symmetry_Int_Tables_number       1
  _symmetry_cell_setting            triclinic
  loop_
  _symmetry_equiv_pos_as_xyz
 x,y,z
_cell_length_a 47.2894
_cell_length_b 43.9710
_cell_length_c 37.9261
_cell_angle_alpha 89.906100
_cell_angle_beta 89.978200
_cell_angle_gamma 89.986200
loop_
  _atom_site_label
  _atom_site_type_symbol
  _atom_site_fract_x
  _atom_site_fract_y
  _atom_site_fract_z
C1 C 0.00004 -0.01074 0.11313
 C2 C -0.00003 0.01132 -0.11729
 C3 C -0.06566 -0.05410 0.04503
 C4 C -0.06556 0.04637 0.05555
 C5 C -0.06538 -0.04663 -0.05900
 C6 C 0.06549 -0.04345 -0.06226
 C7 C 0.06543 0.05133 -0.05290
 C8 C 0.06447 -0.05254 0.04860
 C9 C -0.06540 0.05520 -0.04825
 C10 C 0.06517 0.04406 0.05834
 O11 O -0.03945 -0.05206 -0.06802
 O12 O -0.07298 -0.02658 -0.03603
 O13 O -0.03945 0.06230 -0.05548
 O14 O -0.07294 0.03202 -0.02961
 O15 O 0.03925 0.04957 0.06737
 O16 O 0.07255 0.02556 0.03356
 O17 O -0.00041 0.03529 -0.09780
 O18 O -0.00012 -0.01603 -0.10469
 O19 O -0.00005 0.01658 0.10066
 O20 O -0.00039 -0.03486 0.09395
 O21 O 0.03951 -0.04878 -0.07136
 O22 O 0.07257 -0.02528 -0.03698
 O23 O -0.03975 -0.06123 0.05220
 O24 O -0.07322 -0.03136 0.02566
 O25 O 0.03853 -0.05953 0.05559
 O26 O 0.07220 -0.03083 0.02777
 O27 O 0.03946 0.05854 -0.06006
 O28 O 0.07257 0.03019 -0.03100
 O29 O 0.00051 0.07973 0.06356
 O30 O 0.00163 0.08958 -0.04503
 O31 O 0.00099 -0.07921 -0.06796
 O32 O 0.00036 -0.08927 0.04086
 O33 O -0.02449 -0.03951 -0.00695
 O34 O -0.02440 0.03990 0.00290
 O35 O 0.02347 -0.03941 -0.00671
 O36 O -0.02622 -0.00389 0.04498
 O37 O -0.07306 0.02682 0.03199
 O38 O -0.03964 0.05184 0.06460
 O39 O 0.02566 -0.00415 0.04558
 O40 O 0.02584 0.00433 -0.04906
 O41 O 0.02364 0.03961 0.00287
 O42 O -0.02612 0.00436 -0.04908
 Zr43 Zr -0.00024 0.03358 0.04848
 Zr44 Zr -0.00017 -0.03317 -0.05245
 Zr45 Zr -0.04848 0.00021 -0.00206
 Zr46 Zr -0.00052 -0.04133 0.03911
 Zr47 Zr -0.00020 0.04167 -0.04302
 Zr48 Zr 0.04787 -0.00001 -0.00165
 H49 H 0.03472 -0.05831 -0.00868
 H50 H -0.03903 -0.00559 0.06554
 H51 H 0.03499 0.05845 0.00464
 H52 H -0.03898 0.00610 -0.06958
 H53 H 0.00056 0.09138 0.04122
 H54 H -0.00174 0.09642 -0.02055
 H55 H -0.00291 -0.09593 0.01629
 H56 H 0.00138 -0.09102 -0.04573
 C57 C 0.25076 0.26047 0.13435
 C58 C 0.25043 0.23790 0.36471
 C59 C 0.18518 0.30375 0.20289
 C60 C 0.18516 0.20243 0.19238
 C61 C 0.18511 0.29610 0.30660
 C62 C 0.31569 0.29213 0.31043
 C63 C 0.31559 0.19646 0.29942
 C64 C 0.31563 0.30203 0.19988
 C65 C 0.18501 0.19473 0.29582
 C66 C 0.31584 0.20585 0.18894
 O67 O 0.21103 0.30134 0.31580
 O68 O 0.17758 0.27618 0.28343
 O69 O 0.21090 0.18749 0.30305
 O70 O 0.17746 0.21768 0.27687
 O71 O 0.28993 0.20032 0.17995
 O72 O 0.32327 0.22401 0.21400
 O73 O 0.25033 0.21385 0.34540
 O74 O 0.25012 0.26527 0.35234
 O75 O 0.25042 0.23314 0.14691
 O76 O 0.25063 0.28444 0.15384
 O77 O 0.28977 0.29757 0.31943
 O78 O 0.32321 0.27420 0.28519
 O79 O 0.21111 0.31092 0.19581
 O80 O 0.17755 0.28085 0.22190
 O81 O 0.28970 0.30914 0.19272
 O82 O 0.32313 0.28010 0.22052
 O83 O 0.28965 0.18930 0.30657
 O84 O 0.32308 0.21832 0.27868
 O85 O 0.25148 0.16991 0.18351
 O86 O 0.25127 0.15959 0.29240
 O87 O 0.25152 0.32842 0.31550
 O88 O 0.25136 0.33875 0.20674
 O89 O 0.22619 0.28890 0.25458
 O90 O 0.22618 0.20953 0.24452
 O91 O 0.27419 0.28861 0.25460
 O92 O 0.22449 0.25348 0.20250
 O93 O 0.17762 0.22242 0.21547
 O94 O 0.21110 0.19703 0.18331
 O95 O 0.27646 0.25354 0.20225
 O96 O 0.27635 0.24476 0.29685
 O97 O 0.27419 0.20970 0.24461
 O98 O 0.22436 0.24488 0.29656
 Zr99 Zr 0.25039 0.21595 0.19901
 Zr100 Zr 0.25028 0.28234 0.30014
 Zr101 Zr 0.20214 0.24925 0.24948
 Zr102 Zr 0.25038 0.29081 0.20866
 Zr103 Zr 0.25028 0.20752 0.29051
 Zr104 Zr 0.29860 0.24915 0.24956
 H105 H 0.28544 0.30748 0.25676
 H106 H 0.21167 0.25517 0.18195
 H107 H 0.28544 0.19082 0.24252
 H108 H 0.21148 0.24322 0.31705
 H109 H 0.25182 0.15811 0.20574
 H110 H 0.24841 0.15288 0.26777
 H111 H 0.24836 0.34547 0.23134
 H112 H 0.25187 0.34017 0.29323
 C113 C 0.50521 0.01136 0.11598
 C114 C 0.49858 -0.01411 -0.11302
 C115 C 0.56659 0.05556 0.04470
 C116 C 0.57035 -0.04460 0.05779
 C117 C 0.56446 0.04639 -0.05911
 C118 C 0.43333 0.03881 -0.05610
 C119 C 0.43653 -0.05705 -0.04454
 C120 C 0.43624 0.04874 0.05420
 C121 C 0.56742 -0.05510 -0.04745
 C122 C 0.44144 -0.04640 0.06978
 O123 O 0.53798 0.05131 -0.06654
 O124 O 0.57284 0.02624 -0.03663
 O125 O 0.54137 -0.06287 -0.05324
 O126 O 0.57472 -0.03176 -0.02882
 O127 O 0.46780 -0.04639 0.07826
 O128 O 0.43157 -0.03315 0.04155
 O129 O 0.49982 -0.03806 -0.09349
 O130 O 0.49857 0.01329 -0.10099
 O131 O 0.50673 -0.01604 0.10409
 O132 O 0.50334 0.03519 0.09641
 O133 O 0.45888 0.04455 -0.06647
 O134 O 0.42689 0.02060 -0.03036
 O135 O 0.54062 0.06194 0.05263
 O136 O 0.57444 0.03298 0.02524
 O137 O 0.46213 0.05736 0.05923
 O138 O 0.42880 0.02578 0.03510
 O139 O 0.46249 -0.06338 -0.05264
 O140 O 0.42887 -0.03568 -0.02336
 O141 O 0.50433 -0.08001 0.06703
 O142 O 0.50206 -0.09193 -0.03964
 O143 O 0.49620 0.07643 -0.06570
 O144 O 0.49887 0.08843 0.04118
 O145 O 0.52479 0.03866 -0.00527
 O146 O 0.52764 -0.04057 0.00612
 O147 O 0.47635 0.03619 -0.00277
 O148 O 0.52921 0.00448 0.04698
 O149 O 0.57669 -0.02562 0.03288
 O150 O 0.54477 -0.04996 0.06816
 O151 O 0.47717 0.00239 0.04999
 O152 O 0.47445 -0.00775 -0.04377
 O153 O 0.47956 -0.04221 0.00878
 O154 O 0.52650 -0.00582 -0.04645
 Zr155 Zr 0.50488 -0.03368 0.05249
 Zr156 Zr 0.49941 0.03072 -0.04920
 Zr157 Zr 0.55023 -0.00020 -0.00072
 Zr158 Zr 0.50165 0.04055 0.04149
 Zr159 Zr 0.50189 -0.04396 -0.03849
 Zr160 Zr 0.45316 -0.00421 0.00458
 H161 H 0.46446 0.05464 -0.00455
 H162 H 0.54257 0.00693 0.06686
 H163 H 0.46924 -0.06157 0.01226
 H164 H 0.53874 -0.00728 -0.06756
 H165 H 0.50845 -0.09139 0.04515
 H166 H 0.50667 -0.09837 -0.01532
 H167 H 0.50329 0.09462 0.01670
 H168 H 0.49508 0.08851 -0.04375
 C169 C 0.75040 0.23880 0.13552
 C170 C 0.75048 0.26160 0.36506
 C171 C 0.68465 0.29673 0.19285
 C172 C 0.68486 0.19603 0.20275
 C173 C 0.68473 0.30451 0.29748
 C174 C 0.81532 0.30268 0.29998
 C175 C 0.81556 0.20693 0.31129
 C176 C 0.81540 0.29277 0.18899
 C177 C 0.68470 0.20379 0.30776
 C178 C 0.81529 0.19761 0.20043
 O179 O 0.71066 0.31170 0.30457
 O180 O 0.67716 0.28186 0.27804
 O181 O 0.71063 0.19839 0.31688
 O182 O 0.67716 0.22353 0.28437
 O183 O 0.78936 0.19049 0.19325
 O184 O 0.82274 0.21930 0.22135
 O185 O 0.75010 0.23423 0.35285
 O186 O 0.75030 0.28567 0.34576
 O187 O 0.75038 0.21473 0.15482
 O188 O 0.74989 0.26617 0.14773
 O189 O 0.78940 0.30991 0.30715
 O190 O 0.82273 0.28091 0.27915
 O191 O 0.71058 0.30212 0.18369
 O192 O 0.67715 0.27693 0.21622
 O193 O 0.78950 0.29843 0.18005
 O194 O 0.82279 0.27499 0.21448
 O195 O 0.78955 0.20144 0.32014
 O196 O 0.82274 0.22517 0.28607
 O197 O 0.75095 0.16053 0.20869
 O198 O 0.75098 0.17096 0.31673
 O199 O 0.75096 0.33986 0.29206
 O200 O 0.75115 0.32948 0.18408
 O201 O 0.72571 0.28993 0.24512
 O202 O 0.72574 0.21045 0.25547
 O203 O 0.77386 0.28968 0.24511
 O204 O 0.72412 0.24590 0.20339
 O205 O 0.67720 0.21854 0.22238
 O206 O 0.71080 0.18883 0.19580
 O207 O 0.77595 0.24578 0.20309
 O208 O 0.77598 0.25459 0.29751
 O209 O 0.77387 0.21063 0.25543
 O210 O 0.72413 0.25449 0.29718
 Zr211 Zr 0.74999 0.20849 0.20960
 Zr212 Zr 0.74996 0.29191 0.29098
 Zr213 Zr 0.70171 0.25019 0.25028
 Zr214 Zr 0.74994 0.28342 0.19967
 Zr215 Zr 0.75000 0.21697 0.30090
 Zr216 Zr 0.79815 0.25013 0.25028
 H217 H 0.78518 0.30851 0.24287
 H218 H 0.71133 0.24431 0.18282
 H219 H 0.78516 0.19177 0.25758
 H220 H 0.71134 0.25614 0.31776
 H221 H 0.74640 0.15409 0.23305
 H222 H 0.75172 0.15911 0.29459
 H223 H 0.75183 0.34124 0.20628
 H224 H 0.74653 0.34637 0.26770
 C225 C 0.00047 0.48813 0.11511
 C226 C 0.00094 0.51123 -0.11518
 C227 C -0.06496 0.44464 0.04610
 C228 C -0.06482 0.54632 0.05732
 C229 C -0.06500 0.45421 -0.05792
 C230 C 0.06582 0.45577 -0.06018
 C231 C 0.06577 0.55219 -0.04975
 C232 C 0.06557 0.44769 0.05048
 C233 C -0.06470 0.55446 -0.04645
 C234 C 0.06578 0.54244 0.06128
 O235 O -0.03908 0.44857 -0.06693
 O236 O -0.07243 0.47366 -0.03424
 O237 O -0.03877 0.56156 -0.05363
 O238 O -0.07233 0.53162 -0.02730
 O239 O 0.03986 0.54786 0.07034
 O240 O 0.07318 0.52474 0.03574
 O241 O 0.00066 0.53517 -0.09560
 O242 O 0.00074 0.48387 -0.10268
 O243 O 0.00027 0.51552 0.10282
 O244 O 0.00012 0.46410 0.09578
 O245 O 0.03991 0.45049 -0.06940
 O246 O 0.07322 0.47411 -0.03526
 O247 O -0.03905 0.43749 0.05333
 O248 O -0.07245 0.46783 0.02739
 O249 O 0.03966 0.44040 0.05757
 O250 O 0.07308 0.46913 0.02924
 O251 O 0.03986 0.55945 -0.05681
 O252 O 0.07322 0.53032 -0.02902
 O253 O 0.00164 0.57883 0.06620
 O254 O 0.00159 0.58935 -0.04242
 O255 O 0.00106 0.42052 -0.06610
 O256 O 0.00166 0.41000 0.04254
 O257 O -0.02387 0.46002 -0.00511
 O258 O -0.02373 0.53942 0.00521
 O259 O 0.02415 0.46019 -0.00493
 O260 O -0.02562 0.49532 0.04714
 O261 O -0.07238 0.52642 0.03418
 O262 O -0.03890 0.55165 0.06645
 O263 O 0.02630 0.49517 0.04726
 O264 O 0.02651 0.50412 -0.04730
 O265 O 0.02428 0.53915 0.00521
 O266 O -0.02540 0.50413 -0.04686
 Zr267 Zr 0.00036 0.53278 0.05074
 Zr268 Zr 0.00041 0.46656 -0.05059
 Zr269 Zr -0.04781 0.49977 0.00012
 Zr270 Zr 0.00021 0.45794 0.04091
 Zr271 Zr 0.00048 0.54141 -0.04072
 Zr272 Zr 0.04857 0.49965 0.00004
 H273 H 0.03539 0.44129 -0.00686
 H274 H -0.03853 0.49353 0.06760
 H275 H 0.03560 0.55797 0.00740
 H276 H -0.03816 0.50601 -0.06744
 H277 H 0.00195 0.59062 0.04396
 H278 H -0.00168 0.59600 -0.01785
 H279 H -0.00152 0.40335 0.01795
 H280 H 0.00094 0.40871 -0.04387
 C281 C 0.24581 0.73905 0.13449
 C282 C 0.25303 0.76394 0.36350
 C283 C 0.18051 0.79463 0.19376
 C284 C 0.18403 0.69391 0.20662
 C285 C 0.18402 0.80542 0.29731
 C286 C 0.31479 0.80644 0.29478
 C287 C 0.31758 0.70949 0.30537
 C288 C 0.30943 0.79706 0.18151
 C289 C 0.18692 0.70506 0.31138
 C290 C 0.31430 0.70157 0.19552
 O291 O 0.21001 0.81328 0.30311
 O292 O 0.17642 0.78181 0.27947
 O293 O 0.21329 0.69996 0.31872
 O294 O 0.17819 0.72399 0.28781
 O295 O 0.28837 0.69312 0.19036
 O296 O 0.32191 0.72394 0.21529
 O297 O 0.25338 0.73655 0.35141
 O298 O 0.25134 0.78788 0.34404
 O299 O 0.24689 0.71511 0.15393
 O300 O 0.24494 0.76644 0.14651
 O301 O 0.28890 0.81285 0.30304
 O302 O 0.32231 0.78511 0.27346
 O303 O 0.20596 0.80037 0.18336
 O304 O 0.17402 0.77535 0.21816
 O305 O 0.28295 0.80015 0.17458
 O306 O 0.31948 0.78098 0.20751
 O307 O 0.29209 0.70427 0.31624
 O308 O 0.32402 0.72806 0.27997
 O309 O 0.25187 0.66166 0.20821
 O310 O 0.25422 0.67319 0.31553
 O311 O 0.24958 0.84172 0.29059
 O312 O 0.24507 0.83019 0.18312
 O313 O 0.22343 0.79047 0.24472
 O314 O 0.22608 0.71119 0.25582
 O315 O 0.27162 0.79200 0.24184
 O316 O 0.22153 0.74574 0.20350
 O317 O 0.17636 0.71676 0.22580
 O318 O 0.20994 0.68771 0.19824
 O319 O 0.27349 0.74767 0.20034
 O320 O 0.27679 0.75744 0.29426
 O321 O 0.27435 0.71349 0.25290
 O322 O 0.22471 0.75575 0.29700
 Zr323 Zr 0.24890 0.70953 0.20874
 Zr324 Zr 0.24939 0.79377 0.28907
 Zr325 Zr 0.20072 0.75008 0.25144
 Zr326 Zr 0.24600 0.78400 0.19822
 Zr327 Zr 0.25172 0.71911 0.29962
 Zr328 Zr 0.29772 0.75371 0.24575
 H329 H 0.28212 0.81127 0.23860
 H330 H 0.20810 0.74328 0.18368
 H331 H 0.28606 0.69490 0.25436
 H332 H 0.21263 0.75749 0.31822
 H333 H 0.24838 0.65517 0.23281
 H334 H 0.25393 0.66125 0.29345
 H335 H 0.24383 0.84179 0.20539
 H336 H 0.24588 0.84835 0.26609
 C337 C 0.49871 0.51272 0.11392
 C338 C 0.49844 0.48843 -0.11542
 C339 C 0.56450 0.55554 0.04531
 C340 C 0.56439 0.45430 0.05732
 C341 C 0.56461 0.54534 -0.05913
 C342 C 0.43388 0.54458 -0.06124
 C343 C 0.43385 0.44748 -0.04991
 C344 C 0.43383 0.55288 0.04891
 C345 C 0.56420 0.44574 -0.04706
 C346 C 0.43373 0.45787 0.06049
 O347 O 0.53873 0.55098 -0.06825
 O348 O 0.57201 0.52617 -0.03511
 O349 O 0.53828 0.43861 -0.05414
 O350 O 0.57186 0.46844 -0.02779
 O351 O 0.45963 0.45249 0.06961
 O352 O 0.42626 0.47565 0.03502
 O353 O 0.49879 0.46446 -0.09594
 O354 O 0.49866 0.51585 -0.10338
 O355 O 0.49897 0.48528 0.10193
 O356 O 0.49908 0.53668 0.09446
 O357 O 0.45981 0.54980 -0.07043
 O358 O 0.42638 0.52611 -0.03640
 O359 O 0.53857 0.56275 0.05244
 O360 O 0.57198 0.53243 0.02653
 O361 O 0.45975 0.56023 0.05589
 O362 O 0.42637 0.53118 0.02809
 O363 O 0.45977 0.44019 -0.05683
 O364 O 0.42635 0.46964 -0.02967
 O365 O 0.49799 0.42172 0.06635
 O366 O 0.49812 0.41061 -0.04198
 O367 O 0.49885 0.57936 -0.06769
 O368 O 0.49800 0.59044 0.04055
 O369 O 0.52348 0.54017 -0.00623
 O370 O 0.52331 0.46071 0.00483
 O371 O 0.47537 0.54000 -0.00611
 O372 O 0.52507 0.50510 0.04632
 O373 O 0.57190 0.47397 0.03383
 O374 O 0.53844 0.44896 0.06644
 O375 O 0.47319 0.50525 0.04632
 O376 O 0.47306 0.49586 -0.04807
 O377 O 0.47523 0.46109 0.00477
 O378 O 0.52493 0.49583 -0.04746
 Zr379 Zr 0.49915 0.46764 0.05020
 Zr380 Zr 0.49918 0.53341 -0.05159
 Zr381 Zr 0.54734 0.50037 -0.00055
 Zr382 Zr 0.49927 0.54250 0.03965
 Zr383 Zr 0.49906 0.45856 -0.04104
 Zr384 Zr 0.45091 0.50057 -0.00086
 H385 H 0.46419 0.55894 -0.00822
 H386 H 0.53792 0.50694 0.06681
 H387 H 0.46395 0.44225 0.00713
 H388 H 0.53765 0.49388 -0.06806
 H389 H 0.49747 0.40975 0.04429
 H390 H 0.50176 0.40418 -0.01739
 H391 H 0.50173 0.59690 0.01598
 H392 H 0.49880 0.59131 -0.04561
 C393 C 0.75171 0.76135 0.13487
 C394 C 0.75071 0.73835 0.36449
 C395 C 0.68619 0.80553 0.20278
 C396 C 0.68531 0.70468 0.19110
 C397 C 0.68535 0.79583 0.30755
 C398 C 0.81600 0.79340 0.31022
 C399 C 0.81560 0.69761 0.30065
 C400 C 0.81635 0.80133 0.19909
 C401 C 0.68496 0.69537 0.29547
 C402 C 0.81610 0.70587 0.18973
 O403 O 0.71127 0.80118 0.31669
 O404 O 0.67785 0.77660 0.28365
 O405 O 0.71084 0.68817 0.30292
 O406 O 0.67758 0.71841 0.27645
 O407 O 0.79020 0.70068 0.18041
 O408 O 0.82353 0.72403 0.21479
 O409 O 0.75008 0.71430 0.34526
 O410 O 0.75083 0.76572 0.35218
 O411 O 0.75143 0.73399 0.14718
 O412 O 0.75123 0.78542 0.15408
 O413 O 0.79008 0.79874 0.31931
 O414 O 0.82350 0.77512 0.28528
 O415 O 0.71218 0.81225 0.19565
 O416 O 0.67830 0.78264 0.22178
 O417 O 0.79049 0.80881 0.19213
 O418 O 0.82373 0.77989 0.22045
 O419 O 0.78963 0.69036 0.30753
 O420 O 0.82319 0.71909 0.27949
 O421 O 0.75122 0.67062 0.18377
 O422 O 0.75148 0.66021 0.29193
 O423 O 0.75141 0.82910 0.31565
 O424 O 0.75281 0.83951 0.20751
 O425 O 0.72661 0.78981 0.25462
 O426 O 0.72624 0.71035 0.24442
 O427 O 0.77472 0.78928 0.25478
 O428 O 0.72501 0.75444 0.20255
 O429 O 0.67785 0.72417 0.21476
 O430 O 0.71125 0.69894 0.18229
 O431 O 0.77688 0.75413 0.20260
 O432 O 0.77649 0.74532 0.29703
 O433 O 0.77439 0.71027 0.24482
 O434 O 0.72460 0.74565 0.29639
 Zr435 Zr 0.75069 0.71670 0.19913
 Zr436 Zr 0.75063 0.78305 0.30020
 Zr437 Zr 0.70241 0.75026 0.24932
 Zr438 Zr 0.75104 0.79158 0.20887
 Zr439 Zr 0.75030 0.70815 0.29047
 Zr440 Zr 0.79891 0.74965 0.24993
 H441 H 0.78607 0.80810 0.25670
 H442 H 0.71231 0.75641 0.18193
 H443 H 0.78558 0.69132 0.24297
 H444 H 0.71173 0.74384 0.31687
 H445 H 0.75131 0.65886 0.20603
 H446 H 0.74763 0.65361 0.26748
 H447 H 0.74884 0.84614 0.23193
 H448 H 0.75173 0.84089 0.29342
 C449 C -0.00109 0.01273 0.38423
 C450 C -0.00055 -0.01068 0.61426
 C451 C -0.06659 0.05629 0.45333
 C452 C -0.06624 -0.04570 0.44206
 C453 C -0.06658 0.04644 0.55735
 C454 C 0.06418 0.04488 0.55972
 C455 C 0.06431 -0.05124 0.54897
 C456 C 0.06396 0.05324 0.44910
 C457 C -0.06621 -0.05379 0.54575
 C458 C 0.06436 -0.04133 0.43816
 O459 O -0.04068 0.05201 0.56638
 O460 O -0.07405 0.02705 0.53362
 O461 O -0.04026 -0.06088 0.55285
 O462 O -0.07389 -0.03093 0.52665
 O463 O 0.03848 -0.04688 0.42909
 O464 O 0.07169 -0.02358 0.46364
 O465 O -0.00089 -0.03466 0.59486
 O466 O -0.00081 0.01674 0.60205
 O467 O -0.00126 -0.01464 0.39652
 O468 O -0.00145 0.03677 0.40354
 O469 O 0.03827 0.05024 0.56891
 O470 O 0.07155 0.02663 0.53470
 O471 O -0.04067 0.06338 0.44603
 O472 O -0.07409 0.03307 0.47201
 O473 O 0.03807 0.06050 0.44186
 O474 O 0.07143 0.03182 0.47035
 O475 O 0.03843 -0.05863 0.55605
 O476 O 0.07166 -0.02935 0.52825
 O477 O 0.00028 -0.07790 0.43288
 O478 O 0.00016 -0.08865 0.54140
 O479 O -0.00065 0.08019 0.56557
 O480 O -0.00005 0.09087 0.45687
 O481 O -0.02548 0.04073 0.50450
 O482 O -0.02524 -0.03862 0.49407
 O483 O 0.02249 0.04068 0.50433
 O484 O -0.02719 0.00552 0.45218
 O485 O -0.07389 -0.02575 0.46510
 O486 O -0.04030 -0.05096 0.43296
 O487 O 0.02474 0.00574 0.45207
 O488 O 0.02491 -0.00337 0.54664
 O489 O 0.02278 -0.03831 0.49407
 O490 O -0.02697 -0.00343 0.54615
 Zr491 Zr -0.00112 -0.03191 0.44857
 Zr492 Zr -0.00120 0.03416 0.54999
 Zr493 Zr -0.04942 0.00099 0.49920
 Zr494 Zr -0.00141 0.04293 0.45845
 Zr495 Zr -0.00103 -0.04070 0.53997
 Zr496 Zr 0.04693 0.00126 0.49933
 H497 H 0.03372 0.05958 0.50634
 H498 H -0.04010 0.00730 0.43174
 H499 H 0.03416 -0.05711 0.49185
 H500 H -0.03972 -0.00535 0.56674
 H501 H 0.00084 -0.08976 0.45506
 H502 H -0.00330 -0.09521 0.51683
 H503 H -0.00313 0.09750 0.48149
 H504 H -0.00082 0.09202 0.54336
 C505 C 0.25048 0.23678 0.86639
 C506 C 0.25113 0.25989 0.63635
 C507 C 0.18471 0.19445 0.79789
 C508 C 0.18540 0.29552 0.80832
 C509 C 0.18522 0.20218 0.69389
 C510 C 0.31595 0.20559 0.69058
 C511 C 0.31612 0.30118 0.70190
 C512 C 0.31515 0.19442 0.80164
 C513 C 0.18564 0.30340 0.70476
 C514 C 0.31597 0.29084 0.81273
 O515 O 0.21115 0.19664 0.68487
 O516 O 0.17775 0.22211 0.71707
 O517 O 0.21161 0.31045 0.69767
 O518 O 0.17792 0.28051 0.72373
 O519 O 0.29004 0.29647 0.82151
 O520 O 0.32352 0.27282 0.78760
 O521 O 0.25115 0.28391 0.65572
 O522 O 0.25054 0.23251 0.64865
 O523 O 0.25025 0.26416 0.85410
 O524 O 0.25027 0.21274 0.84708
 O525 O 0.29004 0.20018 0.68154
 O526 O 0.32349 0.22324 0.71602
 O527 O 0.21056 0.18692 0.80499
 O528 O 0.17740 0.21740 0.77877
 O529 O 0.28911 0.18763 0.80859
 O530 O 0.32291 0.21639 0.78101
 O531 O 0.29020 0.30828 0.69469
 O532 O 0.32356 0.27924 0.72271
 O533 O 0.25194 0.32740 0.81775
 O534 O 0.25206 0.33808 0.70919
 O535 O 0.25164 0.16930 0.68526
 O536 O 0.25071 0.15858 0.79350
 O537 O 0.22612 0.20883 0.74617
 O538 O 0.22654 0.28822 0.75648
 O539 O 0.27422 0.20880 0.74642
 O540 O 0.22446 0.24411 0.79832
 O541 O 0.17783 0.27565 0.78514
 O542 O 0.21133 0.30066 0.81758
 O543 O 0.27641 0.24364 0.79883
 O544 O 0.27675 0.25274 0.70440
 O545 O 0.27459 0.28763 0.75665
 O546 O 0.22476 0.25297 0.70432
 Zr547 Zr 0.25054 0.28142 0.80205
 Zr548 Zr 0.25049 0.21533 0.70079
 Zr549 Zr 0.20232 0.24869 0.75124
 Zr550 Zr 0.25012 0.20654 0.79221
 Zr551 Zr 0.25082 0.29014 0.71064
 Zr552 Zr 0.29891 0.24806 0.75174
 H553 H 0.28539 0.18987 0.74421
 H554 H 0.21155 0.24253 0.81881
 H555 H 0.28593 0.30644 0.75891
 H556 H 0.21198 0.25477 0.68376
 H557 H 0.25261 0.33927 0.79558
 H558 H 0.24867 0.34465 0.73377
 H559 H 0.24696 0.15212 0.76897
 H560 H 0.25212 0.15748 0.70747
 C561 C 0.50011 -0.01169 0.38611
 C562 C 0.49903 0.01032 0.61591
 C563 C 0.56560 -0.05514 0.45456
 C564 C 0.56545 0.04608 0.44365
 C565 C 0.56536 -0.04579 0.55914
 C566 C 0.43466 -0.04453 0.56080
 C567 C 0.43454 0.05183 0.55030
 C568 C 0.43507 -0.05254 0.45020
 C569 C 0.56493 0.05395 0.54806
 C570 C 0.43482 0.04232 0.43970
 O571 O 0.53946 -0.05153 0.56805
 O572 O 0.57285 -0.02643 0.53536
 O573 O 0.53899 0.06099 0.55516
 O574 O 0.57267 0.03138 0.52862
 O575 O 0.46074 0.04793 0.43081
 O576 O 0.42734 0.02437 0.46500
 O577 O 0.49938 0.03448 0.59669
 O578 O 0.49937 -0.01698 0.60351
 O579 O 0.50037 0.01564 0.39839
 O580 O 0.50037 -0.03581 0.40531
 O581 O 0.46053 -0.04996 0.57002
 O582 O 0.42725 -0.02609 0.53596
 O583 O 0.53970 -0.06225 0.44723
 O584 O 0.57304 -0.03221 0.47366
 O585 O 0.46101 -0.05976 0.44314
 O586 O 0.42753 -0.03116 0.47145
 O587 O 0.46040 0.05908 0.55754
 O588 O 0.42718 0.02996 0.52963
 O589 O 0.49904 0.07886 0.43490
 O590 O 0.49879 0.08897 0.54354
 O591 O 0.49951 -0.07999 0.56673
 O592 O 0.49912 -0.09011 0.45858
 O593 O 0.52443 -0.04023 0.50606
 O594 O 0.52421 0.03930 0.49595
 O595 O 0.47633 -0.04013 0.50574
 O596 O 0.52616 -0.00472 0.45395
 O597 O 0.57294 0.02627 0.46698
 O598 O 0.53953 0.05148 0.43450
 O599 O 0.47432 -0.00490 0.45362
 O600 O 0.47387 0.00368 0.54813
 O601 O 0.47618 0.03892 0.49576
 O602 O 0.52573 0.00376 0.54785
 Zr603 Zr 0.50022 0.03277 0.45036
 Zr604 Zr 0.50000 -0.03386 0.55139
 Zr605 Zr 0.54828 -0.00038 0.50097
 Zr606 Zr 0.50038 -0.04218 0.46005
 Zr607 Zr 0.49983 0.04104 0.54178
 Zr608 Zr 0.45194 -0.00064 0.50072
 H609 H 0.46511 -0.05905 0.50761
 H610 H 0.53909 -0.00640 0.43350
 H611 H 0.46486 0.05775 0.49353
 H612 H 0.53838 0.00556 0.56853
 H613 H 0.49869 0.09059 0.45714
 H614 H 0.50214 0.09571 0.51899
 H615 H 0.50301 -0.09679 0.48302
 H616 H 0.49945 -0.09168 0.54447
 C617 C 0.74857 0.26216 0.86508
 C618 C 0.74920 0.23847 0.63563
 C619 C 0.68276 0.20395 0.80743
 C620 C 0.68333 0.30490 0.79686
 C621 C 0.68345 0.19590 0.70347
 C622 C 0.81390 0.19762 0.70115
 C623 C 0.81408 0.29284 0.68907
 C624 C 0.81375 0.20799 0.81199
 C625 C 0.68337 0.29655 0.69239
 C626 C 0.81384 0.30296 0.79997
 O627 O 0.70938 0.18864 0.69659
 O628 O 0.67578 0.21868 0.72262
 O629 O 0.70931 0.30192 0.68329
 O630 O 0.67581 0.27690 0.71587
 O631 O 0.78792 0.31024 0.80709
 O632 O 0.82122 0.28115 0.77921
 O633 O 0.74878 0.26589 0.64770
 O634 O 0.74899 0.21448 0.65507
 O635 O 0.74861 0.28616 0.84566
 O636 O 0.74807 0.23475 0.85301
 O637 O 0.78801 0.19041 0.69394
 O638 O 0.82129 0.21942 0.72191
 O639 O 0.70868 0.19856 0.81681
 O640 O 0.67543 0.22384 0.78411
 O641 O 0.78783 0.20230 0.82091
 O642 O 0.82116 0.22570 0.78647
 O643 O 0.78820 0.29847 0.67999
 O644 O 0.82137 0.27508 0.71463
 O645 O 0.74954 0.34016 0.79188
 O646 O 0.74978 0.32937 0.68366
 O647 O 0.74961 0.16053 0.70895
 O648 O 0.74939 0.17133 0.81722
 O649 O 0.72421 0.21064 0.75566
 O650 O 0.72433 0.29009 0.74489
 O651 O 0.77232 0.21083 0.75585
 O652 O 0.72251 0.25486 0.79719
 O653 O 0.67571 0.28218 0.77760
 O654 O 0.70923 0.31211 0.80390
 O655 O 0.77434 0.25487 0.79761
 O656 O 0.77459 0.24574 0.70322
 O657 O 0.77242 0.28987 0.74503
 O658 O 0.72277 0.24589 0.70338
 Zr659 Zr 0.74848 0.29221 0.79083
 Zr660 Zr 0.74859 0.20849 0.70991
 Zr661 Zr 0.70028 0.25040 0.75020
 Zr662 Zr 0.74825 0.21728 0.80119
 Zr663 Zr 0.74863 0.28338 0.69952
 Zr664 Zr 0.79662 0.25033 0.75047
 H665 H 0.78363 0.19200 0.75821
 H666 H 0.70962 0.25657 0.81766
 H667 H 0.78376 0.30868 0.74275
 H668 H 0.71001 0.24414 0.68279
 H669 H 0.74565 0.34665 0.76737
 H670 H 0.75022 0.34124 0.70580
 H671 H 0.75011 0.15942 0.79513
 H672 H 0.74560 0.15409 0.73346
 C673 C 0.00177 0.51063 0.38632
 C674 C 0.00036 0.48809 0.61649
 C675 C -0.06400 0.55434 0.45420
 C676 C -0.06459 0.45400 0.44311
 C677 C -0.06459 0.54635 0.55806
 C678 C 0.06602 0.54187 0.56266
 C679 C 0.06555 0.44705 0.55223
 C680 C 0.06674 0.55118 0.45165
 C681 C -0.06503 0.44467 0.54726
 C682 C 0.06614 0.45494 0.44148
 O683 O -0.03868 0.55166 0.56729
 O684 O -0.07209 0.52640 0.53496
 O685 O -0.03917 0.43743 0.55470
 O686 O -0.07234 0.46783 0.52837
 O687 O 0.04024 0.44981 0.43214
 O688 O 0.07354 0.47320 0.46649
 O689 O 0.00002 0.46401 0.59724
 O690 O 0.00026 0.51545 0.60408
 O691 O 0.00137 0.48327 0.39869
 O692 O 0.00153 0.53471 0.40557
 O693 O 0.04011 0.54746 0.57155
 O694 O 0.07347 0.52402 0.53730
 O695 O -0.03801 0.56133 0.44710
 O696 O -0.07173 0.53158 0.47342
 O697 O 0.04088 0.55877 0.44453
 O698 O 0.07390 0.52928 0.47247
 O699 O 0.03959 0.43990 0.55930
 O700 O 0.07316 0.46842 0.53097
 O701 O 0.00131 0.42000 0.43550
 O702 O 0.00143 0.40970 0.54418
 O703 O 0.00200 0.57859 0.56729
 O704 O 0.00254 0.58898 0.45874
 O705 O -0.02325 0.53920 0.50620
 O706 O -0.02366 0.45975 0.49619
 O707 O 0.02477 0.53867 0.50649
 O708 O -0.02484 0.50383 0.45428
 O709 O -0.07207 0.47353 0.46669
 O710 O -0.03866 0.44828 0.43427
 O711 O 0.02703 0.50354 0.45412
 O712 O 0.02643 0.49478 0.54871
 O713 O 0.02433 0.45966 0.49662
 O714 O -0.02548 0.49517 0.54829
 Zr715 Zr 0.00079 0.46610 0.45082
 Zr716 Zr 0.00061 0.53253 0.55191
 Zr717 Zr -0.04747 0.49963 0.50111
 Zr718 Zr 0.00119 0.54105 0.46041
 Zr719 Zr 0.00023 0.45764 0.54237
 Zr720 Zr 0.04889 0.49899 0.50157
 H721 H 0.03620 0.55742 0.50867
 H722 H -0.03752 0.50571 0.43363
 H723 H 0.03549 0.44070 0.49478
 H724 H -0.03847 0.49350 0.56869
 H725 H 0.00101 0.40826 0.45778
 H726 H -0.00167 0.40300 0.51959
 H727 H -0.00106 0.59565 0.48324
 H728 H 0.00261 0.59035 0.54503
 C729 C 0.24998 0.76250 0.86436
 C730 C 0.24992 0.74018 0.63460
 C731 C 0.18399 0.70559 0.80770
 C732 C 0.18418 0.80652 0.79575
 C733 C 0.18410 0.69611 0.70367
 C734 C 0.31458 0.69919 0.69931
 C735 C 0.31477 0.79487 0.68955
 C736 C 0.31459 0.70660 0.80962
 C737 C 0.18403 0.79689 0.69166
 C738 C 0.31478 0.80288 0.80014
 O739 O 0.21003 0.68914 0.69632
 O740 O 0.17654 0.71919 0.72247
 O741 O 0.20996 0.80254 0.68275
 O742 O 0.17651 0.77737 0.71526
 O743 O 0.28889 0.81033 0.80717
 O744 O 0.32215 0.78134 0.77901
 O745 O 0.24987 0.76749 0.64698
 O746 O 0.24926 0.71605 0.65384
 O747 O 0.24942 0.78661 0.84517
 O748 O 0.24983 0.73516 0.85209
 O749 O 0.28867 0.69192 0.69229
 O750 O 0.32207 0.72071 0.72037
 O751 O 0.20991 0.69995 0.81656
 O752 O 0.17645 0.72515 0.78413
 O753 O 0.28867 0.70140 0.81885
 O754 O 0.32207 0.72516 0.78487
 O755 O 0.28890 0.80034 0.68035
 O756 O 0.32219 0.77647 0.71443
 O757 O 0.25090 0.84083 0.79181
 O758 O 0.25008 0.83053 0.68355
 O759 O 0.25055 0.66165 0.70691
 O760 O 0.24975 0.67187 0.81583
 O761 O 0.22507 0.71151 0.75473
 O762 O 0.22515 0.79097 0.74452
 O763 O 0.27307 0.71160 0.75457
 O764 O 0.22347 0.75556 0.79660
 O765 O 0.17662 0.78349 0.77686
 O766 O 0.21013 0.81340 0.80317
 O767 O 0.27535 0.75547 0.79693
 O768 O 0.27534 0.74682 0.70240
 O769 O 0.27324 0.79063 0.74465
 O770 O 0.22342 0.74695 0.70267
 Zr771 Zr 0.24937 0.79290 0.79044
 Zr772 Zr 0.24923 0.70958 0.70873
 Zr773 Zr 0.20110 0.75127 0.74968
 Zr774 Zr 0.24930 0.71792 0.80016
 Zr775 Zr 0.24937 0.78445 0.69908
 Zr776 Zr 0.29750 0.75103 0.74970
 H777 H 0.28425 0.69265 0.75647
 H778 H 0.21067 0.75745 0.81713
 H779 H 0.28455 0.80949 0.74274
 H780 H 0.21064 0.74509 0.68212
 H781 H 0.24720 0.84749 0.76731
 H782 H 0.25031 0.84229 0.70577
 H783 H 0.24962 0.66007 0.79363
 H784 H 0.24775 0.65487 0.73156
 C785 C 0.49796 0.48955 0.38422
 C786 C 0.49813 0.51176 0.61383
 C787 C 0.56383 0.44622 0.45185
 C788 C 0.56430 0.54614 0.44098
 C789 C 0.56383 0.45409 0.55648
 C790 C 0.43315 0.45708 0.55936
 C791 C 0.43341 0.55270 0.54921
 C792 C 0.43339 0.44836 0.44878
 C793 C 0.56405 0.55527 0.54564
 C794 C 0.43380 0.54636 0.43885
 O795 O 0.53787 0.44866 0.56546
 O796 O 0.57142 0.47390 0.53320
 O797 O 0.53812 0.56239 0.55286
 O798 O 0.57155 0.53234 0.52658
 O799 O 0.45978 0.55117 0.42966
 O800 O 0.42610 0.52760 0.46342
 O801 O 0.49860 0.53587 0.59461
 O802 O 0.49833 0.48443 0.60149
 O803 O 0.49823 0.51690 0.39649
 O804 O 0.49834 0.46545 0.40343
 O805 O 0.45906 0.45180 0.56850
 O806 O 0.42568 0.47524 0.53414
 O807 O 0.53789 0.43921 0.44460
 O808 O 0.57143 0.46877 0.47142
 O809 O 0.45933 0.44103 0.44200
 O810 O 0.42583 0.47042 0.46914
 O811 O 0.45934 0.55991 0.55627
 O812 O 0.42585 0.53124 0.52811
 O813 O 0.49875 0.58023 0.43304
 O814 O 0.49759 0.59020 0.54147
 O815 O 0.49745 0.42130 0.56488
 O816 O 0.49761 0.41121 0.45684
 O817 O 0.52284 0.46088 0.50404
 O818 O 0.52310 0.54041 0.49395
 O819 O 0.47468 0.46140 0.50385
 O820 O 0.52457 0.49645 0.45212
 O821 O 0.57167 0.52677 0.46483
 O822 O 0.53842 0.55179 0.43189
 O823 O 0.47265 0.49658 0.45148
 O824 O 0.47262 0.50506 0.54595
 O825 O 0.47500 0.54028 0.49399
 O826 O 0.52458 0.50482 0.54601
 Zr827 Zr 0.49887 0.53411 0.44845
 Zr828 Zr 0.49856 0.46739 0.54942
 Zr829 Zr 0.54694 0.50055 0.49907
 Zr830 Zr 0.49864 0.45915 0.45814
 Zr831 Zr 0.49883 0.54227 0.53983
 Zr832 Zr 0.45032 0.50094 0.49864
 H833 H 0.46342 0.44252 0.50589
 H834 H 0.53730 0.49466 0.43150
 H835 H 0.46393 0.55931 0.49218
 H836 H 0.53738 0.50649 0.56656
 H837 H 0.49894 0.59194 0.45530
 H838 H 0.50121 0.59693 0.51698
 H839 H 0.50177 0.40461 0.48124
 H840 H 0.49688 0.40957 0.54265
 C841 C 0.75098 0.73762 0.86456
 C842 C 0.75027 0.76154 0.63504
 C843 C 0.68495 0.69448 0.79574
 C844 C 0.68504 0.79492 0.80890
 C845 C 0.68461 0.70427 0.69176
 C846 C 0.81537 0.70608 0.68904
 C847 C 0.81522 0.80160 0.69903
 C848 C 0.81551 0.69755 0.79992
 C849 C 0.68476 0.80476 0.70457
 C850 C 0.81570 0.79307 0.80991
 O851 O 0.71050 0.69874 0.68258
 O852 O 0.67724 0.72357 0.71567
 O853 O 0.71065 0.81183 0.69713
 O854 O 0.67723 0.78168 0.72334
 O855 O 0.78983 0.79833 0.81930
 O856 O 0.82306 0.77493 0.78479
 O857 O 0.74969 0.78553 0.65439
 O858 O 0.75029 0.73413 0.64722
 O859 O 0.75096 0.76502 0.85237
 O860 O 0.75026 0.71362 0.84525
 O861 O 0.78944 0.70076 0.67993
 O862 O 0.82283 0.72424 0.71408
 O863 O 0.71088 0.68734 0.80295
 O864 O 0.67738 0.71763 0.77711
 O865 O 0.78963 0.69012 0.80695
 O866 O 0.82293 0.71908 0.77875
 O867 O 0.78929 0.80903 0.69228
 O868 O 0.82276 0.78005 0.72011
 O869 O 0.75105 0.82858 0.81618
 O870 O 0.75142 0.83940 0.70778
 O871 O 0.75057 0.67059 0.68344
 O872 O 0.75161 0.65975 0.79180
 O873 O 0.72586 0.70990 0.74462
 O874 O 0.72591 0.78936 0.75529
 O875 O 0.77395 0.71008 0.74452
 O876 O 0.72440 0.74503 0.79691
 O877 O 0.67745 0.77567 0.78503
 O878 O 0.71101 0.80050 0.81759
 O879 O 0.77624 0.74496 0.79689
 O880 O 0.77596 0.75417 0.70248
 O881 O 0.77400 0.78908 0.75488
 O882 O 0.72411 0.75417 0.70306
 Zr883 Zr 0.75029 0.78257 0.80053
 Zr884 Zr 0.74997 0.71660 0.69910
 Zr885 Zr 0.70192 0.74965 0.75012
 Zr886 Zr 0.75017 0.70768 0.79041
 Zr887 Zr 0.74996 0.79147 0.70924
 Zr888 Zr 0.79829 0.74957 0.74957
 H889 H 0.78522 0.69120 0.74247
 H890 H 0.71165 0.74303 0.81750
 H891 H 0.78528 0.80795 0.75680
 H892 H 0.71123 0.75617 0.68261
 H893 H 0.75094 0.84043 0.79398
 H894 H 0.74812 0.84601 0.73236
 H895 H 0.74809 0.65317 0.76726
 H896 H 0.75067 0.65874 0.70563
 C897 C 0.00013 0.01009 0.17508
 C898 C 0.00012 0.00574 0.21185
 C899 C 0.00028 -0.02409 0.22587
 C900 C 0.00052 -0.04902 0.20294
 C901 C 0.00051 -0.04455 0.16649
 C902 C 0.00027 -0.01501 0.15204
 C903 C 0.00015 -0.02857 0.26254
 C904 C -0.00016 -0.00358 0.28550
 C905 C -0.00026 0.02625 0.27150
 C906 C -0.00011 0.03073 0.23482
 C907 C -0.00053 0.05117 0.29446
 C908 C -0.00078 0.04666 0.33092
 C909 C -0.00077 0.01711 0.34533
 C910 C -0.00042 -0.00796 0.32226
 H911 H -0.00004 0.03299 0.16448
 H912 H 0.00066 -0.07204 0.21320
 H913 H 0.00066 -0.06438 0.14961
 H914 H 0.00024 -0.05148 0.27318
 H915 H -0.00021 0.05364 0.22418
 H916 H -0.00058 0.07419 0.28422
 H917 H -0.00099 0.06647 0.34784
 H918 H -0.00036 -0.03088 0.33282
 C919 C 0.25096 0.23934 1.07548
 C920 C 0.25104 0.24372 1.03871
 C921 C 0.25119 0.27352 1.02471
 C922 C 0.25130 0.29842 1.04759
 C923 C 0.25121 0.29401 1.08403
 C924 C 0.25099 0.26443 1.09881
 C925 C 0.25118 0.27801 0.98805
 C926 C 0.25100 0.25304 0.96508
 C927 C 0.25090 0.22321 0.97906
 C928 C 0.25093 0.21873 1.01573
 C929 C 0.25073 0.19830 0.95610
 C930 C 0.25062 0.20282 0.91965
 C931 C 0.25068 0.23238 0.90527
 C932 C 0.25090 0.25744 0.92834
 H933 H 0.25083 0.21628 1.08569
 H934 H 0.25143 0.32143 1.03729
 H935 H 0.25127 0.31411 1.10053
 H936 H 0.25127 0.30093 0.97741
 H937 H 0.25082 0.19581 1.02636
 H938 H 0.25066 0.17527 0.96633
 H939 H 0.25047 0.18302 0.90272
 H940 H 0.25097 0.28037 0.91779
 C941 C 0.08161 0.08643 0.09790
 C942 C 0.10331 0.10419 0.11266
 C943 C 0.13189 0.09640 0.10645
 C944 C 0.13825 0.07085 0.08586
 C945 C 0.11657 0.05349 0.07097
 C946 C 0.08801 0.06116 0.07654
 C947 C 0.15363 0.11442 0.12060
 C948 C 0.14718 0.14024 0.14083
 C949 C 0.11859 0.14793 0.14714
 C950 C 0.09687 0.12988 0.13307
 C951 C 0.11217 0.17359 0.16749
 C952 C 0.13380 0.19140 0.18168
 C953 C 0.16238 0.18408 0.17571
 C954 C 0.16886 0.15842 0.15500
 H955 H 0.05975 0.09282 0.10232
 H956 H 0.16002 0.06449 0.08087
 H957 H 0.12223 0.03419 0.05474
 H958 H 0.17554 0.10842 0.11574
 H959 H 0.07496 0.13590 0.13788
 H960 H 0.09038 0.17981 0.17261
 H961 H 0.12804 0.21091 0.19752
 H962 H 0.19074 0.15227 0.15032
 C963 C 0.33158 0.34622 0.16287
 C964 C 0.35302 0.36421 0.14802
 C965 C 0.38168 0.35662 0.15398
 C966 C 0.38839 0.33124 0.17474
 C967 C 0.36694 0.31348 0.18947
 C968 C 0.33832 0.32072 0.18373
 C969 C 0.40315 0.37440 0.13896
 C970 C 0.39635 0.39957 0.11783
 C971 C 0.36770 0.40724 0.11196
 C972 C 0.34621 0.38960 0.12721
 C973 C 0.36102 0.43224 0.09053
 C974 C 0.38249 0.44909 0.07442
 C975 C 0.41107 0.44145 0.07967
 C976 C 0.41779 0.41684 0.10191
 H977 H 0.30965 0.35220 0.15821
 H978 H 0.41024 0.32510 0.17957
 H979 H 0.37285 0.29403 0.20540
 H980 H 0.42514 0.36849 0.14344
 H981 H 0.32423 0.39544 0.12261
 H982 H 0.33918 0.43848 0.08581
 H983 H 0.37666 0.46797 0.05754
 H984 H 0.43970 0.41051 0.10610
 C985 C 0.33228 0.16332 0.14989
 C986 C 0.35400 0.14609 0.13443
 C987 C 0.38248 0.15511 0.13875
 C988 C 0.38872 0.18130 0.15827
 C989 C 0.36703 0.19810 0.17396
 C990 C 0.33861 0.18923 0.17016
 C991 C 0.40426 0.13764 0.12384
 C992 C 0.39794 0.11112 0.10486
 C993 C 0.36945 0.10213 0.10054
 C994 C 0.34767 0.11970 0.11525
 C995 C 0.36319 0.07564 0.08162
 C996 C 0.38489 0.05822 0.06695
 C997 C 0.41337 0.06688 0.07090
 C998 C 0.41968 0.09344 0.09009
 H999 H 0.31052 0.15602 0.14691
 H1000 H 0.41042 0.18859 0.16182
 H1001 H 0.37256 0.21797 0.18932
 H1002 H 0.42611 0.14458 0.12721
 H1003 H 0.32583 0.11272 0.11197
 H1004 H 0.34147 0.06841 0.07807
 H1005 H 0.37927 0.03798 0.05232
 H1006 H 0.44146 0.10054 0.09336
 C1007 C 0.16884 0.34339 0.16033
 C1008 C 0.14732 0.36050 0.14455
 C1009 C 0.11909 0.35720 0.15629
 C1010 C 0.11294 0.33697 0.18381
 C1011 C 0.13448 0.31983 0.19923
 C1012 C 0.16258 0.32274 0.18751
 C1013 C 0.09748 0.37395 0.14014
 C1014 C 0.10373 0.39381 0.11227
 C1015 C 0.13199 0.39720 0.10067
 C1016 C 0.15361 0.38057 0.11693
 C1017 C 0.13817 0.41710 0.07288
 C1018 C 0.11655 0.43348 0.05660
 C1019 C 0.08834 0.43020 0.06777
 C1020 C 0.08212 0.41028 0.09573
 H1021 H 0.19038 0.34578 0.15092
 H1022 H 0.09144 0.33422 0.19321
 H1023 H 0.12910 0.30422 0.22032
 H1024 H 0.07581 0.37138 0.14907
 H1025 H 0.17527 0.38308 0.10794
 H1026 H 0.15970 0.41996 0.06367
 H1027 H 0.12197 0.44861 0.03507
 H1028 H 0.06050 0.40768 0.10478
 C1029 C 0.33183 0.15246 0.33653
 C1030 C 0.35342 0.13479 0.35156
 C1031 C 0.38201 0.14279 0.34581
 C1032 C 0.38852 0.16822 0.32507
 C1033 C 0.36694 0.18566 0.31017
 C1034 C 0.33837 0.17803 0.31571
 C1035 C 0.40364 0.12535 0.36102
 C1036 C 0.39705 0.10013 0.38214
 C1037 C 0.36847 0.09204 0.38779
 C1038 C 0.34683 0.10934 0.37236
 C1039 C 0.36199 0.06698 0.40918
 C1040 C 0.38358 0.05044 0.42545
 C1041 C 0.41210 0.05850 0.42042
 C1042 C 0.41863 0.08320 0.39824
 H1043 H 0.30995 0.14618 0.34102
 H1044 H 0.41032 0.17467 0.32040
 H1045 H 0.37270 0.20518 0.29427
 H1046 H 0.42557 0.13159 0.35670
 H1047 H 0.32490 0.10318 0.37680
 H1048 H 0.34021 0.06041 0.41374
 H1049 H 0.37789 0.03148 0.44228
 H1050 H 0.44048 0.08982 0.39422
 C1051 C 0.16904 0.33995 0.34438
 C1052 C 0.14750 0.35830 0.35858
 C1053 C 0.11886 0.35113 0.35185
 C1054 C 0.11227 0.32579 0.33105
 C1055 C 0.13378 0.30779 0.31683
 C1056 C 0.16240 0.31460 0.32323
 C1057 C 0.09727 0.36937 0.36594
 C1058 C 0.10391 0.39474 0.38680
 C1059 C 0.13253 0.40200 0.39344
 C1060 C 0.15414 0.38379 0.37926
 C1061 C 0.13908 0.42723 0.41446
 C1062 C 0.11752 0.44478 0.42935
 C1063 C 0.08891 0.43763 0.42335
 C1064 C 0.08233 0.41269 0.40157
 H1065 H 0.19096 0.34571 0.34941
 H1066 H 0.09044 0.31996 0.32560
 H1067 H 0.12791 0.28854 0.30064
 H1068 H 0.07532 0.36375 0.36082
 H1069 H 0.17608 0.38938 0.38444
 H1070 H 0.16090 0.43318 0.41978
 H1071 H 0.12331 0.46382 0.44592
 H1072 H 0.06043 0.40670 0.39681
 C1073 C 0.16826 0.15579 0.33886
 C1074 C 0.14658 0.13892 0.35459
 C1075 C 0.11853 0.14177 0.34206
 C1076 C 0.11272 0.16133 0.31379
 C1077 C 0.13442 0.17829 0.29845
 C1078 C 0.16232 0.17582 0.31099
 C1079 C 0.09675 0.12527 0.35819
 C1080 C 0.10267 0.10613 0.38682
 C1081 C 0.13076 0.10320 0.39920
 C1082 C 0.15253 0.11956 0.38297
 C1083 C 0.13661 0.08401 0.42775
 C1084 C 0.11484 0.06785 0.44397
 C1085 C 0.08681 0.07066 0.43198
 C1086 C 0.08089 0.08990 0.40333
 H1087 H 0.18965 0.15380 0.34889
 H1088 H 0.09137 0.16373 0.30377
 H1089 H 0.12931 0.19341 0.27679
 H1090 H 0.07522 0.12750 0.34866
 H1091 H 0.17406 0.11740 0.39256
 H1092 H 0.15801 0.08152 0.43757
 H1093 H 0.12000 0.05324 0.46607
 H1094 H 0.05941 0.09211 0.39367
 C1095 C 0.33151 0.33337 0.35139
 C1096 C 0.35290 0.35070 0.36719
 C1097 C 0.38156 0.34296 0.36155
 C1098 C 0.38830 0.31784 0.34045
 C1099 C 0.36688 0.30091 0.32444
 C1100 C 0.33829 0.30862 0.32949
 C1101 C 0.40300 0.36066 0.37670
 C1102 C 0.39614 0.38616 0.39719
 C1103 C 0.36746 0.39381 0.40292
 C1104 C 0.34603 0.37598 0.38800
 C1105 C 0.36069 0.41930 0.42339
 C1106 C 0.38210 0.43708 0.43807
 C1107 C 0.41073 0.42976 0.43257
 C1108 C 0.41753 0.40417 0.41198
 H1109 H 0.30959 0.33974 0.35541
 H1110 H 0.41015 0.31154 0.33589
 H1111 H 0.37275 0.28193 0.30781
 H1112 H 0.42500 0.35477 0.37228
 H1113 H 0.32404 0.38194 0.39231
 H1114 H 0.33883 0.42549 0.42804
 H1115 H 0.37616 0.45659 0.45382
 H1116 H 0.43946 0.39812 0.40752
 C1117 C 0.50314 -0.00898 0.17769
 C1118 C 0.50305 -0.00459 0.21431
 C1119 C 0.50585 0.02508 0.22821
 C1120 C 0.50868 0.04985 0.20522
 C1121 C 0.50861 0.04533 0.16880
 C1122 C 0.50580 0.01592 0.15464
 C1123 C 0.50571 0.02953 0.26482
 C1124 C 0.50276 0.00466 0.28773
 C1125 C 0.49994 -0.02500 0.27378
 C1126 C 0.50010 -0.02944 0.23720
 C1127 C 0.49701 -0.04980 0.29667
 C1128 C 0.49700 -0.04535 0.33306
 C1129 C 0.49986 -0.01598 0.34737
 C1130 C 0.50265 0.00898 0.32439
 H1131 H 0.50082 -0.03177 0.16721
 H1132 H 0.51088 0.07275 0.21539
 H1133 H 0.51079 0.06495 0.15172
 H1134 H 0.50787 0.05230 0.27545
 H1135 H 0.49791 -0.05221 0.22656
 H1136 H 0.49478 -0.07267 0.28643
 H1137 H 0.49469 -0.06504 0.35001
 H1138 H 0.50491 0.03174 0.33496
 C1139 C 0.75008 0.25953 1.07370
 C1140 C 0.75004 0.25518 1.03703
 C1141 C 0.75061 0.22536 1.02312
 C1142 C 0.75125 0.20041 1.04608
 C1143 C 0.75125 0.20489 1.08249
 C1144 C 0.75063 0.23444 1.09676
 C1145 C 0.75048 0.22091 0.98652
 C1146 C 0.74976 0.24592 0.96357
 C1147 C 0.74922 0.27575 0.97746
 C1148 C 0.74937 0.28020 1.01407
 C1149 C 0.74850 0.30068 0.95447
 C1150 C 0.74830 0.29617 0.91806
 C1151 C 0.74880 0.26661 0.90383
 C1152 C 0.74954 0.24155 0.92691
 H1153 H 0.74960 0.28243 1.08421
 H1154 H 0.75171 0.17741 1.03590
 H1155 H 0.75171 0.18507 1.09947
 H1156 H 0.75091 0.19801 0.97592
 H1157 H 0.74894 0.30310 1.02467
 H1158 H 0.74808 0.32369 0.96464
 H1159 H 0.74771 0.31597 0.90105
 H1160 H 0.74998 0.21863 0.91643
 C1161 C 0.58264 0.09343 0.08943
 C1162 C 0.60397 0.11023 0.10602
 C1163 C 0.63199 0.10877 0.09312
 C1164 C 0.63812 0.09065 0.06371
 C1165 C 0.61678 0.07371 0.04754
 C1166 C 0.58890 0.07481 0.06034
 C1167 C 0.65344 0.12522 0.11001
 C1168 C 0.64721 0.14302 0.13968
 C1169 C 0.61916 0.14454 0.15250
 C1170 C 0.59772 0.12813 0.13558
 C1171 C 0.61302 0.16252 0.18201
 C1172 C 0.63442 0.17905 0.19857
 C1173 C 0.66238 0.17771 0.18605
 C1174 C 0.66861 0.15946 0.15664
 H1175 H 0.56128 0.09430 0.09979
 H1176 H 0.65947 0.08932 0.05343
 H1177 H 0.62215 0.05964 0.02510
 H1178 H 0.67495 0.12410 0.10015
 H1179 H 0.57621 0.12922 0.14547
 H1180 H 0.59164 0.16391 0.19219
 H1181 H 0.62908 0.19287 0.22124
 H1182 H 0.69003 0.15844 0.14650
 C1183 C -0.16819 0.33150 0.14479
 C1184 C -0.14653 0.34814 0.12839
 C1185 C -0.11796 0.34159 0.13638
 C1186 C -0.11154 0.31821 0.16020
 C1187 C -0.13320 0.30194 0.17666
 C1188 C -0.16174 0.30860 0.16948
 C1189 C -0.09630 0.35882 0.12092
 C1190 C -0.10283 0.38275 0.09782
 C1191 C -0.13138 0.38909 0.08952
 C1192 C -0.15304 0.37165 0.10470
 C1193 C -0.13781 0.41305 0.06649
 C1194 C -0.11622 0.43090 0.05222
 C1195 C -0.08773 0.42510 0.06062
 C1196 C -0.08124 0.40071 0.08327
 H1197 H -0.19005 0.33696 0.13895
 H1198 H -0.08977 0.31282 0.16655
 H1199 H -0.12753 0.28437 0.19541
 H1200 H -0.07440 0.35391 0.12728
 H1201 H -0.17494 0.37669 0.09852
 H1202 H -0.15956 0.41818 0.05975
 H1203 H -0.12193 0.44936 0.03468
 H1204 H -0.05942 0.39586 0.09000
 C1205 C 0.91821 0.08678 0.09776
 C1206 C 0.89666 0.10405 0.11348
 C1207 C 0.86810 0.09829 0.10472
 C1208 C 0.86158 0.07535 0.08047
 C1209 C 0.88312 0.05838 0.06482
 C1210 C 0.91167 0.06390 0.07317
 C1211 C 0.84652 0.11562 0.12019
 C1212 C 0.85312 0.13873 0.14426
 C1213 C 0.88167 0.14451 0.15302
 C1214 C 0.90325 0.12711 0.13764
 C1215 C 0.88817 0.16765 0.17703
 C1216 C 0.86662 0.18492 0.19228
 C1217 C 0.83809 0.17939 0.18386
 C1218 C 0.83156 0.15616 0.15970
 H1219 H 0.94007 0.09143 0.10445
 H1220 H 0.83981 0.07064 0.07344
 H1221 H 0.87735 0.04098 0.04597
 H1222 H 0.82462 0.11117 0.11342
 H1223 H 0.92515 0.13159 0.14437
 H1224 H 0.90993 0.17240 0.18405
 H1225 H 0.87237 0.20258 0.21081
 H1226 H 0.80972 0.15160 0.15283
 C1227 C 0.66819 0.33962 0.15379
 C1228 C 0.64646 0.35759 0.13934
 C1229 C 0.61790 0.35054 0.14680
 C1230 C 0.61155 0.32563 0.16847
 C1231 C 0.63323 0.30801 0.18291
 C1232 C 0.66179 0.31478 0.17589
 C1233 C 0.59615 0.36854 0.13263
 C1234 C 0.60255 0.39357 0.11106
 C1235 C 0.63111 0.40062 0.10360
 C1236 C 0.65286 0.38262 0.11778
 C1237 C 0.63746 0.42552 0.08193
 C1238 C 0.61579 0.44311 0.06744
 C1239 C 0.58722 0.43632 0.07442
 C1240 C 0.58082 0.41151 0.09656
 H1241 H 0.69004 0.34530 0.14823
 H1242 H 0.58979 0.31989 0.17448
 H1243 H 0.62754 0.28911 0.19982
 H1244 H 0.57426 0.36306 0.13839
 H1245 H 0.67475 0.38810 0.11201
 H1246 H 0.65923 0.43127 0.07594
 H1247 H 0.62149 0.46200 0.05051
 H1248 H 0.55897 0.40582 0.10209
 C1249 C -0.16967 0.17028 0.35513
 C1250 C -0.14801 0.15320 0.37104
 C1251 C -0.11957 0.15825 0.36120
 C1252 C -0.11321 0.18049 0.33602
 C1253 C -0.13479 0.19710 0.31991
 C1254 C -0.16349 0.19207 0.32871
 C1255 C -0.09795 0.14066 0.37624
 C1256 C -0.10440 0.11776 0.40072
 C1257 C -0.13282 0.11280 0.41080
 C1258 C -0.15442 0.13067 0.39608
 C1259 C -0.13917 0.08976 0.43513
 C1260 C -0.11766 0.07154 0.44901
 C1261 C -0.08931 0.07604 0.43897
 C1262 C -0.08289 0.09947 0.41493
 H1263 H -0.19138 0.16581 0.36279
 H1264 H -0.09150 0.18473 0.32829
 H1265 H -0.12875 0.21368 0.30012
 H1266 H -0.07615 0.14449 0.36848
 H1267 H -0.17623 0.12672 0.40369
 H1268 H -0.16082 0.08567 0.44323
 H1269 H -0.12330 0.05386 0.46765
 H1270 H -0.06118 0.10329 0.40686
 C1271 C 0.66791 0.34228 0.34219
 C1272 C 0.64621 0.35889 0.35844
 C1273 C 0.61821 0.35656 0.34564
 C1274 C 0.61242 0.33770 0.31679
 C1275 C 0.63410 0.32104 0.30094
 C1276 C 0.66202 0.32307 0.31351
 C1277 C 0.59644 0.37301 0.36195
 C1278 C 0.60230 0.39174 0.39094
 C1279 C 0.63030 0.39406 0.40375
 C1280 C 0.65207 0.37761 0.38744
 C1281 C 0.63609 0.41292 0.43260
 C1282 C 0.61442 0.42960 0.44844
 C1283 C 0.58651 0.42760 0.43585
 C1284 C 0.58061 0.40838 0.40718
 H1285 H 0.68929 0.34391 0.35233
 H1286 H 0.59110 0.33569 0.30660
 H1287 H 0.62898 0.30654 0.27878
 H1288 H 0.57497 0.37124 0.35210
 H1289 H 0.67354 0.37939 0.39730
 H1290 H 0.65741 0.41492 0.44280
 H1291 H 0.61956 0.44410 0.47059
 H1292 H 0.55923 0.40677 0.39703
 C1293 C 0.66849 0.16112 0.34710
 C1294 C 0.64690 0.14308 0.36161
 C1295 C 0.61830 0.14984 0.35402
 C1296 C 0.61179 0.17457 0.33217
 C1297 C 0.63336 0.19229 0.31765
 C1298 C 0.66194 0.18575 0.32479
 C1299 C 0.59669 0.13172 0.36823
 C1300 C 0.60327 0.10687 0.38996
 C1301 C 0.63187 0.10011 0.39757
 C1302 C 0.65349 0.11823 0.38336
 C1303 C 0.63838 0.07537 0.41942
 C1304 C 0.61680 0.05764 0.43390
 C1305 C 0.58823 0.06416 0.42672
 C1306 C 0.58168 0.08880 0.40444
 H1307 H 0.69037 0.15564 0.35275
 H1308 H 0.59000 0.18010 0.32607
 H1309 H 0.62757 0.21104 0.30057
 H1310 H 0.57477 0.13696 0.36237
 H1311 H 0.67541 0.11299 0.38922
 H1312 H 0.66017 0.06986 0.42554
 H1313 H 0.62258 0.03887 0.45097
 H1314 H 0.55980 0.09428 0.39875
 C1315 C -0.16820 0.34467 0.33978
 C1316 C -0.14652 0.36199 0.35506
 C1317 C -0.11797 0.35545 0.34694
 C1318 C -0.11160 0.33170 0.32369
 C1319 C -0.13328 0.31456 0.30859
 C1320 C -0.16180 0.32083 0.31640
 C1321 C -0.09626 0.37269 0.36221
 C1322 C -0.10271 0.39635 0.38564
 C1323 C -0.13127 0.40289 0.39374
 C1324 C -0.15298 0.38573 0.37836
 C1325 C -0.13765 0.42641 0.41728
 C1326 C -0.11598 0.44315 0.43295
 C1327 C -0.08745 0.43681 0.42530
 C1328 C -0.08103 0.41339 0.40135
 H1329 H -0.19003 0.34982 0.34613
 H1330 H -0.08985 0.32637 0.31717
 H1331 H -0.12761 0.29640 0.29068
 H1332 H -0.07437 0.36762 0.35599
 H1333 H -0.17487 0.39076 0.38464
 H1334 H -0.15941 0.43173 0.42378
 H1335 H -0.12166 0.46100 0.45127
 H1336 H -0.05918 0.40812 0.39523
 C1337 C 0.00128 0.50865 0.17717
 C1338 C 0.00155 0.50414 0.21391
 C1339 C 0.00136 0.47425 0.22776
 C1340 C 0.00096 0.44943 0.20469
 C1341 C 0.00070 0.45407 0.16827
 C1342 C 0.00080 0.48367 0.15399
 C1343 C 0.00152 0.46963 0.26441
 C1344 C 0.00186 0.49453 0.28751
 C1345 C 0.00213 0.52441 0.27365
 C1346 C 0.00199 0.52903 0.23700
 C1347 C 0.00247 0.54924 0.29670
 C1348 C 0.00245 0.54462 0.33312
 C1349 C 0.00209 0.51504 0.34743
 C1350 C 0.00186 0.49003 0.32426
 H1351 H 0.00142 0.53161 0.16671
 H1352 H 0.00084 0.42637 0.21482
 H1353 H 0.00039 0.43431 0.15126
 H1354 H 0.00133 0.44668 0.27494
 H1355 H 0.00216 0.55199 0.22647
 H1356 H 0.00270 0.57230 0.28656
 H1357 H 0.00266 0.56440 0.35011
 H1358 H 0.00159 0.46708 0.33474
 C1359 C 0.24799 0.75956 1.07280
 C1360 C 0.24804 0.75523 1.03616
 C1361 C 0.24531 0.72556 1.02221
 C1362 C 0.24262 0.70074 1.04514
 C1363 C 0.24270 0.70521 1.08155
 C1364 C 0.24537 0.73461 1.09580
 C1365 C 0.24533 0.72116 0.98560
 C1366 C 0.24805 0.74607 0.96273
 C1367 C 0.25084 0.77572 0.97670
 C1368 C 0.25083 0.78012 1.01330
 C1369 C 0.25354 0.80056 0.95382
 C1370 C 0.25335 0.79614 0.91741
 C1371 C 0.25049 0.76678 0.90310
 C1372 C 0.24796 0.74178 0.92606
 H1373 H 0.25022 0.78234 1.08333
 H1374 H 0.24051 0.67785 1.03492
 H1375 H 0.24060 0.68553 1.09856
 H1376 H 0.24320 0.69840 0.97494
 H1377 H 0.25297 0.80288 1.02396
 H1378 H 0.25574 0.82343 0.96406
 H1379 H 0.25547 0.81586 0.90046
 H1380 H 0.24571 0.71902 0.91548
 C1381 C 0.08198 0.58035 0.10661
 C1382 C 0.10349 0.59715 0.12314
 C1383 C 0.13206 0.59184 0.11403
 C1384 C 0.13865 0.56954 0.08898
 C1385 C 0.11715 0.55309 0.07247
 C1386 C 0.08857 0.55849 0.08075
 C1387 C 0.15354 0.60922 0.12963
 C1388 C 0.14683 0.63209 0.15401
 C1389 C 0.11830 0.63719 0.16345
 C1390 C 0.09682 0.61959 0.14809
 C1391 C 0.11169 0.66012 0.18773
 C1392 C 0.13306 0.67824 0.20207
 C1393 C 0.16152 0.67374 0.19253
 C1394 C 0.16820 0.65029 0.16868
 H1395 H 0.06011 0.58485 0.11336
 H1396 H 0.16044 0.56511 0.08176
 H1397 H 0.12297 0.53640 0.05280
 H1398 H 0.17543 0.60527 0.12240
 H1399 H 0.07492 0.62368 0.15515
 H1400 H 0.08995 0.66428 0.19535
 H1401 H 0.12720 0.69596 0.22048
 H1402 H 0.18999 0.64645 0.16098
 C1403 C 0.39968 0.92237 0.08091
 C1404 C 0.38682 0.90021 0.10307
 C1405 C 0.39683 0.89585 0.13793
 C1406 C 0.41968 0.91293 0.14994
 C1407 C 0.43368 0.93273 0.12727
 C1408 C 0.42444 0.93762 0.09212
 C1409 C 0.38454 0.87381 0.16008
 C1410 C 0.36302 0.85480 0.14759
 C1411 C 0.35363 0.85822 0.11234
 C1412 C 0.36516 0.88116 0.09057
 C1413 C 0.33264 0.83873 0.09952
 C1414 C 0.32017 0.81716 0.12169
 C1415 C 0.32825 0.81443 0.15733
 C1416 C 0.35036 0.83284 0.16992
 H1417 H 0.39229 0.92515 0.05403
 H1418 H 0.42761 0.91000 0.17654
 H1419 H 0.45205 0.94444 0.13764
 H1420 H 0.39214 0.87108 0.18689
 H1421 H 0.35764 0.88378 0.06372
 H1422 H 0.32530 0.84068 0.07254
 H1423 H 0.30314 0.80334 0.11130
 H1424 H 0.35652 0.83132 0.19740
 C1425 C 0.33052 0.66099 0.15384
 C1426 C 0.35214 0.64430 0.13760
 C1427 C 0.38073 0.65085 0.14549
 C1428 C 0.38721 0.67404 0.16939
 C1429 C 0.36560 0.69056 0.18545
 C1430 C 0.33705 0.68420 0.17793
 C1431 C 0.40238 0.63411 0.12947
 C1432 C 0.39582 0.61086 0.10562
 C1433 C 0.36725 0.60433 0.09765
 C1434 C 0.34559 0.62110 0.11367
 C1435 C 0.36081 0.58107 0.07381
 C1436 C 0.38246 0.56439 0.05801
 C1437 C 0.41099 0.57067 0.06574
 C1438 C 0.41745 0.59403 0.08965
 H1439 H 0.30865 0.65586 0.14769
 H1440 H 0.40899 0.67935 0.17575
 H1441 H 0.37133 0.70823 0.20397
 H1442 H 0.42429 0.63913 0.13558
 H1443 H 0.32367 0.61605 0.10757
 H1444 H 0.33904 0.57576 0.06738
 H1445 H 0.37678 0.54656 0.03967
 H1446 H 0.43930 0.59913 0.09594
 C1447 C 0.07968 0.90632 0.09014
 C1448 C 0.10067 0.88809 0.10541
 C1449 C 0.12926 0.89241 0.09570
 C1450 C 0.13638 0.91491 0.07107
 C1451 C 0.11535 0.93299 0.05600
 C1452 C 0.08682 0.92883 0.06526
 C1453 C 0.15029 0.87420 0.11078
 C1454 C 0.14313 0.85185 0.13559
 C1455 C 0.11460 0.84750 0.14545
 C1456 C 0.09349 0.86562 0.13019
 C1457 C 0.10777 0.82522 0.17057
 C1458 C 0.12907 0.80764 0.18608
 C1459 C 0.15752 0.81195 0.17651
 C1460 C 0.16425 0.83401 0.15097
 H1461 H 0.05780 0.90287 0.09766
 H1462 H 0.15820 0.91850 0.06340
 H1463 H 0.12147 0.95006 0.03686
 H1464 H 0.17223 0.87752 0.10333
 H1465 H 0.07156 0.86235 0.13769
 H1466 H 0.08600 0.82159 0.17847
 H1467 H 0.12327 0.79088 0.20575
 H1468 H 0.18606 0.83775 0.14329
 C1469 C 0.33371 0.66639 0.34422
 C1470 C 0.35489 0.64733 0.35803
 C1471 C 0.38357 0.65331 0.35030
 C1472 C 0.39049 0.67832 0.32885
 C1473 C 0.36922 0.69698 0.31479
 C1474 C 0.34056 0.69125 0.32219
 C1475 C 0.40476 0.63410 0.36395
 C1476 C 0.39759 0.60891 0.38513
 C1477 C 0.36884 0.60295 0.39264
 C1478 C 0.34772 0.62217 0.37910
 C1479 C 0.36166 0.57793 0.41382
 C1480 C 0.38269 0.55921 0.42801
 C1481 C 0.41145 0.56492 0.42122
 C1482 C 0.41867 0.58978 0.39930
 H1483 H 0.31178 0.66130 0.35004
 H1484 H 0.41237 0.68326 0.32259
 H1485 H 0.37522 0.71576 0.29786
 H1486 H 0.42679 0.63874 0.35809
 H1487 H 0.32568 0.61753 0.38496
 H1488 H 0.33971 0.57302 0.41978
 H1489 H 0.37638 0.54040 0.44472
 H1490 H 0.44070 0.59473 0.39390
 C1491 C 0.16779 -0.15040 0.33415
 C1492 C 0.14618 -0.13246 0.34872
 C1493 C 0.11760 -0.13934 0.34125
 C1494 C 0.11113 -0.16386 0.31915
 C1495 C 0.13271 -0.18166 0.30486
 C1496 C 0.16126 -0.17528 0.31230
 C1497 C 0.09593 -0.12183 0.35626
 C1498 C 0.10245 -0.09768 0.37896
 C1499 C 0.13103 -0.09063 0.38622
 C1500 C 0.15271 -0.10795 0.37092
 C1501 C 0.13744 -0.06664 0.40913
 C1502 C 0.11577 -0.05022 0.42538
 C1503 C 0.08723 -0.05732 0.41885
 C1504 C 0.08079 -0.08087 0.39509
 H1505 H 0.18965 -0.14511 0.34014
 H1506 H 0.08934 -0.16941 0.31308
 H1507 H 0.12695 -0.20050 0.28797
 H1508 H 0.07401 -0.12727 0.35066
 H1509 H 0.17463 -0.10262 0.37667
 H1510 H 0.15922 -0.06086 0.41493
 H1511 H 0.12143 -0.03215 0.44342
 H1512 H 0.05893 -0.08673 0.38981
 C1513 C 0.17127 0.66259 0.35169
 C1514 C 0.14961 0.64587 0.36822
 C1515 C 0.12111 0.65511 0.36422
 C1516 C 0.11473 0.68091 0.34416
 C1517 C 0.13625 0.69721 0.32765
 C1518 C 0.16471 0.68819 0.33092
 C1519 C 0.09936 0.63830 0.38002
 C1520 C 0.10560 0.61221 0.39975
 C1521 C 0.13404 0.60298 0.40403
 C1522 C 0.15588 0.61988 0.38829
 C1523 C 0.14011 0.57689 0.42389
 C1524 C 0.11826 0.56010 0.43931
 C1525 C 0.08985 0.56901 0.43511
 C1526 C 0.08376 0.59520 0.41520
 H1527 H 0.19306 0.65529 0.35437
 H1528 H 0.09303 0.68835 0.34091
 H1529 H 0.13045 0.71691 0.31207
 H1530 H 0.07754 0.64543 0.37676
 H1531 H 0.17768 0.61270 0.39146
 H1532 H 0.16176 0.56943 0.42750
 H1533 H 0.12368 0.54003 0.45445
 H1534 H 0.06203 0.60247 0.41177
 C1535 C 0.33140 -0.15533 0.33899
 C1536 C 0.35302 -0.13865 0.35520
 C1537 C 0.38121 -0.14170 0.34323
 C1538 C 0.38724 -0.16128 0.31513
 C1539 C 0.36562 -0.17793 0.29922
 C1540 C 0.33752 -0.17523 0.31104
 C1541 C 0.40290 -0.12527 0.35964
 C1542 C 0.39676 -0.10589 0.38795
 C1543 C 0.36855 -0.10277 0.39981
 C1544 C 0.34687 -0.11916 0.38337
 C1545 C 0.36247 -0.08330 0.42799
 C1546 C 0.38412 -0.06704 0.44432
 C1547 C 0.41230 -0.07002 0.43286
 C1548 C 0.41843 -0.08957 0.40459
 H1549 H 0.30988 -0.15309 0.34852
 H1550 H 0.40871 -0.16385 0.30556
 H1551 H 0.37096 -0.19298 0.27764
 H1552 H 0.42452 -0.12765 0.35049
 H1553 H 0.32525 -0.11681 0.39255
 H1554 H 0.34098 -0.08064 0.43741
 H1555 H 0.37876 -0.05221 0.46610
 H1556 H 0.44001 -0.09195 0.39531
 C1557 C 0.49797 0.49221 0.17573
 C1558 C 0.49774 0.49663 0.21236
 C1559 C 0.49781 0.52647 0.22621
 C1560 C 0.49805 0.55139 0.20319
 C1561 C 0.49830 0.54684 0.16679
 C1562 C 0.49831 0.51725 0.15263
 C1563 C 0.49770 0.53095 0.26281
 C1564 C 0.49755 0.50594 0.28578
 C1565 C 0.49741 0.47610 0.27190
 C1566 C 0.49749 0.47163 0.23532
 C1567 C 0.49727 0.45115 0.29485
 C1568 C 0.49736 0.45565 0.33124
 C1569 C 0.49759 0.48521 0.34548
 C1570 C 0.49762 0.51030 0.32244
 H1571 H 0.49794 0.46928 0.16529
 H1572 H 0.49809 0.57442 0.21332
 H1573 H 0.49851 0.56662 0.14975
 H1574 H 0.49780 0.55386 0.27339
 H1575 H 0.49742 0.44872 0.22474
 H1576 H 0.49715 0.42813 0.28468
 H1577 H 0.49731 0.43582 0.34822
 H1578 H 0.49779 0.53321 0.33295
 C1579 C 0.75209 0.74056 1.07317
 C1580 C 0.75229 0.74485 1.03647
 C1581 C 0.75266 0.77465 1.02240
 C1582 C 0.75296 0.79964 1.04523
 C1583 C 0.75275 0.79521 1.08166
 C1584 C 0.75223 0.76569 1.09609
 C1585 C 0.75265 0.77904 0.98577
 C1586 C 0.75224 0.75399 0.96296
 C1587 C 0.75198 0.72418 0.97702
 C1588 C 0.75202 0.71979 1.01365
 C1589 C 0.75160 0.69921 0.95417
 C1590 C 0.75137 0.70366 0.91773
 C1591 C 0.75148 0.73320 0.90333
 C1592 C 0.75200 0.75830 0.92627
 H1593 H 0.75172 0.71766 1.08380
 H1594 H 0.75329 0.82263 1.03491
 H1595 H 0.75294 0.81506 1.09854
 H1596 H 0.75288 0.80193 0.97504
 H1597 H 0.75175 0.69690 1.02438
 H1598 H 0.75144 0.67620 0.96447
 H1599 H 0.75103 0.68384 0.90083
 H1600 H 0.75214 0.78121 0.91567
 C1601 C 0.58114 0.59733 0.08536
 C1602 C 0.60284 0.61491 0.10027
 C1603 C 0.63118 0.61013 0.08976
 C1604 C 0.63729 0.58799 0.06433
 C1605 C 0.61561 0.57048 0.04976
 C1606 C 0.58732 0.57480 0.06019
 C1607 C 0.65296 0.62736 0.10502
 C1608 C 0.64678 0.64919 0.13087
 C1609 C 0.61840 0.65404 0.14122
 C1610 C 0.59663 0.63696 0.12581
 C1611 C 0.61225 0.67574 0.16709
 C1612 C 0.63397 0.69230 0.18288
 C1613 C 0.66237 0.68761 0.17312
 C1614 C 0.66855 0.66603 0.14682
 H1615 H 0.55949 0.60095 0.09379
 H1616 H 0.65887 0.58406 0.05588
 H1617 H 0.62107 0.55346 0.03029
 H1618 H 0.67470 0.62359 0.09702
 H1619 H 0.57489 0.64065 0.13391
 H1620 H 0.59063 0.67975 0.17533
 H1621 H 0.62844 0.70866 0.20305
 H1622 H 0.69028 0.66209 0.13895
 C1623 C 0.91841 0.90592 0.08753
 C1624 C 0.89708 0.88883 0.10376
 C1625 C 0.86865 0.89263 0.09309
 C1626 C 0.86210 0.91336 0.06619
 C1627 C 0.88348 0.93047 0.05029
 C1628 C 0.91180 0.92704 0.06091
 C1629 C 0.84724 0.87587 0.10968
 C1630 C 0.85390 0.85549 0.13693
 C1631 C 0.88235 0.85159 0.14745
 C1632 C 0.90377 0.86824 0.13076
 C1633 C 0.88891 0.83116 0.17464
 C1634 C 0.86746 0.81480 0.19139
 C1635 C 0.83906 0.81863 0.18131
 C1636 C 0.83249 0.83904 0.15391
 H1637 H 0.94012 0.90309 0.09612
 H1638 H 0.84044 0.91651 0.05763
 H1639 H 0.87779 0.94645 0.02972
 H1640 H 0.82541 0.87884 0.10158
 H1641 H 0.92559 0.86533 0.13892
 H1642 H 0.91060 0.82789 0.18301
 H1643 H 0.87316 0.79927 0.21241
 H1644 H 0.81073 0.84209 0.14565
 C1645 C 0.91909 0.59055 0.09418
 C1646 C 0.89752 0.60891 0.10817
 C1647 C 0.86889 0.60119 0.10218
 C1648 C 0.86234 0.57530 0.08233
 C1649 C 0.88388 0.55730 0.06828
 C1650 C 0.91248 0.56469 0.07393
 C1651 C 0.84728 0.61947 0.11606
 C1652 C 0.85389 0.64537 0.13597
 C1653 C 0.88250 0.65317 0.14187
 C1654 C 0.90413 0.63495 0.12788
 C1655 C 0.88900 0.67893 0.16201
 C1656 C 0.86741 0.69646 0.17682
 C1657 C 0.83885 0.68874 0.17154
 C1658 C 0.83230 0.66331 0.15058
 H1659 H 0.94099 0.59674 0.09857
 H1660 H 0.84052 0.56905 0.07748
 H1661 H 0.87807 0.53760 0.05279
 H1662 H 0.82534 0.61345 0.11152
 H1663 H 0.92607 0.64093 0.13248
 H1664 H 0.91081 0.68530 0.16675
 H1665 H 0.87314 0.71592 0.19276
 H1666 H 0.81042 0.65689 0.14644
 C1667 C 0.58534 0.91880 0.10110
 C1668 C 0.60674 0.90151 0.11688
 C1669 C 0.63506 0.90530 0.10600
 C1670 C 0.64150 0.92661 0.07967
 C1671 C 0.62003 0.94371 0.06380
 C1672 C 0.59149 0.93992 0.07397
 C1673 C 0.65640 0.88748 0.12137
 C1674 C 0.64963 0.86579 0.14727
 C1675 C 0.62125 0.86218 0.15821
 C1676 C 0.60002 0.88016 0.14308
 C1677 C 0.61450 0.84042 0.18390
 C1678 C 0.63561 0.82212 0.19844
 C1679 C 0.66391 0.82531 0.18768
 C1680 C 0.67076 0.84743 0.16216
 H1681 H 0.56375 0.91525 0.10988
 H1682 H 0.66314 0.92985 0.07105
 H1683 H 0.62593 0.95962 0.04323
 H1684 H 0.67817 0.89027 0.11294
 H1685 H 0.57824 0.87727 0.15141
 H1686 H 0.59284 0.83743 0.19261
 H1687 H 0.62972 0.80546 0.21818
 H1688 H 0.69246 0.85014 0.15349
 C1689 C -0.16773 0.66018 0.34615
 C1690 C -0.14600 0.64380 0.36277
 C1691 C -0.11777 0.64722 0.35109
 C1692 C -0.11172 0.66702 0.32315
 C1693 C -0.13340 0.68331 0.30684
 C1694 C -0.16161 0.68006 0.31807
 C1695 C -0.09603 0.63074 0.36742
 C1696 C -0.10215 0.61079 0.39526
 C1697 C -0.13035 0.60747 0.40708
 C1698 C -0.15209 0.62404 0.39083
 C1699 C -0.13637 0.58740 0.43482
 C1700 C -0.11474 0.57044 0.45037
 C1701 C -0.08664 0.57333 0.43861
 C1702 C -0.08050 0.59385 0.41119
 H1703 H -0.18933 0.65757 0.35525
 H1704 H -0.09021 0.66991 0.31387
 H1705 H -0.12802 0.69837 0.28524
 H1706 H -0.07440 0.63330 0.35834
 H1707 H -0.17373 0.62143 0.39985
 H1708 H -0.15784 0.58463 0.44429
 H1709 H -0.12008 0.55497 0.47161
 H1710 H -0.05898 0.59623 0.40174
 C1711 C 0.66887 -0.16563 0.35201
 C1712 C 0.64725 -0.14867 0.36808
 C1713 C 0.61885 -0.15314 0.35764
 C1714 C 0.61253 -0.17457 0.33153
 C1715 C 0.63412 -0.19126 0.31561
 C1716 C 0.66253 -0.18695 0.32550
 C1717 C 0.59722 -0.13597 0.37321
 C1718 C 0.60361 -0.11421 0.39898
 C1719 C 0.63197 -0.10978 0.40957
 C1720 C 0.65361 -0.12711 0.39415
 C1721 C 0.63823 -0.08789 0.43523
 C1722 C 0.61666 -0.07031 0.44999
 C1723 C 0.58837 -0.07434 0.43949
 C1724 C 0.58204 -0.09658 0.41406
 H1725 H 0.69062 -0.16199 0.35997
 H1726 H 0.59088 -0.17828 0.32322
 H1727 H 0.62849 -0.20742 0.29528
 H1728 H 0.57546 -0.13937 0.36506
 H1729 H 0.67538 -0.12363 0.40220
 H1730 H 0.65983 -0.08423 0.44373
 H1731 H 0.62219 -0.05350 0.46966
 H1732 H 0.56038 -0.09996 0.40558
 C1733 C 0.66831 0.65364 0.33547
 C1734 C 0.64664 0.63598 0.35027
 C1735 C 0.61833 0.64063 0.33958
 C1736 C 0.61222 0.66275 0.31406
 C1737 C 0.63389 0.68037 0.29957
 C1738 C 0.66212 0.67613 0.31022
 C1739 C 0.59659 0.62331 0.35477
 C1740 C 0.60280 0.60155 0.38074
 C1741 C 0.63115 0.59682 0.39125
 C1742 C 0.65289 0.61398 0.37589
 C1743 C 0.63732 0.57519 0.41725
 C1744 C 0.61560 0.55857 0.43304
 C1745 C 0.58724 0.56318 0.42309
 C1746 C 0.58106 0.58466 0.39664
 H1747 H 0.68993 0.65010 0.34404
 H1748 H 0.59065 0.66658 0.30547
 H1749 H 0.62847 0.69737 0.28001
 H1750 H 0.57486 0.62697 0.34666
 H1751 H 0.67461 0.61041 0.38411
 H1752 H 0.65893 0.57128 0.42561
 H1753 H 0.62110 0.54226 0.45333
 H1754 H 0.55934 0.58851 0.38865
 C1755 C -0.16811 -0.16394 0.34938
 C1756 C -0.14668 -0.14579 0.36393
 C1757 C -0.11800 -0.15336 0.35806
 C1758 C -0.11129 -0.17913 0.33802
 C1759 C -0.13274 -0.19687 0.32324
 C1760 C -0.16136 -0.18936 0.32847
 C1761 C -0.09654 -0.13488 0.37197
 C1762 C -0.10338 -0.10883 0.39154
 C1763 C -0.13206 -0.10135 0.39751
 C1764 C -0.15351 -0.11988 0.38373
 C1765 C -0.13885 -0.07544 0.41723
 C1766 C -0.11746 -0.05717 0.43118
 C1767 C -0.08880 -0.06432 0.42554
 C1768 C -0.08197 -0.09020 0.40543
 H1769 H -0.19004 -0.15768 0.35349
 H1770 H -0.08944 -0.18532 0.33330
 H1771 H -0.12686 -0.21630 0.30733
 H1772 H -0.07454 -0.14069 0.36739
 H1773 H -0.17551 -0.11404 0.38824
 H1774 H -0.16072 -0.06938 0.42207
 H1775 H -0.12343 -0.03748 0.44659
 H1776 H -0.06002 -0.09621 0.40105
 C1777 C 0.00032 -0.00957 0.82361
 C1778 C 0.00036 -0.00494 0.78683
 C1779 C 0.00033 0.02495 0.77308
 C1780 C 0.00032 0.04969 0.79617
 C1781 C 0.00025 0.04505 0.83257
 C1782 C 0.00018 0.01538 0.84715
 C1783 C 0.00025 0.02971 0.73645
 C1784 C 0.00018 0.00493 0.71322
 C1785 C 0.00027 -0.02500 0.72692
 C1786 C 0.00038 -0.02976 0.76358
 C1787 C 0.00020 -0.04973 0.70370
 C1788 C -0.00002 -0.04494 0.66729
 C1789 C -0.00018 -0.01528 0.65316
 C1790 C -0.00003 0.00960 0.67649
 H1791 H 0.00033 -0.03268 0.83366
 H1792 H 0.00032 0.07277 0.78608
 H1793 H 0.00022 0.06507 0.84919
 H1794 H 0.00019 0.05271 0.72604
 H1795 H 0.00042 -0.05276 0.77397
 H1796 H 0.00028 -0.07283 0.71370
 H1797 H -0.00011 -0.06463 0.65018
 H1798 H -0.00013 0.03260 0.66615
 C1799 C 0.25108 0.25840 0.42693
 C1800 C 0.25114 0.25382 0.46371
 C1801 C 0.25067 0.22392 0.47748
 C1802 C 0.25018 0.19915 0.45433
 C1803 C 0.25013 0.20384 0.41791
 C1804 C 0.25056 0.23345 0.40366
 C1805 C 0.25067 0.21920 0.51414
 C1806 C 0.25112 0.24403 0.53735
 C1807 C 0.25163 0.27394 0.52359
 C1808 C 0.25164 0.27865 0.48692
 C1809 C 0.25207 0.29870 0.54675
 C1810 C 0.25197 0.29399 0.58318
 C1811 C 0.25141 0.26438 0.59741
 C1812 C 0.25103 0.23944 0.57412
 H1813 H 0.25143 0.28137 0.41651
 H1814 H 0.24982 0.17607 0.46440
 H1815 H 0.24972 0.18411 0.40087
 H1816 H 0.25029 0.19622 0.52458
 H1817 H 0.25201 0.30163 0.47648
 H1818 H 0.25248 0.32178 0.53670
 H1819 H 0.25229 0.31372 0.60023
 H1820 H 0.25061 0.21647 0.58452
 C1821 C 0.08083 0.08727 0.59911
 C1822 C 0.10266 0.10480 0.61395
 C1823 C 0.13118 0.09655 0.60811
 C1824 C 0.13736 0.07078 0.58780
 C1825 C 0.11557 0.05367 0.57283
 C1826 C 0.08708 0.06179 0.57804
 C1827 C 0.15306 0.11431 0.62236
 C1828 C 0.14681 0.14034 0.64230
 C1829 C 0.11828 0.14852 0.64822
 C1830 C 0.09641 0.13071 0.63406
 C1831 C 0.11205 0.17439 0.66828
 C1832 C 0.13381 0.19193 0.68260
 C1833 C 0.16234 0.18411 0.67705
 C1834 C 0.16863 0.15825 0.65659
 H1835 H 0.05903 0.09400 0.60322
 H1836 H 0.15909 0.06407 0.58310
 H1837 H 0.12110 0.03418 0.55682
 H1838 H 0.17492 0.10795 0.61779
 H1839 H 0.07455 0.13710 0.63857
 H1840 H 0.09031 0.18100 0.67308
 H1841 H 0.12820 0.21163 0.69821
 H1842 H 0.19046 0.15174 0.65224
 C1843 C 0.33185 0.34475 0.66342
 C1844 C 0.35314 0.36281 0.64816
 C1845 C 0.38185 0.35606 0.65490
 C1846 C 0.38876 0.33141 0.67679
 C1847 C 0.36746 0.31357 0.69190
 C1848 C 0.33877 0.31997 0.68545
 C1849 C 0.40319 0.37396 0.63956
 C1850 C 0.39618 0.39846 0.61738
 C1851 C 0.36746 0.40525 0.61072
 C1852 C 0.34613 0.38745 0.62622
 C1853 C 0.36056 0.42957 0.58834
 C1854 C 0.38186 0.44672 0.57221
 C1855 C 0.41055 0.44008 0.57829
 C1856 C 0.41748 0.41600 0.60134
 H1857 H 0.30989 0.35012 0.65812
 H1858 H 0.41066 0.32591 0.68224
 H1859 H 0.37353 0.29474 0.70871
 H1860 H 0.42522 0.36869 0.64468
 H1861 H 0.32410 0.39266 0.62101
 H1862 H 0.33865 0.43512 0.58297
 H1863 H 0.37580 0.46507 0.55468
 H1864 H 0.43945 0.41040 0.60625
 C1865 C 0.33193 0.16500 0.64895
 C1866 C 0.35341 0.14809 0.63277
 C1867 C 0.38202 0.15604 0.63840
 C1868 C 0.38863 0.18096 0.65985
 C1869 C 0.36712 0.19746 0.67622
 C1870 C 0.33859 0.18951 0.67121
 C1871 C 0.40356 0.13872 0.62293
 C1872 C 0.39685 0.11339 0.60216
 C1873 C 0.36823 0.10553 0.59639
 C1874 C 0.34669 0.12300 0.61162
 C1875 C 0.36163 0.08018 0.57566
 C1876 C 0.38318 0.06268 0.56080
 C1877 C 0.41174 0.07022 0.56641
 C1878 C 0.41836 0.09570 0.58719
 H1879 H 0.31005 0.15848 0.64495
 H1880 H 0.41044 0.18741 0.66438
 H1881 H 0.37287 0.21631 0.69311
 H1882 H 0.42552 0.14475 0.62736
 H1883 H 0.32473 0.11689 0.60732
 H1884 H 0.33982 0.07383 0.57097
 H1885 H 0.37740 0.04321 0.54491
 H1886 H 0.44025 0.10189 0.59171
 C1887 C 0.16920 0.34296 0.66206
 C1888 C 0.14760 0.36005 0.64634
 C1889 C 0.11944 0.35693 0.65839
 C1890 C 0.11341 0.33690 0.68615
 C1891 C 0.13501 0.31977 0.70149
 C1892 C 0.16305 0.32249 0.68947
 C1893 C 0.09775 0.37364 0.64229
 C1894 C 0.10387 0.39330 0.61417
 C1895 C 0.13207 0.39651 0.60228
 C1896 C 0.15375 0.37991 0.61847
 C1897 C 0.13813 0.41620 0.57426
 C1898 C 0.11647 0.43256 0.55805
 C1899 C 0.08831 0.42949 0.56951
 C1900 C 0.08219 0.40975 0.59768
 H1901 H 0.19069 0.34519 0.65242
 H1902 H 0.09198 0.33429 0.69579
 H1903 H 0.12970 0.30432 0.72276
 H1904 H 0.07614 0.37119 0.65146
 H1905 H 0.17536 0.38231 0.60924
 H1906 H 0.15962 0.41892 0.56482
 H1907 H 0.12183 0.44753 0.53635
 H1908 H 0.06061 0.40730 0.60694
 C1909 C 0.41666 0.07903 0.90148
 C1910 C 0.39521 0.09673 0.88604
 C1911 C 0.36662 0.09087 0.89441
 C1912 C 0.36004 0.06725 0.91802
 C1913 C 0.38157 0.04992 0.93362
 C1914 C 0.41015 0.05566 0.92572
 C1915 C 0.34517 0.10890 0.87934
 C1916 C 0.35201 0.13286 0.85619
 C1917 C 0.38066 0.13863 0.84793
 C1918 C 0.40203 0.12050 0.86277
 C1919 C 0.38753 0.16256 0.82499
 C1920 C 0.36630 0.18067 0.81026
 C1921 C 0.33764 0.17528 0.81805
 C1922 C 0.33071 0.15120 0.84120
 H1923 H 0.43851 0.08402 0.89512
 H1924 H 0.33824 0.06241 0.92477
 H1925 H 0.37582 0.03221 0.95215
 H1926 H 0.32322 0.10442 0.88580
 H1927 H 0.42399 0.12504 0.85640
 H1928 H 0.40940 0.16729 0.81841
 H1929 H 0.37241 0.19888 0.79257
 H1930 H 0.30878 0.14665 0.84759
 C1931 C 0.08216 0.41302 0.90081
 C1932 C 0.10382 0.39501 0.88635
 C1933 C 0.13241 0.40281 0.89239
 C1934 C 0.13883 0.42862 0.91250
 C1935 C 0.11719 0.44621 0.92712
 C1936 C 0.08862 0.43852 0.92173
 C1937 C 0.15411 0.38452 0.87856
 C1938 C 0.14760 0.35843 0.85886
 C1939 C 0.11899 0.35073 0.85274
 C1940 C 0.09731 0.36905 0.86646
 C1941 C 0.11250 0.32480 0.83291
 C1942 C 0.13408 0.30674 0.81902
 C1943 C 0.16268 0.31408 0.82479
 C1944 C 0.16923 0.33999 0.84501
 H1945 H 0.06029 0.40661 0.89656
 H1946 H 0.16062 0.43498 0.91735
 H1947 H 0.12288 0.46569 0.94304
 H1948 H 0.17603 0.39052 0.88328
 H1949 H 0.07538 0.36303 0.86181
 H1950 H 0.09069 0.31857 0.82794
 H1951 H 0.12829 0.28702 0.80355
 H1952 H 0.19113 0.34615 0.84951
 C1953 C 0.08033 0.08934 0.90530
 C1954 C 0.10215 0.10501 0.88809
 C1955 C 0.13063 0.09846 0.89642
 C1956 C 0.13686 0.07614 0.92153
 C1957 C 0.11512 0.06041 0.93838
 C1958 C 0.08643 0.06675 0.93072
 C1959 C 0.15247 0.11436 0.87961
 C1960 C 0.14618 0.13675 0.85450
 C1961 C 0.11770 0.14309 0.84583
 C1962 C 0.09586 0.12718 0.86266
 C1963 C 0.11153 0.16546 0.82066
 C1964 C 0.13335 0.18178 0.80467
 C1965 C 0.16176 0.17600 0.81350
 C1966 C 0.16797 0.15314 0.83824
 H1967 H 0.05862 0.09476 0.89852
 H1968 H 0.15859 0.07081 0.92817
 H1969 H 0.12104 0.04330 0.95761
 H1970 H 0.17432 0.10943 0.88620
 H1971 H 0.07401 0.13216 0.85613
 H1972 H 0.08984 0.17054 0.81359
 H1973 H 0.12790 0.19914 0.78555
 H1974 H 0.18974 0.14841 0.84536
 C1975 C 0.41792 0.40297 0.91389
 C1976 C 0.39650 0.38490 0.89926
 C1977 C 0.36784 0.39269 0.90486
 C1978 C 0.36111 0.41834 0.92505
 C1979 C 0.38255 0.43619 0.93957
 C1980 C 0.41116 0.42875 0.93417
 C1981 C 0.34638 0.37483 0.89004
 C1982 C 0.35322 0.34941 0.86944
 C1983 C 0.38187 0.34153 0.86395
 C1984 C 0.40333 0.35925 0.87903
 C1985 C 0.38858 0.31628 0.84305
 C1986 C 0.36714 0.29938 0.82704
 C1987 C 0.33857 0.30724 0.83190
 C1988 C 0.33181 0.33209 0.85365
 H1989 H 0.43984 0.39682 0.90952
 H1990 H 0.33925 0.42463 0.92960
 H1991 H 0.37664 0.45586 0.95507
 H1992 H 0.32440 0.38090 0.89422
 H1993 H 0.42532 0.35326 0.87471
 H1994 H 0.41042 0.30988 0.83862
 H1995 H 0.37299 0.28032 0.81052
 H1996 H 0.30991 0.33858 0.85753
 C1997 C 0.49799 0.00665 0.82502
 C1998 C 0.49768 0.00241 0.78828
 C1999 C 0.49689 -0.02735 0.77426
 C2000 C 0.49630 -0.05234 0.79723
 C2001 C 0.49668 -0.04797 0.83372
 C2002 C 0.49763 -0.01848 0.84811
 C2003 C 0.49682 -0.03167 0.73756
 C2004 C 0.49758 -0.00658 0.71462
 C2005 C 0.49827 0.02318 0.72869
 C2006 C 0.49829 0.02749 0.76536
 C2007 C 0.49902 0.04820 0.70582
 C2008 C 0.49918 0.04390 0.66936
 C2009 C 0.49861 0.01444 0.65484
 C2010 C 0.49775 -0.01075 0.67783
 H2011 H 0.49872 0.02953 0.83557
 H2012 H 0.49565 -0.07532 0.78698
 H2013 H 0.49631 -0.06780 0.85067
 H2014 H 0.49628 -0.05453 0.72687
 H2015 H 0.49888 0.05035 0.77605
 H2016 H 0.49954 0.07117 0.71614
 H2017 H 0.49984 0.06380 0.65251
 H2018 H 0.49727 -0.03361 0.66719
 C2019 C 0.75056 0.24090 0.42694
 C2020 C 0.75058 0.24528 0.46362
 C2021 C 0.75086 0.27512 0.47748
 C2022 C 0.75117 0.30005 0.45448
 C2023 C 0.75112 0.29554 0.41808
 C2024 C 0.75077 0.26598 0.40384
 C2025 C 0.75075 0.27961 0.51408
 C2026 C 0.75034 0.25462 0.53709
 C2027 C 0.75011 0.22477 0.52324
 C2028 C 0.75026 0.22028 0.48663
 C2029 C 0.74969 0.19986 0.54627
 C2030 C 0.74944 0.20441 0.58268
 C2031 C 0.74959 0.23399 0.59688
 C2032 C 0.75009 0.25903 0.57375
 H2033 H 0.75031 0.21798 0.41645
 H2034 H 0.75139 0.32307 0.46464
 H2035 H 0.75131 0.31535 0.40109
 H2036 H 0.75094 0.30252 0.52465
 H2037 H 0.75006 0.19737 0.47607
 H2038 H 0.74953 0.17684 0.53614
 H2039 H 0.74907 0.18462 0.59971
 H2040 H 0.75024 0.28196 0.58420
 C2041 C 0.58112 0.09166 0.59282
 C2042 C 0.60253 0.10840 0.60929
 C2043 C 0.63063 0.10636 0.59674
 C2044 C 0.63680 0.08764 0.56788
 C2045 C 0.61538 0.07082 0.55179
 C2046 C 0.58740 0.07260 0.56416
 C2047 C 0.65210 0.12293 0.61332
 C2048 C 0.64581 0.14149 0.64229
 C2049 C 0.61771 0.14355 0.65484
 C2050 C 0.59624 0.12696 0.63826
 C2051 C 0.61155 0.16229 0.68368
 C2052 C 0.63298 0.17910 0.69976
 C2053 C 0.66096 0.17729 0.68739
 C2054 C 0.66722 0.15822 0.65875
 H2055 H 0.55967 0.09307 0.60279
 H2056 H 0.65821 0.08585 0.55790
 H2057 H 0.62075 0.05641 0.52964
 H2058 H 0.67366 0.12139 0.60369
 H2059 H 0.57468 0.12850 0.64789
 H2060 H 0.59014 0.16409 0.69367
 H2061 H 0.62763 0.19353 0.72190
 H2062 H 0.68867 0.15680 0.64878
 C2063 C -0.16922 0.33182 0.64522
 C2064 C -0.14742 0.34843 0.62900
 C2065 C -0.11891 0.34160 0.63696
 C2066 C -0.11268 0.31801 0.66058
 C2067 C -0.13446 0.30178 0.67684
 C2068 C -0.16296 0.30867 0.66970
 C2069 C -0.09710 0.35876 0.62166
 C2070 C -0.10342 0.38288 0.59873
 C2071 C -0.13192 0.38951 0.59047
 C2072 C -0.15373 0.37217 0.60551
 C2073 C -0.13815 0.41365 0.56760
 C2074 C -0.11642 0.43136 0.55341
 C2075 C -0.08797 0.42528 0.56175
 C2076 C -0.08168 0.40072 0.58429
 H2077 H -0.19104 0.33749 0.63942
 H2078 H -0.09094 0.31240 0.66690
 H2079 H -0.12890 0.28402 0.69542
 H2080 H -0.07524 0.35362 0.62800
 H2081 H -0.17559 0.37743 0.59934
 H2082 H -0.15986 0.41900 0.56088
 H2083 H -0.12199 0.44995 0.53598
 H2084 H -0.05990 0.39564 0.59097
 C2085 C 0.91710 0.08676 0.59945
 C2086 C 0.89549 0.10388 0.61519
 C2087 C 0.86693 0.09774 0.60678
 C2088 C 0.86046 0.07453 0.58288
 C2089 C 0.88206 0.05770 0.56717
 C2090 C 0.91060 0.06366 0.57515
 C2091 C 0.84531 0.11498 0.62220
 C2092 C 0.85187 0.13841 0.64584
 C2093 C 0.88042 0.14456 0.65428
 C2094 C 0.90205 0.12723 0.63897
 C2095 C 0.88687 0.16804 0.67786
 C2096 C 0.86527 0.18529 0.69297
 C2097 C 0.83675 0.17939 0.68482
 C2098 C 0.83027 0.15582 0.66114
 H2099 H 0.93895 0.09173 0.60583
 H2100 H 0.83869 0.06951 0.57613
 H2101 H 0.87634 0.04010 0.54855
 H2102 H 0.82341 0.11026 0.61569
 H2103 H 0.92395 0.13199 0.64542
 H2104 H 0.90863 0.17307 0.68463
 H2105 H 0.87096 0.20324 0.71114
 H2106 H 0.80844 0.15097 0.65451
 C2107 C 0.66709 0.33928 0.65315
 C2108 C 0.64544 0.35723 0.63857
 C2109 C 0.61685 0.35020 0.64588
 C2110 C 0.61039 0.32531 0.66750
 C2111 C 0.63200 0.30770 0.68209
 C2112 C 0.66058 0.31449 0.67525
 C2113 C 0.59518 0.36822 0.63161
 C2114 C 0.60171 0.39325 0.61011
 C2115 C 0.63031 0.40027 0.60281
 C2116 C 0.65197 0.38224 0.61707
 C2117 C 0.63678 0.42518 0.58121
 C2118 C 0.61518 0.44282 0.56667
 C2119 C 0.58659 0.43605 0.57353
 C2120 C 0.58008 0.41123 0.59557
 H2121 H 0.68897 0.34496 0.64773
 H2122 H 0.58860 0.31957 0.67337
 H2123 H 0.62625 0.28881 0.69899
 H2124 H 0.57327 0.36277 0.63724
 H2125 H 0.67389 0.38769 0.61144
 H2126 H 0.65857 0.43090 0.57533
 H2127 H 0.62095 0.46173 0.54981
 H2128 H 0.55820 0.40557 0.60100
 C2129 C 0.91807 0.09966 0.91553
 C2130 C 0.89631 0.11766 0.90142
 C2131 C 0.86780 0.11080 0.90943
 C2132 C 0.86156 0.08631 0.93175
 C2133 C 0.88329 0.06847 0.94562
 C2134 C 0.91176 0.07475 0.93748
 C2135 C 0.84598 0.12824 0.89466
 C2136 C 0.85227 0.15230 0.87166
 C2137 C 0.88078 0.15941 0.86400
 C2138 C 0.90262 0.14217 0.87905
 C2139 C 0.88698 0.18335 0.84086
 C2140 C 0.86517 0.19958 0.82469
 C2141 C 0.83669 0.19232 0.83148
 C2142 C 0.83044 0.16891 0.85557
 H2143 H 0.93987 0.10490 0.90907
 H2144 H 0.83985 0.08078 0.93827
 H2145 H 0.87770 0.04960 0.96263
 H2146 H 0.82412 0.12277 0.90060
 H2147 H 0.92447 0.14750 0.87292
 H2148 H 0.90870 0.18920 0.83478
 H2149 H 0.87069 0.21758 0.80643
 H2150 H 0.80863 0.16298 0.86108
 C2151 C 0.58056 0.40828 0.90803
 C2152 C 0.60203 0.39167 0.89152
 C2153 C 0.63007 0.39358 0.90427
 C2154 C 0.63612 0.41204 0.93338
 C2155 C 0.61463 0.42876 0.94950
 C2156 C 0.58671 0.42711 0.93692
 C2157 C 0.65161 0.37714 0.88762
 C2158 C 0.64546 0.35887 0.85836
 C2159 C 0.61742 0.35695 0.84562
 C2160 C 0.59587 0.37339 0.86227
 C2161 C 0.61138 0.33850 0.81649
 C2162 C 0.63287 0.32180 0.80035
 C2163 C 0.66079 0.32347 0.81292
 C2164 C 0.66693 0.34228 0.84183
 H2165 H 0.55916 0.40701 0.89789
 H2166 H 0.65748 0.41372 0.94352
 H2167 H 0.61989 0.44300 0.97184
 H2168 H 0.67313 0.37857 0.89739
 H2169 H 0.57436 0.37196 0.85249
 H2170 H 0.59001 0.33681 0.80636
 H2171 H 0.62762 0.30757 0.77801
 H2172 H 0.68834 0.34357 0.85197
 C2173 C 0.57845 0.08765 0.90176
 C2174 C 0.60014 0.10607 0.88754
 C2175 C 0.62869 0.09995 0.89607
 C2176 C 0.63521 0.07567 0.91836
 C2177 C 0.61380 0.05776 0.93265
 C2178 C 0.58492 0.06339 0.92502
 C2179 C 0.65040 0.11827 0.88242
 C2180 C 0.64409 0.14288 0.86029
 C2181 C 0.61560 0.14916 0.85164
 C2182 C 0.59381 0.13074 0.86525
 C2183 C 0.60942 0.17376 0.82939
 C2184 C 0.63120 0.19175 0.81563
 C2185 C 0.65971 0.18566 0.82386
 C2186 C 0.66589 0.16116 0.84651
 H2187 H 0.55663 0.09275 0.89523
 H2188 H 0.65699 0.07063 0.92509
 H2189 H 0.62024 0.03947 0.95008
 H2190 H 0.67225 0.11338 0.88910
 H2191 H 0.57197 0.13564 0.85857
 H2192 H 0.58774 0.17899 0.82242
 H2193 H 0.62561 0.21035 0.79822
 H2194 H 0.68768 0.15597 0.85303
 C2195 C 0.91830 0.41344 0.90060
 C2196 C 0.89648 0.39647 0.88503
 C2197 C 0.86797 0.40329 0.89307
 C2198 C 0.86177 0.42699 0.91643
 C2199 C 0.88355 0.44364 0.93196
 C2200 C 0.91205 0.43705 0.92437
 C2201 C 0.84613 0.38623 0.87782
 C2202 C 0.85240 0.36231 0.85469
 C2203 C 0.88090 0.35548 0.84664
 C2204 C 0.90275 0.37262 0.86178
 C2205 C 0.88710 0.33155 0.82358
 C2206 C 0.86530 0.31451 0.80860
 C2207 C 0.83682 0.32105 0.81633
 C2208 C 0.83058 0.34508 0.83952
 H2209 H 0.94012 0.40796 0.89453
 H2210 H 0.84005 0.43254 0.92289
 H2211 H 0.87799 0.46165 0.95014
 H2212 H 0.82428 0.39149 0.88406
 H2213 H 0.92460 0.36732 0.85560
 H2214 H 0.90881 0.32599 0.81712
 H2215 H 0.87086 0.29620 0.79084
 H2216 H 0.80878 0.35044 0.84581
 C2217 C 0.00123 0.49025 0.82580
 C2218 C 0.00123 0.49474 0.78902
 C2219 C 0.00122 0.52457 0.77512
 C2220 C 0.00128 0.54940 0.79811
 C2221 C 0.00126 0.54489 0.83456
 C2222 C 0.00117 0.51527 0.84925
 C2223 C 0.00112 0.52917 0.73845
 C2224 C 0.00099 0.50426 0.71535
 C2225 C 0.00104 0.47440 0.72925
 C2226 C 0.00118 0.46982 0.76592
 C2227 C 0.00094 0.44955 0.70621
 C2228 C 0.00073 0.45414 0.66977
 C2229 C 0.00060 0.48372 0.65542
 C2230 C 0.00077 0.50874 0.67858
 H2231 H 0.00119 0.46716 0.83593
 H2232 H 0.00130 0.57244 0.78791
 H2233 H 0.00126 0.56494 0.85113
 H2234 H 0.00109 0.55212 0.72790
 H2235 H 0.00119 0.44687 0.77646
 H2236 H 0.00101 0.42650 0.71637
 H2237 H 0.00066 0.43435 0.65280
 H2238 H 0.00073 0.53168 0.66808
 C2239 C 0.25299 0.74326 0.42550
 C2240 C 0.25306 0.74759 0.46224
 C2241 C 0.25434 0.77737 0.47618
 C2242 C 0.25568 0.80227 0.45315
 C2243 C 0.25549 0.79782 0.41668
 C2244 C 0.25402 0.76833 0.40236
 C2245 C 0.25411 0.78179 0.51286
 C2246 C 0.25256 0.75679 0.53586
 C2247 C 0.25140 0.72702 0.52189
 C2248 C 0.25169 0.72260 0.48523
 C2249 C 0.24990 0.70208 0.54482
 C2250 C 0.24945 0.70649 0.58126
 C2251 C 0.25047 0.73597 0.59569
 C2252 C 0.25207 0.76108 0.57263
 H2253 H 0.25181 0.72038 0.41501
 H2254 H 0.25673 0.82526 0.46333
 H2255 H 0.25642 0.81760 0.39967
 H2256 H 0.25503 0.80466 0.52347
 H2257 H 0.25072 0.69973 0.47461
 H2258 H 0.24902 0.67911 0.53458
 H2259 H 0.24825 0.68666 0.59815
 H2260 H 0.25294 0.78394 0.58322
 C2261 C 0.08205 0.58116 0.60624
 C2262 C 0.10351 0.59820 0.62242
 C2263 C 0.13215 0.59177 0.61474
 C2264 C 0.13883 0.56814 0.59143
 C2265 C 0.11735 0.55149 0.57516
 C2266 C 0.08874 0.55800 0.58204
 C2267 C 0.15362 0.60937 0.63000
 C2268 C 0.14682 0.63354 0.65257
 C2269 C 0.11819 0.63978 0.66053
 C2270 C 0.09673 0.62198 0.64556
 C2271 C 0.11149 0.66398 0.68304
 C2272 C 0.13289 0.68212 0.69719
 C2273 C 0.16146 0.67640 0.68917
 C2274 C 0.16821 0.65181 0.66697
 H2275 H 0.06013 0.58655 0.61183
 H2276 H 0.16067 0.56284 0.58533
 H2277 H 0.12321 0.53374 0.55679
 H2278 H 0.17558 0.60455 0.62390
 H2279 H 0.07476 0.62693 0.65148
 H2280 H 0.08967 0.66903 0.68950
 H2281 H 0.12699 0.70074 0.71434
 H2282 H 0.19010 0.64700 0.66053
 C2283 C 0.41833 0.91140 0.59741
 C2284 C 0.39665 0.89333 0.61152
 C2285 C 0.36814 0.90239 0.60745
 C2286 C 0.36184 0.92945 0.58953
 C2287 C 0.38352 0.94710 0.57514
 C2288 C 0.41194 0.93819 0.57870
 C2289 C 0.34640 0.88415 0.62110
 C2290 C 0.35279 0.85694 0.63873
 C2291 C 0.38130 0.84788 0.64280
 C2292 C 0.40304 0.86611 0.62915
 C2293 C 0.38760 0.82083 0.66074
 C2294 C 0.36591 0.80319 0.67515
 C2295 C 0.33749 0.81211 0.67159
 C2296 C 0.33111 0.83888 0.65286
 H2297 H 0.44012 0.90408 0.60008
 H2298 H 0.34011 0.93676 0.58622
 H2299 H 0.37798 0.96763 0.56090
 H2300 H 0.32453 0.89114 0.61800
 H2301 H 0.42491 0.85913 0.63225
 H2302 H 0.40932 0.81351 0.66405
 H2303 H 0.37145 0.78268 0.68942
 H2304 H 0.30932 0.84622 0.65019
 C2305 C 0.33079 0.65946 0.65672
 C2306 C 0.35230 0.64268 0.64046
 C2307 C 0.38084 0.64793 0.64978
 C2308 C 0.38736 0.66990 0.67519
 C2309 C 0.36582 0.68655 0.69125
 C2310 C 0.33734 0.68150 0.68222
 C2311 C 0.40238 0.63116 0.63357
 C2312 C 0.39574 0.60923 0.60812
 C2313 C 0.36720 0.60400 0.59879
 C2314 C 0.34566 0.62076 0.61501
 C2315 C 0.36067 0.58205 0.57337
 C2316 C 0.38220 0.56540 0.55730
 C2317 C 0.41068 0.57041 0.56633
 C2318 C 0.41725 0.59244 0.59185
 H2319 H 0.30896 0.65536 0.64938
 H2320 H 0.40911 0.67421 0.68265
 H2321 H 0.37153 0.70335 0.71084
 H2322 H 0.42427 0.63518 0.64073
 H2323 H 0.32377 0.61674 0.60785
 H2324 H 0.33892 0.57776 0.56590
 H2325 H 0.37647 0.54863 0.53768
 H2326 H 0.43907 0.59652 0.59919
 C2327 C 0.08076 0.90666 0.58856
 C2328 C 0.10240 0.88930 0.60384
 C2329 C 0.13096 0.89596 0.59592
 C2330 C 0.13737 0.91990 0.57286
 C2331 C 0.11572 0.93708 0.55775
 C2332 C 0.08720 0.93066 0.56538
 C2333 C 0.15263 0.87865 0.61120
 C2334 C 0.14609 0.85483 0.63442
 C2335 C 0.11752 0.84818 0.64232
 C2336 C 0.09586 0.86541 0.62694
 C2337 C 0.11107 0.82450 0.66567
 C2338 C 0.13269 0.80768 0.68135
 C2339 C 0.16123 0.81413 0.67387
 C2340 C 0.16773 0.83771 0.65012
 H2341 H 0.05892 0.90141 0.59476
 H2342 H 0.15914 0.92533 0.56650
 H2343 H 0.12138 0.95540 0.53997
 H2344 H 0.17454 0.88380 0.60515
 H2345 H 0.07395 0.86031 0.63305
 H2346 H 0.08929 0.81910 0.67201
 H2347 H 0.12698 0.78968 0.69952
 H2348 H 0.18959 0.84305 0.64416
 C2349 C 0.41773 0.58880 0.90178
 C2350 C 0.39611 0.60710 0.88766
 C2351 C 0.36753 0.59846 0.89213
 C2352 C 0.36109 0.57161 0.91044
 C2353 C 0.38268 0.55375 0.92480
 C2354 C 0.41121 0.56219 0.92086
 C2355 C 0.34586 0.61688 0.87849
 C2356 C 0.35236 0.64391 0.86045
 C2357 C 0.38094 0.65254 0.85597
 C2358 C 0.40261 0.63412 0.86961
 C2359 C 0.38738 0.67940 0.83768
 C2360 C 0.36579 0.69729 0.82339
 C2361 C 0.33726 0.68889 0.82736
 C2362 C 0.33074 0.66224 0.84639
 H2363 H 0.43957 0.59581 0.89878
 H2364 H 0.33932 0.56461 0.91408
 H2365 H 0.37699 0.53343 0.93932
 H2366 H 0.32395 0.61020 0.88192
 H2367 H 0.42452 0.64081 0.86618
 H2368 H 0.40916 0.68639 0.83403
 H2369 H 0.37149 0.71764 0.80891
 H2370 H 0.30890 0.65525 0.84942
 C2371 C 0.08051 0.91992 0.89404
 C2372 C 0.10228 0.90289 0.87826
 C2373 C 0.13066 0.90783 0.88839
 C2374 C 0.13686 0.92992 0.91374
 C2375 C 0.11518 0.94651 0.92967
 C2376 C 0.08652 0.94161 0.92056
 C2377 C 0.15239 0.89033 0.87343
 C2378 C 0.14610 0.86763 0.84871
 C2379 C 0.11775 0.86277 0.83836
 C2380 C 0.09605 0.88054 0.85302
 C2381 C 0.11153 0.83996 0.81378
 C2382 C 0.13312 0.82186 0.79990
 C2383 C 0.16143 0.82624 0.81018
 C2384 C 0.16772 0.84944 0.83449
 H2385 H 0.05885 0.91555 0.88614
 H2386 H 0.15852 0.93408 0.92170
 H2387 H 0.12112 0.96298 0.94956
 H2388 H 0.17413 0.89409 0.88142
 H2389 H 0.07429 0.87665 0.84518
 H2390 H 0.08994 0.83596 0.80547
 H2391 H 0.12756 0.80437 0.78106
 H2392 H 0.18939 0.85316 0.84275
 C2393 C 0.08182 0.59445 0.91063
 C2394 C 0.10326 0.61212 0.89539
 C2395 C 0.13189 0.60583 0.90333
 C2396 C 0.13856 0.58194 0.92636
 C2397 C 0.11709 0.56445 0.94145
 C2398 C 0.08851 0.57051 0.93381
 C2399 C 0.15336 0.62346 0.88810
 C2400 C 0.14657 0.64723 0.86491
 C2401 C 0.11794 0.65351 0.85699
 C2402 C 0.09647 0.63597 0.87232
 C2403 C 0.11125 0.67716 0.83366
 C2404 C 0.13271 0.69427 0.81800
 C2405 C 0.16130 0.68816 0.82549
 C2406 C 0.16801 0.66464 0.84925
 H2407 H 0.05993 0.59944 0.90441
 H2408 H 0.16038 0.57680 0.93273
 H2409 H 0.12293 0.54620 0.95923
 H2410 H 0.17532 0.61860 0.89416
 H2411 H 0.07451 0.64079 0.86621
 H2412 H 0.08942 0.68228 0.82730
 H2413 H 0.12683 0.71219 0.79981
 H2414 H 0.18992 0.65955 0.85524
 C2415 C 0.41969 0.90482 0.91104
 C2416 C 0.39790 0.88824 0.89492
 C2417 C 0.36982 0.89120 0.90730
 C2418 C 0.36403 0.91054 0.93569
 C2419 C 0.38578 0.92708 0.95147
 C2420 C 0.41379 0.92453 0.93926
 C2421 C 0.34795 0.87493 0.89101
 C2422 C 0.35378 0.85578 0.86240
 C2423 C 0.38188 0.85271 0.85012
 C2424 C 0.40376 0.86895 0.86644
 C2425 C 0.38765 0.83344 0.82165
 C2426 C 0.36581 0.81732 0.80547
 C2427 C 0.33774 0.82025 0.81734
 C2428 C 0.33191 0.83962 0.84589
 H2429 H 0.44114 0.90270 0.90122
 H2430 H 0.34265 0.91302 0.94558
 H2431 H 0.38057 0.94193 0.97327
 H2432 H 0.32641 0.87727 0.90050
 H2433 H 0.42529 0.86664 0.85692
 H2434 H 0.40905 0.83081 0.81189
 H2435 H 0.37095 0.80266 0.78346
 H2436 H 0.31042 0.84196 0.85549
 C2437 C 0.49764 0.50899 0.82264
 C2438 C 0.49758 0.50459 0.78596
 C2439 C 0.49802 0.47475 0.77209
 C2440 C 0.49845 0.44984 0.79514
 C2441 C 0.49851 0.45438 0.83156
 C2442 C 0.49815 0.48394 0.84579
 C2443 C 0.49809 0.47028 0.73546
 C2444 C 0.49774 0.49528 0.71244
 C2445 C 0.49724 0.52511 0.72634
 C2446 C 0.49715 0.52958 0.76295
 C2447 C 0.49689 0.55005 0.70336
 C2448 C 0.49712 0.54558 0.66695
 C2449 C 0.49771 0.51604 0.65265
 C2450 C 0.49795 0.49094 0.67573
 H2451 H 0.49734 0.53192 0.83309
 H2452 H 0.49879 0.42682 0.78500
 H2453 H 0.49891 0.43459 0.84860
 H2454 H 0.49846 0.44737 0.72489
 H2455 H 0.49680 0.55249 0.77353
 H2456 H 0.49648 0.57306 0.71354
 H2457 H 0.49686 0.56541 0.64999
 H2458 H 0.49838 0.46804 0.66521
 C2459 C 0.75098 0.75905 0.42630
 C2460 C 0.75106 0.75468 0.46301
 C2461 C 0.75115 0.72484 0.47699
 C2462 C 0.75124 0.69991 0.45408
 C2463 C 0.75115 0.70441 0.41766
 C2464 C 0.75097 0.73397 0.40330
 C2465 C 0.75111 0.72036 0.51362
 C2466 C 0.75096 0.74535 0.53653
 C2467 C 0.75095 0.77520 0.52256
 C2468 C 0.75100 0.77968 0.48592
 C2469 C 0.75083 0.80011 0.54550
 C2470 C 0.75066 0.79558 0.58193
 C2471 C 0.75058 0.76601 0.59625
 C2472 C 0.75079 0.74096 0.57322
 H2473 H 0.75087 0.78197 0.41573
 H2474 H 0.75134 0.67688 0.46433
 H2475 H 0.75120 0.68460 0.40074
 H2476 H 0.75114 0.69744 0.52427
 H2477 H 0.75096 0.80259 0.47527
 H2478 H 0.75085 0.82314 0.53527
 H2479 H 0.75056 0.81537 0.59888
 H2480 H 0.75076 0.71802 0.58376
 C2481 C 0.58062 0.59682 0.58604
 C2482 C 0.60227 0.61443 0.60098
 C2483 C 0.63060 0.60987 0.59029
 C2484 C 0.63675 0.58789 0.56469
 C2485 C 0.61511 0.57034 0.55008
 C2486 C 0.58684 0.57448 0.56066
 C2487 C 0.65234 0.62715 0.60553
 C2488 C 0.64612 0.64883 0.63153
 C2489 C 0.61776 0.65345 0.64209
 C2490 C 0.59603 0.63631 0.62669
 C2491 C 0.61159 0.67500 0.66813
 C2492 C 0.63329 0.69164 0.68388
 C2493 C 0.66167 0.68716 0.67389
 C2494 C 0.66786 0.66574 0.64742
 H2495 H 0.55897 0.60028 0.59458
 H2496 H 0.65833 0.58413 0.55610
 H2497 H 0.62059 0.55348 0.53045
 H2498 H 0.67407 0.62356 0.59738
 H2499 H 0.57430 0.63982 0.63493
 H2500 H 0.58998 0.67884 0.67653
 H2501 H 0.62777 0.70788 0.70418
 H2502 H 0.68957 0.66196 0.63939
 C2503 C 0.91772 0.90623 0.58817
 C2504 C 0.89631 0.88910 0.60419
 C2505 C 0.86797 0.89267 0.59305
 C2506 C 0.86159 0.91318 0.56588
 C2507 C 0.88303 0.93034 0.55022
 C2508 C 0.91125 0.92718 0.56133
 C2509 C 0.84646 0.87589 0.60945
 C2510 C 0.85295 0.85574 0.63698
 C2511 C 0.88133 0.85208 0.64795
 C2512 C 0.90283 0.86874 0.63145
 C2513 C 0.88774 0.83188 0.67539
 C2514 C 0.86624 0.81549 0.69194
 C2515 C 0.83790 0.81905 0.68142
 C2516 C 0.83146 0.83926 0.65379
 H2517 H 0.93936 0.90363 0.59713
 H2518 H 0.83999 0.91614 0.55695
 H2519 H 0.87745 0.94617 0.52944
 H2520 H 0.82470 0.87868 0.60099
 H2521 H 0.92458 0.86601 0.63998
 H2522 H 0.90937 0.82880 0.68412
 H2523 H 0.87184 0.80013 0.71317
 H2524 H 0.80975 0.84209 0.64521
 C2525 C 0.91908 0.59096 0.59423
 C2526 C 0.89737 0.60926 0.60806
 C2527 C 0.86880 0.60111 0.60245
 C2528 C 0.86242 0.57488 0.58312
 C2529 C 0.88408 0.55696 0.56922
 C2530 C 0.91264 0.56475 0.57451
 C2531 C 0.84705 0.61930 0.61620
 C2532 C 0.85347 0.64553 0.63562
 C2533 C 0.88203 0.65378 0.64111
 C2534 C 0.90379 0.63564 0.62724
 C2535 C 0.88836 0.67987 0.66076
 C2536 C 0.86666 0.69727 0.67552
 C2537 C 0.83815 0.68910 0.67070
 C2538 C 0.83175 0.66336 0.65017
 H2539 H 0.94094 0.59745 0.59832
 H2540 H 0.84065 0.56830 0.57855
 H2541 H 0.87839 0.53697 0.55415
 H2542 H 0.82516 0.61293 0.61196
 H2543 H 0.92569 0.64197 0.63155
 H2544 H 0.91011 0.68658 0.66517
 H2545 H 0.87227 0.71698 0.69110
 H2546 H 0.80992 0.65660 0.64639
 C2547 C 0.58185 0.91604 0.60372
 C2548 C 0.60345 0.89918 0.61978
 C2549 C 0.63186 0.90377 0.60935
 C2550 C 0.63820 0.92529 0.58331
 C2551 C 0.61659 0.94187 0.56735
 C2552 C 0.58820 0.93732 0.57720
 C2553 C 0.65345 0.88654 0.62480
 C2554 C 0.64698 0.86458 0.65034
 C2555 C 0.61862 0.86009 0.66097
 C2556 C 0.59703 0.87753 0.64574
 C2557 C 0.61231 0.83798 0.68640
 C2558 C 0.63384 0.82016 0.70080
 C2559 C 0.66209 0.82423 0.69012
 C2560 C 0.66848 0.84676 0.66505
 H2561 H 0.56009 0.91227 0.61164
 H2562 H 0.65986 0.92909 0.57504
 H2563 H 0.62218 0.95809 0.54698
 H2564 H 0.67521 0.88997 0.61666
 H2565 H 0.57525 0.87399 0.65376
 H2566 H 0.59071 0.83428 0.69494
 H2567 H 0.62831 0.80311 0.72026
 H2568 H 0.69013 0.85014 0.65650
 C2569 C 0.91894 0.59395 0.91070
 C2570 C 0.89739 0.61092 0.89473
 C2571 C 0.86916 0.60761 0.90642
 C2572 C 0.86301 0.58751 0.93408
 C2573 C 0.88457 0.57049 0.94968
 C2574 C 0.91269 0.57341 0.93803
 C2575 C 0.84752 0.62421 0.89008
 C2576 C 0.85376 0.64395 0.86208
 C2577 C 0.88202 0.64737 0.85053
 C2578 C 0.90366 0.63087 0.86697
 C2579 C 0.88818 0.66717 0.82262
 C2580 C 0.86654 0.68344 0.80619
 C2581 C 0.83832 0.68013 0.81731
 C2582 C 0.83212 0.66030 0.84537
 H2583 H 0.94049 0.59633 0.90133
 H2584 H 0.84151 0.58475 0.94344
 H2585 H 0.87918 0.55498 0.97085
 H2586 H 0.82584 0.62162 0.89898
 H2587 H 0.92533 0.63341 0.85801
 H2588 H 0.90972 0.67005 0.81345
 H2589 H 0.87194 0.69851 0.78460
 H2590 H 0.81050 0.65767 0.85441
 C2591 C 0.58192 0.90279 0.91588
 C2592 C 0.60356 0.88571 0.89999
 C2593 C 0.63214 0.89323 0.90636
 C2594 C 0.63863 0.91768 0.92849
 C2595 C 0.61708 0.93482 0.94395
 C2596 C 0.58828 0.92784 0.93790
 C2597 C 0.65380 0.87636 0.89029
 C2598 C 0.64725 0.85222 0.86757
 C2599 C 0.61864 0.84473 0.86112
 C2600 C 0.59700 0.86139 0.87750
 C2601 C 0.61213 0.82082 0.83814
 C2602 C 0.63370 0.80462 0.82143
 C2603 C 0.66229 0.81182 0.82749
 C2604 C 0.66885 0.83565 0.85087
 H2605 H 0.56014 0.89665 0.91052
 H2606 H 0.66044 0.92375 0.93370
 H2607 H 0.62324 0.95362 0.96072
 H2608 H 0.67574 0.88221 0.89521
 H2609 H 0.57507 0.85561 0.87247
 H2610 H 0.59032 0.81478 0.83287
 H2611 H 0.62790 0.78642 0.80363
 H2612 H 0.69073 0.84163 0.85577
 C2613 C 0.58137 0.58345 0.89625
 C2614 C 0.60311 0.60025 0.88031
 C2615 C 0.63146 0.59558 0.89088
 C2616 C 0.63763 0.57404 0.91696
 C2617 C 0.61591 0.55752 0.93282
 C2618 C 0.58756 0.56215 0.92283
 C2619 C 0.65317 0.61274 0.87555
 C2620 C 0.64688 0.63472 0.84996
 C2621 C 0.61857 0.63928 0.83917
 C2622 C 0.59687 0.62192 0.85430
 C2623 C 0.61241 0.66139 0.81369
 C2624 C 0.63403 0.67914 0.79939
 C2625 C 0.66224 0.67502 0.81021
 C2626 C 0.66849 0.65250 0.83533
 H2627 H 0.55966 0.58729 0.88824
 H2628 H 0.65924 0.57016 0.92536
 H2629 H 0.62139 0.54130 0.95321
 H2630 H 0.67489 0.60925 0.88383
 H2631 H 0.57513 0.62552 0.84614
 H2632 H 0.59085 0.66514 0.80503
 H2633 H 0.62858 0.69617 0.77987
 H2634 H 0.69011 0.64908 0.84398
 C2635 C 0.91860 0.90889 0.90454
 C2636 C 0.89706 0.89042 0.89071
 C2637 C 0.86842 0.89819 0.89659
 C2638 C 0.86183 0.92424 0.91615
 C2639 C 0.88335 0.94235 0.93004
 C2640 C 0.91195 0.93490 0.92451
 C2641 C 0.84684 0.87981 0.88290
 C2642 C 0.85347 0.85376 0.86326
 C2643 C 0.88209 0.84591 0.85744
 C2644 C 0.90370 0.86423 0.87127
 C2645 C 0.88861 0.82001 0.83753
 C2646 C 0.86702 0.80241 0.82284
 C2647 C 0.83846 0.81019 0.82804
 C2648 C 0.83190 0.83575 0.84880
 H2649 H 0.94051 0.90266 0.90024
 H2650 H 0.84000 0.93053 0.92092
 H2651 H 0.87751 0.96217 0.94532
 H2652 H 0.82489 0.88587 0.88736
 H2653 H 0.92565 0.85821 0.86674
 H2654 H 0.91041 0.81360 0.83285
 H2655 H 0.87275 0.78286 0.80704
 H2656 H 0.81002 0.84222 0.85287
   
