data_POSCAR
  _audit_creation_date              2014-09-24
  _audit_creation_method            'ToBaCCo'
  _symmetry_space_group_name_H-M    'P1'
  _symmetry_Int_Tables_number       1
  _symmetry_cell_setting            triclinic
  loop_
  _symmetry_equiv_pos_as_xyz
 x,y,z
_cell_length_a 75.1313
_cell_length_b 75.7788
_cell_length_c 75.5936
_cell_angle_alpha 89.902500
_cell_angle_beta 89.717200
_cell_angle_gamma 90.402400
loop_
  _atom_site_label
  _atom_site_type_symbol
  _atom_site_fract_x
  _atom_site_fract_y
  _atom_site_fract_z
C1 C 0.19274 0.21444 0.22124
 C2 C 0.19571 0.22570 0.20672
 C3 C 0.21000 0.22286 0.19504
 C4 C 0.22140 0.20856 0.19804
 C5 C 0.21866 0.19717 0.21249
 C6 C 0.20430 0.20022 0.22403
 H7 H 0.18684 0.23668 0.20448
 H8 H 0.23244 0.20627 0.18908
 H9 H 0.20209 0.19149 0.23519
 C10 C 0.69386 0.71351 0.72264
 C11 C 0.70544 0.69933 0.72548
 C12 C 0.71986 0.69628 0.71401
 C13 C 0.72262 0.70766 0.69955
 C14 C 0.71120 0.72193 0.69650
 C15 C 0.69686 0.72475 0.70812
 H16 H 0.70347 0.69090 0.73692
 H17 H 0.73341 0.70514 0.69036
 H18 H 0.68798 0.73572 0.70584
 C19 C 0.30665 0.78801 0.71872
 C20 C 0.29476 0.80199 0.72138
 C21 C 0.28056 0.80508 0.70961
 C22 C 0.27862 0.79359 0.69503
 C23 C 0.29034 0.77948 0.69224
 C24 C 0.30432 0.77682 0.70416
 H25 H 0.29707 0.81071 0.73245
 H26 H 0.26738 0.79486 0.68624
 H27 H 0.31371 0.76628 0.70185
 C28 C 0.80658 0.28912 0.21828
 C29 C 0.79477 0.30337 0.22054
 C30 C 0.78056 0.30617 0.20888
 C31 C 0.77809 0.29456 0.19466
 C32 C 0.78958 0.28029 0.19201
 C33 C 0.80369 0.27766 0.20383
 H34 H 0.79587 0.31188 0.23196
 H35 H 0.76716 0.29665 0.18562
 H36 H 0.81296 0.26717 0.20103
 C37 C 0.80473 0.70944 0.27965
 C38 C 0.79313 0.69507 0.27700
 C39 C 0.77863 0.69204 0.28844
 C40 C 0.77581 0.70358 0.30268
 C41 C 0.78726 0.71802 0.30557
 C42 C 0.80168 0.72083 0.29397
 H43 H 0.79565 0.68594 0.26628
 H44 H 0.76439 0.70158 0.31128
 H45 H 0.81055 0.73194 0.29610
 C46 C 0.30677 0.20823 -0.21974
 C47 C 0.30304 0.21990 -0.20566
 C48 C 0.28830 0.21725 -0.19444
 C49 C 0.27702 0.20273 -0.19732
 C50 C 0.28030 0.19091 -0.21119
 C51 C 0.29514 0.19372 -0.22225
 H52 H 0.31211 0.23061 -0.20265
 H53 H 0.26562 0.20063 -0.18873
 H54 H 0.29691 0.18501 -0.23344
 C55 C 0.69585 0.28722 -0.22208
 C56 C 0.69894 0.27535 -0.20799
 C57 C 0.71202 0.27884 -0.19526
 C58 C 0.72246 0.29415 -0.19666
 C59 C 0.72012 0.30593 -0.21076
 C60 C 0.70678 0.30244 -0.22328
 H61 H 0.69056 0.26383 -0.20608
 H62 H 0.73251 0.29681 -0.18676
 H63 H 0.70572 0.31124 -0.23450
 C64 C 0.19459 0.79005 0.28159
 C65 C 0.19797 0.77812 0.29534
 C66 C 0.21172 0.78135 0.30735
 C67 C 0.22238 0.79651 0.30544
 C68 C 0.21962 0.80859 0.29147
 C69 C 0.20545 0.80512 0.27971
 H70 H 0.18955 0.76657 0.29708
 H71 H 0.23251 0.79891 0.31528
 H72 H 0.20327 0.81354 0.26837
 C73 C 0.45879 0.43927 0.47031
 C74 C 0.44473 0.45106 0.47324
 C75 C 0.44202 0.46548 0.46188
 C76 C 0.45360 0.46801 0.44742
 C77 C 0.46775 0.45639 0.44427
 C78 C 0.47023 0.44207 0.45580
 H79 H 0.43587 0.44901 0.48441
 H80 H 0.45160 0.47908 0.43859
 H81 H 0.48113 0.43307 0.45346
 C82 C -0.03866 -0.05778 0.96933
 C83 C -0.02787 -0.05551 0.95428
 C84 C -0.03027 -0.04114 0.94286
 C85 C -0.04397 -0.02911 0.94636
 C86 C -0.05531 -0.03113 0.96121
 C87 C -0.05223 -0.04553 0.97269
 H88 H -0.01774 -0.06514 0.95121
 H89 H -0.04594 -0.01846 0.93707
 H90 H -0.05975 -0.04681 0.98485
 C91 C 1.04033 0.55696 0.97073
 C92 C 1.02875 0.55417 0.95645
 C93 C 1.03131 0.54000 0.94478
 C94 C 1.04566 0.52855 0.94752
 C95 C 1.05739 0.53113 0.96171
 C96 C 1.05461 0.54538 0.97325
 H97 H 1.01770 0.56304 0.95443
 H98 H 1.04770 0.51759 0.93857
 H99 H 1.06359 0.54745 0.98423
 C100 C 0.53990 0.05418 0.46911
 C101 C 0.52925 0.05231 0.45408
 C102 C 0.53174 0.03814 0.44247
 C103 C 0.54545 0.02607 0.44577
 C104 C 0.55657 0.02773 0.46072
 C105 C 0.55333 0.04186 0.47245
 H106 H 0.51862 0.06162 0.45176
 H107 H 0.54695 0.01507 0.43680
 H108 H 0.56183 0.04412 0.48375
 C109 C -0.03913 0.05592 0.52837
 C110 C -0.05339 0.04420 0.52544
 C111 C -0.05620 0.02924 0.53633
 C112 C -0.04417 0.02642 0.55036
 C113 C -0.02988 0.03803 0.55347
 C114 C -0.02747 0.05272 0.54241
 H115 H -0.06163 0.04641 0.51398
 H116 H -0.04632 0.01572 0.55963
 H117 H -0.01646 0.06172 0.54475
 C118 C 0.46138 0.55560 0.02945
 C119 C 0.44715 0.54388 0.02642
 C120 C 0.44421 0.52924 0.03752
 C121 C 0.45573 0.52642 0.05181
 C122 C 0.47004 0.53797 0.05506
 C123 C 0.47275 0.55253 0.04382
 H124 H 0.43833 0.54615 0.01537
 H125 H 0.45328 0.51544 0.06072
 H126 H 0.48403 0.56123 0.04599
 C127 C 0.53728 -0.05315 0.02994
 C128 C 0.55170 -0.04137 0.02714
 C129 C 0.55486 -0.02708 0.03857
 C130 C 0.54337 -0.02440 0.05298
 C131 C 0.52891 -0.03579 0.05608
 C132 C 0.52599 -0.05005 0.04460
 H133 H 0.56095 -0.04344 0.01637
 H134 H 0.54596 -0.01368 0.06208
 H135 H 0.51422 -0.05810 0.04672
 C136 C 1.03615 0.44747 0.53029
 C137 C 1.02482 0.45019 0.54480
 C138 C 1.02773 0.46430 0.55641
 C139 C 1.04223 0.47575 0.55344
 C140 C 1.05387 0.47342 0.53890
 C141 C 1.05051 0.45911 0.52739
 H142 H 1.01370 0.44128 0.54707
 H143 H 1.04399 0.48678 0.56233
 H144 H 1.05932 0.45652 0.51635
 C145 C 0.40049 0.01177 0.22635
 H146 H 0.40157 0.02365 0.23420
 C147 C 0.41200 0.00917 0.21205
 H148 H 0.42201 0.01910 0.20907
 C149 C 0.38652 -0.01587 0.22122
 H150 H 0.37675 -0.02571 0.22496
 C151 C 0.39776 -0.01900 0.20681
 H152 H 0.39622 -0.03112 0.19939
 N153 N 0.38795 -0.00059 0.23054
 C154 C 0.34637 0.02764 0.25905
 H155 H 0.34558 0.01982 0.27102
 C156 C 0.33483 0.04179 0.25663
 H157 H 0.32509 0.04472 0.26680
 C158 C 0.35964 0.03282 0.23100
 H159 H 0.36916 0.02916 0.22094
 C160 C 0.34837 0.04709 0.22804
 H161 H 0.34963 0.05448 0.21583
 Zn162 Zn 0.37333 0.00383 0.25049
 N163 N 0.35857 0.02354 0.24639
 C164 C 0.38783 0.02332 0.27930
 N165 N 0.38864 0.00808 0.26985
 C166 C 0.40096 -0.00444 0.27352
 C167 C 0.41285 -0.00208 0.28745
 C168 C 0.39948 0.02622 0.29336
 C169 C 0.34573 -0.02002 0.24303
 C170 C 0.33407 -0.03417 0.24596
 C171 C 0.34805 -0.03902 0.27425
 C172 C 0.35945 -0.02479 0.27077
 N173 N 0.35824 -0.01575 0.25526
 H174 H 0.37819 0.03327 0.27596
 H175 H 0.40152 -0.01628 0.26558
 H176 H 0.42264 -0.01216 0.29007
 H177 H 0.39842 0.03828 0.30093
 H178 H 0.34489 -0.01244 0.23092
 H179 H 0.32445 -0.03756 0.23589
 H180 H 0.34911 -0.04593 0.28674
 H181 H 0.36912 -0.02091 0.28056
 C182 C 0.33576 0.05176 0.24096
 C183 C 0.41071 -0.00638 0.20204
 C184 C 0.33518 -0.04392 0.26173
 C185 C 0.41217 0.01339 0.29764
 C186 C 0.09727 -0.01080 0.72330
 H187 H 0.09606 -0.02264 0.73124
 C188 C 0.08580 -0.00812 0.70909
 H189 H 0.07570 -0.01795 0.70624
 C190 C 0.11155 0.01667 0.71787
 H191 H 0.12145 0.02641 0.72144
 C192 C 0.10035 0.01989 0.70355
 H193 H 0.10204 0.03197 0.69603
 N194 N 0.10994 0.00144 0.72730
 C195 C 0.15222 -0.02621 0.75500
 H196 H 0.15333 -0.01806 0.76669
 C197 C 0.16382 -0.04031 0.75251
 H198 H 0.17395 -0.04282 0.76231
 C199 C 0.13802 -0.03229 0.72775
 H200 H 0.12808 -0.02903 0.71803
 C201 C 0.14929 -0.04657 0.72476
 H202 H 0.14761 -0.05435 0.71288
 Zn203 Zn 0.12464 -0.00296 0.74707
 N204 N 0.13954 -0.02257 0.74279
 C205 C 0.11089 -0.02260 0.77624
 N206 N 0.10951 -0.00745 0.76669
 C207 C 0.09681 0.00469 0.77051
 C208 C 0.08509 0.00199 0.78467
 C209 C 0.09947 -0.02581 0.79054
 C210 C 0.15246 0.02063 0.73944
 C211 C 0.16412 0.03479 0.74217
 C212 C 0.14929 0.04052 0.76998
 C213 C 0.13796 0.02621 0.76675
 N214 N 0.13960 0.01673 0.75157
 H215 H 0.12076 -0.03229 0.77275
 H216 H 0.09586 0.01653 0.76256
 H217 H 0.07527 0.01195 0.78768
 H218 H 0.10069 -0.03800 0.79791
 H219 H 0.15362 0.01273 0.72759
 H220 H 0.17410 0.03785 0.73223
 H221 H 0.14787 0.04784 0.78219
 H222 H 0.12796 0.02266 0.77645
 C223 C 0.16241 -0.05076 0.73724
 C224 C 0.08727 0.00739 0.69897
 C225 C 0.16258 0.04498 0.75759
 C226 C 0.08638 -0.01340 0.79494
 C227 C 0.59604 0.48929 0.22588
 H228 H 0.59500 0.47736 0.23371
 C229 C 0.58452 0.49195 0.21170
 H230 H 0.57453 0.48203 0.20878
 C231 C 0.61000 0.51696 0.22064
 H232 H 0.61979 0.52678 0.22427
 C233 C 0.59875 0.52016 0.20635
 H234 H 0.60030 0.53230 0.19892
 N235 N 0.60859 0.50163 0.22995
 C236 C 0.65099 0.47384 0.25733
 H237 H 0.65190 0.48166 0.26926
 C238 C 0.66270 0.45987 0.25460
 H239 H 0.67247 0.45685 0.26462
 C240 C 0.63707 0.46831 0.22981
 H241 H 0.62729 0.47183 0.22002
 C242 C 0.64847 0.45419 0.22657
 H243 H 0.64732 0.44698 0.21427
 Zn244 Zn 0.62345 0.49720 0.24960
 N245 N 0.63839 0.47769 0.24508
 C246 C 0.60986 0.47737 0.27874
 N247 N 0.60847 0.49260 0.26931
 C248 C 0.59584 0.50475 0.27330
 C249 C 0.58419 0.50199 0.28749
 C250 C 0.59851 0.47409 0.29308
 C251 C 0.65101 0.52094 0.24170
 C252 C 0.66261 0.53517 0.24428
 C253 C 0.64827 0.54066 0.27240
 C254 C 0.63695 0.52631 0.26928
 N255 N 0.63838 0.51691 0.25403
 H256 H 0.61966 0.46766 0.27511
 H257 H 0.59488 0.51665 0.26544
 H258 H 0.57441 0.51195 0.29063
 H259 H 0.59972 0.46184 0.30035
 H260 H 0.65206 0.51304 0.22984
 H261 H 0.67266 0.53805 0.23437
 H262 H 0.64671 0.54817 0.28447
 H263 H 0.62708 0.52271 0.27909
 C264 C 0.66149 0.44981 0.23906
 C265 C 0.58582 0.50755 0.20169
 C266 C 0.66129 0.54529 0.25978
 C267 C 0.58548 0.48650 0.29763
 C268 C 0.90122 0.51052 0.72846
 H269 H 0.90239 0.52233 0.73640
 C270 C 0.91267 0.50798 0.71410
 H271 H 0.92271 0.51787 0.71114
 C272 C 0.88706 0.48301 0.72314
 H273 H 0.87722 0.47321 0.72681
 C274 C 0.89823 0.47993 0.70866
 H275 H 0.89658 0.46790 0.70113
 N276 N 0.88861 0.49821 0.73258
 C277 C 0.84673 0.52618 0.76088
 H278 H 0.84581 0.51826 0.77277
 C279 C 0.83523 0.54036 0.75847
 H280 H 0.82562 0.54344 0.76871
 C281 C 0.86047 0.53175 0.73312
 H282 H 0.87009 0.52818 0.72312
 C283 C 0.84927 0.54608 0.73019
 H284 H 0.85042 0.55340 0.71792
 Zn285 Zn 0.87391 0.50255 0.75249
 N286 N 0.85915 0.52226 0.74836
 C287 C 0.88799 0.52197 0.78148
 N288 N 0.88908 0.50679 0.77197
 C289 C 0.90153 0.49441 0.77570
 C290 C 0.91330 0.49687 0.78973
 C291 C 0.89949 0.52496 0.79564
 C292 C 0.84614 0.47901 0.74489
 C293 C 0.83446 0.46485 0.74764
 C294 C 0.84883 0.45921 0.77558
 C295 C 0.86022 0.47351 0.77232
 N296 N 0.85883 0.48294 0.75706
 H297 H 0.87826 0.53182 0.77811
 H298 H 0.90231 0.48261 0.76770
 H299 H 0.92321 0.48692 0.79237
 H300 H 0.89821 0.53699 0.80324
 H301 H 0.84517 0.48688 0.73299
 H302 H 0.82466 0.46174 0.73764
 H303 H 0.85007 0.45193 0.78785
 H304 H 0.87005 0.47710 0.78205
 C305 C 0.83646 0.55056 0.74298
 C306 C 0.91123 0.49253 0.70395
 C307 C 0.83577 0.45469 0.76312
 C308 C 0.91234 0.51230 0.79995
 C309 C 0.22631 0.40123 0.00596
 H310 H 0.23453 0.40212 0.01764
 C311 C 0.21227 0.41296 0.00363
 H312 H 0.20984 0.42294 0.01356
 C313 C 0.22000 0.38747 -0.02145
 H314 H 0.22318 0.37766 -0.03130
 C315 C 0.20583 0.39893 -0.02432
 H316 H 0.19801 0.39756 -0.03624
 N317 N 0.22979 0.38870 -0.00641
 C318 C 0.25724 0.34644 0.02132
 H319 H 0.26906 0.34529 0.01318
 C320 C 0.25465 0.33509 0.03568
 H321 H 0.26451 0.32512 0.03844
 C322 C 0.22978 0.36052 0.02718
 H323 H 0.22001 0.37031 0.02372
 C324 C 0.22665 0.34944 0.04166
 H325 H 0.21462 0.35110 0.04940
 Zn326 Zn 0.24939 0.37367 -0.00237
 N327 N 0.24498 0.35898 0.01748
 C328 C 0.27919 0.38691 0.01669
 N329 N 0.26950 0.38830 0.00160
 C330 C 0.27343 0.40077 -0.01081
 C331 C 0.28779 0.41230 -0.00842
 C332 C 0.29370 0.39814 0.01958
 C333 C 0.24061 0.34642 -0.02572
 C334 C 0.24288 0.33479 -0.03985
 C335 C 0.27126 0.34868 -0.04613
 C336 C 0.26848 0.36000 -0.03184
 N337 N 0.25325 0.35880 -0.02209
 H338 H 0.27560 0.37725 0.02661
 H339 H 0.26536 0.40174 -0.02257
 H340 H 0.29085 0.42199 -0.01855
 H341 H 0.30114 0.39696 0.03175
 H342 H 0.22873 0.34561 -0.01761
 H343 H 0.23255 0.32519 -0.04269
 H344 H 0.28353 0.34972 -0.05364
 H345 H 0.27858 0.36961 -0.02849
 C346 C 0.23920 0.33654 0.04611
 C347 C 0.20178 0.41188 -0.01167
 C348 C 0.25836 0.33587 -0.05030
 C349 C 0.29816 0.41104 0.00693
 C350 C 0.72790 0.09884 -0.00930
 H351 H 0.73552 0.09804 -0.02145
 C352 C 0.71346 0.08747 -0.00649
 H353 H 0.70990 0.07806 -0.01665
 C354 C 0.72330 0.11222 0.01866
 H355 H 0.72737 0.12165 0.02856
 C356 C 0.70872 0.10115 0.02199
 H357 H 0.70168 0.10220 0.03447
 N358 N 0.73244 0.11099 0.00313
 C359 C 0.76139 0.15065 -0.02767
 H360 H 0.77420 0.15051 -0.02121
 C361 C 0.75862 0.16176 -0.04215
 H362 H 0.76937 0.17016 -0.04685
 C363 C 0.73162 0.14018 -0.02915
 H364 H 0.72107 0.13193 -0.02391
 C365 C 0.72818 0.15135 -0.04342
 H366 H 0.71504 0.15142 -0.04926
 Zn367 Zn 0.75251 0.12544 -0.00177
 N368 N 0.74807 0.13991 -0.02169
 C369 C 0.78076 0.11015 -0.02179
 N370 N 0.77194 0.11016 -0.00603
 C371 C 0.77630 0.09867 0.00707
 C372 C 0.79040 0.08698 0.00482
 C373 C 0.79495 0.09867 -0.02461
 C374 C 0.74483 0.15291 0.02155
 C375 C 0.74750 0.16460 0.03555
 C376 C 0.77602 0.15108 0.04082
 C377 C 0.77283 0.13968 0.02667
 N378 N 0.75731 0.14062 0.01752
 H379 H 0.77672 0.11888 -0.03231
 H380 H 0.76886 0.09872 0.01936
 H381 H 0.79389 0.07823 0.01557
 H382 H 0.80172 0.09878 -0.03729
 H383 H 0.73271 0.15352 0.01391
 H384 H 0.73725 0.17406 0.03875
 H385 H 0.78847 0.15020 0.04791
 H386 H 0.78283 0.13020 0.02297
 C387 C 0.74182 0.16220 -0.05014
 C388 C 0.70364 0.08856 0.00932
 C389 C 0.76323 0.16371 0.04546
 C390 C 0.80000 0.08694 -0.01117
 C391 C 0.22662 0.59869 0.49093
 H392 H 0.23451 0.59752 0.47898
 C393 C 0.21196 0.58759 0.49363
 H394 H 0.20876 0.57778 0.48373
 C395 C 0.22175 0.61252 0.51860
 H396 H 0.22573 0.62210 0.52840
 C397 C 0.20692 0.60174 0.52181
 H398 H 0.19942 0.60345 0.53395
 N399 N 0.23115 0.61092 0.50328
 C400 C 0.26096 0.65037 0.47301
 H401 H 0.27370 0.65005 0.47960
 C402 C 0.25842 0.66174 0.45869
 H403 H 0.26928 0.67013 0.45423
 C404 C 0.23113 0.64018 0.47110
 H405 H 0.22046 0.63194 0.47613
 C406 C 0.22791 0.65161 0.45699
 H407 H 0.21483 0.65190 0.45105
 Zn408 Zn 0.25155 0.62497 0.49856
 N409 N 0.24749 0.63967 0.47872
 C410 C 0.27986 0.60953 0.47875
 N411 N 0.27068 0.60933 0.49431
 C412 C 0.27445 0.59739 0.50719
 C413 C 0.28826 0.58536 0.50490
 C414 C 0.29383 0.59778 0.47593
 C415 C 0.24447 0.65264 0.52181
 C416 C 0.24738 0.66429 0.53580
 C417 C 0.27535 0.64983 0.54144
 C418 C 0.27193 0.63849 0.52729
 N419 N 0.25657 0.63994 0.51796
 H420 H 0.27631 0.61866 0.46840
 H421 H 0.26674 0.59731 0.51932
 H422 H 0.29127 0.57619 0.51545
 H423 H 0.30093 0.59809 0.46344
 H424 H 0.23248 0.65365 0.51402
 H425 H 0.23743 0.67411 0.53885
 H426 H 0.28769 0.64856 0.54866
 H427 H 0.28162 0.62864 0.52375
 C428 C 0.24170 0.66247 0.45059
 C429 C 0.20183 0.58905 0.50923
 C430 C 0.26297 0.66292 0.54587
 C431 C 0.29823 0.58554 0.48914
 C432 C 0.72624 0.90045 0.50703
 H433 H 0.73460 0.90178 0.51857
 C434 C 0.71198 0.91190 0.50459
 H435 H 0.70956 0.92212 0.51428
 C436 C 0.71976 0.88587 0.48010
 H437 H 0.72294 0.87586 0.47047
 C438 C 0.70533 0.89699 0.47716
 H439 H 0.69734 0.89512 0.46542
 N440 N 0.72976 0.88766 0.49494
 C441 C 0.75788 0.84614 0.52307
 H442 H 0.76972 0.84508 0.51494
 C443 C 0.75541 0.83483 0.53749
 H444 H 0.76538 0.82499 0.54030
 C445 C 0.73024 0.85992 0.52882
 H446 H 0.72037 0.86958 0.52530
 C447 C 0.72723 0.84889 0.54336
 H448 H 0.71517 0.85045 0.55108
 Zn449 Zn 0.74962 0.87301 0.49912
 N450 N 0.74546 0.85848 0.51913
 C451 C 0.77907 0.88702 0.51811
 N452 N 0.76952 0.88798 0.50291
 C453 C 0.77346 0.90020 0.49026
 C454 C 0.78777 0.91184 0.49247
 C455 C 0.79348 0.89840 0.52087
 C456 C 0.74124 0.84534 0.47607
 C457 C 0.74359 0.83371 0.46196
 C458 C 0.77172 0.84800 0.45545
 C459 C 0.76885 0.85933 0.46972
 N460 N 0.75369 0.85796 0.47955
 H461 H 0.77545 0.87756 0.52823
 H462 H 0.76548 0.90084 0.47841
 H463 H 0.79088 0.92125 0.48210
 H464 H 0.80080 0.89755 0.53314
 H465 H 0.72942 0.84439 0.48426
 H466 H 0.73338 0.82395 0.45922
 H467 H 0.78391 0.84921 0.44785
 H468 H 0.77883 0.86910 0.47296
 C469 C 0.73992 0.83614 0.54788
 C470 C 0.70126 0.91023 0.48950
 C471 C 0.75896 0.83501 0.45139
 C472 C 0.79802 0.91100 0.50793
 C473 C 0.00565 0.22963 0.40414
 H474 H 0.01740 0.23787 0.40524
 C475 C 0.00321 0.21533 0.41559
 H476 H 0.01312 0.21274 0.42560
 C477 C -0.02178 0.22340 0.39004
 H478 H -0.03157 0.22668 0.38018
 C479 C -0.02476 0.20898 0.40122
 H480 H -0.03671 0.20110 0.39959
 N481 N -0.00667 0.23326 0.39155
 C482 C 0.02148 0.26126 0.34934
 H483 H 0.01339 0.27296 0.34828
 C484 C 0.03579 0.25881 0.33776
 H485 H 0.03855 0.26868 0.32773
 C486 C 0.02720 0.23389 0.36334
 H487 H 0.02370 0.22410 0.37316
 C488 C 0.04163 0.23092 0.35204
 H489 H 0.04929 0.21897 0.35358
 Zn490 Zn -0.00241 0.25299 0.37669
 N491 N 0.01757 0.24895 0.36191
 C492 C 0.01691 0.28243 0.39008
 N493 N 0.00165 0.27275 0.39147
 C494 C -0.01083 0.27649 0.40397
 C495 C -0.00839 0.29069 0.41548
 C496 C 0.01989 0.29675 0.40131
 C497 C -0.02549 0.24470 0.34902
 C498 C -0.03954 0.24701 0.33724
 C499 C -0.04641 0.27452 0.35177
 C500 C -0.03217 0.27172 0.36322
 N501 N -0.02215 0.25690 0.36176
 H502 H 0.02685 0.27906 0.38032
 H503 H -0.02269 0.26837 0.40501
 H504 H -0.01842 0.29334 0.42544
 H505 H 0.03199 0.30446 0.39979
 H506 H -0.01712 0.23319 0.34796
 H507 H -0.04178 0.23724 0.32704
 H508 H -0.05440 0.28625 0.35337
 H509 H -0.02913 0.28143 0.37320
 C510 C 0.04610 0.24347 0.33904
 C511 C -0.01214 0.20474 0.41418
 C512 C -0.05026 0.26208 0.33853
 C513 C 0.00713 0.30106 0.41422
 C514 C -0.00653 0.72626 0.09844
 H515 H -0.01859 0.73393 0.09758
 C516 C -0.00386 0.71211 0.08697
 H517 H -0.01389 0.70906 0.07719
 C518 C 0.02142 0.72139 0.11191
 H519 H 0.03135 0.72517 0.12148
 C520 C 0.02464 0.70712 0.10069
 H521 H 0.03691 0.69985 0.10205
 N522 N 0.00592 0.73048 0.11075
 C523 C -0.02354 0.75802 0.15198
 H524 H -0.01594 0.77019 0.15258
 C525 C -0.03795 0.75534 0.16342
 H526 H -0.04152 0.76563 0.17267
 C527 C -0.02806 0.72987 0.13908
 H528 H -0.02397 0.71984 0.12982
 C529 C -0.04262 0.72667 0.15023
 H530 H -0.04961 0.71416 0.14940
 Zn531 Zn 0.00114 0.75003 0.12554
 N532 N -0.01896 0.74542 0.14004
 C533 C -0.01946 0.77730 0.11024
 N534 N -0.00319 0.76958 0.11057
 C535 C 0.01011 0.77503 0.09955
 C536 C 0.00751 0.78919 0.08804
 C537 C -0.02275 0.79132 0.09872
 C538 C 0.02478 0.74187 0.15275
 C539 C 0.03884 0.74441 0.16450
 C540 C 0.04369 0.77335 0.15187
 C541 C 0.02952 0.77026 0.14036
 N542 N 0.02057 0.75460 0.14081
 H543 H -0.03005 0.77241 0.11868
 H544 H 0.02283 0.76843 0.09983
 H545 H 0.01851 0.79361 0.07982
 H546 H -0.03593 0.79696 0.09844
 H547 H 0.01718 0.72969 0.15310
 H548 H 0.04191 0.73414 0.17395
 H549 H 0.05086 0.78577 0.15105
 H550 H 0.02569 0.78044 0.13117
 C551 C -0.04772 0.73950 0.16261
 C552 C 0.01188 0.70227 0.08805
 C553 C 0.04857 0.76030 0.16410
 C554 C -0.00913 0.79756 0.08746
 C555 C 0.49222 0.22109 0.59873
 H556 H 0.47953 0.22774 0.59917
 C557 C 0.49468 0.20684 0.58731
 H558 H 0.48382 0.20248 0.57899
 C559 C 0.52198 0.21893 0.60875
 H560 H 0.53264 0.22380 0.61697
 C561 C 0.52512 0.20488 0.59725
 H562 H 0.53814 0.19884 0.59687
 N563 N 0.50567 0.22661 0.60941
 C564 C 0.47885 0.25419 0.65258
 H565 H 0.48672 0.26619 0.65289
 C566 C 0.46499 0.25171 0.66472
 H567 H 0.46240 0.26184 0.67446
 C568 C 0.47318 0.22618 0.63985
 H569 H 0.47657 0.21611 0.63036
 C570 C 0.45916 0.22319 0.65169
 H571 H 0.45164 0.21098 0.65079
 Zn572 Zn 0.50161 0.24619 0.62439
 N573 N 0.48251 0.24163 0.64029
 C574 C 0.48107 0.27493 0.61153
 N575 N 0.49644 0.26571 0.60967
 C576 C 0.50840 0.26976 0.59670
 C577 C 0.50530 0.28379 0.58516
 C578 C 0.47746 0.28911 0.60031
 C579 C 0.52663 0.23843 0.65034
 C580 C 0.54130 0.24111 0.66129
 C581 C 0.54621 0.26937 0.64720
 C582 C 0.53139 0.26618 0.63656
 N583 N 0.52203 0.25083 0.63822
 H584 H 0.47150 0.27124 0.62160
 H585 H 0.52040 0.26206 0.59537
 H586 H 0.51512 0.28697 0.57510
 H587 H 0.46511 0.29622 0.60190
 H588 H 0.51878 0.22645 0.65155
 H589 H 0.54453 0.23117 0.67104
 H590 H 0.55365 0.28155 0.64547
 H591 H 0.52736 0.27601 0.62707
 C592 C 0.45483 0.23607 0.66431
 C593 C 0.51132 0.19861 0.58648
 C594 C 0.55135 0.25675 0.65980
 C595 C 0.48967 0.29371 0.58692
 C596 C 0.50621 0.72909 0.90498
 H597 H 0.51804 0.73724 0.90598
 C598 C 0.50374 0.71484 0.91648
 H599 H 0.51386 0.71196 0.92620
 C600 C 0.47873 0.72292 0.89095
 H601 H 0.46888 0.72627 0.88118
 C602 C 0.47575 0.70852 0.90214
 H603 H 0.46357 0.70091 0.90085
 N604 N 0.49389 0.73272 0.89239
 C605 C 0.52237 0.76050 0.85026
 H606 H 0.51435 0.77225 0.84918
 C607 C 0.53674 0.75801 0.83877
 H608 H 0.53962 0.76789 0.82878
 C609 C 0.52785 0.73306 0.86423
 H610 H 0.52422 0.72326 0.87400
 C611 C 0.54233 0.73004 0.85302
 H612 H 0.54993 0.71805 0.85457
 Zn613 Zn 0.49827 0.75235 0.87742
 N614 N 0.51831 0.74818 0.86277
 C615 C 0.51779 0.78158 0.89097
 N616 N 0.50233 0.77219 0.89209
 C617 C 0.48960 0.77629 0.90423
 C618 C 0.49199 0.79061 0.91560
 C619 C 0.52072 0.79600 0.90208
 C620 C 0.47499 0.74373 0.84998
 C621 C 0.46095 0.74599 0.83817
 C622 C 0.45486 0.77416 0.85175
 C623 C 0.46902 0.77136 0.86329
 N624 N 0.47864 0.75625 0.86233
 H625 H 0.52796 0.77785 0.88159
 H626 H 0.47754 0.76844 0.90500
 H627 H 0.48155 0.79384 0.92494
 H628 H 0.53319 0.80320 0.90111
 H629 H 0.48307 0.73199 0.84928
 H630 H 0.45839 0.73594 0.82833
 H631 H 0.44719 0.78615 0.85291
 H632 H 0.47234 0.78134 0.87292
 C633 C 0.54696 0.74262 0.84008
 C634 C 0.48838 0.70427 0.91508
 C635 C 0.45064 0.76136 0.83898
 C636 C 0.50771 0.80071 0.91458
 C637 C 0.14858 0.22330 0.25671
 C638 C 0.15272 0.20616 0.25098
 C639 C 0.16705 0.20329 0.23951
 C640 C 0.17755 0.21750 0.23346
 C641 C 0.17342 0.23464 0.23914
 C642 C 0.15912 0.23751 0.25065
 C643 C 0.13338 0.22633 0.26890
 N644 N 0.12973 0.24277 0.27499
 N645 N 0.11608 0.24547 0.28595
 C646 C 0.10549 0.23185 0.29129
 N647 N 0.10914 0.21541 0.28519
 N648 N 0.12279 0.21271 0.27425
 C649 C 0.09029 0.23485 0.30349
 C650 C 0.07893 0.22083 0.30840
 C651 C 0.06462 0.22363 0.31990
 C652 C 0.06131 0.24051 0.32679
 C653 C 0.07265 0.25454 0.32188
 C654 C 0.08696 0.25174 0.31037
 H655 H 0.14488 0.19490 0.25534
 H656 H 0.16977 0.18996 0.23518
 H657 H 0.18140 0.24582 0.23486
 H658 H 0.15634 0.25088 0.25481
 H659 H 0.08104 0.20765 0.30331
 H660 H 0.05598 0.21260 0.32321
 H661 H 0.07060 0.26765 0.32714
 H662 H 0.09546 0.26284 0.30692
 C663 C 0.64968 0.72237 0.75807
 C664 C 0.65389 0.70521 0.75243
 C665 C 0.66823 0.70236 0.74097
 C666 C 0.67866 0.71658 0.73484
 C667 C 0.67447 0.73373 0.74045
 C668 C 0.66016 0.73659 0.75195
 C669 C 0.63447 0.72539 0.77025
 N670 N 0.63080 0.74184 0.77632
 N671 N 0.61714 0.74454 0.78726
 C672 C 0.60654 0.73092 0.79259
 N673 N 0.61021 0.71448 0.78651
 N674 N 0.62388 0.71177 0.77559
 C675 C 0.59131 0.73392 0.80475
 C676 C 0.57989 0.71992 0.80958
 C677 C 0.56553 0.72274 0.82102
 C678 C 0.56225 0.73962 0.82793
 C679 C 0.57366 0.75362 0.82312
 C680 C 0.58802 0.75081 0.81166
 H681 H 0.64610 0.69395 0.75685
 H682 H 0.67101 0.68902 0.73671
 H683 H 0.68241 0.74492 0.73612
 H684 H 0.65733 0.74997 0.75605
 H685 H 0.58198 0.70676 0.80446
 H686 H 0.55683 0.71174 0.82425
 H687 H 0.57164 0.76673 0.82841
 H688 H 0.59657 0.76188 0.80829
 C689 C 0.35017 0.77986 0.75474
 C690 C 0.33992 0.76550 0.74871
 C691 C 0.32585 0.76814 0.73699
 C692 C 0.32166 0.78520 0.73109
 C693 C 0.33190 0.79955 0.73709
 C694 C 0.34600 0.79692 0.74876
 C695 C 0.36508 0.77709 0.76721
 N696 N 0.37545 0.79084 0.77248
 N697 N 0.38883 0.78836 0.78369
 C698 C 0.39241 0.77203 0.79013
 N699 N 0.38204 0.75828 0.78487
 N700 N 0.36867 0.76075 0.77364
 C701 C 0.40730 0.76929 0.80264
 C702 C 0.41046 0.75254 0.80994
 C703 C 0.42449 0.74997 0.82173
 C704 C 0.43570 0.76410 0.82648
 C705 C 0.43255 0.78085 0.81918
 C706 C 0.41851 0.78342 0.80741
 H707 H 0.34273 0.75219 0.75304
 H708 H 0.31807 0.75686 0.73272
 H709 H 0.32914 0.81282 0.73257
 H710 H 0.35363 0.80828 0.75309
 H711 H 0.40206 0.74137 0.80663
 H712 H 0.42641 0.73696 0.82731
 H713 H 0.44110 0.79194 0.82236
 H714 H 0.41653 0.79649 0.80199
 C715 C -0.15051 0.28096 0.25411
 C716 C -0.15807 0.26673 0.24489
 C717 C -0.17205 0.26938 0.23307
 C718 C -0.17908 0.28640 0.23019
 C719 C -0.17137 0.30062 0.23958
 C720 C -0.15730 0.29793 0.25127
 C721 C -0.13566 0.27814 0.26663
 N722 N -0.12691 0.29207 0.27393
 N723 N -0.11358 0.28955 0.28517
 C724 C -0.10844 0.27299 0.28966
 N725 N -0.11719 0.25906 0.28238
 N726 N -0.13050 0.26158 0.27110
 C727 C -0.09360 0.27020 0.30219
 C728 C -0.08978 0.25322 0.30859
 C729 C -0.07580 0.25060 0.32041
 C730 C -0.06523 0.26488 0.32606
 C731 C -0.06903 0.28186 0.31963
 C732 C -0.08307 0.28449 0.30788
 H733 H -0.15323 0.25344 0.24683
 H734 H -0.17773 0.25783 0.22684
 H735 H -0.17560 0.31407 0.23749
 H736 H -0.15171 0.30924 0.25807
 H737 H -0.09768 0.24192 0.30457
 H738 H -0.07341 0.23739 0.32531
 H739 H -0.06098 0.29311 0.32347
 H740 H -0.08556 0.29773 0.30315
 C741 C -0.15077 0.71831 0.24434
 C742 C -0.16740 0.71290 0.23773
 C743 C -0.18181 0.71004 0.24917
 C744 C -0.17994 0.71248 0.26749
 C745 C -0.16331 0.71784 0.27412
 C746 C -0.14891 0.72075 0.26268
 C747 C -0.13549 0.72140 0.23221
 N748 N -0.11981 0.72789 0.23839
 N749 N -0.10609 0.73070 0.22749
 C750 C -0.10744 0.72713 0.20995
 N751 N -0.12312 0.72063 0.20377
 N752 N -0.13685 0.71784 0.21466
 C753 C -0.09216 0.73027 0.19782
 C754 C -0.09313 0.72537 0.17991
 C755 C -0.07871 0.72832 0.16851
 C756 C -0.06302 0.73632 0.17472
 C757 C -0.06204 0.74124 0.19260
 C758 C -0.07642 0.73822 0.20403
 H759 H -0.16934 0.71097 0.22368
 H760 H -0.19450 0.70615 0.24363
 H761 H -0.16136 0.71957 0.28819
 H762 H -0.13629 0.72482 0.26825
 H763 H -0.10504 0.71923 0.17467
 H764 H -0.07993 0.72456 0.15475
 H765 H -0.05004 0.74722 0.19782
 H766 H -0.07518 0.74215 0.21774
 C767 C 0.35160 0.21660 0.74630
 C768 C 0.34477 0.19954 0.74915
 C769 C 0.33005 0.19678 0.76021
 C770 C 0.32173 0.21101 0.76896
 C771 C 0.32881 0.22812 0.76607
 C772 C 0.34343 0.23084 0.75487
 C773 C 0.36711 0.21952 0.73442
 N774 N 0.37222 0.23611 0.72969
 N775 N 0.38607 0.23873 0.71891
 C776 C 0.39545 0.22488 0.71245
 N777 N 0.39038 0.20830 0.71722
 N778 N 0.37649 0.20567 0.72795
 C779 C 0.41079 0.22779 0.70035
 C780 C 0.42193 0.21373 0.69560
 C781 C 0.43628 0.21644 0.68405
 C782 C 0.43978 0.23325 0.67688
 C783 C 0.42867 0.24732 0.68169
 C784 C 0.41438 0.24464 0.69332
 H785 H 0.35080 0.18823 0.74283
 H786 H 0.32576 0.18329 0.76235
 H787 H 0.32270 0.23967 0.77179
 H788 H 0.34829 0.24419 0.75290
 H789 H 0.41963 0.20061 0.70086
 H790 H 0.44475 0.20537 0.68088
 H791 H 0.43080 0.26038 0.67621
 H792 H 0.40602 0.25575 0.69662
 C793 C 0.65398 0.27792 0.74105
 C794 C 0.65996 0.29513 0.74457
 C795 C 0.67379 0.29817 0.75649
 C796 C 0.68206 0.28406 0.76544
 C797 C 0.67598 0.26677 0.76172
 C798 C 0.66223 0.26378 0.74968
 C799 C 0.63909 0.27479 0.72860
 N800 N 0.63448 0.25815 0.72366
 N801 N 0.62097 0.25535 0.71264
 C802 C 0.61146 0.26907 0.70612
 N803 N 0.61608 0.28570 0.71105
 N804 N 0.62962 0.28850 0.72203
 C805 C 0.59626 0.26596 0.69406
 C806 C 0.58496 0.27988 0.68931
 C807 C 0.57045 0.27691 0.67818
 C808 C 0.56693 0.25996 0.67145
 C809 C 0.57832 0.24607 0.67609
 C810 C 0.59278 0.24902 0.68729
 H811 H 0.65385 0.30637 0.73822
 H812 H 0.67730 0.31176 0.75918
 H813 H 0.68217 0.25533 0.76756
 H814 H 0.65804 0.25031 0.74718
 H815 H 0.58718 0.29307 0.69435
 H816 H 0.56179 0.28784 0.67511
 H817 H 0.57617 0.23292 0.67092
 H818 H 0.60127 0.23802 0.69059
 C819 C 0.15082 0.78088 0.24598
 C820 C 0.16191 0.76692 0.25110
 C821 C 0.17613 0.76987 0.26261
 C822 C 0.17961 0.78687 0.26922
 C823 C 0.16857 0.80083 0.26406
 C824 C 0.15434 0.79787 0.25260
 C825 C 0.13564 0.77776 0.23387
 N826 N 0.12451 0.79111 0.22949
 N827 N 0.11086 0.78833 0.21865
 C828 C 0.10775 0.77209 0.21170
 N829 N 0.11888 0.75874 0.21608
 N830 N 0.13253 0.76151 0.22693
 C831 C 0.09255 0.76903 0.19960
 C832 C 0.08978 0.75240 0.19182
 C833 C 0.07551 0.74957 0.18035
 C834 C 0.06366 0.76328 0.17640
 C835 C 0.06639 0.77988 0.18423
 C836 C 0.08067 0.78273 0.19568
 H837 H 0.15962 0.75367 0.24624
 H838 H 0.18453 0.75889 0.26621
 H839 H 0.17079 0.81402 0.26912
 H840 H 0.14607 0.80894 0.24897
 H841 H 0.09869 0.74156 0.19449
 H842 H 0.07391 0.73669 0.17435
 H843 H 0.05736 0.79065 0.18167
 H844 H 0.08234 0.79568 0.20149
 C845 C 0.25382 0.15331 0.22119
 C846 C 0.24817 0.16385 0.23541
 C847 C 0.23674 0.17805 0.23260
 C848 C 0.23075 0.18206 0.21550
 C849 C 0.23639 0.17155 0.20127
 C850 C 0.24777 0.15733 0.20408
 C851 C 0.26594 0.13823 0.22415
 N852 N 0.27081 0.12759 0.21055
 N853 N 0.28170 0.11405 0.21320
 C854 C 0.28821 0.11059 0.22957
 N855 N 0.28335 0.12124 0.24317
 N856 N 0.27244 0.13476 0.24052
 C857 C 0.30036 0.09553 0.23250
 C858 C 0.30776 0.09246 0.24927
 C859 C 0.31923 0.07829 0.25201
 C860 C 0.32357 0.06683 0.23806
 C861 C 0.31615 0.06988 0.22130
 C862 C 0.30470 0.08406 0.21855
 H863 H 0.25258 0.16116 0.24876
 H864 H 0.23278 0.18604 0.24379
 H865 H 0.23181 0.17420 0.18797
 H866 H 0.25181 0.14948 0.19282
 H867 H 0.30477 0.10106 0.26030
 H868 H 0.32491 0.07644 0.26501
 H869 H 0.31901 0.06114 0.21035
 H870 H 0.29919 0.08597 0.20549
 C871 C 0.75505 0.65244 0.72295
 C872 C 0.76184 0.66890 0.71743
 C873 C 0.75044 0.68310 0.71455
 C874 C 0.73198 0.68118 0.71710
 C875 C 0.72519 0.66473 0.72261
 C876 C 0.73659 0.65053 0.72552
 C877 C 0.76714 0.63736 0.72600
 N878 N 0.76075 0.62173 0.73226
 N879 N 0.77160 0.60818 0.73499
 C880 C 0.78931 0.60966 0.73154
 N881 N 0.79570 0.62529 0.72527
 N882 N 0.78485 0.63884 0.72257
 C883 C 0.80139 0.59455 0.73452
 C884 C 0.81953 0.59580 0.72999
 C885 C 0.83089 0.58154 0.73273
 C886 C 0.82439 0.56572 0.74011
 C887 C 0.80628 0.56447 0.74469
 C888 C 0.79490 0.57870 0.74191
 H889 H 0.77599 0.67087 0.71539
 H890 H 0.75611 0.69568 0.71055
 H891 H 0.71101 0.66276 0.72444
 H892 H 0.73088 0.63804 0.72969
 H893 H 0.82500 0.60780 0.72431
 H894 H 0.84482 0.58297 0.72926
 H895 H 0.80084 0.55237 0.75021
 H896 H 0.78101 0.57726 0.74553
 C897 C 0.75450 0.35136 0.78289
 C898 C 0.73613 0.35265 0.77973
 C899 C 0.72495 0.33797 0.78192
 C900 C 0.73189 0.32166 0.78731
 C901 C 0.75024 0.32039 0.79058
 C902 C 0.76140 0.33506 0.78841
 C903 C 0.76644 0.36683 0.78028
 N904 N 0.78409 0.36574 0.78390
 N905 N 0.79487 0.37955 0.78138
 C906 C 0.78847 0.39506 0.77512
 N907 N 0.77081 0.39617 0.77153
 N908 N 0.76003 0.38235 0.77406
 C909 C 0.80053 0.41038 0.77216
 C910 C 0.79405 0.42618 0.76492
 C911 C 0.80547 0.44055 0.76199
 C912 C 0.82361 0.43947 0.76628
 C913 C 0.83008 0.42371 0.77357
 C914 C 0.81868 0.40933 0.77645
 H915 H 0.73034 0.36501 0.77554
 H916 H 0.71084 0.33942 0.77951
 H917 H 0.75603 0.30795 0.79449
 H918 H 0.77549 0.33356 0.79092
 H919 H 0.78015 0.42748 0.76149
 H920 H 0.80005 0.45259 0.75657
 H921 H 0.84403 0.42240 0.77680
 H922 H 0.82414 0.39737 0.78201
 C923 C 0.25361 -0.14658 0.28395
 C924 C 0.23597 -0.14641 0.27793
 C925 C 0.22479 -0.16102 0.28047
 C926 C 0.23086 -0.17635 0.28919
 C927 C 0.24859 -0.17626 0.29538
 C928 C 0.25974 -0.16165 0.29276
 C929 C 0.26559 -0.13121 0.28091
 N930 N 0.28283 -0.13162 0.28620
 N931 N 0.29366 -0.11791 0.28330
 C932 C 0.28771 -0.10320 0.27498
 N933 N 0.27046 -0.10278 0.26972
 N934 N 0.25963 -0.11649 0.27262
 C935 C 0.29982 -0.08799 0.27164
 C936 C 0.29353 -0.07258 0.26347
 C937 C 0.30498 -0.05829 0.26026
 C938 C 0.32299 -0.05908 0.26514
 C939 C 0.32927 -0.07449 0.27332
 C940 C 0.31783 -0.08876 0.27654
 H941 H 0.23072 -0.13494 0.27123
 H942 H 0.21118 -0.15986 0.27606
 H943 H 0.25436 -0.18774 0.30157
 H944 H 0.27330 -0.16230 0.29750
 H945 H 0.27974 -0.07149 0.25958
 H946 H 0.29967 -0.04653 0.25416
 H947 H 0.34312 -0.07561 0.27701
 H948 H 0.32316 -0.10044 0.28279
 C949 C 0.24480 -0.15214 0.71782
 C950 C 0.25351 -0.16002 0.73215
 C951 C 0.26524 -0.17400 0.72949
 C952 C 0.26858 -0.18070 0.71236
 C953 C 0.25962 -0.17274 0.69804
 C954 C 0.24801 -0.15866 0.70075
 C955 C 0.23248 -0.13719 0.72067
 N956 N 0.22566 -0.12818 0.70674
 N957 N 0.21468 -0.11469 0.70932
 C958 C 0.21000 -0.10966 0.72593
 N959 N 0.21679 -0.11870 0.73986
 N960 N 0.22781 -0.13215 0.73729
 C961 C 0.19779 -0.09463 0.72881
 C962 C 0.19128 -0.09080 0.74583
 C963 C 0.17979 -0.07663 0.74855
 C964 C 0.17458 -0.06589 0.73432
 C965 C 0.18111 -0.06971 0.71730
 C966 C 0.19254 -0.08393 0.71457
 H967 H 0.25126 -0.15541 0.74552
 H968 H 0.27106 -0.17991 0.74111
 H969 H 0.26205 -0.17676 0.68453
 H970 H 0.24159 -0.15284 0.68937
 H971 H 0.19496 -0.09882 0.75708
 H972 H 0.17478 -0.07423 0.76177
 H973 H 0.17760 -0.06155 0.70610
 H974 H 0.19737 -0.08644 0.70130
 C975 C 0.74467 0.34957 0.21743
 C976 C 0.73814 0.33296 0.21217
 C977 C 0.74977 0.31890 0.20937
 C978 C 0.76819 0.32113 0.21172
 C979 C 0.77473 0.33775 0.21689
 C980 C 0.76311 0.35180 0.21973
 C981 C 0.73233 0.36445 0.22054
 N982 N 0.73847 0.38019 0.22667
 N983 N 0.72739 0.39353 0.22954
 C984 C 0.70969 0.39174 0.22640
 N985 N 0.70354 0.37601 0.22026
 N986 N 0.71462 0.36265 0.21741
 C987 C 0.69735 0.40660 0.22964
 C988 C 0.67919 0.40504 0.22543
 C989 C 0.66758 0.41906 0.22846
 C990 C 0.67383 0.43493 0.23583
 C991 C 0.69196 0.43649 0.24007
 C992 C 0.70359 0.42250 0.23698
 H993 H 0.72402 0.33074 0.21034
 H994 H 0.74429 0.30620 0.20563
 H995 H 0.78887 0.33995 0.21858
 H996 H 0.76862 0.36442 0.22369
 H997 H 0.67391 0.39298 0.21978
 H998 H 0.65364 0.41739 0.22525
 H999 H 0.69721 0.44863 0.24556
 H1000 H 0.71749 0.42418 0.24036
 C1001 C 0.74323 0.64787 0.27986
 C1002 C 0.74890 0.65222 0.29702
 C1003 C 0.76035 0.66655 0.29980
 C1004 C 0.76644 0.67684 0.28549
 C1005 C 0.76080 0.67249 0.26834
 C1006 C 0.74931 0.65819 0.26556
 C1007 C 0.73107 0.63266 0.27690
 N1008 N 0.72497 0.62888 0.26044
 N1009 N 0.71405 0.61523 0.25778
 C1010 C 0.70877 0.60475 0.27145
 N1011 N 0.71487 0.60853 0.28791
 N1012 N 0.72578 0.62219 0.29058
 C1013 C 0.69662 0.58954 0.26848
 C1014 C 0.69184 0.57823 0.28250
 C1015 C 0.68040 0.56389 0.27969
 C1016 C 0.67346 0.56052 0.26279
 C1017 C 0.67822 0.57184 0.24876
 C1018 C 0.68967 0.58617 0.25157
 H1019 H 0.74452 0.64455 0.30835
 H1020 H 0.76464 0.66946 0.31315
 H1021 H 0.76510 0.68031 0.25708
 H1022 H 0.74520 0.65525 0.25217
 H1023 H 0.69699 0.58038 0.29568
 H1024 H 0.67720 0.55528 0.29071
 H1025 H 0.67290 0.56976 0.23564
 H1026 H 0.69300 0.59463 0.24047
 C1027 C 0.24485 0.14685 0.77956
 C1028 C 0.26339 0.14485 0.77801
 C1029 C 0.27486 0.15911 0.78106
 C1030 C 0.26809 0.17572 0.78568
 C1031 C 0.24956 0.17773 0.78723
 C1032 C 0.23808 0.16347 0.78424
 C1033 C 0.23266 0.13173 0.77631
 N1034 N 0.21485 0.13331 0.77895
 N1035 N 0.20389 0.11974 0.77601
 C1036 C 0.21027 0.10401 0.77028
 N1037 N 0.22809 0.10244 0.76763
 N1038 N 0.23905 0.11600 0.77059
 C1039 C 0.19807 0.08891 0.76700
 C1040 C 0.20454 0.07303 0.75993
 C1041 C 0.19303 0.05881 0.75683
 C1042 C 0.17479 0.06011 0.76080
 C1043 C 0.16831 0.07595 0.76788
 C1044 C 0.17981 0.09020 0.77092
 H1045 H 0.26908 0.13223 0.77451
 H1046 H 0.28908 0.15707 0.77998
 H1047 H 0.24391 0.19042 0.79052
 H1048 H 0.22389 0.16552 0.78548
 H1049 H 0.21852 0.07155 0.75678
 H1050 H 0.19845 0.04669 0.75155
 H1051 H 0.15429 0.07742 0.77088
 H1052 H 0.17435 0.10223 0.77635
 C1053 C 0.21876 0.25727 0.15031
 C1054 C 0.23312 0.25164 0.16071
 C1055 C 0.23027 0.24050 0.17521
 C1056 C 0.21301 0.23477 0.17969
 C1057 C 0.19864 0.24043 0.16935
 C1058 C 0.20148 0.25153 0.15482
 C1059 C 0.22179 0.26901 0.13484
 N1060 N 0.20804 0.27396 0.12439
 N1061 N 0.21078 0.28447 0.11048
 C1062 C 0.22737 0.29050 0.10644
 N1063 N 0.24112 0.28556 0.11690
 N1064 N 0.23839 0.27503 0.13079
 C1065 C 0.23041 0.30222 0.09096
 C1066 C 0.24749 0.30900 0.08721
 C1067 C 0.25034 0.32009 0.07267
 C1068 C 0.23618 0.32467 0.06152
 C1069 C 0.21912 0.31787 0.06523
 C1070 C 0.21626 0.30679 0.07978
 H1071 H 0.24660 0.25582 0.15766
 H1072 H 0.24158 0.23653 0.18307
 H1073 H 0.18520 0.23606 0.17236
 H1074 H 0.19011 0.25558 0.14710
 H1075 H 0.25869 0.30582 0.09556
 H1076 H 0.26360 0.32530 0.07031
 H1077 H 0.20798 0.32093 0.05675
 H1078 H 0.20295 0.30176 0.08222
 C1079 C 0.71990 0.75634 0.65174
 C1080 C 0.73428 0.75068 0.66210
 C1081 C 0.73145 0.73952 0.67660
 C1082 C 0.71419 0.73379 0.68110
 C1083 C 0.69981 0.73946 0.67078
 C1084 C 0.70263 0.75058 0.65626
 C1085 C 0.72289 0.76815 0.63633
 N1086 N 0.70912 0.77308 0.62589
 N1087 N 0.71180 0.78368 0.61204
 C1088 C 0.72836 0.78982 0.60804
 N1089 N 0.74214 0.78490 0.61848
 N1090 N 0.73946 0.77429 0.63232
 C1091 C 0.73134 0.80164 0.59263
 C1092 C 0.74836 0.80860 0.58896
 C1093 C 0.75114 0.81977 0.57446
 C1094 C 0.73697 0.82424 0.56327
 C1095 C 0.71996 0.81726 0.56692
 C1096 C 0.71717 0.80611 0.58142
 H1097 H 0.74775 0.75487 0.65904
 H1098 H 0.74277 0.73553 0.68443
 H1099 H 0.68638 0.73508 0.67380
 H1100 H 0.69124 0.75464 0.64857
 H1101 H 0.75957 0.80550 0.59733
 H1102 H 0.76435 0.82512 0.57215
 H1103 H 0.70882 0.82024 0.55841
 H1104 H 0.70390 0.80094 0.58380
 C1105 C 0.77829 0.75328 0.34943
 C1106 C 0.78351 0.75990 0.33279
 C1107 C 0.78637 0.74849 0.31858
 C1108 C 0.78412 0.73017 0.32066
 C1109 C 0.77888 0.72354 0.33728
 C1110 C 0.77599 0.73496 0.35149
 C1111 C 0.77531 0.76540 0.36453
 N1112 N 0.76937 0.75917 0.38037
 N1113 N 0.76674 0.77005 0.39394
 C1114 C 0.76995 0.78764 0.39227
 N1115 N 0.77589 0.79387 0.37643
 N1116 N 0.77850 0.78299 0.36286
 C1117 C 0.76708 0.79976 0.40739
 C1118 C 0.77138 0.81779 0.40590
 C1119 C 0.76876 0.82920 0.42017
 C1120 C 0.76173 0.82287 0.43624
 C1121 C 0.75738 0.80486 0.43773
 C1122 C 0.76006 0.79343 0.42349
 H1123 H 0.78533 0.77394 0.33070
 H1124 H 0.79014 0.75403 0.30588
 H1125 H 0.77726 0.70948 0.33937
 H1126 H 0.77204 0.72939 0.36412
 H1127 H 0.77678 0.82314 0.39370
 H1128 H 0.77203 0.84305 0.41854
 H1129 H 0.75214 0.79955 0.45002
 H1130 H 0.75662 0.77962 0.42512
 C1131 C 0.27849 0.25307 -0.15122
 C1132 C 0.27617 0.23478 -0.14895
 C1133 C 0.27933 0.22317 -0.16295
 C1134 C 0.28484 0.22958 -0.17957
 C1135 C 0.28709 0.24787 -0.18187
 C1136 C 0.28397 0.25948 -0.16786
 C1137 C 0.27529 0.26538 -0.13632
 N1138 N 0.27858 0.28294 -0.13815
 N1139 N 0.27581 0.29398 -0.12474
 C1140 C 0.26960 0.28795 -0.10892
 N1141 N 0.26628 0.27039 -0.10710
 N1142 N 0.26908 0.25935 -0.12051
 C1143 C 0.26660 0.30024 -0.09396
 C1144 C 0.25928 0.29410 -0.07791
 C1145 C 0.25654 0.30567 -0.06379
 C1146 C 0.26111 0.32362 -0.06536
 C1147 C 0.26841 0.32976 -0.08139
 C1148 C 0.27109 0.31822 -0.09554
 H1149 H 0.27204 0.22937 -0.13630
 H1150 H 0.27772 0.20914 -0.16068
 H1151 H 0.29109 0.25324 -0.19458
 H1152 H 0.28582 0.27349 -0.17012
 H1153 H 0.25569 0.28034 -0.07621
 H1154 H 0.25109 0.30050 -0.05153
 H1155 H 0.27186 0.34356 -0.08306
 H1156 H 0.27673 0.32342 -0.10770
 C1157 C 0.72007 0.24323 -0.15176
 C1158 C 0.72038 0.23701 -0.16926
 C1159 C 0.71750 0.24854 -0.18340
 C1160 C 0.71464 0.26655 -0.18030
 C1161 C 0.71442 0.27282 -0.16284
 C1162 C 0.71693 0.26123 -0.14868
 C1163 C 0.72309 0.23106 -0.13678
 N1164 N 0.71683 0.23490 -0.12036
 N1165 N 0.71961 0.22398 -0.10684
 C1166 C 0.72892 0.20885 -0.10916
 N1167 N 0.73524 0.20504 -0.12557
 N1168 N 0.73232 0.21588 -0.13912
 C1169 C 0.73217 0.19683 -0.09410
 C1170 C 0.74673 0.18528 -0.09436
 C1171 C 0.74996 0.17414 -0.07999
 C1172 C 0.73849 0.17408 -0.06528
 C1173 C 0.72383 0.18546 -0.06508
 C1174 C 0.72080 0.19686 -0.07929
 H1175 H 0.72269 0.22319 -0.17201
 H1176 H 0.71779 0.24347 -0.19679
 H1177 H 0.71214 0.28666 -0.16017
 H1178 H 0.71668 0.26641 -0.13534
 H1179 H 0.75576 0.18503 -0.10556
 H1180 H 0.76130 0.16540 -0.08043
 H1181 H 0.71487 0.18569 -0.05382
 H1182 H 0.70945 0.20557 -0.07876
 C1183 C 0.22069 0.74540 0.35037
 C1184 C 0.21785 0.76342 0.35365
 C1185 C 0.21511 0.77513 0.33964
 C1186 C 0.21479 0.76898 0.32214
 C1187 C 0.21741 0.75096 0.31885
 C1188 C 0.22052 0.73930 0.33282
 C1189 C 0.22378 0.73305 0.36519
 N1190 N 0.23275 0.71777 0.36256
 N1191 N 0.23563 0.70670 0.37595
 C1192 C 0.22951 0.71040 0.39246
 N1193 N 0.22046 0.72563 0.39506
 N1194 N 0.21773 0.73678 0.38171
 C1195 C 0.23262 0.69809 0.40730
 C1196 C 0.22123 0.69799 0.42210
 C1197 C 0.22407 0.68626 0.43608
 C1198 C 0.23857 0.67469 0.43568
 C1199 C 0.25008 0.67489 0.42100
 C1200 C 0.24702 0.68635 0.40684
 H1201 H 0.21798 0.76850 0.36703
 H1202 H 0.21303 0.78897 0.34246
 H1203 H 0.21726 0.74598 0.30542
 H1204 H 0.22258 0.72547 0.32992
 H1205 H 0.20999 0.70683 0.42279
 H1206 H 0.21510 0.68639 0.44734
 H1207 H 0.26130 0.66601 0.42040
 H1208 H 0.25605 0.68620 0.39563
 C1209 C 0.28299 0.74448 0.64786
 C1210 C 0.28063 0.76277 0.64593
 C1211 C 0.28307 0.77411 0.66029
 C1212 C 0.28788 0.76743 0.67694
 C1213 C 0.29027 0.74915 0.67887
 C1214 C 0.28787 0.73781 0.66451
 C1215 C 0.28030 0.73242 0.63265
 N1216 N 0.28347 0.71487 0.63421
 N1217 N 0.28097 0.70403 0.62058
 C1218 C 0.27516 0.71028 0.60479
 N1219 N 0.27200 0.72784 0.60322
 N1220 N 0.27453 0.73868 0.61685
 C1221 C 0.27222 0.69819 0.58965
 C1222 C 0.26515 0.70452 0.57368
 C1223 C 0.26219 0.69310 0.55949
 C1224 C 0.26628 0.67509 0.56090
 C1225 C 0.27345 0.66876 0.57680
 C1226 C 0.27636 0.68017 0.59103
 H1227 H 0.27695 0.76838 0.63329
 H1228 H 0.28137 0.78815 0.65831
 H1229 H 0.29374 0.74357 0.69158
 H1230 H 0.28973 0.72380 0.66650
 H1231 H 0.26184 0.71832 0.57212
 H1232 H 0.25686 0.69841 0.54732
 H1233 H 0.27655 0.65492 0.57836
 H1234 H 0.28181 0.67483 0.60312
 C1235 C 0.78204 0.24521 0.14771
 C1236 C 0.77980 0.26351 0.14572
 C1237 C 0.78226 0.27488 0.16006
 C1238 C 0.78698 0.26821 0.17674
 C1239 C 0.78922 0.24992 0.17874
 C1240 C 0.78680 0.23856 0.16439
 C1241 C 0.77942 0.23315 0.13249
 N1242 N 0.78279 0.21563 0.13401
 N1243 N 0.78040 0.20480 0.12036
 C1244 C 0.77451 0.21102 0.10459
 N1245 N 0.77113 0.22854 0.10306
 N1246 N 0.77354 0.23937 0.11671
 C1247 C 0.77175 0.19894 0.08940
 C1248 C 0.76436 0.20517 0.07353
 C1249 C 0.76162 0.19375 0.05929
 C1250 C 0.76627 0.17587 0.06054
 C1251 C 0.77374 0.16965 0.07635
 C1252 C 0.77642 0.18104 0.09063
 H1253 H 0.77622 0.26911 0.13305
 H1254 H 0.78070 0.28892 0.15802
 H1255 H 0.79262 0.24435 0.19147
 H1256 H 0.78857 0.22453 0.16643
 H1257 H 0.76064 0.21887 0.07210
 H1258 H 0.75603 0.19897 0.04720
 H1259 H 0.77727 0.15589 0.07778
 H1260 H 0.78212 0.17578 0.10264
 C1261 C 0.46718 0.39520 0.50545
 C1262 C 0.46239 0.41180 0.51219
 C1263 C 0.45964 0.42607 0.50080
 C1264 C 0.46158 0.42407 0.48241
 C1265 C 0.46628 0.40747 0.47567
 C1266 C 0.46907 0.39321 0.48704
 C1267 C 0.47028 0.38009 0.51752
 N1268 N 0.47606 0.36438 0.51115
 N1269 N 0.47896 0.35084 0.52199
 C1270 C 0.47619 0.35241 0.53969
 N1271 N 0.47038 0.36811 0.54607
 N1272 N 0.46750 0.38166 0.53522
 C1273 C 0.47952 0.33735 0.55177
 C1274 C 0.47567 0.33866 0.56994
 C1275 C 0.47889 0.32449 0.58132
 C1276 C 0.48611 0.30871 0.57481
 C1277 C 0.48994 0.30738 0.55665
 C1278 C 0.48666 0.32152 0.54526
 H1279 H 0.46089 0.41383 0.52629
 H1280 H 0.45627 0.43875 0.50643
 H1281 H 0.46761 0.40543 0.46155
 H1282 H 0.47266 0.38060 0.48138
 H1283 H 0.47018 0.35065 0.57542
 H1284 H 0.47599 0.32598 0.59528
 H1285 H 0.49529 0.29531 0.55121
 H1286 H 0.48976 0.32002 0.53134
 C1287 C -0.02994 0.89852 0.00496
 C1288 C -0.01554 0.90679 -0.00368
 C1289 C -0.01834 0.92103 -0.01507
 C1290 C -0.03566 0.92714 -0.01837
 C1291 C -0.05007 0.91872 -0.00981
 C1292 C -0.04723 0.90468 0.00184
 C1293 C -0.02693 0.88355 0.01714
 N1294 N -0.03909 0.87934 0.02983
 N1295 N -0.03632 0.86592 0.04086
 C1296 C -0.02133 0.85607 0.03955
 N1297 N -0.00920 0.86024 0.02680
 N1298 N -0.01191 0.87375 0.01587
 C1299 C -0.01827 0.84113 0.05175
 C1300 C -0.00665 0.82748 0.04702
 C1301 C -0.00382 0.81330 0.05849
 C1302 C -0.01230 0.81259 0.07513
 C1303 C -0.02383 0.82638 0.07987
 C1304 C -0.02689 0.84039 0.06826
 H1305 H -0.00204 0.90244 -0.00140
 H1306 H -0.00688 0.92739 -0.02111
 H1307 H -0.06362 0.92281 -0.01226
 H1308 H -0.05861 0.89846 0.00818
 H1309 H 0.00006 0.82760 0.03430
 H1310 H 0.00484 0.80278 0.05417
 H1311 H -0.03032 0.82652 0.09268
 H1312 H -0.03580 0.85081 0.07234
 C1313 C 0.03196 0.60052 0.00638
 C1314 C 0.01754 0.59011 0.00062
 C1315 C 0.02026 0.57601 -0.01094
 C1316 C 0.03746 0.57193 -0.01697
 C1317 C 0.05189 0.58228 -0.01120
 C1318 C 0.04917 0.59642 0.00032
 C1319 C 0.02905 0.61554 0.01858
 N1320 N 0.04280 0.62613 0.02353
 N1321 N 0.04016 0.63965 0.03445
 C1322 C 0.02366 0.64316 0.04091
 N1323 N 0.00991 0.63255 0.03597
 N1324 N 0.01255 0.61904 0.02504
 C1325 C 0.02069 0.65824 0.05303
 C1326 C 0.00374 0.66131 0.06031
 C1327 C 0.00091 0.67555 0.07168
 C1328 C 0.01494 0.68708 0.07603
 C1329 C 0.03190 0.68400 0.06878
 C1330 C 0.03474 0.66975 0.05742
 H1331 H 0.00411 0.59285 0.00503
 H1332 H 0.00891 0.56813 -0.01499
 H1333 H 0.06527 0.57957 -0.01579
 H1334 H 0.06058 0.60416 0.00445
 H1335 H -0.00738 0.65269 0.05729
 H1336 H -0.01225 0.67740 0.07725
 H1337 H 0.04294 0.69278 0.07167
 H1338 H 0.04796 0.66782 0.05201
 C1339 C 0.53150 0.09763 0.50456
 C1340 C 0.53164 0.08022 0.51099
 C1341 C 0.53458 0.06610 0.49949
 C1342 C 0.53705 0.06912 0.48131
 C1343 C 0.53675 0.08648 0.47484
 C1344 C 0.53418 0.10063 0.48639
 C1345 C 0.52854 0.11258 0.51674
 N1346 N 0.53468 0.12900 0.51264
 N1347 N 0.53205 0.14247 0.52362
 C1348 C 0.52303 0.14010 0.53907
 N1349 N 0.51683 0.12370 0.54313
 N1350 N 0.51960 0.11020 0.53223
 C1351 C 0.52003 0.15507 0.55121
 C1352 C 0.50561 0.15483 0.56312
 C1353 C 0.50267 0.16908 0.57445
 C1354 C 0.51430 0.18365 0.57434
 C1355 C 0.52882 0.18384 0.56258
 C1356 C 0.53155 0.16977 0.55098
 H1357 H 0.52969 0.07752 0.52494
 H1358 H 0.53470 0.05278 0.50472
 H1359 H 0.53871 0.08909 0.46087
 H1360 H 0.53407 0.11391 0.48107
 H1361 H 0.49648 0.14371 0.56352
 H1362 H 0.49143 0.16864 0.58349
 H1363 H 0.53790 0.19500 0.56223
 H1364 H 0.54281 0.17028 0.54199
 C1365 C -0.03102 0.10089 0.49414
 C1366 C -0.01653 0.09059 0.49958
 C1367 C -0.01916 0.07603 0.51069
 C1368 C -0.03633 0.07141 0.51660
 C1369 C -0.05082 0.08167 0.51116
 C1370 C -0.04820 0.09625 0.50008
 C1371 C -0.02823 0.11633 0.48235
 N1372 N -0.04211 0.12661 0.47746
 N1373 N -0.03960 0.14047 0.46685
 C1374 C -0.02309 0.14465 0.46066
 N1375 N -0.00921 0.13437 0.46555
 N1376 N -0.01172 0.12052 0.47616
 C1377 C -0.02029 0.16005 0.44881
 C1378 C -0.00329 0.16398 0.44195
 C1379 C -0.00065 0.17846 0.43074
 C1380 C -0.01495 0.18938 0.42614
 C1381 C -0.03195 0.18548 0.43300
 C1382 C -0.03459 0.17099 0.44420
 H1383 H -0.00312 0.09373 0.49524
 H1384 H -0.00776 0.06824 0.51448
 H1385 H -0.06418 0.07854 0.51566
 H1386 H -0.05966 0.10389 0.49619
 H1387 H 0.00802 0.15581 0.44515
 H1388 H 0.01256 0.18096 0.42548
 H1389 H -0.04319 0.19378 0.42991
 H1390 H -0.04786 0.16841 0.44928
 C1391 C 0.46987 0.60039 0.99504
 C1392 C 0.46498 0.58388 0.98806
 C1393 C 0.46230 0.56936 0.99920
 C1394 C 0.46439 0.57101 1.01759
 C1395 C 0.46932 0.58750 1.02457
 C1396 C 0.47204 0.60202 1.01343
 C1397 C 0.47264 0.61582 0.98321
 N1398 N 0.47831 0.63156 0.98975
 N1399 N 0.48076 0.64541 0.97912
 C1400 C 0.47763 0.64413 0.96148
 N1401 N 0.47196 0.62839 0.95494
 N1402 N 0.46953 0.61454 0.96557
 C1403 C 0.48034 0.65955 0.94963
 C1404 C 0.47613 0.65844 0.93156
 C1405 C 0.47868 0.67295 0.92039
 C1406 C 0.48556 0.68891 0.92700
 C1407 C 0.48979 0.69004 0.94505
 C1408 C 0.48718 0.67554 0.95625
 H1409 H 0.46328 0.58211 0.97396
 H1410 H 0.45878 0.55677 0.99339
 H1411 H 0.47082 0.58925 1.03870
 H1412 H 0.47574 0.61455 1.01927
 H1413 H 0.47087 0.64633 0.92600
 H1414 H 0.47551 0.67161 0.90650
 H1415 H 0.49492 0.70222 0.95057
 H1416 H 0.49054 0.67688 0.97009
 C1417 C 0.52809 0.90329 0.99530
 C1418 C 0.53693 0.91852 0.98923
 C1419 C 0.53997 0.93279 1.00053
 C1420 C 0.53419 0.93235 1.01836
 C1421 C 0.52525 0.91694 1.02430
 C1422 C 0.52229 0.90268 1.01297
 C1423 C 0.52495 0.88812 0.98330
 N1424 N 0.51667 0.87324 0.98924
 N1425 N 0.51390 0.85960 0.97848
 C1426 C 0.51926 0.86026 0.96131
 N1427 N 0.52752 0.87514 0.95536
 N1428 N 0.53031 0.88878 0.96612
 C1429 C 0.51622 0.84505 0.94934
 C1430 C 0.52148 0.84591 0.93147
 C1431 C 0.51869 0.83156 0.92022
 C1432 C 0.51058 0.81600 0.92654
 C1433 C 0.50529 0.81514 0.94438
 C1434 C 0.50807 0.82949 0.95565
 H1435 H 0.54146 0.91952 0.97564
 H1436 H 0.54623 0.94439 0.99487
 H1437 H 0.52110 0.91538 1.03793
 H1438 H 0.51555 0.89109 1.01816
 H1439 H 0.52773 0.85770 0.92614
 H1440 H 0.52269 0.83272 0.90648
 H1441 H 0.49922 0.80326 0.94972
 H1442 H 0.50390 0.82833 0.96933
 C1443 C 0.02727 0.40337 0.49535
 C1444 C 0.01296 0.41382 0.50109
 C1445 C 0.01584 0.42811 0.51242
 C1446 C 0.03309 0.43231 0.51822
 C1447 C 0.04739 0.42190 0.51249
 C1448 C 0.04452 0.40759 0.50120
 C1449 C 0.02423 0.38818 0.48336
 N1450 N 0.03795 0.37772 0.47829
 N1451 N 0.03524 0.36408 0.46753
 C1452 C 0.01870 0.36030 0.46136
 N1453 N 0.00498 0.37075 0.46642
 N1454 N 0.00769 0.38439 0.47720
 C1455 C 0.01571 0.34511 0.44934
 C1456 C -0.00129 0.34161 0.44242
 C1457 C -0.00407 0.32733 0.43106
 C1458 C 0.01007 0.31621 0.42635
 C1459 C 0.02705 0.31968 0.43330
 C1460 C 0.02984 0.33396 0.44465
 H1461 H -0.00049 0.41098 0.49683
 H1462 H 0.00459 0.43601 0.51648
 H1463 H 0.06080 0.42468 0.51694
 H1464 H 0.05585 0.39982 0.49709
 H1465 H -0.01247 0.34995 0.44570
 H1466 H -0.01726 0.32515 0.42575
 H1467 H 0.03817 0.31121 0.43015
 H1468 H 0.04309 0.33620 0.44978
 C1469 C 0.39876 0.50159 0.47083
 C1470 C 0.41563 0.50786 0.46556
 C1471 C 0.42965 0.49617 0.46275
 C1472 C 0.42714 0.47791 0.46508
 C1473 C 0.41030 0.47164 0.47040
 C1474 C 0.39627 0.48334 0.47327
 C1475 C 0.38385 0.51402 0.47367
 N1476 N 0.36789 0.50823 0.48002
 N1477 N 0.35450 0.51940 0.48250
 C1478 C 0.35647 0.53684 0.47871
 N1479 N 0.37242 0.54262 0.47237
 N1480 N 0.38582 0.53146 0.46991
 C1481 C 0.34155 0.54928 0.48140
 C1482 C 0.34320 0.56703 0.47612
 C1483 C 0.32913 0.57875 0.47860
 C1484 C 0.31312 0.57304 0.48647
 C1485 C 0.31147 0.55533 0.49180
 C1486 C 0.32550 0.54357 0.48926
 H1487 H 0.41806 0.52184 0.46365
 H1488 H 0.44254 0.50145 0.45893
 H1489 H 0.40787 0.45763 0.47209
 H1490 H 0.38345 0.47804 0.47725
 H1491 H 0.35536 0.57190 0.47005
 H1492 H 0.33087 0.59237 0.47455
 H1493 H 0.29922 0.55050 0.49773
 H1494 H 0.32376 0.53000 0.49347
 C1495 C 0.90196 0.00462 -0.02948
 C1496 C 0.91721 0.01009 -0.03884
 C1497 C 0.93125 -0.00154 -0.04183
 C1498 C 0.93056 -0.01911 -0.03550
 C1499 C 0.91519 -0.02439 -0.02595
 C1500 C 0.90115 -0.01274 -0.02303
 C1501 C 0.88693 0.01690 -0.02658
 N1502 N 0.87204 0.01154 -0.01776
 N1503 N 0.85848 0.02251 -0.01529
 C1504 C 0.85921 0.03932 -0.02153
 N1505 N 0.87411 0.04469 -0.03033
 N1506 N 0.88766 0.03372 -0.03281
 C1507 C 0.84407 0.05151 -0.01885
 C1508 C 0.84495 0.06896 -0.02516
 C1509 C 0.83066 0.08042 -0.02268
 C1510 C 0.81516 0.07472 -0.01382
 C1511 C 0.81428 0.05728 -0.00751
 C1512 C 0.82856 0.04581 -0.00999
 H1513 H 0.91837 0.02345 -0.04386
 H1514 H 0.94289 0.00366 -0.04856
 H1515 H 0.91342 -0.03780 -0.02131
 H1516 H 0.88955 -0.01746 -0.01586
 H1517 H 0.85670 0.07382 -0.03200
 H1518 H 0.83185 0.09385 -0.02749
 H1519 H 0.80243 0.05242 -0.00084
 H1520 H 0.82738 0.03245 -0.00500
 C1521 C 0.59973 0.00781 0.03005
 C1522 C 0.60150 -0.01052 0.02785
 C1523 C 0.58697 -0.02182 0.03062
 C1524 C 0.57031 -0.01507 0.03560
 C1525 C 0.56853 0.00325 0.03781
 C1526 C 0.58307 0.01455 0.03508
 C1527 C 0.61516 0.01979 0.02711
 N1528 N 0.61390 0.03735 0.03047
 N1529 N 0.62776 0.04810 0.02781
 C1530 C 0.64348 0.04177 0.02165
 N1531 N 0.64475 0.02422 0.01829
 N1532 N 0.63090 0.01346 0.02098
 C1533 C 0.65891 0.05374 0.01861
 C1534 C 0.67469 0.04736 0.01095
 C1535 C 0.68918 0.05866 0.00795
 C1536 C 0.68826 0.07657 0.01260
 C1537 C 0.67254 0.08295 0.02034
 C1538 C 0.65801 0.07167 0.02327
 H1539 H 0.61414 -0.01619 0.02407
 H1540 H 0.58885 -0.03589 0.02910
 H1541 H 0.55582 0.00887 0.04144
 H1542 H 0.58121 0.02860 0.03684
 H1543 H 0.67588 0.03363 0.00722
 H1544 H 0.70120 0.05331 0.00217
 H1545 H 0.67137 0.09673 0.02389
 H1546 H 0.64606 0.07704 0.02919
 C1547 C 0.09780 0.50841 0.53007
 C1548 C 0.08971 0.49960 0.51588
 C1549 C 0.07538 0.48808 0.51875
 C1550 C 0.06851 0.48510 0.53595
 C1551 C 0.07672 0.49412 0.55012
 C1552 C 0.09115 0.50551 0.54722
 C1553 C 0.11309 0.52053 0.52702
 N1554 N 0.12244 0.52724 0.54083
 N1555 N 0.13623 0.53806 0.53808
 C1556 C 0.14124 0.54269 0.52140
 N1557 N 0.13186 0.53601 0.50759
 N1558 N 0.11811 0.52515 0.51034
 C1559 C 0.15663 0.55468 0.51833
 C1560 C 0.16032 0.56132 0.50132
 C1561 C 0.17488 0.57254 0.49841
 C1562 C 0.18618 0.57732 0.51241
 C1563 C 0.18247 0.57069 0.52942
 C1564 C 0.16784 0.55955 0.53236
 H1565 H 0.09443 0.50161 0.50246
 H1566 H 0.06931 0.48216 0.50723
 H1567 H 0.07261 0.49194 0.56368
 H1568 H 0.09713 0.51201 0.55849
 H1569 H 0.15189 0.55795 0.49024
 H1570 H 0.17717 0.57764 0.48520
 H1571 H 0.19105 0.57387 0.54045
 H1572 H 0.16546 0.55460 0.54561
 C1573 C 0.10108 0.49546 -0.03022
 C1574 C 0.09692 0.50153 -0.04729
 C1575 C 0.08277 0.51311 -0.04989
 C1576 C 0.07248 0.51892 -0.03550
 C1577 C 0.07666 0.51292 -0.01843
 C1578 C 0.09078 0.50131 -0.01582
 C1579 C 0.11603 0.48309 -0.02746
 N1580 N 0.11970 0.47672 -0.01109
 N1581 N 0.13310 0.46557 -0.00862
 C1582 C 0.14341 0.46032 -0.02243
 N1583 N 0.13975 0.46670 -0.03880
 N1584 N 0.12634 0.47784 -0.04127
 C1585 C 0.15832 0.44790 -0.01968
 C1586 C 0.16938 0.44300 -0.03389
 C1587 C 0.18345 0.43132 -0.03129
 C1588 C 0.18679 0.42425 -0.01444
 C1589 C 0.17574 0.42913 -0.00025
 C1590 C 0.16168 0.44082 -0.00283
 H1591 H 0.10458 0.49735 -0.05868
 H1592 H 0.08000 0.51768 -0.06317
 H1593 H 0.06883 0.51701 -0.00711
 H1594 H 0.09358 0.49689 -0.00250
 H1595 H 0.16724 0.44823 -0.04703
 H1596 H 0.19187 0.42802 -0.04245
 H1597 H 0.17781 0.42374 0.01285
 H1598 H 0.15340 0.44425 0.00840
 C1599 C 0.59922 0.99192 0.46965
 C1600 C 0.59100 1.00057 0.48387
 C1601 C 0.57702 1.01230 0.48099
 C1602 C 0.57068 1.01567 0.46374
 C1603 C 0.57899 1.00675 0.44955
 C1604 C 0.59303 0.99515 0.45247
 C1605 C 0.61423 0.97968 0.47265
 N1606 N 0.62340 0.97280 0.45879
 N1607 N 0.63696 0.96190 0.46145
 C1608 C 0.64193 0.95739 0.47810
 N1609 N 0.63274 0.96425 0.49197
 N1610 N 0.61920 0.97518 0.48931
 C1611 C 0.65707 0.94530 0.48104
 C1612 C 0.66102 0.93912 0.49811
 C1613 C 0.67530 0.92772 0.50085
 C1614 C 0.68602 0.92229 0.48659
 C1615 C 0.68209 0.92851 0.46953
 C1616 C 0.66777 0.93983 0.46678
 H1617 H 0.59535 0.99830 0.49731
 H1618 H 0.57084 1.01813 0.49251
 H1619 H 0.57533 1.00922 0.43596
 H1620 H 0.59913 0.98878 0.44117
 H1621 H 0.65300 0.94298 0.50938
 H1622 H 0.67779 0.92298 0.51412
 H1623 H 0.69024 0.92482 0.45830
 H1624 H 0.66518 0.94441 0.45347
 C1625 C 0.90037 0.99378 0.52730
 C1626 C 0.91588 0.98797 0.53569
 C1627 C 0.93010 0.99955 0.53866
 C1628 C 0.92933 1.01741 0.53327
 C1629 C 0.91365 1.02308 0.52477
 C1630 C 0.89943 1.01147 0.52187
 C1631 C 0.88524 0.98148 0.52427
 N1632 N 0.87009 0.98713 0.51639
 N1633 N 0.85649 0.97609 0.51373
 C1634 C 0.85745 0.95893 0.51883
 N1635 N 0.87260 0.95328 0.52670
 N1636 N 0.88620 0.96432 0.52936
 C1637 C 0.84228 0.94665 0.51594
 C1638 C 0.84342 0.92883 0.52102
 C1639 C 0.82909 0.91729 0.51839
 C1640 C 0.81328 0.92327 0.51062
 C1641 C 0.81214 0.94106 0.50551
 C1642 C 0.82646 0.95262 0.50814
 H1643 H 0.91714 0.97438 0.53992
 H1644 H 0.94194 0.99411 0.54457
 H1645 H 0.91184 1.03670 0.52092
 H1646 H 0.88762 1.01646 0.51548
 H1647 H 0.85540 0.92376 0.52701
 H1648 H 0.83048 0.90360 0.52225
 H1649 H 0.80006 0.94614 0.49971
 H1650 H 0.82508 0.96626 0.50412
 C1651 C 0.40031 0.49356 0.02799
 C1652 C 0.41701 0.48709 0.03312
 C1653 C 0.43123 0.49865 0.03618
 C1654 C 0.42909 0.51696 0.03424
 C1655 C 0.41239 0.52344 0.02914
 C1656 C 0.39818 0.51188 0.02604
 C1657 C 0.38521 0.48129 0.02473
 N1658 N 0.36938 0.48740 0.01876
 N1659 N 0.35581 0.47639 0.01585
 C1660 C 0.35748 0.45879 0.01882
 N1661 N 0.37331 0.45269 0.02480
 N1662 N 0.38688 0.46369 0.02768
 C1663 C 0.34234 0.44655 0.01567
 C1664 C 0.34373 0.42852 0.01983
 C1665 C 0.32941 0.41701 0.01698
 C1666 C 0.31340 0.42324 0.00984
 C1667 C 0.31203 0.44124 0.00561
 C1668 C 0.32631 0.45277 0.00851
 H1669 H 0.41915 0.47306 0.03468
 H1670 H 0.44399 0.49323 0.03986
 H1671 H 0.41024 0.53749 0.02779
 H1672 H 0.38549 0.51734 0.02219
 H1673 H 0.35587 0.42326 0.02533
 H1674 H 0.33093 0.40317 0.02019
 H1675 H 0.29979 0.44648 0.00029
 H1676 H 0.32476 0.46657 0.00517
 C1677 C 0.50319 0.46499 0.39995
 C1678 C 0.50986 0.45969 0.41646
 C1679 C 0.49838 0.45688 0.43081
 C1680 C 0.47995 0.45927 0.42899
 C1681 C 0.47326 0.46450 0.41247
 C1682 C 0.48474 0.46734 0.39813
 C1683 C 0.51538 0.46810 0.38475
 N1684 N 0.50910 0.47420 0.36909
 N1685 N 0.52006 0.47705 0.35546
 C1686 C 0.53777 0.47391 0.35689
 N1687 N 0.54405 0.46779 0.37255
 N1688 N 0.53310 0.46495 0.38618
 C1689 C 0.54997 0.47712 0.34172
 C1690 C 0.56814 0.47296 0.34293
 C1691 C 0.57963 0.47598 0.32863
 C1692 C 0.57325 0.48327 0.31280
 C1693 C 0.55511 0.48745 0.31158
 C1694 C 0.54360 0.48438 0.32586
 H1695 H 0.52400 0.45782 0.41837
 H1696 H 0.50397 0.45310 0.44342
 H1697 H 0.45910 0.46620 0.41058
 H1698 H 0.47911 0.47133 0.38560
 H1699 H 0.57353 0.46737 0.35494
 H1700 H 0.59359 0.47281 0.33004
 H1701 H 0.54975 0.49289 0.29948
 H1702 H 0.52969 0.48772 0.32443
 C1703 C 0.00452 -0.03361 0.89785
 C1704 C -0.01391 -0.03096 0.89629
 C1705 C -0.02522 -0.03348 0.91083
 C1706 C -0.01836 -0.03868 0.92728
 C1707 C 0.00005 -0.04140 0.92883
 C1708 C 0.01136 -0.03891 0.91430
 C1709 C 0.01658 -0.03079 0.88249
 N1710 N 0.03427 -0.03409 0.88380
 N1711 N 0.04514 -0.03146 0.87006
 C1712 C 0.03879 -0.02540 0.85441
 N1713 N 0.02110 -0.02210 0.85309
 N1714 N 0.01022 -0.02475 0.86683
 C1715 C 0.05093 -0.02239 0.83915
 C1716 C 0.04452 -0.01527 0.82323
 C1717 C 0.05601 -0.01234 0.80890
 C1718 C 0.07416 -0.01652 0.81014
 C1719 C 0.08056 -0.02367 0.82602
 C1720 C 0.06910 -0.02655 0.84036
 H1721 H -0.01965 -0.02696 0.88381
 H1722 H -0.03938 -0.03154 0.90915
 H1723 H 0.00577 -0.04519 0.94139
 H1724 H 0.02548 -0.04102 0.91602
 H1725 H 0.03061 -0.01194 0.82181
 H1726 H 0.05064 -0.00701 0.79677
 H1727 H 0.09452 -0.02682 0.82744
 H1728 H 0.07452 -0.03202 0.85241
 C1729 C 0.00568 0.02883 0.59710
 C1730 C -0.00044 0.04593 0.59338
 C1731 C -0.01192 0.04892 0.57922
 C1732 C -0.01759 0.03488 0.56846
 C1733 C -0.01148 0.01779 0.57215
 C1734 C 0.00003 0.01480 0.58630
 C1735 C 0.01783 0.02565 0.61217
 N1736 N 0.02409 0.00922 0.61556
 N1737 N 0.03497 0.00636 0.62911
 C1738 C 0.04005 0.01981 0.63987
 N1739 N 0.03378 0.03623 0.63648
 N1740 N 0.02291 0.03909 0.62292
 C1741 C 0.05214 0.01662 0.65498
 C1742 C 0.05693 0.03047 0.66640
 C1743 C 0.06831 0.02748 0.68065
 C1744 C 0.07518 0.01057 0.68382
 C1745 C 0.07039 -0.00328 0.67242
 C1746 C 0.05901 -0.00029 0.65817
 H1747 H 0.00360 0.05705 0.60144
 H1748 H -0.01658 0.06220 0.57683
 H1749 H -0.01546 0.00675 0.56397
 H1750 H 0.00450 0.00147 0.58874
 H1751 H 0.05185 0.04366 0.66440
 H1752 H 0.07153 0.03837 0.68934
 H1753 H 0.07565 -0.01641 0.67436
 H1754 H 0.05566 -0.01126 0.64962
 C1755 C 0.50500 0.52883 0.09917
 C1756 C 0.49925 0.51473 0.08850
 C1757 C 0.48792 0.51771 0.07420
 C1758 C 0.48212 0.53484 0.07021
 C1759 C 0.48790 0.54894 0.08083
 C1760 C 0.49919 0.54597 0.09515
 C1761 C 0.51696 0.52566 0.11439
 N1762 N 0.52200 0.53913 0.12513
 N1763 N 0.53271 0.53628 0.13881
 C1764 C 0.53888 0.51984 0.14233
 N1765 N 0.53385 0.50637 0.13158
 N1766 N 0.52312 0.50922 0.11791
 C1767 C 0.55083 0.51668 0.15756
 C1768 C 0.55780 0.49980 0.16073
 C1769 C 0.56911 0.49684 0.17504
 C1770 C 0.57372 0.51068 0.18653
 C1771 C 0.56673 0.52754 0.18338
 C1772 C 0.55543 0.53051 0.16907
 H1773 H 0.50348 0.50137 0.09116
 H1774 H 0.48386 0.50661 0.06613
 H1775 H 0.48348 0.56226 0.07820
 H1776 H 0.50332 0.55713 0.10309
 H1777 H 0.55459 0.48884 0.15211
 H1778 H 0.57446 0.48375 0.17695
 H1779 H 0.56981 0.53843 0.19214
 H1780 H 0.55026 0.54367 0.16708
 C1781 C 0.49339 -0.02692 0.10012
 C1782 C 0.49915 -0.04405 0.09599
 C1783 C 0.51066 -0.04691 0.08172
 C1784 C 0.51673 -0.03272 0.07128
 C1785 C 0.51104 -0.01559 0.07543
 C1786 C 0.49948 -0.01272 0.08966
 C1787 C 0.48110 -0.02388 0.11521
 N1788 N 0.47489 -0.00746 0.11876
 N1789 N 0.46384 -0.00474 0.13230
 C1790 C 0.45852 -0.01831 0.14288
 N1791 N 0.46474 -0.03473 0.13933
 N1792 N 0.47578 -0.03745 0.12579
 C1793 C 0.44623 -0.01528 0.15797
 C1794 C 0.44144 -0.02919 0.16942
 C1795 C 0.42992 -0.02631 0.18367
 C1796 C 0.42289 -0.00946 0.18683
 C1797 C 0.42764 0.00444 0.17537
 C1798 C 0.43918 0.00157 0.16112
 H1799 H 0.49476 -0.05529 0.10376
 H1800 H 0.51499 -0.06024 0.07896
 H1801 H 0.51534 -0.00442 0.06750
 H1802 H 0.49532 0.00064 0.09244
 H1803 H 0.44667 -0.04232 0.16744
 H1804 H 0.42673 -0.03724 0.19240
 H1805 H 0.42226 0.01752 0.17729
 H1806 H 0.44251 0.01258 0.15255
 C1807 C 0.99240 0.47267 0.60069
 C1808 C 0.99840 0.45563 0.59654
 C1809 C 1.00982 0.45291 0.58216
 C1810 C 1.01554 0.46718 0.57164
 C1811 C 1.00954 0.48421 0.57575
 C1812 C 0.99809 0.48693 0.59009
 C1813 C 0.98031 0.47558 0.61596
 N1814 N 0.97405 0.49195 0.61966
 N1815 N 0.96323 0.49458 0.63339
 C1816 C 0.95819 0.48096 0.64404
 N1817 N 0.96444 0.46459 0.64035
 N1818 N 0.97526 0.46196 0.62660
 C1819 C 0.94615 0.48390 0.65935
 C1820 C 0.94149 0.46991 0.67074
 C1821 C 0.93018 0.47270 0.68519
 C1822 C 0.92325 0.48955 0.68859
 C1823 C 0.92789 0.50354 0.67720
 C1824 C 0.93921 0.50075 0.66276
 H1825 H 0.99431 0.44435 0.60442
 H1826 H 1.01437 0.43967 0.57941
 H1827 H 1.01354 0.49542 0.56772
 H1828 H 0.99371 0.50022 0.59286
 H1829 H 0.94663 0.45678 0.66857
 H1830 H 0.92706 0.46171 0.69385
 H1831 H 0.92258 0.51661 0.67931
 H1832 H 0.94246 0.51182 0.65424
 C1833 C 0.99548 0.53168 0.90114
 C1834 C 1.00128 0.51738 0.91145
 C1835 C 1.01291 0.52008 0.92557
 C1836 C 1.01897 0.53714 0.92976
 C1837 C 1.01318 0.55144 0.91949
 C1838 C 1.00159 0.54875 0.90533
 C1839 C 0.98316 0.52881 0.88613
 N1840 N 0.97808 0.54249 0.87572
 N1841 N 0.96702 0.53991 0.86224
 C1842 C 0.96055 0.52355 0.85859
 N1843 N 0.96562 0.50987 0.86900
 N1844 N 0.97669 0.51244 0.88248
 C1845 C 0.94822 0.52067 0.84358
 C1846 C 0.94094 0.50385 0.84031
 C1847 C 0.92932 0.50115 0.82618
 C1848 C 0.92470 0.51519 0.81497
 C1849 C 0.93198 0.53200 0.81823
 C1850 C 0.94359 0.53471 0.83236
 H1851 H 0.99683 0.50406 0.90863
 H1852 H 1.01698 0.50883 0.93338
 H1853 H 1.01780 0.56472 0.92228
 H1854 H 0.99743 0.56007 0.89767
 H1855 H 0.94415 0.49275 0.84871
 H1856 H 0.92374 0.48809 0.82418
 H1857 H 0.92889 0.54304 0.80969
 H1858 H 0.94899 0.54783 0.83444
 C1859 C 0.49634 0.03093 0.39830
 C1860 C 0.50318 0.04776 0.40235
 C1861 C 0.51472 0.05010 0.41663
 C1862 C 0.51972 0.03567 0.42713
 C1863 C 0.51294 0.01884 0.42305
 C1864 C 0.50139 0.01650 0.40882
 C1865 C 0.48393 0.02841 0.38331
 N1866 N 0.47689 0.01224 0.37978
 N1867 N 0.46567 0.00995 0.36638
 C1868 C 0.46100 0.02373 0.35591
 N1869 N 0.46805 0.03990 0.35942
 N1870 N 0.47926 0.04220 0.37283
 C1871 C 0.44848 0.02114 0.34102
 C1872 C 0.44406 0.03527 0.32982
 C1873 C 0.43227 0.03277 0.31577
 C1874 C 0.42463 0.01610 0.31260
 C1875 C 0.42902 0.00199 0.32381
 C1876 C 0.44080 0.00448 0.33784
 H1877 H 0.49961 0.05916 0.39452
 H1878 H 0.51987 0.06319 0.41936
 H1879 H 0.51634 0.00751 0.43107
 H1880 H 0.49635 0.00336 0.40613
 H1881 H 0.44975 0.04827 0.33184
 H1882 H 0.42934 0.04385 0.30724
 H1883 H 0.42317 -0.01095 0.32187
 H1884 H 0.44384 -0.00669 0.34623
   
